drugbank_target|P38606 V-type proton ATPase catalytic subunit A (DB00630; DB01077; DB06733; DB06734)
 OpenBabel12092120343D

  0  0  0     0  0            999 V3000
M  V30 BEGIN CTAB
M  V30 COUNTS 9576 9674 0 0 0
M  V30 BEGIN ATOM
M  V30 1 H -0.908 1.98254 -0.117106 0
M  V30 2 N 0 1.576 0 0
M  V30 3 C 0.933 2.03868 1.02534 0
M  V30 4 C 1.911 0.928543 1.3348 0
M  V30 5 O 3.095 1.19667 1.45644 0
M  V30 6 C 0.222 2.43627 2.35294 0
M  V30 7 C -0.732 3.65373 2.2001 0
M  V30 8 S 0.101 5.13292 1.52614 0
M  V30 9 C 1.257 5.56322 2.86805 0
M  V30 10 H 1.49 2.90518 0.631377 0
M  V30 11 H -0.977 1.52953 0.210867 0
M  V30 12 H 0.981 2.67203 3.11629 0
M  V30 13 H -0.358 1.57376 2.7183 0
M  V30 14 H -1.165 3.90944 3.18086 0
M  V30 15 H -1.563 3.418 1.51819 0
M  V30 16 H 0.729 5.58782 3.83104 0
M  V30 17 H 1.672 6.56266 2.65933 0
M  V30 18 H 2.08 4.83886 2.90714 0
M  V30 19 N 1.4781 -0.272755 1.55222 0
M  V30 20 C 2.7551 -1.02562 1.66555 0
M  V30 21 C 3.1351 -2.04282 0.532189 0
M  V30 22 O 2.4831 -2.23662 -0.467717 0
M  V30 23 C 2.6931 -1.6822 3.05782 0
M  V30 24 C 4.0411 -2.19373 3.63539 0
M  V30 25 O 5.0651 -1.78206 3.08417 0
M  V30 26 O 3.9241 -2.94883 4.60115 0
M  V30 27 H 1.0181 -0.475755 0.676451 0
M  V30 28 H 3.5641 -0.268593 1.67561 0
M  V30 29 H 2.3361 -0.945112 3.79715 0
M  V30 30 H 1.9591 -2.50609 3.08676 0
M  V30 31 N 2.9562 -1.48159 -0.537278 0
M  V30 32 C 4.2032 -1.55804 -1.29349 0
M  V30 33 C 4.5312 -0.228802 -1.9315 0
M  V30 34 O 3.7862 0.780242 -1.79473 0
M  V30 35 C 4.0852 -2.63956 -2.40961 0
M  V30 36 C 3.7512 -4.0662 -1.94861 0
M  V30 37 C 2.4132 -4.45452 -1.82006 0
M  V30 38 C 4.7652 -4.96055 -1.59933 0
M  V30 39 C 2.0932 -5.71531 -1.32547 0
M  V30 40 C 4.4452 -6.22617 -1.11939 0
M  V30 41 C 3.1092 -6.60312 -0.976951 0
M  V30 42 H 2.3792 -0.570129 -0.473322 0
M  V30 43 H 5.0262 -1.81845 -0.600372 0
M  V30 44 H 3.3312 -2.31747 -3.15912 0
M  V30 45 H 5.0282 -2.67089 -2.99107 0
M  V30 46 H 1.6182 -3.75949 -2.05815 0
M  V30 47 H 5.8022 -4.66738 -1.68728 0
M  V30 48 H 1.0582 -5.99468 -1.202 0
M  V30 49 H 5.2322 -6.91318 -0.839811 0
M  V30 50 H 2.8592 -7.57895 -0.591501 0
M  V30 51 N 4.4343 0.785586 -1.36625 0
M  V30 52 C 5.6593 1.57963 -1.34397 0
M  V30 53 C 6.0843 1.87964 0.071526 0
M  V30 54 O 5.4423 1.48182 1.0446 0
M  V30 55 C 5.4903 2.87511 -2.17646 0
M  V30 56 O 4.5943 3.81281 -1.57158 0
M  V30 57 H 3.9353 0.479014 -0.459828 0
M  V30 58 H 6.4653 0.973411 -1.79961 0
M  V30 59 H 6.4753 3.36745 -2.30362 0
M  V30 60 H 5.1503 2.65002 -3.20541 0
M  V30 61 H 3.7273 3.39885 -1.53403 0
M  V30 62 N 5.9124 1.20967 1.01018 0
M  V30 63 C 6.8594 0.964281 2.09691 0
M  V30 64 C 7.8294 -0.107853 1.65749 0
M  V30 65 O 9.0144 0.0381987 1.90762 0
M  V30 66 C 6.1544 0.52943 3.41015 0
M  V30 67 C 5.2674 1.67043 3.98398 0
M  V30 68 C 4.4024 1.18525 5.17808 0
M  V30 69 C 3.4414 2.29892 5.67288 0
M  V30 70 N 2.5784 1.82546 6.77954 0
M  V30 71 H 7.4184 1.89463 2.30017 0
M  V30 72 H 4.9554 0.944289 1.1279 0
M  V30 73 H 6.9134 0.258588 4.16398 0
M  V30 74 H 5.5434 -0.363919 3.20742 0
M  V30 75 H 4.5954 2.05603 3.20049 0
M  V30 76 H 5.9074 2.50877 4.31117 0
M  V30 77 H 5.0614 0.870762 6.00419 0
M  V30 78 H 3.8004 0.316887 4.86669 0
M  V30 79 H 2.8054 2.6215 4.83278 0
M  V30 80 H 4.0304 3.17216 6.00459 0
M  V30 81 H 1.9764 0.980454 6.48632 0
M  V30 82 H 1.8934 2.59956 7.09901 0
M  V30 83 H 3.1614 1.54115 7.64113 0
M  V30 84 N 7.3905 -1.2043 1.01659 0
M  V30 85 C 8.3205 -2.25466 0.607226 0
M  V30 86 C 9.3015 -1.65853 -0.377716 0
M  V30 87 O 10.4865 -1.92409 -0.263149 0
M  V30 88 C 7.6165 -3.47256 -0.0552949 0
M  V30 89 C 6.5705 -4.19462 0.850632 0
M  V30 90 C 5.8965 -5.34673 0.0538859 0
M  V30 91 C 7.1965 -4.75603 2.15868 0
M  V30 92 H 8.8905 -2.59962 1.48526 0
M  V30 93 H 6.4365 -1.2496 0.715605 0
M  V30 94 H 8.3895 -4.19917 -0.353233 0
M  V30 95 H 7.1135 -3.11924 -0.968045 0
M  V30 96 H 5.7725 -3.48667 1.13257 0
M  V30 97 H 5.4205 -4.95585 -0.860514 0
M  V30 98 H 5.1205 -5.83913 0.657192 0
M  V30 99 H 6.6445 -6.10138 -0.237598 0
M  V30 100 H 8.0585 -5.40083 1.92311 0
M  V30 101 H 6.4555 -5.3528 2.71284 0
M  V30 102 H 7.5255 -3.94346 2.82169 0
M  V30 103 N 8.8686 -0.792821 -1.36206 0
M  V30 104 C 10.2796 -0.429513 -1.81692 0
M  V30 105 C 10.6306 1.04695 -1.65932 0
M  V30 106 O 9.7556 1.81256 -1.18218 0
M  V30 107 C 10.3506 -0.772831 -3.29868 0
M  V30 108 C 8.9096 -0.462307 -3.7355 0
M  V30 109 C 8.0566 -1.00569 -2.5842 0
M  V30 110 H 11.0076 -0.985672 -1.24379 0
M  V30 111 H 11.0286 -0.0651928 -3.80444 0
M  V30 112 H 10.5406 -1.84747 -3.41307 0
M  V30 113 H 8.6416 0.604158 -3.67669 0
M  V30 114 H 8.7546 -0.985299 -4.68859 0
M  V30 115 H 7.1186 -0.428734 -2.51066 0
M  V30 116 H 7.9016 -2.08616 -2.72643 0
M  V30 117 N 10.3467 1.47872 -0.545128 0
M  V30 118 C 11.2937 2.29849 0.2093 0
M  V30 119 C 12.2637 1.38313 0.919707 0
M  V30 120 O 13.4487 1.67277 0.917772 0
M  V30 121 C 10.5887 3.22019 1.24088 0
M  V30 122 C 9.7017 4.2864 0.537778 0
M  V30 123 C 8.8367 5.07973 1.5536 0
M  V30 124 C 7.8757 6.06381 0.8348 0
M  V30 125 N 7.0127 6.78717 1.79688 0
M  V30 126 H 11.8527 2.93845 -0.49591 0
M  V30 127 H 9.3897 1.44848 -0.256389 0
M  V30 128 H 11.3477 3.73868 1.85144 0
M  V30 129 H 9.9777 2.59914 1.91428 0
M  V30 130 H 9.0297 3.7994 -0.187046 0
M  V30 131 H 10.3417 4.98793 -0.0258907 0
M  V30 132 H 9.4957 5.63912 2.23803 0
M  V30 133 H 8.2347 4.37693 2.15118 0
M  V30 134 H 7.2397 5.49631 0.136388 0
M  V30 135 H 8.4647 6.78665 0.24313 0
M  V30 136 H 6.4107 6.11177 2.38326 0
M  V30 137 H 6.3277 7.44998 1.28505 0
M  V30 138 H 7.5957 7.39237 2.47282 0
M  V30 139 N 11.8248 0.280983 1.55075 0
M  V30 140 C 13.0738 -0.334784 1.98902 0
M  V30 141 C 13.3868 -1.56534 1.17288 0
M  V30 142 O 14.5928 -2.25443 1.51287 0
M  V30 143 C 13.0488 -0.646994 3.54037 0
M  V30 144 C 12.6568 0.564085 4.44435 0
M  V30 145 C 14.4008 -1.22506 4.06439 0
M  V30 146 C 12.3078 0.226137 5.90967 0
M  V30 147 H 11.2378 -0.128866 0.742906 0
M  V30 148 H 13.8888 0.386556 1.79382 0
M  V30 149 H 12.2708 -1.42739 3.6938 0
M  V30 150 H 13.4448 1.34082 4.40861 0
M  V30 151 H 11.7598 1.0594 4.02698 0
M  V30 152 H 14.3568 -1.49182 5.13468 0
M  V30 153 H 14.6998 -2.16085 3.55827 0
M  V30 154 H 15.2328 -0.50682 3.94558 0
M  V30 155 H 11.9718 1.12996 6.45687 0
M  V30 156 H 11.4918 -0.513717 5.97596 0
M  V30 157 H 13.1708 -0.179539 6.46751 0
M  V30 158 N 13.3029 -1.57598 0.00835791 0
M  V30 159 C 14.2329 -2.1198 -0.979113 0
M  V30 160 C 15.2139 -1.03091 -1.35301 0
M  V30 161 O 16.3989 -1.30818 -1.43528 0
M  V30 162 C 13.5289 -2.62995 -2.26828 0
M  V30 163 C 12.4829 -3.76485 -2.03576 0
M  V30 164 C 11.8089 -4.13846 -3.38579 0
M  V30 165 C 13.1089 -5.0342 -1.39161 0
M  V30 166 H 14.8029 -2.94738 -0.526281 0
M  V30 167 H 12.3489 -1.41783 -0.251704 0
M  V30 168 H 14.3019 -2.99669 -2.96271 0
M  V30 169 H 13.0259 -1.7737 -2.7424 0
M  V30 170 H 11.6849 -3.40217 -1.36557 0
M  V30 171 H 11.3329 -3.25232 -3.83709 0
M  V30 172 H 11.0329 -4.90312 -3.23834 0
M  V30 173 H 12.5569 -4.53086 -4.09323 0
M  V30 174 H 13.9709 -5.37812 -1.98573 0
M  V30 175 H 12.3679 -5.84746 -1.34878 0
M  V30 176 H 13.4379 -4.83548 -0.361868 0
M  V30 177 N 14.781 0.264519 -1.55364 0
M  V30 178 C 16.058 1.01677 -1.67096 0
M  V30 179 C 16.438 2.03996 -0.543015 0
M  V30 180 O 15.786 2.23907 0.45585 0
M  V30 181 C 15.996 1.66596 -3.0667 0
M  V30 182 C 17.344 2.17442 -3.64697 0
M  V30 183 O 18.368 1.76568 -3.09358 0
M  V30 184 O 17.227 2.92439 -4.61673 0
M  V30 185 H 14.321 0.472161 -0.678965 0
M  V30 186 H 16.867 0.259703 -1.67701 0
M  V30 187 H 15.639 0.924962 -3.80211 0
M  V30 188 H 15.262 2.48968 -3.10001 0
M  V30 189 N 16.2591 1.48442 0.529413 0
M  V30 190 C 17.1691 1.6569 1.66084 0
M  V30 191 C 18.1851 0.539432 1.65427 0
M  V30 192 O 19.3611 0.810572 1.84368 0
M  V30 193 C 16.4261 1.69315 3.02545 0
M  V30 194 C 15.4871 2.92694 3.14052 0
M  V30 195 C 14.7201 2.96137 4.44003 0
M  V30 196 O 14.9431 2.07973 5.31134 0
M  V30 197 O 13.8771 3.88312 4.59888 0
M  V30 198 H 17.7031 2.61483 1.54469 0
M  V30 199 H 15.2881 1.3185 0.702567 0
M  V30 200 H 17.1701 1.74217 3.83701 0
M  V30 201 H 15.8451 0.766966 3.14483 0
M  V30 202 H 14.7521 2.93324 2.32189 0
M  V30 203 H 16.0851 3.84699 3.0703 0
M  V30 204 N 17.7372 -0.778329 1.37039 0
M  V30 205 C 19.0142 -1.52551 1.22424 0
M  V30 206 C 19.3942 -2.10288 -0.184964 0
M  V30 207 O 18.7422 -1.94953 -1.19187 0
M  V30 208 C 18.9522 -2.61164 2.31504 0
M  V30 209 C 20.3002 -3.28746 2.68721 0
M  V30 210 O 21.3242 -2.71455 2.30631 0
M  V30 211 O 20.1832 -4.3231 3.3432 0
M  V30 212 H 17.2772 -0.675343 0.477326 0
M  V30 213 H 19.8232 -0.815859 1.48801 0
M  V30 214 H 18.5952 -2.16574 3.25901 0
M  V30 215 H 18.2182 -3.39737 2.06554 0
M  V30 216 N 19.2153 -1.21501 -1.00376 0
M  V30 217 C 20.1623 -0.975387 -2.09177 0
M  V30 218 C 21.1323 0.0990615 -1.65804 0
M  V30 219 O 22.3173 -0.0483147 -1.90739 0
M  V30 220 C 19.4573 -0.547507 -3.40729 0
M  V30 221 C 18.5703 -1.69153 -3.97506 0
M  V30 222 C 17.7053 -1.2127 -5.17172 0
M  V30 223 C 16.7443 -2.32897 -5.66061 0
M  V30 224 N 15.8813 -1.86138 -6.76976 0
M  V30 225 H 20.7213 -1.9068 -2.29009 0
M  V30 226 H 18.2583 -0.950257 -1.12288 0
M  V30 227 H 20.2163 -0.280667 -4.16255 0
M  V30 228 H 18.8463 0.346904 -3.20931 0
M  V30 229 H 17.8983 -2.07298 -3.18954 0
M  V30 230 H 19.2103 -2.5316 -4.29781 0
M  V30 231 H 18.3643 -0.902591 -5.99948 0
M  V30 232 H 17.1033 -0.342692 -4.86495 0
M  V30 233 H 16.1083 -2.64709 -4.81881 0
M  V30 234 H 17.3333 -3.20396 -5.98768 0
M  V30 235 H 15.2793 -1.01484 -6.48103 0
M  V30 236 H 15.1963 -2.63717 -7.08512 0
M  V30 237 H 16.4643 -1.58165 -7.63285 0
M  V30 238 N 20.6934 1.19889 -1.02296 0
M  V30 239 C 21.6034 2.26571 -0.608508 0
M  V30 240 C 22.6194 1.70299 0.356964 0
M  V30 241 O 23.7954 2.00235 0.216326 0
M  V30 242 C 20.8604 3.46677 0.0402814 0
M  V30 243 C 19.9214 4.18153 -0.97194 0
M  V30 244 C 19.1544 5.32525 -0.354016 0
M  V30 245 O 19.3774 5.64112 0.844604 0
M  V30 246 O 18.3114 5.92242 -1.07391 0
M  V30 247 H 22.1374 2.64251 -1.49684 0
M  V30 248 H 19.7224 1.26629 -0.792809 0
M  V30 249 H 21.6044 4.19475 0.402324 0
M  V30 250 H 20.2794 3.10858 0.902707 0
M  V30 251 H 19.1864 3.47499 -1.38546 0
M  V30 252 H 20.5194 4.57927 -1.80454 0
M  V30 253 N 22.1715 0.800033 1.35784 0
M  V30 254 C 23.3965 0.388511 2.03729 0
M  V30 255 C 23.8215 -0.990481 1.5991 0
M  V30 256 O 23.1795 -1.64013 0.772612 0
M  V30 257 C 23.2275 0.4726 3.5749 0
M  V30 258 O 22.3315 -0.51646 4.09153 0
M  V30 259 H 21.6725 0.163271 0.643614 0
M  V30 260 H 24.2025 1.0841 1.73518 0
M  V30 261 H 24.2125 0.34003 4.06581 0
M  V30 262 H 22.8875 1.47848 3.88734 0
M  V30 263 H 21.4645 -0.344673 3.71304 0
M  V30 264 N 23.6496 -1.47581 0.552962 0
M  V30 265 C 24.8776 -2.06875 0.0320556 0
M  V30 266 C 25.2926 -1.40625 -1.25976 0
M  V30 267 O 24.6496 -0.501349 -1.75479 0
M  V30 268 C 24.7006 -3.61092 -0.17167 0
M  V30 269 O 24.4216 -4.24858 1.06899 0
M  V30 270 C 25.9226 -4.37242 -0.730344 0
M  V30 271 H 23.1426 -0.669561 0.043915 0
M  V30 272 H 25.6866 -1.89646 0.765163 0
M  V30 273 H 23.8416 -3.7785 -0.854894 0
M  V30 274 H 24.2556 -5.17334 0.864059 0
M  V30 275 H 25.7296 -5.45842 -0.822203 0
M  V30 276 H 26.2066 -4.03235 -1.74064 0
M  V30 277 H 26.8126 -4.25219 -0.0829543 0
M  V30 278 N 25.1277 -0.289203 -1.54924 0
M  V30 279 C 26.3747 0.323519 -1.99899 0
M  V30 280 C 26.7027 1.54797 -1.17762 0
M  V30 281 O 25.9577 1.94237 -0.238835 0
M  V30 282 C 26.2567 0.736119 -3.49737 0
M  V30 283 C 25.9227 -0.385276 -4.49251 0
M  V30 284 C 24.5847 -0.693156 -4.76181 0
M  V30 285 C 26.9367 -1.14021 -5.08575 0
M  V30 286 C 24.2647 -1.7593 -5.59701 0
M  V30 287 C 26.6167 -2.19619 -5.93254 0
M  V30 288 C 25.2807 -2.51026 -6.185 0
M  V30 289 H 24.5507 0.118384 -0.731482 0
M  V30 290 H 27.1977 -0.405847 -1.8715 0
M  V30 291 H 25.5027 1.54539 -3.60035 0
M  V30 292 H 27.1997 1.22118 -3.81953 0
M  V30 293 H 23.7897 -0.135202 -4.28387 0
M  V30 294 H 27.9737 -0.915611 -4.87781 0
M  V30 295 H 23.2297 -2.0075 -5.77503 0
M  V30 296 H 27.4037 -2.78581 -6.38252 0
M  V30 297 H 25.0307 -3.33772 -6.83008 0
M  V30 298 N 26.6058 1.57591 -0.0167156 0
M  V30 299 C 27.8538 1.90906 0.663285 0
M  V30 300 C 28.1748 0.892509 1.73376 0
M  V30 301 O 27.4448 -0.0677623 1.95783 0
M  V30 302 H 26.0248 0.704637 0.247983 0
M  V30 303 H 28.6868 1.94803 -0.0615909 0
M  V30 304 H 27.7828 2.9116 1.12393 0
M  V30 305 N 28.0839 -0.256276 1.55502 0
M  V30 306 C 29.3139 -1.00196 1.80677 0
M  V30 307 C 29.7219 -1.79805 0.588797 0
M  V30 308 O 29.0649 -1.78055 -0.451883 0
M  V30 309 C 29.1269 -1.99515 2.99055 0
M  V30 310 C 28.7909 -1.38688 4.35448 0
M  V30 311 C 29.7879 -0.794079 5.138 0
M  V30 312 C 27.4729 -1.40906 4.82132 0
M  V30 313 C 29.4669 -0.231562 6.36979 0
M  V30 314 C 27.1539 -0.842684 6.05262 0
M  V30 315 C 28.1519 -0.254953 6.82524 0
M  V30 316 O 27.8399 0.3027 8.0333 0
M  V30 317 H 27.5719 -0.300919 0.60533 0
M  V30 318 H 30.1259 -0.287307 2.03381 0
M  V30 319 H 28.3559 -2.74785 2.72084 0
M  V30 320 H 30.0449 -2.60349 3.11405 0
M  V30 321 H 30.8109 -0.769519 4.78856 0
M  V30 322 H 26.6899 -1.85591 4.21992 0
M  V30 323 H 30.2339 0.227816 6.97228 0
M  V30 324 H 26.1309 -0.86454 6.39684 0
M  V30 325 H 26.8989 0.193662 8.18271 0
M  V30 326 N 29.562 -1.4872 -0.521534 0
M  V30 327 C 30.808 -1.574 -1.27879 0
M  V30 328 C 31.141 -0.250817 -1.92573 0
M  V30 329 O 30.416 0.743934 -1.79711 0
M  V30 330 C 30.699 -2.71843 -2.36164 0
M  V30 331 C 30.552 -4.13893 -1.76105 0
M  V30 332 C 31.871 -2.82008 -3.37875 0
M  V30 333 H 28.99 -0.572941 -0.463581 0
M  V30 334 H 31.632 -1.80927 -0.580119 0
M  V30 335 H 29.782 -2.51914 -2.95756 0
M  V30 336 H 31.454 -4.45284 -1.20499 0
M  V30 337 H 29.697 -4.20498 -1.06601 0
M  V30 338 H 30.368 -4.89804 -2.5455 0
M  V30 339 H 32.844 -3.00086 -2.88249 0
M  V30 340 H 31.72 -3.63796 -4.11028 0
M  V30 341 H 31.981 -1.90511 -3.98946 0
M  V30 342 N 31.0401 0.771051 -1.3745 0
M  V30 343 C 31.9901 1.87456 -1.29785 0
M  V30 344 C 32.9741 1.59827 -0.185541 0
M  V30 345 O 34.1661 1.71945 -0.419997 0
M  V30 346 C 31.2951 3.24935 -1.1078 0
M  V30 347 C 30.3811 3.58514 -2.26558 0
M  V30 348 N 30.7721 3.6327 -3.5195 0
M  V30 349 C 29.0701 3.88683 -2.18727 0
M  V30 350 C 29.7711 3.93616 -4.283 0
M  V30 351 N 28.7471 4.09551 -3.57448 0
M  V30 352 H 32.5491 1.89386 -2.24745 0
M  V30 353 H 30.0631 0.967531 -1.30432 0
M  V30 354 H 32.0601 4.03881 -1.03374 0
M  V30 355 H 30.7201 3.24268 -0.16738 0
M  V30 356 H 31.7311 3.45458 -3.85848 0
M  V30 357 H 28.4081 3.95834 -1.32746 0
M  V30 358 H 29.7981 4.04066 -5.36824 0
M  V30 359 N 32.5182 1.22032 0.997298 0
M  V30 360 C 33.7662 1.04016 1.73278 0
M  V30 361 C 34.0872 -0.426255 1.90284 0
M  V30 362 O 33.3572 -1.30694 1.45931 0
M  V30 363 H 31.9372 0.381897 0.642 0
M  V30 364 H 34.5992 1.5347 1.20137 0
M  V30 365 H 33.6952 1.51441 2.72896 0
M  V30 366 N 33.9963 -1.19345 1.0293 0
M  V30 367 C 35.2423 -1.89318 0.727083 0
M  V30 368 C 35.5753 -1.79446 -0.742483 0
M  V30 369 O 34.8503 -1.1871 -1.54072 0
M  V30 370 C 35.1333 -3.40238 1.17942 0
M  V30 371 C 34.9863 -3.58979 2.71024 0
M  V30 372 C 36.3053 -4.33479 0.760548 0
M  V30 373 H 33.4243 -0.687475 0.265606 0
M  V30 374 H 36.0663 -1.40477 1.2793 0
M  V30 375 H 34.2163 -3.81964 0.709608 0
M  V30 376 H 35.8883 -3.26421 3.25955 0
M  V30 377 H 34.1313 -3.02018 3.11396 0
M  V30 378 H 34.8023 -4.64823 2.9773 0
M  V30 379 H 37.2783 -3.99469 1.16464 0
M  V30 380 H 36.1543 -5.37664 1.10493 0
M  V30 381 H 36.4153 -4.40813 -0.337063 0
M  V30 382 N 35.4744 -0.807222 -1.35358 0
M  V30 383 C 36.6994 -0.399309 -2.0352 0
M  V30 384 C 37.1244 0.981986 -1.60433 0
M  V30 385 O 36.4824 1.63601 -0.781299 0
M  V30 386 C 36.5304 -0.491552 -3.57234 0
M  V30 387 O 35.6344 0.494754 -4.09421 0
M  V30 388 H 34.9754 -0.166682 -0.642739 0
M  V30 389 H 37.5054 -1.09328 -1.72941 0
M  V30 390 H 37.5154 -0.361588 -4.06395 0
M  V30 391 H 36.1904 -1.49907 -3.87944 0
M  V30 392 H 34.7674 0.324977 -3.71481 0
M  V30 393 N 36.9525 1.47285 -0.560781 0
M  V30 394 C 38.2005 2.02064 -0.0379868 0
M  V30 395 C 38.5215 1.43711 1.31803 0
M  V30 396 O 37.7915 0.61362 1.86042 0
M  V30 397 H 36.3715 0.746918 -0.0110531 0
M  V30 398 H 39.0335 1.80648 -0.731598 0
M  V30 399 H 38.1295 3.12064 0.0474463 0
M  V30 400 N 38.4306 0.297415 1.54768 0
M  V30 401 C 39.8416 -0.195947 1.85669 0
M  V30 402 C 40.1926 -1.53707 1.21937 0
M  V30 403 O 39.3176 -2.10164 0.515754 0
M  V30 404 C 39.9126 -0.362318 3.36857 0
M  V30 405 C 38.4716 -0.799901 3.67802 0
M  V30 406 C 37.6186 0.0938578 2.77141 0
M  V30 407 H 40.5696 0.518538 1.4999 0
M  V30 408 H 40.5906 -1.19745 3.61167 0
M  V30 409 H 40.1026 0.613921 3.83214 0
M  V30 410 H 38.2036 -1.78682 3.26961 0
M  V30 411 H 38.3166 -0.621773 4.75048 0
M  V30 412 H 36.6806 -0.426254 2.51108 0
M  V30 413 H 37.4636 1.06639 3.26318 0
M  V30 414 N 39.9087 -1.5758 0.0250728 0
M  V30 415 C 41.1547 -1.91917 -0.655413 0
M  V30 416 C 41.4877 -0.901433 -1.72011 0
M  V30 417 O 40.7627 0.0764069 -1.9435 0
M  V30 418 C 41.0457 -3.36751 -1.27558 0
M  V30 419 C 40.8987 -4.49258 -0.220719 0
M  V30 420 C 42.2177 -3.81469 -2.19475 0
M  V30 421 H 39.3367 -0.697925 -0.23679 0
M  V30 422 H 41.9787 -1.89825 0.0815036 0
M  V30 423 H 40.1287 -3.38664 -1.90365 0
M  V30 424 H 41.8007 -4.59478 0.409601 0
M  V30 425 H 40.0437 -4.31415 0.454264 0
M  V30 426 H 40.7147 -5.47618 -0.694175 0
M  V30 427 H 43.1907 -3.81266 -1.66659 0
M  V30 428 H 42.0667 -4.83512 -2.59822 0
M  V30 429 H 42.3277 -3.16744 -3.08424 0
M  V30 430 N 41.3868 0.248026 -1.55636 0
M  V30 431 C 42.6328 0.97767 -1.77678 0
M  V30 432 C 42.9658 1.85016 -0.590135 0
M  V30 433 O 42.2408 1.90095 0.411611 0
M  V30 434 C 42.5238 1.83914 -3.09593 0
M  V30 435 C 42.3768 0.99491 -4.38659 0
M  V30 436 C 43.6958 2.82183 -3.37729 0
M  V30 437 H 40.8148 0.354005 -0.646413 0
M  V30 438 H 43.4568 0.248253 -1.88371 0
M  V30 439 H 41.6068 2.46104 -3.00608 0
M  V30 440 H 43.2788 0.391789 -4.59633 0
M  V30 441 H 41.5218 0.299231 -4.32767 0
M  V30 442 H 42.1928 1.63145 -5.2734 0
M  V30 443 H 44.6688 2.30129 -3.4667 0
M  V30 444 H 43.5448 3.39582 -4.31249 0
M  V30 445 H 43.8058 3.58588 -2.58586 0
M  V30 446 N 42.8649 1.48995 0.513639 0
M  V30 447 C 44.0929 1.61531 1.29288 0
M  V30 448 C 44.5079 0.281801 1.86685 0
M  V30 449 O 43.8649 -0.731111 1.67215 0
M  V30 450 C 43.9159 2.67449 2.43215 0
M  V30 451 O 43.6369 3.95626 1.88179 0
M  V30 452 C 45.1379 2.90575 3.34785 0
M  V30 453 H 42.3579 0.544165 0.392588 0
M  V30 454 H 44.9019 1.9494 0.617956 0
M  V30 455 H 43.0569 2.36853 3.0656 0
M  V30 456 H 43.4709 4.53868 2.62876 0
M  V30 457 H 44.9449 3.68449 4.11035 0
M  V30 458 H 45.4219 2.00011 3.91015 0
M  V30 459 H 46.0279 3.22538 2.77218 0
M  V30 460 N 44.343 -0.763751 1.37857 0
M  V30 461 C 45.306 -1.85889 1.34081 0
M  V30 462 C 46.306 -1.58949 0.243277 0
M  V30 463 O 47.496 -1.66882 0.499589 0
M  V30 464 C 44.628 -3.23176 1.08489 0
M  V30 465 H 45.821 -1.90648 2.31502 0
M  V30 466 H 43.374 -0.964367 1.23003 0
M  V30 467 H 44.109 -3.24091 0.116318 0
M  V30 468 H 43.894 -3.44124 1.8794 0
M  V30 469 H 45.384 -4.03254 1.08517 0
M  V30 470 N 45.8211 -1.22559 -0.990812 0
M  V30 471 C 47.0611 -1.06302 -1.74583 0
M  V30 472 C 47.4251 0.394737 -1.87898 0
M  V30 473 O 48.6261 0.678214 -2.60103 0
M  V30 474 C 46.8971 -1.75699 -3.11231 0
M  V30 475 S 48.4561 -1.74882 -4.02445 0
M  V30 476 H 45.2741 -0.380639 -0.600529 0
M  V30 477 H 47.8761 -1.55532 -1.18449 0
M  V30 478 H 46.5801 -2.80923 -2.99183 0
M  V30 479 H 46.1111 -1.26708 -3.72436 0
M  V30 480 H 48.1261 -0.799997 -4.89709 0
M  V30 481 N 47.2992 1.18797 -1.03562 0
M  V30 482 C 48.5762 1.84469 -0.650434 0
M  V30 483 C 48.9562 1.92319 0.870433 0
M  V30 484 O 48.3042 1.44528 1.76986 0
M  V30 485 C 48.5142 3.2306 -1.32036 0
M  V30 486 C 49.8622 3.9915 -1.44792 0
M  V30 487 O 50.8862 3.32481 -1.27806 0
M  V30 488 O 49.7452 5.18587 -1.72423 0
M  V30 489 H 46.8392 0.795251 -0.226946 0
M  V30 490 H 49.3852 1.26231 -1.13419 0
M  V30 491 H 48.1572 3.1222 -2.3587 0
M  V30 492 H 47.7802 3.88949 -0.8249 0
M  V30 493 N 48.7773 0.814389 1.34928 0
M  V30 494 C 49.7103 0.175641 2.27523 0
M  V30 495 C 50.6883 -0.662953 1.48471 0
M  V30 496 O 51.8723 -0.628545 1.77712 0
M  V30 497 C 48.9993 -0.755516 3.30166 0
M  V30 498 C 48.0453 0.00445305 4.265 0
M  V30 499 S 48.8783 1.34582 5.18313 0
M  V30 500 C 50.0343 0.419315 6.24494 0
M  V30 501 H 50.2673 0.960691 2.8135 0
M  V30 502 H 47.8003 0.609846 1.41846 0
M  V30 503 H 49.7583 -1.28723 3.89796 0
M  V30 504 H 48.4193 -1.51402 2.75202 0
M  V30 505 H 47.6123 -0.703077 4.99072 0
M  V30 506 H 47.2143 0.466447 3.7108 0
M  V30 507 H 49.5063 -0.392432 6.76362 0
M  V30 508 H 50.4493 1.11446 6.99275 0
M  V30 509 H 50.8573 0.0115389 5.64499 0
M  V30 510 N 50.2554 -1.46986 0.568584 0
M  V30 511 C 51.2184 -2.28624 -0.162366 0
M  V30 512 C 52.2184 -1.37596 -0.832103 0
M  V30 513 O 53.4084 -1.60115 -0.68622 0
M  V30 514 C 50.5404 -3.17596 -1.23878 0
M  V30 515 H 51.7334 -2.94722 0.554899 0
M  V30 516 H 49.2864 -1.52863 0.325976 0
M  V30 517 H 50.0214 -2.56214 -1.98808 0
M  V30 518 H 49.8064 -3.846 -0.763219 0
M  V30 519 H 51.2964 -3.79078 -1.75185 0
M  V30 520 N 51.7335 -0.305618 -1.54608 0
M  V30 521 C 52.9815 0.301701 -1.99835 0
M  V30 522 C 53.3025 1.54054 -1.19551 0
M  V30 523 O 52.5725 1.93702 -0.292658 0
M  V30 524 H 51.1525 0.114468 -0.738178 0
M  V30 525 H 53.8145 -0.418016 -1.90364 0
M  V30 526 H 52.9105 0.570548 -3.06841 0
M  V30 527 N 53.2116 1.57565 -0.0334293 0
M  V30 528 C 54.1746 2.09393 0.932048 0
M  V30 529 C 55.1746 1.00986 1.25134 0
M  V30 530 O 56.3646 1.27129 1.19096 0
M  V30 531 C 53.4966 2.56338 2.2473 0
M  V30 532 H 54.6896 2.95984 0.483085 0
M  V30 533 H 52.2426 1.54819 0.21468 0
M  V30 534 H 52.9776 1.7309 2.74245 0
M  V30 535 H 52.7626 3.35542 2.02865 0
M  V30 536 H 54.2526 2.96646 2.93923 0
M  V30 537 N 54.6897 -0.239769 1.55765 0
M  V30 538 C 55.6527 -1.28038 1.90103 0
M  V30 539 C 56.6527 -1.40723 0.778055 0
M  V30 540 O 57.8427 -1.39301 1.04599 0
M  V30 541 C 54.9747 -2.65702 2.13577 0
M  V30 542 H 56.1677 -0.988048 2.83157 0
M  V30 543 H 53.7207 -0.479382 1.48767 0
M  V30 544 H 54.4557 -3.00063 1.23015 0
M  V30 545 H 54.2407 -2.57875 2.95369 0
M  V30 546 H 55.7307 -3.40828 2.41301 0
M  V30 547 N 56.1678 -1.49265 -0.50573 0
M  V30 548 C 57.1008 -1.60183 -1.62532 0
M  V30 549 C 58.0788 -0.451107 -1.56217 0
M  V30 550 O 59.2628 -0.666016 -1.76342 0
M  V30 551 C 56.3898 -1.55238 -3.01029 0
M  V30 552 C 55.4358 -2.7545 -3.25621 0
M  V30 553 S 56.2688 -4.37174 -3.09256 0
M  V30 554 C 57.4248 -4.34866 -4.50158 0
M  V30 555 H 57.6578 -2.54894 -1.53025 0
M  V30 556 H 55.1908 -1.38098 -0.690535 0
M  V30 557 H 57.1488 -1.53071 -3.80893 0
M  V30 558 H 55.8098 -0.618238 -3.07956 0
M  V30 559 H 55.0028 -2.68197 -4.26716 0
M  V30 560 H 54.6048 -2.75005 -2.53472 0
M  V30 561 H 56.8968 -4.06295 -5.42154 0
M  V30 562 H 57.8398 -5.36223 -4.62462 0
M  V30 563 H 58.2478 -3.65007 -4.30616 0
M  V30 564 N 57.6459 0.756429 -1.3826 0
M  V30 565 C 58.8759 1.54341 -1.3734 0
M  V30 566 C 59.2839 1.89159 0.0393917 0
M  V30 567 O 58.6269 1.5307 1.01565 0
M  V30 568 C 58.6889 2.87238 -2.16182 0
M  V30 569 C 58.3529 2.74973 -3.65019 0
M  V30 570 C 59.3499 2.44962 -4.58574 0
M  V30 571 C 57.0349 2.92515 -4.08338 0
M  V30 572 C 59.0289 2.32642 -5.93428 0
M  V30 573 C 56.7159 2.79815 -5.43274 0
M  V30 574 C 57.7139 2.49921 -6.35632 0
M  V30 575 O 57.4019 2.37275 -7.68086 0
M  V30 576 H 57.1339 0.484281 -0.471643 0
M  V30 577 H 59.6879 0.944152 -1.82414 0
M  V30 578 H 57.9179 3.49342 -1.65822 0
M  V30 579 H 59.6069 3.48731 -2.07705 0
M  V30 580 H 60.3729 2.31081 -4.26412 0
M  V30 581 H 56.2519 3.14781 -3.368 0
M  V30 582 H 59.7959 2.0923 -6.65484 0
M  V30 583 H 55.6929 2.93269 -5.75034 0
M  V30 584 H 56.4609 2.52509 -7.78577 0
M  V30 585 N 59.124 1.23083 0.984299 0
M  V30 586 C 60.034 1.02515 2.11016 0
M  V30 587 C 61.05 -0.0291702 1.73976 0
M  V30 588 O 62.226 0.165434 2.00719 0
M  V30 589 C 59.291 0.614673 3.41208 0
M  V30 590 C 58.352 1.74359 3.92297 0
M  V30 591 C 57.585 1.35261 5.16275 0
M  V30 592 O 57.808 0.235136 5.69915 0
M  V30 593 O 56.742 2.17227 5.61334 0
M  V30 594 H 60.568 1.96862 2.31255 0
M  V30 595 H 58.153 1.01753 1.09392 0
M  V30 596 H 60.035 0.396518 4.1953 0
M  V30 597 H 58.71 -0.299851 3.22308 0
M  V30 598 H 57.617 2.01635 3.1511 0
M  V30 599 H 58.95 2.63629 4.15645 0
M  V30 600 N 60.6021 -1.18246 1.0419 0
M  V30 601 C 61.5321 -2.24127 0.654914 0
M  V30 602 C 62.5131 -1.66617 -0.342451 0
M  V30 603 O 63.6981 -1.92924 -0.222277 0
M  V30 604 C 60.8281 -3.47295 0.0183757 0
M  V30 605 C 59.7821 -4.17563 0.939414 0
M  V30 606 C 59.1081 -5.34438 0.167286 0
M  V30 607 C 60.4081 -4.70917 2.25908 0
M  V30 608 H 62.1021 -2.56753 1.54007 0
M  V30 609 H 59.6481 -1.23414 0.74195 0
M  V30 610 H 61.6011 -4.20572 -0.264082 0
M  V30 611 H 60.3251 -3.13907 -0.901664 0
M  V30 612 H 58.9841 -3.46186 1.20628 0
M  V30 613 H 58.6321 -4.97298 -0.7552 0
M  V30 614 H 58.3321 -5.82388 0.780901 0
M  V30 615 H 59.8561 -6.10504 -0.108125 0
M  V30 616 H 61.2701 -5.35882 2.03724 0
M  V30 617 H 59.6671 -5.29406 2.82577 0
M  V30 618 H 60.7371 -3.88272 2.9047 0
M  V30 619 N 62.0802 -0.821533 -1.34494 0
M  V30 620 C 63.3262 -0.409552 -1.98622 0
M  V30 621 C 63.6592 1.0244 -1.64984 0
M  V30 622 O 62.9342 1.71325 -0.920758 0
M  V30 623 C 63.2172 -0.610458 -3.54888 0
M  V30 624 C 63.0702 -2.09043 -3.98273 0
M  V30 625 C 64.3892 -0.0455379 -4.40076 0
M  V30 626 H 61.5082 -0.15028 -0.721516 0
M  V30 627 H 64.1502 -1.03384 -1.59411 0
M  V30 628 H 62.3002 -0.079044 -3.8842 0
M  V30 629 H 63.9722 -2.68537 -3.75081 0
M  V30 630 H 62.2152 -2.58139 -3.48635 0
M  V30 631 H 62.8862 -2.18182 -5.07051 0
M  V30 632 H 65.3622 -0.499557 -4.1309 0
M  V30 633 H 64.2382 -0.215922 -5.48475 0
M  V30 634 H 64.4992 1.04939 -4.29465 0
M  V30 635 N 63.5583 1.46682 -0.576371 0
M  V30 636 C 64.9743 1.57822 -0.237562 0
M  V30 637 C 65.1743 1.57237 1.26011 0
M  V30 638 O 64.2303 1.48596 2.04146 0
M  V30 639 C 65.5433 2.87499 -0.881168 0
M  V30 640 C 67.0913 3.01119 -0.85417 0
M  V30 641 C 67.5663 4.33524 -1.4772 0
M  V30 642 N 69.0573 4.40207 -1.44125 0
M  V30 643 C 69.7923 5.4126 -1.89276 0
M  V30 644 N 69.2883 6.49021 -2.42371 0
M  V30 645 N 71.0813 5.32422 -1.80231 0
M  V30 646 H 63.2323 1.45306 -1.54919 0
M  V30 647 H 65.4953 0.692733 -0.647167 0
M  V30 648 H 65.2013 2.9372 -1.93447 0
M  V30 649 H 65.0753 3.75224 -0.385592 0
M  V30 650 H 67.4623 2.94485 0.190491 0
M  V30 651 H 67.5433 2.14887 -1.3877 0
M  V30 652 H 67.1873 4.40916 -2.52103 0
M  V30 653 H 67.1173 5.1852 -0.918947 0
M  V30 654 H 69.6083 3.62931 -1.05307 0
M  V30 655 H 69.9213 7.2233 -2.74698 0
M  V30 656 H 68.2663 6.49858 -2.46393 0
M  V30 657 H 71.4573 4.47137 -1.38514 0
M  V30 658 H 71.6303 6.11034 -2.15735 0
M  V30 659 N 65.0364 0.313813 1.54444 0
M  V30 660 C 66.2824 -0.292108 2.00685 0
M  V30 661 C 66.6154 -1.52548 1.20177 0
M  V30 662 O 65.8904 -1.92452 0.281531 0
M  V30 663 C 66.1734 -0.635968 3.5444 0
M  V30 664 C 66.0264 0.607437 4.4568 0
M  V30 665 C 67.3454 -1.45747 4.15266 0
M  V30 666 H 64.4644 -0.104697 0.729526 0
M  V30 667 H 67.1064 0.428457 1.85106 0
M  V30 668 H 65.2564 -1.24986 3.67846 0
M  V30 669 H 66.9284 1.24581 4.44159 0
M  V30 670 H 65.1714 1.23822 4.15753 0
M  V30 671 H 65.8424 0.322515 5.51057 0
M  V30 672 H 68.3184 -0.938645 4.05375 0
M  V30 673 H 67.1944 -1.66683 5.2298 0
M  V30 674 H 67.4554 -2.45063 3.67963 0
M  V30 675 N 66.5145 -1.57545 0.0417849 0
M  V30 676 C 67.7625 -1.91937 -0.632829 0
M  V30 677 C 68.0835 -0.919978 -1.71934 0
M  V30 678 O 67.3535 0.0366064 -1.95866 0
M  V30 679 H 65.9335 -0.708493 -0.236742 0
M  V30 680 H 68.5955 -1.9468 0.0925745 0
M  V30 681 H 67.6915 -2.92912 -1.07746 0
M  V30 682 N 67.9926 0.231505 -1.5589 0
M  V30 683 C 68.9426 1.29007 -1.87993 0
M  V30 684 C 69.9266 1.42764 -0.742102 0
M  V30 685 O 71.1186 1.45747 -1.00433 0
M  V30 686 C 68.2476 2.6425 -2.1915 0
M  V30 687 C 67.3336 2.54435 -3.39299 0
M  V30 688 N 67.7246 2.14262 -4.58176 0
M  V30 689 C 66.0226 2.85416 -3.42715 0
M  V30 690 C 66.7236 2.15455 -5.40328 0
M  V30 691 N 65.6996 2.55558 -4.79783 0
M  V30 692 H 69.5016 0.970213 -2.77424 0
M  V30 693 H 67.0156 0.440097 -1.56323 0
M  V30 694 H 69.0126 3.40665 -2.40319 0
M  V30 695 H 67.6726 2.9709 -1.31025 0
M  V30 696 H 68.6836 1.85554 -4.83518 0
M  V30 697 H 65.3606 3.22693 -2.64906 0
M  V30 698 H 66.7506 1.86605 -6.45467 0
M  V30 699 N 69.4707 1.49531 0.497807 0
M  V30 700 C 70.6957 1.63159 1.28039 0
M  V30 701 C 71.1207 0.30418 1.85624 0
M  V30 702 O 70.4787 -0.728618 1.66015 0
M  V30 703 C 70.5267 2.70537 2.38416 0
M  V30 704 O 69.6307 2.29931 3.42353 0
M  V30 705 H 68.9717 0.546001 0.377861 0
M  V30 706 H 71.5017 1.9574 0.59558 0
M  V30 707 H 71.5117 2.92802 2.84132 0
M  V30 708 H 70.1867 3.6689 1.95869 0
M  V30 709 H 68.7637 2.18009 3.02533 0
M  V30 710 N 70.9488 -0.749086 1.3866 0
M  V30 711 C 71.8588 -1.89358 1.38494 0
M  V30 712 C 72.8748 -1.71708 0.281476 0
M  V30 713 O 74.0508 -1.94554 0.520643 0
M  V30 714 C 71.1158 -3.24782 1.21316 0
M  V30 715 C 70.1768 -3.54926 2.41508 0
M  V30 716 C 69.4098 -4.83888 2.2514 0
M  V30 717 O 69.6328 -5.56592 1.24746 0
M  V30 718 O 68.5668 -5.13612 3.13826 0
M  V30 719 H 72.3928 -1.92452 2.34938 0
M  V30 720 H 69.9778 -0.894981 1.19626 0
M  V30 721 H 71.8598 -4.05739 1.13814 0
M  V30 722 H 70.5348 -3.2249 0.279592 0
M  V30 723 H 69.4418 -2.74112 2.54585 0
M  V30 724 H 70.7748 -3.61983 3.3351 0
M  V30 725 N 72.4269 -1.23603 -0.977757 0
M  V30 726 C 73.3569 -1.04401 -2.0886 0
M  V30 727 C 74.3379 0.0399052 -1.70053 0
M  V30 728 O 75.5229 -0.125246 -1.93796 0
M  V30 729 C 72.6529 -0.637269 -3.41403 0
M  V30 730 C 71.6069 -1.66883 -3.94124 0
M  V30 731 C 70.9329 -1.11745 -5.22893 0
M  V30 732 C 72.2329 -3.06247 -4.23096 0
M  V30 733 H 73.9269 -1.97316 -2.25182 0
M  V30 734 H 71.4729 -0.950096 -1.08209 0
M  V30 735 H 73.4259 -0.48998 -4.18542 0
M  V30 736 H 72.1499 0.327557 -3.24953 0
M  V30 737 H 70.8089 -1.80416 -3.19133 0
M  V30 738 H 70.4569 -0.143527 -5.02795 0
M  V30 739 H 70.1569 -1.80672 -5.59134 0
M  V30 740 H 71.6809 -0.982067 -6.02651 0
M  V30 741 H 73.0949 -2.96001 -4.90975 0
M  V30 742 H 71.4919 -3.72436 -4.70544 0
M  V30 743 H 72.5619 -3.55041 -3.30263 0
M  V30 744 N 73.905 1.17692 -1.04816 0
M  V30 745 C 75.151 1.88137 -0.75711 0
M  V30 746 C 75.484 1.80604 0.713841 0
M  V30 747 O 74.759 1.21146 1.52164 0
M  V30 748 C 75.042 3.38318 -1.2334 0
M  V30 749 C 74.895 3.54622 -2.76701 0
M  V30 750 C 76.214 4.32214 -0.829415 0
M  V30 751 H 73.333 0.683163 -0.27651 0
M  V30 752 H 75.975 1.38424 -1.30149 0
M  V30 753 H 74.125 3.80787 -0.770286 0
M  V30 754 H 75.797 3.21194 -3.31107 0
M  V30 755 H 74.04 2.97026 -3.16161 0
M  V30 756 H 74.711 4.60028 -3.05088 0
M  V30 757 H 77.187 3.97565 -1.22805 0
M  V30 758 H 76.063 5.35838 -1.19033 0
M  V30 759 H 76.324 4.41294 0.266891 0
M  V30 760 N 75.3831 0.828654 1.34056 0
M  V30 761 C 76.6311 0.41863 1.97717 0
M  V30 762 C 76.9521 -1.02314 1.66002 0
M  V30 763 O 76.2221 -1.71119 0.953683 0
M  V30 764 H 74.8021 0.151809 0.731412 0
M  V30 765 H 77.4641 1.05936 1.63596 0
M  V30 766 H 76.5601 0.542318 3.07352 0
M  V30 767 N 76.8612 -1.46375 0.584142 0
M  V30 768 C 77.7712 -2.34115 -0.150728 0
M  V30 769 C 78.7872 -1.49838 -0.884567 0
M  V30 770 O 79.9632 -1.82704 -0.847429 0
M  V30 771 C 77.0282 -3.2705 -1.15062 0
M  V30 772 C 76.0892 -4.27228 -0.421293 0
M  V30 773 C 75.3222 -5.15722 -1.37355 0
M  V30 774 O 75.5452 -5.07176 -2.61014 0
M  V30 775 O 74.4792 -5.95383 -0.883355 0
M  V30 776 H 78.3052 -2.98309 0.569708 0
M  V30 777 H 75.8902 -1.45373 0.344535 0
M  V30 778 H 77.7722 -3.84381 -1.72712 0
M  V30 779 H 76.4472 -2.65451 -1.8525 0
M  V30 780 H 75.3542 -3.7358 0.197085 0
M  V30 781 H 76.6872 -4.91616 0.239641 0
M  V30 782 N 78.3393 -0.321999 -1.54275 0
M  V30 783 C 79.5883 0.281931 -1.9972 0
M  V30 784 C 79.9013 1.53369 -1.21397 0
M  V30 785 O 81.1073 2.21352 -1.57211 0
M  V30 786 C 79.5633 0.5529 -3.55628 0
M  V30 787 C 79.1713 -0.681721 -4.42783 0
M  V30 788 C 80.9153 1.11687 -4.09544 0
M  V30 789 C 78.8223 -0.382742 -5.9016 0
M  V30 790 H 77.7523 0.109124 -0.746062 0
M  V30 791 H 80.4033 -0.43398 -1.78294 0
M  V30 792 H 78.7853 1.32896 -3.73035 0
M  V30 793 H 79.9593 -1.45723 -4.37151 0
M  V30 794 H 78.2743 -1.1658 -3.99748 0
M  V30 795 H 80.8713 1.35515 -5.17242 0
M  V30 796 H 81.2143 2.06575 -3.61431 0
M  V30 797 H 81.7473 0.402032 -3.95763 0
M  V30 798 H 78.4863 -1.30076 -6.42464 0
M  V30 799 H 78.0063 0.355094 -5.98748 0
M  V30 800 H 79.6853 0.00800157 -6.47 0
M  V30 801 N 79.8174 1.5752 -0.0501392 0
M  V30 802 C 81.0664 1.91827 0.623328 0
M  V30 803 C 81.3794 0.930222 1.72065 0
M  V30 804 O 82.5854 1.1653 2.4522 0
M  V30 805 C 81.0414 3.40692 1.16003 0
M  V30 806 C 80.6494 4.479 0.0948811 0
M  V30 807 C 82.3934 3.84034 1.80881 0
M  V30 808 C 80.3004 5.87879 0.644411 0
M  V30 809 H 79.2304 0.715918 0.236596 0
M  V30 810 H 81.8814 1.83115 -0.118861 0
M  V30 811 H 80.2634 3.44405 1.9545 0
M  V30 812 H 81.4374 4.55775 -0.678675 0
M  V30 813 H 79.7524 4.13892 -0.45637 0
M  V30 814 H 82.3494 4.85984 2.22988 0
M  V30 815 H 82.6924 3.20225 2.6601 0
M  V30 816 H 83.2254 3.82833 1.0809 0
M  V30 817 H 79.9644 6.55282 -0.169229 0
M  V30 818 H 79.4844 5.83567 1.38598 0
M  V30 819 H 81.1634 6.37098 1.12763 0
M  V30 820 N 81.2955 -0.223234 1.56011 0
M  V30 821 C 82.7115 -0.572856 1.48965 0
M  V30 822 C 82.9115 -1.87225 0.74492 0
M  V30 823 O 81.9675 -2.50899 0.283896 0
M  V30 824 C 83.2805 -0.653646 2.9351 0
M  V30 825 C 84.8285 -0.744386 3.0402 0
M  V30 826 C 85.3035 -0.856535 4.49919 0
M  V30 827 N 86.7945 -0.9208 4.53955 0
M  V30 828 C 87.5295 -1.02726 5.64123 0
M  V30 829 N 87.0255 -1.09777 6.84047 0
M  V30 830 N 88.8185 -1.06226 5.51971 0
M  V30 831 H 80.9695 0.629462 2.02858 0
M  V30 832 H 83.2325 0.220621 0.921971 0
M  V30 833 H 82.9385 0.231518 3.50937 0
M  V30 834 H 82.8125 -1.51781 3.45315 0
M  V30 835 H 85.1995 -1.61999 2.46658 0
M  V30 836 H 85.2805 0.14541 2.55386 0
M  V30 837 H 84.9245 0.0146069 5.07898 0
M  V30 838 H 84.8545 -1.76172 4.96257 0
M  V30 839 H 87.3455 -0.876694 3.6759 0
M  V30 840 H 87.6585 -1.17872 7.63758 0
M  V30 841 H 86.0035 -1.06693 6.86762 0
M  V30 842 H 89.1945 -1.00382 4.5721 0
M  V30 843 H 89.3675 -1.14177 6.37862 0
M  V30 844 N 82.7736 -1.49793 -0.48987 0
M  V30 845 C 83.7036 -1.70201 -1.59856 0
M  V30 846 C 84.6846 -0.55076 -1.60937 0
M  V30 847 O 85.8696 -0.787841 -1.77501 0
M  V30 848 C 82.9996 -1.77882 -2.98287 0
M  V30 849 C 81.9536 -2.92907 -3.12073 0
M  V30 850 C 81.2796 -2.85712 -4.51965 0
M  V30 851 C 82.5796 -4.3369 -2.91051 0
M  V30 852 H 84.2736 -2.63025 -1.43032 0
M  V30 853 H 81.8196 -1.26574 -0.686664 0
M  V30 854 H 83.7726 -1.90744 -3.75759 0
M  V30 855 H 82.4966 -0.816653 -3.16225 0
M  V30 856 H 81.1556 -2.79665 -2.37029 0
M  V30 857 H 80.8036 -1.8738 -4.66795 0
M  V30 858 H 80.5036 -3.62921 -4.62128 0
M  V30 859 H 82.0276 -3.00598 -5.31482 0
M  V30 860 H 83.4416 -4.47555 -3.58284 0
M  V30 861 H 81.8386 -5.12205 -3.12675 0
M  V30 862 H 82.9086 -4.47362 -1.87071 0
M  V30 863 N 84.2517 0.741722 -1.39055 0
M  V30 864 C 85.1617 1.88621 -1.39496 0
M  V30 865 C 86.1777 1.71557 -0.290578 0
M  V30 866 O 87.3537 1.94275 -0.530954 0
M  V30 867 C 84.4187 3.24134 -1.23037 0
M  V30 868 C 83.4797 3.5364 -2.43387 0
M  V30 869 C 82.7127 4.82687 -2.27703 0
M  V30 870 O 82.9357 5.55922 -1.27696 0
M  V30 871 O 81.8697 5.1194 -3.16545 0
M  V30 872 H 85.6957 1.91203 -2.35956 0
M  V30 873 H 83.2807 0.888625 -1.20099 0
M  V30 874 H 85.1627 4.0513 -1.15964 0
M  V30 875 H 83.8377 3.22337 -0.296691 0
M  V30 876 H 82.7447 2.72758 -2.56035 0
M  V30 877 H 84.0777 3.60209 -3.35425 0
M  V30 878 N 85.7298 1.2412 0.971189 0
M  V30 879 C 86.9778 1.07668 1.71032 0
M  V30 880 C 87.2988 -0.385797 1.91146 0
M  V30 881 O 86.5688 -1.27569 1.4867 0
M  V30 882 H 85.1488 0.395429 0.633755 0
M  V30 883 H 87.8108 1.55984 1.16855 0
M  V30 884 H 86.9068 1.57195 2.69622 0
M  V30 885 N 87.2079 -1.17134 1.05439 0
M  V30 886 C 88.4849 -1.83411 0.679699 0
M  V30 887 C 88.8649 -1.9368 -0.839726 0
M  V30 888 O 88.2129 -1.47325 -1.74664 0
M  V30 889 C 88.4229 -3.20918 1.37159 0
M  V30 890 C 89.7709 -3.96796 1.51123 0
M  V30 891 O 90.7949 -3.30406 1.3308 0
M  V30 892 O 89.6539 -5.15778 1.80651 0
M  V30 893 H 86.7479 -0.79154 0.239569 0
M  V30 894 H 89.2939 -1.24411 1.15413 0
M  V30 895 H 88.0659 -3.08428 2.40807 0
M  V30 896 H 87.6889 -3.87587 0.886674 0
M  V30 897 N 88.686 -0.835752 -1.33615 0
M  V30 898 C 89.619 -0.211815 -2.27215 0
M  V30 899 C 90.597 0.639249 -1.49507 0
M  V30 900 O 91.781 0.600193 -1.78689 0
M  V30 901 C 88.908 0.702893 -3.31326 0
M  V30 902 C 87.954 -0.0723049 -4.26439 0
M  V30 903 S 88.787 -1.42811 -5.16106 0
M  V30 904 C 89.943 -0.518613 -6.23748 0
M  V30 905 H 90.176 -1.00533 -2.79786 0
M  V30 906 H 87.709 -0.632336 -1.40858 0
M  V30 907 H 89.667 1.22505 -3.91794 0
M  V30 908 H 88.328 1.47004 -2.77576 0
M  V30 909 H 87.521 0.62359 -5.00127 0
M  V30 910 H 87.123 -0.525424 -3.70291 0
M  V30 911 H 89.415 0.284778 -6.76901 0
M  V30 912 H 90.358 -1.22556 -6.97413 0
M  V30 913 H 90.766 -0.101344 -5.64409 0
M  V30 914 N 90.1641 1.46063 -0.591896 0
M  V30 915 C 91.1271 2.28854 0.125973 0
M  V30 916 C 92.1271 1.38903 0.810107 0
M  V30 917 O 93.3171 1.61186 0.66066 0
M  V30 918 C 90.4491 3.19526 1.1881 0
M  V30 919 H 91.6421 2.93802 -0.601717 0
M  V30 920 H 89.1951 1.52325 -0.350254 0
M  V30 921 H 89.9301 2.59345 1.94707 0
M  V30 922 H 89.7151 3.85766 0.701936 0
M  V30 923 H 91.2051 3.81817 1.69132 0
M  V30 924 N 91.6422 0.330177 1.54103 0
M  V30 925 C 92.8702 -0.272179 2.05102 0
M  V30 926 C 93.2852 -1.45267 1.20595 0
M  V30 927 O 92.6422 -1.8094 0.238144 0
M  V30 928 C 92.6932 -0.70023 3.54653 0
M  V30 929 O 92.4142 0.433301 4.35952 0
M  V30 930 C 93.9152 -1.3647 4.21771 0
M  V30 931 H 91.1352 -0.0549159 0.668749 0
M  V30 932 H 93.6792 0.478285 1.98828 0
M  V30 933 H 91.8342 -1.40066 3.61193 0
M  V30 934 H 92.2482 0.0947539 5.24414 0
M  V30 935 H 93.7222 -1.61509 5.27843 0
M  V30 936 H 94.1992 -2.31409 3.73292 0
M  V30 937 H 94.8052 -0.706675 4.19388 0
M  V30 938 N 93.1203 -1.57491 0.0584922 0
M  V30 939 C 94.3693 -1.92155 -0.613146 0
M  V30 940 C 94.6823 -0.939334 -1.71569 0
M  V30 941 O 95.8883 -1.17829 -2.44599 0
M  V30 942 C 94.3443 -3.41303 -1.14195 0
M  V30 943 C 93.9523 -4.47944 -0.0711265 0
M  V30 944 C 95.6963 -3.84988 -1.78841 0
M  V30 945 C 93.6033 -5.88212 -0.613225 0
M  V30 946 H 92.5333 -0.717162 -0.232796 0
M  V30 947 H 95.1843 -1.83049 0.12857 0
M  V30 948 H 93.5663 -3.45437 -1.93621 0
M  V30 949 H 94.7403 -4.55408 0.702836 0
M  V30 950 H 93.0553 -4.13644 0.478313 0
M  V30 951 H 95.6523 -4.87159 -2.20408 0
M  V30 952 H 95.9953 -3.21632 -2.64308 0
M  V30 953 H 96.5283 -3.83401 -1.06059 0
M  V30 954 H 93.2673 -6.55183 0.203978 0
M  V30 955 H 92.7873 -5.84294 -1.35501 0
M  V30 956 H 94.4663 -6.37687 -1.09383 0
M  V30 957 N 94.5984 0.214957 -1.56127 0
M  V30 958 C 95.5304 1.29004 -1.89448 0
M  V30 959 C 96.5434 1.42716 -0.783326 0
M  V30 960 O 97.7324 1.43496 -1.06166 0
M  V30 961 C 94.8324 2.66482 -2.09381 0
M  V30 962 C 94.0054 2.74633 -3.40434 0
M  V30 963 C 93.0644 3.9317 -3.49719 0
M  V30 964 O 92.0904 3.812 -4.227 0
M  V30 965 N 93.2924 5.07765 -2.81346 0
M  V30 966 H 96.0574 1.00743 -2.82261 0
M  V30 967 H 93.6184 0.40497 -1.56753 0
M  V30 968 H 95.6104 3.44173 -2.12901 0
M  V30 969 H 94.1804 2.87314 -1.23163 0
M  V30 970 H 93.4004 1.83368 -3.48955 0
M  V30 971 H 94.6884 2.77054 -4.26754 0
M  V30 972 H 94.0864 5.20386 -2.21843 0
M  V30 973 H 92.6434 5.83474 -2.90519 0
M  V30 974 N 96.0765 1.50051 0.48192 0
M  V30 975 C 97.3225 1.60736 1.2366 0
M  V30 976 C 97.6555 0.301786 1.91841 0
M  V30 977 O 96.9305 -0.696025 1.8162 0
M  V30 978 C 97.2135 2.78009 2.28874 0
M  V30 979 C 97.0665 4.18416 1.65069 0
M  V30 980 C 98.3855 2.90867 3.30279 0
M  V30 981 H 95.5045 0.585031 0.448228 0
M  V30 982 H 98.1465 1.82402 0.531946 0
M  V30 983 H 96.2965 2.59667 2.88973 0
M  V30 984 H 97.9685 4.48322 1.0865 0
M  V30 985 H 96.2115 4.23177 0.954148 0
M  V30 986 H 96.8825 4.96381 2.41474 0
M  V30 987 H 99.3585 3.07623 2.80191 0
M  V30 988 H 98.2345 3.74566 4.01238 0
M  V30 989 H 98.4955 2.01021 3.93755 0
M  V30 990 N 97.5546 -0.734337 1.39446 0
M  V30 991 C 98.7846 -1.52137 1.39778 0
M  V30 992 C 99.1926 -1.89198 -0.00929312 0
M  V30 993 O 98.5356 -1.54666 -0.991168 0
M  V30 994 C 98.5976 -2.83762 2.20724 0
M  V30 995 C 98.2616 -2.69131 3.69347 0
M  V30 996 C 99.2586 -2.37635 4.62413 0
M  V30 997 C 96.9436 -2.85982 4.1294 0
M  V30 998 C 98.9376 -2.23172 5.97054 0
M  V30 999 C 96.6246 -2.71137 5.47657 0
M  V30 1000 C 97.6226 -2.39777 6.39528 0
M  V30 1001 O 97.3106 -2.25026 7.71763 0
M  V30 1002 H 97.0426 -0.476717 0.479288 0
M  V30 1003 H 99.5966 -0.915012 1.83893 0
M  V30 1004 H 97.8266 -3.4666 1.71359 0
M  V30 1005 H 99.5156 -3.45383 2.13226 0
M  V30 1006 H 100.282 -2.24267 4.30034 0
M  V30 1007 H 96.1606 -3.09383 3.41765 0
M  V30 1008 H 99.7046 -1.98617 6.68728 0
M  V30 1009 H 95.6016 -2.84083 5.79626 0
M  V30 1010 H 96.3696 -2.40091 7.82495 0
M  V30 1011 N 99.0327 -1.24633 -0.964593 0
M  V30 1012 C 99.9427 -1.05859 -2.09359 0
M  V30 1013 C 100.959 0.00148855 -1.74 0
M  V30 1014 O 102.135 -0.197346 -2.00431 0
M  V30 1015 C 99.1997 -0.668879 -3.40187 0
M  V30 1016 C 98.2607 -1.80578 -3.89474 0
M  V30 1017 C 97.4937 -1.43457 -5.14058 0
M  V30 1018 O 97.7167 -0.325775 -5.69469 0
M  V30 1019 O 96.6507 -2.2613 -5.57807 0
M  V30 1020 H 100.477 -2.00516 -2.28094 0
M  V30 1021 H 98.0617 -1.03481 -1.0776 0
M  V30 1022 H 99.9437 -0.463211 -4.18846 0
M  V30 1023 H 98.6187 0.248536 -3.22744 0
M  V30 1024 H 97.5257 -2.06623 -3.11862 0
M  V30 1025 H 98.8587 -2.70208 -4.11398 0
M  V30 1026 N 100.511 1.16574 -1.06058 0
M  V30 1027 C 101.421 2.2452 -0.680282 0
M  V30 1028 C 102.437 1.71348 0.302604 0
M  V30 1029 O 103.613 2.00822 0.152513 0
M  V30 1030 C 100.678 3.46629 -0.0700315 0
M  V30 1031 C 99.7388 4.14849 -1.10448 0
M  V30 1032 C 98.9718 5.31129 -0.523256 0
M  V30 1033 O 99.1948 5.66514 0.664709 0
M  V30 1034 O 98.1288 5.88526 -1.26179 0
M  V30 1035 H 101.955 2.59355 -1.58015 0
M  V30 1036 H 99.5398 1.24043 -0.832694 0
M  V30 1037 H 101.422 4.20543 0.268667 0
M  V30 1038 H 100.097 3.13573 0.803353 0
M  V30 1039 H 99.0038 3.42916 -1.49532 0
M  V30 1040 H 100.337 4.51954 -1.94931 0
M  V30 1041 N 101.989 0.842826 1.3317 0
M  V30 1042 C 103.217 0.454055 2.01856 0
M  V30 1043 C 103.632 -0.94587 1.63397 0
M  V30 1044 O 102.989 -1.61534 0.849302 0
M  V30 1045 C 103.04 0.569715 3.56982 0
M  V30 1046 O 102.761 1.91448 3.94055 0
M  V30 1047 C 104.262 0.178412 4.42941 0
M  V30 1048 H 101.482 0.17979 0.646465 0
M  V30 1049 H 104.026 1.1365 1.70012 0
M  V30 1050 H 102.181 -0.0648587 3.87346 0
M  V30 1051 H 102.595 1.90282 4.88767 0
M  V30 1052 H 104.069 0.310376 5.51127 0
M  V30 1053 H 104.546 -0.880056 4.30293 0
M  V30 1054 H 105.152 0.787579 4.17944 0
M  V30 1055 N 103.467 -1.45747 0.599634 0
M  V30 1056 C 104.692 -2.07178 0.0960198 0
M  V30 1057 C 105.117 -1.44268 -1.207 0
M  V30 1058 O 104.475 -0.532503 -1.73303 0
M  V30 1059 C 104.523 -3.60579 -0.0385348 0
M  V30 1060 O 103.627 -3.97713 -1.0908 0
M  V30 1061 H 102.968 -0.660251 0.0704593 0
M  V30 1062 H 105.498 -1.87124 0.827385 0
M  V30 1063 H 105.508 -4.07298 -0.239304 0
M  V30 1064 H 104.183 -4.05756 0.912947 0
M  V30 1065 H 102.76 -3.62678 -0.867135 0
M  V30 1066 N 104.945 -0.338344 -1.53925 0
M  V30 1067 C 106.193 0.259245 -2.0043 0
M  V30 1068 C 106.514 1.51484 -1.22791 0
M  V30 1069 O 105.784 1.93037 -0.33368 0
M  V30 1070 H 104.364 0.0987845 -0.740439 0
M  V30 1071 H 107.026 -0.458302 -1.89435 0
M  V30 1072 H 106.122 0.505334 -3.07982 0
M  V30 1073 N 106.423 1.57458 -0.0668435 0
M  V30 1074 C 107.669 1.93587 0.6043 0
M  V30 1075 C 108.002 0.946722 1.69561 0
M  V30 1076 O 107.277 -0.0248516 1.94484 0
M  V30 1077 C 107.56 3.40014 1.18585 0
M  V30 1078 C 107.413 4.49685 0.101529 0
M  V30 1079 C 108.732 3.87154 2.09284 0
M  V30 1080 H 105.851 0.703958 0.218202 0
M  V30 1081 H 108.493 1.89542 -0.131804 0
M  V30 1082 H 106.643 3.43592 1.81319 0
M  V30 1083 H 108.315 4.5823 -0.531279 0
M  V30 1084 H 106.558 4.30059 -0.568487 0
M  V30 1085 H 107.229 5.49266 0.54874 0
M  V30 1086 H 109.705 3.85551 1.56491 0
M  V30 1087 H 108.581 4.90231 2.46911 0
M  V30 1088 H 108.842 3.2481 2.99918 0
M  V30 1089 N 107.901 -0.206675 1.56239 0
M  V30 1090 C 109.126 -0.949474 1.8439 0
M  V30 1091 C 109.551 -1.76549 0.649016 0
M  V30 1092 O 108.909 -1.76782 -0.402231 0
M  V30 1093 C 108.957 -1.83078 3.10668 0
M  V30 1094 O 108.061 -2.9281 2.90407 0
M  V30 1095 H 107.402 -0.268033 0.607499 0
M  V30 1096 H 109.932 -0.215488 2.03462 0
M  V30 1097 H 109.942 -2.2377 3.41161 0
M  V30 1098 H 108.617 -1.23112 3.97261 0
M  V30 1099 H 107.194 -2.55956 2.71184 0
M  V30 1100 N 109.379 -1.50304 -0.473955 0
M  V30 1101 C 110.625 -1.61389 -1.22806 0
M  V30 1102 C 110.958 -0.311955 -1.91678 0
M  V30 1103 O 110.233 0.686384 -1.81986 0
M  V30 1104 C 110.516 -2.79219 -2.27396 0
M  V30 1105 C 110.369 -4.19286 -1.62848 0
M  V30 1106 C 111.688 -2.92614 -3.28732 0
M  V30 1107 H 108.807 -0.587399 -0.445119 0
M  V30 1108 H 111.449 -1.82681 -0.522265 0
M  V30 1109 H 109.599 -2.61195 -2.87592 0
M  V30 1110 H 111.271 -4.48892 -1.06271 0
M  V30 1111 H 109.514 -4.23677 -0.931693 0
M  V30 1112 H 110.185 -4.97655 -2.38838 0
M  V30 1113 H 112.661 -3.09105 -2.78556 0
M  V30 1114 H 111.537 -3.76688 -3.99246 0
M  V30 1115 H 111.798 -2.03107 -3.92683 0
M  V30 1116 N 110.857 0.726932 -1.39834 0
M  V30 1117 C 112.105 1.4837 -1.37225 0
M  V30 1118 C 112.426 1.94979 0.0284857 0
M  V30 1119 O 111.696 1.69555 0.981213 0
M  V30 1120 H 110.276 0.55043 -0.505011 0
M  V30 1121 H 112.938 0.862468 -1.74778 0
M  V30 1122 H 112.034 2.36198 -2.04003 0
M  V30 1123 N 112.336 1.25143 0.95797 0
M  V30 1124 C 113.613 1.00472 1.67823 0
M  V30 1125 C 113.993 -0.470056 2.058 0
M  V30 1126 O 113.341 -1.44663 1.76875 0
M  V30 1127 C 113.551 1.9372 2.90299 0
M  V30 1128 C 114.899 2.21371 3.62326 0
M  V30 1129 O 115.923 1.91451 3.00375 0
M  V30 1130 O 114.782 2.72231 4.7387 0
M  V30 1131 H 111.876 0.380752 0.734137 0
M  V30 1132 H 114.422 1.36283 1.01119 0
M  V30 1133 H 113.194 2.93316 2.59001 0
M  V30 1134 H 112.817 1.58286 3.64735 0
M  V30 1135 N 113.814 -1.1601 1.06675 0
M  V30 1136 C 115.225 -1.68235 0.809565 0
M  V30 1137 C 115.576 -1.8454 -0.666303 0
M  V30 1138 O 114.701 -1.54374 -1.5165 0
M  V30 1139 C 115.296 -3.05585 1.46299 0
M  V30 1140 C 113.855 -3.54915 1.25349 0
M  V30 1141 C 113.002 -2.30804 1.53703 0
M  V30 1142 H 115.953 -1.00318 1.22971 0
M  V30 1143 H 115.974 -3.70174 0.880431 0
M  V30 1144 H 115.486 -2.93686 2.53713 0
M  V30 1145 H 113.587 -3.72067 0.199261 0
M  V30 1146 H 113.7 -4.36774 1.9689 0
M  V30 1147 H 112.064 -2.36007 0.957739 0
M  V30 1148 H 112.847 -2.21499 2.62284 0
M  V30 1149 N 115.292 -0.849877 -1.32721 0
M  V30 1150 C 116.538 -0.451591 -1.97708 0
M  V30 1151 C 116.871 0.989175 -1.6712 0
M  V30 1152 O 116.146 1.69334 -0.956891 0
M  V30 1153 C 116.429 -0.685598 -3.53513 0
M  V30 1154 C 116.282 -2.17444 -3.93749 0
M  V30 1155 C 117.601 -0.138874 -4.39881 0
M  V30 1156 H 114.72 -0.16555 -0.718166 0
M  V30 1157 H 117.362 -1.06742 -1.57182 0
M  V30 1158 H 115.512 -0.161416 -3.88165 0
M  V30 1159 H 117.184 -2.76433 -3.693 0
M  V30 1160 H 115.427 -2.65476 -3.43081 0
M  V30 1161 H 116.098 -2.28888 -5.02309 0
M  V30 1162 H 118.574 -0.587068 -4.11938 0
M  V30 1163 H 117.45 -0.332213 -5.47894 0
M  V30 1164 H 117.711 0.95806 -4.31594 0
M  V30 1165 N 116.77 1.45427 -0.607355 0
M  V30 1166 C 117.7 2.3329 0.0989352 0
M  V30 1167 C 118.681 1.46816 0.859007 0
M  V30 1168 O 119.866 1.75588 0.829604 0
M  V30 1169 C 116.996 3.29518 1.09705 0
M  V30 1170 C 115.95 4.25626 0.450206 0
M  V30 1171 C 115.276 5.11542 1.55655 0
M  V30 1172 C 116.576 5.18505 -0.628455 0
M  V30 1173 H 118.27 2.92595 -0.634716 0
M  V30 1174 H 115.816 1.40696 -0.306681 0
M  V30 1175 H 117.769 3.89855 1.59971 0
M  V30 1176 H 116.493 2.68372 1.86129 0
M  V30 1177 H 115.152 3.66586 -0.0315886 0
M  V30 1178 H 114.8 4.46765 2.31107 0
M  V30 1179 H 114.5 5.76647 1.12925 0
M  V30 1180 H 116.024 5.74748 2.06148 0
M  V30 1181 H 117.438 5.72916 -0.209877 0
M  V30 1182 H 115.835 5.92085 -0.977489 0
M  V30 1183 H 116.905 4.60948 -1.50514 0
M  V30 1184 N 118.248 0.346503 1.53744 0
M  V30 1185 C 119.664 -0.00530975 1.59599 0
M  V30 1186 C 119.864 -1.48465 1.36236 0
M  V30 1187 O 118.92 -2.24376 1.15808 0
M  V30 1188 C 120.233 0.433516 2.97559 0
M  V30 1189 C 121.781 0.386111 3.10609 0
M  V30 1190 C 122.256 0.800451 4.50951 0
M  V30 1191 N 123.747 0.754753 4.5701 0
M  V30 1192 C 124.482 1.04727 5.63755 0
M  V30 1193 N 123.978 1.4081 6.7834 0
M  V30 1194 N 125.771 0.971316 5.53644 0
M  V30 1195 H 117.922 1.31009 1.67184 0
M  V30 1196 H 120.185 0.534242 0.783128 0
M  V30 1197 H 119.891 1.46509 3.19731 0
M  V30 1198 H 119.765 -0.189753 3.76722 0
M  V30 1199 H 122.152 -0.636295 2.88158 0
M  V30 1200 H 122.233 1.04462 2.33498 0
M  V30 1201 H 121.877 1.82088 4.74137 0
M  V30 1202 H 121.807 0.119386 5.26465 0
M  V30 1203 H 124.298 0.488662 3.74727 0
M  V30 1204 H 124.611 1.61607 7.55714 0
M  V30 1205 H 122.956 1.44657 6.79779 0
M  V30 1206 H 126.147 0.688748 4.63005 0
M  V30 1207 H 126.32 1.20263 6.36742 0
M  V30 1208 N 119.726 -1.57421 0.075193 0
M  V30 1209 C 120.954 -1.97946 -0.602076 0
M  V30 1210 C 121.369 -0.953674 -1.62943 0
M  V30 1211 O 120.726 0.0592551 -1.82404 0
M  V30 1212 C 120.777 -3.38546 -1.26762 0
M  V30 1213 O 120.498 -4.37195 -0.281376 0
M  V30 1214 C 121.999 -3.93966 -2.03239 0
M  V30 1215 H 119.219 -0.650918 -0.162931 0
M  V30 1216 H 121.763 -2.03959 0.148601 0
M  V30 1217 H 119.918 -3.33609 -1.96936 0
M  V30 1218 H 120.332 -5.18975 -0.759267 0
M  V30 1219 H 121.806 -4.94555 -2.45193 0
M  V30 1220 H 122.283 -3.30693 -2.8903 0
M  V30 1221 H 122.889 -4.02315 -1.37924 0
M  V30 1222 N 121.204 0.198386 -1.56346 0
M  V30 1223 C 122.452 0.91747 -1.80075 0
M  V30 1224 C 122.773 1.83929 -0.647692 0
M  V30 1225 O 122.043 1.93029 0.334166 0
M  V30 1226 H 120.623 0.341774 -0.664228 0
M  V30 1227 H 123.285 0.204684 -1.93822 0
M  V30 1228 H 122.381 1.51055 -2.7311 0
M  V30 1229 N 122.682 1.50554 0.465978 0
M  V30 1230 C 123.629 1.6979 1.56333 0
M  V30 1231 C 124.599 0.539239 1.57103 0
M  V30 1232 O 125.784 0.770401 1.74555 0
M  V30 1233 C 122.924 1.80273 2.94271 0
M  V30 1234 C 122.037 3.07674 3.0325 0
M  V30 1235 C 121.172 3.08922 4.32135 0
M  V30 1236 C 120.211 4.30755 4.34875 0
M  V30 1237 N 119.348 4.29714 5.55239 0
M  V30 1238 H 124.188 2.63472 1.39235 0
M  V30 1239 H 121.725 1.30602 0.676873 0
M  V30 1240 H 123.683 1.84332 3.74269 0
M  V30 1241 H 122.313 0.900258 3.09992 0
M  V30 1242 H 121.365 3.13062 2.16094 0
M  V30 1243 H 122.677 3.97642 3.01135 0
M  V30 1244 H 121.831 3.11738 5.20485 0
M  V30 1245 H 120.57 2.16792 4.36866 0
M  V30 1246 H 119.575 4.28146 3.44922 0
M  V30 1247 H 120.8 5.24117 4.31831 0
M  V30 1248 H 118.746 3.4044 5.60746 0
M  V30 1249 H 118.663 5.13456 5.54886 0
M  V30 1250 H 119.931 4.36683 6.457 0
M  V30 1251 N 124.16 -0.719506 1.40217 0
M  V30 1252 C 125.571 -1.29848 1.34151 0
M  V30 1253 C 125.922 -1.96196 0.0131349 0
M  V30 1254 O 125.047 -1.973 -0.88892 0
M  V30 1255 C 125.642 -2.36118 2.42968 0
M  V30 1256 C 124.201 -2.8965 2.40374 0
M  V30 1257 C 123.348 -1.63393 2.24049 0
M  V30 1258 H 126.299 -0.51591 1.5008 0
M  V30 1259 H 126.32 -3.16871 2.10649 0
M  V30 1260 H 125.832 -1.878 3.39636 0
M  V30 1261 H 123.933 -3.42208 1.47392 0
M  V30 1262 H 124.046 -3.4171 3.35814 0
M  V30 1263 H 122.41 -1.88312 1.71495 0
M  V30 1264 H 123.193 -1.17104 3.2271 0
M  V30 1265 N 125.638 -1.25649 -0.95132 0
M  V30 1266 C 126.568 -1.08808 -2.06599 0
M  V30 1267 C 127.549 0.00382547 -1.701 0
M  V30 1268 O 128.734 -0.166325 -1.93486 0
M  V30 1269 C 125.864 -0.709542 -3.39975 0
M  V30 1270 C 124.818 -1.75206 -3.90496 0
M  V30 1271 C 124.144 -1.22811 -5.20405 0
M  V30 1272 C 125.444 -3.15153 -4.16504 0
M  V30 1273 H 127.138 -2.02048 -2.20946 0
M  V30 1274 H 124.684 -0.972835 -1.06169 0
M  V30 1275 H 126.637 -0.578649 -4.17408 0
M  V30 1276 H 125.361 0.258556 -3.25575 0
M  V30 1277 H 124.02 -1.87145 -3.15234 0
M  V30 1278 H 123.668 -0.250145 -5.02378 0
M  V30 1279 H 123.368 -1.92492 -5.55176 0
M  V30 1280 H 124.892 -1.10968 -6.00432 0
M  V30 1281 H 126.306 -3.06349 -4.84586 0
M  V30 1282 H 124.703 -3.82333 -4.62538 0
M  V30 1283 H 125.773 -3.61966 -3.22658 0
M  V30 1284 N 127.117 1.15442 -1.07289 0
M  V30 1285 C 128.342 1.90638 -0.816828 0
M  V30 1286 C 128.767 1.77445 0.624083 0
M  V30 1287 O 128.125 1.10671 1.43602 0
M  V30 1288 C 128.173 3.39008 -1.22906 0
M  V30 1289 O 127.277 4.10701 -0.373975 0
M  V30 1290 H 126.618 0.593555 -0.297638 0
M  V30 1291 H 129.148 1.46198 -1.43134 0
M  V30 1292 H 129.158 3.89801 -1.20497 0
M  V30 1293 H 127.833 3.47929 -2.27856 0
M  V30 1294 H 126.41 3.70046 -0.460499 0
M  V30 1295 N 128.595 0.856903 1.32268 0
M  V30 1296 C 129.841 0.462069 1.97466 0
M  V30 1297 C 130.174 -0.980298 1.67642 0
M  V30 1298 O 129.449 -1.68824 0.965858 0
M  V30 1299 C 129.732 0.704336 3.53145 0
M  V30 1300 C 129.585 2.19529 3.9259 0
M  V30 1301 C 130.904 0.1622 4.39801 0
M  V30 1302 H 128.023 0.169357 0.717278 0
M  V30 1303 H 130.665 1.07574 1.56614 0
M  V30 1304 H 128.815 0.181999 3.88073 0
M  V30 1305 H 130.487 2.78387 3.67829 0
M  V30 1306 H 128.73 2.67292 3.41668 0
M  V30 1307 H 129.401 2.31549 5.01088 0
M  V30 1308 H 131.877 0.608905 4.11621 0
M  V30 1309 H 130.753 0.361265 5.4771 0
M  V30 1310 H 131.014 -0.935158 4.32096 0
M  V30 1311 N 130.073 -1.45103 0.615059 0
M  V30 1312 C 130.983 -2.34382 -0.101034 0
M  V30 1313 C 131.999 -1.51681 -0.852585 0
M  V30 1314 O 133.175 -1.8446 -0.808484 0
M  V30 1315 C 130.24 -3.29417 -1.08099 0
M  V30 1316 C 129.301 -4.28025 -0.330577 0
M  V30 1317 C 128.534 -5.1852 -1.26385 0
M  V30 1318 O 128.757 -5.12598 -2.50198 0
M  V30 1319 O 127.691 -5.97122 -0.756866 0
M  V30 1320 H 131.517 -2.97033 0.632855 0
M  V30 1321 H 129.102 -1.4461 0.375293 0
M  V30 1322 H 130.984 -3.87958 -1.6452 0
M  V30 1323 H 129.659 -2.69321 -1.79577 0
M  V30 1324 H 128.566 -3.73078 0.276283 0
M  V30 1325 H 129.899 -4.90997 0.343866 0
M  V30 1326 N 131.551 -0.354651 -1.53558 0
M  V30 1327 C 132.481 0.489091 -2.2832 0
M  V30 1328 C 133.462 1.09324 -1.30316 0
M  V30 1329 O 134.647 1.11255 -1.59173 0
M  V30 1330 C 131.777 1.63456 -3.0643 0
M  V30 1331 C 130.731 1.1582 -4.12031 0
M  V30 1332 C 130.057 2.39305 -4.7816 0
M  V30 1333 C 131.357 0.250731 -5.21698 0
M  V30 1334 H 133.051 -0.134614 -2.99097 0
M  V30 1335 H 130.597 -0.0661826 -1.43848 0
M  V30 1336 H 132.55 2.23136 -3.57475 0
M  V30 1337 H 131.274 2.28533 -2.33325 0
M  V30 1338 H 129.933 0.584146 -3.61916 0
M  V30 1339 H 129.581 3.02814 -4.01637 0
M  V30 1340 H 129.281 2.08109 -5.49513 0
M  V30 1341 H 130.805 2.99691 -5.31994 0
M  V30 1342 H 132.219 0.754695 -5.68311 0
M  V30 1343 H 130.616 0.0301468 -6.00092 0
M  V30 1344 H 131.686 -0.710125 -4.79672 0
M  V30 1345 N 133.029 1.57378 -0.0835403 0
M  V30 1346 C 134.277 1.93547 0.581718 0
M  V30 1347 C 134.598 0.96524 1.69435 0
M  V30 1348 O 133.868 0.0153369 1.95894 0
M  V30 1349 H 132.448 0.714521 0.217874 0
M  V30 1350 H 135.11 1.94366 -0.144158 0
M  V30 1351 H 134.206 2.95665 0.999423 0
M  V30 1352 N 134.507 -0.190092 1.56449 0
M  V30 1353 C 135.918 -0.754312 1.70784 0
M  V30 1354 C 136.269 -1.83631 0.690951 0
M  V30 1355 O 135.394 -2.15868 -0.151604 0
M  V30 1356 C 135.989 -1.37503 3.09642 0
M  V30 1357 C 134.548 -1.88628 3.25725 0
M  V30 1358 C 133.695 -0.758098 2.66736 0
M  V30 1359 H 136.646 0.0350524 1.58661 0
M  V30 1360 H 136.667 -2.2445 3.0725 0
M  V30 1361 H 136.179 -0.587302 3.83631 0
M  V30 1362 H 134.28 -2.70103 2.56661 0
M  V30 1363 H 134.393 -2.04462 4.3328 0
M  V30 1364 H 132.757 -1.17369 2.26046 0
M  V30 1365 H 133.54 0.0174705 3.43296 0
M  V30 1366 N 135.985 -1.50799 -0.457987 0
M  V30 1367 C 137.233 -1.62121 -1.2067 0
M  V30 1368 C 137.554 -0.329793 -1.92191 0
M  V30 1369 O 136.824 0.653409 -1.84682 0
M  V30 1370 H 135.404 -0.597441 -0.448411 0
M  V30 1371 H 138.066 -1.87637 -0.527096 0
M  V30 1372 H 137.162 -2.43882 -1.94751 0
M  V30 1373 N 137.463 0.71206 -1.40597 0
M  V30 1374 C 138.712 1.46754 -1.38369 0
M  V30 1375 C 139.025 1.95598 0.0097839 0
M  V30 1376 O 140.231 2.71059 0.154677 0
M  V30 1377 C 138.687 2.65289 -2.43207 0
M  V30 1378 C 138.295 2.23301 -3.88382 0
M  V30 1379 C 140.039 3.43008 -2.50091 0
M  V30 1380 C 137.946 3.38696 -4.84808 0
M  V30 1381 H 136.876 0.55118 -0.514506 0
M  V30 1382 H 139.527 0.774616 -1.66349 0
M  V30 1383 H 137.909 3.36769 -2.08332 0
M  V30 1384 H 139.083 1.59218 -4.32419 0
M  V30 1385 H 137.398 1.58618 -3.85006 0
M  V30 1386 H 139.995 4.28881 -3.1932 0
M  V30 1387 H 140.338 3.87065 -1.53253 0
M  V30 1388 H 140.871 2.78574 -2.83974 0
M  V30 1389 H 137.61 2.99668 -5.82992 0
M  V30 1390 H 137.13 4.01683 -4.45433 0
M  V30 1391 H 138.809 4.04712 -5.04794 0
M  V30 1392 N 138.941 1.26152 0.944643 0
M  V30 1393 C 139.874 1.01729 2.04271 0
M  V30 1394 C 140.852 -0.0568101 1.62501 0
M  V30 1395 O 142.036 0.0848987 1.88309 0
M  V30 1396 C 139.163 0.539792 3.34371 0
M  V30 1397 C 138.209 1.60593 3.9511 0
M  V30 1398 S 139.042 3.19392 4.29825 0
M  V30 1399 C 140.198 2.73402 5.63029 0
M  V30 1400 H 140.431 1.94703 2.24673 0
M  V30 1401 H 137.964 1.09793 1.08558 0
M  V30 1402 H 139.922 0.270956 4.09605 0
M  V30 1403 H 138.583 -0.369609 3.11918 0
M  V30 1404 H 137.776 1.22275 4.88943 0
M  V30 1405 H 137.378 1.82596 3.26397 0
M  V30 1406 H 139.67 2.1765 6.41588 0
M  V30 1407 H 140.613 3.65913 6.06229 0
M  V30 1408 H 141.021 2.13077 5.22741 0
M  V30 1409 N 140.419 -1.14872 1.07899 0
M  V30 1410 C 141.667 -1.85422 0.803941 0
M  V30 1411 C 141.988 -1.83051 -0.67211 0
M  V30 1412 O 141.258 -1.27532 -1.48703 0
M  V30 1413 H 139.838 -0.686537 0.294408 0
M  V30 1414 H 142.5 -1.39226 1.3639 0
M  V30 1415 H 141.596 -2.90399 1.14346 0
M  V30 1416 N 141.898 -0.863906 -1.31812 0
M  V30 1417 C 142.861 -0.320212 -2.26952 0
M  V30 1418 C 143.861 0.525369 -1.51975 0
M  V30 1419 O 145.051 0.335547 -1.70938 0
M  V30 1420 C 142.183 0.545919 -3.365 0
M  V30 1421 H 143.376 -1.16004 -2.76556 0
M  V30 1422 H 140.929 -0.638995 -1.42641 0
M  V30 1423 H 141.664 1.40718 -2.92179 0
M  V30 1424 H 141.449 -0.0594674 -3.92055 0
M  V30 1425 H 142.939 0.918796 -4.07367 0
M  V30 1426 N 143.376 1.44774 -0.622745 0
M  V30 1427 C 144.625 2.01334 -0.121397 0
M  V30 1428 C 144.938 1.49505 1.26125 0
M  V30 1429 O 146.144 1.98139 1.85616 0
M  V30 1430 C 144.6 3.59516 -0.166298 0
M  V30 1431 C 144.208 4.20342 -1.54974 0
M  V30 1432 C 145.952 4.23582 0.279021 0
M  V30 1433 C 143.859 5.70721 -1.55021 0
M  V30 1434 H 142.789 0.752851 -0.0416172 0
M  V30 1435 H 145.44 1.66083 -0.780309 0
M  V30 1436 H 143.822 3.92027 0.559557 0
M  V30 1437 H 144.996 3.99381 -2.29851 0
M  V30 1438 H 143.311 3.68529 -1.93843 0
M  V30 1439 H 145.908 5.33868 0.298083 0
M  V30 1440 H 146.251 3.95327 1.30471 0
M  V30 1441 H 146.784 3.95843 -0.394063 0
M  V30 1442 H 143.523 6.03698 -2.55399 0
M  V30 1443 H 143.043 5.93829 -0.844245 0
M  V30 1444 H 144.722 6.34203 -1.28047 0
M  V30 1445 N 144.854 0.36279 1.53368 0
M  V30 1446 C 146.101 -0.227776 2.01215 0
M  V30 1447 C 146.429 -1.49003 1.25014 0
M  V30 1448 O 145.684 -1.92876 0.331236 0
M  V30 1449 C 145.983 -0.568417 3.52851 0
M  V30 1450 C 145.649 0.59918 4.46901 0
M  V30 1451 C 144.311 0.919559 4.72332 0
M  V30 1452 C 146.663 1.38156 5.02556 0
M  V30 1453 C 143.991 2.02434 5.5067 0
M  V30 1454 C 146.343 2.47674 5.821 0
M  V30 1455 C 145.007 2.8025 6.05819 0
M  V30 1456 H 144.277 -0.083349 0.736297 0
M  V30 1457 H 146.924 0.494677 1.85001 0
M  V30 1458 H 145.229 -1.37185 3.66998 0
M  V30 1459 H 146.926 -1.03756 3.87344 0
M  V30 1460 H 143.516 0.339437 4.27254 0
M  V30 1461 H 147.7 1.14729 4.82857 0
M  V30 1462 H 142.956 2.28075 5.67267 0
M  V30 1463 H 147.13 3.08716 6.24234 0
M  V30 1464 H 144.757 3.65979 6.66306 0
M  V30 1465 N 146.332 -1.57332 0.0918853 0
M  V30 1466 C 147.609 -1.85691 -0.614668 0
M  V30 1467 C 147.989 -0.988146 -1.86545 0
M  V30 1468 O 147.337 -0.0597055 -2.28422 0
M  V30 1469 C 147.547 -3.36294 -0.933126 0
M  V30 1470 C 148.895 -4.04275 -1.29796 0
M  V30 1471 O 149.919 -3.41157 -1.02424 0
M  V30 1472 O 148.778 -5.1564 -1.81047 0
M  V30 1473 H 145.872 -0.767802 -0.307261 0
M  V30 1474 H 148.418 -1.69244 0.12434 0
M  V30 1475 H 147.19 -3.91273 -0.0456404 0
M  V30 1476 H 146.813 -3.58076 -1.72822 0
M  V30 1477 N 147.81 0.181792 -1.56548 0
M  V30 1478 C 149.058 0.89832 -1.81038 0
M  V30 1479 C 149.379 1.83232 -0.667164 0
M  V30 1480 O 148.649 1.93372 0.313673 0
M  V30 1481 H 147.229 0.33471 -0.667816 0
M  V30 1482 H 149.891 0.184116 -1.94028 0
M  V30 1483 H 148.987 1.4815 -2.74696 0
M  V30 1484 N 149.288 1.51039 0.449983 0
M  V30 1485 C 150.537 1.62317 1.19733 0
M  V30 1486 C 150.85 0.339101 1.92638 0
M  V30 1487 O 152.056 0.331069 2.69474 0
M  V30 1488 C 150.512 2.86608 2.17678 0
M  V30 1489 C 150.12 4.21972 1.50479 0
M  V30 1490 C 151.864 3.07239 2.92924 0
M  V30 1491 C 149.771 5.37426 2.46834 0
M  V30 1492 H 148.701 0.604532 0.450619 0
M  V30 1493 H 151.352 1.77494 0.465625 0
M  V30 1494 H 149.734 2.65037 2.94231 0
M  V30 1495 H 150.908 4.53878 0.795716 0
M  V30 1496 H 149.223 4.07117 0.874344 0
M  V30 1497 H 151.82 3.90668 3.65079 0
M  V30 1498 H 152.163 2.19807 3.5354 0
M  V30 1499 H 152.696 3.29091 2.23481 0
M  V30 1500 H 149.435 6.27079 1.90926 0
M  V30 1501 H 148.955 5.09912 3.15832 0
M  V30 1502 H 150.634 5.68862 3.08228 0
M  V30 1503 N 150.766 -0.704594 1.40972 0
M  V30 1504 C 151.698 -1.82974 1.38033 0
M  V30 1505 C 152.711 -1.60305 0.283931 0
M  V30 1506 O 153.9 -1.69975 0.545042 0
M  V30 1507 C 151 -3.19578 1.12795 0
M  V30 1508 C 150.173 -3.69352 2.34302 0
M  V30 1509 C 149.232 -4.84601 2.05058 0
M  V30 1510 O 148.258 -4.96682 2.7802 0
M  V30 1511 N 149.46 -5.71194 1.03528 0
M  V30 1512 H 152.225 -1.85991 2.35005 0
M  V30 1513 H 149.786 -0.886567 1.35468 0
M  V30 1514 H 151.778 -3.9429 0.911987 0
M  V30 1515 H 150.348 -3.11642 0.24452 0
M  V30 1516 H 149.568 -2.85649 2.71659 0
M  V30 1517 H 150.856 -3.99345 3.1528 0
M  V30 1518 H 150.254 -5.64054 0.431217 0
M  V30 1519 H 148.811 -6.45843 0.879205 0
M  V30 1520 N 152.244 -1.26651 -0.937939 0
M  V30 1521 C 153.66 -1.03834 -1.21205 0
M  V30 1522 C 153.86 0.234502 -2.00131 0
M  V30 1523 O 152.916 0.942767 -2.3424 0
M  V30 1524 C 154.229 -2.27167 -1.97017 0
M  V30 1525 C 155.777 -2.32101 -2.09996 0
M  V30 1526 C 156.252 -3.55136 -2.8921 0
M  V30 1527 N 157.743 -3.55632 -2.96783 0
M  V30 1528 C 158.478 -4.475 -3.58512 0
M  V30 1529 N 157.974 -5.4966 -4.21717 0
M  V30 1530 N 159.767 -4.35145 -3.55816 0
M  V30 1531 H 151.918 -2.08398 -0.410391 0
M  V30 1532 H 154.181 -0.916031 -0.244114 0
M  V30 1533 H 153.887 -3.19765 -1.46434 0
M  V30 1534 H 153.761 -2.31672 -2.97671 0
M  V30 1535 H 156.148 -1.40015 -2.59769 0
M  V30 1536 H 156.229 -2.31605 -1.08594 0
M  V30 1537 H 155.873 -4.47553 -2.40123 0
M  V30 1538 H 155.803 -3.5288 -3.90875 0
M  V30 1539 H 158.294 -2.81743 -2.51852 0
M  V30 1540 H 158.607 -6.15943 -4.66727 0
M  V30 1541 H 156.952 -5.53514 -4.20294 0
M  V30 1542 H 160.143 -3.5455 -3.05634 0
M  V30 1543 H 160.316 -5.06934 -4.03636 0
M  V30 1544 N 153.722 1.14298 -1.08507 0
M  V30 1545 C 155.133 1.66926 -0.836227 0
M  V30 1546 C 155.484 1.85576 0.63686 0
M  V30 1547 O 154.609 1.56767 1.49175 0
M  V30 1548 C 155.204 3.03219 -1.51142 0
M  V30 1549 C 153.763 3.52876 -1.30979 0
M  V30 1550 C 152.91 2.2833 -1.57356 0
M  V30 1551 H 155.861 0.983491 -1.24552 0
M  V30 1552 H 155.882 3.68726 -0.939211 0
M  V30 1553 H 155.394 2.89612 -2.58353 0
M  V30 1554 H 153.495 3.71703 -0.258429 0
M  V30 1555 H 153.608 4.33586 -2.03814 0
M  V30 1556 H 151.972 2.34454 -0.995164 0
M  V30 1557 H 152.755 2.17298 -2.65775 0
M  V30 1558 N 155.201 0.870884 1.31352 0
M  V30 1559 C 156.131 0.343096 2.30966 0
M  V30 1560 C 157.112 -0.566507 1.60389 0
M  V30 1561 O 158.297 -0.483336 1.88089 0
M  V30 1562 C 155.427 -0.455487 3.443 0
M  V30 1563 C 154.381 0.361103 4.26474 0
M  V30 1564 C 153.707 -0.563221 5.31725 0
M  V30 1565 C 155.007 1.59566 4.97329 0
M  V30 1566 H 156.701 1.17548 2.75359 0
M  V30 1567 H 154.247 0.566686 1.32381 0
M  V30 1568 H 156.2 -0.83525 4.13039 0
M  V30 1569 H 154.924 -1.32139 2.98675 0
M  V30 1570 H 153.583 0.722825 3.59403 0
M  V30 1571 H 153.231 -1.42643 4.82351 0
M  V30 1572 H 152.931 -0.0207409 5.87596 0
M  V30 1573 H 154.455 -0.939808 6.03324 0
M  V30 1574 H 155.869 1.28728 5.58661 0
M  V30 1575 H 154.266 2.07728 5.63 0
M  V30 1576 H 155.336 2.34798 4.24262 0
M  V30 1577 N 156.679 -1.44442 0.630414 0
M  V30 1578 C 157.904 -2.06927 0.139944 0
M  V30 1579 C 158.329 -1.46795 -1.17613 0
M  V30 1580 O 157.687 -0.569144 -1.72135 0
M  V30 1581 C 157.735 -3.6058 0.0379581 0
M  V30 1582 O 156.839 -3.99937 -1.0062 0
M  V30 1583 H 156.18 -0.658608 0.0844483 0
M  V30 1584 H 158.71 -1.85327 0.866891 0
M  V30 1585 H 158.72 -4.07714 -0.152856 0
M  V30 1586 H 157.395 -4.03728 0.998809 0
M  V30 1587 H 155.972 -3.64436 -0.79001 0
M  V30 1588 N 158.157 -0.370918 -1.53173 0
M  V30 1589 C 159.434 0.273754 -1.93675 0
M  V30 1590 C 159.814 1.65938 -1.3049 0
M  V30 1591 O 159.162 2.23698 -0.465999 0
M  V30 1592 C 159.372 0.318602 -3.47543 0
M  V30 1593 C 160.72 0.556392 -4.20939 0
M  V30 1594 O 161.744 0.399587 -3.53952 0
M  V30 1595 O 160.603 0.862133 -5.39657 0
M  V30 1596 H 157.697 0.165448 -0.810281 0
M  V30 1597 H 160.243 -0.42409 -1.64315 0
M  V30 1598 H 159.015 -0.652687 -3.85818 0
M  V30 1599 H 158.638 1.06212 -3.83151 0
M  V30 1600 N 159.635 1.57281 -0.100228 0
M  V30 1601 C 160.884 1.93713 0.561984 0
M  V30 1602 C 161.197 0.984492 1.69018 0
M  V30 1603 O 162.403 1.24273 2.41389 0
M  V30 1604 C 160.859 3.4421 1.05106 0
M  V30 1605 C 160.467 4.47975 -0.0476628 0
M  V30 1606 C 162.211 3.89595 1.68571 0
M  V30 1607 C 160.118 5.89631 0.457055 0
M  V30 1608 H 159.048 0.723082 0.2137 0
M  V30 1609 H 161.699 1.82644 -0.177057 0
M  V30 1610 H 160.081 3.50449 1.84395 0
M  V30 1611 H 161.255 4.53385 -0.823333 0
M  V30 1612 H 159.57 4.1223 -0.587816 0
M  V30 1613 H 162.167 4.92832 2.07414 0
M  V30 1614 H 162.51 3.28526 2.55688 0
M  V30 1615 H 163.043 3.86078 0.958562 0
M  V30 1616 H 159.782 6.54411 -0.377616 0
M  V30 1617 H 159.302 5.87681 1.19962 0
M  V30 1618 H 160.981 6.40363 0.92437 0
M  V30 1619 N 161.113 -0.173488 1.56642 0
M  V30 1620 C 162.338 -0.910149 1.86363 0
M  V30 1621 C 162.763 -1.75132 0.686318 0
M  V30 1622 O 162.121 -1.77595 -0.364643 0
M  V30 1623 C 162.169 -1.76447 3.14482 0
M  V30 1624 O 161.273 -2.86584 2.96553 0
M  V30 1625 H 160.614 -0.255086 0.613047 0
M  V30 1626 H 163.144 -0.172283 2.03873 0
M  V30 1627 H 163.154 -2.16483 3.45831 0
M  V30 1628 H 161.829 -1.14658 3.99783 0
M  V30 1629 H 160.406 -2.50146 2.76553 0
M  V30 1630 N 162.591 -1.51276 -0.441967 0
M  V30 1631 C 163.816 -1.67799 -1.21895 0
M  V30 1632 C 164.241 -0.372864 -1.84367 0
M  V30 1633 O 163.599 0.666501 -1.68604 0
M  V30 1634 C 163.647 -2.79199 -2.28211 0
M  V30 1635 O 162.751 -2.42479 -3.33583 0
M  V30 1636 H 162.092 -0.559649 -0.357336 0
M  V30 1637 H 164.622 -1.97815 -0.522522 0
M  V30 1638 H 164.632 -3.03146 -2.73069 0
M  V30 1639 H 163.307 -3.73906 -1.82118 0
M  V30 1640 H 161.884 -2.29087 -2.94234 0
M  V30 1641 N 164.069 0.697108 -1.41344 0
M  V30 1642 C 165.001 1.8224 -1.39001 0
M  V30 1643 C 166.014 1.60152 -0.292428 0
M  V30 1644 O 167.203 1.69684 -0.554048 0
M  V30 1645 C 164.303 3.18976 -1.14489 0
M  V30 1646 C 163.476 3.68105 -2.36258 0
M  V30 1647 C 162.535 4.83506 -2.07625 0
M  V30 1648 O 161.561 4.95201 -2.8065 0
M  V30 1649 N 162.763 5.70637 -1.06555 0
M  V30 1650 H 165.528 1.84742 -2.35988 0
M  V30 1651 H 163.089 0.87937 -1.35936 0
M  V30 1652 H 165.081 3.93801 -0.932885 0
M  V30 1653 H 163.651 3.11508 -0.261043 0
M  V30 1654 H 162.871 2.84204 -2.7317 0
M  V30 1655 H 164.159 3.97667 -3.17393 0
M  V30 1656 H 163.557 5.63817 -0.461125 0
M  V30 1657 H 162.114 6.45368 -0.913444 0
M  V30 1658 N 165.547 1.27147 0.931209 0
M  V30 1659 C 166.775 1.16082 1.71267 0
M  V30 1660 C 167.19 -0.282772 1.8667 0
M  V30 1661 O 166.547 -1.19283 1.38122 0
M  V30 1662 C 166.598 1.8358 3.11417 0
M  V30 1663 O 166.319 3.22299 2.96741 0
M  V30 1664 C 167.82 1.78597 4.05732 0
M  V30 1665 H 165.04 0.403758 0.535929 0
M  V30 1666 H 167.584 1.67953 1.16671 0
M  V30 1667 H 165.739 1.35623 3.62885 0
M  V30 1668 H 166.153 3.55851 3.85319 0
M  V30 1669 H 167.627 2.30444 5.01597 0
M  V30 1670 H 168.104 0.754564 4.3267 0
M  V30 1671 H 168.71 2.26152 3.60188 0
M  V30 1672 N 167.025 -1.13721 1.09112 0
M  V30 1673 C 167.957 -2.1871 0.685467 0
M  V30 1674 C 168.97 -1.60527 -0.271068 0
M  V30 1675 O 170.159 -1.78407 -0.0576148 0
M  V30 1676 C 167.259 -3.38898 -0.0111255 0
M  V30 1677 C 166.432 -4.26597 0.966131 0
M  V30 1678 C 165.491 -5.25324 0.303539 0
M  V30 1679 O 164.517 -5.61213 0.950177 0
M  V30 1680 N 165.719 -5.72779 -0.943651 0
M  V30 1681 H 168.484 -2.54126 1.58871 0
M  V30 1682 H 166.045 -1.29012 0.978143 0
M  V30 1683 H 168.037 -4.02014 -0.465517 0
M  V30 1684 H 166.607 -3.01747 -0.816565 0
M  V30 1685 H 165.827 -3.60306 1.59917 0
M  V30 1686 H 167.115 -4.82048 1.6281 0
M  V30 1687 H 166.513 -5.45762 -1.48862 0
M  V30 1688 H 165.07 -6.37847 -1.34142 0
M  V30 1689 N 168.503 -0.877838 -1.30888 0
M  V30 1690 C 169.728 -0.506629 -2.01117 0
M  V30 1691 C 170.153 0.895564 -1.65412 0
M  V30 1692 O 169.511 1.5923 -0.866922 0
M  V30 1693 C 169.559 -0.680223 -3.54126 0
M  V30 1694 O 168.663 0.277033 -4.11468 0
M  V30 1695 H 168.004 -0.200518 -0.633 0
M  V30 1696 H 170.534 -1.18342 -1.66902 0
M  V30 1697 H 170.544 -0.5765 -4.03907 0
M  V30 1698 H 169.219 -1.70261 -3.79452 0
M  V30 1699 H 167.796 0.127606 -3.72682 0
M  V30 1700 N 169.982 1.44106 -0.638065 0
M  V30 1701 C 171.231 2.01194 -0.142744 0
M  V30 1702 C 171.544 1.50835 1.24532 0
M  V30 1703 O 172.75 2.00096 1.83504 0
M  V30 1704 C 171.206 3.59319 -0.20442 0
M  V30 1705 C 170.814 4.18674 -1.59423 0
M  V30 1706 C 172.558 4.23854 0.234079 0
M  V30 1707 C 170.465 5.69045 -1.61065 0
M  V30 1708 H 169.395 0.752367 -0.0495998 0
M  V30 1709 H 172.046 1.65246 -0.797881 0
M  V30 1710 H 170.428 3.92598 0.517946 0
M  V30 1711 H 171.602 3.96921 -2.34074 0
M  V30 1712 H 169.917 3.66453 -1.97741 0
M  V30 1713 H 172.514 5.34155 0.241443 0
M  V30 1714 H 172.857 3.96688 1.2627 0
M  V30 1715 H 173.39 3.95403 -0.436025 0
M  V30 1716 H 170.129 6.00956 -2.61787 0
M  V30 1717 H 169.649 5.929 -0.90718 0
M  V30 1718 H 171.328 6.32809 -1.34766 0
M  V30 1719 N 171.46 0.379036 1.52974 0
M  V30 1720 C 172.69 -0.20649 2.05566 0
M  V30 1721 C 173.098 -1.41906 1.25137 0
M  V30 1722 O 172.441 -1.81421 0.288464 0
M  V30 1723 C 172.503 -0.651086 3.53555 0
M  V30 1724 C 172.167 0.446626 4.54812 0
M  V30 1725 C 173.164 1.30079 5.03364 0
M  V30 1726 C 170.849 0.610719 4.98573 0
M  V30 1727 C 172.843 2.30426 5.94292 0
M  V30 1728 C 170.53 1.61754 5.89304 0
M  V30 1729 C 171.528 2.46274 6.37054 0
M  V30 1730 O 171.216 3.45237 7.25994 0
M  V30 1731 H 170.948 -0.0372381 0.674974 0
M  V30 1732 H 173.502 0.539718 1.98182 0
M  V30 1733 H 171.732 -1.44911 3.58522 0
M  V30 1734 H 173.421 -1.16112 3.88938 0
M  V30 1735 H 174.187 1.18527 4.70294 0
M  V30 1736 H 170.066 -0.0374044 4.60985 0
M  V30 1737 H 173.61 2.96432 6.31485 0
M  V30 1738 H 169.507 1.73348 6.21788 0
M  V30 1739 H 170.275 3.41124 7.44027 0
M  V30 1740 N 172.938 -1.57226 0.108567 0
M  V30 1741 C 174.187 -1.94008 -0.551703 0
M  V30 1742 C 174.5 -0.993442 -1.68494 0
M  V30 1743 O 175.706 -1.25551 -2.40726 0
M  V30 1744 C 174.162 -3.44763 -1.03279 0
M  V30 1745 C 173.77 -4.47943 0.0714193 0
M  V30 1746 C 175.514 -3.90483 -1.66503 0
M  V30 1747 C 173.421 -5.89865 -0.425779 0
M  V30 1748 H 172.351 -0.724206 -0.209863 0
M  V30 1749 H 175.002 -1.82547 0.186741 0
M  V30 1750 H 173.384 -3.51422 -1.82533 0
M  V30 1751 H 174.558 -4.52942 0.847365 0
M  V30 1752 H 172.873 -4.11913 0.609669 0
M  V30 1753 H 175.47 -4.93925 -2.04798 0
M  V30 1754 H 175.813 -3.29877 -2.53942 0
M  V30 1755 H 176.346 -3.86581 -0.938074 0
M  V30 1756 H 173.085 -6.54202 0.412316 0
M  V30 1757 H 172.605 -5.88309 -1.16843 0
M  V30 1758 H 174.284 -6.40844 -0.890397 0
M  V30 1759 N 174.416 0.165178 -1.56732 0
M  V30 1760 C 175.827 0.727046 -1.71962 0
M  V30 1761 C 176.178 1.82508 -0.720078 0
M  V30 1762 O 175.303 2.16082 0.117242 0
M  V30 1763 C 175.898 1.32559 -3.11791 0
M  V30 1764 C 174.457 1.83422 -3.28684 0
M  V30 1765 C 173.604 0.715567 -2.67908 0
M  V30 1766 H 176.555 -0.0602896 -1.58585 0
M  V30 1767 H 176.576 2.19533 -3.10782 0
M  V30 1768 H 176.088 0.526195 -3.84516 0
M  V30 1769 H 174.189 2.65986 -2.60926 0
M  V30 1770 H 174.302 1.97543 -4.36478 0
M  V30 1771 H 172.666 1.13758 -2.27884 0
M  V30 1772 H 173.449 -0.0720836 -3.43224 0
M  V30 1773 N 175.894 1.51508 0.433938 0
M  V30 1774 C 177.31 1.39759 0.770682 0
M  V30 1775 C 177.51 0.482594 1.95636 0
M  V30 1776 O 176.566 -0.0609691 2.52426 0
M  V30 1777 C 177.879 2.81851 1.04787 0
M  V30 1778 C 179.427 2.91025 1.1521 0
M  V30 1779 C 179.902 4.34032 1.46219 0
M  V30 1780 N 181.393 4.37154 1.53136 0
M  V30 1781 C 182.128 5.4484 1.78709 0
M  V30 1782 N 181.624 6.62682 2.02051 0
M  V30 1783 N 183.417 5.32324 1.80519 0
M  V30 1784 H 175.568 2.09548 -0.346892 0
M  V30 1785 H 177.831 0.943446 -0.0928074 0
M  V30 1786 H 177.537 3.50815 0.249304 0
M  V30 1787 H 177.411 3.21386 1.97461 0
M  V30 1788 H 179.798 2.22257 1.94128 0
M  V30 1789 H 179.879 2.54983 0.204281 0
M  V30 1790 H 179.523 5.03351 0.678274 0
M  V30 1791 H 179.453 4.6759 2.42212 0
M  V30 1792 H 181.944 3.52197 1.36987 0
M  V30 1793 H 182.257 7.40543 2.20943 0
M  V30 1794 H 180.602 6.65791 1.99366 0
M  V30 1795 H 183.793 4.39246 1.61805 0
M  V30 1796 H 183.966 6.16328 2.00111 0
M  V30 1797 N 177.372 -0.689602 1.41712 0
M  V30 1798 C 178.62 -1.4468 1.4111 0
M  V30 1799 C 178.941 -1.94986 0.0232196 0
M  V30 1800 O 178.211 -1.72097 -0.935913 0
M  V30 1801 H 176.791 -0.536847 0.519427 0
M  V30 1802 H 179.453 -0.815825 1.77004 0
M  V30 1803 H 178.549 -2.30706 2.10193 0
M  V30 1804 N 178.85 -1.27639 -0.924453 0
M  V30 1805 C 180.096 -1.14336 -1.67497 0
M  V30 1806 C 180.429 0.309465 -1.91718 0
M  V30 1807 O 179.704 1.22608 -1.50989 0
M  V30 1808 C 179.987 -1.93096 -3.0395 0
M  V30 1809 C 179.84 -3.46381 -2.8695 0
M  V30 1810 C 181.159 -1.73798 -4.0433 0
M  V30 1811 H 178.278 -0.416728 -0.607871 0
M  V30 1812 H 180.92 -1.56832 -1.07256 0
M  V30 1813 H 179.07 -1.56982 -3.55372 0
M  V30 1814 H 180.742 -3.92343 -2.42621 0
M  V30 1815 H 178.985 -3.72557 -2.22225 0
M  V30 1816 H 179.656 -3.96735 -3.83804 0
M  V30 1817 H 182.132 -2.05293 -3.61931 0
M  V30 1818 H 181.008 -2.31294 -4.97789 0
M  V30 1819 H 181.269 -0.686725 -4.36734 0
M  V30 1820 N 180.328 1.1314 -1.09713 0
M  V30 1821 C 181.276 2.20717 -0.733934 0
M  V30 1822 C 182.27 1.6729 0.266506 0
M  V30 1823 O 183.476 1.79547 0.127656 0
M  V30 1824 H 179.851 0.719292 -0.21937 0
M  V30 1825 H 181.822 2.48611 -1.6503 0
M  V30 1826 C 180.571 3.47265 -0.173849 0
M  V30 1827 H 179.894 3.88716 -0.934873 0
M  V30 1828 H 181.334 4.23979 0.0423126 0
M  V30 1829 C 179.793 3.18724 1.09164 0
M  V30 1830 O 180.323 3.37762 2.17439 0
M  V30 1831 N 178.529 2.72583 1.00732 0
M  V30 1832 H 178.076 2.57291 0.126121 0
M  V30 1833 H 178.034 2.53862 1.85476 0
M  V30 1834 N 181.806 0.884767 1.30421 0
M  V30 1835 C 183.052 0.503851 1.96441 0
M  V30 1836 C 183.385 -0.944518 1.69684 0
M  V30 1837 O 182.66 -1.66737 1.00145 0
M  V30 1838 C 182.943 0.779085 3.51571 0
M  V30 1839 C 182.796 2.27807 3.87846 0
M  V30 1840 C 184.115 0.255452 4.39358 0
M  V30 1841 H 181.234 0.184533 0.713524 0
M  V30 1842 H 183.876 1.10872 1.54297 0
M  V30 1843 H 182.026 0.264274 3.876 0
M  V30 1844 H 183.698 2.86127 3.61841 0
M  V30 1845 H 181.941 2.74479 3.35922 0
M  V30 1846 H 182.612 2.42125 4.96064 0
M  V30 1847 H 185.088 0.696079 4.10236 0
M  V30 1848 H 183.964 0.477361 5.4682 0
M  V30 1849 H 184.225 -0.843293 4.33983 0
M  V30 1850 N 183.284 -1.43765 0.645699 0
M  V30 1851 C 184.509 -2.06767 0.161883 0
M  V30 1852 C 184.934 -1.48034 -1.16049 0
M  V30 1853 O 184.292 -0.587369 -1.71522 0
M  V30 1854 C 184.34 -3.60519 0.0762003 0
M  V30 1855 O 183.444 -4.00982 -0.963721 0
M  V30 1856 H 182.785 -0.657675 0.091429 0
M  V30 1857 H 185.315 -1.84397 0.886499 0
M  V30 1858 H 185.325 -4.07853 -0.109604 0
M  V30 1859 H 184 -4.02646 1.04157 0
M  V30 1860 H 182.577 -3.65253 -0.751312 0
M  V30 1861 N 184.763 -0.387143 -1.52771 0
M  V30 1862 C 185.726 0.436939 -2.24997 0
M  V30 1863 C 186.726 0.991991 -1.26555 0
M  V30 1864 O 187.916 0.874335 -1.50669 0
M  V30 1865 C 185.048 1.61281 -3.00335 0
M  V30 1866 H 186.241 -0.195365 -2.99263 0
M  V30 1867 H 183.794 -0.139218 -1.55679 0
M  V30 1868 H 184.529 2.2826 -2.30364 0
M  V30 1869 H 184.314 1.22154 -3.72587 0
M  V30 1870 H 185.804 2.19629 -3.5518 0
M  V30 1871 N 186.241 1.57166 -0.116904 0
M  V30 1872 C 187.171 2.18222 0.830759 0
M  V30 1873 C 188.152 1.12167 1.27877 0
M  V30 1874 O 189.337 1.40394 1.34176 0
M  V30 1875 C 186.467 2.77996 2.08172 0
M  V30 1876 C 185.421 3.89614 1.77157 0
M  V30 1877 C 184.747 4.36187 3.09265 0
M  V30 1878 C 186.047 5.1181 1.04151 0
M  V30 1879 H 187.741 2.97664 0.321992 0
M  V30 1880 H 185.287 1.4318 0.153434 0
M  V30 1881 H 187.24 3.19366 2.74924 0
M  V30 1882 H 185.964 1.9584 2.6137 0
M  V30 1883 H 184.623 3.48816 1.12796 0
M  V30 1884 H 184.271 3.50893 3.60393 0
M  V30 1885 H 183.971 5.11455 2.89288 0
M  V30 1886 H 185.495 4.80207 3.77139 0
M  V30 1887 H 186.909 5.50214 1.61052 0
M  V30 1888 H 185.306 5.92648 0.942762 0
M  V30 1889 H 186.376 4.84892 0.0279022 0
M  V30 1890 N 187.719 -0.156864 1.56817 0
M  V30 1891 C 188.944 -0.890331 1.87318 0
M  V30 1892 C 189.369 -1.74394 0.704855 0
M  V30 1893 O 188.727 -1.77972 -0.345786 0
M  V30 1894 C 188.775 -1.73102 3.16336 0
M  V30 1895 O 187.879 -2.83422 2.99576 0
M  V30 1896 H 187.22 -0.24857 0.615718 0
M  V30 1897 H 189.75 -0.150649 2.04045 0
M  V30 1898 H 189.76 -2.12803 3.48107 0
M  V30 1899 H 188.435 -1.10412 4.00976 0
M  V30 1900 H 187.012 -2.47199 2.7919 0
M  V30 1901 N 189.197 -1.51736 -0.425897 0
M  V30 1902 C 190.613 -1.40166 -0.76326 0
M  V30 1903 C 190.813 -0.492962 -1.95377 0
M  V30 1904 O 189.869 0.0475815 -2.52455 0
M  V30 1905 C 191.182 -2.82403 -1.03291 0
M  V30 1906 C 192.73 -2.91632 -1.13665 0
M  V30 1907 C 193.205 -4.34801 -1.43916 0
M  V30 1908 N 194.696 -4.3796 -1.50816 0
M  V30 1909 C 195.431 -5.4578 -1.75817 0
M  V30 1910 N 194.927 -6.63744 -1.98534 0
M  V30 1911 N 196.72 -5.33274 -1.77694 0
M  V30 1912 H 188.871 -2.09361 0.358 0
M  V30 1913 H 191.134 -0.942941 0.0978094 0
M  V30 1914 H 190.84 -3.50943 -0.230696 0
M  V30 1915 H 190.714 -3.22428 -1.95754 0
M  V30 1916 H 193.101 -2.23284 -1.92947 0
M  V30 1917 H 193.182 -2.55088 -0.190756 0
M  V30 1918 H 192.826 -5.03703 -0.65157 0
M  V30 1919 H 192.756 -4.68868 -2.39729 0
M  V30 1920 H 195.247 -3.52919 -1.35118 0
M  V30 1921 H 195.56 -7.41704 -2.17013 0
M  V30 1922 H 193.905 -6.66839 -1.95832 0
M  V30 1923 H 197.096 -4.40098 -1.59473 0
M  V30 1924 H 197.269 -6.1738 -1.9684 0
M  V30 1925 N 190.675 0.682077 -1.42076 0
M  V30 1926 C 191.952 1.43755 -1.32642 0
M  V30 1927 C 192.332 2.11063 0.0396611 0
M  V30 1928 O 191.68 2.02701 1.05474 0
M  V30 1929 C 191.89 2.44596 -2.48946 0
M  V30 1930 C 193.238 3.09454 -2.9073 0
M  V30 1931 O 194.262 2.54922 -2.48783 0
M  V30 1932 O 193.121 4.08253 -3.63307 0
M  V30 1933 H 190.215 0.640857 -0.522715 0
M  V30 1934 H 192.761 0.711415 -1.54068 0
M  V30 1935 H 191.533 1.93609 -3.40046 0
M  V30 1936 H 191.156 3.24701 -2.29467 0
M  V30 1937 N 192.153 1.28127 0.917671 0
M  V30 1938 C 193.402 1.14432 1.66097 0
M  V30 1939 C 193.715 -0.307247 1.93172 0
M  V30 1940 O 194.921 -0.565259 2.65551 0
M  V30 1941 C 193.377 2.00015 2.99202 0
M  V30 1942 C 192.985 3.49889 2.79789 0
M  V30 1943 C 194.729 1.94996 3.77064 0
M  V30 1944 C 192.636 4.27636 4.08511 0
M  V30 1945 H 191.566 0.424662 0.62304 0
M  V30 1946 H 194.217 1.52628 1.01868 0
M  V30 1947 H 192.599 1.54672 3.64544 0
M  V30 1948 H 193.773 4.03162 2.23152 0
M  V30 1949 H 192.088 3.56392 2.15345 0
M  V30 1950 H 194.685 2.50354 4.72469 0
M  V30 1951 H 195.028 0.925819 4.05875 0
M  V30 1952 H 195.561 2.38287 3.18534 0
M  V30 1953 H 192.3 5.30615 3.84874 0
M  V30 1954 H 191.82 3.79137 4.64774 0
M  V30 1955 H 193.499 4.37346 4.76799 0
M  V30 1956 N 193.631 -1.12557 1.10312 0
M  V30 1957 C 194.578 -2.18247 0.750781 0
M  V30 1958 C 195.548 -1.63853 -0.272293 0
M  V30 1959 O 196.733 -1.90195 -0.151862 0
M  V30 1960 C 193.873 -3.44591 0.187379 0
M  V30 1961 C 192.986 -4.13046 1.2656 0
M  V30 1962 C 192.121 -5.27034 0.663978 0
M  V30 1963 C 191.16 -5.87353 1.72287 0
M  V30 1964 N 190.297 -6.92757 1.1416 0
M  V30 1965 H 195.137 -2.47732 1.65628 0
M  V30 1966 H 192.674 -1.21629 0.827337 0
M  V30 1967 H 194.632 -4.16904 -0.157148 0
M  V30 1968 H 193.262 -3.15527 -0.681355 0
M  V30 1969 H 192.314 -3.38924 1.72727 0
M  V30 1970 H 193.626 -4.53947 2.06721 0
M  V30 1971 H 192.78 -6.06104 0.268824 0
M  V30 1972 H 191.519 -4.87407 -0.169082 0
M  V30 1973 H 190.524 -5.06971 2.12746 0
M  V30 1974 H 191.749 -6.29051 2.55875 0
M  V30 1975 H 189.695 -6.5517 0.329984 0
M  V30 1976 H 189.612 -7.3225 1.88007 0
M  V30 1977 H 190.88 -7.75658 0.772956 0
M  V30 1978 N 195.109 -0.891671 -1.2995 0
M  V30 1979 C 196.355 -0.523649 -1.96544 0
M  V30 1980 C 196.71 0.918394 -1.69066 0
M  V30 1981 O 196.003 1.64122 -0.988659 0
M  V30 1982 C 196.197 -0.742868 -3.49594 0
M  V30 1983 C 196.026 -2.20467 -3.9195 0
M  V30 1984 C 194.796 -2.85055 -4.17219 0
M  V30 1985 C 196.994 -3.17912 -4.04273 0
M  V30 1986 N 194.976 -4.21762 -4.46083 0
M  V30 1987 C 196.347 -4.39712 -4.37097 0
M  V30 1988 C 198.402 -3.1361 -3.86721 0
M  V30 1989 C 197.105 -5.5776 -4.54199 0
M  V30 1990 C 199.131 -4.30936 -4.05028 0
M  V30 1991 C 198.493 -5.51504 -4.38204 0
M  V30 1992 H 194.592 -0.241072 -0.743914 0
M  V30 1993 H 197.176 -1.15081 -1.5705 0
M  V30 1994 H 195.347 -0.14515 -3.88129 0
M  V30 1995 H 197.079 -0.341081 -4.0326 0
M  V30 1996 H 193.834 -2.35889 -4.10674 0
M  V30 1997 H 194.258 -4.92382 -4.64638 0
M  V30 1998 H 198.9 -2.21489 -3.60142 0
M  V30 1999 H 196.618 -6.50379 -4.79618 0
M  V30 2000 H 200.204 -4.29085 -3.92909 0
M  V30 2001 H 199.084 -6.40778 -4.52077 0
M  V30 2002 N 196.587 1.43421 -0.653314 0
M  V30 2003 C 197.864 1.95361 -0.0966581 0
M  V30 2004 C 198.244 1.59461 1.38331 0
M  V30 2005 O 197.592 0.879777 2.10884 0
M  V30 2006 C 197.802 3.47311 -0.342988 0
M  V30 2007 C 199.15 4.23875 -0.24798 0
M  V30 2008 O 200.174 3.55133 -0.275553 0
M  V30 2009 O 199.033 5.4623 -0.171771 0
M  V30 2010 H 196.127 0.826945 0.00956291 0
M  V30 2011 H 198.673 1.5336 -0.726558 0
M  V30 2012 H 197.445 3.66569 -1.36906 0
M  V30 2013 H 197.068 3.9631 0.319975 0
M  V30 2014 N 198.065 0.39524 1.52563 0
M  V30 2015 C 199.312 -0.185044 2.01653 0
M  V30 2016 C 199.64 -1.46317 1.28146 0
M  V30 2017 O 198.895 -1.9213 0.372074 0
M  V30 2018 C 199.194 -0.493444 3.53977 0
M  V30 2019 C 198.86 0.69384 4.4553 0
M  V30 2020 C 197.522 1.01954 4.70275 0
M  V30 2021 C 199.874 1.48785 4.99512 0
M  V30 2022 C 197.202 2.14069 5.46252 0
M  V30 2023 C 199.554 2.59965 5.76716 0
M  V30 2024 C 198.218 2.93037 5.99738 0
M  V30 2025 H 197.488 -0.0677123 0.7379 0
M  V30 2026 H 200.135 0.533807 1.8391 0
M  V30 2027 H 198.44 -1.29369 3.69825 0
M  V30 2028 H 200.137 -0.955163 3.89458 0
M  V30 2029 H 196.727 0.429987 4.26438 0
M  V30 2030 H 200.911 1.24946 4.80315 0
M  V30 2031 H 196.167 2.40056 5.62302 0
M  V30 2032 H 200.341 3.21887 6.17545 0
M  V30 2033 H 197.968 3.8003 6.58393 0
M  V30 2034 N 199.544 -1.57102 0.125237 0
M  V30 2035 C 200.772 -1.99761 -0.538797 0
M  V30 2036 C 201.187 -1.00503 -1.59827 0
M  V30 2037 O 200.544 0.00119474 -1.825 0
M  V30 2038 C 200.595 -3.42408 -1.15927 0
M  V30 2039 O 200.316 -4.37869 -0.142143 0
M  V30 2040 C 201.817 -4.00232 -1.90602 0
M  V30 2041 H 199.037 -0.655772 -0.14214 0
M  V30 2042 H 201.581 -2.03383 0.213413 0
M  V30 2043 H 199.736 -3.39706 -1.86223 0
M  V30 2044 H 200.15 -5.21128 -0.593775 0
M  V30 2045 H 201.624 -5.02105 -2.29335 0
M  V30 2046 H 202.101 -3.39721 -2.78363 0
M  V30 2047 H 202.707 -4.06499 -1.25055 0
M  V30 2048 N 201.022 0.148545 -1.56898 0
M  V30 2049 C 202.433 0.708766 -1.72723 0
M  V30 2050 C 202.784 1.81734 -0.739395 0
M  V30 2051 O 201.909 2.16194 0.0943169 0
M  V30 2052 C 202.504 1.29245 -3.13179 0
M  V30 2053 C 201.063 1.79925 -3.30611 0
M  V30 2054 C 200.21 0.687111 -2.68652 0
M  V30 2055 H 203.161 -0.0771063 -1.58513 0
M  V30 2056 H 203.182 2.16224 -3.13093 0
M  V30 2057 H 202.694 0.485382 -3.85053 0
M  V30 2058 H 200.795 2.63203 -2.63732 0
M  V30 2059 H 200.908 1.92903 -4.38549 0
M  V30 2060 H 199.272 1.11335 -2.29078 0
M  V30 2061 H 200.055 -0.108483 -3.43129 0
M  V30 2062 N 202.5 1.5196 0.417844 0
M  V30 2063 C 203.74 1.67262 1.17486 0
M  V30 2064 C 204.104 0.38983 1.88001 0
M  V30 2065 O 205.305 0.418845 2.65517 0
M  V30 2066 C 203.576 2.85526 2.14965 0
M  V30 2067 S 205.135 3.21263 2.98891 0
M  V30 2068 H 201.953 0.589077 0.398132 0
M  V30 2069 H 204.555 1.89927 0.463452 0
M  V30 2070 H 203.259 3.77145 1.61833 0
M  V30 2071 H 202.79 2.65107 2.90657 0
M  V30 2072 H 204.805 2.69208 4.16823 0
M  V30 2073 N 203.978 -0.674533 1.42435 0
M  V30 2074 C 204.925 -1.78807 1.45934 0
M  V30 2075 C 205.895 -1.63157 0.311271 0
M  V30 2076 O 207.08 -1.83707 0.515383 0
M  V30 2077 C 204.22 -3.16839 1.36773 0
M  V30 2078 C 203.333 -3.43774 2.61617 0
M  V30 2079 C 202.468 -4.71536 2.44597 0
M  V30 2080 C 201.507 -4.91505 3.64814 0
M  V30 2081 N 200.644 -6.10508 3.46734 0
M  V30 2082 H 205.484 -1.75151 2.41093 0
M  V30 2083 H 203.021 -0.85504 1.19697 0
M  V30 2084 H 204.979 -3.96606 1.29459 0
M  V30 2085 H 203.609 -3.19619 0.452089 0
M  V30 2086 H 202.661 -2.58259 2.79297 0
M  V30 2087 H 203.973 -3.54423 3.50978 0
M  V30 2088 H 203.127 -5.59393 2.3487 0
M  V30 2089 H 201.866 -4.6317 1.52726 0
M  V30 2090 H 200.871 -4.0209 3.74972 0
M  V30 2091 H 202.096 -5.01716 4.57665 0
M  V30 2092 H 200.042 -6.03315 2.5758 0
M  V30 2093 H 199.959 -6.2202 4.29682 0
M  V30 2094 H 201.227 -7.01044 3.40819 0
M  V30 2095 N 205.456 -1.28612 -0.910864 0
M  V30 2096 C 206.404 -1.1265 -2.03501 0
M  V30 2097 C 207.398 -0.0450054 -1.6934 0
M  V30 2098 O 208.604 -0.203988 -1.7884 0
M  V30 2099 H 204.979 -0.347639 -0.666822 0
M  V30 2100 H 206.95 -2.07849 -2.14106 0
M  V30 2101 C 205.699 -0.808143 -3.38178 0
M  V30 2102 H 205.022 -1.63231 -3.6496 0
M  V30 2103 H 206.462 -0.736426 -4.17556 0
M  V30 2104 C 204.921 0.488226 -3.33344 0
M  V30 2105 O 205.451 1.51766 -3.71927 0
M  V30 2106 N 203.657 0.490009 -2.86439 0
M  V30 2107 H 203.204 -0.348161 -2.55236 0
M  V30 2108 H 203.162 1.35741 -2.83587 0
M  V30 2109 N 206.934 1.1197 -1.10907 0
M  V30 2110 C 207.864 2.19928 -0.784473 0
M  V30 2111 C 208.845 1.6833 0.244726 0
M  V30 2112 O 210.03 1.93892 0.109418 0
M  V30 2113 C 207.16 3.46597 -0.220827 0
M  V30 2114 C 206.114 4.11376 -1.18127 0
M  V30 2115 C 205.44 5.32554 -0.478594 0
M  V30 2116 C 206.74 4.56945 -2.52979 0
M  V30 2117 H 208.434 2.47337 -1.68715 0
M  V30 2118 H 205.98 1.18879 -0.812642 0
M  V30 2119 H 207.933 4.21396 0.0184278 0
M  V30 2120 H 206.657 3.1863 0.717113 0
M  V30 2121 H 205.316 3.38564 -1.40606 0
M  V30 2122 H 204.964 5.00856 0.463976 0
M  V30 2123 H 204.664 5.76844 -1.11912 0
M  V30 2124 H 206.188 6.10096 -0.248 0
M  V30 2125 H 207.602 5.23093 -2.3462 0
M  V30 2126 H 205.999 5.1203 -3.12962 0
M  V30 2127 H 207.069 3.70676 -3.12614 0
M  V30 2128 N 208.412 0.89855 1.29475 0
M  V30 2129 C 209.828 0.594483 1.48115 0
M  V30 2130 C 210.028 -0.86431 1.82022 0
M  V30 2131 O 209.084 -1.64457 1.91599 0
M  V30 2132 C 210.397 1.51932 2.59494 0
M  V30 2133 C 211.945 1.5244 2.7337 0
M  V30 2134 C 212.42 2.43548 3.87877 0
M  V30 2135 N 213.911 2.41589 3.95208 0
M  V30 2136 C 214.646 3.08789 4.83153 0
M  V30 2137 N 214.142 3.85265 5.75798 0
M  V30 2138 N 215.935 2.97952 4.76635 0
M  V30 2139 H 208.086 1.84207 1.05742 0
M  V30 2140 H 210.349 0.789251 0.525154 0
M  V30 2141 H 210.055 2.55865 2.41301 0
M  V30 2142 H 209.929 1.23899 3.56271 0
M  V30 2143 H 212.316 0.492518 2.90961 0
M  V30 2144 H 212.397 1.8451 1.77172 0
M  V30 2145 H 212.041 3.46829 3.71041 0
M  V30 2146 H 211.971 2.08788 4.83441 0
M  V30 2147 H 214.462 1.86025 3.28943 0
M  V30 2148 H 214.775 4.33598 6.39697 0
M  V30 2149 H 213.12 3.89371 5.75687 0
M  V30 2150 H 216.311 2.37723 4.03244 0
M  V30 2151 H 216.484 3.50599 5.44962 0
M  V30 2152 N 209.89 -1.43072 0.660911 0
M  V30 2153 C 211.136 -2.0202 0.177708 0
M  V30 2154 C 211.469 -1.52066 -1.20787 0
M  V30 2155 O 210.744 -0.716987 -1.80802 0
M  V30 2156 C 211.027 -3.59561 0.197019 0
M  V30 2157 C 210.88 -4.19727 1.61706 0
M  V30 2158 C 212.199 -4.37664 -0.462396 0
M  V30 2159 H 209.318 -0.734034 0.0660494 0
M  V30 2160 H 211.96 -1.70272 0.843058 0
M  V30 2161 H 210.11 -3.86739 -0.369527 0
M  V30 2162 H 211.782 -4.03553 2.23479 0
M  V30 2163 H 210.025 -3.76084 2.16201 0
M  V30 2164 H 210.696 -5.28834 1.58237 0
M  V30 2165 H 213.172 -4.16095 0.0197215 0
M  V30 2166 H 212.048 -5.47305 -0.418188 0
M  V30 2167 H 212.309 -4.14493 -1.53778 0
M  V30 2168 N 211.368 -0.403325 -1.52352 0
M  V30 2169 C 212.616 0.174003 -2.0135 0
M  V30 2170 C 212.937 1.46139 -1.29106 0
M  V30 2171 O 212.207 1.91448 -0.415253 0
M  V30 2172 H 210.787 0.0672911 -0.743963 0
M  V30 2173 H 213.449 -0.538235 -1.87321 0
M  V30 2174 H 212.545 0.374254 -3.09848 0
M  V30 2175 N 212.846 1.57033 -0.133567 0
M  V30 2176 C 214.071 2.00475 0.531477 0
M  V30 2177 C 214.496 1.01291 1.58499 0
M  V30 2178 O 213.854 -0.0133279 1.81295 0
M  V30 2179 C 213.902 3.42729 1.12113 0
M  V30 2180 O 213.006 3.46498 2.23636 0
M  V30 2181 H 212.347 0.650876 0.131362 0
M  V30 2182 H 214.877 2.03344 -0.22634 0
M  V30 2183 H 214.887 3.81246 1.4531 0
M  V30 2184 H 213.562 4.14428 0.349557 0
M  V30 2185 H 212.139 3.19811 1.91769 0
M  V30 2186 N 214.325 -0.140222 1.56975 0
M  V30 2187 C 215.275 -1.17827 1.95194 0
M  V30 2188 C 216.259 -1.38195 0.824075 0
M  V30 2189 O 217.451 -1.39643 1.0876 0
M  V30 2190 C 214.58 -2.51024 2.34184 0
M  V30 2191 C 213.666 -2.3422 3.53556 0
M  V30 2192 N 214.057 -1.87185 4.69889 0
M  V30 2193 C 212.355 -2.64949 3.58773 0
M  V30 2194 C 213.056 -1.83586 5.5197 0
M  V30 2195 N 212.032 -2.2715 4.93866 0
M  V30 2196 H 215.834 -0.806817 2.82609 0
M  V30 2197 H 213.348 -0.348208 1.58623 0
M  V30 2198 H 215.345 -3.26074 2.59772 0
M  V30 2199 H 214.005 -2.88945 1.48124 0
M  V30 2200 H 215.016 -1.57048 4.93514 0
M  V30 2201 H 211.693 -3.067 2.8327 0
M  V30 2202 H 213.083 -1.48655 6.55249 0
M  V30 2203 N 215.803 -1.52179 -0.40978 0
M  V30 2204 C 217.052 -1.65434 -1.15388 0
M  V30 2205 C 217.365 -0.390056 -1.91671 0
M  V30 2206 O 218.571 -0.402399 -2.68501 0
M  V30 2207 C 217.027 -2.92279 -2.10003 0
M  V30 2208 C 216.635 -4.25813 -1.39239 0
M  V30 2209 C 218.379 -3.14897 -2.84675 0
M  V30 2210 C 216.286 -5.43782 -2.32498 0
M  V30 2211 H 215.216 -0.616267 -0.434432 0
M  V30 2212 H 217.867 -1.78666 -0.418401 0
M  V30 2213 H 216.249 -2.72744 -2.871 0
M  V30 2214 H 217.423 -4.55828 -0.675099 0
M  V30 2215 H 215.738 -4.09292 -0.766097 0
M  V30 2216 H 218.335 -4.0021 -3.54593 0
M  V30 2217 H 218.678 -2.29103 -3.47588 0
M  V30 2218 H 219.211 -3.34901 -2.14677 0
M  V30 2219 H 215.95 -6.3192 -1.74233 0
M  V30 2220 H 215.47 -5.18106 -3.02201 0
M  V30 2221 H 217.149 -5.76834 -2.93038 0
M  V30 2222 N 217.281 0.66697 -1.42791 0
M  V30 2223 C 218.509 1.45505 -1.47091 0
M  V30 2224 C 218.924 1.8861 -0.0845873 0
M  V30 2225 O 218.281 1.58632 0.90234 0
M  V30 2226 C 218.332 2.69906 -2.40485 0
M  V30 2227 O 218.053 2.28608 -3.73725 0
M  V30 2228 C 219.554 3.63396 -2.53886 0
M  V30 2229 H 216.774 0.447459 -0.500022 0
M  V30 2230 H 219.318 0.818866 -1.8739 0
M  V30 2231 H 217.473 3.29696 -2.03419 0
M  V30 2232 H 217.887 3.08997 -4.23817 0
M  V30 2233 H 219.361 4.47387 -3.2334 0
M  V30 2234 H 219.838 4.09824 -1.57927 0
M  V30 2235 H 220.444 3.09495 -2.91706 0
M  V30 2236 N 218.759 1.29093 0.90403 0
M  V30 2237 C 220.007 1.16583 1.65085 0
M  V30 2238 C 220.328 -0.283933 1.92922 0
M  V30 2239 O 219.598 -1.19509 1.55224 0
M  V30 2240 H 218.178 0.428467 0.611903 0
M  V30 2241 H 220.84 1.61959 1.08422 0
M  V30 2242 H 219.936 1.71266 2.6091 0
M  V30 2243 N 220.237 -1.11381 1.11499 0
M  V30 2244 C 221.485 -1.8277 0.862524 0
M  V30 2245 C 221.806 -1.85097 -0.613534 0
M  V30 2246 O 221.076 -1.32198 -1.4457 0
M  V30 2247 H 219.656 -0.676823 0.316101 0
M  V30 2248 H 222.318 -1.34816 1.4075 0
M  V30 2249 H 221.414 -2.86614 1.23527 0
M  V30 2250 N 221.715 -0.905404 -1.28997 0
M  V30 2251 C 222.992 -0.453513 -1.9027 0
M  V30 2252 C 223.372 1.06721 -1.82137 0
M  V30 2253 O 222.72 1.91159 -1.25182 0
M  V30 2254 C 222.93 -0.974494 -3.35119 0
M  V30 2255 C 224.278 -1.0216 -4.12127 0
M  V30 2256 O 225.302 -0.922557 -3.44046 0
M  V30 2257 O 224.161 -1.17121 -5.33802 0
M  V30 2258 H 221.255 -0.142347 -0.814657 0
M  V30 2259 H 223.801 -0.995642 -1.37423 0
M  V30 2260 H 222.573 -2.01848 -3.35221 0
M  V30 2261 H 222.196 -0.412706 -3.95452 0
M  V30 2262 N 223.193 1.4272 -0.668489 0
M  V30 2263 C 224.442 2.00846 -0.185389 0
M  V30 2264 C 224.755 1.53442 1.21305 0
M  V30 2265 O 225.961 2.03944 1.79218 0
M  V30 2266 C 224.417 3.58805 -0.280591 0
M  V30 2267 C 224.025 4.15198 -1.68268 0
M  V30 2268 C 225.769 4.24255 0.14412 0
M  V30 2269 C 223.676 5.655 -1.73099 0
M  V30 2270 H 222.606 0.751145 -0.0655475 0
M  V30 2271 H 225.257 1.63516 -0.832752 0
M  V30 2272 H 223.639 3.93608 0.434553 0
M  V30 2273 H 224.813 3.91866 -2.42441 0
M  V30 2274 H 223.128 3.62176 -2.05469 0
M  V30 2275 H 225.725 5.34547 0.128086 0
M  V30 2276 H 226.068 3.99277 1.17827 0
M  V30 2277 H 226.601 3.94389 -0.519798 0
M  V30 2278 H 223.34 5.95268 -2.74475 0
M  V30 2279 H 222.86 5.90842 -1.03274 0
M  V30 2280 H 224.539 6.29808 -1.48158 0
M  V30 2281 N 224.671 0.411399 1.52136 0
M  V30 2282 C 225.901 -0.16284 2.05957 0
M  V30 2283 C 226.309 -1.3922 1.28119 0
M  V30 2284 O 225.652 -1.80768 0.326881 0
M  V30 2285 C 225.714 -0.575946 3.54856 0
M  V30 2286 C 225.378 0.542998 4.53763 0
M  V30 2287 C 226.375 1.40726 5.00492 0
M  V30 2288 C 224.06 0.716337 4.97166 0
M  V30 2289 C 226.054 2.4298 5.8927 0
M  V30 2290 C 223.741 1.74218 5.8574 0
M  V30 2291 C 224.739 2.59731 6.31687 0
M  V30 2292 O 224.427 3.60558 7.18507 0
M  V30 2293 H 224.159 -0.0229125 0.675612 0
M  V30 2294 H 226.713 0.581634 1.96993 0
M  V30 2295 H 224.943 -1.37274 3.61515 0
M  V30 2296 H 226.632 -1.07836 3.91313 0
M  V30 2297 H 227.398 1.28476 4.67674 0
M  V30 2298 H 223.277 0.0603857 4.6096 0
M  V30 2299 H 226.821 3.0976 6.25055 0
M  V30 2300 H 222.718 1.86498 6.17971 0
M  V30 2301 H 223.486 3.56829 7.36624 0
M  V30 2302 N 226.149 -1.5696 0.141893 0
M  V30 2303 C 227.397 -1.95573 -0.509484 0
M  V30 2304 C 227.718 -1.02746 -1.65736 0
M  V30 2305 O 226.988 -0.0880311 -1.95702 0
M  V30 2306 H 225.568 -0.722115 -0.191205 0
M  V30 2307 H 228.23 -1.93697 0.216196 0
M  V30 2308 H 227.326 -2.99171 -0.889 0
M  V30 2309 N 227.627 0.131896 -1.57047 0
M  V30 2310 C 228.876 0.84044 -1.83356 0
M  V30 2311 C 229.189 1.81646 -0.725535 0
M  V30 2312 O 230.395 2.57025 -0.874659 0
M  V30 2313 C 228.851 1.54528 -3.25037 0
M  V30 2314 C 228.459 0.610902 -4.43815 0
M  V30 2315 C 230.203 2.23972 -3.60606 0
M  V30 2316 C 228.11 1.31823 -5.76521 0
M  V30 2317 H 227.04 0.317599 -0.683847 0
M  V30 2318 H 229.691 0.0931561 -1.83263 0
M  V30 2319 H 228.073 2.33873 -3.19561 0
M  V30 2320 H 229.247 -0.148407 -4.60561 0
M  V30 2321 H 227.562 0.0241016 -4.16393 0
M  V30 2322 H 230.159 2.77558 -4.57018 0
M  V30 2323 H 230.502 3.01173 -2.87403 0
M  V30 2324 H 231.035 1.51529 -3.6781 0
M  V30 2325 H 227.774 0.587771 -6.52859 0
M  V30 2326 H 227.294 2.04987 -5.63685 0
M  V30 2327 H 228.973 1.855 -6.19838 0
M  V30 2328 N 229.106 1.52395 0.401703 0
M  V30 2329 C 230.352 1.67065 1.14966 0
M  V30 2330 C 230.685 0.403052 1.89971 0
M  V30 2331 O 229.96 -0.598774 1.85054 0
M  V30 2332 C 230.243 2.8975 2.13815 0
M  V30 2333 C 230.096 4.26578 1.42658 0
M  V30 2334 C 231.415 3.07965 3.14397 0
M  V30 2335 H 228.534 0.607968 0.416587 0
M  V30 2336 H 231.176 1.84965 0.434511 0
M  V30 2337 H 229.326 2.74619 2.74803 0
M  V30 2338 H 230.998 4.53451 0.847329 0
M  V30 2339 H 229.241 4.27639 0.72849 0
M  V30 2340 H 229.912 5.08483 2.14823 0
M  V30 2341 H 232.388 3.22043 2.63491 0
M  V30 2342 H 231.264 3.95308 3.80819 0
M  V30 2343 H 231.525 2.21611 3.82545 0
M  V30 2344 N 230.584 -0.659388 1.43143 0
M  V30 2345 C 231.809 -1.45221 1.48073 0
M  V30 2346 C 232.234 -1.87845 0.097995 0
M  V30 2347 O 231.592 -1.56985 -0.90694 0
M  V30 2348 C 231.64 -2.66748 2.42647 0
M  V30 2349 O 230.744 -3.65583 1.90848 0
M  V30 2350 H 230.085 -0.435669 0.501088 0
M  V30 2351 H 232.615 -0.807432 1.87994 0
M  V30 2352 H 232.625 -3.14637 2.59745 0
M  V30 2353 H 231.3 -2.35067 3.43098 0
M  V30 2354 H 229.877 -3.24693 1.83381 0
M  V30 2355 N 232.062 -1.29571 -0.897171 0
M  V30 2356 C 232.972 -1.16808 -2.03453 0
M  V30 2357 C 233.988 -0.0907471 -1.73763 0
M  V30 2358 O 235.164 -0.303312 -1.99103 0
M  V30 2359 C 232.229 -0.848264 -3.36163 0
M  V30 2360 C 231.29 -2.0097 -3.79354 0
M  V30 2361 C 230.523 -1.70505 -5.05731 0
M  V30 2362 O 230.746 -0.62718 -5.66941 0
M  V30 2363 O 229.68 -2.5538 -5.45036 0
M  V30 2364 H 233.506 -2.12325 -2.17144 0
M  V30 2365 H 231.091 -1.09047 -1.02123 0
M  V30 2366 H 232.973 -0.684581 -4.15802 0
M  V30 2367 H 231.648 0.0771071 -3.23608 0
M  V30 2368 H 230.555 -2.22863 -3.00471 0
M  V30 2369 H 231.888 -2.91636 -3.96496 0
M  V30 2370 N 233.54 1.10788 -1.12088 0
M  V30 2371 C 234.488 2.19111 -0.780587 0
M  V30 2372 C 235.482 1.67818 0.230961 0
M  V30 2373 O 236.688 1.79777 0.0895427 0
M  V30 2374 H 233.063 0.714477 -0.234578 0
M  V30 2375 H 235.034 2.45055 -1.70266 0
M  V30 2376 C 233.783 3.46818 -0.24747 0
M  V30 2377 H 233.106 3.86646 -1.01712 0
M  V30 2378 H 234.546 4.23973 -0.0476291 0
M  V30 2379 C 233.005 3.20968 1.02378 0
M  V30 2380 O 233.535 3.42298 2.10226 0
M  V30 2381 N 231.741 2.74658 0.949271 0
M  V30 2382 H 231.288 2.57501 0.0715173 0
M  V30 2383 H 231.246 2.57739 1.80049 0
M  V30 2384 N 235.018 0.912232 1.28515 0
M  V30 2385 C 236.243 0.559774 1.99703 0
M  V30 2386 C 236.668 -0.851393 1.67729 0
M  V30 2387 O 236.026 -1.56875 0.908834 0
M  V30 2388 C 236.074 0.773874 3.52198 0
M  V30 2389 O 235.178 -0.167842 4.12058 0
M  V30 2390 H 234.519 0.21723 0.627461 0
M  V30 2391 H 237.049 1.22725 1.63706 0
M  V30 2392 H 237.059 0.683386 4.02236 0
M  V30 2393 H 235.734 1.80261 3.74805 0
M  V30 2394 H 234.311 -0.0287509 3.72889 0
M  V30 2395 N 236.496 -1.42363 0.676048 0
M  V30 2396 C 237.426 -2.33497 0.0124832 0
M  V30 2397 C 238.407 -1.50748 -0.787981 0
M  V30 2398 O 239.592 -1.79346 -0.744884 0
M  V30 2399 C 236.722 -3.34377 -0.938582 0
M  V30 2400 C 235.676 -4.27289 -0.246622 0
M  V30 2401 C 235.002 -5.18386 -1.31071 0
M  V30 2402 C 236.302 -5.14916 0.875125 0
M  V30 2403 H 237.996 -2.89233 0.773593 0
M  V30 2404 H 235.542 -1.39073 0.37346 0
M  V30 2405 H 237.495 -3.97044 -1.41188 0
M  V30 2406 H 236.219 -2.76947 -1.73113 0
M  V30 2407 H 234.878 -3.66018 0.206456 0
M  V30 2408 H 234.526 -4.57282 -2.09528 0
M  V30 2409 H 234.226 -5.81378 -0.852839 0
M  V30 2410 H 235.75 -5.83929 -1.78492 0
M  V30 2411 H 237.164 -5.71262 0.482983 0
M  V30 2412 H 235.561 -5.86747 1.25887 0
M  V30 2413 H 236.631 -4.53242 1.72335 0
M  V30 2414 N 237.974 -0.419461 -1.51915 0
M  V30 2415 C 239.223 0.154346 -2.01109 0
M  V30 2416 C 239.536 1.45338 -1.30905 0
M  V30 2417 O 240.742 2.10906 -1.7097 0
M  V30 2418 C 239.198 0.325615 -3.58424 0
M  V30 2419 C 238.806 -0.961934 -4.37551 0
M  V30 2420 C 240.55 0.854155 -4.15818 0
M  V30 2421 C 238.457 -0.757287 -5.86531 0
M  V30 2422 H 237.387 0.0614563 -0.751491 0
M  V30 2423 H 240.038 -0.54649 -1.75173 0
M  V30 2424 H 238.42 1.08903 -3.80731 0
M  V30 2425 H 239.594 -1.7323 -4.26999 0
M  V30 2426 H 237.909 -1.41766 -3.91524 0
M  V30 2427 H 240.506 1.02346 -5.24814 0
M  V30 2428 H 240.849 1.83172 -3.73837 0
M  V30 2429 H 241.382 0.149528 -3.97519 0
M  V30 2430 H 238.121 -1.70671 -6.32892 0
M  V30 2431 H 237.641 -0.0264061 -5.99794 0
M  V30 2432 H 239.32 -0.403482 -6.45741 0
M  V30 2433 N 239.452 1.56882 -0.150215 0
M  V30 2434 C 240.399 2.16922 0.788244 0
M  V30 2435 C 241.369 1.10303 1.24187 0
M  V30 2436 O 242.554 1.38359 1.31383 0
M  V30 2437 C 239.694 2.79754 2.02068 0
M  V30 2438 C 238.807 4.00775 1.61257 0
M  V30 2439 C 237.942 4.51595 2.79705 0
M  V30 2440 C 236.981 5.65074 2.35282 0
M  V30 2441 N 236.118 6.10499 3.4675 0
M  V30 2442 H 240.958 2.96779 0.269444 0
M  V30 2443 H 238.495 1.46599 0.12128 0
M  V30 2444 H 240.453 3.14329 2.74323 0
M  V30 2445 H 239.083 2.02536 2.51354 0
M  V30 2446 H 238.135 3.72158 0.787553 0
M  V30 2447 H 239.447 4.82978 1.24633 0
M  V30 2448 H 238.601 4.88242 3.60145 0
M  V30 2449 H 237.34 3.68406 3.19576 0
M  V30 2450 H 236.345 5.28 1.53283 0
M  V30 2451 H 237.57 6.50052 1.96493 0
M  V30 2452 H 235.516 5.30243 3.86236 0
M  V30 2453 H 235.433 6.87637 3.14152 0
M  V30 2454 H 236.701 6.51791 4.27537 0
M  V30 2455 N 240.93 -0.123565 1.57115 0
M  V30 2456 C 241.88 -1.1575 1.96433 0
M  V30 2457 C 242.864 -1.37313 0.838686 0
M  V30 2458 O 244.056 -1.38482 1.10235 0
M  V30 2459 C 241.185 -2.48526 2.36833 0
M  V30 2460 C 240.271 -2.30457 3.5602 0
M  V30 2461 N 240.662 -1.8219 4.71848 0
M  V30 2462 C 238.96 -2.61129 3.61563 0
M  V30 2463 C 239.661 -1.77721 5.53886 0
M  V30 2464 N 238.637 -2.21899 4.96248 0
M  V30 2465 H 242.439 -0.776797 2.83449 0
M  V30 2466 H 239.953 -0.331364 1.58983 0
M  V30 2467 H 241.95 -3.233 2.63216 0
M  V30 2468 H 240.61 -2.87358 1.5118 0
M  V30 2469 H 241.621 -1.51805 4.95152 0
M  V30 2470 H 238.298 -3.03678 2.86507 0
M  V30 2471 H 239.688 -1.41697 6.56789 0
M  V30 2472 N 242.408 -1.52605 -0.393616 0
M  V30 2473 C 243.355 -1.77055 -1.48054 0
M  V30 2474 C 244.325 -0.61358 -1.54352 0
M  V30 2475 O 245.51 -0.852806 -1.70681 0
M  V30 2476 C 242.65 -1.94108 -2.85335 0
M  V30 2477 C 241.763 -3.21792 -2.88226 0
M  V30 2478 C 240.898 -3.29188 -4.16904 0
M  V30 2479 C 239.937 -4.51013 -4.13828 0
M  V30 2480 N 239.074 -4.55716 -5.34105 0
M  V30 2481 H 243.914 -2.69815 -1.26506 0
M  V30 2482 H 241.451 -1.33683 -0.61379 0
M  V30 2483 H 243.409 -2.01979 -3.65049 0
M  V30 2484 H 242.039 -1.04713 -3.05344 0
M  V30 2485 H 241.091 -3.23015 -2.00911 0
M  V30 2486 H 242.403 -4.11557 -2.8182 0
M  V30 2487 H 241.557 -3.36216 -5.05018 0
M  V30 2488 H 240.296 -2.37389 -4.26026 0
M  V30 2489 H 239.301 -4.44115 -3.24102 0
M  V30 2490 H 240.526 -5.44123 -4.06333 0
M  V30 2491 H 238.472 -3.66807 -5.43865 0
M  V30 2492 H 238.389 -5.39346 -5.29756 0
M  V30 2493 H 239.657 -4.66993 -6.2413 0
M  V30 2494 N 243.887 0.651787 -1.4349 0
M  V30 2495 C 245.136 1.40754 -1.44469 0
M  V30 2496 C 245.449 1.95463 -0.0731845 0
M  V30 2497 O 246.655 2.71471 0.0395721 0
M  V30 2498 C 245.111 2.54735 -2.5424 0
M  V30 2499 C 244.719 2.06628 -3.97504 0
M  V30 2500 C 246.463 3.32092 -2.64414 0
M  V30 2501 C 244.37 3.17829 -4.98737 0
M  V30 2502 H 243.3 0.528862 -0.53742 0
M  V30 2503 H 245.951 0.703365 -1.69485 0
M  V30 2504 H 244.333 3.2763 -2.22428 0
M  V30 2505 H 245.507 1.40734 -4.38783 0
M  V30 2506 H 243.822 1.42146 -3.91387 0
M  V30 2507 H 246.419 4.14952 -3.37223 0
M  V30 2508 H 246.762 3.80217 -1.69532 0
M  V30 2509 H 247.295 2.66279 -2.95534 0
M  V30 2510 H 244.034 2.74671 -5.95177 0
M  V30 2511 H 243.554 3.82429 -4.62069 0
M  V30 2512 H 245.233 3.82937 -5.21505 0
M  V30 2513 N 245.365 1.30045 0.890287 0
M  V30 2514 C 246.298 1.10301 1.99772 0
M  V30 2515 C 247.276 0.0121631 1.62595 0
M  V30 2516 O 248.46 0.16469 1.87779 0
M  V30 2517 C 245.587 0.681125 3.31781 0
M  V30 2518 C 244.633 1.77206 3.87944 0
M  V30 2519 S 245.466 3.37335 4.15891 0
M  V30 2520 C 246.622 2.97036 5.50927 0
M  V30 2521 H 246.855 2.04057 2.16213 0
M  V30 2522 H 244.388 1.14299 1.03804 0
M  V30 2523 H 246.346 0.444439 4.08087 0
M  V30 2524 H 245.007 -0.236981 3.13205 0
M  V30 2525 H 244.2 1.42903 4.83316 0
M  V30 2526 H 243.802 1.96275 3.18358 0
M  V30 2527 H 246.094 2.44666 6.31779 0
M  V30 2528 H 247.037 3.91296 5.90164 0
M  V30 2529 H 247.445 2.35057 5.13233 0
M  V30 2530 N 246.843 -1.10192 1.12674 0
M  V30 2531 C 247.773 -2.18652 0.819362 0
M  V30 2532 C 248.754 -1.68698 -0.217915 0
M  V30 2533 O 249.939 -1.94041 -0.0785581 0
M  V30 2534 C 247.069 -3.46202 0.27594 0
M  V30 2535 C 246.023 -4.09444 1.24656 0
M  V30 2536 C 245.349 -5.31725 0.563258 0
M  V30 2537 C 246.649 -4.52863 2.60217 0
M  V30 2538 H 248.343 -2.44622 1.72628 0
M  V30 2539 H 245.889 -1.17571 0.831451 0
M  V30 2540 H 247.842 -4.21372 0.0486149 0
M  V30 2541 H 246.566 -3.1973 -0.666331 0
M  V30 2542 H 245.225 -3.36284 1.45974 0
M  V30 2543 H 244.873 -5.0153 -0.384235 0
M  V30 2544 H 244.573 -5.74991 1.21075 0
M  V30 2545 H 246.097 -6.09624 0.34503 0
M  V30 2546 H 247.511 -5.19294 2.42913 0
M  V30 2547 H 245.908 -5.06986 3.21068 0
M  V30 2548 H 246.978 -3.65656 3.18471 0
M  V30 2549 N 248.321 -0.919034 -1.28029 0
M  V30 2550 C 249.732 -0.600735 -1.76771 0
M  V30 2551 C 250.083 0.884024 -1.75156 0
M  V30 2552 O 249.208 1.69163 -1.34956 0
M  V30 2553 C 249.803 -1.08372 -3.21 0
M  V30 2554 C 248.362 -0.816248 -3.67443 0
M  V30 2555 C 247.509 -1.24742 -2.47658 0
M  V30 2556 H 250.46 -1.09974 -1.14418 0
M  V30 2557 H 250.481 -0.427512 -3.78091 0
M  V30 2558 H 249.993 -2.16437 -3.22144 0
M  V30 2559 H 248.094 0.250968 -3.71754 0
M  V30 2560 H 248.207 -1.4277 -4.57333 0
M  V30 2561 H 246.571 -0.666083 -2.45836 0
M  V30 2562 H 247.354 -2.33653 -2.51518 0
M  V30 2563 N 249.799 1.42003 -0.683588 0
M  V30 2564 C 251.21 1.84501 -0.285736 0
M  V30 2565 C 251.561 1.57213 1.17382 0
M  V30 2566 O 250.686 1.03642 1.89966 0
M  V30 2567 C 251.281 3.34912 -0.511821 0
M  V30 2568 C 249.84 3.76025 -0.168005 0
M  V30 2569 C 248.987 2.6551 -0.799983 0
M  V30 2570 H 251.938 1.31724 -0.885119 0
M  V30 2571 H 251.959 3.79784 0.233292 0
M  V30 2572 H 251.471 3.54741 -1.57418 0
M  V30 2573 H 249.572 3.61801 0.890567 0
M  V30 2574 H 249.685 4.75141 -0.614661 0
M  V30 2575 H 248.049 2.53654 -0.230568 0
M  V30 2576 H 248.832 2.8816 -1.86597 0
M  V30 2577 N 251.277 0.427512 1.51691 0
M  V30 2578 C 252.693 0.0792977 1.59403 0
M  V30 2579 C 252.893 -1.41035 1.43914 0
M  V30 2580 O 251.949 -2.17922 1.27539 0
M  V30 2581 C 253.262 0.590636 2.94842 0
M  V30 2582 C 254.81 0.550215 3.08126 0
M  V30 2583 C 255.285 1.03836 4.46074 0
M  V30 2584 N 256.776 0.995943 4.52366 0
M  V30 2585 C 257.511 1.34463 5.57411 0
M  V30 2586 N 257.007 1.76569 6.69922 0
M  V30 2587 N 258.8 1.26343 5.47717 0
M  V30 2588 H 250.951 1.39687 1.60004 0
M  V30 2589 H 253.214 0.575003 0.753708 0
M  V30 2590 H 252.92 1.63251 3.11516 0
M  V30 2591 H 252.794 0.0102061 3.77199 0
M  V30 2592 H 255.181 -0.482654 2.91126 0
M  V30 2593 H 255.262 1.16693 2.27632 0
M  V30 2594 H 254.906 2.06965 4.63819 0
M  V30 2595 H 254.836 0.398286 5.25092 0
M  V30 2596 H 257.327 0.68661 3.7161 0
M  V30 2597 H 257.64 2.01438 7.46085 0
M  V30 2598 H 255.985 1.80488 6.71155 0
M  V30 2599 H 259.176 0.933209 4.58703 0
M  V30 2600 H 259.349 1.53846 6.29472 0
M  V30 2601 N 252.755 -1.56801 0.158532 0
M  V30 2602 C 253.703 -2.18638 -0.793729 0
M  V30 2603 C 254.697 -1.14669 -1.24689 0
M  V30 2604 O 255.903 -1.32895 -1.21403 0
M  V30 2605 H 252.278 -0.700226 -0.274204 0
M  V30 2606 H 254.249 -2.97367 -0.248095 0
M  V30 2607 C 252.998 -2.83139 -2.0181 0
M  V30 2608 H 252.321 -3.62863 -1.67841 0
M  V30 2609 H 253.761 -3.29894 -2.66357 0
M  V30 2610 C 252.22 -1.82244 -2.83353 0
M  V30 2611 O 252.75 -1.3 -3.80083 0
M  V30 2612 N 250.956 -1.51288 -2.48114 0
M  V30 2613 H 250.503 -1.93964 -1.69516 0
M  V30 2614 H 250.461 -0.840296 -3.02963 0
M  V30 2615 N 254.233 0.115231 -1.57178 0
M  V30 2616 C 255.649 0.468877 -1.52557 0
M  V30 2617 C 255.849 1.81649 -0.872125 0
M  V30 2618 O 254.905 2.48347 -0.45606 0
M  V30 2619 C 256.218 0.4499 -2.97315 0
M  V30 2620 C 257.766 0.533185 -3.08425 0
M  V30 2621 C 258.241 0.54456 -4.54751 0
M  V30 2622 N 259.732 0.605892 -4.5922 0
M  V30 2623 C 260.467 0.636203 -5.6986 0
M  V30 2624 N 259.963 0.623931 -6.89985 0
M  V30 2625 N 261.756 0.679496 -5.57978 0
M  V30 2626 H 253.907 -0.767712 -1.9804 0
M  V30 2627 H 256.17 -0.283609 -0.904583 0
M  V30 2628 H 255.876 -0.472721 -3.48509 0
M  V30 2629 H 255.75 1.27632 -3.5495 0
M  V30 2630 H 258.137 1.44623 -2.57232 0
M  V30 2631 H 258.218 -0.320995 -2.53778 0
M  V30 2632 H 257.862 -0.364452 -5.06591 0
M  V30 2633 H 257.792 1.41568 -5.07214 0
M  V30 2634 H 260.283 0.621386 -3.72756 0
M  V30 2635 H 260.596 0.649787 -7.70063 0
M  V30 2636 H 258.941 0.591296 -6.9248 0
M  V30 2637 H 262.132 0.686472 -4.63039 0
M  V30 2638 H 262.305 0.69965 -6.44212 0
M  V30 2639 N 255.711 1.52812 0.385517 0
M  V30 2640 C 256.959 1.67694 1.12797 0
M  V30 2641 C 257.28 0.421115 1.90399 0
M  V30 2642 O 256.55 -0.564551 1.87589 0
M  V30 2643 H 255.13 0.618155 0.419396 0
M  V30 2644 H 257.792 1.89938 0.436972 0
M  V30 2645 H 256.888 2.52896 1.82894 0
M  V30 2646 N 257.189 -0.644168 1.43834 0
M  V30 2647 C 258.417 -1.43147 1.49387 0
M  V30 2648 C 258.832 -1.88452 0.114583 0
M  V30 2649 O 258.189 -1.60047 -0.876989 0
M  V30 2650 C 258.24 -2.66046 2.44748 0
M  V30 2651 O 257.961 -2.22633 3.77314 0
M  V30 2652 C 259.462 -3.59311 2.59635 0
M  V30 2653 H 256.682 -0.439447 0.507077 0
M  V30 2654 H 259.226 -0.78895 1.88669 0
M  V30 2655 H 257.381 -3.26418 2.08638 0
M  V30 2656 H 257.795 -3.02216 4.28679 0
M  V30 2657 H 259.269 -4.42187 3.30416 0
M  V30 2658 H 259.746 -4.07259 1.64427 0
M  V30 2659 H 260.352 -3.04816 2.96593 0
M  V30 2660 N 258.668 -1.30515 -0.883378 0
M  V30 2661 C 259.914 -1.19607 -1.63774 0
M  V30 2662 C 260.247 0.248314 -1.92606 0
M  V30 2663 O 259.522 1.17742 -1.54813 0
M  V30 2664 C 259.805 -2.02669 -2.97653 0
M  V30 2665 C 259.658 -3.55335 -2.75784 0
M  V30 2666 C 260.977 -1.86573 -3.98596 0
M  V30 2667 H 258.096 -0.435856 -0.594305 0
M  V30 2668 H 260.738 -1.60165 -1.02212 0
M  V30 2669 H 258.888 -1.68208 -3.50197 0
M  V30 2670 H 260.56 -3.99863 -2.30016 0
M  V30 2671 H 258.803 -3.79438 -2.1026 0
M  V30 2672 H 259.474 -4.08745 -3.70988 0
M  V30 2673 H 261.95 -2.16703 -3.55217 0
M  V30 2674 H 260.826 -2.47014 -4.90179 0
M  V30 2675 H 261.087 -0.825321 -4.34328 0
M  V30 2676 N 260.146 1.09593 -1.13257 0
M  V30 2677 C 261.374 1.855 -0.916378 0
M  V30 2678 C 261.789 1.81069 0.534738 0
M  V30 2679 O 261.146 1.20562 1.37007 0
M  V30 2680 C 261.197 3.33546 -1.39388 0
M  V30 2681 O 260.918 3.37927 -2.78813 0
M  V30 2682 C 262.419 4.26299 -1.21588 0
M  V30 2683 H 259.639 0.585991 -0.326887 0
M  V30 2684 H 262.183 1.38488 -1.5047 0
M  V30 2685 H 260.338 3.77992 -0.848597 0
M  V30 2686 H 260.752 4.30254 -2.9997 0
M  V30 2687 H 262.226 5.28341 -1.59876 0
M  V30 2688 H 262.703 4.38918 -0.157376 0
M  V30 2689 H 263.309 3.87668 -1.7491 0
M  V30 2690 N 261.624 0.925811 1.2754 0
M  V30 2691 C 262.854 0.580666 1.98272 0
M  V30 2692 C 263.262 -0.845207 1.69272 0
M  V30 2693 O 262.605 -1.57306 0.948707 0
M  V30 2694 C 262.667 0.724418 3.52126 0
M  V30 2695 C 262.331 2.12206 4.04744 0
M  V30 2696 C 263.328 3.09604 4.17662 0
M  V30 2697 C 261.013 2.4385 4.39138 0
M  V30 2698 C 263.007 4.36755 4.64246 0
M  V30 2699 C 260.694 3.71237 4.85414 0
M  V30 2700 C 261.692 4.67503 4.97926 0
M  V30 2701 O 261.38 5.92624 5.43187 0
M  V30 2702 H 261.112 0.218987 0.639547 0
M  V30 2703 H 263.666 1.24452 1.63404 0
M  V30 2704 H 261.896 0.0034663 3.867 0
M  V30 2705 H 263.585 0.384607 4.04074 0
M  V30 2706 H 264.351 2.86478 3.91351 0
M  V30 2707 H 260.23 1.69665 4.28643 0
M  V30 2708 H 263.774 5.11898 4.73927 0
M  V30 2709 H 259.671 3.94182 5.11166 0
M  V30 2710 H 260.439 5.95585 5.61445 0
M  V30 2711 N 263.102 -1.41638 0.69111 0
M  V30 2712 C 264.351 -2.00526 0.217318 0
M  V30 2713 C 264.664 -1.55353 -1.18848 0
M  V30 2714 O 265.87 -2.06769 -1.75951 0
M  V30 2715 C 264.326 -3.58313 0.337639 0
M  V30 2716 C 263.934 -4.12469 1.74852 0
M  V30 2717 C 265.678 -4.24431 -0.0766066 0
M  V30 2718 C 263.585 -5.62675 1.82074 0
M  V30 2719 H 262.515 -0.750008 0.0774893 0
M  V30 2720 H 265.166 -1.6217 0.858661 0
M  V30 2721 H 263.548 -3.9425 -0.371879 0
M  V30 2722 H 264.722 -3.8796 2.48644 0
M  V30 2723 H 263.037 -3.58861 2.11205 0
M  V30 2724 H 265.634 -5.34683 -0.0430284 0
M  V30 2725 H 265.977 -4.01101 -1.1146 0
M  V30 2726 H 266.51 -3.93512 0.582476 0
M  V30 2727 H 263.249 -5.90826 2.83911 0
M  V30 2728 H 262.769 -5.89124 1.12661 0
M  V30 2729 H 264.448 -6.27371 1.58159 0
M  V30 2730 N 264.58 -0.43555 -1.51462 0
M  V30 2731 C 265.543 0.365137 -2.26273 0
M  V30 2732 C 266.543 0.951227 -1.29647 0
M  V30 2733 O 267.733 0.825958 -1.53374 0
M  V30 2734 C 264.865 1.51645 -3.05314 0
M  V30 2735 H 266.058 -0.290474 -2.9849 0
M  V30 2736 H 263.611 -0.188676 -1.55157 0
M  V30 2737 H 264.346 2.20816 -2.3751 0
M  V30 2738 H 264.131 1.10238 -3.76284 0
M  V30 2739 H 265.621 2.08218 -3.61987 0
M  V30 2740 N 266.058 1.56714 -0.166846 0
M  V30 2741 C 267.469 1.83378 0.350646 0
M  V30 2742 C 267.82 1.08646 1.63372 0
M  V30 2743 O 266.945 0.338058 2.13743 0
M  V30 2744 C 267.54 3.32643 0.642963 0
M  V30 2745 C 266.099 3.59818 1.10491 0
M  V30 2746 C 265.246 2.76954 0.138411 0
M  V30 2747 H 268.197 1.53803 -0.391193 0
M  V30 2748 H 268.218 3.49878 1.49551 0
M  V30 2749 H 267.73 3.87007 -0.291055 0
M  V30 2750 H 265.831 3.1086 2.05418 0
M  V30 2751 H 265.944 4.68178 1.01716 0
M  V30 2752 H 264.308 2.4666 0.634911 0
M  V30 2753 H 265.091 3.34097 -0.789549 0
M  V30 2754 N 267.536 -0.106894 1.57237 0
M  V30 2755 C 268.947 -0.662723 1.74542 0
M  V30 2756 C 269.298 -1.7971 0.787319 0
M  V30 2757 O 268.423 -2.16368 -0.0369636 0
M  V30 2758 C 269.018 -1.20896 3.16496 0
M  V30 2759 C 267.577 -1.71096 3.35266 0
M  V30 2760 C 266.724 -0.615642 2.7038 0
M  V30 2761 H 269.675 0.119106 1.58252 0
M  V30 2762 H 269.696 -2.07847 3.18716 0
M  V30 2763 H 269.208 -0.383122 3.86204 0
M  V30 2764 H 267.309 -2.56119 2.70618 0
M  V30 2765 H 267.422 -1.81208 4.43509 0
M  V30 2766 H 265.786 -1.05222 2.31949 0
M  V30 2767 H 266.569 0.199419 3.4272 0
M  V30 2768 N 269.014 -1.53014 -0.377408 0
M  V30 2769 C 270.262 -1.6829 -1.11906 0
M  V30 2770 C 270.583 -0.431206 -1.90173 0
M  V30 2771 O 269.853 0.554595 -1.87886 0
M  V30 2772 H 268.433 -0.620371 -0.416112 0
M  V30 2773 H 271.095 -1.90167 -0.426893 0
M  V30 2774 H 270.191 -2.53862 -1.8155 0
M  V30 2775 N 270.492 0.636531 -1.44174 0
M  V30 2776 C 271.44 1.76995 -1.50915 0
M  V30 2777 C 272.434 1.65053 -0.381295 0
M  V30 2778 O 273.64 1.71197 -0.55601 0
M  V30 2779 H 270.015 0.584247 -0.473455 0
M  V30 2780 H 271.986 1.68432 -2.4632 0
M  V30 2781 C 270.735 3.15314 -1.46534 0
M  V30 2782 H 270.058 3.25149 -2.32633 0
M  V30 2783 H 271.498 3.9453 -1.55312 0
M  V30 2784 C 269.957 3.3639 -0.185305 0
M  V30 2785 O 270.487 3.94699 0.746688 0
M  V30 2786 N 268.693 2.9046 -0.0901606 0
M  V30 2787 H 268.24 2.43193 -0.849416 0
M  V30 2788 H 268.198 3.04937 0.765553 0
M  V30 2789 N 271.97 1.30982 0.876444 0
M  V30 2790 C 273.2 1.23063 1.65949 0
M  V30 2791 C 273.608 -0.207537 1.88058 0
M  V30 2792 O 272.951 -1.14781 1.43426 0
M  V30 2793 C 273.013 1.89768 3.05333 0
M  V30 2794 C 272.677 3.39106 3.0636 0
M  V30 2795 C 273.674 4.3496 2.84791 0
M  V30 2796 C 271.359 3.80693 3.27686 0
M  V30 2797 C 273.353 5.70375 2.84519 0
M  V30 2798 C 271.04 5.16223 3.27043 0
M  V30 2799 C 272.038 6.10875 3.05485 0
M  V30 2800 O 271.726 7.43928 3.04674 0
M  V30 2801 H 271.458 0.426685 0.524324 0
M  V30 2802 H 274.012 1.7329 1.10271 0
M  V30 2803 H 272.242 1.34082 3.6271 0
M  V30 2804 H 273.931 1.75853 3.65829 0
M  V30 2805 H 274.697 4.0416 2.68103 0
M  V30 2806 H 270.576 3.07457 3.43499 0
M  V30 2807 H 274.12 6.44228 2.67611 0
M  V30 2808 H 270.017 5.4666 3.43269 0
M  V30 2809 H 270.785 7.53022 3.2078 0
M  V30 2810 N 273.449 -1.08991 1.13837 0
M  V30 2811 C 274.726 -1.77863 0.813876 0
M  V30 2812 C 275.106 -1.99375 -0.693746 0
M  V30 2813 O 274.454 -1.59875 -1.63255 0
M  V30 2814 C 274.664 -3.0986 1.60586 0
M  V30 2815 C 276.012 -3.84493 1.8014 0
M  V30 2816 O 277.036 -3.19624 1.57222 0
M  V30 2817 O 275.895 -5.00957 2.18413 0
M  V30 2818 H 272.989 -0.771589 0.297624 0
M  V30 2819 H 275.535 -1.15507 1.24323 0
M  V30 2820 H 274.307 -2.89715 2.63022 0
M  V30 2821 H 273.93 -3.79942 1.17173 0
M  V30 2822 N 274.927 -0.932562 -1.27047 0
M  V30 2823 C 276.155 -0.592031 -1.98249 0
M  V30 2824 C 276.57 0.831062 -1.69525 0
M  V30 2825 O 275.927 1.55299 -0.958561 0
M  V30 2826 C 275.978 -0.814279 -3.5221 0
M  V30 2827 O 275.699 -2.18139 -3.7993 0
M  V30 2828 C 277.2 -0.483121 -4.4066 0
M  V30 2829 H 274.42 -0.223896 -0.632544 0
M  V30 2830 H 276.964 -1.25091 -1.61779 0
M  V30 2831 H 275.119 -0.20213 -3.86872 0
M  V30 2832 H 275.533 -2.235 -4.74498 0
M  V30 2833 H 277.007 -0.689298 -5.47679 0
M  V30 2834 H 277.484 0.581546 -4.35333 0
M  V30 2835 H 278.09 -1.07362 -4.11526 0
M  V30 2836 N 276.405 1.4127 -0.698611 0
M  V30 2837 C 277.63 2.06024 -0.238512 0
M  V30 2838 C 278.055 1.5224 1.10475 0
M  V30 2839 O 277.413 0.650623 1.69223 0
M  V30 2840 C 277.461 3.59988 -0.209952 0
M  V30 2841 O 276.565 4.04282 0.814235 0
M  V30 2842 H 275.906 0.653829 -0.115775 0
M  V30 2843 H 278.436 1.8098 -0.954326 0
M  V30 2844 H 278.446 4.07979 -0.0418436 0
M  V30 2845 H 277.121 3.98503 -1.1903 0
M  V30 2846 H 275.698 3.6779 0.615234 0
M  V30 2847 N 277.883 0.443576 1.51229 0
M  V30 2848 C 279.16 -0.181038 1.9476 0
M  V30 2849 C 279.54 -1.59523 1.38259 0
M  V30 2850 O 278.888 -2.2122 0.572198 0
M  V30 2851 C 279.098 -0.152422 3.48667 0
M  V30 2852 C 280.446 -0.354923 4.23114 0
M  V30 2853 O 281.47 -0.230257 3.55455 0
M  V30 2854 O 280.329 -0.603674 5.43156 0
M  V30 2855 H 277.423 -0.1266 0.817252 0
M  V30 2856 H 279.969 0.502004 1.62105 0
M  V30 2857 H 278.741 0.836022 3.82265 0
M  V30 2858 H 278.364 -0.878107 3.87782 0
M  V30 2859 N 279.361 -1.56624 0.175154 0
M  V30 2860 C 280.607 -1.9729 -0.469506 0
M  V30 2861 C 280.94 -1.06128 -1.62636 0
M  V30 2862 O 280.215 -0.109183 -1.94193 0
M  V30 2863 C 280.498 -3.47375 -0.948804 0
M  V30 2864 C 280.351 -4.49317 0.208491 0
M  V30 2865 C 281.67 -4.00652 -1.82116 0
M  V30 2866 H 278.789 -0.717317 -0.16919 0
M  V30 2867 H 281.431 -1.88184 0.262062 0
M  V30 2868 H 279.581 -3.55267 -1.57219 0
M  V30 2869 H 281.253 -4.53482 0.845682 0
M  V30 2870 H 279.496 -4.25121 0.863395 0
M  V30 2871 H 280.167 -5.51741 -0.169059 0
M  V30 2872 H 282.643 -3.95416 -1.2956 0
M  V30 2873 H 281.519 -5.06075 -2.12554 0
M  V30 2874 H 281.78 -3.44699 -2.7683 0
M  V30 2875 N 280.839 0.0985539 -1.57292 0
M  V30 2876 C 282.085 0.803867 -1.86188 0
M  V30 2877 C 282.418 1.78549 -0.763794 0
M  V30 2878 O 281.693 1.93153 0.22855 0
M  V30 2879 C 281.976 1.53568 -3.25713 0
M  V30 2880 C 281.829 0.572277 -4.46145 0
M  V30 2881 C 283.148 2.48708 -3.63087 0
M  V30 2882 H 280.267 0.290781 -0.677211 0
M  V30 2883 H 282.909 0.0675783 -1.8988 0
M  V30 2884 H 281.059 2.16332 -3.22696 0
M  V30 2885 H 282.731 -0.0480894 -4.61275 0
M  V30 2886 H 280.974 -0.114618 -4.33649 0
M  V30 2887 H 281.645 1.12139 -5.40489 0
M  V30 2888 H 284.121 1.96039 -3.67026 0
M  V30 2889 H 282.997 2.96932 -4.61652 0
M  V30 2890 H 283.258 3.32309 -2.91588 0
M  V30 2891 N 282.317 1.53212 0.369288 0
M  V30 2892 C 283.247 1.82365 1.45826 0
M  V30 2893 C 284.228 0.676907 1.56051 0
M  V30 2894 O 285.413 0.926401 1.70679 0
M  V30 2895 C 282.543 2.01023 2.83208 0
M  V30 2896 C 281.497 3.1678 2.8781 0
M  V30 2897 C 280.823 3.20724 4.27832 0
M  V30 2898 C 282.123 4.55447 2.55667 0
M  V30 2899 H 283.817 2.73559 1.21678 0
M  V30 2900 H 281.363 1.3163 0.583911 0
M  V30 2901 H 283.316 2.20001 3.59413 0
M  V30 2902 H 282.04 1.06536 3.08736 0
M  V30 2903 H 280.699 2.97616 2.14056 0
M  V30 2904 H 280.347 2.23882 4.50429 0
M  V30 2905 H 280.047 3.98496 4.31827 0
M  V30 2906 H 281.571 3.41881 5.05915 0
M  V30 2907 H 282.985 4.74611 3.21586 0
M  V30 2908 H 281.382 5.35432 2.70984 0
M  V30 2909 H 282.452 4.60812 1.5093 0
M  V30 2910 N 283.795 -0.628877 1.44509 0
M  V30 2911 C 284.705 -1.7694 1.54044 0
M  V30 2912 C 285.721 -1.68705 0.425987 0
M  V30 2913 O 286.897 -1.89442 0.683656 0
M  V30 2914 C 283.962 -3.13332 1.48405 0
M  V30 2915 C 283.023 -3.33181 2.70719 0
M  V30 2916 C 282.256 -4.63067 2.6534 0
M  V30 2917 O 282.479 -5.44017 1.71469 0
M  V30 2918 O 281.413 -4.85167 3.56226 0
M  V30 2919 H 285.239 -1.71848 2.50403 0
M  V30 2920 H 282.824 -0.790378 1.26781 0
M  V30 2921 H 284.706 -3.94634 1.47791 0
M  V30 2922 H 283.381 -3.1896 0.551898 0
M  V30 2923 H 282.288 -2.51549 2.769 0
M  V30 2924 H 283.621 -3.32416 3.62988 0
M  V30 2925 N 285.273 -1.31445 -0.869486 0
M  V30 2926 C 286.203 -1.21727 -1.99261 0
M  V30 2927 C 287.184 -0.104359 -1.6978 0
M  V30 2928 O 288.369 -0.289038 -1.92037 0
M  V30 2929 C 285.499 -0.924317 -3.34774 0
M  V30 2930 C 284.453 -1.99685 -3.78563 0
M  V30 2931 C 283.779 -1.55658 -5.11541 0
M  V30 2932 C 285.079 -3.41003 -3.95619 0
M  V30 2933 H 286.773 -2.1569 -2.07649 0
M  V30 2934 H 284.319 -1.03839 -0.997675 0
M  V30 2935 H 286.272 -0.842934 -4.12883 0
M  V30 2936 H 284.996 0.0509793 -3.2656 0
M  V30 2937 H 283.655 -2.06813 -3.02694 0
M  V30 2938 H 283.303 -0.569132 -4.9977 0
M  V30 2939 H 283.003 -2.27409 -5.41811 0
M  V30 2940 H 284.527 -1.48928 -5.92159 0
M  V30 2941 H 285.941 -3.36547 -4.64122 0
M  V30 2942 H 284.338 -4.10975 -4.37286 0
M  V30 2943 H 285.408 -3.81754 -2.98985 0
M  V30 2944 N 286.751 1.08385 -1.14413 0
M  V30 2945 C 287.661 2.18856 -0.844951 0
M  V30 2946 C 288.677 1.73121 0.174668 0
M  V30 2947 O 289.853 2.014 0.00312857 0
M  V30 2948 C 286.918 3.45155 -0.32696 0
M  V30 2949 C 285.979 4.05513 -1.40916 0
M  V30 2950 C 285.212 5.25784 -0.915793 0
M  V30 2951 O 285.435 5.69884 0.242651 0
M  V30 2952 O 284.369 5.77545 -1.69487 0
M  V30 2953 H 288.195 2.46919 -1.76818 0
M  V30 2954 H 285.78 1.17524 -0.922411 0
M  V30 2955 H 287.662 4.21377 -0.0440211 0
M  V30 2956 H 286.337 3.18668 0.568539 0
M  V30 2957 H 285.244 3.30879 -1.74556 0
M  V30 2958 H 286.577 4.3625 -2.27919 0
M  V30 2959 N 288.23 0.939286 1.26551 0
M  V30 2960 C 289.477 0.585847 1.9384 0
M  V30 2961 C 289.805 -0.874784 1.73718 0
M  V30 2962 O 289.06 -1.64092 1.06642 0
M  V30 2963 C 289.359 0.872106 3.46596 0
M  V30 2964 C 289.025 2.31632 3.86856 0
M  V30 2965 C 287.687 2.71111 3.97558 0
M  V30 2966 C 290.039 3.25494 4.07066 0
M  V30 2967 C 287.367 4.03553 4.25866 0
M  V30 2968 C 289.719 4.57531 4.36862 0
M  V30 2969 C 288.383 4.96828 4.45778 0
M  V30 2970 H 287.653 0.214377 0.709312 0
M  V30 2971 H 290.3 1.18544 1.50398 0
M  V30 2972 H 288.605 0.18996 3.91339 0
M  V30 2973 H 290.302 0.577442 3.96821 0
M  V30 2974 H 286.892 2.00008 3.79071 0
M  V30 2975 H 291.076 2.9619 3.98227 0
M  V30 2976 H 286.332 4.33665 4.30981 0
M  V30 2977 H 290.506 5.30254 4.51446 0
M  V30 2978 H 288.133 5.99482 4.67468 0
M  V30 2979 N 289.708 -1.40897 0.706093 0
M  V30 2980 C 290.618 -2.3455 0.0482286 0
M  V30 2981 C 291.634 -1.56796 -0.754396 0
M  V30 2982 O 292.81 -1.89228 -0.689538 0
M  V30 2983 C 289.875 -3.35625 -0.869303 0
M  V30 2984 C 288.936 -4.29261 -0.0576994 0
M  V30 2985 C 288.169 -5.25508 -0.931531 0
M  V30 2986 O 288.392 -5.27472 -2.17092 0
M  V30 2987 O 287.326 -6.00727 -0.375587 0
M  V30 2988 H 291.152 -2.92407 0.820476 0
M  V30 2989 H 288.737 -1.4193 0.4665 0
M  V30 2990 H 290.619 -3.97635 -1.39514 0
M  V30 2991 H 289.294 -2.80196 -1.62086 0
M  V30 2992 H 288.201 -3.70566 0.512988 0
M  V30 2993 H 289.534 -4.87817 0.655426 0
M  V30 2994 N 291.186 -0.45159 -1.50991 0
M  V30 2995 C 292.434 0.109857 -2.01801 0
M  V30 2996 C 292.755 1.41958 -1.3369 0
M  V30 2997 O 292.025 1.9003 -0.475951 0
M  V30 2998 H 290.605 0.0435884 -0.745727 0
M  V30 2999 H 293.267 -0.597557 -1.85514 0
M  V30 3000 H 292.363 0.275489 -3.10882 0
M  V30 3001 N 292.664 1.56529 -0.183458 0
M  V30 3002 C 293.91 1.97537 0.459036 0
M  V30 3003 C 294.243 1.06989 1.62071 0
M  V30 3004 O 293.518 0.11948 1.94133 0
M  V30 3005 C 293.801 3.47874 0.930368 0
M  V30 3006 C 293.654 4.492 -0.232317 0
M  V30 3007 C 294.973 4.01612 1.79989 0
M  V30 3008 H 292.092 0.718204 0.165383 0
M  V30 3009 H 294.734 1.88042 -0.272038 0
M  V30 3010 H 292.884 3.56095 1.55333 0
M  V30 3011 H 294.556 4.53027 -0.86972 0
M  V30 3012 H 292.799 4.24657 -0.885928 0
M  V30 3013 H 293.47 5.51823 0.139796 0
M  V30 3014 H 295.946 3.96097 1.27461 0
M  V30 3015 H 294.822 5.07195 2.09867 0
M  V30 3016 H 295.083 3.46163 2.74998 0
M  V30 3017 N 294.142 -0.090211 1.57342 0
M  V30 3018 C 295.089 -1.10909 2.02405 0
M  V30 3019 C 296.059 -1.39523 0.901252 0
M  V30 3020 O 297.244 -1.50903 1.1676 0
M  V30 3021 C 294.384 -2.42277 2.45755 0
M  V30 3022 C 293.497 -2.20352 3.71576 0
M  V30 3023 C 292.632 -3.45154 4.03785 0
M  V30 3024 C 291.671 -3.18512 5.22701 0
M  V30 3025 N 290.808 -4.35593 5.50639 0
M  V30 3026 H 295.648 -0.71782 2.89225 0
M  V30 3027 H 293.185 -0.342901 1.43048 0
M  V30 3028 H 295.143 -3.18951 2.68935 0
M  V30 3029 H 293.773 -2.79242 1.61938 0
M  V30 3030 H 292.825 -1.34458 3.55844 0
M  V30 3031 H 294.137 -1.96661 4.58395 0
M  V30 3032 H 293.291 -4.30233 4.27767 0
M  V30 3033 H 292.03 -3.71904 3.15498 0
M  V30 3034 H 291.035 -2.31827 4.98534 0
M  V30 3035 H 292.26 -2.93103 6.12591 0
M  V30 3036 H 290.206 -4.6241 4.6531 0
M  V30 3037 H 290.123 -4.1511 6.31838 0
M  V30 3038 H 291.391 -5.21723 5.7916 0
M  V30 3039 N 295.62 -1.53406 -0.361157 0
M  V30 3040 C 296.53 -1.83122 -1.4664 0
M  V30 3041 C 297.546 -0.719943 -1.58407 0
M  V30 3042 O 298.722 -1.01046 -1.74218 0
M  V30 3043 C 295.787 -2.01891 -2.81853 0
M  V30 3044 C 294.848 -3.25784 -2.79577 0
M  V30 3045 C 294.081 -3.43648 -4.0834 0
M  V30 3046 O 294.304 -2.65714 -5.0473 0
M  V30 3047 O 293.238 -4.37018 -4.13883 0
M  V30 3048 H 297.064 -2.7703 -1.24451 0
M  V30 3049 H 294.649 -1.38841 -0.551678 0
M  V30 3050 H 296.531 -2.15782 -3.61962 0
M  V30 3051 H 295.206 -1.11173 -3.0401 0
M  V30 3052 H 294.113 -3.17312 -1.98151 0
M  V30 3053 H 295.446 -4.16439 -2.62373 0
M  V30 3054 N 297.098 0.621204 -1.44841 0
M  V30 3055 C 298.045 1.73267 -1.5247 0
M  V30 3056 C 299.015 1.6189 -0.371611 0
M  V30 3057 O 300.2 1.81668 -0.58321 0
M  V30 3058 C 297.34 3.11545 -1.48438 0
M  V30 3059 C 296.453 3.33827 -2.74196 0
M  V30 3060 C 295.588 4.62133 -2.61929 0
M  V30 3061 C 294.627 4.77627 -3.82804 0
M  V30 3062 N 293.764 5.97219 -3.69153 0
M  V30 3063 H 298.604 1.66082 -2.47428 0
M  V30 3064 H 296.141 0.810026 -1.22788 0
M  V30 3065 H 298.099 3.91528 -1.4409 0
M  V30 3066 H 296.729 3.1772 -0.570402 0
M  V30 3067 H 295.781 2.47715 -2.88689 0
M  V30 3068 H 297.093 3.41153 -3.6389 0
M  V30 3069 H 296.247 5.50291 -2.5547 0
M  V30 3070 H 294.986 4.57182 -1.69811 0
M  V30 3071 H 293.991 3.87896 -3.89637 0
M  V30 3072 H 295.216 4.84385 -4.75971 0
M  V30 3073 H 293.162 5.93339 -2.79794 0
M  V30 3074 H 293.079 6.05644 -4.52472 0
M  V30 3075 H 294.347 6.87912 -3.66603 0
M  V30 3076 N 298.576 1.31904 0.862503 0
M  V30 3077 C 299.823 1.22017 1.61611 0
M  V30 3078 C 300.151 -0.21991 1.93253 0
M  V30 3079 O 299.406 -1.17076 1.56817 0
M  V30 3080 C 299.705 2.01713 2.95037 0
M  V30 3081 C 299.371 3.51145 2.82857 0
M  V30 3082 C 298.033 3.91889 2.79243 0
M  V30 3083 C 300.385 4.46204 2.69353 0
M  V30 3084 C 297.713 5.25947 2.59993 0
M  V30 3085 C 300.065 5.80397 2.5164 0
M  V30 3086 C 298.729 6.20352 2.46413 0
M  V30 3087 H 297.999 0.44649 0.591378 0
M  V30 3088 H 300.646 1.63248 1.00111 0
M  V30 3089 H 298.951 1.53185 3.60613 0
M  V30 3090 H 300.648 1.91437 3.52353 0
M  V30 3091 H 297.238 3.1878 2.86491 0
M  V30 3092 H 301.422 4.15652 2.71196 0
M  V30 3093 H 296.678 5.5597 2.54376 0
M  V30 3094 H 300.852 6.53676 2.40169 0
M  V30 3095 H 298.479 7.24172 2.31256 0
M  V30 3096 N 300.054 -1.07777 1.14986 0
M  V30 3097 C 301.282 -1.84018 0.945773 0
M  V30 3098 C 301.697 -1.81897 -0.505863 0
M  V30 3099 O 301.054 -1.22726 -1.35072 0
M  V30 3100 C 301.105 -3.31287 1.44677 0
M  V30 3101 O 300.826 -3.33449 2.84154 0
M  V30 3102 C 302.327 -4.24311 1.28355 0
M  V30 3103 H 299.547 -0.580716 0.336169 0
M  V30 3104 H 302.091 -1.36077 1.52654 0
M  V30 3105 H 300.246 -3.76594 0.908625 0
M  V30 3106 H 300.66 -4.25427 3.06777 0
M  V30 3107 H 302.134 -5.2573 1.68261 0
M  V30 3108 H 302.611 -4.38612 0.227184 0
M  V30 3109 H 303.217 -3.84836 1.81056 0
M  V30 3110 N 301.532 -0.945985 -1.26051 0
M  V30 3111 C 302.465 -0.403619 -2.24602 0
M  V30 3112 C 303.443 0.510241 -1.54387 0
M  V30 3113 O 304.627 0.446593 -1.83133 0
M  V30 3114 C 301.754 0.419564 -3.36091 0
M  V30 3115 C 300.8 -0.433454 -4.24292 0
M  V30 3116 S 301.633 -1.86037 -5.02146 0
M  V30 3117 C 302.789 -1.04538 -6.17108 0
M  V30 3118 H 303.022 -1.23883 -2.7026 0
M  V30 3119 H 300.555 -0.749438 -1.34992 0
M  V30 3120 H 302.513 0.888595 -4.00767 0
M  V30 3121 H 301.174 1.22951 -2.89036 0
M  V30 3122 H 300.367 0.197486 -5.03613 0
M  V30 3123 H 299.969 -0.837357 -3.64506 0
M  V30 3124 H 302.261 -0.289923 -6.76879 0
M  V30 3125 H 303.204 -1.81222 -6.84518 0
M  V30 3126 H 303.612 -0.579319 -5.61519 0
M  V30 3127 N 303.011 1.40521 -0.713556 0
M  V30 3128 C 304.257 2.01221 -0.252564 0
M  V30 3129 C 304.59 1.56444 1.1506 0
M  V30 3130 O 303.865 0.783597 1.78017 0
M  V30 3131 C 304.148 3.58582 -0.330332 0
M  V30 3132 C 304.001 4.13437 -1.77173 0
M  V30 3133 C 305.32 4.39079 0.299641 0
M  V30 3134 H 302.439 0.731077 -0.0932471 0
M  V30 3135 H 305.081 1.67026 -0.905673 0
M  V30 3136 H 303.231 3.87844 0.225737 0
M  V30 3137 H 304.903 3.9498 -2.38303 0
M  V30 3138 H 303.146 3.67801 -2.3001 0
M  V30 3139 H 303.817 5.22597 -1.77755 0
M  V30 3140 H 306.293 4.15735 -0.174139 0
M  V30 3141 H 305.169 5.4848 0.214771 0
M  V30 3142 H 305.43 4.19915 1.38288 0
M  V30 3143 N 304.489 0.459591 1.5075 0
M  V30 3144 C 305.421 -0.37665 2.26084 0
M  V30 3145 C 306.434 -0.967109 1.30961 0
M  V30 3146 O 307.623 -0.857468 1.56556 0
M  V30 3147 C 304.723 -1.54112 3.01832 0
M  V30 3148 C 303.896 -1.06553 4.24223 0
M  V30 3149 C 302.955 -2.1027 4.82362 0
M  V30 3150 O 301.981 -1.68798 5.43595 0
M  V30 3151 N 303.183 -3.42974 4.68347 0
M  V30 3152 H 305.948 0.269124 2.98489 0
M  V30 3153 H 303.509 0.28972 1.59287 0
M  V30 3154 H 305.501 -2.23165 3.37608 0
M  V30 3155 H 304.071 -2.0918 2.32298 0
M  V30 3156 H 303.291 -0.201274 3.93686 0
M  V30 3157 H 304.579 -0.725516 5.03601 0
M  V30 3158 H 303.977 -3.79385 4.19623 0
M  V30 3159 H 302.534 -4.07858 5.08424 0
M  V30 3160 N 305.967 -1.56429 0.191757 0
M  V30 3161 C 307.213 -1.97777 -0.448554 0
M  V30 3162 C 307.546 -1.07847 -1.61501 0
M  V30 3163 O 306.821 -0.129774 -1.94067 0
M  V30 3164 C 307.104 -3.48362 -0.911906 0
M  V30 3165 C 306.957 -4.4907 0.256136 0
M  V30 3166 C 308.276 -4.02561 -1.77857 0
M  V30 3167 H 305.395 -0.719071 -0.161572 0
M  V30 3168 H 308.037 -1.87896 0.282007 0
M  V30 3169 H 306.187 -3.56914 -1.53442 0
M  V30 3170 H 307.859 -4.5256 0.893733 0
M  V30 3171 H 306.102 -4.24181 0.908436 0
M  V30 3172 H 306.773 -5.51889 -0.11053 0
M  V30 3173 H 309.249 -3.96767 -1.25359 0
M  V30 3174 H 308.125 -5.08301 -2.07174 0
M  V30 3175 H 308.386 -3.47616 -2.73158 0
M  V30 3176 N 307.445 0.0818655 -1.57387 0
M  V30 3177 C 308.691 0.778884 -1.87896 0
M  V30 3178 C 309.046 1.75692 -0.784229 0
M  V30 3179 O 308.339 1.90417 0.212567 0
M  V30 3180 C 308.533 1.53513 -3.22752 0
M  V30 3181 C 308.362 0.631838 -4.45239 0
M  V30 3182 C 307.132 0.272571 -5.04564 0
M  V30 3183 C 309.33 -0.0670191 -5.14256 0
M  V30 3184 N 307.312 -0.637498 -6.10581 0
M  V30 3185 C 308.683 -0.834653 -6.14356 0
M  V30 3186 C 310.738 -0.139551 -4.97704 0
M  V30 3187 C 309.441 -1.66806 -6.99691 0
M  V30 3188 C 311.467 -0.959903 -5.83558 0
M  V30 3189 C 310.829 -1.71561 -6.83188 0
M  V30 3190 H 306.928 0.260764 -0.737242 0
M  V30 3191 H 309.512 0.0408227 -1.94657 0
M  V30 3192 H 307.683 2.24398 -3.17018 0
M  V30 3193 H 309.415 2.18038 -3.40942 0
M  V30 3194 H 306.17 0.62319 -4.69482 0
M  V30 3195 H 306.594 -1.08548 -6.68241 0
M  V30 3196 H 311.236 0.430376 -4.20604 0
M  V30 3197 H 308.954 -2.249 -7.76174 0
M  V30 3198 H 312.54 -1.01887 -5.72809 0
M  V30 3199 H 311.42 -2.34017 -7.48469 0
M  V30 3200 N 308.923 1.53595 0.353017 0
M  V30 3201 C 310.334 1.61937 0.929153 0
M  V30 3202 C 310.685 0.494686 1.89861 0
M  V30 3203 O 309.81 -0.377017 2.1309 0
M  V30 3204 C 310.405 2.93526 1.69199 0
M  V30 3205 C 308.964 3.04161 2.21727 0
M  V30 3206 C 308.111 2.57322 1.03348 0
M  V30 3207 H 311.062 1.58155 0.131431 0
M  V30 3208 H 311.083 2.82034 2.55416 0
M  V30 3209 H 310.595 3.75362 0.986144 0
M  V30 3210 H 308.696 2.26938 2.95516 0
M  V30 3211 H 308.809 4.09465 2.48748 0
M  V30 3212 H 307.173 2.12499 1.40414 0
M  V30 3213 H 307.956 3.41588 0.342428 0
M  V30 3214 N 310.401 -0.613514 1.45168 0
M  V30 3215 C 311.647 -1.37471 1.49096 0
M  V30 3216 C 311.98 -1.93765 0.129901 0
M  V30 3217 O 311.255 -1.74707 -0.854858 0
M  V30 3218 C 311.538 -2.52701 2.56542 0
M  V30 3219 C 311.391 -2.01643 4.0207 0
M  V30 3220 C 312.71 -3.54849 2.60327 0
M  V30 3221 H 309.829 -0.498502 0.54283 0
M  V30 3222 H 312.471 -0.692125 1.76945 0
M  V30 3223 H 310.621 -3.10931 2.32926 0
M  V30 3224 H 312.293 -1.48108 4.36877 0
M  V30 3225 H 310.536 -1.32688 4.13009 0
M  V30 3226 H 311.207 -2.84681 4.72928 0
M  V30 3227 H 313.683 -3.0645 2.81474 0
M  V30 3228 H 312.559 -4.32973 3.37381 0
M  V30 3229 H 312.82 -4.10079 1.6519 0
M  V30 3230 N 311.879 -1.3236 -0.855495 0
M  V30 3231 C 313.295 -1.11332 -1.14356 0
M  V30 3232 C 313.495 0.106751 -2.01217 0
M  V30 3233 O 312.551 0.791891 -2.39761 0
M  V30 3234 C 313.864 -2.39237 -1.82171 0
M  V30 3235 C 315.412 -2.44986 -1.9481 0
M  V30 3236 C 315.887 -3.7281 -2.66039 0
M  V30 3237 N 317.378 -3.73787 -2.73565 0
M  V30 3238 C 318.113 -4.69394 -3.29327 0
M  V30 3239 N 317.609 -5.75367 -3.85907 0
M  V30 3240 N 319.402 -4.56893 -3.27423 0
M  V30 3241 H 311.553 -2.10586 -0.277027 0
M  V30 3242 H 313.816 -0.929701 -0.185364 0
M  V30 3243 H 313.522 -3.28431 -1.25802 0
M  V30 3244 H 313.396 -2.50134 -2.82335 0
M  V30 3245 H 315.783 -1.56252 -2.50338 0
M  V30 3246 H 315.864 -2.38043 -0.936448 0
M  V30 3247 H 315.508 -4.61918 -2.11174 0
M  V30 3248 H 315.438 -3.77024 -3.67642 0
M  V30 3249 H 317.929 -2.97189 -2.33424 0
M  V30 3250 H 318.242 -6.44378 -4.26611 0
M  V30 3251 H 316.587 -5.79123 -3.84242 0
M  V30 3252 H 319.778 -3.73269 -2.82467 0
M  V30 3253 H 319.951 -5.31577 -3.7058 0
M  V30 3254 N 313.357 1.07166 -1.15556 0
M  V30 3255 C 314.289 2.14341 -0.811815 0
M  V30 3256 C 315.302 1.61835 0.177015 0
M  V30 3257 O 316.491 1.78439 -0.0464996 0
M  V30 3258 C 313.591 3.38387 -0.186481 0
M  V30 3259 C 312.764 4.20238 -1.21321 0
M  V30 3260 C 311.823 5.2266 -0.609302 0
M  V30 3261 O 310.849 5.54719 -1.27576 0
M  V30 3262 N 312.051 5.77306 0.608099 0
M  V30 3263 H 314.816 2.44431 -1.73417 0
M  V30 3264 H 312.377 1.23089 -1.0517 0
M  V30 3265 H 314.369 4.04044 0.230339 0
M  V30 3266 H 312.939 3.05994 0.639249 0
M  V30 3267 H 312.159 3.50369 -1.80652 0
M  V30 3268 H 313.447 4.71736 -1.90638 0
M  V30 3269 H 312.845 5.53513 1.1679 0
M  V30 3270 H 311.402 6.44583 0.96725 0
M  V30 3271 N 314.835 0.952656 1.25548 0
M  V30 3272 C 316.081 0.607272 1.93494 0
M  V30 3273 C 316.414 -0.853245 1.74452 0
M  V30 3274 O 315.689 -1.61194 1.08843 0
M  V30 3275 C 315.972 0.96435 3.46947 0
M  V30 3276 C 315.825 2.48045 3.75225 0
M  V30 3277 C 317.144 0.487987 4.37386 0
M  V30 3278 H 314.263 0.222096 0.702739 0
M  V30 3279 H 316.905 1.18895 1.48203 0
M  V30 3280 H 315.055 0.469361 3.85654 0
M  V30 3281 H 316.727 3.04905 3.46166 0
M  V30 3282 H 314.97 2.919 3.209 0
M  V30 3283 H 315.641 2.6808 4.82532 0
M  V30 3284 H 318.117 0.912558 4.0597 0
M  V30 3285 H 316.993 0.766547 5.43521 0
M  V30 3286 H 317.254 -0.612063 4.37843 0
M  V30 3287 N 316.313 -1.40141 0.720998 0
M  V30 3288 C 317.729 -1.54632 0.395113 0
M  V30 3289 C 317.929 -1.69115 -1.09555 0
M  V30 3290 O 316.985 -1.68377 -1.88163 0
M  V30 3291 C 318.298 -2.77177 1.1659 0
M  V30 3292 C 319.846 -2.91 1.15274 0
M  V30 3293 C 320.321 -4.16465 1.90579 0
M  V30 3294 N 321.812 -4.23476 1.87675 0
M  V30 3295 C 322.547 -5.19475 2.42762 0
M  V30 3296 N 322.043 -6.21348 3.06428 0
M  V30 3297 N 323.836 -5.11592 2.32874 0
M  V30 3298 H 315.987 -1.28986 1.68749 0
M  V30 3299 H 318.25 -0.62412 0.713567 0
M  V30 3300 H 317.956 -2.72771 2.22011 0
M  V30 3301 H 317.83 -3.69442 0.76108 0
M  V30 3302 H 320.217 -2.94907 0.106702 0
M  V30 3303 H 320.298 -1.99838 1.59682 0
M  V30 3304 H 319.942 -4.1332 2.95176 0
M  V30 3305 H 319.872 -5.06646 1.43587 0
M  V30 3306 H 322.363 -3.50497 1.41281 0
M  V30 3307 H 322.676 -6.91034 3.45965 0
M  V30 3308 H 321.021 -6.21777 3.10514 0
M  V30 3309 H 324.212 -4.30936 1.82789 0
M  V30 3310 H 324.385 -5.86233 2.76106 0
M  V30 3311 N 317.792 -0.46758 -1.50504 0
M  V30 3312 C 319.203 -0.0116166 -1.86696 0
M  V30 3313 C 319.554 1.39202 -1.38265 0
M  V30 3314 O 318.679 2.0313 -0.746132 0
M  V30 3315 C 319.274 -0.0143044 -3.38797 0
M  V30 3316 C 317.833 0.386175 -3.74414 0
M  V30 3317 C 316.98 -0.401287 -2.74381 0
M  V30 3318 H 319.931 -0.682022 -1.43297 0
M  V30 3319 H 319.952 0.788641 -3.72237 0
M  V30 3320 H 319.464 -1.03602 -3.74016 0
M  V30 3321 H 317.565 1.41237 -3.44794 0
M  V30 3322 H 317.678 0.0899596 -4.79016 0
M  V30 3323 H 316.042 0.144536 -2.5429 0
M  V30 3324 H 316.825 -1.42244 -3.12444 0
M  V30 3325 N 319.27 1.56325 -0.20005 0
M  V30 3326 C 320.516 1.98012 0.438059 0
M  V30 3327 C 320.849 1.08702 1.60927 0
M  V30 3328 O 320.124 0.140064 1.93995 0
M  V30 3329 C 320.407 3.48841 0.893419 0
M  V30 3330 C 320.26 4.48928 -0.279947 0
M  V30 3331 C 321.579 4.03498 1.75719 0
M  V30 3332 H 318.698 0.719918 0.157757 0
M  V30 3333 H 321.34 1.87743 -0.291968 0
M  V30 3334 H 319.49 3.57723 1.51547 0
M  V30 3335 H 321.162 4.52079 -0.91772 0
M  V30 3336 H 319.405 4.23694 -0.930919 0
M  V30 3337 H 320.076 5.5194 0.0812601 0
M  V30 3338 H 322.552 3.97427 1.23253 0
M  V30 3339 H 321.428 5.09393 2.04476 0
M  V30 3340 H 321.689 3.4906 2.71311 0
M  V30 3341 N 320.748 -0.0735177 1.57428 0
M  V30 3342 C 321.976 -0.785969 1.9139 0
M  V30 3343 C 322.391 -1.71207 0.795847 0
M  V30 3344 O 321.748 -1.81033 -0.230915 0
M  V30 3345 C 321.799 -1.58107 3.25091 0
M  V30 3346 O 321.52 -0.6922 4.32597 0
M  V30 3347 C 323.021 -2.39467 3.73055 0
M  V30 3348 H 320.241 -0.223558 0.632663 0
M  V30 3349 H 322.785 -0.044302 2.04452 0
M  V30 3350 H 320.94 -2.27503 3.13562 0
M  V30 3351 H 321.354 -1.24504 5.09508 0
M  V30 3352 H 322.828 -2.90716 4.69242 0
M  V30 3353 H 323.305 -3.18913 3.01979 0
M  V30 3354 H 323.911 -1.7523 3.87523 0
M  V30 3355 N 322.226 -1.5378 -0.344866 0
M  V30 3356 C 323.136 -1.84667 -1.4469 0
M  V30 3357 C 324.152 -0.736704 -1.57635 0
M  V30 3358 O 325.328 -1.02888 -1.73136 0
M  V30 3359 C 322.393 -2.04869 -2.79696 0
M  V30 3360 C 321.454 -3.28731 -2.76106 0
M  V30 3361 C 320.687 -3.4796 -4.04673 0
M  V30 3362 O 320.91 -2.71052 -5.01883 0
M  V30 3363 O 319.844 -4.41383 -4.09224 0
M  V30 3364 H 323.67 -2.78334 -1.21506 0
M  V30 3365 H 321.255 -1.39418 -0.536921 0
M  V30 3366 H 323.137 -2.19609 -3.59652 0
M  V30 3367 H 321.812 -1.14391 -3.02814 0
M  V30 3368 H 320.719 -3.19396 -1.94774 0
M  V30 3369 H 322.052 -4.19198 -2.57941 0
M  V30 3370 N 323.704 0.605807 -1.45491 0
M  V30 3371 C 324.651 1.7164 -1.54299 0
M  V30 3372 C 325.621 1.61486 -0.388761 0
M  V30 3373 O 326.806 1.81039 -0.602445 0
M  V30 3374 C 323.946 3.09953 -1.51734 0
M  V30 3375 C 323.059 3.309 -2.77721 0
M  V30 3376 C 322.194 4.59329 -2.66816 0
M  V30 3377 C 321.233 4.7354 -3.87848 0
M  V30 3378 N 320.37 5.9327 -3.75467 0
M  V30 3379 H 325.21 1.63449 -2.49176 0
M  V30 3380 H 322.747 0.796957 -1.23641 0
M  V30 3381 H 324.705 3.89977 -1.48235 0
M  V30 3382 H 323.335 3.17098 -0.604068 0
M  V30 3383 H 322.387 2.44639 -2.913 0
M  V30 3384 H 323.699 3.37274 -3.67488 0
M  V30 3385 H 322.853 5.4755 -2.61292 0
M  V30 3386 H 321.592 4.55355 -1.74651 0
M  V30 3387 H 320.597 3.83741 -3.93729 0
M  V30 3388 H 321.822 4.79309 -4.81082 0
M  V30 3389 H 319.768 5.90338 -2.86072 0
M  V30 3390 H 319.685 6.00811 -4.5887 0
M  V30 3391 H 320.953 6.83984 -3.73879 0
M  V30 3392 N 325.182 1.32811 0.848464 0
M  V30 3393 C 326.112 1.24882 1.97299 0
M  V30 3394 C 327.093 0.131357 1.69592 0
M  V30 3395 O 328.278 0.319553 1.91553 0
M  V30 3396 C 325.408 0.97746 3.33261 0
M  V30 3397 C 324.362 2.05682 3.75338 0
M  V30 3398 C 323.688 1.63777 5.09 0
M  V30 3399 C 324.988 3.47254 3.90144 0
M  V30 3400 H 326.682 2.18966 2.04191 0
M  V30 3401 H 324.228 1.05413 0.981029 0
M  V30 3402 H 326.181 0.908513 4.1149 0
M  V30 3403 H 324.905 0.000980011 3.266 0
M  V30 3404 H 323.564 2.11603 2.99366 0
M  V30 3405 H 323.212 0.648569 4.98801 0
M  V30 3406 H 322.912 2.36 5.38124 0
M  V30 3407 H 324.436 1.5833 5.89715 0
M  V30 3408 H 325.85 3.43888 4.58709 0
M  V30 3409 H 324.247 4.1788 4.30693 0
M  V30 3410 H 325.317 3.86462 2.92874 0
M  V30 3411 N 326.66 -1.06551 1.16123 0
M  V30 3412 C 328.071 -1.60768 0.949232 0
M  V30 3413 C 328.422 -1.89523 -0.507508 0
M  V30 3414 O 327.547 -1.66671 -1.38021 0
M  V30 3415 C 328.142 -2.92086 1.71671 0
M  V30 3416 C 326.701 -3.43015 1.54977 0
M  V30 3417 C 325.848 -2.16947 1.72711 0
M  V30 3418 H 328.799 -0.895354 1.31031 0
M  V30 3419 H 328.82 -3.6138 1.19099 0
M  V30 3420 H 328.332 -2.71127 2.7769 0
M  V30 3421 H 326.433 -3.69039 0.513873 0
M  V30 3422 H 326.546 -4.18516 2.33198 0
M  V30 3423 H 324.91 -2.27041 1.15431 0
M  V30 3424 H 325.693 -1.98473 2.80113 0
M  V30 3425 N 328.138 -0.959301 -1.25041 0
M  V30 3426 C 329.101 -0.487677 -2.23952 0
M  V30 3427 C 330.101 0.41119 -1.55454 0
M  V30 3428 O 331.291 0.207825 -1.72956 0
M  V30 3429 C 328.423 0.294807 -3.39623 0
M  V30 3430 H 329.616 -1.36198 -2.67189 0
M  V30 3431 H 327.169 -0.743042 -1.37508 0
M  V30 3432 H 327.904 1.18658 -3.01813 0
M  V30 3433 H 327.689 -0.35012 -3.90534 0
M  V30 3434 H 329.179 0.614089 -4.1306 0
M  V30 3435 N 329.616 1.39756 -0.72842 0
M  V30 3436 C 330.564 2.32485 -0.0731849 0
M  V30 3437 C 331.558 1.52717 0.733063 0
M  V30 3438 O 332.764 1.68428 0.634988 0
M  V30 3439 H 329.139 0.751984 -0.00486469 0
M  V30 3440 H 331.11 2.85382 -0.871761 0
M  V30 3441 C 329.859 3.37773 0.824908 0
M  V30 3442 H 329.182 3.99227 0.213915 0
M  V30 3443 H 330.622 4.05121 1.25111 0
M  V30 3444 C 329.081 2.74287 1.95622 0
M  V30 3445 O 329.611 2.61618 3.04826 0
M  V30 3446 N 327.817 2.32475 1.74367 0
M  V30 3447 H 327.364 2.4298 0.855494 0
M  V30 3448 H 327.322 1.90337 2.50238 0
M  V30 3449 N 331.094 0.475555 1.50254 0
M  V30 3450 C 332.044 -0.335025 2.25525 0
M  V30 3451 C 333.028 -0.957625 1.29299 0
M  V30 3452 O 334.22 -0.869436 1.54175 0
M  V30 3453 C 331.349 -1.41385 3.12834 0
M  V30 3454 C 330.435 -0.798762 4.1651 0
M  V30 3455 N 330.826 0.0835815 5.05731 0
M  V30 3456 C 329.124 -1.06221 4.33166 0
M  V30 3457 C 329.825 0.433113 5.80085 0
M  V30 3458 N 328.801 -0.1928 5.43258 0
M  V30 3459 H 332.603 0.344612 2.91873 0
M  V30 3460 H 330.117 0.289986 1.5979 0
M  V30 3461 H 332.114 -2.00777 3.65368 0
M  V30 3462 H 330.774 -2.09543 2.48036 0
M  V30 3463 H 331.785 0.452715 5.15918 0
M  V30 3464 H 328.462 -1.73844 3.79585 0
M  V30 3465 H 329.852 1.15346 6.61925 0
M  V30 3466 N 332.573 -1.56217 0.208337 0
M  V30 3467 C 333.984 -1.84243 -0.301904 0
M  V30 3468 C 334.335 -1.12939 -1.60434 0
M  V30 3469 O 333.46 -0.39461 -2.12772 0
M  V30 3470 C 334.055 -3.34231 -0.554543 0
M  V30 3471 C 332.614 -3.62621 -1.00912 0
M  V30 3472 C 331.761 -2.77224 -0.064933 0
M  V30 3473 H 334.712 -1.52712 0.431833 0
M  V30 3474 H 334.733 -3.5372 -1.40223 0
M  V30 3475 H 334.245 -3.86099 0.393561 0
M  V30 3476 H 332.346 -3.16197 -1.97104 0
M  V30 3477 H 332.459 -4.7071 -0.892674 0
M  V30 3478 H 330.823 -2.48256 -0.56929 0
M  V30 3479 H 331.606 -3.31887 0.877851 0
M  V30 3480 N 334.051 0.0651679 -1.57465 0
M  V30 3481 C 334.981 1.07693 -2.07182 0
M  V30 3482 C 335.962 1.39962 -0.966673 0
M  V30 3483 O 337.147 1.49475 -1.2398 0
M  V30 3484 C 334.277 2.3885 -2.52127 0
M  V30 3485 C 333.231 2.20917 -3.66579 0
M  V30 3486 C 332.557 3.57515 -3.97601 0
M  V30 3487 C 333.857 1.62493 -4.9638 0
M  V30 3488 H 335.551 0.663199 -2.91962 0
M  V30 3489 H 333.097 0.317569 -1.40455 0
M  V30 3490 H 335.05 3.09928 -2.85522 0
M  V30 3491 H 333.774 2.82215 -1.64384 0
M  V30 3492 H 332.433 1.52279 -3.33477 0
M  V30 3493 H 332.081 3.98463 -3.06979 0
M  V30 3494 H 331.781 3.46353 -4.74672 0
M  V30 3495 H 333.305 4.30013 -4.33499 0
M  V30 3496 H 334.719 2.23445 -5.27963 0
M  V30 3497 H 333.116 1.62009 -5.77818 0
M  V30 3498 H 334.186 0.587041 -4.81333 0
M  V30 3499 N 335.529 1.53961 0.336706 0
M  V30 3500 C 336.459 1.85417 1.41925 0
M  V30 3501 C 337.44 0.709856 1.5458 0
M  V30 3502 O 338.625 0.962396 1.68676 0
M  V30 3503 C 335.755 2.06985 2.78881 0
M  V30 3504 C 334.709 3.22813 2.81026 0
M  V30 3505 C 334.035 3.29727 4.20932 0
M  V30 3506 C 335.335 4.60767 2.45949 0
M  V30 3507 H 337.029 2.76079 1.15848 0
M  V30 3508 H 334.575 1.32839 0.555859 0
M  V30 3509 H 336.528 2.27575 3.54665 0
M  V30 3510 H 335.252 1.13061 3.06406 0
M  V30 3511 H 333.911 3.0209 2.07695 0
M  V30 3512 H 333.559 2.33385 4.45579 0
M  V30 3513 H 333.259 4.07566 4.23277 0
M  V30 3514 H 334.783 3.52536 4.98549 0
M  V30 3515 H 336.197 4.81325 3.11446 0
M  V30 3516 H 334.594 5.4106 2.59566 0
M  V30 3517 H 335.664 4.6391 1.41122 0
M  V30 3518 N 337.007 -0.598083 1.45811 0
M  V30 3519 C 338.235 -1.38322 1.53866 0
M  V30 3520 C 338.65 -1.87992 0.174479 0
M  V30 3521 O 338.007 -1.62756 -0.825627 0
M  V30 3522 C 338.058 -2.58125 2.53089 0
M  V30 3523 O 337.779 -2.10516 3.84206 0
M  V30 3524 C 339.28 -3.50869 2.70935 0
M  V30 3525 H 336.5 -0.423093 0.520801 0
M  V30 3526 H 339.044 -0.728527 1.91083 0
M  V30 3527 H 337.199 -3.19615 2.18917 0
M  V30 3528 H 337.613 -2.88425 4.38077 0
M  V30 3529 H 339.087 -4.31451 3.44317 0
M  V30 3530 H 339.564 -4.01822 1.77301 0
M  V30 3531 H 340.17 -2.95225 3.06141 0
M  V30 3532 N 338.485 -1.33259 -0.841409 0
M  V30 3533 C 339.733 -1.24326 -1.59334 0
M  V30 3534 C 340.054 0.191564 -1.94057 0
M  V30 3535 O 339.324 1.11967 -1.60749 0
M  V30 3536 H 337.904 -0.457174 -0.590763 0
M  V30 3537 H 340.566 -1.66947 -1.00571 0
M  V30 3538 H 339.662 -1.8352 -2.52442 0
M  V30 3539 N 339.963 1.05934 -1.16686 0
M  V30 3540 C 340.895 2.13468 -0.834503 0
M  V30 3541 C 341.908 1.62013 0.15984 0
M  V30 3542 O 343.097 1.7838 -0.0654228 0
M  V30 3543 C 340.197 3.3817 -0.222361 0
M  V30 3544 C 339.37 4.18928 -1.25771 0
M  V30 3545 C 338.429 5.21985 -0.664703 0
M  V30 3546 O 337.455 5.53334 -1.33453 0
M  V30 3547 N 338.657 5.77919 0.546834 0
M  V30 3548 H 341.422 2.42578 -1.75999 0
M  V30 3549 H 338.983 1.21967 -1.06469 0
M  V30 3550 H 340.975 4.04266 0.187472 0
M  V30 3551 H 339.545 3.06655 0.606758 0
M  V30 3552 H 338.765 3.48433 -1.84358 0
M  V30 3553 H 340.053 4.69687 -1.95631 0
M  V30 3554 H 339.451 5.54721 1.10912 0
M  V30 3555 H 338.008 6.45573 0.898829 0
M  V30 3556 N 341.441 0.965919 1.2453 0
M  V30 3557 C 342.857 0.67216 1.44756 0
M  V30 3558 C 343.057 -0.766609 1.86347 0
M  V30 3559 O 342.113 -1.5407 2.00047 0
M  V30 3560 C 343.426 1.65473 2.51076 0
M  V30 3561 C 344.974 1.66716 2.64905 0
M  V30 3562 C 345.449 2.63766 3.74421 0
M  V30 3563 N 346.94 2.62198 3.81846 0
M  V30 3564 C 347.675 3.33966 4.66106 0
M  V30 3565 N 347.171 4.15245 5.54566 0
M  V30 3566 N 348.964 3.22799 4.60171 0
M  V30 3567 H 341.115 1.89553 0.958293 0
M  V30 3568 H 343.378 0.815979 0.482579 0
M  V30 3569 H 343.084 2.68296 2.27399 0
M  V30 3570 H 342.958 1.4261 3.49202 0
M  V30 3571 H 345.345 0.646057 2.87941 0
M  V30 3572 H 345.426 1.93642 1.67142 0
M  V30 3573 H 345.07 3.6601 3.52135 0
M  V30 3574 H 345 2.34121 4.71694 0
M  V30 3575 H 347.491 2.032 3.18619 0
M  V30 3576 H 347.804 4.66898 6.15814 0
M  V30 3577 H 346.149 4.1934 5.54237 0
M  V30 3578 H 349.34 2.58764 3.90075 0
M  V30 3579 H 349.513 3.78994 5.25612 0
M  V30 3580 N 342.919 -1.39368 0.735821 0
M  V30 3581 C 344.165 -2.00794 0.284544 0
M  V30 3582 C 344.498 -1.58255 -1.12557 0
M  V30 3583 O 343.773 -0.811819 -1.76748 0
M  V30 3584 C 344.056 -3.58011 0.387337 0
M  V30 3585 C 343.909 -4.10566 1.83728 0
M  V30 3586 C 345.228 -4.395 -0.22975 0
M  V30 3587 H 342.347 -0.729501 0.104866 0
M  V30 3588 H 344.989 -1.65564 0.93213 0
M  V30 3589 H 343.139 -3.88154 -0.164006 0
M  V30 3590 H 344.811 -3.91139 2.44556 0
M  V30 3591 H 343.054 -3.64095 2.35833 0
M  V30 3592 H 343.725 -5.19702 1.86047 0
M  V30 3593 H 346.201 -4.15406 0.240257 0
M  V30 3594 H 345.077 -5.48752 -0.127485 0
M  V30 3595 H 345.338 -4.22062 -1.3159 0
M  V30 3596 N 344.397 -0.483516 -1.5 0
M  V30 3597 C 345.327 0.293829 -2.31644 0
M  V30 3598 C 346.308 0.978864 -1.39112 0
M  V30 3599 O 347.493 0.973644 -1.68029 0
M  V30 3600 C 344.623 1.36897 -3.19181 0
M  V30 3601 C 343.577 0.804833 -4.20365 0
M  V30 3602 C 342.903 1.9792 -4.96721 0
M  V30 3603 C 344.203 -0.192313 -5.21946 0
M  V30 3604 H 345.897 -0.387616 -2.9688 0
M  V30 3605 H 343.443 -0.187856 -1.42769 0
M  V30 3606 H 345.396 1.92037 -3.751 0
M  V30 3607 H 344.12 2.07936 -2.51853 0
M  V30 3608 H 342.779 0.275319 -3.65565 0
M  V30 3609 H 342.427 2.67686 -4.25856 0
M  V30 3610 H 342.127 1.60789 -5.65173 0
M  V30 3611 H 343.651 2.53526 -5.55479 0
M  V30 3612 H 345.065 0.270333 -5.72662 0
M  V30 3613 H 343.462 -0.478543 -5.98189 0
M  V30 3614 H 344.532 -1.11409 -4.71928 0
M  V30 3615 N 345.875 1.56104 -0.216619 0
M  V30 3616 C 347.152 1.89988 0.465165 0
M  V30 3617 C 347.532 1.13326 1.78102 0
M  V30 3618 O 346.88 0.241033 2.27225 0
M  V30 3619 C 347.09 3.42646 0.662939 0
M  V30 3620 C 348.438 4.13311 0.972602 0
M  V30 3621 O 349.462 3.48217 0.749901 0
M  V30 3622 O 348.321 5.28396 1.39499 0
M  V30 3623 H 345.415 0.78979 0.245276 0
M  V30 3624 H 347.961 1.67721 -0.258436 0
M  V30 3625 H 346.733 3.90399 -0.26543 0
M  V30 3626 H 346.356 3.70677 1.43821 0
M  V30 3627 N 347.353 -0.0568162 1.57498 0
M  V30 3628 C 348.316 -1.05038 2.03715 0
M  V30 3629 C 349.316 -1.30709 0.936577 0
M  V30 3630 O 350.506 -1.26178 1.20103 0
M  V30 3631 C 347.638 -2.39034 2.43055 0
M  V30 3632 H 348.831 -0.651715 2.92733 0
M  V30 3633 H 346.384 -0.302947 1.53336 0
M  V30 3634 H 347.119 -2.83703 1.57108 0
M  V30 3635 H 346.904 -2.21739 3.2338 0
M  V30 3636 H 348.394 -3.10421 2.79336 0
M  V30 3637 N 348.832 -1.54138 -0.328536 0
M  V30 3638 C 349.762 -1.86167 -1.40939 0
M  V30 3639 C 350.743 -0.718044 -1.54202 0
M  V30 3640 O 351.928 -0.971328 -1.68163 0
M  V30 3641 C 349.058 -2.08461 -2.77779 0
M  V30 3642 C 348.012 -3.24299 -2.7931 0
M  V30 3643 C 347.338 -3.31955 -4.19178 0
M  V30 3644 C 348.638 -4.62065 -2.43502 0
M  V30 3645 H 350.332 -2.76689 -1.14383 0
M  V30 3646 H 347.878 -1.33132 -0.548806 0
M  V30 3647 H 349.831 -2.29453 -3.53454 0
M  V30 3648 H 348.555 -1.14684 -3.05802 0
M  V30 3649 H 347.214 -3.03187 -2.0609 0
M  V30 3650 H 346.862 -2.35745 -4.44335 0
M  V30 3651 H 346.562 -4.09805 -4.2111 0
M  V30 3652 H 348.086 -3.55175 -4.96672 0
M  V30 3653 H 349.5 -4.8297 -3.08889 0
M  V30 3654 H 347.897 -5.42429 -2.56693 0
M  V30 3655 H 348.967 -4.64652 -1.38659 0
M  V30 3656 N 350.31 0.590341 -1.46126 0
M  V30 3657 C 351.557 1.34882 -1.5104 0
M  V30 3658 C 351.885 1.93849 -0.159021 0
M  V30 3659 O 351.14 1.76544 0.844436 0
M  V30 3660 C 351.439 2.5032 -2.55097 0
M  V30 3661 C 351.105 2.09394 -3.99331 0
M  V30 3662 C 349.767 1.97947 -4.38601 0
M  V30 3663 C 352.119 1.77712 -4.89967 0
M  V30 3664 C 349.447 1.53065 -5.66381 0
M  V30 3665 C 351.799 1.34312 -6.18177 0
M  V30 3666 C 350.463 1.21436 -6.56361 0
M  V30 3667 H 349.733 0.493568 -0.552695 0
M  V30 3668 H 352.38 0.665539 -1.79563 0
M  V30 3669 H 350.685 3.24062 -2.20207 0
M  V30 3670 H 352.382 3.08541 -2.56132 0
M  V30 3671 H 348.972 2.19235 -3.68285 0
M  V30 3672 H 353.156 1.85445 -4.60352 0
M  V30 3673 H 348.412 1.41733 -5.94745 0
M  V30 3674 H 352.586 1.08849 -6.87841 0
M  V30 3675 H 350.213 0.864345 -7.5527 0
M  V30 3676 N 351.788 1.33704 0.83433 0
M  V30 3677 C 353.199 1.22813 1.4062 0
M  V30 3678 C 353.55 -0.151107 1.95617 0
M  V30 3679 O 352.675 -1.05092 1.89168 0
M  V30 3680 C 353.27 2.22355 2.55624 0
M  V30 3681 C 351.829 2.1529 3.08751 0
M  V30 3682 C 350.976 2.09589 1.8157 0
M  V30 3683 H 353.927 1.45236 0.639702 0
M  V30 3684 H 353.948 1.83391 3.33389 0
M  V30 3685 H 353.46 3.22728 2.15566 0
M  V30 3686 H 351.561 1.18235 3.53343 0
M  V30 3687 H 351.674 3.06038 3.68616 0
M  V30 3688 H 350.038 1.55134 2.02004 0
M  V30 3689 H 350.821 3.11777 1.43701 0
M  V30 3690 N 353.266 -1.05314 1.17247 0
M  V30 3691 C 354.506 -1.79869 0.970898 0
M  V30 3692 C 354.87 -1.85594 -0.491808 0
M  V30 3693 O 356.071 -2.56229 -0.812409 0
M  V30 3694 C 354.342 -3.19937 1.59295 0
M  V30 3695 S 355.901 -4.10986 1.53741 0
M  V30 3696 H 352.719 -0.61949 0.348931 0
M  V30 3697 H 355.321 -1.26368 1.49169 0
M  V30 3698 H 354.025 -3.13372 2.65003 0
M  V30 3699 H 353.556 -3.78515 1.07191 0
M  V30 3700 H 355.571 -4.93203 0.544537 0
M  V30 3701 N 354.744 -0.972509 -1.24016 0
M  V30 3702 C 355.99 -0.637978 -1.92504 0
M  V30 3703 C 356.323 0.825383 -1.75787 0
M  V30 3704 O 355.598 1.59442 -1.11393 0
M  V30 3705 C 355.881 -1.01942 -3.45369 0
M  V30 3706 C 355.734 -2.53983 -3.71231 0
M  V30 3707 C 357.053 -0.55751 -4.36555 0
M  V30 3708 H 354.172 -0.233248 -0.699117 0
M  V30 3709 H 356.814 -1.21238 -1.46292 0
M  V30 3710 H 354.964 -0.530656 -3.84859 0
M  V30 3711 H 356.636 -3.10374 -3.41271 0
M  V30 3712 H 354.879 -2.96968 -3.16216 0
M  V30 3713 H 355.55 -2.75723 -4.78206 0
M  V30 3714 H 358.026 -0.977029 -4.04467 0
M  V30 3715 H 356.902 -0.85292 -5.42233 0
M  V30 3716 H 357.163 0.542328 -4.38761 0
M  V30 3717 N 356.222 1.38976 -0.743202 0
M  V30 3718 C 357.154 2.29096 -0.0689228 0
M  V30 3719 C 358.167 1.47229 0.694791 0
M  V30 3720 O 359.356 1.70212 0.537597 0
M  V30 3721 C 356.456 3.25988 0.926548 0
M  V30 3722 C 355.629 4.36833 0.222647 0
M  V30 3723 C 354.688 5.13981 1.12739 0
M  V30 3724 O 353.714 5.6601 0.601795 0
M  V30 3725 N 354.916 5.25966 2.45641 0
M  V30 3726 H 357.681 2.87604 -0.842846 0
M  V30 3727 H 355.242 1.50645 -0.593109 0
M  V30 3728 H 357.234 3.74476 1.5346 0
M  V30 3729 H 355.804 2.68453 1.60162 0
M  V30 3730 H 355.024 3.90116 -0.565983 0
M  V30 3731 H 356.312 5.0811 -0.264841 0
M  V30 3732 H 355.71 4.85228 2.9081 0
M  V30 3733 H 354.267 5.77865 3.01522 0
M  V30 3734 N 357.7 0.491464 1.49741 0
M  V30 3735 C 358.948 -0.0563141 2.02022 0
M  V30 3736 C 359.269 -1.38363 1.37407 0
M  V30 3737 O 358.539 -1.88702 0.526166 0
M  V30 3738 H 357.119 -0.0238014 0.746621 0
M  V30 3739 H 359.781 0.646533 1.83864 0
M  V30 3740 H 358.877 -0.192967 3.11503 0
M  V30 3741 N 359.178 -1.55987 0.224894 0
M  V30 3742 C 360.426 -1.97998 -0.405099 0
M  V30 3743 C 360.747 -1.11387 -1.60056 0
M  V30 3744 O 360.017 -0.191645 -1.9496 0
M  V30 3745 H 358.597 -0.731235 -0.152658 0
M  V30 3746 H 361.259 -1.92279 0.318567 0
M  V30 3747 H 360.355 -3.03463 -0.729167 0
M  V30 3748 N 360.656 0.0484629 -1.57525 0
M  V30 3749 C 361.884 0.755421 -1.92616 0
M  V30 3750 C 362.299 1.69919 -0.822984 0
M  V30 3751 O 361.656 1.81378 0.202085 0
M  V30 3752 C 361.707 1.52915 -3.27566 0
M  V30 3753 O 361.428 0.62329 -4.33644 0
M  V30 3754 C 362.929 2.33502 -3.76818 0
M  V30 3755 H 360.149 0.213465 -0.63614 0
M  V30 3756 H 362.693 0.0117698 -2.04497 0
M  V30 3757 H 360.848 2.22486 -3.17142 0
M  V30 3758 H 361.262 1.16383 -5.11425 0
M  V30 3759 H 362.736 2.83214 -4.73808 0
M  V30 3760 H 363.213 3.14068 -3.07014 0
M  V30 3761 H 363.819 1.69043 -3.90262 0
M  V30 3762 N 362.134 1.5431 0.320358 0
M  V30 3763 C 363.362 1.76636 1.07738 0
M  V30 3764 C 363.777 0.51649 1.81598 0
M  V30 3765 O 363.134 -0.512942 1.75143 0
M  V30 3766 C 363.185 2.96158 2.07299 0
M  V30 3767 O 362.906 4.16313 1.36438 0
M  V30 3768 C 364.407 3.3072 2.95193 0
M  V30 3769 H 361.627 0.589597 0.320339 0
M  V30 3770 H 364.171 2.01207 0.36551 0
M  V30 3771 H 362.326 2.73851 2.74016 0
M  V30 3772 H 362.74 4.83565 2.03138 0
M  V30 3773 H 364.214 4.17643 3.60941 0
M  V30 3774 H 364.691 2.48026 3.62463 0
M  V30 3775 H 365.297 3.55117 2.34034 0
M  V30 3776 N 363.613 -0.582584 1.46437 0
M  V30 3777 C 364.576 -1.67366 1.56592 0
M  V30 3778 C 365.576 -1.54575 0.443072 0
M  V30 3779 O 366.766 -1.59191 0.707381 0
M  V30 3780 C 363.898 -3.06791 1.48634 0
M  V30 3781 H 365.091 -1.5972 2.5383 0
M  V30 3782 H 362.644 -0.800432 1.34249 0
M  V30 3783 H 363.379 -3.19993 0.526763 0
M  V30 3784 H 363.164 -3.17484 2.30101 0
M  V30 3785 H 364.654 -3.86218 1.58826 0
M  V30 3786 N 365.091 -1.34144 -0.827227 0
M  V30 3787 C 366.34 -1.25602 -1.5782 0
M  V30 3788 C 366.653 0.173445 -1.94829 0
M  V30 3789 O 367.859 0.380984 -2.68814 0
M  V30 3790 C 366.315 -2.20151 -2.84713 0
M  V30 3791 C 365.923 -3.68331 -2.55021 0
M  V30 3792 C 367.667 -2.20508 -3.62735 0
M  V30 3793 C 365.574 -4.54762 -3.78082 0
M  V30 3794 H 364.504 -0.466573 -0.592306 0
M  V30 3795 H 367.155 -1.59283 -0.911116 0
M  V30 3796 H 365.537 -1.79417 -3.53023 0
M  V30 3797 H 366.711 -4.17577 -1.94849 0
M  V30 3798 H 365.026 -3.7038 -1.90283 0
M  V30 3799 H 367.623 -2.82306 -4.54101 0
M  V30 3800 H 367.966 -1.20322 -3.98533 0
M  V30 3801 H 368.499 -2.59664 -3.01362 0
M  V30 3802 H 365.238 -5.55867 -3.47407 0
M  V30 3803 H 364.758 -4.10254 -4.37552 0
M  V30 3804 H 366.437 -4.69153 -4.45538 0
M  V30 3805 N 366.569 1.04691 -1.17803 0
M  V30 3806 C 367.98 1.59238 -0.974689 0
M  V30 3807 C 368.331 1.90306 0.477292 0
M  V30 3808 O 367.456 1.68846 1.35352 0
M  V30 3809 C 368.051 2.89318 -1.76296 0
M  V30 3810 C 366.61 3.40506 -1.60414 0
M  V30 3811 C 365.757 2.14172 -1.76141 0
M  V30 3812 H 368.708 0.874395 -1.32439 0
M  V30 3813 H 368.729 3.5944 -1.24833 0
M  V30 3814 H 368.241 2.66675 -2.81968 0
M  V30 3815 H 366.342 3.68175 -0.572519 0
M  V30 3816 H 366.455 4.14753 -2.39827 0
M  V30 3817 H 364.819 2.25176 -1.19028 0
M  V30 3818 H 365.602 1.93992 -2.83235 0
M  V30 3819 N 368.047 0.979072 1.23499 0
M  V30 3820 C 369.295 0.645941 1.91499 0
M  V30 3821 C 369.616 -0.822948 1.76784 0
M  V30 3822 O 368.886 -1.58854 1.14639 0
M  V30 3823 H 367.466 0.235919 0.708767 0
M  V30 3824 H 370.128 1.2426 1.50152 0
M  V30 3825 H 369.224 0.896411 2.9895 0
M  V30 3826 N 369.525 -1.3858 0.750561 0
M  V30 3827 C 370.488 -2.28836 0.129152 0
M  V30 3828 C 371.488 -1.47045 -0.650714 0
M  V30 3829 O 372.678 -1.6753 -0.477428 0
M  V30 3830 C 369.81 -3.30751 -0.825622 0
M  V30 3831 H 371.003 -2.85294 0.924516 0
M  V30 3832 H 368.556 -1.47489 0.517376 0
M  V30 3833 H 369.291 -2.79378 -1.64677 0
M  V30 3834 H 369.076 -3.91177 -0.268852 0
M  V30 3835 H 370.566 -3.98249 -1.2565 0
M  V30 3836 N 371.003 -0.499398 -1.49478 0
M  V30 3837 C 372.25 0.0456899 -2.02448 0
M  V30 3838 C 372.578 1.37142 -1.37921 0
M  V30 3839 O 371.833 1.89111 -0.503544 0
M  V30 3840 C 372.132 0.248424 -3.56536 0
M  V30 3841 C 371.798 -0.999107 -4.39692 0
M  V30 3842 C 370.46 -1.34108 -4.62135 0
M  V30 3843 C 372.812 -1.82842 -4.88076 0
M  V30 3844 C 370.14 -2.51191 -5.30208 0
M  V30 3845 C 372.492 -2.99076 -5.57437 0
M  V30 3846 C 371.156 -3.33655 -5.78127 0
M  V30 3847 H 370.426 0.0167191 -0.740811 0
M  V30 3848 H 373.073 -0.65923 -1.79795 0
M  V30 3849 H 371.378 1.03586 -3.77859 0
M  V30 3850 H 373.075 0.684605 -3.95113 0
M  V30 3851 H 369.665 -0.722729 -4.22463 0
M  V30 3852 H 373.849 -1.57737 -4.70566 0
M  V30 3853 H 369.105 -2.78221 -5.44429 0
M  V30 3854 H 373.279 -3.63664 -5.93904 0
M  V30 3855 H 370.906 -4.24483 -6.30649 0
M  V30 3856 N 372.481 1.55866 -0.233164 0
M  V30 3857 C 373.729 1.9821 0.394593 0
M  V30 3858 C 374.05 1.12234 1.59463 0
M  V30 3859 O 373.32 0.201981 1.94856 0
M  V30 3860 H 371.9 0.732034 0.148778 0
M  V30 3861 H 374.562 1.92107 -0.32876 0
M  V30 3862 H 373.658 3.03845 0.713063 0
M  V30 3863 N 373.959 -0.0401083 1.57549 0
M  V30 3864 C 375.199 -0.738098 1.90608 0
M  V30 3865 C 375.563 -1.73107 0.830539 0
M  V30 3866 O 376.764 -2.4765 1.04513 0
M  V30 3867 C 375.035 -1.39985 3.28845 0
M  V30 3868 S 376.594 -2.12852 3.83718 0
M  V30 3869 H 373.412 -0.24477 0.667539 0
M  V30 3870 H 376.014 0.00693599 1.95499 0
M  V30 3871 H 374.718 -0.663775 4.04997 0
M  V30 3872 H 374.249 -2.18366 3.2723 0
M  V30 3873 H 376.264 -3.39842 3.61555 0
M  V30 3874 N 375.437 -1.54477 -0.31217 0
M  V30 3875 C 376.685 -1.72884 -1.04668 0
M  V30 3876 C 377.006 -0.511477 -1.88173 0
M  V30 3877 O 376.276 0.474407 -1.90069 0
M  V30 3878 H 374.856 -0.637461 -0.389425 0
M  V30 3879 H 377.518 -1.91807 -0.345852 0
M  V30 3880 H 376.614 -2.61334 -1.70619 0
M  V30 3881 N 376.915 0.57481 -1.46744 0
M  V30 3882 C 377.862 1.68329 -1.57905 0
M  V30 3883 C 378.832 1.60625 -0.422927 0
M  V30 3884 O 380.017 1.79721 -0.640711 0
M  V30 3885 C 377.157 3.06665 -1.58274 0
M  V30 3886 C 376.27 3.24935 -2.84678 0
M  V30 3887 C 375.405 4.53566 -2.76499 0
M  V30 3888 C 374.444 4.65207 -3.97806 0
M  V30 3889 N 373.581 5.85172 -3.87967 0
M  V30 3890 H 378.421 1.58127 -2.52587 0
M  V30 3891 H 375.958 0.770552 -1.25303 0
M  V30 3892 H 377.916 3.86745 -1.56473 0
M  V30 3893 H 376.546 3.15745 -0.671194 0
M  V30 3894 H 375.598 2.38405 -2.96424 0
M  V30 3895 H 376.91 3.29403 -3.7456 0
M  V30 3896 H 376.064 5.41885 -2.72848 0
M  V30 3897 H 374.803 4.51548 -1.8427 0
M  V30 3898 H 373.808 3.75304 -4.0178 0
M  V30 3899 H 375.033 4.68997 -4.9114 0
M  V30 3900 H 372.979 5.84137 -2.98529 0
M  V30 3901 H 372.896 5.90943 -4.71511 0
M  V30 3902 H 374.164 6.759 -3.88303 0
M  V30 3903 N 378.394 1.34581 0.820102 0
M  V30 3904 C 379.622 1.3018 1.60813 0
M  V30 3905 C 380.037 -0.123551 1.88395 0
M  V30 3906 O 379.394 -1.07148 1.47735 0
M  V30 3907 C 379.445 2.09312 2.94739 0
M  V30 3908 O 379.166 3.46288 2.68358 0
M  V30 3909 C 380.667 2.1234 3.89136 0
M  V30 3910 H 377.887 0.447726 0.499782 0
M  V30 3911 H 380.431 1.77237 1.02017 0
M  V30 3912 H 378.586 1.65889 3.50085 0
M  V30 3913 H 379 3.87227 3.53774 0
M  V30 3914 H 380.474 2.72126 4.80262 0
M  V30 3915 H 380.951 1.11854 4.24718 0
M  V30 3916 H 381.557 2.55864 3.39726 0
M  V30 3917 N 379.872 -1.04064 1.18357 0
M  V30 3918 C 381.118 -1.77528 0.980397 0
M  V30 3919 C 381.451 -1.87948 -0.48879 0
M  V30 3920 O 380.726 -1.3876 -1.36293 0
M  V30 3921 C 381.009 -3.20797 1.63588 0
M  V30 3922 C 380.862 -3.1832 3.17793 0
M  V30 3923 C 382.181 -4.18911 1.34914 0
M  V30 3924 H 379.3 -0.644443 0.357578 0
M  V30 3925 H 381.942 -1.2156 1.46024 0
M  V30 3926 H 380.092 -3.68586 1.22788 0
M  V30 3927 H 381.764 -2.78521 3.67728 0
M  V30 3928 H 380.007 -2.56351 3.49952 0
M  V30 3929 H 380.678 -4.19489 3.58794 0
M  V30 3930 H 383.154 -3.7967 1.70265 0
M  V30 3931 H 382.03 -5.17374 1.83346 0
M  V30 3932 H 382.291 -4.41262 0.272027 0
M  V30 3933 N 381.35 -0.985608 -1.22978 0
M  V30 3934 C 382.599 -0.652881 -1.90841 0
M  V30 3935 C 382.912 0.817842 -1.77681 0
M  V30 3936 O 384.118 1.26185 -2.40395 0
M  V30 3937 C 382.574 -1.11717 -3.42122 0
M  V30 3938 C 382.182 -2.6126 -3.63933 0
M  V30 3939 C 383.926 -0.85843 -4.1573 0
M  V30 3940 C 381.833 -3.0133 -5.08876 0
M  V30 3941 H 380.763 -0.240491 -0.714619 0
M  V30 3942 H 383.414 -1.1942 -1.39324 0
M  V30 3943 H 381.796 -0.504027 -3.92779 0
M  V30 3944 H 382.97 -3.27858 -3.23799 0
M  V30 3945 H 381.285 -2.84937 -3.03644 0
M  V30 3946 H 383.882 -1.13359 -5.22546 0
M  V30 3947 H 384.225 0.205461 -4.15793 0
M  V30 3948 H 384.758 -1.43341 -3.71077 0
M  V30 3949 H 381.497 -4.06864 -5.13947 0
M  V30 3950 H 381.017 -2.3943 -5.49939 0
M  V30 3951 H 382.696 -2.92224 -5.77247 0
M  V30 3952 N 382.828 1.3818 -0.7579 0
M  V30 3953 C 384.053 2.04827 -0.325679 0
M  V30 3954 C 384.478 1.56788 1.03919 0
M  V30 3955 O 383.836 0.721811 1.66312 0
M  V30 3956 C 383.884 3.58774 -0.362447 0
M  V30 3957 O 382.988 4.07372 0.642033 0
M  V30 3958 H 382.329 0.64833 -0.143402 0
M  V30 3959 H 384.859 1.7677 -1.03023 0
M  V30 3960 H 384.869 4.07434 -0.214844 0
M  V30 3961 H 383.544 3.93096 -1.35824 0
M  V30 3962 H 382.121 3.70068 0.458688 0
M  V30 3963 N 384.306 0.507319 1.49211 0
M  V30 3964 C 385.238 -0.304532 2.27168 0
M  V30 3965 C 386.251 -0.924956 1.33972 0
M  V30 3966 O 387.44 -0.807227 1.59205 0
M  V30 3967 C 384.54 -1.44431 3.06583 0
M  V30 3968 C 383.713 -0.930026 4.27398 0
M  V30 3969 C 382.772 -1.94817 4.88807 0
M  V30 3970 O 381.798 -1.51418 5.4869 0
M  V30 3971 N 383 -3.279 4.79022 0
M  V30 3972 H 385.765 0.36395 2.97482 0
M  V30 3973 H 383.326 0.340249 1.58284 0
M  V30 3974 H 385.318 -2.12311 3.44537 0
M  V30 3975 H 383.888 -2.01684 2.38835 0
M  V30 3976 H 383.108 -0.0759244 3.94127 0
M  V30 3977 H 384.396 -0.564932 5.05654 0
M  V30 3978 H 383.794 -3.65843 4.3148 0
M  V30 3979 H 382.351 -3.91476 5.21142 0
M  V30 3980 N 385.784 -1.5574 0.241426 0
M  V30 3981 C 387.009 -2.0366 -0.392111 0
M  V30 3982 C 387.434 -1.11969 -1.51144 0
M  V30 3983 O 386.792 -0.111594 -1.80956 0
M  V30 3984 C 386.84 -3.49638 -0.882371 0
M  V30 3985 O 385.944 -3.6108 -1.99235 0
M  V30 3986 H 385.285 -0.658379 -0.0862122 0
M  V30 3987 H 387.815 -2.01302 0.365881 0
M  V30 3988 H 387.825 -3.90351 -1.18702 0
M  V30 3989 H 386.5 -4.15852 -0.0632361 0
M  V30 3990 H 385.077 -3.32262 -1.69282 0
M  V30 3991 N 387.262 0.0317525 -1.57568 0
M  V30 3992 C 388.192 1.03274 -2.0942 0
M  V30 3993 C 389.173 1.3788 -0.996143 0
M  V30 3994 O 390.358 1.46811 -1.27122 0
M  V30 3995 C 387.488 2.33448 -2.57137 0
M  V30 3996 C 386.442 2.13091 -3.71182 0
M  V30 3997 C 385.768 3.49001 -4.05095 0
M  V30 3998 C 387.068 1.51928 -4.99715 0
M  V30 3999 H 388.762 0.60112 -2.93303 0
M  V30 4000 H 386.308 0.287705 -1.41097 0
M  V30 4001 H 388.261 3.03802 -2.92032 0
M  V30 4002 H 386.985 2.78665 -1.70333 0
M  V30 4003 H 385.644 1.45171 -3.36632 0
M  V30 4004 H 385.292 3.91862 -3.15362 0
M  V30 4005 H 384.992 3.36207 -4.81911 0
M  V30 4006 H 386.516 4.20721 -4.42522 0
M  V30 4007 H 387.93 2.12196 -5.32584 0
M  V30 4008 H 386.327 1.49716 -5.81124 0
M  V30 4009 H 387.397 0.484811 -4.8247 0
M  V30 4010 N 388.74 1.54641 0.303973 0
M  V30 4011 C 389.965 1.78092 1.06292 0
M  V30 4012 C 390.39 0.537342 1.80262 0
M  V30 4013 O 389.748 -0.511993 1.7392 0
M  V30 4014 C 389.796 2.98612 2.02147 0
M  V30 4015 O 388.9 2.71528 3.10397 0
M  V30 4016 H 388.241 0.589548 0.305497 0
M  V30 4017 H 390.771 2.01716 0.3423 0
M  V30 4018 H 390.781 3.265 2.44667 0
M  V30 4019 H 389.456 3.88785 1.47714 0
M  V30 4020 H 388.033 2.54648 2.72413 0
M  V30 4021 N 390.218 -0.567019 1.47046 0
M  V30 4022 C 391.165 -1.67489 1.58796 0
M  V30 4023 C 392.135 -1.60399 0.43144 0
M  V30 4024 O 393.32 -1.79378 0.650233 0
M  V30 4025 C 390.46 -3.05821 1.59899 0
M  V30 4026 C 389.573 -3.2342 2.86397 0
M  V30 4027 C 388.708 -4.52093 2.789 0
M  V30 4028 C 387.747 -4.6309 4.00267 0
M  V30 4029 N 386.884 -5.83106 3.91064 0
M  V30 4030 H 391.724 -1.56785 2.53422 0
M  V30 4031 H 389.261 -0.763896 1.2571 0
M  V30 4032 H 391.219 -3.8591 1.58522 0
M  V30 4033 H 389.849 -3.15384 0.687929 0
M  V30 4034 H 388.901 -2.3683 2.97684 0
M  V30 4035 H 390.213 -3.27412 3.76301 0
M  V30 4036 H 389.367 -5.4043 2.75718 0
M  V30 4037 H 388.106 -4.50565 1.86662 0
M  V30 4038 H 387.111 -3.73168 4.03765 0
M  V30 4039 H 388.336 -4.66386 4.93621 0
M  V30 4040 H 386.282 -5.82546 3.01623 0
M  V30 4041 H 386.199 -5.88434 4.74638 0
M  V30 4042 H 387.467 -6.73831 3.91882 0
M  V30 4043 N 391.696 -1.35014 -0.812953 0
M  V30 4044 C 392.926 -1.30841 -1.59888 0
M  V30 4045 C 393.334 0.117576 -1.88834 0
M  V30 4046 O 392.677 1.07807 -1.48739 0
M  V30 4047 C 392.739 -2.0412 -2.95931 0
M  V30 4048 C 392.403 -3.53336 -2.89832 0
M  V30 4049 C 393.4 -4.48052 -2.63714 0
M  V30 4050 C 391.085 -3.95894 -3.0915 0
M  V30 4051 C 393.079 -5.833 -2.56982 0
M  V30 4052 C 390.766 -5.31239 -3.0204 0
M  V30 4053 C 391.764 -6.24754 -2.75991 0
M  V30 4054 O 391.452 -7.57617 -2.68833 0
M  V30 4055 H 391.184 -0.451215 -0.50337 0
M  V30 4056 H 393.738 -1.78354 -1.01877 0
M  V30 4057 H 391.968 -1.51235 -3.559 0
M  V30 4058 H 393.657 -1.93107 -3.57022 0
M  V30 4059 H 394.423 -4.16492 -2.48515 0
M  V30 4060 H 390.302 -3.23495 -3.28438 0
M  V30 4061 H 393.846 -6.56263 -2.36569 0
M  V30 4062 H 389.743 -5.62415 -3.16796 0
M  V30 4063 H 390.511 -7.67469 -2.84487 0
M  V30 4064 N 393.175 1.03435 -1.18907 0
M  V30 4065 C 394.4 1.80919 -1.01406 0
M  V30 4066 C 394.825 1.83055 0.432721 0
M  V30 4067 O 394.183 1.25252 1.31079 0
M  V30 4068 C 394.231 3.24091 -1.58105 0
M  V30 4069 O 393.335 4.04434 -0.806669 0
M  V30 4070 H 392.676 0.558709 -0.358803 0
M  V30 4071 H 395.206 1.30223 -1.57807 0
M  V30 4072 H 395.216 3.74853 -1.61087 0
M  V30 4073 H 393.891 3.21851 -2.6341 0
M  V30 4074 H 392.468 3.63091 -0.849666 0
M  V30 4075 N 394.653 0.992116 1.22453 0
M  V30 4076 C 395.601 0.534644 2.26372 0
M  V30 4077 C 396.595 -0.414293 1.64256 0
M  V30 4078 O 397.801 -0.286899 1.77699 0
M  V30 4079 H 394.176 0.154502 0.735957 0
M  V30 4080 H 396.147 1.42256 2.62309 0
M  V30 4081 C 394.896 -0.135815 3.47435 0
M  V30 4082 H 394.219 0.585311 3.95492 0
M  V30 4083 H 395.659 -0.419374 4.21921 0
M  V30 4084 C 394.118 -1.37089 3.07747 0
M  V30 4085 O 394.648 -2.46629 3.17076 0
M  V30 4086 N 392.854 -1.24585 2.62539 0
M  V30 4087 H 392.401 -0.354542 2.55149 0
M  V30 4088 H 392.359 -2.07327 2.36353 0
M  V30 4089 N 396.131 -1.37776 0.765217 0
M  V30 4090 C 397.356 -2.04651 0.336537 0
M  V30 4091 C 397.781 -1.57337 -1.03086 0
M  V30 4092 O 397.139 -0.730621 -1.65927 0
M  V30 4093 C 397.187 -3.58577 0.381468 0
M  V30 4094 O 396.291 -4.07706 -0.62042 0
M  V30 4095 H 395.632 -0.64756 0.146838 0
M  V30 4096 H 398.162 -1.76221 1.03959 0
M  V30 4097 H 398.172 -4.07314 0.236448 0
M  V30 4098 H 396.847 -3.9237 1.37907 0
M  V30 4099 H 395.424 -3.70306 -0.439056 0
M  V30 4100 N 397.609 -0.515225 -1.4894 0
M  V30 4101 C 398.886 0.0879088 -1.95402 0
M  V30 4102 C 399.266 1.52745 -1.45712 0
M  V30 4103 O 398.614 2.18238 -0.677093 0
M  V30 4104 C 398.824 -0.0141055 -3.48997 0
M  V30 4105 C 400.172 0.152646 -4.24326 0
M  V30 4106 O 401.196 0.0604025 -3.56149 0
M  V30 4107 O 400.055 0.34384 -5.45417 0
M  V30 4108 H 397.149 0.0874636 -0.822362 0
M  V30 4109 H 399.695 -0.578775 -1.59525 0
M  V30 4110 H 398.467 -1.01745 -3.77841 0
M  V30 4111 H 398.09 0.692091 -3.9153 0
M  V30 4112 N 399.087 1.5561 -0.249682 0
M  V30 4113 C 400.333 1.99306 0.374841 0
M  V30 4114 C 400.666 1.13767 1.57387 0
M  V30 4115 O 399.941 0.201711 1.93451 0
M  V30 4116 C 400.224 3.51507 0.781986 0
M  V30 4117 C 400.077 4.4781 -0.422629 0
M  V30 4118 C 401.396 4.08884 1.62793 0
M  V30 4119 H 398.515 0.724572 0.134773 0
M  V30 4120 H 401.157 1.86719 -0.351549 0
M  V30 4121 H 399.307 3.62363 1.4009 0
M  V30 4122 H 400.979 4.48931 -1.06108 0
M  V30 4123 H 399.222 4.20518 -1.06524 0
M  V30 4124 H 399.893 5.51919 -0.0943766 0
M  V30 4125 H 402.369 4.01147 1.10547 0
M  V30 4126 H 401.245 5.1564 1.88166 0
M  V30 4127 H 401.506 3.57515 2.60068 0
M  V30 4128 N 400.565 -0.0233959 1.57583 0
M  V30 4129 C 401.814 -0.712133 1.8871 0
M  V30 4130 C 402.127 -1.76217 0.848944 0
M  V30 4131 O 403.333 -2.50389 1.04964 0
M  V30 4132 C 401.789 -1.3177 3.3491 0
M  V30 4133 C 401.397 -0.303715 4.46969 0
M  V30 4134 C 403.141 -1.98598 3.75179 0
M  V30 4135 C 401.048 -0.917945 5.84233 0
M  V30 4136 H 399.978 -0.269735 0.704101 0
M  V30 4137 H 402.629 0.0333114 1.8347 0
M  V30 4138 H 401.011 -2.11304 3.34913 0
M  V30 4139 H 402.185 0.465325 4.58445 0
M  V30 4140 H 400.5 0.2628 4.1557 0
M  V30 4141 H 403.097 -2.45416 4.75053 0
M  V30 4142 H 403.44 -2.80659 3.07468 0
M  V30 4143 H 403.973 -1.25831 3.77374 0
M  V30 4144 H 400.712 -0.136633 6.55358 0
M  V30 4145 H 400.232 -1.65669 5.76467 0
M  V30 4146 H 401.911 -1.4236 6.31144 0
M  V30 4147 N 402.043 -1.548 -0.295768 0
M  V30 4148 C 403.292 -1.73538 -1.02798 0
M  V30 4149 C 403.605 -0.531159 -1.8825 0
M  V30 4150 O 404.811 -0.600458 -2.64777 0
M  V30 4151 C 403.267 -3.07051 -1.87744 0
M  V30 4152 C 402.875 -4.34968 -1.07269 0
M  V30 4153 C 404.619 -3.35146 -2.60533 0
M  V30 4154 C 402.526 -5.5953 -1.91521 0
M  V30 4155 H 401.456 -0.646794 -0.387522 0
M  V30 4156 H 404.107 -1.81278 -0.284718 0
M  V30 4157 H 402.489 -2.93289 -2.66078 0
M  V30 4158 H 403.663 -4.5958 -0.335117 0
M  V30 4159 H 401.978 -4.13847 -0.460384 0
M  V30 4160 H 404.575 -4.2541 -3.23929 0
M  V30 4161 H 404.918 -2.54255 -3.29636 0
M  V30 4162 H 405.451 -3.49902 -1.89244 0
M  V30 4163 H 402.19 -6.43103 -1.26878 0
M  V30 4164 H 401.71 -5.39096 -2.62937 0
M  V30 4165 H 403.389 -5.96982 -2.49442 0
M  V30 4166 N 403.521 0.559213 -1.47345 0
M  V30 4167 C 404.751 1.33999 -1.57251 0
M  V30 4168 C 405.159 1.87905 -0.220978 0
M  V30 4169 O 404.502 1.65577 0.795617 0
M  V30 4170 C 404.564 2.54798 -2.53611 0
M  V30 4171 C 404.228 2.22192 -3.99349 0
M  V30 4172 C 405.225 1.79607 -4.87891 0
M  V30 4173 C 402.91 2.33613 -4.44669 0
M  V30 4174 C 404.904 1.48868 -6.19772 0
M  V30 4175 C 402.591 2.02487 -5.76578 0
M  V30 4176 C 403.589 1.60183 -6.63951 0
M  V30 4177 O 403.277 1.29451 -7.93409 0
M  V30 4178 H 403.009 0.414858 -0.533731 0
M  V30 4179 H 405.563 0.684465 -1.9366 0
M  V30 4180 H 403.793 3.23235 -2.12265 0
M  V30 4181 H 405.482 3.16873 -2.53666 0
M  V30 4182 H 406.248 1.70278 -4.54126 0
M  V30 4183 H 402.127 2.65501 -3.76869 0
M  V30 4184 H 405.671 1.15775 -6.87926 0
M  V30 4185 H 401.568 2.11448 -6.09885 0
M  V30 4186 H 402.336 1.43098 -8.05894 0
M  V30 4187 N 404.999 1.35443 0.805782 0
M  V30 4188 C 406.245 1.28952 1.56522 0
M  V30 4189 C 406.578 -0.135597 1.93726 0
M  V30 4190 O 405.853 -1.08516 1.61414 0
M  V30 4191 C 406.136 2.19678 2.85331 0
M  V30 4192 C 405.989 3.7081 2.54598 0
M  V30 4193 C 407.308 2.09495 3.8704 0
M  V30 4194 H 404.427 0.469764 0.567883 0
M  V30 4195 H 407.069 1.65851 0.927001 0
M  V30 4196 H 405.219 1.8834 3.39795 0
M  V30 4197 H 406.891 4.12593 2.06312 0
M  V30 4198 H 405.134 3.91051 1.8778 0
M  V30 4199 H 405.805 4.29679 3.46525 0
M  V30 4200 H 408.281 2.37045 3.41978 0
M  V30 4201 H 407.157 2.75173 4.74943 0
M  V30 4202 H 407.418 1.07714 4.28777 0
M  V30 4203 N 406.477 -1.02803 1.19454 0
M  V30 4204 C 407.725 -1.75869 0.995722 0
M  V30 4205 C 408.046 -1.89138 -0.474543 0
M  V30 4206 O 407.316 -1.42558 -1.34366 0
M  V30 4207 H 405.896 -0.651511 0.365435 0
M  V30 4208 H 408.558 -1.24004 1.50363 0
M  V30 4209 H 407.654 -2.76661 1.44447 0
M  V30 4210 N 407.956 -0.998596 -1.21925 0
M  V30 4211 C 409.196 -0.685948 -1.92546 0
M  V30 4212 C 409.56 0.768441 -1.75952 0
M  V30 4213 O 410.761 1.19277 -2.40887 0
M  V30 4214 C 409.032 -1.08767 -3.40448 0
M  V30 4215 S 410.591 -0.894251 -4.29591 0
M  V30 4216 H 407.409 -0.250622 -0.665364 0
M  V30 4217 H 410.011 -1.28207 -1.47591 0
M  V30 4218 H 408.715 -2.14242 -3.50041 0
M  V30 4219 H 408.246 -0.48357 -3.90417 0
M  V30 4220 H 410.261 0.212149 -4.95746 0
M  V30 4221 N 409.434 1.37368 -0.772513 0
M  V30 4222 C 410.682 1.99279 -0.336516 0
M  V30 4223 C 411.003 1.6163 1.09091 0
M  V30 4224 O 410.273 0.882109 1.74916 0
M  V30 4225 H 408.853 0.737063 -0.121435 0
M  V30 4226 H 411.515 1.67836 -0.990809 0
M  V30 4227 H 410.611 3.09332 -0.414763 0
M  V30 4228 N 410.912 0.523116 1.48665 0
M  V30 4229 C 411.822 -0.247406 2.33292 0
M  V30 4230 C 412.838 -0.945769 1.46052 0
M  V30 4231 O 414.014 -0.922253 1.79043 0
M  V30 4232 C 411.079 -1.28487 3.22012 0
M  V30 4233 C 410.14 -0.597592 4.2512 0
M  V30 4234 C 409.373 -1.58563 5.09601 0
M  V30 4235 O 409.596 -2.81763 4.95949 0
M  V30 4236 O 408.53 -1.12879 5.91221 0
M  V30 4237 H 412.356 0.445869 3.00409 0
M  V30 4238 H 409.941 0.284128 1.46673 0
M  V30 4239 H 411.823 -1.88459 3.7691 0
M  V30 4240 H 410.498 -1.96068 2.57564 0
M  V30 4241 H 409.405 0.0424407 3.74076 0
M  V30 4242 H 410.738 0.0361517 4.92187 0
M  V30 4243 N 412.39 -1.55475 0.257931 0
M  V30 4244 C 413.806 -1.59307 -0.0966563 0
M  V30 4245 C 414.006 -1.27514 -1.5602 0
M  V30 4246 O 413.062 -1.02774 -2.30637 0
M  V30 4247 C 414.375 -2.99552 0.262481 0
M  V30 4248 C 415.923 -3.1231 0.207683 0
M  V30 4249 C 416.398 -4.54793 0.541012 0
M  V30 4250 N 417.889 -4.6058 0.491921 0
M  V30 4251 C 418.624 -5.68825 0.722857 0
M  V30 4252 N 418.12 -6.85287 1.0175 0
M  V30 4253 N 419.913 -5.58296 0.652815 0
M  V30 4254 H 412.064 -1.74409 1.21224 0
M  V30 4255 H 414.327 -0.812424 0.48854 0
M  V30 4256 H 414.033 -3.27593 1.27967 0
M  V30 4257 H 413.907 -3.75019 -0.40508 0
M  V30 4258 H 416.294 -2.84044 -0.800195 0
M  V30 4259 H 416.375 -2.39095 0.909255 0
M  V30 4260 H 416.019 -4.83783 1.5465 0
M  V30 4261 H 415.949 -5.26285 -0.18216 0
M  V30 4262 H 418.44 -3.7691 0.273366 0
M  V30 4263 H 418.753 -7.63725 1.18084 0
M  V30 4264 H 417.098 -6.86945 1.05509 0
M  V30 4265 H 420.289 -4.66189 0.422592 0
M  V30 4266 H 420.462 -6.42582 0.836182 0
M  V30 4267 N 413.868 0.0150385 -1.57593 0
M  V30 4268 C 415.116 0.701613 -1.8953 0
M  V30 4269 C 415.437 1.75139 -0.857396 0
M  V30 4270 O 414.707 1.95607 0.107194 0
M  V30 4271 H 413.287 0.26213 -0.699498 0
M  V30 4272 H 415.949 -0.0223304 -1.94887 0
M  V30 4273 H 415.045 1.18236 -2.88837 0
M  V30 4274 N 415.346 1.54954 0.287554 0
M  V30 4275 C 416.294 1.87606 1.37502 0
M  V30 4276 C 417.288 0.751001 1.51843 0
M  V30 4277 O 418.494 0.935169 1.53801 0
M  V30 4278 H 414.869 0.595231 0.459569 0
M  V30 4279 H 416.84 2.78477 1.07206 0
M  V30 4280 C 415.589 2.15183 2.73115 0
M  V30 4281 H 414.912 3.01234 2.62866 0
M  V30 4282 H 416.352 2.4196 3.48183 0
M  V30 4283 C 414.811 0.954686 3.2309 0
M  V30 4284 O 415.341 0.181949 4.01288 0
M  V30 4285 N 413.547 0.756368 2.80584 0
M  V30 4286 H 413.094 1.38643 2.17108 0
M  V30 4287 H 413.052 -0.0430391 3.14371 0
M  V30 4288 N 416.824 -0.551391 1.4764 0
M  V30 4289 C 417.734 -1.68525 1.63207 0
M  V30 4290 C 418.75 -1.6621 0.514815 0
M  V30 4291 O 419.926 -1.85551 0.783113 0
M  V30 4292 C 416.991 -3.05025 1.64805 0
M  V30 4293 C 416.052 -3.18362 2.88 0
M  V30 4294 C 415.285 -4.4835 2.89513 0
M  V30 4295 O 415.508 -5.34163 2.00065 0
M  V30 4296 O 414.442 -4.65602 3.81443 0
M  V30 4297 H 418.268 -1.58333 2.59161 0
M  V30 4298 H 415.853 -0.722063 1.30792 0
M  V30 4299 H 417.735 -3.86245 1.68502 0
M  V30 4300 H 416.41 -3.15587 0.720197 0
M  V30 4301 H 415.317 -2.36518 2.89845 0
M  V30 4302 H 416.65 -3.12707 3.80099 0
M  V30 4303 N 418.302 -1.35869 -0.798587 0
M  V30 4304 C 419.235 -1.23801 -1.91699 0
M  V30 4305 C 420.213 -0.124143 -1.62125 0
M  V30 4306 O 421.397 -0.293656 -1.86199 0
M  V30 4307 C 418.524 -0.908063 -3.263 0
M  V30 4308 C 417.57 -2.0351 -3.74815 0
M  V30 4309 S 418.403 -3.65183 -3.91665 0
M  V30 4310 C 419.559 -3.34283 -5.29156 0
M  V30 4311 H 419.792 -2.18466 -2.01643 0
M  V30 4312 H 417.325 -1.21178 -0.956833 0
M  V30 4313 H 419.283 -0.724506 -4.04056 0
M  V30 4314 H 417.944 0.0206584 -3.14093 0
M  V30 4315 H 417.137 -1.75858 -4.72324 0
M  V30 4316 H 416.739 -2.1774 -3.04081 0
M  V30 4317 H 419.031 -2.87607 -6.13424 0
M  V30 4318 H 419.974 -4.31022 -5.61806 0
M  V30 4319 H 420.382 -2.69854 -4.95822 0
M  V30 4320 N 419.78 1.02168 -1.19998 0
M  V30 4321 C 421.005 1.79833 -1.03319 0
M  V30 4322 C 421.43 1.83504 0.413281 0
M  V30 4323 O 420.788 1.26635 1.29743 0
M  V30 4324 C 420.836 3.22396 -1.61533 0
M  V30 4325 O 419.94 4.03555 -0.849519 0
M  V30 4326 H 419.281 0.554872 -0.364709 0
M  V30 4327 H 421.811 1.28542 -1.59179 0
M  V30 4328 H 421.821 3.73124 -1.65054 0
M  V30 4329 H 420.496 3.19039 -2.66809 0
M  V30 4330 H 419.073 3.62169 -0.888129 0
M  V30 4331 N 421.258 1.00505 1.21394 0
M  V30 4332 C 422.168 0.574806 2.27449 0
M  V30 4333 C 423.184 -0.382206 1.6975 0
M  V30 4334 O 424.36 -0.246027 1.99892 0
M  V30 4335 C 421.425 -0.0917414 3.46579 0
M  V30 4336 C 420.486 0.909758 4.1955 0
M  V30 4337 C 419.719 0.274924 5.32991 0
M  V30 4338 O 419.942 -0.928254 5.62796 0
M  V30 4339 O 418.876 0.985877 5.93771 0
M  V30 4340 H 422.702 1.45744 2.66444 0
M  V30 4341 H 420.287 0.773923 1.27792 0
M  V30 4342 H 422.169 -0.464551 4.18832 0
M  V30 4343 H 420.844 -0.948755 3.09484 0
M  V30 4344 H 419.751 1.33372 3.49518 0
M  V30 4345 H 421.084 1.73636 4.60555 0
M  V30 4346 N 422.737 -1.36956 0.779787 0
M  V30 4347 C 423.983 -1.99787 0.348281 0
M  V30 4348 C 424.316 -1.61756 -1.07465 0
M  V30 4349 O 423.591 -0.867639 -1.74075 0
M  V30 4350 C 423.874 -3.56597 0.50104 0
M  V30 4351 C 423.727 -4.04513 1.96697 0
M  V30 4352 C 425.046 -4.40008 -0.0898097 0
M  V30 4353 H 422.165 -0.725796 0.128022 0
M  V30 4354 H 424.807 -1.62514 0.984331 0
M  V30 4355 H 422.957 -3.88479 -0.0404347 0
M  V30 4356 H 424.629 -3.83161 2.56876 0
M  V30 4357 H 422.872 -3.56408 2.47297 0
M  V30 4358 H 423.543 -5.1352 2.02486 0
M  V30 4359 H 426.019 -4.14431 0.372293 0
M  V30 4360 H 424.895 -5.4888 0.0471605 0
M  V30 4361 H 425.156 -4.26035 -1.18096 0
M  V30 4362 N 424.215 -0.530993 -1.48385 0
M  V30 4363 C 425.145 0.219985 -2.32461 0
M  V30 4364 C 426.126 0.934111 -1.42156 0
M  V30 4365 O 427.311 0.919694 -1.71042 0
M  V30 4366 C 424.441 1.26674 -3.23375 0
M  V30 4367 C 423.395 0.67069 -4.22712 0
M  V30 4368 C 422.721 1.82017 -5.02766 0
M  V30 4369 C 424.021 -0.358268 -5.2107 0
M  V30 4370 H 425.715 -0.48187 -2.95497 0
M  V30 4371 H 423.261 -0.233182 -1.42099 0
M  V30 4372 H 425.214 1.80006 -3.81019 0
M  V30 4373 H 423.938 1.99818 -2.58341 0
M  V30 4374 H 422.597 0.158878 -3.66256 0
M  V30 4375 H 422.245 2.54002 -4.34157 0
M  V30 4376 H 421.945 1.42727 -5.70003 0
M  V30 4377 H 423.469 2.35725 -5.63264 0
M  V30 4378 H 424.883 0.0880081 -5.73232 0
M  V30 4379 H 423.28 -0.66861 -5.96364 0
M  V30 4380 H 424.35 -1.26367 -4.68145 0
M  V30 4381 N 425.693 1.55336 -0.266172 0
M  V30 4382 C 427.109 1.59356 0.0882065 0
M  V30 4383 C 427.309 1.2834 1.55342 0
M  V30 4384 O 426.365 1.03996 2.30089 0
M  V30 4385 C 427.678 2.99409 -0.278364 0
M  V30 4386 C 429.226 3.12196 -0.224243 0
M  V30 4387 C 429.701 4.545 -0.565123 0
M  V30 4388 N 431.192 4.60313 -0.51634 0
M  V30 4389 C 431.927 5.68434 -0.753013 0
M  V30 4390 N 431.423 6.84738 -1.05383 0
M  V30 4391 N 433.216 5.57942 -0.682414 0
M  V30 4392 H 425.367 1.73764 -1.22147 0
M  V30 4393 H 427.63 0.809822 -0.492841 0
M  V30 4394 H 427.336 3.2691 -1.29703 0
M  V30 4395 H 427.21 3.75228 0.385186 0
M  V30 4396 H 429.597 2.84464 0.78512 0
M  V30 4397 H 429.678 2.38609 -0.921922 0
M  V30 4398 H 429.322 4.82956 -1.57213 0
M  V30 4399 H 429.252 5.26374 0.154248 0
M  V30 4400 H 431.743 3.7676 -0.29335 0
M  V30 4401 H 432.056 7.63088 -1.22133 0
M  V30 4402 H 430.401 6.86375 -1.09151 0
M  V30 4403 H 433.592 4.65958 -0.44731 0
M  V30 4404 H 433.765 6.4213 -0.870248 0
M  V30 4405 N 427.171 -0.0066808 1.57599 0
M  V30 4406 C 428.448 -0.729586 1.81484 0
M  V30 4407 C 428.828 -1.92359 0.869558 0
M  V30 4408 O 428.176 -2.28348 -0.0832533 0
M  V30 4409 C 428.386 -1.1416 3.29801 0
M  V30 4410 C 429.734 -1.54823 3.95367 0
M  V30 4411 O 430.758 -1.23558 3.34084 0
M  V30 4412 O 429.617 -2.12937 5.03309 0
M  V30 4413 H 426.711 -0.354674 0.747085 0
M  V30 4414 H 429.257 0.0182609 1.6969 0
M  V30 4415 H 428.029 -0.290231 3.90222 0
M  V30 4416 H 427.652 -1.94876 3.46568 0
M  V30 4417 N 428.649 -1.55105 -0.279332 0
M  V30 4418 C 429.896 -1.75412 -1.01177 0
M  V30 4419 C 430.224 -0.551728 -1.86511 0
M  V30 4420 O 429.479 0.465919 -1.90073 0
M  V30 4421 C 429.778 -3.0086 -1.92919 0
M  V30 4422 C 429.444 -4.33689 -1.23387 0
M  V30 4423 C 428.106 -4.69792 -1.04159 0
M  V30 4424 C 430.458 -5.15941 -0.738562 0
M  V30 4425 C 427.786 -5.85707 -0.341166 0
M  V30 4426 C 430.138 -6.32579 -0.0517636 0
M  V30 4427 C 428.802 -6.67326 0.152292 0
M  V30 4428 H 428.072 -0.641879 -0.370233 0
M  V30 4429 H 430.719 -1.89373 -0.284627 0
M  V30 4430 H 429.024 -2.81773 -2.72234 0
M  V30 4431 H 430.721 -3.13768 -2.49701 0
M  V30 4432 H 427.311 -4.05309 -1.39364 0
M  V30 4433 H 431.495 -4.8853 -0.874764 0
M  V30 4434 H 426.751 -6.11157 -0.172287 0
M  V30 4435 H 430.925 -6.9557 0.339828 0
M  V30 4436 H 428.552 -7.56998 0.697014 0
M  V30 4437 N 430.127 0.543554 -1.4793 0
M  V30 4438 C 431.538 1.12561 -1.48953 0
M  V30 4439 C 431.889 1.94578 -0.251754 0
M  V30 4440 O 431.014 2.0665 0.642255 0
M  V30 4441 C 431.609 2.04801 -2.69892 0
M  V30 4442 C 430.168 2.58251 -2.73831 0
M  V30 4443 C 429.315 1.34918 -2.42265 0
M  V30 4444 H 432.266 0.32947 -1.55242 0
M  V30 4445 H 432.287 2.88886 -2.47639 0
M  V30 4446 H 431.799 1.4508 -3.59963 0
M  V30 4447 H 429.9 3.21732 -1.87934 0
M  V30 4448 H 430.013 2.98312 -3.74895 0
M  V30 4449 H 428.377 1.66046 -1.93134 0
M  V30 4450 H 429.16 0.769693 -3.3456 0
M  V30 4451 N 431.605 1.3629 0.791371 0
M  V30 4452 C 432.515 1.32606 1.93527 0
M  V30 4453 C 433.531 0.228541 1.72493 0
M  V30 4454 O 434.707 0.460571 1.96063 0
M  V30 4455 C 431.772 1.11271 3.28359 0
M  V30 4456 C 430.833 2.3048 3.62185 0
M  V30 4457 C 430.066 2.10154 4.90583 0
M  V30 4458 O 430.289 1.07572 5.60165 0
M  V30 4459 O 429.223 2.97884 5.23019 0
M  V30 4460 H 433.049 2.28909 1.99585 0
M  V30 4461 H 430.634 1.16818 0.931344 0
M  V30 4462 H 432.516 1.01283 4.09047 0
M  V30 4463 H 431.191 0.180292 3.23198 0
M  V30 4464 H 430.098 2.46036 2.81811 0
M  V30 4465 H 431.431 3.22221 3.72068 0
M  V30 4466 N 433.083 -1.0153 1.20538 0
M  V30 4467 C 434.013 -2.11972 0.979295 0
M  V30 4468 C 434.994 -1.6985 -0.0921787 0
M  V30 4469 O 436.179 -1.94089 0.0655932 0
M  V30 4470 C 433.309 -3.43201 0.531984 0
M  V30 4471 C 432.263 -3.9907 1.54685 0
M  V30 4472 C 431.589 -5.26082 0.956127 0
M  V30 4473 C 432.889 -4.32313 2.93092 0
M  V30 4474 H 434.583 -2.31143 1.90298 0
M  V30 4475 H 432.129 -1.11079 0.916372 0
M  V30 4476 H 434.082 -4.1985 0.361044 0
M  V30 4477 H 432.806 -3.23792 -0.427327 0
M  V30 4478 H 431.465 -3.2453 1.70517 0
M  V30 4479 H 431.113 -5.02999 -0.0111538 0
M  V30 4480 H 430.813 -5.64426 1.63393 0
M  V30 4481 H 432.337 -6.05386 0.796284 0
M  V30 4482 H 433.751 -4.99845 2.80763 0
M  V30 4483 H 432.148 -4.81774 3.57791 0
M  V30 4484 H 433.218 -3.41025 3.44717 0
M  V30 4485 N 434.561 -1.01147 -1.20859 0
M  V30 4486 C 435.789 -0.716911 -1.94082 0
M  V30 4487 C 436.204 0.721568 -1.74467 0
M  V30 4488 O 435.561 1.48889 -1.05539 0
M  V30 4489 C 435.612 -1.03662 -3.46318 0
M  V30 4490 O 435.333 -2.4186 -3.65288 0
M  V30 4491 C 436.834 -0.762386 -4.36695 0
M  V30 4492 H 434.054 -0.26367 -0.617024 0
M  V30 4493 H 436.598 -1.35127 -1.53496 0
M  V30 4494 H 434.753 -0.447757 -3.84804 0
M  V30 4495 H 435.167 -2.53224 -4.59323 0
M  V30 4496 H 436.641 -1.03621 -5.42187 0
M  V30 4497 H 437.118 0.303514 -4.3815 0
M  V30 4498 H 437.724 -1.33316 -4.03865 0
M  V30 4499 N 436.039 1.36541 -0.78704 0
M  V30 4500 C 436.972 2.27831 -0.129765 0
M  V30 4501 C 437.95 1.47105 0.692732 0
M  V30 4502 O 439.134 1.7641 0.664222 0
M  V30 4503 C 436.261 3.28577 0.821883 0
M  V30 4504 C 435.307 4.26422 0.0814771 0
M  V30 4505 S 436.14 5.20919 -1.24112 0
M  V30 4506 C 437.296 6.25212 -0.293409 0
M  V30 4507 H 437.529 2.83229 -0.903811 0
M  V30 4508 H 435.062 1.43046 -0.581144 0
M  V30 4509 H 437.02 3.87123 1.3655 0
M  V30 4510 H 435.681 2.72096 1.56916 0
M  V30 4511 H 434.874 4.97554 0.803485 0
M  V30 4512 H 434.476 3.71944 -0.391589 0
M  V30 4513 H 436.768 6.75435 0.528622 0
M  V30 4514 H 437.711 7.01378 -0.973344 0
M  V30 4515 H 438.119 5.64407 0.102196 0
M  V30 4516 N 437.518 0.538854 1.48102 0
M  V30 4517 C 438.428 -0.222648 2.33541 0
M  V30 4518 C 439.444 -0.930225 1.47047 0
M  V30 4519 O 440.62 -0.903211 1.80011 0
M  V30 4520 C 437.685 -1.25064 3.23357 0
M  V30 4521 C 436.746 -0.552469 4.2573 0
M  V30 4522 C 435.979 -1.53149 5.11254 0
M  V30 4523 O 436.202 -2.76487 4.9891 0
M  V30 4524 O 435.136 -1.06602 5.92385 0
M  V30 4525 H 438.962 0.477707 2.99919 0
M  V30 4526 H 436.547 0.299669 1.46364 0
M  V30 4527 H 438.429 -1.8445 3.78888 0
M  V30 4528 H 437.104 -1.93325 2.59629 0
M  V30 4529 H 436.011 0.082114 3.7401 0
M  V30 4530 H 437.344 0.0883526 4.92121 0
M  V30 4531 N 438.996 -1.55193 0.274407 0
M  V30 4532 C 440.242 -1.99877 -0.343086 0
M  V30 4533 C 440.575 -1.16256 -1.55558 0
M  V30 4534 O 439.85 -0.232462 -1.93106 0
M  V30 4535 C 440.133 -3.52706 -0.725965 0
M  V30 4536 C 439.986 -4.47081 0.493818 0
M  V30 4537 C 441.305 -4.11422 -1.56268 0
M  V30 4538 H 438.424 -0.726625 -0.123229 0
M  V30 4539 H 441.066 -1.86136 0.38121 0
M  V30 4540 H 439.216 -3.64546 -1.34307 0
M  V30 4541 H 440.888 -4.47186 1.13237 0
M  V30 4542 H 439.131 -4.1877 1.13201 0
M  V30 4543 H 439.802 -5.51699 0.18217 0
M  V30 4544 H 442.278 -4.02855 -1.04151 0
M  V30 4545 H 441.154 -5.18568 -1.79939 0
M  V30 4546 H 441.415 -3.61607 -2.54348 0
M  V30 4547 N 440.474 -0.00167713 -1.576 0
M  V30 4548 C 441.751 0.719951 -1.81868 0
M  V30 4549 C 442.131 1.91895 -0.879747 0
M  V30 4550 O 441.479 2.28389 0.0711423 0
M  V30 4551 C 441.689 1.12409 -3.30402 0
M  V30 4552 C 443.037 1.52724 -3.96182 0
M  V30 4553 O 444.061 1.21784 -3.34734 0
M  V30 4554 O 442.92 2.10265 -5.04431 0
M  V30 4555 H 440.014 0.350707 -0.748955 0
M  V30 4556 H 442.56 -0.0272597 -1.69678 0
M  V30 4557 H 441.332 0.269532 -3.90371 0
M  V30 4558 H 440.955 1.93035 -3.47596 0
M  V30 4559 N 441.952 1.55251 0.271103 0
M  V30 4560 C 443.2 1.75599 1.00047 0
M  V30 4561 C 443.521 0.561188 1.8675 0
M  V30 4562 O 442.791 -0.423846 1.9126 0
M  V30 4563 H 441.371 0.647562 0.372387 0
M  V30 4564 H 444.033 1.92656 0.294876 0
M  V30 4565 H 443.129 2.65766 1.6363 0
M  V30 4566 N 443.43 -0.535701 1.48216 0
M  V30 4567 C 444.377 -1.64083 1.62312 0
M  V30 4568 C 445.347 -1.59448 0.465365 0
M  V30 4569 O 446.532 -1.77959 0.688135 0
M  V30 4570 C 443.672 -3.0236 1.66349 0
M  V30 4571 C 442.785 -3.17273 2.93193 0
M  V30 4572 C 441.92 -4.46075 2.88427 0
M  V30 4573 C 440.959 -4.54496 4.1 0
M  V30 4574 N 440.096 -5.7468 4.03345 0
M  V30 4575 H 444.936 -1.51374 2.5669 0
M  V30 4576 H 442.473 -0.737059 1.27302 0
M  V30 4577 H 444.431 -3.82461 1.66672 0
M  V30 4578 H 443.061 -3.13854 0.754672 0
M  V30 4579 H 442.113 -2.30462 3.02641 0
M  V30 4580 H 443.425 -3.19357 3.83162 0
M  V30 4581 H 442.579 -5.3446 2.87119 0
M  V30 4582 H 441.318 -4.46504 1.96177 0
M  V30 4583 H 440.323 -3.64519 4.11589 0
M  V30 4584 H 441.548 -4.5581 5.03402 0
M  V30 4585 H 439.494 -5.76017 3.13912 0
M  V30 4586 H 439.411 -5.78234 4.87013 0
M  V30 4587 H 440.679 -6.65367 4.06087 0
M  V30 4588 N 444.908 -1.36708 -0.784132 0
M  V30 4589 C 446.154 -1.31426 -1.54451 0
M  V30 4590 C 446.487 0.10476 -1.93917 0
M  V30 4591 O 445.762 1.05934 -1.6312 0
M  V30 4592 C 446.045 -2.24189 -2.818 0
M  V30 4593 C 445.898 -3.74813 -2.48667 0
M  V30 4594 C 447.217 -2.15626 -3.83658 0
M  V30 4595 H 444.336 -0.478739 -0.560337 0
M  V30 4596 H 446.978 -1.67305 -0.900498 0
M  V30 4597 H 445.128 -1.93722 -3.36755 0
M  V30 4598 H 446.8 -4.15823 -1.99722 0
M  V30 4599 H 445.043 -3.93989 -1.81535 0
M  V30 4600 H 445.714 -4.35138 -3.39646 0
M  V30 4601 H 448.19 -2.42456 -3.38163 0
M  V30 4602 H 447.066 -2.82694 -4.70506 0
M  V30 4603 H 447.327 -1.14522 -4.27009 0
M  V30 4604 N 446.386 1.0089 -1.21074 0
M  V30 4605 C 447.296 2.13039 -0.982425 0
M  V30 4606 C 448.312 1.73881 0.0642161 0
M  V30 4607 O 449.488 2.01012 -0.12496 0
M  V30 4608 C 446.553 3.42377 -0.545803 0
M  V30 4609 C 445.614 3.95731 -1.6642 0
M  V30 4610 C 444.847 5.18896 -1.24832 0
M  V30 4611 O 445.07 5.70273 -0.120265 0
M  V30 4612 O 444.004 5.65597 -2.05873 0
M  V30 4613 H 447.83 2.35175 -1.92163 0
M  V30 4614 H 445.415 1.1142 -0.995285 0
M  V30 4615 H 447.297 4.20244 -0.311912 0
M  V30 4616 H 445.972 3.21639 0.364727 0
M  V30 4617 H 444.879 3.19108 -1.95246 0
M  V30 4618 H 446.212 4.20872 -2.55201 0
M  V30 4619 N 447.864 1.01787 1.20321 0
M  V30 4620 C 449.089 0.727009 1.9424 0
M  V30 4621 C 449.514 -0.706179 1.74341 0
M  V30 4622 O 448.872 -1.48609 1.03852 0
M  V30 4623 C 448.92 1.06958 3.44372 0
M  V30 4624 O 448.024 0.181983 4.11998 0
M  V30 4625 H 447.365 0.269626 0.606793 0
M  V30 4626 H 449.895 1.36158 1.52716 0
M  V30 4627 H 449.905 1.02182 3.94997 0
M  V30 4628 H 448.58 2.11378 3.58179 0
M  V30 4629 H 447.157 0.287378 3.71791 0
M  V30 4630 N 449.342 -1.36122 0.79427 0
M  V30 4631 C 450.591 -1.98361 0.365464 0
M  V30 4632 C 450.904 -1.6374 -1.06997 0
M  V30 4633 O 452.11 -2.19251 -1.60129 0
M  V30 4634 C 450.566 -3.54821 0.602496 0
M  V30 4635 C 450.174 -3.98362 2.04967 0
M  V30 4636 C 451.918 -4.2383 0.238437 0
M  V30 4637 C 449.825 -5.47619 2.2331 0
M  V30 4638 H 448.755 -0.742193 0.13291 0
M  V30 4639 H 451.406 -1.55354 0.976589 0
M  V30 4640 H 449.788 -3.95922 -0.078409 0
M  V30 4641 H 450.962 -3.68447 2.76737 0
M  V30 4642 H 449.277 -3.42206 2.37243 0
M  V30 4643 H 451.874 -5.33529 0.353705 0
M  V30 4644 H 452.217 -4.08264 -0.814006 0
M  V30 4645 H 452.75 -3.88108 0.872769 0
M  V30 4646 H 449.489 -5.68138 3.26955 0
M  V30 4647 H 449.009 -5.79145 1.5605 0
M  V30 4648 H 450.688 -6.13911 2.0426 0
M  V30 4649 N 450.82 -0.546701 -1.47814 0
M  V30 4650 C 451.753 0.254472 -2.26777 0
M  V30 4651 C 452.731 0.929809 -1.33392 0
M  V30 4652 O 453.915 0.950889 -1.62759 0
M  V30 4653 C 451.042 1.36171 -3.10121 0
M  V30 4654 C 450.088 0.796038 -4.19005 0
M  V30 4655 S 450.921 -0.349191 -5.3436 0
M  V30 4656 C 452.077 0.760122 -6.21267 0
M  V30 4657 H 452.31 -0.415612 -2.94381 0
M  V30 4658 H 449.843 -0.332809 -1.5077 0
M  V30 4659 H 451.801 1.99588 -3.58713 0
M  V30 4660 H 450.462 2.00359 -2.41899 0
M  V30 4661 H 449.655 1.62719 -4.7701 0
M  V30 4662 H 449.257 0.238246 -3.7324 0
M  V30 4663 H 451.549 1.65479 -6.5698 0
M  V30 4664 H 452.492 0.217673 -7.07765 0
M  V30 4665 H 452.9 1.04806 -5.54685 0
M  V30 4666 N 452.299 1.55045 -0.282633 0
M  V30 4667 C 453.246 2.22822 0.601566 0
M  V30 4668 C 454.216 1.20431 1.14392 0
M  V30 4669 O 455.401 1.48996 1.19184 0
M  V30 4670 C 452.541 2.95873 1.77632 0
M  V30 4671 C 451.654 4.12999 1.26711 0
M  V30 4672 C 450.789 4.73676 2.40426 0
M  V30 4673 C 449.828 5.82981 1.86545 0
M  V30 4674 N 448.965 6.3769 2.93762 0
M  V30 4675 H 453.805 2.97995 0.0169528 0
M  V30 4676 H 451.342 1.471 -0.00339964 0
M  V30 4677 H 453.3 3.36447 2.46697 0
M  V30 4678 H 451.93 2.2311 2.33285 0
M  V30 4679 H 450.982 3.77494 0.469314 0
M  V30 4680 H 452.294 4.91803 0.832518 0
M  V30 4681 H 451.448 5.17008 3.17471 0
M  V30 4682 H 450.187 3.94164 2.87203 0
M  V30 4683 H 449.192 5.39092 1.07983 0
M  V30 4684 H 450.417 6.64366 1.40694 0
M  V30 4685 H 448.363 5.61069 3.39908 0
M  V30 4686 H 448.28 7.11788 2.54744 0
M  V30 4687 H 449.548 6.8568 3.7076 0
M  V30 4688 N 453.777 0.010035 1.57597 0
M  V30 4689 C 455.193 -0.346164 1.55801 0
M  V30 4690 C 455.393 -1.74144 1.01371 0
M  V30 4691 O 454.449 -2.43938 0.651968 0
M  V30 4692 C 455.762 -0.212216 2.9995 0
M  V30 4693 C 457.31 -0.286409 3.11687 0
M  V30 4694 C 457.785 -0.18147 4.5764 0
M  V30 4695 N 459.276 -0.239056 4.62583 0
M  V30 4696 C 460.011 -0.181351 5.73113 0
M  V30 4697 N 459.507 -0.073661 6.92761 0
M  V30 4698 N 461.3 -0.233949 5.61613 0
M  V30 4699 H 453.451 0.922657 1.91313 0
M  V30 4700 H 455.714 0.354595 0.879185 0
M  V30 4701 H 455.42 0.748169 3.4365 0
M  V30 4702 H 455.294 -0.990224 3.6397 0
M  V30 4703 H 457.681 -1.23724 2.67911 0
M  V30 4704 H 457.762 0.521645 2.50425 0
M  V30 4705 H 457.406 0.765863 5.02093 0
M  V30 4706 H 457.336 -1.00814 5.1686 0
M  V30 4707 H 459.827 -0.32321 3.76515 0
M  V30 4708 H 460.14 -0.0358003 7.72792 0
M  V30 4709 H 458.485 -0.0391461 6.94989 0
M  V30 4710 H 461.676 -0.316347 4.6703 0
M  V30 4711 H 461.849 -0.185514 6.47734 0
M  V30 4712 N 455.255 -1.55392 -0.262866 0
M  V30 4713 C 456.483 -1.80513 -1.01108 0
M  V30 4714 C 456.898 -0.583533 -1.79556 0
M  V30 4715 O 456.255 0.447585 -1.76926 0
M  V30 4716 C 456.306 -3.03648 -1.96164 0
M  V30 4717 O 456.027 -4.2109 -1.20893 0
M  V30 4718 C 457.528 -3.41448 -2.82715 0
M  V30 4719 H 454.748 -0.601079 -0.298236 0
M  V30 4720 H 457.292 -2.02425 -0.290582 0
M  V30 4721 H 455.447 -2.83832 -2.63663 0
M  V30 4722 H 455.861 -4.90771 -1.85051 0
M  V30 4723 H 457.335 -4.30751 -3.45192 0
M  V30 4724 H 457.812 -2.61308 -3.53008 0
M  V30 4725 H 458.418 -3.63559 -2.20693 0
M  V30 4726 N 456.733 0.527833 -1.48498 0
M  V30 4727 C 457.696 1.61439 -1.62696 0
M  V30 4728 C 458.696 1.52824 -0.500136 0
M  V30 4729 O 459.886 1.56456 -0.765976 0
M  V30 4730 C 457.018 3.01063 -1.59918 0
M  V30 4731 H 458.211 1.50189 -2.59583 0
M  V30 4732 H 455.764 0.750055 -1.37127 0
M  V30 4733 H 456.499 3.17818 -0.645163 0
M  V30 4734 H 456.284 3.08725 -2.41726 0
M  V30 4735 H 457.774 3.80057 -1.73051 0
M  V30 4736 N 458.211 1.37122 0.776871 0
M  V30 4737 C 459.141 1.35164 1.90402 0
M  V30 4738 C 460.122 0.221069 1.68657 0
M  V30 4739 O 461.307 0.420642 1.8959 0
M  V30 4740 C 458.437 1.15274 3.27611 0
M  V30 4741 C 457.391 2.25289 3.63908 0
M  V30 4742 C 456.717 1.90527 4.99603 0
M  V30 4743 C 458.017 3.67446 3.71188 0
M  V30 4744 H 459.711 2.29482 1.92297 0
M  V30 4745 H 457.257 1.10465 0.923773 0
M  V30 4746 H 459.21 1.12536 4.06096 0
M  V30 4747 H 457.934 0.174102 3.26136 0
M  V30 4748 H 456.593 2.27174 2.87728 0
M  V30 4749 H 456.241 0.91206 4.94662 0
M  V30 4750 H 455.941 2.64193 5.24858 0
M  V30 4751 H 457.465 1.89367 5.80493 0
M  V30 4752 H 458.879 3.67719 4.39836 0
M  V30 4753 H 457.276 4.40123 4.07936 0
M  V30 4754 H 458.346 4.01443 2.71977 0
M  V30 4755 N 459.689 -1.00246 1.21608 0
M  V30 4756 C 460.935 -1.74319 1.03638 0
M  V30 4757 C 461.268 -1.89408 -0.428749 0
M  V30 4758 O 460.543 -1.43026 -1.3181 0
M  V30 4759 C 460.826 -3.15431 1.73711 0
M  V30 4760 C 460.679 -3.08049 3.27759 0
M  V30 4761 C 461.998 -4.14407 1.48173 0
M  V30 4762 H 459.117 -0.632741 0.377899 0
M  V30 4763 H 461.759 -1.16853 1.49818 0
M  V30 4764 H 459.909 -3.64493 1.34452 0
M  V30 4765 H 461.581 -2.66681 3.76403 0
M  V30 4766 H 459.824 -2.45088 3.57931 0
M  V30 4767 H 460.495 -4.07862 3.71958 0
M  V30 4768 H 462.971 -3.74061 1.82258 0
M  V30 4769 H 461.847 -5.11279 1.99713 0
M  V30 4770 H 462.108 -4.40174 0.412273 0
M  V30 4771 N 461.167 -1.02423 -1.1978 0
M  V30 4772 C 462.13 -0.605703 -2.21052 0
M  V30 4773 C 463.13 0.328209 -1.57415 0
M  V30 4774 O 464.32 0.115853 -1.73814 0
M  V30 4775 C 461.452 0.114366 -3.40708 0
M  V30 4776 H 462.645 -1.5017 -2.59594 0
M  V30 4777 H 460.198 -0.814888 -1.33376 0
M  V30 4778 H 460.933 1.02492 -3.07678 0
M  V30 4779 H 460.718 -0.556641 -3.88129 0
M  V30 4780 H 462.208 0.394272 -4.15735 0
M  V30 4781 N 462.645 1.35699 -0.801477 0
M  V30 4782 C 463.593 2.3177 -0.196317 0
M  V30 4783 C 464.587 1.56388 0.651081 0
M  V30 4784 O 465.793 1.71557 0.544815 0
M  V30 4785 H 462.168 0.750669 -0.0447189 0
M  V30 4786 H 464.139 2.8036 -1.02181 0
M  V30 4787 C 462.888 3.41671 0.644702 0
M  V30 4788 H 462.211 3.998 0.0019921 0
M  V30 4789 H 463.651 4.11184 1.0346 0
M  V30 4790 C 462.11 2.84271 1.80808 0
M  V30 4791 O 462.64 2.77408 2.9053 0
M  V30 4792 N 460.846 2.41391 1.61799 0
M  V30 4793 H 460.393 2.47173 0.725493 0
M  V30 4794 H 460.351 2.03334 2.39797 0
M  V30 4795 N 464.123 0.554532 1.47522 0
M  V30 4796 C 465.351 0.034257 2.06872 0
M  V30 4797 C 465.766 -1.25826 1.40759 0
M  V30 4798 O 465.123 -1.75425 0.503217 0
M  V30 4799 C 465.174 -0.167827 3.6111 0
M  V30 4800 O 464.895 1.07351 4.24744 0
M  V30 4801 C 466.396 -0.72569 4.3732 0
M  V30 4802 H 463.616 0.0446275 0.669514 0
M  V30 4803 H 466.16 0.767181 1.89564 0
M  V30 4804 H 464.315 -0.850872 3.7794 0
M  V30 4805 H 464.729 0.869563 5.17242 0
M  V30 4806 H 466.203 -0.816394 5.45929 0
M  V30 4807 H 466.68 -1.73635 4.0342 0
M  V30 4808 H 467.286 -0.0784292 4.25228 0
M  V30 4809 N 465.601 -1.54893 0.290851 0
M  V30 4810 C 466.826 -2.04804 -0.32712 0
M  V30 4811 C 467.251 -1.16721 -1.47506 0
M  V30 4812 O 466.609 -0.169107 -1.8051 0
M  V30 4813 C 466.657 -3.52268 -0.770689 0
M  V30 4814 O 465.761 -3.67236 -1.87647 0
M  V30 4815 H 465.102 -0.660789 -0.0652227 0
M  V30 4816 H 467.632 -2.00036 0.429739 0
M  V30 4817 H 467.642 -3.9393 -1.06223 0
M  V30 4818 H 466.317 -4.15843 0.069096 0
M  V30 4819 H 464.894 -3.37479 -1.58626 0
M  V30 4820 N 467.08 -0.0183926 -1.57589 0
M  V30 4821 C 468.028 0.985111 -2.10709 0
M  V30 4822 C 469.022 1.34397 -1.0312 0
M  V30 4823 O 470.228 1.32746 -1.21567 0
M  V30 4824 H 466.603 0.335418 -0.673052 0
M  V30 4825 H 468.574 0.511689 -2.9398 0
M  V30 4826 C 467.323 2.26202 -2.64061 0
M  V30 4827 H 466.646 1.9946 -3.4649 0
M  V30 4828 H 468.086 2.94652 -3.04887 0
M  V30 4829 C 466.545 2.98444 -1.5631 0
M  V30 4830 O 467.075 3.90142 -0.956674 0
M  V30 4831 N 465.281 2.6059 -1.28612 0
M  V30 4832 H 464.828 1.86101 -1.78112 0
M  V30 4833 H 464.786 3.09238 -0.567406 0
M  V30 4834 N 468.558 1.5553 0.254621 0
M  V30 4835 C 469.491 1.84624 1.34124 0
M  V30 4836 C 470.469 0.700693 1.46728 0
M  V30 4837 O 471.653 0.94564 1.63064 0
M  V30 4838 C 468.78 2.02412 2.71564 0
M  V30 4839 C 467.826 3.25028 2.7615 0
M  V30 4840 S 468.659 4.81893 2.33538 0
M  V30 4841 C 469.815 5.02677 3.72917 0
M  V30 4842 H 470.048 2.76501 1.09245 0
M  V30 4843 H 467.581 1.47537 0.455211 0
M  V30 4844 H 469.539 2.13345 3.50705 0
M  V30 4845 H 468.2 1.11391 2.93685 0
M  V30 4846 H 467.393 3.34418 3.77069 0
M  V30 4847 H 466.995 3.12781 2.05046 0
M  V30 4848 H 469.287 4.89546 4.68349 0
M  V30 4849 H 470.23 6.0468 3.68467 0
M  V30 4850 H 470.638 4.30561 3.65072 0
M  V30 4851 N 470.036 -0.519951 1.48776 0
M  V30 4852 C 471.447 -1.10177 1.50725 0
M  V30 4853 C 471.798 -1.94153 0.282678 0
M  V30 4854 O 470.923 -2.07645 -0.609298 0
M  V30 4855 C 471.518 -2.00482 2.73116 0
M  V30 4856 C 470.077 -2.53862 2.77905 0
M  V30 4857 C 469.224 -1.31047 2.44381 0
M  V30 4858 H 472.175 -0.30473 1.55747 0
M  V30 4859 H 472.196 -2.8491 2.52203 0
M  V30 4860 H 471.708 -1.39335 3.62225 0
M  V30 4861 H 469.809 -3.18702 1.93029 0
M  V30 4862 H 469.922 -2.9231 3.79594 0
M  V30 4863 H 468.286 -1.62953 1.95751 0
M  V30 4864 H 469.069 -0.71637 3.35743 0
M  V30 4865 N 471.514 -1.37532 -0.769588 0
M  V30 4866 C 472.76 -1.33057 -1.53048 0
M  V30 4867 C 473.093 0.0841865 -1.94017 0
M  V30 4868 O 472.368 1.04198 -1.64235 0
M  V30 4869 C 472.651 -2.27166 -2.79406 0
M  V30 4870 C 472.504 -3.77429 -2.44677 0
M  V30 4871 C 473.823 -2.19683 -3.81349 0
M  V30 4872 H 470.942 -0.484655 -0.555228 0
M  V30 4873 H 473.584 -1.68251 -0.882702 0
M  V30 4874 H 471.734 -1.97283 -3.34682 0
M  V30 4875 H 473.406 -4.17918 -1.953 0
M  V30 4876 H 471.649 -3.95892 -1.77346 0
M  V30 4877 H 472.32 -4.38716 -3.35011 0
M  V30 4878 H 474.796 -2.46029 -3.35573 0
M  V30 4879 H 473.672 -2.87668 -4.67481 0
M  V30 4880 H 473.933 -1.19045 -4.25771 0
M  V30 4881 N 472.992 0.995999 -1.22138 0
M  V30 4882 C 473.955 2.06711 -0.990109 0
M  V30 4883 C 474.955 1.60744 0.0422978 0
M  V30 4884 O 476.145 1.73095 -0.195895 0
M  V30 4885 C 473.277 3.37288 -0.49491 0
M  V30 4886 H 474.47 2.28661 -1.94047 0
M  V30 4887 H 472.023 1.16711 -1.03963 0
M  V30 4888 H 472.758 3.21022 0.459948 0
M  V30 4889 H 472.543 3.71986 -1.23971 0
M  V30 4890 H 474.033 4.16103 -0.353253 0
M  V30 4891 N 474.47 1.03057 1.19235 0
M  V30 4892 C 475.433 0.617418 2.20727 0
M  V30 4893 C 476.433 -0.319856 1.57587 0
M  V30 4894 O 477.623 -0.106633 1.73873 0
M  V30 4895 C 474.755 -0.096296 3.40764 0
M  V30 4896 H 475.948 1.51544 2.58794 0
M  V30 4897 H 473.501 0.821949 1.32942 0
M  V30 4898 H 474.236 -1.00859 3.08217 0
M  V30 4899 H 474.021 0.577217 3.87828 0
M  V30 4900 H 475.511 -0.372219 4.15938 0
M  V30 4901 N 475.948 -1.35272 0.808662 0
M  V30 4902 C 477.364 -1.51806 0.492653 0
M  V30 4903 C 477.564 -1.7574 -0.985778 0
M  V30 4904 O 476.62 -1.80003 -1.77074 0
M  V30 4905 C 477.933 -2.69202 1.33981 0
M  V30 4906 C 479.481 -2.8308 1.33547 0
M  V30 4907 C 479.956 -4.03502 2.16679 0
M  V30 4908 N 481.447 -4.10684 2.14227 0
M  V30 4909 C 482.182 -5.02984 2.75308 0
M  V30 4910 N 481.678 -6.00603 3.45323 0
M  V30 4911 N 483.471 -4.95746 2.64938 0
M  V30 4912 H 475.622 -1.17993 1.76611 0
M  V30 4913 H 477.885 -0.577476 0.751814 0
M  V30 4914 H 477.591 -2.581 2.38909 0
M  V30 4915 H 477.465 -3.63854 0.994491 0
M  V30 4916 H 479.852 -2.93631 0.294036 0
M  V30 4917 H 479.933 -1.89278 1.72068 0
M  V30 4918 H 479.577 -3.93711 3.20864 0
M  V30 4919 H 479.507 -4.96489 1.75517 0
M  V30 4920 H 481.998 -3.40802 1.63285 0
M  V30 4921 H 482.311 -6.67633 3.89212 0
M  V30 4922 H 480.656 -6.0077 3.49428 0
M  V30 4923 H 483.847 -4.18439 2.09825 0
M  V30 4924 H 484.02 -5.67487 3.12829 0
M  V30 4925 N 477.426 -0.562348 -1.47226 0
M  V30 4926 C 478.336 0.185466 -2.33866 0
M  V30 4927 C 479.352 0.906713 -1.48508 0
M  V30 4928 O 480.528 0.874458 -1.81425 0
M  V30 4929 C 477.593 1.19904 -3.25306 0
M  V30 4930 C 476.654 0.484669 -4.26555 0
M  V30 4931 C 475.887 1.44996 -5.13626 0
M  V30 4932 O 476.11 2.68515 -5.03245 0
M  V30 4933 O 475.044 0.971642 -5.94006 0
M  V30 4934 H 478.87 -0.525361 -2.99121 0
M  V30 4935 H 476.455 -0.322916 -1.45868 0
M  V30 4936 H 478.337 1.78399 -3.81774 0
M  V30 4937 H 477.012 1.8917 -2.62672 0
M  V30 4938 H 475.919 -0.141605 -3.73832 0
M  V30 4939 H 477.252 -0.166634 -4.91918 0
M  V30 4940 N 478.904 1.54736 -0.299062 0
M  V30 4941 C 479.867 2.22127 0.565012 0
M  V30 4942 C 480.867 1.20669 1.06281 0
M  V30 4943 O 482.057 1.45417 0.959145 0
M  V30 4944 C 479.189 2.90611 1.78208 0
M  V30 4945 H 480.382 2.99891 -0.0237448 0
M  V30 4946 H 477.935 1.5622 -0.0498788 0
M  V30 4947 H 478.67 2.16921 2.41072 0
M  V30 4948 H 478.455 3.64984 1.43281 0
M  V30 4949 H 479.945 3.42026 2.396 0
M  V30 4950 N 480.382 0.0267497 1.57577 0
M  V30 4951 C 481.607 -0.666227 1.96408 0
M  V30 4952 C 482.032 -1.65004 0.903071 0
M  V30 4953 O 481.39 -1.80787 -0.136263 0
M  V30 4954 C 481.438 -1.35101 3.34335 0
M  V30 4955 O 480.542 -2.46623 3.30531 0
M  V30 4956 H 479.883 -0.175206 0.640468 0
M  V30 4957 H 482.413 0.0878977 2.04411 0
M  V30 4958 H 482.423 -1.70834 3.70513 0
M  V30 4959 H 481.098 -0.629844 4.11103 0
M  V30 4960 H 479.675 -2.13019 3.06068 0
M  V30 4961 N 481.861 -1.55662 -0.24637 0
M  V30 4962 C 483.11 -1.7672 -0.972254 0
M  V30 4963 C 483.423 -0.59078 -1.86465 0
M  V30 4964 O 484.629 -0.684391 -2.62732 0
M  V30 4965 C 483.085 -3.12869 -1.7788 0
M  V30 4966 C 482.693 -4.38161 -0.933768 0
M  V30 4967 C 484.437 -3.43265 -2.49738 0
M  V30 4968 C 482.344 -5.6534 -1.73623 0
M  V30 4969 H 481.274 -0.658795 -0.366749 0
M  V30 4970 H 483.925 -1.82092 -0.226902 0
M  V30 4971 H 482.307 -3.01606 -2.56612 0
M  V30 4972 H 483.481 -4.60413 -0.188736 0
M  V30 4973 H 481.796 -4.15102 -0.328488 0
M  V30 4974 H 484.393 -4.35501 -3.10231 0
M  V30 4975 H 484.736 -2.64614 -3.2138 0
M  V30 4976 H 485.269 -3.55746 -1.78016 0
M  V30 4977 H 482.008 -6.46814 -1.06354 0
M  V30 4978 H 481.528 -5.47188 -2.45653 0
M  V30 4979 H 483.207 -6.04616 -2.30323 0
M  V30 4980 N 483.339 0.512053 -1.4905 0
M  V30 4981 C 484.569 1.28928 -1.61434 0
M  V30 4982 C 484.977 1.87107 -0.280647 0
M  V30 4983 O 484.32 1.68024 0.742537 0
M  V30 4984 C 484.382 2.466 -2.61588 0
M  V30 4985 C 484.046 2.09375 -4.06216 0
M  V30 4986 C 485.043 1.63994 -4.93358 0
M  V30 4987 C 482.728 2.19348 -4.51876 0
M  V30 4988 C 484.722 1.29076 -6.24194 0
M  V30 4989 C 482.409 1.84041 -5.82728 0
M  V30 4990 C 483.407 1.38978 -6.68711 0
M  V30 4991 O 483.095 1.04144 -7.97126 0
M  V30 4992 H 482.827 0.397668 -0.546659 0
M  V30 4993 H 485.381 0.622507 -1.9574 0
M  V30 4994 H 483.611 3.16318 -2.22441 0
M  V30 4995 H 485.3 3.08642 -2.63619 0
M  V30 4996 H 486.066 1.55744 -4.59313 0
M  V30 4997 H 481.945 2.53376 -3.85125 0
M  V30 4998 H 485.489 0.938303 -6.91261 0
M  V30 4999 H 481.386 1.91938 -6.16304 0
M  V30 5000 H 482.154 1.17387 -8.10039 0
M  V30 5001 N 484.817 1.37938 0.762283 0
M  V30 5002 C 486.045 1.36883 1.55147 0
M  V30 5003 C 486.46 -0.0435348 1.8875 0
M  V30 5004 O 485.817 -1.00786 1.52146 0
M  V30 5005 C 485.868 2.21624 2.85596 0
M  V30 5006 O 485.589 3.57358 2.5343 0
M  V30 5007 C 487.09 2.28653 3.7978 0
M  V30 5008 H 484.31 0.468521 0.480343 0
M  V30 5009 H 486.854 1.81404 0.944079 0
M  V30 5010 H 485.009 1.80588 3.42734 0
M  V30 5011 H 485.423 4.01883 3.37032 0
M  V30 5012 H 486.897 2.9225 4.68288 0
M  V30 5013 H 487.374 1.29767 4.19592 0
M  V30 5014 H 487.98 2.70043 3.28568 0
M  V30 5015 N 486.295 -0.989507 1.22664 0
M  V30 5016 C 487.543 -1.72612 1.05117 0
M  V30 5017 C 487.864 -1.90552 -0.414131 0
M  V30 5018 O 487.134 -1.4676 -1.29762 0
M  V30 5019 H 485.714 -0.639555 0.385977 0
M  V30 5020 H 488.376 -1.19158 1.54232 0
M  V30 5021 H 487.472 -2.71926 1.53175 0
M  V30 5022 N 487.773 -1.03688 -1.18687 0
M  V30 5023 C 489.022 -0.733235 -1.879 0
M  V30 5024 C 489.335 0.741745 -1.8099 0
M  V30 5025 O 490.541 1.15875 -2.4553 0
M  V30 5026 C 488.997 -1.26127 -3.37076 0
M  V30 5027 C 488.605 -2.76461 -3.52524 0
M  V30 5028 C 490.349 -1.03398 -4.11715 0
M  V30 5029 C 488.256 -3.22642 -4.95637 0
M  V30 5030 H 487.186 -0.270584 -0.703776 0
M  V30 5031 H 489.837 -1.25222 -1.34133 0
M  V30 5032 H 488.219 -0.670165 -3.90288 0
M  V30 5033 H 489.393 -3.41296 -3.09602 0
M  V30 5034 H 487.708 -2.97559 -2.91286 0
M  V30 5035 H 490.305 -1.3542 -5.17267 0
M  V30 5036 H 490.648 0.0289246 -4.1629 0
M  V30 5037 H 491.181 -1.5895 -3.64664 0
M  V30 5038 H 487.92 -4.28296 -4.96228 0
M  V30 5039 H 487.44 -2.62539 -5.39289 0
M  V30 5040 H 489.119 -3.16444 -5.64333 0
M  V30 5041 N 489.251 1.34841 -0.815825 0
M  V30 5042 C 490.479 2.0273 -0.413294 0
M  V30 5043 C 490.894 1.61459 0.978599 0
M  V30 5044 O 490.251 0.816584 1.63212 0
M  V30 5045 C 490.302 3.58058 -0.497676 0
M  V30 5046 O 490.023 3.97832 -1.8347 0
M  V30 5047 C 491.524 4.4321 -0.0891339 0
M  V30 5048 H 488.744 0.649956 -0.166728 0
M  V30 5049 H 491.288 1.72267 -1.10201 0
M  V30 5050 H 489.443 3.87136 0.142886 0
M  V30 5051 H 489.857 4.92501 -1.80396 0
M  V30 5052 H 491.331 5.5164 -0.199274 0
M  V30 5053 H 491.808 4.28432 0.966571 0
M  V30 5054 H 492.414 4.19446 -0.703214 0
M  V30 5055 N 490.729 0.570148 1.46925 0
M  V30 5056 C 491.659 -0.158274 2.32963 0
M  V30 5057 C 492.64 -0.896093 1.44583 0
M  V30 5058 O 493.825 -0.874022 1.7342 0
M  V30 5059 C 490.955 -1.18055 3.26619 0
M  V30 5060 C 489.909 -0.558379 4.24342 0
M  V30 5061 C 489.235 -1.68623 5.07415 0
M  V30 5062 C 490.535 0.496295 5.19937 0
M  V30 5063 H 492.229 0.560046 2.94115 0
M  V30 5064 H 489.775 0.270775 1.41431 0
M  V30 5065 H 491.728 -1.69841 3.85658 0
M  V30 5066 H 490.452 -1.92899 2.63548 0
M  V30 5067 H 489.111 -0.0617157 3.66548 0
M  V30 5068 H 488.759 -2.42402 4.40738 0
M  V30 5069 H 488.459 -1.27564 5.73586 0
M  V30 5070 H 489.983 -2.20709 5.69315 0
M  V30 5071 H 491.397 0.0640052 5.73264 0
M  V30 5072 H 489.794 0.82649 5.94381 0
M  V30 5073 H 490.864 1.38735 4.6463 0
M  V30 5074 N 492.207 -1.54576 0.307264 0
M  V30 5075 C 493.432 -2.05139 -0.305379 0
M  V30 5076 C 493.857 -1.18278 -1.46259 0
M  V30 5077 O 493.215 -0.188243 -1.8032 0
M  V30 5078 C 493.263 -3.53066 -0.733283 0
M  V30 5079 O 492.367 -3.69206 -1.83741 0
M  V30 5080 H 491.708 -0.661444 -0.0582105 0
M  V30 5081 H 494.238 -1.99569 0.450931 0
M  V30 5082 H 494.248 -3.95034 -1.02039 0
M  V30 5083 H 492.923 -4.15746 0.113198 0
M  V30 5084 H 491.5 -3.39143 -1.55037 0
M  V30 5085 N 493.685 -0.035106 -1.57561 0
M  V30 5086 C 494.595 0.960295 -2.14046 0
M  V30 5087 C 495.611 1.3529 -1.0942 0
M  V30 5088 O 496.787 1.43309 -1.41508 0
M  V30 5089 C 493.852 2.22214 -2.66124 0
M  V30 5090 C 492.913 1.8894 -3.85487 0
M  V30 5091 C 492.146 3.09109 -4.35072 0
M  V30 5092 O 492.369 4.21963 -3.83802 0
M  V30 5093 O 491.303 2.91058 -5.26848 0
M  V30 5094 H 495.129 0.509983 -2.99387 0
M  V30 5095 H 492.714 0.185853 -1.48239 0
M  V30 5096 H 494.596 2.96279 -2.99661 0
M  V30 5097 H 493.271 2.66414 -1.83862 0
M  V30 5098 H 492.178 1.12241 -3.56865 0
M  V30 5099 H 493.511 1.49551 -4.6893 0
M  V30 5100 N 495.163 1.55791 0.238111 0
M  V30 5101 C 496.393 1.81834 0.980809 0
M  V30 5102 C 496.801 0.609741 1.79106 0
M  V30 5103 O 496.144 -0.431073 1.78571 0
M  V30 5104 C 496.206 3.01363 1.96011 0
M  V30 5105 C 495.87 4.37037 1.33597 0
M  V30 5106 C 496.867 5.14692 0.734063 0
M  V30 5107 C 494.552 4.83743 1.3527 0
M  V30 5108 C 496.546 6.37206 0.157208 0
M  V30 5109 C 494.233 6.06204 0.77199 0
M  V30 5110 C 495.231 6.82775 0.175282 0
M  V30 5111 O 494.919 8.02922 -0.396432 0
M  V30 5112 H 494.651 0.6088 0.293834 0
M  V30 5113 H 497.205 2.03702 0.263552 0
M  V30 5114 H 495.435 2.75273 2.71591 0
M  V30 5115 H 497.124 3.14422 2.56697 0
M  V30 5116 H 497.89 4.79722 0.713582 0
M  V30 5117 H 493.769 4.24129 1.80653 0
M  V30 5118 H 497.313 6.96915 -0.30917 0
M  V30 5119 H 493.21 6.4065 0.789828 0
M  V30 5120 H 493.978 8.17989 -0.289145 0
M  V30 5121 N 496.642 -0.504142 1.49319 0
M  V30 5122 C 497.889 -1.25846 1.58647 0
M  V30 5123 C 498.217 -1.92592 0.27177 0
M  V30 5124 O 497.472 -1.81167 -0.74007 0
M  V30 5125 C 497.771 -2.35021 2.69258 0
M  V30 5126 C 497.437 -1.85755 4.1086 0
M  V30 5127 C 496.099 -1.72038 4.49395 0
M  V30 5128 C 498.451 -1.48844 4.99495 0
M  V30 5129 C 495.779 -1.19783 5.74342 0
M  V30 5130 C 498.131 -0.980422 6.24956 0
M  V30 5131 C 496.795 -0.829622 6.62324 0
M  V30 5132 H 496.065 -0.460505 0.580531 0
M  V30 5133 H 498.712 -0.559716 1.83138 0
M  V30 5134 H 497.017 -3.10672 2.38726 0
M  V30 5135 H 498.714 -2.93083 2.73685 0
M  V30 5136 H 495.304 -1.9739 3.80441 0
M  V30 5137 H 499.488 -1.5829 4.70381 0
M  V30 5138 H 494.744 -1.06817 6.01997 0
M  V30 5139 H 498.918 -0.685608 6.93017 0
M  V30 5140 H 496.545 -0.42253 7.59025 0
M  V30 5141 N 498.12 -1.38341 -0.754957 0
M  V30 5142 C 499.536 -1.19508 -1.05783 0
M  V30 5143 C 499.736 -0.0428005 -2.01455 0
M  V30 5144 O 498.792 0.611861 -2.44975 0
M  V30 5145 C 500.105 -2.52091 -1.63923 0
M  V30 5146 C 501.653 -2.58762 -1.76101 0
M  V30 5147 C 502.128 -3.91517 -2.37652 0
M  V30 5148 N 503.619 -3.93049 -2.45085 0
M  V30 5149 C 504.354 -4.9253 -2.93602 0
M  V30 5150 N 503.85 -6.02408 -3.42165 0
M  V30 5151 N 505.643 -4.79921 -2.92629 0
M  V30 5152 H 497.794 -2.1206 -0.120056 0
M  V30 5153 H 500.057 -0.94089 -0.11589 0
M  V30 5154 H 499.763 -3.36858 -1.01093 0
M  V30 5155 H 499.637 -2.70388 -2.63003 0
M  V30 5156 H 502.024 -1.74391 -2.38058 0
M  V30 5157 H 502.105 -2.44333 -0.757294 0
M  V30 5158 H 501.749 -4.76309 -1.76329 0
M  V30 5159 H 501.679 -4.03256 -3.38662 0
M  V30 5160 H 504.17 -3.13685 -2.10736 0
M  V30 5161 H 504.483 -6.74248 -3.77637 0
M  V30 5162 H 502.828 -6.0603 -3.40225 0
M  V30 5163 H 506.019 -3.93194 -2.54001 0
M  V30 5164 H 506.192 -5.57601 -3.30128 0
M  V30 5165 N 499.598 0.982988 -1.23187 0
M  V30 5166 C 500.875 1.69814 -0.970707 0
M  V30 5167 C 501.255 2.04811 0.511424 0
M  V30 5168 O 500.603 1.73924 1.48198 0
M  V30 5169 C 500.813 2.94143 -1.87831 0
M  V30 5170 C 502.161 3.66712 -2.14026 0
M  V30 5171 O 503.185 3.04171 -1.8536 0
M  V30 5172 O 502.044 4.79258 -2.62629 0
M  V30 5173 H 499.138 0.741659 -0.365884 0
M  V30 5174 H 501.684 1.03844 -1.34218 0
M  V30 5175 H 500.456 2.64858 -2.88038 0
M  V30 5176 H 500.079 3.6785 -1.50905 0
M  V30 5177 N 501.076 1.04316 1.18135 0
M  V30 5178 C 502.009 0.580823 2.20685 0
M  V30 5179 C 502.987 -0.385943 1.57953 0
M  V30 5180 O 504.171 -0.299654 1.86103 0
M  V30 5181 C 501.298 -0.151162 3.38363 0
M  V30 5182 C 500.344 0.769247 4.19505 0
M  V30 5183 S 501.177 2.25352 4.85774 0
M  V30 5184 C 502.333 1.53246 6.0685 0
M  V30 5185 H 502.566 1.44968 2.5956 0
M  V30 5186 H 500.099 0.85434 1.28609 0
M  V30 5187 H 502.057 -0.567315 4.06561 0
M  V30 5188 H 500.718 -0.995936 2.97892 0
M  V30 5189 H 499.911 0.203335 5.0359 0
M  V30 5190 H 499.513 1.12436 3.56699 0
M  V30 5191 H 501.805 0.82689 6.72435 0
M  V30 5192 H 502.748 2.35044 6.67952 0
M  V30 5193 H 503.156 1.0237 5.5514 0
M  V30 5194 N 502.554 -1.34406 0.822964 0
M  V30 5195 C 503.802 -1.97892 0.410245 0
M  V30 5196 C 504.123 -1.65567 -1.03017 0
M  V30 5197 O 503.393 -0.94642 -1.71522 0
M  V30 5198 H 501.973 -0.732049 0.148707 0
M  V30 5199 H 504.635 -1.64043 1.05242 0
M  V30 5200 H 503.731 -3.07579 0.529284 0
M  V30 5201 N 504.032 -0.577932 -1.46621 0
M  V30 5202 C 505.262 -0.0670668 -2.06491 0
M  V30 5203 C 505.67 1.24119 -1.42798 0
M  V30 5204 O 505.013 1.76016 -0.525759 0
M  V30 5205 C 505.075 0.177995 -3.59059 0
M  V30 5206 C 504.739 -1.04394 -4.44917 0
M  V30 5207 C 505.736 -1.95479 -4.81751 0
M  V30 5208 C 503.421 -1.26444 -4.86125 0
M  V30 5209 C 505.415 -3.06965 -5.58615 0
M  V30 5210 C 503.102 -2.38237 -5.62749 0
M  V30 5211 C 504.1 -3.28327 -5.98908 0
M  V30 5212 O 503.788 -4.38179 -6.73984 0
M  V30 5213 H 503.52 -0.0523159 -0.673973 0
M  V30 5214 H 506.074 -0.796966 -1.89308 0
M  V30 5215 H 504.304 0.962451 -3.74531 0
M  V30 5216 H 505.993 0.636782 -4.00874 0
M  V30 5217 H 506.759 -1.79657 -4.50498 0
M  V30 5218 H 502.638 -0.572316 -4.57434 0
M  V30 5219 H 506.182 -3.77309 -5.86757 0
M  V30 5220 H 502.079 -2.54023 -5.93416 0
M  V30 5221 H 502.847 -4.36486 -6.92403 0
M  V30 5222 N 505.51 1.54411 -0.315457 0
M  V30 5223 C 506.46 2.20772 0.569549 0
M  V30 5224 C 507.444 1.18551 1.08787 0
M  V30 5225 O 508.636 1.44213 1.02624 0
M  V30 5226 C 505.765 2.96293 1.73394 0
M  V30 5227 C 504.851 4.05844 1.2309 0
M  V30 5228 N 505.242 5.03822 0.446927 0
M  V30 5229 C 503.54 4.19648 1.51035 0
M  V30 5230 C 504.241 5.8143 0.17725 0
M  V30 5231 N 503.217 5.38245 0.761118 0
M  V30 5232 H 507.019 2.93877 -0.0368076 0
M  V30 5233 H 504.533 1.61949 -0.120915 0
M  V30 5234 H 506.53 3.42313 2.37965 0
M  V30 5235 H 505.19 2.24708 2.34386 0
M  V30 5236 H 506.201 5.17821 0.0905027 0
M  V30 5237 H 502.878 3.59274 2.1267 0
M  V30 5238 H 504.268 6.70369 -0.45335 0
M  V30 5239 N 506.988 0.0434614 1.5754 0
M  V30 5240 C 508.234 -0.632971 1.92669 0
M  V30 5241 C 508.567 -1.70947 0.921446 0
M  V30 5242 O 507.842 -1.94426 -0.0537202 0
M  V30 5243 C 508.125 -1.23619 3.38216 0
M  V30 5244 C 507.978 -0.168274 4.49485 0
M  V30 5245 C 509.297 -2.15008 3.84005 0
M  V30 5246 H 506.416 -0.228629 0.700641 0
M  V30 5247 H 509.058 0.103651 1.89717 0
M  V30 5248 H 507.208 -1.864 3.40863 0
M  V30 5249 H 508.88 0.463196 4.58969 0
M  V30 5250 H 507.123 0.504581 4.30855 0
M  V30 5251 H 507.794 -0.630218 5.48391 0
M  V30 5252 H 510.27 -1.62198 3.83185 0
M  V30 5253 H 509.146 -2.54161 4.86511 0
M  V30 5254 H 509.407 -3.04707 3.20322 0
M  V30 5255 N 508.466 -1.55915 -0.229846 0
M  V30 5256 C 509.691 -1.8296 -0.976743 0
M  V30 5257 C 510.116 -0.622735 -1.77493 0
M  V30 5258 O 509.474 0.428431 -1.76165 0
M  V30 5259 C 509.522 -3.07916 -1.8767 0
M  V30 5260 O 508.626 -2.86028 -2.97088 0
M  V30 5261 H 507.967 -0.603453 -0.277021 0
M  V30 5262 H 510.497 -2.0312 -0.245669 0
M  V30 5263 H 510.507 -3.37802 -2.2881 0
M  V30 5264 H 509.182 -3.95389 -1.28996 0
M  V30 5265 H 507.759 -2.67355 -2.59954 0
M  V30 5266 N 509.944 0.496216 -1.49584 0
M  V30 5267 C 510.877 1.61508 -1.61215 0
M  V30 5268 C 511.855 1.55927 -0.461045 0
M  V30 5269 O 513.039 1.75914 -0.677231 0
M  V30 5270 C 510.166 3.00035 -1.57152 0
M  V30 5271 C 509.212 3.23861 -2.77518 0
M  V30 5272 S 510.045 3.06466 -4.39134 0
M  V30 5273 C 511.201 4.4738 -4.37724 0
M  V30 5274 H 511.434 1.51398 -2.55863 0
M  V30 5275 H 508.967 0.681727 -1.38535 0
M  V30 5276 H 510.925 3.7991 -1.55494 0
M  V30 5277 H 509.586 3.07556 -0.637834 0
M  V30 5278 H 508.779 4.25 -2.70908 0
M  V30 5279 H 508.381 2.51716 -2.76614 0
M  V30 5280 H 510.673 5.39556 -4.09738 0
M  V30 5281 H 511.616 4.59038 -5.39156 0
M  V30 5282 H 512.024 4.28283 -3.67742 0
M  V30 5283 N 511.423 1.38739 0.74761 0
M  V30 5284 C 512.356 1.3083 1.86972 0
M  V30 5285 C 513.334 0.184229 1.61553 0
M  V30 5286 O 514.518 0.36256 1.8498 0
M  V30 5287 C 511.645 1.02854 3.22705 0
M  V30 5288 C 510.691 2.17281 3.67003 0
M  V30 5289 S 511.524 3.79468 3.77842 0
M  V30 5290 C 512.68 3.53692 5.16385 0
M  V30 5291 H 512.913 2.258 1.93395 0
M  V30 5292 H 510.446 1.24646 0.911199 0
M  V30 5293 H 512.404 0.87397 4.01089 0
M  V30 5294 H 511.065 0.0959295 3.13953 0
M  V30 5295 H 510.258 1.93267 4.65472 0
M  V30 5296 H 509.86 2.28876 2.9579 0
M  V30 5297 H 512.152 3.10176 6.02327 0
M  V30 5298 H 513.095 4.51576 5.45422 0
M  V30 5299 H 513.503 2.8807 4.85464 0
M  V30 5300 N 512.901 -0.976442 1.23707 0
M  V30 5301 C 513.864 -2.0511 1.02287 0
M  V30 5302 C 514.864 -1.60791 -0.0167195 0
M  V30 5303 O 516.054 -1.72761 0.223408 0
M  V30 5304 C 513.186 -3.36458 0.548507 0
M  V30 5305 H 514.379 -2.25545 1.9766 0
M  V30 5306 H 511.932 -1.15042 1.05806 0
M  V30 5307 H 512.667 -3.21713 -0.408818 0
M  V30 5308 H 512.452 -3.69967 1.29874 0
M  V30 5309 H 513.942 -4.15489 0.419406 0
M  V30 5310 N 514.379 -1.04941 -1.1758 0
M  V30 5311 C 515.656 -0.671918 -1.83697 0
M  V30 5312 C 516.036 0.847929 -1.93322 0
M  V30 5313 O 515.384 1.75287 -1.46583 0
M  V30 5314 C 515.594 -1.35797 -3.21497 0
M  V30 5315 C 516.942 -1.4944 -3.97433 0
M  V30 5316 O 517.966 -1.31678 -3.30967 0
M  V30 5317 O 516.825 -1.78463 -5.1654 0
M  V30 5318 H 513.919 -0.236212 -0.792548 0
M  V30 5319 H 516.465 -1.14884 -1.24899 0
M  V30 5320 H 515.237 -2.39498 -3.09446 0
M  V30 5321 H 514.86 -0.870236 -3.8796 0
M  V30 5322 N 515.857 1.33968 -0.830081 0
M  V30 5323 C 517.082 2.02813 -0.433796 0
M  V30 5324 C 517.507 1.62076 0.954614 0
M  V30 5325 O 516.865 0.808955 1.62252 0
M  V30 5326 C 516.913 3.56348 -0.552115 0
M  V30 5327 O 516.017 4.10202 0.425191 0
M  V30 5328 H 515.358 0.639817 -0.177567 0
M  V30 5329 H 517.888 1.7106 -1.12248 0
M  V30 5330 H 517.898 4.05722 -0.430513 0
M  V30 5331 H 516.573 3.85344 -1.56471 0
M  V30 5332 H 515.15 3.71979 0.261878 0
M  V30 5333 N 517.335 0.585699 1.46312 0
M  V30 5334 C 518.563 0.0781299 2.06752 0
M  V30 5335 C 518.978 -1.22812 1.43396 0
M  V30 5336 O 518.335 -1.74318 0.540314 0
M  V30 5337 C 518.386 -0.0911927 3.61385 0
M  V30 5338 O 518.107 1.16336 4.22371 0
M  V30 5339 C 519.608 -0.632765 4.38761 0
M  V30 5340 H 516.828 0.0588188 0.668417 0
M  V30 5341 H 519.372 0.807218 1.87894 0
M  V30 5342 H 517.527 -0.770514 3.7966 0
M  V30 5343 H 517.941 0.979082 5.15281 0
M  V30 5344 H 519.415 -0.70041 5.47538 0
M  V30 5345 H 519.892 -1.65039 4.07012 0
M  V30 5346 H 520.498 0.0117856 4.25298 0
M  V30 5347 N 518.813 -1.54241 0.323641 0
M  V30 5348 C 520.038 -2.05452 -0.283605 0
M  V30 5349 C 520.463 -1.19823 -1.44997 0
M  V30 5350 O 519.821 -0.207358 -1.8011 0
M  V30 5351 C 519.869 -3.53823 -0.695795 0
M  V30 5352 O 518.973 -3.71134 -1.79815 0
M  V30 5353 H 518.314 -0.662024 -0.0511917 0
M  V30 5354 H 520.844 -1.99079 0.472073 0
M  V30 5355 H 520.854 -3.96094 -0.978434 0
M  V30 5356 H 519.529 -4.15602 0.157287 0
M  V30 5357 H 518.106 -3.40768 -1.51431 0
M  V30 5358 N 520.291 -0.0518155 -1.57515 0
M  V30 5359 C 521.707 0.304735 -1.56664 0
M  V30 5360 C 521.907 1.71395 -1.05953 0
M  V30 5361 O 520.963 2.42123 -0.716414 0
M  V30 5362 C 522.276 0.132614 -3.00407 0
M  V30 5363 C 523.824 0.20367 -3.12337 0
M  V30 5364 C 524.299 0.0600706 -4.57961 0
M  V30 5365 N 525.79 0.116326 -4.63054 0
M  V30 5366 C 526.525 0.0293363 -5.73392 0
M  V30 5367 N 526.021 -0.110038 -6.92713 0
M  V30 5368 N 527.814 0.0849651 -5.62036 0
M  V30 5369 H 519.965 -0.973056 -1.888 0
M  V30 5370 H 522.228 -0.377781 -0.869474 0
M  V30 5371 H 521.934 -0.839019 -3.41546 0
M  V30 5372 H 521.808 0.893376 -3.66468 0
M  V30 5373 H 524.195 1.16578 -2.71097 0
M  V30 5374 H 524.276 -0.587857 -2.48954 0
M  V30 5375 H 523.92 -0.898715 -4.99886 0
M  V30 5376 H 523.85 0.87075 -5.19351 0
M  V30 5377 H 526.341 0.22327 -3.7724 0
M  V30 5378 H 526.654 -0.169104 -7.72615 0
M  V30 5379 H 524.999 -0.145132 -6.94848 0
M  V30 5380 H 528.19 0.192411 -4.67704 0
M  V30 5381 H 528.363 0.0137131 -6.47999 0
M  V30 5382 N 521.769 1.56035 0.221574 0
M  V30 5383 C 523.015 1.80221 0.942973 0
M  V30 5384 C 523.37 0.624799 1.81973 0
M  V30 5385 O 522.663 -0.381145 1.87771 0
M  V30 5386 C 522.857 3.07813 1.8162 0
M  V30 5387 C 522.686 4.37852 1.02548 0
M  V30 5388 C 521.456 5.00138 0.720418 0
M  V30 5389 C 523.654 5.12813 0.390799 0
M  V30 5390 N 521.636 6.13831 -0.0917139 0
M  V30 5391 C 523.007 6.19346 -0.284728 0
M  V30 5392 C 525.062 4.96972 0.303828 0
M  V30 5393 C 523.765 7.11758 -1.03891 0
M  V30 5394 C 525.791 5.89784 -0.436883 0
M  V30 5395 C 525.153 6.95743 -1.10095 0
M  V30 5396 H 521.252 0.711117 0.325325 0
M  V30 5397 H 523.836 1.93522 0.213854 0
M  V30 5398 H 522.007 2.95795 2.51714 0
M  V30 5399 H 523.739 3.20191 2.47508 0
M  V30 5400 H 520.494 4.62075 1.03843 0
M  V30 5401 H 520.918 6.75249 -0.486615 0
M  V30 5402 H 525.56 4.15107 0.802896 0
M  V30 5403 H 523.278 7.93105 -1.54949 0
M  V30 5404 H 526.864 5.79603 -0.505181 0
M  V30 5405 H 525.744 7.66322 -1.66495 0
M  V30 5406 N 523.247 -0.488276 1.49845 0
M  V30 5407 C 524.21 -1.57069 1.66919 0
M  V30 5408 C 525.21 -1.51445 0.540479 0
M  V30 5409 O 526.4 -1.5437 0.807188 0
M  V30 5410 C 523.532 -2.96718 1.67844 0
M  V30 5411 H 524.725 -1.43254 2.63474 0
M  V30 5412 H 522.278 -0.713435 1.39068 0
M  V30 5413 H 523.013 -3.15996 0.7292 0
M  V30 5414 H 522.798 -3.02208 2.49826 0
M  V30 5415 H 524.288 -3.75335 1.83066 0
M  V30 5416 N 524.725 -1.39134 -0.740242 0
M  V30 5417 C 525.635 -1.39697 -1.88473 0
M  V30 5418 C 526.651 -0.292403 -1.71526 0
M  V30 5419 O 527.827 -0.533021 -1.94219 0
M  V30 5420 C 524.892 -1.23382 -3.24003 0
M  V30 5421 C 523.953 -2.43763 -3.53381 0
M  V30 5422 C 523.186 -2.28216 -4.82445 0
M  V30 5423 O 523.409 -1.28288 -5.55786 0
M  V30 5424 O 522.343 -3.1709 -5.11603 0
M  V30 5425 H 526.169 -2.36159 -1.90952 0
M  V30 5426 H 523.754 -1.20194 -0.887346 0
M  V30 5427 H 525.636 -1.16395 -4.05006 0
M  V30 5428 H 524.311 -0.300121 -3.22306 0
M  V30 5429 H 523.218 -2.56325 -2.72485 0
M  V30 5430 H 524.551 -3.35808 -3.59852 0
M  V30 5431 N 526.204 0.969867 -1.24223 0
M  V30 5432 C 527.167 2.04564 -1.03373 0
M  V30 5433 C 528.167 1.60798 0.00819206 0
M  V30 5434 O 529.357 1.72641 -0.232567 0
M  V30 5435 C 526.489 3.36163 -0.566343 0
M  V30 5436 H 527.682 2.24494 -1.98853 0
M  V30 5437 H 525.235 1.1448 -1.06415 0
M  V30 5438 H 525.97 3.21925 0.391751 0
M  V30 5439 H 525.755 3.69273 -1.31834 0
M  V30 5440 H 527.245 4.1526 -0.441435 0
M  V30 5441 N 527.682 1.05563 1.17022 0
M  V30 5442 C 528.612 0.681026 2.23348 0
M  V30 5443 C 529.593 -0.322983 1.67005 0
M  V30 5444 O 530.778 -0.199746 1.9317 0
M  V30 5445 C 527.908 0.0589053 3.4725 0
M  V30 5446 C 526.862 0.988082 4.16438 0
M  V30 5447 C 526.188 0.229646 5.34207 0
M  V30 5448 C 527.488 2.31388 4.68249 0
M  V30 5449 H 529.182 1.56993 2.54938 0
M  V30 5450 H 526.728 0.756302 1.2254 0
M  V30 5451 H 528.681 -0.214982 4.20851 0
M  V30 5452 H 527.405 -0.864968 3.14938 0
M  V30 5453 H 526.064 1.24659 3.44754 0
M  V30 5454 H 525.712 -0.697111 4.98146 0
M  V30 5455 H 525.412 0.848815 5.81437 0
M  V30 5456 H 526.936 -0.0368694 6.10589 0
M  V30 5457 H 528.35 2.09964 5.33468 0
M  V30 5458 H 526.747 2.88736 5.26072 0
M  V30 5459 H 527.817 2.94982 3.84855 0
M  V30 5460 N 529.16 -1.33526 0.837174 0
M  V30 5461 C 530.576 -1.50727 0.524743 0
M  V30 5462 C 530.776 -1.77792 -0.948279 0
M  V30 5463 O 529.832 -1.83719 -1.73216 0
M  V30 5464 C 531.145 -2.66299 1.39661 0
M  V30 5465 C 532.693 -2.80183 1.39521 0
M  V30 5466 C 533.168 -3.98815 2.25189 0
M  V30 5467 N 534.659 -4.06047 2.2289 0
M  V30 5468 C 535.394 -4.97032 2.85915 0
M  V30 5469 N 534.89 -5.93143 3.57985 0
M  V30 5470 N 536.683 -4.90015 2.75394 0
M  V30 5471 H 528.834 -1.1422 1.79074 0
M  V30 5472 H 531.097 -0.561399 0.763894 0
M  V30 5473 H 530.803 -2.52974 2.4433 0
M  V30 5474 H 530.677 -3.61663 1.07145 0
M  V30 5475 H 533.064 -2.92942 0.356253 0
M  V30 5476 H 533.145 -1.85586 1.76044 0
M  V30 5477 H 532.789 -3.86817 3.29143 0
M  V30 5478 H 532.719 -4.92654 1.86009 0
M  V30 5479 H 535.21 -3.37262 1.70478 0
M  V30 5480 H 535.523 -6.59227 4.03286 0
M  V30 5481 H 533.868 -5.93223 3.62093 0
M  V30 5482 H 537.059 -4.13894 2.18654 0
M  V30 5483 H 537.232 -5.60724 3.24796 0
M  V30 5484 N 530.638 -0.59345 -1.46 0
M  V30 5485 C 531.548 0.135817 -2.34207 0
M  V30 5486 C 532.564 0.875008 -1.50398 0
M  V30 5487 O 533.74 0.835778 -1.83239 0
M  V30 5488 C 530.805 1.12977 -3.27776 0
M  V30 5489 C 529.866 0.394081 -4.27487 0
M  V30 5490 C 529.099 1.34068 -5.16586 0
M  V30 5491 O 529.322 2.5778 -5.08828 0
M  V30 5492 O 528.256 0.845426 -5.95933 0
M  V30 5493 H 532.082 -0.588691 -2.9794 0
M  V30 5494 H 529.667 -0.353784 -1.45151 0
M  V30 5495 H 531.549 1.70261 -3.85473 0
M  V30 5496 H 530.224 1.83556 -2.66625 0
M  V30 5497 H 529.131 -0.220869 -3.73447 0
M  V30 5498 H 530.464 -0.270939 -4.91454 0
M  V30 5499 N 532.116 1.54067 -0.331816 0
M  V30 5500 C 533.365 1.99895 0.269209 0
M  V30 5501 C 533.678 1.22371 1.52593 0
M  V30 5502 O 534.884 1.58618 2.20347 0
M  V30 5503 C 533.34 3.55972 0.530244 0
M  V30 5504 C 532.948 4.4234 -0.709901 0
M  V30 5505 C 534.692 4.10247 1.09077 0
M  V30 5506 C 532.599 5.89905 -0.420312 0
M  V30 5507 H 531.529 0.746741 0.104371 0
M  V30 5508 H 534.18 1.78014 -0.445324 0
M  V30 5509 H 532.562 3.73873 1.30518 0
M  V30 5510 H 533.736 4.36215 -1.48504 0
M  V30 5511 H 532.051 3.98997 -1.19123 0
M  V30 5512 H 534.648 5.18095 1.32219 0
M  V30 5513 H 534.991 3.62739 2.0427 0
M  V30 5514 H 535.524 3.96011 0.376824 0
M  V30 5515 H 532.263 6.41623 -1.34164 0
M  V30 5516 H 531.783 5.98962 0.316962 0
M  V30 5517 H 533.462 6.46991 -0.0331956 0
M  V30 5518 N 533.594 0.0601682 1.57485 0
M  V30 5519 C 534.819 -0.624416 1.97777 0
M  V30 5520 C 535.244 -1.63051 0.937867 0
M  V30 5521 O 534.602 -1.81036 -0.0978845 0
M  V30 5522 C 534.65 -1.27979 3.37126 0
M  V30 5523 O 533.754 -2.39556 3.35688 0
M  V30 5524 H 533.095 -0.161581 0.64404 0
M  V30 5525 H 535.625 0.131237 2.04179 0
M  V30 5526 H 535.635 -1.62937 3.74053 0
M  V30 5527 H 534.31 -0.542501 4.12347 0
M  V30 5528 H 532.887 -2.06478 3.10517 0
M  V30 5529 N 535.072 -1.5615 -0.213296 0
M  V30 5530 C 536.32 -1.79191 -0.934612 0
M  V30 5531 C 536.641 -0.630112 -1.84539 0
M  V30 5532 O 535.911 0.35257 -1.92701 0
M  V30 5533 H 534.491 -0.660937 -0.348097 0
M  V30 5534 H 537.153 -1.93618 -0.22317 0
M  V30 5535 H 536.249 -2.71656 -1.53654 0
M  V30 5536 N 536.55 0.480323 -1.50102 0
M  V30 5537 C 537.966 0.813295 -1.37323 0
M  V30 5538 C 538.166 1.97027 -0.422206 0
M  V30 5539 O 537.222 2.5212 0.138563 0
M  V30 5540 C 538.535 1.13404 -2.78496 0
M  V30 5541 C 540.083 1.24104 -2.87345 0
M  V30 5542 C 540.558 1.59497 -4.29331 0
M  V30 5543 N 542.049 1.66507 -4.32238 0
M  V30 5544 C 542.784 1.95378 -5.39087 0
M  V30 5545 N 542.28 2.22333 -6.56155 0
M  V30 5546 N 544.073 1.96803 -5.26522 0
M  V30 5547 H 536.224 -0.282291 -2.10516 0
M  V30 5548 H 538.487 -0.063752 -0.945854 0
M  V30 5549 H 538.193 0.357064 -3.49883 0
M  V30 5550 H 538.067 2.07251 -3.15162 0
M  V30 5551 H 540.454 2.00871 -2.16183 0
M  V30 5552 H 540.535 0.282593 -2.54234 0
M  V30 5553 H 540.179 0.832736 -5.01027 0
M  V30 5554 H 540.109 2.56477 -4.59921 0
M  V30 5555 H 542.6 1.47753 -3.47818 0
M  V30 5556 H 542.913 2.43611 -7.33399 0
M  V30 5557 H 541.258 2.19745 -6.59346 0
M  V30 5558 H 544.449 1.75235 -4.34062 0
M  V30 5559 H 544.622 2.18969 -6.09883 0
M  V30 5560 N 538.028 1.39524 0.732853 0
M  V30 5561 C 538.958 1.41153 1.86005 0
M  V30 5562 C 539.939 0.274614 1.67869 0
M  V30 5563 O 541.124 0.480745 1.88155 0
M  V30 5564 C 538.254 1.25638 3.23778 0
M  V30 5565 C 537.208 2.36752 3.56556 0
M  V30 5566 C 536.534 2.06326 4.93289 0
M  V30 5567 C 537.834 3.79069 3.5931 0
M  V30 5568 H 539.528 2.35484 1.84899 0
M  V30 5569 H 537.074 1.13348 0.888162 0
M  V30 5570 H 539.027 1.25398 4.0231 0
M  V30 5571 H 537.751 0.277772 3.25417 0
M  V30 5572 H 536.41 2.36213 2.80355 0
M  V30 5573 H 536.058 1.06897 4.9151 0
M  V30 5574 H 535.758 2.80757 5.16187 0
M  V30 5575 H 537.282 2.07739 5.74175 0
M  V30 5576 H 538.696 3.81526 4.27914 0
M  V30 5577 H 537.093 4.52878 3.93728 0
M  V30 5578 H 538.163 4.09893 2.59068 0
M  V30 5579 N 539.506 -0.963266 1.24736 0
M  V30 5580 C 540.469 -2.04013 1.04457 0
M  V30 5581 C 541.469 -1.608 0.000335555 0
M  V30 5582 O 542.659 -1.72515 0.241719 0
M  V30 5583 C 539.791 -3.35858 0.584162 0
M  V30 5584 H 540.984 -2.23436 2.00041 0
M  V30 5585 H 538.537 -1.13914 1.07021 0
M  V30 5586 H 539.272 -3.22128 -0.374673 0
M  V30 5587 H 539.057 -3.68568 1.3379 0
M  V30 5588 H 540.547 -4.1502 0.463451 0
M  V30 5589 N 540.985 -1.06182 -1.16461 0
M  V30 5590 C 541.895 -0.682671 -2.24448 0
M  V30 5591 C 542.911 0.30078 -1.71381 0
M  V30 5592 O 544.087 0.150376 -2.00838 0
M  V30 5593 C 541.152 -0.0737202 -3.46622 0
M  V30 5594 C 540.213 -1.10889 -4.14731 0
M  V30 5595 C 539.446 -0.528908 -5.31073 0
M  V30 5596 O 539.669 0.65868 -5.66584 0
M  V30 5597 O 538.603 -1.26805 -5.88391 0
M  V30 5598 H 542.429 -1.58291 -2.59187 0
M  V30 5599 H 540.014 -0.834013 -1.23954 0
M  V30 5600 H 541.896 0.264192 -4.20571 0
M  V30 5601 H 540.571 0.800015 -3.13658 0
M  V30 5602 H 539.478 -1.49896 -3.42756 0
M  V30 5603 H 540.811 -1.95412 -4.51747 0
M  V30 5604 N 542.463 1.3308 -0.844243 0
M  V30 5605 C 543.396 2.27075 -0.226279 0
M  V30 5606 C 544.374 1.49911 0.629716 0
M  V30 5607 O 545.558 1.79068 0.588803 0
M  V30 5608 C 542.685 3.31767 0.681782 0
M  V30 5609 C 541.731 4.26384 -0.0994565 0
M  V30 5610 S 542.564 5.15186 -1.46094 0
M  V30 5611 C 543.72 6.23405 -0.558319 0
M  V30 5612 H 543.953 2.79141 -1.02312 0
M  V30 5613 H 541.486 1.40452 -0.641292 0
M  V30 5614 H 543.444 3.92566 1.20008 0
M  V30 5615 H 542.105 2.78507 1.45234 0
M  V30 5616 H 541.298 5.00514 0.591733 0
M  V30 5617 H 540.9 3.69949 -0.548991 0
M  V30 5618 H 543.192 6.77069 0.241672 0
M  V30 5619 H 544.135 6.96619 -1.26995 0
M  V30 5620 H 544.543 5.64333 -0.13728 0
M  V30 5621 N 543.941 0.601185 1.45683 0
M  V30 5622 C 545.352 0.179659 1.85834 0
M  V30 5623 C 545.703 -1.26189 1.50236 0
M  V30 5624 O 544.828 -1.95587 0.925987 0
M  V30 5625 C 545.423 0.319277 3.37292 0
M  V30 5626 C 543.982 -0.0475092 3.7637 0
M  V30 5627 C 543.129 0.646692 2.69654 0
M  V30 5628 H 546.08 0.808268 1.36575 0
M  V30 5629 H 546.101 -0.4503 3.77826 0
M  V30 5630 H 545.613 1.36855 3.6317 0
M  V30 5631 H 543.714 -1.0962 3.5611 0
M  V30 5632 H 543.827 0.34168 4.7788 0
M  V30 5633 H 542.191 0.0849971 2.54558 0
M  V30 5634 H 542.974 1.69797 2.98369 0
M  V30 5635 N 545.419 -1.53889 0.339982 0
M  V30 5636 C 546.382 -2.23547 -0.50592 0
M  V30 5637 C 547.382 -1.23445 -1.03044 0
M  V30 5638 O 548.572 -1.47909 -0.920253 0
M  V30 5639 C 545.704 -2.95234 -1.7044 0
M  V30 5640 H 546.897 -2.99722 0.103247 0
M  V30 5641 H 544.45 -1.56033 0.0912804 0
M  V30 5642 H 545.185 -2.23236 -2.35236 0
M  V30 5643 H 544.97 -3.68654 -1.33553 0
M  V30 5644 H 546.46 -3.48258 -2.30447 0
M  V30 5645 N 546.897 -0.0685191 -1.57451 0
M  V30 5646 C 548.174 0.642167 -1.84758 0
M  V30 5647 C 548.554 1.87991 -0.960344 0
M  V30 5648 O 547.902 2.28485 -0.0257894 0
M  V30 5649 C 548.112 0.982946 -3.34872 0
M  V30 5650 C 549.46 1.35784 -4.02303 0
M  V30 5651 O 550.484 1.07477 -3.39598 0
M  V30 5652 O 549.343 1.88681 -5.12895 0
M  V30 5653 H 546.437 0.318625 -0.763156 0
M  V30 5654 H 548.983 -0.0992015 -1.6941 0
M  V30 5655 H 547.755 0.10372 -3.91163 0
M  V30 5656 H 547.378 1.78119 -3.55471 0
M  V30 5657 N 548.375 1.56261 0.205012 0
M  V30 5658 C 549.6 1.84491 0.947512 0
M  V30 5659 C 550.025 0.650894 1.76479 0
M  V30 5660 O 549.383 -0.40035 1.76824 0
M  V30 5661 C 549.431 3.10863 1.82747 0
M  V30 5662 O 548.535 2.90719 2.925 0
M  V30 5663 H 547.876 0.607783 0.267386 0
M  V30 5664 H 550.406 2.03485 0.213323 0
M  V30 5665 H 550.416 3.41399 2.23407 0
M  V30 5666 H 549.091 3.97392 1.2269 0
M  V30 5667 H 547.668 2.71457 2.55667 0
M  V30 5668 N 549.853 -0.472356 1.50355 0
M  V30 5669 C 551.101 -1.22211 1.60962 0
M  V30 5670 C 551.422 -1.92497 0.311439 0
M  V30 5671 O 550.692 -1.8405 -0.671002 0
M  V30 5672 H 549.272 -0.454092 0.593135 0
M  V30 5673 H 551.934 -0.544977 1.87126 0
M  V30 5674 H 551.03 -1.9707 2.42012 0
M  V30 5675 N 551.331 -1.39911 -0.725443 0
M  V30 5676 C 552.561 -1.40744 -1.51244 0
M  V30 5677 C 552.969 -0.00275403 -1.892 0
M  V30 5678 O 552.312 0.981299 -1.55294 0
M  V30 5679 C 552.374 -2.22527 -2.82351 0
M  V30 5680 C 552.038 -3.71053 -2.66774 0
M  V30 5681 C 553.035 -4.63916 -2.34686 0
M  V30 5682 C 550.72 -4.14753 -2.83347 0
M  V30 5683 C 552.714 -5.98463 -2.19366 0
M  V30 5684 C 550.401 -5.49372 -2.67644 0
M  V30 5685 C 551.399 -6.41042 -2.357 0
M  V30 5686 O 551.087 -7.73181 -2.20107 0
M  V30 5687 H 550.819 -0.482314 -0.473655 0
M  V30 5688 H 553.373 -1.84472 -0.903284 0
M  V30 5689 H 551.603 -1.73563 -3.45562 0
M  V30 5690 H 553.292 -2.15421 -3.44018 0
M  V30 5691 H 554.058 -4.31453 -2.21525 0
M  V30 5692 H 549.937 -3.43728 -3.072 0
M  V30 5693 H 553.481 -6.69979 -1.94354 0
M  V30 5694 H 549.378 -5.81424 -2.80387 0
M  V30 5695 H 550.146 -7.84008 -2.35103 0
M  V30 5696 N 552.809 0.956637 -1.25245 0
M  V30 5697 C 554.22 1.51569 -1.09012 0
M  V30 5698 C 554.571 1.93322 0.334813 0
M  V30 5699 O 553.696 1.78421 1.22454 0
M  V30 5700 C 554.291 2.75444 -1.97271 0
M  V30 5701 C 552.85 3.27669 -1.8523 0
M  V30 5702 C 551.997 2.00517 -1.91542 0
M  V30 5703 H 554.948 0.773746 -1.3856 0
M  V30 5704 H 554.969 3.4919 -1.51151 0
M  V30 5705 H 554.481 2.45024 -3.00973 0
M  V30 5706 H 552.582 3.62914 -0.844045 0
M  V30 5707 H 552.695 3.9582 -2.69932 0
M  V30 5708 H 551.059 2.15727 -1.35404 0
M  V30 5709 H 551.842 1.72448 -2.96844 0
M  V30 5710 N 554.287 1.06798 1.15896 0
M  V30 5711 C 555.25 0.687328 2.18651 0
M  V30 5712 C 556.25 -0.269559 1.58524 0
M  V30 5713 O 557.44 -0.0512627 1.74125 0
M  V30 5714 C 554.572 0.0121642 3.40898 0
M  V30 5715 H 555.765 1.59701 2.53842 0
M  V30 5716 H 553.318 0.863828 1.3026 0
M  V30 5717 H 554.053 -0.910025 3.1127 0
M  V30 5718 H 553.838 0.700309 3.85795 0
M  V30 5719 H 555.328 -0.239703 4.16911 0
M  V30 5720 N 555.766 -1.3263 0.851289 0
M  V30 5721 C 556.996 -2.01271 0.466222 0
M  V30 5722 C 557.404 -1.64156 -0.940714 0
M  V30 5723 O 556.747 -0.857109 -1.62479 0
M  V30 5724 C 556.809 -3.55695 0.521672 0
M  V30 5725 C 556.473 -4.16227 1.88691 0
M  V30 5726 C 557.47 -4.34699 2.85189 0
M  V30 5727 C 555.155 -4.52377 2.18313 0
M  V30 5728 C 557.149 -4.88484 4.09465 0
M  V30 5729 C 554.836 -5.05868 3.42843 0
M  V30 5730 C 555.834 -5.23869 4.38235 0
M  V30 5731 O 555.522 -5.76218 5.6056 0
M  V30 5732 H 555.254 -0.651034 0.18202 0
M  V30 5733 H 557.808 -1.7026 1.14894 0
M  V30 5734 H 556.038 -3.86086 -0.217888 0
M  V30 5735 H 557.727 -4.05613 0.152682 0
M  V30 5736 H 558.493 -4.07107 2.63607 0
M  V30 5737 H 554.372 -4.37652 1.44851 0
M  V30 5738 H 557.916 -5.02451 4.83931 0
M  V30 5739 H 553.813 -5.32891 3.64277 0
M  V30 5740 H 554.581 -5.94616 5.62471 0
M  V30 5741 N 557.244 -0.608902 -1.45362 0
M  V30 5742 C 558.174 0.0964526 -2.33301 0
M  V30 5743 C 559.155 0.857444 -1.46908 0
M  V30 5744 O 560.34 0.827735 -1.75676 0
M  V30 5745 C 557.47 1.09354 -3.29635 0
M  V30 5746 C 556.424 0.445676 -4.25673 0
M  V30 5747 C 555.75 1.5511 -5.11708 0
M  V30 5748 C 557.05 -0.633972 -5.18438 0
M  V30 5749 H 558.744 -0.637829 -2.92527 0
M  V30 5750 H 556.29 -0.308178 -1.40664 0
M  V30 5751 H 558.243 1.59556 -3.90025 0
M  V30 5752 H 556.967 1.85843 -2.6857 0
M  V30 5753 H 555.626 -0.0354897 -3.66583 0
M  V30 5754 H 555.274 2.30631 -4.4701 0
M  V30 5755 H 554.974 1.12311 -5.76767 0
M  V30 5756 H 556.498 2.05537 -5.74967 0
M  V30 5757 H 557.912 -0.215974 -5.72893 0
M  V30 5758 H 556.309 -0.983789 -5.91981 0
M  V30 5759 H 557.379 -1.51005 -4.60788 0
M  V30 5760 N 558.722 1.53707 -0.348139 0
M  V30 5761 C 559.97 2.00591 0.246478 0
M  V30 5762 C 560.291 1.23753 1.50699 0
M  V30 5763 O 559.561 0.345964 1.92821 0
M  V30 5764 H 558.141 0.741053 0.0940679 0
M  V30 5765 H 560.803 1.89139 -0.470354 0
M  V30 5766 H 559.899 3.08297 0.485714 0
M  V30 5767 N 560.2 0.0768682 1.57412 0
M  V30 5768 C 561.163 -0.873949 2.11884 0
M  V30 5769 C 562.163 -1.22301 1.04398 0
M  V30 5770 O 563.353 -1.15545 1.30365 0
M  V30 5771 C 560.485 -2.17575 2.62438 0
M  V30 5772 H 561.678 -0.401278 2.97203 0
M  V30 5773 H 559.231 -0.171904 1.55352 0
M  V30 5774 H 559.966 -2.69368 1.80587 0
M  V30 5775 H 559.751 -1.93534 3.41009 0
M  V30 5776 H 561.241 -2.85631 3.04639 0
M  V30 5777 N 561.678 -1.56367 -0.196722 0
M  V30 5778 C 563.094 -1.49916 -0.54749 0
M  V30 5779 C 563.294 -0.77659 -1.85934 0
M  V30 5780 O 562.35 -0.32644 -2.50381 0
M  V30 5781 C 563.663 -2.94577 -0.603734 0
M  V30 5782 C 565.211 -3.05239 -0.692677 0
M  V30 5783 C 565.686 -4.51308 -0.780046 0
M  V30 5784 N 567.177 -4.55453 -0.843616 0
M  V30 5785 C 567.912 -5.65786 -0.931358 0
M  V30 5786 N 567.408 -6.85812 -0.981503 0
M  V30 5787 N 569.201 -5.53695 -0.968421 0
M  V30 5788 H 561.352 -2.01761 0.663803 0
M  V30 5789 H 563.615 -0.918094 0.236238 0
M  V30 5790 H 563.321 -3.50494 0.29105 0
M  V30 5791 H 563.195 -3.47841 -1.45898 0
M  V30 5792 H 565.582 -2.49372 -1.57789 0
M  V30 5793 H 565.663 -2.55103 0.188736 0
M  V30 5794 H 565.307 -5.078 0.100811 0
M  V30 5795 H 565.237 -4.99176 -1.67724 0
M  V30 5796 H 567.728 -3.69025 -0.814176 0
M  V30 5797 H 568.041 -7.65648 -1.04892 0
M  V30 5798 H 566.386 -6.88474 -0.950208 0
M  V30 5799 H 569.577 -4.58848 -0.926072 0
M  V30 5800 H 569.75 -6.39708 -1.03334 0
M  V30 5801 N 563.156 0.464375 -1.50603 0
M  V30 5802 C 564.086 1.56944 -1.72889 0
M  V30 5803 C 565.067 1.59979 -0.577997 0
M  V30 5804 O 566.252 1.76138 -0.817855 0
M  V30 5805 C 563.382 2.95225 -1.8292 0
M  V30 5806 C 562.336 3.07056 -2.98162 0
M  V30 5807 C 561.662 4.47051 -2.93343 0
M  V30 5808 C 562.962 2.83648 -4.38567 0
M  V30 5809 H 564.656 1.38547 -2.65415 0
M  V30 5810 H 562.202 0.665082 -1.27721 0
M  V30 5811 H 564.155 3.72467 -1.97095 0
M  V30 5812 H 562.879 3.14793 -0.870209 0
M  V30 5813 H 561.538 2.32248 -2.83648 0
M  V30 5814 H 561.186 4.63547 -1.95276 0
M  V30 5815 H 560.886 4.55902 -3.70712 0
M  V30 5816 H 562.41 5.26304 -3.09575 0
M  V30 5817 H 563.824 3.50636 -4.53572 0
M  V30 5818 H 562.221 3.03937 -5.17438 0
M  V30 5819 H 563.291 1.79451 -4.50472 0
M  V30 5820 N 564.634 1.40294 0.718013 0
M  V30 5821 C 565.597 1.4012 1.81381 0
M  V30 5822 C 566.597 0.295405 1.58063 0
M  V30 5823 O 567.787 0.554187 1.6515 0
M  V30 5824 C 564.919 1.19056 3.19435 0
M  V30 5825 H 566.112 2.37645 1.82933 0
M  V30 5826 H 563.665 1.26107 0.923405 0
M  V30 5827 H 564.4 0.222809 3.23534 0
M  V30 5828 H 564.185 1.99152 3.37758 0
M  V30 5829 H 565.675 1.21716 3.99468 0
M  V30 5830 N 566.112 -0.949982 1.2575 0
M  V30 5831 C 567.337 -1.73503 1.13628 0
M  V30 5832 C 567.762 -1.85601 -0.30559 0
M  V30 5833 O 567.12 -1.33984 -1.22139 0
M  V30 5834 C 567.168 -3.1243 1.80055 0
M  V30 5835 O 566.272 -3.97916 1.08336 0
M  V30 5836 H 565.613 -0.532665 0.396439 0
M  V30 5837 H 568.143 -1.19043 1.66403 0
M  V30 5838 H 568.153 -3.62866 1.86527 0
M  V30 5839 H 566.828 -3.02941 2.84956 0
M  V30 5840 H 565.405 -3.56375 1.09777 0
M  V30 5841 N 567.59 -1.07411 -1.15328 0
M  V30 5842 C 568.837 -0.797649 -1.86128 0
M  V30 5843 C 569.165 0.676298 -1.82364 0
M  V30 5844 O 568.42 1.51223 -1.24218 0
M  V30 5845 C 568.719 -1.25191 -3.34757 0
M  V30 5846 C 568.385 -2.73191 -3.58716 0
M  V30 5847 C 567.047 -3.13616 -3.64964 0
M  V30 5848 C 569.399 -3.68718 -3.6837 0
M  V30 5849 C 566.727 -4.48383 -3.78377 0
M  V30 5850 C 569.079 -5.03248 -3.83306 0
M  V30 5851 C 567.743 -5.43293 -3.878 0
M  V30 5852 H 567.013 -0.29188 -0.681092 0
M  V30 5853 H 569.66 -1.34524 -1.36292 0
M  V30 5854 H 567.965 -0.623712 -3.86804 0
M  V30 5855 H 569.662 -1.01489 -3.87945 0
M  V30 5856 H 566.252 -2.40898 -3.54494 0
M  V30 5857 H 570.436 -3.38614 -3.62842 0
M  V30 5858 H 565.692 -4.78877 -3.80114 0
M  V30 5859 H 569.866 -5.77142 -3.89718 0
M  V30 5860 H 567.493 -6.47721 -3.97946 0
M  V30 5861 N 569.068 1.32177 -0.85831 0
M  V30 5862 C 570.298 2.01021 -0.476889 0
M  V30 5863 C 570.706 1.64653 0.931995 0
M  V30 5864 O 570.049 0.865713 1.62022 0
M  V30 5865 C 570.111 3.55413 -0.540528 0
M  V30 5866 C 569.775 4.1522 -1.90895 0
M  V30 5867 C 570.772 4.3318 -2.87491 0
M  V30 5868 C 568.457 4.51212 -2.20709 0
M  V30 5869 C 570.451 4.86306 -4.1205 0
M  V30 5870 C 568.138 5.04042 -3.45521 0
M  V30 5871 C 569.136 5.21538 -4.41007 0
M  V30 5872 O 568.824 5.73238 -5.63608 0
M  V30 5873 H 568.556 0.650059 -0.18547 0
M  V30 5874 H 571.11 1.69648 -1.15796 0
M  V30 5875 H 569.34 3.86196 0.19741 0
M  V30 5876 H 571.029 4.05526 -0.174191 0
M  V30 5877 H 571.795 4.05704 -2.65762 0
M  V30 5878 H 567.674 4.36878 -1.4717 0
M  V30 5879 H 571.218 4.99877 -4.86589 0
M  V30 5880 H 567.115 5.30952 -3.67098 0
M  V30 5881 H 567.883 5.91625 -5.65617 0
M  V30 5882 N 570.547 0.616602 1.45037 0
M  V30 5883 C 571.457 -0.0985401 2.34393 0
M  V30 5884 C 572.473 -0.850971 1.51771 0
M  V30 5885 O 573.649 -0.806521 1.84546 0
M  V30 5886 C 570.714 -1.07748 3.29532 0
M  V30 5887 C 569.775 -0.326022 4.2806 0
M  V30 5888 C 569.008 -1.25833 5.18654 0
M  V30 5889 O 569.231 -2.49652 5.12864 0
M  V30 5890 O 568.165 -0.750512 5.97203 0
M  V30 5891 H 571.991 0.636016 2.96966 0
M  V30 5892 H 569.576 0.376832 1.44569 0
M  V30 5893 H 571.458 -1.64107 3.88133 0
M  V30 5894 H 570.133 -1.79291 2.69512 0
M  V30 5895 H 569.04 0.280253 3.73049 0
M  V30 5896 H 570.373 0.349091 4.9096 0
M  V30 5897 N 572.025 -1.5352 0.356285 0
M  V30 5898 C 573.441 -1.59599 0.00485267 0
M  V30 5899 C 573.641 -1.37179 -1.47595 0
M  V30 5900 O 572.697 -1.17234 -2.23635 0
M  V30 5901 C 574.01 -2.97277 0.452454 0
M  V30 5902 C 575.558 -3.10357 0.405881 0
M  V30 5903 C 576.033 -4.50432 0.829148 0
M  V30 5904 N 577.524 -4.5652 0.783838 0
M  V30 5905 C 578.259 -5.63077 1.08315 0
M  V30 5906 N 577.755 -6.77429 1.45126 0
M  V30 5907 N 579.548 -5.53014 1.00655 0
M  V30 5908 H 571.699 -1.66346 1.32071 0
M  V30 5909 H 573.962 -0.77971 0.539218 0
M  V30 5910 H 573.668 -3.18792 1.48542 0
M  V30 5911 H 573.542 -3.76836 -0.165762 0
M  V30 5912 H 575.929 -2.88558 -0.617934 0
M  V30 5913 H 576.01 -2.32828 1.05947 0
M  V30 5914 H 575.654 -4.72968 1.85103 0
M  V30 5915 H 575.584 -5.26378 0.152906 0
M  V30 5916 H 578.075 -3.74408 0.512513 0
M  V30 5917 H 578.388 -7.54669 1.66415 0
M  V30 5918 H 576.733 -6.78844 1.48983 0
M  V30 5919 H 579.924 -4.62557 0.718215 0
M  V30 5920 H 580.097 -6.35964 1.24315 0
M  V30 5921 N 573.503 -0.0852151 -1.57369 0
M  V30 5922 C 574.466 0.8627 -2.12344 0
M  V30 5923 C 575.466 1.21746 -1.05046 0
M  V30 5924 O 576.656 1.14852 -1.30976 0
M  V30 5925 C 573.788 2.1618 -2.63589 0
M  V30 5926 H 574.981 0.385511 -2.97412 0
M  V30 5927 H 572.534 0.163663 -1.55441 0
M  V30 5928 H 573.269 2.68406 -1.82013 0
M  V30 5929 H 573.054 1.91723 -3.4203 0
M  V30 5930 H 574.544 2.84011 -3.06149 0
M  V30 5931 N 574.981 1.5647 0.188427 0
M  V30 5932 C 576.229 1.80655 0.905986 0
M  V30 5933 C 576.55 0.659391 1.83513 0
M  V30 5934 O 575.82 -0.321868 1.93238 0
M  V30 5935 H 574.4 0.666391 0.337538 0
M  V30 5936 H 577.062 1.93949 0.192339 0
M  V30 5937 H 576.158 2.74066 1.49313 0
M  V30 5938 N 576.459 -0.456382 1.50847 0
M  V30 5939 C 577.875 -0.791345 1.386 0
M  V30 5940 C 578.075 -1.9633 0.453498 0
M  V30 5941 O 577.131 -2.52308 -0.0984353 0
M  V30 5942 C 578.444 -1.08959 2.80265 0
M  V30 5943 C 579.992 -1.19517 2.89283 0
M  V30 5944 C 580.467 -1.52647 4.31814 0
M  V30 5945 N 581.958 -1.59609 4.34832 0
M  V30 5946 C 582.693 -1.86777 5.42127 0
M  V30 5947 N 582.189 -2.11866 6.59609 0
M  V30 5948 N 583.982 -1.88402 5.29586 0
M  V30 5949 H 576.133 0.315746 2.1004 0
M  V30 5950 H 578.396 0.0787916 0.94472 0
M  V30 5951 H 578.102 -0.301355 3.50407 0
M  V30 5952 H 577.976 -2.02211 3.18419 0
M  V30 5953 H 580.363 -1.97406 2.19351 0
M  V30 5954 H 580.444 -0.242111 2.54652 0
M  V30 5955 H 580.088 -0.752922 5.02288 0
M  V30 5956 H 580.018 -2.49127 4.63943 0
M  V30 5957 H 582.509 -1.42201 3.50125 0
M  V30 5958 H 582.822 -2.31912 7.37182 0
M  V30 5959 H 581.167 -2.09228 6.62758 0
M  V30 5960 H 584.358 -1.68307 4.36795 0
M  V30 5961 H 584.531 -2.09238 6.13289 0
M  V30 5962 N 577.937 -1.40673 -0.710563 0
M  V30 5963 C 579.183 -1.39428 -1.47267 0
M  V30 5964 C 579.516 0.00182129 -1.942 0
M  V30 5965 O 578.791 0.971387 -1.68506 0
M  V30 5966 C 579.074 -2.38812 -2.6952 0
M  V30 5967 C 578.927 -3.87467 -2.28449 0
M  V30 5968 C 580.246 -2.3566 -3.71689 0
M  V30 5969 H 577.365 -0.507768 -0.534173 0
M  V30 5970 H 580.007 -1.71843 -0.810547 0
M  V30 5971 H 578.157 -2.113 -3.26013 0
M  V30 5972 H 579.829 -4.25825 -1.77399 0
M  V30 5973 H 578.072 -4.03058 -1.60395 0
M  V30 5974 H 578.743 -4.5253 -3.16103 0
M  V30 5975 H 581.219 -2.6004 -3.24836 0
M  V30 5976 H 580.095 -3.07237 -4.54859 0
M  V30 5977 H 580.356 -1.36996 -4.20339 0
M  V30 5978 N 579.415 0.9433 -1.26252 0
M  V30 5979 C 580.362 2.0417 -1.07625 0
M  V30 5980 C 581.332 1.6609 0.0180738 0
M  V30 5981 O 582.517 1.90276 -0.141289 0
M  V30 5982 C 579.657 3.37653 -0.713043 0
M  V30 5983 C 578.77 3.88783 -1.8834 0
M  V30 5984 C 577.905 5.10642 -1.4635 0
M  V30 5985 C 576.944 5.54028 -2.60229 0
M  V30 5986 N 576.081 6.67092 -2.18936 0
M  V30 5987 H 580.921 2.19436 -2.01623 0
M  V30 5988 H 578.458 1.07519 -1.00389 0
M  V30 5989 H 580.416 4.14391 -0.483358 0
M  V30 5990 H 579.046 3.22241 0.18996 0
M  V30 5991 H 578.098 3.08464 -2.22608 0
M  V30 5992 H 579.41 4.16922 -2.73821 0
M  V30 5993 H 578.564 5.94832 -1.19414 0
M  V30 5994 H 577.303 4.84244 -0.579568 0
M  V30 5995 H 576.308 4.68396 -2.87898 0
M  V30 5996 H 577.533 5.82429 -3.49219 0
M  V30 5997 H 575.479 6.42381 -1.32974 0
M  V30 5998 H 575.396 6.94806 -2.97961 0
M  V30 5999 H 576.664 7.54662 -1.95206 0
M  V30 6000 N 580.893 1.08022 1.14757 0
M  V30 6001 C 582.133 0.816959 1.87364 0
M  V30 6002 C 582.497 -0.645407 1.80827 0
M  V30 6003 O 583.698 -1.024 2.48531 0
M  V30 6004 C 581.969 1.31961 3.32146 0
M  V30 6005 S 583.528 1.18806 4.2241 0
M  V30 6006 H 580.346 0.295862 0.646519 0
M  V30 6007 H 582.948 1.3807 1.38408 0
M  V30 6008 H 581.652 2.37847 3.3445 0
M  V30 6009 H 581.183 0.751371 3.86158 0
M  V30 6010 H 583.198 0.129865 4.9603 0
M  V30 6011 N 582.371 -1.3172 0.865308 0
M  V30 6012 C 583.301 -2.31109 0.333302 0
M  V30 6013 C 584.282 -1.60148 -0.573301 0
M  V30 6014 O 585.467 -1.87882 -0.491305 0
M  V30 6015 C 582.597 -3.44104 -0.470078 0
M  V30 6016 C 581.551 -4.26623 0.343021 0
M  V30 6017 C 580.877 -5.31482 -0.585756 0
M  V30 6018 C 582.177 -4.98001 1.57456 0
M  V30 6019 H 583.871 -2.75855 1.1638 0
M  V30 6020 H 581.417 -1.3262 0.561069 0
M  V30 6021 H 583.37 -4.12682 -0.852752 0
M  V30 6022 H 582.094 -2.98112 -1.33404 0
M  V30 6023 H 580.753 -3.59707 0.707583 0
M  V30 6024 H 580.401 -4.81741 -1.44686 0
M  V30 6025 H 580.101 -5.87582 -0.0456494 0
M  V30 6026 H 581.625 -6.0292 -0.965375 0
M  V30 6027 H 583.039 -5.59201 1.26359 0
M  V30 6028 H 581.436 -5.63876 2.05339 0
M  V30 6029 H 582.506 -4.25253 2.32997 0
M  V30 6030 N 583.85 -0.624285 -1.44708 0
M  V30 6031 C 585.098 -0.125802 -2.01708 0
M  V30 6032 C 585.418 1.2543 -1.49306 0
M  V30 6033 O 584.689 1.83198 -0.693924 0
M  V30 6034 H 583.269 -0.0435161 -0.745731 0
M  V30 6035 H 585.931 -0.809446 -1.77296 0
M  V30 6036 H 585.027 -0.0882734 -3.11975 0
M  V30 6037 N 585.328 1.53329 -0.364422 0
M  V30 6038 C 586.276 2.27212 0.497737 0
M  V30 6039 C 587.27 1.30146 1.08437 0
M  V30 6040 O 588.476 1.47778 1.0277 0
M  V30 6041 H 584.851 0.730329 0.179232 0
M  V30 6042 H 586.822 2.98037 -0.147182 0
M  V30 6043 C 585.571 3.07333 1.6261 0
M  V30 6044 H 584.894 3.81866 1.184 0
M  V30 6045 H 586.334 3.62209 2.20409 0
M  V30 6046 C 584.793 2.18102 2.56775 0
M  V30 6047 O 585.323 1.79104 3.59562 0
M  V30 6048 N 583.529 1.82759 2.25937 0
M  V30 6049 H 583.076 2.14671 1.42387 0
M  V30 6050 H 583.034 1.23342 2.89196 0
M  V30 6051 N 586.806 0.0935595 1.57322 0
M  V30 6052 C 588.217 -0.435807 1.81542 0
M  V30 6053 C 588.568 -1.68263 1.00907 0
M  V30 6054 O 587.693 -2.15087 0.237983 0
M  V30 6055 C 588.288 -0.797436 3.29282 0
M  V30 6056 C 586.847 -1.27155 3.54272 0
M  V30 6057 C 585.994 -0.267455 2.76007 0
M  V30 6058 H 588.945 0.31902 1.5546 0
M  V30 6059 H 588.966 -1.6571 3.42521 0
M  V30 6060 H 588.478 0.110206 3.87943 0
M  V30 6061 H 586.579 -2.19696 3.00939 0
M  V30 6062 H 586.692 -1.23445 4.62923 0
M  V30 6063 H 585.056 -0.749282 2.43429 0
M  V30 6064 H 585.839 0.632839 3.37417 0
M  V30 6065 N 588.284 -1.56567 -0.180126 0
M  V30 6066 C 589.194 -1.98947 -1.24327 0
M  V30 6067 C 590.21 -0.899446 -1.4895 0
M  V30 6068 O 591.386 -1.20639 -1.61271 0
M  V30 6069 C 588.451 -2.33328 -2.56435 0
M  V30 6070 C 587.512 -3.56114 -2.39752 0
M  V30 6071 C 586.745 -3.88845 -3.65561 0
M  V30 6072 O 586.968 -3.22662 -4.70368 0
M  V30 6073 O 585.902 -4.82226 -3.60197 0
M  V30 6074 H 589.728 -2.89634 -0.913565 0
M  V30 6075 H 587.313 -1.44319 -0.386306 0
M  V30 6076 H 589.195 -2.5645 -3.34382 0
M  V30 6077 H 587.87 -1.45806 -2.89002 0
M  V30 6078 H 586.777 -3.38221 -1.59866 0
M  V30 6079 H 588.11 -4.4415 -2.12113 0
M  V30 6080 N 589.762 0.448376 -1.51087 0
M  V30 6081 C 591.178 0.783984 -1.39017 0
M  V30 6082 C 591.378 1.96087 -0.463904 0
M  V30 6083 O 590.434 2.52357 0.0850534 0
M  V30 6084 C 591.747 1.07471 -2.80839 0
M  V30 6085 C 593.295 1.17981 -2.89913 0
M  V30 6086 C 593.77 1.50354 -4.32617 0
M  V30 6087 N 595.261 1.57301 -4.35673 0
M  V30 6088 C 595.996 1.839 -5.4311 0
M  V30 6089 N 595.492 2.08365 -6.60724 0
M  V30 6090 N 597.285 1.8559 -5.30578 0
M  V30 6091 H 589.436 -0.326881 -2.0987 0
M  V30 6092 H 591.699 -0.0838006 -0.944289 0
M  V30 6093 H 591.405 0.282768 -3.50561 0
M  V30 6094 H 591.279 2.00519 -3.19487 0
M  V30 6095 H 593.666 1.9624 -2.20395 0
M  V30 6096 H 593.747 0.228603 -2.54776 0
M  V30 6097 H 593.391 0.726273 -5.0268 0
M  V30 6098 H 593.321 2.46663 -4.65258 0
M  V30 6099 H 595.812 1.40342 -3.50874 0
M  V30 6100 H 596.125 2.27999 -7.38401 0
M  V30 6101 H 594.47 2.0571 -6.63859 0
M  V30 6102 H 597.661 1.65989 -4.37682 0
M  V30 6103 H 597.834 2.05983 -6.1439 0
M  V30 6104 N 591.24 1.41047 0.703093 0
M  V30 6105 C 592.15 1.44645 1.84703 0
M  V30 6106 C 593.166 0.337778 1.7069 0
M  V30 6107 O 594.342 0.584327 1.92737 0
M  V30 6108 C 591.407 1.31928 3.20618 0
M  V30 6109 C 590.468 2.53047 3.46794 0
M  V30 6110 C 589.701 2.40927 4.76224 0
M  V30 6111 O 589.924 1.42978 5.5219 0
M  V30 6112 O 588.858 3.30543 5.03016 0
M  V30 6113 H 592.684 2.41139 1.84624 0
M  V30 6114 H 590.269 1.22504 0.855167 0
M  V30 6115 H 592.151 1.27092 4.01778 0
M  V30 6116 H 590.826 0.385469 3.21397 0
M  V30 6117 H 589.733 2.6346 2.65593 0
M  V30 6118 H 591.066 3.45231 3.50822 0
M  V30 6119 N 592.718 -0.936591 1.26751 0
M  V30 6120 C 593.966 -1.67998 1.12343 0
M  V30 6121 C 594.287 -1.92137 -0.332938 0
M  V30 6122 O 593.557 -1.52132 -1.23421 0
M  V30 6123 H 592.137 -0.622609 0.412756 0
M  V30 6124 H 594.799 -1.12509 1.59147 0
M  V30 6125 H 593.895 -2.65185 1.64571 0
M  V30 6126 N 594.196 -1.08629 -1.14182 0
M  V30 6127 C 595.421 -0.83902 -1.89671 0
M  V30 6128 C 595.846 0.603332 -1.78161 0
M  V30 6129 O 595.204 1.42301 -1.12339 0
M  V30 6130 C 595.252 -1.26854 -3.37551 0
M  V30 6131 O 594.356 -0.42188 -4.10236 0
M  V30 6132 H 593.697 -0.304545 -0.590041 0
M  V30 6133 H 596.227 -1.4483 -1.44518 0
M  V30 6134 H 596.237 -1.25038 -3.88368 0
M  V30 6135 H 594.912 -2.31901 -3.45246 0
M  V30 6136 H 593.489 -0.503654 -3.69483 0
M  V30 6137 N 595.674 1.31259 -0.872281 0
M  V30 6138 C 596.92 1.96913 -0.485083 0
M  V30 6139 C 597.253 1.68774 0.960667 0
M  V30 6140 O 596.528 0.985495 1.67685 0
M  V30 6141 C 596.811 3.52299 -0.745502 0
M  V30 6142 C 596.664 3.90002 -2.24095 0
M  V30 6143 C 597.983 4.39582 -0.213516 0
M  V30 6144 H 595.102 0.715252 -0.177716 0
M  V30 6145 H 597.744 1.55347 -1.09395 0
M  V30 6146 H 595.894 3.87835 -0.227276 0
M  V30 6147 H 597.566 3.64555 -2.82661 0
M  V30 6148 H 595.809 3.38526 -2.71261 0
M  V30 6149 H 596.48 4.98352 -2.37381 0
M  V30 6150 H 598.956 4.10882 -0.656902 0
M  V30 6151 H 597.832 5.47251 -0.42516 0
M  V30 6152 H 598.093 4.33158 0.884666 0
M  V30 6153 N 597.152 0.631951 1.44375 0
M  V30 6154 C 598.377 0.142146 2.06912 0
M  V30 6155 C 598.802 -1.17456 1.4692 0
M  V30 6156 O 598.16 -1.72074 0.570975 0
M  V30 6157 C 598.208 0.0417952 3.60576 0
M  V30 6158 O 597.312 -1.00194 4.00044 0
M  V30 6159 H 596.653 0.0851491 0.658518 0
M  V30 6160 H 599.183 0.868863 1.85235 0
M  V30 6161 H 599.193 -0.148517 4.0773 0
M  V30 6162 H 597.868 1.0031 4.03622 0
M  V30 6163 H 596.445 -0.786131 3.64519 0
M  V30 6164 N 598.631 -1.53133 0.372548 0
M  V30 6165 C 599.88 -2.00539 -0.216115 0
M  V30 6166 C 600.193 -1.26374 -1.49295 0
M  V30 6167 O 601.399 -1.64404 -2.16064 0
M  V30 6168 C 599.855 -3.57253 -0.435678 0
M  V30 6169 C 599.463 -4.40302 0.82693 0
M  V30 6170 C 601.207 -4.12995 -0.981618 0
M  V30 6171 C 599.114 -5.88583 0.576567 0
M  V30 6172 H 598.044 -0.749246 -0.084536 0
M  V30 6173 H 600.695 -1.76771 0.492364 0
M  V30 6174 H 599.077 -3.77202 -1.20559 0
M  V30 6175 H 600.251 -4.32124 1.60017 0
M  V30 6176 H 598.566 -3.95699 1.29659 0
M  V30 6177 H 601.163 -5.21418 -1.18436 0
M  V30 6178 H 601.506 -3.68027 -1.94581 0
M  V30 6179 H 602.039 -3.96871 -0.271696 0
M  V30 6180 H 598.778 -6.37841 1.51128 0
M  V30 6181 H 598.298 -5.99592 -0.158047 0
M  V30 6182 H 599.977 -6.46676 0.204722 0
M  V30 6183 N 600.109 -0.101901 -1.5727 0
M  V30 6184 C 601.355 0.561027 -1.94885 0
M  V30 6185 C 601.688 1.6741 -0.984258 0
M  V30 6186 O 600.963 1.94491 -0.0184767 0
M  V30 6187 C 601.246 1.10982 -3.42571 0
M  V30 6188 C 601.099 0.00133418 -4.498 0
M  V30 6189 C 602.418 2.00608 -3.9172 0
M  V30 6190 H 599.537 0.202467 -0.708644 0
M  V30 6191 H 602.179 -0.173992 -1.89202 0
M  V30 6192 H 600.329 1.73621 -3.47546 0
M  V30 6193 H 602.001 -0.63322 -4.56933 0
M  V30 6194 H 600.244 -0.664143 -4.28686 0
M  V30 6195 H 600.915 0.426253 -5.50352 0
M  V30 6196 H 603.391 1.47864 -3.88941 0
M  V30 6197 H 602.267 2.3593 -4.95609 0
M  V30 6198 H 602.528 2.92608 -3.3141 0
M  V30 6199 N 601.587 1.56661 0.17182 0
M  V30 6200 C 602.835 1.81606 0.886774 0
M  V30 6201 C 603.156 0.678818 1.82803 0
M  V30 6202 O 602.426 -0.301354 1.93568 0
M  V30 6203 H 601.006 0.669934 0.330451 0
M  V30 6204 H 603.668 1.94142 0.171757 0
M  V30 6205 H 602.764 2.75634 1.46398 0
M  V30 6206 N 603.065 -0.440357 1.51323 0
M  V30 6207 C 604.028 -1.51679 1.71832 0
M  V30 6208 C 605.028 -1.49648 0.588386 0
M  V30 6209 O 606.218 -1.51724 0.855891 0
M  V30 6210 C 603.35 -2.91228 1.77199 0
M  V30 6211 H 604.543 -1.34799 2.67898 0
M  V30 6212 H 602.096 -0.66883 1.41267 0
M  V30 6213 H 602.831 -3.13516 0.829363 0
M  V30 6214 H 602.616 -2.94107 2.59314 0
M  V30 6215 H 604.106 -3.69321 1.94915 0
M  V30 6216 N 604.543 -1.41418 -0.695603 0
M  V30 6217 C 605.789 -1.40982 -1.4578 0
M  V30 6218 C 606.122 -0.0187763 -1.94191 0
M  V30 6219 O 605.397 0.95346 -1.69527 0
M  V30 6220 C 605.68 -2.41657 -2.66972 0
M  V30 6221 C 605.533 -3.89869 -2.24327 0
M  V30 6222 C 606.852 -2.39589 -3.69168 0
M  V30 6223 H 603.971 -0.513405 -0.528757 0
M  V30 6224 H 606.613 -1.72693 -0.792275 0
M  V30 6225 H 604.763 -2.14746 -3.23754 0
M  V30 6226 H 606.435 -4.27683 -1.72872 0
M  V30 6227 H 604.678 -4.04737 -1.56111 0
M  V30 6228 H 605.349 -4.55857 -3.11285 0
M  V30 6229 H 607.825 -2.63471 -3.2206 0
M  V30 6230 H 606.701 -3.12044 -4.51575 0
M  V30 6231 H 606.962 -1.41447 -4.18862 0
M  V30 6232 N 606.021 0.929856 -1.27246 0
M  V30 6233 C 607.246 1.71674 -1.16374 0
M  V30 6234 C 607.671 1.86064 0.276024 0
M  V30 6235 O 607.029 1.3591 1.19992 0
M  V30 6236 C 607.077 3.09526 -1.85003 0
M  V30 6237 O 606.181 3.96142 -1.14653 0
M  V30 6238 H 605.522 0.52629 -0.404863 0
M  V30 6239 H 608.052 1.16381 -1.68276 0
M  V30 6240 H 608.062 3.59852 -1.92276 0
M  V30 6241 H 606.737 2.98369 -2.89739 0
M  V30 6242 H 605.314 3.54584 -1.15433 0
M  V30 6243 N 607.499 1.09233 1.13605 0
M  V30 6244 C 608.91 0.846839 1.6639 0
M  V30 6245 C 609.261 -0.625031 1.85978 0
M  V30 6246 O 608.386 -1.48173 1.57714 0
M  V30 6247 C 608.981 1.5307 3.0225 0
M  V30 6248 C 607.54 1.33223 3.52035 0
M  V30 6249 C 606.687 1.58806 2.27323 0
M  V30 6250 H 609.638 1.25175 0.975541 0
M  V30 6251 H 609.659 0.96267 3.68121 0
M  V30 6252 H 609.171 2.60192 2.87961 0
M  V30 6253 H 607.272 0.282091 3.71531 0
M  V30 6254 H 607.385 2.0657 4.32279 0
M  V30 6255 H 605.749 1.01007 2.33815 0
M  V30 6256 H 606.532 2.67153 2.15602 0
M  V30 6257 N 608.977 -1.30795 0.87923 0
M  V30 6258 C 610.388 -1.78535 0.546093 0
M  V30 6259 C 610.739 -1.72354 -0.937467 0
M  V30 6260 O 609.864 -1.2969 -1.73233 0
M  V30 6261 C 610.459 -3.24181 0.9845 0
M  V30 6262 C 609.018 -3.69779 0.702871 0
M  V30 6263 C 608.165 -2.51377 1.17068 0
M  V30 6264 H 611.116 -1.17746 1.06403 0
M  V30 6265 H 611.137 -3.79227 0.311045 0
M  V30 6266 H 610.649 -3.28647 2.06429 0
M  V30 6267 H 608.75 -3.70806 -0.365166 0
M  V30 6268 H 608.863 -4.61507 1.28639 0
M  V30 6269 H 607.227 -2.47768 0.590172 0
M  V30 6270 H 608.01 -2.58584 2.25808 0
M  V30 6271 N 610.455 -0.639598 -1.44038 0
M  V30 6272 C 611.703 -0.147188 -2.01563 0
M  V30 6273 C 612.024 1.2384 -1.50628 0
M  V30 6274 O 611.294 1.82452 -0.713316 0
M  V30 6275 H 609.874 -0.0514231 -0.745228 0
M  V30 6276 H 612.536 -0.828205 -1.76428 0
M  V30 6277 H 611.632 -0.121358 -3.11864 0
M  V30 6278 N 611.933 1.52934 -0.380664 0
M  V30 6279 C 613.181 2.01069 0.203874 0
M  V30 6280 C 613.502 1.26922 1.4804 0
M  V30 6281 O 612.772 0.386787 1.92044 0
M  V30 6282 H 611.352 0.742882 0.0783279 0
M  V30 6283 H 614.014 1.88099 -0.510368 0
M  V30 6284 H 613.11 3.09258 0.42021 0
M  V30 6285 N 613.412 0.11024 1.57214 0
M  V30 6286 C 614.689 -0.592956 1.86396 0
M  V30 6287 C 615.069 -1.85379 1.00985 0
M  V30 6288 O 614.417 -2.28337 0.0863592 0
M  V30 6289 C 614.627 -0.893816 3.3736 0
M  V30 6290 C 615.975 -1.25069 4.05762 0
M  V30 6291 O 616.999 -0.984356 3.42329 0
M  V30 6292 O 615.858 -1.75017 5.17718 0
M  V30 6293 H 612.952 -0.29828 0.771335 0
M  V30 6294 H 615.498 0.144083 1.69087 0
M  V30 6295 H 614.27 2.6031e-05 3.913 0
M  V30 6296 H 613.893 -1.68631 3.60068 0
M  V30 6297 N 614.89 -1.56749 -0.16351 0
M  V30 6298 C 616.137 -1.82434 -0.878866 0
M  V30 6299 C 616.465 -0.688557 -1.81904 0
M  V30 6300 O 615.72 0.323644 -1.93005 0
M  V30 6301 C 616.019 -3.14342 -1.70071 0
M  V30 6302 C 615.685 -4.41647 -0.908775 0
M  V30 6303 C 614.347 -4.76224 -0.690236 0
M  V30 6304 C 616.699 -5.19998 -0.353815 0
M  V30 6305 C 614.027 -5.86624 0.0942374 0
M  V30 6306 C 616.379 -6.3122 0.41761 0
M  V30 6307 C 615.043 -6.64358 0.646879 0
M  V30 6308 H 614.313 -0.667574 -0.3216 0
M  V30 6309 H 616.96 -1.90963 -0.14337 0
M  V30 6310 H 615.265 -3.0119 -2.50583 0
M  V30 6311 H 616.962 -3.31426 -2.25738 0
M  V30 6312 H 613.552 -4.1453 -1.08916 0
M  V30 6313 H 617.736 -4.93673 -0.509975 0
M  V30 6314 H 612.992 -6.10751 0.281529 0
M  V30 6315 H 617.166 -6.91133 0.854849 0
M  V30 6316 H 614.793 -7.49742 1.25662 0
M  V30 6317 N 616.368 0.432326 -1.51554 0
M  V30 6318 C 617.593 1.20824 -1.68571 0
M  V30 6319 C 618.018 1.84126 -0.384596 0
M  V30 6320 O 617.376 1.69025 0.655751 0
M  V30 6321 C 617.424 2.26429 -2.80646 0
M  V30 6322 O 616.528 3.32032 -2.44598 0
M  V30 6323 H 615.869 0.353765 -0.561913 0
M  V30 6324 H 618.399 0.509916 -1.98144 0
M  V30 6325 H 618.409 2.71133 -3.04878 0
M  V30 6326 H 617.084 1.79733 -3.75058 0
M  V30 6327 H 615.661 2.92769 -2.30956 0
M  V30 6328 N 617.846 1.41785 0.688094 0
M  V30 6329 C 619.123 1.32031 1.44316 0
M  V30 6330 C 619.503 -0.0486079 2.11044 0
M  V30 6331 O 618.851 -1.06332 2.02252 0
M  V30 6332 C 619.061 2.47906 2.45649 0
M  V30 6333 C 620.409 2.89415 3.10683 0
M  V30 6334 O 621.433 2.477 2.55975 0
M  V30 6335 O 620.292 3.61573 4.09789 0
M  V30 6336 H 617.386 0.519994 0.643067 0
M  V30 6337 H 619.932 1.53765 0.71794 0
M  V30 6338 H 618.704 3.39222 1.95048 0
M  V30 6339 H 618.327 2.28089 3.25671 0
M  V30 6340 N 619.324 -0.923095 1.27737 0
M  V30 6341 C 620.735 -1.48626 1.12993 0
M  V30 6342 C 621.086 -1.94142 -0.283439 0
M  V30 6343 O 620.211 -1.81605 -1.17681 0
M  V30 6344 C 620.806 -2.70117 2.04505 0
M  V30 6345 C 619.365 -3.22642 1.93853 0
M  V30 6346 C 618.512 -1.95368 1.96791 0
M  V30 6347 H 621.463 -0.736737 1.40563 0
M  V30 6348 H 621.484 -3.4506 1.60356 0
M  V30 6349 H 620.996 -2.36959 3.07363 0
M  V30 6350 H 619.097 -3.60549 0.939968 0
M  V30 6351 H 619.21 -3.88525 2.80331 0
M  V30 6352 H 617.574 -2.12061 1.41076 0
M  V30 6353 H 618.357 -1.64517 3.01312 0
M  V30 6354 N 620.802 -1.09834 -1.13024 0
M  V30 6355 C 622.048 -0.83819 -1.84668 0
M  V30 6356 C 622.381 0.634645 -1.83537 0
M  V30 6357 O 621.656 1.46753 -1.27647 0
M  V30 6358 C 621.939 -1.37933 -3.32636 0
M  V30 6359 C 621.792 -2.91857 -3.42257 0
M  V30 6360 C 623.111 -1.01654 -4.28199 0
M  V30 6361 H 620.23 -0.30595 -0.670495 0
M  V30 6362 H 622.872 -1.36044 -1.32635 0
M  V30 6363 H 621.022 -0.935111 -3.77078 0
M  V30 6364 H 622.694 -3.44759 -3.06495 0
M  V30 6365 H 620.937 -3.28776 -2.83 0
M  V30 6366 H 621.608 -3.24799 -4.46329 0
M  V30 6367 H 624.084 -1.39973 -3.9185 0
M  V30 6368 H 622.96 -1.42217 -5.30156 0
M  V30 6369 H 623.221 0.0747794 -4.42037 0
M  V30 6370 N 622.28 1.30327 -0.886154 0
M  V30 6371 C 623.508 2.00254 -0.520176 0
M  V30 6372 C 623.923 1.66419 0.891637 0
M  V30 6373 O 623.28 0.901951 1.58654 0
M  V30 6374 C 623.331 3.54916 -0.686775 0
M  V30 6375 O 623.052 3.87547 -2.04301 0
M  V30 6376 C 624.553 4.42115 -0.323945 0
M  V30 6377 H 621.773 0.640204 -0.200947 0
M  V30 6378 H 624.317 1.66183 -1.19178 0
M  V30 6379 H 622.472 3.8735 -0.0625273 0
M  V30 6380 H 622.886 4.82247 -2.06249 0
M  V30 6381 H 624.36 5.49808 -0.491407 0
M  V30 6382 H 624.837 4.32953 0.73811 0
M  V30 6383 H 625.443 4.15129 -0.924565 0
M  V30 6384 N 623.758 0.647228 1.43697 0
M  V30 6385 C 624.983 0.164083 2.0675 0
M  V30 6386 C 625.408 -1.15892 1.48158 0
M  V30 6387 O 624.766 -1.71459 0.589194 0
M  V30 6388 C 624.814 0.0800368 3.60511 0
M  V30 6389 O 623.918 -0.959453 4.01084 0
M  V30 6390 H 623.259 0.0921288 0.657578 0
M  V30 6391 H 625.789 0.88846 1.84303 0
M  V30 6392 H 625.799 -0.105263 4.07864 0
M  V30 6393 H 624.474 1.04586 4.02535 0
M  V30 6394 H 623.051 -0.747425 3.65333 0
M  V30 6395 N 625.236 -1.5273 0.388769 0
M  V30 6396 C 626.199 -2.25043 -0.434544 0
M  V30 6397 C 627.199 -1.26661 -0.990644 0
M  V30 6398 O 628.389 -1.50762 -0.872731 0
M  V30 6399 C 625.521 -3.00507 -1.60961 0
M  V30 6400 H 626.714 -2.99242 0.198549 0
M  V30 6401 H 624.267 -1.55664 0.140875 0
M  V30 6402 H 625.002 -2.30607 -2.28015 0
M  V30 6403 H 624.787 -3.72716 -1.21757 0
M  V30 6404 H 626.277 -3.55413 -2.19251 0
M  V30 6405 N 626.714 -0.118576 -1.57153 0
M  V30 6406 C 627.942 0.54726 -1.99531 0
M  V30 6407 C 628.357 1.60251 -0.998246 0
M  V30 6408 O 627.714 1.82498 0.00893106 0
M  V30 6409 C 627.765 1.17378 -3.41913 0
M  V30 6410 O 627.486 0.160703 -4.37805 0
M  V30 6411 C 628.987 1.92297 -3.9942 0
M  V30 6412 H 626.207 0.144919 -0.655164 0
M  V30 6413 H 628.751 -0.20479 -2.03472 0
M  V30 6414 H 626.906 1.87661 -3.38913 0
M  V30 6415 H 627.32 0.61586 -5.20872 0
M  V30 6416 H 628.794 2.31462 -5.01128 0
M  V30 6417 H 629.271 2.79801 -3.38538 0
M  V30 6418 H 629.877 1.26777 -4.05965 0
M  V30 6419 N 628.193 1.56834 0.155195 0
M  V30 6420 C 629.123 2.00678 1.19376 0
M  V30 6421 C 630.104 0.884973 1.45266 0
M  V30 6422 O 631.289 1.1522 1.56326 0
M  V30 6423 C 628.419 2.38042 2.5289 0
M  V30 6424 C 627.373 3.53332 2.41538 0
M  V30 6425 C 626.699 3.76485 3.79688 0
M  V30 6426 C 627.999 4.86265 1.9064 0
M  V30 6427 H 629.693 2.87688 0.829232 0
M  V30 6428 H 627.239 1.38407 0.397445 0
M  V30 6429 H 629.192 2.67314 3.25763 0
M  V30 6430 H 627.916 1.4796 2.91162 0
M  V30 6431 H 626.575 3.24213 1.71117 0
M  V30 6432 H 626.223 2.83667 4.15382 0
M  V30 6433 H 625.923 4.54068 3.72956 0
M  V30 6434 H 627.447 4.08174 4.54122 0
M  V30 6435 H 628.861 5.14308 2.53299 0
M  V30 6436 H 627.258 5.67597 1.94818 0
M  V30 6437 H 628.328 4.77184 0.861596 0
M  V30 6438 N 629.671 -0.424282 1.51781 0
M  V30 6439 C 630.919 -1.17028 1.64769 0
M  V30 6440 C 631.24 -1.91409 0.372523 0
M  V30 6441 O 630.51 -1.86091 -0.612108 0
M  V30 6442 H 629.09 -0.434992 0.607282 0
M  V30 6443 H 631.752 -0.485169 1.88765 0
M  V30 6444 H 630.848 -1.8927 2.4816 0
M  V30 6445 N 631.149 -1.42148 -0.680565 0
M  V30 6446 C 632.398 -1.41604 -1.43636 0
M  V30 6447 C 632.711 -0.0337887 -1.95571 0
M  V30 6448 O 633.917 0.0942588 -2.71336 0
M  V30 6449 C 632.373 -2.49056 -2.59806 0
M  V30 6450 C 631.981 -3.9326 -2.14594 0
M  V30 6451 C 633.725 -2.5767 -3.37352 0
M  V30 6452 C 631.632 -4.92232 -3.27813 0
M  V30 6453 H 630.562 -0.526656 -0.539583 0
M  V30 6454 H 633.213 -1.68033 -0.737369 0
M  V30 6455 H 631.595 -2.15782 -3.32045 0
M  V30 6456 H 632.769 -4.35858 -1.49546 0
M  V30 6457 H 631.084 -3.88443 -1.50002 0
M  V30 6458 H 633.681 -3.28794 -4.21662 0
M  V30 6459 H 634.024 -1.61837 -3.83555 0
M  V30 6460 H 634.557 -2.90109 -2.72179 0
M  V30 6461 H 631.296 -5.89522 -2.86607 0
M  V30 6462 H 630.816 -4.5427 -3.91661 0
M  V30 6463 H 632.495 -5.13684 -3.93367 0
M  V30 6464 N 632.627 0.916307 -1.28225 0
M  V30 6465 C 633.873 1.66765 -1.154 0
M  V30 6466 C 634.206 1.91912 0.297251 0
M  V30 6467 O 633.481 1.51766 1.21644 0
M  V30 6468 C 633.764 3.02715 -1.95028 0
M  V30 6469 C 633.617 2.84738 -3.48201 0
M  V30 6470 C 634.936 4.03215 -1.76369 0
M  V30 6471 H 632.055 0.605205 -0.42059 0
M  V30 6472 H 634.697 1.06255 -1.57512 0
M  V30 6473 H 632.847 3.54365 -1.59242 0
M  V30 6474 H 634.519 2.40118 -3.9388 0
M  V30 6475 H 632.762 2.19848 -3.73964 0
M  V30 6476 H 633.433 3.8127 -3.99171 0
M  V30 6477 H 635.909 3.60617 -2.07593 0
M  V30 6478 H 634.785 4.96306 -2.34459 0
M  V30 6479 H 635.046 4.36288 -0.71452 0
M  V30 6480 N 634.105 1.10431 1.1244 0
M  V30 6481 C 635.037 0.710945 2.17895 0
M  V30 6482 C 636.05 -0.252315 1.60833 0
M  V30 6483 O 637.239 -0.03679 1.78462 0
M  V30 6484 C 634.339 0.0284262 3.38888 0
M  V30 6485 C 633.512 1.01585 4.2544 0
M  V30 6486 C 632.571 0.364826 5.24934 0
M  V30 6487 O 631.597 1.01561 5.60066 0
M  V30 6488 N 632.799 -0.87674 5.73841 0
M  V30 6489 H 635.564 1.61826 2.52255 0
M  V30 6490 H 633.125 0.993132 1.27861 0
M  V30 6491 H 635.117 -0.418568 4.0253 0
M  V30 6492 H 633.687 -0.781294 3.02679 0
M  V30 6493 H 632.907 1.64111 3.58415 0
M  V30 6494 H 634.195 1.68425 4.80115 0
M  V30 6495 H 633.593 -1.42483 5.47462 0
M  V30 6496 H 632.15 -1.26688 6.39369 0
M  V30 6497 N 635.583 -1.29855 0.893053 0
M  V30 6498 C 636.829 -1.96116 0.516349 0
M  V30 6499 C 637.162 -1.70281 -0.933695 0
M  V30 6500 O 636.437 -1.01205 -1.66096 0
M  V30 6501 C 636.72 -3.51068 0.801455 0
M  V30 6502 C 636.573 -3.86387 2.30272 0
M  V30 6503 C 637.892 -4.39186 0.283423 0
M  V30 6504 H 635.011 -0.712335 0.189072 0
M  V30 6505 H 637.653 -1.53587 1.11852 0
M  V30 6506 H 635.803 -3.87424 0.288949 0
M  V30 6507 H 637.475 -3.60012 2.88425 0
M  V30 6508 H 635.718 -3.34167 2.76613 0
M  V30 6509 H 636.389 -4.94512 2.45279 0
M  V30 6510 H 638.865 -4.09785 0.722187 0
M  V30 6511 H 637.741 -5.46505 0.512169 0
M  V30 6512 H 638.002 -4.34511 -0.815643 0
M  V30 6513 N 637.061 -0.65484 -1.43351 0
M  V30 6514 C 638.308 -0.168892 -2.01794 0
M  V30 6515 C 638.636 1.2177 -1.51665 0
M  V30 6516 O 637.891 1.82717 -0.70092 0
M  V30 6517 C 638.19 -0.130424 -3.57162 0
M  V30 6518 C 637.856 -1.45898 -4.26643 0
M  V30 6519 C 636.518 -1.82279 -4.4534 0
M  V30 6520 C 638.87 -2.33485 -4.65976 0
M  V30 6521 C 636.198 -3.0591 -5.00635 0
M  V30 6522 C 638.55 -3.5641 -5.22642 0
M  V30 6523 C 637.214 -3.92985 -5.39555 0
M  V30 6524 H 636.484 -0.061802 -0.738418 0
M  V30 6525 H 639.131 -0.845869 -1.71806 0
M  V30 6526 H 637.436 0.630008 -3.86702 0
M  V30 6527 H 639.133 0.262465 -4.0014 0
M  V30 6528 H 635.723 -1.16591 -4.12437 0
M  V30 6529 H 639.907 -2.06668 -4.51223 0
M  V30 6530 H 635.163 -3.34295 -5.11915 0
M  V30 6531 H 639.337 -4.24495 -5.52066 0
M  V30 6532 H 636.964 -4.88862 -5.82167 0
M  V30 6533 N 638.539 1.52521 -0.396863 0
M  V30 6534 C 639.785 2.02641 0.175606 0
M  V30 6535 C 640.14 1.27782 1.43839 0
M  V30 6536 O 639.433 0.371921 1.87956 0
M  V30 6537 C 639.627 3.5403 0.489677 0
M  V30 6538 C 639.456 4.43551 -0.741113 0
M  V30 6539 C 638.226 4.8927 -1.26265 0
M  V30 6540 C 640.424 4.88263 -1.61565 0
M  V30 6541 N 638.406 5.62884 -2.4502 0
M  V30 6542 C 639.777 5.60534 -2.64955 0
M  V30 6543 C 641.832 4.70294 -1.63486 0
M  V30 6544 C 640.535 6.16744 -3.70162 0
M  V30 6545 C 642.561 5.27392 -2.67603 0
M  V30 6546 C 641.923 5.99575 -3.69715 0
M  V30 6547 H 638.022 0.781563 0.0261477 0
M  V30 6548 H 640.606 1.86816 -0.548454 0
M  V30 6549 H 638.777 3.69952 1.18279 0
M  V30 6550 H 640.509 3.90843 1.04996 0
M  V30 6551 H 637.264 4.66403 -0.822509 0
M  V30 6552 H 637.688 6.04339 -3.05128 0
M  V30 6553 H 642.33 4.13985 -0.858848 0
M  V30 6554 H 640.048 6.72131 -4.48626 0
M  V30 6555 H 643.634 5.15365 -2.69982 0
M  V30 6556 H 642.514 6.42967 -4.48958 0
M  V30 6557 N 640.017 0.126909 1.57088 0
M  V30 6558 C 641.265 -0.528123 1.95078 0
M  V30 6559 C 641.586 -1.66708 1.0116 0
M  V30 6560 O 640.856 -1.95777 0.0693527 0
M  V30 6561 H 639.436 -0.198087 0.720257 0
M  V30 6562 H 642.098 0.197703 1.93895 0
M  V30 6563 H 641.194 -0.917507 2.98309 0
M  V30 6564 N 641.495 -1.56914 -0.146875 0
M  V30 6565 C 642.425 -2.01308 -1.1831 0
M  V30 6566 C 643.406 -0.892664 -1.44795 0
M  V30 6567 O 644.591 -1.16048 -1.55713 0
M  V30 6568 C 641.721 -2.3938 -2.51624 0
M  V30 6569 C 640.675 -3.54608 -2.3966 0
M  V30 6570 C 640.001 -3.78493 -3.77686 0
M  V30 6571 C 641.301 -4.87269 -1.88058 0
M  V30 6572 H 642.995 -2.88123 -0.813964 0
M  V30 6573 H 640.541 -1.38615 -0.3901 0
M  V30 6574 H 642.494 -2.69037 -3.24341 0
M  V30 6575 H 641.218 -1.49502 -2.90373 0
M  V30 6576 H 639.877 -3.25116 -1.69396 0
M  V30 6577 H 639.525 -2.85866 -4.13871 0
M  V30 6578 H 639.225 -4.56039 -3.70543 0
M  V30 6579 H 640.749 -4.10576 -4.51951 0
M  V30 6580 H 642.163 -5.15644 -2.50568 0
M  V30 6581 H 640.56 -5.68622 -1.91805 0
M  V30 6582 H 641.63 -4.77634 -0.836277 0
M  V30 6583 N 642.974 0.416227 -1.52004 0
M  V30 6584 C 644.251 1.17637 -1.56272 0
M  V30 6585 C 644.631 2.08352 -0.339493 0
M  V30 6586 O 643.979 2.1833 0.674124 0
M  V30 6587 C 644.189 1.95986 -2.88774 0
M  V30 6588 C 645.537 2.52299 -3.41512 0
M  V30 6589 O 646.561 2.06174 -2.90467 0
M  V30 6590 O 645.42 3.3648 -4.30631 0
M  V30 6591 H 642.514 0.536726 -0.629169 0
M  V30 6592 H 645.06 0.423583 -1.64329 0
M  V30 6593 H 643.832 1.29487 -3.69254 0
M  V30 6594 H 643.455 2.78285 -2.83978 0
M  V30 6595 N 644.452 1.42507 0.673017 0
M  V30 6596 C 645.399 1.46124 1.78651 0
M  V30 6597 C 646.369 0.313007 1.63124 0
M  V30 6598 O 647.554 0.517337 1.83653 0
M  V30 6599 C 644.694 1.3711 3.16694 0
M  V30 6600 C 643.807 2.61983 3.43495 0
M  V30 6601 C 642.942 2.45098 4.71275 0
M  V30 6602 C 641.981 3.65336 4.91117 0
M  V30 6603 N 641.118 3.47383 6.10139 0
M  V30 6604 H 645.958 2.4128 1.74895 0
M  V30 6605 H 643.495 1.19788 0.853766 0
M  V30 6606 H 645.453 1.29881 3.96468 0
M  V30 6607 H 644.083 0.45549 3.1957 0
M  V30 6608 H 643.135 2.79571 2.57961 0
M  V30 6609 H 644.447 3.51355 3.5405 0
M  V30 6610 H 643.601 2.35466 5.59143 0
M  V30 6611 H 642.34 1.53219 4.63007 0
M  V30 6612 H 641.345 3.754 4.0169 0
M  V30 6613 H 642.57 4.58199 5.01229 0
M  V30 6614 H 640.516 2.58222 6.0304 0
M  V30 6615 H 640.433 4.30344 6.21563 0
M  V30 6616 H 641.701 3.41565 7.00681 0
M  V30 6617 N 645.93 -0.909495 1.28709 0
M  V30 6618 C 646.877 -2.01245 1.13 0
M  V30 6619 C 647.847 -1.6608 0.0259684 0
M  V30 6620 O 649.032 -1.89835 0.191687 0
M  V30 6621 C 646.172 -3.35644 0.802315 0
M  V30 6622 C 645.285 -3.83653 1.98582 0
M  V30 6623 C 644.42 -5.06582 1.59837 0
M  V30 6624 C 643.459 -5.46934 2.74827 0
M  V30 6625 N 642.596 -6.61053 2.36546 0
M  V30 6626 H 647.436 -2.14013 2.0737 0
M  V30 6627 H 644.973 -1.0482 1.03205 0
M  V30 6628 H 646.931 -4.12963 0.593057 0
M  V30 6629 H 645.561 -3.22631 -0.104457 0
M  V30 6630 H 644.613 -3.02454 2.30708 0
M  V30 6631 H 645.925 -4.09515 2.84779 0
M  V30 6632 H 645.079 -5.91457 1.35143 0
M  V30 6633 H 643.818 -4.82537 0.707753 0
M  V30 6634 H 642.823 -4.60599 3.00215 0
M  V30 6635 H 644.048 -5.72965 3.64538 0
M  V30 6636 H 641.994 -6.3863 1.49959 0
M  V30 6637 H 641.911 -6.86662 3.16277 0
M  V30 6638 H 643.179 -7.49221 2.15146 0
M  V30 6639 N 647.408 -1.11026 -1.11852 0
M  V30 6640 C 648.338 -0.786812 -2.19844 0
M  V30 6641 C 649.319 0.242935 -1.68356 0
M  V30 6642 O 650.504 0.107355 -1.93903 0
M  V30 6643 C 647.634 -0.224516 -3.46574 0
M  V30 6644 C 646.588 -1.18564 -4.1125 0
M  V30 6645 C 645.914 -0.484261 -5.32503 0
M  V30 6646 C 647.214 -2.53465 -4.56676 0
M  V30 6647 H 648.908 -1.68978 -2.47158 0
M  V30 6648 H 646.454 -0.813906 -1.18792 0
M  V30 6649 H 648.407 0.0139435 -4.21398 0
M  V30 6650 H 647.131 0.713722 -3.18706 0
M  V30 6651 H 645.79 -1.40966 -3.38414 0
M  V30 6652 H 645.438 0.458646 -5.00905 0
M  V30 6653 H 645.138 -1.12526 -5.76725 0
M  V30 6654 H 646.662 -0.254492 -6.10069 0
M  V30 6655 H 648.076 -2.35177 -5.22843 0
M  V30 6656 H 646.473 -3.13507 -5.11697 0
M  V30 6657 H 647.543 -3.13008 -3.70343 0
M  V30 6658 N 648.886 1.2938 -0.899927 0
M  V30 6659 C 649.849 2.25983 -0.382677 0
M  V30 6660 C 650.849 1.53366 0.483259 0
M  V30 6661 O 652.039 1.71798 0.28828 0
M  V30 6662 C 649.171 3.37878 0.452915 0
M  V30 6663 H 650.364 2.73252 -1.23586 0
M  V30 6664 H 647.917 1.40825 -0.678088 0
M  V30 6665 H 648.652 2.95949 1.32608 0
M  V30 6666 H 648.437 3.91742 -0.167562 0
M  V30 6667 H 649.927 4.09746 0.806107 0
M  V30 6668 N 650.364 0.662433 1.43002 0
M  V30 6669 C 651.296 -0.062326 2.29115 0
M  V30 6670 C 652.309 -0.777926 1.43011 0
M  V30 6671 O 653.498 -0.634146 1.66856 0
M  V30 6672 C 650.598 -1.11163 3.2015 0
M  V30 6673 C 649.771 -0.472327 4.34842 0
M  V30 6674 C 648.83 -1.41974 5.06685 0
M  V30 6675 O 647.856 -0.924795 5.61637 0
M  V30 6676 N 649.058 -2.75345 5.11043 0
M  V30 6677 H 651.823 0.676838 2.91957 0
M  V30 6678 H 649.384 0.505907 1.53793 0
M  V30 6679 H 651.376 -1.74643 3.65078 0
M  V30 6680 H 649.946 -1.75266 2.58845 0
M  V30 6681 H 649.166 0.341751 3.92716 0
M  V30 6682 H 650.454 -0.0264381 5.08793 0
M  V30 6683 H 649.852 -3.18108 4.67786 0
M  V30 6684 H 648.409 -3.34105 5.59658 0
M  V30 6685 N 651.842 -1.52309 0.404946 0
M  V30 6686 C 653.258 -1.59503 0.0556255 0
M  V30 6687 C 653.458 -1.41805 -1.43156 0
M  V30 6688 O 652.514 -1.2429 -2.19792 0
M  V30 6689 C 653.827 -2.95687 0.546801 0
M  V30 6690 C 655.375 -3.08909 0.504413 0
M  V30 6691 C 655.85 -4.47566 0.97203 0
M  V30 6692 N 657.341 -4.53795 0.928679 0
M  V30 6693 C 658.076 -5.59346 1.26174 0
M  V30 6694 N 657.572 -6.72469 1.66604 0
M  V30 6695 N 659.365 -5.49532 1.18198 0
M  V30 6696 H 651.516 -1.6206 1.37296 0
M  V30 6697 H 653.779 -0.762161 0.563751 0
M  V30 6698 H 653.485 -3.13905 1.58609 0
M  V30 6699 H 653.359 -3.77172 -0.0457905 0
M  V30 6700 H 655.746 -2.90378 -0.525819 0
M  V30 6701 H 655.827 -2.2934 1.13301 0
M  V30 6702 H 655.471 -4.6684 2.00057 0
M  V30 6703 H 655.401 -5.25625 0.320292 0
M  V30 6704 H 657.892 -3.72588 0.631369 0
M  V30 6705 H 658.205 -7.48993 1.9034 0
M  V30 6706 H 656.55 -6.73761 1.70504 0
M  V30 6707 H 659.741 -4.60038 0.865011 0
M  V30 6708 H 659.914 -6.31687 1.44485 0
M  V30 6709 N 653.32 -0.135238 -1.57019 0
M  V30 6710 C 654.267 0.808908 -2.1616 0
M  V30 6711 C 655.237 1.25234 -1.09113 0
M  V30 6712 O 656.422 1.32697 -1.37099 0
M  V30 6713 C 653.562 2.04729 -2.77813 0
M  V30 6714 C 652.675 1.65074 -3.99218 0
M  V30 6715 C 651.81 2.84002 -4.48906 0
M  V30 6716 C 650.849 2.40663 -5.62803 0
M  V30 6717 N 649.986 3.5256 -6.07162 0
M  V30 6718 H 654.826 0.297751 -2.96509 0
M  V30 6719 H 652.363 0.135264 -1.46477 0
M  V30 6720 H 654.321 2.7731 -3.11697 0
M  V30 6721 H 652.951 2.53275 -2.00128 0
M  V30 6722 H 652.003 0.823029 -3.7139 0
M  V30 6723 H 653.315 1.29236 -4.81767 0
M  V30 6724 H 652.469 3.64788 -4.84783 0
M  V30 6725 H 651.208 3.23076 -3.65339 0
M  V30 6726 H 650.213 1.58314 -5.26514 0
M  V30 6727 H 651.438 2.02687 -6.48147 0
M  V30 6728 H 649.384 3.91278 -5.26534 0
M  V30 6729 H 649.301 3.20699 -6.84608 0
M  V30 6730 H 650.569 4.33738 -6.47682 0
M  V30 6731 N 654.798 1.5699 0.138552 0
M  V30 6732 C 655.748 1.9532 1.17619 0
M  V30 6733 C 656.732 0.825545 1.38107 0
M  V30 6734 O 657.924 1.08908 1.39528 0
M  V30 6735 C 655.053 2.34451 2.50774 0
M  V30 6736 C 654.139 3.53805 2.33844 0
M  V30 6737 N 654.53 4.70088 1.86685 0
M  V30 6738 C 652.828 3.59055 2.64567 0
M  V30 6739 C 653.529 5.52165 1.82998 0
M  V30 6740 N 652.505 4.94108 2.26624 0
M  V30 6741 H 656.307 2.82694 0.803809 0
M  V30 6742 H 653.821 1.5866 0.346519 0
M  V30 6743 H 655.818 2.60119 3.25797 0
M  V30 6744 H 654.478 1.48431 2.88788 0
M  V30 6745 H 655.489 4.93681 1.56523 0
M  V30 6746 H 652.166 2.83596 3.06398 0
M  V30 6747 H 653.556 6.55407 1.47957 0
M  V30 6748 N 656.276 -0.40816 1.52223 0
M  V30 6749 C 657.523 -1.15502 1.66329 0
M  V30 6750 C 657.851 -1.90474 0.393701 0
M  V30 6751 O 657.106 -1.85507 -0.623356 0
M  V30 6752 C 657.405 -2.17422 2.83659 0
M  V30 6753 C 657.071 -1.5925 4.21841 0
M  V30 6754 C 655.733 -1.4311 4.59427 0
M  V30 6755 C 658.085 -1.16776 5.0795 0
M  V30 6756 C 655.413 -0.830148 5.80797 0
M  V30 6757 C 657.765 -0.580988 6.29926 0
M  V30 6758 C 656.429 -0.406729 6.6626 0
M  V30 6759 H 655.699 -0.422653 0.608642 0
M  V30 6760 H 658.346 -0.442114 1.86327 0
M  V30 6761 H 656.651 -2.94861 2.58001 0
M  V30 6762 H 658.348 -2.75084 2.9177 0
M  V30 6763 H 654.938 -1.72796 3.92224 0
M  V30 6764 H 659.122 -1.28055 4.79495 0
M  V30 6765 H 654.378 -0.68316 6.07571 0
M  V30 6766 H 658.552 -0.243488 6.95974 0
M  V30 6767 H 656.179 0.0610366 7.60175 0
M  V30 6768 N 657.755 -1.42862 -0.66545 0
M  V30 6769 C 659.166 -1.3901 -1.24632 0
M  V30 6770 C 659.517 -0.0880285 -1.96002 0
M  V30 6771 O 658.642 0.812947 -2.0055 0
M  V30 6772 C 659.237 -2.51806 -2.2667 0
M  V30 6773 C 657.796 -2.51257 -2.80262 0
M  V30 6774 C 656.943 -2.30124 -1.5472 0
M  V30 6775 H 659.894 -1.5194 -0.458237 0
M  V30 6776 H 659.915 -2.22593 -3.08598 0
M  V30 6777 H 659.427 -3.46558 -1.74697 0
M  V30 6778 H 657.528 -1.60349 -3.36332 0
M  V30 6779 H 657.641 -3.48614 -3.28641 0
M  V30 6780 H 656.005 -1.7856 -1.81627 0
M  V30 6781 H 656.788 -3.26945 -1.04699 0
M  V30 6782 N 659.233 0.902656 -1.29189 0
M  V30 6783 C 660.458 1.69167 -1.19989 0
M  V30 6784 C 660.883 1.86607 0.236495 0
M  V30 6785 O 660.241 1.38425 1.17082 0
M  V30 6786 C 660.289 3.05532 -1.91527 0
M  V30 6787 O 659.393 3.93621 -1.2303 0
M  V30 6788 H 658.734 0.517584 -0.415936 0
M  V30 6789 H 661.264 1.12785 -1.70706 0
M  V30 6790 H 661.274 3.55693 -1.99866 0
M  V30 6791 H 659.949 2.92156 -2.96003 0
M  V30 6792 H 658.526 3.52055 -1.22928 0
M  V30 6793 N 660.711 1.11618 1.11262 0
M  V30 6794 C 661.957 0.867463 1.83311 0
M  V30 6795 C 662.29 -0.605366 1.84524 0
M  V30 6796 O 661.565 -1.44704 1.29965 0
M  V30 6797 C 661.848 1.43207 3.30399 0
M  V30 6798 C 661.701 2.97265 3.3757 0
M  V30 6799 C 663.02 1.08454 4.26528 0
M  V30 6800 H 660.139 0.316578 0.665543 0
M  V30 6801 H 662.781 1.38137 1.30454 0
M  V30 6802 H 660.931 0.994982 3.75543 0
M  V30 6803 H 662.603 3.49591 3.00971 0
M  V30 6804 H 660.846 3.33237 2.77733 0
M  V30 6805 H 661.517 3.31859 4.41105 0
M  V30 6806 H 663.993 1.4619 3.89574 0
M  V30 6807 H 662.869 1.50633 5.27826 0
M  V30 6808 H 663.13 -0.00444568 4.421 0
M  V30 6809 N 662.189 -1.289 0.906776 0
M  V30 6810 C 663.137 -2.29477 0.379873 0
M  V30 6811 C 664.131 -1.61068 -0.524747 0
M  V30 6812 O 665.337 -1.75344 -0.406765 0
M  V30 6813 H 661.712 -0.744742 0.10423 0
M  V30 6814 H 663.683 -2.71353 1.24137 0
M  V30 6815 C 662.432 -3.45713 -0.371154 0
M  V30 6816 H 661.755 -3.98551 0.315716 0
M  V30 6817 H 663.195 -4.18105 -0.704581 0
M  V30 6818 C 661.654 -2.9774 -1.57646 0
M  V30 6819 O 662.184 -2.99618 -2.67567 0
M  V30 6820 N 660.39 -2.53485 -1.42105 0
M  V30 6821 H 659.937 -2.52156 -0.526783 0
M  V30 6822 H 659.895 -2.21747 -2.22881 0
M  V30 6823 N 663.667 -0.670007 -1.42649 0
M  V30 6824 C 664.913 -0.19923 -2.02422 0
M  V30 6825 C 665.268 1.17947 -1.52007 0
M  V30 6826 O 664.561 1.77939 -0.710512 0
M  V30 6827 C 664.755 -0.168298 -3.57004 0
M  V30 6828 C 664.584 -1.54246 -4.22419 0
M  V30 6829 C 663.354 -2.13904 -4.57792 0
M  V30 6830 C 665.552 -2.4842 -4.50324 0
M  V30 6831 N 663.534 -3.44151 -5.08364 0
M  V30 6832 C 664.905 -3.63317 -5.02395 0
M  V30 6833 C 666.96 -2.47011 -4.32308 0
M  V30 6834 C 665.663 -4.77051 -5.38345 0
M  V30 6835 C 667.689 -3.59838 -4.6933 0
M  V30 6836 C 667.051 -4.73462 -5.21549 0
M  V30 6837 H 663.15 -0.117717 -0.773089 0
M  V30 6838 H 665.734 -0.881955 -1.73579 0
M  V30 6839 H 663.905 0.483824 -3.85375 0
M  V30 6840 H 665.637 0.314914 -4.03473 0
M  V30 6841 H 662.392 -1.66441 -4.4339 0
M  V30 6842 H 662.816 -4.10846 -5.38084 0
M  V30 6843 H 667.458 -1.60394 -3.91195 0
M  V30 6844 H 665.176 -5.64347 -5.78393 0
M  V30 6845 H 668.762 -3.59969 -4.57071 0
M  V30 6846 H 667.642 -5.59321 -5.49663 0
M  V30 6847 N 665.145 1.52092 -0.413018 0
M  V30 6848 C 666.075 2.30021 0.401567 0
M  V30 6849 C 667.056 1.34395 1.04269 0
M  V30 6850 O 668.241 1.63304 1.05097 0
M  V30 6851 C 665.371 3.12447 1.51638 0
M  V30 6852 C 664.325 4.16153 1.00005 0
M  V30 6853 C 663.651 4.86948 2.20875 0
M  V30 6854 C 664.951 5.22275 0.0513757 0
M  V30 6855 H 666.645 2.98365 -0.248704 0
M  V30 6856 H 664.191 1.4349 -0.121052 0
M  V30 6857 H 666.144 3.65733 2.09326 0
M  V30 6858 H 664.868 2.41879 2.19458 0
M  V30 6859 H 663.527 3.63882 0.445549 0
M  V30 6860 H 663.175 4.12905 2.8726 0
M  V30 6861 H 662.875 5.57057 1.86978 0
M  V30 6862 H 664.399 5.43048 2.79162 0
M  V30 6863 H 665.813 5.70778 0.537176 0
M  V30 6864 H 664.21 5.9977 -0.198977 0
M  V30 6865 H 665.28 4.76611 -0.892736 0
M  V30 6866 N 666.623 0.143563 1.56945 0
M  V30 6867 C 667.872 -0.50835 1.95189 0
M  V30 6868 C 668.185 -1.66239 1.03073 0
M  V30 6869 O 669.391 -2.3787 1.30882 0
M  V30 6870 C 667.847 -0.955735 3.46978 0
M  V30 6871 C 667.455 0.171183 4.47673 0
M  V30 6872 C 669.199 -1.57763 3.94095 0
M  V30 6873 C 667.106 -0.294279 5.90667 0
M  V30 6874 H 666.036 -0.193679 0.728701 0
M  V30 6875 H 668.687 0.227357 1.82086 0
M  V30 6876 H 667.069 -1.7466 3.55401 0
M  V30 6877 H 668.243 0.948049 4.50942 0
M  V30 6878 H 666.558 0.701273 4.10452 0
M  V30 6879 H 669.155 -1.93745 4.98364 0
M  V30 6880 H 669.498 -2.46531 3.35452 0
M  V30 6881 H 670.031 -0.851728 3.88575 0
M  V30 6882 H 666.77 0.557939 6.53121 0
M  V30 6883 H 666.29 -1.0371 5.90766 0
M  V30 6884 H 667.969 -0.747426 6.42668 0
M  V30 6885 N 668.101 -1.57061 -0.130224 0
M  V30 6886 C 669.326 -1.88802 -0.858409 0
M  V30 6887 C 669.751 -0.734353 -1.73173 0
M  V30 6888 O 669.109 0.315529 -1.78533 0
M  V30 6889 C 669.157 -3.19228 -1.67708 0
M  V30 6890 O 668.261 -3.04343 -2.78297 0
M  V30 6891 H 667.602 -0.619849 -0.238083 0
M  V30 6892 H 670.132 -2.04271 -0.115995 0
M  V30 6893 H 670.142 -3.51669 -2.06864 0
M  V30 6894 H 668.817 -4.02793 -1.0359 0
M  V30 6895 H 667.394 -2.83346 -2.42425 0
M  V30 6896 N 669.579 0.400081 -1.52437 0
M  V30 6897 C 670.809 1.16598 -1.70553 0
M  V30 6898 C 671.217 1.8451 -0.418665 0
M  V30 6899 O 670.56 1.73069 0.615855 0
M  V30 6900 C 670.622 2.26517 -2.7916 0
M  V30 6901 C 670.286 1.78666 -4.20628 0
M  V30 6902 C 671.283 1.26946 -5.04163 0
M  V30 6903 C 668.968 1.85225 -4.66902 0
M  V30 6904 C 670.962 0.824187 -6.32049 0
M  V30 6905 C 668.649 1.40309 -5.94774 0
M  V30 6906 C 669.647 0.889922 -6.77178 0
M  V30 6907 O 669.335 0.447281 -8.02655 0
M  V30 6908 H 669.067 0.356023 -0.574651 0
M  V30 6909 H 671.621 0.475598 -1.99818 0
M  V30 6910 H 669.851 2.98946 -2.45292 0
M  V30 6911 H 671.54 2.88237 -2.85787 0
M  V30 6912 H 672.306 1.21244 -4.69601 0
M  V30 6913 H 668.185 2.24111 -4.02859 0
M  V30 6914 H 671.729 0.422958 -6.96317 0
M  V30 6915 H 667.626 1.45693 -6.28843 0
M  V30 6916 H 668.394 0.569768 -8.16514 0
M  V30 6917 N 671.057 1.43213 0.657864 0
M  V30 6918 C 672.282 1.48227 1.45064 0
M  V30 6919 C 672.707 0.0999939 1.87834 0
M  V30 6920 O 672.065 -0.905269 1.57081 0
M  V30 6921 C 672.113 2.42931 2.6649 0
M  V30 6922 O 671.217 1.91237 3.6538 0
M  V30 6923 H 670.558 0.501551 0.435135 0
M  V30 6924 H 673.088 1.8808 0.805431 0
M  V30 6925 H 673.098 2.6008 3.1436 0
M  V30 6926 H 671.773 3.43348 2.34701 0
M  V30 6927 H 670.35 1.83726 3.24498 0
M  V30 6928 N 672.536 -0.895792 1.29666 0
M  V30 6929 C 673.483 -2.00035 1.15129 0
M  V30 6930 C 674.453 -1.66043 0.0435819 0
M  V30 6931 O 675.638 -1.89621 0.211811 0
M  V30 6932 C 672.778 -3.34774 0.83787 0
M  V30 6933 C 671.891 -3.81525 2.0264 0
M  V30 6934 C 671.026 -5.04858 1.65201 0
M  V30 6935 C 670.065 -5.43988 2.80612 0
M  V30 6936 N 669.202 -6.58507 2.43544 0
M  V30 6937 H 674.042 -2.11802 2.09628 0
M  V30 6938 H 671.579 -1.03719 1.04311 0
M  V30 6939 H 673.537 -4.12311 0.636824 0
M  V30 6940 H 672.167 -3.22724 -0.0702314 0
M  V30 6941 H 671.219 -2.9999 2.33903 0
M  V30 6942 H 672.531 -4.06472 2.89106 0
M  V30 6943 H 671.685 -5.8999 1.41408 0
M  V30 6944 H 670.424 -4.81759 0.758893 0
M  V30 6945 H 669.429 -4.57388 3.05083 0
M  V30 6946 H 670.654 -5.69066 3.70595 0
M  V30 6947 H 668.6 -6.37004 1.56724 0
M  V30 6948 H 668.517 -6.83269 3.23542 0
M  V30 6949 H 669.785 -7.46897 2.2308 0
M  V30 6950 N 674.014 -1.12206 -1.10668 0
M  V30 6951 C 675.244 -0.897332 -1.86095 0
M  V30 6952 C 675.652 0.556778 -1.80822 0
M  V30 6953 O 674.995 1.39658 -1.19337 0
M  V30 6954 C 675.057 -1.29095 -3.35522 0
M  V30 6955 C 674.721 -2.75586 -3.64556 0
M  V30 6956 C 675.718 -3.73785 -3.6136 0
M  V30 6957 C 673.403 -3.12432 -3.93309 0
M  V30 6958 C 675.397 -5.06845 -3.86506 0
M  V30 6959 C 673.084 -4.45675 -4.18111 0
M  V30 6960 C 674.082 -5.42691 -4.147 0
M  V30 6961 O 673.77 -6.73532 -4.38873 0
M  V30 6962 H 673.502 -0.320704 -0.595084 0
M  V30 6963 H 676.056 -1.49517 -1.40833 0
M  V30 6964 H 674.286 -0.636299 -3.81429 0
M  V30 6965 H 675.975 -1.04073 -3.92331 0
M  V30 6966 H 676.741 -3.46664 -3.39189 0
M  V30 6967 H 672.62 -2.3753 -3.95096 0
M  V30 6968 H 676.164 -5.82559 -3.83758 0
M  V30 6969 H 672.061 -4.72526 -4.39761 0
M  V30 6970 H 672.829 -6.79442 -4.564 0
M  V30 6971 N 675.492 1.28418 -0.913599 0
M  V30 6972 C 676.425 2.25557 -0.346328 0
M  V30 6973 C 677.403 1.53038 0.549366 0
M  V30 6974 O 678.587 1.81937 0.493055 0
M  V30 6975 C 675.714 3.34915 0.504961 0
M  V30 6976 C 674.76 4.25257 -0.325334 0
M  V30 6977 S 675.593 5.06718 -1.73198 0
M  V30 6978 C 676.749 6.19569 -0.887988 0
M  V30 6979 H 676.982 2.73325 -1.16965 0
M  V30 6980 H 674.515 1.36855 -0.714841 0
M  V30 6981 H 676.473 3.98376 0.990301 0
M  V30 6982 H 675.134 2.85814 1.30267 0
M  V30 6983 H 674.327 5.02947 0.325589 0
M  V30 6984 H 673.929 3.66519 -0.744321 0
M  V30 6985 H 676.221 6.77398 -0.117568 0
M  V30 6986 H 677.164 6.88908 -1.63742 0
M  V30 6987 H 677.572 5.62812 -0.436228 0
M  V30 6988 N 676.97 0.677563 1.42291 0
M  V30 6989 C 678.386 0.347376 1.55774 0
M  V30 6990 C 678.586 -1.14703 1.65667 0
M  V30 6991 O 677.642 -1.93252 1.62512 0
M  V30 6992 C 678.955 1.08011 2.80631 0
M  V30 6993 C 680.503 1.06271 2.94407 0
M  V30 6994 C 680.978 1.77683 4.22129 0
M  V30 6995 N 682.469 1.74564 4.29047 0
M  V30 6996 C 683.204 2.26673 5.26694 0
M  V30 6997 N 682.7 2.87176 6.30477 0
M  V30 6998 N 684.493 2.17032 5.18511 0
M  V30 6999 H 676.644 1.64703 1.34114 0
M  V30 7000 H 678.907 0.694038 0.645768 0
M  V30 7001 H 678.613 2.13518 2.79469 0
M  V30 7002 H 678.487 0.647115 3.71608 0
M  V30 7003 H 680.874 0.0159658 2.95096 0
M  V30 7004 H 680.955 1.53461 2.04654 0
M  V30 7005 H 680.599 2.82327 4.22201 0
M  V30 7006 H 680.529 1.2794 5.10822 0
M  V30 7007 H 683.02 1.30436 3.54676 0
M  V30 7008 H 683.333 3.24551 7.01346 0
M  V30 7009 H 681.678 2.91247 6.31031 0
M  V30 7010 H 684.869 1.69451 4.36353 0
M  V30 7011 H 685.042 2.57948 5.94446 0
M  V30 7012 N 678.448 -1.51871 0.421078 0
M  V30 7013 C 679.411 -2.25914 -0.386712 0
M  V30 7014 C 680.411 -1.28733 -0.963555 0
M  V30 7015 O 681.601 -1.52579 -0.840556 0
M  V30 7016 C 678.733 -3.03853 -1.54551 0
M  V30 7017 H 679.926 -2.98754 0.261978 0
M  V30 7018 H 677.479 -1.5533 0.173862 0
M  V30 7019 H 678.214 -2.35392 -2.23072 0
M  V30 7020 H 677.999 -3.75215 -1.13824 0
M  V30 7021 H 679.489 -3.59984 -2.11663 0
M  V30 7022 N 679.926 -0.151884 -1.56866 0
M  V30 7023 C 680.856 0.781943 -2.20018 0
M  V30 7024 C 681.837 1.25347 -1.14987 0
M  V30 7025 O 683.022 1.31015 -1.43348 0
M  V30 7026 C 680.152 2.01928 -2.82564 0
M  V30 7027 C 679.106 1.68434 -3.93464 0
M  V30 7028 C 678.432 2.99472 -4.42968 0
M  V30 7029 C 679.732 0.927244 -5.14003 0
M  V30 7030 H 681.426 0.255607 -2.98307 0
M  V30 7031 H 678.972 0.121502 -1.43486 0
M  V30 7032 H 680.925 2.67741 -3.25411 0
M  V30 7033 H 679.649 2.56943 -2.01614 0
M  V30 7034 H 678.308 1.04998 -3.51242 0
M  V30 7035 H 677.956 3.52488 -3.58834 0
M  V30 7036 H 677.656 2.77823 -5.17772 0
M  V30 7037 H 679.18 3.66348 -4.88489 0
M  V30 7038 H 680.594 1.48756 -5.53665 0
M  V30 7039 H 678.991 0.810513 -5.94601 0
M  V30 7040 H 680.061 -0.0801163 -4.84834 0
M  V30 7041 N 681.404 1.57128 0.121893 0
M  V30 7042 C 682.681 1.75664 0.860327 0
M  V30 7043 C 683.061 0.726585 1.98202 0
M  V30 7044 O 682.409 -0.24999 2.27128 0
M  V30 7045 C 682.619 3.20571 1.37968 0
M  V30 7046 C 683.967 3.82988 1.83317 0
M  V30 7047 O 684.991 3.24156 1.47654 0
M  V30 7048 O 683.85 4.86393 2.49168 0
M  V30 7049 H 680.944 0.719153 0.408348 0
M  V30 7050 H 683.49 1.6937 0.105859 0
M  V30 7051 H 682.262 3.87056 0.57477 0
M  V30 7052 H 681.885 3.31392 2.19694 0
M  V30 7053 N 682.882 -0.391992 1.52647 0
M  V30 7054 C 683.792 -1.503 1.80131 0
M  V30 7055 C 684.808 -1.59825 0.687882 0
M  V30 7056 O 685.984 -1.76218 0.975149 0
M  V30 7057 C 683.049 -2.85863 1.96171 0
M  V30 7058 C 682.11 -2.86084 3.20085 0
M  V30 7059 C 681.343 -4.15181 3.35351 0
M  V30 7060 O 681.566 -5.09981 2.55491 0
M  V30 7061 O 680.5 -4.22603 4.28591 0
M  V30 7062 H 684.326 -1.30007 2.74466 0
M  V30 7063 H 681.911 -0.579539 1.37701 0
M  V30 7064 H 683.793 -3.66236 2.08445 0
M  V30 7065 H 682.468 -3.06189 1.05025 0
M  V30 7066 H 681.375 -2.04504 3.13256 0
M  V30 7067 H 682.708 -2.7071 4.11068 0
M  V30 7068 N 684.36 -1.4356 -0.65026 0
M  V30 7069 C 685.59 -1.48563 -1.4357 0
M  V30 7070 C 685.998 -0.103041 -1.88919 0
M  V30 7071 O 685.341 0.897602 -1.60277 0
M  V30 7072 C 685.403 -2.37181 -2.70158 0
M  V30 7073 C 685.067 -3.84673 -2.4673 0
M  V30 7074 C 686.064 -4.75704 -2.09765 0
M  V30 7075 C 683.749 -4.29189 -2.60963 0
M  V30 7076 C 685.743 -6.09249 -1.87334 0
M  V30 7077 C 683.43 -5.62787 -2.38147 0
M  V30 7078 C 684.428 -6.52634 -2.01389 0
M  V30 7079 O 684.116 -7.83761 -1.78813 0
M  V30 7080 H 683.848 -0.506743 -0.447423 0
M  V30 7081 H 686.402 -1.89001 -0.80423 0
M  V30 7082 H 684.632 -1.91636 -3.35876 0
M  V30 7083 H 686.321 -2.33354 -3.32116 0
M  V30 7084 H 687.087 -4.42589 -1.98343 0
M  V30 7085 H 682.966 -3.59529 -2.88548 0
M  V30 7086 H 686.51 -6.7934 -1.58567 0
M  V30 7087 H 682.407 -5.95469 -2.49173 0
M  V30 7088 H 683.175 -7.95368 -1.93214 0
M  V30 7089 N 685.838 0.888903 -1.30139 0
M  V30 7090 C 687.068 1.67115 -1.21474 0
M  V30 7091 C 687.476 1.87852 0.225472 0
M  V30 7092 O 686.819 1.42324 1.16145 0
M  V30 7093 C 686.881 3.0713 -1.86846 0
M  V30 7094 C 686.545 3.09582 -3.36167 0
M  V30 7095 C 687.542 2.88929 -4.32222 0
M  V30 7096 C 685.227 3.31304 -3.77549 0
M  V30 7097 C 687.221 2.89949 -5.67634 0
M  V30 7098 C 684.908 3.31954 -5.13079 0
M  V30 7099 C 685.906 3.113 -6.07932 0
M  V30 7100 O 685.594 3.11758 -7.40987 0
M  V30 7101 H 685.326 0.528372 -0.421662 0
M  V30 7102 H 687.88 1.11919 -1.7223 0
M  V30 7103 H 686.11 3.63973 -1.30615 0
M  V30 7104 H 687.799 3.6749 -1.72354 0
M  V30 7105 H 688.565 2.71948 -4.01584 0
M  V30 7106 H 684.444 3.46417 -3.04165 0
M  V30 7107 H 687.988 2.73746 -6.41645 0
M  V30 7108 H 683.885 3.48469 -5.43359 0
M  V30 7109 H 684.653 3.27951 -7.49927 0
M  V30 7110 N 687.317 1.12792 1.10072 0
M  V30 7111 C 688.594 0.796867 1.78632 0
M  V30 7112 C 688.974 -0.712739 1.98704 0
M  V30 7113 O 688.322 -1.64773 1.5831 0
M  V30 7114 C 688.532 1.57622 3.11378 0
M  V30 7115 C 689.88 1.76463 3.86194 0
M  V30 7116 O 690.904 1.54165 3.2111 0
M  V30 7117 O 689.763 2.13623 5.03018 0
M  V30 7118 H 686.857 0.290248 0.774394 0
M  V30 7119 H 689.403 1.23215 1.16688 0
M  V30 7120 H 688.175 2.60246 2.92212 0
M  V30 7121 H 687.798 1.13543 3.81043 0
M  V30 7122 N 688.795 -1.27931 0.920396 0
M  V30 7123 C 689.742 -2.27085 0.412422 0
M  V30 7124 C 690.712 -1.57858 -0.516725 0
M  V30 7125 O 691.897 -1.85717 -0.437475 0
M  V30 7126 C 689.037 -3.43466 -0.335399 0
M  V30 7127 C 688.15 -4.27425 0.627017 0
M  V30 7128 C 687.285 -5.31016 -0.139916 0
M  V30 7129 C 686.324 -6.06641 0.815683 0
M  V30 7130 N 685.461 -7.02052 0.0818439 0
M  V30 7131 H 690.301 -2.69913 1.26298 0
M  V30 7132 H 687.838 -1.32732 0.634076 0
M  V30 7133 H 689.796 -4.09744 -0.785226 0
M  V30 7134 H 688.426 -3.01611 -1.15025 0
M  V30 7135 H 687.478 -3.6113 1.19537 0
M  V30 7136 H 688.79 -4.79969 1.35763 0
M  V30 7137 H 687.944 -6.03208 -0.649998 0
M  V30 7138 H 686.683 -4.79257 -0.903543 0
M  V30 7139 H 685.688 -5.33294 1.33708 0
M  V30 7140 H 686.913 -6.60489 1.57897 0
M  V30 7141 H 684.859 -6.52634 -0.663671 0
M  V30 7142 H 684.776 -7.52249 0.752163 0
M  V30 7143 H 686.044 -7.78432 -0.407825 0
M  V30 7144 N 690.273 -0.685099 -1.4193 0
M  V30 7145 C 691.223 0.00977295 -2.27998 0
M  V30 7146 C 692.207 0.763315 -1.41641 0
M  V30 7147 O 693.399 0.640532 -1.65004 0
M  V30 7148 C 690.528 0.952972 -3.29808 0
M  V30 7149 C 689.614 0.196231 -4.23646 0
M  V30 7150 N 690.005 -0.804401 -4.99363 0
M  V30 7151 C 688.303 0.433213 -4.43891 0
M  V30 7152 C 689.004 -1.25646 -5.67968 0
M  V30 7153 N 687.98 -0.5844 -5.4045 0
M  V30 7154 H 691.782 -0.757586 -2.83968 0
M  V30 7155 H 689.296 -0.515037 -1.54017 0
M  V30 7156 H 691.293 1.46585 -3.9028 0
M  V30 7157 H 689.953 1.72004 -2.75399 0
M  V30 7158 H 690.964 -1.18429 -5.04177 0
M  V30 7159 H 687.641 1.17899 -4.00507 0
M  V30 7160 H 689.031 -2.08622 -6.38691 0
M  V30 7161 N 691.751 1.51645 -0.429126 0
M  V30 7162 C 692.998 2.02015 0.140079 0
M  V30 7163 C 693.326 1.31374 1.43427 0
M  V30 7164 O 692.581 0.414779 1.91254 0
M  V30 7165 C 692.88 3.54989 0.414472 0
M  V30 7166 C 692.546 4.43874 -0.792911 0
M  V30 7167 C 691.208 4.67887 -1.12404 0
M  V30 7168 C 693.56 4.96074 -1.59875 0
M  V30 7169 C 690.888 5.41348 -2.26184 0
M  V30 7170 C 693.24 5.70782 -2.72747 0
M  V30 7171 C 691.904 5.93062 -3.06324 0
M  V30 7172 H 691.174 0.739225 0.0512585 0
M  V30 7173 H 693.821 1.82675 -0.574641 0
M  V30 7174 H 692.126 3.72615 1.21099 0
M  V30 7175 H 693.823 3.91489 0.868173 0
M  V30 7176 H 690.413 4.25374 -0.524871 0
M  V30 7177 H 694.597 4.77412 -1.35614 0
M  V30 7178 H 689.853 5.56815 -2.52522 0
M  V30 7179 H 694.027 6.10221 -3.35564 0
M  V30 7180 H 691.654 6.49764 -3.94602 0
M  V30 7181 N 693.229 0.160201 1.56784 0
M  V30 7182 C 694.457 -0.494165 2.00912 0
M  V30 7183 C 694.872 -1.57548 1.04038 0
M  V30 7184 O 694.229 -1.82457 0.0394581 0
M  V30 7185 C 694.28 -1.08271 3.44905 0
M  V30 7186 O 694.001 -0.0445704 4.38077 0
M  V30 7187 C 695.502 -1.8164 4.04378 0
M  V30 7188 H 692.722 -0.127498 0.658776 0
M  V30 7189 H 695.266 0.258665 2.02858 0
M  V30 7190 H 693.421 -1.78609 3.4377 0
M  V30 7191 H 693.835 -0.477544 5.22322 0
M  V30 7192 H 695.309 -2.18094 5.07089 0
M  V30 7193 H 695.786 -2.70727 3.45838 0
M  V30 7194 H 696.392 -1.15969 4.09184 0
M  V30 7195 N 694.707 -1.5719 -0.113559 0
M  V30 7196 C 695.617 -2.04041 -1.15777 0
M  V30 7197 C 696.633 -0.961812 -1.45001 0
M  V30 7198 O 697.809 -1.2737 -1.56009 0
M  V30 7199 C 694.874 -2.43994 -2.46308 0
M  V30 7200 C 693.935 -3.65962 -2.24433 0
M  V30 7201 C 693.168 -4.04 -3.4874 0
M  V30 7202 O 693.391 -3.42321 -4.56259 0
M  V30 7203 O 692.325 -4.97069 -3.3942 0
M  V30 7204 H 696.151 -2.93248 -0.789899 0
M  V30 7205 H 693.736 -1.45828 -0.324748 0
M  V30 7206 H 695.618 -2.70401 -3.23204 0
M  V30 7207 H 694.293 -1.57932 -2.82558 0
M  V30 7208 H 693.2 -3.44697 -1.45377 0
M  V30 7209 H 694.533 -4.52746 -1.93084 0
M  V30 7210 N 696.185 0.383891 -1.52853 0
M  V30 7211 C 697.432 1.12842 -1.68146 0
M  V30 7212 C 697.76 1.89823 -0.423954 0
M  V30 7213 O 697.015 1.86475 0.593765 0
M  V30 7214 C 697.314 2.12881 -2.87082 0
M  V30 7215 C 696.98 1.52519 -4.24322 0
M  V30 7216 C 695.642 1.35783 -4.61645 0
M  V30 7217 C 697.994 1.0868 -5.09743 0
M  V30 7218 C 695.322 0.737643 -5.82044 0
M  V30 7219 C 697.674 0.480699 -6.30771 0
M  V30 7220 C 696.338 0.300681 -6.66822 0
M  V30 7221 H 695.608 0.412917 -0.615289 0
M  V30 7222 H 698.255 0.412416 -1.87006 0
M  V30 7223 H 696.56 2.90719 -2.62659 0
M  V30 7224 H 698.257 2.70408 -2.96109 0
M  V30 7225 H 694.847 1.66534 -3.94923 0
M  V30 7226 H 699.031 1.2041 -4.81472 0
M  V30 7227 H 694.287 0.586415 -6.08581 0
M  V30 7228 H 698.461 0.132733 -6.96273 0
M  V30 7229 H 696.088 -0.181966 -7.59982 0
M  V30 7230 N 697.663 1.43903 0.642637 0
M  V30 7231 C 698.909 1.46296 1.40447 0
M  V30 7232 C 699.242 0.0908361 1.93987 0
M  V30 7233 O 698.517 -0.889884 1.72949 0
M  V30 7234 C 698.8 2.51399 2.57819 0
M  V30 7235 C 698.653 3.97926 2.09702 0
M  V30 7236 C 699.972 2.53125 3.60022 0
M  V30 7237 H 697.091 0.532676 0.509338 0
M  V30 7238 H 699.733 1.75515 0.727635 0
M  V30 7239 H 697.883 2.26614 3.1556 0
M  V30 7240 H 699.555 4.33804 1.5688 0
M  V30 7241 H 697.798 4.10252 1.40982 0
M  V30 7242 H 698.469 4.67096 2.94152 0
M  V30 7243 H 700.945 2.75242 3.12059 0
M  V30 7244 H 699.821 3.28589 4.39682 0
M  V30 7245 H 700.082 1.56895 4.13324 0
M  V30 7246 N 699.141 -0.881989 1.30609 0
M  V30 7247 C 700.552 -1.44956 1.17664 0
M  V30 7248 C 700.903 -1.94945 -0.221531 0
M  V30 7249 O 700.028 -1.85257 -1.11844 0
M  V30 7250 C 700.623 -2.63474 2.12995 0
M  V30 7251 C 699.182 -3.16312 2.04019 0
M  V30 7252 C 698.329 -1.89008 2.02907 0
M  V30 7253 H 701.28 -0.691645 1.42835 0
M  V30 7254 H 701.301 -3.39783 1.71253 0
M  V30 7255 H 700.813 -2.2706 3.14746 0
M  V30 7256 H 698.914 -3.57376 1.0542 0
M  V30 7257 H 699.027 -3.79409 2.9255 0
M  V30 7258 H 697.391 -2.07465 1.47751 0
M  V30 7259 H 698.174 -1.54848 3.06394 0
M  V30 7260 N 700.619 -1.13374 -1.09472 0
M  V30 7261 C 701.549 -0.833268 -2.18126 0
M  V30 7262 C 702.53 0.207169 -1.68834 0
M  V30 7263 O 703.715 0.0662012 -1.94087 0
M  V30 7264 C 700.845 -0.297979 -3.46019 0
M  V30 7265 C 699.799 -1.27261 -4.08642 0
M  V30 7266 C 699.125 -0.597104 -5.31356 0
M  V30 7267 C 700.425 -2.63095 -4.51197 0
M  V30 7268 H 702.119 -1.74182 -2.43518 0
M  V30 7269 H 699.665 -0.838921 -1.17039 0
M  V30 7270 H 701.618 -0.0754444 -4.21332 0
M  V30 7271 H 700.342 0.645959 -3.20148 0
M  V30 7272 H 699.001 -1.48113 -3.35348 0
M  V30 7273 H 698.649 0.352293 -5.01765 0
M  V30 7274 H 698.349 -1.24734 -5.74208 0
M  V30 7275 H 699.873 -0.38384 -6.09392 0
M  V30 7276 H 701.287 -2.46214 -5.17737 0
M  V30 7277 H 699.684 -3.2429 -5.04932 0
M  V30 7278 H 700.754 -3.20793 -3.6362 0
M  V30 7279 N 702.098 1.27442 -0.927168 0
M  V30 7280 C 703.514 1.46754 -0.627329 0
M  V30 7281 C 703.714 1.83902 0.823549 0
M  V30 7282 O 702.77 1.95215 1.60148 0
M  V30 7283 C 704.083 2.56045 -1.57674 0
M  V30 7284 C 705.631 2.69906 -1.58491 0
M  V30 7285 C 706.106 3.82355 -2.52128 0
M  V30 7286 N 707.597 3.89728 -2.50332 0
M  V30 7287 C 708.332 4.76155 -3.19475 0
M  V30 7288 N 707.828 5.67073 -3.97995 0
M  V30 7289 N 709.621 4.6988 -3.08496 0
M  V30 7290 H 701.772 1.01613 -1.86517 0
M  V30 7291 H 704.035 0.507443 -0.800753 0
M  V30 7292 H 703.741 2.35542 -2.61176 0
M  V30 7293 H 703.615 3.53423 -1.31804 0
M  V30 7294 H 706.002 2.89792 -0.557208 0
M  V30 7295 H 706.083 1.73018 -1.8841 0
M  V30 7296 H 705.727 3.63224 -3.55008 0
M  V30 7297 H 705.657 4.7867 -2.19505 0
M  V30 7298 H 708.148 3.24717 -1.93306 0
M  V30 7299 H 708.461 6.2988 -4.4774 0
M  V30 7300 H 706.806 5.6687 -4.02098 0
M  V30 7301 H 709.997 3.97848 -2.46646 0
M  V30 7302 H 710.17 5.37017 -3.62652 0
M  V30 7303 N 703.576 0.692616 1.41565 0
M  V30 7304 C 704.804 0.231279 2.05603 0
M  V30 7305 C 705.219 -1.11837 1.52111 0
M  V30 7306 O 704.576 -1.6983 0.66813 0
M  V30 7307 C 704.627 0.177125 3.61066 0
M  V30 7308 O 704.348 1.47346 4.12578 0
M  V30 7309 C 705.849 -0.30556 4.42246 0
M  V30 7310 H 703.069 0.108238 0.662213 0
M  V30 7311 H 705.613 0.944369 1.81389 0
M  V30 7312 H 703.768 -0.486769 3.8433 0
M  V30 7313 H 704.182 1.35861 5.06599 0
M  V30 7314 H 705.656 -0.29233 5.51225 0
M  V30 7315 H 706.133 -1.34393 4.18133 0
M  V30 7316 H 706.739 0.327229 4.24039 0
M  V30 7317 N 705.054 -1.51416 0.437162 0
M  V30 7318 C 706.001 -2.27743 -0.374374 0
M  V30 7319 C 706.971 -1.31327 -1.01698 0
M  V30 7320 O 708.156 -1.60229 -1.03592 0
M  V30 7321 C 705.296 -3.12241 -1.46969 0
M  V30 7322 C 704.409 -4.23651 -0.845236 0
M  V30 7323 C 703.544 -4.95458 -1.91559 0
M  V30 7324 C 702.583 -5.98789 -1.26956 0
M  V30 7325 N 701.72 -6.64005 -2.28126 0
M  V30 7326 H 706.56 -2.96654 0.282892 0
M  V30 7327 H 704.097 -1.46319 0.151352 0
M  V30 7328 H 706.055 -3.59556 -2.11602 0
M  V30 7329 H 704.685 -2.45445 -2.09659 0
M  V30 7330 H 703.737 -3.803 -0.0872059 0
M  V30 7331 H 705.049 -4.97683 -0.333582 0
M  V30 7332 H 704.203 -5.46321 -2.63854 0
M  V30 7333 H 702.942 -4.21055 -2.46097 0
M  V30 7334 H 701.947 -5.47219 -0.53207 0
M  V30 7335 H 703.172 -6.75149 -0.731509 0
M  V30 7336 H 701.118 -5.92415 -2.81745 0
M  V30 7337 H 701.035 -7.33802 -1.81852 0
M  V30 7338 H 702.303 -7.19498 -2.99905 0
M  V30 7339 N 706.532 -0.168513 -1.56696 0
M  V30 7340 C 707.495 0.748928 -2.16619 0
M  V30 7341 C 708.495 1.16007 -1.11351 0
M  V30 7342 O 709.685 1.07748 -1.3688 0
M  V30 7343 C 706.817 2.01904 -2.74677 0
M  V30 7344 H 708.01 0.227317 -2.99037 0
M  V30 7345 H 705.563 0.0810372 -1.5609 0
M  V30 7346 H 706.298 2.58381 -1.95985 0
M  V30 7347 H 706.083 1.73323 -3.51712 0
M  V30 7348 H 707.573 2.67383 -3.20774 0
M  V30 7349 N 708.01 1.57248 0.105221 0
M  V30 7350 C 708.957 2.01338 1.12835 0
M  V30 7351 C 709.927 0.887897 1.40377 0
M  V30 7352 O 711.112 1.15315 1.5201 0
M  V30 7353 C 708.252 2.43432 2.44611 0
M  V30 7354 C 707.365 3.69457 2.23888 0
M  V30 7355 C 706.5 4.00473 3.48991 0
M  V30 7356 C 705.539 5.19638 3.23485 0
M  V30 7357 N 704.676 5.46457 4.40828 0
M  V30 7358 H 709.516 2.88527 0.745386 0
M  V30 7359 H 707.053 1.42714 0.356535 0
M  V30 7360 H 709.011 2.65879 3.21503 0
M  V30 7361 H 707.641 1.59266 2.80774 0
M  V30 7362 H 706.693 3.54545 1.37847 0
M  V30 7363 H 708.005 4.56497 2.01026 0
M  V30 7364 H 707.159 4.23642 4.34295 0
M  V30 7365 H 705.898 3.11935 3.74897 0
M  V30 7366 H 704.903 4.96299 2.36574 0
M  V30 7367 H 706.128 6.09766 2.98935 0
M  V30 7368 H 704.074 4.60876 4.66829 0
M  V30 7369 H 703.991 6.27849 4.2112 0
M  V30 7370 H 705.259 5.74155 5.27225 0
M  V30 7371 N 709.488 -0.375779 1.53054 0
M  V30 7372 C 710.398 -1.48381 1.81715 0
M  V30 7373 C 711.414 -1.59087 0.704795 0
M  V30 7374 O 712.59 -1.75174 0.993785 0
M  V30 7375 C 709.655 -2.83767 1.99192 0
M  V30 7376 C 708.716 -2.82673 3.23102 0
M  V30 7377 C 707.949 -4.11601 3.39736 0
M  V30 7378 O 708.172 -5.07243 2.60885 0
M  V30 7379 O 707.106 -4.18034 4.33049 0
M  V30 7380 H 710.932 -1.27089 2.7583 0
M  V30 7381 H 708.517 -0.564902 1.38308 0
M  V30 7382 H 710.399 -3.64004 2.12318 0
M  V30 7383 H 709.074 -3.05057 1.08267 0
M  V30 7384 H 707.981 -2.0117 3.15407 0
M  V30 7385 H 709.314 -2.66335 4.13916 0
M  V30 7386 N 710.966 -1.44241 -0.634997 0
M  V30 7387 C 712.215 -1.46102 -1.39058 0
M  V30 7388 C 712.528 -0.0959909 -1.95364 0
M  V30 7389 O 713.734 0.00788751 -2.71499 0
M  V30 7390 C 712.19 -2.57195 -2.51751 0
M  V30 7391 C 711.798 -3.99888 -2.01974 0
M  V30 7392 C 713.542 -2.68272 -3.28984 0
M  V30 7393 C 711.449 -5.02412 -3.11987 0
M  V30 7394 H 710.379 -0.543556 -0.522554 0
M  V30 7395 H 713.03 -1.70294 -0.683538 0
M  V30 7396 H 711.412 -2.26237 -3.25012 0
M  V30 7397 H 712.586 -4.40396 -1.35604 0
M  V30 7398 H 710.901 -3.93019 -1.37568 0
M  V30 7399 H 713.498 -3.42042 -4.10988 0
M  V30 7400 H 713.841 -1.73957 -3.78212 0
M  V30 7401 H 714.374 -2.98622 -2.62812 0
M  V30 7402 H 711.113 -5.98342 -2.67707 0
M  V30 7403 H 710.633 -4.66501 -3.77011 0
M  V30 7404 H 712.312 -5.25939 -3.76825 0
M  V30 7405 N 712.444 0.87505 -1.31075 0
M  V30 7406 C 713.374 1.99775 -1.20881 0
M  V30 7407 C 714.355 1.69822 -0.0971612 0
M  V30 7408 O 715.54 1.92158 -0.280895 0
M  V30 7409 C 712.67 3.35163 -0.910118 0
M  V30 7410 C 711.624 3.79406 -1.98078 0
M  V30 7411 C 710.95 5.12197 -1.53488 0
M  V30 7412 C 712.25 3.97061 -3.39323 0
M  V30 7413 H 713.944 2.08562 -2.14808 0
M  V30 7414 H 711.49 1.00207 -1.03415 0
M  V30 7415 H 713.443 4.13237 -0.825423 0
M  V30 7416 H 712.167 3.26536 0.064822 0
M  V30 7417 H 710.826 3.03568 -2.05528 0
M  V30 7418 H 710.474 5.00007 -0.547941 0
M  V30 7419 H 710.174 5.4277 -2.2511 0
M  V30 7420 H 711.698 5.92785 -1.46417 0
M  V30 7421 H 713.112 4.65545 -3.34576 0
M  V30 7422 H 711.509 4.39025 -4.09118 0
M  V30 7423 H 712.579 3.00601 -3.80483 0
M  V30 7424 N 713.922 1.13953 1.08869 0
M  V30 7425 C 714.854 0.779906 2.15523 0
M  V30 7426 C 715.867 -0.20102 1.61554 0
M  V30 7427 O 717.056 0.0200049 1.78489 0
M  V30 7428 C 714.156 0.136226 3.38626 0
M  V30 7429 C 713.329 1.15069 4.21993 0
M  V30 7430 C 712.388 0.531645 5.23507 0
M  V30 7431 O 711.414 1.19327 5.56552 0
M  V30 7432 N 712.616 -0.693734 5.7634 0
M  V30 7433 H 715.381 1.69769 2.46979 0
M  V30 7434 H 712.942 1.03331 1.24637 0
M  V30 7435 H 714.934 -0.290295 4.03658 0
M  V30 7436 H 713.504 -0.684603 3.05011 0
M  V30 7437 H 712.724 1.75431 3.53012 0
M  V30 7438 H 714.012 1.83614 4.74514 0
M  V30 7439 H 713.41 -1.24994 5.51718 0
M  V30 7440 H 711.967 -1.06283 6.43076 0
M  V30 7441 N 715.4 -1.26948 0.933913 0
M  V30 7442 C 716.31 -2.30366 0.443671 0
M  V30 7443 C 717.326 -1.67284 -0.478745 0
M  V30 7444 O 718.502 -1.98156 -0.360043 0
M  V30 7445 C 715.567 -3.45485 -0.289974 0
M  V30 7446 C 714.628 -4.24069 0.668114 0
M  V30 7447 C 713.861 -5.33691 -0.0306138 0
M  V30 7448 O 714.084 -5.5656 -1.24888 0
M  V30 7449 O 713.018 -5.98441 0.644384 0
M  V30 7450 H 716.844 -2.74349 1.30254 0
M  V30 7451 H 714.429 -1.32012 0.699506 0
M  V30 7452 H 716.311 -4.15486 -0.70353 0
M  V30 7453 H 714.986 -3.03546 -1.12435 0
M  V30 7454 H 713.893 -3.56579 1.13147 0
M  V30 7455 H 715.226 -4.69739 1.46989 0
M  V30 7456 N 716.879 -0.700114 -1.41195 0
M  V30 7457 C 717.789 -0.0382854 -2.34569 0
M  V30 7458 C 718.805 0.761036 -1.56474 0
M  V30 7459 O 719.981 0.697553 -1.88934 0
M  V30 7460 C 717.046 0.883522 -3.35253 0
M  V30 7461 C 716.107 0.0758957 -4.29233 0
M  V30 7462 C 715.34 0.9538 -5.25108 0
M  V30 7463 O 715.563 2.19326 -5.26547 0
M  V30 7464 O 714.497 0.401049 -6.00562 0
M  V30 7465 H 718.323 -0.808073 -2.92752 0
M  V30 7466 H 715.908 -0.460479 -1.42127 0
M  V30 7467 H 717.79 1.41199 -3.9704 0
M  V30 7468 H 716.465 1.63272 -2.79506 0
M  V30 7469 H 715.372 -0.497274 -3.7078 0
M  V30 7470 H 716.705 -0.634741 -4.8809 0
M  V30 7471 N 718.357 1.51182 -0.445186 0
M  V30 7472 C 719.267 2.31692 0.368255 0
M  V30 7473 C 720.283 1.40942 1.02036 0
M  V30 7474 O 721.459 1.74011 1.01401 0
M  V30 7475 C 718.524 3.14903 1.45041 0
M  V30 7476 C 717.585 4.21442 0.817615 0
M  V30 7477 C 716.818 5.00677 1.8482 0
M  V30 7478 O 717.041 4.80644 3.07145 0
M  V30 7479 O 715.975 5.84559 1.43438 0
M  V30 7480 H 719.801 3.0232 -0.289219 0
M  V30 7481 H 717.386 1.47951 -0.207555 0
M  V30 7482 H 719.268 3.66612 2.07783 0
M  V30 7483 H 717.943 2.47031 2.09182 0
M  V30 7484 H 716.85 3.73791 0.151931 0
M  V30 7485 H 718.183 4.9171 0.219564 0
M  V30 7486 N 719.835 0.176821 1.56605 0
M  V30 7487 C 721.112 -0.513365 1.88743 0
M  V30 7488 C 721.492 -1.80929 1.08757 0
M  V30 7489 O 720.84 -2.27765 0.183127 0
M  V30 7490 C 721.05 -0.749925 3.40848 0
M  V30 7491 C 722.398 -1.07747 4.10701 0
M  V30 7492 O 723.422 -0.838277 3.46196 0
M  V30 7493 O 722.281 -1.52901 5.24675 0
M  V30 7494 H 719.375 -0.265296 0.783292 0
M  V30 7495 H 721.921 0.215669 1.68324 0
M  V30 7496 H 720.693 0.16599 3.90948 0
M  V30 7497 H 720.316 -1.53208 3.66897 0
M  V30 7498 N 721.313 -1.57302 -0.09688 0
M  V30 7499 C 722.243 -2.0497 -1.11846 0
M  V30 7500 C 723.224 -0.938278 -1.41882 0
M  V30 7501 O 724.409 -1.20943 -1.51942 0
M  V30 7502 C 721.539 -2.47264 -2.43881 0
M  V30 7503 C 720.493 -3.62053 -2.28257 0
M  V30 7504 C 719.819 -3.90318 -3.65453 0
M  V30 7505 C 721.119 -4.93005 -1.72461 0
M  V30 7506 H 722.813 -2.90567 -0.721888 0
M  V30 7507 H 720.359 -1.39786 -0.345803 0
M  V30 7508 H 722.312 -2.7922 -3.15617 0
M  V30 7509 H 721.036 -1.58664 -2.8547 0
M  V30 7510 H 719.695 -3.30341 -1.58967 0
M  V30 7511 H 719.343 -2.98889 -4.04567 0
M  V30 7512 H 719.043 -4.67597 -3.55846 0
M  V30 7513 H 720.567 -4.24747 -4.3866 0
M  V30 7514 H 721.981 -5.23354 -2.34036 0
M  V30 7515 H 720.378 -5.74436 -1.73618 0
M  V30 7516 H 721.448 -4.80053 -0.683898 0
M  V30 7517 N 722.791 0.367657 -1.53252 0
M  V30 7518 C 723.754 1.43308 -1.78873 0
M  V30 7519 C 724.754 1.46671 -0.659115 0
M  V30 7520 O 725.944 1.47468 -0.927306 0
M  V30 7521 C 723.076 2.82442 -1.90892 0
M  V30 7522 H 724.269 1.21864 -2.74024 0
M  V30 7523 H 721.822 0.600668 -1.44297 0
M  V30 7524 H 722.557 3.09202 -0.978 0
M  V30 7525 H 722.342 2.81399 -2.73051 0
M  V30 7526 H 723.832 3.59601 -2.12314 0
M  V30 7527 N 724.269 1.44576 0.627338 0
M  V30 7528 C 725.179 1.54232 1.76776 0
M  V30 7529 C 726.195 0.427782 1.6866 0
M  V30 7530 O 727.371 0.685671 1.89369 0
M  V30 7531 C 724.436 1.48738 3.13174 0
M  V30 7532 C 723.497 2.71074 3.32893 0
M  V30 7533 C 722.73 2.65832 4.62784 0
M  V30 7534 O 722.953 1.72048 5.43834 0
M  V30 7535 O 721.887 3.56742 4.84787 0
M  V30 7536 H 725.713 2.50586 1.71582 0
M  V30 7537 H 723.298 1.26865 0.789028 0
M  V30 7538 H 725.18 1.48211 3.94476 0
M  V30 7539 H 723.855 0.555292 3.18902 0
M  V30 7540 H 722.762 2.77168 2.51254 0
M  V30 7541 H 724.095 3.63342 3.32029 0
M  V30 7542 N 725.747 -0.868086 1.31537 0
M  V30 7543 C 726.996 -1.61607 1.20689 0
M  V30 7544 C 727.309 -1.94204 -0.233275 0
M  V30 7545 O 728.515 -2.67515 -0.463465 0
M  V30 7546 C 726.971 -2.91348 2.11292 0
M  V30 7547 C 726.579 -2.66227 3.60315 0
M  V30 7548 C 728.323 -3.69344 2.09249 0
M  V30 7549 C 726.23 -3.91887 4.42921 0
M  V30 7550 H 725.16 -0.606373 0.448138 0
M  V30 7551 H 727.811 -0.959666 1.56405 0
M  V30 7552 H 726.193 -3.58374 1.68477 0
M  V30 7553 H 727.367 -2.07597 4.11388 0
M  V30 7554 H 725.682 -2.01582 3.64354 0
M  V30 7555 H 728.279 -4.62567 2.68209 0
M  V30 7556 H 728.622 -4.02044 1.0801 0
M  V30 7557 H 729.155 -3.09205 2.50274 0
M  V30 7558 H 725.894 -3.64336 5.44922 0
M  V30 7559 H 725.414 -4.49961 3.96605 0
M  V30 7560 H 727.093 -4.59754 4.55231 0
M  V30 7561 N 727.225 -1.14528 -1.08264 0
M  V30 7562 C 728.471 -0.91576 -1.80947 0
M  V30 7563 C 728.804 0.55623 -1.86064 0
M  V30 7564 O 728.079 1.41207 -1.33756 0
M  V30 7565 C 728.362 -1.51917 -3.26486 0
M  V30 7566 C 728.215 -3.06111 -3.2957 0
M  V30 7567 C 729.534 -1.19724 -4.23502 0
M  V30 7568 H 726.653 -0.334113 -0.656915 0
M  V30 7569 H 729.295 -1.41547 -1.26746 0
M  V30 7570 H 727.445 -1.0942 -3.72773 0
M  V30 7571 H 729.117 -3.57448 -2.91597 0
M  V30 7572 H 727.36 -3.40483 -2.688 0
M  V30 7573 H 728.031 -3.43438 -4.32151 0
M  V30 7574 H 730.507 -1.56467 -3.85561 0
M  V30 7575 H 729.383 -1.64575 -5.23647 0
M  V30 7576 H 729.644 -0.112771 -4.41956 0
M  V30 7577 N 728.703 1.26451 -0.940633 0
M  V30 7578 C 729.635 2.25556 -0.407104 0
M  V30 7579 C 730.648 1.55888 0.469324 0
M  V30 7580 O 731.837 1.76292 0.279858 0
M  V30 7581 C 728.937 3.36109 0.434064 0
M  V30 7582 C 728.11 4.3532 -0.426082 0
M  V30 7583 C 727.169 5.25004 0.354563 0
M  V30 7584 O 726.195 5.68684 -0.242219 0
M  V30 7585 N 727.397 5.5652 1.65123 0
M  V30 7586 H 730.162 2.7197 -1.25907 0
M  V30 7587 H 727.723 1.40212 -0.809456 0
M  V30 7588 H 729.715 3.93059 0.963684 0
M  V30 7589 H 728.285 2.89194 1.18683 0
M  V30 7590 H 727.505 3.77449 -1.13692 0
M  V30 7591 H 728.793 4.986 -1.01366 0
M  V30 7592 H 728.191 5.22912 2.15822 0
M  V30 7593 H 726.748 6.16115 2.12711 0
M  V30 7594 N 730.181 0.707592 1.40822 0
M  V30 7595 C 731.111 0.0644925 2.33411 0
M  V30 7596 C 732.092 -0.754205 1.52466 0
M  V30 7597 O 733.277 -0.704749 1.80961 0
M  V30 7598 C 730.407 -0.863865 3.36385 0
M  V30 7599 C 729.361 -0.15138 4.27732 0
M  V30 7600 C 728.687 -1.19491 5.21177 0
M  V30 7601 C 729.987 0.989607 5.12839 0
M  V30 7602 H 731.681 0.837829 2.87438 0
M  V30 7603 H 729.227 0.404346 1.38207 0
M  V30 7604 H 731.18 -1.32309 4.0009 0
M  V30 7605 H 729.904 -1.66901 2.80734 0
M  V30 7606 H 728.563 0.287937 3.65467 0
M  V30 7607 H 728.211 -1.9929 4.61836 0
M  V30 7608 H 727.911 -0.723123 5.83134 0
M  V30 7609 H 729.435 -1.6544 5.8776 0
M  V30 7610 H 730.849 0.610114 5.70044 0
M  V30 7611 H 729.246 1.38926 5.83798 0
M  V30 7612 H 730.316 1.82389 4.49291 0
M  V30 7613 N 731.66 -1.50943 0.453197 0
M  V30 7614 C 732.906 -2.02512 -0.108082 0
M  V30 7615 C 733.239 -1.33574 -1.40967 0
M  V30 7616 O 732.514 -0.455671 -1.89087 0
M  V30 7617 C 732.797 -3.58759 -0.310453 0
M  V30 7618 C 732.65 -4.38293 1.0109 0
M  V30 7619 C 733.969 -4.26816 -1.07313 0
M  V30 7620 H 731.088 -0.73603 -0.0378064 0
M  V30 7621 H 733.73 -1.80433 0.595295 0
M  V30 7622 H 731.88 -3.77702 -0.909582 0
M  V30 7623 H 733.552 -4.30964 1.64523 0
M  V30 7624 H 731.795 -4.02745 1.61179 0
M  V30 7625 H 732.466 -5.45828 0.82315 0
M  V30 7626 H 734.942 -4.1224 -0.565473 0
M  V30 7627 H 733.818 -5.35989 -1.1835 0
M  V30 7628 H 734.079 -3.88757 -2.10525 0
M  V30 7629 N 733.138 -0.185124 -1.56509 0
M  V30 7630 C 734.386 0.455357 -1.96903 0
M  V30 7631 C 734.707 1.62839 -1.07277 0
M  V30 7632 O 733.977 1.95385 -0.141966 0
M  V30 7633 H 732.557 0.171218 -0.727113 0
M  V30 7634 H 735.219 -0.26953 -1.93027 0
M  V30 7635 H 734.315 0.80616 -3.01509 0
M  V30 7636 N 734.616 1.57351 0.0885366 0
M  V30 7637 C 735.563 2.02523 1.10693 0
M  V30 7638 C 736.533 0.902736 1.39427 0
M  V30 7639 O 737.718 1.16921 1.50779 0
M  V30 7640 C 734.858 2.46013 2.42016 0
M  V30 7641 C 733.971 3.7181 2.19957 0
M  V30 7642 C 733.106 4.04152 3.44724 0
M  V30 7643 C 732.145 5.2304 3.17956 0
M  V30 7644 N 731.282 5.51102 4.35007 0
M  V30 7645 H 736.122 2.89302 0.714742 0
M  V30 7646 H 733.659 1.43084 0.341378 0
M  V30 7647 H 735.617 2.69274 3.18665 0
M  V30 7648 H 734.247 1.62235 2.79069 0
M  V30 7649 H 733.299 3.55987 1.34079 0
M  V30 7650 H 734.611 4.58604 1.96173 0
M  V30 7651 H 733.765 4.28225 4.29777 0
M  V30 7652 H 732.504 3.15893 3.71568 0
M  V30 7653 H 731.509 4.98781 2.31296 0
M  V30 7654 H 732.734 6.12902 2.92451 0
M  V30 7655 H 730.68 4.65802 4.61914 0
M  V30 7656 H 730.597 6.3228 4.14437 0
M  V30 7657 H 731.865 5.79714 5.21106 0
M  V30 7658 N 736.094 -0.359525 1.53444 0
M  V30 7659 C 737.057 -1.42357 1.7963 0
M  V30 7660 C 738.057 -1.46319 0.666884 0
M  V30 7661 O 739.247 -1.46974 0.935113 0
M  V30 7662 C 736.379 -2.81425 1.92387 0
M  V30 7663 H 737.572 -1.20409 2.74666 0
M  V30 7664 H 735.125 -0.593007 1.44614 0
M  V30 7665 H 735.86 -3.08679 0.994384 0
M  V30 7666 H 735.645 -2.79947 2.74539 0
M  V30 7667 H 737.135 -3.5847 2.14218 0
M  V30 7668 N 737.572 -1.44907 -0.619662 0
M  V30 7669 C 738.797 -1.52021 -1.41083 0
M  V30 7670 C 739.222 -0.14976 -1.87503 0
M  V30 7671 O 738.58 0.863303 -1.59426 0
M  V30 7672 C 738.628 -2.49911 -2.59955 0
M  V30 7673 O 737.732 -2.00857 -3.60181 0
M  V30 7674 H 737.073 -0.512912 -0.421684 0
M  V30 7675 H 739.603 -1.90149 -0.755282 0
M  V30 7676 H 739.613 -2.68323 -3.07354 0
M  V30 7677 H 738.288 -3.4945 -2.25516 0
M  V30 7678 H 736.865 -1.92265 -3.19513 0
M  V30 7679 N 739.05 0.861098 -1.31996 0
M  V30 7680 C 739.98 1.98482 -1.22993 0
M  V30 7681 C 740.961 1.6971 -0.115168 0
M  V30 7682 O 742.146 1.91849 -0.30126 0
M  V30 7683 C 739.276 3.34179 -0.945615 0
M  V30 7684 C 738.23 3.77284 -2.02091 0
M  V30 7685 C 737.556 5.1054 -1.58912 0
M  V30 7686 C 738.856 3.93439 -3.43515 0
M  V30 7687 H 740.55 2.06271 -2.17008 0
M  V30 7688 H 738.096 0.991043 -1.04472 0
M  V30 7689 H 740.049 4.12338 -0.869206 0
M  V30 7690 H 738.773 3.26586 0.0301849 0
M  V30 7691 H 737.432 3.01371 -2.08737 0
M  V30 7692 H 737.08 4.99397 -0.600942 0
M  V30 7693 H 736.78 5.40352 -2.30854 0
M  V30 7694 H 738.304 5.91199 -1.52696 0
M  V30 7695 H 739.718 4.6197 -3.39495 0
M  V30 7696 H 738.115 4.34661 -4.13751 0
M  V30 7697 H 739.185 2.96548 -3.8365 0
M  V30 7698 N 740.528 1.15101 1.07655 0
M  V30 7699 C 741.491 0.847625 2.12951 0
M  V30 7700 C 742.491 -0.151227 1.60087 0
M  V30 7701 O 743.681 0.0780399 1.74025 0
M  V30 7702 C 740.813 0.265 3.39868 0
M  V30 7703 H 742.006 1.7809 2.41296 0
M  V30 7704 H 739.559 0.958072 1.23494 0
M  V30 7705 H 740.294 -0.676625 3.17163 0
M  V30 7706 H 740.079 0.984554 3.79538 0
M  V30 7707 H 741.569 0.0702121 4.17541 0
M  V30 7708 N 742.006 -1.2595 0.947325 0
M  V30 7709 C 742.916 -2.29883 0.468079 0
M  V30 7710 C 743.932 -1.67783 -0.460975 0
M  V30 7711 O 745.108 -1.98526 -0.339006 0
M  V30 7712 C 742.173 -3.45773 -0.253315 0
M  V30 7713 C 741.234 -4.23337 0.713054 0
M  V30 7714 C 740.467 -5.33694 0.025993 0
M  V30 7715 O 740.69 -5.57853 -1.18978 0
M  V30 7716 O 739.624 -5.97724 0.70782 0
M  V30 7717 H 743.45 -2.72952 1.33156 0
M  V30 7718 H 741.035 -1.31263 0.713468 0
M  V30 7719 H 742.917 -4.16209 -0.659423 0
M  V30 7720 H 741.592 -3.04721 -1.09209 0
M  V30 7721 H 740.499 -3.55359 1.16923 0
M  V30 7722 H 741.832 -4.68154 1.51963 0
M  V30 7723 N 743.484 -0.715051 -1.40445 0
M  V30 7724 C 744.712 -0.263959 -2.05209 0
M  V30 7725 C 745.127 1.09403 -1.53871 0
M  V30 7726 O 744.484 1.68746 -0.695064 0
M  V30 7727 C 744.535 -0.234545 -3.60738 0
M  V30 7728 O 744.256 -1.53891 -4.10182 0
M  V30 7729 C 745.757 0.235164 -4.42676 0
M  V30 7730 H 742.977 -0.11876 -0.660407 0
M  V30 7731 H 745.521 -0.973107 -1.79864 0
M  V30 7732 H 743.676 0.425563 -3.85055 0
M  V30 7733 H 744.09 -1.43903 -5.04373 0
M  V30 7734 H 745.564 0.204598 -5.51621 0
M  V30 7735 H 746.041 1.27724 -4.20218 0
M  V30 7736 H 746.647 -0.394649 -4.23465 0
M  V30 7737 N 744.962 1.50701 -0.461195 0
M  V30 7738 C 746.239 1.94958 0.158296 0
M  V30 7739 C 746.619 1.40111 1.57899 0
M  V30 7740 O 745.967 0.597976 2.20537 0
M  V30 7741 C 746.177 3.48821 0.11172 0
M  V30 7742 C 747.525 4.23499 0.30552 0
M  V30 7743 O 748.549 3.557 0.188758 0
M  V30 7744 O 747.408 5.43823 0.540244 0
M  V30 7745 H 744.502 0.818674 0.117054 0
M  V30 7746 H 747.048 1.61508 -0.520888 0
M  V30 7747 H 745.82 3.81263 -0.880577 0
M  V30 7748 H 745.443 3.88781 0.832791 0
M  V30 7749 N 746.441 0.193421 1.56409 0
M  V30 7750 C 747.388 -0.728124 2.19014 0
M  V30 7751 C 748.358 -1.21098 1.13686 0
M  V30 7752 O 749.543 -1.27517 1.4193 0
M  V30 7753 C 746.683 -1.94277 2.8522 0
M  V30 7754 C 745.796 -1.50143 4.05069 0
M  V30 7755 C 744.931 -2.67145 4.59137 0
M  V30 7756 C 743.97 -2.19609 5.71348 0
M  V30 7757 N 743.107 -3.29782 6.19829 0
M  V30 7758 H 747.947 -0.187499 2.9741 0
M  V30 7759 H 745.484 -0.0808064 1.46878 0
M  V30 7760 H 747.442 -2.65551 3.21774 0
M  V30 7761 H 746.072 -2.45673 2.09391 0
M  V30 7762 H 745.124 -0.684624 3.74189 0
M  V30 7763 H 746.436 -1.11266 4.86232 0
M  V30 7764 H 745.59 -3.46544 4.97988 0
M  V30 7765 H 744.329 -3.09295 3.77078 0
M  V30 7766 H 743.334 -1.38664 5.32027 0
M  V30 7767 H 744.559 -1.78492 6.55223 0
M  V30 7768 H 742.505 -3.71466 5.40693 0
M  V30 7769 H 742.422 -2.95069 6.96039 0
M  V30 7770 H 743.69 -4.094 6.63334 0
M  V30 7771 N 747.919 -1.57396 -0.0801906 0
M  V30 7772 C 749.168 -1.8602 -0.779702 0
M  V30 7773 C 749.481 -0.784864 -1.79163 0
M  V30 7774 O 750.687 -0.958691 -2.54011 0
M  V30 7775 C 749.143 -3.29942 -1.43758 0
M  V30 7776 C 748.751 -4.45584 -0.464654 0
M  V30 7777 C 750.495 -3.67775 -2.11995 0
M  V30 7778 C 748.402 -5.80544 -1.12797 0
M  V30 7779 H 747.332 -0.69392 -0.294943 0
M  V30 7780 H 749.983 -1.83471 -0.0328527 0
M  V30 7781 H 748.365 -3.27078 -2.2324 0
M  V30 7782 H 749.539 -4.59824 0.299749 0
M  V30 7783 H 747.854 -4.16247 0.112813 0
M  V30 7784 H 750.451 -4.65896 -2.62383 0
M  V30 7785 H 750.794 -2.9715 -2.91561 0
M  V30 7786 H 751.327 -3.72593 -1.39354 0
M  V30 7787 H 748.066 -6.54439 -0.372807 0
M  V30 7788 H 747.586 -5.70119 -1.86344 0
M  V30 7789 H 749.265 -6.25602 -1.6502 0
M  V30 7790 N 749.397 0.351382 -1.53633 0
M  V30 7791 C 750.625 1.11275 -1.74429 0
M  V30 7792 C 751.04 1.82602 -0.479798 0
M  V30 7793 O 750.397 1.74074 0.548125 0
M  V30 7794 C 750.448 2.13223 -2.91921 0
M  V30 7795 O 750.169 1.44798 -4.13479 0
M  V30 7796 C 751.67 3.01797 -3.24706 0
M  V30 7797 H 748.89 0.332153 -0.583023 0
M  V30 7798 H 751.434 0.405974 -2.0043 0
M  V30 7799 H 749.589 2.79477 -2.68274 0
M  V30 7800 H 750.003 2.12839 -4.79374 0
M  V30 7801 H 751.477 3.69282 -4.10286 0
M  V30 7802 H 751.954 3.67387 -2.40673 0
M  V30 7803 H 752.56 2.41141 -3.5033 0
M  V30 7804 N 750.875 1.45233 0.611969 0
M  V30 7805 C 751.805 1.5641 1.73373 0
M  V30 7806 C 752.786 0.415896 1.64937 0
M  V30 7807 O 753.971 0.638478 1.83404 0
M  V30 7808 C 751.101 1.52627 3.11965 0
M  V30 7809 C 750.055 2.66119 3.35208 0
M  V30 7810 C 749.381 2.4739 4.74028 0
M  V30 7811 C 750.681 4.08157 3.25891 0
M  V30 7812 H 752.375 2.50307 1.64277 0
M  V30 7813 H 749.921 1.20467 0.788904 0
M  V30 7814 H 751.874 1.59043 3.90235 0
M  V30 7815 H 750.598 0.552564 3.21892 0
M  V30 7816 H 749.257 2.59123 2.59327 0
M  V30 7817 H 748.905 1.48168 4.80682 0
M  V30 7818 H 748.605 3.23494 4.90536 0
M  V30 7819 H 750.129 2.55653 5.54503 0
M  V30 7820 H 751.543 4.1642 3.9404 0
M  V30 7821 H 749.94 4.84617 3.5393 0
M  V30 7822 H 751.01 4.30374 2.23397 0
M  V30 7823 N 752.353 -0.854086 1.3245 0
M  V30 7824 C 753.263 -1.99503 1.23434 0
M  V30 7825 C 754.279 -1.73371 0.147828 0
M  V30 7826 O 755.455 -1.97998 0.368609 0
M  V30 7827 C 752.52 -3.33192 0.958328 0
M  V30 7828 C 751.581 -3.72542 2.13333 0
M  V30 7829 C 750.814 -4.99852 1.8704 0
M  V30 7830 O 751.037 -5.64573 0.813239 0
M  V30 7831 O 749.971 -5.36345 2.73161 0
M  V30 7832 H 753.797 -2.10046 2.1935 0
M  V30 7833 H 751.382 -0.984823 1.12346 0
M  V30 7834 H 753.264 -4.13327 0.820918 0
M  V30 7835 H 751.939 -3.23687 0.0293299 0
M  V30 7836 H 750.846 -2.92981 2.32622 0
M  V30 7837 H 752.179 -3.86694 3.04514 0
M  V30 7838 N 753.831 -1.1567 -1.07043 0
M  V30 7839 C 755.077 -0.9349 -1.79965 0
M  V30 7840 C 755.41 0.536464 -1.86643 0
M  V30 7841 O 754.685 1.39781 -1.35247 0
M  V30 7842 C 754.968 -1.55371 -3.24857 0
M  V30 7843 C 754.821 -3.09589 -3.26305 0
M  V30 7844 C 756.14 -1.24209 -4.22209 0
M  V30 7845 H 753.259 -0.341061 -0.653335 0
M  V30 7846 H 755.901 -1.42883 -1.25237 0
M  V30 7847 H 754.051 -1.13368 -3.71591 0
M  V30 7848 H 755.723 -3.60521 -2.87789 0
M  V30 7849 H 753.966 -3.43315 -2.65174 0
M  V30 7850 H 754.637 -3.48002 -4.28484 0
M  V30 7851 H 757.113 -1.60548 -3.8388 0
M  V30 7852 H 755.989 -1.70119 -5.21872 0
M  V30 7853 H 756.25 -0.15964 -4.41812 0
M  V30 7854 N 755.309 1.25446 -0.953992 0
M  V30 7855 C 756.272 2.24156 -0.478179 0
M  V30 7856 C 757.272 1.55278 0.417776 0
M  V30 7857 O 758.462 1.72866 0.215155 0
M  V30 7858 C 755.594 3.39495 0.309202 0
M  V30 7859 H 756.787 2.67764 -1.35064 0
M  V30 7860 H 754.34 1.37822 -0.737206 0
M  V30 7861 H 755.075 3.01307 1.19936 0
M  V30 7862 H 754.86 3.90679 -0.333562 0
M  V30 7863 H 756.35 4.12796 0.631594 0
M  V30 7864 N 756.787 0.722489 1.40064 0
M  V30 7865 C 757.734 0.0743738 2.3068 0
M  V30 7866 C 758.704 -0.743004 1.48555 0
M  V30 7867 O 759.889 -0.705536 1.77276 0
M  V30 7868 C 757.029 -0.836292 3.34814 0
M  V30 7869 C 756.142 -0.00764663 4.31999 0
M  V30 7870 C 755.277 -0.918428 5.232 0
M  V30 7871 C 754.316 -0.0842838 6.12042 0
M  V30 7872 N 753.453 -0.950316 6.95639 0
M  V30 7873 H 758.293 0.852794 2.85537 0
M  V30 7874 H 755.83 0.432222 1.40607 0
M  V30 7875 H 757.788 -1.3786 3.93765 0
M  V30 7876 H 756.418 -1.58082 2.81443 0
M  V30 7877 H 755.47 0.651928 3.74772 0
M  V30 7878 H 756.782 0.63786 4.94705 0
M  V30 7879 H 755.936 -1.52902 5.87116 0
M  V30 7880 H 754.675 -1.59774 4.60786 0
M  V30 7881 H 753.68 0.5392 5.4715 0
M  V30 7882 H 754.905 0.591628 6.76518 0
M  V30 7883 H 752.851 -1.61515 6.35806 0
M  V30 7884 H 752.768 -0.361004 7.55138 0
M  V30 7885 H 754.036 -1.54687 7.63997 0
M  V30 7886 N 758.265 -1.50454 0.469181 0
M  V30 7887 C 759.195 -2.31353 -0.31592 0
M  V30 7888 C 760.176 -1.38172 -0.992094 0
M  V30 7889 O 761.361 -1.67093 -0.989633 0
M  V30 7890 C 758.491 -3.1786 -1.39937 0
M  V30 7891 C 757.445 -4.19578 -0.844909 0
M  V30 7892 C 756.771 -4.9481 -2.0265 0
M  V30 7893 C 758.071 -5.22106 0.142499 0
M  V30 7894 H 759.765 -2.97237 0.359269 0
M  V30 7895 H 757.311 -1.42942 0.174224 0
M  V30 7896 H 759.264 -3.7325 -1.95607 0
M  V30 7897 H 757.988 -2.49858 -2.1033 0
M  V30 7898 H 756.647 -3.65285 -0.310189 0
M  V30 7899 H 756.295 -4.23282 -2.71737 0
M  V30 7900 H 755.995 -5.63613 -1.66174 0
M  V30 7901 H 757.519 -5.53035 -2.58815 0
M  V30 7902 H 758.933 -5.72378 -0.324966 0
M  V30 7903 H 757.33 -5.98618 0.421441 0
M  V30 7904 H 758.4 -4.7297 1.06901 0
M  V30 7905 N 759.743 -0.201713 -1.56304 0
M  V30 7906 C 760.992 0.435557 -1.96941 0
M  V30 7907 C 761.305 1.62299 -1.09172 0
M  V30 7908 O 762.511 2.32849 -1.3962 0
M  V30 7909 C 760.967 0.826298 -3.50286 0
M  V30 7910 C 760.575 -0.337216 -4.46729 0
M  V30 7911 C 762.319 1.43028 -3.99679 0
M  V30 7912 C 760.226 0.0748539 -5.91353 0
M  V30 7913 H 759.156 0.1665 -0.735387 0
M  V30 7914 H 761.807 -0.294781 -1.81117 0
M  V30 7915 H 760.189 1.61349 -3.61639 0
M  V30 7916 H 761.363 -1.11476 -4.47113 0
M  V30 7917 H 759.678 -0.853126 -4.07567 0
M  V30 7918 H 762.275 1.75115 -5.05212 0
M  V30 7919 H 762.618 2.33911 -3.44371 0
M  V30 7920 H 763.151 0.706924 -3.91468 0
M  V30 7921 H 759.89 -0.799957 -6.506 0
M  V30 7922 H 759.41 0.817122 -5.94208 0
M  V30 7923 H 761.089 0.508389 -6.45 0
M  V30 7924 N 761.222 1.57436 0.0718424 0
M  V30 7925 C 762.169 2.03686 1.08539 0
M  V30 7926 C 763.139 0.917474 1.38462 0
M  V30 7927 O 764.324 1.18513 1.4953 0
M  V30 7928 C 761.464 2.48566 2.39393 0
M  V30 7929 C 760.577 3.74122 2.16001 0
M  V30 7930 C 759.712 4.07786 3.40418 0
M  V30 7931 C 758.751 5.26383 3.1239 0
M  V30 7932 N 757.888 5.55685 4.29138 0
M  V30 7933 H 762.728 2.90043 0.684018 0
M  V30 7934 H 760.265 1.43438 0.326183 0
M  V30 7935 H 762.223 2.72639 3.15791 0
M  V30 7936 H 760.853 1.65186 2.77333 0
M  V30 7937 H 759.905 3.57389 1.30296 0
M  V30 7938 H 761.217 4.60659 1.91298 0
M  V30 7939 H 760.371 4.32759 4.25211 0
M  V30 7940 H 759.11 3.19817 3.68197 0
M  V30 7941 H 758.115 5.01206 2.25993 0
M  V30 7942 H 759.34 6.1597 2.85934 0
M  V30 7943 H 757.286 4.70675 4.56948 0
M  V30 7944 H 757.203 6.3664 4.07708 0
M  V30 7945 H 758.471 5.85209 5.14928 0
M  V30 7946 N 762.7 -0.34323 1.53817 0
M  V30 7947 C 763.977 -1.10047 1.61706 0
M  V30 7948 C 764.357 -2.06495 0.438514 0
M  V30 7949 O 763.705 -2.21297 -0.569188 0
M  V30 7950 C 763.915 -1.81985 2.97796 0
M  V30 7951 C 765.263 -2.35717 3.53161 0
M  V30 7952 O 766.287 -1.9208 2.99973 0
M  V30 7953 O 765.146 -3.15551 4.46195 0
M  V30 7954 H 762.24 -0.506096 0.654061 0
M  V30 7955 H 764.786 -0.344697 1.66162 0
M  V30 7956 H 763.558 -1.11722 3.75012 0
M  V30 7957 H 763.181 -2.64419 2.96931 0
M  V30 7958 N 764.178 -1.45556 -0.604258 0
M  V30 7959 C 765.455 -1.40221 -1.36373 0
M  V30 7960 C 765.835 -0.0745195 -2.10968 0
M  V30 7961 O 765.183 0.943594 -2.08107 0
M  V30 7962 C 765.393 -2.61807 -2.30777 0
M  V30 7963 C 766.741 -3.07037 -2.93281 0
M  V30 7964 O 767.765 -2.62203 -2.41097 0
M  V30 7965 O 766.624 -3.8485 -3.88011 0
M  V30 7966 H 763.718 -0.556602 -0.611656 0
M  V30 7967 H 766.264 -1.57689 -0.627069 0
M  V30 7968 H 765.036 -3.50017 -1.74939 0
M  V30 7969 H 764.659 -2.46688 -3.11818 0
M  V30 7970 N 765.656 0.84705 -1.32902 0
M  V30 7971 C 766.903 1.60176 -1.23894 0
M  V30 7972 C 767.231 1.93496 0.197341 0
M  V30 7973 O 766.486 1.58173 1.15238 0
M  V30 7974 C 766.785 2.92663 -2.05142 0
M  V30 7975 C 766.451 2.7874 -3.54422 0
M  V30 7976 C 765.113 2.7465 -3.95121 0
M  V30 7977 C 767.465 2.64128 -4.49317 0
M  V30 7978 C 764.793 2.53837 -5.28946 0
M  V30 7979 C 767.145 2.44849 -5.83294 0
M  V30 7980 C 765.809 2.39156 -6.23186 0
M  V30 7981 H 765.079 0.586127 -0.453361 0
M  V30 7982 H 767.726 0.981994 -1.64405 0
M  V30 7983 H 766.031 3.588 -1.57383 0
M  V30 7984 H 767.728 3.50095 -1.95537 0
M  V30 7985 H 764.318 2.82751 -3.22102 0
M  V30 7986 H 768.502 2.66327 -4.18788 0
M  V30 7987 H 763.758 2.4787 -5.58901 0
M  V30 7988 H 767.932 2.32524 -6.56434 0
M  V30 7989 H 765.559 2.22789 -7.26821 0
M  V30 7990 N 767.134 1.16236 1.06428 0
M  V30 7991 C 768.064 0.890807 2.1584 0
M  V30 7992 C 769.045 -0.162333 1.69324 0
M  V30 7993 O 770.23 -0.0147191 1.94194 0
M  V30 7994 C 767.36 0.389615 3.45108 0
M  V30 7995 C 766.314 1.38051 4.05125 0
M  V30 7996 C 765.64 0.737773 5.29586 0
M  V30 7997 C 766.94 2.74965 4.44062 0
M  V30 7998 H 768.634 1.80577 2.38814 0
M  V30 7999 H 766.18 0.869657 1.14774 0
M  V30 8000 H 768.133 0.187127 4.20984 0
M  V30 8001 H 766.857 -0.560851 3.21748 0
M  V30 8002 H 765.516 1.56952 3.31303 0
M  V30 8003 H 765.164 -0.219135 5.02522 0
M  V30 8004 H 764.864 1.39914 5.70699 0
M  V30 8005 H 766.388 0.545275 6.0816 0
M  V30 8006 H 767.802 2.59855 5.11027 0
M  V30 8007 H 766.199 3.37563 4.96156 0
M  V30 8008 H 767.269 3.30321 3.54987 0
M  V30 8009 N 768.612 -1.24939 0.960631 0
M  V30 8010 C 769.544 -2.24879 0.442937 0
M  V30 8011 C 770.557 -1.56615 -0.444464 0
M  V30 8012 O 771.746 -1.76715 -0.251776 0
M  V30 8013 C 768.846 -3.36757 -0.380537 0
M  V30 8014 C 768.019 -4.34587 0.495283 0
M  V30 8015 C 767.078 -5.25502 -0.270995 0
M  V30 8016 O 766.104 -5.68227 0.332661 0
M  V30 8017 N 767.306 -5.59077 -1.56249 0
M  V30 8018 H 770.071 -2.69932 1.30218 0
M  V30 8019 H 767.632 -1.38907 0.83166 0
M  V30 8020 H 769.624 -3.94542 -0.90103 0
M  V30 8021 H 768.194 -2.91045 -1.14067 0
M  V30 8022 H 767.414 -3.75593 1.19682 0
M  V30 8023 H 768.702 -4.96925 1.09285 0
M  V30 8024 H 768.1 -5.2628 -2.07476 0
M  V30 8025 H 766.657 -6.19421 -2.02882 0
M  V30 8026 N 770.09 -0.729906 -1.39679 0
M  V30 8027 C 771.022 -0.0470588 -2.29152 0
M  V30 8028 C 772.035 0.708808 -1.4656 0
M  V30 8029 O 773.224 0.553815 -1.69691 0
M  V30 8030 C 770.324 0.957612 -3.25089 0
M  V30 8031 C 769.497 0.264321 -4.36601 0
M  V30 8032 C 768.556 1.17638 -5.12882 0
M  V30 8033 O 767.582 0.655777 -5.6541 0
M  V30 8034 N 768.784 2.50649 -5.23598 0
M  V30 8035 H 771.549 -0.815364 -2.88395 0
M  V30 8036 H 769.11 -0.578707 -1.51204 0
M  V30 8037 H 771.102 1.57026 -3.72995 0
M  V30 8038 H 769.672 1.62716 -2.66912 0
M  V30 8039 H 768.892 -0.528732 -3.90638 0
M  V30 8040 H 770.18 -0.216344 -5.0834 0
M  V30 8041 H 769.578 2.95427 -4.82431 0
M  V30 8042 H 768.135 3.07022 -5.74961 0
M  V30 8043 N 771.568 1.50203 -0.477153 0
M  V30 8044 C 772.516 2.30278 0.327826 0
M  V30 8045 C 773.51 1.37831 0.984839 0
M  V30 8046 O 774.716 1.54994 0.915251 0
M  V30 8047 H 771.091 0.741612 0.124564 0
M  V30 8048 H 773.062 2.96124 -0.367853 0
M  V30 8049 C 771.811 3.18548 1.39365 0
M  V30 8050 H 771.134 3.89596 0.897475 0
M  V30 8051 H 772.574 3.77561 1.92934 0
M  V30 8052 C 771.033 2.36548 2.39889 0
M  V30 8053 O 771.563 2.05282 3.45286 0
M  V30 8054 N 769.769 1.99015 2.11758 0
M  V30 8055 H 769.316 2.24641 1.26071 0
M  V30 8056 H 769.274 1.44454 2.7925 0
M  V30 8057 N 773.046 0.209999 1.56195 0
M  V30 8058 C 774.294 -0.423974 1.97603 0
M  V30 8059 C 774.615 -1.61112 1.09854 0
M  V30 8060 O 773.885 -1.95134 0.173032 0
M  V30 8061 H 772.465 -0.159629 0.729745 0
M  V30 8062 H 775.127 0.300205 1.92574 0
M  V30 8063 H 774.223 -0.75809 3.02753 0
M  V30 8064 N 774.524 -1.57472 -0.0634922 0
M  V30 8065 C 775.754 -1.91608 -0.772645 0
M  V30 8066 C 776.162 -0.805019 -1.71219 0
M  V30 8067 O 775.505 0.229941 -1.82255 0
M  V30 8068 C 775.567 -3.21281 -1.61304 0
M  V30 8069 C 775.231 -4.49177 -0.841973 0
M  V30 8070 C 776.228 -5.19661 -0.157494 0
M  V30 8071 C 773.913 -4.9578 -0.80669 0
M  V30 8072 C 775.907 -6.35006 0.551948 0
M  V30 8073 C 773.594 -6.11028 -0.0934812 0
M  V30 8074 C 774.592 -6.80493 0.58463 0
M  V30 8075 O 774.28 -7.93542 1.28633 0
M  V30 8076 H 774.012 -0.637685 -0.224352 0
M  V30 8077 H 776.566 -2.05369 -0.0355279 0
M  V30 8078 H 774.796 -3.03752 -2.39315 0
M  V30 8079 H 776.485 -3.41003 -2.20162 0
M  V30 8080 H 777.251 -4.84681 -0.176006 0
M  V30 8081 H 773.13 -4.41579 -1.32397 0
M  V30 8082 H 776.674 -6.89161 1.0818 0
M  V30 8083 H 772.571 -6.45459 -0.0729258 0
M  V30 8084 H 773.339 -8.09708 1.19646 0
M  V30 8085 N 776.003 0.335068 -1.53997 0
M  V30 8086 C 777.231 1.09418 -1.756 0
M  V30 8087 C 777.646 1.82083 -0.499138 0
M  V30 8088 O 777.003 1.74646 0.529631 0
M  V30 8089 C 777.054 2.10115 -2.94166 0
M  V30 8090 O 776.775 1.40404 -4.14992 0
M  V30 8091 C 778.276 2.98336 -3.27888 0
M  V30 8092 H 775.496 0.32595 -0.586513 0
M  V30 8093 H 778.04 0.384693 -2.00849 0
M  V30 8094 H 776.195 2.76616 -2.71224 0
M  V30 8095 H 776.609 2.07743 -4.81605 0
M  V30 8096 H 778.083 3.6491 -4.1418 0
M  V30 8097 H 778.56 3.64814 -2.44556 0
M  V30 8098 H 779.166 2.37412 -3.52868 0
M  V30 8099 N 777.481 1.45874 0.596531 0
M  V30 8100 C 778.892 1.44798 1.17857 0
M  V30 8101 C 779.243 0.181443 1.95359 0
M  V30 8102 O 778.368 -0.716336 2.042 0
M  V30 8103 C 778.963 2.62333 2.14398 0
M  V30 8104 C 777.522 2.64342 2.67955 0
M  V30 8105 C 776.669 2.37244 1.43564 0
M  V30 8106 H 779.62 1.53954 0.385222 0
M  V30 8107 H 779.641 2.37063 2.97626 0
M  V30 8108 H 779.153 3.54499 1.57963 0
M  V30 8109 H 777.254 1.76213 3.28298 0
M  V30 8110 H 777.367 3.63897 3.11634 0
M  V30 8111 H 775.731 1.87022 1.72901 0
M  V30 8112 H 776.514 3.31568 0.889805 0
M  V30 8113 N 778.959 -0.83999 1.33349 0
M  V30 8114 C 780.189 -1.62492 1.27593 0
M  V30 8115 C 780.597 -1.88559 -0.155597 0
M  V30 8116 O 779.94 -1.46537 -1.10782 0
M  V30 8117 C 780.002 -2.99984 1.98116 0
M  V30 8118 C 779.666 -2.96892 3.47425 0
M  V30 8119 C 780.663 -2.72688 4.42648 0
M  V30 8120 C 778.348 -3.17063 3.89585 0
M  V30 8121 C 780.342 -2.68681 5.78004 0
M  V30 8122 C 778.029 -3.12682 5.25046 0
M  V30 8123 C 779.027 -2.88522 6.19067 0
M  V30 8124 O 778.715 -2.84042 7.52047 0
M  V30 8125 H 778.447 -0.512358 0.440982 0
M  V30 8126 H 781.001 -1.0545 1.76265 0
M  V30 8127 H 779.231 -3.58875 1.44034 0
M  V30 8128 H 780.92 -3.6084 1.85875 0
M  V30 8129 H 781.686 -2.56856 4.114 0
M  V30 8130 H 777.565 -3.34889 3.16813 0
M  V30 8131 H 781.109 -2.49743 6.51363 0
M  V30 8132 H 777.006 -3.28063 5.55918 0
M  V30 8133 H 777.774 -2.99892 7.61582 0
M  V30 8134 N 780.437 -1.16799 -1.0581 0
M  V30 8135 C 781.714 -0.862616 -1.75551 0
M  V30 8136 C 782.094 0.6385 -2.01212 0
M  V30 8137 O 781.442 1.58784 -1.64317 0
M  V30 8138 C 781.652 -1.6907 -3.05314 0
M  V30 8139 C 783 -1.90675 -3.79379 0
M  V30 8140 O 784.024 -1.65976 -3.15167 0
M  V30 8141 O 782.883 -2.32145 -4.94743 0
M  V30 8142 H 779.977 -0.318789 -0.763088 0
M  V30 8143 H 782.523 -1.27461 -1.12034 0
M  V30 8144 H 781.295 -2.70912 -2.82352 0
M  V30 8145 H 780.918 -1.27606 -3.76567 0
M  V30 8146 N 781.915 1.24427 -0.967243 0
M  V30 8147 C 783.331 1.44684 -0.6737 0
M  V30 8148 C 783.531 1.86429 0.764625 0
M  V30 8149 O 782.587 2.00211 1.53857 0
M  V30 8150 C 783.9 2.509 -1.6574 0
M  V30 8151 C 785.448 2.64728 -1.66998 0
M  V30 8152 C 785.923 3.7414 -2.64165 0
M  V30 8153 N 787.414 3.81567 -2.62604 0
M  V30 8154 C 788.149 4.6575 -3.34462 0
M  V30 8155 N 787.645 5.54124 -4.15835 0
M  V30 8156 N 789.438 4.59827 -3.23288 0
M  V30 8157 H 781.589 0.956276 -1.89655 0
M  V30 8158 H 783.852 0.48171 -0.816492 0
M  V30 8159 H 783.558 2.27113 -2.68538 0
M  V30 8160 H 783.432 3.4905 -1.42981 0
M  V30 8161 H 785.819 2.87872 -0.649121 0
M  V30 8162 H 785.9 1.66936 -1.93819 0
M  V30 8163 H 785.544 3.51745 -3.66384 0
M  V30 8164 H 785.474 4.71444 -2.34623 0
M  V30 8165 H 787.965 3.18403 -2.03539 0
M  V30 8166 H 788.278 6.15316 -4.67553 0
M  V30 8167 H 786.623 5.53791 -4.19929 0
M  V30 8168 H 789.814 3.898 -2.59179 0
M  V30 8169 H 789.987 5.25208 -3.79553 0
M  V30 8170 N 783.393 0.737304 1.3929 0
M  V30 8171 C 784.64 0.286257 2.00467 0
M  V30 8172 C 784.968 -1.1272 1.58507 0
M  V30 8173 O 784.223 -1.7832 0.806257 0
M  V30 8174 C 784.522 0.338438 3.55794 0
M  V30 8175 C 784.188 1.70524 4.17411 0
M  V30 8176 C 782.85 2.07934 4.33955 0
M  V30 8177 C 785.202 2.60256 4.51571 0
M  V30 8178 C 782.53 3.34578 4.81948 0
M  V30 8179 C 784.882 3.86275 5.00974 0
M  V30 8180 C 783.546 4.23774 5.15725 0
M  V30 8181 H 782.816 0.104749 0.733559 0
M  V30 8182 H 785.463 0.944598 1.66582 0
M  V30 8183 H 783.768 -0.403478 3.89717 0
M  V30 8184 H 785.465 -0.0287255 4.0099 0
M  V30 8185 H 782.055 1.40439 4.04938 0
M  V30 8186 H 786.239 2.32624 4.38406 0
M  V30 8187 H 781.495 3.63572 4.91554 0
M  V30 8188 H 785.669 4.5596 5.26378 0
M  V30 8189 H 783.296 5.21972 5.52674 0
M  V30 8190 N 784.871 -1.49948 0.485112 0
M  V30 8191 C 786.111 -2.04301 -0.0635728 0
M  V30 8192 C 786.475 -1.35804 -1.35725 0
M  V30 8193 O 787.676 -1.80789 -1.98919 0
M  V30 8194 C 785.947 -3.56666 -0.228962 0
M  V30 8195 S 787.506 -4.32614 -0.734185 0
M  V30 8196 H 784.324 -0.710939 -0.00931895 0
M  V30 8197 H 786.926 -1.84185 0.655455 0
M  V30 8198 H 785.63 -4.04068 0.718148 0
M  V30 8199 H 785.161 -3.8116 -0.973696 0
M  V30 8200 H 787.176 -4.53859 -2.00565 0
M  V30 8201 N 786.349 -0.21828 -1.56081 0
M  V30 8202 C 787.76 0.290166 -1.84431 0
M  V30 8203 C 788.111 1.59712 -1.13958 0
M  V30 8204 O 787.236 2.12516 -0.40815 0
M  V30 8205 C 787.831 0.53325 -3.34577 0
M  V30 8206 C 786.39 0.986011 -3.63256 0
M  V30 8207 C 785.537 0.0472798 -2.7726 0
M  V30 8208 H 788.488 -0.441548 -1.52434 0
M  V30 8209 H 788.509 1.37967 -3.54606 0
M  V30 8210 H 788.021 -0.418137 -3.85841 0
M  V30 8211 H 786.122 1.95087 -3.17446 0
M  V30 8212 H 786.235 0.862684 -4.71269 0
M  V30 8213 H 784.599 0.553471 -2.48614 0
M  V30 8214 H 785.382 -0.898966 -3.31321 0
M  V30 8215 N 787.827 1.57504 0.0551401 0
M  V30 8216 C 789.074 1.88055 0.751104 0
M  V30 8217 C 789.402 0.812231 1.76729 0
M  V30 8218 O 788.657 -0.189918 1.94776 0
M  V30 8219 C 788.956 3.25311 1.48013 0
M  V30 8220 C 788.622 4.46858 0.602375 0
M  V30 8221 C 787.284 4.79847 0.360536 0
M  V30 8222 C 789.636 5.212 -0.00524047 0
M  V30 8223 C 786.964 5.84582 -0.498127 0
M  V30 8224 C 789.316 6.26844 -0.851453 0
M  V30 8225 C 787.98 6.58324 -1.103 0
M  V30 8226 H 787.25 0.688142 0.274848 0
M  V30 8227 H 789.897 1.91497 0.0114795 0
M  V30 8228 H 788.202 3.17737 2.29239 0
M  V30 8229 H 789.899 3.46189 2.02371 0
M  V30 8230 H 786.489 4.21049 0.801007 0
M  V30 8231 H 790.673 4.96013 0.168682 0
M  V30 8232 H 785.929 6.07361 -0.701594 0
M  V30 8233 H 790.103 6.83603 -1.32893 0
M  V30 8234 H 787.73 7.39304 -1.77011 0
M  V30 8235 N 789.305 -0.326896 1.54172 0
M  V30 8236 C 790.535 -1.08328 1.75922 0
M  V30 8237 C 790.943 -1.82302 0.50622 0
M  V30 8238 O 790.286 -1.7581 -0.532581 0
M  V30 8239 C 790.348 -2.1294 2.8965 0
M  V30 8240 C 790.012 -1.58394 4.28673 0
M  V30 8241 C 791.009 -1.02747 5.09646 0
M  V30 8242 C 788.694 -1.62737 4.75207 0
M  V30 8243 C 790.688 -0.52169 6.35261 0
M  V30 8244 C 788.375 -1.11772 6.00791 0
M  V30 8245 C 789.373 -0.565819 6.80652 0
M  V30 8246 O 789.061 -0.0638146 8.03875 0
M  V30 8247 H 788.793 -0.3282 0.590983 0
M  V30 8248 H 791.347 -0.37972 2.0186 0
M  V30 8249 H 789.577 -2.86903 2.59275 0
M  V30 8250 H 791.266 -2.74274 2.99213 0
M  V30 8251 H 792.032 -0.987007 4.74851 0
M  V30 8252 H 787.911 -2.04635 4.13093 0
M  V30 8253 H 791.455 -0.0902544 6.97542 0
M  V30 8254 H 787.352 -1.15524 6.35078 0
M  V30 8255 H 788.12 -0.17955 8.18303 0
M  V30 8256 N 790.784 -1.46188 -0.588786 0
M  V30 8257 C 791.731 -1.56292 -1.69828 0
M  V30 8258 C 792.701 -0.407581 -1.61022 0
M  V30 8259 O 793.886 -0.623532 -1.80324 0
M  V30 8260 C 791.026 -1.55341 -3.08161 0
M  V30 8261 C 790.139 -2.81564 -3.27636 0
M  V30 8262 C 789.274 -2.72158 -4.56183 0
M  V30 8263 C 788.313 -3.93348 -4.68981 0
M  V30 8264 N 787.45 -3.82365 -5.88848 0
M  V30 8265 H 792.29 -2.51066 -1.6053 0
M  V30 8266 H 789.827 -1.24562 -0.782474 0
M  V30 8267 H 791.785 -1.52776 -3.88221 0
M  V30 8268 H 790.415 -0.641034 -3.16371 0
M  V30 8269 H 789.467 -2.94136 -2.41223 0
M  V30 8270 H 790.779 -3.714 -3.32962 0
M  V30 8271 H 789.933 -2.67665 -5.44464 0
M  V30 8272 H 788.672 -1.79953 -4.53286 0
M  V30 8273 H 787.677 -3.98181 -3.7912 0
M  V30 8274 H 788.902 -4.86643 -4.73662 0
M  V30 8275 H 786.848 -2.92942 -5.86959 0
M  V30 8276 H 786.765 -4.65851 -5.95415 0
M  V30 8277 H 788.033 -3.81836 -6.79575 0
M  V30 8278 N 792.262 0.832906 -1.33792 0
M  V30 8279 C 793.49 1.62048 -1.28639 0
M  V30 8280 C 793.905 1.88269 0.141522 0
M  V30 8281 O 793.262 1.46706 1.08553 0
M  V30 8282 C 793.313 2.96722 -2.0649 0
M  V30 8283 O 793.034 2.7165 -3.43712 0
M  V30 8284 C 794.535 3.91144 -2.08617 0
M  V30 8285 H 791.755 0.504032 -0.442937 0
M  V30 8286 H 794.299 1.03704 -1.76255 0
M  V30 8287 H 792.454 3.51652 -1.62541 0
M  V30 8288 H 792.868 3.57453 -3.83833 0
M  V30 8289 H 794.342 4.82837 -2.67531 0
M  V30 8290 H 794.819 4.25766 -1.07796 0
M  V30 8291 H 795.425 3.42152 -2.52611 0
M  V30 8292 N 793.74 1.17359 1.05189 0
M  V30 8293 C 794.986 0.963413 1.78455 0
M  V30 8294 C 795.319 -0.506703 1.87473 0
M  V30 8295 O 794.594 -1.37611 1.37453 0
M  V30 8296 C 794.877 1.60519 3.22344 0
M  V30 8297 C 794.73 3.14741 3.21338 0
M  V30 8298 C 796.049 1.3091 4.20179 0
M  V30 8299 H 793.168 0.351412 0.647826 0
M  V30 8300 H 795.81 1.44858 1.22948 0
M  V30 8301 H 793.96 1.19265 3.69741 0
M  V30 8302 H 795.632 3.65053 2.82017 0
M  V30 8303 H 793.875 3.4749 2.59679 0
M  V30 8304 H 794.546 3.54775 4.22894 0
M  V30 8305 H 797.022 1.66635 3.81277 0
M  V30 8306 H 795.898 1.784 5.191 0
M  V30 8307 H 796.159 0.229908 4.41502 0
M  V30 8308 N 795.218 -1.23913 0.973828 0
M  V30 8309 C 796.466 -1.91771 0.637817 0
M  V30 8310 C 796.787 -1.76434 -0.830435 0
M  V30 8311 O 796.057 -1.13965 -1.59339 0
M  V30 8312 H 794.637 -0.709761 0.232912 0
M  V30 8313 H 797.299 -1.50677 1.23622 0
M  V30 8314 H 796.395 -2.99327 0.883731 0
M  V30 8315 N 796.696 -0.74468 -1.38897 0
M  V30 8316 C 797.629 -0.0596441 -2.28122 0
M  V30 8317 C 798.607 0.73764 -1.44906 0
M  V30 8318 O 799.791 0.718155 -1.74284 0
M  V30 8319 C 796.918 0.922533 -3.25894 0
M  V30 8320 C 795.964 0.212566 -4.2597 0
M  V30 8321 S 796.797 -1.08035 -5.24489 0
M  V30 8322 C 797.953 -0.101014 -6.25818 0
M  V30 8323 H 798.186 -0.816289 -2.85874 0
M  V30 8324 H 795.719 -0.536882 -1.44765 0
M  V30 8325 H 797.677 1.4839 -3.82741 0
M  V30 8326 H 796.338 1.65209 -2.67142 0
M  V30 8327 H 795.531 0.956106 -4.94848 0
M  V30 8328 H 795.133 -0.277029 -3.72973 0
M  V30 8329 H 797.425 0.736072 -6.7349 0
M  V30 8330 H 798.368 -0.757206 -7.0404 0
M  V30 8331 H 798.776 0.275706 -5.63826 0
M  V30 8332 N 798.174 1.49689 -0.493057 0
M  V30 8333 C 799.104 2.31826 0.279073 0
M  V30 8334 C 800.085 1.39733 0.969987 0
M  V30 8335 O 801.27 1.68646 0.962925 0
M  V30 8336 C 798.4 3.20046 1.34862 0
M  V30 8337 C 797.354 4.20869 0.77805 0
M  V30 8338 C 796.68 4.97971 1.94753 0
M  V30 8339 C 797.98 5.21813 -0.225543 0
M  V30 8340 H 799.674 2.96627 -0.406512 0
M  V30 8341 H 797.22 1.42647 -0.196943 0
M  V30 8342 H 799.173 3.76315 1.89645 0
M  V30 8343 H 797.897 2.53172 2.06328 0
M  V30 8344 H 796.556 3.65733 0.252036 0
M  V30 8345 H 796.204 4.27552 2.64969 0
M  V30 8346 H 795.904 5.66186 1.57187 0
M  V30 8347 H 797.428 5.57082 2.49984 0
M  V30 8348 H 798.842 5.72823 0.233864 0
M  V30 8349 H 797.239 5.97872 -0.516622 0
M  V30 8350 H 798.309 4.71209 -1.14412 0
M  V30 8351 N 799.652 0.226554 1.55963 0
M  V30 8352 C 800.877 -0.411527 2.03276 0
M  V30 8353 C 801.302 -1.52206 1.10521 0
M  V30 8354 O 800.66 -1.81054 0.0943217 0
M  V30 8355 C 800.708 -0.915694 3.4878 0
M  V30 8356 O 799.812 -2.02672 3.59163 0
M  V30 8357 H 799.153 -0.0924907 0.657527 0
M  V30 8358 H 801.683 0.346656 2.01642 0
M  V30 8359 H 801.693 -1.22421 3.892 0
M  V30 8360 H 800.368 -0.102915 4.15773 0
M  V30 8361 H 798.945 -1.72445 3.30632 0
M  V30 8362 N 801.13 -1.57531 -0.0467866 0
M  V30 8363 C 802.078 -2.06455 -1.0714 0
M  V30 8364 C 803.072 -0.974744 -1.38546 0
M  V30 8365 O 804.278 -1.15974 -1.37659 0
M  V30 8366 H 800.653 -0.658607 -0.362962 0
M  V30 8367 H 802.624 -2.91613 -0.632813 0
M  V30 8368 C 801.373 -2.54481 -2.36927 0
M  V30 8369 H 800.696 -3.37946 -2.13617 0
M  V30 8370 H 802.136 -2.92442 -3.07007 0
M  V30 8371 C 800.595 -1.43836 -3.04652 0
M  V30 8372 O 801.125 -0.794531 -3.93764 0
M  V30 8373 N 799.331 -1.17727 -2.65686 0
M  V30 8374 H 798.878 -1.70265 -1.93307 0
M  V30 8375 H 798.836 -0.439051 -3.11319 0
M  V30 8376 N 802.608 0.318715 -1.54344 0
M  V30 8377 C 803.541 1.41644 -1.7892 0
M  V30 8378 C 804.519 1.495 -0.639421 0
M  V30 8379 O 805.703 1.66835 -0.877404 0
M  V30 8380 C 802.83 2.79701 -1.9101 0
M  V30 8381 C 801.876 2.89354 -3.13331 0
M  V30 8382 S 802.709 2.53264 -4.71824 0
M  V30 8383 C 803.865 3.93384 -4.86826 0
M  V30 8384 H 804.098 1.20585 -2.71747 0
M  V30 8385 H 801.631 0.515828 -1.45529 0
M  V30 8386 H 803.589 3.59227 -1.98661 0
M  V30 8387 H 802.25 2.9804 -0.991516 0
M  V30 8388 H 801.443 3.90574 -3.1854 0
M  V30 8389 H 801.045 2.17805 -3.04035 0
M  V30 8390 H 803.337 4.88191 -4.69761 0
M  V30 8391 H 804.28 3.93156 -5.88926 0
M  V30 8392 H 804.688 3.82564 -4.15097 0
M  V30 8393 N 804.086 1.46499 0.581025 0
M  V30 8394 C 805.335 1.51162 1.3354 0
M  V30 8395 C 805.648 0.168433 1.94873 0
M  V30 8396 O 806.854 0.092883 2.71341 0
M  V30 8397 C 805.31 2.66362 2.42032 0
M  V30 8398 C 804.918 4.07109 1.86994 0
M  V30 8399 C 806.662 2.80297 3.188 0
M  V30 8400 C 804.569 5.13645 2.93125 0
M  V30 8401 H 803.499 0.562576 0.502021 0
M  V30 8402 H 806.15 1.72713 0.619863 0
M  V30 8403 H 804.532 2.38143 3.16392 0
M  V30 8404 H 805.706 4.45125 1.19166 0
M  V30 8405 H 804.021 3.97854 1.22887 0
M  V30 8406 H 806.618 3.5706 3.9801 0
M  V30 8407 H 806.961 1.87875 3.71495 0
M  V30 8408 H 807.494 3.0817 2.51547 0
M  V30 8409 H 804.233 6.07866 2.45315 0
M  V30 8410 H 803.753 4.80172 3.59437 0
M  V30 8411 H 805.432 5.39562 3.57046 0
M  V30 8412 N 805.565 -0.825799 1.34232 0
M  V30 8413 C 806.528 -1.91808 1.25468 0
M  V30 8414 C 807.528 -1.59893 0.170567 0
M  V30 8415 O 808.718 -1.68986 0.422996 0
M  V30 8416 C 805.85 -3.27786 0.93644 0
M  V30 8417 H 807.043 -2.01003 2.22571 0
M  V30 8418 H 804.596 -1.01944 1.18479 0
M  V30 8419 H 805.331 -3.24285 -0.0315408 0
M  V30 8420 H 805.116 -3.52333 1.72057 0
M  V30 8421 H 806.606 -4.07782 0.900214 0
M  V30 8422 N 807.043 -1.17915 -1.04565 0
M  V30 8423 C 808.29 -0.971424 -1.77678 0
M  V30 8424 C 808.618 0.499401 -1.87979 0
M  V30 8425 O 807.873 1.38695 -1.38066 0
M  V30 8426 C 808.172 -1.56528 -3.213 0
M  V30 8427 C 807.838 -3.06138 -3.31044 0
M  V30 8428 C 806.5 -3.46974 -3.33411 0
M  V30 8429 C 808.852 -4.02151 -3.31548 0
M  V30 8430 C 806.18 -4.82406 -3.33918 0
M  V30 8431 C 808.532 -5.37492 -3.33595 0
M  V30 8432 C 807.196 -5.77782 -3.34251 0
M  V30 8433 H 806.466 -0.355469 -0.650171 0
M  V30 8434 H 809.113 -1.46902 -1.22849 0
M  V30 8435 H 807.418 -0.98955 -3.79098 0
M  V30 8436 H 809.115 -1.38003 -3.76505 0
M  V30 8437 H 805.705 -2.73589 -3.29919 0
M  V30 8438 H 809.889 -3.71656 -3.28916 0
M  V30 8439 H 805.145 -5.12927 -3.3274 0
M  V30 8440 H 809.319 -6.1166 -3.32934 0
M  V30 8441 H 806.946 -6.82702 -3.34397 0
M  V30 8442 N 808.521 1.23394 -0.980386 0
M  V30 8443 C 809.751 1.9556 -0.666319 0
M  V30 8444 C 810.159 1.72786 0.770815 0
M  V30 8445 O 809.502 1.0162 1.53033 0
M  V30 8446 C 809.564 3.48643 -0.876825 0
M  V30 8447 C 809.228 3.95135 -2.29602 0
M  V30 8448 C 810.225 4.03806 -3.2747 0
M  V30 8449 C 807.91 4.28122 -2.62711 0
M  V30 8450 C 809.904 4.44818 -4.56526 0
M  V30 8451 C 807.591 4.68814 -3.9199 0
M  V30 8452 C 808.589 4.77129 -4.88709 0
M  V30 8453 O 808.277 5.16908 -6.15679 0
M  V30 8454 H 808.009 0.629422 -0.246585 0
M  V30 8455 H 810.563 1.57839 -1.31438 0
M  V30 8456 H 808.793 3.86319 -0.171587 0
M  V30 8457 H 810.482 4.0202 -0.55992 0
M  V30 8458 H 811.248 3.78526 -3.03222 0
M  V30 8459 H 807.127 4.20861 -1.8814 0
M  V30 8460 H 810.671 4.51223 -5.32018 0
M  V30 8461 H 806.568 4.93545 -4.16033 0
M  V30 8462 H 807.336 5.3502 -6.19432 0
M  V30 8463 N 809.999 0.752036 1.385 0
M  V30 8464 C 811.276 0.233075 1.94206 0
M  V30 8465 C 811.656 -1.26838 1.68746 0
M  V30 8466 O 811.004 -2.04214 1.02513 0
M  V30 8467 C 811.214 0.58509 3.44061 0
M  V30 8468 C 812.562 0.543871 4.21102 0
M  V30 8469 O 813.586 0.523291 3.52335 0
M  V30 8470 O 812.445 0.553436 5.4369 0
M  V30 8471 H 809.539 0.0483049 0.825588 0
M  V30 8472 H 812.085 0.832053 1.47902 0
M  V30 8473 H 810.857 1.62212 3.56094 0
M  V30 8474 H 810.48 -0.0419738 3.97578 0
M  V30 8475 N 811.477 -1.49425 0.500989 0
M  V30 8476 C 812.41 -2.25887 -0.324087 0
M  V30 8477 C 813.388 -1.30469 -0.970388 0
M  V30 8478 O 814.572 -1.59758 -1.00049 0
M  V30 8479 C 811.699 -3.05787 -1.45643 0
M  V30 8480 C 810.745 -4.16359 -0.924508 0
M  V30 8481 S 811.578 -5.35181 0.184707 0
M  V30 8482 C 812.734 -6.18636 -0.950806 0
M  V30 8483 H 812.967 -2.95519 0.324891 0
M  V30 8484 H 810.5 -1.51723 0.286289 0
M  V30 8485 H 812.458 -3.52405 -2.10525 0
M  V30 8486 H 811.119 -2.35624 -2.07703 0
M  V30 8487 H 810.312 -4.71781 -1.77311 0
M  V30 8488 H 809.914 -3.72331 -0.352907 0
M  V30 8489 H 812.206 -6.51581 -1.85603 0
M  V30 8490 H 813.149 -7.06761 -0.435212 0
M  V30 8491 H 813.557 -5.512 -1.21813 0
M  V30 8492 N 812.955 -0.234822 -1.55841 0
M  V30 8493 C 813.918 0.656378 -2.196 0
M  V30 8494 C 814.918 1.11179 -1.16171 0
M  V30 8495 O 816.108 1.01845 -1.41326 0
M  V30 8496 C 813.24 1.90072 -2.82993 0
M  V30 8497 H 814.433 0.100281 -2.99732 0
M  V30 8498 H 811.986 0.0147613 -1.56293 0
M  V30 8499 H 812.721 2.49836 -2.06767 0
M  V30 8500 H 812.506 1.5825 -3.58747 0
M  V30 8501 H 813.996 2.53538 -3.31826 0
M  V30 8502 N 814.433 1.57553 0.0384317 0
M  V30 8503 C 815.849 1.54663 0.39391 0
M  V30 8504 C 816.049 0.959685 1.77179 0
M  V30 8505 O 815.105 0.576647 2.45827 0
M  V30 8506 C 816.418 2.99156 0.304352 0
M  V30 8507 C 817.966 3.10659 0.382119 0
M  V30 8508 C 818.441 4.56866 0.322111 0
M  V30 8509 N 819.932 4.61629 0.38119 0
M  V30 8510 C 820.667 5.72284 0.357501 0
M  V30 8511 N 820.163 6.92207 0.286654 0
M  V30 8512 N 821.956 5.60628 0.406538 0
M  V30 8513 H 814.107 1.9406 -0.86339 0
M  V30 8514 H 816.37 0.889673 -0.327392 0
M  V30 8515 H 816.076 3.45788 -0.642141 0
M  V30 8516 H 815.95 3.60753 1.10168 0
M  V30 8517 H 818.337 2.6398 1.31904 0
M  V30 8518 H 818.418 2.5191 -0.444391 0
M  V30 8519 H 818.062 5.0421 -0.611104 0
M  V30 8520 H 817.992 5.13515 1.1666 0
M  V30 8521 H 820.483 3.75343 0.438838 0
M  V30 8522 H 820.796 7.72316 0.273421 0
M  V30 8523 H 819.141 6.9454 0.252841 0
M  V30 8524 H 822.332 4.65836 0.459812 0
M  V30 8525 H 822.505 6.46858 0.384608 0
M  V30 8526 N 815.911 -0.310526 1.54511 0
M  V30 8527 C 817.327 -0.655637 1.45511 0
M  V30 8528 C 817.527 -1.91114 0.638564 0
M  V30 8529 O 816.583 -2.52098 0.142497 0
M  V30 8530 C 817.896 -0.817501 2.89374 0
M  V30 8531 C 819.444 -0.914003 2.99358 0
M  V30 8532 C 819.919 -1.10794 4.44397 0
M  V30 8533 N 821.41 -1.17437 4.48066 0
M  V30 8534 C 822.145 -1.34255 5.57461 0
M  V30 8535 N 821.641 -1.48032 6.768 0
M  V30 8536 N 823.434 -1.37067 5.45132 0
M  V30 8537 H 815.585 0.514506 2.06074 0
M  V30 8538 H 817.848 0.168478 0.932909 0
M  V30 8539 H 817.554 0.034003 3.51684 0
M  V30 8540 H 817.428 -1.7094 3.36243 0
M  V30 8541 H 819.815 -1.756 2.37168 0
M  V30 8542 H 819.896 0.00170958 2.558 0
M  V30 8543 H 819.54 -0.270743 5.07178 0
M  V30 8544 H 819.47 -2.03773 4.85576 0
M  V30 8545 H 821.961 -1.08181 3.62084 0
M  V30 8546 H 822.274 -1.60593 7.5593 0
M  V30 8547 H 820.619 -1.45105 6.79683 0
M  V30 8548 H 823.81 -1.25909 4.50849 0
M  V30 8549 H 823.983 -1.49831 6.3044 0
M  V30 8550 N 817.389 -1.46805 -0.573248 0
M  V30 8551 C 818.352 -1.57655 -1.66366 0
M  V30 8552 C 819.352 -0.452905 -1.5429 0
M  V30 8553 O 820.542 -0.717502 -1.58737 0
M  V30 8554 C 817.674 -1.50584 -3.05839 0
M  V30 8555 H 818.867 -2.54842 -1.581 0
M  V30 8556 H 816.42 -1.34756 -0.791868 0
M  V30 8557 H 817.155 -0.547127 -3.19651 0
M  V30 8558 H 816.94 -2.32118 -3.16012 0
M  V30 8559 H 818.43 -1.61282 -3.85199 0
M  V30 8560 N 818.867 0.818669 -1.34668 0
M  V30 8561 C 820.113 1.57746 -1.27453 0
M  V30 8562 C 820.446 1.93588 0.154077 0
M  V30 8563 O 819.721 1.60371 1.10051 0
M  V30 8564 C 820.004 2.87414 -2.16945 0
M  V30 8565 C 819.857 2.58125 -3.68363 0
M  V30 8566 C 821.176 3.89021 -2.05792 0
M  V30 8567 H 818.295 0.572339 -0.464324 0
M  V30 8568 H 820.937 0.942784 -1.64959 0
M  V30 8569 H 819.087 3.41576 -1.85089 0
M  V30 8570 H 820.759 2.10239 -4.10606 0
M  V30 8571 H 819.002 1.91503 -3.89242 0
M  V30 8572 H 819.673 3.5061 -4.26353 0
M  V30 8573 H 822.149 3.44224 -2.33771 0
M  V30 8574 H 821.025 4.77548 -2.70628 0
M  V30 8575 H 821.286 4.29786 -1.03618 0
M  V30 8576 N 820.346 1.18468 1.03938 0
M  V30 8577 C 821.256 0.927889 2.1547 0
M  V30 8578 C 822.272 -0.108447 1.73662 0
M  V30 8579 O 823.448 0.0737636 2.01265 0
M  V30 8580 C 820.513 0.458494 3.43655 0
M  V30 8581 C 819.574 1.56295 3.99838 0
M  V30 8582 C 818.807 1.11586 5.21904 0
M  V30 8583 O 819.03 -0.0249057 5.70395 0
M  V30 8584 O 817.964 1.91412 5.70653 0
M  V30 8585 H 821.79 1.86116 2.39989 0
M  V30 8586 H 819.375 0.966607 1.13917 0
M  V30 8587 H 821.257 0.204861 4.20902 0
M  V30 8588 H 819.932 -0.446464 3.20606 0
M  V30 8589 H 818.839 1.87061 3.23974 0
M  V30 8590 H 820.172 2.44408 4.2723 0
M  V30 8591 N 821.824 -1.22873 0.986916 0
M  V30 8592 C 823.052 -1.95487 0.677663 0
M  V30 8593 C 823.467 -1.72978 -0.756572 0
M  V30 8594 O 822.824 -1.02517 -1.50985 0
M  V30 8595 C 822.875 -3.48337 0.966638 0
M  V30 8596 O 822.596 -3.70087 2.34451 0
M  V30 8597 C 824.097 -4.38142 0.674248 0
M  V30 8598 H 821.317 -0.622211 0.251185 0
M  V30 8599 H 823.861 -1.56187 1.32007 0
M  V30 8600 H 822.016 -3.85628 0.370137 0
M  V30 8601 H 822.43 -4.64332 2.43918 0
M  V30 8602 H 823.904 -5.44165 0.926759 0
M  V30 8603 H 824.381 -4.3745 -0.391728 0
M  V30 8604 H 824.987 -4.06469 1.25152 0
M  V30 8605 N 823.302 -0.75937 -1.38099 0
M  V30 8606 C 824.53 -0.329111 -2.04266 0
M  V30 8607 C 824.945 1.04453 -1.57274 0
M  V30 8608 O 824.302 1.66449 -0.748397 0
M  V30 8609 C 824.353 -0.349192 -3.5981 0
M  V30 8610 O 824.074 -1.66863 -4.05078 0
M  V30 8611 C 825.575 0.0942106 -4.432 0
M  V30 8612 H 822.795 -0.13971 -0.656294 0
M  V30 8613 H 825.339 -1.02984 -1.76677 0
M  V30 8614 H 823.494 0.302846 -3.86214 0
M  V30 8615 H 823.908 -1.59877 -4.9954 0
M  V30 8616 H 825.382 0.0290004 -5.51992 0
M  V30 8617 H 825.859 1.1429 -4.24069 0
M  V30 8618 H 826.465 -0.529171 -4.21995 0
M  V30 8619 N 824.78 1.49157 -0.508906 0
M  V30 8620 C 825.743 2.27784 0.25434 0
M  V30 8621 C 826.743 1.34132 0.88686 0
M  V30 8622 O 827.933 1.5722 0.750168 0
M  V30 8623 C 825.065 3.12347 1.36573 0
M  V30 8624 H 826.258 2.96718 -0.435714 0
M  V30 8625 H 823.811 1.54052 -0.264128 0
M  V30 8626 H 824.546 2.47997 2.08969 0
M  V30 8627 H 824.331 3.81213 0.917543 0
M  V30 8628 H 825.821 3.71712 1.90315 0
M  V30 8629 N 826.258 0.243083 1.55714 0
M  V30 8630 C 827.19 -0.690766 2.18543 0
M  V30 8631 C 828.203 -1.14163 1.16064 0
M  V30 8632 O 829.392 -1.06906 1.42946 0
M  V30 8633 C 826.492 -1.95016 2.77168 0
M  V30 8634 C 825.665 -1.65137 4.05029 0
M  V30 8635 C 824.724 -2.75998 4.48009 0
M  V30 8636 O 823.75 -2.43547 5.14464 0
M  V30 8637 N 824.952 -4.05414 4.15476 0
M  V30 8638 H 827.717 -0.153203 2.99308 0
M  V30 8639 H 825.278 0.0628968 1.61778 0
M  V30 8640 H 827.27 -2.68414 3.0288 0
M  V30 8641 H 825.84 -2.39762 2.00582 0
M  V30 8642 H 825.06 -0.752768 3.86946 0
M  V30 8643 H 826.348 -1.42633 4.88399 0
M  V30 8644 H 825.746 -4.34613 3.62116 0
M  V30 8645 H 824.303 -4.75288 4.46032 0
M  V30 8646 N 827.736 -1.57571 -0.0300757 0
M  V30 8647 C 828.961 -1.93879 -0.736601 0
M  V30 8648 C 829.386 -0.842998 -1.68152 0
M  V30 8649 O 828.744 0.20135 -1.80178 0
M  V30 8650 C 828.792 -3.29247 -1.47066 0
M  V30 8651 O 827.896 -3.21426 -2.58378 0
M  V30 8652 H 827.237 -0.633735 -0.198181 0
M  V30 8653 H 829.767 -2.04595 0.0141485 0
M  V30 8654 H 829.777 -3.64113 -1.84081 0
M  V30 8655 H 828.452 -4.08565 -0.77764 0
M  V30 8656 H 827.029 -2.98189 -2.23914 0
M  V30 8657 N 829.214 0.302327 -1.54673 0
M  V30 8658 C 830.491 1.05721 -1.64567 0
M  V30 8659 C 830.871 2.0526 -0.493108 0
M  V30 8660 O 830.219 2.22729 0.510315 0
M  V30 8661 C 830.429 1.74025 -3.02517 0
M  V30 8662 C 831.777 2.26271 -3.59286 0
M  V30 8663 O 832.801 1.8406 -3.0496 0
M  V30 8664 O 831.66 3.0361 -4.54404 0
M  V30 8665 H 828.754 0.488577 -0.667249 0
M  V30 8666 H 831.3 0.300521 -1.67018 0
M  V30 8667 H 830.072 1.0174 -3.77842 0
M  V30 8668 H 829.695 2.56454 -3.03838 0
M  V30 8669 N 830.692 1.47107 0.565454 0
M  V30 8670 C 831.64 1.59368 1.69424 0
M  V30 8671 C 832.634 0.461344 1.62997 0
M  V30 8672 O 833.84 0.638849 1.68282 0
M  V30 8673 H 830.215 0.501387 0.560459 0
M  V30 8674 H 832.186 2.54242 1.56217 0
M  V30 8675 C 830.935 1.61739 3.07792 0
M  V30 8676 H 830.258 2.48215 3.13416 0
M  V30 8677 H 831.698 1.7437 3.86486 0
M  V30 8678 C 830.157 0.349156 3.35086 0
M  V30 8679 O 830.687 -0.553287 3.97871 0
M  V30 8680 N 828.893 0.231723 2.89675 0
M  V30 8681 H 828.44 0.967021 2.3876 0
M  V30 8682 H 828.398 -0.615911 3.08308 0
M  V30 8683 N 832.17 -0.811516 1.35101 0
M  V30 8684 C 833.117 -1.92308 1.27617 0
M  V30 8685 C 834.087 -1.6543 0.149091 0
M  V30 8686 O 835.272 -1.8789 0.331974 0
M  V30 8687 C 832.412 -3.28768 1.04908 0
M  V30 8688 C 831.525 -3.67865 2.26493 0
M  V30 8689 C 830.66 -4.9333 1.96974 0
M  V30 8690 C 829.699 -5.25041 3.1464 0
M  V30 8691 N 828.836 -6.41685 2.84929 0
M  V30 8692 H 833.676 -1.98041 2.22674 0
M  V30 8693 H 831.213 -0.968755 1.10696 0
M  V30 8694 H 833.171 -4.07426 0.897749 0
M  V30 8695 H 831.801 -3.22517 0.135151 0
M  V30 8696 H 830.853 -2.84507 2.52507 0
M  V30 8697 H 832.165 -3.87263 3.14371 0
M  V30 8698 H 831.319 -5.79803 1.78643 0
M  V30 8699 H 830.058 -4.75958 1.06374 0
M  V30 8700 H 829.063 -4.3706 3.33554 0
M  V30 8701 H 830.288 -5.44346 4.06035 0
M  V30 8702 H 828.234 -6.25747 1.96918 0
M  V30 8703 H 828.151 -6.6131 3.66341 0
M  V30 8704 H 829.419 -7.31198 2.70128 0
M  V30 8705 N 833.648 -1.19017 -1.03309 0
M  V30 8706 C 834.897 -0.984542 -1.76039 0
M  V30 8707 C 835.21 0.485937 -1.89468 0
M  V30 8708 O 836.416 0.810278 -2.59127 0
M  V30 8709 C 834.872 -1.71261 -3.1654 0
M  V30 8710 C 834.48 -3.22291 -3.11179 0
M  V30 8711 C 836.224 -1.59007 -3.93595 0
M  V30 8712 C 834.131 -3.87704 -4.46587 0
M  V30 8713 H 833.061 -0.364749 -0.659905 0
M  V30 8714 H 835.712 -1.4247 -1.15649 0
M  V30 8715 H 834.094 -1.20025 -3.77373 0
M  V30 8716 H 835.268 -3.80611 -2.59753 0
M  V30 8717 H 833.583 -3.34772 -2.47622 0
M  V30 8718 H 836.18 -2.05232 -4.93745 0
M  V30 8719 H 836.523 -0.543534 -4.12736 0
M  V30 8720 H 837.056 -2.07564 -3.39355 0
M  V30 8721 H 833.795 -4.92437 -4.3265 0
M  V30 8722 H 833.315 -3.34172 -4.98085 0
M  V30 8723 H 834.994 -3.91008 -5.15482 0
M  V30 8724 N 835.127 1.22348 -0.993418 0
M  V30 8725 C 836.355 1.95125 -0.688021 0
M  V30 8726 C 836.77 1.73377 0.747388 0
M  V30 8727 O 836.127 1.03317 1.50439 0
M  V30 8728 C 836.178 3.47819 -0.985097 0
M  V30 8729 O 835.899 3.68838 -2.3641 0
M  V30 8730 C 837.4 4.37779 -0.697474 0
M  V30 8731 H 834.62 0.62087 -0.254481 0
M  V30 8732 H 837.164 1.55485 -1.32833 0
M  V30 8733 H 835.319 3.85426 -0.390583 0
M  V30 8734 H 835.733 4.63032 -2.46377 0
M  V30 8735 H 837.207 5.43666 -0.955604 0
M  V30 8736 H 837.684 4.37651 0.368524 0
M  V30 8737 H 838.29 4.05799 -1.27306 0
M  V30 8738 N 836.605 0.766683 1.37694 0
M  V30 8739 C 837.851 0.338201 2.00569 0
M  V30 8740 C 838.206 -1.07196 1.59771 0
M  V30 8741 O 837.499 -1.72622 0.831402 0
M  V30 8742 C 837.693 0.413831 3.54996 0
M  V30 8743 C 837.522 1.8298 4.1079 0
M  V30 8744 C 836.292 2.44932 4.41969 0
M  V30 8745 C 838.49 2.78852 4.32141 0
M  V30 8746 N 836.472 3.78353 4.83448 0
M  V30 8747 C 837.843 3.97063 4.76174 0
M  V30 8748 C 839.898 2.76205 4.14265 0
M  V30 8749 C 838.601 5.13003 5.04203 0
M  V30 8750 C 840.627 3.91314 4.43427 0
M  V30 8751 C 839.989 5.08265 4.87694 0
M  V30 8752 H 836.088 0.170693 0.763143 0
M  V30 8753 H 838.672 0.999435 1.67091 0
M  V30 8754 H 836.843 -0.217198 3.87792 0
M  V30 8755 H 838.575 -0.036222 4.04684 0
M  V30 8756 H 835.33 1.9659 4.3087 0
M  V30 8757 H 835.754 4.46937 5.08504 0
M  V30 8758 H 840.396 1.86962 3.79216 0
M  V30 8759 H 838.114 6.0285 5.38142 0
M  V30 8760 H 841.7 3.906 4.31187 0
M  V30 8761 H 840.58 5.95858 5.09827 0
M  V30 8762 N 838.083 -1.48885 0.516809 0
M  V30 8763 C 839.308 -2.0739 -0.0205201 0
M  V30 8764 C 839.733 -1.37259 -1.28614 0
M  V30 8765 O 839.091 -0.434304 -1.76021 0
M  V30 8766 C 839.139 -3.59793 -0.24104 0
M  V30 8767 O 838.243 -3.90957 -1.31251 0
M  V30 8768 H 837.584 -0.663167 0.0332564 0
M  V30 8769 H 840.114 -1.91477 0.720956 0
M  V30 8770 H 840.124 -4.0531 -0.467737 0
M  V30 8771 H 838.799 -4.10244 0.68356 0
M  V30 8772 H 837.376 -3.57234 -1.06951 0
M  V30 8773 N 839.561 -0.251338 -1.55583 0
M  V30 8774 C 840.81 0.372681 -1.98227 0
M  V30 8775 C 841.123 1.58743 -1.1428 0
M  V30 8776 O 842.329 2.28289 -1.46957 0
M  V30 8777 C 840.785 0.714439 -3.52738 0
M  V30 8778 C 840.393 -0.479168 -4.4543 0
M  V30 8779 C 842.137 1.3024 -4.04027 0
M  V30 8780 C 840.044 -0.113318 -5.91291 0
M  V30 8781 H 838.974 0.14302 -0.740312 0
M  V30 8782 H 841.625 -0.352253 -1.80087 0
M  V30 8783 H 840.007 1.49762 -3.66589 0
M  V30 8784 H 841.181 -1.25644 -4.4334 0
M  V30 8785 H 839.496 -0.982359 -4.04646 0
M  V30 8786 H 842.093 1.58953 -5.10527 0
M  V30 8787 H 842.436 2.22837 -3.51638 0
M  V30 8788 H 842.969 0.582024 -3.93519 0
M  V30 8789 H 839.708 -1.00654 -6.47726 0
M  V30 8790 H 839.228 0.627666 -5.96507 0
M  V30 8791 H 840.907 0.30293 -6.4629 0
M  V30 8792 N 841.039 1.57585 0.0217189 0
M  V30 8793 C 842.288 1.88786 0.710125 0
M  V30 8794 C 842.601 0.850819 1.76126 0
M  V30 8795 O 843.807 1.0523 2.50277 0
M  V30 8796 C 842.263 3.3505 1.31413 0
M  V30 8797 C 841.871 4.47001 0.298959 0
M  V30 8798 C 843.615 3.7539 1.98199 0
M  V30 8799 C 841.522 5.8433 0.911727 0
M  V30 8800 H 840.452 0.704388 0.268986 0
M  V30 8801 H 843.103 1.83466 -0.0352638 0
M  V30 8802 H 841.485 3.35138 2.10947 0
M  V30 8803 H 842.659 4.58395 -0.470203 0
M  V30 8804 H 840.974 4.15542 -0.267222 0
M  V30 8805 H 843.571 4.75314 2.4491 0
M  V30 8806 H 843.914 3.07766 2.80331 0
M  V30 8807 H 844.447 3.77508 1.2543 0
M  V30 8808 H 841.186 6.55372 0.129659 0
M  V30 8809 H 840.706 5.76643 1.65056 0
M  V30 8810 H 842.385 6.31295 1.41688 0
M  V30 8811 N 842.517 -0.29412 1.54831 0
M  V30 8812 C 843.933 -0.640167 1.46199 0
M  V30 8813 C 844.133 -1.90426 0.658798 0
M  V30 8814 O 843.189 -2.51932 0.169228 0
M  V30 8815 C 844.502 -0.786763 2.90225 0
M  V30 8816 C 846.05 -0.882201 3.0031 0
M  V30 8817 C 846.525 -1.06074 4.45547 0
M  V30 8818 N 848.016 -1.12678 4.49286 0
M  V30 8819 C 848.751 -1.28334 5.58854 0
M  V30 8820 N 848.247 -1.40845 6.78332 0
M  V30 8821 N 850.04 -1.31277 5.46555 0
M  V30 8822 H 842.191 0.536334 2.05517 0
M  V30 8823 H 844.454 0.178363 0.93107 0
M  V30 8824 H 844.16 0.0713018 3.51628 0
M  V30 8825 H 844.034 -1.67364 3.38037 0
M  V30 8826 H 846.421 -1.73075 2.39017 0
M  V30 8827 H 846.502 0.0288405 2.55784 0
M  V30 8828 H 846.146 -0.216935 5.07437 0
M  V30 8829 H 846.076 -1.98611 4.8771 0
M  V30 8830 H 848.567 -1.04335 3.63212 0
M  V30 8831 H 848.88 -1.52566 7.57591 0
M  V30 8832 H 847.225 -1.37888 6.81184 0
M  V30 8833 H 850.416 -1.2112 4.52159 0
M  V30 8834 H 850.589 -1.43136 6.31994 0
M  V30 8835 N 843.995 -1.47404 -0.557645 0
M  V30 8836 C 844.905 -1.62491 -1.69216 0
M  V30 8837 C 845.921 -0.507764 -1.66426 0
M  V30 8838 O 847.097 -0.775241 -1.85882 0
M  V30 8839 C 844.162 -1.63511 -3.05721 0
M  V30 8840 C 843.223 -2.86648 -3.1958 0
M  V30 8841 C 842.456 -2.87609 -4.49574 0
M  V30 8842 O 842.679 -1.97799 -5.35006 0
M  V30 8843 O 841.613 -3.79465 -4.67215 0
M  V30 8844 H 845.439 -2.58487 -1.59431 0
M  V30 8845 H 843.024 -1.30485 -0.7276 0
M  V30 8846 H 844.906 -1.66863 -3.86956 0
M  V30 8847 H 843.581 -0.706812 -3.15889 0
M  V30 8848 H 842.488 -2.8884 -2.37744 0
M  V30 8849 H 843.821 -3.7877 -3.14316 0
M  V30 8850 N 845.473 0.80434 -1.35529 0
M  V30 8851 C 846.423 1.90565 -1.25175 0
M  V30 8852 C 847.407 1.60232 -0.146512 0
M  V30 8853 O 848.599 1.72918 -0.377943 0
M  V30 8854 C 845.728 3.2754 -1.02823 0
M  V30 8855 C 844.814 3.63932 -2.17748 0
M  V30 8856 N 845.205 3.71744 -3.42986 0
M  V30 8857 C 843.503 3.93901 -2.09184 0
M  V30 8858 C 844.204 4.03944 -4.18574 0
M  V30 8859 N 843.18 4.18146 -3.47355 0
M  V30 8860 H 846.982 1.9481 -2.20059 0
M  V30 8861 H 844.496 0.99905 -1.28034 0
M  V30 8862 H 846.493 4.06281 -0.934941 0
M  V30 8863 H 845.153 3.2458 -0.0882551 0
M  V30 8864 H 846.164 3.54765 -3.77309 0
M  V30 8865 H 842.841 3.98954 -1.23054 0
M  V30 8866 H 844.231 4.17036 -5.26811 0
M  V30 8867 N 846.951 1.19563 1.02676 0
M  V30 8868 C 847.884 0.878638 2.10607 0
M  V30 8869 C 848.862 -0.165176 1.61759 0
M  V30 8870 O 850.046 -0.041014 1.88455 0
M  V30 8871 C 847.173 0.315347 3.37229 0
M  V30 8872 C 846.219 1.33855 4.04951 0
M  V30 8873 S 847.052 2.89982 4.50189 0
M  V30 8874 C 848.208 2.35202 5.80027 0
M  V30 8875 H 848.441 1.79268 2.37171 0
M  V30 8876 H 845.974 1.023 1.15646 0
M  V30 8877 H 847.932 -0.00311911 4.105 0
M  V30 8878 H 846.593 -0.577035 3.08754 0
M  V30 8879 H 845.786 0.893581 4.96015 0
M  V30 8880 H 845.388 1.60397 3.37859 0
M  V30 8881 H 847.68 1.74329 6.54687 0
M  V30 8882 H 848.623 3.24622 6.29306 0
M  V30 8883 H 849.031 1.77702 5.35801 0
M  V30 8884 N 848.429 -1.21819 0.999893 0
M  V30 8885 C 849.677 -1.90375 0.678351 0
M  V30 8886 C 849.998 -1.78155 -0.792824 0
M  V30 8887 O 849.268 -1.17319 -1.56885 0
M  V30 8888 H 847.848 -0.704661 0.247915 0
M  V30 8889 H 850.51 -1.48021 1.2679 0
M  V30 8890 H 849.606 -2.97385 0.947023 0
M  V30 8891 N 849.908 -0.773975 -1.37286 0
M  V30 8892 C 851.185 -0.263942 -1.93811 0
M  V30 8893 C 851.565 1.24138 -1.70743 0
M  V30 8894 O 850.913 2.02557 -1.05749 0
M  V30 8895 C 851.123 -0.639753 -3.43086 0
M  V30 8896 C 852.471 -0.610796 -4.20184 0
M  V30 8897 O 853.495 -0.579278 -3.51458 0
M  V30 8898 O 852.354 -0.639862 -5.42741 0
M  V30 8899 H 849.448 -0.0614331 -0.824715 0
M  V30 8900 H 851.994 -0.855477 -1.46559 0
M  V30 8901 H 850.766 -1.67856 -3.53469 0
M  V30 8902 H 850.389 -0.0212827 -3.97594 0
M  V30 8903 N 851.386 1.48609 -0.524698 0
M  V30 8904 C 852.635 2.01696 0.0132937 0
M  V30 8905 C 852.948 1.40751 1.35825 0
M  V30 8906 O 854.154 1.85304 1.9843 0
M  V30 8907 C 852.61 3.59824 0.0741012 0
M  V30 8908 C 852.218 4.2975 -1.26564 0
M  V30 8909 C 853.962 4.20774 0.5612 0
M  V30 8910 C 851.869 5.79798 -1.16571 0
M  V30 8911 H 850.799 0.753949 0.00873931 0
M  V30 8912 H 853.45 1.70922 -0.667684 0
M  V30 8913 H 851.832 3.87416 0.820043 0
M  V30 8914 H 853.006 4.13836 -2.02674 0
M  V30 8915 H 851.321 3.80649 -1.68806 0
M  V30 8916 H 853.918 5.30687 0.653853 0
M  V30 8917 H 854.261 3.85734 1.56573 0
M  V30 8918 H 854.794 3.97591 -0.128901 0
M  V30 8919 H 851.533 6.19403 -2.14523 0
M  V30 8920 H 851.053 5.9814 -0.445894 0
M  V30 8921 H 852.732 6.41337 -0.854186 0
M  V30 8922 N 852.864 0.259585 1.55447 0
M  V30 8923 C 853.794 -0.62852 2.24882 0
M  V30 8924 C 854.775 -1.17128 1.23349 0
M  V30 8925 O 855.96 -1.20829 1.52033 0
M  V30 8926 C 853.09 -1.81983 2.95803 0
M  V30 8927 C 852.044 -1.40929 4.04132 0
M  V30 8928 C 851.37 -2.68246 4.62545 0
M  V30 8929 C 852.67 -0.570956 5.1917 0
M  V30 8930 H 854.364 -0.0495021 2.99359 0
M  V30 8931 H 851.91 -0.0223688 1.43983 0
M  V30 8932 H 853.863 -2.44689 3.43082 0
M  V30 8933 H 852.587 -2.42444 2.18835 0
M  V30 8934 H 851.246 -0.805519 3.57641 0
M  V30 8935 H 850.894 -3.26931 3.82263 0
M  V30 8936 H 850.594 -2.41495 5.35681 0
M  V30 8937 H 852.118 -3.31827 5.12565 0
M  V30 8938 H 853.532 -1.10262 5.62597 0
M  V30 8939 H 851.929 -0.398979 5.98772 0
M  V30 8940 H 852.999 0.413918 4.8313 0
M  V30 8941 N 854.342 -1.57594 -0.0133615 0
M  V30 8942 C 855.572 -1.93969 -0.711295 0
M  V30 8943 C 855.98 -0.859084 -1.68572 0
M  V30 8944 O 855.323 0.171842 -1.82894 0
M  V30 8945 C 855.385 -3.2625 -1.51001 0
M  V30 8946 C 855.049 -4.51628 -0.698645 0
M  V30 8947 C 856.046 -5.19899 0.00791185 0
M  V30 8948 C 853.731 -4.98095 -0.648553 0
M  V30 8949 C 855.725 -6.32928 0.753691 0
M  V30 8950 C 853.412 -6.11017 0.10096 0
M  V30 8951 C 854.41 -6.78289 0.800828 0
M  V30 8952 O 854.098 -7.89048 1.53814 0
M  V30 8953 H 853.83 -0.6445 -0.203951 0
M  V30 8954 H 856.384 -2.05378 0.0298267 0
M  V30 8955 H 854.614 -3.11211 -2.29531 0
M  V30 8956 H 856.303 -3.47835 -2.09202 0
M  V30 8957 H 857.069 -4.84995 -0.0217192 0
M  V30 8958 H 852.948 -4.45568 -1.18282 0
M  V30 8959 H 856.492 -6.85371 1.3005 0
M  V30 8960 H 852.389 -6.45364 0.132459 0
M  V30 8961 H 853.157 -8.05492 1.45345 0
M  V30 8962 N 855.82 0.285905 -1.54985 0
M  V30 8963 C 856.767 1.35306 -1.86978 0
M  V30 8964 C 857.737 1.49682 -0.720046 0
M  V30 8965 O 858.922 1.64297 -0.970107 0
M  V30 8966 C 856.062 2.71059 -2.13591 0
M  V30 8967 C 855.175 2.6501 -3.41165 0
M  V30 8968 C 854.31 3.92856 -3.57544 0
M  V30 8969 C 853.349 3.81266 -4.78855 0
M  V30 8970 N 852.486 5.00919 -4.9196 0
M  V30 8971 H 857.326 1.07323 -2.78003 0
M  V30 8972 H 854.863 0.518776 -1.37649 0
M  V30 8973 H 856.821 3.50026 -2.27019 0
M  V30 8974 H 855.451 2.97271 -1.25816 0
M  V30 8975 H 854.503 1.77824 -3.36278 0
M  V30 8976 H 855.815 2.52342 -4.30262 0
M  V30 8977 H 854.969 4.80263 -3.70718 0
M  V30 8978 H 853.708 4.08377 -2.66608 0
M  V30 8979 H 852.713 2.92243 -4.65698 0
M  V30 8980 H 853.938 3.67277 -5.71213 0
M  V30 8981 H 851.884 5.16875 -4.03951 0
M  V30 8982 H 851.801 4.90732 -5.75081 0
M  V30 8983 H 853.069 5.89935 -5.09507 0
M  V30 8984 N 857.298 1.47698 0.54982 0
M  V30 8985 C 858.228 1.63622 1.66583 0
M  V30 8986 C 859.209 0.485477 1.63025 0
M  V30 8987 O 860.394 0.715692 1.80531 0
M  V30 8988 C 857.524 1.65721 3.05211 0
M  V30 8989 C 856.478 2.80097 3.2362 0
M  V30 8990 C 855.804 2.67272 4.63109 0
M  V30 8991 C 857.104 4.21612 3.08286 0
M  V30 8992 H 858.798 2.57049 1.53512 0
M  V30 8993 H 856.344 1.23705 0.737099 0
M  V30 8994 H 858.297 1.75451 3.83138 0
M  V30 8995 H 857.021 0.688593 3.19258 0
M  V30 8996 H 855.68 2.69889 2.48104 0
M  V30 8997 H 855.328 1.68422 4.73965 0
M  V30 8998 H 855.028 3.44008 4.76374 0
M  V30 8999 H 856.552 2.78942 5.43161 0
M  V30 9000 H 857.966 4.32758 3.76024 0
M  V30 9001 H 856.363 4.99193 3.33057 0
M  V30 9002 H 857.433 4.39462 2.04942 0
M  V30 9003 N 858.776 -0.797141 1.35954 0
M  V30 9004 C 860.001 -1.59097 1.33053 0
M  V30 9005 C 860.426 -1.87897 -0.0874592 0
M  V30 9006 O 859.784 -1.47291 -1.05712 0
M  V30 9007 C 859.832 -2.89346 2.152 0
M  V30 9008 O 858.936 -3.826 1.5392 0
M  V30 9009 H 858.277 -0.482895 0.45575 0
M  V30 9010 H 860.807 -0.988633 1.79129 0
M  V30 9011 H 860.817 -3.38686 2.27499 0
M  V30 9012 H 859.492 -2.6771 3.18283 0
M  V30 9013 H 858.069 -3.41174 1.50516 0
M  V30 9014 N 860.254 -1.20106 -1.0204 0
M  V30 9015 C 861.479 -1.0351 -1.79723 0
M  V30 9016 C 861.904 0.411328 -1.83548 0
M  V30 9017 O 861.262 1.29608 -1.26773 0
M  V30 9018 C 861.31 -1.61876 -3.22224 0
M  V30 9019 O 860.414 -0.853813 -4.03465 0
M  V30 9020 H 859.755 -0.365299 -0.554484 0
M  V30 9021 H 862.285 -1.59316 -1.28373 0
M  V30 9022 H 862.295 -1.65451 -3.72948 0
M  V30 9023 H 860.97 -2.67148 -3.18755 0
M  V30 9024 H 859.547 -0.891983 -3.62075 0
M  V30 9025 N 861.732 1.21287 -1.00634 0
M  V30 9026 C 862.665 2.22366 -0.512687 0
M  V30 9027 C 863.643 1.56692 0.434332 0
M  V30 9028 O 864.827 1.85094 0.35674 0
M  V30 9029 C 861.954 3.37738 0.255139 0
M  V30 9030 C 861 4.21673 -0.639883 0
M  V30 9031 S 861.833 4.92474 -2.10308 0
M  V30 9032 C 862.989 6.11275 -1.34512 0
M  V30 9033 H 863.222 2.63896 -1.36918 0
M  V30 9034 H 860.755 1.31176 -0.814387 0
M  V30 9035 H 862.713 4.04624 0.692067 0
M  V30 9036 H 861.374 2.94689 1.08707 0
M  V30 9037 H 860.567 5.03977 -0.0483821 0
M  V30 9038 H 860.169 3.59988 -1.01414 0
M  V30 9039 H 862.461 6.7466 -0.619721 0
M  V30 9040 H 863.404 6.74864 -2.14393 0
M  V30 9041 H 863.812 5.58026 -0.852506 0
M  V30 9042 N 863.21 0.781244 1.36873 0
M  V30 9043 C 864.157 0.172146 2.30157 0
M  V30 9044 C 865.127 -0.679328 1.51573 0
M  V30 9045 O 866.312 -0.629713 1.80109 0
M  V30 9046 C 863.452 -0.693534 3.38059 0
M  V30 9047 C 862.565 0.175586 4.31643 0
M  V30 9048 C 861.7 -0.695695 5.26625 0
M  V30 9049 C 860.739 0.17538 6.11849 0
M  V30 9050 N 859.876 -0.654416 6.99043 0
M  V30 9051 H 864.716 0.973133 2.81663 0
M  V30 9052 H 862.253 0.491469 1.38647 0
M  V30 9053 H 864.211 -1.21035 3.99257 0
M  V30 9054 H 862.841 -1.46003 2.87894 0
M  V30 9055 H 861.893 0.810295 3.7167 0
M  V30 9056 H 863.205 0.847107 4.91554 0
M  V30 9057 H 862.359 -1.27863 5.93073 0
M  V30 9058 H 861.098 -1.40087 4.67148 0
M  V30 9059 H 860.103 0.77078 5.4437 0
M  V30 9060 H 861.328 0.87803 6.734 0
M  V30 9061 H 859.274 -1.34403 6.42084 0
M  V30 9062 H 859.191 -0.0403998 7.55989 0
M  V30 9063 H 860.459 -1.22144 7.69871 0
M  V30 9064 N 864.689 -1.48329 0.532571 0
M  V30 9065 C 865.936 -2.025 -0.000582356 0
M  V30 9066 C 866.264 -1.40942 -1.34036 0
M  V30 9067 O 865.519 -0.545545 -1.87942 0
M  V30 9068 C 865.818 -3.57 -0.168943 0
M  V30 9069 C 865.484 -4.37357 1.0968 0
M  V30 9070 C 864.146 -4.59033 1.44369 0
M  V30 9071 C 866.498 -4.83882 1.93669 0
M  V30 9072 C 863.826 -5.24481 2.62939 0
M  V30 9073 C 866.178 -5.50637 3.11419 0
M  V30 9074 C 864.842 -5.70551 3.46451 0
M  V30 9075 H 864.112 -0.741 -0.000213099 0
M  V30 9076 H 866.759 -1.78282 0.699117 0
M  V30 9077 H 865.064 -3.80072 -0.951429 0
M  V30 9078 H 866.761 -3.9654 -0.596422 0
M  V30 9079 H 863.351 -4.20748 0.816655 0
M  V30 9080 H 867.535 -4.66936 1.6818 0
M  V30 9081 H 862.791 -5.38096 2.9028 0
M  V30 9082 H 866.965 -5.85655 3.76803 0
M  V30 9083 H 864.592 -6.21037 4.38425 0
M  V30 9084 N 866.167 -0.267825 -1.55308 0
M  V30 9085 C 867.114 0.6228 -2.22238 0
M  V30 9086 C 868.084 1.15536 -1.19334 0
M  V30 9087 O 869.269 1.206 -1.47852 0
M  V30 9088 C 866.409 1.80447 -2.94164 0
M  V30 9089 C 865.522 1.30646 -4.11771 0
M  V30 9090 C 864.657 2.44935 -4.7136 0
M  V30 9091 C 863.696 1.92099 -5.81175 0
M  V30 9092 N 862.833 2.99834 -6.34857 0
M  V30 9093 H 867.673 0.0453874 -2.97965 0
M  V30 9094 H 865.21 0.0106371 -1.47096 0
M  V30 9095 H 867.168 2.49896 -3.34078 0
M  V30 9096 H 865.798 2.35403 -2.20874 0
M  V30 9097 H 864.85 0.505314 -3.77029 0
M  V30 9098 H 866.162 0.879409 -4.90987 0
M  V30 9099 H 865.316 3.2239 -5.13955 0
M  V30 9100 H 864.055 2.90951 -3.91406 0
M  V30 9101 H 863.06 1.13122 -5.38037 0
M  V30 9102 H 864.285 1.47027 -6.62993 0
M  V30 9103 H 862.231 3.45246 -5.578 0
M  V30 9104 H 862.148 2.61524 -7.09324 0
M  V30 9105 H 863.416 3.77286 -6.82111 0
M  V30 9106 N 867.645 1.57599 0.00500368 0
M  V30 9107 C 868.922 1.81561 0.727654 0
M  V30 9108 C 869.302 0.871604 1.92266 0
M  V30 9109 O 868.65 -0.0808232 2.28357 0
M  V30 9110 C 868.86 3.29922 1.13809 0
M  V30 9111 C 870.208 3.95531 1.54403 0
M  V30 9112 O 871.232 3.34215 1.23202 0
M  V30 9113 O 870.091 5.03535 2.12402 0
M  V30 9114 H 867.185 0.747462 0.353878 0
M  V30 9115 H 869.731 1.69688 -0.0200667 0
M  V30 9116 H 868.503 3.90253 0.286078 0
M  V30 9117 H 868.126 3.46775 1.94507 0
M  V30 9118 N 869.123 -0.277682 1.55134 0
M  V30 9119 C 870.534 -0.849063 1.66276 0
M  V30 9120 C 870.885 -1.87223 0.5867 0
M  V30 9121 O 870.01 -2.14676 -0.272635 0
M  V30 9122 C 870.605 -1.54681 3.01429 0
M  V30 9123 C 869.164 -2.06628 3.14614 0
M  V30 9124 C 868.311 -0.906748 2.62056 0
M  V30 9125 H 871.262 -0.0541357 1.58608 0
M  V30 9126 H 871.283 -2.41356 2.94156 0
M  V30 9127 H 870.795 -0.80189 3.79725 0
M  V30 9128 H 868.896 -2.84095 2.41082 0
M  V30 9129 H 869.009 -2.2848 4.2111 0
M  V30 9130 H 867.373 -1.29882 2.19095 0
M  V30 9131 H 868.156 -0.175414 3.42852 0
M  V30 9132 N 870.601 -1.47988 -0.541979 0
M  V30 9133 C 871.531 -1.64503 -1.65713 0
M  V30 9134 C 872.512 -0.494116 -1.62765 0
M  V30 9135 O 873.697 -0.725256 -1.80149 0
M  V30 9136 C 870.827 -1.67337 -3.04328 0
M  V30 9137 C 869.781 -2.81809 -3.2213 0
M  V30 9138 C 869.107 -2.69724 -4.61685 0
M  V30 9139 C 870.407 -4.23241 -3.06046 0
M  V30 9140 H 872.101 -2.5786 -1.52147 0
M  V30 9141 H 869.647 -1.24094 -0.730529 0
M  V30 9142 H 871.6 -1.77481 -3.82202 0
M  V30 9143 H 870.324 -0.705514 -3.18889 0
M  V30 9144 H 868.983 -2.71201 -2.46669 0
M  V30 9145 H 868.631 -1.70934 -4.73065 0
M  V30 9146 H 868.331 -3.4653 -4.74543 0
M  V30 9147 H 869.855 -2.81818 -5.41674 0
M  V30 9148 H 871.269 -4.34746 -3.73723 0
M  V30 9149 H 869.666 -5.00952 -3.30405 0
M  V30 9150 H 870.736 -4.40543 -2.02609 0
M  V30 9151 N 872.079 0.78992 -1.36375 0
M  V30 9152 C 873.026 1.90254 -1.3066 0
M  V30 9153 C 873.996 1.65171 -0.17539 0
M  V30 9154 O 875.181 1.87338 -0.361824 0
M  V30 9155 C 872.321 3.27057 -1.10125 0
M  V30 9156 C 871.434 3.64215 -2.32317 0
M  V30 9157 C 870.569 4.90134 -2.04798 0
M  V30 9158 C 869.608 5.19969 -3.22953 0
M  V30 9159 N 868.745 6.37071 -2.95102 0
M  V30 9160 H 873.585 1.94474 -2.25796 0
M  V30 9161 H 871.122 0.951022 -1.12223 0
M  V30 9162 H 873.08 4.05947 -0.962453 0
M  V30 9163 H 871.71 3.22261 -0.186444 0
M  V30 9164 H 870.762 2.80454 -2.57002 0
M  V30 9165 H 872.074 3.82212 -3.20492 0
M  V30 9166 H 871.228 5.76888 -1.87845 0
M  V30 9167 H 869.967 4.74205 -1.13932 0
M  V30 9168 H 868.972 4.31699 -3.40465 0
M  V30 9169 H 870.197 5.37817 -4.14644 0
M  V30 9170 H 868.143 6.22535 -2.06848 0
M  V30 9171 H 868.06 6.55398 -3.76815 0
M  V30 9172 H 869.328 7.26808 -2.81727 0
M  V30 9173 N 873.557 1.20646 1.01402 0
M  V30 9174 C 874.834 0.927176 1.72229 0
M  V30 9175 C 875.214 -0.563382 2.03443 0
M  V30 9176 O 874.562 -1.52576 1.70096 0
M  V30 9177 C 874.772 1.80285 2.98828 0
M  V30 9178 C 876.12 2.04624 3.72041 0
M  V30 9179 O 877.144 1.77559 3.0879 0
M  V30 9180 O 876.003 2.50347 4.85787 0
M  V30 9181 H 873.097 0.346891 0.75073 0
M  V30 9182 H 875.643 1.31532 1.07227 0
M  V30 9183 H 874.415 2.81204 2.72102 0
M  V30 9184 H 874.038 1.41495 3.71571 0
M  V30 9185 N 875.035 -1.20752 1.01276 0
M  V30 9186 C 876.283 -1.89645 0.698505 0
M  V30 9187 C 876.604 -1.78986 -0.773883 0
M  V30 9188 O 875.874 -1.18977 -1.55632 0
M  V30 9189 H 874.454 -0.701992 0.255375 0
M  V30 9190 H 877.116 -1.46668 1.28353 0
M  V30 9191 H 876.212 -2.96364 0.978512 0
M  V30 9192 N 876.513 -0.788492 -1.36457 0
M  V30 9193 C 877.423 -0.187385 -2.3385 0
M  V30 9194 C 878.439 0.659984 -1.60998 0
M  V30 9195 O 879.615 0.575986 -1.92988 0
M  V30 9196 C 876.68 0.668525 -3.40194 0
M  V30 9197 C 875.741 -0.197234 -4.28847 0
M  V30 9198 C 874.974 0.61792 -5.30111 0
M  V30 9199 O 875.197 1.85396 -5.3943 0
M  V30 9200 O 874.131 0.0183016 -6.01897 0
M  V30 9201 H 877.957 -0.992617 -2.87021 0
M  V30 9202 H 875.542 -0.549934 -1.3891 0
M  V30 9203 H 877.424 1.15663 -4.05216 0
M  V30 9204 H 876.099 1.45166 -2.89324 0
M  V30 9205 H 875.006 -0.73207 -3.66867 0
M  V30 9206 H 876.339 -0.943863 -4.83065 0
M  V30 9207 N 877.991 1.48044 -0.54043 0
M  V30 9208 C 878.954 2.28273 0.205966 0
M  V30 9209 C 879.954 1.35983 0.858209 0
M  V30 9210 O 881.144 1.58776 0.716651 0
M  V30 9211 C 878.276 3.15174 1.29917 0
M  V30 9212 H 879.469 2.95727 -0.498555 0
M  V30 9213 H 877.022 1.53457 -0.296745 0
M  V30 9214 H 877.757 2.52374 2.03661 0
M  V30 9215 H 877.542 3.83074 0.836475 0
M  V30 9216 H 879.032 3.75666 1.82387 0
M  V30 9217 N 879.47 0.276058 1.55163 0
M  V30 9218 C 880.417 -0.611006 2.22565 0
M  V30 9219 C 881.387 -1.14902 1.19945 0
M  V30 9220 O 882.572 -1.19815 1.48489 0
M  V30 9221 C 879.712 -1.78885 2.95117 0
M  V30 9222 C 878.825 -1.2846 4.12458 0
M  V30 9223 C 877.96 -2.42432 4.72652 0
M  V30 9224 C 876.999 -1.89015 5.82185 0
M  V30 9225 N 876.136 -2.96463 6.36439 0
M  V30 9226 H 880.976 -0.0295849 2.97985 0
M  V30 9227 H 878.513 -0.00283607 1.471 0
M  V30 9228 H 880.471 -2.48121 3.35398 0
M  V30 9229 H 879.101 -2.34229 2.22119 0
M  V30 9230 H 878.153 -0.485312 3.77292 0
M  V30 9231 H 879.465 -0.853358 4.91446 0
M  V30 9232 H 878.619 -3.19659 5.15658 0
M  V30 9233 H 877.358 -2.88872 3.92943 0
M  V30 9234 H 876.363 -1.10267 5.38629 0
M  V30 9235 H 877.588 -1.43509 6.63763 0
M  V30 9236 H 875.534 -3.42283 5.59623 0
M  V30 9237 H 875.451 -2.57759 7.10701 0
M  V30 9238 H 876.719 -3.73663 6.84103 0
M  V30 9239 N 880.948 -1.576 0.00335426 0
M  V30 9240 C 882.197 -1.89892 -0.680001 0
M  V30 9241 C 882.51 -0.878731 -1.7475 0
M  V30 9242 O 883.716 -1.09199 -2.48572 0
M  V30 9243 C 882.172 -3.37098 -1.26066 0
M  V30 9244 C 881.78 -4.4742 -0.227807 0
M  V30 9245 C 883.524 -3.78495 -1.92202 0
M  V30 9246 C 881.431 -5.85706 -0.81865 0
M  V30 9247 H 880.361 -0.708578 -0.257746 0
M  V30 9248 H 883.012 -1.83387 0.0644472 0
M  V30 9249 H 881.394 -3.38451 -2.05589 0
M  V30 9250 H 882.568 -4.57589 0.54307 0
M  V30 9251 H 880.883 -4.15064 0.333297 0
M  V30 9252 H 883.48 -4.7915 -2.37318 0
M  V30 9253 H 883.823 -3.12187 -2.75399 0
M  V30 9254 H 884.356 -3.79456 -1.19408 0
M  V30 9255 H 881.095 -6.55495 -0.0253787 0
M  V30 9256 H 880.615 -5.79196 -1.55861 0
M  V30 9257 H 882.294 -6.33469 -1.31627 0
M  V30 9258 N 882.426 0.269451 -1.5528 0
M  V30 9259 C 883.373 1.33316 -1.88403 0
M  V30 9260 C 884.343 1.48909 -0.735881 0
M  V30 9261 O 885.528 1.63259 -0.987479 0
M  V30 9262 C 882.668 2.68778 -2.16454 0
M  V30 9263 C 881.781 2.61377 -3.43956 0
M  V30 9264 C 880.916 3.89042 -3.6169 0
M  V30 9265 C 879.955 3.76166 -4.82872 0
M  V30 9266 N 879.092 4.95673 -4.97245 0
M  V30 9267 H 883.932 1.04368 -2.79126 0
M  V30 9268 H 881.469 0.504147 -1.38191 0
M  V30 9269 H 883.427 3.47599 -2.30719 0
M  V30 9270 H 882.057 2.9592 -1.28961 0
M  V30 9271 H 881.109 1.74247 -3.38145 0
M  V30 9272 H 882.421 2.47764 -4.32914 0
M  V30 9273 H 881.575 4.76304 -3.75791 0
M  V30 9274 H 880.314 4.05526 -2.70924 0
M  V30 9275 H 879.319 2.87287 -4.68771 0
M  V30 9276 H 880.544 3.61198 -5.75077 0
M  V30 9277 H 878.49 5.12561 -4.09411 0
M  V30 9278 H 878.407 4.84605 -5.80254 0
M  V30 9279 H 879.675 5.84498 -5.15735 0
M  V30 9280 N 883.904 1.48273 0.534124 0
M  V30 9281 C 885.129 1.59988 1.31979 0
M  V30 9282 C 885.554 0.258824 1.86311 0
M  V30 9283 O 884.912 -0.768885 1.64188 0
M  V30 9284 C 884.96 2.64642 2.44943 0
M  V30 9285 O 884.064 2.21515 3.47858 0
M  V30 9286 H 883.405 0.536625 0.391063 0
M  V30 9287 H 885.935 1.94229 0.643135 0
M  V30 9288 H 885.945 2.85786 2.91187 0
M  V30 9289 H 884.62 3.62004 2.04758 0
M  V30 9290 H 883.197 2.10567 3.0776 0
M  V30 9291 N 885.382 -0.782676 1.36792 0
M  V30 9292 C 886.659 -1.52939 1.21939 0
M  V30 9293 C 887.039 -2.10228 -0.191639 0
M  V30 9294 O 886.387 -1.94574 -1.19805 0
M  V30 9295 C 886.597 -2.61898 2.30674 0
M  V30 9296 C 887.945 -3.29598 2.67676 0
M  V30 9297 O 888.969 -2.72186 2.29768 0
M  V30 9298 O 887.828 -4.3337 3.32946 0
M  V30 9299 H 884.922 -0.676856 0.47518 0
M  V30 9300 H 887.468 -0.82058 1.48542 0
M  V30 9301 H 886.24 -2.17607 3.25212 0
M  V30 9302 H 885.863 -3.40391 2.05475 0
M  V30 9303 N 886.86 -1.21182 -1.00761 0
M  V30 9304 C 888.09 -1.05182 -1.77821 0
M  V30 9305 C 888.498 0.401527 -1.8489 0
M  V30 9306 O 887.841 1.29042 -1.30743 0
M  V30 9307 C 887.903 -1.57066 -3.23374 0
M  V30 9308 C 887.567 -3.05491 -3.39889 0
M  V30 9309 C 888.564 -4.03065 -3.28381 0
M  V30 9310 C 886.249 -3.44641 -3.65415 0
M  V30 9311 C 888.243 -5.37778 -3.4216 0
M  V30 9312 C 885.93 -4.79507 -3.78836 0
M  V30 9313 C 886.928 -5.75884 -3.67214 0
M  V30 9314 O 886.616 -7.08304 -3.80212 0
M  V30 9315 H 886.348 -0.369983 -0.565763 0
M  V30 9316 H 888.902 -1.60914 -1.27655 0
M  V30 9317 H 887.132 -0.957273 -3.74664 0
M  V30 9318 H 888.821 -1.36949 -3.82099 0
M  V30 9319 H 889.587 -3.74163 -3.08588 0
M  V30 9320 H 885.466 -2.7016 -3.73544 0
M  V30 9321 H 889.01 -6.12987 -3.33005 0
M  V30 9322 H 884.907 -5.08096 -3.98132 0
M  V30 9323 H 885.675 -7.15677 -3.97175 0
M  V30 9324 N 888.338 1.20213 -1.01915 0
M  V30 9325 C 889.301 2.21307 -0.596327 0
M  V30 9326 C 890.301 1.57274 0.334879 0
M  V30 9327 O 891.491 1.73764 0.12322 0
M  V30 9328 C 888.623 3.40657 0.128808 0
M  V30 9329 H 889.816 2.60228 -1.49068 0
M  V30 9330 H 887.369 1.33721 -0.809226 0
M  V30 9331 H 888.104 3.07241 1.03796 0
M  V30 9332 H 887.889 3.88361 -0.540183 0
M  V30 9333 H 889.379 4.15564 0.411892 0
M  V30 9334 N 889.816 0.795718 1.36037 0
M  V30 9335 C 890.748 0.156336 2.28666 0
M  V30 9336 C 891.761 -0.638075 1.49775 0
M  V30 9337 O 892.95 -0.472222 1.7214 0
M  V30 9338 C 890.05 -0.801417 3.29288 0
M  V30 9339 C 889.223 -0.0557118 4.37365 0
M  V30 9340 C 888.282 -0.930338 5.1791 0
M  V30 9341 O 887.308 -0.385266 5.67895 0
M  V30 9342 N 888.51 -2.25382 5.34961 0
M  V30 9343 H 891.275 0.952033 2.84177 0
M  V30 9344 H 888.836 0.650189 1.48271 0
M  V30 9345 H 890.828 -1.39051 3.80062 0
M  V30 9346 H 889.398 -1.49796 2.74372 0
M  V30 9347 H 888.618 0.714508 3.87671 0
M  V30 9348 H 889.906 0.458633 5.06729 0
M  V30 9349 H 889.304 -2.72073 4.95977 0
M  V30 9350 H 887.861 -2.79241 5.88955 0
M  V30 9351 N 891.294 -1.47756 0.548274 0
M  V30 9352 C 892.224 -2.32702 -0.19284 0
M  V30 9353 C 893.205 -1.43237 -0.917457 0
M  V30 9354 O 894.39 -1.72103 -0.89967 0
M  V30 9355 C 891.52 -3.24831 -1.22891 0
M  V30 9356 C 890.474 -4.23466 -0.621312 0
M  V30 9357 C 889.8 -5.04856 -1.76137 0
M  V30 9358 C 891.1 -5.20616 0.419055 0
M  V30 9359 H 892.794 -2.94914 0.516323 0
M  V30 9360 H 890.34 -1.41818 0.24975 0
M  V30 9361 H 892.293 -3.83094 -1.75547 0
M  V30 9362 H 891.017 -2.60656 -1.9679 0
M  V30 9363 H 889.676 -3.66416 -0.116123 0
M  V30 9364 H 889.324 -4.37091 -2.48918 0
M  V30 9365 H 889.024 -5.71629 -1.36065 0
M  V30 9366 H 890.548 -5.65976 -2.29136 0
M  V30 9367 H 891.962 -5.73296 -0.0211034 0
M  V30 9368 H 890.359 -5.95543 0.738163 0
M  V30 9369 H 891.429 -4.66638 1.31822 0
M  V30 9370 N 892.772 -0.284283 -1.55015 0
M  V30 9371 C 893.702 0.592663 -2.25853 0
M  V30 9372 C 894.683 1.15151 -1.25197 0
M  V30 9373 O 895.868 1.18395 -1.53936 0
M  V30 9374 C 892.998 1.77254 -2.98661 0
M  V30 9375 C 891.952 1.34482 -4.06323 0
M  V30 9376 C 891.278 2.60853 -4.66754 0
M  V30 9377 C 892.578 0.488288 -5.20013 0
M  V30 9378 H 894.272 0.00187041 -2.994 0
M  V30 9379 H 891.818 -0.000540402 -1.44 0
M  V30 9380 H 893.771 2.39199 -3.46932 0
M  V30 9381 H 892.495 2.38931 -2.22664 0
M  V30 9382 H 891.154 0.748519 -3.58877 0
M  V30 9383 H 890.802 3.20808 -3.87416 0
M  V30 9384 H 890.502 2.32942 -5.39455 0
M  V30 9385 H 892.026 3.23631 -5.1778 0
M  V30 9386 H 893.44 1.01298 -5.6428 0
M  V30 9387 H 891.837 0.303669 -5.99331 0
M  V30 9388 H 892.907 -0.490727 -4.8241 0
M  V30 9389 N 894.251 1.57596 -0.0117121 0
M  V30 9390 C 895.161 2.12596 0.991964 0
M  V30 9391 C 896.177 1.07399 1.36899 0
M  V30 9392 O 897.353 1.39365 1.45394 0
M  V30 9393 C 894.418 2.62796 2.2614 0
M  V30 9394 C 893.479 3.8264 1.94642 0
M  V30 9395 C 892.712 4.30435 3.15533 0
M  V30 9396 O 892.935 3.77495 4.27614 0
M  V30 9397 O 891.869 5.22469 2.98847 0
M  V30 9398 H 895.695 2.98597 0.554371 0
M  V30 9399 H 893.28 1.47947 0.207839 0
M  V30 9400 H 895.162 2.9523 3.00695 0
M  V30 9401 H 893.837 1.79886 2.69114 0
M  V30 9402 H 892.744 3.5516 1.17526 0
M  V30 9403 H 894.077 4.66658 1.56496 0
M  V30 9404 N 895.729 -0.261212 1.5542 0
M  V30 9405 C 897.006 -1.01321 1.67312 0
M  V30 9406 C 897.386 -2.0388 0.547356 0
M  V30 9407 O 896.734 -2.24003 -0.451083 0
M  V30 9408 C 896.944 -1.65943 3.07024 0
M  V30 9409 C 898.292 -2.16666 3.65159 0
M  V30 9410 O 899.316 -1.75909 3.09733 0
M  V30 9411 O 898.175 -2.91455 4.62294 0
M  V30 9412 H 895.269 -0.470714 0.679968 0
M  V30 9413 H 897.815 -0.256133 1.67756 0
M  V30 9414 H 896.587 -0.916868 3.80407 0
M  V30 9415 H 896.21 -2.48308 3.1053 0
M  V30 9416 N 897.207 -1.48554 -0.526253 0
M  V30 9417 C 898.14 -1.57928 -1.64724 0
M  V30 9418 C 899.118 -0.429536 -1.56824 0
M  V30 9419 O 900.302 -0.641651 -1.77243 0
M  V30 9420 C 897.429 -1.51075 -3.0314 0
M  V30 9421 C 896.475 -2.70937 -3.29386 0
M  V30 9422 S 897.308 -4.3287 -3.15251 0
M  V30 9423 C 898.464 -4.28622 -4.56108 0
M  V30 9424 H 898.697 -2.52761 -1.56523 0
M  V30 9425 H 896.23 -1.37133 -0.7095 0
M  V30 9426 H 898.188 -1.47808 -3.82966 0
M  V30 9427 H 896.849 -0.57574 -3.08778 0
M  V30 9428 H 896.042 -2.62291 -4.30371 0
M  V30 9429 H 895.644 -2.71486 -2.57238 0
M  V30 9430 H 897.936 -3.98784 -5.47702 0
M  V30 9431 H 898.879 -5.29798 -4.69808 0
M  V30 9432 H 899.287 -3.59038 -4.35605 0
M  V30 9433 N 898.685 0.775411 -1.37205 0
M  V30 9434 C 899.617 1.89761 -1.28544 0
M  V30 9435 C 900.63 1.61542 -0.201996 0
M  V30 9436 O 901.819 1.72528 -0.457848 0
M  V30 9437 C 898.919 3.24904 -0.963885 0
M  V30 9438 C 898.092 3.80796 -2.15205 0
M  V30 9439 C 897.151 4.94407 -1.80135 0
M  V30 9440 O 896.177 5.10185 -2.52388 0
M  V30 9441 N 897.379 5.75722 -0.743298 0
M  V30 9442 H 900.144 1.97708 -2.25237 0
M  V30 9443 H 897.705 0.954348 -1.30782 0
M  V30 9444 H 899.697 3.9842 -0.710182 0
M  V30 9445 H 898.267 3.12483 -0.085632 0
M  V30 9446 H 897.487 2.99101 -2.56773 0
M  V30 9447 H 898.775 4.1487 -2.94552 0
M  V30 9448 H 898.173 5.65518 -0.143655 0
M  V30 9449 H 896.73 6.4948 -0.549446 0
M  V30 9450 N 900.163 1.21714 1.00117 0
M  V30 9451 C 901.111 0.976937 2.11089 0
M  V30 9452 C 902.105 -0.0771295 1.69224 0
M  V30 9453 O 903.311 0.0745945 1.79845 0
M  V30 9454 H 899.686 0.298687 0.690138 0
M  V30 9455 H 901.657 1.91881 2.28526 0
M  V30 9456 C 900.406 0.562369 3.43122 0
M  V30 9457 H 899.729 1.36509 3.75773 0
M  V30 9458 H 901.169 0.433642 4.21777 0
M  V30 9459 C 899.628 -0.727148 3.28959 0
M  V30 9460 O 900.158 -1.78171 3.60025 0
M  V30 9461 N 898.364 -0.695129 2.82164 0
M  V30 9462 H 897.911 0.163346 2.57082 0
M  V30 9463 H 897.869 -1.55822 2.73069 0
M  V30 9464 N 901.641 -1.19671 1.02551 0
M  V30 9465 C 902.604 -2.20987 0.608055 0
M  V30 9466 C 903.604 -1.5745 -0.326534 0
M  V30 9467 O 904.794 -1.73827 -0.114003 0
M  V30 9468 C 901.926 -3.4072 -0.11074 0
M  V30 9469 H 903.119 -2.59434 1.50446 0
M  V30 9470 H 900.672 -1.3329 0.816307 0
M  V30 9471 H 901.407 -3.07787 -1.02165 0
M  V30 9472 H 901.192 -3.88069 0.560772 0
M  V30 9473 H 902.682 -4.15776 -0.389848 0
M  V30 9474 N 903.119 -0.802921 -1.35613 0
M  V30 9475 C 904.366 -0.381576 -1.98872 0
M  V30 9476 C 904.694 1.0503 -1.63704 0
M  V30 9477 O 903.949 1.7427 -0.890418 0
M  V30 9478 C 904.248 -0.507806 -3.53774 0
M  V30 9479 C 903.914 -1.90245 -4.088 0
M  V30 9480 C 902.576 -2.28401 -4.2354 0
M  V30 9481 C 904.928 -2.81504 -4.3864 0
M  V30 9482 C 902.256 -3.57192 -4.65436 0
M  V30 9483 C 904.608 -4.09737 -4.81973 0
M  V30 9484 C 903.272 -4.47897 -4.94919 0
M  V30 9485 H 902.542 -0.139629 -0.727726 0
M  V30 9486 H 905.189 -1.023 -1.61886 0
M  V30 9487 H 903.494 0.21708 -3.91198 0
M  V30 9488 H 905.191 -0.162625 -4.0067 0
M  V30 9489 H 901.781 -1.596 -3.97776 0
M  V30 9490 H 905.965 -2.53276 -4.26808 0
M  V30 9491 H 901.221 -3.86611 -4.73648 0
M  V30 9492 H 905.395 -4.80555 -5.04024 0
M  V30 9493 H 903.022 -5.47747 -5.27141 0
M  V30 9494 N 904.597 1.47463 -0.556102 0
M  V30 9495 C 906.013 1.58134 -0.21579 0
M  V30 9496 C 906.213 1.55486 1.28166 0
M  V30 9497 O 905.269 1.45768 2.06174 0
M  V30 9498 C 906.582 2.88686 -0.841464 0
M  V30 9499 C 908.13 3.02268 -0.812591 0
M  V30 9500 C 908.605 4.35518 -1.41731 0
M  V30 9501 N 910.096 4.42151 -1.38045 0
M  V30 9502 C 910.831 5.43817 -1.81799 0
M  V30 9503 N 910.327 6.52299 -2.33404 0
M  V30 9504 N 912.12 5.34855 -1.72877 0
M  V30 9505 H 904.271 1.47428 -1.52901 0
M  V30 9506 H 906.534 0.701586 -0.637559 0
M  V30 9507 H 906.24 2.96358 -1.8938 0
M  V30 9508 H 906.114 3.7572 -0.333846 0
M  V30 9509 H 908.501 2.94194 0.231056 0
M  V30 9510 H 908.582 2.16779 -1.35796 0
M  V30 9511 H 908.226 4.44348 -2.46002 0
M  V30 9512 H 908.156 5.19737 -0.847402 0
M  V30 9513 H 910.647 3.64348 -1.00296 0
M  V30 9514 H 910.96 7.26047 -2.64717 0
M  V30 9515 H 909.305 6.53192 -2.37414 0
M  V30 9516 H 912.496 4.49004 -1.32338 0
M  V30 9517 H 912.669 6.13949 -2.07294 0
M  V30 9518 N 906.075 0.2925 1.54862 0
M  V30 9519 C 907.3 -0.32494 2.04839 0
M  V30 9520 C 907.725 -1.47381 1.16877 0
M  V30 9521 O 907.083 -1.80492 0.171028 0
M  V30 9522 C 907.131 -0.76694 3.5235 0
M  V30 9523 O 906.235 -1.87256 3.67436 0
M  V30 9524 H 905.576 -0.0645195 0.660858 0
M  V30 9525 H 908.106 0.431867 1.9999 0
M  V30 9526 H 908.116 -1.05804 3.94043 0
M  V30 9527 H 906.791 0.0735212 4.15835 0
M  V30 9528 H 905.368 -1.58266 3.37648 0
M  V30 9529 N 907.553 -1.57587 0.0200696 0
M  V30 9530 C 908.483 -2.12702 -0.963333 0
M  V30 9531 C 909.464 -1.04094 -1.34531 0
M  V30 9532 O 910.649 -1.31881 -1.42552 0
M  V30 9533 C 907.779 -2.64673 -2.24868 0
M  V30 9534 C 906.733 -3.77987 -2.00772 0
M  V30 9535 C 906.059 -4.16351 -3.35494 0
M  V30 9536 C 907.359 -5.0444 -1.35416 0
M  V30 9537 H 909.053 -2.95121 -0.504363 0
M  V30 9538 H 906.599 -1.41966 -0.24116 0
M  V30 9539 H 908.552 -3.01862 -2.94036 0
M  V30 9540 H 907.276 -1.79403 -2.72914 0
M  V30 9541 H 905.935 -3.41223 -1.34025 0
M  V30 9542 H 905.583 -3.28075 -3.81282 0
M  V30 9543 H 905.283 -4.92705 -3.20181 0
M  V30 9544 H 906.807 -4.56115 -4.05945 0
M  V30 9545 H 908.221 -5.39273 -1.94571 0
M  V30 9546 H 906.618 -5.85732 -1.30529 0
M  V30 9547 H 907.688 -4.83803 -0.325923 0
M  V30 9548 N 909.032 0.252966 -1.55557 0
M  V30 9549 C 909.942 1.33472 -1.92931 0
M  V30 9550 C 910.958 1.52983 -0.828985 0
M  V30 9551 O 912.134 1.66723 -1.12984 0
M  V30 9552 C 909.199 2.6704 -2.21112 0
M  V30 9553 C 908.26 2.56103 -3.44542 0
M  V30 9554 C 907.493 3.83302 -3.71369 0
M  V30 9555 O 907.716 4.84907 -3.00368 0
M  V30 9556 O 906.65 3.823 -4.64898 0
M  V30 9557 H 910.476 1.04768 -2.85057 0
M  V30 9558 H 908.061 0.453208 -1.4236 0
M  V30 9559 H 909.943 3.45981 -2.40572 0
M  V30 9560 H 908.618 2.95489 -1.32166 0
M  V30 9561 H 907.525 1.7547 -3.30396 0
M  V30 9562 H 908.858 2.32601 -4.33772 0
M  V30 9563 N 910.51 1.48831 0.518367 0
M  V30 9564 C 911.787 1.47933 1.27966 0
M  V30 9565 C 912.167 0.197393 2.10175 0
M  V30 9566 O 911.515 -0.820656 2.13255 0
M  V30 9567 C 911.725 2.74816 2.15121 0
M  V30 9568 C 913.073 3.23613 2.74881 0
M  V30 9569 O 914.097 2.75814 2.254 0
M  V30 9570 O 912.956 4.06818 3.64913 0
M  V30 9571 H 910.05 0.591316 0.578164 0
M  V30 9572 H 912.596 1.61077 0.534065 0
M  V30 9573 H 911.368 3.59621 1.54234 0
M  V30 9574 H 910.991 2.64449 2.96905 0
M  V30 9575 O 912.027 -0.663479 1.47242 0
M  V30 9576 H 912.718 -1.31658 1.42077 0
M  V30 END ATOM
M  V30 BEGIN BOND
M  V30 END BOND
M  V30 END CTAB
M  END
$$$$
