drugbank_target|P49286 Melatonin receptor type 1B (DB00980; DB01065; DB02709; DB06594; DB09071)
 OpenBabel12092119293D

  0  0  0     0  0            999 V3000
M  V30 BEGIN CTAB
M  V30 COUNTS 5730 5811 0 0 0
M  V30 BEGIN ATOM
M  V30 1 H -0.908 1.98254 -0.117106 0
M  V30 2 N 0 1.576 0 0
M  V30 3 C 0.933 2.03868 1.02534 0
M  V30 4 C 1.911 0.928543 1.3348 0
M  V30 5 O 3.095 1.19667 1.45644 0
M  V30 6 C 0.222 2.43627 2.35294 0
M  V30 7 C -0.732 3.65373 2.2001 0
M  V30 8 S 0.101 5.13292 1.52614 0
M  V30 9 C 1.257 5.56322 2.86805 0
M  V30 10 H 1.49 2.90518 0.631377 0
M  V30 11 H -0.977 1.52953 0.210867 0
M  V30 12 H 0.981 2.67203 3.11629 0
M  V30 13 H -0.358 1.57376 2.7183 0
M  V30 14 H -1.165 3.90944 3.18086 0
M  V30 15 H -1.563 3.418 1.51819 0
M  V30 16 H 0.729 5.58782 3.83104 0
M  V30 17 H 1.672 6.56266 2.65933 0
M  V30 18 H 2.08 4.83886 2.90714 0
M  V30 19 N 1.4781 -0.272755 1.55222 0
M  V30 20 C 2.7031 -1.02683 1.80197 0
M  V30 21 C 3.1281 -1.79142 0.573551 0
M  V30 22 O 2.4861 -1.74917 -0.476849 0
M  V30 23 C 2.5341 -1.9609 3.02624 0
M  V30 24 O 1.6381 -3.04863 2.77727 0
M  V30 25 H 0.9791 -0.293557 0.595584 0
M  V30 26 H 3.5091 -0.30159 2.02365 0
M  V30 27 H 3.5191 -2.38039 3.31363 0
M  V30 28 H 2.1941 -1.39851 3.91682 0
M  V30 29 H 0.7711 -2.67228 2.60084 0
M  V30 30 N 2.9562 -1.48159 -0.537278 0
M  V30 31 C 3.8662 -1.64807 -1.6696 0
M  V30 32 C 4.8822 -0.530651 -1.65711 0
M  V30 33 O 6.0582 -0.800784 -1.84796 0
M  V30 34 C 3.1232 -1.67708 -3.03438 0
M  V30 35 C 2.1842 -2.91025 -3.156 0
M  V30 36 C 1.4172 -2.93778 -4.45567 0
M  V30 37 O 1.6402 -2.05153 -5.3223 0
M  V30 38 O 0.5742 -3.85868 -4.61941 0
M  V30 39 H 4.4002 -2.6066 -1.55853 0
M  V30 40 H 1.9852 -1.31475 -0.709549 0
M  V30 41 H 3.8672 -1.7218 -3.84619 0
M  V30 42 H 2.5422 -0.750278 -3.14885 0
M  V30 43 H 1.4492 -2.92089 -2.33741 0
M  V30 44 H 2.7822 -3.83065 -3.09066 0
M  V30 45 N 4.4343 0.785586 -1.36625 0
M  V30 46 C 5.3823 1.91978 -1.31329 0
M  V30 47 C 6.3763 1.68162 -0.204416 0
M  V30 48 O 7.5823 1.76122 -0.371645 0
M  V30 49 H 3.9573 0.631087 -0.408942 0
M  V30 50 H 5.9283 1.93562 -2.27104 0
M  V30 51 C 4.6773 3.29055 -1.12329 0
M  V30 52 H 4.0003 3.4795 -1.96903 0
M  V30 53 H 5.4403 4.08756 -1.12671 0
M  V30 54 C 3.8993 3.36461 0.171861 0
M  V30 55 O 4.4293 3.84576 1.16035 0
M  V30 56 N 2.6353 2.89782 0.217846 0
M  V30 57 H 2.1823 2.50819 -0.587183 0
M  V30 58 H 2.1403 2.95119 1.08408 0
M  V30 59 N 5.9124 1.20967 1.01018 0
M  V30 60 C 7.1604 1.02172 1.74371 0
M  V30 61 C 7.4814 -0.446414 1.89821 0
M  V30 62 O 6.7514 -1.32234 1.44537 0
M  V30 63 H 5.3314 0.375066 0.646014 0
M  V30 64 H 7.9934 1.52187 1.21758 0
M  V30 65 H 7.0894 1.48538 2.74487 0
M  V30 66 N 7.3905 -1.2043 1.01659 0
M  V30 67 C 8.6155 -1.94318 0.724942 0
M  V30 68 C 9.0405 -1.74266 -0.708034 0
M  V30 69 O 8.3985 -1.03694 -1.48719 0
M  V30 70 C 8.4465 -3.44486 1.06591 0
M  V30 71 O 7.5505 -4.12017 0.177599 0
M  V30 72 H 6.8915 -0.60708 0.26898 0
M  V30 73 H 9.4215 -1.52861 1.35995 0
M  V30 74 H 9.4315 -3.95106 1.01762 0
M  V30 75 H 8.1065 -3.58404 2.10997 0
M  V30 76 H 6.6835 -3.71821 0.283421 0
M  V30 77 N 8.8686 -0.792821 -1.36206 0
M  V30 78 C 10.1156 -0.366786 -1.99151 0
M  V30 79 C 10.4436 1.06243 -1.62919 0
M  V30 80 O 9.6986 1.74927 -0.877442 0
M  V30 81 C 9.9976 -0.481501 -3.54142 0
M  V30 82 C 9.6636 -1.87202 -4.10203 0
M  V30 83 C 8.3256 -2.25248 -4.25226 0
M  V30 84 C 10.6776 -2.78237 -4.40719 0
M  V30 85 C 8.0056 -3.53723 -4.68078 0
M  V30 86 C 10.3576 -4.06144 -4.85005 0
M  V30 87 C 9.0216 -4.44207 -4.98234 0
M  V30 88 H 8.2916 -0.134217 -0.728743 0
M  V30 89 H 10.9386 -1.01094 -1.62641 0
M  V30 90 H 9.2436 0.246146 -3.91026 0
M  V30 91 H 10.9406 -0.132844 -4.0078 0
M  V30 92 H 7.5306 -1.56639 -3.98951 0
M  V30 93 H 11.7146 -2.50097 -4.28679 0
M  V30 94 H 6.9706 -3.8308 -4.76508 0
M  V30 95 H 11.1446 -4.76796 -5.07581 0
M  V30 96 H 8.7716 -5.43814 -5.31197 0
M  V30 97 N 10.3467 1.47872 -0.545128 0
M  V30 98 C 11.3097 2.28337 0.198717 0
M  V30 99 C 12.3097 1.36255 0.853888 0
M  V30 100 O 13.4997 1.59003 0.711606 0
M  V30 101 C 10.6317 3.15585 1.28915 0
M  V30 102 H 11.8247 2.95567 -0.507941 0
M  V30 103 H 9.3777 1.53362 -0.301616 0
M  V30 104 H 10.1127 2.53019 2.02859 0
M  V30 105 H 9.8977 3.83337 0.824309 0
M  V30 106 H 11.3877 3.76243 1.81194 0
M  V30 107 N 11.8248 0.280983 1.55075 0
M  V30 108 C 12.7728 -0.619864 2.24188 0
M  V30 109 C 13.7668 -1.15315 1.24092 0
M  V30 110 O 14.9728 -1.1061 1.42005 0
M  V30 111 H 11.3478 -0.218459 0.719569 0
M  V30 112 H 13.3188 -0.0141831 2.98397 0
M  V30 113 C 12.0678 -1.7899 2.98091 0
M  V30 114 H 11.3908 -1.38874 3.74905 0
M  V30 115 H 12.8308 -2.39672 3.49762 0
M  V30 116 C 11.2898 -2.68192 2.03899 0
M  V30 117 O 11.8198 -3.6872 1.594 0
M  V30 118 N 10.0258 -2.35488 1.70275 0
M  V30 119 H 9.5728 -1.53787 2.06658 0
M  V30 120 H 9.5308 -2.95442 1.07524 0
M  V30 121 N 13.3029 -1.57598 0.00835791 0
M  V30 122 C 14.5429 -1.92788 -0.679136 0
M  V30 123 C 14.9069 -0.883378 -1.70471 0
M  V30 124 O 16.1079 -1.12079 -2.44319 0
M  V30 125 C 14.3789 -3.32994 -1.29807 0
M  V30 126 S 15.9379 -3.90082 -2.00952 0
M  V30 127 H 12.7559 -0.67475 -0.224127 0
M  V30 128 H 15.3579 -1.95385 0.0670497 0
M  V30 129 H 14.0619 -4.06846 -0.538922 0
M  V30 130 H 13.5929 -3.33791 -2.082 0
M  V30 131 H 15.6079 -3.71834 -3.28563 0
M  V30 132 N 14.781 0.264519 -1.55364 0
M  V30 133 C 16.021 1.00254 -1.78125 0
M  V30 134 C 16.385 1.83187 -0.575017 0
M  V30 135 O 17.586 2.60029 -0.681042 0
M  V30 136 C 15.857 1.85478 -3.05504 0
M  V30 137 S 17.416 2.6543 -3.49417 0
M  V30 138 H 14.234 0.337522 -0.625779 0
M  V30 139 H 16.836 0.272111 -1.93597 0
M  V30 140 H 15.54 1.23491 -3.9138 0
M  V30 141 H 15.071 2.62827 -2.92721 0
M  V30 142 H 17.086 3.87958 -3.09359 0
M  V30 143 N 16.2591 1.48442 0.529413 0
M  V30 144 C 17.1691 1.6569 1.66084 0
M  V30 145 C 18.1851 0.539432 1.65427 0
M  V30 146 O 19.3611 0.810572 1.84368 0
M  V30 147 C 16.4261 1.69315 3.02545 0
M  V30 148 C 15.4871 2.92694 3.14052 0
M  V30 149 C 14.7201 2.96137 4.44003 0
M  V30 150 O 14.9431 2.07973 5.31134 0
M  V30 151 O 13.8771 3.88312 4.59888 0
M  V30 152 H 17.7031 2.61483 1.54469 0
M  V30 153 H 15.2881 1.3185 0.702567 0
M  V30 154 H 17.1701 1.74217 3.83701 0
M  V30 155 H 15.8451 0.766966 3.14483 0
M  V30 156 H 14.7521 2.93324 2.32189 0
M  V30 157 H 16.0851 3.84699 3.0703 0
M  V30 158 N 17.7372 -0.778329 1.37039 0
M  V30 159 C 18.7002 -1.87301 1.32102 0
M  V30 160 C 19.7002 -1.59198 0.226405 0
M  V30 161 O 20.8902 -1.67403 0.481861 0
M  V30 162 C 18.0222 -3.24309 1.05055 0
M  V30 163 H 19.2152 -1.93093 2.29467 0
M  V30 164 H 16.7682 -0.977358 1.21973 0
M  V30 165 H 17.5032 -3.24196 0.0819373 0
M  V30 166 H 17.2882 -3.46098 1.84279 0
M  V30 167 H 18.7782 -4.04382 1.04234 0
M  V30 168 N 19.2153 -1.21501 -1.00376 0
M  V30 169 C 20.4633 -1.03095 -1.73827 0
M  V30 170 C 20.7843 0.436341 -1.90055 0
M  V30 171 O 20.0543 1.31466 -1.45236 0
M  V30 172 H 18.6343 -0.378487 -0.644016 0
M  V30 173 H 21.2963 -1.52831 -1.20949 0
M  V30 174 H 20.3923 -1.49991 -2.73695 0
M  V30 175 N 20.6934 1.19889 -1.02296 0
M  V30 176 C 21.9414 1.89046 -0.714558 0
M  V30 177 C 22.2624 1.79636 0.758681 0
M  V30 178 O 21.5324 1.20292 1.54618 0
M  V30 179 H 20.1124 0.699802 -0.261317 0
M  V30 180 H 22.7744 1.45574 -1.29592 0
M  V30 181 H 21.8704 2.95524 -1.0036 0
M  V30 182 N 22.1715 0.800033 1.35784 0
M  V30 183 C 23.4175 0.38701 1.99684 0
M  V30 184 C 23.7725 -1.03268 1.62338 0
M  V30 185 O 23.0655 -1.70543 0.87325 0
M  V30 186 C 23.2595 0.500276 3.53881 0
M  V30 187 C 23.0885 1.92942 4.06206 0
M  V30 188 C 21.8585 2.55637 4.35865 0
M  V30 189 C 24.0565 2.89307 4.25213 0
M  V30 190 N 22.0385 3.9003 4.74078 0
M  V30 191 C 23.4095 4.08556 4.66349 0
M  V30 192 C 25.4645 2.86225 4.07406 0
M  V30 193 C 24.1675 5.25146 4.91543 0
M  V30 194 C 26.1935 4.02011 4.33752 0
M  V30 195 C 25.5555 5.20007 4.75155 0
M  V30 196 H 21.6545 0.189252 0.758754 0
M  V30 197 H 24.2385 1.03988 1.64604 0
M  V30 198 H 22.4095 -0.122568 3.88207 0
M  V30 199 H 24.1415 0.0624733 4.04652 0
M  V30 200 H 20.8965 2.07039 4.25948 0
M  V30 201 H 21.3205 4.59205 4.97454 0
M  V30 202 H 25.9625 1.96154 3.74544 0
M  V30 203 H 23.6805 6.15794 5.23281 0
M  V30 204 H 27.2665 4.00999 4.21534 0
M  V30 205 H 26.1465 6.08113 4.95145 0
M  V30 206 N 23.6496 -1.47581 0.552962 0
M  V30 207 C 24.6126 -2.28439 -0.186605 0
M  V30 208 C 25.6126 -1.36706 -0.84665 0
M  V30 209 O 26.8026 -1.59378 -0.703164 0
M  V30 210 C 23.9346 -3.16264 -1.2724 0
M  V30 211 H 25.1276 -2.95294 0.523609 0
M  V30 212 H 22.6806 -1.532 0.309745 0
M  V30 213 H 23.4156 -2.54091 -2.01514 0
M  V30 214 H 23.2006 -3.83769 -0.803968 0
M  V30 215 H 24.6906 -3.77198 -1.79196 0
M  V30 216 N 25.1277 -0.289203 -1.54924 0
M  V30 217 C 26.3737 0.323998 -2.00195 0
M  V30 218 C 26.7067 1.54441 -1.17735 0
M  V30 219 O 25.9817 1.92875 -0.250878 0
M  V30 220 C 26.2647 0.692276 -3.53383 0
M  V30 221 C 26.1177 -0.536457 -4.46589 0
M  V30 222 C 27.4367 1.52335 -4.12895 0
M  V30 223 H 24.5557 0.116289 -0.727768 0
M  V30 224 H 27.1977 -0.398954 -1.85764 0
M  V30 225 H 25.3477 1.30822 -3.65811 0
M  V30 226 H 27.0197 -1.17499 -4.46085 0
M  V30 227 H 25.2627 -1.17192 -4.1767 0
M  V30 228 H 25.9337 -0.234806 -5.515 0
M  V30 229 H 28.4097 1.00302 -4.0383 0
M  V30 230 H 27.2857 1.74982 -5.20262 0
M  V30 231 H 27.5467 2.50886 -3.64018 0
M  V30 232 N 26.6058 1.57591 -0.0167156 0
M  V30 233 C 28.0218 1.55946 0.339557 0
M  V30 234 C 28.2218 1.02109 1.73713 0
M  V30 235 O 27.2778 0.662303 2.43659 0
M  V30 236 C 28.5908 3.00037 0.199499 0
M  V30 237 C 30.1388 3.11805 0.273193 0
M  V30 238 C 30.6138 4.57713 0.162068 0
M  V30 239 N 32.1048 4.6268 0.219444 0
M  V30 240 C 32.8398 5.73185 0.157054 0
M  V30 241 N 32.3358 6.92786 0.0442936 0
M  V30 242 N 34.1288 5.61707 0.21014 0
M  V30 243 H 26.2798 1.90921 -0.930758 0
M  V30 244 H 28.5428 0.877674 -0.358319 0
M  V30 245 H 28.2488 3.4333 -0.76273 0
M  V30 246 H 28.1228 3.64387 0.974786 0
M  V30 247 H 30.5098 2.68433 1.22587 0
M  V30 248 H 30.5908 2.50201 -0.532256 0
M  V30 249 H 30.2348 5.01763 -0.78714 0
M  V30 250 H 30.1648 5.17283 0.986222 0
M  V30 251 H 32.6558 3.76649 0.307246 0
M  V30 252 H 32.9688 7.728 0.00304069 0
M  V30 253 H 31.3138 6.94999 0.00968457 0
M  V30 254 H 34.5048 4.6716 0.296546 0
M  V30 255 H 34.6778 6.47807 0.158054 0
M  V30 256 N 28.0839 -0.256276 1.55502 0
M  V30 257 C 29.4949 -0.826068 1.67431 0
M  V30 258 C 29.8459 -1.86396 0.612446 0
M  V30 259 O 28.9709 -2.15031 -0.243025 0
M  V30 260 C 29.5659 -1.50512 3.03532 0
M  V30 261 C 28.1249 -2.02273 3.17431 0
M  V30 262 C 27.2719 -0.870548 2.63281 0
M  V30 263 H 30.2229 -0.0322728 1.58667 0
M  V30 264 H 30.2439 -2.37279 2.97454 0
M  V30 265 H 29.7559 -0.749484 3.80794 0
M  V30 266 H 27.8569 -2.80746 2.44974 0
M  V30 267 H 27.9699 -2.22655 4.24219 0
M  V30 268 H 26.3339 -1.26851 2.20864 0
M  V30 269 H 27.1169 -0.128149 3.43061 0
M  V30 270 N 29.562 -1.4872 -0.521534 0
M  V30 271 C 30.81 -1.56857 -1.27437 0
M  V30 272 C 31.131 -0.247982 -1.93417 0
M  V30 273 O 30.401 0.731151 -1.81744 0
M  V30 274 H 28.981 -0.577885 -0.473347 0
M  V30 275 H 31.643 -1.85233 -0.606205 0
M  V30 276 H 30.739 -2.35402 -2.0492 0
M  V30 277 N 31.0401 0.771051 -1.3745 0
M  V30 278 C 32.2861 1.53109 -1.339 0
M  V30 279 C 32.6411 1.9225 0.0758401 0
M  V30 280 O 31.9341 1.61264 1.03463 0
M  V30 281 C 32.1281 2.80676 -2.2126 0
M  V30 282 C 31.9571 2.54003 -3.71096 0
M  V30 283 C 30.7271 2.48097 -4.402 0
M  V30 284 C 32.9251 2.21953 -4.63941 0
M  V30 285 N 30.9071 2.13515 -5.75573 0
M  V30 286 C 32.2781 1.97516 -5.87697 0
M  V30 287 C 34.3331 2.08114 -4.5232 0
M  V30 288 C 33.0361 1.60638 -7.01133 0
M  V30 289 C 35.0621 1.72636 -5.65642 0
M  V30 290 C 34.4241 1.4906 -6.88448 0
M  V30 291 H 30.5231 0.56055 -0.54526 0
M  V30 292 H 33.1071 0.899472 -1.72678 0
M  V30 293 H 31.2781 3.41674 -1.84698 0
M  V30 294 H 33.0101 3.46578 -2.08963 0
M  V30 295 H 29.7651 2.63974 -3.93211 0
M  V30 296 H 30.1891 1.98919 -6.47117 0
M  V30 297 H 34.8311 2.25024 -3.57944 0
M  V30 298 H 32.5491 1.42467 -7.95443 0
M  V30 299 H 36.1351 1.62586 -5.58621 0
M  V30 300 H 35.0151 1.22014 -7.7465 0
M  V30 301 N 32.5182 1.22032 0.997298 0
M  V30 302 C 33.7432 1.06921 1.77715 0
M  V30 303 C 34.1682 -0.376226 1.84299 0
M  V30 304 O 33.5262 -1.27165 1.29223 0
M  V30 305 C 33.5742 1.67996 3.19076 0
M  V30 306 O 32.6782 0.930653 4.01762 0
M  V30 307 H 32.0192 0.375814 0.547412 0
M  V30 308 H 34.5492 1.61737 1.25309 0
M  V30 309 H 34.5592 1.72538 3.69723 0
M  V30 310 H 33.2342 2.73182 3.13599 0
M  V30 311 H 31.8112 0.960917 3.60307 0
M  V30 312 N 33.9963 -1.19345 1.0293 0
M  V30 313 C 35.2443 -1.88665 0.724574 0
M  V30 314 C 35.5653 -1.80036 -0.749144 0
M  V30 315 O 34.8353 -1.2111 -1.53978 0
M  V30 316 H 33.4153 -0.698406 0.265025 0
M  V30 317 H 36.0773 -1.44885 1.30362 0
M  V30 318 H 35.1733 -2.94987 1.01926 0
M  V30 319 N 35.4744 -0.807222 -1.35358 0
M  V30 320 C 36.4374 -0.223665 -2.28106 0
M  V30 321 C 37.4374 0.589354 -1.4961 0
M  V30 322 O 38.6274 0.407745 -1.69361 0
M  V30 323 C 35.7594 0.688149 -3.33882 0
M  V30 324 H 36.9524 -1.04169 -2.81227 0
M  V30 325 H 34.5054 -0.577921 -1.45223 0
M  V30 326 H 35.2404 1.52984 -2.85948 0
M  V30 327 H 35.0254 0.10687 -3.91954 0
M  V30 328 H 36.5154 1.09075 -4.03104 0
M  V30 329 N 36.9525 1.47285 -0.560781 0
M  V30 330 C 38.2005 2.02064 -0.0379868 0
M  V30 331 C 38.5215 1.43711 1.31803 0
M  V30 332 O 37.7915 0.61362 1.86042 0
M  V30 333 H 36.3715 0.746918 -0.0110531 0
M  V30 334 H 39.0335 1.80648 -0.731598 0
M  V30 335 H 38.1295 3.12064 0.0474463 0
M  V30 336 N 38.4306 0.297415 1.54768 0
M  V30 337 C 39.6556 -0.318435 2.04941 0
M  V30 338 C 40.0806 -1.4701 1.17345 0
M  V30 339 O 39.4386 -1.80436 0.176758 0
M  V30 340 C 39.4866 -0.755749 3.52592 0
M  V30 341 O 38.5906 -1.86088 3.68028 0
M  V30 342 H 37.9316 -0.062421 0.661059 0
M  V30 343 H 40.4616 0.438215 1.99852 0
M  V30 344 H 40.4716 -1.04552 3.94376 0
M  V30 345 H 39.1466 0.0867233 4.1581 0
M  V30 346 H 37.7236 -1.57193 3.38149 0
M  V30 347 N 39.9087 -1.5758 0.0250728 0
M  V30 348 C 40.8717 -2.08896 -0.943139 0
M  V30 349 C 41.8717 -1.00321 -1.25668 0
M  V30 350 O 43.0617 -1.26495 -1.19769 0
M  V30 351 C 40.1937 -2.55143 -2.26086 0
M  V30 352 H 41.3867 -2.95723 -0.498775 0
M  V30 353 H 38.9397 -1.54703 -0.222888 0
M  V30 354 H 39.6747 -1.71633 -2.75159 0
M  V30 355 H 39.4597 -3.34461 -2.04641 0
M  V30 356 H 40.9497 -2.95083 -2.95492 0
M  V30 357 N 41.3868 0.248026 -1.55636 0
M  V30 358 C 42.8028 0.596483 -1.48035 0
M  V30 359 C 43.0028 1.88386 -0.715039 0
M  V30 360 O 42.0588 2.51319 -0.243944 0
M  V30 361 C 43.3718 0.700258 -2.92433 0
M  V30 362 C 44.9198 0.792659 -3.02797 0
M  V30 363 C 45.3948 0.928005 -4.485 0
M  V30 364 N 46.8858 0.992903 -4.52433 0
M  V30 365 C 47.6208 1.11687 -5.62418 0
M  V30 366 N 47.1168 1.20645 -6.82214 0
M  V30 367 N 48.9098 1.14994 -5.50212 0
M  V30 368 H 41.0608 -0.597109 -2.03834 0
M  V30 369 H 43.3238 -0.205925 -0.925364 0
M  V30 370 H 43.0298 -0.175658 -3.51261 0
M  V30 371 H 42.9038 1.57255 -3.42857 0
M  V30 372 H 45.2908 1.65903 -2.4405 0
M  V30 373 H 45.3718 -0.104762 -2.55585 0
M  V30 374 H 45.0158 0.0661971 -5.07857 0
M  V30 375 H 44.9458 1.84045 -4.93391 0
M  V30 376 H 47.4368 0.935064 -3.66149 0
M  V30 377 H 47.7498 1.30008 -7.61786 0
M  V30 378 H 46.0948 1.17605 -6.84977 0
M  V30 379 H 49.2858 1.07643 -4.55555 0
M  V30 380 H 49.4588 1.24311 -6.35965 0
M  V30 381 N 42.8649 1.48995 0.513639 0
M  V30 382 C 44.2759 1.5119 1.09537 0
M  V30 383 C 44.6269 0.290906 1.94031 0
M  V30 384 O 43.7519 -0.60049 2.07902 0
M  V30 385 C 44.3469 2.73964 1.99322 0
M  V30 386 C 42.9059 2.78978 2.52682 0
M  V30 387 C 42.0529 2.44934 1.30009 0
M  V30 388 H 45.0039 1.55875 0.298125 0
M  V30 389 H 45.0249 2.53409 2.83838 0
M  V30 390 H 44.5369 3.62813 1.37799 0
M  V30 391 H 42.6379 1.94378 3.1788 0
M  V30 392 H 42.7509 3.8083 2.90698 0
M  V30 393 H 41.1149 1.9644 1.62122 0
M  V30 394 H 41.8979 3.36043 0.702131 0
M  V30 395 N 44.343 -0.763751 1.37857 0
M  V30 396 C 45.568 -1.55805 1.36893 0
M  V30 397 C 45.993 -1.88054 -0.0416135 0
M  V30 398 O 45.351 -1.49825 -1.02089 0
M  V30 399 C 45.399 -2.84012 2.22192 0
M  V30 400 O 44.503 -3.78732 1.63204 0
M  V30 401 H 43.844 -0.471638 0.46739 0
M  V30 402 H 46.374 -0.944657 1.81487 0
M  V30 403 H 46.384 -3.33037 2.35691 0
M  V30 404 H 45.059 -2.59869 3.24716 0
M  V30 405 H 43.636 -3.37402 1.58791 0
M  V30 406 N 45.8211 -1.22559 -0.990812 0
M  V30 407 C 47.2371 -0.985996 -1.255 0
M  V30 408 C 47.4371 0.319173 -1.98956 0
M  V30 409 O 46.4931 1.04127 -2.3003 0
M  V30 410 C 47.8061 -2.18607 -2.06474 0
M  V30 411 C 49.3541 -2.22985 -2.19651 0
M  V30 412 C 49.8291 -3.4255 -3.04012 0
M  V30 413 N 51.3201 -3.42725 -3.11599 0
M  V30 414 C 52.0551 -4.31892 -3.7717 0
M  V30 415 N 51.5511 -5.31279 -4.44651 0
M  V30 416 N 53.3441 -4.19662 -3.73952 0
M  V30 417 H 45.4951 -2.06469 -0.49841 0
M  V30 418 H 47.7581 -0.904853 -0.282747 0
M  V30 419 H 47.4641 -3.13267 -1.59865 0
M  V30 420 H 47.3381 -2.18838 -3.07229 0
M  V30 421 H 49.7251 -1.28871 -2.65474 0
M  V30 422 H 49.8061 -2.26791 -1.18319 0
M  V30 423 H 49.4501 -4.36965 -2.58889 0
M  V30 424 H 49.3801 -3.35984 -4.0549 0
M  V30 425 H 51.8711 -2.70807 -2.63575 0
M  V30 426 H 52.1841 -5.95593 -4.92431 0
M  V30 427 H 50.5291 -5.3519 -4.43392 0
M  V30 428 H 53.7201 -3.41268 -3.20396 0
M  V30 429 H 53.8931 -4.89358 -4.24774 0
M  V30 430 N 47.2992 1.18797 -1.03562 0
M  V30 431 C 48.5272 1.92599 -0.755869 0
M  V30 432 C 48.9422 1.75886 0.686271 0
M  V30 433 O 48.2992 1.08517 1.46732 0
M  V30 434 C 48.3502 3.44159 -1.10619 0
M  V30 435 O 48.0712 3.60341 -2.4917 0
M  V30 436 C 49.5722 4.3507 -0.850214 0
M  V30 437 H 46.7922 0.611587 -0.276048 0
M  V30 438 H 49.3362 1.50742 -1.38192 0
M  V30 439 H 47.4912 3.83823 -0.525194 0
M  V30 440 H 47.9052 4.54128 -2.62427 0
M  V30 441 H 49.3792 5.39989 -1.14523 0
M  V30 442 H 49.8562 4.38673 0.215176 0
M  V30 443 H 50.4622 4.01097 -1.41426 0
M  V30 444 N 48.7773 0.814389 1.34928 0
M  V30 445 C 50.1883 0.458364 1.80986 0
M  V30 446 C 50.5393 -1.02042 1.67577 0
M  V30 447 O 49.6643 -1.79352 1.21086 0
M  V30 448 C 50.2593 0.825212 3.28597 0
M  V30 449 C 48.8183 0.521677 3.72767 0
M  V30 450 C 47.9653 1.04668 2.56788 0
M  V30 451 H 50.9163 1.00533 1.22795 0
M  V30 452 H 50.9373 0.12571 3.80292 0
M  V30 453 H 50.4493 1.90154 3.38324 0
M  V30 454 H 48.5503 -0.545589 3.68584 0
M  V30 455 H 48.6633 1.05977 4.67232 0
M  V30 456 H 47.0273 0.468622 2.50352 0
M  V30 457 H 47.8103 2.12927 2.6929 0
M  V30 458 N 50.2554 -1.46986 0.568584 0
M  V30 459 C 51.6714 -1.57946 0.229189 0
M  V30 460 C 51.8714 -1.56567 -1.26843 0
M  V30 461 O 50.9274 -1.47511 -2.04931 0
M  V30 462 C 52.2404 -2.87963 0.865909 0
M  V30 463 C 53.7884 -3.01568 0.838188 0
M  V30 464 C 54.2634 -4.34301 1.45419 0
M  V30 465 N 55.7544 -4.40965 1.41788 0
M  V30 466 C 56.4894 -5.42256 1.86403 0
M  V30 467 N 55.9854 -6.50297 2.38926 0
M  V30 468 N 57.7784 -5.3337 1.77405 0
M  V30 469 H 49.9294 -1.46126 1.54146 0
M  V30 470 H 52.1924 -0.696156 0.643484 0
M  V30 471 H 51.8984 -2.94742 1.91886 0
M  V30 472 H 51.7724 -3.75423 0.365687 0
M  V30 473 H 54.1594 -2.94379 -0.206106 0
M  V30 474 H 54.2404 -2.1562 1.37629 0
M  V30 475 H 53.8844 -4.42247 2.49761 0
M  V30 476 H 53.8144 -5.19 0.891435 0
M  V30 477 H 56.3054 -3.63484 1.03381 0
M  V30 478 H 56.6184 -7.23777 2.70863 0
M  V30 479 H 54.9634 -6.51155 2.42944 0
M  V30 480 H 58.1544 -4.47865 1.3614 0
M  V30 481 H 58.3274 -6.12169 2.12492 0
M  V30 482 N 51.7335 -0.305618 -1.54608 0
M  V30 483 C 53.1445 0.186098 -1.8577 0
M  V30 484 C 53.4955 1.53058 -1.22751 0
M  V30 485 O 52.6205 2.09888 -0.526893 0
M  V30 486 C 53.2155 0.344449 -3.37044 0
M  V30 487 C 51.7745 0.780384 -3.68221 0
M  V30 488 C 50.9215 -0.108554 -2.77087 0
M  V30 489 H 53.8725 -0.526485 -1.49712 0
M  V30 490 H 53.8935 1.17828 -3.61796 0
M  V30 491 H 53.4055 -0.634235 -3.82883 0
M  V30 492 H 51.5065 1.76945 -3.27904 0
M  V30 493 H 51.6195 0.596572 -4.75371 0
M  V30 494 H 49.9835 0.412931 -2.5133 0
M  V30 495 H 50.7665 -1.08368 -3.25747 0
M  V30 496 N 53.2116 1.57565 -0.0334293 0
M  V30 497 C 54.6226 1.79746 0.504798 0
M  V30 498 C 54.9736 0.944091 1.71992 0
M  V30 499 O 54.0986 0.155694 2.15839 0
M  V30 500 C 54.6936 3.25997 0.922567 0
M  V30 501 C 53.2526 3.49159 1.40588 0
M  V30 502 C 52.3996 2.74785 0.372633 0
M  V30 503 H 55.3506 1.56565 -0.259436 0
M  V30 504 H 55.3716 3.35945 1.78666 0
M  V30 505 H 54.8836 3.88081 0.0379825 0
M  V30 506 H 52.9846 2.92332 2.31025 0
M  V30 507 H 53.0976 4.57873 1.41028 0
M  V30 508 H 51.4616 2.40391 0.841672 0
M  V30 509 H 52.2446 3.39587 -0.503559 0
M  V30 510 N 54.6897 -0.239769 1.55765 0
M  V30 511 C 55.9357 -0.963942 1.79108 0
M  V30 512 C 56.2907 -1.82689 0.60352 0
M  V30 513 O 55.5837 -1.87313 -0.403033 0
M  V30 514 C 55.7777 -1.852 3.05672 0
M  V30 515 C 55.6067 -1.07651 4.36625 0
M  V30 516 C 54.3767 -0.778738 4.99263 0
M  V30 517 C 56.5747 -0.45062 5.12322 0
M  V30 518 N 54.5567 0.0200708 6.13897 0
M  V30 519 C 55.9277 0.212429 6.19636 0
M  V30 520 C 57.9827 -0.361806 4.96584 0
M  V30 521 C 56.6857 0.955772 7.12922 0
M  V30 522 C 58.7117 0.368023 5.90254 0
M  V30 523 C 58.0737 1.01968 6.96981 0
M  V30 524 H 54.1727 -0.333601 0.707272 0
M  V30 525 H 56.7567 -0.236425 1.93259 0
M  V30 526 H 54.9277 -2.55149 2.92837 0
M  V30 527 H 56.6597 -2.51228 3.1728 0
M  V30 528 H 53.4147 -1.09229 4.60832 0
M  V30 529 H 53.8387 0.407777 6.75771 0
M  V30 530 H 58.4807 -0.851286 4.14141 0
M  V30 531 H 56.1987 1.45683 7.9486 0
M  V30 532 H 59.7847 0.437504 5.80153 0
M  V30 533 H 58.6647 1.5754 7.68213 0
M  V30 534 N 56.1678 -1.49265 -0.50573 0
M  V30 535 C 57.4138 -1.58748 -1.26202 0
M  V30 536 C 57.7468 -0.271227 -1.92297 0
M  V30 537 O 57.0218 0.724831 -1.80489 0
M  V30 538 C 57.3048 -2.74332 -2.33268 0
M  V30 539 C 57.1578 -4.15737 -1.71705 0
M  V30 540 C 58.4768 -2.85576 -3.34865 0
M  V30 541 H 55.5958 -0.577826 -0.457478 0
M  V30 542 H 58.2378 -1.81532 -0.560897 0
M  V30 543 H 56.3878 -2.55036 -2.93068 0
M  V30 544 H 58.0598 -4.46537 -1.15769 0
M  V30 545 H 56.3028 -4.21605 -1.02135 0
M  V30 546 H 56.9738 -4.92477 -2.49341 0
M  V30 547 H 59.4498 -3.03127 -2.8505 0
M  V30 548 H 58.3258 -3.68135 -4.07146 0
M  V30 549 H 58.5868 -1.94732 -3.96903 0
M  V30 550 N 57.6459 0.756429 -1.3826 0
M  V30 551 C 58.6089 1.85176 -1.35065 0
M  V30 552 C 59.6089 1.58818 -0.251703 0
M  V30 553 O 60.7989 1.66615 -0.508433 0
M  V30 554 C 57.9309 3.22596 -1.10201 0
M  V30 555 H 59.1239 1.89417 -2.3251 0
M  V30 556 H 56.6769 0.95783 -1.23512 0
M  V30 557 H 57.4119 3.24025 -0.133504 0
M  V30 558 H 57.1969 3.43122 -1.89762 0
M  V30 559 H 58.6869 4.02673 -1.10654 0
M  V30 560 N 59.124 1.23083 0.984299 0
M  V30 561 C 60.535 1.05609 1.5396 0
M  V30 562 C 60.886 -0.377793 1.92528 0
M  V30 563 O 60.011 -1.26398 1.75649 0
M  V30 564 C 60.606 1.91087 2.7977 0
M  V30 565 C 59.165 1.77885 3.31713 0
M  V30 566 C 58.312 1.87028 2.04733 0
M  V30 567 H 61.263 1.36802 0.804419 0
M  V30 568 H 61.284 1.43336 3.5247 0
M  V30 569 H 60.796 2.9544 2.51668 0
M  V30 570 H 58.897 0.762995 3.64704 0
M  V30 571 H 59.01 2.61047 4.01735 0
M  V30 572 H 57.374 1.30565 2.18689 0
M  V30 573 H 58.157 2.92929 1.79017 0
M  V30 574 N 60.6021 -1.18246 1.0419 0
M  V30 575 C 61.5651 -2.20128 0.638452 0
M  V30 576 C 62.5651 -1.57885 -0.304805 0
M  V30 577 O 63.7551 -1.73967 -0.0900369 0
M  V30 578 C 60.8871 -3.4084 -0.0637751 0
M  V30 579 H 62.0801 -2.57336 1.54007 0
M  V30 580 H 59.6331 -1.32152 0.834598 0
M  V30 581 H 60.3681 -3.09166 -0.979136 0
M  V30 582 H 60.1531 -3.8726 0.614198 0
M  V30 583 H 61.6431 -4.16274 -0.332512 0
M  V30 584 N 62.0802 -0.821533 -1.34494 0
M  V30 585 C 63.0102 -0.257138 -2.3208 0
M  V30 586 C 63.9912 0.625645 -1.58176 0
M  V30 587 O 65.1762 0.552811 -1.86166 0
M  V30 588 C 62.3062 0.582958 -3.42372 0
M  V30 589 C 61.2602 -0.202571 -4.2752 0
M  V30 590 C 60.5862 0.760179 -5.29269 0
M  V30 591 C 61.8862 -1.40998 -5.02908 0
M  V30 592 H 63.5802 -1.07247 -2.79532 0
M  V30 593 H 61.1262 -0.517163 -1.34393 0
M  V30 594 H 63.0792 0.987972 -4.09655 0
M  V30 595 H 61.8032 1.43133 -2.93565 0
M  V30 596 H 60.4622 -0.588936 -3.61838 0
M  V30 597 H 60.1102 1.60447 -4.76724 0
M  V30 598 H 59.8102 0.238809 -5.87115 0
M  V30 599 H 61.3342 1.16308 -5.9942 0
M  V30 600 H 62.7482 -1.07905 -5.63054 0
M  V30 601 H 61.1452 -1.86689 -5.70322 0
M  V30 602 H 62.2152 -2.1889 -4.32684 0
M  V30 603 N 63.5583 1.46682 -0.576371 0
M  V30 604 C 64.7833 2.07304 -0.0630475 0
M  V30 605 C 65.2083 1.42329 1.2298 0
M  V30 606 O 64.5663 0.504865 1.74129 0
M  V30 607 C 64.6143 3.60472 0.095895 0
M  V30 608 O 63.7183 3.95927 1.15394 0
M  V30 609 H 63.0593 0.661288 -0.0599463 0
M  V30 610 H 65.5893 1.88417 -0.797511 0
M  V30 611 H 65.5993 4.06865 0.304071 0
M  V30 612 H 64.2743 4.07157 -0.84828 0
M  V30 613 H 62.8513 3.61252 0.924724 0
M  V30 614 N 65.0364 0.313813 1.54444 0
M  V30 615 C 65.9994 -0.54379 2.22656 0
M  V30 616 C 66.9994 -1.05124 1.21678 0
M  V30 617 O 68.1894 -0.945225 1.46325 0
M  V30 618 C 65.3214 -1.75427 2.92298 0
M  V30 619 H 66.5144 0.0523599 2.99854 0
M  V30 620 H 64.0674 0.0647834 1.56166 0
M  V30 621 H 64.8024 -2.38991 2.19211 0
M  V30 622 H 64.5874 -1.39791 3.66334 0
M  V30 623 H 66.0774 -2.36325 3.44297 0
M  V30 624 N 66.5145 -1.57545 0.0417849 0
M  V30 625 C 67.7605 -1.92601 -0.635021 0
M  V30 626 C 68.0935 -0.919627 -1.71045 0
M  V30 627 O 67.3685 0.0557892 -1.9442 0
M  V30 628 C 67.6515 -3.38085 -1.23979 0
M  V30 629 C 67.5045 -4.49467 -0.173057 0
M  V30 630 C 68.8235 -3.83776 -2.15416 0
M  V30 631 H 65.9425 -0.700397 -0.229374 0
M  V30 632 H 68.5845 -1.89728 0.101633 0
M  V30 633 H 66.7345 -3.40664 -1.86762 0
M  V30 634 H 68.4065 -4.59018 0.458312 0
M  V30 635 H 66.6495 -4.30909 0.499996 0
M  V30 636 H 67.3205 -5.48323 -0.636054 0
M  V30 637 H 69.7965 -3.83013 -1.62605 0
M  V30 638 H 68.6725 -4.8624 -2.54679 0
M  V30 639 H 68.9335 -3.19998 -3.05047 0
M  V30 640 N 67.9926 0.231505 -1.5589 0
M  V30 641 C 68.9226 1.29022 -1.94617 0
M  V30 642 C 69.9036 1.4941 -0.813067 0
M  V30 643 O 71.0886 1.6176 -1.07459 0
M  V30 644 C 68.2186 2.64199 -2.25424 0
M  V30 645 C 67.1726 2.58484 -3.41131 0
M  V30 646 C 66.4986 3.97599 -3.57518 0
M  V30 647 C 67.7986 2.1413 -4.76388 0
M  V30 648 H 69.4926 0.968563 -2.83301 0
M  V30 649 H 67.0386 0.464479 -1.36303 0
M  V30 650 H 68.9916 3.38413 -2.51107 0
M  V30 651 H 67.7156 2.98032 -1.33583 0
M  V30 652 H 66.3746 1.86727 -3.15481 0
M  V30 653 H 66.0226 4.28723 -2.6307 0
M  V30 654 H 65.7226 3.94659 -4.35337 0
M  V30 655 H 67.2466 4.7349 -3.85538 0
M  V30 656 H 68.6606 2.78083 -5.01341 0
M  V30 657 H 67.0576 2.2227 -5.57419 0
M  V30 658 H 68.1276 1.09331 -4.72414 0
M  V30 659 N 69.4707 1.49531 0.497807 0
M  V30 660 C 70.7197 1.58426 1.24837 0
M  V30 661 C 71.0327 0.277643 1.93619 0
M  V30 662 O 72.2387 0.24517 2.70391 0
M  V30 663 C 70.6947 2.79538 2.26686 0
M  V30 664 C 70.3027 4.16971 1.63828 0
M  V30 665 C 72.0467 2.97764 3.0255 0
M  V30 666 C 69.9537 5.29301 2.63807 0
M  V30 667 H 68.8837 0.58989 0.469623 0
M  V30 668 H 71.5347 1.75923 0.521857 0
M  V30 669 H 69.9167 2.55542 3.02514 0
M  V30 670 H 71.0907 4.51116 0.939711 0
M  V30 671 H 69.4057 4.04129 1.00342 0
M  V30 672 H 72.0027 3.78856 3.77323 0
M  V30 673 H 72.3457 2.08448 3.60354 0
M  V30 674 H 72.8787 3.21815 2.33838 0
M  V30 675 H 69.6177 6.20687 2.10779 0
M  V30 676 H 69.1377 4.99606 3.31894 0
M  V30 677 H 70.8167 5.58768 3.2617 0
M  V30 678 N 70.9488 -0.749086 1.3866 0
M  V30 679 C 72.1948 -1.51056 1.35314 0
M  V30 680 C 72.5278 -1.94121 -0.0553751 0
M  V30 681 O 71.8028 -1.65763 -1.01749 0
M  V30 682 C 72.0858 -2.76003 2.31288 0
M  V30 683 C 71.9388 -2.39047 3.8102 0
M  V30 684 C 73.2578 -3.78046 2.2532 0
M  V30 685 H 70.3768 -0.547972 0.492844 0
M  V30 686 H 73.0188 -0.857628 1.69543 0
M  V30 687 H 71.1688 -3.31716 2.02229 0
M  V30 688 H 72.8408 -1.89074 4.20771 0
M  V30 689 H 71.0838 -1.71449 3.98482 0
M  V30 690 H 71.7548 -3.28462 4.4364 0
M  V30 691 H 74.2308 -3.31884 2.50983 0
M  V30 692 H 73.1068 -4.63159 2.94576 0
M  V30 693 H 73.3678 -4.23957 1.25352 0
M  V30 694 N 72.4269 -1.23603 -0.977757 0
M  V30 695 C 73.6549 -1.09646 -1.75458 0
M  V30 696 C 74.0699 0.351859 -1.85492 0
M  V30 697 O 73.4269 1.24327 -1.336 0
M  V30 698 C 73.4779 -1.71895 -3.18016 0
M  V30 699 O 73.1989 -3.11063 -3.08498 0
M  V30 700 C 74.6999 -1.63415 -4.12081 0
M  V30 701 H 71.9199 -0.38359 -0.550545 0
M  V30 702 H 74.4639 -1.63507 -1.22824 0
M  V30 703 H 72.6189 -1.22061 -3.67668 0
M  V30 704 H 73.0329 -3.41305 -3.9826 0
M  V30 705 H 74.5069 -2.11669 -5.09804 0
M  V30 706 H 74.9839 -0.593462 -4.35172 0
M  V30 707 H 75.5899 -2.12628 -3.68334 0
M  V30 708 N 73.905 1.17692 -1.04816 0
M  V30 709 C 75.133 1.91786 -0.776254 0
M  V30 710 C 75.548 1.76604 0.667577 0
M  V30 711 O 74.905 1.10067 1.45573 0
M  V30 712 C 74.956 3.42967 -1.14263 0
M  V30 713 O 74.677 3.57678 -2.52978 0
M  V30 714 C 76.178 4.34144 -0.896311 0
M  V30 715 H 73.398 0.608624 -0.282519 0
M  V30 716 H 75.942 1.49268 -1.39783 0
M  V30 717 H 74.097 3.83245 -0.565874 0
M  V30 718 H 74.511 4.51319 -2.67229 0
M  V30 719 H 75.985 5.38744 -1.20244 0
M  V30 720 H 76.462 4.38876 0.168636 0
M  V30 721 H 77.068 3.99574 -1.45672 0
M  V30 722 N 75.3831 0.828654 1.34056 0
M  V30 723 C 76.3461 0.259927 2.27721 0
M  V30 724 C 77.3461 -0.565478 1.50529 0
M  V30 725 O 78.5361 -0.38075 1.69988 0
M  V30 726 C 75.6681 -0.634944 3.34935 0
M  V30 727 H 76.8611 1.0863 2.79534 0
M  V30 728 H 74.4141 0.600951 1.44285 0
M  V30 729 H 75.1491 -1.48416 2.88346 0
M  V30 730 H 74.9341 -0.0444999 3.92075 0
M  V30 731 H 76.4241 -1.02648 4.04788 0
M  V30 732 N 76.8612 -1.46375 0.584142 0
M  V30 733 C 78.1072 -2.02678 0.0703716 0
M  V30 734 C 78.4402 -1.4545 -1.28678 0
M  V30 735 O 77.7152 -0.62014 -1.84349 0
M  V30 736 C 77.9982 -3.60099 0.00614674 0
M  V30 737 C 77.8512 -4.27709 1.3923 0
M  V30 738 C 79.1702 -4.34598 -0.693742 0
M  V30 739 H 76.2892 -0.736504 0.027047 0
M  V30 740 H 78.9312 -1.74501 0.751615 0
M  V30 741 H 77.0812 -3.84236 -0.574009 0
M  V30 742 H 78.7532 -4.14832 2.01773 0
M  V30 743 H 76.9962 -3.87016 1.95962 0
M  V30 744 H 77.6672 -5.36478 1.29982 0
M  V30 745 H 80.1432 -4.15615 -0.200869 0
M  V30 746 H 79.0192 -5.44318 -0.707714 0
M  V30 747 H 79.2802 -4.05759 -1.75533 0
M  V30 748 N 78.3393 -0.321999 -1.54275 0
M  V30 749 C 79.6163 0.335232 -1.92706 0
M  V30 750 C 79.9963 1.70006 -1.25145 0
M  V30 751 O 79.3443 2.25067 -0.394596 0
M  V30 752 C 79.5543 0.429008 -3.46353 0
M  V30 753 C 80.9023 0.690029 -4.18956 0
M  V30 754 O 81.9263 0.511992 -3.52501 0
M  V30 755 O 80.7853 1.03338 -5.36641 0
M  V30 756 H 77.8793 0.191143 -0.804608 0
M  V30 757 H 80.4253 -0.3716 -1.65581 0
M  V30 758 H 79.1973 -0.529611 -3.87699 0
M  V30 759 H 78.8203 1.18348 -3.79578 0
M  V30 760 N 79.8174 1.5752 -0.0501392 0
M  V30 761 C 81.0634 1.92936 0.624798 0
M  V30 762 C 81.3964 0.928685 1.70555 0
M  V30 763 O 80.6714 -0.0454779 1.94447 0
M  V30 764 C 80.9544 3.38737 1.22185 0
M  V30 765 C 80.8074 4.49552 0.149218 0
M  V30 766 C 82.1264 3.84913 2.13378 0
M  V30 767 H 79.2454 0.701604 0.225657 0
M  V30 768 H 81.8874 1.89671 -0.111693 0
M  V30 769 H 80.0374 3.4165 1.84953 0
M  V30 770 H 81.7094 4.58768 -0.482648 0
M  V30 771 H 79.9524 4.30638 -0.522841 0
M  V30 772 H 80.6234 5.48653 0.606966 0
M  V30 773 H 83.0994 3.8387 1.60572 0
M  V30 774 H 81.9754 4.87584 2.52097 0
M  V30 775 H 82.2364 3.21611 3.03346 0
M  V30 776 N 81.2955 -0.223234 1.56011 0
M  V30 777 C 82.5415 -0.949279 1.79211 0
M  V30 778 C 82.8745 -1.84054 0.619494 0
M  V30 779 O 82.1495 -1.90726 -0.381317 0
M  V30 780 C 82.4325 -1.78965 3.12479 0
M  V30 781 C 82.2855 -0.924997 4.40186 0
M  V30 782 C 83.6045 -2.76774 3.42175 0
M  V30 783 H 80.7235 -0.343676 0.651963 0
M  V30 784 H 83.3655 -0.218253 1.88742 0
M  V30 785 H 81.5155 -2.41291 3.04485 0
M  V30 786 H 83.1875 -0.318615 4.60198 0
M  V30 787 H 81.4305 -0.230344 4.33188 0
M  V30 788 H 82.1015 -1.54735 5.29869 0
M  V30 789 H 84.5775 -2.24584 3.50287 0
M  V30 790 H 83.4535 -3.32678 4.36597 0
M  V30 791 H 83.7145 -3.54429 2.64258 0
M  V30 792 N 82.7736 -1.49793 -0.48987 0
M  V30 793 C 84.0216 -1.59525 -1.24081 0
M  V30 794 C 84.3426 -0.288953 -1.92847 0
M  V30 795 O 83.6126 0.692436 -1.83254 0
M  V30 796 H 82.1926 -0.587796 -0.460983 0
M  V30 797 H 84.8546 -1.86477 -0.566778 0
M  V30 798 H 83.9506 -2.39696 -1.99881 0
M  V30 799 N 84.2517 0.741722 -1.39055 0
M  V30 800 C 85.1997 1.87702 -1.3737 0
M  V30 801 C 86.1937 1.67427 -0.257812 0
M  V30 802 O 87.3997 1.7485 -0.427489 0
M  V30 803 H 83.7747 0.617757 -0.428812 0
M  V30 804 H 85.7457 1.86239 -2.33147 0
M  V30 805 C 84.4947 3.25315 -1.22741 0
M  V30 806 H 83.8177 3.41509 -2.07873 0
M  V30 807 H 85.2577 4.04964 -1.25618 0
M  V30 808 C 83.7167 3.36838 0.0647316 0
M  V30 809 O 84.2467 3.88073 1.03741 0
M  V30 810 N 82.4527 2.90329 0.125544 0
M  V30 811 H 81.9997 2.48823 -0.666682 0
M  V30 812 H 81.9577 2.98418 0.989639 0
M  V30 813 N 85.7298 1.2412 0.971189 0
M  V30 814 C 86.6598 1.05508 2.08304 0
M  V30 815 C 87.6408 -0.0308864 1.70072 0
M  V30 816 O 88.8258 0.135521 1.93727 0
M  V30 817 C 85.9558 0.655365 3.4106 0
M  V30 818 C 84.9098 1.68971 3.93234 0
M  V30 819 C 84.2358 1.14516 5.22293 0
M  V30 820 C 85.5358 3.08487 4.21465 0
M  V30 821 H 87.2298 1.98507 2.24132 0
M  V30 822 H 84.7758 0.955821 1.07704 0
M  V30 823 H 86.7288 0.51217 4.18276 0
M  V30 824 H 85.4528 -0.31032 3.25122 0
M  V30 825 H 84.1118 1.82106 3.18171 0
M  V30 826 H 83.7598 0.170189 5.02712 0
M  V30 827 H 83.4598 1.83635 5.58168 0
M  V30 828 H 84.9838 1.01401 6.02121 0
M  V30 829 H 86.3978 2.98601 4.89398 0
M  V30 830 H 84.7948 3.74926 4.68562 0
M  V30 831 H 85.8648 3.56787 3.28376 0
M  V30 832 N 87.2079 -1.17134 1.05439 0
M  V30 833 C 88.1379 -2.2342 0.678649 0
M  V30 834 C 89.1189 -1.66971 -0.32476 0
M  V30 835 O 90.3039 -1.93149 -0.201802 0
M  V30 836 C 87.4339 -3.47256 0.0552099 0
M  V30 837 C 86.3879 -4.16543 0.98365 0
M  V30 838 C 85.7139 -5.34231 0.223961 0
M  V30 839 C 87.0139 -4.68495 2.3089 0
M  V30 840 H 88.7079 -2.55105 1.56722 0
M  V30 841 H 86.2539 -1.2262 0.754998 0
M  V30 842 H 88.2069 -4.20828 -0.21946 0
M  V30 843 H 86.9309 -3.14846 -0.868319 0
M  V30 844 H 85.5899 -3.44887 1.24293 0
M  V30 845 H 85.2379 -4.98071 -0.702412 0
M  V30 846 H 84.9379 -5.81527 0.842627 0
M  V30 847 H 86.4619 -6.10585 -0.0433671 0
M  V30 848 H 87.8759 -5.33691 2.09396 0
M  V30 849 H 86.2729 -5.26379 2.88176 0
M  V30 850 H 87.3429 -3.85169 2.94572 0
M  V30 851 N 88.686 -0.835752 -1.33615 0
M  V30 852 C 89.932 -0.430596 -1.98176 0
M  V30 853 C 90.265 1.00684 -1.66061 0
M  V30 854 O 89.54 1.70339 -0.938877 0
M  V30 855 C 89.823 -0.648065 -3.5422 0
M  V30 856 C 89.676 -2.13255 -3.96033 0
M  V30 857 C 90.995 -0.0922113 -4.40003 0
M  V30 858 H 88.114 -0.157924 -0.719881 0
M  V30 859 H 90.756 -1.05069 -1.58305 0
M  V30 860 H 88.906 -0.120237 -3.88314 0
M  V30 861 H 90.578 -2.725 -3.72211 0
M  V30 862 H 88.821 -2.61823 -3.45878 0
M  V30 863 H 89.492 -2.23547 -5.04708 0
M  V30 864 H 91.968 -0.543343 -4.12537 0
M  V30 865 H 90.844 -0.274083 -5.48215 0
M  V30 866 H 91.105 1.00378 -4.30554 0
M  V30 867 N 90.1641 1.46063 -0.591896 0
M  V30 868 C 91.4131 2.01547 -0.0786637 0
M  V30 869 C 91.7261 1.46796 1.29268 0
M  V30 870 O 92.9321 1.94157 1.89777 0
M  V30 871 C 91.3881 3.59787 -0.0900024 0
M  V30 872 C 90.9961 4.23534 -1.46023 0
M  V30 873 C 92.7401 4.22895 0.368806 0
M  V30 874 C 90.6471 5.73881 -1.4288 0
M  V30 875 H 89.5771 0.753564 -0.0256388 0
M  V30 876 H 92.2281 1.677 -0.744905 0
M  V30 877 H 90.6101 3.90752 0.642586 0
M  V30 878 H 91.7841 4.04167 -2.21328 0
M  V30 879 H 90.0991 3.72558 -1.85982 0
M  V30 880 H 92.6961 5.33116 0.411258 0
M  V30 881 H 93.0391 3.9247 1.38827 0
M  V30 882 H 93.5721 3.9659 -0.31001 0
M  V30 883 H 90.3111 6.0898 -2.42536 0
M  V30 884 H 89.8311 5.95486 -0.718095 0
M  V30 885 H 91.5101 6.36776 -1.14565 0
M  V30 886 N 91.6422 0.330177 1.54103 0
M  V30 887 C 92.5722 -0.525353 2.27513 0
M  V30 888 C 93.5532 -1.11383 1.2856 0
M  V30 889 O 94.7382 -1.13773 1.57383 0
M  V30 890 C 91.8682 -1.6831 3.03791 0
M  V30 891 C 90.8222 -1.2236 4.10137 0
M  V30 892 C 90.1482 -2.46882 4.74293 0
M  V30 893 C 91.4482 -0.333697 5.21233 0
M  V30 894 H 93.1422 0.087013 2.99274 0
M  V30 895 H 90.6882 0.0432893 1.43935 0
M  V30 896 H 92.6412 -2.28795 3.5388 0
M  V30 897 H 91.3652 -2.32216 2.29659 0
M  V30 898 H 90.0242 -0.64165 3.60941 0
M  V30 899 H 89.6722 -3.09165 3.96769 0
M  V30 900 H 89.3722 -2.16825 5.46133 0
M  V30 901 H 90.8962 -3.08117 5.27159 0
M  V30 902 H 92.3102 -0.845013 5.67038 0
M  V30 903 H 90.7072 -0.125612 5.99969 0
M  V30 904 H 91.7772 0.633724 4.80741 0
M  V30 905 N 93.1203 -1.57491 0.0584922 0
M  V30 906 C 94.3453 -1.97711 -0.62652 0
M  V30 907 C 94.7703 -0.936132 -1.63151 0
M  V30 908 O 94.1283 0.099811 -1.81025 0
M  V30 909 C 94.1763 -3.36989 -1.28338 0
M  V30 910 O 93.2803 -3.35433 -2.39913 0
M  V30 911 H 92.6213 -0.643868 -0.162266 0
M  V30 912 H 95.1513 -2.04193 0.129064 0
M  V30 913 H 95.1613 -3.73879 -1.63335 0
M  V30 914 H 93.8363 -4.12289 -0.546889 0
M  V30 915 H 92.4133 -3.10298 -2.06809 0
M  V30 916 N 94.5984 0.214957 -1.56127 0
M  V30 917 C 95.8444 0.939762 -1.79712 0
M  V30 918 C 96.1774 1.83723 -0.629247 0
M  V30 919 O 95.4524 1.90925 0.371197 0
M  V30 920 C 95.7354 1.77306 -3.13424 0
M  V30 921 C 95.5884 0.90164 -4.40671 0
M  V30 922 C 96.9074 2.74956 -3.43638 0
M  V30 923 H 94.0264 0.340214 -0.653776 0
M  V30 924 H 96.6684 0.20824 -1.88855 0
M  V30 925 H 94.8184 2.39673 -3.0576 0
M  V30 926 H 96.4904 0.294206 -4.60361 0
M  V30 927 H 94.7334 0.207368 -4.33304 0
M  V30 928 H 95.4044 1.51923 -5.30682 0
M  V30 929 H 97.8804 2.22724 -3.51473 0
M  V30 930 H 96.7564 3.30358 -4.38355 0
M  V30 931 H 97.0174 3.53023 -2.66134 0
M  V30 932 N 96.0765 1.50051 0.48192 0
M  V30 933 C 97.0065 1.71046 1.58951 0
M  V30 934 C 97.9875 0.559288 1.60642 0
M  V30 935 O 99.1725 0.797243 1.77081 0
M  V30 936 C 96.3025 1.79462 2.97339 0
M  V30 937 C 95.2565 2.94558 3.10515 0
M  V30 938 C 94.5825 2.88105 4.50444 0
M  V30 939 C 95.8825 4.35227 2.88747 0
M  V30 940 H 97.5765 2.6378 1.41635 0
M  V30 941 H 95.1225 1.26936 0.679942 0
M  V30 942 H 97.0755 1.92734 3.74742 0
M  V30 943 H 95.7995 0.833412 3.15788 0
M  V30 944 H 94.4585 2.80918 2.35543 0
M  V30 945 H 94.1065 1.89853 4.65795 0
M  V30 946 H 93.8065 3.65366 4.60197 0
M  V30 947 H 95.3305 3.03412 5.29881 0
M  V30 948 H 96.7445 4.49449 3.55905 0
M  V30 949 H 95.1415 5.13856 3.09955 0
M  V30 950 H 96.2115 4.48347 1.84696 0
M  V30 951 N 97.5546 -0.734337 1.39446 0
M  V30 952 C 98.9706 -1.03997 1.21065 0
M  V30 953 C 99.1706 -2.01369 0.0727019 0
M  V30 954 O 98.2266 -2.45856 -0.575426 0
M  V30 955 C 99.5396 -1.60163 2.54496 0
M  V30 956 C 101.088 -1.7224 2.61347 0
M  V30 957 C 101.563 -2.31814 3.95002 0
M  V30 958 N 103.054 -2.39223 3.96644 0
M  V30 959 C 103.789 -2.86258 4.96834 0
M  V30 960 N 103.285 -3.33184 6.07421 0
M  V30 961 N 105.078 -2.85473 4.84213 0
M  V30 962 H 97.2286 -0.0885624 2.12215 0
M  V30 963 H 99.4916 -0.10191 0.942506 0
M  V30 964 H 99.1976 -0.960811 3.38321 0
M  V30 965 H 99.0716 -2.5896 2.74262 0
M  V30 966 H 101.459 -2.35443 1.77906 0
M  V30 967 H 101.54 -0.720939 2.4543 0
M  V30 968 H 101.184 -1.69238 4.78875 0
M  V30 969 H 101.114 -3.32638 4.08239 0
M  V30 970 H 103.605 -2.06057 3.16779 0
M  V30 971 H 103.918 -3.67586 6.7978 0
M  V30 972 H 102.263 -3.31191 6.11013 0
M  V30 973 H 105.454 -2.48136 3.96921 0
M  V30 974 H 105.627 -3.21814 5.62441 0
M  V30 975 N 99.0327 -1.24633 -0.964593 0
M  V30 976 C 99.9807 -1.03917 -2.08096 0
M  V30 977 C 100.975 0.0268581 -1.69379 0
M  V30 978 O 102.181 -0.127952 -1.79545 0
M  V30 979 H 98.5557 -0.319044 -0.680966 0
M  V30 980 H 100.527 -1.98581 -2.22729 0
M  V30 981 C 99.2757 -0.663983 -3.41301 0
M  V30 982 H 98.5987 -1.47605 -3.71555 0
M  V30 983 H 100.039 -0.558663 -4.20303 0
M  V30 984 C 98.4977 0.629169 -3.30973 0
M  V30 985 O 99.0277 1.67404 -3.65156 0
M  V30 986 N 97.2337 0.611057 -2.84103 0
M  V30 987 H 96.7807 -0.239593 -2.56483 0
M  V30 988 H 96.7387 1.47647 -2.77575 0
M  V30 989 N 100.511 1.16574 -1.06058 0
M  V30 990 C 101.927 1.3904 -0.783585 0
M  V30 991 C 102.127 1.91784 0.618145 0
M  V30 992 O 101.183 2.11511 1.37911 0
M  V30 993 C 102.496 2.37329 -1.84649 0
M  V30 994 C 104.044 2.51018 -1.86973 0
M  V30 995 C 104.519 3.52588 -2.92311 0
M  V30 996 N 106.01 3.60113 -2.91329 0
M  V30 997 C 106.745 4.38486 -3.69482 0
M  V30 998 N 106.241 5.20302 -4.57447 0
M  V30 999 N 108.034 4.33446 -3.57885 0
M  V30 1000 H 100.185 0.806725 -1.96483 0
M  V30 1001 H 102.448 0.417117 -0.851303 0
M  V30 1002 H 102.154 2.05663 -2.85299 0
M  V30 1003 H 102.028 3.36946 -1.6955 0
M  V30 1004 H 104.415 2.81989 -0.869827 0
M  V30 1005 H 104.496 1.51445 -2.0615 0
M  V30 1006 H 104.14 3.22354 -3.92492 0
M  V30 1007 H 104.07 4.51886 -2.70383 0
M  V30 1008 H 106.561 3.01707 -2.27555 0
M  V30 1009 H 106.874 5.77311 -5.13743 0
M  V30 1010 H 105.219 5.19653 -4.61503 0
M  V30 1011 H 108.41 3.68586 -2.88551 0
M  V30 1012 H 108.583 4.94279 -4.19037 0
M  V30 1013 N 101.989 0.842826 1.3317 0
M  V30 1014 C 102.936 0.276885 2.29133 0
M  V30 1015 C 103.906 -0.609527 1.54512 0
M  V30 1016 O 105.091 -0.546955 1.82792 0
M  V30 1017 C 102.231 -0.538707 3.40869 0
M  V30 1018 C 101.344 0.372169 4.30394 0
M  V30 1019 C 100.479 -0.454908 5.29249 0
M  V30 1020 C 99.5179 0.45411 6.10413 0
M  V30 1021 N 98.6549 -0.335075 7.013 0
M  V30 1022 H 103.495 1.10052 2.76934 0
M  V30 1023 H 101.032 0.554161 1.36262 0
M  V30 1024 H 102.99 -1.02709 4.0436 0
M  V30 1025 H 101.62 -1.32727 2.9425 0
M  V30 1026 H 100.672 0.97888 3.6759 0
M  V30 1027 H 101.984 1.0703 4.87182 0
M  V30 1028 H 101.138 -1.00695 5.98285 0
M  V30 1029 H 99.8769 -1.18646 4.73048 0
M  V30 1030 H 98.8819 1.01813 5.40291 0
M  V30 1031 H 100.107 1.18409 6.68697 0
M  V30 1032 H 98.0529 -1.04994 6.47543 0
M  V30 1033 H 97.9699 0.304262 7.55387 0
M  V30 1034 H 99.2379 -0.869224 7.74638 0
M  V30 1035 N 103.467 -1.45747 0.599634 0
M  V30 1036 C 104.397 -2.33235 -0.111306 0
M  V30 1037 C 105.378 -1.46359 -0.866781 0
M  V30 1038 O 106.563 -1.75146 -0.838904 0
M  V30 1039 C 103.693 -3.28932 -1.11451 0
M  V30 1040 C 102.647 -4.25381 -0.472772 0
M  V30 1041 C 101.973 -5.1071 -1.58365 0
M  V30 1042 C 103.273 -5.18831 0.600948 0
M  V30 1043 H 104.967 -2.92927 0.61919 0
M  V30 1044 H 102.513 -1.40857 0.299215 0
M  V30 1045 H 104.466 -3.89002 -1.62036 0
M  V30 1046 H 103.19 -2.67381 -1.8755 0
M  V30 1047 H 101.849 -3.66598 0.0121472 0
M  V30 1048 H 101.497 -4.45533 -2.33473 0
M  V30 1049 H 101.197 -5.7604 -1.15982 0
M  V30 1050 H 102.721 -5.73647 -2.09194 0
M  V30 1051 H 104.135 -5.73019 0.179491 0
M  V30 1052 H 102.532 -5.92595 0.946076 0
M  V30 1053 H 103.602 -4.6174 1.48068 0
M  V30 1054 N 104.945 -0.338344 -1.53925 0
M  V30 1055 C 106.361 0.0137736 -1.59594 0
M  V30 1056 C 106.561 1.49186 -1.35447 0
M  V30 1057 O 105.617 2.24987 -1.14616 0
M  V30 1058 C 106.93 -0.41773 -2.97784 0
M  V30 1059 C 108.478 -0.369633 -3.1081 0
M  V30 1060 C 108.953 -0.776524 -4.51369 0
M  V30 1061 N 110.444 -0.730506 -4.57403 0
M  V30 1062 C 111.179 -1.01736 -5.64303 0
M  V30 1063 N 110.675 -1.3721 -6.79077 0
M  V30 1064 N 112.468 -0.941942 -5.54151 0
M  V30 1065 H 104.619 -1.3012 -1.67876 0
M  V30 1066 H 106.882 -0.530082 -0.78595 0
M  V30 1067 H 106.588 -1.44811 -3.20504 0
M  V30 1068 H 106.462 0.209729 -3.76616 0
M  V30 1069 H 108.849 0.651568 -2.87817 0
M  V30 1070 H 108.93 -1.03223 -2.34049 0
M  V30 1071 H 108.574 -1.79571 -4.75096 0
M  V30 1072 H 108.504 -0.0914649 -5.26521 0
M  V30 1073 H 110.995 -0.468783 -3.74981 0
M  V30 1074 H 111.308 -1.57597 -7.5656 0
M  V30 1075 H 109.653 -1.4105 -6.80536 0
M  V30 1076 H 112.844 -0.664184 -4.63364 0
M  V30 1077 H 113.017 -1.16884 -6.37371 0
M  V30 1078 N 106.423 1.57458 -0.0668435 0
M  V30 1079 C 107.371 2.13639 0.919851 0
M  V30 1080 C 108.365 1.07204 1.31163 0
M  V30 1081 O 109.571 1.25591 1.28945 0
M  V30 1082 H 105.946 0.683048 0.314562 0
M  V30 1083 H 107.917 2.95415 0.421047 0
M  V30 1084 C 106.666 2.70892 2.17975 0
M  V30 1085 H 105.989 3.5246 1.88711 0
M  V30 1086 H 107.429 3.13803 2.85138 0
M  V30 1087 C 105.888 1.65414 2.93496 0
M  V30 1088 O 106.418 1.07619 3.87015 0
M  V30 1089 N 104.624 1.36564 2.56512 0
M  V30 1090 H 104.171 1.83751 1.80536 0
M  V30 1091 H 104.129 0.66223 3.07347 0
M  V30 1092 N 107.901 -0.206675 1.56239 0
M  V30 1093 C 108.864 -1.23976 1.92776 0
M  V30 1094 C 109.864 -1.39041 0.807729 0
M  V30 1095 O 111.054 -1.37051 1.0753 0
M  V30 1096 C 108.186 -2.61112 2.19165 0
M  V30 1097 H 109.379 -0.927764 2.85189 0
M  V30 1098 H 106.932 -0.447718 1.4975 0
M  V30 1099 H 107.667 -2.97386 1.29352 0
M  V30 1100 H 107.452 -2.51552 3.00772 0
M  V30 1101 H 108.942 -3.35633 2.48476 0
M  V30 1102 N 109.379 -1.50304 -0.473955 0
M  V30 1103 C 110.627 -1.60832 -1.22382 0
M  V30 1104 C 110.948 -0.30939 -1.9253 0
M  V30 1105 O 110.218 0.67296 -1.83978 0
M  V30 1106 H 108.798 -0.592652 -0.454723 0
M  V30 1107 H 111.46 -1.87068 -0.546968 0
M  V30 1108 H 110.556 -2.41803 -1.97327 0
M  V30 1109 N 110.857 0.726932 -1.39834 0
M  V30 1110 C 111.805 1.86235 -1.39353 0
M  V30 1111 C 112.799 1.67144 -0.275555 0
M  V30 1112 O 114.005 1.74387 -0.44601 0
M  V30 1113 H 110.38 0.613174 -0.43534 0
M  V30 1114 H 112.351 1.83756 -2.35109 0
M  V30 1115 C 111.1 3.23995 -1.26185 0
M  V30 1116 H 110.423 3.39285 -2.11484 0
M  V30 1117 H 111.863 4.03609 -1.29907 0
M  V30 1118 C 110.322 3.36888 0.0290018 0
M  V30 1119 O 110.852 3.89152 0.99619 0
M  V30 1120 N 109.058 2.90446 0.0947437 0
M  V30 1121 H 108.605 2.48102 -0.693035 0
M  V30 1122 H 108.563 2.99451 0.957932 0
M  V30 1123 N 112.336 1.25143 0.95797 0
M  V30 1124 C 113.266 1.07711 2.07173 0
M  V30 1125 C 114.247 -0.0128462 1.70095 0
M  V30 1126 O 115.432 0.156061 1.93572 0
M  V30 1127 C 112.562 0.691503 3.40346 0
M  V30 1128 C 111.516 1.73132 3.9142 0
M  V30 1129 C 110.842 1.20049 5.21049 0
M  V30 1130 C 112.142 3.1294 4.1817 0
M  V30 1131 H 113.836 2.00873 2.22014 0
M  V30 1132 H 111.382 0.967191 1.06684 0
M  V30 1133 H 113.335 0.556505 4.17709 0
M  V30 1134 H 112.059 -0.275819 3.25433 0
M  V30 1135 H 110.718 1.8547 3.16222 0
M  V30 1136 H 110.366 0.223499 5.02503 0
M  V30 1137 H 110.066 1.89545 5.56189 0
M  V30 1138 H 111.59 1.07782 6.01012 0
M  V30 1139 H 113.004 3.03775 4.86203 0
M  V30 1140 H 111.401 3.79875 4.64559 0
M  V30 1141 H 112.471 3.6025 3.24573 0
M  V30 1142 N 113.814 -1.1601 1.06675 0
M  V30 1143 C 115.061 -1.86633 0.785781 0
M  V30 1144 C 115.389 -1.81929 -0.687896 0
M  V30 1145 O 114.644 -1.23253 -1.52011 0
M  V30 1146 C 114.943 -3.35547 1.23057 0
M  V30 1147 C 114.609 -3.60448 2.70902 0
M  V30 1148 C 113.271 -3.66954 3.11285 0
M  V30 1149 C 115.623 -3.7071 3.66365 0
M  V30 1150 C 112.951 -3.81225 4.45965 0
M  V30 1151 C 115.303 -3.86503 5.00797 0
M  V30 1152 C 113.967 -3.91252 5.40813 0
M  V30 1153 H 113.237 -0.682937 0.287538 0
M  V30 1154 H 115.884 -1.37146 1.33654 0
M  V30 1155 H 114.189 -3.87193 0.59907 0
M  V30 1156 H 115.886 -3.88583 0.990163 0
M  V30 1157 H 112.476 -3.56021 2.38636 0
M  V30 1158 H 116.66 -3.64991 3.36296 0
M  V30 1159 H 111.916 -3.83155 4.76447 0
M  V30 1160 H 116.09 -3.93385 5.74649 0
M  V30 1161 H 113.717 -4.02062 6.45174 0
M  V30 1162 N 115.292 -0.849877 -1.32721 0
M  V30 1163 C 116.222 -0.306308 -2.31482 0
M  V30 1164 C 117.203 0.591952 -1.59468 0
M  V30 1165 O 118.388 0.513199 -1.87296 0
M  V30 1166 C 115.518 0.510204 -3.43532 0
M  V30 1167 C 114.472 -0.293209 -4.26994 0
M  V30 1168 C 113.798 0.647743 -5.30762 0
M  V30 1169 C 115.098 -1.51634 -4.99804 0
M  V30 1170 H 116.792 -1.13153 -2.77195 0
M  V30 1171 H 114.338 -0.545553 -1.33266 0
M  V30 1172 H 116.291 0.900856 -4.11658 0
M  V30 1173 H 115.015 1.36874 -2.96535 0
M  V30 1174 H 113.674 -0.665555 -3.60508 0
M  V30 1175 H 113.322 1.50299 -4.8002 0
M  V30 1176 H 113.022 0.11422 -5.87489 0
M  V30 1177 H 114.546 1.03567 -6.01753 0
M  V30 1178 H 115.96 -1.19824 -5.60638 0
M  V30 1179 H 114.357 -1.98745 -5.66234 0
M  V30 1180 H 115.427 -2.28018 -4.27943 0
M  V30 1181 N 116.77 1.45427 -0.607355 0
M  V30 1182 C 118.016 2.0254 -0.102607 0
M  V30 1183 C 118.349 1.47478 1.26348 0
M  V30 1184 O 117.624 0.64939 1.83339 0
M  V30 1185 C 117.907 3.60044 -0.0634347 0
M  V30 1186 C 117.76 4.2544 -1.46017 0
M  V30 1187 C 119.079 4.35646 0.624514 0
M  V30 1188 H 116.198 0.73598 -0.0387607 0
M  V30 1189 H 118.84 1.73284 -0.779282 0
M  V30 1190 H 116.99 3.85101 0.512808 0
M  V30 1191 H 118.662 4.11569 -2.08347 0
M  V30 1192 H 116.905 3.83849 -2.02094 0
M  V30 1193 H 117.576 5.34342 -1.385 0
M  V30 1194 H 120.052 4.15882 0.134723 0
M  V30 1195 H 118.928 5.45376 0.621028 0
M  V30 1196 H 119.189 4.08501 1.69055 0
M  V30 1197 N 118.248 0.346503 1.53744 0
M  V30 1198 C 119.473 -0.253074 2.0585 0
M  V30 1199 C 119.898 -1.43202 1.21962 0
M  V30 1200 O 119.256 -1.79783 0.234073 0
M  V30 1201 C 119.304 -0.643193 3.54817 0
M  V30 1202 O 118.408 -1.74286 3.73762 0
M  V30 1203 H 117.749 -0.0413583 0.662711 0
M  V30 1204 H 120.279 0.501574 1.98357 0
M  V30 1205 H 120.289 -0.919526 3.97503 0
M  V30 1206 H 118.964 0.218966 4.15323 0
M  V30 1207 H 117.541 -1.46356 3.42979 0
M  V30 1208 N 119.726 -1.57421 0.075193 0
M  V30 1209 C 120.656 -2.15942 -0.888324 0
M  V30 1210 C 121.637 -1.08737 -1.30806 0
M  V30 1211 O 122.822 -1.36787 -1.37851 0
M  V30 1212 C 119.952 -2.72379 -2.1547 0
M  V30 1213 C 118.906 -3.8478 -1.87425 0
M  V30 1214 C 118.232 -4.27834 -3.20721 0
M  V30 1215 C 119.532 -5.08869 -1.17684 0
M  V30 1216 H 121.226 -2.96705 -0.400799 0
M  V30 1217 H 118.772 -1.42723 -0.191342 0
M  V30 1218 H 120.725 -3.11965 -2.83295 0
M  V30 1219 H 119.449 -1.88841 -2.6647 0
M  V30 1220 H 118.108 -3.45703 -1.22004 0
M  V30 1221 H 117.756 -3.41214 -3.6957 0
M  V30 1222 H 117.456 -5.03605 -3.02746 0
M  V30 1223 H 118.98 -4.70039 -3.89738 0
M  V30 1224 H 120.394 -5.4575 -1.75584 0
M  V30 1225 H 118.791 -5.8994 -1.09956 0
M  V30 1226 H 119.861 -4.84648 -0.156453 0
M  V30 1227 N 121.204 0.198386 -1.56346 0
M  V30 1228 C 122.167 1.22952 -1.93431 0
M  V30 1229 C 123.167 1.38611 -0.815092 0
M  V30 1230 O 124.357 1.36479 -1.08255 0
M  V30 1231 C 121.489 2.59946 -2.20546 0
M  V30 1232 H 122.682 0.912626 -2.85677 0
M  V30 1233 H 120.235 0.43977 -1.49986 0
M  V30 1234 H 120.97 2.96696 -1.30927 0
M  V30 1235 H 120.755 2.49953 -3.02102 0
M  V30 1236 H 122.245 3.3431 -2.50253 0
M  V30 1237 N 122.682 1.50554 0.465978 0
M  V30 1238 C 123.612 1.72722 1.57128 0
M  V30 1239 C 124.593 0.576294 1.6004 0
M  V30 1240 O 125.778 0.81598 1.76225 0
M  V30 1241 C 122.908 1.82605 2.95419 0
M  V30 1242 C 121.862 2.97835 3.07373 0
M  V30 1243 C 121.188 2.92867 4.47363 0
M  V30 1244 C 122.488 4.38265 2.84114 0
M  V30 1245 H 124.182 2.65267 1.38829 0
M  V30 1246 H 121.728 1.2765 0.666441 0
M  V30 1247 H 123.681 1.96698 3.72677 0
M  V30 1248 H 122.405 0.866858 3.14886 0
M  V30 1249 H 121.064 2.83401 2.3255 0
M  V30 1250 H 120.712 1.94783 4.63755 0
M  V30 1251 H 120.412 3.70227 4.56296 0
M  V30 1252 H 121.936 3.09015 5.26633 0
M  V30 1253 H 123.35 4.53198 3.51118 0
M  V30 1254 H 121.747 5.17115 3.04487 0
M  V30 1255 H 122.817 4.50281 1.7993 0
M  V30 1256 N 124.16 -0.719506 1.40217 0
M  V30 1257 C 125.123 -1.8153 1.39927 0
M  V30 1258 C 126.123 -1.58095 0.293723 0
M  V30 1259 O 127.313 -1.65209 0.552429 0
M  V30 1260 C 124.445 -3.19561 1.18716 0
M  V30 1261 H 125.638 -1.83186 2.37451 0
M  V30 1262 H 123.191 -0.924746 1.26008 0
M  V30 1263 H 123.926 -3.23557 0.219366 0
M  V30 1264 H 123.711 -3.3797 1.98793 0
M  V30 1265 H 125.201 -3.99598 1.21291 0
M  V30 1266 N 125.638 -1.25649 -0.95132 0
M  V30 1267 C 126.915 -1.01361 -1.67288 0
M  V30 1268 C 127.295 0.459135 -2.06046 0
M  V30 1269 O 126.643 1.43723 -1.7764 0
M  V30 1270 C 126.853 -1.95256 -2.89268 0
M  V30 1271 C 128.201 -2.23289 -3.61147 0
M  V30 1272 O 129.225 -1.93041 -2.99355 0
M  V30 1273 O 128.084 -2.74741 -4.72419 0
M  V30 1274 H 125.178 -0.38464 -0.732107 0
M  V30 1275 H 127.724 -1.36817 -1.00395 0
M  V30 1276 H 126.496 -2.94685 -2.57442 0
M  V30 1277 H 126.119 -1.60218 -3.6389 0
M  V30 1278 N 127.117 1.15442 -1.07289 0
M  V30 1279 C 128.047 2.22312 -0.714107 0
M  V30 1280 C 129.028 1.67467 0.298155 0
M  V30 1281 O 130.213 1.93445 0.171048 0
M  V30 1282 C 127.343 3.47124 -0.110448 0
M  V30 1283 C 126.297 4.14926 -1.04979 0
M  V30 1284 C 125.623 5.33807 -0.308924 0
M  V30 1285 C 126.923 4.64762 -2.38314 0
M  V30 1286 H 128.617 2.5258 -1.6076 0
M  V30 1287 H 126.163 1.21404 -0.77441 0
M  V30 1288 H 128.116 4.21124 0.152482 0
M  V30 1289 H 126.84 3.16187 0.81812 0
M  V30 1290 H 125.499 3.42866 -1.29764 0
M  V30 1291 H 125.147 4.99126 0.623084 0
M  V30 1292 H 124.847 5.80113 -0.935036 0
M  V30 1293 H 126.371 6.10576 -0.0537771 0
M  V30 1294 H 127.785 5.30292 -2.1786 0
M  V30 1295 H 126.182 5.21728 -2.96514 0
M  V30 1296 H 127.252 3.80434 -3.00663 0
M  V30 1297 N 128.595 0.856903 1.32268 0
M  V30 1298 C 129.841 0.462069 1.97466 0
M  V30 1299 C 130.174 -0.980298 1.67642 0
M  V30 1300 O 129.449 -1.68824 0.965858 0
M  V30 1301 C 129.732 0.704336 3.53145 0
M  V30 1302 C 129.585 2.19529 3.9259 0
M  V30 1303 C 130.904 0.1622 4.39801 0
M  V30 1304 H 128.023 0.169357 0.717278 0
M  V30 1305 H 130.665 1.07574 1.56614 0
M  V30 1306 H 128.815 0.181999 3.88073 0
M  V30 1307 H 130.487 2.78387 3.67829 0
M  V30 1308 H 128.73 2.67292 3.41668 0
M  V30 1309 H 129.401 2.31549 5.01088 0
M  V30 1310 H 131.877 0.608905 4.11621 0
M  V30 1311 H 130.753 0.361265 5.4771 0
M  V30 1312 H 131.014 -0.935158 4.32096 0
M  V30 1313 N 130.073 -1.45103 0.615059 0
M  V30 1314 C 131.319 -2.02483 0.113347 0
M  V30 1315 C 131.652 -1.48146 -1.25564 0
M  V30 1316 O 130.927 -0.659104 -1.82992 0
M  V30 1317 C 131.21 -3.60005 0.0825278 0
M  V30 1318 C 131.063 -4.2466 1.48271 0
M  V30 1319 C 132.382 -4.35972 -0.601401 0
M  V30 1320 H 129.501 -0.735764 0.0426632 0
M  V30 1321 H 132.143 -1.72868 0.788461 0
M  V30 1322 H 130.293 -3.85367 -0.492378 0
M  V30 1323 H 131.965 -4.10458 2.10527 0
M  V30 1324 H 130.208 -3.82772 2.04127 0
M  V30 1325 H 130.879 -5.336 1.41332 0
M  V30 1326 H 133.355 -4.15947 -0.112666 0
M  V30 1327 H 132.231 -5.45697 -0.592097 0
M  V30 1328 H 132.492 -4.09391 -1.66887 0
M  V30 1329 N 131.551 -0.354651 -1.53558 0
M  V30 1330 C 132.514 0.484566 -2.24019 0
M  V30 1331 C 133.514 1.01861 -1.24422 0
M  V30 1332 O 134.704 0.906097 -1.4878 0
M  V30 1333 C 131.836 1.67615 -2.96847 0
M  V30 1334 H 133.029 -0.131843 -2.9961 0
M  V30 1335 H 130.582 -0.106165 -1.55939 0
M  V30 1336 H 131.317 2.33095 -2.25471 0
M  V30 1337 H 131.102 1.30029 -3.69912 0
M  V30 1338 H 132.592 2.27114 -3.50441 0
M  V30 1339 N 133.029 1.57378 -0.0835403 0
M  V30 1340 C 134.276 1.9393 0.58287 0
M  V30 1341 C 134.604 0.964455 1.68904 0
M  V30 1342 O 133.859 -0.0179474 1.95692 0
M  V30 1343 C 134.158 3.37063 1.1884 0
M  V30 1344 C 133.824 4.50424 0.207194 0
M  V30 1345 C 132.486 4.81159 -0.0627115 0
M  V30 1346 C 134.838 5.19136 -0.463426 0
M  V30 1347 C 132.166 5.77939 -1.01012 0
M  V30 1348 C 134.518 6.16931 -1.39924 0
M  V30 1349 C 133.182 6.46078 -1.67749 0
M  V30 1350 H 132.452 0.70964 0.213287 0
M  V30 1351 H 135.099 1.90856 -0.156916 0
M  V30 1352 H 133.404 3.3666 2.00418 0
M  V30 1353 H 135.101 3.6264 1.71153 0
M  V30 1354 H 131.691 4.2646 0.427747 0
M  V30 1355 H 135.875 4.95576 -0.268034 0
M  V30 1356 H 131.131 5.98842 -1.23283 0
M  V30 1357 H 135.305 6.69273 -1.92476 0
M  V30 1358 H 132.932 7.2088 -2.41321 0
M  V30 1359 N 134.507 -0.190092 1.56449 0
M  V30 1360 C 135.737 -0.92443 1.84764 0
M  V30 1361 C 136.145 -1.77146 0.664529 0
M  V30 1362 O 135.488 -1.79812 -0.375957 0
M  V30 1363 C 135.55 -1.86651 3.07248 0
M  V30 1364 C 135.214 -1.20094 4.40938 0
M  V30 1365 C 136.211 -0.575445 5.16706 0
M  V30 1366 C 133.896 -1.2033 4.87674 0
M  V30 1367 C 135.89 0.0388111 6.37388 0
M  V30 1368 C 133.577 -0.585214 6.08291 0
M  V30 1369 C 134.575 0.0347578 6.82991 0
M  V30 1370 O 134.263 0.643147 8.01323 0
M  V30 1371 H 133.995 -0.274974 0.617548 0
M  V30 1372 H 136.549 -0.200788 2.04416 0
M  V30 1373 H 134.779 -2.62998 2.83494 0
M  V30 1374 H 136.468 -2.46907 3.22167 0
M  V30 1375 H 137.234 -0.565728 4.81689 0
M  V30 1376 H 133.113 -1.67526 4.29484 0
M  V30 1377 H 136.657 0.523329 6.95634 0
M  V30 1378 H 132.554 -0.592451 6.42775 0
M  V30 1379 H 133.322 0.540545 8.16713 0
M  V30 1380 N 135.985 -1.50799 -0.457987 0
M  V30 1381 C 137.396 -1.55152 -1.0385 0
M  V30 1382 C 137.747 -0.362719 -1.92818 0
M  V30 1383 O 136.872 0.522915 -2.09987 0
M  V30 1384 C 137.467 -2.81173 -1.89017 0
M  V30 1385 C 136.026 -2.88164 -2.42154 0
M  V30 1386 C 135.173 -2.49591 -1.20829 0
M  V30 1387 H 138.124 -1.56874 -0.240068 0
M  V30 1388 H 138.145 -2.63769 -2.74238 0
M  V30 1389 H 137.657 -3.67677 -1.24238 0
M  V30 1390 H 135.758 -2.06042 -3.10447 0
M  V30 1391 H 135.871 -3.91356 -2.76364 0
M  V30 1392 H 134.235 -2.02322 -1.54719 0
M  V30 1393 H 135.018 -3.38418 -0.576927 0
M  V30 1394 N 137.463 0.71206 -1.40597 0
M  V30 1395 C 138.693 1.49894 -1.42181 0
M  V30 1396 C 139.101 1.89189 -0.0208078 0
M  V30 1397 O 138.444 1.56223 0.966436 0
M  V30 1398 C 138.506 2.80215 -2.25211 0
M  V30 1399 C 138.17 2.63221 -3.73582 0
M  V30 1400 C 139.167 2.30249 -4.66135 0
M  V30 1401 C 136.852 2.79376 -4.17438 0
M  V30 1402 C 138.846 2.13645 -6.00529 0
M  V30 1403 C 136.533 2.6239 -5.51901 0
M  V30 1404 C 137.531 2.29573 -6.43262 0
M  V30 1405 O 137.219 2.12719 -7.75246 0
M  V30 1406 H 136.951 0.469031 -0.486812 0
M  V30 1407 H 139.505 0.88564 -1.85326 0
M  V30 1408 H 137.735 3.4389 -1.76852 0
M  V30 1409 H 139.424 3.41947 -2.18694 0
M  V30 1410 H 140.19 2.17398 -4.33547 0
M  V30 1411 H 136.069 3.03906 -3.46644 0
M  V30 1412 H 139.613 1.87953 -6.71803 0
M  V30 1413 H 135.51 2.74826 -5.84073 0
M  V30 1414 H 136.278 2.27611 -7.86216 0
M  V30 1415 N 138.941 1.26152 0.944643 0
M  V30 1416 C 140.352 1.10454 1.50522 0
M  V30 1417 C 140.703 -0.31635 1.93633 0
M  V30 1418 O 139.828 -1.20746 1.79581 0
M  V30 1419 C 140.423 1.99891 2.73549 0
M  V30 1420 C 138.982 1.88348 3.25886 0
M  V30 1421 C 138.129 1.93447 1.9868 0
M  V30 1422 H 141.08 1.39292 0.760489 0
M  V30 1423 H 141.101 1.54477 3.47732 0
M  V30 1424 H 140.613 3.03297 2.42141 0
M  V30 1425 H 138.714 0.878636 3.62092 0
M  V30 1426 H 138.827 2.73696 3.93227 0
M  V30 1427 H 137.191 1.37456 2.14425 0
M  V30 1428 H 137.974 2.98476 1.69607 0
M  V30 1429 N 140.419 -1.14872 1.07899 0
M  V30 1430 C 141.349 -2.2193 0.725887 0
M  V30 1431 C 142.33 -1.67622 -0.28927 0
M  V30 1432 O 143.515 -1.93533 -0.160787 0
M  V30 1433 C 140.645 -3.47061 0.128856 0
M  V30 1434 C 139.599 -4.14363 1.07178 0
M  V30 1435 C 138.925 -5.33636 0.337229 0
M  V30 1436 C 140.225 -4.63492 2.40775 0
M  V30 1437 H 141.919 -2.51724 1.62097 0
M  V30 1438 H 139.465 -1.20991 0.780838 0
M  V30 1439 H 141.418 -4.21199 -0.130147 0
M  V30 1440 H 140.142 -3.16617 -0.80134 0
M  V30 1441 H 138.801 -3.42173 1.3158 0
M  V30 1442 H 138.449 -4.99449 -0.596606 0
M  V30 1443 H 138.149 -5.79609 0.965788 0
M  V30 1444 H 139.673 -6.10539 0.0861567 0
M  V30 1445 H 141.087 -5.2913 2.20669 0
M  V30 1446 H 139.484 -5.20148 2.99276 0
M  V30 1447 H 140.554 -3.78834 3.02676 0
M  V30 1448 N 141.898 -0.863906 -1.31812 0
M  V30 1449 C 143.147 -0.46801 -1.96195 0
M  V30 1450 C 143.46 0.983474 -1.69077 0
M  V30 1451 O 144.666 1.48523 -2.27273 0
M  V30 1452 C 143.122 -0.785995 -3.51212 0
M  V30 1453 C 142.73 -2.25383 -3.87178 0
M  V30 1454 C 144.474 -0.458274 -4.22019 0
M  V30 1455 C 142.381 -2.51455 -5.3528 0
M  V30 1456 H 141.311 -0.171283 -0.734287 0
M  V30 1457 H 143.962 -1.05597 -1.50072 0
M  V30 1458 H 142.344 -0.127359 -3.95795 0
M  V30 1459 H 143.518 -2.95502 -3.53575 0
M  V30 1460 H 141.833 -2.54698 -3.2942 0
M  V30 1461 H 144.43 -0.630369 -5.30971 0
M  V30 1462 H 144.773 0.600834 -4.11941 0
M  V30 1463 H 145.306 -1.07319 -3.8305 0
M  V30 1464 H 142.045 -3.56025 -5.50387 0
M  V30 1465 H 141.565 -1.85923 -5.70257 0
M  V30 1466 H 143.244 -2.35874 -6.02472 0
M  V30 1467 N 143.376 1.44774 -0.622745 0
M  V30 1468 C 144.306 2.33382 0.0741861 0
M  V30 1469 C 145.287 1.47719 0.843387 0
M  V30 1470 O 146.472 1.76458 0.810934 0
M  V30 1471 C 143.602 3.30663 1.06204 0
M  V30 1472 C 142.556 4.26079 0.405037 0
M  V30 1473 C 141.882 5.13165 1.5022 0
M  V30 1474 C 143.182 5.1781 -0.683414 0
M  V30 1475 H 144.876 2.91905 -0.665713 0
M  V30 1476 H 142.422 1.40363 -0.321587 0
M  V30 1477 H 144.375 3.9153 1.55827 0
M  V30 1478 H 143.099 2.70331 1.83272 0
M  V30 1479 H 141.758 3.66532 -0.0704683 0
M  V30 1480 H 141.406 4.49191 2.26355 0
M  V30 1481 H 141.106 5.77812 1.06803 0
M  V30 1482 H 142.63 5.76902 2.00041 0
M  V30 1483 H 144.044 5.72661 -0.270631 0
M  V30 1484 H 142.441 5.91015 -1.04023 0
M  V30 1485 H 143.511 4.59326 -1.55395 0
M  V30 1486 N 144.854 0.36279 1.53368 0
M  V30 1487 C 146.1 -0.228113 2.01513 0
M  V30 1488 C 146.433 -1.48648 1.2497 0
M  V30 1489 O 145.708 -1.91459 0.342616 0
M  V30 1490 C 145.991 -0.522884 3.56284 0
M  V30 1491 C 145.844 0.74892 4.43521 0
M  V30 1492 C 147.163 -1.32461 4.19693 0
M  V30 1493 H 144.282 -0.0814343 0.732487 0
M  V30 1494 H 146.924 0.48713 1.83649 0
M  V30 1495 H 145.074 -1.1322 3.71636 0
M  V30 1496 H 146.746 1.38648 4.39971 0
M  V30 1497 H 144.989 1.36986 4.11603 0
M  V30 1498 H 145.66 0.497667 5.49752 0
M  V30 1499 H 148.136 -0.809203 4.08156 0
M  V30 1500 H 147.012 -1.49961 5.28018 0
M  V30 1501 H 147.273 -2.33232 3.75573 0
M  V30 1502 N 146.332 -1.57332 0.0918853 0
M  V30 1503 C 147.295 -2.12708 -0.85369 0
M  V30 1504 C 148.295 -1.05561 -1.213 0
M  V30 1505 O 149.485 -1.31461 -1.14296 0
M  V30 1506 C 146.617 -2.64503 -2.15061 0
M  V30 1507 H 147.81 -2.97573 -0.3729 0
M  V30 1508 H 145.363 -1.55509 -0.157072 0
M  V30 1509 H 146.098 -1.83149 -2.67632 0
M  V30 1510 H 145.883 -3.4284 -1.90272 0
M  V30 1511 H 147.373 -3.07351 -2.82711 0
M  V30 1512 N 147.81 0.181792 -1.56548 0
M  V30 1513 C 149.059 0.898348 -1.8059 0
M  V30 1514 C 149.372 1.83862 -0.667379 0
M  V30 1515 O 150.578 2.59678 -0.792446 0
M  V30 1516 C 149.034 1.64791 -3.19956 0
M  V30 1517 C 148.642 0.751789 -4.41647 0
M  V30 1518 C 150.386 2.35331 -3.53298 0
M  V30 1519 C 148.293 1.50098 -5.72035 0
M  V30 1520 H 147.223 0.339194 -0.673397 0
M  V30 1521 H 149.874 0.151413 -1.82874 0
M  V30 1522 H 148.256 2.43921 -3.11959 0
M  V30 1523 H 149.43 -0.0018076 -4.608 0
M  V30 1524 H 147.745 0.156562 -4.16106 0
M  V30 1525 H 150.342 2.91958 -4.47956 0
M  V30 1526 H 150.685 3.10164 -2.77676 0
M  V30 1527 H 151.218 1.63154 -3.62803 0
M  V30 1528 H 147.957 0.795175 -6.50659 0
M  V30 1529 H 147.477 2.22817 -5.56878 0
M  V30 1530 H 149.156 2.05125 -6.13622 0
M  V30 1531 N 149.288 1.51039 0.449983 0
M  V30 1532 C 150.535 1.63081 1.20045 0
M  V30 1533 C 150.863 0.341024 1.91487 0
M  V30 1534 O 150.118 -0.674276 1.83717 0
M  V30 1535 C 150.417 2.77556 2.25161 0
M  V30 1536 C 150.083 4.17289 1.70823 0
M  V30 1537 C 148.745 4.55305 1.55725 0
M  V30 1538 C 151.097 5.04536 1.3074 0
M  V30 1539 C 148.425 5.78287 0.989999 0
M  V30 1540 C 150.777 6.28085 0.754482 0
M  V30 1541 C 149.441 6.64885 0.590308 0
M  V30 1542 H 148.711 0.596755 0.439277 0
M  V30 1543 H 151.358 1.85037 0.49333 0
M  V30 1544 H 149.663 2.49771 3.01863 0
M  V30 1545 H 151.36 2.84073 2.83026 0
M  V30 1546 H 147.95 3.8731 1.83546 0
M  V30 1547 H 152.134 4.75782 1.41229 0
M  V30 1548 H 147.39 6.05456 0.850451 0
M  V30 1549 H 151.564 6.95038 0.435324 0
M  V30 1550 H 149.191 7.60055 0.14862 0
M  V30 1551 N 150.766 -0.704594 1.40972 0
M  V30 1552 C 151.996 -1.49138 1.42974 0
M  V30 1553 C 152.404 -1.89175 0.0308406 0
M  V30 1554 O 151.747 -1.56734 -0.958138 0
M  V30 1555 C 151.809 -2.79016 2.26694 0
M  V30 1556 C 151.473 -2.61236 3.74973 0
M  V30 1557 C 152.47 -2.27773 4.67349 0
M  V30 1558 C 150.155 -2.77158 4.18914 0
M  V30 1559 C 152.149 -2.10457 6.01653 0
M  V30 1560 C 149.836 -2.59459 5.53285 0
M  V30 1561 C 150.834 -2.26158 6.4447 0
M  V30 1562 O 150.522 -2.08605 7.76363 0
M  V30 1563 H 150.254 -0.466443 0.489292 0
M  V30 1564 H 152.808 -0.8758 1.85793 0
M  V30 1565 H 151.038 -3.42947 1.78673 0
M  V30 1566 H 152.727 -3.40782 2.20504 0
M  V30 1567 H 153.493 -2.15095 4.34694 0
M  V30 1568 H 149.372 -3.02064 3.48251 0
M  V30 1569 H 152.916 -1.84387 6.72791 0
M  V30 1570 H 148.813 -2.71725 5.85522 0
M  V30 1571 H 149.581 -2.23439 7.87412 0
M  V30 1572 N 152.244 -1.26651 -0.937939 0
M  V30 1573 C 153.521 -1.0313 -1.66204 0
M  V30 1574 C 153.901 0.437256 -2.06522 0
M  V30 1575 O 153.249 1.41831 -1.79154 0
M  V30 1576 C 153.459 -1.98314 -2.87181 0
M  V30 1577 C 154.807 -2.27107 -3.58758 0
M  V30 1578 O 155.831 -1.96205 -2.97291 0
M  V30 1579 O 154.69 -2.79736 -4.69479 0
M  V30 1580 H 151.784 -0.392384 -0.727986 0
M  V30 1581 H 154.33 -1.37874 -0.989382 0
M  V30 1582 H 153.102 -2.97399 -2.54302 0
M  V30 1583 H 152.725 -1.64068 -3.6217 0
M  V30 1584 N 153.722 1.14298 -1.08507 0
M  V30 1585 C 154.97 1.84993 -0.813763 0
M  V30 1586 C 155.291 1.83405 0.662393 0
M  V30 1587 O 154.561 1.28319 1.48024 0
M  V30 1588 H 153.141 0.684966 -0.298045 0
M  V30 1589 H 155.803 1.385 -1.37126 0
M  V30 1590 H 154.899 2.89788 -1.15884 0
M  V30 1591 N 155.201 0.870884 1.31352 0
M  V30 1592 C 156.447 0.492314 1.97352 0
M  V30 1593 C 156.802 -0.945174 1.67583 0
M  V30 1594 O 156.095 -1.65674 0.962423 0
M  V30 1595 C 156.289 0.687157 3.50732 0
M  V30 1596 C 156.118 2.14203 3.95407 0
M  V30 1597 C 154.888 2.78382 4.21701 0
M  V30 1598 C 157.086 3.1144 4.09279 0
M  V30 1599 N 155.068 4.14611 4.52737 0
M  V30 1600 C 156.439 4.32702 4.44037 0
M  V30 1601 C 158.494 3.07418 3.91661 0
M  V30 1602 C 157.197 5.50463 4.63015 0
M  V30 1603 C 159.223 4.24438 4.11833 0
M  V30 1604 C 158.585 5.44463 4.46923 0
M  V30 1605 H 154.684 0.229206 0.747655 0
M  V30 1606 H 157.268 1.12568 1.5886 0
M  V30 1607 H 155.439 0.083384 3.8831 0
M  V30 1608 H 157.171 0.276883 4.03752 0
M  V30 1609 H 153.926 2.29326 4.14375 0
M  V30 1610 H 154.35 4.84928 4.72413 0
M  V30 1611 H 158.992 2.15732 3.6362 0
M  V30 1612 H 156.71 6.42666 4.89904 0
M  V30 1613 H 160.296 4.2278 3.99685 0
M  V30 1614 H 159.176 6.33504 4.62214 0
M  V30 1615 N 156.679 -1.44442 0.630414 0
M  V30 1616 C 157.642 -2.29107 -0.0652523 0
M  V30 1617 C 158.642 -1.41002 -0.772995 0
M  V30 1618 O 159.832 -1.62881 -0.617692 0
M  V30 1619 C 156.964 -3.22564 -1.10296 0
M  V30 1620 H 158.157 -2.92103 0.679401 0
M  V30 1621 H 155.71 -1.51343 0.390517 0
M  V30 1622 H 156.445 -2.64416 -1.87762 0
M  V30 1623 H 156.23 -3.87491 -0.59941 0
M  V30 1624 H 157.72 -3.86167 -1.5895 0
M  V30 1625 N 158.157 -0.370918 -1.53173 0
M  V30 1626 C 159.087 0.464847 -2.28826 0
M  V30 1627 C 160.068 1.07936 -1.31468 0
M  V30 1628 O 161.253 1.0956 -1.60344 0
M  V30 1629 C 158.383 1.60196 -3.08147 0
M  V30 1630 C 157.337 1.11443 -4.13237 0
M  V30 1631 C 156.663 2.3422 -4.80672 0
M  V30 1632 C 157.963 0.195384 -5.21934 0
M  V30 1633 H 159.657 -0.166329 -2.98938 0
M  V30 1634 H 157.203 -0.0814359 -1.4377 0
M  V30 1635 H 159.156 2.19332 -3.59822 0
M  V30 1636 H 157.88 2.26045 -2.35735 0
M  V30 1637 H 156.539 0.545727 -3.62515 0
M  V30 1638 H 156.187 2.98537 -4.04827 0
M  V30 1639 H 155.887 2.02269 -5.51689 0
M  V30 1640 H 157.411 2.94032 -5.35143 0
M  V30 1641 H 158.825 0.694375 -5.69079 0
M  V30 1642 H 157.222 -0.0335027 -6.00091 0
M  V30 1643 H 158.292 -0.760961 -4.78892 0
M  V30 1644 N 159.635 1.57281 -0.100228 0
M  V30 1645 C 160.883 1.94153 0.561157 0
M  V30 1646 C 161.204 0.983157 1.68401 0
M  V30 1647 O 160.474 0.0361132 1.95867 0
M  V30 1648 H 159.054 0.716791 0.210283 0
M  V30 1649 H 161.716 1.94202 -0.164765 0
M  V30 1650 H 160.812 2.96709 0.968008 0
M  V30 1651 N 161.113 -0.173488 1.56642 0
M  V30 1652 C 162.023 -1.23482 1.99473 0
M  V30 1653 C 163.039 -1.48567 0.905752 0
M  V30 1654 O 164.215 -1.60758 1.21321 0
M  V30 1655 C 161.28 -2.55444 2.34413 0
M  V30 1656 C 160.341 -2.38241 3.57127 0
M  V30 1657 C 159.574 -3.63909 3.90392 0
M  V30 1658 O 159.797 -4.68996 3.24653 0
M  V30 1659 O 158.731 -3.58149 4.83749 0
M  V30 1660 H 162.557 -0.901279 2.90018 0
M  V30 1661 H 160.142 -0.380185 1.44482 0
M  V30 1662 H 162.024 -3.33292 2.57865 0
M  V30 1663 H 160.699 -2.88382 1.4703 0
M  V30 1664 H 159.606 -1.58431 3.38896 0
M  V30 1665 H 160.939 -2.10228 4.45045 0
M  V30 1666 N 162.591 -1.51276 -0.441967 0
M  V30 1667 C 163.501 -1.75092 -1.56141 0
M  V30 1668 C 164.517 -0.634963 -1.62001 0
M  V30 1669 O 165.693 -0.916686 -1.79329 0
M  V30 1670 C 162.758 -1.86666 -2.92158 0
M  V30 1671 C 161.819 -3.10506 -2.96453 0
M  V30 1672 C 161.052 -3.21519 -4.25982 0
M  V30 1673 O 161.275 -2.38586 -5.18105 0
M  V30 1674 O 160.209 -4.14465 -4.36466 0
M  V30 1675 H 164.035 -2.70044 -1.38961 0
M  V30 1676 H 161.62 -1.35722 -0.624499 0
M  V30 1677 H 163.502 -1.96292 -3.72891 0
M  V30 1678 H 162.177 -0.949014 -3.09476 0
M  V30 1679 H 161.084 -3.06363 -2.14692 0
M  V30 1680 H 162.417 -4.01945 -2.84079 0
M  V30 1681 N 164.069 0.697108 -1.41344 0
M  V30 1682 C 165.019 1.80313 -1.39539 0
M  V30 1683 C 166.003 1.58618 -0.270001 0
M  V30 1684 O 167.195 1.69477 -0.510551 0
M  V30 1685 C 164.324 3.18606 -1.27848 0
M  V30 1686 C 163.41 3.46001 -2.45244 0
M  V30 1687 N 163.801 3.44103 -3.70711 0
M  V30 1688 C 162.099 3.76542 -2.39023 0
M  V30 1689 C 162.8 3.7036 -4.48563 0
M  V30 1690 N 161.776 3.90027 -3.78655 0
M  V30 1691 H 165.578 1.77207 -2.34468 0
M  V30 1692 H 163.092 0.897031 -1.35378 0
M  V30 1693 H 165.089 3.97833 -1.24637 0
M  V30 1694 H 163.749 3.22925 -0.339032 0
M  V30 1695 H 164.76 3.2452 -4.03618 0
M  V30 1696 H 161.437 3.88241 -1.53542 0
M  V30 1697 H 162.827 3.75042 -5.57488 0
M  V30 1698 N 165.547 1.27147 0.931209 0
M  V30 1699 C 166.787 1.14511 1.69312 0
M  V30 1700 C 167.151 -0.304638 1.89568 0
M  V30 1701 O 168.352 -0.553343 2.63043 0
M  V30 1702 C 166.623 1.90349 3.02493 0
M  V30 1703 S 168.182 1.93884 3.93642 0
M  V30 1704 H 165 0.408858 0.581684 0
M  V30 1705 H 167.602 1.61006 1.10893 0
M  V30 1706 H 166.306 2.94877 2.85439 0
M  V30 1707 H 165.837 1.44333 3.65966 0
M  V30 1708 H 167.852 1.03273 4.85334 0
M  V30 1709 N 167.025 -1.13721 1.09112 0
M  V30 1710 C 167.972 -2.19031 0.727591 0
M  V30 1711 C 168.942 -1.63555 -0.289656 0
M  V30 1712 O 170.127 -1.90023 -0.172026 0
M  V30 1713 C 167.267 -3.4477 0.15082 0
M  V30 1714 C 166.38 -4.14365 1.22172 0
M  V30 1715 C 165.515 -5.27709 0.608042 0
M  V30 1716 C 164.554 -5.89147 1.66047 0
M  V30 1717 N 163.691 -6.93929 1.06806 0
M  V30 1718 H 168.531 -2.49475 1.62991 0
M  V30 1719 H 166.068 -1.22499 0.81439 0
M  V30 1720 H 168.026 -4.16714 -0.201358 0
M  V30 1721 H 166.656 -3.14787 -0.714783 0
M  V30 1722 H 165.708 -3.40737 1.69122 0
M  V30 1723 H 167.02 -4.56114 2.01895 0
M  V30 1724 H 166.174 -6.06355 0.204523 0
M  V30 1725 H 164.913 -4.872 -0.220769 0
M  V30 1726 H 163.918 -5.09198 2.07357 0
M  V30 1727 H 165.143 -6.31729 2.49189 0
M  V30 1728 H 163.089 -6.55483 0.260476 0
M  V30 1729 H 163.006 -7.34202 1.8023 0
M  V30 1730 H 164.274 -7.76434 0.690644 0
M  V30 1731 N 168.503 -0.877838 -1.30888 0
M  V30 1732 C 169.466 -0.344265 -2.266 0
M  V30 1733 C 170.466 0.50922 -1.52524 0
M  V30 1734 O 171.656 0.317398 -1.71284 0
M  V30 1735 C 168.788 0.510198 -3.37061 0
M  V30 1736 H 169.981 -1.1893 -2.7531 0
M  V30 1737 H 167.534 -0.654088 -1.41956 0
M  V30 1738 H 168.269 1.37612 -2.93655 0
M  V30 1739 H 168.054 -0.101047 -3.9197 0
M  V30 1740 H 169.544 0.875537 -4.08319 0
M  V30 1741 N 169.982 1.44106 -0.638065 0
M  V30 1742 C 171.207 2.0685 -0.150916 0
M  V30 1743 C 171.632 1.47417 1.16833 0
M  V30 1744 O 170.99 0.578264 1.71831 0
M  V30 1745 C 171.038 3.60555 -0.05708 0
M  V30 1746 O 170.142 4.00465 0.984972 0
M  V30 1747 H 169.483 0.658151 -0.0879399 0
M  V30 1748 H 172.013 1.84865 -0.876707 0
M  V30 1749 H 172.023 4.07789 0.131232 0
M  V30 1750 H 170.698 4.03193 -1.02021 0
M  V30 1751 H 169.275 3.64849 0.770672 0
M  V30 1752 N 171.46 0.379036 1.52974 0
M  V30 1753 C 172.423 -0.448865 2.24762 0
M  V30 1754 C 173.423 -0.998689 1.26027 0
M  V30 1755 O 174.613 -0.882313 1.50203 0
M  V30 1756 C 171.745 -1.62872 2.99476 0
M  V30 1757 H 172.938 0.179491 2.99362 0
M  V30 1758 H 170.491 0.13096 1.5575 0
M  V30 1759 H 171.226 -2.29479 2.29151 0
M  V30 1760 H 171.011 -1.24128 3.71934 0
M  V30 1761 H 172.501 -2.2151 3.5401 0
M  V30 1762 N 172.938 -1.57226 0.108567 0
M  V30 1763 C 174.185 -1.94833 -0.551943 0
M  V30 1764 C 174.513 -0.991204 -1.67348 0
M  V30 1765 O 173.768 -0.0131878 -1.95696 0
M  V30 1766 C 174.067 -3.38911 -1.13463 0
M  V30 1767 C 173.733 -4.50696 -0.135509 0
M  V30 1768 C 172.395 -4.80998 0.139252 0
M  V30 1769 C 174.747 -5.18333 0.545957 0
M  V30 1770 C 172.075 -5.76259 1.10194 0
M  V30 1771 C 174.427 -6.14627 1.49721 0
M  V30 1772 C 173.091 -6.43327 1.78006 0
M  V30 1773 H 172.361 -0.712944 -0.20197 0
M  V30 1774 H 175.008 -1.90582 0.18726 0
M  V30 1775 H 173.313 -3.39805 -1.95037 0
M  V30 1776 H 175.01 -3.65317 -1.65362 0
M  V30 1777 H 171.6 -4.27087 -0.359846 0
M  V30 1778 H 175.784 -4.95087 0.346842 0
M  V30 1779 H 171.04 -5.96804 1.32795 0
M  V30 1780 H 175.214 -6.66126 2.03099 0
M  V30 1781 H 172.841 -7.1695 2.52759 0
M  V30 1782 N 174.416 0.165178 -1.56732 0
M  V30 1783 C 175.662 0.882112 -1.82611 0
M  V30 1784 C 175.995 1.81628 -0.687378 0
M  V30 1785 O 175.27 1.92009 0.310267 0
M  V30 1786 C 175.553 1.67245 -3.18906 0
M  V30 1787 C 175.406 0.760987 -4.43316 0
M  V30 1788 C 176.725 2.63884 -3.52212 0
M  V30 1789 H 173.844 0.319242 -0.664269 0
M  V30 1790 H 176.486 0.148052 -1.89422 0
M  V30 1791 H 174.636 2.29824 -3.1323 0
M  V30 1792 H 176.308 0.147596 -4.61064 0
M  V30 1793 H 174.551 0.0694102 -4.33744 0
M  V30 1794 H 175.222 1.34962 -5.35247 0
M  V30 1795 H 177.698 2.11429 -3.58381 0
M  V30 1796 H 176.574 3.16245 -4.48643 0
M  V30 1797 H 176.835 3.44377 -2.77231 0
M  V30 1798 N 175.894 1.51508 0.433938 0
M  V30 1799 C 176.827 1.67756 1.54704 0
M  V30 1800 C 177.805 0.525127 1.53887 0
M  V30 1801 O 178.989 0.749393 1.72963 0
M  V30 1802 C 176.116 1.69424 2.9328 0
M  V30 1803 C 175.162 2.90673 3.12108 0
M  V30 1804 S 175.995 4.51431 2.88046 0
M  V30 1805 C 177.151 4.55849 4.28897 0
M  V30 1806 H 177.384 2.61904 1.40689 0
M  V30 1807 H 174.917 1.41235 0.62386 0
M  V30 1808 H 176.875 1.7107 3.73156 0
M  V30 1809 H 175.536 0.764464 3.04655 0
M  V30 1810 H 174.729 2.88251 4.13434 0
M  V30 1811 H 174.331 2.86786 2.40062 0
M  V30 1812 H 176.623 4.31699 5.22152 0
M  V30 1813 H 177.566 5.57676 4.36351 0
M  V30 1814 H 177.974 3.85137 4.12711 0
M  V30 1815 N 177.372 -0.689602 1.41712 0
M  V30 1816 C 178.62 -1.4468 1.4111 0
M  V30 1817 C 178.941 -1.94986 0.0232196 0
M  V30 1818 O 178.211 -1.72097 -0.935913 0
M  V30 1819 H 176.791 -0.536847 0.519427 0
M  V30 1820 H 179.453 -0.815825 1.77004 0
M  V30 1821 H 178.549 -2.30706 2.10193 0
M  V30 1822 N 178.85 -1.27639 -0.924453 0
M  V30 1823 C 179.78 -1.13166 -2.04244 0
M  V30 1824 C 180.761 -0.032256 -1.70069 0
M  V30 1825 O 181.946 -0.207328 -1.9309 0
M  V30 1826 C 179.076 -0.781496 -3.38393 0
M  V30 1827 C 178.03 -1.83449 -3.86692 0
M  V30 1828 C 177.356 -1.33822 -5.17683 0
M  V30 1829 C 178.656 -3.23917 -4.09726 0
M  V30 1830 H 180.35 -2.06689 -2.1661 0
M  V30 1831 H 177.896 -0.995136 -1.04082 0
M  V30 1832 H 179.849 -0.667057 -4.16087 0
M  V30 1833 H 178.573 0.189439 -3.2605 0
M  V30 1834 H 177.232 -1.93789 -3.11193 0
M  V30 1835 H 176.88 -0.35665 -5.01734 0
M  V30 1836 H 176.58 -2.04224 -5.50968 0
M  V30 1837 H 178.104 -1.23679 -5.97943 0
M  V30 1838 H 179.518 -3.16559 -4.77978 0
M  V30 1839 H 177.915 -3.92059 -4.54324 0
M  V30 1840 H 178.985 -3.68729 -3.14908 0
M  V30 1841 N 180.328 1.1314 -1.09713 0
M  V30 1842 C 181.553 1.88862 -0.857081 0
M  V30 1843 C 181.978 1.78729 0.586304 0
M  V30 1844 O 181.336 1.13692 1.41222 0
M  V30 1845 C 181.384 3.36325 -1.30069 0
M  V30 1846 O 180.488 4.09815 -0.461007 0
M  V30 1847 H 179.829 0.587108 -0.310162 0
M  V30 1848 H 182.359 1.43129 -1.46203 0
M  V30 1849 H 182.369 3.87157 -1.28738 0
M  V30 1850 H 181.044 3.43017 -2.35185 0
M  V30 1851 H 179.621 3.68986 -0.538888 0
M  V30 1852 N 181.806 0.884767 1.30421 0
M  V30 1853 C 183.052 0.503851 1.96441 0
M  V30 1854 C 183.385 -0.944518 1.69684 0
M  V30 1855 O 182.66 -1.66737 1.00145 0
M  V30 1856 C 182.943 0.779085 3.51571 0
M  V30 1857 C 182.796 2.27807 3.87846 0
M  V30 1858 C 184.115 0.255452 4.39358 0
M  V30 1859 H 181.234 0.184533 0.713524 0
M  V30 1860 H 183.876 1.10872 1.54297 0
M  V30 1861 H 182.026 0.264274 3.876 0
M  V30 1862 H 183.698 2.86127 3.61841 0
M  V30 1863 H 181.941 2.74479 3.35922 0
M  V30 1864 H 182.612 2.42125 4.96064 0
M  V30 1865 H 185.088 0.696079 4.10236 0
M  V30 1866 H 183.964 0.477361 5.4682 0
M  V30 1867 H 184.225 -0.843293 4.33983 0
M  V30 1868 N 183.284 -1.43765 0.645699 0
M  V30 1869 C 184.533 -2.01116 0.153412 0
M  V30 1870 C 184.846 -1.51493 -1.23731 0
M  V30 1871 O 186.052 -2.01067 -1.8244 0
M  V30 1872 C 184.508 -3.59206 0.223473 0
M  V30 1873 C 184.116 -4.17823 1.61642 0
M  V30 1874 C 185.86 -4.23972 -0.211597 0
M  V30 1875 C 183.767 -5.68183 1.64081 0
M  V30 1876 H 182.697 -0.752093 0.0535891 0
M  V30 1877 H 185.348 -1.6482 0.806633 0
M  V30 1878 H 183.73 -3.92867 -0.497118 0
M  V30 1879 H 184.904 -3.95674 2.36176 0
M  V30 1880 H 183.219 -3.65399 1.99681 0
M  V30 1881 H 185.816 -5.34275 -0.213112 0
M  V30 1882 H 186.159 -3.97352 -1.24165 0
M  V30 1883 H 186.692 -3.95166 0.456988 0
M  V30 1884 H 183.431 -5.99559 2.64971 0
M  V30 1885 H 182.951 -5.9241 0.938611 0
M  V30 1886 H 184.63 -6.32085 1.3812 0
M  V30 1887 N 184.763 -0.387143 -1.52771 0
M  V30 1888 C 186.011 0.195349 -2.01154 0
M  V30 1889 C 186.332 1.475 -1.27549 0
M  V30 1890 O 185.602 1.91878 -0.394924 0
M  V30 1891 H 184.182 0.075178 -0.743207 0
M  V30 1892 H 186.844 -0.518337 -1.87881 0
M  V30 1893 H 185.94 0.407096 -3.09434 0
M  V30 1894 N 186.241 1.57166 -0.116904 0
M  V30 1895 C 187.466 1.999 0.55271 0
M  V30 1896 C 187.891 0.996039 1.59564 0
M  V30 1897 O 187.249 -0.032556 1.81271 0
M  V30 1898 C 187.297 3.4152 1.15742 0
M  V30 1899 O 186.401 3.44106 2.27299 0
M  V30 1900 H 185.742 0.649447 0.138258 0
M  V30 1901 H 188.272 2.03573 -0.204759 0
M  V30 1902 H 188.282 3.79684 1.49346 0
M  V30 1903 H 186.957 4.14034 0.393493 0
M  V30 1904 H 185.534 3.17759 1.9515 0
M  V30 1905 N 187.719 -0.156864 1.56817 0
M  V30 1906 C 188.965 -0.872416 1.83076 0
M  V30 1907 C 189.298 -1.81261 0.697001 0
M  V30 1908 O 188.573 -1.92171 -0.30008 0
M  V30 1909 C 188.856 -1.65551 3.19789 0
M  V30 1910 C 188.709 -0.737467 4.43713 0
M  V30 1911 C 190.028 -2.62012 3.53606 0
M  V30 1912 H 187.147 -0.315715 0.665953 0
M  V30 1913 H 189.789 -0.138004 1.89498 0
M  V30 1914 H 187.939 -2.28159 3.14445 0
M  V30 1915 H 189.611 -0.123143 4.61136 0
M  V30 1916 H 187.854 -0.0464067 4.33775 0
M  V30 1917 H 188.525 -1.32122 5.35955 0
M  V30 1918 H 191.001 -2.09525 3.59497 0
M  V30 1919 H 189.877 -3.13861 4.50314 0
M  V30 1920 H 190.138 -3.42902 2.79053 0
M  V30 1921 N 189.197 -1.51736 -0.425897 0
M  V30 1922 C 190.444 -1.6497 -1.17436 0
M  V30 1923 C 190.772 -0.371445 -1.9092 0
M  V30 1924 O 190.027 0.644963 -1.84767 0
M  V30 1925 C 190.326 -2.81103 -2.20717 0
M  V30 1926 C 189.992 -4.19954 -1.64162 0
M  V30 1927 C 188.654 -4.57725 -1.48462 0
M  V30 1928 C 191.006 -5.06552 -1.22696 0
M  V30 1929 C 188.334 -5.79789 -0.897873 0
M  V30 1930 C 190.686 -6.29205 -0.654464 0
M  V30 1931 C 189.35 -6.6574 -0.484456 0
M  V30 1932 H 188.62 -0.603668 -0.429727 0
M  V30 1933 H 191.267 -1.85798 -0.463829 0
M  V30 1934 H 189.572 -2.54542 -2.97852 0
M  V30 1935 H 191.269 -2.8854 -2.78471 0
M  V30 1936 H 187.859 -3.90181 -1.77361 0
M  V30 1937 H 192.043 -4.77968 -1.33642 0
M  V30 1938 H 187.299 -6.06733 -0.75402 0
M  V30 1939 H 191.473 -6.95643 -0.324694 0
M  V30 1940 H 189.1 -7.60195 -0.0276833 0
M  V30 1941 N 190.675 0.682077 -1.42076 0
M  V30 1942 C 191.623 1.81707 -1.45208 0
M  V30 1943 C 192.617 1.66183 -0.328591 0
M  V30 1944 O 193.823 1.7288 -0.501264 0
M  V30 1945 H 190.198 0.599014 -0.454628 0
M  V30 1946 H 192.169 1.76183 -2.40836 0
M  V30 1947 C 190.918 3.19816 -1.36428 0
M  V30 1948 H 190.241 3.32385 -2.22171 0
M  V30 1949 H 191.681 3.99272 -1.42681 0
M  V30 1950 C 190.14 3.36809 -0.078191 0
M  V30 1951 O 190.67 3.92124 0.87188 0
M  V30 1952 N 188.876 2.906 0.00229266 0
M  V30 1953 H 188.423 2.45772 -0.771616 0
M  V30 1954 H 188.381 3.02347 0.862179 0
M  V30 1955 N 192.153 1.28127 0.917671 0
M  V30 1956 C 193.402 1.14432 1.66097 0
M  V30 1957 C 193.715 -0.307247 1.93172 0
M  V30 1958 O 194.921 -0.565259 2.65551 0
M  V30 1959 C 193.377 2.00015 2.99202 0
M  V30 1960 C 192.985 3.49889 2.79789 0
M  V30 1961 C 194.729 1.94996 3.77064 0
M  V30 1962 C 192.636 4.27636 4.08511 0
M  V30 1963 H 191.566 0.424662 0.62304 0
M  V30 1964 H 194.217 1.52628 1.01868 0
M  V30 1965 H 192.599 1.54672 3.64544 0
M  V30 1966 H 193.773 4.03162 2.23152 0
M  V30 1967 H 192.088 3.56392 2.15345 0
M  V30 1968 H 194.685 2.50354 4.72469 0
M  V30 1969 H 195.028 0.925819 4.05875 0
M  V30 1970 H 195.561 2.38287 3.18534 0
M  V30 1971 H 192.3 5.30615 3.84874 0
M  V30 1972 H 191.82 3.79137 4.64774 0
M  V30 1973 H 193.499 4.37346 4.76799 0
M  V30 1974 N 193.631 -1.12557 1.10312 0
M  V30 1975 C 194.859 -1.87864 0.866873 0
M  V30 1976 C 195.274 -1.79588 -0.582557 0
M  V30 1977 O 194.631 -1.16887 -1.40156 0
M  V30 1978 C 194.682 -3.37125 1.30496 0
M  V30 1979 O 194.403 -3.45201 2.69755 0
M  V30 1980 C 195.904 -4.29373 1.10243 0
M  V30 1981 H 193.124 -0.594452 0.311236 0
M  V30 1982 H 195.668 -1.42429 1.46745 0
M  V30 1983 H 193.823 -3.80109 0.748081 0
M  V30 1984 H 194.237 -4.38056 2.88457 0
M  V30 1985 H 195.711 -5.32394 1.45811 0
M  V30 1986 H 196.188 -4.39181 0.0409492 0
M  V30 1987 H 196.794 -3.92169 1.64571 0
M  V30 1988 N 195.109 -0.891671 -1.2995 0
M  V30 1989 C 196.072 -0.36828 -2.26222 0
M  V30 1990 C 197.072 0.493014 -1.53056 0
M  V30 1991 O 198.262 0.299213 -1.71611 0
M  V30 1992 C 195.394 0.47442 -3.37583 0
M  V30 1993 H 196.587 -1.21844 -2.74033 0
M  V30 1994 H 194.14 -0.669107 -1.41254 0
M  V30 1995 H 194.875 1.34489 -2.95099 0
M  V30 1996 H 194.66 -0.142615 -3.91841 0
M  V30 1997 H 196.15 0.83218 -4.09224 0
M  V30 1998 N 196.587 1.43421 -0.653314 0
M  V30 1999 C 197.836 2.01032 -0.164076 0
M  V30 2000 C 198.149 1.52147 1.22926 0
M  V30 2001 O 199.355 2.02031 1.81371 0
M  V30 2002 C 197.811 3.59082 -0.24252 0
M  V30 2003 C 197.419 4.1696 -1.63855 0
M  V30 2004 C 199.163 4.24079 0.18911 0
M  V30 2005 C 197.07 5.67304 -1.67092 0
M  V30 2006 H 196 0.751798 -0.0575769 0
M  V30 2007 H 198.651 1.6439 -0.815362 0
M  V30 2008 H 197.033 3.93125 0.476276 0
M  V30 2009 H 198.207 3.94416 -2.38271 0
M  V30 2010 H 196.522 3.64335 -2.01616 0
M  V30 2011 H 199.119 5.34381 0.184775 0
M  V30 2012 H 199.462 3.98005 1.22056 0
M  V30 2013 H 199.995 3.94918 -0.477938 0
M  V30 2014 H 196.734 5.98145 -2.68146 0
M  V30 2015 H 196.254 5.91904 -0.970014 0
M  V30 2016 H 197.933 6.31344 -1.4147 0
M  V30 2017 N 198.065 0.39524 1.52563 0
M  V30 2018 C 199.028 -0.425001 2.25225 0
M  V30 2019 C 200.028 -0.985266 1.27079 0
M  V30 2020 O 201.218 -0.866332 1.5113 0
M  V30 2021 C 198.35 -1.59686 3.01186 0
M  V30 2022 H 199.543 0.211233 2.99155 0
M  V30 2023 H 197.096 0.147472 1.55603 0
M  V30 2024 H 197.831 -2.27035 2.31572 0
M  V30 2025 H 197.616 -1.20176 3.73229 0
M  V30 2026 H 199.106 -2.17743 3.5634 0
M  V30 2027 N 199.544 -1.57102 0.125237 0
M  V30 2028 C 200.793 -1.94582 -0.531095 0
M  V30 2029 C 201.106 -1.01126 -1.6743 0
M  V30 2030 O 202.312 -1.28097 -2.39381 0
M  V30 2031 C 200.768 -3.45839 -0.996164 0
M  V30 2032 C 200.376 -4.47842 0.118926 0
M  V30 2033 C 202.12 -3.92227 -1.62352 0
M  V30 2034 C 200.027 -5.90284 -0.363192 0
M  V30 2035 H 198.957 -0.726391 -0.20217 0
M  V30 2036 H 201.608 -1.82339 0.206092 0
M  V30 2037 H 199.99 -3.53338 -1.78796 0
M  V30 2038 H 201.164 -4.52018 0.895358 0
M  V30 2039 H 199.479 -4.11243 0.653324 0
M  V30 2040 H 202.076 -4.96069 -1.99548 0
M  V30 2041 H 202.419 -3.32552 -2.50429 0
M  V30 2042 H 202.952 -3.87554 -0.897019 0
M  V30 2043 H 199.691 -6.53728 0.481679 0
M  V30 2044 H 199.211 -5.89515 -1.10597 0
M  V30 2045 H 200.89 -6.41752 -0.822377 0
M  V30 2046 N 201.022 0.148545 -1.56898 0
M  V30 2047 C 201.97 1.20265 -1.99096 0
M  V30 2048 C 202.964 1.44559 -0.883123 0
M  V30 2049 O 204.17 1.4487 -1.0683 0
M  V30 2050 H 200.545 0.404786 -0.63376 0
M  V30 2051 H 202.516 0.82004 -2.86911 0
M  V30 2052 C 201.265 2.52886 -2.3863 0
M  V30 2053 H 200.588 2.35021 -3.23427 0
M  V30 2054 H 202.028 3.25274 -2.7198 0
M  V30 2055 C 200.487 3.13315 -1.23837 0
M  V30 2056 O 201.017 3.98077 -0.538268 0
M  V30 2057 N 199.223 2.72742 -1.00301 0
M  V30 2058 H 198.77 2.03912 -1.5741 0
M  V30 2059 H 198.728 3.13507 -0.236838 0
M  V30 2060 N 202.5 1.5196 0.417844 0
M  V30 2061 C 203.916 1.40569 0.755816 0
M  V30 2062 C 204.116 0.503316 1.95113 0
M  V30 2063 O 203.172 -0.0341925 2.52477 0
M  V30 2064 C 204.485 2.82947 1.01791 0
M  V30 2065 C 206.033 2.92231 1.12116 0
M  V30 2066 C 206.508 4.35559 1.41608 0
M  V30 2067 N 207.999 4.38753 1.48491 0
M  V30 2068 C 208.734 5.46705 1.7292 0
M  V30 2069 N 208.23 6.64788 1.95011 0
M  V30 2070 N 210.023 5.34209 1.74863 0
M  V30 2071 H 202.174 2.09168 -0.369098 0
M  V30 2072 H 204.437 0.942409 -0.102809 0
M  V30 2073 H 204.143 3.5106 0.212081 0
M  V30 2074 H 204.017 3.23462 1.94042 0
M  V30 2075 H 206.404 2.24304 1.9176 0
M  V30 2076 H 206.485 2.55185 0.177225 0
M  V30 2077 H 206.129 5.04042 0.624848 0
M  V30 2078 H 206.059 4.70133 2.37239 0
M  V30 2079 H 208.55 3.5363 1.33244 0
M  V30 2080 H 208.863 7.42845 2.13076 0
M  V30 2081 H 207.208 6.67869 1.92293 0
M  V30 2082 H 210.399 4.40937 1.57137 0
M  V30 2083 H 210.572 6.18415 1.93563 0
M  V30 2084 N 203.978 -0.674533 1.42435 0
M  V30 2085 C 205.208 -1.46071 1.46105 0
M  V30 2086 C 205.616 -1.89067 0.0709605 0
M  V30 2087 O 204.959 -1.58731 -0.924677 0
M  V30 2088 C 205.021 -2.74145 2.32561 0
M  V30 2089 C 204.685 -2.53224 3.8043 0
M  V30 2090 C 205.682 -2.17809 4.72075 0
M  V30 2091 C 203.367 -2.6821 4.24698 0
M  V30 2092 C 205.361 -1.97648 6.05982 0
M  V30 2093 C 203.048 -2.47665 5.58664 0
M  V30 2094 C 204.046 -2.12437 6.49122 0
M  V30 2095 O 203.734 -1.9209 7.80613 0
M  V30 2096 H 203.466 -0.455959 0.499076 0
M  V30 2097 H 206.02 -0.836193 1.87609 0
M  V30 2098 H 204.25 -3.3908 1.85908 0
M  V30 2099 H 205.939 -3.36028 2.27683 0
M  V30 2100 H 206.705 -2.05826 4.39159 0
M  V30 2101 H 202.584 -2.94609 3.54579 0
M  V30 2102 H 206.128 -1.70075 6.7655 0
M  V30 2103 H 202.025 -2.59244 5.91154 0
M  V30 2104 H 202.793 -2.06686 7.91974 0
M  V30 2105 N 205.456 -1.28612 -0.910864 0
M  V30 2106 C 206.696 -1.1719 -1.67469 0
M  V30 2107 C 207.06 0.274441 -1.90028 0
M  V30 2108 O 208.261 0.511425 -2.6389 0
M  V30 2109 C 206.532 -1.95137 -2.99427 0
M  V30 2110 S 208.091 -2.00122 -3.90508 0
M  V30 2111 H 204.909 -0.41806 -0.575106 0
M  V30 2112 H 207.511 -1.6275 -1.08317 0
M  V30 2113 H 206.215 -2.99381 -2.80712 0
M  V30 2114 H 205.746 -1.50137 -3.63624 0
M  V30 2115 H 207.761 -1.10981 -4.8363 0
M  V30 2116 N 206.934 1.1197 -1.10907 0
M  V30 2117 C 208.164 1.8713 -0.875553 0
M  V30 2118 C 208.572 1.8016 0.577843 0
M  V30 2119 O 207.915 1.17699 1.41042 0
M  V30 2120 C 207.977 3.37005 -1.2517 0
M  V30 2121 C 207.641 3.67748 -2.71313 0
M  V30 2122 C 208.638 3.65698 -3.69542 0
M  V30 2123 C 206.323 3.96928 -3.07821 0
M  V30 2124 C 208.317 3.92395 -5.023 0
M  V30 2125 C 206.004 4.23284 -4.40765 0
M  V30 2126 C 207.002 4.21005 -5.37814 0
M  V30 2127 O 206.69 4.46704 -6.68364 0
M  V30 2128 H 206.422 0.598786 -0.313737 0
M  V30 2129 H 208.976 1.42568 -1.47863 0
M  V30 2130 H 207.206 3.82146 -0.591741 0
M  V30 2131 H 208.895 3.93519 -0.994877 0
M  V30 2132 H 209.661 3.43211 -3.42682 0
M  V30 2133 H 205.54 3.97841 -2.32902 0
M  V30 2134 H 209.084 3.90531 -5.78041 0
M  V30 2135 H 204.981 4.45246 -4.67361 0
M  V30 2136 H 205.749 4.64299 -6.74069 0
M  V30 2137 N 208.412 0.89855 1.29475 0
M  V30 2138 C 209.661 0.519863 1.94885 0
M  V30 2139 C 209.974 -0.9383 1.71625 0
M  V30 2140 O 211.18 -1.42445 2.31131 0
M  V30 2141 C 209.636 0.878836 3.49005 0
M  V30 2142 C 209.244 2.35569 3.81066 0
M  V30 2143 C 210.988 0.570004 4.20656 0
M  V30 2144 C 208.895 2.65558 5.28425 0
M  V30 2145 H 207.825 0.190692 0.729488 0
M  V30 2146 H 210.476 1.09539 1.47219 0
M  V30 2147 H 208.858 0.232253 3.95318 0
M  V30 2148 H 210.032 3.04773 3.45616 0
M  V30 2149 H 208.347 2.63343 3.22552 0
M  V30 2150 H 210.944 0.770925 5.29113 0
M  V30 2151 H 211.287 -0.491404 4.1339 0
M  V30 2152 H 211.82 1.17438 3.8007 0
M  V30 2153 H 208.559 3.70493 5.40754 0
M  V30 2154 H 208.079 2.00977 5.65127 0
M  V30 2155 H 209.758 2.51765 5.96006 0
M  V30 2156 N 209.89 -1.43072 0.660911 0
M  V30 2157 C 211.13 -2.03596 0.181146 0
M  V30 2158 C 211.494 -1.51057 -1.18515 0
M  V30 2159 O 212.695 -2.03275 -1.75877 0
M  V30 2160 C 210.966 -3.56845 0.19911 0
M  V30 2161 S 212.525 -4.38289 -0.211684 0
M  V30 2162 H 209.343 -0.706954 0.0757479 0
M  V30 2163 H 211.945 -1.75027 0.870965 0
M  V30 2164 H 210.649 -3.92583 1.1961 0
M  V30 2165 H 210.18 -3.90067 -0.510996 0
M  V30 2166 H 212.195 -4.74583 -1.44863 0
M  V30 2167 N 211.368 -0.403325 -1.52352 0
M  V30 2168 C 212.318 0.442244 -2.2367 0
M  V30 2169 C 213.302 1.01823 -1.24583 0
M  V30 2170 O 214.494 0.942005 -1.49851 0
M  V30 2171 C 211.623 1.5615 -3.05732 0
M  V30 2172 C 210.709 0.996575 -4.12225 0
M  V30 2173 N 211.1 0.157804 -5.05554 0
M  V30 2174 C 209.398 1.26767 -4.27605 0
M  V30 2175 C 210.099 -0.155853 -5.81491 0
M  V30 2176 N 209.075 0.451775 -5.41719 0
M  V30 2177 H 212.877 -0.204964 -2.93184 0
M  V30 2178 H 210.391 -0.213418 -1.60992 0
M  V30 2179 H 212.388 2.17981 -3.55373 0
M  V30 2180 H 211.048 2.21139 -2.37755 0
M  V30 2181 H 212.059 -0.206049 -5.1749 0
M  V30 2182 H 208.736 1.91757 -3.70858 0
M  V30 2183 H 210.126 -0.836329 -6.66675 0
M  V30 2184 N 212.846 1.57033 -0.133567 0
M  V30 2185 C 214.071 2.00475 0.531477 0
M  V30 2186 C 214.496 1.01291 1.58499 0
M  V30 2187 O 213.854 -0.0133279 1.81295 0
M  V30 2188 C 213.902 3.42729 1.12113 0
M  V30 2189 O 213.006 3.46498 2.23636 0
M  V30 2190 H 212.347 0.650876 0.131362 0
M  V30 2191 H 214.877 2.03344 -0.22634 0
M  V30 2192 H 214.887 3.81246 1.4531 0
M  V30 2193 H 213.562 4.14428 0.349557 0
M  V30 2194 H 212.139 3.19811 1.91769 0
M  V30 2195 N 214.325 -0.140222 1.56975 0
M  V30 2196 C 215.258 -1.20266 1.93936 0
M  V30 2197 C 216.236 -1.41212 0.806099 0
M  V30 2198 O 217.42 -1.55713 1.06234 0
M  V30 2199 C 214.547 -2.56037 2.21726 0
M  V30 2200 C 213.593 -2.51646 3.44349 0
M  V30 2201 S 214.426 -1.97678 4.97678 0
M  V30 2202 C 215.582 -3.35165 5.28597 0
M  V30 2203 H 215.815 -0.887358 2.83749 0
M  V30 2204 H 213.348 -0.346119 1.50471 0
M  V30 2205 H 215.306 -3.34167 2.38416 0
M  V30 2206 H 213.967 -2.84755 1.32566 0
M  V30 2207 H 213.16 -3.51608 3.61092 0
M  V30 2208 H 212.762 -1.81628 3.26936 0
M  V30 2209 H 215.054 -4.31302 5.2248 0
M  V30 2210 H 215.997 -3.23269 6.30002 0
M  V30 2211 H 216.405 -3.32614 4.56101 0
M  V30 2212 N 215.803 -1.52179 -0.40978 0
M  V30 2213 C 216.766 -1.74853 -1.48186 0
M  V30 2214 C 217.766 -0.618417 -1.48433 0
M  V30 2215 O 218.956 -0.886286 -1.49969 0
M  V30 2216 C 216.088 -1.8303 -2.87598 0
M  V30 2217 H 217.281 -2.70559 -1.29374 0
M  V30 2218 H 214.834 -1.42586 -0.640233 0
M  V30 2219 H 215.569 -0.89236 -3.11781 0
M  V30 2220 H 215.354 -2.65187 -2.88822 0
M  V30 2221 H 216.844 -2.02316 -3.65319 0
M  V30 2222 N 217.281 0.66697 -1.42791 0
M  V30 2223 C 218.511 1.45294 -1.46878 0
M  V30 2224 C 218.919 1.89027 -0.0809861 0
M  V30 2225 O 218.262 1.59219 0.916246 0
M  V30 2226 C 218.324 2.72908 -2.34012 0
M  V30 2227 C 217.988 2.51203 -3.81767 0
M  V30 2228 C 218.985 2.15302 -4.73224 0
M  V30 2229 C 216.67 2.65954 -4.26115 0
M  V30 2230 C 218.664 1.94431 -6.07022 0
M  V30 2231 C 216.351 2.44699 -5.59969 0
M  V30 2232 C 217.349 2.08992 -6.5024 0
M  V30 2233 O 217.037 1.87948 -7.81621 0
M  V30 2234 H 216.769 0.453306 -0.501487 0
M  V30 2235 H 219.323 0.826232 -1.88049 0
M  V30 2236 H 217.553 3.38089 -1.87703 0
M  V30 2237 H 219.242 3.34816 -2.29462 0
M  V30 2238 H 220.008 2.03495 -4.40244 0
M  V30 2239 H 215.887 2.92724 -3.56137 0
M  V30 2240 H 219.431 1.66484 -6.77443 0
M  V30 2241 H 215.328 2.56105 -5.9252 0
M  V30 2242 H 216.096 2.02483 -7.93059 0
M  V30 2243 N 218.759 1.29093 0.90403 0
M  V30 2244 C 219.709 1.10482 1.99443 0
M  V30 2245 C 220.693 0.0255401 1.6088 0
M  V30 2246 O 221.885 0.24677 1.75271 0
M  V30 2247 C 219.014 0.778882 3.34348 0
M  V30 2248 C 218.1 1.89749 3.79284 0
M  V30 2249 N 218.491 3.14045 3.96497 0
M  V30 2250 C 216.789 1.78955 4.08523 0
M  V30 2251 C 217.49 3.86996 4.34292 0
M  V30 2252 N 216.466 3.14909 4.43095 0
M  V30 2253 H 220.268 2.04778 2.10815 0
M  V30 2254 H 217.782 1.20155 1.09255 0
M  V30 2255 H 219.779 0.62661 4.12164 0
M  V30 2256 H 218.439 -0.156205 3.24324 0
M  V30 2257 H 219.45 3.49548 3.82148 0
M  V30 2258 H 216.127 0.926886 4.07081 0
M  V30 2259 H 217.517 4.93941 4.55491 0
M  V30 2260 N 220.237 -1.11381 1.11499 0
M  V30 2261 C 221.653 -1.35143 0.849031 0
M  V30 2262 C 221.853 -1.94515 -0.525938 0
M  V30 2263 O 220.909 -2.1785 -1.27662 0
M  V30 2264 C 222.222 -2.28249 1.95762 0
M  V30 2265 C 223.77 -2.41812 1.98736 0
M  V30 2266 C 224.245 -3.3824 3.088 0
M  V30 2267 N 225.736 -3.45803 3.08179 0
M  V30 2268 C 226.471 -4.20358 3.89982 0
M  V30 2269 N 225.967 -4.97884 4.8175 0
M  V30 2270 N 227.76 -4.15877 3.78157 0
M  V30 2271 H 219.911 -0.712062 2.00109 0
M  V30 2272 H 222.174 -0.376025 0.870235 0
M  V30 2273 H 221.88 -1.91817 2.94787 0
M  V30 2274 H 221.754 -3.28473 1.85433 0
M  V30 2275 H 224.141 -2.77518 1.00338 0
M  V30 2276 H 224.222 -1.41437 2.13141 0
M  V30 2277 H 223.866 -3.03261 4.07425 0
M  V30 2278 H 223.796 -4.38471 2.91635 0
M  V30 2279 H 226.287 -2.90506 2.41691 0
M  V30 2280 H 226.6 -5.52142 5.40702 0
M  V30 2281 H 224.945 -4.97043 4.85771 0
M  V30 2282 H 228.136 -3.544 3.05808 0
M  V30 2283 H 228.309 -4.73723 4.42143 0
M  V30 2284 N 221.715 -0.905404 -1.28997 0
M  V30 2285 C 222.964 -0.530191 -1.94607 0
M  V30 2286 C 223.277 0.929185 -1.72121 0
M  V30 2287 O 224.483 1.41218 -2.31883 0
M  V30 2288 C 222.939 -0.897333 -3.48534 0
M  V30 2289 C 222.547 -2.37587 -3.79811 0
M  V30 2290 C 224.291 -0.592304 -4.20347 0
M  V30 2291 C 222.198 -2.68357 -5.27009 0
M  V30 2292 H 221.128 -0.194558 -0.728466 0
M  V30 2293 H 223.779 -1.10318 -1.46636 0
M  V30 2294 H 222.161 -0.253214 -3.9519 0
M  V30 2295 H 223.335 -3.06602 -3.43994 0
M  V30 2296 H 221.65 -2.6505 -3.2115 0
M  V30 2297 H 224.247 -0.798975 -5.28697 0
M  V30 2298 H 224.59 0.469474 -4.13644 0
M  V30 2299 H 225.123 -1.19452 -3.79442 0
M  V30 2300 H 221.862 -3.73355 -5.38782 0
M  V30 2301 H 221.382 -2.03971 -5.64053 0
M  V30 2302 H 223.061 -2.54922 -5.94663 0
M  V30 2303 N 223.193 1.4272 -0.668489 0
M  V30 2304 C 224.423 2.05668 -0.196063 0
M  V30 2305 C 224.831 1.5028 1.14946 0
M  V30 2306 O 224.174 0.6348 1.72383 0
M  V30 2307 C 224.236 3.59469 -0.0468879 0
M  V30 2308 C 223.9 4.37518 -1.32012 0
M  V30 2309 C 224.897 4.68584 -2.25222 0
M  V30 2310 C 222.582 4.77266 -1.56596 0
M  V30 2311 C 224.576 5.38326 -3.41297 0
M  V30 2312 C 222.263 5.4675 -2.72962 0
M  V30 2313 C 223.261 5.77204 -3.65137 0
M  V30 2314 O 222.949 6.45264 -4.79468 0
M  V30 2315 H 222.681 0.669382 -0.0943599 0
M  V30 2316 H 225.235 1.83954 -0.913788 0
M  V30 2317 H 223.465 3.79817 0.726357 0
M  V30 2318 H 225.154 4.04071 0.384852 0
M  V30 2319 H 225.92 4.38382 -2.07477 0
M  V30 2320 H 221.799 4.52959 -0.857249 0
M  V30 2321 H 225.343 5.62014 -4.13263 0
M  V30 2322 H 221.24 5.76369 -2.90635 0
M  V30 2323 H 222.008 6.63753 -4.78931 0
M  V30 2324 N 224.671 0.411399 1.52136 0
M  V30 2325 C 226.087 0.0623865 1.59478 0
M  V30 2326 C 226.287 -1.42554 1.4241 0
M  V30 2327 O 225.343 -2.19263 1.2522 0
M  V30 2328 C 226.656 0.559331 2.95452 0
M  V30 2329 C 228.204 0.517503 3.08692 0
M  V30 2330 C 228.679 0.990994 4.4715 0
M  V30 2331 N 230.17 0.947908 4.53397 0
M  V30 2332 C 230.905 1.28544 5.58806 0
M  V30 2333 N 230.401 1.69454 6.71757 0
M  V30 2334 N 232.194 1.20526 5.49026 0
M  V30 2335 H 224.345 1.37982 1.61477 0
M  V30 2336 H 226.608 0.566977 0.759764 0
M  V30 2337 H 226.314 1.59938 3.1323 0
M  V30 2338 H 226.188 -0.0298014 3.77188 0
M  V30 2339 H 228.575 -0.513505 2.90598 0
M  V30 2340 H 228.656 1.14272 2.28857 0
M  V30 2341 H 228.3 2.02034 4.65988 0
M  V30 2342 H 228.23 0.34257 5.25485 0
M  V30 2343 H 230.721 0.647157 3.72317 0
M  V30 2344 H 231.034 1.93513 7.48179 0
M  V30 2345 H 229.379 1.73359 6.73032 0
M  V30 2346 H 232.57 0.884505 4.59667 0
M  V30 2347 H 232.743 1.47161 6.31069 0
M  V30 2348 N 226.149 -1.5696 0.141893 0
M  V30 2349 C 227.565 -1.58151 -0.21456 0
M  V30 2350 C 227.765 -1.1559 -1.65049 0
M  V30 2351 O 226.821 -0.853832 -2.37626 0
M  V30 2352 C 228.134 -3.00674 0.0395576 0
M  V30 2353 C 229.682 -3.1299 -0.0245529 0
M  V30 2354 C 230.157 -4.57554 0.202167 0
M  V30 2355 N 231.648 -4.62961 0.148919 0
M  V30 2356 C 232.383 -5.7262 0.298924 0
M  V30 2357 N 231.879 -6.90947 0.50637 0
M  V30 2358 N 233.672 -5.61601 0.236886 0
M  V30 2359 H 225.823 -1.8292 1.07953 0
M  V30 2360 H 228.086 -0.846425 0.42693 0
M  V30 2361 H 227.792 -3.36183 1.03315 0
M  V30 2362 H 227.666 -3.70981 -0.682143 0
M  V30 2363 H 230.053 -2.77326 -1.00869 0
M  V30 2364 H 230.134 -2.4518 0.729396 0
M  V30 2365 H 229.778 -4.93922 1.18338 0
M  V30 2366 H 229.708 -5.23484 -0.572044 0
M  V30 2367 H 232.199 -3.77899 -0.00697015 0
M  V30 2368 H 232.512 -7.7038 0.611076 0
M  V30 2369 H 230.857 -6.92878 0.542628 0
M  V30 2370 H 234.048 -4.68039 0.0756209 0
M  V30 2371 H 234.221 -6.47015 0.357227 0
M  V30 2372 N 227.627 0.131896 -1.57047 0
M  V30 2373 C 228.873 0.838268 -1.85323 0
M  V30 2374 C 229.228 1.78098 -0.727937 0
M  V30 2375 O 228.521 1.89645 0.27304 0
M  V30 2376 C 228.715 1.63703 -3.17704 0
M  V30 2377 C 228.544 0.773167 -4.43004 0
M  V30 2378 C 227.314 0.432956 -5.03442 0
M  V30 2379 C 229.512 0.0966216 -5.14209 0
M  V30 2380 N 227.494 -0.442924 -6.123 0
M  V30 2381 C 228.865 -0.638778 -6.16701 0
M  V30 2382 C 230.92 0.018861 -4.97896 0
M  V30 2383 C 229.623 -1.44462 -7.04644 0
M  V30 2384 C 231.649 -0.773762 -5.86316 0
M  V30 2385 C 231.011 -1.4974 -6.883 0
M  V30 2386 H 227.11 0.284086 -0.728573 0
M  V30 2387 H 229.694 0.102731 -1.94429 0
M  V30 2388 H 227.865 2.3437 -3.09718 0
M  V30 2389 H 229.597 2.28774 -3.33833 0
M  V30 2390 H 226.352 0.772237 -4.67262 0
M  V30 2391 H 226.776 -0.872332 -6.71356 0
M  V30 2392 H 231.418 0.56397 -4.19022 0
M  V30 2393 H 229.136 -2.00093 -7.82936 0
M  V30 2394 H 232.722 -0.83612 -5.75761 0
M  V30 2395 H 231.602 -2.10087 -7.55535 0
M  V30 2396 N 229.106 1.52395 0.401703 0
M  V30 2397 C 230.056 1.72649 1.48917 0
M  V30 2398 C 231.04 0.580436 1.50066 0
M  V30 2399 O 232.232 0.83779 1.55917 0
M  V30 2400 C 229.361 1.88729 2.86769 0
M  V30 2401 C 228.447 3.09228 2.90239 0
M  V30 2402 N 228.838 4.31805 2.63396 0
M  V30 2403 C 227.136 3.09214 3.21408 0
M  V30 2404 C 227.837 5.13326 2.73625 0
M  V30 2405 N 226.813 4.48735 3.06819 0
M  V30 2406 H 230.615 2.65058 1.26971 0
M  V30 2407 H 228.129 1.50528 0.609504 0
M  V30 2408 H 230.126 2.01358 3.65049 0
M  V30 2409 H 228.786 0.975252 3.09708 0
M  V30 2410 H 229.797 4.60154 2.37653 0
M  V30 2411 H 226.474 2.27774 3.49893 0
M  V30 2412 H 227.864 6.21003 2.56524 0
M  V30 2413 N 230.584 -0.659388 1.43143 0
M  V30 2414 C 231.812 -1.44723 1.47861 0
M  V30 2415 C 232.227 -1.88563 0.0945886 0
M  V30 2416 O 231.584 -1.59108 -0.893915 0
M  V30 2417 C 231.635 -2.68627 2.41913 0
M  V30 2418 O 231.356 -2.26623 3.74932 0
M  V30 2419 C 232.857 -3.62045 2.55809 0
M  V30 2420 H 230.077 -0.444801 0.502387 0
M  V30 2421 H 232.621 -0.808916 1.87821 0
M  V30 2422 H 230.776 -3.28613 2.05164 0
M  V30 2423 H 231.19 -3.06745 4.2545 0
M  V30 2424 H 232.664 -4.45666 3.25708 0
M  V30 2425 H 233.141 -4.08981 1.60099 0
M  V30 2426 H 233.747 -3.07944 2.93344 0
M  V30 2427 N 232.062 -1.29571 -0.897171 0
M  V30 2428 C 233.473 -1.15964 -1.46319 0
M  V30 2429 C 233.824 0.244267 -1.94674 0
M  V30 2430 O 232.949 1.13998 -1.83939 0
M  V30 2431 C 233.544 -2.09906 -2.65942 0
M  V30 2432 C 232.103 -2.00314 -3.18671 0
M  V30 2433 C 231.25 -2.00687 -1.91363 0
M  V30 2434 H 234.201 -1.42019 -0.708268 0
M  V30 2435 H 234.222 -1.67276 -3.41759 0
M  V30 2436 H 233.734 -3.12075 -2.30718 0
M  V30 2437 H 231.835 -1.01242 -3.58582 0
M  V30 2438 H 231.948 -2.88102 -3.82798 0
M  V30 2439 H 230.312 -1.45319 -2.09175 0
M  V30 2440 H 231.095 -3.04566 -1.58413 0
M  V30 2441 N 233.54 1.10788 -1.12088 0
M  V30 2442 C 234.47 2.19083 -0.807755 0
M  V30 2443 C 235.451 1.6858 0.226859 0
M  V30 2444 O 236.636 1.93997 0.0888475 0
M  V30 2445 C 233.766 3.46344 -0.257576 0
M  V30 2446 C 232.72 4.101 -1.22483 0
M  V30 2447 C 232.046 5.32016 -0.535052 0
M  V30 2448 C 233.346 4.54236 -2.57811 0
M  V30 2449 H 235.04 2.45534 -1.71328 0
M  V30 2450 H 232.586 1.1801 -0.825205 0
M  V30 2451 H 234.539 4.21392 -0.0262679 0
M  V30 2452 H 233.263 3.19373 0.683278 0
M  V30 2453 H 231.922 3.37054 -1.44189 0
M  V30 2454 H 231.57 5.01319 0.410827 0
M  V30 2455 H 231.27 5.75625 -1.18024 0
M  V30 2456 H 232.794 6.09799 -0.312695 0
M  V30 2457 H 234.208 5.20575 -2.40155 0
M  V30 2458 H 232.605 5.08682 -3.18375 0
M  V30 2459 H 233.675 3.6734 -3.16528 0
M  V30 2460 N 235.018 0.912232 1.28515 0
M  V30 2461 C 235.968 0.370649 2.24967 0
M  V30 2462 C 236.952 -0.516375 1.52389 0
M  V30 2463 O 238.144 -0.356345 1.73376 0
M  V30 2464 C 235.273 -0.389526 3.41083 0
M  V30 2465 C 234.359 0.51313 4.20984 0
M  V30 2466 N 234.75 1.62604 4.78951 0
M  V30 2467 C 233.048 0.313235 4.44899 0
M  V30 2468 C 233.749 2.18619 5.39055 0
M  V30 2469 N 232.725 1.47765 5.23132 0
M  V30 2470 H 236.527 1.22061 2.67354 0
M  V30 2471 H 234.041 0.764712 1.43269 0
M  V30 2472 H 236.038 -0.794353 4.09262 0
M  V30 2473 H 234.698 -1.2366 3.0023 0
M  V30 2474 H 235.709 2.00864 4.77362 0
M  V30 2475 H 232.386 -0.494452 4.14562 0
M  V30 2476 H 233.776 3.12228 5.94948 0
M  V30 2477 N 236.496 -1.42363 0.676048 0
M  V30 2478 C 237.745 -2.00745 0.196037 0
M  V30 2479 C 238.058 -1.54083 -1.20489 0
M  V30 2480 O 239.264 -2.04891 -1.78134 0
M  V30 2481 C 237.72 -3.58651 0.299616 0
M  V30 2482 C 237.328 -4.143 1.70468 0
M  V30 2483 C 239.072 -4.24326 -0.121619 0
M  V30 2484 C 236.979 -5.64574 1.76096 0
M  V30 2485 H 235.909 -0.750787 0.0695301 0
M  V30 2486 H 238.56 -1.63072 0.841412 0
M  V30 2487 H 236.942 -3.93833 -0.413673 0
M  V30 2488 H 238.116 -3.90575 2.44515 0
M  V30 2489 H 236.431 -3.61081 2.07387 0
M  V30 2490 H 239.028 -5.34607 -0.0997362 0
M  V30 2491 H 239.371 -3.99897 -1.15708 0
M  V30 2492 H 239.904 -3.94108 0.540706 0
M  V30 2493 H 236.643 -5.93804 2.77628 0
M  V30 2494 H 236.163 -5.90286 1.06406 0
M  V30 2495 H 237.842 -6.29013 1.51496 0
M  V30 2496 N 237.974 -0.419461 -1.51915 0
M  V30 2497 C 239.214 0.152336 -2.03832 0
M  V30 2498 C 239.578 1.41501 -1.29775 0
M  V30 2499 O 240.779 2.06591 -1.7197 0
M  V30 2500 C 239.05 0.383812 -3.55333 0
M  V30 2501 S 240.609 0.921577 -4.29013 0
M  V30 2502 H 237.427 0.0402193 -0.709862 0
M  V30 2503 H 240.029 -0.574758 -1.8686 0
M  V30 2504 H 238.733 -0.541794 -4.06808 0
M  V30 2505 H 238.264 1.13849 -3.76566 0
M  V30 2506 H 240.279 2.20108 -4.4471 0
M  V30 2507 N 239.452 1.56882 -0.150215 0
M  V30 2508 C 240.382 2.19935 0.784284 0
M  V30 2509 C 241.363 1.14854 1.25469 0
M  V30 2510 O 242.548 1.43209 1.31168 0
M  V30 2511 C 239.678 2.82349 2.02229 0
M  V30 2512 C 238.632 3.93285 1.68853 0
M  V30 2513 C 237.958 4.42649 2.99944 0
M  V30 2514 C 239.258 5.13904 0.932714 0
M  V30 2515 H 240.952 2.9828 0.258781 0
M  V30 2516 H 238.498 1.43473 0.123029 0
M  V30 2517 H 240.451 3.25126 2.68088 0
M  V30 2518 H 239.175 2.0134 2.57157 0
M  V30 2519 H 237.834 3.5113 1.05371 0
M  V30 2520 H 237.482 3.58458 3.52869 0
M  V30 2521 H 237.182 5.17476 2.78374 0
M  V30 2522 H 238.706 4.88099 3.66868 0
M  V30 2523 H 240.12 5.53506 1.49345 0
M  V30 2524 H 238.517 5.94515 0.81684 0
M  V30 2525 H 239.587 4.84842 -0.0749568 0
M  V30 2526 N 240.93 -0.123565 1.57115 0
M  V30 2527 C 242.179 -0.830704 1.83799 0
M  V30 2528 C 242.492 -1.81259 0.735158 0
M  V30 2529 O 243.698 -2.56558 0.888278 0
M  V30 2530 C 242.154 -1.52802 3.25852 0
M  V30 2531 C 241.762 -0.587356 4.44133 0
M  V30 2532 C 243.506 -2.22056 3.61789 0
M  V30 2533 C 241.413 -1.28764 5.77212 0
M  V30 2534 H 240.343 -0.313967 0.685522 0
M  V30 2535 H 242.994 -0.0834359 1.8331 0
M  V30 2536 H 241.376 -2.32175 3.20797 0
M  V30 2537 H 242.55 0.172829 4.60476 0
M  V30 2538 H 240.865 -0.00201892 4.164 0
M  V30 2539 H 243.462 -2.75131 4.58483 0
M  V30 2540 H 243.805 -2.99644 2.88997 0
M  V30 2541 H 244.338 -1.49576 3.68608 0
M  V30 2542 H 241.077 -0.55314 6.53162 0
M  V30 2543 H 240.597 -2.01995 5.64764 0
M  V30 2544 H 242.276 -1.8221 6.20813 0
M  V30 2545 N 242.408 -1.52605 -0.393616 0
M  V30 2546 C 243.654 -1.68624 -1.13743 0
M  V30 2547 C 244.009 -0.418687 -1.87789 0
M  V30 2548 O 243.302 0.58747 -1.82371 0
M  V30 2549 C 243.496 -2.85721 -2.14705 0
M  V30 2550 C 243.325 -4.23742 -1.50575 0
M  V30 2551 C 242.095 -4.89033 -1.2718 0
M  V30 2552 C 244.293 -5.05293 -0.958311 0
M  V30 2553 N 242.275 -6.11048 -0.591058 0
M  V30 2554 C 243.646 -6.18673 -0.405367 0
M  V30 2555 C 245.701 -4.90517 -0.854274 0
M  V30 2556 C 244.404 -7.18895 0.241434 0
M  V30 2557 C 246.43 -5.90986 -0.221301 0
M  V30 2558 C 245.792 -7.03669 0.320894 0
M  V30 2559 H 241.891 -0.670556 -0.402342 0
M  V30 2560 H 244.475 -1.89946 -0.427607 0
M  V30 2561 H 242.646 -2.65987 -2.83029 0
M  V30 2562 H 244.378 -2.90699 -2.8156 0
M  V30 2563 H 241.133 -4.47672 -1.54554 0
M  V30 2564 H 241.557 -6.76474 -0.266862 0
M  V30 2565 H 246.199 -4.03612 -1.25926 0
M  V30 2566 H 243.917 -8.05413 0.658448 0
M  V30 2567 H 247.503 -5.81626 -0.142111 0
M  V30 2568 H 246.383 -7.80078 0.802956 0
M  V30 2569 N 243.887 0.651787 -1.4349 0
M  V30 2570 C 244.817 1.77621 -1.51569 0
M  V30 2571 C 245.798 1.66022 -0.370253 0
M  V30 2572 O 246.983 1.85095 -0.587658 0
M  V30 2573 C 244.113 3.16056 -1.43966 0
M  V30 2574 C 243.067 3.4242 -2.56774 0
M  V30 2575 C 242.393 4.8067 -2.34223 0
M  V30 2576 C 243.693 3.37023 -3.99015 0
M  V30 2577 H 245.387 1.71117 -2.45681 0
M  V30 2578 H 242.933 0.821825 -1.18246 0
M  V30 2579 H 244.886 3.94472 -1.48221 0
M  V30 2580 H 243.61 3.23293 -0.463586 0
M  V30 2581 H 242.269 2.66375 -2.51873 0
M  V30 2582 H 241.917 4.84585 -1.34856 0
M  V30 2583 H 241.617 4.9927 -3.09844 0
M  V30 2584 H 243.141 5.61342 -2.40265 0
M  V30 2585 H 244.555 4.05374 -4.05395 0
M  V30 2586 H 242.952 3.67159 -4.74673 0
M  V30 2587 H 244.022 2.3518 -4.2405 0
M  V30 2588 N 245.365 1.30045 0.890287 0
M  V30 2589 C 246.295 1.18541 2.01172 0
M  V30 2590 C 247.276 0.0773356 1.69924 0
M  V30 2591 O 248.461 0.25845 1.92473 0
M  V30 2592 C 245.591 0.870941 3.36202 0
M  V30 2593 C 244.545 1.93637 3.81692 0
M  V30 2594 C 243.871 1.475 5.13953 0
M  V30 2595 C 245.171 3.34666 4.00994 0
M  V30 2596 H 246.865 2.12359 2.11054 0
M  V30 2597 H 244.411 1.02238 1.01407 0
M  V30 2598 H 246.364 0.777141 4.14172 0
M  V30 2599 H 245.088 -0.102926 3.26438 0
M  V30 2600 H 243.747 2.01972 3.05946 0
M  V30 2601 H 243.395 0.489551 5.00612 0
M  V30 2602 H 243.095 2.1876 5.4536 0
M  V30 2603 H 244.619 1.39489 5.94454 0
M  V30 2604 H 246.033 3.2912 4.69417 0
M  V30 2605 H 244.43 4.03966 4.43769 0
M  V30 2606 H 245.5 3.76949 3.05021 0
M  V30 2607 N 246.843 -1.10192 1.12674 0
M  V30 2608 C 248.071 -1.85983 0.906527 0
M  V30 2609 C 248.486 -1.80783 -0.544333 0
M  V30 2610 O 247.843 -1.19834 -1.37645 0
M  V30 2611 C 247.894 -3.34281 1.37618 0
M  V30 2612 O 247.615 -3.39401 2.77017 0
M  V30 2613 C 249.116 -4.26938 1.19325 0
M  V30 2614 H 246.336 -0.587716 0.323775 0
M  V30 2615 H 248.88 -1.39284 1.49734 0
M  V30 2616 H 247.035 -3.78436 0.828539 0
M  V30 2617 H 247.449 -4.31838 2.97684 0
M  V30 2618 H 248.923 -5.29181 1.57071 0
M  V30 2619 H 249.4 -4.38995 0.134097 0
M  V30 2620 H 250.006 -3.8859 1.72852 0
M  V30 2621 N 248.321 -0.919034 -1.28029 0
M  V30 2622 C 249.567 -0.555757 -1.95036 0
M  V30 2623 C 249.9 0.899198 -1.72128 0
M  V30 2624 O 249.175 1.64023 -1.04531 0
M  V30 2625 C 249.458 -0.872024 -3.49382 0
M  V30 2626 C 249.311 -2.3801 -3.81669 0
M  V30 2627 C 250.63 -0.37185 -4.38526 0
M  V30 2628 H 247.749 -0.203386 -0.708381 0
M  V30 2629 H 250.391 -1.14924 -1.51303 0
M  V30 2630 H 248.541 -0.366946 -3.86763 0
M  V30 2631 H 250.213 -2.9562 -3.54128 0
M  V30 2632 H 248.456 -2.83289 -3.28526 0
M  V30 2633 H 249.127 -2.55192 -4.8947 0
M  V30 2634 H 251.603 -0.804602 -4.08247 0
M  V30 2635 H 250.479 -0.622173 -5.45362 0
M  V30 2636 H 250.74 0.727934 -4.36066 0
M  V30 2637 N 249.799 1.42003 -0.683588 0
M  V30 2638 C 251.045 2.01712 -0.209825 0
M  V30 2639 C 251.378 1.53968 1.18353 0
M  V30 2640 O 250.653 0.745661 1.79639 0
M  V30 2641 C 250.936 3.59202 -0.254197 0
M  V30 2642 C 250.789 4.17102 -1.68363 0
M  V30 2643 C 252.108 4.38344 0.392709 0
M  V30 2644 H 249.227 0.732891 -0.0777189 0
M  V30 2645 H 251.869 1.68909 -0.87004 0
M  V30 2646 H 250.019 3.87278 0.307954 0
M  V30 2647 H 251.691 3.99946 -2.29871 0
M  V30 2648 H 249.934 3.72597 -2.22157 0
M  V30 2649 H 250.605 5.26249 -1.6663 0
M  V30 2650 H 253.081 4.16011 -0.0859162 0
M  V30 2651 H 251.957 5.47901 0.331063 0
M  V30 2652 H 252.218 4.16887 1.47164 0
M  V30 2653 N 251.277 0.427512 1.51691 0
M  V30 2654 C 252.24 -0.377132 2.26076 0
M  V30 2655 C 253.24 -0.958089 1.29141 0
M  V30 2656 O 254.43 -0.83408 1.52934 0
M  V30 2657 C 251.562 -1.53262 3.04506 0
M  V30 2658 H 252.755 0.27464 2.9864 0
M  V30 2659 H 250.308 0.180445 1.55255 0
M  V30 2660 H 251.043 -2.22072 2.36335 0
M  V30 2661 H 250.828 -1.12232 3.75694 0
M  V30 2662 H 252.318 -2.10135 3.60878 0
M  V30 2663 N 252.755 -1.56801 0.158532 0
M  V30 2664 C 253.685 -2.20347 -0.772609 0
M  V30 2665 C 254.666 -1.15518 -1.24859 0
M  V30 2666 O 255.851 -1.43902 -1.30406 0
M  V30 2667 C 252.981 -2.83417 -2.00729 0
M  V30 2668 C 251.935 -3.94174 -1.66765 0
M  V30 2669 C 251.261 -4.44233 -2.97592 0
M  V30 2670 C 252.561 -5.14392 -0.905447 0
M  V30 2671 H 254.255 -2.98413 -0.242959 0
M  V30 2672 H 251.801 -1.43537 -0.115419 0
M  V30 2673 H 253.754 -3.26543 -2.6636 0
M  V30 2674 H 252.478 -2.02701 -2.56086 0
M  V30 2675 H 251.137 -3.51684 -1.03508 0
M  V30 2676 H 250.785 -3.60325 -3.50963 0
M  V30 2677 H 250.485 -5.18945 -2.75626 0
M  V30 2678 H 252.009 -4.90037 -3.64274 0
M  V30 2679 H 253.423 -5.5429 -1.46408 0
M  V30 2680 H 251.82 -5.9494 -0.7853 0
M  V30 2681 H 252.89 -4.84795 0.100668 0
M  V30 2682 N 254.233 0.115231 -1.57178 0
M  V30 2683 C 255.163 1.1423 -2.03651 0
M  V30 2684 C 256.144 1.42967 -0.921655 0
M  V30 2685 O 257.329 1.53343 -1.19162 0
M  V30 2686 C 254.459 2.4675 -2.44401 0
M  V30 2687 C 253.413 2.32467 -3.59365 0
M  V30 2688 C 252.739 3.69984 -3.86026 0
M  V30 2689 C 254.039 1.78203 -4.90959 0
M  V30 2690 H 255.733 0.755749 -2.89705 0
M  V30 2691 H 253.279 0.362093 -1.39373 0
M  V30 2692 H 255.232 3.18854 -2.75517 0
M  V30 2693 H 253.956 2.87302 -1.55322 0
M  V30 2694 H 252.615 1.62811 -3.28463 0
M  V30 2695 H 252.263 4.08028 -2.94147 0
M  V30 2696 H 251.963 3.61279 -4.63412 0
M  V30 2697 H 253.487 4.43587 -4.19599 0
M  V30 2698 H 254.901 2.40128 -5.20587 0
M  V30 2699 H 253.298 1.8031 -5.72371 0
M  V30 2700 H 254.368 0.739876 -4.79222 0
M  V30 2701 N 255.711 1.52812 0.385517 0
M  V30 2702 C 257.122 1.5993 0.963293 0
M  V30 2703 C 257.473 0.454302 1.90868 0
M  V30 2704 O 256.598 -0.422132 2.12243 0
M  V30 2705 C 257.193 2.89871 1.75387 0
M  V30 2706 C 255.752 2.99389 2.28129 0
M  V30 2707 C 254.899 2.55071 1.08783 0
M  V30 2708 H 257.85 1.5784 0.164948 0
M  V30 2709 H 257.871 2.76553 2.61341 0
M  V30 2710 H 257.383 3.73186 1.06554 0
M  V30 2711 H 255.484 2.20619 3.00263 0
M  V30 2712 H 255.597 4.04096 2.57377 0
M  V30 2713 H 253.961 2.09473 1.4489 0
M  V30 2714 H 254.744 3.40785 0.414807 0
M  V30 2715 N 257.189 -0.644168 1.43834 0
M  V30 2716 C 258.137 -1.77793 1.49974 0
M  V30 2717 C 259.131 -1.65253 0.372536 0
M  V30 2718 O 260.337 -1.7149 0.546924 0
M  V30 2719 H 256.712 -0.58675 0.47035 0
M  V30 2720 H 258.683 -1.69736 2.45423 0
M  V30 2721 C 257.432 -3.16087 1.4486 0
M  V30 2722 H 256.755 -3.26378 2.30905 0
M  V30 2723 H 258.195 -3.95349 1.53217 0
M  V30 2724 C 256.654 -3.36484 0.167463 0
M  V30 2725 O 257.184 -3.94298 -0.767609 0
M  V30 2726 N 255.39 -2.90504 0.0747556 0
M  V30 2727 H 254.937 -2.4364 0.836507 0
M  V30 2728 H 254.895 -3.04527 -0.781714 0
M  V30 2729 N 258.668 -1.30515 -0.883378 0
M  V30 2730 C 259.915 -1.1943 -1.63532 0
M  V30 2731 C 260.243 0.250627 -1.92878 0
M  V30 2732 O 259.498 1.19556 -1.54935 0
M  V30 2733 C 259.797 -1.96994 -2.98209 0
M  V30 2734 C 259.463 -3.466 -2.88408 0
M  V30 2735 C 258.125 -3.87397 -2.85442 0
M  V30 2736 C 260.477 -4.41863 -2.76418 0
M  V30 2737 C 257.805 -5.21745 -2.68327 0
M  V30 2738 C 260.157 -5.7632 -2.60841 0
M  V30 2739 C 258.821 -6.16354 -2.56251 0
M  V30 2740 H 258.091 -0.437025 -0.598406 0
M  V30 2741 H 260.738 -1.61635 -1.02696 0
M  V30 2742 H 259.043 -1.47429 -3.63004 0
M  V30 2743 H 260.74 -1.85808 -3.55354 0
M  V30 2744 H 257.33 -3.14182 -2.91527 0
M  V30 2745 H 261.514 -4.11285 -2.77775 0
M  V30 2746 H 256.77 -5.51853 -2.63189 0
M  V30 2747 H 260.944 -6.49772 -2.50538 0
M  V30 2748 H 258.571 -7.20401 -2.42748 0
M  V30 2749 N 260.146 1.09593 -1.13257 0
M  V30 2750 C 261.393 1.81734 -0.893257 0
M  V30 2751 C 261.721 1.8563 0.580656 0
M  V30 2752 O 260.976 1.31906 1.44566 0
M  V30 2753 C 261.275 3.27802 -1.42411 0
M  V30 2754 C 260.941 3.44041 -2.91456 0
M  V30 2755 C 259.603 3.48181 -3.3215 0
M  V30 2756 C 261.955 3.48719 -3.87356 0
M  V30 2757 C 259.283 3.54575 -4.67433 0
M  V30 2758 C 261.635 3.56648 -5.2248 0
M  V30 2759 C 260.299 3.59055 -5.62704 0
M  V30 2760 H 259.569 0.665011 -0.326866 0
M  V30 2761 H 262.216 1.2912 -1.41422 0
M  V30 2762 H 260.521 3.83042 -0.823795 0
M  V30 2763 H 262.218 3.82149 -1.21503 0
M  V30 2764 H 258.808 3.41502 -2.58987 0
M  V30 2765 H 262.992 3.44763 -3.57004 0
M  V30 2766 H 258.248 3.54725 -4.97976 0
M  V30 2767 H 262.422 3.59212 -5.96607 0
M  V30 2768 H 260.049 3.63763 -6.67518 0
M  V30 2769 N 261.624 0.925811 1.2754 0
M  V30 2770 C 262.87 0.566092 1.94739 0
M  V30 2771 C 263.203 -0.890057 1.72603 0
M  V30 2772 O 262.478 -1.63467 1.05399 0
M  V30 2773 C 262.761 0.89054 3.48915 0
M  V30 2774 C 262.614 2.4003 3.80402 0
M  V30 2775 C 263.933 0.395101 4.38323 0
M  V30 2776 H 261.052 0.20714 0.707292 0
M  V30 2777 H 263.694 1.15725 1.50691 0
M  V30 2778 H 261.844 0.387452 3.86563 0
M  V30 2779 H 263.516 2.97494 3.52555 0
M  V30 2780 H 261.759 2.85028 3.2702 0
M  V30 2781 H 262.43 2.57785 4.8811 0
M  V30 2782 H 264.906 0.826241 4.07814 0
M  V30 2783 H 263.782 0.651086 5.45025 0
M  V30 2784 H 264.043 -0.704798 4.36446 0
M  V30 2785 N 263.102 -1.41638 0.69111 0
M  V30 2786 C 264.35 -2.00902 0.219758 0
M  V30 2787 C 264.671 -1.54994 -1.18329 0
M  V30 2788 O 263.941 -0.778628 -1.79762 0
M  V30 2789 H 262.521 -0.74289 0.0782558 0
M  V30 2790 H 265.183 -1.73327 0.891271 0
M  V30 2791 H 264.279 -3.11224 0.233708 0
M  V30 2792 N 264.58 -0.43555 -1.51462 0
M  V30 2793 C 265.805 0.132627 -2.06976 0
M  V30 2794 C 266.23 1.35848 -1.30104 0
M  V30 2795 O 265.588 1.78112 -0.338493 0
M  V30 2796 C 265.636 0.43523 -3.57964 0
M  V30 2797 O 264.74 1.52198 -3.83288 0
M  V30 2798 H 264.081 0.00265 -0.663995 0
M  V30 2799 H 266.611 -0.616369 -1.95095 0
M  V30 2800 H 266.621 0.686206 -4.02188 0
M  V30 2801 H 265.296 -0.460739 -4.1334 0
M  V30 2802 H 263.873 1.2611 -3.50928 0
M  V30 2803 N 266.058 1.56714 -0.166846 0
M  V30 2804 C 266.988 2.20754 0.760913 0
M  V30 2805 C 267.969 1.16178 1.24244 0
M  V30 2806 O 269.154 1.44592 1.29641 0
M  V30 2807 C 266.284 2.84478 1.99223 0
M  V30 2808 C 265.238 3.95053 1.64672 0
M  V30 2809 C 264.564 4.45805 2.95232 0
M  V30 2810 C 265.864 5.14865 0.878155 0
M  V30 2811 H 267.558 2.98537 0.22713 0
M  V30 2812 H 265.104 1.43596 0.107805 0
M  V30 2813 H 267.057 3.27951 2.64624 0
M  V30 2814 H 265.781 2.04056 2.55007 0
M  V30 2815 H 264.44 3.52228 1.01641 0
M  V30 2816 H 264.088 3.62181 3.49047 0
M  V30 2817 H 263.788 5.204 2.7287 0
M  V30 2818 H 265.312 4.91962 3.6167 0
M  V30 2819 H 266.726 5.55059 1.43466 0
M  V30 2820 H 265.123 5.95348 0.753738 0
M  V30 2821 H 266.193 4.84735 -0.126377 0
M  V30 2822 N 267.536 -0.106894 1.57237 0
M  V30 2823 C 268.446 -1.14911 2.0453 0
M  V30 2824 C 269.462 -1.44592 0.96795 0
M  V30 2825 O 270.638 -1.55468 1.2803 0
M  V30 2826 C 267.703 -2.45272 2.45036 0
M  V30 2827 C 266.764 -2.22879 3.66911 0
M  V30 2828 C 265.997 -3.47024 4.05475 0
M  V30 2829 O 266.22 -4.54804 3.44252 0
M  V30 2830 O 265.154 -3.3731 4.98504 0
M  V30 2831 H 268.98 -0.777461 2.9358 0
M  V30 2832 H 266.565 -0.318563 1.45964 0
M  V30 2833 H 268.447 -3.22055 2.71769 0
M  V30 2834 H 267.122 -2.81886 1.59129 0
M  V30 2835 H 266.029 -1.43915 3.45311 0
M  V30 2836 H 267.362 -1.91163 4.53561 0
M  V30 2837 N 269.014 -1.53014 -0.377408 0
M  V30 2838 C 270.244 -1.72265 -1.14054 0
M  V30 2839 C 270.652 -0.44601 -1.83868 0
M  V30 2840 O 269.995 0.590095 -1.73964 0
M  V30 2841 C 270.057 -2.82492 -2.22348 0
M  V30 2842 C 269.721 -4.23233 -1.72402 0
M  V30 2843 C 270.718 -5.05992 -1.19448 0
M  V30 2844 C 268.403 -4.696 -1.78273 0
M  V30 2845 C 270.397 -6.33203 -0.730268 0
M  V30 2846 C 268.084 -5.96792 -1.31464 0
M  V30 2847 C 269.082 -6.78424 -0.789297 0
M  V30 2848 O 268.77 -8.0323 -0.328077 0
M  V30 2849 H 268.502 -0.579873 -0.347453 0
M  V30 2850 H 271.056 -2.00502 -0.445882 0
M  V30 2851 H 269.286 -2.49702 -2.95272 0
M  V30 2852 H 270.975 -2.90034 -2.83963 0
M  V30 2853 H 271.741 -4.71349 -1.14259 0
M  V30 2854 H 267.62 -4.06142 -2.18106 0
M  V30 2855 H 271.164 -6.96868 -0.319542 0
M  V30 2856 H 267.061 -6.30937 -1.36342 0
M  V30 2857 H 267.829 -8.1727 -0.448493 0
M  V30 2858 N 270.492 0.636531 -1.44174 0
M  V30 2859 C 271.769 1.39463 -1.37148 0
M  V30 2860 C 272.149 2.11082 -0.027507 0
M  V30 2861 O 271.497 2.05954 0.989716 0
M  V30 2862 C 271.707 2.36552 -2.56601 0
M  V30 2863 C 273.055 3.00048 -3.00427 0
M  V30 2864 O 274.079 2.46878 -2.56767 0
M  V30 2865 O 272.938 3.96488 -3.76111 0
M  V30 2866 H 270.032 0.623903 -0.542839 0
M  V30 2867 H 272.578 0.662039 -1.56253 0
M  V30 2868 H 271.35 1.82692 -3.46034 0
M  V30 2869 H 270.973 3.17236 -2.39681 0
M  V30 2870 N 271.97 1.30982 0.876444 0
M  V30 2871 C 273.381 1.18277 1.44456 0
M  V30 2872 C 273.732 -0.213265 1.95037 0
M  V30 2873 O 272.857 -1.11057 1.85729 0
M  V30 2874 C 273.452 2.1411 2.62569 0
M  V30 2875 C 272.011 2.05358 3.15444 0
M  V30 2876 C 271.158 2.03706 1.88146 0
M  V30 2877 H 274.109 1.43127 0.685584 0
M  V30 2878 H 274.13 1.72692 3.39054 0
M  V30 2879 H 273.642 3.15706 2.25724 0
M  V30 2880 H 271.743 1.06934 3.56926 0
M  V30 2881 H 271.856 2.94156 3.78166 0
M  V30 2882 H 270.22 1.48629 2.06837 0
M  V30 2883 H 271.003 3.07047 1.53547 0
M  V30 2884 N 273.449 -1.08991 1.13837 0
M  V30 2885 C 274.865 -1.33312 0.877506 0
M  V30 2886 C 275.065 -1.95587 -0.48456 0
M  V30 2887 O 274.121 -2.20509 -1.23013 0
M  V30 2888 C 275.434 -2.24045 2.0056 0
M  V30 2889 C 276.982 -2.37542 2.03821 0
M  V30 2890 C 277.457 -3.31614 3.15905 0
M  V30 2891 N 278.948 -3.39189 3.15445 0
M  V30 2892 C 279.683 -4.11992 3.98811 0
M  V30 2893 N 279.179 -4.87553 4.92203 0
M  V30 2894 N 280.972 -4.07762 3.86894 0
M  V30 2895 H 273.123 -0.669456 2.01574 0
M  V30 2896 H 275.386 -0.357482 0.878015 0
M  V30 2897 H 275.092 -1.85521 2.98789 0
M  V30 2898 H 274.966 -3.24466 1.92359 0
M  V30 2899 H 277.353 -2.75327 1.06202 0
M  V30 2900 H 277.434 -1.36884 2.16093 0
M  V30 2901 H 277.078 -2.94551 4.13766 0
M  V30 2902 H 277.008 -4.32186 3.0087 0
M  V30 2903 H 279.499 -2.85314 2.47799 0
M  V30 2904 H 279.812 -5.40549 5.52292 0
M  V30 2905 H 278.157 -4.86627 4.96205 0
M  V30 2906 H 281.348 -3.47833 3.13257 0
M  V30 2907 H 281.521 -4.64238 4.52092 0
M  V30 2908 N 274.927 -0.932562 -1.27047 0
M  V30 2909 C 276.176 -0.571351 -1.93439 0
M  V30 2910 C 276.489 0.892467 -1.74053 0
M  V30 2911 O 277.695 1.36267 -2.34826 0
M  V30 2912 C 276.151 -0.97106 -3.46552 0
M  V30 2913 C 275.759 -2.4559 -3.74686 0
M  V30 2914 C 277.503 -0.681333 -4.18997 0
M  V30 2915 C 275.41 -2.79475 -5.21198 0
M  V30 2916 H 274.34 -0.209966 -0.724176 0
M  V30 2917 H 276.991 -1.13403 -1.44263 0
M  V30 2918 H 275.373 -0.336983 -3.94564 0
M  V30 2919 H 276.547 -3.13829 -3.37414 0
M  V30 2920 H 274.862 -2.71802 -3.15456 0
M  V30 2921 H 277.459 -0.910939 -5.26883 0
M  V30 2922 H 277.802 0.381628 -4.14547 0
M  V30 2923 H 278.335 -1.27473 -3.76823 0
M  V30 2924 H 275.074 -3.847 -5.30741 0
M  V30 2925 H 274.594 -2.1589 -5.596 0
M  V30 2926 H 276.273 -2.67478 -5.89122 0
M  V30 2927 N 276.405 1.4127 -0.698611 0
M  V30 2928 C 277.635 2.05205 -0.239644 0
M  V30 2929 C 278.043 1.52684 1.11733 0
M  V30 2930 O 277.386 0.671222 1.70998 0
M  V30 2931 C 277.448 3.59289 -0.123126 0
M  V30 2932 C 277.112 4.34619 -1.41263 0
M  V30 2933 C 278.109 4.63701 -2.35111 0
M  V30 2934 C 275.794 4.73837 -1.66684 0
M  V30 2935 C 277.788 5.30966 -3.52639 0
M  V30 2936 C 275.475 5.40837 -2.84498 0
M  V30 2937 C 276.473 5.69329 -3.77298 0
M  V30 2938 O 276.161 6.34949 -4.93047 0
M  V30 2939 H 275.893 0.66723 -0.108537 0
M  V30 2940 H 278.447 1.81974 -0.952602 0
M  V30 2941 H 276.677 3.81272 0.645628 0
M  V30 2942 H 278.366 4.04797 0.299056 0
M  V30 2943 H 279.132 4.33882 -2.16729 0
M  V30 2944 H 275.011 4.51039 -0.953135 0
M  V30 2945 H 278.555 5.53121 -4.25091 0
M  V30 2946 H 274.452 5.70075 -3.02795 0
M  V30 2947 H 275.22 6.53445 -4.92902 0
M  V30 2948 N 277.883 0.443576 1.51229 0
M  V30 2949 C 279.108 -0.121648 2.07043 0
M  V30 2950 C 279.533 -1.35156 1.30823 0
M  V30 2951 O 278.891 -1.7793 0.347934 0
M  V30 2952 C 278.939 -0.41624 3.5819 0
M  V30 2953 O 278.043 -1.50163 3.8409 0
M  V30 2954 H 277.384 0.000871367 0.663999 0
M  V30 2955 H 279.914 0.626706 1.94765 0
M  V30 2956 H 279.924 -0.664867 4.02546 0
M  V30 2957 H 278.599 0.482653 4.1309 0
M  V30 2958 H 277.176 -1.24248 3.51592 0
M  V30 2959 N 279.361 -1.56624 0.175154 0
M  V30 2960 C 280.601 -1.98894 -0.471221 0
M  V30 2961 C 280.965 -1.05889 -1.60161 0
M  V30 2962 O 282.166 -1.37315 -2.3108 0
M  V30 2963 C 280.437 -3.44865 -0.938241 0
M  V30 2964 S 281.996 -4.09164 -1.58526 0
M  V30 2965 H 278.814 -0.694686 -0.151434 0
M  V30 2966 H 281.416 -1.93577 0.27352 0
M  V30 2967 H 280.12 -4.10265 -0.10518 0
M  V30 2968 H 279.651 -3.53956 -1.71693 0
M  V30 2969 H 281.666 -4.04528 -2.87352 0
M  V30 2970 N 280.839 0.0985539 -1.57292 0
M  V30 2971 C 282.067 0.816318 -1.90115 0
M  V30 2972 C 282.482 1.72451 -0.768509 0
M  V30 2973 O 281.839 1.80643 0.259687 0
M  V30 2974 C 281.89 1.63259 -3.22535 0
M  V30 2975 O 281.611 0.760934 -4.31441 0
M  V30 2976 C 283.112 2.45372 -3.69199 0
M  V30 2977 H 280.332 0.233595 -0.629027 0
M  V30 2978 H 282.876 0.0768229 -2.04356 0
M  V30 2979 H 281.031 2.32463 -3.09903 0
M  V30 2980 H 281.445 1.32595 -5.07463 0
M  V30 2981 H 282.919 2.98144 -4.64558 0
M  V30 2982 H 283.396 3.23677 -2.96867 0
M  V30 2983 H 284.002 1.81373 -3.84687 0
M  V30 2984 N 282.317 1.53212 0.369288 0
M  V30 2985 C 283.564 1.69215 1.11232 0
M  V30 2986 C 283.892 0.442048 1.8941 0
M  V30 2987 O 283.147 -0.575944 1.87033 0
M  V30 2988 C 283.446 2.89101 2.10132 0
M  V30 2989 C 283.112 4.25758 1.48463 0
M  V30 2990 C 281.774 4.6292 1.31372 0
M  V30 2991 C 284.126 5.10757 1.03811 0
M  V30 2992 C 281.454 5.82722 0.68207 0
M  V30 2993 C 283.806 6.31201 0.420487 0
M  V30 2994 C 282.47 6.67079 0.237038 0
M  V30 2995 H 281.74 0.619201 0.407027 0
M  V30 2996 H 284.387 1.87391 0.394552 0
M  V30 2997 H 282.692 2.65421 2.88199 0
M  V30 2998 H 284.389 2.98676 2.6757 0
M  V30 2999 H 280.979 3.96494 1.62758 0
M  V30 3000 H 285.163 4.82599 1.1581 0
M  V30 3001 H 280.419 6.09113 0.528316 0
M  V30 3002 H 284.593 6.96368 0.0662874 0
M  V30 3003 H 282.22 7.59774 -0.254477 0
M  V30 3004 N 283.795 -0.628877 1.44509 0
M  V30 3005 C 285.044 -1.38437 1.4669 0
M  V30 3006 C 285.357 -1.95322 0.104272 0
M  V30 3007 O 286.563 -2.715 0.00362163 0
M  V30 3008 C 285.019 -2.50659 2.5826 0
M  V30 3009 C 284.627 -2.00277 4.0074 0
M  V30 3010 C 286.371 -3.27844 2.69664 0
M  V30 3011 C 284.278 -3.09854 5.0373 0
M  V30 3012 H 283.208 -0.520245 0.545766 0
M  V30 3013 H 285.859 -0.676313 1.70582 0
M  V30 3014 H 284.241 -3.2405 2.27612 0
M  V30 3015 H 285.415 -1.33736 4.40966 0
M  V30 3016 H 283.73 -1.35901 3.93599 0
M  V30 3017 H 286.327 -4.09534 3.43781 0
M  V30 3018 H 286.67 -3.77471 1.75559 0
M  V30 3019 H 287.203 -2.61543 2.99733 0
M  V30 3020 H 283.942 -2.65168 5.99472 0
M  V30 3021 H 283.462 -3.7503 4.68095 0
M  V30 3022 H 285.141 -3.74592 5.27532 0
M  V30 3023 N 285.273 -1.31445 -0.869486 0
M  V30 3024 C 286.205 -1.14955 -1.98287 0
M  V30 3025 C 287.218 -0.0885037 -1.62559 0
M  V30 3026 O 288.407 -0.336044 -1.75308 0
M  V30 3027 C 285.507 -0.734255 -3.3085 0
M  V30 3028 C 284.68 -1.88042 -3.94917 0
M  V30 3029 C 283.739 -1.4511 -5.05796 0
M  V30 3030 O 282.765 -2.16082 -5.2659 0
M  V30 3031 N 283.967 -0.338763 -5.79511 0
M  V30 3032 H 286.732 -2.10856 -2.12979 0
M  V30 3033 H 284.293 -1.23786 -1.04349 0
M  V30 3034 H 286.285 -0.42975 -4.02412 0
M  V30 3035 H 284.855 0.133158 -3.12316 0
M  V30 3036 H 284.075 -2.35222 -3.1633 0
M  V30 3037 H 285.363 -2.6481 -4.34457 0
M  V30 3038 H 284.761 0.252274 -5.65137 0
M  V30 3039 H 283.318 -0.0937925 -6.51733 0
M  V30 3040 N 286.751 1.08385 -1.14413 0
M  V30 3041 C 287.979 1.84517 -0.936001 0
M  V30 3042 C 288.394 1.81626 0.515503 0
M  V30 3043 O 287.751 1.22008 1.35721 0
M  V30 3044 C 287.802 3.32049 -1.42918 0
M  V30 3045 O 287.523 3.34951 -2.82381 0
M  V30 3046 C 289.024 4.24986 -1.26103 0
M  V30 3047 H 286.244 0.582491 -0.333084 0
M  V30 3048 H 288.788 1.36885 -1.5193 0
M  V30 3049 H 286.943 3.7707 -0.888641 0
M  V30 3050 H 287.357 4.27048 -3.04517 0
M  V30 3051 H 288.831 5.26615 -1.6547 0
M  V30 3052 H 289.308 4.38726 -0.20392 0
M  V30 3053 H 289.914 3.85791 -1.79012 0
M  V30 3054 N 288.23 0.939286 1.26551 0
M  V30 3055 C 289.193 0.451987 2.24699 0
M  V30 3056 C 290.193 -0.435869 1.5478 0
M  V30 3057 O 291.383 -0.235314 1.72603 0
M  V30 3058 C 288.515 -0.348801 3.39111 0
M  V30 3059 H 289.708 1.3193 2.69322 0
M  V30 3060 H 287.261 0.721072 1.38673 0
M  V30 3061 H 287.996 -1.23444 2.99887 0
M  V30 3062 H 287.781 0.287945 3.91041 0
M  V30 3063 H 289.271 -0.679726 4.12031 0
M  V30 3064 N 289.708 -1.40897 0.706093 0
M  V30 3065 C 290.933 -2.05895 0.249435 0
M  V30 3066 C 291.358 -1.52823 -1.09666 0
M  V30 3067 O 290.716 -0.659589 -1.68876 0
M  V30 3068 C 290.764 -3.59872 0.22904 0
M  V30 3069 O 289.868 -4.04708 -0.792784 0
M  V30 3070 H 289.209 -0.653206 0.119241 0
M  V30 3071 H 291.739 -1.80471 0.96391 0
M  V30 3072 H 291.749 -4.07951 0.0634791 0
M  V30 3073 H 290.424 -3.97866 1.21141 0
M  V30 3074 H 289.001 -3.68111 -0.59572 0
M  V30 3075 N 291.186 -0.45159 -1.50991 0
M  V30 3076 C 292.414 0.108334 -2.06616 0
M  V30 3077 C 292.829 1.35224 -1.31757 0
M  V30 3078 O 292.186 1.78475 -0.381174 0
M  V30 3079 C 292.237 0.41619 -3.59096 0
M  V30 3080 O 291.958 -0.778361 -4.3113 0
M  V30 3081 C 293.459 1.02523 -4.31282 0
M  V30 3082 H 290.679 0.00159995 -0.670998 0
M  V30 3083 H 293.223 -0.634771 -1.94399 0
M  V30 3084 H 291.378 1.10921 -3.71181 0
M  V30 3085 H 291.792 -0.511181 -5.22003 0
M  V30 3086 H 293.266 1.19053 -5.39009 0
M  V30 3087 H 293.743 2.01013 -3.905 0
M  V30 3088 H 294.349 0.371173 -4.23677 0
M  V30 3089 N 292.664 1.56529 -0.183458 0
M  V30 3090 C 293.596 2.15747 0.773697 0
M  V30 3091 C 294.609 1.1162 1.1851 0
M  V30 3092 O 295.798 1.3876 1.12285 0
M  V30 3093 C 292.898 2.6952 2.05456 0
M  V30 3094 C 292.071 3.98429 1.8048 0
M  V30 3095 C 291.13 4.37145 2.92901 0
M  V30 3096 O 290.156 5.04791 2.6301 0
M  V30 3097 N 291.358 3.99695 4.2098 0
M  V30 3098 H 294.123 2.98505 0.26736 0
M  V30 3099 H 291.684 1.619 -0.0010878 0
M  V30 3100 H 293.676 2.92412 2.79781 0
M  V30 3101 H 292.246 1.91282 2.47245 0
M  V30 3102 H 291.466 3.8379 0.899947 0
M  V30 3103 H 292.754 4.82597 1.61175 0
M  V30 3104 H 292.152 3.4526 4.48121 0
M  V30 3105 H 290.709 4.27562 4.9197 0
M  V30 3106 N 294.142 -0.090211 1.57342 0
M  V30 3107 C 295.372 -0.805055 1.90269 0
M  V30 3108 C 295.78 -1.72561 0.775842 0
M  V30 3109 O 295.123 -1.81839 -0.260843 0
M  V30 3110 C 295.185 -1.66734 3.18497 0
M  V30 3111 C 294.849 -0.918092 4.47683 0
M  V30 3112 C 295.846 -0.245674 5.19319 0
M  V30 3113 C 293.531 -0.890724 4.94339 0
M  V30 3114 C 295.525 0.444088 6.35851 0
M  V30 3115 C 293.212 -0.197179 6.10782 0
M  V30 3116 C 294.21 0.469044 6.81388 0
M  V30 3117 O 293.898 1.15146 7.95611 0
M  V30 3118 H 293.63 -0.235143 0.633785 0
M  V30 3119 H 296.184 -0.0703805 2.05279 0
M  V30 3120 H 294.414 -2.44437 2.99646 0
M  V30 3121 H 296.103 -2.25919 3.37217 0
M  V30 3122 H 296.869 -0.258246 4.84312 0
M  V30 3123 H 292.748 -1.39873 4.39268 0
M  V30 3124 H 296.292 0.964667 6.90898 0
M  V30 3125 H 292.189 -0.18247 6.45242 0
M  V30 3126 H 292.957 1.05885 8.11622 0
M  V30 3127 N 295.62 -1.53406 -0.361157 0
M  V30 3128 C 296.848 -1.73717 -1.12383 0
M  V30 3129 C 297.263 -0.468161 -1.82904 0
M  V30 3130 O 296.62 0.559198 -1.73722 0
M  V30 3131 C 296.671 -2.90558 -2.15078 0
M  V30 3132 O 296.392 -4.12549 -1.47428 0
M  V30 3133 C 297.893 -3.22777 -3.03858 0
M  V30 3134 H 295.113 -0.580896 -0.335858 0
M  V30 3135 H 297.657 -2.00167 -0.418728 0
M  V30 3136 H 295.812 -2.66489 -2.8118 0
M  V30 3137 H 296.226 -4.78009 -2.15887 0
M  V30 3138 H 297.7 -4.07927 -3.71887 0
M  V30 3139 H 298.177 -2.38329 -3.68912 0
M  V30 3140 H 298.783 -3.48787 -2.43367 0
M  V30 3141 N 297.098 0.621204 -1.44841 0
M  V30 3142 C 298.061 1.71459 -1.521 0
M  V30 3143 C 299.061 1.55696 -0.401933 0
M  V30 3144 O 300.251 1.61011 -0.664925 0
M  V30 3145 C 297.383 3.10624 -1.40447 0
M  V30 3146 H 298.576 1.66394 -2.49506 0
M  V30 3147 H 296.129 0.835745 -1.3208 0
M  V30 3148 H 296.864 3.21277 -0.441737 0
M  V30 3149 H 296.649 3.23473 -2.21602 0
M  V30 3150 H 298.139 3.90293 -1.4853 0
M  V30 3151 N 298.576 1.31904 0.862503 0
M  V30 3152 C 299.539 1.20131 1.95195 0
M  V30 3153 C 300.539 0.126409 1.60302 0
M  V30 3154 O 301.729 0.376234 1.70089 0
M  V30 3155 C 298.861 0.845691 3.30244 0
M  V30 3156 H 300.054 2.16943 2.07064 0
M  V30 3157 H 297.607 1.15622 1.05172 0
M  V30 3158 H 298.342 -0.120957 3.24074 0
M  V30 3159 H 298.127 1.62276 3.56944 0
M  V30 3160 H 299.617 0.787418 4.10109 0
M  V30 3161 N 300.054 -1.07777 1.14986 0
M  V30 3162 C 301.3 -1.80557 0.923422 0
M  V30 3163 C 301.633 -1.86298 -0.548337 0
M  V30 3164 O 300.908 -1.34354 -1.40639 0
M  V30 3165 C 301.191 -3.25839 1.53299 0
M  V30 3166 C 301.044 -3.28269 3.07505 0
M  V30 3167 C 302.363 -4.22991 1.21518 0
M  V30 3168 H 299.482 -0.655493 0.336894 0
M  V30 3169 H 302.124 -1.26144 1.42083 0
M  V30 3170 H 300.274 -3.72306 1.10999 0
M  V30 3171 H 301.946 -2.90079 3.58681 0
M  V30 3172 H 300.189 -2.67355 3.4162 0
M  V30 3173 H 300.86 -4.30691 3.45266 0
M  V30 3174 H 303.336 -3.84894 1.581 0
M  V30 3175 H 302.212 -5.22945 1.66793 0
M  V30 3176 H 302.473 -4.41904 0.131505 0
M  V30 3177 N 301.532 -0.945985 -1.26051 0
M  V30 3178 C 302.778 -0.597002 -1.93814 0
M  V30 3179 C 303.111 0.862484 -1.73997 0
M  V30 3180 O 302.386 1.61769 -1.07986 0
M  V30 3181 C 302.669 -0.945937 -3.47454 0
M  V30 3182 C 302.522 -2.46052 -3.76535 0
M  V30 3183 C 303.841 -0.464785 -4.37639 0
M  V30 3184 H 300.96 -0.218366 -0.703907 0
M  V30 3185 H 303.602 -1.18107 -1.48831 0
M  V30 3186 H 301.752 -0.448902 -3.85898 0
M  V30 3187 H 303.424 -3.03065 -3.47778 0
M  V30 3188 H 301.667 -2.90194 -3.22444 0
M  V30 3189 H 302.338 -2.65517 -4.83947 0
M  V30 3190 H 304.814 -0.891016 -4.06448 0
M  V30 3191 H 303.69 -0.737712 -5.4392 0
M  V30 3192 H 303.951 0.635274 -4.37512 0
M  V30 3193 N 303.011 1.40521 -0.713556 0
M  V30 3194 C 304.257 2.01221 -0.252564 0
M  V30 3195 C 304.59 1.56444 1.1506 0
M  V30 3196 O 303.865 0.783597 1.78017 0
M  V30 3197 C 304.148 3.58582 -0.330332 0
M  V30 3198 C 304.001 4.13437 -1.77173 0
M  V30 3199 C 305.32 4.39079 0.299641 0
M  V30 3200 H 302.439 0.731077 -0.0932471 0
M  V30 3201 H 305.081 1.67026 -0.905673 0
M  V30 3202 H 303.231 3.87844 0.225737 0
M  V30 3203 H 304.903 3.9498 -2.38303 0
M  V30 3204 H 303.146 3.67801 -2.3001 0
M  V30 3205 H 303.817 5.22597 -1.77755 0
M  V30 3206 H 306.293 4.15735 -0.174139 0
M  V30 3207 H 305.169 5.4848 0.214771 0
M  V30 3208 H 305.43 4.19915 1.38288 0
M  V30 3209 N 304.489 0.459591 1.5075 0
M  V30 3210 C 305.738 -0.100971 2.01447 0
M  V30 3211 C 306.051 -1.41816 1.34713 0
M  V30 3212 O 307.257 -2.06299 1.76502 0
M  V30 3213 C 305.713 -0.23047 3.59161 0
M  V30 3214 C 305.321 1.0776 4.34847 0
M  V30 3215 C 307.065 -0.743608 4.17936 0
M  V30 3216 C 304.972 0.91253 5.84317 0
M  V30 3217 H 303.902 -0.0415102 0.752856 0
M  V30 3218 H 306.553 0.592742 1.73663 0
M  V30 3219 H 304.935 -0.987703 3.83485 0
M  V30 3220 H 306.109 1.8449 4.22256 0
M  V30 3221 H 304.424 1.52097 3.87628 0
M  V30 3222 H 307.021 -0.883959 5.27343 0
M  V30 3223 H 307.364 -1.73196 3.78562 0
M  V30 3224 H 307.897 -0.04408 3.97776 0
M  V30 3225 H 304.636 1.87391 6.28144 0
M  V30 3226 H 304.156 0.185422 5.99513 0
M  V30 3227 H 305.835 0.574547 6.44444 0
M  V30 3228 N 305.967 -1.56429 0.191757 0
M  V30 3229 C 306.917 -2.15548 -0.743184 0
M  V30 3230 C 307.901 -1.09531 -1.17863 0
M  V30 3231 O 309.093 -1.35602 -1.13759 0
M  V30 3232 C 306.222 -2.81577 -1.96391 0
M  V30 3233 C 305.308 -3.9478 -1.54951 0
M  V30 3234 N 305.699 -4.98677 -0.845876 0
M  V30 3235 C 303.997 -4.06319 -1.83905 0
M  V30 3236 C 304.698 -5.78183 -0.638724 0
M  V30 3237 N 303.674 -5.30495 -1.18643 0
M  V30 3238 H 307.476 -2.9324 -0.196839 0
M  V30 3239 H 304.99 -1.62398 -0.0081603 0
M  V30 3240 H 306.987 -3.22321 -2.64415 0
M  V30 3241 H 305.647 -2.05371 -2.51501 0
M  V30 3242 H 306.658 -5.15464 -0.501704 0
M  V30 3243 H 303.335 -3.41238 -2.40548 0
M  V30 3244 H 304.725 -6.71851 -0.0807929 0
M  V30 3245 N 307.445 0.0818655 -1.57387 0
M  V30 3246 C 308.692 0.782914 -1.86753 0
M  V30 3247 C 309.02 1.78082 -0.782118 0
M  V30 3248 O 308.275 1.94426 0.22295 0
M  V30 3249 C 308.574 1.53513 -3.22752 0
M  V30 3250 C 308.24 0.678134 -4.45771 0
M  V30 3251 C 306.902 0.441929 -4.79166 0
M  V30 3252 C 309.254 0.0832243 -5.21134 0
M  V30 3253 C 306.582 -0.398833 -5.85343 0
M  V30 3254 C 308.934 -0.744935 -6.28199 0
M  V30 3255 C 307.598 -0.991107 -6.60101 0
M  V30 3256 H 306.868 0.286489 -0.683378 0
M  V30 3257 H 309.515 0.0439808 -1.91449 0
M  V30 3258 H 307.82 2.34599 -3.138 0
M  V30 3259 H 309.517 2.08218 -3.42705 0
M  V30 3260 H 306.107 0.872357 -4.19628 0
M  V30 3261 H 310.291 0.252847 -4.95655 0
M  V30 3262 H 305.547 -0.598405 -6.08465 0
M  V30 3263 H 309.721 -1.21271 -6.8576 0
M  V30 3264 H 307.348 -1.64437 -7.42202 0
M  V30 3265 N 308.923 1.53595 0.353017 0
M  V30 3266 C 309.853 1.83902 1.43883 0
M  V30 3267 C 310.834 0.693421 1.55324 0
M  V30 3268 O 312.019 0.944452 1.69687 0
M  V30 3269 C 309.149 2.04016 2.8106 0
M  V30 3270 C 308.103 3.19814 2.84434 0
M  V30 3271 C 307.429 3.25244 4.24406 0
M  V30 3272 C 308.729 4.58133 2.50822 0
M  V30 3273 H 310.423 2.74835 1.1877 0
M  V30 3274 H 307.969 1.32242 0.569917 0
M  V30 3275 H 309.922 2.238 3.57059 0
M  V30 3276 H 308.646 1.09804 3.07588 0
M  V30 3277 H 307.305 2.9987 2.10887 0
M  V30 3278 H 306.953 2.28646 4.48029 0
M  V30 3279 H 306.653 4.03054 4.27576 0
M  V30 3280 H 308.177 3.47228 5.0226 0
M  V30 3281 H 309.591 4.77995 3.16534 0
M  V30 3282 H 307.988 5.38276 2.6529 0
M  V30 3283 H 309.058 4.62387 1.46034 0
M  V30 3284 N 310.401 -0.613514 1.45168 0
M  V30 3285 C 311.331 -1.7354 1.56225 0
M  V30 3286 C 312.312 -1.64981 0.41414 0
M  V30 3287 O 313.497 -1.83472 0.636526 0
M  V30 3288 C 310.627 -3.12128 1.52295 0
M  V30 3289 C 309.581 -3.35491 2.65762 0
M  V30 3290 C 308.907 -4.74291 2.46885 0
M  V30 3291 C 310.207 -3.26325 4.0781 0
M  V30 3292 H 311.901 -1.64543 2.50132 0
M  V30 3293 H 309.447 -0.790185 1.20383 0
M  V30 3294 H 311.4 -3.90404 1.58628 0
M  V30 3295 H 310.124 -3.2195 0.549139 0
M  V30 3296 H 308.783 -2.59603 2.58847 0
M  V30 3297 H 308.431 -4.80839 1.47657 0
M  V30 3298 H 308.131 -4.9088 3.22972 0
M  V30 3299 H 309.655 -5.54775 2.55063 0
M  V30 3300 H 311.069 -3.94483 4.16 0
M  V30 3301 H 309.466 -3.54445 4.8424 0
M  V30 3302 H 310.536 -2.23855 4.30136 0
M  V30 3303 N 311.879 -1.3236 -0.855495 0
M  V30 3304 C 313.29 -1.2056 -1.42556 0
M  V30 3305 C 313.641 0.182209 -1.95352 0
M  V30 3306 O 312.766 1.08088 -1.87472 0
M  V30 3307 C 313.361 -2.1826 -2.59129 0
M  V30 3308 C 311.92 -2.10351 -3.12137 0
M  V30 3309 C 311.067 -2.06674 -1.84882 0
M  V30 3310 H 314.018 -1.442 -0.662727 0
M  V30 3311 H 314.039 -1.78064 -3.36264 0
M  V30 3312 H 313.551 -3.19257 -2.20673 0
M  V30 3313 H 311.652 -1.12599 -3.55179 0
M  V30 3314 H 311.765 -3.00135 -3.73438 0
M  V30 3315 H 310.129 -1.51901 -2.04446 0
M  V30 3316 H 310.912 -3.09451 -1.48643 0
M  V30 3317 N 313.357 1.07166 -1.15556 0
M  V30 3318 C 314.606 1.79181 -0.926132 0
M  V30 3319 C 314.919 1.87768 0.547967 0
M  V30 3320 O 316.125 2.56323 0.895036 0
M  V30 3321 C 314.581 3.22 -1.60761 0
M  V30 3322 C 314.189 3.21607 -3.11886 0
M  V30 3323 C 315.933 3.9861 -1.4598 0
M  V30 3324 C 313.84 4.59092 -3.72812 0
M  V30 3325 H 312.77 0.67154 -0.342856 0
M  V30 3326 H 315.421 1.2027 -1.3859 0
M  V30 3327 H 313.803 3.81115 -1.07553 0
M  V30 3328 H 314.977 2.72127 -3.71865 0
M  V30 3329 H 313.292 2.58495 -3.2645 0
M  V30 3330 H 315.889 5.00225 -1.88888 0
M  V30 3331 H 316.232 4.143 -0.407541 0
M  V30 3332 H 316.765 3.45996 -1.96295 0
M  V30 3333 H 313.504 4.48606 -4.77946 0
M  V30 3334 H 313.024 5.08803 -3.17616 0
M  V30 3335 H 314.703 5.28059 -3.73848 0
M  V30 3336 N 314.835 0.952656 1.25548 0
M  V30 3337 C 315.798 0.475794 2.24207 0
M  V30 3338 C 316.798 -0.419428 1.55234 0
M  V30 3339 O 317.988 -0.216994 1.72843 0
M  V30 3340 C 315.12 -0.312814 3.39462 0
M  V30 3341 H 316.313 1.34779 2.67908 0
M  V30 3342 H 313.866 0.735739 1.37901 0
M  V30 3343 H 314.601 -1.20257 3.01179 0
M  V30 3344 H 314.386 0.329404 3.90714 0
M  V30 3345 H 315.876 -0.635986 4.12729 0
M  V30 3346 N 316.313 -1.40141 0.720998 0
M  V30 3347 C 317.559 -2.01084 0.263231 0
M  V30 3348 C 317.892 -1.57052 -1.14229 0
M  V30 3349 O 317.167 -0.793027 -1.77599 0
M  V30 3350 C 317.45 -3.58401 0.349344 0
M  V30 3351 C 317.303 -4.12491 1.79363 0
M  V30 3352 C 318.622 -4.39231 -0.276351 0
M  V30 3353 H 315.741 -0.730572 0.0971228 0
M  V30 3354 H 318.383 -1.66543 0.914518 0
M  V30 3355 H 316.533 -3.87958 -0.205165 0
M  V30 3356 H 318.205 -3.93711 2.40394 0
M  V30 3357 H 316.448 -3.66576 2.31958 0
M  V30 3358 H 317.119 -5.21646 1.80524 0
M  V30 3359 H 319.595 -4.15637 0.196184 0
M  V30 3360 H 318.471 -5.48586 -0.185681 0
M  V30 3361 H 318.732 -4.20643 -1.36059 0
M  V30 3362 N 317.792 -0.46758 -1.50504 0
M  V30 3363 C 319.038 0.0887532 -2.02606 0
M  V30 3364 C 319.371 1.39686 -1.34913 0
M  V30 3365 O 318.646 1.88644 -0.473694 0
M  V30 3366 C 318.929 0.276206 -3.59039 0
M  V30 3367 C 318.782 -1.05267 -4.37309 0
M  V30 3368 C 320.101 1.03235 -4.27821 0
M  V30 3369 H 317.22 0.0307814 -0.736357 0
M  V30 3370 H 319.862 -0.612485 -1.79857 0
M  V30 3371 H 318.012 0.8735 -3.78553 0
M  V30 3372 H 319.684 -1.68628 -4.29374 0
M  V30 3373 H 317.927 -1.65015 -4.01189 0
M  V30 3374 H 318.598 -0.875197 -5.45018 0
M  V30 3375 H 321.074 0.526111 -4.12761 0
M  V30 3376 H 319.95 1.1323 -5.37094 0
M  V30 3377 H 320.211 2.06806 -3.90748 0
M  V30 3378 N 319.27 1.56325 -0.20005 0
M  V30 3379 C 320.495 2.02548 0.44597 0
M  V30 3380 C 320.92 1.07922 1.5406 0
M  V30 3381 O 320.278 0.0635775 1.81188 0
M  V30 3382 C 320.326 3.47175 0.974761 0
M  V30 3383 O 319.43 3.55671 2.08739 0
M  V30 3384 H 318.771 0.655862 0.103638 0
M  V30 3385 H 321.301 2.02201 -0.312381 0
M  V30 3386 H 321.311 3.87067 1.2901 0
M  V30 3387 H 319.986 4.15538 0.17347 0
M  V30 3388 H 318.563 3.27657 1.78032 0
M  V30 3389 N 320.748 -0.0735177 1.57428 0
M  V30 3390 C 321.995 -0.772999 1.87166 0
M  V30 3391 C 322.323 -1.77665 0.791551 0
M  V30 3392 O 321.578 -1.94541 -0.212636 0
M  V30 3393 C 321.877 -1.51799 3.23561 0
M  V30 3394 C 321.543 -0.654484 4.46125 0
M  V30 3395 C 320.205 -0.416511 4.79394 0
M  V30 3396 C 322.557 -0.0555862 5.2117 0
M  V30 3397 C 319.885 0.429869 5.85123 0
M  V30 3398 C 322.237 0.778239 6.27795 0
M  V30 3399 C 320.901 1.0261 6.59566 0
M  V30 3400 H 320.171 -0.282861 0.684888 0
M  V30 3401 H 322.818 -0.0338272 1.9147 0
M  V30 3402 H 321.123 -2.32932 3.1504 0
M  V30 3403 H 322.82 -2.06397 3.43804 0
M  V30 3404 H 319.41 -0.850091 4.20085 0
M  V30 3405 H 323.594 -0.226558 4.95783 0
M  V30 3406 H 318.85 0.630665 6.08139 0
M  V30 3407 H 323.024 1.24906 6.85107 0
M  V30 3408 H 320.651 1.68371 7.4132 0
M  V30 3409 N 322.226 -1.5378 -0.344866 0
M  V30 3410 C 323.466 -1.72677 -1.09371 0
M  V30 3411 C 323.83 -0.479084 -1.85927 0
M  V30 3412 O 325.031 -0.54505 -2.63216 0
M  V30 3413 C 323.302 -2.95457 -2.01097 0
M  V30 3414 S 324.861 -3.35158 -2.83222 0
M  V30 3415 H 321.679 -0.607402 -0.369573 0
M  V30 3416 H 324.281 -1.91922 -0.372307 0
M  V30 3417 H 322.985 -3.84437 -1.43655 0
M  V30 3418 H 322.516 -2.78673 -2.77678 0
M  V30 3419 H 324.531 -2.88789 -4.03504 0
M  V30 3420 N 323.704 0.605807 -1.45491 0
M  V30 3421 C 324.934 1.38934 -1.52908 0
M  V30 3422 C 325.342 1.88513 -0.161086 0
M  V30 3423 O 324.685 1.62962 0.847891 0
M  V30 3424 C 324.747 2.62737 -2.45376 0
M  V30 3425 C 324.411 2.34785 -3.92078 0
M  V30 3426 C 325.408 1.95038 -4.8193 0
M  V30 3427 C 323.093 2.47642 -4.37011 0
M  V30 3428 C 325.087 1.68511 -6.14722 0
M  V30 3429 C 322.774 2.20728 -5.69844 0
M  V30 3430 C 323.772 1.81225 -6.58519 0
M  V30 3431 O 323.46 1.54627 -7.88889 0
M  V30 3432 H 323.192 0.431629 -0.520262 0
M  V30 3433 H 325.746 0.74573 -1.91384 0
M  V30 3434 H 323.976 3.29824 -2.01874 0
M  V30 3435 H 325.665 3.24783 -2.43456 0
M  V30 3436 H 326.431 1.84639 -4.48479 0
M  V30 3437 H 322.31 2.77356 -3.68232 0
M  V30 3438 H 325.854 1.37602 -6.83894 0
M  V30 3439 H 321.751 2.30744 -6.02849 0
M  V30 3440 H 322.519 1.68665 -8.00933 0
M  V30 3441 N 325.182 1.32811 0.848464 0
M  V30 3442 C 326.112 1.24882 1.97299 0
M  V30 3443 C 327.093 0.131357 1.69592 0
M  V30 3444 O 328.278 0.319553 1.91553 0
M  V30 3445 C 325.408 0.97746 3.33261 0
M  V30 3446 C 324.362 2.05682 3.75338 0
M  V30 3447 C 323.688 1.63777 5.09 0
M  V30 3448 C 324.988 3.47254 3.90144 0
M  V30 3449 H 326.682 2.18966 2.04191 0
M  V30 3450 H 324.228 1.05413 0.981029 0
M  V30 3451 H 326.181 0.908513 4.1149 0
M  V30 3452 H 324.905 0.000980011 3.266 0
M  V30 3453 H 323.564 2.11603 2.99366 0
M  V30 3454 H 323.212 0.648569 4.98801 0
M  V30 3455 H 322.912 2.36 5.38124 0
M  V30 3456 H 324.436 1.5833 5.89715 0
M  V30 3457 H 325.85 3.43888 4.58709 0
M  V30 3458 H 324.247 4.1788 4.30693 0
M  V30 3459 H 325.317 3.86462 2.92874 0
M  V30 3460 N 326.66 -1.06551 1.16123 0
M  V30 3461 C 328.076 -1.3142 0.905585 0
M  V30 3462 C 328.276 -1.96571 -0.442964 0
M  V30 3463 O 327.332 -2.23068 -1.18308 0
M  V30 3464 C 328.645 -2.19741 2.05267 0
M  V30 3465 C 330.193 -2.33165 2.08813 0
M  V30 3466 C 330.668 -3.24838 3.22868 0
M  V30 3467 N 332.159 -3.32421 3.22568 0
M  V30 3468 C 332.894 -4.0344 4.0746 0
M  V30 3469 N 332.39 -4.77003 5.02434 0
M  V30 3470 N 334.183 -3.99464 3.95456 0
M  V30 3471 H 326.334 -0.626548 2.02949 0
M  V30 3472 H 328.597 -0.338777 0.8854 0
M  V30 3473 H 328.303 -1.79142 3.02657 0
M  V30 3474 H 328.177 -3.20313 1.99198 0
M  V30 3475 H 330.564 -2.73013 1.12018 0
M  V30 3476 H 330.645 -1.3227 2.18948 0
M  V30 3477 H 330.289 -2.85708 4.19921 0
M  V30 3478 H 330.219 -4.25707 3.0997 0
M  V30 3479 H 332.71 -2.79994 2.53795 0
M  V30 3480 H 333.023 -5.28712 5.63634 0
M  V30 3481 H 331.368 -4.75992 5.06415 0
M  V30 3482 H 334.559 -3.4111 3.20564 0
M  V30 3483 H 334.732 -4.54544 4.61837 0
M  V30 3484 N 328.138 -0.959301 -1.25041 0
M  V30 3485 C 329.387 -0.612254 -1.92183 0
M  V30 3486 C 329.7 0.855347 -1.75907 0
M  V30 3487 O 330.906 1.31256 -2.37664 0
M  V30 3488 C 329.362 -1.04435 -3.44414 0
M  V30 3489 C 328.97 -2.53482 -3.69393 0
M  V30 3490 C 330.714 -0.770055 -4.17457 0
M  V30 3491 C 328.621 -2.90468 -5.15153 0
M  V30 3492 H 327.551 -0.225279 -0.719559 0
M  V30 3493 H 330.202 -1.16438 -1.41825 0
M  V30 3494 H 328.584 -0.4206 -3.9376 0
M  V30 3495 H 329.758 -3.20916 -3.30681 0
M  V30 3496 H 328.073 -2.78432 -3.0962 0
M  V30 3497 H 330.67 -1.02249 -5.24832 0
M  V30 3498 H 331.013 0.293611 -4.15263 0
M  V30 3499 H 331.546 -1.35437 -3.74034 0
M  V30 3500 H 328.285 -3.95871 -5.22462 0
M  V30 3501 H 327.805 -2.27711 -5.54894 0
M  V30 3502 H 329.484 -2.79914 -5.83315 0
M  V30 3503 N 329.616 1.39756 -0.72842 0
M  V30 3504 C 330.862 2.01425 -0.282761 0
M  V30 3505 C 331.217 1.56754 1.11561 0
M  V30 3506 O 330.51 0.783482 1.74849 0
M  V30 3507 C 330.704 3.56002 -0.315776 0
M  V30 3508 C 330.533 4.1568 -1.71582 0
M  V30 3509 C 329.303 4.48555 -2.32651 0
M  V30 3510 C 331.501 4.39667 -2.66829 0
M  V30 3511 N 329.483 4.93698 -3.64877 0
M  V30 3512 C 330.854 4.86942 -3.8378 0
M  V30 3513 C 332.909 4.21724 -2.64675 0
M  V30 3514 C 331.612 5.18158 -4.98904 0
M  V30 3515 C 333.638 4.54049 -3.78937 0
M  V30 3516 C 333 5.01525 -4.94623 0
M  V30 3517 H 329.099 0.76756 -0.149583 0
M  V30 3518 H 331.683 1.69784 -0.952976 0
M  V30 3519 H 329.854 3.87046 0.324057 0
M  V30 3520 H 331.586 4.0443 0.147808 0
M  V30 3521 H 328.341 4.36128 -1.84633 0
M  V30 3522 H 328.765 5.20635 -4.32744 0
M  V30 3523 H 333.407 3.84228 -1.76433 0
M  V30 3524 H 331.125 5.54562 -5.87781 0
M  V30 3525 H 334.711 4.41795 -3.78561 0
M  V30 3526 H 333.591 5.26065 -5.81572 0
M  V30 3527 N 331.094 0.475555 1.50254 0
M  V30 3528 C 332.34 -0.0780073 2.0265 0
M  V30 3529 C 332.673 -1.38968 1.35652 0
M  V30 3530 O 331.948 -1.8839 0.483691 0
M  V30 3531 C 332.231 -0.257161 3.59181 0
M  V30 3532 C 332.084 1.07585 4.36744 0
M  V30 3533 C 333.403 -1.00965 4.28362 0
M  V30 3534 H 330.522 -0.0268758 0.73651 0
M  V30 3535 H 333.164 0.622015 1.7953 0
M  V30 3536 H 331.314 -0.853412 3.79011 0
M  V30 3537 H 332.986 1.70902 4.28474 0
M  V30 3538 H 331.229 1.6714 4.00308 0
M  V30 3539 H 331.9 0.904088 5.44546 0
M  V30 3540 H 334.376 -0.504214 4.13034 0
M  V30 3541 H 333.252 -1.10381 5.37687 0
M  V30 3542 H 333.513 -2.04731 3.91839 0
M  V30 3543 N 332.573 -1.56217 0.208337 0
M  V30 3544 C 333.503 -2.22694 -0.702116 0
M  V30 3545 C 334.484 -1.19432 -1.2112 0
M  V30 3546 O 335.669 -1.47978 -1.25762 0
M  V30 3547 C 332.799 -2.8966 -1.9161 0
M  V30 3548 C 331.753 -3.9928 -1.5414 0
M  V30 3549 C 331.079 -4.53476 -2.83308 0
M  V30 3550 C 332.379 -5.17012 -0.741339 0
M  V30 3551 H 334.073 -2.99034 -0.147898 0
M  V30 3552 H 331.619 -1.43831 -0.0696951 0
M  V30 3553 H 333.572 -3.34852 -2.55836 0
M  V30 3554 H 332.296 -2.10746 -2.49507 0
M  V30 3555 H 330.955 -3.54799 -0.922668 0
M  V30 3556 H 330.603 -3.71308 -3.39322 0
M  V30 3557 H 330.303 -5.27451 -2.58976 0
M  V30 3558 H 331.827 -5.01378 -3.485 0
M  V30 3559 H 333.241 -5.58667 -1.28699 0
M  V30 3560 H 331.638 -5.97137 -0.595627 0
M  V30 3561 H 332.708 -4.8423 0.254851 0
M  V30 3562 N 334.051 0.0651679 -1.57465 0
M  V30 3563 C 335.297 0.764193 -1.87851 0
M  V30 3564 C 335.63 1.76889 -0.801495 0
M  V30 3565 O 334.905 1.93594 0.187528 0
M  V30 3566 C 335.188 1.46625 -3.28897 0
M  V30 3567 C 335.041 0.477515 -4.47258 0
M  V30 3568 C 336.36 2.4095 -3.68281 0
M  V30 3569 H 333.479 0.276351 -0.683227 0
M  V30 3570 H 336.121 0.0272868 -1.8998 0
M  V30 3571 H 334.271 2.09438 -3.27212 0
M  V30 3572 H 335.943 -0.145922 -4.61069 0
M  V30 3573 H 334.186 -0.206576 -4.33308 0
M  V30 3574 H 334.857 1.0065 -5.42746 0
M  V30 3575 H 337.333 1.88209 -3.71102 0
M  V30 3576 H 336.209 2.87072 -4.67847 0
M  V30 3577 H 336.47 3.26049 -2.98571 0
M  V30 3578 N 335.529 1.53961 0.336706 0
M  V30 3579 C 336.459 1.85417 1.41925 0
M  V30 3580 C 337.44 0.709856 1.5458 0
M  V30 3581 O 338.625 0.962396 1.68676 0
M  V30 3582 C 335.755 2.06985 2.78881 0
M  V30 3583 C 334.709 3.22813 2.81026 0
M  V30 3584 C 334.035 3.29727 4.20932 0
M  V30 3585 C 335.335 4.60767 2.45949 0
M  V30 3586 H 337.029 2.76079 1.15848 0
M  V30 3587 H 334.575 1.32839 0.555859 0
M  V30 3588 H 336.528 2.27575 3.54665 0
M  V30 3589 H 335.252 1.13061 3.06406 0
M  V30 3590 H 333.911 3.0209 2.07695 0
M  V30 3591 H 333.559 2.33385 4.45579 0
M  V30 3592 H 333.259 4.07566 4.23277 0
M  V30 3593 H 334.783 3.52536 4.98549 0
M  V30 3594 H 336.197 4.81325 3.11446 0
M  V30 3595 H 334.594 5.4106 2.59566 0
M  V30 3596 H 335.664 4.6391 1.41122 0
M  V30 3597 N 337.007 -0.598083 1.45811 0
M  V30 3598 C 337.939 -1.72231 1.51225 0
M  V30 3599 C 338.952 -1.57757 0.402059 0
M  V30 3600 O 340.141 -1.65464 0.669624 0
M  V30 3601 C 337.241 -3.10331 1.3619 0
M  V30 3602 C 336.414 -3.50955 2.61054 0
M  V30 3603 C 335.473 -4.68055 2.40439 0
M  V30 3604 O 334.499 -4.74691 3.14097 0
M  V30 3605 N 335.701 -5.61941 1.45612 0
M  V30 3606 H 338.466 -1.68046 2.48154 0
M  V30 3607 H 336.027 -0.783637 1.41671 0
M  V30 3608 H 338.019 -3.86439 1.20195 0
M  V30 3609 H 336.589 -3.0897 0.475015 0
M  V30 3610 H 335.809 -2.64711 2.92099 0
M  V30 3611 H 337.097 -3.74858 3.44034 0
M  V30 3612 H 336.495 -5.59301 0.848431 0
M  V30 3613 H 335.052 -6.37542 1.35585 0
M  V30 3614 N 338.485 -1.33259 -0.841409 0
M  V30 3615 C 339.448 -1.23221 -1.9326 0
M  V30 3616 C 340.448 -0.151895 -1.60081 0
M  V30 3617 O 341.638 -0.403246 -1.69468 0
M  V30 3618 C 338.77 -0.898123 -3.28856 0
M  V30 3619 H 339.963 -2.2021 -2.03587 0
M  V30 3620 H 337.516 -1.17281 -1.03319 0
M  V30 3621 H 338.251 0.0693841 -3.24226 0
M  V30 3622 H 338.036 -1.67934 -3.54317 0
M  V30 3623 H 339.526 -0.852563 -4.08805 0
M  V30 3624 N 339.963 1.05934 -1.16686 0
M  V30 3625 C 341.379 1.30938 -0.912542 0
M  V30 3626 C 341.579 1.96803 0.432533 0
M  V30 3627 O 340.635 2.23693 1.17123 0
M  V30 3628 C 341.948 2.18649 -2.06429 0
M  V30 3629 C 343.496 2.32055 -2.10047 0
M  V30 3630 C 343.971 3.23122 -3.24586 0
M  V30 3631 N 345.462 3.30706 -3.24327 0
M  V30 3632 C 346.197 4.01273 -4.09594 0
M  V30 3633 N 345.693 4.74332 -5.04956 0
M  V30 3634 N 347.486 3.97361 -3.97569 0
M  V30 3635 H 339.637 0.615777 -2.03278 0
M  V30 3636 H 341.9 0.334077 -0.887185 0
M  V30 3637 H 341.606 1.77534 -3.03603 0
M  V30 3638 H 341.48 3.19252 -2.00894 0
M  V30 3639 H 343.867 2.72415 -1.13464 0
M  V30 3640 H 343.948 1.31107 -2.19647 0
M  V30 3641 H 343.592 2.83477 -4.2143 0
M  V30 3642 H 343.522 4.24057 -3.12223 0
M  V30 3643 H 346.013 2.78644 -2.55276 0
M  V30 3644 H 346.326 5.25716 -5.6643 0
M  V30 3645 H 344.671 4.733 -5.08933 0
M  V30 3646 H 347.862 3.39405 -3.22369 0
M  V30 3647 H 348.035 4.52089 -4.64241 0
M  V30 3648 N 341.441 0.965919 1.2453 0
M  V30 3649 C 342.857 0.67216 1.44756 0
M  V30 3650 C 343.057 -0.766609 1.86347 0
M  V30 3651 O 342.113 -1.5407 2.00047 0
M  V30 3652 C 343.426 1.65473 2.51076 0
M  V30 3653 C 344.974 1.66716 2.64905 0
M  V30 3654 C 345.449 2.63766 3.74421 0
M  V30 3655 N 346.94 2.62198 3.81846 0
M  V30 3656 C 347.675 3.33966 4.66106 0
M  V30 3657 N 347.171 4.15245 5.54566 0
M  V30 3658 N 348.964 3.22799 4.60171 0
M  V30 3659 H 341.115 1.89553 0.958293 0
M  V30 3660 H 343.378 0.815979 0.482579 0
M  V30 3661 H 343.084 2.68296 2.27399 0
M  V30 3662 H 342.958 1.4261 3.49202 0
M  V30 3663 H 345.345 0.646057 2.87941 0
M  V30 3664 H 345.426 1.93642 1.67142 0
M  V30 3665 H 345.07 3.6601 3.52135 0
M  V30 3666 H 345 2.34121 4.71694 0
M  V30 3667 H 347.491 2.032 3.18619 0
M  V30 3668 H 347.804 4.66898 6.15814 0
M  V30 3669 H 346.149 4.1934 5.54237 0
M  V30 3670 H 349.34 2.58764 3.90075 0
M  V30 3671 H 349.513 3.78994 5.25612 0
M  V30 3672 N 342.919 -1.39368 0.735821 0
M  V30 3673 C 343.866 -2.30599 0.0963825 0
M  V30 3674 C 344.836 -1.49257 -0.728794 0
M  V30 3675 O 346.021 -1.77941 -0.688588 0
M  V30 3676 C 343.161 -3.35596 -0.804305 0
M  V30 3677 C 342.274 -4.31987 0.0335761 0
M  V30 3678 C 341.409 -5.24053 -0.868461 0
M  V30 3679 C 340.448 -6.12095 -0.0258776 0
M  V30 3680 N 339.585 -6.96514 -0.883893 0
M  V30 3681 H 344.425 -2.8471 0.880002 0
M  V30 3682 H 341.962 -1.40188 0.445619 0
M  V30 3683 H 343.92 -3.95062 -1.34096 0
M  V30 3684 H 342.55 -2.82938 -1.55389 0
M  V30 3685 H 341.602 -3.74133 0.68766 0
M  V30 3686 H 342.914 -4.94074 0.685036 0
M  V30 3687 H 342.068 -5.88549 -1.47293 0
M  V30 3688 H 340.807 -4.62289 -1.5537 0
M  V30 3689 H 339.812 -5.4661 0.591386 0
M  V30 3690 H 341.037 -6.75923 0.656156 0
M  V30 3691 H 338.983 -6.37318 -1.55441 0
M  V30 3692 H 338.9 -7.55448 -0.288931 0
M  V30 3693 H 340.168 -7.65439 -1.4739 0
M  V30 3694 N 344.397 -0.483516 -1.5 0
M  V30 3695 C 345.36 0.292965 -2.2732 0
M  V30 3696 C 346.36 0.909499 -1.32608 0
M  V30 3697 O 347.55 0.776745 -1.55924 0
M  V30 3698 C 344.682 1.41854 -3.09984 0
M  V30 3699 H 345.875 -0.385289 -2.97415 0
M  V30 3700 H 343.428 -0.237942 -1.54478 0
M  V30 3701 H 344.163 2.13148 -2.44414 0
M  V30 3702 H 343.948 0.982114 -3.79601 0
M  V30 3703 H 345.438 1.96597 -3.68429 0
M  V30 3704 N 345.875 1.56104 -0.216619 0
M  V30 3705 C 346.822 2.2007 0.695531 0
M  V30 3706 C 347.792 1.15471 1.19397 0
M  V30 3707 O 348.977 1.43807 1.25396 0
M  V30 3708 C 346.117 2.88073 1.90021 0
M  V30 3709 C 345.23 4.07253 1.44113 0
M  V30 3710 C 344.365 4.63052 2.603 0
M  V30 3711 C 343.404 5.74545 2.11103 0
M  V30 3712 N 342.541 6.24656 3.20545 0
M  V30 3713 H 347.381 2.97655 0.143327 0
M  V30 3714 H 344.918 1.46982 0.0589934 0
M  V30 3715 H 346.876 3.25681 2.60745 0
M  V30 3716 H 345.506 2.13015 2.42538 0
M  V30 3717 H 344.558 3.75164 0.628999 0
M  V30 3718 H 345.87 4.8783 1.04036 0
M  V30 3719 H 345.024 5.03078 3.39113 0
M  V30 3720 H 343.763 3.81628 3.03663 0
M  V30 3721 H 342.768 5.34027 1.3075 0
M  V30 3722 H 343.993 6.57801 1.68746 0
M  V30 3723 H 341.939 5.46148 3.63399 0
M  V30 3724 H 341.856 7.00343 2.84704 0
M  V30 3725 H 343.124 6.69338 3.99508 0
M  V30 3726 N 347.353 -0.0568162 1.57498 0
M  V30 3727 C 348.764 -0.606858 1.76562 0
M  V30 3728 C 349.115 -1.77114 0.844094 0
M  V30 3729 O 348.24 -2.16376 0.0318911 0
M  V30 3730 C 348.835 -1.10766 3.20182 0
M  V30 3731 C 347.394 -1.60344 3.40539 0
M  V30 3732 C 346.541 -0.529311 2.72201 0
M  V30 3733 H 349.492 0.169393 1.57793 0
M  V30 3734 H 349.513 -1.97602 3.25167 0
M  V30 3735 H 349.025 -0.26006 3.87228 0
M  V30 3736 H 347.126 -2.47379 2.78629 0
M  V30 3737 H 347.239 -1.67006 4.4905 0
M  V30 3738 H 345.603 -0.977893 2.35179 0
M  V30 3739 H 346.386 0.308352 3.41912 0
M  V30 3740 N 348.832 -1.54138 -0.328536 0
M  V30 3741 C 349.742 -1.86192 -1.42723 0
M  V30 3742 C 350.758 -0.753382 -1.56844 0
M  V30 3743 O 351.934 -1.04718 -1.72035 0
M  V30 3744 C 348.999 -2.07824 -2.77507 0
M  V30 3745 C 348.06 -3.31641 -2.72603 0
M  V30 3746 C 347.293 -3.52232 -4.00959 0
M  V30 3747 O 347.516 -2.7636 -4.9898 0
M  V30 3748 O 346.45 -4.45699 -4.0452 0
M  V30 3749 H 350.276 -2.79608 -1.18547 0
M  V30 3750 H 347.861 -1.3998 -0.522104 0
M  V30 3751 H 349.743 -2.23411 -3.57303 0
M  V30 3752 H 348.418 -1.17596 -3.01584 0
M  V30 3753 H 347.325 -3.21444 -1.91376 0
M  V30 3754 H 348.658 -4.2191 -2.53481 0
M  V30 3755 N 350.31 0.590341 -1.46126 0
M  V30 3756 C 351.535 1.37991 -1.54833 0
M  V30 3757 C 351.96 1.87163 -0.187506 0
M  V30 3758 O 351.318 1.61133 0.831008 0
M  V30 3759 C 351.366 2.54867 -2.55098 0
M  V30 3760 O 350.47 3.56061 -2.08073 0
M  V30 3761 H 349.811 0.411265 -0.521303 0
M  V30 3762 H 352.341 0.716819 -1.91632 0
M  V30 3763 H 352.351 3.01886 -2.74461 0
M  V30 3764 H 351.026 2.18429 -3.53923 0
M  V30 3765 H 349.603 3.15574 -1.98664 0
M  V30 3766 N 351.788 1.33704 0.83433 0
M  V30 3767 C 353.204 1.13137 1.12571 0
M  V30 3768 C 353.404 -0.0747261 2.01361 0
M  V30 3769 O 352.46 -0.753647 2.4099 0
M  V30 3770 C 353.773 2.42105 1.78342 0
M  V30 3771 C 355.321 2.48054 1.90888 0
M  V30 3772 C 355.796 3.76995 2.60075 0
M  V30 3773 N 357.287 3.78092 2.67584 0
M  V30 3774 C 358.022 4.74574 3.21818 0
M  V30 3775 N 357.518 5.81434 3.76705 0
M  V30 3776 N 359.311 4.62044 3.20112 0
M  V30 3777 H 351.462 2.11 0.243489 0
M  V30 3778 H 353.725 0.932532 0.17055 0
M  V30 3779 H 353.431 3.30391 1.20561 0
M  V30 3780 H 353.305 2.54594 2.7832 0
M  V30 3781 H 355.692 1.60215 2.47821 0
M  V30 3782 H 355.773 2.39502 0.898459 0
M  V30 3783 H 355.417 4.65219 2.03799 0
M  V30 3784 H 355.347 3.82825 3.61597 0
M  V30 3785 H 357.838 3.00865 2.28667 0
M  V30 3786 H 358.151 6.51084 4.16305 0
M  V30 3787 H 356.496 5.85163 3.7498 0
M  V30 3788 H 359.687 3.77716 2.76493 0
M  V30 3789 H 359.86 5.37406 3.62076 0
M  V30 3790 N 353.266 -1.05314 1.17247 0
M  V30 3791 C 354.196 -2.1498 0.911362 0
M  V30 3792 C 355.177 -1.69471 -0.146169 0
M  V30 3793 O 356.362 -1.942 0.003812 0
M  V30 3794 C 353.492 -3.4472 0.422528 0
M  V30 3795 C 352.446 -4.03789 1.4191 0
M  V30 3796 C 351.772 -5.28858 0.788274 0
M  V30 3797 C 353.072 -4.41418 2.7919 0
M  V30 3798 H 354.766 -2.3708 1.82848 0
M  V30 3799 H 352.312 -1.13938 0.880569 0
M  V30 3800 H 354.265 -4.20787 0.227289 0
M  V30 3801 H 352.989 -3.22269 -0.530123 0
M  V30 3802 H 351.648 -3.2979 1.60106 0
M  V30 3803 H 351.296 -5.02709 -0.171173 0
M  V30 3804 H 350.996 -5.69338 1.45353 0
M  V30 3805 H 352.52 -6.07612 0.603282 0
M  V30 3806 H 353.934 -5.08524 2.64719 0
M  V30 3807 H 352.331 -4.92913 3.42282 0
M  V30 3808 H 353.401 -3.51819 3.33693 0
M  V30 3809 N 354.744 -0.972509 -1.24016 0
M  V30 3810 C 355.984 -0.644951 -1.93958 0
M  V30 3811 C 356.348 0.80559 -1.74282 0
M  V30 3812 O 357.549 1.2436 -2.38302 0
M  V30 3813 C 355.82 -1.01521 -3.42678 0
M  V30 3814 S 357.379 -0.802927 -4.31391 0
M  V30 3815 H 354.197 -0.236452 -0.670531 0
M  V30 3816 H 356.799 -1.25048 -1.50277 0
M  V30 3817 H 355.503 -2.06769 -3.54506 0
M  V30 3818 H 355.034 -0.400648 -3.91355 0
M  V30 3819 H 357.049 0.317256 -4.95185 0
M  V30 3820 N 356.222 1.38976 -0.743202 0
M  V30 3821 C 357.152 2.33171 -0.123873 0
M  V30 3822 C 358.133 1.54336 0.71516 0
M  V30 3823 O 359.318 1.82696 0.658467 0
M  V30 3824 C 356.448 3.38474 0.777978 0
M  V30 3825 C 355.402 4.27979 0.0424758 0
M  V30 3826 C 354.728 5.2405 1.06189 0
M  V30 3827 C 356.028 5.10155 -1.1198 0
M  V30 3828 H 357.722 2.85213 -0.910709 0
M  V30 3829 H 355.268 1.37133 -0.439388 0
M  V30 3830 H 357.221 4.03328 1.22084 0
M  V30 3831 H 355.945 2.84891 1.59702 0
M  V30 3832 H 354.604 3.64616 -0.380853 0
M  V30 3833 H 354.252 4.66758 1.87472 0
M  V30 3834 H 353.952 5.84785 0.574485 0
M  V30 3835 H 355.476 5.9178 1.50428 0
M  V30 3836 H 356.89 5.68307 -0.75499 0
M  V30 3837 H 355.287 5.80073 -1.53738 0
M  V30 3838 H 356.357 4.44504 -1.93764 0
M  V30 3839 N 357.7 0.491464 1.49741 0
M  V30 3840 C 358.647 -0.292027 2.28945 0
M  V30 3841 C 359.617 -0.968973 1.34908 0
M  V30 3842 O 360.802 -0.97748 1.6386 0
M  V30 3843 C 357.942 -1.35617 3.17336 0
M  V30 3844 C 357.055 -0.691957 4.26422 0
M  V30 3845 C 356.19 -1.73572 5.02042 0
M  V30 3846 C 355.229 -1.05286 6.02977 0
M  V30 3847 N 354.366 -2.0404 6.71798 0
M  V30 3848 H 359.206 0.389654 2.95442 0
M  V30 3849 H 356.743 0.204003 1.45679 0
M  V30 3850 H 358.701 -1.98502 3.66951 0
M  V30 3851 H 357.331 -2.00674 2.52844 0
M  V30 3852 H 356.383 0.0499523 3.80367 0
M  V30 3853 H 357.695 -0.153946 4.98562 0
M  V30 3854 H 356.849 -2.43987 5.55478 0
M  V30 3855 H 355.588 -2.30757 4.29654 0
M  V30 3856 H 354.593 -0.334446 5.48782 0
M  V30 3857 H 355.818 -0.487636 6.77347 0
M  V30 3858 H 353.764 -2.60205 6.02187 0
M  V30 3859 H 353.681 -1.55279 7.39881 0
M  V30 3860 H 354.949 -2.73772 7.29842 0
M  V30 3861 N 359.178 -1.55987 0.224894 0
M  V30 3862 C 360.589 -1.84553 -0.282345 0
M  V30 3863 C 360.94 -1.14634 -1.59227 0
M  V30 3864 O 360.065 -0.417155 -2.12341 0
M  V30 3865 C 360.66 -3.348 -0.519062 0
M  V30 3866 C 359.219 -3.63671 -0.970604 0
M  V30 3867 C 358.366 -2.77277 -0.0355261 0
M  V30 3868 H 361.317 -1.52245 0.448006 0
M  V30 3869 H 361.338 -3.55187 -1.36463 0
M  V30 3870 H 360.85 -3.8566 0.43449 0
M  V30 3871 H 358.951 -3.1827 -1.9374 0
M  V30 3872 H 359.064 -4.71631 -0.842698 0
M  V30 3873 H 357.428 -2.48846 -0.542927 0
M  V30 3874 H 358.211 -3.30937 0.913003 0
M  V30 3875 N 360.656 0.0484629 -1.57525 0
M  V30 3876 C 361.881 0.759177 -1.93006 0
M  V30 3877 C 362.306 1.69125 -0.823317 0
M  V30 3878 O 361.664 1.79931 0.222364 0
M  V30 3879 C 361.712 1.50899 -3.27509 0
M  V30 3880 O 360.816 2.62112 -3.18388 0
M  V30 3881 H 360.157 0.205564 -0.631379 0
M  V30 3882 H 362.687 0.00972959 -2.04598 0
M  V30 3883 H 362.697 1.88317 -3.6194 0
M  V30 3884 H 361.372 0.825269 -4.0763 0
M  V30 3885 H 359.949 2.27379 -2.95556 0
M  V30 3886 N 362.134 1.5431 0.320358 0
M  V30 3887 C 363.411 1.63322 1.07635 0
M  V30 3888 C 363.791 0.46912 2.05821 0
M  V30 3889 O 363.139 -0.536274 2.22118 0
M  V30 3890 C 363.349 3.00465 1.77544 0
M  V30 3891 C 364.697 3.56621 2.30449 0
M  V30 3892 O 365.721 3.02791 1.87606 0
M  V30 3893 O 364.58 4.5083 3.08892 0
M  V30 3894 H 361.674 0.661502 0.496331 0
M  V30 3895 H 364.22 1.66656 0.319992 0
M  V30 3896 H 362.992 3.76629 1.06143 0
M  V30 3897 H 362.615 3.00824 2.59982 0
M  V30 3898 N 363.613 -0.582584 1.46437 0
M  V30 3899 C 364.543 -1.70187 1.59871 0
M  V30 3900 C 365.524 -1.64066 0.449042 0
M  V30 3901 O 366.709 -1.82081 0.6753 0
M  V30 3902 C 363.839 -3.08827 1.58881 0
M  V30 3903 C 362.793 -3.29779 2.72819 0
M  V30 3904 C 362.119 -4.68947 2.5689 0
M  V30 3905 C 363.419 -3.17601 4.1464 0
M  V30 3906 H 365.113 -1.592 2.53566 0
M  V30 3907 H 362.659 -0.764472 1.22032 0
M  V30 3908 H 364.612 -3.86951 1.66873 0
M  V30 3909 H 363.336 -3.20713 0.617306 0
M  V30 3910 H 361.995 -2.54054 2.64296 0
M  V30 3911 H 361.643 -4.77599 1.57823 0
M  V30 3912 H 361.343 -4.83919 3.33312 0
M  V30 3913 H 362.867 -5.4924 2.66773 0
M  V30 3914 H 364.281 -3.8557 4.24274 0
M  V30 3915 H 362.678 -3.44094 4.9165 0
M  V30 3916 H 363.748 -2.14681 4.34788 0
M  V30 3917 N 365.091 -1.34144 -0.827227 0
M  V30 3918 C 366.507 -1.13732 -1.11969 0
M  V30 3919 C 366.707 0.0640463 -2.01398 0
M  V30 3920 O 365.763 0.740856 -2.41387 0
M  V30 3921 C 367.076 -2.43047 -1.77055 0
M  V30 3922 C 368.624 -2.49063 -1.89569 0
M  V30 3923 C 369.099 -3.78369 -2.58072 0
M  V30 3924 N 370.59 -3.79505 -2.65575 0
M  V30 3925 C 371.325 -4.76274 -3.19297 0
M  V30 3926 N 370.821 -5.83424 -3.73616 0
M  V30 3927 N 372.614 -4.63735 -3.17658 0
M  V30 3928 H 364.765 -2.11126 -0.232296 0
M  V30 3929 H 367.028 -0.933424 -0.165602 0
M  V30 3930 H 366.734 -3.31025 -1.18807 0
M  V30 3931 H 366.608 -2.56066 -2.76966 0
M  V30 3932 H 368.995 -1.61527 -2.46968 0
M  V30 3933 H 369.076 -2.39975 -0.885745 0
M  V30 3934 H 368.72 -4.66293 -2.01329 0
M  V30 3935 H 368.65 -3.84737 -3.59562 0
M  V30 3936 H 371.141 -3.02074 -2.27068 0
M  V30 3937 H 371.454 -6.53282 -4.12846 0
M  V30 3938 H 369.799 -5.87143 -3.71871 0
M  V30 3939 H 372.99 -3.79177 -2.74486 0
M  V30 3940 H 373.163 -5.39318 -3.59221 0
M  V30 3941 N 366.569 1.04691 -1.17803 0
M  V30 3942 C 367.794 1.81984 -0.994813 0
M  V30 3943 C 368.219 1.82586 0.452112 0
M  V30 3944 O 367.577 1.23854 1.324 0
M  V30 3945 C 367.625 3.2575 -1.54659 0
M  V30 3946 O 366.729 4.05267 -0.763728 0
M  V30 3947 H 366.07 0.562483 -0.352857 0
M  V30 3948 H 368.6 1.3189 -1.56417 0
M  V30 3949 H 368.61 3.76541 -1.57102 0
M  V30 3950 H 367.285 3.24627 -2.59981 0
M  V30 3951 H 365.862 3.63972 -0.811108 0
M  V30 3952 N 368.047 0.979072 1.23499 0
M  V30 3953 C 369.294 0.647219 1.91878 0
M  V30 3954 C 369.622 -0.819074 1.76413 0
M  V30 3955 O 368.877 -1.60616 1.11808 0
M  V30 3956 C 369.176 0.981932 3.43646 0
M  V30 3957 C 368.842 2.43822 3.79291 0
M  V30 3958 C 367.504 2.83622 3.88731 0
M  V30 3959 C 369.856 3.3828 3.96505 0
M  V30 3960 C 367.184 4.16897 4.12812 0
M  V30 3961 C 369.536 4.71197 4.22085 0
M  V30 3962 C 368.2 5.10758 4.29747 0
M  V30 3963 H 367.47 0.236834 0.702133 0
M  V30 3964 H 370.117 1.23268 1.46551 0
M  V30 3965 H 368.422 0.314365 3.90537 0
M  V30 3966 H 370.119 0.703395 3.94783 0
M  V30 3967 H 366.709 2.11966 3.72516 0
M  V30 3968 H 370.893 3.0871 3.88603 0
M  V30 3969 H 366.149 4.47157 4.16966 0
M  V30 3970 H 370.323 5.44348 4.34348 0
M  V30 3971 H 367.95 6.1405 4.48159 0
M  V30 3972 N 369.525 -1.3858 0.750561 0
M  V30 3973 C 370.455 -2.33102 0.136237 0
M  V30 3974 C 371.436 -1.54713 -0.706965 0
M  V30 3975 O 372.621 -1.83043 -0.648769 0
M  V30 3976 C 369.751 -3.38882 -0.760017 0
M  V30 3977 C 368.705 -4.27995 -0.0197785 0
M  V30 3978 C 368.031 -5.24605 -1.03408 0
M  V30 3979 C 369.331 -5.09554 1.14684 0
M  V30 3980 H 371.025 -2.84726 0.925822 0
M  V30 3981 H 368.571 -1.36898 0.446654 0
M  V30 3982 H 370.524 -4.0397 -1.19943 0
M  V30 3983 H 369.248 -2.85734 -1.58189 0
M  V30 3984 H 367.907 -3.64409 0.400184 0
M  V30 3985 H 367.555 -4.67746 -1.84994 0
M  V30 3986 H 367.255 -5.85081 -0.543464 0
M  V30 3987 H 368.779 -5.9257 -1.47288 0
M  V30 3988 H 370.193 -5.67899 0.785118 0
M  V30 3989 H 368.59 -5.7925 1.56812 0
M  V30 3990 H 369.66 -4.4347 1.96118 0
M  V30 3991 N 371.003 -0.499398 -1.49478 0
M  V30 3992 C 372.231 0.0425456 -2.06856 0
M  V30 3993 C 372.646 1.30964 -1.35992 0
M  V30 3994 O 372.003 1.77172 -0.437762 0
M  V30 3995 C 372.054 0.301735 -3.60239 0
M  V30 3996 O 371.775 -0.915127 -4.28436 0
M  V30 3997 C 373.276 0.887499 -4.34325 0
M  V30 3998 H 370.496 -0.0197482 -0.670709 0
M  V30 3999 H 373.04 -0.696297 -1.92281 0
M  V30 4000 H 371.195 0.990556 -3.74522 0
M  V30 4001 H 371.609 -0.676993 -5.20113 0
M  V30 4002 H 373.083 1.01845 -5.42523 0
M  V30 4003 H 373.56 1.88488 -3.96698 0
M  V30 4004 H 374.166 0.236196 -4.24644 0
M  V30 4005 N 372.481 1.55866 -0.233164 0
M  V30 4006 C 373.414 2.16794 0.712442 0
M  V30 4007 C 374.392 1.1158 1.18273 0
M  V30 4008 O 375.576 1.39897 1.26337 0
M  V30 4009 C 372.703 2.75757 1.96661 0
M  V30 4010 C 371.749 3.93902 1.63533 0
M  V30 4011 S 372.582 5.30223 0.74995 0
M  V30 4012 C 373.738 5.92631 2.01343 0
M  V30 4013 H 373.971 2.96662 0.194617 0
M  V30 4014 H 371.504 1.5439 -0.0177425 0
M  V30 4015 H 373.462 3.10367 2.68668 0
M  V30 4016 H 372.123 1.9586 2.45556 0
M  V30 4017 H 371.316 4.33702 2.56747 0
M  V30 4018 H 370.918 3.60499 0.995804 0
M  V30 4019 H 373.21 6.09312 2.96219 0
M  V30 4020 H 374.153 6.88388 1.65915 0
M  V30 4021 H 374.561 5.21571 2.15925 0
M  V30 4022 N 373.959 -0.0401083 1.57549 0
M  V30 4023 C 375.206 -0.733125 1.88763 0
M  V30 4024 C 375.534 -1.75946 0.829058 0
M  V30 4025 O 374.789 -1.94949 -0.171323 0
M  V30 4026 C 375.088 -1.44902 3.26708 0
M  V30 4027 C 374.754 -0.559707 4.47413 0
M  V30 4028 C 373.416 -0.314731 4.8017 0
M  V30 4029 C 375.768 0.0549743 5.21171 0
M  V30 4030 C 373.096 0.553886 5.8408 0
M  V30 4031 C 375.448 0.911229 6.26003 0
M  V30 4032 C 374.112 1.16577 6.57241 0
M  V30 4033 H 373.382 -0.268269 0.690733 0
M  V30 4034 H 376.029 0.00679408 1.91499 0
M  V30 4035 H 374.334 -2.26197 3.1991 0
M  V30 4036 H 376.031 -1.99058 3.48105 0
M  V30 4037 H 372.621 -0.760793 4.21794 0
M  V30 4038 H 376.805 -0.121344 4.96152 0
M  V30 4039 H 372.061 0.759518 6.06664 0
M  V30 4040 H 376.235 1.3941 6.82303 0
M  V30 4041 H 373.862 1.84058 7.37582 0
M  V30 4042 N 375.437 -1.54477 -0.31217 0
M  V30 4043 C 376.683 -1.73483 -1.0503 0
M  V30 4044 C 377.016 -0.513125 -1.87298 0
M  V30 4045 O 376.291 0.489864 -1.8823 0
M  V30 4046 C 376.574 -3.01723 -1.96558 0
M  V30 4047 C 376.427 -4.3417 -1.17545 0
M  V30 4048 C 377.746 -3.25772 -2.95907 0
M  V30 4049 H 374.865 -0.631222 -0.380432 0
M  V30 4050 H 377.507 -1.87184 -0.325932 0
M  V30 4051 H 375.657 -2.90174 -2.58324 0
M  V30 4052 H 377.329 -4.5762 -0.581513 0
M  V30 4053 H 375.572 -4.31159 -0.477925 0
M  V30 4054 H 376.243 -5.20143 -1.84811 0
M  V30 4055 H 378.719 -3.36857 -2.44267 0
M  V30 4056 H 377.595 -4.16838 -3.57123 0
M  V30 4057 H 377.856 -2.43537 -3.68974 0
M  V30 4058 N 376.915 0.57481 -1.46744 0
M  V30 4059 C 378.161 1.3347 -1.52688 0
M  V30 4060 C 378.494 1.93353 -0.181229 0
M  V30 4061 O 377.769 1.76912 0.808237 0
M  V30 4062 C 378.052 2.45811 -2.63152 0
M  V30 4063 C 377.905 1.90912 -4.07275 0
M  V30 4064 C 379.224 3.47822 -2.69644 0
M  V30 4065 H 376.343 0.483935 -0.555856 0
M  V30 4066 H 378.985 0.644968 -1.78718 0
M  V30 4067 H 377.135 3.04646 -2.41088 0
M  V30 4068 H 378.807 1.36473 -4.4065 0
M  V30 4069 H 377.05 1.21691 -4.16382 0
M  V30 4070 H 377.721 2.72042 -4.80309 0
M  V30 4071 H 380.197 2.9888 -2.895 0
M  V30 4072 H 379.073 4.23876 -3.48742 0
M  V30 4073 H 379.334 4.05555 -1.76005 0
M  V30 4074 N 378.394 1.34581 0.820102 0
M  V30 4075 C 379.641 1.27096 1.57648 0
M  V30 4076 C 379.969 -0.158317 1.93855 0
M  V30 4077 O 379.224 -1.12028 1.60463 0
M  V30 4078 C 379.523 2.10997 2.8847 0
M  V30 4079 C 379.189 3.59966 2.71543 0
M  V30 4080 C 377.851 4.00575 2.66634 0
M  V30 4081 C 380.203 4.54548 2.55021 0
M  V30 4082 C 377.531 5.33953 2.43128 0
M  V30 4083 C 379.883 5.88109 2.33047 0
M  V30 4084 C 378.547 6.27878 2.26552 0
M  V30 4085 H 377.817 0.465078 0.576874 0
M  V30 4086 H 380.464 1.6635 0.948671 0
M  V30 4087 H 378.769 1.6458 3.55557 0
M  V30 4088 H 380.466 2.0255 3.46084 0
M  V30 4089 H 377.056 3.27733 2.76205 0
M  V30 4090 H 381.24 4.24069 2.57835 0
M  V30 4091 H 376.496 5.63781 2.3656 0
M  V30 4092 H 380.67 6.60985 2.19251 0
M  V30 4093 H 378.297 7.31162 2.081 0
M  V30 4094 N 379.872 -1.04064 1.18357 0
M  V30 4095 C 381.118 -1.77528 0.980397 0
M  V30 4096 C 381.451 -1.87948 -0.48879 0
M  V30 4097 O 380.726 -1.3876 -1.36293 0
M  V30 4098 C 381.009 -3.20797 1.63588 0
M  V30 4099 C 380.862 -3.1832 3.17793 0
M  V30 4100 C 382.181 -4.18911 1.34914 0
M  V30 4101 H 379.3 -0.644443 0.357578 0
M  V30 4102 H 381.942 -1.2156 1.46024 0
M  V30 4103 H 380.092 -3.68586 1.22788 0
M  V30 4104 H 381.764 -2.78521 3.67728 0
M  V30 4105 H 380.007 -2.56351 3.49952 0
M  V30 4106 H 380.678 -4.19489 3.58794 0
M  V30 4107 H 383.154 -3.7967 1.70265 0
M  V30 4108 H 382.03 -5.17374 1.83346 0
M  V30 4109 H 382.291 -4.41262 0.272027 0
M  V30 4110 N 381.35 -0.985608 -1.22978 0
M  V30 4111 C 382.599 -0.652881 -1.90841 0
M  V30 4112 C 382.912 0.817842 -1.77681 0
M  V30 4113 O 384.118 1.26185 -2.40395 0
M  V30 4114 C 382.574 -1.11717 -3.42122 0
M  V30 4115 C 382.182 -2.6126 -3.63933 0
M  V30 4116 C 383.926 -0.85843 -4.1573 0
M  V30 4117 C 381.833 -3.0133 -5.08876 0
M  V30 4118 H 380.763 -0.240491 -0.714619 0
M  V30 4119 H 383.414 -1.1942 -1.39324 0
M  V30 4120 H 381.796 -0.504027 -3.92779 0
M  V30 4121 H 382.97 -3.27858 -3.23799 0
M  V30 4122 H 381.285 -2.84937 -3.03644 0
M  V30 4123 H 383.882 -1.13359 -5.22546 0
M  V30 4124 H 384.225 0.205461 -4.15793 0
M  V30 4125 H 384.758 -1.43341 -3.71077 0
M  V30 4126 H 381.497 -4.06864 -5.13947 0
M  V30 4127 H 381.017 -2.3943 -5.49939 0
M  V30 4128 H 382.696 -2.92224 -5.77247 0
M  V30 4129 N 382.828 1.3818 -0.7579 0
M  V30 4130 C 384.075 2.00019 -0.315985 0
M  V30 4131 C 384.403 1.60163 1.10355 0
M  V30 4132 O 383.658 0.83264 1.77103 0
M  V30 4133 C 383.957 3.55252 -0.391218 0
M  V30 4134 C 383.623 4.14834 -1.76702 0
M  V30 4135 C 382.285 4.30821 -2.14353 0
M  V30 4136 C 384.637 4.47658 -2.66931 0
M  V30 4137 C 381.965 4.76928 -3.41696 0
M  V30 4138 C 384.317 4.95184 -3.93669 0
M  V30 4139 C 382.981 5.09377 -4.31383 0
M  V30 4140 H 382.251 0.731923 -0.115627 0
M  V30 4141 H 384.898 1.65161 -0.969223 0
M  V30 4142 H 383.203 3.90273 0.34558 0
M  V30 4143 H 384.9 4.00988 -0.030805 0
M  V30 4144 H 381.49 4.02808 -1.46435 0
M  V30 4145 H 385.674 4.34904 -2.39106 0
M  V30 4146 H 380.93 4.86103 -3.70829 0
M  V30 4147 H 385.104 5.19551 -4.63724 0
M  V30 4148 H 382.731 5.44865 -5.30119 0
M  V30 4149 N 384.306 0.507319 1.49211 0
M  V30 4150 C 385.269 -0.256763 2.27757 0
M  V30 4151 C 386.269 -0.888287 1.34038 0
M  V30 4152 O 387.459 -0.751841 1.5714 0
M  V30 4153 C 384.591 -1.36905 3.12202 0
M  V30 4154 H 385.784 0.432557 2.96764 0
M  V30 4155 H 383.337 0.262488 1.5408 0
M  V30 4156 H 384.072 -2.09233 2.47775 0
M  V30 4157 H 383.857 -0.921599 3.81115 0
M  V30 4158 H 385.347 -1.9071 3.7151 0
M  V30 4159 N 385.784 -1.5574 0.241426 0
M  V30 4160 C 387.033 -1.97986 -0.385295 0
M  V30 4161 C 387.346 -1.13267 -1.59468 0
M  V30 4162 O 388.552 -1.45501 -2.2922 0
M  V30 4163 C 387.008 -3.52275 -0.736884 0
M  V30 4164 C 386.616 -4.45726 0.450796 0
M  V30 4165 C 388.36 -4.03189 -1.3281 0
M  V30 4166 C 386.267 -5.91352 0.0756662 0
M  V30 4167 H 385.197 -0.739386 -0.147731 0
M  V30 4168 H 387.848 -1.80308 0.340779 0
M  V30 4169 H 386.23 -3.65628 -1.52094 0
M  V30 4170 H 387.404 -4.44131 1.22819 0
M  V30 4171 H 385.719 -4.05264 0.956573 0
M  V30 4172 H 388.316 -5.09505 -1.62201 0
M  V30 4173 H 388.659 -3.50212 -2.25071 0
M  V30 4174 H 389.192 -3.93141 -0.607069 0
M  V30 4175 H 385.931 -6.48354 0.965272 0
M  V30 4176 H 385.451 -5.96095 -0.665635 0
M  V30 4177 H 387.13 -6.46084 -0.344075 0
M  V30 4178 N 387.262 0.0317525 -1.57568 0
M  V30 4179 C 388.502 0.727979 -1.90997 0
M  V30 4180 C 388.866 1.72664 -0.839708 0
M  V30 4181 O 390.067 2.47092 -1.05825 0
M  V30 4182 C 388.338 1.38239 -3.29583 0
M  V30 4183 S 389.897 2.10814 -3.84841 0
M  V30 4184 H 386.715 0.241226 -0.668828 0
M  V30 4185 H 389.317 -0.0173037 -1.95492 0
M  V30 4186 H 388.021 0.642288 -4.05343 0
M  V30 4187 H 387.552 2.16628 -3.28384 0
M  V30 4188 H 389.567 3.3792 -3.63352 0
M  V30 4189 N 388.74 1.54641 0.303973 0
M  V30 4190 C 389.986 1.74969 1.03718 0
M  V30 4191 C 390.341 0.527461 1.85029 0
M  V30 4192 O 389.634 -0.480143 1.85486 0
M  V30 4193 C 389.828 2.97753 1.97681 0
M  V30 4194 C 389.657 4.318 1.25613 0
M  V30 4195 C 388.427 4.95616 0.984518 0
M  V30 4196 C 390.625 5.10021 0.662081 0
M  V30 4197 N 388.607 6.13455 0.233794 0
M  V30 4198 C 389.978 6.19984 0.0439736 0
M  V30 4199 C 392.033 4.94663 0.566835 0
M  V30 4200 C 390.736 7.16264 -0.66016 0
M  V30 4201 C 392.762 5.91271 -0.123637 0
M  V30 4202 C 392.124 7.00601 -0.730608 0
M  V30 4203 H 388.223 0.692873 0.362562 0
M  V30 4204 H 390.807 1.92116 0.316135 0
M  V30 4205 H 388.978 2.82036 2.6704 0
M  V30 4206 H 390.71 3.06621 2.64132 0
M  V30 4207 H 387.465 4.55921 1.28191 0
M  V30 4208 H 387.889 6.76879 -0.127996 0
M  V30 4209 H 392.531 4.10267 1.02181 0
M  V30 4210 H 390.249 8.00204 -1.12691 0
M  V30 4211 H 393.835 5.81466 -0.197236 0
M  V30 4212 H 392.715 7.7407 -1.2564 0
M  V30 4213 N 390.218 -0.567019 1.47046 0
M  V30 4214 C 391.181 -1.65696 1.58359 0
M  V30 4215 C 392.181 -1.54097 0.459441 0
M  V30 4216 O 393.371 -1.58432 0.724225 0
M  V30 4217 C 390.503 -3.05197 1.51879 0
M  V30 4218 H 391.696 -1.57019 2.5551 0
M  V30 4219 H 389.249 -0.786148 1.3509 0
M  V30 4220 H 389.984 -3.19417 0.560673 0
M  V30 4221 H 389.769 -3.15025 2.33455 0
M  V30 4222 H 391.259 -3.84511 1.62913 0
M  V30 4223 N 391.696 -1.35014 -0.812953 0
M  V30 4224 C 393.107 -1.25035 -1.38648 0
M  V30 4225 C 393.458 0.119967 -1.95833 0
M  V30 4226 O 392.583 1.02069 -1.90816 0
M  V30 4227 C 393.178 -2.26394 -2.52054 0
M  V30 4228 C 391.737 -2.20175 -3.05287 0
M  V30 4229 C 390.884 -2.12451 -1.78213 0
M  V30 4230 H 393.835 -1.46235 -0.616516 0
M  V30 4231 H 393.856 -1.88672 -3.30429 0
M  V30 4232 H 393.368 -3.26116 -2.10404 0
M  V30 4233 H 391.469 -1.23841 -3.51417 0
M  V30 4234 H 391.582 -3.11863 -3.63701 0
M  V30 4235 H 389.946 -1.58328 -1.9951 0
M  V30 4236 H 390.729 -3.14024 -1.38723 0
M  V30 4237 N 393.175 1.03435 -1.18907 0
M  V30 4238 C 394.105 2.13503 -0.945448 0
M  V30 4239 C 395.086 1.69682 0.119189 0
M  V30 4240 O 396.271 1.94169 -0.034707 0
M  V30 4241 C 393.401 3.44004 -0.477316 0
M  V30 4242 C 392.355 4.0148 -1.48316 0
M  V30 4243 C 391.681 5.27537 -0.872311 0
M  V30 4244 C 392.981 4.36921 -2.86177 0
M  V30 4245 H 394.675 2.34141 -1.86597 0
M  V30 4246 H 392.221 1.12523 -0.898584 0
M  V30 4247 H 394.174 4.20372 -0.294204 0
M  V30 4248 H 392.898 3.23072 0.478786 0
M  V30 4249 H 391.557 3.27201 -1.65332 0
M  V30 4250 H 391.205 5.02917 0.0911752 0
M  V30 4251 H 390.905 5.66954 -1.54393 0
M  V30 4252 H 392.429 6.06576 -0.699871 0
M  V30 4253 H 393.843 5.04248 -2.72776 0
M  V30 4254 H 392.24 4.87405 -3.50081 0
M  V30 4255 H 393.31 3.46466 -3.39248 0
M  V30 4256 N 394.653 0.992116 1.22453 0
M  V30 4257 C 395.601 0.534644 2.26372 0
M  V30 4258 C 396.595 -0.414293 1.64256 0
M  V30 4259 O 397.801 -0.286899 1.77699 0
M  V30 4260 H 394.176 0.154502 0.735957 0
M  V30 4261 H 396.147 1.42256 2.62309 0
M  V30 4262 C 394.896 -0.135815 3.47435 0
M  V30 4263 H 394.219 0.585311 3.95492 0
M  V30 4264 H 395.659 -0.419374 4.21921 0
M  V30 4265 C 394.118 -1.37089 3.07747 0
M  V30 4266 O 394.648 -2.46629 3.17076 0
M  V30 4267 N 392.854 -1.24585 2.62539 0
M  V30 4268 H 392.401 -0.354542 2.55149 0
M  V30 4269 H 392.359 -2.07327 2.36353 0
M  V30 4270 N 396.131 -1.37776 0.765217 0
M  V30 4271 C 397.371 -2.01691 0.331669 0
M  V30 4272 C 397.735 -1.59432 -1.06983 0
M  V30 4273 O 398.936 -2.15761 -1.60314 0
M  V30 4274 C 397.207 -3.54385 0.463261 0
M  V30 4275 S 398.766 -4.38652 0.114011 0
M  V30 4276 H 395.584 -0.699387 0.127979 0
M  V30 4277 H 398.186 -1.68084 0.998396 0
M  V30 4278 H 396.89 -3.82629 1.48401 0
M  V30 4279 H 396.421 -3.92783 -0.220246 0
M  V30 4280 H 398.436 -4.84021 -1.09261 0
M  V30 4281 N 397.609 -0.515225 -1.4894 0
M  V30 4282 C 398.858 0.0261361 -2.01683 0
M  V30 4283 C 399.171 1.36719 -1.39883 0
M  V30 4284 O 400.377 1.99606 -1.84037 0
M  V30 4285 C 398.833 0.0970111 -3.59769 0
M  V30 4286 C 398.441 -1.23825 -4.30548 0
M  V30 4287 C 400.185 0.587981 -4.20408 0
M  V30 4288 C 398.092 -1.12877 -5.80528 0
M  V30 4289 H 397.022 0.0135398 -0.753878 0
M  V30 4290 H 399.673 -0.656787 -1.71343 0
M  V30 4291 H 398.055 0.844694 -3.86886 0
M  V30 4292 H 399.229 -2.00034 -4.15118 0
M  V30 4293 H 397.544 -1.66379 -3.81716 0
M  V30 4294 H 400.141 0.68763 -5.3026 0
M  V30 4295 H 400.484 1.59026 -3.84729 0
M  V30 4296 H 401.017 -0.103582 -3.97665 0
M  V30 4297 H 397.756 -2.10575 -6.20756 0
M  V30 4298 H 397.276 -0.407799 -5.98412 0
M  V30 4299 H 398.955 -0.813332 -6.41868 0
M  V30 4300 N 399.087 1.5561 -0.249682 0
M  V30 4301 C 400.335 1.98618 0.373548 0
M  V30 4302 C 400.656 1.13919 1.58264 0
M  V30 4303 O 399.926 0.222637 1.94631 0
M  V30 4304 H 398.506 0.733571 0.141006 0
M  V30 4305 H 401.168 1.91748 -0.349117 0
M  V30 4306 H 400.264 3.04584 0.680796 0
M  V30 4307 N 400.565 -0.0233959 1.57583 0
M  V30 4308 C 401.495 -1.02162 2.09965 0
M  V30 4309 C 402.476 -1.3735 1.00344 0
M  V30 4310 O 403.661 -1.46135 1.27899 0
M  V30 4311 C 400.791 -2.32081 2.58371 0
M  V30 4312 C 399.745 -2.1112 3.72307 0
M  V30 4313 C 399.071 -3.46848 4.06941 0
M  V30 4314 C 400.371 -1.49276 5.00514 0
M  V30 4315 H 402.065 -0.585557 2.93618 0
M  V30 4316 H 399.611 -0.280218 1.41247 0
M  V30 4317 H 401.564 -3.02249 2.93639 0
M  V30 4318 H 400.288 -2.77758 1.71808 0
M  V30 4319 H 398.947 -1.43384 3.37397 0
M  V30 4320 H 398.595 -3.90184 3.17436 0
M  V30 4321 H 398.295 -3.33646 4.83688 0
M  V30 4322 H 399.819 -4.18369 4.44747 0
M  V30 4323 H 401.233 -2.09368 5.33702 0
M  V30 4324 H 399.63 -1.46632 5.8191 0
M  V30 4325 H 400.7 -0.459217 4.82721 0
M  V30 4326 N 402.043 -1.548 -0.295768 0
M  V30 4327 C 403.006 -1.85363 -1.34808 0
M  V30 4328 C 404.006 -0.726817 -1.43436 0
M  V30 4329 O 405.196 -0.995088 -1.42981 0
M  V30 4330 C 402.328 -2.03859 -2.73229 0
M  V30 4331 H 403.521 -2.7941 -1.08949 0
M  V30 4332 H 401.074 -1.46942 -0.532702 0
M  V30 4333 H 401.809 -1.12117 -3.04303 0
M  V30 4334 H 401.594 -2.8588 -2.68356 0
M  V30 4335 H 403.084 -2.28857 -3.49305 0
M  V30 4336 N 403.521 0.559213 -1.47345 0
M  V30 4337 C 404.767 1.31843 -1.54095 0
M  V30 4338 C 405.1 1.93149 -0.201726 0
M  V30 4339 O 404.375 1.77759 0.789428 0
M  V30 4340 C 404.658 2.43006 -2.65744 0
M  V30 4341 C 404.511 1.86581 -4.09277 0
M  V30 4342 C 405.83 3.44943 -2.73318 0
M  V30 4343 H 402.949 0.478012 -0.560957 0
M  V30 4344 H 405.591 0.625977 -1.79392 0
M  V30 4345 H 403.741 3.02072 -2.44305 0
M  V30 4346 H 405.413 1.31792 -4.42073 0
M  V30 4347 H 403.656 1.17268 -4.17649 0
M  V30 4348 H 404.327 2.66933 -4.83168 0
M  V30 4349 H 406.803 2.95793 -2.92653 0
M  V30 4350 H 405.679 4.20153 -3.53218 0
M  V30 4351 H 405.94 4.03665 -1.80296 0
M  V30 4352 N 404.999 1.35443 0.805782 0
M  V30 4353 C 405.962 1.28301 1.89925 0
M  V30 4354 C 406.962 0.194285 1.59622 0
M  V30 4355 O 408.152 0.448036 1.6834 0
M  V30 4356 C 405.284 0.984997 3.2636 0
M  V30 4357 H 406.477 2.2553 1.97677 0
M  V30 4358 H 404.03 1.19979 1.00173 0
M  V30 4359 H 404.765 0.016603 3.24296 0
M  V30 4360 H 404.55 1.77269 3.4974 0
M  V30 4361 H 406.04 0.960651 4.064 0
M  V30 4362 N 406.477 -1.02803 1.19454 0
M  V30 4363 C 407.726 -1.7562 0.991996 0
M  V30 4364 C 408.039 -1.89672 -0.477901 0
M  V30 4365 O 409.245 -2.59468 -0.799287 0
M  V30 4366 C 407.701 -3.15812 1.72601 0
M  V30 4367 C 407.309 -3.0981 3.23607 0
M  V30 4368 C 409.053 -3.92918 1.60674 0
M  V30 4369 C 406.96 -4.44939 3.89594 0
M  V30 4370 H 405.89 -0.658352 0.367543 0
M  V30 4371 H 408.541 -1.15044 1.42959 0
M  V30 4372 H 406.923 -3.7686 1.21624 0
M  V30 4373 H 408.097 -2.58138 3.81709 0
M  V30 4374 H 406.412 -2.46201 3.35819 0
M  V30 4375 H 409.009 -4.9287 2.07323 0
M  V30 4376 H 409.352 -4.12502 0.561025 0
M  V30 4377 H 409.885 -3.38472 2.09001 0
M  V30 4378 H 406.624 -4.30559 4.94267 0
M  V30 4379 H 406.144 -4.96664 3.36281 0
M  V30 4380 H 407.823 -5.1382 3.93189 0
M  V30 4381 N 407.956 -0.998596 -1.21925 0
M  V30 4382 C 408.904 -0.546641 -2.26085 0
M  V30 4383 C 409.898 0.405576 -1.64473 0
M  V30 4384 O 411.104 0.277471 -1.77849 0
M  V30 4385 H 407.479 -0.158403 -0.735127 0
M  V30 4386 H 409.45 -1.43645 -2.61551 0
M  V30 4387 C 408.199 0.117388 -3.47502 0
M  V30 4388 H 407.522 -0.606277 -3.95176 0
M  V30 4389 H 408.962 0.396993 -4.22137 0
M  V30 4390 C 407.421 1.35455 -3.0847 0
M  V30 4391 O 407.951 2.44944 -3.18379 0
M  V30 4392 N 406.157 1.23191 -2.63196 0
M  V30 4393 H 405.704 0.341006 -2.55333 0
M  V30 4394 H 405.662 2.06071 -2.37449 0
M  V30 4395 N 409.434 1.37368 -0.772513 0
M  V30 4396 C 410.845 1.8231 -0.402493 0
M  V30 4397 C 411.196 1.6436 1.07146 0
M  V30 4398 O 410.321 1.15514 1.82991 0
M  V30 4399 C 410.916 3.30979 -0.723776 0
M  V30 4400 C 409.475 3.74195 -0.406802 0
M  V30 4401 C 408.622 2.59885 -0.967218 0
M  V30 4402 H 411.573 1.25829 -0.967099 0
M  V30 4403 H 411.594 3.80499 -0.00870832 0
M  V30 4404 H 411.106 3.44011 -1.7966 0
M  V30 4405 H 409.207 3.66732 0.658673 0
M  V30 4406 H 409.32 4.7027 -0.915588 0
M  V30 4407 H 407.684 2.51674 -0.391416 0
M  V30 4408 H 408.467 2.7571 -2.04546 0
M  V30 4409 N 410.912 0.523116 1.48665 0
M  V30 4410 C 411.844 -0.280421 2.27478 0
M  V30 4411 C 412.857 -0.910694 1.34945 0
M  V30 4412 O 414.046 -0.790295 1.60052 0
M  V30 4413 C 411.146 -1.41171 3.08097 0
M  V30 4414 C 410.319 -0.884642 4.28361 0
M  V30 4415 C 409.378 -1.89622 4.90846 0
M  V30 4416 O 408.404 -1.4559 5.50265 0
M  V30 4417 N 409.606 -3.22801 4.82472 0
M  V30 4418 H 412.371 0.395481 2.97079 0
M  V30 4419 H 409.932 0.357018 1.57915 0
M  V30 4420 H 411.924 -2.08645 3.4677 0
M  V30 4421 H 410.494 -1.99139 2.40961 0
M  V30 4422 H 409.714 -0.0341177 3.94185 0
M  V30 4423 H 411.002 -0.511268 5.06225 0
M  V30 4424 H 410.4 -3.61246 4.35336 0
M  V30 4425 H 408.957 -3.85927 5.25265 0
M  V30 4426 N 412.39 -1.55475 0.257931 0
M  V30 4427 C 413.3 -2.2549 -0.647425 0
M  V30 4428 C 414.316 -1.2748 -1.18427 0
M  V30 4429 O 415.492 -1.6038 -1.2182 0
M  V30 4430 C 412.557 -2.94916 -1.82278 0
M  V30 4431 C 411.618 -4.08363 -1.32432 0
M  V30 4432 C 410.851 -4.74469 -2.44366 0
M  V30 4433 O 411.074 -4.39701 -3.63344 0
M  V30 4434 O 410.008 -5.62763 -2.13497 0
M  V30 4435 H 413.834 -3.03593 -0.0807707 0
M  V30 4436 H 411.419 -1.49377 0.0259962 0
M  V30 4437 H 413.301 -3.38606 -2.50846 0
M  V30 4438 H 411.976 -2.19744 -2.37685 0
M  V30 4439 H 410.883 -3.69166 -0.605605 0
M  V30 4440 H 412.216 -4.85385 -0.816211 0
M  V30 4441 N 413.868 0.0150385 -1.57593 0
M  V30 4442 C 414.801 1.04475 -2.0288 0
M  V30 4443 C 415.779 1.3436 -0.915764 0
M  V30 4444 O 416.963 1.46779 -1.18271 0
M  V30 4445 C 414.09 2.37608 -2.41371 0
M  V30 4446 C 413.136 2.23487 -3.63257 0
M  V30 4447 S 413.969 1.57505 -5.11813 0
M  V30 4448 C 415.125 2.921 -5.5356 0
M  V30 4449 H 415.358 0.65907 -2.89903 0
M  V30 4450 H 412.891 0.225452 -1.52745 0
M  V30 4451 H 414.849 3.14165 -2.64217 0
M  V30 4452 H 413.51 2.7332 -1.54775 0
M  V30 4453 H 412.703 3.21802 -3.87891 0
M  V30 4454 H 412.305 1.55074 -3.40335 0
M  V30 4455 H 414.597 3.88419 -5.55101 0
M  V30 4456 H 415.54 2.72184 -6.53698 0
M  V30 4457 H 415.948 2.95318 -4.8109 0
M  V30 4458 N 415.346 1.54954 0.287554 0
M  V30 4459 C 416.309 1.86076 1.33823 0
M  V30 4460 C 417.309 0.734414 1.43049 0
M  V30 4461 O 418.499 1.00266 1.42452 0
M  V30 4462 C 415.631 2.05305 2.72144 0
M  V30 4463 H 416.824 2.79984 1.07465 0
M  V30 4464 H 414.377 1.47223 0.524902 0
M  V30 4465 H 415.112 1.1373 3.03704 0
M  V30 4466 H 414.897 2.873 2.66836 0
M  V30 4467 H 416.387 2.30706 3.48087 0
M  V30 4468 N 416.824 -0.551391 1.4764 0
M  V30 4469 C 418.235 -1.13349 1.48354 0
M  V30 4470 C 418.586 -1.94709 0.241432 0
M  V30 4471 O 417.711 -2.06306 -0.653205 0
M  V30 4472 C 418.306 -2.0623 2.68802 0
M  V30 4473 C 416.865 -2.597 2.72457 0
M  V30 4474 C 416.012 -1.36201 2.41546 0
M  V30 4475 H 418.963 -0.337698 1.55065 0
M  V30 4476 H 418.984 -2.90196 2.46103 0
M  V30 4477 H 418.496 -1.46987 3.59188 0
M  V30 4478 H 416.597 -3.22724 1.86225 0
M  V30 4479 H 416.71 -3.00296 3.73308 0
M  V30 4480 H 415.074 -1.67068 1.9225 0
M  V30 4481 H 415.857 -0.787425 3.34147 0
M  V30 4482 N 418.302 -1.35869 -0.798587 0
M  V30 4483 C 419.234 -1.25305 -1.91915 0
M  V30 4484 C 420.247 -0.174548 -1.61862 0
M  V30 4485 O 421.436 -0.428499 -1.73281 0
M  V30 4486 C 418.536 -0.9086 -3.26493 0
M  V30 4487 C 417.709 -2.08711 -3.84394 0
M  V30 4488 C 416.768 -1.71717 -4.97393 0
M  V30 4489 O 415.794 -2.43692 -5.14396 0
M  V30 4490 N 416.996 -0.645473 -5.769 0
M  V30 4491 H 419.761 -2.21849 -2.01502 0
M  V30 4492 H 417.322 -1.29143 -0.976408 0
M  V30 4493 H 419.314 -0.642455 -3.99568 0
M  V30 4494 H 417.884 -0.0325815 -3.12583 0
M  V30 4495 H 417.104 -2.51659 -3.03416 0
M  V30 4496 H 418.392 -2.87468 -4.19809 0
M  V30 4497 H 417.79 -0.047648 -5.6568 0
M  V30 4498 H 416.347 -0.43913 -6.50319 0
M  V30 4499 N 419.78 1.02168 -1.19998 0
M  V30 4500 C 421.029 1.75091 -1.0013 0
M  V30 4501 C 421.342 1.89923 0.467835 0
M  V30 4502 O 422.548 2.59888 0.785515 0
M  V30 4503 C 421.004 3.14892 -1.74273 0
M  V30 4504 C 420.612 3.0809 -3.25245 0
M  V30 4505 C 422.356 3.9206 -1.62755 0
M  V30 4506 C 420.263 4.42867 -3.91948 0
M  V30 4507 H 419.193 0.656394 -0.37103 0
M  V30 4508 H 421.844 1.14284 -1.43567 0
M  V30 4509 H 420.226 3.7621 -1.2362 0
M  V30 4510 H 421.4 2.5611 -3.83072 0
M  V30 4511 H 419.715 2.44416 -3.3712 0
M  V30 4512 H 422.312 4.91764 -2.09934 0
M  V30 4513 H 422.655 4.12199 -0.582894 0
M  V30 4514 H 423.188 3.37359 -2.10793 0
M  V30 4515 H 419.927 4.27931 -4.96543 0
M  V30 4516 H 419.447 4.94874 -3.3891 0
M  V30 4517 H 421.126 5.11728 -3.95909 0
M  V30 4518 N 421.258 1.00505 1.21394 0
M  V30 4519 C 422.669 0.721082 1.72213 0
M  V30 4520 C 423.02 -0.761263 1.80829 0
M  V30 4521 O 422.145 -1.59464 1.46288 0
M  V30 4522 C 422.74 1.30228 3.12772 0
M  V30 4523 C 421.299 1.06743 3.60947 0
M  V30 4524 C 420.446 1.41507 2.38477 0
M  V30 4525 H 423.397 1.17594 1.06571 0
M  V30 4526 H 423.418 0.686955 3.74247 0
M  V30 4527 H 422.93 2.38115 3.06468 0
M  V30 4528 H 421.031 0.00572162 3.726 0
M  V30 4529 H 421.144 1.73936 4.46411 0
M  V30 4530 H 419.508 0.833852 2.40664 0
M  V30 4531 H 420.291 2.50424 2.34824 0
M  V30 4532 N 422.737 -1.36956 0.779787 0
M  V30 4533 C 423.647 -2.33965 0.172491 0
M  V30 4534 C 424.663 -1.60574 -0.670222 0
M  V30 4535 O 425.839 -1.92617 -0.588263 0
M  V30 4536 C 422.904 -3.39761 -0.690173 0
M  V30 4537 C 421.965 -4.28964 0.169924 0
M  V30 4538 C 421.198 -5.29707 -0.651662 0
M  V30 4539 O 421.421 -5.38238 -1.88827 0
M  V30 4540 O 420.355 -6.01873 -0.0566264 0
M  V30 4541 H 424.181 -2.87647 0.974321 0
M  V30 4542 H 421.766 -1.39258 0.541078 0
M  V30 4543 H 423.648 -4.04471 -1.1824 0
M  V30 4544 H 422.323 -2.88394 -1.47006 0
M  V30 4545 H 421.23 -3.67326 0.708696 0
M  V30 4546 H 422.563 -4.83656 0.913085 0
M  V30 4547 N 424.215 -0.530993 -1.48385 0
M  V30 4548 C 425.463 0.00273189 -2.021 0
M  V30 4549 C 425.784 1.34672 -1.41027 0
M  V30 4550 O 425.054 1.8724 -0.576012 0
M  V30 4551 H 423.634 0.00399774 -0.746989 0
M  V30 4552 H 426.296 -0.695054 -1.82085 0
M  V30 4553 H 425.392 0.11031 -3.11905 0
M  V30 4554 N 425.693 1.55336 -0.266172 0
M  V30 4555 C 426.623 2.25146 0.618981 0
M  V30 4556 C 427.604 1.23845 1.16604 0
M  V30 4557 O 428.789 1.52544 1.20183 0
M  V30 4558 C 425.919 2.96572 1.80728 0
M  V30 4559 C 424.873 4.04726 1.39215 0
M  V30 4560 C 424.199 4.63678 2.66283 0
M  V30 4561 C 425.499 5.19407 0.548942 0
M  V30 4562 H 427.193 2.99377 0.0368116 0
M  V30 4563 H 424.739 1.43991 0.0162651 0
M  V30 4564 H 426.692 3.44116 2.43232 0
M  V30 4565 H 425.416 2.19861 2.41514 0
M  V30 4566 H 424.075 3.57979 0.790351 0
M  V30 4567 H 423.723 3.83646 3.25308 0
M  V30 4568 H 423.423 5.367 2.39222 0
M  V30 4569 H 424.947 5.13967 3.29651 0
M  V30 4570 H 426.361 5.63059 1.07876 0
M  V30 4571 H 424.758 5.98936 0.373593 0
M  V30 4572 H 425.828 4.8295 -0.434394 0
M  V30 4573 N 427.171 -0.0066808 1.57599 0
M  V30 4574 C 428.418 -0.69292 1.90276 0
M  V30 4575 C 428.746 -1.74148 0.866192 0
M  V30 4576 O 428.001 -1.95268 -0.129933 0
M  V30 4577 C 428.3 -1.37939 3.29708 0
M  V30 4578 C 427.966 -0.464679 4.48499 0
M  V30 4579 C 426.628 -0.212809 4.80729 0
M  V30 4580 C 428.98 0.16551 5.20937 0
M  V30 4581 C 426.308 0.677653 5.82773 0
M  V30 4582 C 428.66 1.04381 6.23929 0
M  V30 4583 C 427.324 1.30492 6.54621 0
M  V30 4584 H 426.594 -0.253558 0.696268 0
M  V30 4585 H 429.241 0.0474123 1.91441 0
M  V30 4586 H 427.546 -2.1936 3.24636 0
M  V30 4587 H 429.243 -1.9163 3.52249 0
M  V30 4588 H 425.833 -0.671153 4.23313 0
M  V30 4589 H 430.017 -0.0160756 4.96297 0
M  V30 4590 H 425.273 0.88803 6.04917 0
M  V30 4591 H 429.447 1.53851 6.79193 0
M  V30 4592 H 427.074 1.99662 7.33512 0
M  V30 4593 N 428.649 -1.55105 -0.279332 0
M  V30 4594 C 429.895 -1.75672 -1.01327 0
M  V30 4595 C 430.228 -0.552739 -1.86168 0
M  V30 4596 O 429.503 0.449827 -1.89227 0
M  V30 4597 C 429.786 -3.05825 -1.90114 0
M  V30 4598 C 429.639 -4.36565 -1.08309 0
M  V30 4599 C 430.958 -3.31975 -2.8893 0
M  V30 4600 H 428.077 -0.639149 -0.366957 0
M  V30 4601 H 430.719 -1.87833 -0.286154 0
M  V30 4602 H 428.869 -2.95588 -2.52111 0
M  V30 4603 H 430.541 -4.58751 -0.484314 0
M  V30 4604 H 428.784 -4.32076 -0.386362 0
M  V30 4605 H 429.455 -5.23946 -1.73737 0
M  V30 4606 H 431.931 -3.41963 -2.37067 0
M  V30 4607 H 430.807 -4.2432 -3.48201 0
M  V30 4608 H 431.068 -2.51309 -3.63725 0
M  V30 4609 N 430.127 0.543554 -1.4793 0
M  V30 4610 C 431.355 1.32516 -1.58894 0
M  V30 4611 C 431.77 1.87215 -0.244131 0
M  V30 4612 O 431.127 1.65709 0.764652 0
M  V30 4613 C 431.178 2.48554 -2.62494 0
M  V30 4614 O 430.899 1.96112 -3.91755 0
M  V30 4615 C 432.4 3.40572 -2.8377 0
M  V30 4616 H 429.62 0.403472 -0.536145 0
M  V30 4617 H 432.164 0.657106 -1.93655 0
M  V30 4618 H 430.319 3.1127 -2.30629 0
M  V30 4619 H 430.733 2.71967 -4.4848 0
M  V30 4620 H 432.207 4.18375 -3.60093 0
M  V30 4621 H 432.684 3.94965 -1.92092 0
M  V30 4622 H 433.29 2.8366 -3.16887 0
M  V30 4623 N 431.605 1.3629 0.791371 0
M  V30 4624 C 432.83 1.33726 1.58531 0
M  V30 4625 C 433.255 -0.0794933 1.87932 0
M  V30 4626 O 432.613 -1.05087 1.47738 0
M  V30 4627 C 432.661 2.16425 2.88431 0
M  V30 4628 O 431.765 1.5554 3.81944 0
M  V30 4629 H 431.106 0.457793 0.480959 0
M  V30 4630 H 433.636 1.79547 0.981031 0
M  V30 4631 H 433.646 2.28933 3.37718 0
M  V30 4632 H 432.321 3.19415 2.66359 0
M  V30 4633 H 430.898 1.51961 3.40532 0
M  V30 4634 N 433.083 -1.0153 1.20538 0
M  V30 4635 C 434.313 -1.78487 1.04048 0
M  V30 4636 C 434.721 -1.84631 -0.413292 0
M  V30 4637 O 434.064 -1.29919 -1.29872 0
M  V30 4638 C 434.126 -3.24367 1.55003 0
M  V30 4639 C 433.79 -3.41827 3.0332 0
M  V30 4640 C 434.787 -3.30941 4.00966 0
M  V30 4641 C 432.472 -3.67602 3.42307 0
M  V30 4642 C 434.466 -3.45577 5.35589 0
M  V30 4643 C 432.153 -3.81881 4.77085 0
M  V30 4644 C 433.151 -3.70874 5.73534 0
M  V30 4645 O 432.839 -3.84714 7.05868 0
M  V30 4646 H 432.571 -0.568108 0.366373 0
M  V30 4647 H 435.125 -1.28677 1.60098 0
M  V30 4648 H 433.355 -3.75266 0.933397 0
M  V30 4649 H 435.044 -3.82963 1.34514 0
M  V30 4650 H 435.81 -3.10964 3.72191 0
M  V30 4651 H 431.689 -3.75256 2.67776 0
M  V30 4652 H 435.233 -3.36902 6.10854 0
M  V30 4653 H 431.13 -4.01359 5.0555 0
M  V30 4654 H 431.898 -4.01724 7.13134 0
M  V30 4655 N 434.561 -1.01147 -1.20859 0
M  V30 4656 C 435.491 -0.597663 -2.25722 0
M  V30 4657 C 436.472 0.384744 -1.65692 0
M  V30 4658 O 437.657 0.271303 -1.92296 0
M  V30 4659 C 434.787 0.0700149 -3.47229 0
M  V30 4660 C 433.741 -0.832843 -4.19819 0
M  V30 4661 C 433.067 -0.0312202 -5.34691 0
M  V30 4662 C 434.367 -2.1385 -4.76514 0
M  V30 4663 H 436.061 -1.47423 -2.60589 0
M  V30 4664 H 433.607 -0.710301 -1.25263 0
M  V30 4665 H 435.56 0.37103 -4.19763 0
M  V30 4666 H 434.284 0.981259 -3.11511 0
M  V30 4667 H 432.943 -1.11778 -3.49144 0
M  V30 4668 H 432.591 0.881515 -4.95215 0
M  V30 4669 H 432.291 -0.632434 -5.84187 0
M  V30 4670 H 433.815 0.26346 -6.10031 0
M  V30 4671 H 435.229 -1.9002 -5.40893 0
M  V30 4672 H 433.626 -2.69012 -5.36426 0
M  V30 4673 H 434.696 -2.80495 -3.95538 0
M  V30 4674 N 436.039 1.36541 -0.78704 0
M  V30 4675 C 436.969 2.32659 -0.197992 0
M  V30 4676 C 437.95 1.56533 0.665697 0
M  V30 4677 O 439.135 1.84698 0.60001 0
M  V30 4678 C 436.265 3.40778 0.669901 0
M  V30 4679 C 435.219 4.27897 -0.0937039 0
M  V30 4680 C 434.545 5.27163 0.894629 0
M  V30 4681 C 435.845 5.06334 -1.28154 0
M  V30 4682 H 437.539 2.82171 -1.00099 0
M  V30 4683 H 435.085 1.35665 -0.482793 0
M  V30 4684 H 437.038 4.07008 1.09191 0
M  V30 4685 H 435.762 2.89827 1.50558 0
M  V30 4686 H 434.421 3.6322 -0.49666 0
M  V30 4687 H 434.069 4.72486 1.72527 0
M  V30 4688 H 433.769 5.86317 0.388149 0
M  V30 4689 H 435.293 5.96266 1.31525 0
M  V30 4690 H 436.707 5.65617 -0.93541 0
M  V30 4691 H 435.104 5.74888 -1.72115 0
M  V30 4692 H 436.174 4.38114 -2.07807 0
M  V30 4693 N 437.518 0.538854 1.48102 0
M  V30 4694 C 438.481 -0.208395 2.28251 0
M  V30 4695 C 439.481 -0.859656 1.35892 0
M  V30 4696 O 440.671 -0.71834 1.58699 0
M  V30 4697 C 437.803 -1.30252 3.15035 0
M  V30 4698 H 438.996 0.495407 2.9578 0
M  V30 4699 H 436.549 0.295112 1.53489 0
M  V30 4700 H 437.284 -2.0393 2.52157 0
M  V30 4701 H 437.069 -0.840551 3.82985 0
M  V30 4702 H 438.559 -1.82787 3.75471 0
M  V30 4703 N 438.996 -1.55193 0.274407 0
M  V30 4704 C 440.226 -2.03692 -0.345442 0
M  V30 4705 C 440.634 -1.15224 -1.50067 0
M  V30 4706 O 439.977 -0.164749 -1.8296 0
M  V30 4707 C 440.039 -3.48325 -0.88939 0
M  V30 4708 C 439.703 -4.56794 0.137115 0
M  V30 4709 C 440.7 -5.11028 0.956378 0
M  V30 4710 C 438.385 -5.01568 0.27115 0
M  V30 4711 C 440.379 -6.08552 1.89587 0
M  V30 4712 C 438.066 -5.98918 1.21412 0
M  V30 4713 C 439.064 -6.52291 2.02498 0
M  V30 4714 O 438.752 -7.47738 2.952 0
M  V30 4715 H 438.484 -0.670893 -0.0829332 0
M  V30 4716 H 441.038 -2.01387 0.404056 0
M  V30 4717 H 439.268 -3.47867 -1.68895 0
M  V30 4718 H 440.957 -3.80167 -1.42225 0
M  V30 4719 H 441.723 -4.7725 0.863559 0
M  V30 4720 H 437.602 -4.5967 -0.349987 0
M  V30 4721 H 441.146 -6.50137 2.52918 0
M  V30 4722 H 437.043 -6.32114 1.30776 0
M  V30 4723 H 437.811 -7.65451 2.89874 0
M  V30 4724 N 440.474 -0.00167713 -1.576 0
M  V30 4725 C 441.721 0.68282 -1.90641 0
M  V30 4726 C 442.049 1.73686 -0.875415 0
M  V30 4727 O 441.304 1.95334 0.119575 0
M  V30 4728 C 441.603 1.36189 -3.30435 0
M  V30 4729 C 441.269 0.440887 -4.48739 0
M  V30 4730 C 439.931 0.187312 -4.80835 0
M  V30 4731 C 442.283 -0.193134 -5.20842 0
M  V30 4732 C 439.611 -0.70855 -5.82406 0
M  V30 4733 C 441.963 -1.07688 -6.23367 0
M  V30 4734 C 440.627 -1.33962 -6.53919 0
M  V30 4735 H 439.897 0.249862 -0.697603 0
M  V30 4736 H 442.544 -0.0575642 -1.91413 0
M  V30 4737 H 440.849 2.17636 -3.25794 0
M  V30 4738 H 442.546 1.89759 -3.5326 0
M  V30 4739 H 439.136 0.648694 -4.23663 0
M  V30 4740 H 443.32 -0.0102445 -4.96299 0
M  V30 4741 H 438.576 -0.920097 -6.04437 0
M  V30 4742 H 442.75 -1.57451 -6.78367 0
M  V30 4743 H 440.377 -2.03549 -7.32442 0
M  V30 4744 N 441.952 1.55251 0.271103 0
M  V30 4745 C 442.9 1.89054 1.35504 0
M  V30 4746 C 443.894 0.767064 1.51038 0
M  V30 4747 O 445.1 0.951429 1.528 0
M  V30 4748 H 441.475 0.600072 0.45323 0
M  V30 4749 H 443.446 2.79598 1.04247 0
M  V30 4750 C 442.195 2.18068 2.70817 0
M  V30 4751 H 441.518 3.04005 2.59656 0
M  V30 4752 H 442.958 2.4564 3.45597 0
M  V30 4753 C 441.417 0.988901 3.2206 0
M  V30 4754 O 441.947 0.224501 4.01072 0
M  V30 4755 N 440.153 0.786085 2.79766 0
M  V30 4756 H 439.7 1.40937 2.15626 0
M  V30 4757 H 439.658 -0.00969349 3.14399 0
M  V30 4758 N 443.43 -0.535701 1.48216 0
M  V30 4759 C 444.655 -1.32149 1.59848 0
M  V30 4760 C 445.08 -1.86338 0.256842 0
M  V30 4761 O 444.438 -1.64107 -0.770632 0
M  V30 4762 C 444.486 -2.45224 2.64381 0
M  V30 4763 O 443.59 -3.48093 2.21144 0
M  V30 4764 H 442.931 -0.391634 0.536208 0
M  V30 4765 H 445.461 -0.645202 1.94161 0
M  V30 4766 H 445.471 -2.91491 2.85476 0
M  V30 4767 H 444.146 -2.05143 3.61786 0
M  V30 4768 H 442.723 -3.07984 2.10239 0
M  V30 4769 N 444.908 -1.36708 -0.784132 0
M  V30 4770 C 446.148 -1.32618 -1.55537 0
M  V30 4771 C 446.512 0.0920681 -1.91779 0
M  V30 4772 O 447.713 0.257573 -2.67563 0
M  V30 4773 C 445.984 -2.22788 -2.79464 0
M  V30 4774 S 447.543 -2.36432 -3.69656 0
M  V30 4775 H 444.361 -0.470973 -0.53264 0
M  V30 4776 H 446.963 -1.72333 -0.92312 0
M  V30 4777 H 445.667 -3.24774 -2.50899 0
M  V30 4778 H 445.198 -1.84112 -3.47658 0
M  V30 4779 H 447.213 -1.56573 -4.7085 0
M  V30 4780 N 446.386 1.0089 -1.21074 0
M  V30 4781 C 447.316 2.1145 -0.990523 0
M  V30 4782 C 448.297 1.69897 0.0831699 0
M  V30 4783 O 449.482 1.94052 -0.0758853 0
M  V30 4784 C 446.612 3.42914 -0.550177 0
M  V30 4785 C 445.566 3.98244 -1.56799 0
M  V30 4786 C 444.892 5.25568 -0.984013 0
M  V30 4787 C 446.192 4.30752 -2.95381 0
M  V30 4788 H 447.886 2.3013 -1.91521 0
M  V30 4789 H 445.432 1.10592 -0.92225 0
M  V30 4790 H 447.385 4.19653 -0.383305 0
M  V30 4791 H 446.109 3.24014 0.41015 0
M  V30 4792 H 444.768 3.23621 -1.72236 0
M  V30 4793 H 444.416 5.02998 -0.0155216 0
M  V30 4794 H 444.116 5.63551 -1.66384 0
M  V30 4795 H 445.64 6.04955 -0.828378 0
M  V30 4796 H 447.054 4.98349 -2.8341 0
M  V30 4797 H 445.451 4.79869 -3.60341 0
M  V30 4798 H 446.521 3.39192 -3.46521 0
M  V30 4799 N 447.864 1.01787 1.20321 0
M  V30 4800 C 448.812 0.58254 2.25187 0
M  V30 4801 C 449.806 -0.379359 1.65098 0
M  V30 4802 O 451.012 -0.249142 1.78267 0
M  V30 4803 H 447.387 0.170078 0.732514 0
M  V30 4804 H 449.358 1.47788 2.59232 0
M  V30 4805 C 448.107 -0.0620885 3.47645 0
M  V30 4806 H 447.43 0.669069 3.94162 0
M  V30 4807 H 448.87 -0.329784 4.22716 0
M  V30 4808 C 447.329 -1.3053 3.10586 0
M  V30 4809 O 447.859 -2.39848 3.22236 0
M  V30 4810 N 446.065 -1.18988 2.65123 0
M  V30 4811 H 445.612 -0.300341 2.55843 0
M  V30 4812 H 445.57 -2.02267 2.40698 0
M  V30 4813 N 449.342 -1.36122 0.79427 0
M  V30 4814 C 450.305 -2.28309 0.201889 0
M  V30 4815 C 451.305 -1.49041 -0.603603 0
M  V30 4816 O 452.495 -1.68964 -0.423888 0
M  V30 4817 C 449.627 -3.3321 -0.719978 0
M  V30 4818 H 450.82 -2.82208 1.01481 0
M  V30 4819 H 448.373 -1.45768 0.564037 0
M  V30 4820 H 449.108 -2.84475 -1.55706 0
M  V30 4821 H 448.893 -3.91835 -0.144266 0
M  V30 4822 H 450.383 -4.02044 -1.12916 0
M  V30 4823 N 450.82 -0.546701 -1.47814 0
M  V30 4824 C 452.069 -0.0166497 -2.01693 0
M  V30 4825 C 452.382 1.33721 -1.42752 0
M  V30 4826 O 453.588 1.95658 -1.8823 0
M  V30 4827 C 452.044 0.0206769 -3.59894 0
M  V30 4828 C 451.652 -1.3293 -4.27824 0
M  V30 4829 C 453.396 0.498674 -4.21561 0
M  V30 4830 C 451.303 -1.25165 -5.78003 0
M  V30 4831 H 450.233 -0.0024541 -0.753996 0
M  V30 4832 H 452.884 -0.692984 -1.69912 0
M  V30 4833 H 451.266 0.76244 -3.88591 0
M  V30 4834 H 452.44 -2.08795 -4.10781 0
M  V30 4835 H 450.755 -1.74438 -3.78101 0
M  V30 4836 H 453.352 0.575 -5.31599 0
M  V30 4837 H 453.695 1.5083 -3.88016 0
M  V30 4838 H 454.228 -0.18791 -3.97356 0
M  V30 4839 H 450.967 -2.23695 -6.1615 0
M  V30 4840 H 450.487 -0.53464 -5.97412 0
M  V30 4841 H 452.166 -0.949299 -6.39998 0
M  V30 4842 N 452.299 1.55045 -0.282633 0
M  V30 4843 C 453.545 2.00056 0.332481 0
M  V30 4844 C 453.878 1.1708 1.54939 0
M  V30 4845 O 453.153 0.2427 1.9298 0
M  V30 4846 C 453.436 3.53086 0.70725 0
M  V30 4847 C 453.289 4.46813 -0.517521 0
M  V30 4848 C 454.608 4.12245 1.54084 0
M  V30 4849 H 451.727 0.727268 0.119373 0
M  V30 4850 H 454.369 1.85932 -0.391076 0
M  V30 4851 H 452.519 3.65253 1.32372 0
M  V30 4852 H 454.191 4.46579 -1.15607 0
M  V30 4853 H 452.434 4.18163 -1.1542 0
M  V30 4854 H 453.105 5.51595 -0.211426 0
M  V30 4855 H 455.581 4.03401 1.02013 0
M  V30 4856 H 454.457 5.19515 1.77186 0
M  V30 4857 H 454.718 3.62951 2.52427 0
M  V30 4858 N 453.777 0.010035 1.57597 0
M  V30 4859 C 455.007 -0.682422 1.95004 0
M  V30 4860 C 455.415 -1.67278 0.884014 0
M  V30 4861 O 454.758 -1.83129 -0.144672 0
M  V30 4862 C 454.82 -1.46141 3.28456 0
M  V30 4863 C 454.484 -0.631523 4.52615 0
M  V30 4864 C 455.481 0.0850905 5.1983 0
M  V30 4865 C 453.166 -0.574539 4.99003 0
M  V30 4866 C 455.16 0.847566 6.3174 0
M  V30 4867 C 452.847 0.191655 6.10799 0
M  V30 4868 C 453.845 0.901432 6.77025 0
M  V30 4869 O 453.533 1.65511 7.86677 0
M  V30 4870 H 453.265 -0.194361 0.647456 0
M  V30 4871 H 455.819 0.060312 2.05311 0
M  V30 4872 H 454.049 -2.24885 3.14585 0
M  V30 4873 H 455.738 -2.04016 3.50902 0
M  V30 4874 H 456.504 0.0502812 4.84974 0
M  V30 4875 H 452.383 -1.11654 4.47274 0
M  V30 4876 H 455.927 1.4021 6.83364 0
M  V30 4877 H 451.824 0.228249 6.45096 0
M  V30 4878 H 452.592 1.57287 8.03245 0
M  V30 4879 N 455.255 -1.55392 -0.262866 0
M  V30 4880 C 456.503 -1.76127 -0.991147 0
M  V30 4881 C 456.824 -0.571083 -1.8645 0
M  V30 4882 O 456.094 0.413698 -1.91482 0
M  V30 4883 H 454.674 -0.649528 -0.368948 0
M  V30 4884 H 457.336 -1.9281 -0.284655 0
M  V30 4885 H 456.432 -2.6663 -1.62219 0
M  V30 4886 N 456.733 0.527833 -1.48498 0
M  V30 4887 C 457.663 1.64136 -1.66077 0
M  V30 4888 C 458.644 1.62286 -0.509625 0
M  V30 4889 O 459.829 1.79449 -0.742413 0
M  V30 4890 C 456.959 3.02717 -1.70234 0
M  V30 4891 C 455.913 3.19426 -2.8487 0
M  V30 4892 C 455.239 4.5909 -2.74118 0
M  V30 4893 C 456.539 3.01993 -4.26142 0
M  V30 4894 H 458.233 1.4968 -2.593 0
M  V30 4895 H 455.779 0.718654 -1.24785 0
M  V30 4896 H 457.732 3.80491 -1.8112 0
M  V30 4897 H 456.456 3.18201 -0.735911 0
M  V30 4898 H 455.115 2.4407 -2.73542 0
M  V30 4899 H 454.763 4.71413 -1.7544 0
M  V30 4900 H 454.463 4.71214 -3.51042 0
M  V30 4901 H 455.987 5.3896 -2.86974 0
M  V30 4902 H 457.401 3.69558 -4.38292 0
M  V30 4903 H 455.798 3.2561 -5.04082 0
M  V30 4904 H 456.868 1.98396 -4.42456 0
M  V30 4905 N 458.211 1.37122 0.776871 0
M  V30 4906 C 459.141 1.35164 1.90402 0
M  V30 4907 C 460.122 0.221069 1.68657 0
M  V30 4908 O 461.307 0.420642 1.8959 0
M  V30 4909 C 458.437 1.15274 3.27611 0
M  V30 4910 C 457.391 2.25289 3.63908 0
M  V30 4911 C 456.717 1.90527 4.99603 0
M  V30 4912 C 458.017 3.67446 3.71188 0
M  V30 4913 H 459.711 2.29482 1.92297 0
M  V30 4914 H 457.257 1.10465 0.923773 0
M  V30 4915 H 459.21 1.12536 4.06096 0
M  V30 4916 H 457.934 0.174102 3.26136 0
M  V30 4917 H 456.593 2.27174 2.87728 0
M  V30 4918 H 456.241 0.91206 4.94662 0
M  V30 4919 H 455.941 2.64193 5.24858 0
M  V30 4920 H 457.465 1.89367 5.80493 0
M  V30 4921 H 458.879 3.67719 4.39836 0
M  V30 4922 H 457.276 4.40123 4.07936 0
M  V30 4923 H 458.346 4.01443 2.71977 0
M  V30 4924 N 459.689 -1.00246 1.21608 0
M  V30 4925 C 460.637 -2.11193 0.97469 0
M  V30 4926 C 461.631 -1.69216 -0.0789303 0
M  V30 4927 O 462.837 -1.79853 0.0726806 0
M  V30 4928 H 459.212 -0.690455 0.297953 0
M  V30 4929 H 461.183 -2.2873 1.91638 0
M  V30 4930 C 459.932 -3.43182 0.558717 0
M  V30 4931 H 459.255 -3.75918 1.3611 0
M  V30 4932 H 460.695 -4.21823 0.429154 0
M  V30 4933 C 459.154 -3.28882 -0.730648 0
M  V30 4934 O 459.684 -3.59835 -1.78554 0
M  V30 4935 N 457.89 -2.8209 -0.698131 0
M  V30 4936 H 457.437 -2.57099 0.16061 0
M  V30 4937 H 457.395 -2.72903 -1.56113 0
M  V30 4938 N 461.167 -1.02423 -1.1978 0
M  V30 4939 C 462.099 -0.559152 -2.22275 0
M  V30 4940 C 463.112 0.36251 -1.58713 0
M  V30 4941 O 464.301 0.159641 -1.77785 0
M  V30 4942 C 461.401 0.205094 -3.38279 0
M  V30 4943 C 460.574 -0.720361 -4.31427 0
M  V30 4944 C 459.633 -0.00234368 -5.262 0
M  V30 4945 O 458.659 -0.627378 -5.65732 0
M  V30 4946 N 459.861 1.26996 -5.66438 0
M  V30 4947 H 462.626 -1.44064 -2.62804 0
M  V30 4948 H 460.187 -0.902692 -1.34399 0
M  V30 4949 H 462.179 0.694868 -3.9869 0
M  V30 4950 H 460.749 0.987947 -2.96578 0
M  V30 4951 H 459.969 -1.39031 -3.68869 0
M  V30 4952 H 461.257 -1.3495 -4.90577 0
M  V30 4953 H 460.655 1.79858 -5.36347 0
M  V30 4954 H 459.212 1.70432 -6.29123 0
M  V30 4955 N 462.645 1.35699 -0.801477 0
M  V30 4956 C 463.593 2.3177 -0.196317 0
M  V30 4957 C 464.587 1.56388 0.651081 0
M  V30 4958 O 465.793 1.71557 0.544815 0
M  V30 4959 H 462.168 0.750669 -0.0447189 0
M  V30 4960 H 464.139 2.8036 -1.02181 0
M  V30 4961 C 462.888 3.41671 0.644702 0
M  V30 4962 H 462.211 3.998 0.0019921 0
M  V30 4963 H 463.651 4.11184 1.0346 0
M  V30 4964 C 462.11 2.84271 1.80808 0
M  V30 4965 O 462.64 2.77408 2.9053 0
M  V30 4966 N 460.846 2.41391 1.61799 0
M  V30 4967 H 460.393 2.47173 0.725493 0
M  V30 4968 H 460.351 2.03334 2.39797 0
M  V30 4969 N 464.123 0.554532 1.47522 0
M  V30 4970 C 465.37 0.029479 2.02479 0
M  V30 4971 C 465.698 -1.31929 1.42916 0
M  V30 4972 O 464.953 -1.87112 0.573385 0
M  V30 4973 C 465.252 -0.115927 3.57212 0
M  V30 4974 C 464.918 1.16161 4.3568 0
M  V30 4975 C 463.58 1.51168 4.56839 0
M  V30 4976 C 465.932 2.0083 4.80954 0
M  V30 4977 C 463.26 2.70696 5.2052 0
M  V30 4978 C 465.612 3.19559 5.45953 0
M  V30 4979 C 464.276 3.54882 5.65345 0
M  V30 4980 H 463.546 0.0107871 0.740921 0
M  V30 4981 H 466.193 0.725506 1.77225 0
M  V30 4982 H 464.498 -0.894902 3.81443 0
M  V30 4983 H 466.195 -0.53749 3.97381 0
M  V30 4984 H 462.785 0.879026 4.19489 0
M  V30 4985 H 466.969 1.75093 4.64388 0
M  V30 4986 H 462.225 2.98236 5.33728 0
M  V30 4987 H 466.399 3.85456 5.79997 0
M  V30 4988 H 464.026 4.47596 6.1446 0
M  V30 4989 N 465.601 -1.54893 0.290851 0
M  V30 4990 C 467.017 -1.59476 -0.0628432 0
M  V30 4991 C 467.217 -1.30795 -1.5328 0
M  V30 4992 O 466.273 -1.07644 -2.28406 0
M  V30 4993 C 467.586 -2.98928 0.325962 0
M  V30 4994 C 469.134 -3.11799 0.273882 0
M  V30 4995 C 469.609 -4.53544 0.637359 0
M  V30 4996 N 471.1 -4.59433 0.589507 0
M  V30 4997 C 471.835 -5.67164 0.84335 0
M  V30 4998 N 471.331 -6.82975 1.16263 0
M  V30 4999 N 473.124 -5.56786 0.771091 0
M  V30 5000 H 465.275 -1.71798 1.24896 0
M  V30 5001 H 467.538 -0.801879 0.505663 0
M  V30 5002 H 467.244 -3.24805 1.34887 0
M  V30 5003 H 467.118 -3.75793 -0.325441 0
M  V30 5004 H 469.505 -2.85677 -0.739765 0
M  V30 5005 H 469.586 -2.37112 0.959766 0
M  V30 5006 H 469.23 -4.80394 1.64877 0
M  V30 5007 H 469.16 -5.26553 -0.0704866 0
M  V30 5008 H 471.651 -3.76245 0.353252 0
M  V30 5009 H 471.964 -7.61048 1.34257 0
M  V30 5010 H 470.309 -6.84552 1.20057 0
M  V30 5011 H 473.5 -4.65187 0.521383 0
M  V30 5012 H 473.673 -6.40664 0.972295 0
M  V30 5013 N 467.08 -0.0183926 -1.57589 0
M  V30 5014 C 468.496 0.337897 -1.55982 0
M  V30 5015 C 468.696 1.73604 -1.02294 0
M  V30 5016 O 467.752 2.43589 -0.664895 0
M  V30 5017 C 469.065 0.196305 -3.00059 0
M  V30 5018 C 470.613 0.269875 -3.11834 0
M  V30 5019 C 471.088 0.157197 -4.5773 0
M  V30 5020 N 472.579 0.214521 -4.62703 0
M  V30 5021 C 473.314 0.150955 -5.73201 0
M  V30 5022 N 472.81 0.0369212 -6.9279 0
M  V30 5023 N 474.603 0.204162 -5.61729 0
M  V30 5024 H 466.754 -0.93279 -1.90821 0
M  V30 5025 H 469.017 -0.359253 -0.877292 0
M  V30 5026 H 468.723 -0.766383 -3.43248 0
M  V30 5027 H 468.597 0.970908 -3.6449 0
M  V30 5028 H 470.984 1.22302 -2.68563 0
M  V30 5029 H 471.065 -0.534918 -2.50144 0
M  V30 5030 H 470.709 -0.792479 -5.01679 0
M  V30 5031 H 470.639 0.980717 -5.17387 0
M  V30 5032 H 473.13 0.303238 -3.76681 0
M  V30 5033 H 473.443 -0.00518321 -7.728 0
M  V30 5034 H 471.788 0.0022886 -6.95 0
M  V30 5035 H 474.979 0.291575 -4.67191 0
M  V30 5036 H 475.152 0.15116 -6.47824 0
M  V30 5037 N 468.558 1.5553 0.254621 0
M  V30 5038 C 469.468 1.92789 1.33677 0
M  V30 5039 C 470.484 0.827356 1.53071 0
M  V30 5040 O 471.66 1.12807 1.66843 0
M  V30 5041 C 468.725 2.20827 2.67275 0
M  V30 5042 C 467.786 3.4427 2.5647 0
M  V30 5043 C 467.019 3.70961 3.83697 0
M  V30 5044 O 467.242 2.99852 4.85227 0
M  V30 5045 O 466.176 4.64491 3.82794 0
M  V30 5046 H 470.002 2.84945 1.05071 0
M  V30 5047 H 467.587 1.42312 0.454723 0
M  V30 5048 H 469.469 2.40204 3.46237 0
M  V30 5049 H 468.144 1.31851 2.9563 0
M  V30 5050 H 467.051 3.30209 1.75821 0
M  V30 5051 H 468.384 4.33524 2.33062 0
M  V30 5052 N 470.036 -0.519951 1.48776 0
M  V30 5053 C 471.266 -1.29783 1.60748 0
M  V30 5054 C 471.674 -1.87253 0.27072 0
M  V30 5055 O 471.017 -1.67628 -0.751438 0
M  V30 5056 C 471.079 -2.47984 2.60277 0
M  V30 5057 C 470.743 -2.11526 4.051 0
M  V30 5058 C 471.74 -1.66608 4.92481 0
M  V30 5059 C 469.425 -2.21742 4.50706 0
M  V30 5060 C 471.419 -1.32384 6.23501 0
M  V30 5061 C 469.106 -1.87129 5.81744 0
M  V30 5062 C 470.104 -1.42523 6.67964 0
M  V30 5063 O 469.792 -1.0837 7.96562 0
M  V30 5064 H 469.524 -0.400562 0.544542 0
M  V30 5065 H 472.078 -0.632879 1.95407 0
M  V30 5066 H 470.308 -3.17493 2.2076 0
M  V30 5067 H 471.997 -3.10036 2.61978 0
M  V30 5068 H 472.763 -1.58178 4.58481 0
M  V30 5069 H 468.642 -2.55415 3.83776 0
M  V30 5070 H 472.186 -0.974949 6.90754 0
M  V30 5071 H 468.083 -1.95204 6.15277 0
M  V30 5072 H 468.851 -1.21681 8.09405 0
M  V30 5073 N 471.514 -1.37532 -0.769588 0
M  V30 5074 C 472.461 -1.3347 -1.88293 0
M  V30 5075 C 473.431 -0.199891 -1.64893 0
M  V30 5076 O 474.616 -0.389594 -1.8678 0
M  V30 5077 C 471.756 -1.14968 -3.25387 0
M  V30 5078 C 470.869 -2.37698 -3.60727 0
M  V30 5079 C 470.004 -2.12051 -4.8704 0
M  V30 5080 C 469.043 -3.30636 -5.15117 0
M  V30 5081 N 468.18 -3.04527 -6.3262 0
M  V30 5082 H 473.02 -2.28658 -1.911 0
M  V30 5083 H 470.557 -1.13622 -0.934257 0
M  V30 5084 H 472.515 -1.02261 -4.04473 0
M  V30 5085 H 471.145 -0.234263 -3.21949 0
M  V30 5086 H 470.197 -2.61137 -2.76608 0
M  V30 5087 H 471.509 -3.26131 -3.77413 0
M  V30 5088 H 470.663 -1.96388 -5.74035 0
M  V30 5089 H 469.402 -1.20959 -4.72462 0
M  V30 5090 H 468.407 -3.46836 -4.26597 0
M  V30 5091 H 469.632 -4.22582 -5.31603 0
M  V30 5092 H 467.578 -2.16067 -6.19396 0
M  V30 5093 H 467.495 -3.86503 -6.49732 0
M  V30 5094 H 468.763 -2.92485 -7.22546 0
M  V30 5095 N 472.992 0.995999 -1.22138 0
M  V30 5096 C 474.408 1.25917 -0.980667 0
M  V30 5097 C 474.608 1.98819 0.327604 0
M  V30 5098 O 473.664 2.29587 1.05101 0
M  V30 5099 C 474.977 2.07399 -2.17729 0
M  V30 5100 C 476.525 2.20594 -2.22052 0
M  V30 5101 C 477 3.05462 -3.41258 0
M  V30 5102 N 478.491 3.13049 -3.41401 0
M  V30 5103 C 479.226 3.78997 -4.30289 0
M  V30 5104 N 478.722 4.46899 -5.2939 0
M  V30 5105 N 480.515 3.75728 -4.18073 0
M  V30 5106 H 472.666 0.507158 -2.06256 0
M  V30 5107 H 474.929 0.28658 -0.903646 0
M  V30 5108 H 474.635 1.61191 -3.12586 0
M  V30 5109 H 474.509 3.08154 -2.17534 0
M  V30 5110 H 476.896 2.66017 -1.27745 0
M  V30 5111 H 476.977 1.1928 -2.26287 0
M  V30 5112 H 476.621 2.60739 -4.35864 0
M  V30 5113 H 476.551 4.06911 -3.34262 0
M  V30 5114 H 479.042 2.64721 -2.69688 0
M  V30 5115 H 479.355 4.94952 -5.935 0
M  V30 5116 H 477.7 4.45657 -5.33306 0
M  V30 5117 H 480.891 3.2184 -3.39907 0
M  V30 5118 H 481.064 4.26845 -4.87553 0
M  V30 5119 N 474.47 1.03057 1.19235 0
M  V30 5120 C 475.719 0.72326 1.88287 0
M  V30 5121 C 476.032 -0.751333 1.80594 0
M  V30 5122 O 477.238 -1.17176 2.44912 0
M  V30 5123 C 475.694 1.24338 3.3774 0
M  V30 5124 C 475.302 2.74587 3.53986 0
M  V30 5125 C 477.046 1.01213 4.12257 0
M  V30 5126 C 474.953 3.20009 4.97341 0
M  V30 5127 H 473.883 0.266848 0.705201 0
M  V30 5128 H 476.534 1.24509 1.34795 0
M  V30 5129 H 474.916 0.649457 3.90638 0
M  V30 5130 H 476.09 3.39649 3.11408 0
M  V30 5131 H 474.405 2.9601 2.9286 0
M  V30 5132 H 477.002 1.32675 5.17978 0
M  V30 5133 H 477.345 -0.051001 4.16269 0
M  V30 5134 H 477.878 1.57014 3.65501 0
M  V30 5135 H 474.617 4.25659 4.98493 0
M  V30 5136 H 474.137 2.59676 5.40674 0
M  V30 5137 H 475.816 3.13447 5.66003 0
M  V30 5138 N 475.948 -1.35272 0.808662 0
M  V30 5139 C 476.878 -2.32315 0.234981 0
M  V30 5140 C 477.859 -1.57572 -0.64071 0
M  V30 5141 O 479.044 -1.8563 -0.570551 0
M  V30 5142 C 476.174 -3.41801 -0.615601 0
M  V30 5143 C 475.128 -4.27694 0.161767 0
M  V30 5144 C 474.454 -5.28519 -0.810649 0
M  V30 5145 C 475.754 -5.04231 1.36193 0
M  V30 5146 H 477.448 -2.80543 1.04575 0
M  V30 5147 H 474.994 -1.3488 0.504315 0
M  V30 5148 H 476.947 -4.08693 -1.02702 0
M  V30 5149 H 475.671 -2.92186 -1.45928 0
M  V30 5150 H 474.33 -3.62384 0.554382 0
M  V30 5151 H 473.978 -4.75171 -1.64988 0
M  V30 5152 H 473.678 -5.8686 -0.294822 0
M  V30 5153 H 475.202 -5.98283 -1.22023 0
M  V30 5154 H 476.616 -5.64058 1.02528 0
M  V30 5155 H 475.013 -5.72077 1.81239 0
M  V30 5156 H 476.083 -4.34753 2.14751 0
M  V30 5157 N 477.426 -0.562348 -1.47226 0
M  V30 5158 C 478.356 0.170627 -2.32876 0
M  V30 5159 C 479.337 0.903748 -1.44106 0
M  V30 5160 O 480.522 0.883206 -1.72954 0
M  V30 5161 C 477.652 1.19786 -3.25989 0
M  V30 5162 C 476.606 0.580875 -4.2404 0
M  V30 5163 C 475.932 1.71311 -5.06514 0
M  V30 5164 C 477.232 -0.468714 -5.20193 0
M  V30 5165 H 478.926 -0.544441 -2.94408 0
M  V30 5166 H 476.472 -0.263271 -1.41573 0
M  V30 5167 H 478.425 1.71884 -3.84752 0
M  V30 5168 H 477.149 1.94294 -2.62521 0
M  V30 5169 H 475.808 0.0811538 -3.6651 0
M  V30 5170 H 475.456 2.44736 -4.39447 0
M  V30 5171 H 475.156 1.30604 -5.72902 0
M  V30 5172 H 476.68 2.23725 -5.68137 0
M  V30 5173 H 478.094 -0.0336028 -5.7329 0
M  V30 5174 H 476.491 -0.794957 -5.94811 0
M  V30 5175 H 477.561 -1.36269 -4.65359 0
M  V30 5176 N 478.904 1.54736 -0.299062 0
M  V30 5177 C 479.867 2.22127 0.565012 0
M  V30 5178 C 480.867 1.20669 1.06281 0
M  V30 5179 O 482.057 1.45417 0.959145 0
M  V30 5180 C 479.189 2.90611 1.78208 0
M  V30 5181 H 480.382 2.99891 -0.0237448 0
M  V30 5182 H 477.935 1.5622 -0.0498788 0
M  V30 5183 H 478.67 2.16921 2.41072 0
M  V30 5184 H 478.455 3.64984 1.43281 0
M  V30 5185 H 479.945 3.42026 2.396 0
M  V30 5186 N 480.382 0.0267497 1.57577 0
M  V30 5187 C 481.312 -0.954308 2.13108 0
M  V30 5188 C 482.293 -1.34088 1.04663 0
M  V30 5189 O 483.478 -1.41992 1.32484 0
M  V30 5190 C 480.608 -2.23744 2.65624 0
M  V30 5191 C 479.562 -1.99168 3.78835 0
M  V30 5192 C 478.888 -3.33726 4.17769 0
M  V30 5193 C 480.188 -1.33277 5.0501 0
M  V30 5194 H 481.882 -0.491848 2.95332 0
M  V30 5195 H 479.428 -0.23514 1.42067 0
M  V30 5196 H 481.381 -2.92754 3.03106 0
M  V30 5197 H 480.105 -2.72151 1.80558 0
M  V30 5198 H 478.764 -1.32577 3.41788 0
M  V30 5199 H 478.412 -3.79888 3.29688 0
M  V30 5200 H 478.112 -3.18089 4.94058 0
M  V30 5201 H 479.636 -4.04008 4.57832 0
M  V30 5202 H 481.05 -1.92283 5.40093 0
M  V30 5203 H 479.447 -1.28045 5.8628 0
M  V30 5204 H 480.517 -0.305411 4.83937 0
M  V30 5205 N 481.861 -1.55662 -0.24637 0
M  V30 5206 C 483.107 -1.78698 -0.971525 0
M  V30 5207 C 483.462 -0.59577 -1.82944 0
M  V30 5208 O 482.755 0.41097 -1.87141 0
M  V30 5209 C 482.949 -3.04885 -1.86494 0
M  V30 5210 C 482.778 -4.36165 -1.09501 0
M  V30 5211 C 481.548 -4.98929 -0.799895 0
M  V30 5212 C 483.746 -5.12126 -0.472334 0
M  V30 5213 N 481.728 -6.139 -0.00595299 0
M  V30 5214 C 483.099 -6.1972 0.18616 0
M  V30 5215 C 485.154 -4.96426 -0.382854 0
M  V30 5216 C 483.857 -7.13321 0.925542 0
M  V30 5217 C 485.883 -5.90405 0.342999 0
M  V30 5218 C 485.245 -6.97407 0.990128 0
M  V30 5219 H 481.344 -0.705852 -0.336597 0
M  V30 5220 H 483.928 -1.93157 -0.244615 0
M  V30 5221 H 482.099 -2.91753 -2.56388 0
M  V30 5222 H 483.831 -3.16212 -2.5257 0
M  V30 5223 H 480.586 -4.60365 -1.11181 0
M  V30 5224 H 481.01 -6.75938 0.379127 0
M  V30 5225 H 485.652 -4.13777 -0.868834 0
M  V30 5226 H 483.37 -7.9547 1.42312 0
M  V30 5227 H 486.956 -5.80333 0.412907 0
M  V30 5228 H 485.836 -7.68874 1.54282 0
M  V30 5229 N 483.339 0.512053 -1.4905 0
M  V30 5230 C 484.287 1.63568 -1.65373 0
M  V30 5231 C 485.281 1.61228 -0.519806 0
M  V30 5232 O 486.487 1.65869 -0.699101 0
M  V30 5233 H 482.862 0.542019 -0.521267 0
M  V30 5234 H 484.833 1.4695 -2.59708 0
M  V30 5235 C 483.582 3.01761 -1.7273 0
M  V30 5236 H 482.905 3.04263 -2.59353 0
M  V30 5237 H 484.345 3.79948 -1.8819 0
M  V30 5238 C 482.804 3.33609 -0.46973 0
M  V30 5239 O 483.334 3.99607 0.409492 0
M  V30 5240 N 481.54 2.88651 -0.336003 0
M  V30 5241 H 481.087 2.35119 -1.05247 0
M  V30 5242 H 481.045 3.10328 0.504363 0
M  V30 5243 N 484.817 1.37938 0.762283 0
M  V30 5244 C 486.228 1.30094 1.33912 0
M  V30 5245 C 486.579 -0.0472026 1.96143 0
M  V30 5246 O 485.704 -0.94917 1.94473 0
M  V30 5247 C 486.299 2.35592 2.43478 0
M  V30 5248 C 484.858 2.31353 2.96905 0
M  V30 5249 C 484.005 2.18919 1.70205 0
M  V30 5250 H 486.956 1.48423 0.561816 0
M  V30 5251 H 486.977 2.00806 3.23199 0
M  V30 5252 H 486.489 3.33701 1.98155 0
M  V30 5253 H 484.59 1.36799 3.46579 0
M  V30 5254 H 484.703 3.25147 3.51875 0
M  V30 5255 H 483.067 1.65624 1.93496 0
M  V30 5256 H 483.85 3.18956 1.26973 0
M  V30 5257 N 486.295 -0.989507 1.22664 0
M  V30 5258 C 487.711 -1.25395 0.987331 0
M  V30 5259 C 487.911 -1.9899 -0.317056 0
M  V30 5260 O 486.967 -2.30141 -1.03882 0
M  V30 5261 C 488.28 -2.06242 2.18826 0
M  V30 5262 C 489.828 -2.19413 2.23219 0
M  V30 5263 C 490.303 -3.03648 3.42873 0
M  V30 5264 N 491.794 -3.11234 3.43056 0
M  V30 5265 C 492.529 -3.7671 4.32293 0
M  V30 5266 N 492.025 -4.44085 5.31752 0
M  V30 5267 N 493.818 -3.73505 4.2006 0
M  V30 5268 H 485.969 -0.496212 2.06522 0
M  V30 5269 H 488.232 -0.281784 0.905153 0
M  V30 5270 H 487.938 -1.59531 3.13437 0
M  V30 5271 H 487.812 -3.06996 2.19165 0
M  V30 5272 H 490.199 -2.65336 1.29154 0
M  V30 5273 H 490.28 -1.18078 2.26917 0
M  V30 5274 H 489.924 -2.58424 4.37241 0
M  V30 5275 H 489.854 -4.05132 3.36416 0
M  V30 5276 H 492.345 -2.63287 2.71088 0
M  V30 5277 H 492.658 -4.91797 5.96117 0
M  V30 5278 H 491.003 -4.42822 5.35662 0
M  V30 5279 H 494.194 -3.20033 3.41609 0
M  V30 5280 H 494.367 -4.24253 4.8981 0
M  V30 5281 N 487.773 -1.03688 -1.18687 0
M  V30 5282 C 488.723 -0.595067 -2.20098 0
M  V30 5283 C 489.707 0.360465 -1.5681 0
M  V30 5284 O 490.899 0.180136 -1.76081 0
M  V30 5285 C 488.028 0.0444495 -3.43271 0
M  V30 5286 C 487.114 -0.934002 -4.13687 0
M  V30 5287 N 487.505 -2.09957 -4.60165 0
M  V30 5288 C 485.803 -0.759177 -4.39491 0
M  V30 5289 C 486.504 -2.71735 -5.1433 0
M  V30 5290 N 485.48 -1.99638 -5.05614 0
M  V30 5291 H 489.282 -1.48336 -2.5372 0
M  V30 5292 H 486.796 -0.904949 -1.3485 0
M  V30 5293 H 488.793 0.37864 -4.15177 0
M  V30 5294 H 487.453 0.928325 -3.11147 0
M  V30 5295 H 488.464 -2.47863 -4.54735 0
M  V30 5296 H 485.141 0.0749292 -4.17433 0
M  V30 5297 H 486.531 -3.70492 -5.60523 0
M  V30 5298 N 489.251 1.34841 -0.815825 0
M  V30 5299 C 490.491 2.00321 -0.406297 0
M  V30 5300 C 490.855 1.63293 1.00992 0
M  V30 5301 O 492.056 2.21563 1.52195 0
M  V30 5302 C 490.327 3.52421 -0.594469 0
M  V30 5303 S 491.886 4.37926 -0.276735 0
M  V30 5304 H 488.704 0.694155 -0.153848 0
M  V30 5305 H 491.306 1.64263 -1.06009 0
M  V30 5306 H 490.01 3.76858 -1.625 0
M  V30 5307 H 489.541 3.9333 0.0743157 0
M  V30 5308 H 491.556 4.87743 0.912215 0
M  V30 5309 N 490.729 0.570148 1.46925 0
M  V30 5310 C 491.978 0.0487352 2.01641 0
M  V30 5311 C 492.291 -1.31433 1.44861 0
M  V30 5312 O 493.497 -1.92638 1.91318 0
M  V30 5313 C 491.953 0.0365817 3.59881 0
M  V30 5314 C 491.561 1.39719 4.25655 0
M  V30 5315 C 493.305 -0.431545 4.22301 0
M  V30 5316 C 491.212 1.34345 5.75939 0
M  V30 5317 H 490.142 0.0144492 0.753862 0
M  V30 5318 H 492.793 0.719928 1.68788 0
M  V30 5319 H 491.175 -0.700522 3.89755 0
M  V30 5320 H 492.349 2.15303 4.07408 0
M  V30 5321 H 490.664 1.80431 3.75278 0
M  V30 5322 H 493.261 -0.490354 5.32447 0
M  V30 5323 H 493.604 -1.44638 3.90366 0
M  V30 5324 H 494.137 0.251102 3.97007 0
M  V30 5325 H 490.876 2.33469 6.12513 0
M  V30 5326 H 490.396 0.629615 5.96486 0
M  V30 5327 H 492.075 1.051 6.38407 0
M  V30 5328 N 492.207 -1.54576 0.307264 0
M  V30 5329 C 493.139 -2.21212 -0.599807 0
M  V30 5330 C 494.152 -1.20685 -1.09266 0
M  V30 5331 O 495.341 -1.47244 -1.00903 0
M  V30 5332 C 492.441 -2.84994 -1.83389 0
M  V30 5333 C 491.614 -4.11511 -1.48248 0
M  V30 5334 C 490.673 -4.59038 -2.57237 0
M  V30 5335 O 489.699 -5.24095 -2.22065 0
M  V30 5336 N 490.901 -4.31884 -3.87887 0
M  V30 5337 H 493.666 -2.99686 -0.0293075 0
M  V30 5338 H 491.227 -1.61379 0.129738 0
M  V30 5339 H 493.219 -3.1372 -2.5566 0
M  V30 5340 H 491.789 -2.10324 -2.31263 0
M  V30 5341 H 491.009 -3.89728 -0.592122 0
M  V30 5342 H 492.297 -4.93879 -1.22316 0
M  V30 5343 H 491.695 -3.79778 -4.19268 0
M  V30 5344 H 490.252 -4.65304 -4.56438 0
M  V30 5345 N 493.685 -0.035106 -1.57561 0
M  V30 5346 C 494.962 0.681212 -1.83354 0
M  V30 5347 C 495.342 1.89986 -0.920252 0
M  V30 5348 O 494.69 2.28489 0.0226815 0
M  V30 5349 C 494.9 1.05376 -3.32712 0
M  V30 5350 C 496.248 1.44286 -3.99333 0
M  V30 5351 O 497.272 1.14656 -3.37242 0
M  V30 5352 O 496.131 1.99518 -5.08778 0
M  V30 5353 H 493.225 0.334741 -0.756226 0
M  V30 5354 H 495.771 -0.0632448 -1.69582 0
M  V30 5355 H 494.543 0.186668 -3.90854 0
M  V30 5356 H 494.166 1.85619 -3.51613 0
M  V30 5357 N 495.163 1.55791 0.238111 0
M  V30 5358 C 496.126 1.90239 1.27835 0
M  V30 5359 C 497.126 0.779552 1.4064 0
M  V30 5360 O 498.316 1.04747 1.3919 0
M  V30 5361 C 495.448 2.13859 2.65475 0
M  V30 5362 H 496.641 2.83262 0.985034 0
M  V30 5363 H 494.194 1.48818 0.477799 0
M  V30 5364 H 494.929 1.23334 2.99932 0
M  V30 5365 H 494.714 2.95643 2.57561 0
M  V30 5366 H 496.204 2.41664 3.40571 0
M  V30 5367 N 496.642 -0.504142 1.49319 0
M  V30 5368 C 497.867 -1.28729 1.62615 0
M  V30 5369 C 498.292 -1.85752 0.296309 0
M  V30 5370 O 497.65 -1.65704 -0.735649 0
M  V30 5371 C 497.698 -2.39561 2.69524 0
M  V30 5372 O 496.802 -3.43324 2.28478 0
M  V30 5373 H 496.143 -0.380172 0.544395 0
M  V30 5374 H 498.673 -0.603872 1.95485 0
M  V30 5375 H 498.683 -2.8537 2.91595 0
M  V30 5376 H 497.358 -1.97423 3.66056 0
M  V30 5377 H 495.935 -3.03455 2.16725 0
M  V30 5378 N 498.12 -1.38341 -0.754957 0
M  V30 5379 C 499.067 -1.3546 -1.86867 0
M  V30 5380 C 500.037 -0.217369 -1.64672 0
M  V30 5381 O 501.222 -0.409383 -1.86356 0
M  V30 5382 C 498.362 -1.18413 -3.24149 0
M  V30 5383 C 497.475 -2.41511 -3.58185 0
M  V30 5384 C 496.61 -2.17205 -4.84763 0
M  V30 5385 C 495.649 -3.36081 -5.11582 0
M  V30 5386 N 494.786 -3.11219 -6.29354 0
M  V30 5387 H 499.626 -2.30672 -1.88664 0
M  V30 5388 H 497.163 -1.14607 -0.922154 0
M  V30 5389 H 499.121 -1.06545 -4.03366 0
M  V30 5390 H 497.751 -0.268397 -3.21682 0
M  V30 5391 H 496.803 -2.64056 -2.73822 0
M  V30 5392 H 498.115 -3.30115 -3.73932 0
M  V30 5393 H 497.269 -2.02465 -5.7192 0
M  V30 5394 H 496.008 -1.25964 -4.71152 0
M  V30 5395 H 495.013 -3.51341 -4.22894 0
M  V30 5396 H 496.238 -4.28196 -5.27091 0
M  V30 5397 H 494.184 -2.22624 -6.17069 0
M  V30 5398 H 494.101 -3.93373 -6.45596 0
M  V30 5399 H 495.369 -3.00132 -7.19403 0
M  V30 5400 N 499.598 0.982988 -1.23187 0
M  V30 5401 C 500.846 1.72052 -1.06031 0
M  V30 5402 C 501.167 1.90769 0.404019 0
M  V30 5403 O 500.437 1.47446 1.28982 0
M  V30 5404 H 499.017 0.637499 -0.389363 0
M  V30 5405 H 501.679 1.18338 -1.54862 0
M  V30 5406 H 500.775 2.7111 -1.54615 0
M  V30 5407 N 501.076 1.04316 1.18135 0
M  V30 5408 C 502.301 0.768047 1.92655 0
M  V30 5409 C 502.726 -0.66904 1.758 0
M  V30 5410 O 502.084 -1.46372 1.06981 0
M  V30 5411 C 502.132 1.14239 3.42026 0
M  V30 5412 O 501.236 0.269333 4.1152 0
M  V30 5413 H 500.577 0.282436 0.600937 0
M  V30 5414 H 503.107 1.39367 1.49793 0
M  V30 5415 H 503.117 1.10538 3.92741 0
M  V30 5416 H 501.792 2.18928 3.53615 0
M  V30 5417 H 500.369 0.366175 3.71098 0
M  V30 5418 N 502.554 -1.34406 0.822964 0
M  V30 5419 C 503.504 -2.26963 0.217208 0
M  V30 5420 C 504.488 -1.48536 -0.618545 0
M  V30 5421 O 505.68 -1.7056 -0.473118 0
M  V30 5422 C 502.809 -3.37655 -0.619973 0
M  V30 5423 C 501.895 -4.23495 0.226411 0
M  V30 5424 N 502.286 -4.88876 1.29744 0
M  V30 5425 C 500.584 -4.45999 0.0107554 0
M  V30 5426 C 501.285 -5.52642 1.81553 0
M  V30 5427 N 500.261 -5.31949 1.11942 0
M  V30 5428 H 504.063 -2.75017 1.03647 0
M  V30 5429 H 501.577 -1.48126 0.665777 0
M  V30 5430 H 503.574 -4.02932 -1.07011 0
M  V30 5431 H 502.234 -2.91151 -1.43739 0
M  V30 5432 H 503.245 -4.89886 1.68024 0
M  V30 5433 H 499.922 -4.10253 -0.774495 0
M  V30 5434 H 501.312 -6.14755 2.71156 0
M  V30 5435 N 504.032 -0.577932 -1.46621 0
M  V30 5436 C 504.995 0.147805 -2.28723 0
M  V30 5437 C 505.995 0.823325 -1.38123 0
M  V30 5438 O 507.185 0.676011 -1.60548 0
M  V30 5439 C 504.317 1.21853 -3.18378 0
M  V30 5440 H 505.51 -0.573654 -2.94362 0
M  V30 5441 H 503.063 -0.335703 -1.52652 0
M  V30 5442 H 503.798 1.97173 -2.57475 0
M  V30 5443 H 503.583 0.738714 -3.85078 0
M  V30 5444 H 505.073 1.72768 -3.80186 0
M  V30 5445 N 505.51 1.54411 -0.315457 0
M  V30 5446 C 506.42 2.27737 0.56329 0
M  V30 5447 C 507.436 1.31787 1.13614 0
M  V30 5448 O 508.612 1.64791 1.15784 0
M  V30 5449 C 505.677 3.01478 1.71207 0
M  V30 5450 C 504.738 4.12997 1.17185 0
M  V30 5451 C 503.971 4.83212 2.26588 0
M  V30 5452 O 504.194 4.52884 3.46775 0
M  V30 5453 O 503.128 5.70299 1.92463 0
M  V30 5454 H 506.954 3.03683 -0.0319614 0
M  V30 5455 H 504.539 1.49178 -0.0814188 0
M  V30 5456 H 506.421 3.47683 2.38106 0
M  V30 5457 H 505.096 2.28414 2.29366 0
M  V30 5458 H 504.003 3.71159 0.468174 0
M  V30 5459 H 505.336 4.8808 0.635501 0
M  V30 5460 N 506.988 0.0434614 1.5754 0
M  V30 5461 C 508.236 -0.630786 1.92004 0
M  V30 5462 C 508.557 -1.71836 0.921807 0
M  V30 5463 O 507.827 -1.9587 -0.034522 0
M  V30 5464 H 506.407 -0.235988 0.708745 0
M  V30 5465 H 509.069 0.0946462 1.9467 0
M  V30 5466 H 508.165 -1.07434 2.93026 0
M  V30 5467 N 508.466 -1.55915 -0.229846 0
M  V30 5468 C 509.396 -1.94754 -1.28815 0
M  V30 5469 C 510.377 -0.814657 -1.49323 0
M  V30 5470 O 511.562 -1.07631 -1.61645 0
M  V30 5471 C 508.692 -2.25705 -2.63959 0
M  V30 5472 C 507.646 -3.41406 -2.5812 0
M  V30 5473 C 506.972 -3.57941 -3.97218 0
M  V30 5474 C 508.272 -4.76616 -2.13623 0
M  V30 5475 H 509.966 -2.83404 -0.965547 0
M  V30 5476 H 507.512 -1.36353 -0.463028 0
M  V30 5477 H 509.465 -2.51467 -3.38146 0
M  V30 5478 H 508.189 -1.339 -2.9789 0
M  V30 5479 H 506.848 -3.1568 -1.86391 0
M  V30 5480 H 506.496 -2.63526 -4.28443 0
M  V30 5481 H 506.196 -4.35757 -3.94195 0
M  V30 5482 H 507.72 -3.86042 -4.73079 0
M  V30 5483 H 509.134 -5.01637 -2.77549 0
M  V30 5484 H 507.531 -5.57655 -2.21677 0
M  V30 5485 H 508.601 -4.7253 -1.08829 0
M  V30 5486 N 509.944 0.496216 -1.49584 0
M  V30 5487 C 510.876 1.61404 -1.62731 0
M  V30 5488 C 511.889 1.54613 -0.50978 0
M  V30 5489 O 513.078 1.60458 -0.782017 0
M  V30 5490 C 510.178 3.00212 -1.57245 0
M  V30 5491 C 509.351 3.32138 -2.84611 0
M  V30 5492 C 508.41 4.5038 -2.72112 0
M  V30 5493 O 507.436 4.51926 -3.46051 0
M  V30 5494 N 508.638 5.50575 -1.83977 0
M  V30 5495 H 511.403 1.50552 -2.59141 0
M  V30 5496 H 508.964 0.684182 -1.46733 0
M  V30 5497 H 510.956 3.77241 -1.4653 0
M  V30 5498 H 509.526 3.04964 -0.686729 0
M  V30 5499 H 508.746 2.4396 -3.09641 0
M  V30 5500 H 510.034 3.50268 -3.69039 0
M  V30 5501 H 509.432 5.52128 -1.23171 0
M  V30 5502 H 507.989 6.26687 -1.79182 0
M  V30 5503 N 511.423 1.38739 0.74761 0
M  V30 5504 C 512.648 1.38702 1.54197 0
M  V30 5505 C 513.073 -0.019664 1.8809 0
M  V30 5506 O 512.431 -1.00333 1.51006 0
M  V30 5507 C 512.479 2.25492 2.814 0
M  V30 5508 O 511.583 1.67613 3.76802 0
M  V30 5509 H 510.924 0.472863 0.466151 0
M  V30 5510 H 513.454 1.82577 0.923413 0
M  V30 5511 H 513.464 2.39561 3.30264 0
M  V30 5512 H 512.139 3.27727 2.56062 0
M  V30 5513 H 510.716 1.62718 3.35526 0
M  V30 5514 N 512.901 -0.976442 1.23707 0
M  V30 5515 C 514.312 -1.53284 1.06587 0
M  V30 5516 C 514.663 -1.92765 -0.365526 0
M  V30 5517 O 513.788 -1.7645 -1.25277 0
M  V30 5518 C 514.383 -2.78548 1.92864 0
M  V30 5519 C 512.942 -3.30574 1.79994 0
M  V30 5520 C 512.089 -2.03538 1.88328 0
M  V30 5521 H 515.04 -0.795692 1.37311 0
M  V30 5522 H 515.061 -3.5155 1.45577 0
M  V30 5523 H 514.573 -2.49782 2.97037 0
M  V30 5524 H 512.674 -3.64211 0.786202 0
M  V30 5525 H 512.787 -4.00065 2.636 0
M  V30 5526 H 511.151 -2.17853 1.31954 0
M  V30 5527 H 511.934 -1.77149 2.94063 0
M  V30 5528 N 514.379 -1.04941 -1.1758 0
M  V30 5529 C 515.342 -0.652456 -2.19717 0
M  V30 5530 C 516.342 0.294745 -1.58076 0
M  V30 5531 O 517.532 0.0789579 -1.74021 0
M  V30 5532 C 514.664 0.0420712 -3.40874 0
M  V30 5533 H 515.857 -1.55642 -2.5635 0
M  V30 5534 H 513.41 -0.842995 -1.31618 0
M  V30 5535 H 514.145 0.95943 -3.09783 0
M  V30 5536 H 513.93 -0.638844 -3.86861 0
M  V30 5537 H 515.42 0.306 -4.16477 0
M  V30 5538 N 515.857 1.33968 -0.830081 0
M  V30 5539 C 517.268 1.80439 -0.479455 0
M  V30 5540 C 517.619 1.68756 1.00079 0
M  V30 5541 O 516.744 1.23171 1.77927 0
M  V30 5542 C 517.339 3.27611 -0.863505 0
M  V30 5543 C 515.898 3.72133 -0.565145 0
M  V30 5544 C 515.045 2.55549 -1.07657 0
M  V30 5545 H 517.996 1.21614 -1.0196 0
M  V30 5546 H 518.017 3.8012 -0.170083 0
M  V30 5547 H 517.529 3.36082 -1.94089 0
M  V30 5548 H 515.63 3.69196 0.502536 0
M  V30 5549 H 515.743 4.65963 -1.11422 0
M  V30 5550 H 514.107 2.49788 -0.497807 0
M  V30 5551 H 514.89 2.66786 -2.16055 0
M  V30 5552 N 517.335 0.585699 1.46312 0
M  V30 5553 C 518.746 0.159938 1.86014 0
M  V30 5554 C 519.097 -1.27775 1.48889 0
M  V30 5555 O 518.222 -1.96559 0.90519 0
M  V30 5556 C 518.817 0.283485 3.37612 0
M  V30 5557 C 517.376 -0.0874256 3.76298 0
M  V30 5558 C 516.523 0.618055 2.70325 0
M  V30 5559 H 519.474 0.793737 1.37425 0
M  V30 5560 H 519.495 -0.490348 3.77327 0
M  V30 5561 H 519.007 1.32995 3.64601 0
M  V30 5562 H 517.108 -1.13391 3.54927 0
M  V30 5563 H 517.221 0.290975 4.78216 0
M  V30 5564 H 515.585 0.057993 2.54634 0
M  V30 5565 H 516.368 1.66623 3.00153 0
M  V30 5566 N 518.813 -1.54241 0.323641 0
M  V30 5567 C 520.062 -1.9975 -0.279806 0
M  V30 5568 C 520.375 -1.2156 -1.5324 0
M  V30 5569 O 521.581 -1.57447 -2.21185 0
M  V30 5570 C 520.037 -3.55686 -0.549115 0
M  V30 5571 C 519.645 -4.4271 0.686432 0
M  V30 5572 C 521.389 -4.09663 -1.11251 0
M  V30 5573 C 519.296 -5.90119 0.389022 0
M  V30 5574 H 518.226 -0.746177 -0.10833 0
M  V30 5575 H 520.877 -1.78248 0.435877 0
M  V30 5576 H 519.259 -3.73176 -1.32499 0
M  V30 5577 H 520.433 -4.36996 1.46188 0
M  V30 5578 H 518.748 -3.99623 1.17005 0
M  V30 5579 H 521.345 -5.17386 -1.34965 0
M  V30 5580 H 521.688 -3.61651 -2.06191 0
M  V30 5581 H 522.221 -3.95806 -0.39782 0
M  V30 5582 H 518.96 -6.42326 1.30759 0
M  V30 5583 H 518.48 -5.98785 -0.348722 0
M  V30 5584 H 520.159 -6.47 -0.0011164 0
M  V30 5585 N 520.291 -0.0518155 -1.57515 0
M  V30 5586 C 521.54 0.621286 -1.91893 0
M  V30 5587 C 521.853 1.71966 -0.932052 0
M  V30 5588 O 523.059 2.45096 -1.16791 0
M  V30 5589 C 521.515 1.15641 -3.40816 0
M  V30 5590 C 521.123 0.0901146 -4.47909 0
M  V30 5591 C 522.867 1.80472 -3.84227 0
M  V30 5592 C 520.774 0.638154 -5.87947 0
M  V30 5593 H 519.704 0.235835 -0.716169 0
M  V30 5594 H 522.355 -0.120809 -1.83102 0
M  V30 5595 H 520.737 1.95084 -3.44613 0
M  V30 5596 H 521.911 -0.683525 -4.55702 0
M  V30 5597 H 520.226 -0.460774 -4.13843 0
M  V30 5598 H 522.823 2.22471 -4.86221 0
M  V30 5599 H 523.166 2.65669 -3.20508 0
M  V30 5600 H 523.699 1.07683 -3.82948 0
M  V30 5601 H 520.438 -0.176202 -6.55263 0
M  V30 5602 H 519.958 1.37976 -5.83714 0
M  V30 5603 H 521.637 1.12085 -6.37217 0
M  V30 5604 N 521.769 1.56035 0.221574 0
M  V30 5605 C 523.017 1.78693 0.944102 0
M  V30 5606 C 523.338 0.620317 1.8487 0
M  V30 5607 O 522.608 -0.362784 1.92512 0
M  V30 5608 H 521.188 0.659082 0.351597 0
M  V30 5609 H 523.85 1.93497 0.233435 0
M  V30 5610 H 522.946 2.70837 1.55093 0
M  V30 5611 N 523.247 -0.488276 1.49845 0
M  V30 5612 C 524.493 -1.24341 1.6021 0
M  V30 5613 C 524.826 -1.91967 0.293651 0
M  V30 5614 O 524.101 -1.81323 -0.703718 0
M  V30 5615 C 524.384 -2.3005 2.77036 0
M  V30 5616 C 524.237 -1.66842 4.17713 0
M  V30 5617 C 525.556 -3.31509 2.89464 0
M  V30 5618 H 522.675 -0.450704 0.583125 0
M  V30 5619 H 525.317 -0.539673 1.82174 0
M  V30 5620 H 523.467 -2.90071 2.58439 0
M  V30 5621 H 525.139 -1.1055 4.47858 0
M  V30 5622 H 523.382 -0.972079 4.22768 0
M  V30 5623 H 524.053 -2.43576 4.95353 0
M  V30 5624 H 526.529 -2.81493 3.06433 0
M  V30 5625 H 525.405 -4.02822 3.72861 0
M  V30 5626 H 525.666 -3.94603 1.99351 0
M  V30 5627 N 524.725 -1.39134 -0.740242 0
M  V30 5628 C 525.657 -1.33332 -1.86428 0
M  V30 5629 C 526.67 -0.243042 -1.60976 0
M  V30 5630 O 527.859 -0.501608 -1.71307 0
M  V30 5631 C 524.959 -1.04626 -3.22346 0
M  V30 5632 C 524.132 -2.24826 -3.75196 0
M  V30 5633 C 523.191 -1.92659 -4.89662 0
M  V30 5634 O 522.217 -2.6529 -5.03597 0
M  V30 5635 N 523.419 -0.889575 -5.73643 0
M  V30 5636 H 526.184 -2.30196 -1.91911 0
M  V30 5637 H 523.745 -1.33168 -0.920756 0
M  V30 5638 H 525.737 -0.811347 -3.96484 0
M  V30 5639 H 524.307 -0.165129 -3.12164 0
M  V30 5640 H 523.527 -2.64301 -2.9247 0
M  V30 5641 H 524.815 -3.05015 -4.07239 0
M  V30 5642 H 524.213 -0.287529 -5.64969 0
M  V30 5643 H 522.77 -0.714557 -6.47871 0
M  V30 5644 N 526.204 0.969867 -1.24223 0
M  V30 5645 C 527.154 2.04913 -0.999732 0
M  V30 5646 C 528.138 1.60795 0.0580636 0
M  V30 5647 O 529.33 1.76317 -0.155392 0
M  V30 5648 C 526.459 3.37942 -0.604154 0
M  V30 5649 C 525.545 3.88628 -1.69791 0
M  V30 5650 N 525.936 4.12274 -2.93025 0
M  V30 5651 C 524.234 4.17268 -1.57492 0
M  V30 5652 C 524.935 4.53808 -3.63914 0
M  V30 5653 N 523.911 4.58855 -2.91468 0
M  V30 5654 H 527.713 2.21168 -1.93551 0
M  V30 5655 H 525.227 1.15349 -1.14317 0
M  V30 5656 H 527.224 4.14863 -0.411665 0
M  V30 5657 H 525.884 3.23075 0.324465 0
M  V30 5658 H 526.895 3.99789 -3.29225 0
M  V30 5659 H 523.572 4.11346 -0.714175 0
M  V30 5660 H 524.962 4.80534 -4.69614 0
M  V30 5661 N 527.682 1.05563 1.17022 0
M  V30 5662 C 528.614 0.617888 2.20714 0
M  V30 5663 C 529.627 -0.320303 1.59618 0
M  V30 5664 O 530.816 -0.112449 1.78145 0
M  V30 5665 C 527.916 -0.115333 3.38704 0
M  V30 5666 C 527.089 0.834493 4.29366 0
M  V30 5667 C 526.148 0.141855 5.26009 0
M  V30 5668 O 525.174 0.777151 5.6387 0
M  V30 5669 N 526.376 -1.11934 5.69606 0
M  V30 5670 H 529.141 1.50981 2.58892 0
M  V30 5671 H 526.702 0.938008 1.31958 0
M  V30 5672 H 528.694 -0.588918 4.00392 0
M  V30 5673 H 527.264 -0.908967 2.99093 0
M  V30 5674 H 526.484 1.48762 3.65053 0
M  V30 5675 H 527.772 1.4791 4.86827 0
M  V30 5676 H 527.17 -1.65574 5.40927 0
M  V30 5677 H 525.727 -1.53692 6.33421 0
M  V30 5678 N 529.16 -1.33526 0.837174 0
M  V30 5679 C 530.123 -2.27551 0.274421 0
M  V30 5680 C 531.123 -1.50886 -0.555881 0
M  V30 5681 O 532.313 -1.70227 -0.369918 0
M  V30 5682 C 529.445 -3.35332 -0.613605 0
M  V30 5683 H 530.638 -2.78837 1.10408 0
M  V30 5684 H 528.191 -1.439 0.610126 0
M  V30 5685 H 528.926 -2.89285 -1.46577 0
M  V30 5686 H 528.711 -3.92095 -0.0195341 0
M  V30 5687 H 530.201 -4.05433 -1.00068 0
M  V30 5688 N 530.638 -0.59345 -1.46 0
M  V30 5689 C 531.915 -0.0157933 -1.95594 0
M  V30 5690 C 532.295 1.44807 -1.53604 0
M  V30 5691 O 531.643 2.14342 -0.791824 0
M  V30 5692 C 531.853 -0.199081 -3.48432 0
M  V30 5693 C 533.201 -0.0724943 -4.24538 0
M  V30 5694 O 534.225 -0.128469 -3.55968 0
M  V30 5695 O 533.084 0.0542426 -5.46473 0
M  V30 5696 H 530.178 0.043749 -0.825842 0
M  V30 5697 H 532.724 -0.662522 -1.56233 0
M  V30 5698 H 531.496 -1.21631 -3.71916 0
M  V30 5699 H 531.119 0.483576 -3.94648 0
M  V30 5700 N 532.116 1.54067 -0.331816 0
M  V30 5701 C 533.079 2.23275 0.517768 0
M  V30 5702 C 534.079 1.22897 1.03697 0
M  V30 5703 O 535.269 1.47419 0.928084 0
M  V30 5704 C 532.401 2.94326 1.72004 0
M  V30 5705 H 533.594 2.99773 -0.0873507 0
M  V30 5706 H 531.147 1.56079 -0.0830042 0
M  V30 5707 H 531.882 2.21986 2.36417 0
M  V30 5708 H 531.667 3.67941 1.35507 0
M  V30 5709 H 533.157 3.47031 2.32291 0
M  V30 5710 N 533.594 0.0601682 1.57485 0
M  V30 5711 C 534.524 -0.90889 2.15085 0
M  V30 5712 C 535.505 -1.31838 1.07484 0
M  V30 5713 O 536.69 -1.3915 1.35466 0
M  V30 5714 C 533.82 -2.18059 2.7031 0
M  V30 5715 C 532.774 -1.91088 3.82974 0
M  V30 5716 C 532.1 -3.24789 4.24754 0
M  V30 5717 C 533.4 -1.22535 5.07723 0
M  V30 5718 H 535.094 -0.429093 2.96309 0
M  V30 5719 H 532.64 -0.204952 1.42534 0
M  V30 5720 H 534.593 -2.86258 3.09248 0
M  V30 5721 H 533.317 -2.6826 1.8629 0
M  V30 5722 H 531.976 -1.25297 3.44523 0
M  V30 5723 H 531.624 -3.72809 3.37672 0
M  V30 5724 H 531.324 -3.07538 5.00694 0
M  V30 5725 H 532.848 -3.94205 4.66299 0
M  V30 5726 H 534.262 -1.80783 5.4405 0
M  V30 5727 H 532.659 -1.1558 5.88864 0
M  V30 5728 H 533.729 -0.202692 4.84476 0
M  V30 5729 O 535.111 -1.61298 -0.0807432 0
M  V30 5730 H 535.802 -1.80309 -0.707697 0
M  V30 END ATOM
M  V30 BEGIN BOND
M  V30 END BOND
M  V30 END CTAB
M  END
$$$$
