drugbank_target|P9WGY3 Putative 4-hydroxy-4-methyl-2-oxoglutarate aldolase (DB04343)
 OpenBabel12092119583D

  0  0  0     0  0            999 V3000
M  V30 BEGIN CTAB
M  V30 COUNTS 2293 2309 0 0 0
M  V30 BEGIN ATOM
M  V30 1 H -0.908 1.98254 -0.117106 0
M  V30 2 N 0 1.576 0 0
M  V30 3 C 0.933 2.03868 1.02534 0
M  V30 4 C 1.911 0.928543 1.3348 0
M  V30 5 O 3.095 1.19667 1.45644 0
M  V30 6 C 0.222 2.43627 2.35294 0
M  V30 7 C -0.732 3.65373 2.2001 0
M  V30 8 S 0.101 5.13292 1.52614 0
M  V30 9 C 1.257 5.56322 2.86805 0
M  V30 10 H 1.49 2.90518 0.631377 0
M  V30 11 H -0.977 1.52953 0.210867 0
M  V30 12 H 0.981 2.67203 3.11629 0
M  V30 13 H -0.358 1.57376 2.7183 0
M  V30 14 H -1.165 3.90944 3.18086 0
M  V30 15 H -1.563 3.418 1.51819 0
M  V30 16 H 0.729 5.58782 3.83104 0
M  V30 17 H 1.672 6.56266 2.65933 0
M  V30 18 H 2.08 4.83886 2.90714 0
M  V30 19 N 1.4781 -0.272755 1.55222 0
M  V30 20 C 2.4411 -1.32041 1.87344 0
M  V30 21 C 3.4411 -1.42342 0.74803 0
M  V30 22 O 4.6311 -1.41488 1.0162 0
M  V30 23 C 1.7631 -2.70173 2.07893 0
M  V30 24 H 2.9561 -1.04789 2.80997 0
M  V30 25 H 0.5091 -0.51083 1.47717 0
M  V30 26 H 1.2441 -3.02605 1.16622 0
M  V30 27 H 1.0291 -2.64082 2.89833 0
M  V30 28 H 2.5191 -3.45869 2.34017 0
M  V30 29 N 2.9562 -1.48159 -0.537278 0
M  V30 30 C 4.2052 -1.5506 -1.28993 0
M  V30 31 C 4.5182 -0.226211 -1.94288 0
M  V30 32 O 5.7242 -0.173395 -2.70946 0
M  V30 33 C 4.1802 -2.73429 -2.34018 0
M  V30 34 C 3.7882 -4.1248 -1.74825 0
M  V30 35 C 5.5322 -2.89638 -3.10339 0
M  V30 36 C 3.4392 -5.22121 -2.77747 0
M  V30 37 H 2.3692 -0.577231 -0.485098 0
M  V30 38 H 5.0202 -1.74478 -0.568317 0
M  V30 39 H 3.4022 -2.47431 -3.09182 0
M  V30 40 H 4.5762 -4.48466 -1.05899 0
M  V30 41 H 2.8912 -4.01327 -1.11022 0
M  V30 42 H 5.4882 -3.68718 -3.87235 0
M  V30 43 H 5.8312 -1.9882 -3.65754 0
M  V30 44 H 6.3642 -3.15502 -2.42288 0
M  V30 45 H 3.1032 -6.1488 -2.27161 0
M  V30 46 H 2.6232 -4.90631 -3.45024 0
M  V30 47 H 4.3022 -5.49924 -3.4087 0
M  V30 48 N 4.4343 0.785586 -1.36625 0
M  V30 49 C 5.6593 1.57963 -1.34397 0
M  V30 50 C 6.0843 1.87964 0.071526 0
M  V30 51 O 5.4423 1.48182 1.0446 0
M  V30 52 C 5.4903 2.87511 -2.17646 0
M  V30 53 O 4.5943 3.81281 -1.57158 0
M  V30 54 H 3.9353 0.479014 -0.459828 0
M  V30 55 H 6.4653 0.973411 -1.79961 0
M  V30 56 H 6.4753 3.36745 -2.30362 0
M  V30 57 H 5.1503 2.65002 -3.20541 0
M  V30 58 H 3.7273 3.39885 -1.53403 0
M  V30 59 N 5.9124 1.20967 1.01018 0
M  V30 60 C 7.1594 1.02374 1.74716 0
M  V30 61 C 7.4874 -0.443375 1.89379 0
M  V30 62 O 6.7424 -1.34535 1.42123 0
M  V30 63 C 7.0414 1.65997 3.16512 0
M  V30 64 C 6.7074 3.15831 3.2181 0
M  V30 65 C 5.3694 3.56719 3.22963 0
M  V30 66 C 7.7214 4.11816 3.19464 0
M  V30 67 C 5.0494 4.92107 3.19449 0
M  V30 68 C 7.4014 5.47158 3.17491 0
M  V30 69 C 6.0654 5.87451 3.16951 0
M  V30 70 H 5.3354 0.374614 0.639332 0
M  V30 71 H 7.9824 1.50485 1.18434 0
M  V30 72 H 6.2874 1.10166 3.75993 0
M  V30 73 H 7.9844 1.49119 3.72242 0
M  V30 74 H 4.5744 2.83263 3.21652 0
M  V30 75 H 8.7584 3.81257 3.17737 0
M  V30 76 H 4.0144 5.22579 3.17366 0
M  V30 77 H 8.1884 6.21274 3.14629 0
M  V30 78 H 5.8154 6.92329 3.13983 0
M  V30 79 N 7.3905 -1.2043 1.01659 0
M  V30 80 C 8.8065 -1.41852 0.731442 0
M  V30 81 C 9.0065 -1.89358 -0.688898 0
M  V30 82 O 8.0625 -2.06247 -1.45666 0
M  V30 83 C 9.3755 -2.44019 1.75714 0
M  V30 84 C 10.9235 -2.57785 1.77527 0
M  V30 85 C 11.3985 -3.63194 2.79023 0
M  V30 86 N 12.8895 -3.70678 2.77763 0
M  V30 87 C 13.6245 -4.51897 3.52954 0
M  V30 88 N 13.1205 -5.36921 4.37821 0
M  V30 89 N 14.9135 -4.4643 3.41551 0
M  V30 90 H 7.0645 -0.879093 1.93354 0
M  V30 91 H 9.3275 -0.448425 0.835236 0
M  V30 92 H 9.0335 -2.1611 2.77469 0
M  V30 93 H 8.9075 -3.43007 1.56927 0
M  V30 94 H 11.2945 -2.85023 0.764569 0
M  V30 95 H 11.3755 -1.58992 2.00387 0
M  V30 96 H 11.0195 -3.36699 3.80258 0
M  V30 97 H 10.9495 -4.61609 2.53425 0
M  V30 98 H 13.4405 -3.09944 2.16201 0
M  V30 99 H 13.7535 -5.95981 4.91962 0
M  V30 100 H 12.0985 -5.36424 4.41899 0
M  V30 101 H 15.2895 -3.79042 2.74672 0
M  V30 102 H 15.4625 -5.09491 4.00404 0
M  V30 103 N 8.8686 -0.792821 -1.36206 0
M  V30 104 C 10.2796 -0.429513 -1.81692 0
M  V30 105 C 10.6306 1.04695 -1.65932 0
M  V30 106 O 9.7556 1.81256 -1.18218 0
M  V30 107 C 10.3506 -0.772831 -3.29868 0
M  V30 108 C 8.9096 -0.462307 -3.7355 0
M  V30 109 C 8.0566 -1.00569 -2.5842 0
M  V30 110 H 11.0076 -0.985672 -1.24379 0
M  V30 111 H 11.0286 -0.0651928 -3.80444 0
M  V30 112 H 10.5406 -1.84747 -3.41307 0
M  V30 113 H 8.6416 0.604158 -3.67669 0
M  V30 114 H 8.7546 -0.985299 -4.68859 0
M  V30 115 H 7.1186 -0.428734 -2.51066 0
M  V30 116 H 7.9016 -2.08616 -2.72643 0
M  V30 117 N 10.3467 1.47872 -0.545128 0
M  V30 118 C 11.5747 2.06889 -0.021084 0
M  V30 119 C 11.9897 1.39955 1.2672 0
M  V30 120 O 11.3467 0.492036 1.75742 0
M  V30 121 C 11.3977 3.60996 0.190817 0
M  V30 122 O 11.1187 4.25419 -1.04644 0
M  V30 123 C 12.6197 4.36849 0.753521 0
M  V30 124 H 9.8397 0.669785 -0.0403635 0
M  V30 125 H 12.3837 1.90049 -0.755095 0
M  V30 126 H 10.5387 3.77391 0.87492 0
M  V30 127 H 10.9527 5.17785 -0.836611 0
M  V30 128 H 12.4267 5.45399 0.851139 0
M  V30 129 H 12.9037 4.02306 1.762 0
M  V30 130 H 13.5097 4.25169 0.105503 0
M  V30 131 N 11.8248 0.280983 1.55075 0
M  V30 132 C 12.7878 -0.590896 2.21452 0
M  V30 133 C 13.7878 -1.07682 1.19421 0
M  V30 134 O 14.9778 -0.97605 1.44288 0
M  V30 135 C 12.1098 -1.81587 2.88511 0
M  V30 136 H 13.3028 -0.0112554 2.99898 0
M  V30 137 H 10.8558 0.0316438 1.56268 0
M  V30 138 H 11.5908 -2.43587 2.14093 0
M  V30 139 H 11.3758 -1.4753 3.63287 0
M  V30 140 H 12.8658 -2.43575 3.39206 0
M  V30 141 N 13.3029 -1.57598 0.00835791 0
M  V30 142 C 14.5799 -1.82172 -0.712235 0
M  V30 143 C 14.9599 -0.887873 -1.9152 0
M  V30 144 O 14.3079 0.06146 -2.28417 0
M  V30 145 C 14.5179 -3.30875 -1.11008 0
M  V30 146 C 15.8659 -3.96826 -1.51044 0
M  V30 147 O 16.8899 -3.35248 -1.20364 0
M  V30 148 O 15.7489 -5.05318 -2.08125 0
M  V30 149 H 12.8429 -0.750435 -0.347529 0
M  V30 150 H 15.3889 -1.69665 0.0344523 0
M  V30 151 H 14.1609 -3.90481 -0.252982 0
M  V30 152 H 13.7839 -3.48412 -1.9156 0
M  V30 153 N 14.781 0.264519 -1.55364 0
M  V30 154 C 15.711 1.33121 -1.91836 0
M  V30 155 C 16.692 1.51101 -0.781192 0
M  V30 156 O 17.877 1.64003 -1.04003 0
M  V30 157 C 15.007 2.68921 -2.19769 0
M  V30 158 C 13.961 2.65661 -3.35571 0
M  V30 159 C 13.287 4.05093 -3.49004 0
M  V30 160 C 14.587 2.24187 -4.71739 0
M  V30 161 H 16.281 1.02844 -2.81182 0
M  V30 162 H 13.827 0.493286 -1.35287 0
M  V30 163 H 15.78 3.43663 -2.43872 0
M  V30 164 H 14.504 3.00799 -1.27231 0
M  V30 165 H 13.163 1.93377 -3.1145 0
M  V30 166 H 12.811 4.34206 -2.53917 0
M  V30 167 H 12.511 4.03804 -4.26868 0
M  V30 168 H 14.035 4.81561 -3.75408 0
M  V30 169 H 15.449 2.88654 -4.9533 0
M  V30 170 H 13.846 2.34044 -5.52579 0
M  V30 171 H 14.916 1.19327 -4.69988 0
M  V30 172 N 16.2591 1.48442 0.529413 0
M  V30 173 C 17.5051 1.5672 1.28711 0
M  V30 174 C 17.8381 0.2406 1.92704 0
M  V30 175 O 17.1131 -0.753454 1.79313 0
M  V30 176 C 17.3961 2.70587 2.37603 0
M  V30 177 C 17.2491 4.12953 1.78297 0
M  V30 178 C 18.5681 2.80212 3.39366 0
M  V30 179 H 15.6871 0.570474 0.466613 0
M  V30 180 H 18.3291 1.80617 0.589706 0
M  V30 181 H 16.4791 2.50342 2.97088 0
M  V30 182 H 18.1511 4.44639 1.22858 0
M  V30 183 H 16.3941 4.19927 1.0883 0
M  V30 184 H 17.0651 4.88448 2.57144 0
M  V30 185 H 19.5411 2.98553 2.89836 0
M  V30 186 H 18.4171 3.61611 4.12951 0
M  V30 187 H 18.6781 1.88393 3.99951 0
M  V30 188 N 17.7372 -0.778329 1.37039 0
M  V30 189 C 19.0142 -1.52551 1.22424 0
M  V30 190 C 19.3942 -2.10288 -0.184964 0
M  V30 191 O 18.7422 -1.94953 -1.19187 0
M  V30 192 C 18.9522 -2.61164 2.31504 0
M  V30 193 C 20.3002 -3.28746 2.68721 0
M  V30 194 O 21.3242 -2.71455 2.30631 0
M  V30 195 O 20.1832 -4.3231 3.3432 0
M  V30 196 H 17.2772 -0.675343 0.477326 0
M  V30 197 H 19.8232 -0.815859 1.48801 0
M  V30 198 H 18.5952 -2.16574 3.25901 0
M  V30 199 H 18.2182 -3.39737 2.06554 0
M  V30 200 N 19.2153 -1.21501 -1.00376 0
M  V30 201 C 20.4923 -0.941745 -1.71437 0
M  V30 202 C 20.8723 0.546114 -2.03914 0
M  V30 203 O 20.2203 1.51128 -1.71384 0
M  V30 204 C 20.4303 -1.82812 -2.97289 0
M  V30 205 C 21.7783 -2.07771 -3.70292 0
M  V30 206 O 22.8023 -1.80171 -3.07273 0
M  V30 207 O 21.6613 -2.54456 -4.83647 0
M  V30 208 H 18.7553 -0.353243 -0.747762 0
M  V30 209 H 21.3013 -1.32436 -1.06108 0
M  V30 210 H 20.0733 -2.83501 -2.69709 0
M  V30 211 H 19.6963 -1.4464 -3.70358 0
M  V30 212 N 20.6934 1.19889 -1.02296 0
M  V30 213 C 21.9424 1.88743 -0.711257 0
M  V30 214 C 22.2554 1.80112 0.762817 0
M  V30 215 O 23.4614 2.44161 1.18733 0
M  V30 216 C 21.9174 3.38525 -1.22185 0
M  V30 217 C 21.5254 3.55727 -2.72328 0
M  V30 218 C 23.2694 4.12893 -0.985864 0
M  V30 219 C 21.1764 4.99369 -3.16835 0
M  V30 220 H 20.1064 0.706885 -0.262353 0
M  V30 221 H 22.7574 1.35586 -1.23648 0
M  V30 222 H 21.1394 3.91044 -0.624571 0
M  V30 223 H 22.3134 3.13564 -3.3766 0
M  V30 224 H 20.6284 2.94739 -2.9414 0
M  V30 225 H 23.2254 5.18813 -1.29374 0
M  V30 226 H 23.5684 4.16228 0.0775055 0
M  V30 227 H 24.1014 3.66494 -1.54684 0
M  V30 228 H 20.8404 5.01193 -4.22476 0
M  V30 229 H 20.3604 5.42317 -2.56228 0
M  V30 230 H 22.0394 5.67988 -3.09837 0
M  V30 231 N 22.1715 0.800033 1.35784 0
M  V30 232 C 23.4195 0.376597 1.9856 0
M  V30 233 C 23.7405 -1.05812 1.63795 0
M  V30 234 O 23.0105 -1.73103 0.917171 0
M  V30 235 H 21.5905 0.136261 0.734467 0
M  V30 236 H 24.2525 1.02442 1.65806 0
M  V30 237 H 23.3485 0.477002 3.08433 0
M  V30 238 N 23.6496 -1.47581 0.552962 0
M  V30 239 C 25.0606 -1.86324 0.118463 0
M  V30 240 C 25.4116 -1.46006 -1.3106 0
M  V30 241 O 24.5366 -0.861182 -1.98526 0
M  V30 242 C 25.1316 -3.3816 0.20821 0
M  V30 243 C 23.6906 -3.7601 -0.171226 0
M  V30 244 C 22.8376 -2.71634 0.557686 0
M  V30 245 H 25.7886 -1.39159 0.762928 0
M  V30 246 H 25.8096 -3.76141 -0.574278 0
M  V30 247 H 25.3216 -3.67473 1.24841 0
M  V30 248 H 23.4226 -3.52313 -1.21269 0
M  V30 249 H 23.5356 -4.78745 0.184379 0
M  V30 250 H 21.8996 -2.547 0.00125792 0
M  V30 251 H 22.6826 -3.0379 1.59896 0
M  V30 252 N 25.1277 -0.289203 -1.54924 0
M  V30 253 C 26.4047 0.376032 -1.91951 0
M  V30 254 C 26.7847 1.72622 -1.21511 0
M  V30 255 O 26.1327 2.25853 -0.346767 0
M  V30 256 C 26.3427 0.502378 -3.45365 0
M  V30 257 C 27.6907 0.778741 -4.17398 0
M  V30 258 O 28.7147 0.586647 -3.51336 0
M  V30 259 O 27.5737 1.14698 -5.34328 0
M  V30 260 H 24.6677 0.208167 -0.800372 0
M  V30 261 H 27.2137 -0.336394 -1.66332 0
M  V30 262 H 25.9857 -0.447255 -3.88736 0
M  V30 263 H 25.6087 1.26373 -3.76982 0
M  V30 264 N 26.6058 1.57591 -0.0167156 0
M  V30 265 C 27.8518 1.91567 0.665582 0
M  V30 266 C 28.1848 0.892298 1.72487 0
M  V30 267 O 27.4598 -0.0867127 1.94307 0
M  V30 268 C 27.7428 3.36069 1.29342 0
M  V30 269 C 27.5958 4.49135 0.244541 0
M  V30 270 C 28.9148 3.803 2.21495 0
M  V30 271 H 26.0338 0.69666 0.240488 0
M  V30 272 H 28.6758 1.89866 -0.0714356 0
M  V30 273 H 26.8258 3.3765 1.92158 0
M  V30 274 H 28.4978 4.59689 -0.385228 0
M  V30 275 H 26.7408 4.3165 -0.431379 0
M  V30 276 H 27.4118 5.47242 0.723207 0
M  V30 277 H 29.8878 3.80377 1.68678 0
M  V30 278 H 28.7638 4.82127 2.62382 0
M  V30 279 H 29.0248 3.15104 3.101 0
M  V30 280 N 28.0839 -0.256276 1.55502 0
M  V30 281 C 29.4999 -0.604325 1.47716 0
M  V30 282 C 29.6999 -1.88763 0.705039 0
M  V30 283 O 28.7559 -2.51445 0.230613 0
M  V30 284 C 30.0689 -0.715756 2.92057 0
M  V30 285 C 31.6169 -0.808706 3.02372 0
M  V30 286 C 32.0919 -0.951777 4.48001 0
M  V30 287 N 33.5829 -1.01688 4.519 0
M  V30 288 C 34.3179 -1.14668 5.61817 0
M  V30 289 N 33.8139 -1.24261 6.81565 0
M  V30 290 N 35.6069 -1.1791 5.49594 0
M  V30 291 H 27.7579 0.586291 2.04148 0
M  V30 292 H 30.0209 0.201015 0.926443 0
M  V30 293 H 29.7269 0.157027 3.51349 0
M  V30 294 H 29.6009 -1.59071 3.42018 0
M  V30 295 H 31.9879 -1.67195 2.43166 0
M  V30 296 H 32.0689 0.0912063 2.55637 0
M  V30 297 H 31.7129 -0.0931291 5.07815 0
M  V30 298 H 31.6429 -1.86659 4.92408 0
M  V30 299 H 34.1339 -0.954468 3.65648 0
M  V30 300 H 34.4469 -1.34046 7.61086 0
M  V30 301 H 32.7919 -1.21236 6.84344 0
M  V30 302 H 35.9829 -1.10057 4.54978 0
M  V30 303 H 36.1559 -1.27681 6.35296 0
M  V30 304 N 29.562 -1.4872 -0.521534 0
M  V30 305 C 30.787 -1.61101 -1.30618 0
M  V30 306 C 31.212 -0.274611 -1.86085 0
M  V30 307 O 30.57 0.754937 -1.64834 0
M  V30 308 C 30.618 -2.66709 -2.4269 0
M  V30 309 O 29.722 -2.24456 -3.45967 0
M  V30 310 H 29.063 -0.539921 -0.386499 0
M  V30 311 H 31.593 -1.94767 -0.626645 0
M  V30 312 H 31.603 -2.88245 -2.88754 0
M  V30 313 H 30.278 -3.63727 -2.01682 0
M  V30 314 H 28.855 -2.13168 -3.05964 0
M  V30 315 N 31.0401 0.771051 -1.3745 0
M  V30 316 C 32.2801 1.54264 -1.34096 0
M  V30 317 C 32.6441 1.91858 0.0737639 0
M  V30 318 O 33.8451 2.67797 0.23203 0
M  V30 319 C 32.1161 2.77326 -2.25445 0
M  V30 320 S 33.6751 3.67383 -2.39948 0
M  V30 321 H 30.4931 0.528122 -0.476034 0
M  V30 322 H 33.0951 0.906633 -1.73206 0
M  V30 323 H 31.7991 2.47788 -3.27153 0
M  V30 324 H 31.3301 3.45886 -1.87421 0
M  V30 325 H 33.3451 4.69334 -1.61059 0
M  V30 326 N 32.5182 1.22032 0.997298 0
M  V30 327 C 33.7952 0.950823 1.70935 0
M  V30 328 C 34.1752 -0.535292 2.042 0
M  V30 329 O 33.5232 -1.50217 1.72183 0
M  V30 330 C 33.7332 1.84386 2.96315 0
M  V30 331 C 35.0812 2.09732 3.69185 0
M  V30 332 O 36.1052 1.81798 3.06314 0
M  V30 333 O 34.9642 2.57018 4.82291 0
M  V30 334 H 32.0582 0.357204 0.745878 0
M  V30 335 H 34.6042 1.32997 1.05404 0
M  V30 336 H 33.3762 2.84928 2.68201 0
M  V30 337 H 32.9992 1.46602 3.69586 0
M  V30 338 N 33.9963 -1.19345 1.0293 0
M  V30 339 C 34.9263 -2.2481 0.631105 0
M  V30 340 C 35.9073 -1.66245 -0.360104 0
M  V30 341 O 37.0923 -1.92677 -0.242726 0
M  V30 342 C 34.2223 -3.47295 -0.0184607 0
M  V30 343 C 33.1763 -4.18536 0.895073 0
M  V30 344 C 32.5023 -5.34586 0.110592 0
M  V30 345 C 33.8023 -4.73287 2.209 0
M  V30 346 H 35.4963 -2.58372 1.51275 0
M  V30 347 H 33.0423 -1.24194 0.728818 0
M  V30 348 H 34.9953 -4.20268 -0.308675 0
M  V30 349 H 33.7193 -3.12933 -0.934907 0
M  V30 350 H 32.3783 -3.47446 1.16949 0
M  V30 351 H 32.0263 -4.96469 -0.807902 0
M  V30 352 H 31.7263 -5.83183 0.719087 0
M  V30 353 H 33.2503 -6.10355 -0.172871 0
M  V30 354 H 34.6643 -5.38013 1.98028 0
M  V30 355 H 33.0613 -5.32373 2.76946 0
M  V30 356 H 34.1313 -3.91331 2.86336 0
M  V30 357 N 35.4744 -0.807222 -1.35358 0
M  V30 358 C 36.4064 -0.175717 -2.28525 0
M  V30 359 C 37.4194 0.625354 -1.5031 0
M  V30 360 O 38.6084 0.457611 -1.72535 0
M  V30 361 C 35.7084 0.773471 -3.29956 0
M  V30 362 C 34.8814 0.0186296 -4.37396 0
M  V30 363 C 33.9404 0.886395 -5.18681 0
M  V30 364 O 32.9664 0.337106 -5.68201 0
M  V30 365 N 34.1684 2.20839 -5.36852 0
M  V30 366 H 36.9334 -0.976091 -2.83359 0
M  V30 367 H 34.4944 -0.662737 -1.47714 0
M  V30 368 H 36.4864 1.35824 -3.81227 0
M  V30 369 H 35.0564 1.47465 -2.75632 0
M  V30 370 H 34.2764 -0.747349 -3.87051 0
M  V30 371 H 35.5644 -0.501577 -5.06322 0
M  V30 372 H 34.9624 2.67858 -4.98265 0
M  V30 373 H 33.5194 2.74237 -5.91301 0
M  V30 374 N 36.9525 1.47285 -0.560781 0
M  V30 375 C 38.1995 2.02464 -0.038062 0
M  V30 376 C 38.5275 1.43474 1.31322 0
M  V30 377 O 37.7825 0.581311 1.86867 0
M  V30 378 C 38.0815 3.57258 0.100784 0
M  V30 379 C 37.7475 4.35184 -1.18007 0
M  V30 380 C 36.4095 4.56194 -1.53103 0
M  V30 381 C 38.7615 4.80098 -2.02867 0
M  V30 382 C 36.0895 5.19367 -2.729 0
M  V30 383 C 38.4415 5.44593 -3.21871 0
M  V30 384 C 37.1055 5.63835 -3.57276 0
M  V30 385 H 36.3755 0.740869 -0.0139279 0
M  V30 386 H 39.0225 1.76916 -0.733012 0
M  V30 387 H 37.3275 3.81819 0.878724 0
M  V30 388 H 39.0245 3.97606 0.520639 0
M  V30 389 H 35.6145 4.19113 -0.8968 0
M  V30 390 H 39.7985 4.63642 -1.7706 0
M  V30 391 H 35.0545 5.32459 -3.00496 0
M  V30 392 H 39.2285 5.78358 -3.87911 0
M  V30 393 H 36.8555 6.12557 -4.50197 0
M  V30 394 N 38.4306 0.297415 1.54768 0
M  V30 395 C 39.8466 -0.0560823 1.59501 0
M  V30 396 C 40.0466 -1.52725 1.31444 0
M  V30 397 O 39.1026 -2.27947 1.08611 0
M  V30 398 C 40.4156 0.338631 2.98787 0
M  V30 399 C 41.9636 0.287097 3.11681 0
M  V30 400 C 42.4386 0.656579 4.53269 0
M  V30 401 N 43.9296 0.608977 4.59179 0
M  V30 402 C 44.6646 0.867385 5.66802 0
M  V30 403 N 44.1606 1.19157 6.82476 0
M  V30 404 N 45.9536 0.794687 5.56454 0
M  V30 405 H 38.1046 1.25624 1.71267 0
M  V30 406 H 40.3676 0.509057 0.799728 0
M  V30 407 H 40.0736 1.36263 3.2423 0
M  V30 408 H 39.9476 -0.309508 3.75928 0
M  V30 409 H 42.3346 -0.727649 2.85988 0
M  V30 410 H 42.4156 0.969809 2.36703 0
M  V30 411 H 42.0596 1.66912 4.7969 0
M  V30 412 H 41.9896 -0.0481649 5.26578 0
M  V30 413 H 44.4806 0.369198 3.76092 0
M  V30 414 H 44.7936 1.37482 7.60473 0
M  V30 415 H 43.1386 1.22958 6.84037 0
M  V30 416 H 46.3296 0.541098 4.64962 0
M  V30 417 H 46.5026 0.999445 6.40246 0
M  V30 418 N 39.9087 -1.5758 0.0250728 0
M  V30 419 C 40.8407 -2.06869 -0.986796 0
M  V30 420 C 41.8537 -0.991332 -1.29137 0
M  V30 421 O 43.0427 -1.26761 -1.25674 0
M  V30 422 C 40.1427 -2.47486 -2.31525 0
M  V30 423 C 39.3157 -3.78253 -2.19643 0
M  V30 424 C 38.3747 -4.05464 -3.35388 0
M  V30 425 O 37.4007 -4.75774 -3.12454 0
M  V30 426 N 38.6027 -3.55321 -4.59051 0
M  V30 427 H 41.3677 -2.94302 -0.566276 0
M  V30 428 H 38.9287 -1.6109 -0.161776 0
M  V30 429 H 40.9207 -2.62785 -3.07776 0
M  V30 430 H 39.4907 -1.65441 -2.65232 0
M  V30 431 H 38.7107 -3.7279 -1.28144 0
M  V30 432 H 39.9987 -4.63936 -2.08903 0
M  V30 433 H 39.3967 -2.98431 -4.80578 0
M  V30 434 H 37.9537 -3.75905 -5.32483 0
M  V30 435 N 41.3868 0.248026 -1.55636 0
M  V30 436 C 42.6338 0.976224 -1.77415 0
M  V30 437 C 42.9618 1.85361 -0.589193 0
M  V30 438 O 42.2168 1.90973 0.427529 0
M  V30 439 C 42.5158 1.86819 -3.04686 0
M  V30 440 C 42.1818 1.14625 -4.36087 0
M  V30 441 C 40.8438 0.946723 -4.71795 0
M  V30 442 C 43.1958 0.634463 -5.17324 0
M  V30 443 C 40.5238 0.223091 -5.86276 0
M  V30 444 C 42.8758 -0.0756959 -6.32555 0
M  V30 445 C 41.5398 -0.286711 -6.66884 0
M  V30 446 H 40.8098 0.357226 -0.649208 0
M  V30 447 H 43.4568 0.246415 -1.89908 0
M  V30 448 H 41.7618 2.66502 -2.872 0
M  V30 449 H 43.4588 2.43329 -3.18735 0
M  V30 450 H 40.0488 1.3117 -4.08035 0
M  V30 451 H 44.2328 0.77616 -4.90193 0
M  V30 452 H 39.4888 0.0491185 -6.1138 0
M  V30 453 H 43.6628 -0.479899 -6.94745 0
M  V30 454 H 41.2898 -0.849389 -7.5544 0
M  V30 455 N 42.8649 1.48995 0.513639 0
M  V30 456 C 44.1129 1.57531 1.26604 0
M  V30 457 C 44.4339 0.258236 1.93283 0
M  V30 458 O 43.7039 -0.721502 1.8213 0
M  V30 459 H 42.2839 0.580387 0.470276 0
M  V30 460 H 44.9459 1.85552 0.596373 0
M  V30 461 H 44.0419 2.36486 2.03669 0
M  V30 462 N 44.343 -0.763751 1.37857 0
M  V30 463 C 45.591 -1.51957 1.33243 0
M  V30 464 C 45.912 -1.94835 -0.0801709 0
M  V30 465 O 45.182 -1.66894 -1.02582 0
M  V30 466 H 43.762 -0.563626 0.49024 0
M  V30 467 H 46.424 -0.908504 1.7243 0
M  V30 468 H 45.52 -2.41523 1.97669 0
M  V30 469 N 45.8211 -1.22559 -0.990812 0
M  V30 470 C 47.2371 -0.985996 -1.255 0
M  V30 471 C 47.4371 0.319173 -1.98956 0
M  V30 472 O 46.4931 1.04127 -2.3003 0
M  V30 473 C 47.8061 -2.18607 -2.06474 0
M  V30 474 C 49.3541 -2.22985 -2.19651 0
M  V30 475 C 49.8291 -3.4255 -3.04012 0
M  V30 476 N 51.3201 -3.42725 -3.11599 0
M  V30 477 C 52.0551 -4.31892 -3.7717 0
M  V30 478 N 51.5511 -5.31279 -4.44651 0
M  V30 479 N 53.3441 -4.19662 -3.73952 0
M  V30 480 H 45.4951 -2.06469 -0.49841 0
M  V30 481 H 47.7581 -0.904853 -0.282747 0
M  V30 482 H 47.4641 -3.13267 -1.59865 0
M  V30 483 H 47.3381 -2.18838 -3.07229 0
M  V30 484 H 49.7251 -1.28871 -2.65474 0
M  V30 485 H 49.8061 -2.26791 -1.18319 0
M  V30 486 H 49.4501 -4.36965 -2.58889 0
M  V30 487 H 49.3801 -3.35984 -4.0549 0
M  V30 488 H 51.8711 -2.70807 -2.63575 0
M  V30 489 H 52.1841 -5.95593 -4.92431 0
M  V30 490 H 50.5291 -5.3519 -4.43392 0
M  V30 491 H 53.7201 -3.41268 -3.20396 0
M  V30 492 H 53.8931 -4.89358 -4.24774 0
M  V30 493 N 47.2992 1.18797 -1.03562 0
M  V30 494 C 48.5242 1.9314 -0.755764 0
M  V30 495 C 48.9492 1.7537 0.68022 0
M  V30 496 O 48.3072 1.06046 1.47051 0
M  V30 497 C 48.3552 3.42747 -1.12058 0
M  V30 498 O 47.4592 4.11683 -0.243124 0
M  V30 499 H 46.8002 0.602724 -0.278604 0
M  V30 500 H 49.3302 1.50678 -1.3841 0
M  V30 501 H 49.3402 3.93437 -1.08035 0
M  V30 502 H 48.0152 3.55002 -2.16672 0
M  V30 503 H 46.5922 3.71323 -0.342539 0
M  V30 504 N 48.7773 0.814389 1.34928 0
M  V30 505 C 49.7093 0.187834 2.28429 0
M  V30 506 C 50.7223 -0.617374 1.5064 0
M  V30 507 O 51.9113 -0.448454 1.72775 0
M  V30 508 C 49.0113 -0.755962 3.30361 0
M  V30 509 C 48.1843 0.00456686 4.374 0
M  V30 510 C 47.2433 -0.858876 5.19143 0
M  V30 511 O 46.2693 -0.306968 5.68372 0
M  V30 512 N 47.4713 -2.17988 5.38016 0
M  V30 513 H 50.2363 0.991105 2.82838 0
M  V30 514 H 47.7973 0.670561 1.4736 0
M  V30 515 H 49.7893 -1.338 3.81942 0
M  V30 516 H 48.3593 -1.46001 2.7641 0
M  V30 517 H 47.5793 0.767865 3.86649 0
M  V30 518 H 48.8673 0.528422 5.06049 0
M  V30 519 H 48.2653 -2.65212 4.99679 0
M  V30 520 H 46.8223 -2.71098 5.92747 0
M  V30 521 N 50.2554 -1.46986 0.568584 0
M  V30 522 C 51.5024 -2.02441 0.0487986 0
M  V30 523 C 51.8304 -1.44169 -1.30559 0
M  V30 524 O 51.0854 -0.591213 -1.86556 0
M  V30 525 C 51.3844 -3.57306 -0.081836 0
M  V30 526 C 51.0504 -4.34552 1.20313 0
M  V30 527 C 49.7124 -4.55376 1.5552 0
M  V30 528 C 52.0644 -4.79016 2.05411 0
M  V30 529 C 49.3924 -5.17913 2.7565 0
M  V30 530 C 51.7444 -5.42879 3.24754 0
M  V30 531 C 50.4084 -5.61933 3.60261 0
M  V30 532 H 49.6784 -0.740785 0.0178567 0
M  V30 533 H 52.3254 -1.76525 0.742384 0
M  V30 534 H 50.6304 -3.8228 -0.858463 0
M  V30 535 H 52.3274 -3.97876 -0.499546 0
M  V30 536 H 48.9174 -4.18631 0.919014 0
M  V30 537 H 53.1014 -4.62696 1.79516 0
M  V30 538 H 48.3574 -5.30858 3.03315 0
M  V30 539 H 52.5314 -5.76293 3.90973 0
M  V30 540 H 50.1584 -6.10161 4.53439 0
M  V30 541 N 51.7335 -0.305618 -1.54608 0
M  V30 542 C 52.6965 0.555591 -2.22364 0
M  V30 543 C 53.6965 1.05768 -1.21119 0
M  V30 544 O 54.8865 0.952972 -1.45822 0
M  V30 545 C 52.0185 1.76974 -2.91364 0
M  V30 546 H 53.2115 -0.0364572 -2.99878 0
M  V30 547 H 50.7645 -0.0565007 -1.56198 0
M  V30 548 H 51.4995 2.40151 -2.17941 0
M  V30 549 H 51.2845 1.41732 -3.65588 0
M  V30 550 H 52.7745 2.38148 -3.43038 0
M  V30 551 N 53.2116 1.57565 -0.0334293 0
M  V30 552 C 54.4596 1.91598 0.642999 0
M  V30 553 C 54.7806 0.910847 1.7242 0
M  V30 554 O 54.0506 -0.0469931 1.95844 0
M  V30 555 H 52.6306 0.707228 0.240496 0
M  V30 556 H 55.2926 1.94726 -0.0822488 0
M  V30 557 H 54.3886 2.92336 1.09298 0
M  V30 558 N 54.6897 -0.239769 1.55765 0
M  V30 559 C 56.1007 -0.808263 1.68297 0
M  V30 560 C 56.4517 -1.85736 0.632181 0
M  V30 561 O 55.5767 -2.15277 -0.220204 0
M  V30 562 C 56.1717 -1.47284 3.05111 0
M  V30 563 C 54.7307 -1.98895 3.19559 0
M  V30 564 C 53.8777 -0.842575 2.64189 0
M  V30 565 H 56.8287 -0.0154422 1.58692 0
M  V30 566 H 56.8497 -2.34111 2.99954 0
M  V30 567 H 56.3617 -0.709053 3.81568 0
M  V30 568 H 54.4627 -2.78132 2.47938 0
M  V30 569 H 54.5757 -2.18143 4.26556 0
M  V30 570 H 52.9397 -1.24501 2.22197 0
M  V30 571 H 53.7227 -0.0917552 3.43177 0
M  V30 572 N 56.1678 -1.49265 -0.50573 0
M  V30 573 C 57.4168 -1.57761 -1.25675 0
M  V30 574 C 57.7298 -0.267371 -1.93764 0
M  V30 575 O 58.9358 -0.230827 -2.70517 0
M  V30 576 C 57.3918 -2.78332 -2.28165 0
M  V30 577 C 56.9998 -4.16096 -1.66037 0
M  V30 578 C 58.7438 -2.96155 -3.04125 0
M  V30 579 C 56.6508 -5.27895 -2.6661 0
M  V30 580 H 55.5808 -0.587391 -0.472745 0
M  V30 581 H 58.2318 -1.75644 -0.53118 0
M  V30 582 H 56.6138 -2.53934 -3.03865 0
M  V30 583 H 57.7878 -4.50612 -0.963622 0
M  V30 584 H 56.1028 -4.03591 -1.02484 0
M  V30 585 H 58.6998 -3.76849 -3.79327 0
M  V30 586 H 59.0428 -2.06534 -3.61455 0
M  V30 587 H 59.5758 -3.2057 -2.35541 0
M  V30 588 H 56.3148 -6.1956 -2.14068 0
M  V30 589 H 55.8348 -4.97839 -3.34539 0
M  V30 590 H 57.5138 -5.57031 -3.29129 0
M  V30 591 N 57.6459 0.756429 -1.3826 0
M  V30 592 C 58.8709 1.55077 -1.37717 0
M  V30 593 C 59.2959 1.88073 0.03164 0
M  V30 594 O 58.6539 1.50364 1.01293 0
M  V30 595 C 58.7019 2.8283 -2.23695 0
M  V30 596 O 57.8059 3.77862 -1.6521 0
M  V30 597 H 57.1469 0.469152 -0.469885 0
M  V30 598 H 59.6769 0.935019 -1.81985 0
M  V30 599 H 59.6869 3.31783 -2.37453 0
M  V30 600 H 58.3619 2.58144 -3.2609 0
M  V30 601 H 56.9389 3.36555 -1.60578 0
M  V30 602 N 59.124 1.23083 0.984299 0
M  V30 603 C 60.352 1.08714 1.76037 0
M  V30 604 C 60.767 -0.361691 1.85303 0
M  V30 605 O 60.124 -1.25034 1.32939 0
M  V30 606 C 60.175 1.70206 3.18923 0
M  V30 607 O 59.896 3.09423 3.10144 0
M  V30 608 C 61.397 1.61227 4.12941 0
M  V30 609 H 58.617 0.380664 0.552572 0
M  V30 610 H 61.161 1.62853 1.23689 0
M  V30 611 H 59.316 1.20109 3.6831 0
M  V30 612 H 59.73 3.39188 4.00065 0
M  V30 613 H 61.204 2.08962 5.10919 0
M  V30 614 H 61.681 0.570375 4.35481 0
M  V30 615 H 62.287 2.10671 3.69456 0
M  V30 616 N 60.6021 -1.18246 1.0419 0
M  V30 617 C 61.8481 -1.88536 0.747122 0
M  V30 618 C 62.1811 -1.80223 -0.723409 0
M  V30 619 O 61.4561 -1.20337 -1.52804 0
M  V30 620 C 61.7391 -3.38968 1.21544 0
M  V30 621 C 61.5921 -3.56084 2.74816 0
M  V30 622 C 62.9111 -4.32648 0.806482 0
M  V30 623 H 60.0301 -0.684619 0.272883 0
M  V30 624 H 62.6721 -1.39113 1.29413 0
M  V30 625 H 60.8221 -3.8119 0.750081 0
M  V30 626 H 62.4941 -3.22946 3.29399 0
M  V30 627 H 60.7371 -2.98699 3.14582 0
M  V30 628 H 61.4081 -4.61639 3.02644 0
M  V30 629 H 63.8841 -3.98211 1.20695 0
M  V30 630 H 62.7601 -5.36462 1.1619 0
M  V30 631 H 63.0211 -4.41146 -0.29029 0
M  V30 632 N 62.0802 -0.821533 -1.34494 0
M  V30 633 C 63.4962 -0.507117 -1.51329 0
M  V30 634 C 63.6962 0.968964 -1.76673 0
M  V30 635 O 62.7522 1.75348 -1.81685 0
M  V30 636 C 64.0652 -1.36544 -2.67911 0
M  V30 637 C 65.6132 -1.36242 -2.81793 0
M  V30 638 C 66.0882 -2.2052 -4.01416 0
M  V30 639 N 67.5792 -2.18136 -4.08621 0
M  V30 640 C 68.3142 -2.80095 -5.00334 0
M  V30 641 N 67.8102 -3.51039 -5.9728 0
M  V30 642 N 69.6032 -2.69656 -4.93196 0
M  V30 643 H 61.7542 -1.77729 -1.16302 0
M  V30 644 H 64.0172 -0.757291 -0.570276 0
M  V30 645 H 63.7232 -2.41361 -2.55808 0
M  V30 646 H 63.5972 -1.02917 -3.62888 0
M  V30 647 H 65.9842 -0.322041 -2.93338 0
M  V30 648 H 66.0652 -1.73866 -1.87628 0
M  V30 649 H 65.7092 -3.24607 -3.90631 0
M  V30 650 H 65.6392 -1.80247 -4.94791 0
M  V30 651 H 68.1302 -1.6653 -3.39229 0
M  V30 652 H 68.4432 -3.95565 -6.63889 0
M  V30 653 H 66.7882 -3.55145 -5.97409 0
M  V30 654 H 69.9792 -2.13808 -4.16418 0
M  V30 655 H 70.1522 -3.1823 -5.64476 0
M  V30 656 N 63.5583 1.46682 -0.576371 0
M  V30 657 C 64.7983 2.04306 -0.0621356 0
M  V30 658 C 65.1623 1.4389 1.2712 0
M  V30 659 O 66.3633 1.92675 1.87429 0
M  V30 660 C 64.6343 3.57399 0.00927922 0
M  V30 661 S 66.1933 4.36309 0.466859 0
M  V30 662 H 63.0113 0.710167 -0.0344016 0
M  V30 663 H 65.6133 1.79807 -0.767437 0
M  V30 664 H 64.3173 3.98889 -0.965178 0
M  V30 665 H 63.8483 3.86424 0.737547 0
M  V30 666 H 65.8633 4.6533 1.72287 0
M  V30 667 N 65.0364 0.313813 1.54444 0
M  V30 668 C 66.2834 -0.291675 2.00388 0
M  V30 669 C 66.6114 -1.52904 1.2021 0
M  V30 670 O 65.8664 -1.93833 0.269707 0
M  V30 671 C 66.1654 -0.680386 3.50864 0
M  V30 672 C 65.8314 0.456699 4.48581 0
M  V30 673 C 64.4934 0.768824 4.75018 0
M  V30 674 C 66.8454 1.22098 5.06697 0
M  V30 675 C 64.1734 1.84812 5.56831 0
M  V30 676 C 66.5254 2.29029 5.89685 0
M  V30 677 C 65.1894 2.60834 6.14428 0
M  V30 678 H 64.4594 -0.106732 0.733273 0
M  V30 679 H 67.1064 0.43557 1.86481 0
M  V30 680 H 65.4114 -1.48791 3.62448 0
M  V30 681 H 67.1084 -1.16026 3.83847 0
M  V30 682 H 63.6984 0.203337 4.28117 0
M  V30 683 H 67.8824 0.993096 4.86263 0
M  V30 684 H 63.1384 2.09912 5.74236 0
M  V30 685 H 67.3124 2.887 6.33739 0
M  V30 686 H 64.9394 3.44596 6.77612 0
M  V30 687 N 66.5145 -1.57545 0.0417849 0
M  V30 688 C 67.4465 -2.07904 -0.964799 0
M  V30 689 C 68.4595 -1.00497 -1.28079 0
M  V30 690 O 69.6485 -1.28087 -1.24322 0
M  V30 691 C 66.7485 -2.49928 -2.28887 0
M  V30 692 C 65.9215 -3.80562 -2.15619 0
M  V30 693 C 64.9805 -4.08999 -3.31069 0
M  V30 694 O 64.0065 -4.79061 -3.0739 0
M  V30 695 N 65.2085 -3.6017 -4.55256 0
M  V30 696 H 67.9735 -2.94886 -0.535029 0
M  V30 697 H 65.5345 -1.61252 -0.144681 0
M  V30 698 H 67.5265 -2.66034 -3.04972 0
M  V30 699 H 66.0965 -1.68245 -2.63463 0
M  V30 700 H 65.3165 -3.74129 -1.24183 0
M  V30 701 H 66.6045 -4.66126 -2.03971 0
M  V30 702 H 66.0025 -3.03512 -4.77386 0
M  V30 703 H 64.5595 -3.81532 -5.28466 0
M  V30 704 N 67.9926 0.231505 -1.5589 0
M  V30 705 C 69.2696 0.981096 -1.69215 0
M  V30 706 C 69.6496 2.02799 -0.586164 0
M  V30 707 O 68.9976 2.24823 0.408253 0
M  V30 708 C 69.2076 1.60054 -3.10135 0
M  V30 709 C 70.5556 2.09658 -3.69227 0
M  V30 710 O 71.5796 1.69967 -3.13033 0
M  V30 711 O 70.4386 2.8258 -4.67772 0
M  V30 712 H 67.5326 0.457653 -0.688827 0
M  V30 713 H 70.0786 0.224073 -1.68214 0
M  V30 714 H 68.8506 0.844105 -3.82087 0
M  V30 715 H 68.4736 2.42336 -3.15212 0
M  V30 716 N 69.4707 1.49531 0.497807 0
M  V30 717 C 70.4187 1.66926 1.61983 0
M  V30 718 C 71.4127 0.535167 1.60724 0
M  V30 719 O 72.6187 0.714896 1.65195 0
M  V30 720 H 68.9937 0.526415 0.537021 0
M  V30 721 H 70.9647 2.61098 1.44465 0
M  V30 722 C 69.7137 1.75602 3.00099 0
M  V30 723 H 69.0367 2.62244 3.01775 0
M  V30 724 H 70.4767 1.91807 3.78135 0
M  V30 725 C 68.9357 0.501543 3.33146 0
M  V30 726 O 69.4657 -0.371342 3.9998 0
M  V30 727 N 67.6717 0.363531 2.88317 0
M  V30 728 H 67.2187 1.07485 2.34104 0
M  V30 729 H 67.1767 -0.474728 3.10795 0
M  V30 730 N 70.9488 -0.749086 1.3866 0
M  V30 731 C 71.9118 -1.84457 1.36045 0
M  V30 732 C 72.9118 -1.58682 0.260122 0
M  V30 733 O 74.1018 -1.66343 0.517261 0
M  V30 734 C 71.2338 -3.22008 1.11911 0
M  V30 735 H 72.4268 -1.88182 2.33512 0
M  V30 736 H 69.9798 -0.951266 1.24019 0
M  V30 737 H 70.7148 -3.2395 0.150686 0
M  V30 738 H 70.4998 -3.42111 1.91579 0
M  V30 739 H 71.9898 -4.0208 1.12788 0
M  V30 740 N 72.4269 -1.23603 -0.977757 0
M  V30 741 C 73.3569 -1.04401 -2.0886 0
M  V30 742 C 74.3379 0.0399052 -1.70053 0
M  V30 743 O 75.5229 -0.125246 -1.93796 0
M  V30 744 C 72.6529 -0.637269 -3.41403 0
M  V30 745 C 71.6069 -1.66883 -3.94124 0
M  V30 746 C 70.9329 -1.11745 -5.22893 0
M  V30 747 C 72.2329 -3.06247 -4.23096 0
M  V30 748 H 73.9269 -1.97316 -2.25182 0
M  V30 749 H 71.4729 -0.950096 -1.08209 0
M  V30 750 H 73.4259 -0.48998 -4.18542 0
M  V30 751 H 72.1499 0.327557 -3.24953 0
M  V30 752 H 70.8089 -1.80416 -3.19133 0
M  V30 753 H 70.4569 -0.143527 -5.02795 0
M  V30 754 H 70.1569 -1.80672 -5.59134 0
M  V30 755 H 71.6809 -0.982067 -6.02651 0
M  V30 756 H 73.0949 -2.96001 -4.90975 0
M  V30 757 H 71.4919 -3.72436 -4.70544 0
M  V30 758 H 72.5619 -3.55041 -3.30263 0
M  V30 759 N 73.905 1.17692 -1.04816 0
M  V30 760 C 74.835 2.23777 -0.666791 0
M  V30 761 C 75.816 1.66796 0.33361 0
M  V30 762 O 77.001 1.93039 0.212042 0
M  V30 763 C 74.131 3.47281 -0.0367933 0
M  V30 764 C 73.085 4.17059 -0.961546 0
M  V30 765 C 72.411 5.34342 -0.195626 0
M  V30 766 C 73.711 4.69713 -2.28402 0
M  V30 767 H 75.405 2.55933 -1.55367 0
M  V30 768 H 72.951 1.23019 -0.748484 0
M  V30 769 H 74.904 4.20706 0.241775 0
M  V30 770 H 73.628 3.14381 0.885004 0
M  V30 771 H 72.287 3.45541 -1.22462 0
M  V30 772 H 71.935 4.97692 0.728816 0
M  V30 773 H 71.635 5.81966 -0.811775 0
M  V30 774 H 73.159 6.10553 0.0757473 0
M  V30 775 H 74.573 5.34794 -2.06563 0
M  V30 776 H 72.97 5.279 -2.8538 0
M  V30 777 H 74.04 3.86726 -2.92525 0
M  V30 778 N 75.3831 0.828654 1.34056 0
M  V30 779 C 76.3301 0.252567 2.29414 0
M  V30 780 C 77.3001 -0.62588 1.53857 0
M  V30 781 O 78.4851 -0.566312 1.82202 0
M  V30 782 C 75.6251 -0.574831 3.40279 0
M  V30 783 C 74.7381 0.326499 4.30764 0
M  V30 784 C 73.8731 -0.511016 5.28736 0
M  V30 785 C 72.9121 0.389342 6.1086 0
M  V30 786 N 72.0491 -0.409439 7.00905 0
M  V30 787 H 76.8891 1.07108 2.78086 0
M  V30 788 H 74.4261 0.539677 1.36843 0
M  V30 789 H 76.3841 -1.06992 4.03248 0
M  V30 790 H 75.0141 -1.35841 2.92826 0
M  V30 791 H 74.0661 0.939837 3.68607 0
M  V30 792 H 75.3781 1.01857 4.88289 0
M  V30 793 H 74.5321 -1.07035 5.97184 0
M  V30 794 H 73.2711 -1.23657 4.71763 0
M  V30 795 H 72.2761 0.960769 5.4134 0
M  V30 796 H 73.5011 1.1131 6.69916 0
M  V30 797 H 71.4471 -1.11856 6.46393 0
M  V30 798 H 71.3641 0.224126 7.55668 0
M  V30 799 H 72.6321 -0.951336 7.73673 0
M  V30 800 N 76.8612 -1.46375 0.584142 0
M  V30 801 C 78.0862 -2.07268 0.0740405 0
M  V30 802 C 78.5112 -1.42979 -1.22223 0
M  V30 803 O 77.8692 -0.514092 -1.73859 0
M  V30 804 C 77.9172 -3.60518 -0.0767769 0
M  V30 805 O 77.0212 -3.96533 -1.13292 0
M  V30 806 H 76.3622 -0.660961 0.0634524 0
M  V30 807 H 78.8922 -1.87991 0.807492 0
M  V30 808 H 78.9022 -4.07021 -0.282489 0
M  V30 809 H 77.5772 -4.06702 0.86986 0
M  V30 810 H 76.1542 -3.61738 -0.905553 0
M  V30 811 N 78.3393 -0.321999 -1.54275 0
M  V30 812 C 79.5853 0.281461 -2.00837 0
M  V30 813 C 79.9183 1.51909 -1.20985 0
M  V30 814 O 79.1933 1.923 -0.291733 0
M  V30 815 C 79.4763 0.617162 -3.54772 0
M  V30 816 C 79.3293 -0.631064 -4.45351 0
M  V30 817 C 80.6483 1.43542 -4.16033 0
M  V30 818 H 77.7673 0.100826 -0.730071 0
M  V30 819 H 80.4093 -0.438268 -1.84876 0
M  V30 820 H 78.5593 1.23034 -3.68504 0
M  V30 821 H 80.2313 -1.26934 -4.43492 0
M  V30 822 H 78.4743 -1.26025 -4.15091 0
M  V30 823 H 79.1453 -0.351735 -5.50878 0
M  V30 824 H 81.6213 0.917134 -4.05867 0
M  V30 825 H 80.4973 1.63907 -5.23856 0
M  V30 826 H 80.7583 2.43108 -3.69257 0
M  V30 827 N 79.8174 1.5752 -0.0501392 0
M  V30 828 C 80.7474 2.14502 0.922566 0
M  V30 829 C 81.7284 1.06642 1.3252 0
M  V30 830 O 82.9134 1.34577 1.4001 0
M  V30 831 C 80.0434 2.68916 2.19776 0
M  V30 832 C 78.9974 3.8175 1.93523 0
M  V30 833 C 78.3234 4.22677 3.27487 0
M  V30 834 C 79.6234 5.06932 1.25765 0
M  V30 835 H 81.3174 2.9603 0.447952 0
M  V30 836 H 78.8634 1.42401 0.214024 0
M  V30 837 H 80.8164 3.07419 2.88222 0
M  V30 838 H 79.5404 1.84578 2.69441 0
M  V30 839 H 78.1994 3.43718 1.27489 0
M  V30 840 H 77.8474 3.35291 3.74952 0
M  V30 841 H 77.5474 4.98725 3.1072 0
M  V30 842 H 79.0714 4.63779 3.97166 0
M  V30 843 H 80.4854 5.42888 1.84244 0
M  V30 844 H 78.8824 5.88116 1.19328 0
M  V30 845 H 79.9524 4.84337 0.233536 0
M  V30 846 N 81.2955 -0.223234 1.56011 0
M  V30 847 C 82.5205 -0.968978 1.83373 0
M  V30 848 C 82.9455 -1.77227 0.630254 0
M  V30 849 O 82.3035 -1.76345 -0.420959 0
M  V30 850 C 82.3515 -1.86363 3.08709 0
M  V30 851 O 81.4555 -2.95873 2.87285 0
M  V30 852 H 80.7965 -0.274461 0.604622 0
M  V30 853 H 83.3265 -0.237056 2.03222 0
M  V30 854 H 83.3365 -2.27376 3.38768 0
M  V30 855 H 82.0115 -1.27319 3.95933 0
M  V30 856 H 80.5885 -2.58818 2.68454 0
M  V30 857 N 82.7736 -1.49793 -0.48987 0
M  V30 858 C 83.7056 -1.63413 -1.60713 0
M  V30 859 C 84.7186 -0.516329 -1.54395 0
M  V30 860 O 85.9076 -0.788812 -1.60125 0
M  V30 861 C 83.0076 -1.58516 -2.99543 0
M  V30 862 C 82.1806 -2.86016 -3.30928 0
M  V30 863 C 81.2396 -2.74018 -4.49222 0
M  V30 864 O 80.2656 -3.47964 -4.50455 0
M  V30 865 N 81.4676 -1.86309 -5.4979 0
M  V30 866 H 84.2326 -2.59777 -1.49452 0
M  V30 867 H 81.7936 -1.47022 -0.677955 0
M  V30 868 H 83.7856 -1.48128 -3.76617 0
M  V30 869 H 82.3556 -0.69965 -3.0467 0
M  V30 870 H 81.5756 -3.10672 -2.42645 0
M  V30 871 H 82.8636 -3.70521 -3.487 0
M  V30 872 H 82.2616 -1.2551 -5.51601 0
M  V30 873 H 80.8186 -1.81837 -6.25922 0
M  V30 874 N 84.2517 0.741722 -1.39055 0
M  V30 875 C 85.6627 1.31966 -1.32068 0
M  V30 876 C 86.0137 1.96192 0.0180797 0
M  V30 877 O 85.1387 1.95861 0.920196 0
M  V30 878 C 85.7337 2.39954 -2.39181 0
M  V30 879 C 84.2927 2.93438 -2.35735 0
M  V30 880 C 83.4397 1.66936 -2.21422 0
M  V30 881 H 86.3907 0.539721 -1.4924 0
M  V30 882 H 86.4117 3.20182 -2.05581 0
M  V30 883 H 85.9237 1.9318 -3.36605 0
M  V30 884 H 84.0247 3.4451 -1.41929 0
M  V30 885 H 84.1377 3.4701 -3.30335 0
M  V30 886 H 82.5017 1.91016 -1.68478 0
M  V30 887 H 83.2847 1.22224 -3.20806 0
M  V30 888 N 85.7298 1.2412 0.971189 0
M  V30 889 C 86.9548 1.10667 1.75407 0
M  V30 890 C 87.3798 -0.337048 1.85056 0
M  V30 891 O 86.7378 -1.24396 1.31892 0
M  V30 892 C 86.7858 1.74726 3.15441 0
M  V30 893 O 85.8898 1.01566 3.99697 0
M  V30 894 H 85.2308 0.387341 0.539317 0
M  V30 895 H 87.7608 1.64358 1.2185 0
M  V30 896 H 87.7708 1.80341 3.6598 0
M  V30 897 H 86.4458 2.79773 3.07734 0
M  V30 898 H 85.0228 1.03713 3.58187 0
M  V30 899 N 87.2079 -1.17134 1.05439 0
M  V30 900 C 88.1709 -2.19439 0.661764 0
M  V30 901 C 89.1709 -1.58199 -0.288042 0
M  V30 902 O 90.3609 -1.74053 -0.0715803 0
M  V30 903 C 87.4929 -3.40889 -0.0276209 0
M  V30 904 H 88.6859 -2.55688 1.56728 0
M  V30 905 H 86.2389 -1.31259 0.848567 0
M  V30 906 H 86.9739 -3.10187 -0.94629 0
M  V30 907 H 86.7589 -3.86586 0.655238 0
M  V30 908 H 88.2489 -4.16603 -0.288342 0
M  V30 909 N 88.686 -0.835752 -1.33615 0
M  V30 910 C 89.934 -0.429109 -1.97492 0
M  V30 911 C 90.255 1.01433 -1.66543 0
M  V30 912 O 89.525 1.70611 -0.962744 0
M  V30 913 H 88.105 -0.155686 -0.730596 0
M  V30 914 H 90.767 -1.06802 -1.63031 0
M  V30 915 H 89.863 -0.55861 -3.0706 0
M  V30 916 N 90.1641 1.46063 -0.591896 0
M  V30 917 C 91.4121 2.01938 -0.0808391 0
M  V30 918 C 91.7331 1.46475 1.28725 0
M  V30 919 O 91.0031 0.652944 1.84698 0
M  V30 920 H 89.5831 0.746516 -0.0268938 0
M  V30 921 H 92.2451 1.79055 -0.769752 0
M  V30 922 H 91.3411 3.12094 -0.0187578 0
M  V30 923 N 91.6422 0.330177 1.54103 0
M  V30 924 C 92.8882 -0.270806 2.00984 0
M  V30 925 C 93.2212 -1.51265 1.21789 0
M  V30 926 O 92.4962 -1.92142 0.301927 0
M  V30 927 C 92.7792 -0.598339 3.55094 0
M  V30 928 C 92.6322 0.654674 4.4501 0
M  V30 929 C 93.9512 -1.41334 4.16789 0
M  V30 930 H 91.0702 -0.0969531 0.730595 0
M  V30 931 H 93.7122 0.448066 1.84641 0
M  V30 932 H 91.8622 -1.21078 3.69151 0
M  V30 933 H 93.5342 1.29285 4.42813 0
M  V30 934 H 91.7772 1.28224 4.14416 0
M  V30 935 H 92.4482 0.380944 5.50684 0
M  V30 936 H 94.9242 -0.895597 4.06347 0
M  V30 937 H 93.8002 -1.61127 5.24718 0
M  V30 938 H 94.0612 -2.41146 3.70541 0
M  V30 939 N 93.1203 -1.57491 0.0584922 0
M  V30 940 C 94.0503 -2.14988 -0.911178 0
M  V30 941 C 95.0313 -1.07343 -1.31952 0
M  V30 942 O 96.2163 -1.35318 -1.39294 0
M  V30 943 C 93.3463 -2.70078 -2.18347 0
M  V30 944 C 92.3003 -3.82771 -1.91495 0
M  V30 945 C 91.6263 -4.24408 -3.25241 0
M  V30 946 C 92.9263 -5.07592 -1.23075 0
M  V30 947 H 94.6203 -2.96263 -0.432246 0
M  V30 948 H 92.1663 -1.42512 -0.206469 0
M  V30 949 H 94.1193 -3.08943 -2.86587 0
M  V30 950 H 92.8433 -1.86005 -2.68458 0
M  V30 951 H 91.5023 -3.44389 -1.25664 0
M  V30 952 H 91.1503 -3.37275 -3.73168 0
M  V30 953 H 90.8503 -5.00366 -3.08071 0
M  V30 954 H 92.3743 -4.65879 -3.94701 0
M  V30 955 H 93.7883 -5.43857 -1.81362 0
M  V30 956 H 92.1853 -5.88741 -1.16207 0
M  V30 957 H 93.2553 -4.84454 -0.207847 0
M  V30 958 N 94.5984 0.214957 -1.56127 0
M  V30 959 C 95.8444 0.939762 -1.79712 0
M  V30 960 C 96.1774 1.83723 -0.629247 0
M  V30 961 O 95.4524 1.90925 0.371197 0
M  V30 962 C 95.7354 1.77306 -3.13424 0
M  V30 963 C 95.5884 0.90164 -4.40671 0
M  V30 964 C 96.9074 2.74956 -3.43638 0
M  V30 965 H 94.0264 0.340214 -0.653776 0
M  V30 966 H 96.6684 0.20824 -1.88855 0
M  V30 967 H 94.8184 2.39673 -3.0576 0
M  V30 968 H 96.4904 0.294206 -4.60361 0
M  V30 969 H 94.7334 0.207368 -4.33304 0
M  V30 970 H 95.4044 1.51923 -5.30682 0
M  V30 971 H 97.8804 2.22724 -3.51473 0
M  V30 972 H 96.7564 3.30358 -4.38355 0
M  V30 973 H 97.0174 3.53023 -2.66134 0
M  V30 974 N 96.0765 1.50051 0.48192 0
M  V30 975 C 97.3255 1.59741 1.23149 0
M  V30 976 C 97.6385 0.298163 1.93314 0
M  V30 977 O 98.8445 0.273835 2.70116 0
M  V30 978 C 97.3005 2.81926 2.23708 0
M  V30 979 C 96.9085 4.18685 1.59396 0
M  V30 980 C 98.6525 3.00956 2.99375 0
M  V30 981 C 96.5595 5.3207 2.58178 0
M  V30 982 H 95.4895 0.594838 0.46334 0
M  V30 983 H 98.1405 1.76467 0.503169 0
M  V30 984 H 96.5225 2.58736 2.99786 0
M  V30 985 H 97.6965 4.52088 0.891811 0
M  V30 986 H 96.0115 4.05171 0.960503 0
M  V30 987 H 98.6085 3.82836 3.73283 0
M  V30 988 H 98.9515 2.12258 3.58123 0
M  V30 989 H 99.4845 3.24277 2.30411 0
M  V30 990 H 96.2235 6.22888 2.04184 0
M  V30 991 H 95.7435 5.03098 3.26577 0
M  V30 992 H 97.4225 5.62196 3.20225 0
M  V30 993 N 97.5546 -0.734337 1.39446 0
M  V30 994 C 98.8316 -1.48579 1.27215 0
M  V30 995 C 99.2116 -2.1077 -0.117968 0
M  V30 996 O 98.5596 -1.98646 -1.12924 0
M  V30 997 C 98.7696 -2.53667 2.39696 0
M  V30 998 C 100.118 -3.20031 2.79044 0
M  V30 999 O 101.142 -2.6398 2.39151 0
M  V30 1000 O 100.001 -4.21455 3.47905 0
M  V30 1001 H 97.0946 -0.659816 0.49857 0
M  V30 1002 H 99.6406 -0.768106 1.51322 0
M  V30 1003 H 98.4126 -2.06096 3.32626 0
M  V30 1004 H 98.0356 -3.32994 2.17258 0
M  V30 1005 N 99.0327 -1.24633 -0.964593 0
M  V30 1006 C 100.281 -1.08573 -1.70459 0
M  V30 1007 C 100.602 0.375655 -1.91347 0
M  V30 1008 O 99.8717 1.26779 -1.49345 0
M  V30 1009 H 98.4517 -0.398784 -0.631649 0
M  V30 1010 H 101.114 -1.56601 -1.16026 0
M  V30 1011 H 100.21 -1.58623 -2.68785 0
M  V30 1012 N 100.511 1.16574 -1.06058 0
M  V30 1013 C 101.474 2.19085 -0.673392 0
M  V30 1014 C 102.474 1.5835 0.279648 0
M  V30 1015 O 103.664 1.74088 0.0623488 0
M  V30 1016 C 100.796 3.40899 0.00954234 0
M  V30 1017 H 101.989 2.54853 -1.58081 0
M  V30 1018 H 99.5418 1.30808 -0.855516 0
M  V30 1019 H 100.277 3.10684 0.929826 0
M  V30 1020 H 100.062 3.86233 -0.67573 0
M  V30 1021 H 101.552 4.1675 0.266245 0
M  V30 1022 N 101.989 0.842826 1.3317 0
M  V30 1023 C 103.237 0.439577 1.97262 0
M  V30 1024 C 103.558 -1.00548 1.67078 0
M  V30 1025 O 102.828 -1.70098 0.971779 0
M  V30 1026 H 101.408 0.159558 0.72976 0
M  V30 1027 H 104.07 1.07665 1.62463 0
M  V30 1028 H 103.166 0.574886 3.0676 0
M  V30 1029 N 103.467 -1.45747 0.599634 0
M  V30 1030 C 104.692 -2.07178 0.0960198 0
M  V30 1031 C 105.117 -1.44268 -1.207 0
M  V30 1032 O 104.475 -0.532503 -1.73303 0
M  V30 1033 C 104.523 -3.60579 -0.0385348 0
M  V30 1034 O 103.627 -3.97713 -1.0908 0
M  V30 1035 H 102.968 -0.660251 0.0704593 0
M  V30 1036 H 105.498 -1.87124 0.827385 0
M  V30 1037 H 105.508 -4.07298 -0.239304 0
M  V30 1038 H 104.183 -4.05756 0.912947 0
M  V30 1039 H 102.76 -3.62678 -0.867135 0
M  V30 1040 N 104.945 -0.338344 -1.53925 0
M  V30 1041 C 105.875 0.51328 -2.27789 0
M  V30 1042 C 106.856 1.107 -1.29149 0
M  V30 1043 O 108.041 1.12937 -1.57984 0
M  V30 1044 C 105.171 1.66697 -3.04679 0
M  V30 1045 C 104.125 1.20183 -4.1078 0
M  V30 1046 C 103.451 2.44363 -4.75595 0
M  V30 1047 C 104.751 0.30605 -5.21403 0
M  V30 1048 H 106.445 -0.102883 -2.99223 0
M  V30 1049 H 103.991 -0.0509219 -1.4391 0
M  V30 1050 H 105.944 2.26915 -3.55088 0
M  V30 1051 H 104.668 2.30995 -2.30887 0
M  V30 1052 H 103.327 0.622499 -3.61276 0
M  V30 1053 H 102.975 3.07057 -3.98403 0
M  V30 1054 H 102.675 2.13925 -5.47275 0
M  V30 1055 H 104.199 3.05317 -5.28786 0
M  V30 1056 H 105.613 0.814929 -5.67478 0
M  V30 1057 H 104.01 0.0937929 -6.00027 0
M  V30 1058 H 105.08 -0.65921 -4.80398 0
M  V30 1059 N 106.423 1.57458 -0.0668435 0
M  V30 1060 C 107.373 2.0896 0.912119 0
M  V30 1061 C 108.357 0.998186 1.26195 0
M  V30 1062 O 109.549 1.26133 1.24175 0
M  V30 1063 C 106.678 2.6508 2.18145 0
M  V30 1064 C 105.764 3.81218 1.85832 0
M  V30 1065 N 106.155 4.90378 1.23948 0
M  V30 1066 C 104.453 3.9042 2.15612 0
M  V30 1067 C 105.154 5.71279 1.09616 0
M  V30 1068 N 104.13 5.19389 1.60423 0
M  V30 1069 H 107.932 2.90749 0.42924 0
M  V30 1070 H 105.446 1.6182 0.137184 0
M  V30 1071 H 107.443 3.0029 2.89192 0
M  V30 1072 H 106.103 1.84736 2.67025 0
M  V30 1073 H 107.114 5.09847 0.909731 0
M  V30 1074 H 103.791 3.21043 2.66903 0
M  V30 1075 H 105.181 6.69085 0.614425 0
M  V30 1076 N 107.901 -0.206675 1.56239 0
M  V30 1077 C 109.129 -0.945345 1.8404 0
M  V30 1078 C 109.544 -1.77336 0.647885 0
M  V30 1079 O 108.901 -1.78425 -0.383511 0
M  V30 1080 C 108.952 -1.8509 3.10522 0
M  V30 1081 O 108.673 -1.05634 4.25174 0
M  V30 1082 C 110.174 -2.70222 3.51418 0
M  V30 1083 H 107.394 -0.276372 0.61144 0
M  V30 1084 H 109.938 -0.217417 2.03341 0
M  V30 1085 H 108.093 -2.53259 2.93153 0
M  V30 1086 H 108.507 -1.67238 4.97124 0
M  V30 1087 H 109.981 -3.29438 4.42916 0
M  V30 1088 H 110.458 -3.43358 2.73864 0
M  V30 1089 H 111.064 -2.07443 3.71278 0
M  V30 1090 N 109.379 -1.50304 -0.473955 0
M  V30 1091 C 110.342 -1.6841 -1.55469 0
M  V30 1092 C 111.342 -0.554905 -1.50922 0
M  V30 1093 O 112.532 -0.821882 -1.53593 0
M  V30 1094 C 109.664 -1.70667 -2.95102 0
M  V30 1095 H 110.857 -2.64828 -1.40733 0
M  V30 1096 H 108.41 -1.39742 -0.700132 0
M  V30 1097 H 109.145 -0.75932 -3.15285 0
M  V30 1098 H 108.93 -2.52698 -2.9981 0
M  V30 1099 H 110.42 -1.8664 -3.73571 0
M  V30 1100 N 110.857 0.726932 -1.39834 0
M  V30 1101 C 111.787 1.85405 -1.41941 0
M  V30 1102 C 112.768 1.67751 -0.281728 0
M  V30 1103 O 113.953 1.8795 -0.488717 0
M  V30 1104 C 111.083 3.23243 -1.2701 0
M  V30 1105 C 110.037 3.55549 -2.38262 0
M  V30 1106 C 109.363 4.9241 -2.08415 0
M  V30 1107 C 110.663 3.577 -3.80589 0
M  V30 1108 H 112.357 1.83899 -2.36266 0
M  V30 1109 H 109.903 0.883349 -1.13723 0
M  V30 1110 H 111.856 4.01775 -1.27103 0
M  V30 1111 H 110.58 3.25296 -0.291564 0
M  V30 1112 H 109.239 2.79351 -2.37399 0
M  V30 1113 H 108.887 4.91052 -1.0898 0
M  V30 1114 H 108.587 5.14992 -2.82943 0
M  V30 1115 H 110.111 5.73289 -2.10171 0
M  V30 1116 H 111.525 4.26293 -3.83337 0
M  V30 1117 H 109.922 3.91804 -4.54543 0
M  V30 1118 H 110.992 2.57328 -4.10987 0
M  V30 1119 N 112.336 1.25143 0.95797 0
M  V30 1120 C 113.582 1.09855 1.70469 0
M  V30 1121 C 113.915 -0.360187 1.90831 0
M  V30 1122 O 113.19 -1.26568 1.47685 0
M  V30 1123 C 113.473 1.8497 3.08963 0
M  V30 1124 C 113.326 3.38652 2.96032 0
M  V30 1125 C 114.645 1.63016 4.08795 0
M  V30 1126 H 111.764 0.400465 0.618706 0
M  V30 1127 H 114.406 1.53933 1.11376 0
M  V30 1128 H 112.556 1.47505 3.59409 0
M  V30 1129 H 114.228 3.85772 2.52938 0
M  V30 1130 H 112.471 3.66534 2.32025 0
M  V30 1131 H 113.142 3.8642 3.94187 0
M  V30 1132 H 115.618 1.95625 3.67247 0
M  V30 1133 H 114.494 2.18015 5.03747 0
M  V30 1134 H 114.755 0.570692 4.38401 0
M  V30 1135 N 113.814 -1.1601 1.06675 0
M  V30 1136 C 115.062 -1.86264 0.784229 0
M  V30 1137 C 115.383 -1.82328 -0.691488 0
M  V30 1138 O 114.653 -1.25947 -1.50047 0
M  V30 1139 H 113.233 -0.689621 0.28711 0
M  V30 1140 H 115.895 -1.40664 1.34906 0
M  V30 1141 H 114.991 -2.91595 1.11259 0
M  V30 1142 N 115.292 -0.849877 -1.32721 0
M  V30 1143 C 116.569 -0.372405 -1.92022 0
M  V30 1144 C 116.949 1.1435 -1.77447 0
M  V30 1145 O 116.297 1.96296 -1.16962 0
M  V30 1146 C 116.507 -0.831482 -3.3895 0
M  V30 1147 C 117.855 -0.845882 -4.16089 0
M  V30 1148 O 118.879 -0.775806 -3.47649 0
M  V30 1149 O 117.738 -0.943753 -5.38289 0
M  V30 1150 H 114.832 -0.107667 -0.819961 0
M  V30 1151 H 117.378 -0.93646 -1.41522 0
M  V30 1152 H 116.15 -1.87448 -3.4348 0
M  V30 1153 H 115.773 -0.24461 -3.96847 0
M  V30 1154 N 116.77 1.45427 -0.607355 0
M  V30 1155 C 118.016 2.0254 -0.102607 0
M  V30 1156 C 118.349 1.47478 1.26348 0
M  V30 1157 O 117.624 0.64939 1.83339 0
M  V30 1158 C 117.907 3.60044 -0.0634347 0
M  V30 1159 C 117.76 4.2544 -1.46017 0
M  V30 1160 C 119.079 4.35646 0.624514 0
M  V30 1161 H 116.198 0.73598 -0.0387607 0
M  V30 1162 H 118.84 1.73284 -0.779282 0
M  V30 1163 H 116.99 3.85101 0.512808 0
M  V30 1164 H 118.662 4.11569 -2.08347 0
M  V30 1165 H 116.905 3.83849 -2.02094 0
M  V30 1166 H 117.576 5.34342 -1.385 0
M  V30 1167 H 120.052 4.15882 0.134723 0
M  V30 1168 H 118.928 5.45376 0.621028 0
M  V30 1169 H 119.189 4.08501 1.69055 0
M  V30 1170 N 118.248 0.346503 1.53744 0
M  V30 1171 C 119.497 -0.250122 2.00143 0
M  V30 1172 C 119.81 -1.51418 1.23822 0
M  V30 1173 O 121.016 -2.18823 1.60713 0
M  V30 1174 C 119.472 -0.496252 3.56462 0
M  V30 1175 C 119.08 0.752077 4.41642 0
M  V30 1176 C 120.824 -1.05157 4.11269 0
M  V30 1177 C 118.731 0.476583 5.89477 0
M  V30 1178 H 117.661 -0.0972409 0.747703 0
M  V30 1179 H 120.312 0.46229 1.77581 0
M  V30 1180 H 118.694 -1.26944 3.75102 0
M  V30 1181 H 119.868 1.5266 4.34778 0
M  V30 1182 H 118.183 1.22925 3.97842 0
M  V30 1183 H 120.78 -1.27269 5.19333 0
M  V30 1184 H 121.123 -2.00799 3.64672 0
M  V30 1185 H 121.656 -0.339019 3.96353 0
M  V30 1186 H 118.395 1.4028 6.40314 0
M  V30 1187 H 117.915 -0.259794 5.99237 0
M  V30 1188 H 119.594 0.0949315 6.4693 0
M  V30 1189 N 119.726 -1.57421 0.075193 0
M  V30 1190 C 120.689 -2.11791 -0.876203 0
M  V30 1191 C 121.689 -1.04268 -1.22412 0
M  V30 1192 O 122.879 -1.30242 -1.15684 0
M  V30 1193 C 120.011 -2.62207 -2.17854 0
M  V30 1194 H 121.204 -2.9716 -0.40444 0
M  V30 1195 H 118.757 -1.55333 -0.173557 0
M  V30 1196 H 119.492 -1.803 -2.6956 0
M  V30 1197 H 119.277 -3.40802 -1.93897 0
M  V30 1198 H 120.767 -3.04335 -2.85955 0
M  V30 1199 N 121.204 0.198386 -1.56346 0
M  V30 1200 C 122.114 1.2664 -1.97483 0
M  V30 1201 C 123.13 1.49989 -0.882002 0
M  V30 1202 O 124.306 1.62668 -1.18748 0
M  V30 1203 C 121.371 2.59141 -2.30319 0
M  V30 1204 C 120.432 2.43892 -3.53292 0
M  V30 1205 C 119.665 3.70074 -3.84553 0
M  V30 1206 O 119.888 4.74101 -3.1715 0
M  V30 1207 O 118.822 3.658 -4.7799 0
M  V30 1208 H 122.648 0.947304 -2.88548 0
M  V30 1209 H 120.233 0.403123 -1.43859 0
M  V30 1210 H 122.115 3.37352 -2.5253 0
M  V30 1211 H 120.79 2.90684 -1.42423 0
M  V30 1212 H 119.697 1.63803 -3.36332 0
M  V30 1213 H 121.03 2.17282 -4.41644 0
M  V30 1214 N 122.682 1.50554 0.465978 0
M  V30 1215 C 123.612 1.72722 1.57128 0
M  V30 1216 C 124.593 0.576294 1.6004 0
M  V30 1217 O 125.778 0.81598 1.76225 0
M  V30 1218 C 122.908 1.82605 2.95419 0
M  V30 1219 C 121.862 2.97835 3.07373 0
M  V30 1220 C 121.188 2.92867 4.47363 0
M  V30 1221 C 122.488 4.38265 2.84114 0
M  V30 1222 H 124.182 2.65267 1.38829 0
M  V30 1223 H 121.728 1.2765 0.666441 0
M  V30 1224 H 123.681 1.96698 3.72677 0
M  V30 1225 H 122.405 0.866858 3.14886 0
M  V30 1226 H 121.064 2.83401 2.3255 0
M  V30 1227 H 120.712 1.94783 4.63755 0
M  V30 1228 H 120.412 3.70227 4.56296 0
M  V30 1229 H 121.936 3.09015 5.26633 0
M  V30 1230 H 123.35 4.53198 3.51118 0
M  V30 1231 H 121.747 5.17115 3.04487 0
M  V30 1232 H 122.817 4.50281 1.7993 0
M  V30 1233 N 124.16 -0.719506 1.40217 0
M  V30 1234 C 125.123 -1.8153 1.39927 0
M  V30 1235 C 126.123 -1.58095 0.293723 0
M  V30 1236 O 127.313 -1.65209 0.552429 0
M  V30 1237 C 124.445 -3.19561 1.18716 0
M  V30 1238 H 125.638 -1.83186 2.37451 0
M  V30 1239 H 123.191 -0.924746 1.26008 0
M  V30 1240 H 123.926 -3.23557 0.219366 0
M  V30 1241 H 123.711 -3.3797 1.98793 0
M  V30 1242 H 125.201 -3.99598 1.21291 0
M  V30 1243 N 125.638 -1.25649 -0.95132 0
M  V30 1244 C 127.054 -1.02542 -1.223 0
M  V30 1245 C 127.254 0.255715 -1.99871 0
M  V30 1246 O 126.31 0.967558 -2.33226 0
M  V30 1247 C 127.623 -2.25065 -1.99415 0
M  V30 1248 C 129.171 -2.29861 -2.12446 0
M  V30 1249 C 129.646 -3.52048 -2.92961 0
M  V30 1250 N 131.137 -3.52465 -3.00538 0
M  V30 1251 C 131.872 -4.43672 -3.63239 0
M  V30 1252 N 131.368 -5.45157 -4.27523 0
M  V30 1253 N 133.161 -4.31346 -3.60412 0
M  V30 1254 H 125.312 -2.07951 -0.432471 0
M  V30 1255 H 127.575 -0.91339 -0.253816 0
M  V30 1256 H 127.281 -3.18194 -1.49817 0
M  V30 1257 H 127.155 -2.28502 -3.00111 0
M  V30 1258 H 129.542 -1.37252 -2.61239 0
M  V30 1259 H 129.623 -2.3044 -1.11044 0
M  V30 1260 H 129.267 -4.44981 -2.44856 0
M  V30 1261 H 129.197 -3.48715 -3.94596 0
M  V30 1262 H 131.688 -2.79056 -2.54826 0
M  V30 1263 H 132.001 -6.10958 -4.73234 0
M  V30 1264 H 130.346 -5.49025 -4.26141 0
M  V30 1265 H 133.537 -3.51288 -3.09377 0
M  V30 1266 H 133.71 -5.02624 -4.0899 0
M  V30 1267 N 127.117 1.15442 -1.07289 0
M  V30 1268 C 128.342 1.90638 -0.816828 0
M  V30 1269 C 128.767 1.77445 0.624083 0
M  V30 1270 O 128.125 1.10671 1.43602 0
M  V30 1271 C 128.173 3.39008 -1.22906 0
M  V30 1272 O 127.277 4.10701 -0.373975 0
M  V30 1273 H 126.618 0.593555 -0.297638 0
M  V30 1274 H 129.148 1.46198 -1.43134 0
M  V30 1275 H 129.158 3.89801 -1.20497 0
M  V30 1276 H 127.833 3.47929 -2.27856 0
M  V30 1277 H 126.41 3.70046 -0.460499 0
M  V30 1278 N 128.595 0.856903 1.32268 0
M  V30 1279 C 129.823 0.475439 2.01363 0
M  V30 1280 C 130.238 -0.928486 1.64392 0
M  V30 1281 O 129.595 -1.60624 0.866387 0
M  V30 1282 C 129.646 0.607545 3.56358 0
M  V30 1283 O 129.367 1.95617 3.92002 0
M  V30 1284 C 130.868 0.225382 4.42727 0
M  V30 1285 H 128.088 0.186636 0.644521 0
M  V30 1286 H 130.632 1.15446 1.68797 0
M  V30 1287 H 128.787 -0.0237719 3.87393 0
M  V30 1288 H 129.201 1.95455 4.86721 0
M  V30 1289 H 130.675 0.368813 5.50767 0
M  V30 1290 H 131.152 -0.834369 4.31202 0
M  V30 1291 H 131.758 0.831864 4.17085 0
M  V30 1292 N 130.073 -1.45103 0.615059 0
M  V30 1293 C 131.321 -2.01784 0.112955 0
M  V30 1294 C 131.642 -1.48504 -1.26378 0
M  V30 1295 O 130.912 -0.682245 -1.83636 0
M  V30 1296 H 129.492 -0.745993 0.0387668 0
M  V30 1297 H 132.154 -1.77808 0.798141 0
M  V30 1298 H 131.25 -3.12025 0.0684069 0
M  V30 1299 N 131.551 -0.354651 -1.53558 0
M  V30 1300 C 132.797 0.231422 -2.02079 0
M  V30 1301 C 133.152 1.47308 -1.23767 0
M  V30 1302 O 132.445 1.8891 -0.319947 0
M  V30 1303 C 132.639 0.587121 -3.52545 0
M  V30 1304 C 132.468 -0.618513 -4.45426 0
M  V30 1305 C 131.238 -1.12724 -4.92566 0
M  V30 1306 C 133.436 -1.48039 -4.92533 0
M  V30 1307 N 131.418 -2.29404 -5.69427 0
M  V30 1308 C 132.789 -2.49397 -5.67628 0
M  V30 1309 C 134.844 -1.50454 -4.74624 0
M  V30 1310 C 133.547 -3.53013 -6.26717 0
M  V30 1311 C 135.573 -2.52958 -5.34571 0
M  V30 1312 C 134.935 -3.5304 -6.09543 0
M  V30 1313 H 131.034 0.0476909 -0.780544 0
M  V30 1314 H 133.618 -0.496727 -1.88257 0
M  V30 1315 H 131.789 1.28436 -3.6655 0
M  V30 1316 H 133.521 1.15734 -3.87799 0
M  V30 1317 H 130.276 -0.693577 -4.68494 0
M  V30 1318 H 130.7 -2.88347 -6.12524 0
M  V30 1319 H 135.342 -0.744356 -4.16196 0
M  V30 1320 H 133.06 -4.2992 -6.84247 0
M  V30 1321 H 136.646 -2.55667 -5.22614 0
M  V30 1322 H 135.526 -4.31056 -6.55103 0
M  V30 1323 N 133.029 1.57378 -0.0835403 0
M  V30 1324 C 134.257 1.98263 0.59157 0
M  V30 1325 C 134.672 0.962302 1.62435 0
M  V30 1326 O 134.029 -0.049581 1.82433 0
M  V30 1327 C 134.08 3.39214 1.24965 0
M  V30 1328 O 133.801 4.37339 0.258186 0
M  V30 1329 C 135.302 3.95038 2.01147 0
M  V30 1330 H 132.522 0.651773 0.159477 0
M  V30 1331 H 135.066 2.03878 -0.159415 0
M  V30 1332 H 133.221 3.34649 1.95164 0
M  V30 1333 H 133.635 5.19371 0.731734 0
M  V30 1334 H 135.109 4.95848 2.42567 0
M  V30 1335 H 135.586 3.32222 2.87272 0
M  V30 1336 H 136.192 4.0304 1.35789 0
M  V30 1337 N 134.507 -0.190092 1.56449 0
M  V30 1338 C 135.755 -0.907908 1.80559 0
M  V30 1339 C 136.076 -1.83583 0.657438 0
M  V30 1340 O 135.346 -1.93203 -0.323924 0
M  V30 1341 H 133.926 -0.338247 0.666032 0
M  V30 1342 H 136.588 -0.194403 1.93928 0
M  V30 1343 H 135.684 -1.49604 2.73907 0
M  V30 1344 N 135.985 -1.50799 -0.457987 0
M  V30 1345 C 136.915 -1.73553 -1.5621 0
M  V30 1346 C 137.896 -0.584774 -1.59732 0
M  V30 1347 O 139.081 -0.825314 -1.7579 0
M  V30 1348 C 136.211 -1.84169 -2.94447 0
M  V30 1349 C 135.165 -2.99461 -3.0579 0
M  V30 1350 C 134.491 -2.95235 -4.45803 0
M  V30 1351 C 135.791 -4.39766 -2.81786 0
M  V30 1352 H 137.485 -2.66 -1.37421 0
M  V30 1353 H 135.031 -1.28002 -0.659662 0
M  V30 1354 H 136.984 -1.98672 -3.71628 0
M  V30 1355 H 135.708 -0.883545 -3.14422 0
M  V30 1356 H 134.367 -2.8463 -2.31044 0
M  V30 1357 H 134.015 -1.97239 -4.62715 0
M  V30 1358 H 133.715 -3.72642 -4.54326 0
M  V30 1359 H 135.239 -3.11803 -5.24987 0
M  V30 1360 H 136.653 -4.55054 -3.4871 0
M  V30 1361 H 135.05 -5.18722 -3.0174 0
M  V30 1362 H 136.12 -4.51229 -1.7754 0
M  V30 1363 N 137.463 0.71206 -1.40597 0
M  V30 1364 C 138.712 1.46754 -1.38369 0
M  V30 1365 C 139.025 1.95598 0.0097839 0
M  V30 1366 O 140.231 2.71059 0.154677 0
M  V30 1367 C 138.687 2.65289 -2.43207 0
M  V30 1368 C 138.295 2.23301 -3.88382 0
M  V30 1369 C 140.039 3.43008 -2.50091 0
M  V30 1370 C 137.946 3.38696 -4.84808 0
M  V30 1371 H 136.876 0.55118 -0.514506 0
M  V30 1372 H 139.527 0.774616 -1.66349 0
M  V30 1373 H 137.909 3.36769 -2.08332 0
M  V30 1374 H 139.083 1.59218 -4.32419 0
M  V30 1375 H 137.398 1.58618 -3.85006 0
M  V30 1376 H 139.995 4.28881 -3.1932 0
M  V30 1377 H 140.338 3.87065 -1.53253 0
M  V30 1378 H 140.871 2.78574 -2.83974 0
M  V30 1379 H 137.61 2.99668 -5.82992 0
M  V30 1380 H 137.13 4.01683 -4.45433 0
M  V30 1381 H 138.809 4.04712 -5.04794 0
M  V30 1382 N 138.941 1.26152 0.944643 0
M  V30 1383 C 140.187 1.11657 1.69294 0
M  V30 1384 C 140.52 -0.339926 1.91202 0
M  V30 1385 O 139.795 -1.24994 1.49019 0
M  V30 1386 C 140.078 1.88236 3.06984 0
M  V30 1387 C 139.931 3.41772 2.92424 0
M  V30 1388 C 141.25 1.67343 4.07043 0
M  V30 1389 H 138.369 0.407004 0.614424 0
M  V30 1390 H 141.011 1.55106 1.09737 0
M  V30 1391 H 139.161 1.51308 3.57824 0
M  V30 1392 H 140.833 3.88433 2.48832 0
M  V30 1393 H 139.076 3.68974 2.28124 0
M  V30 1394 H 139.747 3.90579 3.90067 0
M  V30 1395 H 142.223 1.99509 3.65151 0
M  V30 1396 H 141.099 2.23346 5.01406 0
M  V30 1397 H 141.36 0.617158 4.37771 0
M  V30 1398 N 140.419 -1.14872 1.07899 0
M  V30 1399 C 141.369 -2.17809 0.674027 0
M  V30 1400 C 142.353 -1.58008 -0.303699 0
M  V30 1401 O 143.545 -1.76616 -0.11654 0
M  V30 1402 C 140.674 -3.43208 0.0793318 0
M  V30 1403 C 139.76 -4.10051 1.08253 0
M  V30 1404 N 140.151 -4.52296 2.2641 0
M  V30 1405 C 138.449 -4.36469 0.917124 0
M  V30 1406 C 139.15 -5.04199 2.901 0
M  V30 1407 N 138.126 -4.98088 2.17736 0
M  V30 1408 H 141.928 -2.48207 1.57386 0
M  V30 1409 H 139.442 -1.315 0.952976 0
M  V30 1410 H 141.439 -4.16272 -0.228719 0
M  V30 1411 H 140.099 -3.14291 -0.815551 0
M  V30 1412 H 141.11 -4.45504 2.64096 0
M  V30 1413 H 137.787 -4.17432 0.0756078 0
M  V30 1414 H 139.177 -5.46802 3.90458 0
M  V30 1415 N 141.898 -0.863906 -1.31812 0
M  V30 1416 C 143.146 -0.470904 -1.96537 0
M  V30 1417 C 143.467 0.978771 -1.68657 0
M  V30 1418 O 142.737 1.6853 -0.998717 0
M  V30 1419 H 141.317 -0.171148 -0.72713 0
M  V30 1420 H 143.979 -1.10236 -1.60729 0
M  V30 1421 H 143.075 -0.623616 -3.05806 0
M  V30 1422 N 143.376 1.44774 -0.622745 0
M  V30 1423 C 144.339 2.29069 0.0774015 0
M  V30 1424 C 145.339 1.4059 0.780461 0
M  V30 1425 O 146.529 1.62551 0.626322 0
M  V30 1426 C 143.661 3.21974 1.12006 0
M  V30 1427 H 144.854 2.92459 -0.663901 0
M  V30 1428 H 142.407 1.51548 -0.382486 0
M  V30 1429 H 143.142 2.63417 1.89162 0
M  V30 1430 H 142.927 3.87168 0.619951 0
M  V30 1431 H 144.417 3.85318 1.60995 0
M  V30 1432 N 144.854 0.36279 1.53368 0
M  V30 1433 C 146.1 -0.228113 2.01513 0
M  V30 1434 C 146.433 -1.48648 1.2497 0
M  V30 1435 O 145.708 -1.91459 0.342616 0
M  V30 1436 C 145.991 -0.522884 3.56284 0
M  V30 1437 C 145.844 0.74892 4.43521 0
M  V30 1438 C 147.163 -1.32461 4.19693 0
M  V30 1439 H 144.282 -0.0814343 0.732487 0
M  V30 1440 H 146.924 0.48713 1.83649 0
M  V30 1441 H 145.074 -1.1322 3.71636 0
M  V30 1442 H 146.746 1.38648 4.39971 0
M  V30 1443 H 144.989 1.36986 4.11603 0
M  V30 1444 H 145.66 0.497667 5.49752 0
M  V30 1445 H 148.136 -0.809203 4.08156 0
M  V30 1446 H 147.012 -1.49961 5.28018 0
M  V30 1447 H 147.273 -2.33232 3.75573 0
M  V30 1448 N 146.332 -1.57332 0.0918853 0
M  V30 1449 C 147.748 -1.57389 -0.264766 0
M  V30 1450 C 147.948 -1.10281 -1.68643 0
M  V30 1451 O 147.004 -0.777801 -2.40222 0
M  V30 1452 C 148.317 -3.00648 -0.0561195 0
M  V30 1453 C 149.865 -3.12754 -0.124116 0
M  V30 1454 C 150.34 -4.57965 0.0564972 0
M  V30 1455 N 151.831 -4.632 0.00155611 0
M  V30 1456 C 152.566 -5.73281 0.116598 0
M  V30 1457 N 152.062 -6.92208 0.286294 0
M  V30 1458 N 153.855 -5.6207 0.0580973 0
M  V30 1459 H 146.006 -1.86262 1.02079 0
M  V30 1460 H 148.269 -0.859579 0.399786 0
M  V30 1461 H 147.975 -3.393 0.925669 0
M  V30 1462 H 147.849 -3.68623 -0.799823 0
M  V30 1463 H 150.236 -2.73976 -1.09641 0
M  V30 1464 H 150.317 -2.47377 0.651024 0
M  V30 1465 H 149.961 -4.97436 1.02564 0
M  V30 1466 H 149.891 -5.21399 -0.738297 0
M  V30 1467 H 152.382 -3.77686 -0.127192 0
M  V30 1468 H 152.695 -7.71934 0.365676 0
M  V30 1469 H 151.04 -6.94254 0.32192 0
M  V30 1470 H 154.231 -4.68043 -0.0733204 0
M  V30 1471 H 154.404 -6.47824 0.151203 0
M  V30 1472 N 147.81 0.181792 -1.56548 0
M  V30 1473 C 149.087 0.926765 -1.72251 0
M  V30 1474 C 149.467 2.00831 -0.650386 0
M  V30 1475 O 148.815 2.26008 0.336521 0
M  V30 1476 C 149.025 1.50106 -3.1507 0
M  V30 1477 C 150.373 1.97805 -3.75711 0
M  V30 1478 O 151.397 1.59922 -3.18282 0
M  V30 1479 O 150.256 2.67555 -4.76525 0
M  V30 1480 H 147.35 0.435506 -0.703039 0
M  V30 1481 H 149.896 0.170443 -1.68842 0
M  V30 1482 H 148.668 0.72212 -3.84579 0
M  V30 1483 H 148.291 2.32186 -3.22763 0
M  V30 1484 N 149.288 1.51039 0.449983 0
M  V30 1485 C 150.251 1.70863 1.5277 0
M  V30 1486 C 151.251 0.578846 1.5002 0
M  V30 1487 O 152.441 0.846213 1.52266 0
M  V30 1488 C 149.573 1.75341 2.9235 0
M  V30 1489 H 150.766 2.67034 1.36502 0
M  V30 1490 H 148.319 1.40838 0.677812 0
M  V30 1491 H 149.054 0.809383 3.14037 0
M  V30 1492 H 148.839 2.57436 2.95752 0
M  V30 1493 H 150.329 1.92559 3.70555 0
M  V30 1494 N 150.766 -0.704594 1.40972 0
M  V30 1495 C 151.729 -1.80035 1.41845 0
M  V30 1496 C 152.729 -1.57774 0.310474 0
M  V30 1497 O 153.919 -1.64613 0.56992 0
M  V30 1498 C 151.051 -3.18284 1.22098 0
M  V30 1499 H 152.244 -1.80658 2.3938 0
M  V30 1500 H 149.797 -0.911329 1.26982 0
M  V30 1501 H 150.532 -3.23306 0.253672 0
M  V30 1502 H 150.317 -3.35843 2.02366 0
M  V30 1503 H 151.807 -3.98289 1.25522 0
M  V30 1504 N 152.244 -1.26651 -0.937939 0
M  V30 1505 C 153.207 -1.08546 -2.01867 0
M  V30 1506 C 154.207 -0.0327327 -1.60767 0
M  V30 1507 O 155.397 -0.276427 -1.71993 0
M  V30 1508 C 152.529 -0.651711 -3.34613 0
M  V30 1509 H 153.722 -2.04502 -2.1936 0
M  V30 1510 H 151.275 -1.09294 -1.11734 0
M  V30 1511 H 152.01 0.309696 -3.22818 0
M  V30 1512 H 151.795 -1.41189 -3.65798 0
M  V30 1513 H 153.285 -0.546973 -4.14002 0
M  V30 1514 N 153.722 1.14298 -1.08507 0
M  V30 1515 C 154.652 2.21542 -0.737646 0
M  V30 1516 C 155.633 1.67773 0.280377 0
M  V30 1517 O 156.818 1.93616 0.150521 0
M  V30 1518 C 153.948 3.46988 -0.147259 0
M  V30 1519 C 152.902 4.13789 -1.09374 0
M  V30 1520 C 152.228 5.33449 -0.365524 0
M  V30 1521 C 153.528 4.62208 -2.4323 0
M  V30 1522 H 155.222 2.5086 -1.6343 0
M  V30 1523 H 152.768 1.20576 -0.787243 0
M  V30 1524 H 154.721 4.21262 0.107808 0
M  V30 1525 H 153.445 3.17037 0.784538 0
M  V30 1526 H 152.104 3.4147 -1.33393 0
M  V30 1527 H 151.752 4.99759 0.57011 0
M  V30 1528 H 151.452 5.79088 -0.996512 0
M  V30 1529 H 152.976 6.10485 -0.118534 0
M  V30 1530 H 154.39 5.27952 -2.23472 0
M  V30 1531 H 152.787 5.18553 -3.02031 0
M  V30 1532 H 153.857 3.77224 -3.04681 0
M  V30 1533 N 155.201 0.870884 1.31352 0
M  V30 1534 C 156.617 0.562932 1.49343 0
M  V30 1535 C 156.817 -0.902725 1.80148 0
M  V30 1536 O 155.873 -1.68484 1.88067 0
M  V30 1537 C 157.186 1.46393 2.62659 0
M  V30 1538 C 158.734 1.46607 2.76542 0
M  V30 1539 C 159.209 2.35266 3.92955 0
M  V30 1540 N 160.7 2.33151 4.00243 0
M  V30 1541 C 161.435 2.98471 4.89594 0
M  V30 1542 N 160.931 3.72964 5.8384 0
M  V30 1543 N 162.724 2.87775 4.82848 0
M  V30 1544 H 154.875 1.81923 1.09626 0
M  V30 1545 H 157.138 0.777934 0.541777 0
M  V30 1546 H 156.844 2.50689 2.46674 0
M  V30 1547 H 156.718 1.16314 3.58819 0
M  V30 1548 H 159.105 0.43069 2.9194 0
M  V30 1549 H 159.186 1.8071 1.81046 0
M  V30 1550 H 158.83 3.38881 3.78315 0
M  V30 1551 H 158.76 1.98487 4.87761 0
M  V30 1552 H 161.251 1.79006 3.32814 0
M  V30 1553 H 161.564 4.19932 6.4875 0
M  V30 1554 H 159.909 3.77073 5.83816 0
M  V30 1555 H 163.1 2.29116 4.08195 0
M  V30 1556 H 163.273 3.38961 5.52277 0
M  V30 1557 N 156.679 -1.44442 0.630414 0
M  V30 1558 C 157.927 -2.01653 0.134351 0
M  V30 1559 C 158.248 -1.49836 -1.24796 0
M  V30 1560 O 157.518 -0.701684 -1.82902 0
M  V30 1561 H 156.098 -0.74554 0.0466769 0
M  V30 1562 H 158.76 -1.76952 0.816955 0
M  V30 1563 H 157.856 -3.11935 0.101498 0
M  V30 1564 N 158.157 -0.370918 -1.53173 0
M  V30 1565 C 159.406 0.218249 -2.00516 0
M  V30 1566 C 159.719 1.49429 -1.26215 0
M  V30 1567 O 160.925 2.16239 -1.64174 0
M  V30 1568 C 159.381 0.43948 -3.57207 0
M  V30 1569 C 158.989 -0.822244 -4.4039 0
M  V30 1570 C 160.733 0.986012 -4.1289 0
M  V30 1571 C 158.64 -0.570304 -5.88644 0
M  V30 1572 H 157.57 0.0853333 -0.749156 0
M  V30 1573 H 160.221 -0.490483 -1.76823 0
M  V30 1574 H 158.603 1.20961 -3.77074 0
M  V30 1575 H 159.777 -1.59557 -4.32294 0
M  V30 1576 H 158.092 -1.29238 -3.95836 0
M  V30 1577 H 160.689 1.18991 -5.21292 0
M  V30 1578 H 161.032 1.94972 -3.6782 0
M  V30 1579 H 161.565 0.27592 -3.96842 0
M  V30 1580 H 158.304 -1.50449 -6.38001 0
M  V30 1581 H 157.824 0.164427 -5.99575 0
M  V30 1582 H 159.503 -0.19784 -6.46697 0
M  V30 1583 N 159.635 1.57281 -0.100228 0
M  V30 1584 C 160.912 1.86014 0.604812 0
M  V30 1585 C 161.292 0.998025 1.86018 0
M  V30 1586 O 160.64 0.0718184 2.28387 0
M  V30 1587 C 160.85 3.36784 0.915278 0
M  V30 1588 C 162.198 4.04957 1.27651 0
M  V30 1589 O 163.222 3.41695 1.00613 0
M  V30 1590 O 162.081 5.16593 1.7831 0
M  V30 1591 H 159.175 0.76942 0.303185 0
M  V30 1592 H 161.721 1.69176 -0.133313 0
M  V30 1593 H 160.493 3.91292 0.0248896 0
M  V30 1594 H 160.116 3.58987 1.70921 0
M  V30 1595 N 161.113 -0.173488 1.56642 0
M  V30 1596 C 162.362 -0.888758 1.81063 0
M  V30 1597 C 162.675 -1.83506 0.67712 0
M  V30 1598 O 163.881 -2.59254 0.806206 0
M  V30 1599 C 162.337 -1.63091 3.20826 0
M  V30 1600 C 161.945 -0.728357 4.4204 0
M  V30 1601 C 163.689 -2.33454 3.54541 0
M  V30 1602 C 161.596 -1.47062 5.72823 0
M  V30 1603 H 160.526 -0.335618 0.675186 0
M  V30 1604 H 163.177 -0.141712 1.82952 0
M  V30 1605 H 161.559 -2.42263 3.13248 0
M  V30 1606 H 162.733 0.0262449 4.60793 0
M  V30 1607 H 161.048 -0.134492 4.16183 0
M  V30 1608 H 163.645 -2.89578 4.49498 0
M  V30 1609 H 163.988 -3.08687 2.79317 0
M  V30 1610 H 164.521 -1.61227 3.63663 0
M  V30 1611 H 161.26 -0.760658 6.51072 0
M  V30 1612 H 160.78 -2.1986 5.58052 0
M  V30 1613 H 162.459 -2.01868 6.14702 0
M  V30 1614 N 162.591 -1.51276 -0.441967 0
M  V30 1615 C 163.839 -1.63392 -1.18943 0
M  V30 1616 C 164.16 -0.350159 -1.9183 0
M  V30 1617 O 163.43 0.633784 -1.85364 0
M  V30 1618 H 162.01 -0.602164 -0.442049 0
M  V30 1619 H 164.672 -1.88186 -0.507165 0
M  V30 1620 H 163.768 -2.45934 -1.92154 0
M  V30 1621 N 164.069 0.697108 -1.41344 0
M  V30 1622 C 165.318 1.45279 -1.39918 0
M  V30 1623 C 165.631 1.95597 -0.0109624 0
M  V30 1624 O 166.837 2.71208 0.125919 0
M  V30 1625 C 165.293 2.62695 -2.46007 0
M  V30 1626 C 164.901 2.19169 -3.90729 0
M  V30 1627 C 166.645 3.40336 -2.53715 0
M  V30 1628 C 164.552 3.33535 -4.88373 0
M  V30 1629 H 163.482 0.545692 -0.520323 0
M  V30 1630 H 166.133 0.756929 -1.67161 0
M  V30 1631 H 164.515 3.34541 -2.11892 0
M  V30 1632 H 165.689 1.54623 -4.34083 0
M  V30 1633 H 164.004 1.54525 -3.86666 0
M  V30 1634 H 166.601 4.2547 -3.2385 0
M  V30 1635 H 166.944 3.85418 -1.5735 0
M  V30 1636 H 167.477 2.75546 -2.86913 0
M  V30 1637 H 164.216 2.93468 -5.86137 0
M  V30 1638 H 163.736 3.96936 -4.49668 0
M  V30 1639 H 165.415 3.99335 -5.09059 0
M  V30 1640 N 165.547 1.27147 0.931209 0
M  V30 1641 C 166.494 1.09568 2.03134 0
M  V30 1642 C 167.464 -0.00222433 1.661 0
M  V30 1643 O 168.649 0.159439 1.90133 0
M  V30 1644 C 165.789 0.745231 3.36957 0
M  V30 1645 C 164.902 1.92041 3.86968 0
M  V30 1646 C 164.037 1.51216 5.09222 0
M  V30 1647 C 163.076 2.65504 5.5152 0
M  V30 1648 N 162.213 2.25291 6.64972 0
M  V30 1649 H 167.053 2.03708 2.17502 0
M  V30 1650 H 164.59 1.01411 1.06556 0
M  V30 1651 H 166.548 0.522878 4.1391 0
M  V30 1652 H 165.178 -0.159202 3.22407 0
M  V30 1653 H 164.23 2.25541 3.06326 0
M  V30 1654 H 165.542 2.77787 4.1429 0
M  V30 1655 H 164.696 1.25084 5.93666 0
M  V30 1656 H 163.435 0.625749 4.83669 0
M  V30 1657 H 162.44 2.92354 4.65628 0
M  V30 1658 H 163.665 3.54761 5.7907 0
M  V30 1659 H 161.611 1.39098 6.41083 0
M  V30 1660 H 161.528 3.04577 6.91931 0
M  V30 1661 H 162.796 2.02398 7.52765 0
M  V30 1662 N 167.025 -1.13721 1.09112 0
M  V30 1663 C 167.988 -2.17222 0.731241 0
M  V30 1664 C 168.988 -1.59035 -0.237566 0
M  V30 1665 O 170.178 -1.74192 -0.0161704 0
M  V30 1666 C 167.31 -3.40804 0.0808443 0
M  V30 1667 H 168.503 -2.50573 1.64783 0
M  V30 1668 H 166.056 -1.28493 0.889897 0
M  V30 1669 H 166.791 -3.1304 -0.847127 0
M  V30 1670 H 166.576 -3.84306 0.777896 0
M  V30 1671 H 168.066 -4.1731 -0.155657 0
M  V30 1672 N 168.503 -0.877838 -1.30888 0
M  V30 1673 C 169.433 -0.35534 -2.3078 0
M  V30 1674 C 170.414 0.557994 -1.60687 0
M  V30 1675 O 171.599 0.473355 -1.88343 0
M  V30 1676 C 168.729 0.437221 -3.44537 0
M  V30 1677 C 167.683 -0.383715 -4.26276 0
M  V30 1678 C 167.009 0.535014 -5.32017 0
M  V30 1679 C 168.309 -1.62201 -4.96476 0
M  V30 1680 H 170.003 -1.19007 -2.74732 0
M  V30 1681 H 167.549 -0.573698 -1.32078 0
M  V30 1682 H 169.502 0.813334 -4.13477 0
M  V30 1683 H 168.226 1.30553 -2.99372 0
M  V30 1684 H 166.885 -0.741874 -3.59015 0
M  V30 1685 H 166.533 1.40083 -4.831 0
M  V30 1686 H 166.233 -0.0104211 -5.87599 0
M  V30 1687 H 167.757 0.907799 -6.03814 0
M  V30 1688 H 169.171 -1.31689 -5.5797 0
M  V30 1689 H 167.568 -2.10711 -5.61891 0
M  V30 1690 H 168.638 -2.37044 -4.23011 0
M  V30 1691 N 169.982 1.44106 -0.638065 0
M  V30 1692 C 171.23 2.01579 -0.145043 0
M  V30 1693 C 171.551 1.50496 1.24 0
M  V30 1694 O 170.821 0.711374 1.82527 0
M  V30 1695 H 169.401 0.745282 -0.05063 0
M  V30 1696 H 172.063 1.76516 -0.826327 0
M  V30 1697 H 171.159 3.11877 -0.118039 0
M  V30 1698 N 171.46 0.379036 1.52974 0
M  V30 1699 C 172.688 -0.20679 2.05864 0
M  V30 1700 C 173.103 -1.41356 1.25155 0
M  V30 1701 O 172.46 -1.8009 0.295588 0
M  V30 1702 C 172.511 -0.587045 3.56702 0
M  V30 1703 O 172.232 0.571776 4.34353 0
M  V30 1704 C 173.733 -1.22983 4.25899 0
M  V30 1705 H 170.953 -0.0336123 0.670158 0
M  V30 1706 H 173.497 0.541298 1.97206 0
M  V30 1707 H 171.652 -1.28504 3.65466 0
M  V30 1708 H 172.066 0.261544 5.23847 0
M  V30 1709 H 173.54 -1.44635 5.32715 0
M  V30 1710 H 174.017 -2.19416 3.80465 0
M  V30 1711 H 174.623 -0.572892 4.21424 0
M  V30 1712 N 172.938 -1.57226 0.108567 0
M  V30 1713 C 173.886 -2.16002 -0.862885 0
M  V30 1714 C 174.88 -1.10644 -1.28274 0
M  V30 1715 O 176.086 -1.28966 -1.2557 0
M  V30 1716 H 172.461 -0.691148 -0.296342 0
M  V30 1717 H 174.432 -2.96427 -0.342575 0
M  V30 1718 C 173.181 -2.76576 -2.10716 0
M  V30 1719 H 172.504 -3.5734 -1.793 0
M  V30 1720 H 173.944 -3.21253 -2.76717 0
M  V30 1721 C 172.403 -1.73137 -2.89007 0
M  V30 1722 O 172.933 -1.17842 -3.84026 0
M  V30 1723 N 171.139 -1.43317 -2.52801 0
M  V30 1724 H 170.686 -1.88473 -1.75601 0
M  V30 1725 H 170.644 -0.743485 -3.05483 0
M  V30 1726 N 174.416 0.165178 -1.56732 0
M  V30 1727 C 175.827 0.727046 -1.71962 0
M  V30 1728 C 176.178 1.82508 -0.720078 0
M  V30 1729 O 175.303 2.16082 0.117242 0
M  V30 1730 C 175.898 1.32559 -3.11791 0
M  V30 1731 C 174.457 1.83422 -3.28684 0
M  V30 1732 C 173.604 0.715567 -2.67908 0
M  V30 1733 H 176.555 -0.0602896 -1.58585 0
M  V30 1734 H 176.576 2.19533 -3.10782 0
M  V30 1735 H 176.088 0.526195 -3.84516 0
M  V30 1736 H 174.189 2.65986 -2.60926 0
M  V30 1737 H 174.302 1.97543 -4.36478 0
M  V30 1738 H 172.666 1.13758 -2.27884 0
M  V30 1739 H 173.449 -0.0720836 -3.43224 0
M  V30 1740 N 175.894 1.51508 0.433938 0
M  V30 1741 C 177.31 1.39759 0.770682 0
M  V30 1742 C 177.51 0.482594 1.95636 0
M  V30 1743 O 176.566 -0.0609691 2.52426 0
M  V30 1744 C 177.879 2.81851 1.04787 0
M  V30 1745 C 179.427 2.91025 1.1521 0
M  V30 1746 C 179.902 4.34032 1.46219 0
M  V30 1747 N 181.393 4.37154 1.53136 0
M  V30 1748 C 182.128 5.4484 1.78709 0
M  V30 1749 N 181.624 6.62682 2.02051 0
M  V30 1750 N 183.417 5.32324 1.80519 0
M  V30 1751 H 175.568 2.09548 -0.346892 0
M  V30 1752 H 177.831 0.943446 -0.0928074 0
M  V30 1753 H 177.537 3.50815 0.249304 0
M  V30 1754 H 177.411 3.21386 1.97461 0
M  V30 1755 H 179.798 2.22257 1.94128 0
M  V30 1756 H 179.879 2.54983 0.204281 0
M  V30 1757 H 179.523 5.03351 0.678274 0
M  V30 1758 H 179.453 4.6759 2.42212 0
M  V30 1759 H 181.944 3.52197 1.36987 0
M  V30 1760 H 182.257 7.40543 2.20943 0
M  V30 1761 H 180.602 6.65791 1.99366 0
M  V30 1762 H 183.793 4.39246 1.61805 0
M  V30 1763 H 183.966 6.16328 2.00111 0
M  V30 1764 N 177.372 -0.689602 1.41712 0
M  V30 1765 C 178.319 -1.80345 1.44029 0
M  V30 1766 C 179.289 -1.63478 0.293948 0
M  V30 1767 O 180.474 -1.84244 0.495869 0
M  V30 1768 C 177.614 -3.18272 1.33405 0
M  V30 1769 C 176.727 -3.46529 2.57956 0
M  V30 1770 C 175.862 -4.74103 2.39582 0
M  V30 1771 C 174.901 -4.95347 3.5958 0
M  V30 1772 N 174.038 -6.14151 3.40239 0
M  V30 1773 H 178.878 -1.77698 2.39222 0
M  V30 1774 H 176.415 -0.867688 1.18784 0
M  V30 1775 H 178.373 -3.97956 1.25246 0
M  V30 1776 H 177.003 -3.2008 0.418164 0
M  V30 1777 H 176.055 -2.61207 2.76542 0
M  V30 1778 H 177.367 -3.58126 3.47199 0
M  V30 1779 H 176.521 -5.61853 2.28924 0
M  V30 1780 H 175.26 -4.64763 1.47805 0
M  V30 1781 H 174.265 -4.06044 3.70686 0
M  V30 1782 H 175.49 -5.06542 4.52318 0
M  V30 1783 H 173.436 -6.06013 2.51167 0
M  V30 1784 H 173.353 -6.26543 4.23061 0
M  V30 1785 H 174.621 -7.04619 3.33365 0
M  V30 1786 N 178.85 -1.27639 -0.924453 0
M  V30 1787 C 180.075 -1.17101 -1.71179 0
M  V30 1788 C 180.5 0.268134 -1.86179 0
M  V30 1789 O 179.858 1.19415 -1.36418 0
M  V30 1790 C 179.906 -1.86313 -3.08739 0
M  V30 1791 O 179.01 -1.16331 -3.95652 0
M  V30 1792 H 178.351 -0.407091 -0.524569 0
M  V30 1793 H 180.881 -1.68767 -1.15666 0
M  V30 1794 H 180.891 -1.938 -3.59034 0
M  V30 1795 H 179.566 -2.91001 -2.97138 0
M  V30 1796 H 178.143 -1.16935 -3.54091 0
M  V30 1797 N 180.328 1.1314 -1.09713 0
M  V30 1798 C 181.556 1.88321 -0.856898 0
M  V30 1799 C 181.971 1.79276 0.592073 0
M  V30 1800 O 181.328 1.16142 1.40774 0
M  V30 1801 C 181.379 3.37812 -1.28706 0
M  V30 1802 O 181.1 3.46627 -2.67921 0
M  V30 1803 C 182.601 4.29952 -1.07964 0
M  V30 1804 H 179.821 0.596094 -0.308079 0
M  V30 1805 H 182.365 1.43205 -1.45988 0
M  V30 1806 H 180.52 3.805 -0.727912 0
M  V30 1807 H 180.934 4.39579 -2.8613 0
M  V30 1808 H 182.408 5.33159 -1.42986 0
M  V30 1809 H 182.885 4.39196 -0.0176577 0
M  V30 1810 H 183.491 3.93036 -1.62489 0
M  V30 1811 N 181.806 0.884767 1.30421 0
M  V30 1812 C 182.753 0.349642 2.28136 0
M  V30 1813 C 183.723 -0.560061 1.56373 0
M  V30 1814 O 184.908 -0.488524 1.8444 0
M  V30 1815 C 182.048 -0.42999 3.42411 0
M  V30 1816 C 181.161 0.508907 4.28992 0
M  V30 1817 C 180.296 -0.286301 5.30428 0
M  V30 1818 C 179.335 0.648079 6.08659 0
M  V30 1819 N 178.472 -0.111792 7.02011 0
M  V30 1820 H 183.312 1.18807 2.73293 0
M  V30 1821 H 180.849 0.597231 1.3443 0
M  V30 1822 H 182.807 -0.897923 4.07423 0
M  V30 1823 H 181.437 -1.23299 2.98324 0
M  V30 1824 H 180.489 1.09533 3.64289 0
M  V30 1825 H 181.801 1.22475 4.8353 0
M  V30 1826 H 180.955 -0.816098 6.01186 0
M  V30 1827 H 179.694 -1.03536 4.76583 0
M  V30 1828 H 178.699 1.18951 5.36778 0
M  V30 1829 H 179.924 1.39623 6.64592 0
M  V30 1830 H 177.87 -0.843395 6.50556 0
M  V30 1831 H 177.787 0.544429 7.54037 0
M  V30 1832 H 179.055 -0.622339 7.77012 0
M  V30 1833 N 183.284 -1.43765 0.645699 0
M  V30 1834 C 184.512 -2.06253 0.163556 0
M  V30 1835 C 184.927 -1.48352 -1.16778 0
M  V30 1836 O 184.284 -0.611932 -1.71935 0
M  V30 1837 C 184.335 -3.61453 0.0583186 0
M  V30 1838 O 184.056 -4.172 1.33702 0
M  V30 1839 C 185.557 -4.41002 -0.450795 0
M  V30 1840 H 182.777 -0.665413 0.0864077 0
M  V30 1841 H 185.321 -1.84396 0.884222 0
M  V30 1842 H 183.476 -3.82522 -0.612865 0
M  V30 1843 H 183.89 -5.10791 1.19131 0
M  V30 1844 H 185.364 -5.49966 -0.473403 0
M  V30 1845 H 185.841 -4.13488 -1.48068 0
M  V30 1846 H 186.447 -4.24886 0.187637 0
M  V30 1847 N 184.763 -0.387143 -1.52771 0
M  V30 1848 C 186.011 0.195349 -2.01154 0
M  V30 1849 C 186.332 1.475 -1.27549 0
M  V30 1850 O 185.602 1.91878 -0.394924 0
M  V30 1851 H 184.182 0.075178 -0.743207 0
M  V30 1852 H 186.844 -0.518337 -1.87881 0
M  V30 1853 H 185.94 0.407096 -3.09434 0
M  V30 1854 N 186.241 1.57166 -0.116904 0
M  V30 1855 C 187.204 2.14039 0.819742 0
M  V30 1856 C 188.204 1.07477 1.19605 0
M  V30 1857 O 189.394 1.33263 1.1219 0
M  V30 1858 C 186.526 2.67891 2.10826 0
M  V30 1859 H 187.719 2.98128 0.325511 0
M  V30 1860 H 185.272 1.55739 0.132312 0
M  V30 1861 H 186.007 1.87384 2.64685 0
M  V30 1862 H 185.792 3.45823 1.84793 0
M  V30 1863 H 187.282 3.11809 2.77785 0
M  V30 1864 N 187.719 -0.156864 1.56817 0
M  V30 1865 C 188.967 -0.869404 1.82444 0
M  V30 1866 C 189.288 -1.82147 0.69623 0
M  V30 1867 O 188.558 -1.93847 -0.28287 0
M  V30 1868 H 187.138 -0.324043 0.673056 0
M  V30 1869 H 189.8 -0.153224 1.94297 0
M  V30 1870 H 188.896 -1.43761 2.77019 0
M  V30 1871 N 189.197 -1.51736 -0.425897 0
M  V30 1872 C 190.107 -1.76738 -1.54275 0
M  V30 1873 C 191.123 -0.65211 -1.61318 0
M  V30 1874 O 192.299 -0.935654 -1.78346 0
M  V30 1875 C 189.364 -1.89755 -2.90162 0
M  V30 1876 C 188.425 -3.13633 -2.93143 0
M  V30 1877 C 187.658 -3.2602 -4.22548 0
M  V30 1878 O 187.881 -2.44067 -5.15546 0
M  V30 1879 O 186.815 -4.19071 -4.32046 0
M  V30 1880 H 190.641 -2.71502 -1.36089 0
M  V30 1881 H 188.226 -1.36376 -0.610069 0
M  V30 1882 H 190.108 -2.00236 -3.70788 0
M  V30 1883 H 188.783 -0.981785 -3.08452 0
M  V30 1884 H 187.69 -3.08622 -2.11431 0
M  V30 1885 H 189.023 -4.04936 -2.798 0
M  V30 1886 N 190.675 0.682077 -1.42076 0
M  V30 1887 C 192.091 0.994324 -1.24841 0
M  V30 1888 C 192.291 2.0096 -0.147389 0
M  V30 1889 O 191.347 2.47822 0.483782 0
M  V30 1890 C 192.66 1.50607 -2.60265 0
M  V30 1891 C 194.208 1.62421 -2.6756 0
M  V30 1892 C 194.683 2.16994 -4.03333 0
M  V30 1893 N 196.174 2.24337 -4.0525 0
M  V30 1894 C 196.909 2.67621 -5.07116 0
M  V30 1895 N 196.405 3.1041 -6.19368 0
M  V30 1896 N 198.198 2.67305 -4.94474 0
M  V30 1897 H 190.349 0.00973908 -2.12398 0
M  V30 1898 H 192.612 0.0668593 -0.945639 0
M  V30 1899 H 192.318 0.834583 -3.41654 0
M  V30 1900 H 192.192 2.48602 -2.83684 0
M  V30 1901 H 194.579 2.28678 -1.86521 0
M  V30 1902 H 194.66 0.629352 -2.47937 0
M  V30 1903 H 194.304 1.51349 -4.84826 0
M  V30 1904 H 194.234 3.17258 -4.20304 0
M  V30 1905 H 196.725 1.94158 -3.24209 0
M  V30 1906 H 197.038 3.42103 -6.92954 0
M  V30 1907 H 195.383 3.08286 -6.22884 0
M  V30 1908 H 198.574 2.33233 -4.05857 0
M  V30 1909 H 198.747 3.00718 -5.73997 0
M  V30 1910 N 192.153 1.28127 0.917671 0
M  V30 1911 C 193.43 1.05761 1.64542 0
M  V30 1912 C 193.81 -0.404344 2.07191 0
M  V30 1913 O 193.158 -1.38963 1.81388 0
M  V30 1914 C 193.368 2.02857 2.83989 0
M  V30 1915 C 194.716 2.32786 3.551 0
M  V30 1916 O 195.74 2.0091 2.94132 0
M  V30 1917 O 194.599 2.87169 4.64969 0
M  V30 1918 H 191.693 0.403916 0.721652 0
M  V30 1919 H 194.239 1.39431 0.967322 0
M  V30 1920 H 193.011 3.01407 2.49538 0
M  V30 1921 H 192.634 1.69809 3.59514 0
M  V30 1922 N 193.631 -1.12557 1.10312 0
M  V30 1923 C 194.877 -1.84311 0.846011 0
M  V30 1924 C 195.21 -1.83805 -0.626859 0
M  V30 1925 O 194.485 -1.28268 -1.46211 0
M  V30 1926 C 194.768 -3.32048 1.39341 0
M  V30 1927 C 194.621 -3.41016 2.93305 0
M  V30 1928 C 195.94 -4.27764 1.03468 0
M  V30 1929 H 193.059 -0.669192 0.30879 0
M  V30 1930 H 195.701 -1.32057 1.36605 0
M  V30 1931 H 193.851 -3.76678 0.951087 0
M  V30 1932 H 195.523 -3.05031 3.46055 0
M  V30 1933 H 193.766 -2.81603 3.29973 0
M  V30 1934 H 194.437 -4.44948 3.26689 0
M  V30 1935 H 196.913 -3.91253 1.41633 0
M  V30 1936 H 195.789 -5.29549 1.44463 0
M  V30 1937 H 196.05 -4.42064 -0.0560404 0
M  V30 1938 N 195.109 -0.891671 -1.2995 0
M  V30 1939 C 196.019 -0.367691 -2.31701 0
M  V30 1940 C 197.035 0.533486 -1.6562 0
M  V30 1941 O 198.211 0.424997 -1.96865 0
M  V30 1942 C 195.276 0.403406 -3.44345 0
M  V30 1943 C 194.337 -0.528328 -4.26037 0
M  V30 1944 C 193.57 0.206063 -5.33302 0
M  V30 1945 O 193.793 1.43119 -5.52153 0
M  V30 1946 O 192.727 -0.447281 -6.00236 0
M  V30 1947 H 196.553 -1.21163 -2.78484 0
M  V30 1948 H 194.138 -0.655725 -1.34241 0
M  V30 1949 H 196.02 0.839753 -4.12948 0
M  V30 1950 H 194.695 1.22354 -2.99685 0
M  V30 1951 H 193.602 -1.01362 -3.60106 0
M  V30 1952 H 194.935 -1.31465 -4.74318 0
M  V30 1953 N 196.587 1.43421 -0.653314 0
M  V30 1954 C 197.836 2.01032 -0.164076 0
M  V30 1955 C 198.149 1.52147 1.22926 0
M  V30 1956 O 199.355 2.02031 1.81371 0
M  V30 1957 C 197.811 3.59082 -0.24252 0
M  V30 1958 C 197.419 4.1696 -1.63855 0
M  V30 1959 C 199.163 4.24079 0.18911 0
M  V30 1960 C 197.07 5.67304 -1.67092 0
M  V30 1961 H 196 0.751798 -0.0575769 0
M  V30 1962 H 198.651 1.6439 -0.815362 0
M  V30 1963 H 197.033 3.93125 0.476276 0
M  V30 1964 H 198.207 3.94416 -2.38271 0
M  V30 1965 H 196.522 3.64335 -2.01616 0
M  V30 1966 H 199.119 5.34381 0.184775 0
M  V30 1967 H 199.462 3.98005 1.22056 0
M  V30 1968 H 199.995 3.94918 -0.477938 0
M  V30 1969 H 196.734 5.98145 -2.68146 0
M  V30 1970 H 196.254 5.91904 -0.970014 0
M  V30 1971 H 197.933 6.31344 -1.4147 0
M  V30 1972 N 198.065 0.39524 1.52563 0
M  V30 1973 C 199.293 -0.184943 2.06072 0
M  V30 1974 C 199.708 -1.40021 1.26647 0
M  V30 1975 O 199.065 -1.79767 0.314672 0
M  V30 1976 C 199.116 -0.549179 3.57304 0
M  V30 1977 O 198.837 0.617813 4.33722 0
M  V30 1978 C 200.338 -1.18459 4.2718 0
M  V30 1979 H 197.558 -0.0265025 0.670476 0
M  V30 1980 H 200.102 0.562184 1.96621 0
M  V30 1981 H 198.257 -1.2462 3.66809 0
M  V30 1982 H 198.671 0.317091 5.23541 0
M  V30 1983 H 200.145 -1.38976 5.34219 0
M  V30 1984 H 200.622 -2.15368 3.82771 0
M  V30 1985 H 201.228 -0.528163 4.22008 0
M  V30 1986 N 199.544 -1.57102 0.125237 0
M  V30 1987 C 200.474 -2.18659 -0.819174 0
M  V30 1988 C 201.455 -1.12843 -1.27281 0
M  V30 1989 O 202.64 -1.41104 -1.33429 0
M  V30 1990 C 199.77 -2.79096 -2.06695 0
M  V30 1991 C 198.724 -3.90548 -1.75088 0
M  V30 1992 C 198.05 -4.37821 -3.06948 0
M  V30 1993 C 199.35 -5.12356 -1.01435 0
M  V30 1994 H 201.044 -2.9783 -0.306202 0
M  V30 1995 H 198.59 -1.4326 -0.145839 0
M  V30 1996 H 200.543 -3.2082 -2.73226 0
M  V30 1997 H 199.267 -1.97223 -2.60328 0
M  V30 1998 H 197.926 -3.49409 -1.10944 0
M  V30 1999 H 197.574 -3.52799 -3.58527 0
M  V30 2000 H 197.274 -5.12982 -2.86571 0
M  V30 2001 H 198.798 -4.822 -3.74587 0
M  V30 2002 H 200.212 -5.5106 -1.58132 0
M  V30 2003 H 198.609 -5.9314 -0.911319 0
M  V30 2004 H 199.679 -4.849 -0.00218681 0
M  V30 2005 N 201.022 0.148545 -1.56898 0
M  V30 2006 C 202.27 0.859717 -1.82902 0
M  V30 2007 C 202.591 1.81775 -0.70588 0
M  V30 2008 O 201.861 1.93994 0.272586 0
M  V30 2009 H 200.441 0.320469 -0.674766 0
M  V30 2010 H 203.103 0.142918 -1.94375 0
M  V30 2011 H 202.199 1.4229 -2.77777 0
M  V30 2012 N 202.5 1.5196 0.417844 0
M  V30 2013 C 203.748 1.65263 1.16329 0
M  V30 2014 C 204.069 0.380634 1.91249 0
M  V30 2015 O 203.339 -0.604214 1.86349 0
M  V30 2016 H 201.919 0.60912 0.432414 0
M  V30 2017 H 204.581 1.88969 0.477162 0
M  V30 2018 H 203.677 2.4896 1.88217 0
M  V30 2019 N 203.978 -0.674533 1.42435 0
M  V30 2020 C 205.224 -1.43671 1.43131 0
M  V30 2021 C 205.557 -1.94142 0.0476021 0
M  V30 2022 O 204.832 -1.70924 -0.928188 0
M  V30 2023 C 205.115 -2.63355 2.45594 0
M  V30 2024 C 204.968 -2.18514 3.93156 0
M  V30 2025 C 206.287 -3.65571 2.45043 0
M  V30 2026 H 203.406 -0.521077 0.521198 0
M  V30 2027 H 206.048 -0.766551 1.7385 0
M  V30 2028 H 204.198 -3.2053 2.19528 0
M  V30 2029 H 205.87 -1.66504 4.30202 0
M  V30 2030 H 204.113 -1.50086 4.07009 0
M  V30 2031 H 204.784 -3.04484 4.60428 0
M  V30 2032 H 207.26 -3.18113 2.68223 0
M  V30 2033 H 206.136 -4.46893 3.18713 0
M  V30 2034 H 206.397 -4.16716 1.47649 0
M  V30 2035 N 205.456 -1.28612 -0.910864 0
M  V30 2036 C 206.684 -1.18792 -1.69399 0
M  V30 2037 C 207.099 0.253039 -1.87097 0
M  V30 2038 O 206.456 1.17071 -1.40003 0
M  V30 2039 C 206.507 -1.88511 -3.08457 0
M  V30 2040 O 206.228 -3.26979 -2.91576 0
M  V30 2041 C 207.729 -1.85029 -4.02839 0
M  V30 2042 H 204.949 -0.412233 -0.529438 0
M  V30 2043 H 207.493 -1.69788 -1.13984 0
M  V30 2044 H 205.648 -1.41379 -3.60681 0
M  V30 2045 H 206.062 -3.61936 -3.79608 0
M  V30 2046 H 207.536 -2.38395 -4.97867 0
M  V30 2047 H 208.013 -0.823303 -4.31414 0
M  V30 2048 H 208.619 -2.31853 -3.56545 0
M  V30 2049 N 206.934 1.1197 -1.10907 0
M  V30 2050 C 208.181 1.83588 -0.854507 0
M  V30 2051 C 208.509 1.84357 0.6199 0
M  V30 2052 O 207.764 1.28809 1.47332 0
M  V30 2053 C 208.063 3.30749 -1.35425 0
M  V30 2054 C 207.729 3.50146 -2.84093 0
M  V30 2055 C 206.391 3.55148 -3.2469 0
M  V30 2056 C 208.743 3.56857 -3.79872 0
M  V30 2057 C 206.071 3.6441 -4.59806 0
M  V30 2058 C 208.423 3.6765 -5.14797 0
M  V30 2059 C 207.087 3.7091 -5.54961 0
M  V30 2060 H 206.357 0.671795 -0.312686 0
M  V30 2061 H 209.004 1.32091 -1.38652 0
M  V30 2062 H 207.309 3.84703 -0.742361 0
M  V30 2063 H 209.006 3.8464 -1.1337 0
M  V30 2064 H 205.596 3.46919 -2.51685 0
M  V30 2065 H 209.78 3.52258 -3.49611 0
M  V30 2066 H 205.036 3.65208 -4.9034 0
M  V30 2067 H 209.21 3.71786 -5.88853 0
M  V30 2068 H 206.837 3.7784 -6.59652 0
M  V30 2069 N 208.412 0.89855 1.29475 0
M  V30 2070 C 209.658 0.524658 1.95896 0
M  V30 2071 C 209.991 -0.926468 1.70676 0
M  V30 2072 O 209.266 -1.65665 1.01908 0
M  V30 2073 C 209.549 0.81633 3.50725 0
M  V30 2074 C 209.402 2.31907 3.85408 0
M  V30 2075 C 210.721 0.302038 4.39062 0
M  V30 2076 H 207.84 0.19209 0.711527 0
M  V30 2077 H 210.482 1.12502 1.53112 0
M  V30 2078 H 208.632 0.305369 3.87298 0
M  V30 2079 H 210.304 2.89949 3.58786 0
M  V30 2080 H 208.547 2.78027 3.32992 0
M  V30 2081 H 209.218 2.47373 4.93468 0
M  V30 2082 H 211.694 0.739551 4.09475 0
M  V30 2083 H 210.57 0.535331 5.46283 0
M  V30 2084 H 210.831 -0.797216 4.34853 0
M  V30 2085 N 209.89 -1.43072 0.660911 0
M  V30 2086 C 211.301 -1.84932 0.256348 0
M  V30 2087 C 211.652 -1.55325 -1.19868 0
M  V30 2088 O 210.777 -1.00607 -1.91591 0
M  V30 2089 C 211.372 -3.35684 0.458475 0
M  V30 2090 C 209.931 -3.76245 0.108161 0
M  V30 2091 C 209.078 -2.66749 0.757641 0
M  V30 2092 H 212.029 -1.33116 0.864051 0
M  V30 2093 H 212.05 -3.79365 -0.293683 0
M  V30 2094 H 211.562 -3.572 1.51755 0
M  V30 2095 H 209.663 -3.60338 -0.948014 0
M  V30 2096 H 209.776 -4.76058 0.538992 0
M  V30 2097 H 208.14 -2.53989 0.190185 0
M  V30 2098 H 208.923 -2.91092 1.81989 0
M  V30 2099 N 211.368 -0.403325 -1.52352 0
M  V30 2100 C 212.616 0.174003 -2.0135 0
M  V30 2101 C 212.937 1.46139 -1.29106 0
M  V30 2102 O 212.207 1.91448 -0.415253 0
M  V30 2103 H 210.787 0.0672911 -0.743963 0
M  V30 2104 H 213.449 -0.538235 -1.87321 0
M  V30 2105 H 212.545 0.374254 -3.09848 0
M  V30 2106 N 212.846 1.57033 -0.133567 0
M  V30 2107 C 214.123 1.87256 0.56522 0
M  V30 2108 C 214.503 1.03726 1.83859 0
M  V30 2109 O 213.851 0.120247 2.28183 0
M  V30 2110 C 214.061 3.3865 0.843636 0
M  V30 2111 C 215.409 4.07574 1.19032 0
M  V30 2112 O 216.433 3.43752 0.933429 0
M  V30 2113 O 215.292 5.20259 1.67312 0
M  V30 2114 H 212.386 0.775678 0.286796 0
M  V30 2115 H 214.932 1.68855 -0.169168 0
M  V30 2116 H 213.704 3.91257 -0.0581149 0
M  V30 2117 H 213.327 3.62532 1.63268 0
M  V30 2118 N 214.325 -0.140222 1.56975 0
M  V30 2119 C 215.574 -0.850152 1.82908 0
M  V30 2120 C 215.887 -1.82028 0.715892 0
M  V30 2121 O 217.093 -2.57485 0.861016 0
M  V30 2122 C 215.549 -1.5625 3.24213 0
M  V30 2123 C 215.157 -0.63443 4.43485 0
M  V30 2124 C 216.901 -2.25881 3.59413 0
M  V30 2125 C 214.808 -1.34879 5.75814 0
M  V30 2126 H 213.738 -0.321221 0.682153 0
M  V30 2127 H 216.389 -0.102874 1.83211 0
M  V30 2128 H 214.771 -2.35565 3.18316 0
M  V30 2129 H 215.945 0.12398 4.60633 0
M  V30 2130 H 214.26 -0.0461836 4.16374 0
M  V30 2131 H 216.857 -2.79978 4.5554 0
M  V30 2132 H 217.2 -3.02693 2.85802 0
M  V30 2133 H 217.733 -1.53477 3.67001 0
M  V30 2134 H 214.472 -0.622385 6.52539 0
M  V30 2135 H 213.992 -2.07974 5.6259 0
M  V30 2136 H 215.671 -1.88784 6.18845 0
M  V30 2137 N 215.803 -1.52179 -0.40978 0
M  V30 2138 C 216.766 -1.74853 -1.48186 0
M  V30 2139 C 217.766 -0.618417 -1.48433 0
M  V30 2140 O 218.956 -0.886286 -1.49969 0
M  V30 2141 C 216.088 -1.8303 -2.87598 0
M  V30 2142 H 217.281 -2.70559 -1.29374 0
M  V30 2143 H 214.834 -1.42586 -0.640233 0
M  V30 2144 H 215.569 -0.89236 -3.11781 0
M  V30 2145 H 215.354 -2.65187 -2.88822 0
M  V30 2146 H 216.844 -2.02316 -3.65319 0
M  V30 2147 N 217.281 0.66697 -1.42791 0
M  V30 2148 C 218.511 1.45294 -1.46878 0
M  V30 2149 C 218.919 1.89027 -0.0809861 0
M  V30 2150 O 218.262 1.59219 0.916246 0
M  V30 2151 C 218.324 2.72908 -2.34012 0
M  V30 2152 C 217.988 2.51203 -3.81767 0
M  V30 2153 C 218.985 2.15302 -4.73224 0
M  V30 2154 C 216.67 2.65954 -4.26115 0
M  V30 2155 C 218.664 1.94431 -6.07022 0
M  V30 2156 C 216.351 2.44699 -5.59969 0
M  V30 2157 C 217.349 2.08992 -6.5024 0
M  V30 2158 O 217.037 1.87948 -7.81621 0
M  V30 2159 H 216.769 0.453306 -0.501487 0
M  V30 2160 H 219.323 0.826232 -1.88049 0
M  V30 2161 H 217.553 3.38089 -1.87703 0
M  V30 2162 H 219.242 3.34816 -2.29462 0
M  V30 2163 H 220.008 2.03495 -4.40244 0
M  V30 2164 H 215.887 2.92724 -3.56137 0
M  V30 2165 H 219.431 1.66484 -6.77443 0
M  V30 2166 H 215.328 2.56105 -5.9252 0
M  V30 2167 H 216.096 2.02483 -7.93059 0
M  V30 2168 N 218.759 1.29093 0.90403 0
M  V30 2169 C 219.984 1.19809 1.69294 0
M  V30 2170 C 220.409 -0.238481 1.86582 0
M  V30 2171 O 219.767 -1.1723 1.383 0
M  V30 2172 C 219.815 1.91202 3.05736 0
M  V30 2173 O 218.919 1.22611 3.93752 0
M  V30 2174 H 218.26 0.415385 0.518027 0
M  V30 2175 H 220.79 1.70586 1.12967 0
M  V30 2176 H 220.8 1.99487 3.55906 0
M  V30 2177 H 219.475 2.95692 2.92471 0
M  V30 2178 H 218.052 1.22554 3.52186 0
M  V30 2179 N 220.237 -1.11381 1.11499 0
M  V30 2180 C 221.514 -1.7955 0.775965 0
M  V30 2181 C 221.894 -1.97859 -0.73588 0
M  V30 2182 O 221.242 -1.56376 -1.66609 0
M  V30 2183 C 221.452 -3.13196 1.53977 0
M  V30 2184 C 222.8 -3.88227 1.71944 0
M  V30 2185 O 223.824 -3.22887 1.50407 0
M  V30 2186 O 222.683 -5.05477 2.07738 0
M  V30 2187 H 219.777 -0.777728 0.28119 0
M  V30 2188 H 222.323 -1.18118 1.21845 0
M  V30 2189 H 221.095 -2.95229 2.56818 0
M  V30 2190 H 220.718 -3.82342 1.09088 0
M  V30 2191 N 221.715 -0.905404 -1.28997 0
M  V30 2192 C 222.992 -0.453513 -1.9027 0
M  V30 2193 C 223.372 1.06721 -1.82137 0
M  V30 2194 O 222.72 1.91159 -1.25182 0
M  V30 2195 C 222.93 -0.974494 -3.35119 0
M  V30 2196 C 224.278 -1.0216 -4.12127 0
M  V30 2197 O 225.302 -0.922557 -3.44046 0
M  V30 2198 O 224.161 -1.17121 -5.33802 0
M  V30 2199 H 221.255 -0.142347 -0.814657 0
M  V30 2200 H 223.801 -0.995642 -1.37423 0
M  V30 2201 H 222.573 -2.01848 -3.35221 0
M  V30 2202 H 222.196 -0.412706 -3.95452 0
M  V30 2203 N 223.193 1.4272 -0.668489 0
M  V30 2204 C 224.47 1.95248 -0.117373 0
M  V30 2205 C 224.85 1.60919 1.36632 0
M  V30 2206 O 224.198 0.902095 2.09939 0
M  V30 2207 C 224.408 3.46927 -0.379806 0
M  V30 2208 C 225.756 4.23588 -0.292923 0
M  V30 2209 O 226.78 3.5482 -0.313204 0
M  V30 2210 O 225.639 5.46017 -0.229697 0
M  V30 2211 H 222.733 0.827 0.00079152 0
M  V30 2212 H 225.279 1.52581 -0.742783 0
M  V30 2213 H 224.051 3.65096 -1.40786 0
M  V30 2214 H 223.674 3.96627 0.277923 0
M  V30 2215 N 224.671 0.411399 1.52136 0
M  V30 2216 C 225.919 -0.163322 2.01439 0
M  V30 2217 C 226.24 -1.45453 1.29879 0
M  V30 2218 O 225.51 -1.91225 0.4254 0
M  V30 2219 H 224.09 -0.0633447 0.744309 0
M  V30 2220 H 226.752 0.548161 1.87033 0
M  V30 2221 H 225.848 -0.357817 3.10042 0
M  V30 2222 N 226.149 -1.5696 0.141893 0
M  V30 2223 C 227.398 -1.95135 -0.510427 0
M  V30 2224 C 227.711 -1.02896 -1.66348 0
M  V30 2225 O 228.917 -1.30629 -2.38009 0
M  V30 2226 C 227.373 -3.46876 -0.959427 0
M  V30 2227 C 226.981 -4.47691 0.166419 0
M  V30 2228 C 228.725 -3.93927 -1.58183 0
M  V30 2229 C 226.632 -5.90636 -0.300565 0
M  V30 2230 H 225.562 -0.728494 -0.194454 0
M  V30 2231 H 228.213 -1.8211 0.22542 0
M  V30 2232 H 226.595 -3.55215 -1.75038 0
M  V30 2233 H 227.769 -4.51043 0.94325 0
M  V30 2234 H 226.084 -4.10527 0.696905 0
M  V30 2235 H 228.681 -4.98158 -1.94275 0
M  V30 2236 H 229.024 -3.3519 -2.46888 0
M  V30 2237 H 229.557 -3.88484 -0.855863 0
M  V30 2238 H 226.296 -6.5318 0.550989 0
M  V30 2239 H 225.816 -5.90655 -1.04338 0
M  V30 2240 H 227.495 -6.42588 -0.754265 0
M  V30 2241 N 227.627 0.131896 -1.57047 0
M  V30 2242 C 228.876 0.84044 -1.83356 0
M  V30 2243 C 229.189 1.81646 -0.725535 0
M  V30 2244 O 230.395 2.57025 -0.874659 0
M  V30 2245 C 228.851 1.54528 -3.25037 0
M  V30 2246 C 228.459 0.610902 -4.43815 0
M  V30 2247 C 230.203 2.23972 -3.60606 0
M  V30 2248 C 228.11 1.31823 -5.76521 0
M  V30 2249 H 227.04 0.317599 -0.683847 0
M  V30 2250 H 229.691 0.0931561 -1.83263 0
M  V30 2251 H 228.073 2.33873 -3.19561 0
M  V30 2252 H 229.247 -0.148407 -4.60561 0
M  V30 2253 H 227.562 0.0241016 -4.16393 0
M  V30 2254 H 230.159 2.77558 -4.57018 0
M  V30 2255 H 230.502 3.01173 -2.87403 0
M  V30 2256 H 231.035 1.51529 -3.6781 0
M  V30 2257 H 227.774 0.587771 -6.52859 0
M  V30 2258 H 227.294 2.04987 -5.63685 0
M  V30 2259 H 228.973 1.855 -6.19838 0
M  V30 2260 N 229.106 1.52395 0.401703 0
M  V30 2261 C 230.352 1.67065 1.14966 0
M  V30 2262 C 230.685 0.403052 1.89971 0
M  V30 2263 O 229.96 -0.598774 1.85054 0
M  V30 2264 C 230.243 2.8975 2.13815 0
M  V30 2265 C 230.096 4.26578 1.42658 0
M  V30 2266 C 231.415 3.07965 3.14397 0
M  V30 2267 H 228.534 0.607968 0.416587 0
M  V30 2268 H 231.176 1.84965 0.434511 0
M  V30 2269 H 229.326 2.74619 2.74803 0
M  V30 2270 H 230.998 4.53451 0.847329 0
M  V30 2271 H 229.241 4.27639 0.72849 0
M  V30 2272 H 229.912 5.08483 2.14823 0
M  V30 2273 H 232.388 3.22043 2.63491 0
M  V30 2274 H 231.264 3.95308 3.80819 0
M  V30 2275 H 231.525 2.21611 3.82545 0
M  V30 2276 N 230.584 -0.659388 1.43143 0
M  V30 2277 C 231.83 -1.42145 1.44647 0
M  V30 2278 C 232.163 -1.9408 0.0681907 0
M  V30 2279 O 231.438 -1.71899 -0.910007 0
M  V30 2280 C 231.721 -2.60735 2.48373 0
M  V30 2281 C 231.574 -2.14332 3.95451 0
M  V30 2282 C 232.893 -3.62951 2.48906 0
M  V30 2283 H 230.012 -0.51552 0.526696 0
M  V30 2284 H 232.654 -0.748069 1.74654 0
M  V30 2285 H 230.804 -3.18184 2.22916 0
M  V30 2286 H 232.476 -1.61932 4.31944 0
M  V30 2287 H 230.719 -1.4576 4.08578 0
M  V30 2288 H 231.39 -2.99583 4.63631 0
M  V30 2289 H 233.866 -3.1525 2.71582 0
M  V30 2290 H 232.742 -4.43487 3.23435 0
M  V30 2291 H 233.003 -4.15126 1.52061 0
M  V30 2292 O 232.101 -1.40162 -0.802292 0
M  V30 2293 H 232.792 -1.28727 -1.44738 0
M  V30 END ATOM
M  V30 BEGIN BOND
M  V30 END BOND
M  V30 END CTAB
M  END
$$$$
