drugbank_target|O95622 Adenylate cyclase type 5 (DB02587; DB06843; DB09121)
 OpenBabel12092120373D

  0  0  0     0  0            999 V3000
M  V30 BEGIN CTAB
M  V30 COUNTS 19473 19667 0 0 0
M  V30 BEGIN ATOM
M  V30 1 H -0.908 1.98254 -0.117106 0
M  V30 2 N 0 1.576 0 0
M  V30 3 C 0.933 2.03868 1.02534 0
M  V30 4 C 1.911 0.928543 1.3348 0
M  V30 5 O 3.095 1.19667 1.45644 0
M  V30 6 C 0.222 2.43627 2.35294 0
M  V30 7 C -0.732 3.65373 2.2001 0
M  V30 8 S 0.101 5.13292 1.52614 0
M  V30 9 C 1.257 5.56322 2.86805 0
M  V30 10 H 1.49 2.90518 0.631377 0
M  V30 11 H -0.977 1.52953 0.210867 0
M  V30 12 H 0.981 2.67203 3.11629 0
M  V30 13 H -0.358 1.57376 2.7183 0
M  V30 14 H -1.165 3.90944 3.18086 0
M  V30 15 H -1.563 3.418 1.51819 0
M  V30 16 H 0.729 5.58782 3.83104 0
M  V30 17 H 1.672 6.56266 2.65933 0
M  V30 18 H 2.08 4.83886 2.90714 0
M  V30 19 N 1.4781 -0.272755 1.55222 0
M  V30 20 C 2.7031 -1.02683 1.80197 0
M  V30 21 C 3.1281 -1.79142 0.573551 0
M  V30 22 O 2.4861 -1.74917 -0.476849 0
M  V30 23 C 2.5341 -1.9609 3.02624 0
M  V30 24 O 1.6381 -3.04863 2.77727 0
M  V30 25 H 0.9791 -0.293557 0.595584 0
M  V30 26 H 3.5091 -0.30159 2.02365 0
M  V30 27 H 3.5191 -2.38039 3.31363 0
M  V30 28 H 2.1941 -1.39851 3.91682 0
M  V30 29 H 0.7711 -2.67228 2.60084 0
M  V30 30 N 2.9562 -1.48159 -0.537278 0
M  V30 31 C 4.2042 -1.55497 -1.29094 0
M  V30 32 C 4.5252 -0.227454 -1.93669 0
M  V30 33 O 3.7952 0.750386 -1.80959 0
M  V30 34 H 2.3752 -0.572832 -0.47945 0
M  V30 35 H 5.0372 -1.84579 -0.625818 0
M  V30 36 H 4.1332 -2.33216 -2.07405 0
M  V30 37 N 4.4343 0.785586 -1.36625 0
M  V30 38 C 5.6593 1.57963 -1.34397 0
M  V30 39 C 6.0843 1.87964 0.071526 0
M  V30 40 O 5.4423 1.48182 1.0446 0
M  V30 41 C 5.4903 2.87511 -2.17646 0
M  V30 42 O 4.5943 3.81281 -1.57158 0
M  V30 43 H 3.9353 0.479014 -0.459828 0
M  V30 44 H 6.4653 0.973411 -1.79961 0
M  V30 45 H 6.4753 3.36745 -2.30362 0
M  V30 46 H 5.1503 2.65002 -3.20541 0
M  V30 47 H 3.7273 3.39885 -1.53403 0
M  V30 48 N 5.9124 1.20967 1.01018 0
M  V30 49 C 6.8594 0.964281 2.09691 0
M  V30 50 C 7.8294 -0.107853 1.65749 0
M  V30 51 O 9.0144 0.0381987 1.90762 0
M  V30 52 C 6.1544 0.52943 3.41015 0
M  V30 53 C 5.2674 1.67043 3.98398 0
M  V30 54 C 4.4024 1.18525 5.17808 0
M  V30 55 C 3.4414 2.29892 5.67288 0
M  V30 56 N 2.5784 1.82546 6.77954 0
M  V30 57 H 7.4184 1.89463 2.30017 0
M  V30 58 H 4.9554 0.944289 1.1279 0
M  V30 59 H 6.9134 0.258588 4.16398 0
M  V30 60 H 5.5434 -0.363919 3.20742 0
M  V30 61 H 4.5954 2.05603 3.20049 0
M  V30 62 H 5.9074 2.50877 4.31117 0
M  V30 63 H 5.0614 0.870762 6.00419 0
M  V30 64 H 3.8004 0.316887 4.86669 0
M  V30 65 H 2.8054 2.6215 4.83278 0
M  V30 66 H 4.0304 3.17216 6.00459 0
M  V30 67 H 1.9764 0.980454 6.48632 0
M  V30 68 H 1.8934 2.59956 7.09901 0
M  V30 69 H 3.1614 1.54115 7.64113 0
M  V30 70 N 7.3905 -1.2043 1.01659 0
M  V30 71 C 8.6155 -1.94318 0.724942 0
M  V30 72 C 9.0405 -1.74266 -0.708034 0
M  V30 73 O 8.3985 -1.03694 -1.48719 0
M  V30 74 C 8.4465 -3.44486 1.06591 0
M  V30 75 O 7.5505 -4.12017 0.177599 0
M  V30 76 H 6.8915 -0.60708 0.26898 0
M  V30 77 H 9.4215 -1.52861 1.35995 0
M  V30 78 H 9.4315 -3.95106 1.01762 0
M  V30 79 H 8.1065 -3.58404 2.10997 0
M  V30 80 H 6.6835 -3.71821 0.283421 0
M  V30 81 N 8.8686 -0.792821 -1.36206 0
M  V30 82 C 10.1146 -0.36733 -1.99446 0
M  V30 83 C 10.4476 1.05917 -1.62774 0
M  V30 84 O 9.7226 1.7324 -0.88421 0
M  V30 85 C 10.0056 -0.535044 -3.56103 0
M  V30 86 C 9.8586 -2.00548 -4.02617 0
M  V30 87 C 11.1776 0.0478191 -4.40074 0
M  V30 88 H 8.2966 -0.134941 -0.724541 0
M  V30 89 H 10.9386 -0.999794 -1.61568 0
M  V30 90 H 9.0886 0.00336329 -3.885 0
M  V30 91 H 10.7606 -2.60521 -3.80692 0
M  V30 92 H 9.0036 -2.50686 -3.54032 0
M  V30 93 H 9.6746 -2.07377 -5.11565 0
M  V30 94 H 12.1506 -0.411822 -4.14057 0
M  V30 95 H 11.0266 -0.0995336 -5.4881 0
M  V30 96 H 11.2876 1.14025 -4.27142 0
M  V30 97 N 10.3467 1.47872 -0.545128 0
M  V30 98 C 11.5717 2.07391 -0.0190611 0
M  V30 99 C 11.9967 1.39688 1.25971 0
M  V30 100 O 11.3547 0.467816 1.7516 0
M  V30 101 C 11.4027 3.60188 0.172335 0
M  V30 102 O 10.5067 3.9339 1.23766 0
M  V30 103 H 9.8477 0.662411 -0.0459059 0
M  V30 104 H 12.3777 1.90066 -0.757365 0
M  V30 105 H 12.3877 4.06129 0.390305 0
M  V30 106 H 11.0627 4.08865 -0.761725 0
M  V30 107 H 9.6397 3.5921 1.00114 0
M  V30 108 N 11.8248 0.280983 1.55075 0
M  V30 109 C 13.2358 -0.215629 1.85451 0
M  V30 110 C 13.5868 -1.54991 1.203 0
M  V30 111 O 12.7118 -2.10699 0.493435 0
M  V30 112 C 13.3068 -0.398026 3.36454 0
M  V30 113 C 11.8658 -0.838866 3.66933 0
M  V30 114 C 11.0128 0.064458 2.77225 0
M  V30 115 H 13.9638 0.502601 1.50531 0
M  V30 116 H 13.9848 -1.23569 3.59876 0
M  V30 117 H 13.4968 0.573241 3.83843 0
M  V30 118 H 11.5978 -1.8214 3.25048 0
M  V30 119 H 11.7108 -0.672123 4.74362 0
M  V30 120 H 10.0748 -0.452863 2.50642 0
M  V30 121 H 10.8578 1.03172 3.2743 0
M  V30 122 N 13.3029 -1.57598 0.00835791 0
M  V30 123 C 14.7139 -1.7892 -0.53333 0
M  V30 124 C 15.0649 -0.916609 -1.73473 0
M  V30 125 O 14.1899 -0.121336 -2.1606 0
M  V30 126 C 14.7849 -3.24488 -0.974313 0
M  V30 127 C 13.3439 -3.46878 -1.46125 0
M  V30 128 C 12.4909 -2.74157 -0.416302 0
M  V30 129 H 15.4419 -1.56958 0.234495 0
M  V30 130 H 15.4629 -3.3306 -1.83988 0
M  V30 131 H 14.9749 -3.87972 -0.099718 0
M  V30 132 H 13.0759 -2.8862 -2.35646 0
M  V30 133 H 13.1889 -4.55572 -1.48295 0
M  V30 134 H 11.5529 -2.39022 -0.87981 0
M  V30 135 H 12.3359 -3.40345 0.44947 0
M  V30 136 N 14.781 0.264519 -1.55364 0
M  V30 137 C 16.029 0.993021 -1.76021 0
M  V30 138 C 16.35 1.86511 -0.569099 0
M  V30 139 O 15.62 1.91438 0.415735 0
M  V30 140 H 14.2 0.369639 -0.649135 0
M  V30 141 H 16.862 0.286707 -1.9278 0
M  V30 142 H 15.958 1.62502 -2.66457 0
M  V30 143 N 16.2591 1.48442 0.529413 0
M  V30 144 C 17.4891 1.59919 1.30804 0
M  V30 145 C 17.8971 0.258792 1.87422 0
M  V30 146 O 17.2401 -0.762096 1.67146 0
M  V30 147 C 17.3021 2.58693 2.49636 0
M  V30 148 C 16.9661 4.03745 2.14101 0
M  V30 149 C 17.9631 4.9141 1.6974 0
M  V30 150 C 15.6481 4.49285 2.24607 0
M  V30 151 C 17.6421 6.22645 1.36351 0
M  V30 152 C 15.3291 5.8054 1.9083 0
M  V30 153 C 16.3271 6.67043 1.46773 0
M  V30 154 O 16.0151 7.95856 1.1344 0
M  V30 155 H 15.7471 0.541981 0.404021 0
M  V30 156 H 18.3011 1.95 0.645309 0
M  V30 157 H 16.5311 2.18734 3.18892 0
M  V30 158 H 18.2201 2.59999 3.11698 0
M  V30 159 H 18.9861 4.57465 1.61094 0
M  V30 160 H 14.8651 3.82142 2.57854 0
M  V30 161 H 18.4091 6.90119 1.01891 0
M  V30 162 H 14.3061 6.14022 1.99117 0
M  V30 163 H 15.0741 8.08613 1.26832 0
M  V30 164 N 17.7372 -0.778329 1.37039 0
M  V30 165 C 18.7002 -1.87301 1.32102 0
M  V30 166 C 19.7002 -1.59198 0.226405 0
M  V30 167 O 20.8902 -1.67403 0.481861 0
M  V30 168 C 18.0222 -3.24309 1.05055 0
M  V30 169 H 19.2152 -1.93093 2.29467 0
M  V30 170 H 16.7682 -0.977358 1.21973 0
M  V30 171 H 17.5032 -3.24196 0.0819373 0
M  V30 172 H 17.2882 -3.46098 1.84279 0
M  V30 173 H 18.7782 -4.04382 1.04234 0
M  V30 174 N 19.2153 -1.21501 -1.00376 0
M  V30 175 C 20.1783 -0.976927 -2.07337 0
M  V30 176 C 21.1783 0.0525322 -1.60714 0
M  V30 177 O 22.3683 -0.184869 -1.73216 0
M  V30 178 C 19.5003 -0.473423 -3.37597 0
M  V30 179 H 20.6933 -1.92587 -2.29892 0
M  V30 180 H 18.2463 -1.03217 -1.17371 0
M  V30 181 H 18.9813 0.480379 -3.20722 0
M  V30 182 H 18.7663 -1.216 -3.72768 0
M  V30 183 H 20.2563 -0.32675 -4.1632 0
M  V30 184 N 20.6934 1.19889 -1.02296 0
M  V30 185 C 21.6254 2.22334 -0.556787 0
M  V30 186 C 22.6384 1.58674 0.364199 0
M  V30 187 O 23.8274 1.77768 0.161533 0
M  V30 188 C 20.9274 3.38257 0.208694 0
M  V30 189 C 20.1004 4.31504 -0.71577 0
M  V30 190 C 19.1594 5.262 0.00325597 0
M  V30 191 O 18.1854 5.65798 -0.621357 0
M  V30 192 N 19.3874 5.66303 1.27599 0
M  V30 193 H 22.1524 2.62957 -1.43784 0
M  V30 194 H 19.7134 1.34495 -0.901261 0
M  V30 195 H 21.7054 3.98616 0.699111 0
M  V30 196 H 20.2754 2.96472 0.991102 0
M  V30 197 H 19.4954 3.69016 -1.38638 0
M  V30 198 H 20.7834 4.9072 -1.34428 0
M  V30 199 H 20.1814 5.36155 1.80429 0
M  V30 200 H 18.7384 6.28942 1.71102 0
M  V30 201 N 22.1715 0.800033 1.35784 0
M  V30 202 C 23.1185 0.203848 2.29898 0
M  V30 203 C 24.0885 -0.658375 1.52495 0
M  V30 204 O 25.2735 -0.604832 1.8096 0
M  V30 205 C 22.4135 -0.64688 3.38983 0
M  V30 206 C 21.5265 0.235054 4.3136 0
M  V30 207 C 20.6615 -0.623054 5.27533 0
M  V30 208 C 19.7005 0.259682 6.11549 0
M  V30 209 N 18.8375 -0.558019 6.99879 0
M  V30 210 H 23.6775 1.01186 2.80295 0
M  V30 211 H 21.2145 0.51053 1.37957 0
M  V30 212 H 23.1725 -1.15521 4.00887 0
M  V30 213 H 21.8025 -1.42021 2.89879 0
M  V30 214 H 20.8545 0.861438 3.70518 0
M  V30 215 H 22.1665 0.914768 4.9034 0
M  V30 216 H 21.3205 -1.19678 5.94779 0
M  V30 217 H 20.0595 -1.33636 4.69034 0
M  V30 218 H 19.0645 0.845726 5.43256 0
M  V30 219 H 20.2895 0.970748 6.72126 0
M  V30 220 H 18.2355 -1.25542 6.43875 0
M  V30 221 H 18.1525 0.0637872 7.55973 0
M  V30 222 H 19.4205 -1.11523 7.71481 0
M  V30 223 N 23.6496 -1.47581 0.552962 0
M  V30 224 C 24.8776 -2.06875 0.0320556 0
M  V30 225 C 25.2926 -1.40625 -1.25976 0
M  V30 226 O 24.6496 -0.501349 -1.75479 0
M  V30 227 C 24.7006 -3.61092 -0.17167 0
M  V30 228 O 24.4216 -4.24858 1.06899 0
M  V30 229 C 25.9226 -4.37242 -0.730344 0
M  V30 230 H 23.1426 -0.669561 0.043915 0
M  V30 231 H 25.6866 -1.89646 0.765163 0
M  V30 232 H 23.8416 -3.7785 -0.854894 0
M  V30 233 H 24.2556 -5.17334 0.864059 0
M  V30 234 H 25.7296 -5.45842 -0.822203 0
M  V30 235 H 26.2066 -4.03235 -1.74064 0
M  V30 236 H 26.8126 -4.25219 -0.0829543 0
M  V30 237 N 25.1277 -0.289203 -1.54924 0
M  V30 238 C 26.0907 0.579144 -2.21762 0
M  V30 239 C 27.0907 1.07047 -1.1999 0
M  V30 240 O 28.2807 0.968384 -1.44803 0
M  V30 241 C 25.4127 1.80055 -2.8947 0
M  V30 242 H 26.6057 -0.00464908 -2.999 0
M  V30 243 H 24.1587 -0.0399306 -1.56249 0
M  V30 244 H 24.8937 2.42449 -2.15381 0
M  V30 245 H 24.6787 1.45602 -3.64064 0
M  V30 246 H 26.1687 2.41773 -3.40493 0
M  V30 247 N 26.6058 1.57591 -0.0167156 0
M  V30 248 C 27.5688 2.08393 0.954204 0
M  V30 249 C 28.5688 0.996531 1.26198 0
M  V30 250 O 29.7588 1.25858 1.20438 0
M  V30 251 C 26.8908 2.5394 2.27436 0
M  V30 252 H 28.0838 2.95455 0.514451 0
M  V30 253 H 25.6368 1.54582 0.231089 0
M  V30 254 H 26.3718 1.70171 2.76066 0
M  V30 255 H 26.1568 3.33371 2.06412 0
M  V30 256 H 27.6468 2.93512 2.97053 0
M  V30 257 N 28.0839 -0.256276 1.55502 0
M  V30 258 C 29.4949 -0.826068 1.67431 0
M  V30 259 C 29.8459 -1.86396 0.612446 0
M  V30 260 O 28.9709 -2.15031 -0.243025 0
M  V30 261 C 29.5659 -1.50512 3.03532 0
M  V30 262 C 28.1249 -2.02273 3.17431 0
M  V30 263 C 27.2719 -0.870548 2.63281 0
M  V30 264 H 30.2229 -0.0322728 1.58667 0
M  V30 265 H 30.2439 -2.37279 2.97454 0
M  V30 266 H 29.7559 -0.749484 3.80794 0
M  V30 267 H 27.8569 -2.80746 2.44974 0
M  V30 268 H 27.9699 -2.22655 4.24219 0
M  V30 269 H 26.3339 -1.26851 2.20864 0
M  V30 270 H 27.1169 -0.128149 3.43061 0
M  V30 271 N 29.562 -1.4872 -0.521534 0
M  V30 272 C 30.525 -1.63379 -1.60748 0
M  V30 273 C 31.525 -0.50661 -1.52611 0
M  V30 274 O 32.715 -0.772601 -1.5613 0
M  V30 275 C 29.847 -1.61192 -3.00383 0
M  V30 276 H 31.04 -2.60217 -1.49087 0
M  V30 277 H 28.593 -1.37444 -0.744235 0
M  V30 278 H 29.328 -0.65863 -3.17541 0
M  V30 279 H 29.113 -2.43032 -3.07698 0
M  V30 280 H 30.603 -1.7466 -3.7932 0
M  V30 281 N 31.0401 0.771051 -1.3745 0
M  V30 282 C 32.4511 1.34737 -1.29239 0
M  V30 283 C 32.8021 1.96109 0.0596908 0
M  V30 284 O 31.9271 1.93865 0.961534 0
M  V30 285 C 32.5221 2.44973 -2.34037 0
M  V30 286 C 31.0811 2.98372 -2.29458 0
M  V30 287 C 30.2281 1.71595 -2.17831 0
M  V30 288 H 33.1791 0.571256 -1.48062 0
M  V30 289 H 33.2001 3.24471 -1.98744 0
M  V30 290 H 32.7121 2.00276 -3.32432 0
M  V30 291 H 30.8131 3.47443 -1.34589 0
M  V30 292 H 30.9261 3.53939 -3.229 0
M  V30 293 H 29.2901 1.94547 -1.64388 0
M  V30 294 H 30.0731 1.29001 -3.18141 0
M  V30 295 N 32.5182 1.22032 0.997298 0
M  V30 296 C 33.9342 0.979326 1.26021 0
M  V30 297 C 34.1342 -0.32972 1.98784 0
M  V30 298 O 33.1902 -1.05345 2.29475 0
M  V30 299 C 34.5032 2.17509 2.07631 0
M  V30 300 C 36.0512 2.21817 2.2083 0
M  V30 301 C 36.5262 3.40933 3.05825 0
M  V30 302 N 38.0172 3.41067 3.13412 0
M  V30 303 C 38.7522 4.29885 3.79455 0
M  V30 304 N 38.2482 5.28914 4.47462 0
M  V30 305 N 40.0412 4.17673 3.76173 0
M  V30 306 H 32.1922 2.06202 0.509352 0
M  V30 307 H 34.4552 0.90334 0.287541 0
M  V30 308 H 34.1612 3.12415 1.61524 0
M  V30 309 H 34.0352 2.17206 3.08385 0
M  V30 310 H 36.4222 1.27462 2.66153 0
M  V30 311 H 36.5032 2.2616 1.1952 0
M  V30 312 H 36.1472 4.35586 2.61203 0
M  V30 313 H 36.0772 3.33829 4.07266 0
M  V30 314 H 38.5682 2.69406 2.65007 0
M  V30 315 H 38.8812 5.92973 4.95583 0
M  V30 316 H 37.2262 5.32831 4.46224 0
M  V30 317 H 40.4172 3.39564 3.22202 0
M  V30 318 H 40.5902 4.87098 4.27363 0
M  V30 319 N 33.9963 -1.19345 1.0293 0
M  V30 320 C 35.2443 -1.88665 0.724574 0
M  V30 321 C 35.5653 -1.80036 -0.749144 0
M  V30 322 O 34.8353 -1.2111 -1.53978 0
M  V30 323 H 33.4153 -0.698406 0.265025 0
M  V30 324 H 36.0773 -1.44885 1.30362 0
M  V30 325 H 35.1733 -2.94987 1.01926 0
M  V30 326 N 35.4744 -0.807222 -1.35358 0
M  V30 327 C 36.7224 -0.387122 -1.98358 0
M  V30 328 C 37.0434 1.04942 -1.64354 0
M  V30 329 O 36.3134 1.72615 -0.926339 0
M  V30 330 H 34.8934 -0.140154 -0.733734 0
M  V30 331 H 37.5554 -1.0332 -1.6526 0
M  V30 332 H 36.6514 -0.493352 -3.08176 0
M  V30 333 N 36.9525 1.47285 -0.560781 0
M  V30 334 C 38.3635 1.86258 -0.128343 0
M  V30 335 C 38.7145 1.46699 1.30284 0
M  V30 336 O 37.8395 0.871698 1.98067 0
M  V30 337 C 38.4345 3.38044 -0.22614 0
M  V30 338 C 36.9935 3.76096 0.151283 0
M  V30 339 C 36.1405 2.71335 -0.572084 0
M  V30 340 H 39.0915 1.38752 -0.770297 0
M  V30 341 H 39.1125 3.76441 0.554322 0
M  V30 342 H 38.6245 3.66806 -1.26788 0
M  V30 343 H 36.7255 3.52951 1.19399 0
M  V30 344 H 36.8385 4.78641 -0.209765 0
M  V30 345 H 35.2025 2.54696 -0.0147653 0
M  V30 346 H 35.9855 3.02938 -1.61504 0
M  V30 347 N 38.4306 0.297415 1.54768 0
M  V30 348 C 39.3406 -0.58983 2.27064 0
M  V30 349 C 40.3566 -1.15144 1.30453 0
M  V30 350 O 41.5326 -1.17699 1.63428 0
M  V30 351 C 38.5976 -1.74714 2.9946 0
M  V30 352 C 37.6586 -1.21997 4.11601 0
M  V30 353 C 36.8916 -2.32212 4.80535 0
M  V30 354 O 37.1146 -3.52036 4.48806 0
M  V30 355 O 36.0486 -1.99106 5.68014 0
M  V30 356 H 39.8746 -0.00348199 3.037 0
M  V30 357 H 37.4596 0.0640035 1.49263 0
M  V30 358 H 39.3416 -2.42147 3.44881 0
M  V30 359 H 38.0166 -2.32016 2.25722 0
M  V30 360 H 36.9236 -0.511458 3.70587 0
M  V30 361 H 38.2566 -0.692419 4.87305 0
M  V30 362 N 39.9087 -1.5758 0.0250728 0
M  V30 363 C 40.8587 -2.06468 -0.967201 0
M  V30 364 C 41.8427 -0.964376 -1.28797 0
M  V30 365 O 43.0347 -1.22797 -1.27475 0
M  V30 366 C 40.1637 -2.59203 -2.25097 0
M  V30 367 C 39.2497 -3.76157 -1.95874 0
M  V30 368 N 39.6407 -4.86919 -1.36905 0
M  V30 369 C 37.9387 -3.84566 -2.25887 0
M  V30 370 C 38.6397 -5.68172 -1.24724 0
M  V30 371 N 37.6157 -5.14953 -1.74138 0
M  V30 372 H 41.4177 -2.89508 -0.506176 0
M  V30 373 H 38.9317 -1.61399 -0.18004 0
M  V30 374 H 40.9287 -2.92517 -2.97052 0
M  V30 375 H 39.5887 -1.77592 -2.71829 0
M  V30 376 H 40.5997 -5.07256 -1.04459 0
M  V30 377 H 37.2767 -3.13854 -2.75321 0
M  V30 378 H 38.6667 -6.67221 -0.791605 0
M  V30 379 N 41.3868 0.248026 -1.55636 0
M  V30 380 C 42.8028 0.596483 -1.48035 0
M  V30 381 C 43.0028 1.88386 -0.715039 0
M  V30 382 O 42.0588 2.51319 -0.243944 0
M  V30 383 C 43.3718 0.700258 -2.92433 0
M  V30 384 C 44.9198 0.792659 -3.02797 0
M  V30 385 C 45.3948 0.928005 -4.485 0
M  V30 386 N 46.8858 0.992903 -4.52433 0
M  V30 387 C 47.6208 1.11687 -5.62418 0
M  V30 388 N 47.1168 1.20645 -6.82214 0
M  V30 389 N 48.9098 1.14994 -5.50212 0
M  V30 390 H 41.0608 -0.597109 -2.03834 0
M  V30 391 H 43.3238 -0.205925 -0.925364 0
M  V30 392 H 43.0298 -0.175658 -3.51261 0
M  V30 393 H 42.9038 1.57255 -3.42857 0
M  V30 394 H 45.2908 1.65903 -2.4405 0
M  V30 395 H 45.3718 -0.104762 -2.55585 0
M  V30 396 H 45.0158 0.0661971 -5.07857 0
M  V30 397 H 44.9458 1.84045 -4.93391 0
M  V30 398 H 47.4368 0.935064 -3.66149 0
M  V30 399 H 47.7498 1.30008 -7.61786 0
M  V30 400 H 46.0948 1.17605 -6.84977 0
M  V30 401 H 49.2858 1.07643 -4.55555 0
M  V30 402 H 49.4588 1.24311 -6.35965 0
M  V30 403 N 42.8649 1.48995 0.513639 0
M  V30 404 C 44.0899 1.61792 1.29762 0
M  V30 405 C 44.5149 0.284475 1.85936 0
M  V30 406 O 43.8729 -0.746185 1.65232 0
M  V30 407 C 43.9209 2.67993 2.41272 0
M  V30 408 O 43.0249 2.26287 3.44772 0
M  V30 409 H 42.3659 0.541963 0.38363 0
M  V30 410 H 44.8959 1.95097 0.616307 0
M  V30 411 H 44.9059 2.89772 2.87221 0
M  V30 412 H 43.5809 3.64791 1.9975 0
M  V30 413 H 42.1579 2.14788 3.04829 0
M  V30 414 N 44.343 -0.763751 1.37857 0
M  V30 415 C 45.306 -1.85889 1.34081 0
M  V30 416 C 46.306 -1.58949 0.243277 0
M  V30 417 O 47.496 -1.66882 0.499589 0
M  V30 418 C 44.628 -3.23176 1.08489 0
M  V30 419 H 45.821 -1.90648 2.31502 0
M  V30 420 H 43.374 -0.964367 1.23003 0
M  V30 421 H 44.109 -3.24091 0.116318 0
M  V30 422 H 43.894 -3.44124 1.8794 0
M  V30 423 H 45.384 -4.03254 1.08517 0
M  V30 424 N 45.8211 -1.22559 -0.990812 0
M  V30 425 C 47.0671 -1.06303 -1.73411 0
M  V30 426 C 47.4221 0.397442 -1.8825 0
M  V30 427 O 46.7151 1.29062 -1.41611 0
M  V30 428 C 46.9091 -1.71011 -3.13831 0
M  V30 429 C 46.7381 -3.232 -3.12685 0
M  V30 430 C 45.5081 -3.92314 -3.18461 0
M  V30 431 C 47.7061 -4.20107 -2.96673 0
M  V30 432 N 45.6881 -5.31571 -3.07091 0
M  V30 433 C 47.0591 -5.46208 -2.93354 0
M  V30 434 C 49.1141 -4.10973 -2.8108 0
M  V30 435 C 47.8171 -6.64225 -2.76039 0
M  V30 436 C 49.8431 -5.28642 -2.65126 0
M  V30 437 C 49.2051 -6.53663 -2.62496 0
M  V30 438 H 45.3041 -0.443441 -0.644115 0
M  V30 439 H 47.8881 -1.55131 -1.17654 0
M  V30 440 H 46.0591 -1.2473 -3.67827 0
M  V30 441 H 47.7911 -1.47828 -3.76735 0
M  V30 442 H 44.5461 -3.43326 -3.26227 0
M  V30 443 H 44.9701 -6.0455 -3.0471 0
M  V30 444 H 49.6121 -3.15098 -2.8191 0
M  V30 445 H 47.3301 -7.60246 -2.73954 0
M  V30 446 H 50.9161 -5.23407 -2.54039 0
M  V30 447 H 49.7961 -7.43182 -2.50302 0
M  V30 448 N 47.2992 1.18797 -1.03562 0
M  V30 449 C 48.5472 1.88278 -0.734569 0
M  V30 450 C 48.8682 1.8043 0.739586 0
M  V30 451 O 48.1382 1.21925 1.53333 0
M  V30 452 H 46.7182 0.696991 -0.268725 0
M  V30 453 H 49.3802 1.44192 -1.31129 0
M  V30 454 H 48.4762 2.94443 -1.03489 0
M  V30 455 N 48.7773 0.814389 1.34928 0
M  V30 456 C 49.6873 0.231978 2.3345 0
M  V30 457 C 50.7033 -0.629139 1.62228 0
M  V30 458 O 51.8793 -0.539052 1.94052 0
M  V30 459 C 48.9443 -0.603482 3.41407 0
M  V30 460 C 48.0053 0.279037 4.28392 0
M  V30 461 C 47.2383 -0.516643 5.31193 0
M  V30 462 O 47.4613 -1.75068 5.4287 0
M  V30 463 O 46.3953 0.0965652 6.01823 0
M  V30 464 H 50.2213 1.04721 2.85074 0
M  V30 465 H 47.8063 0.576343 1.37836 0
M  V30 466 H 49.6883 -1.07908 4.0735 0
M  V30 467 H 48.3633 -1.39618 2.92042 0
M  V30 468 H 47.2703 0.801948 3.65403 0
M  V30 469 H 48.6033 1.03588 4.81176 0
M  V30 470 N 50.2554 -1.46986 0.568584 0
M  V30 471 C 51.2184 -2.28624 -0.162366 0
M  V30 472 C 52.2184 -1.37596 -0.832103 0
M  V30 473 O 53.4084 -1.60115 -0.68622 0
M  V30 474 C 50.5404 -3.17596 -1.23878 0
M  V30 475 H 51.7334 -2.94722 0.554899 0
M  V30 476 H 49.2864 -1.52863 0.325976 0
M  V30 477 H 50.0214 -2.56214 -1.98808 0
M  V30 478 H 49.8064 -3.846 -0.763219 0
M  V30 479 H 51.2964 -3.79078 -1.75185 0
M  V30 480 N 51.7335 -0.305618 -1.54608 0
M  V30 481 C 53.0105 0.355652 -1.92339 0
M  V30 482 C 53.3905 1.71324 -1.23335 0
M  V30 483 O 52.7385 2.25473 -0.370702 0
M  V30 484 C 52.9485 0.46572 -3.45879 0
M  V30 485 C 54.2965 0.734426 -4.182 0
M  V30 486 O 55.3205 0.54935 -3.51938 0
M  V30 487 O 54.1795 1.09024 -5.35515 0
M  V30 488 H 51.2735 0.199666 -0.802535 0
M  V30 489 H 53.8195 -0.354017 -1.65966 0
M  V30 490 H 52.5915 -0.488461 -3.88239 0
M  V30 491 H 52.2145 1.22367 -3.78301 0
M  V30 492 N 53.2116 1.57565 -0.0334293 0
M  V30 493 C 54.4366 1.96689 0.657895 0
M  V30 494 C 54.8616 0.910057 1.64619 0
M  V30 495 O 54.2196 -0.128598 1.80843 0
M  V30 496 C 54.2676 3.34905 1.33683 0
M  V30 497 O 53.3716 3.31574 2.45219 0
M  V30 498 H 52.7126 0.641205 0.172489 0
M  V30 499 H 55.2426 2.04372 -0.0965621 0
M  V30 500 H 55.2526 3.71234 1.69262 0
M  V30 501 H 53.9276 4.11366 0.612411 0
M  V30 502 H 52.5046 3.06968 2.11719 0
M  V30 503 N 54.6897 -0.239769 1.55765 0
M  V30 504 C 56.1057 -0.588624 1.48349 0
M  V30 505 C 56.3057 -1.88005 0.72502 0
M  V30 506 O 55.3617 -2.51186 0.257269 0
M  V30 507 C 56.6747 -0.68474 2.928 0
M  V30 508 C 58.2227 -0.77659 3.03213 0
M  V30 509 C 58.6977 -0.904207 4.48986 0
M  V30 510 N 60.1887 -0.968896 4.52953 0
M  V30 511 C 60.9237 -1.08703 5.63002 0
M  V30 512 N 60.4197 -1.17026 6.82845 0
M  V30 513 N 62.2127 -1.12074 5.50814 0
M  V30 514 H 54.3637 0.607911 2.03515 0
M  V30 515 H 56.6267 0.21083 0.924259 0
M  V30 516 H 56.3327 0.194284 3.51163 0
M  V30 517 H 56.2067 -1.55435 3.43686 0
M  V30 518 H 58.5937 -1.64606 2.44926 0
M  V30 519 H 58.6747 0.118315 2.55526 0
M  V30 520 H 58.3187 -0.0392633 5.07885 0
M  V30 521 H 58.2487 -1.81426 4.9436 0
M  V30 522 H 60.7397 -0.915633 3.6664 0
M  V30 523 H 61.0527 -1.25966 7.62465 0
M  V30 524 H 59.3977 -1.13971 6.85591 0
M  V30 525 H 62.5887 -1.05226 4.5612 0
M  V30 526 H 62.7617 -1.20936 6.36615 0
M  V30 527 N 56.1678 -1.49265 -0.50573 0
M  V30 528 C 57.1308 -1.65075 -1.59006 0
M  V30 529 C 58.1308 -0.522768 -1.52065 0
M  V30 530 O 59.3208 -0.789117 -1.55302 0
M  V30 531 C 56.4528 -1.64369 -2.98656 0
M  V30 532 H 57.6458 -2.61784 -1.46319 0
M  V30 533 H 55.1988 -1.38226 -0.729616 0
M  V30 534 H 55.9338 -0.692272 -3.16825 0
M  V30 535 H 55.7188 -2.46282 -3.05103 0
M  V30 536 H 57.2088 -1.78674 -3.77446 0
M  V30 537 N 57.6459 0.756429 -1.3826 0
M  V30 538 C 58.5939 1.89149 -1.35372 0
M  V30 539 C 59.5879 1.67691 -0.24004 0
M  V30 540 O 60.7939 1.75294 -0.408919 0
M  V30 541 H 57.1689 0.622271 -0.422236 0
M  V30 542 H 59.1399 1.88701 -2.31159 0
M  V30 543 C 57.8889 3.26599 -1.19284 0
M  V30 544 H 57.2119 3.43695 -2.0424 0
M  V30 545 H 58.6519 4.06274 -1.21316 0
M  V30 546 C 57.1109 3.3675 0.100454 0
M  V30 547 O 57.6409 3.86951 1.07851 0
M  V30 548 N 55.8469 2.90179 0.15633 0
M  V30 549 H 55.3939 2.49517 -0.640253 0
M  V30 550 H 55.3519 2.97352 1.02123 0
M  V30 551 N 59.124 1.23083 0.984299 0
M  V30 552 C 60.372 1.05848 1.72165 0
M  V30 553 C 60.693 -0.406049 1.90726 0
M  V30 554 O 59.963 -1.29139 1.47309 0
M  V30 555 H 58.543 0.388685 0.637913 0
M  V30 556 H 61.205 1.54736 1.18503 0
M  V30 557 H 60.301 1.54327 2.71274 0
M  V30 558 N 60.6021 -1.18246 1.0419 0
M  V30 559 C 61.8321 -1.91916 0.764961 0
M  V30 560 C 62.2401 -1.76485 -0.681898 0
M  V30 561 O 61.5831 -1.09275 -1.47664 0
M  V30 562 C 61.6451 -3.4373 1.05309 0
M  V30 563 C 61.3091 -3.8294 2.4941 0
M  V30 564 C 62.3061 -3.86621 3.47592 0
M  V30 565 C 59.9911 -4.142 2.84155 0
M  V30 566 C 61.9851 -4.21013 4.78568 0
M  V30 567 C 59.6721 -4.48262 4.15337 0
M  V30 568 C 60.6701 -4.51645 5.12353 0
M  V30 569 O 60.3581 -4.84911 6.41183 0
M  V30 570 H 60.0901 -0.61606 0.278292 0
M  V30 571 H 62.6441 -1.50947 1.39299 0
M  V30 572 H 60.8741 -3.84946 0.367933 0
M  V30 573 H 62.5631 -3.9865 0.763752 0
M  V30 574 H 63.3291 -3.62607 3.22089 0
M  V30 575 H 59.2081 -4.10743 2.09311 0
M  V30 576 H 62.7521 -4.23568 5.54289 0
M  V30 577 H 58.6491 -4.71737 4.40607 0
M  V30 578 H 59.4171 -5.02809 6.45852 0
M  V30 579 N 62.0802 -0.821533 -1.34494 0
M  V30 580 C 63.4912 -0.467956 -1.8074 0
M  V30 581 C 63.8422 1.01151 -1.68116 0
M  V30 582 O 62.9672 1.78707 -1.22036 0
M  V30 583 C 63.5622 -0.842627 -3.28154 0
M  V30 584 C 62.1212 -0.541439 -3.72485 0
M  V30 585 C 61.2682 -1.06028 -2.56229 0
M  V30 586 H 64.2192 -1.01183 -1.22261 0
M  V30 587 H 64.2402 -0.145876 -3.8022 0
M  V30 588 H 63.7522 -1.91945 -3.37311 0
M  V30 589 H 61.8532 0.526034 -3.68868 0
M  V30 590 H 61.9662 -1.08453 -4.66663 0
M  V30 591 H 60.3302 -0.481892 -2.501 0
M  V30 592 H 61.1132 -2.14352 -2.68157 0
M  V30 593 N 63.5583 1.46682 -0.576371 0
M  V30 594 C 64.5083 2.27278 0.181288 0
M  V30 595 C 65.4923 1.35497 0.867721 0
M  V30 596 O 66.6843 1.59717 0.762863 0
M  V30 597 C 63.8133 3.21703 1.19841 0
M  V30 598 C 62.8993 4.20969 0.51442 0
M  V30 599 N 63.2903 5.03999 -0.426407 0
M  V30 600 C 61.5883 4.39373 0.765963 0
M  V30 601 C 62.2893 5.75812 -0.825565 0
M  V30 602 N 61.2653 5.43315 -0.176116 0
M  V30 603 H 65.0673 2.88863 -0.541785 0
M  V30 604 H 62.5813 1.57455 -0.397697 0
M  V30 605 H 64.5783 3.78145 1.75533 0
M  V30 606 H 63.2383 2.61677 1.92238 0
M  V30 607 H 64.2493 5.11659 -0.8016 0
M  V30 608 H 60.9263 3.90502 1.47698 0
M  V30 609 H 62.3163 6.52577 -1.59976 0
M  V30 610 N 65.0364 0.313813 1.54444 0
M  V30 611 C 65.9994 -0.54379 2.22656 0
M  V30 612 C 66.9994 -1.05124 1.21678 0
M  V30 613 O 68.1894 -0.945225 1.46325 0
M  V30 614 C 65.3214 -1.75427 2.92298 0
M  V30 615 H 66.5144 0.0523599 2.99854 0
M  V30 616 H 64.0674 0.0647834 1.56166 0
M  V30 617 H 64.8024 -2.38991 2.19211 0
M  V30 618 H 64.5874 -1.39791 3.66334 0
M  V30 619 H 66.0774 -2.36325 3.44297 0
M  V30 620 N 66.5145 -1.57545 0.0417849 0
M  V30 621 C 67.9255 -1.80011 -0.495259 0
M  V30 622 C 68.2765 -0.953199 -1.71489 0
M  V30 623 O 67.4015 -0.167138 -2.15754 0
M  V30 624 C 67.9965 -3.26482 -0.905265 0
M  V30 625 C 66.5555 -3.499 -1.38734 0
M  V30 626 C 65.7025 -2.74979 -0.358056 0
M  V30 627 H 68.6535 -1.56425 0.267736 0
M  V30 628 H 68.6745 -3.36887 -1.76882 0
M  V30 629 H 68.1865 -3.88096 -0.017401 0
M  V30 630 H 66.2875 -2.93553 -2.29471 0
M  V30 631 H 66.4005 -4.58615 -1.38598 0
M  V30 632 H 64.7645 -2.40834 -0.828912 0
M  V30 633 H 65.5475 -3.39315 0.521561 0
M  V30 634 N 67.9926 0.231505 -1.5589 0
M  V30 635 C 69.2406 0.955461 -1.78088 0
M  V30 636 C 69.5616 1.85262 -0.608533 0
M  V30 637 O 68.8316 1.92277 0.375035 0
M  V30 638 H 67.4116 0.355787 -0.656829 0
M  V30 639 H 70.0736 0.245751 -1.93344 0
M  V30 640 H 69.1696 1.56814 -2.69844 0
M  V30 641 N 69.4707 1.49531 0.497807 0
M  V30 642 C 70.7187 1.58865 1.24926 0
M  V30 643 C 71.0397 0.278721 1.92998 0
M  V30 644 O 70.3097 -0.702144 1.82885 0
M  V30 645 H 68.8897 0.585343 0.464094 0
M  V30 646 H 71.5517 1.86174 0.57666 0
M  V30 647 H 70.6477 2.38633 2.01149 0
M  V30 648 N 70.9488 -0.749086 1.3866 0
M  V30 649 C 72.1738 -1.54344 1.38538 0
M  V30 650 C 72.5988 -1.88088 -0.0216655 0
M  V30 651 O 71.9568 -1.50899 -1.00494 0
M  V30 652 C 72.0048 -2.8164 2.25192 0
M  V30 653 O 71.1088 -3.7698 1.67212 0
M  V30 654 H 70.4498 -0.466654 0.472367 0
M  V30 655 H 72.9798 -0.925355 1.82478 0
M  V30 656 H 72.9898 -3.30519 2.3921 0
M  V30 657 H 71.6648 -2.56411 3.27454 0
M  V30 658 H 70.2418 -3.35699 1.6236 0
M  V30 659 N 72.4269 -1.23603 -0.977757 0
M  V30 660 C 73.3899 -1.02069 -2.05218 0
M  V30 661 C 74.3899 0.0184305 -1.60789 0
M  V30 662 O 75.5799 -0.221569 -1.72785 0
M  V30 663 C 72.7119 -0.544926 -3.36517 0
M  V30 664 H 73.9049 -1.9742 -2.25755 0
M  V30 665 H 71.4579 -1.05684 -1.15155 0
M  V30 666 H 72.1929 0.412241 -3.21669 0
M  V30 667 H 71.9779 -1.2948 -3.70105 0
M  V30 668 H 73.4679 -0.414985 -4.15533 0
M  V30 669 N 73.905 1.17692 -1.04816 0
M  V30 670 C 75.321 1.39863 -0.768794 0
M  V30 671 C 75.521 1.91118 0.638451 0
M  V30 672 O 74.577 2.10036 1.40146 0
M  V30 673 C 75.89 2.39274 -1.82122 0
M  V30 674 C 77.438 2.52987 -1.843 0
M  V30 675 C 77.913 3.55669 -2.88555 0
M  V30 676 N 79.404 3.63183 -2.87493 0
M  V30 677 C 80.139 4.42381 -3.64811 0
M  V30 678 N 79.635 5.25125 -4.51903 0
M  V30 679 N 81.428 4.37217 -3.53267 0
M  V30 680 H 73.579 0.82752 -1.95617 0
M  V30 681 H 75.842 0.426123 -0.846831 0
M  V30 682 H 75.548 2.08678 -2.83102 0
M  V30 683 H 75.422 3.38725 -1.65967 0
M  V30 684 H 77.809 2.82896 -0.839869 0
M  V30 685 H 77.89 1.53623 -2.04532 0
M  V30 686 H 77.534 3.26499 -3.89051 0
M  V30 687 H 77.464 4.54728 -2.65575 0
M  V30 688 H 79.955 3.04103 -2.24343 0
M  V30 689 H 80.268 5.82728 -5.07591 0
M  V30 690 H 78.613 5.24519 -4.55966 0
M  V30 691 H 81.804 3.71626 -2.84625 0
M  V30 692 H 81.977 4.98696 -4.13771 0
M  V30 693 N 75.3831 0.828654 1.34056 0
M  V30 694 C 76.6311 0.41863 1.97717 0
M  V30 695 C 76.9521 -1.02314 1.66002 0
M  V30 696 O 76.2221 -1.71119 0.953683 0
M  V30 697 H 74.8021 0.151809 0.731412 0
M  V30 698 H 77.4641 1.05936 1.63596 0
M  V30 699 H 76.5601 0.542318 3.07352 0
M  V30 700 N 76.8612 -1.46375 0.584142 0
M  V30 701 C 78.0862 -2.07268 0.0740405 0
M  V30 702 C 78.5112 -1.42979 -1.22223 0
M  V30 703 O 77.8692 -0.514092 -1.73859 0
M  V30 704 C 77.9172 -3.60518 -0.0767769 0
M  V30 705 O 77.0212 -3.96533 -1.13292 0
M  V30 706 H 76.3622 -0.660961 0.0634524 0
M  V30 707 H 78.8922 -1.87991 0.807492 0
M  V30 708 H 78.9022 -4.07021 -0.282489 0
M  V30 709 H 77.5772 -4.06702 0.86986 0
M  V30 710 H 76.1542 -3.61738 -0.905553 0
M  V30 711 N 78.3393 -0.321999 -1.54275 0
M  V30 712 C 79.5673 0.283052 -2.04955 0
M  V30 713 C 79.9823 1.45904 -1.19823 0
M  V30 714 O 79.3393 1.81063 -0.228545 0
M  V30 715 C 79.3903 0.719028 -3.54277 0
M  V30 716 O 79.1113 -0.410175 -4.36176 0
M  V30 717 C 80.6123 1.38705 -4.21041 0
M  V30 718 H 77.8323 0.0584616 -0.668448 0
M  V30 719 H 80.3763 -0.467734 -1.99079 0
M  V30 720 H 78.5313 1.41979 -3.60445 0
M  V30 721 H 78.9453 -0.0669416 -5.24457 0
M  V30 722 H 80.4193 1.64306 -5.2698 0
M  V30 723 H 80.8963 2.33385 -3.72059 0
M  V30 724 H 81.5023 0.728906 -4.19007 0
M  V30 725 N 79.8174 1.5752 -0.0501392 0
M  V30 726 C 80.7644 2.1147 0.924603 0
M  V30 727 C 81.7344 1.02182 1.30951 0
M  V30 728 O 82.9194 1.29723 1.39916 0
M  V30 729 C 80.0594 2.66337 2.19451 0
M  V30 730 C 79.1724 3.89708 1.86418 0
M  V30 731 C 78.3074 4.32893 3.07859 0
M  V30 732 C 77.3464 5.48967 2.70742 0
M  V30 733 N 76.4834 5.87211 3.84874 0
M  V30 734 H 81.3234 2.94465 0.457639 0
M  V30 735 H 78.8604 1.45531 0.214266 0
M  V30 736 H 80.8184 2.96247 2.93758 0
M  V30 737 H 79.4484 1.86141 2.63726 0
M  V30 738 H 78.5004 3.66396 1.02264 0
M  V30 739 H 79.8124 4.74074 1.55096 0
M  V30 740 H 78.9664 4.6435 3.90466 0
M  V30 741 H 77.7054 3.47336 3.42358 0
M  V30 742 H 76.7104 5.17183 1.86551 0
M  V30 743 H 77.9354 6.3624 2.37436 0
M  V30 744 H 75.8814 5.04607 4.19175 0
M  V30 745 H 75.7984 6.66266 3.57247 0
M  V30 746 H 77.0664 6.23282 4.68123 0
M  V30 747 N 81.2955 -0.223234 1.56011 0
M  V30 748 C 82.2425 -1.27664 1.92277 0
M  V30 749 C 83.2125 -1.46659 0.779763 0
M  V30 750 O 84.3975 -1.60256 1.03551 0
M  V30 751 C 81.5375 -2.62234 2.24338 0
M  V30 752 C 80.6505 -2.51051 3.51564 0
M  V30 753 C 79.7855 -3.78133 3.7308 0
M  V30 754 C 78.8245 -3.61665 4.93827 0
M  V30 755 N 77.9615 -4.80693 5.11741 0
M  V30 756 H 82.8015 -0.960358 2.82101 0
M  V30 757 H 80.3385 -0.462901 1.39627 0
M  V30 758 H 82.2965 -3.40596 2.40936 0
M  V30 759 H 80.9265 -2.91961 1.3769 0
M  V30 760 H 79.9785 -1.64132 3.43169 0
M  V30 761 H 81.2905 -2.34803 4.40079 0
M  V30 762 H 80.4445 -4.64938 3.89766 0
M  V30 763 H 79.1835 -3.97304 2.82844 0
M  V30 764 H 78.1885 -2.73244 4.77093 0
M  V30 765 H 79.4135 -3.43966 5.85546 0
M  V30 766 H 77.3595 -5.00181 4.24446 0
M  V30 767 H 77.2765 -4.67165 5.94384 0
M  V30 768 H 78.5445 -5.6893 5.3286 0
M  V30 769 N 82.7736 -1.49793 -0.48987 0
M  V30 770 C 84.1846 -1.52914 -1.07118 0
M  V30 771 C 84.5356 -0.321738 -1.93544 0
M  V30 772 O 83.6606 0.567338 -2.08831 0
M  V30 773 C 84.2556 -2.771 -1.94938 0
M  V30 774 C 82.8146 -2.82963 -2.48212 0
M  V30 775 C 81.9616 -2.46972 -1.26096 0
M  V30 776 H 84.9126 -1.56329 -0.273289 0
M  V30 777 H 84.9336 -2.57892 -2.79771 0
M  V30 778 H 84.4456 -3.64959 -1.32009 0
M  V30 779 H 82.5466 -1.99411 -3.14748 0
M  V30 780 H 82.6596 -3.85406 -2.84603 0
M  V30 781 H 81.0236 -1.98994 -1.58976 0
M  V30 782 H 81.8066 -3.37118 -0.648581 0
M  V30 783 N 84.2517 0.741722 -1.39055 0
M  V30 784 C 85.4997 1.49818 -1.35643 0
M  V30 785 C 85.8207 1.94938 0.0491642 0
M  V30 786 O 85.0907 1.68505 0.999141 0
M  V30 787 H 83.6707 0.555755 -0.499144 0
M  V30 788 H 86.3327 0.880957 -1.73854 0
M  V30 789 H 85.4287 2.38348 -2.01486 0
M  V30 790 N 85.7298 1.2412 0.971189 0
M  V30 791 C 86.9778 1.07668 1.71032 0
M  V30 792 C 87.2988 -0.385797 1.91146 0
M  V30 793 O 86.5688 -1.27569 1.4867 0
M  V30 794 H 85.1488 0.395429 0.633755 0
M  V30 795 H 87.8108 1.55984 1.16855 0
M  V30 796 H 86.9068 1.57195 2.69622 0
M  V30 797 N 87.2079 -1.17134 1.05439 0
M  V30 798 C 88.1709 -2.19439 0.661764 0
M  V30 799 C 89.1709 -1.58199 -0.288042 0
M  V30 800 O 90.3609 -1.74053 -0.0715803 0
M  V30 801 C 87.4929 -3.40889 -0.0276209 0
M  V30 802 H 88.6859 -2.55688 1.56728 0
M  V30 803 H 86.2389 -1.31259 0.848567 0
M  V30 804 H 86.9739 -3.10187 -0.94629 0
M  V30 805 H 86.7589 -3.86586 0.655238 0
M  V30 806 H 88.2489 -4.16603 -0.288342 0
M  V30 807 N 88.686 -0.835752 -1.33615 0
M  V30 808 C 89.932 -0.430596 -1.98176 0
M  V30 809 C 90.265 1.00684 -1.66061 0
M  V30 810 O 89.54 1.70339 -0.938877 0
M  V30 811 C 89.823 -0.648065 -3.5422 0
M  V30 812 C 89.676 -2.13255 -3.96033 0
M  V30 813 C 90.995 -0.0922113 -4.40003 0
M  V30 814 H 88.114 -0.157924 -0.719881 0
M  V30 815 H 90.756 -1.05069 -1.58305 0
M  V30 816 H 88.906 -0.120237 -3.88314 0
M  V30 817 H 90.578 -2.725 -3.72211 0
M  V30 818 H 88.821 -2.61823 -3.45878 0
M  V30 819 H 89.492 -2.23547 -5.04708 0
M  V30 820 H 91.968 -0.543343 -4.12537 0
M  V30 821 H 90.844 -0.274083 -5.48215 0
M  V30 822 H 91.105 1.00378 -4.30554 0
M  V30 823 N 90.1641 1.46063 -0.591896 0
M  V30 824 C 91.3921 2.06717 -0.0868936 0
M  V30 825 C 91.8071 1.43916 1.22203 0
M  V30 826 O 91.1641 0.547698 1.74088 0
M  V30 827 C 91.2151 3.6142 0.0758725 0
M  V30 828 O 90.9361 4.21874 -1.18126 0
M  V30 829 C 92.4371 4.39025 0.61416 0
M  V30 830 H 89.6571 0.668162 -0.0616518 0
M  V30 831 H 92.2011 1.8755 -0.815175 0
M  V30 832 H 90.3561 3.79983 0.754413 0
M  V30 833 H 90.7701 5.14861 -1.00092 0
M  V30 834 H 92.2441 5.4783 0.677193 0
M  V30 835 H 92.7211 4.07708 1.63312 0
M  V30 836 H 93.3271 4.2529 -0.0298142 0
M  V30 837 N 91.6422 0.330177 1.54103 0
M  V30 838 C 93.0532 -0.15652 1.86043 0
M  V30 839 C 93.4042 -1.51086 1.2517 0
M  V30 840 O 92.5292 -2.09023 0.560217 0
M  V30 841 C 93.1242 -0.290784 3.3755 0
M  V30 842 C 91.6832 -0.721705 3.69416 0
M  V30 843 C 90.8302 0.152622 2.7688 0
M  V30 844 H 93.7812 0.550237 1.48856 0
M  V30 845 H 93.8022 -1.12058 3.63625 0
M  V30 846 H 93.3142 0.695068 3.81825 0
M  V30 847 H 91.4152 -1.71706 3.30678 0
M  V30 848 H 91.5282 -0.520869 4.7626 0
M  V30 849 H 89.8922 -0.372894 2.51956 0
M  V30 850 H 90.6752 1.13536 3.23982 0
M  V30 851 N 93.1203 -1.57491 0.0584922 0
M  V30 852 C 94.0523 -2.08916 -0.942694 0
M  V30 853 C 95.0653 -1.0185 -1.27006 0
M  V30 854 O 96.2543 -1.29398 -1.22957 0
M  V30 855 C 93.3543 -2.52341 -2.26224 0
M  V30 856 C 92.5273 -3.82827 -2.1157 0
M  V30 857 C 91.5863 -4.12487 -3.26712 0
M  V30 858 O 90.6123 -4.82295 -3.02292 0
M  V30 859 N 91.8143 -3.64978 -4.5141 0
M  V30 860 H 94.5793 -2.95437 -0.503722 0
M  V30 861 H 92.1403 -1.61397 -0.12757 0
M  V30 862 H 94.1323 -2.69254 -3.02133 0
M  V30 863 H 92.7023 -1.7103 -2.61663 0
M  V30 864 H 91.9223 -3.75425 -1.20208 0
M  V30 865 H 93.2103 -4.68263 -1.99015 0
M  V30 866 H 92.6083 -3.08558 -4.7414 0
M  V30 867 H 91.1653 -3.87115 -5.2439 0
M  V30 868 N 94.5984 0.214957 -1.56127 0
M  V30 869 C 95.5304 1.29004 -1.89448 0
M  V30 870 C 96.5434 1.42716 -0.783326 0
M  V30 871 O 97.7324 1.43496 -1.06166 0
M  V30 872 C 94.8324 2.66482 -2.09381 0
M  V30 873 C 94.0054 2.74633 -3.40434 0
M  V30 874 C 93.0644 3.9317 -3.49719 0
M  V30 875 O 92.0904 3.812 -4.227 0
M  V30 876 N 93.2924 5.07765 -2.81346 0
M  V30 877 H 96.0574 1.00743 -2.82261 0
M  V30 878 H 93.6184 0.40497 -1.56753 0
M  V30 879 H 95.6104 3.44173 -2.12901 0
M  V30 880 H 94.1804 2.87314 -1.23163 0
M  V30 881 H 93.4004 1.83368 -3.48955 0
M  V30 882 H 94.6884 2.77054 -4.26754 0
M  V30 883 H 94.0864 5.20386 -2.21843 0
M  V30 884 H 92.6434 5.83474 -2.90519 0
M  V30 885 N 96.0765 1.50051 0.48192 0
M  V30 886 C 97.0085 1.64263 1.59844 0
M  V30 887 C 98.0215 0.52451 1.54119 0
M  V30 888 O 99.2105 0.797293 1.59704 0
M  V30 889 C 96.3105 1.60102 2.98698 0
M  V30 890 C 95.4835 2.87767 3.29407 0
M  V30 891 C 94.5425 2.76397 4.47762 0
M  V30 892 O 93.5685 3.50348 4.48603 0
M  V30 893 N 94.7705 1.89222 5.48794 0
M  V30 894 H 97.5355 2.60566 1.48073 0
M  V30 895 H 95.0965 1.47379 0.670149 0
M  V30 896 H 97.0885 1.50123 3.75826 0
M  V30 897 H 95.6585 0.715798 3.04294 0
M  V30 898 H 94.8785 3.11954 2.40994 0
M  V30 899 H 96.1665 3.72365 3.4673 0
M  V30 900 H 95.5645 1.28434 5.50928 0
M  V30 901 H 94.1215 1.85154 6.24949 0
M  V30 902 N 97.5546 -0.734337 1.39446 0
M  V30 903 C 98.4866 -1.85861 1.34121 0
M  V30 904 C 99.4996 -1.60871 0.249864 0
M  V30 905 O 100.689 -1.71093 0.508865 0
M  V30 906 C 97.7886 -3.21899 1.05991 0
M  V30 907 C 96.9616 -3.74239 2.26415 0
M  V30 908 C 96.0206 -4.88841 1.94733 0
M  V30 909 O 95.0466 -5.02468 2.67422 0
M  V30 910 N 96.2486 -5.73261 0.913884 0
M  V30 911 H 99.0136 -1.90934 2.31007 0
M  V30 912 H 96.5746 -0.915102 1.33557 0
M  V30 913 H 98.5666 -3.96136 0.828147 0
M  V30 914 H 97.1366 -3.12091 0.178361 0
M  V30 915 H 96.3566 -2.91347 2.65539 0
M  V30 916 H 97.6446 -4.05942 3.06738 0
M  V30 917 H 97.0426 -5.64842 0.311476 0
M  V30 918 H 95.5996 -6.47563 0.742015 0
M  V30 919 N 99.0327 -1.24633 -0.964593 0
M  V30 920 C 100.449 -1.01239 -1.2338 0
M  V30 921 C 100.649 0.2769 -1.99588 0
M  V30 922 O 99.7047 0.992241 -2.32187 0
M  V30 923 C 101.018 -2.22937 -2.01791 0
M  V30 924 C 102.566 -2.27594 -2.14872 0
M  V30 925 C 103.041 -3.48921 -2.96678 0
M  V30 926 N 104.532 -3.49257 -3.04259 0
M  V30 927 C 105.267 -4.39795 -3.67924 0
M  V30 928 N 104.763 -5.40591 -4.33281 0
M  V30 929 N 106.556 -4.275 -3.64966 0
M  V30 930 H 98.7067 -2.0748 -0.454502 0
M  V30 931 H 100.97 -0.910647 -0.26349 0
M  V30 932 H 100.676 -3.16587 -1.53184 0
M  V30 933 H 100.55 -2.25306 -3.02518 0
M  V30 934 H 102.937 -1.34473 -2.6268 0
M  V30 935 H 103.018 -2.2925 -1.13482 0
M  V30 936 H 102.662 -4.42359 -2.49562 0
M  V30 937 H 102.592 -3.4451 -3.98272 0
M  V30 938 H 105.083 -2.76337 -2.57771 0
M  V30 939 H 105.396 -6.05904 -4.79687 0
M  V30 940 H 103.741 -5.44475 -4.3194 0
M  V30 941 H 106.932 -3.47987 -3.13086 0
M  V30 942 H 107.105 -4.98258 -4.14298 0
M  V30 943 N 100.511 1.16574 -1.06058 0
M  V30 944 C 101.441 2.23057 -0.690488 0
M  V30 945 C 102.422 1.67141 0.315901 0
M  V30 946 O 103.607 1.93253 0.191556 0
M  V30 947 C 100.737 3.47222 -0.073625 0
M  V30 948 C 99.6908 4.16016 -1.00573 0
M  V30 949 C 99.0168 5.34104 -0.252289 0
M  V30 950 C 100.317 4.67264 -2.33371 0
M  V30 951 H 102.011 2.54271 -1.58072 0
M  V30 952 H 99.5568 1.22218 -0.76149 0
M  V30 953 H 101.51 4.20939 0.19714 0
M  V30 954 H 100.234 3.15302 0.85161 0
M  V30 955 H 98.8928 3.44223 -1.2612 0
M  V30 956 H 98.5408 4.98437 0.675988 0
M  V30 957 H 98.2408 5.81072 -0.873455 0
M  V30 958 H 99.7648 6.10599 0.0109857 0
M  V30 959 H 101.179 5.32573 -2.12223 0
M  V30 960 H 99.5758 5.24843 -2.90963 0
M  V30 961 H 100.646 3.83602 -2.96611 0
M  V30 962 N 101.989 0.842826 1.3317 0
M  V30 963 C 102.952 0.284065 2.27433 0
M  V30 964 C 103.952 -0.54948 1.5112 0
M  V30 965 O 105.142 -0.362699 1.70382 0
M  V30 966 C 102.274 -0.599384 3.35589 0
M  V30 967 H 103.467 1.11589 2.78366 0
M  V30 968 H 101.02 0.616221 1.4364 0
M  V30 969 H 101.755 -1.45349 2.89904 0
M  V30 970 H 101.54 -0.00291266 3.921 0
M  V30 971 H 103.03 -0.983488 4.05854 0
M  V30 972 N 103.467 -1.45747 0.599634 0
M  V30 973 C 104.692 -2.07178 0.0960198 0
M  V30 974 C 105.117 -1.44268 -1.207 0
M  V30 975 O 104.475 -0.532503 -1.73303 0
M  V30 976 C 104.523 -3.60579 -0.0385348 0
M  V30 977 O 103.627 -3.97713 -1.0908 0
M  V30 978 H 102.968 -0.660251 0.0704593 0
M  V30 979 H 105.498 -1.87124 0.827385 0
M  V30 980 H 105.508 -4.07298 -0.239304 0
M  V30 981 H 104.183 -4.05756 0.912947 0
M  V30 982 H 102.76 -3.62678 -0.867135 0
M  V30 983 N 104.945 -0.338344 -1.53925 0
M  V30 984 C 106.361 0.0137736 -1.59594 0
M  V30 985 C 106.561 1.49186 -1.35447 0
M  V30 986 O 105.617 2.24987 -1.14616 0
M  V30 987 C 106.93 -0.41773 -2.97784 0
M  V30 988 C 108.478 -0.369633 -3.1081 0
M  V30 989 C 108.953 -0.776524 -4.51369 0
M  V30 990 N 110.444 -0.730506 -4.57403 0
M  V30 991 C 111.179 -1.01736 -5.64303 0
M  V30 992 N 110.675 -1.3721 -6.79077 0
M  V30 993 N 112.468 -0.941942 -5.54151 0
M  V30 994 H 104.619 -1.3012 -1.67876 0
M  V30 995 H 106.882 -0.530082 -0.78595 0
M  V30 996 H 106.588 -1.44811 -3.20504 0
M  V30 997 H 106.462 0.209729 -3.76616 0
M  V30 998 H 108.849 0.651568 -2.87817 0
M  V30 999 H 108.93 -1.03223 -2.34049 0
M  V30 1000 H 108.574 -1.79571 -4.75096 0
M  V30 1001 H 108.504 -0.0914649 -5.26521 0
M  V30 1002 H 110.995 -0.468783 -3.74981 0
M  V30 1003 H 111.308 -1.57597 -7.5656 0
M  V30 1004 H 109.653 -1.4105 -6.80536 0
M  V30 1005 H 112.844 -0.664184 -4.63364 0
M  V30 1006 H 113.017 -1.16884 -6.37371 0
M  V30 1007 N 106.423 1.57458 -0.0668435 0
M  V30 1008 C 107.669 1.94401 0.598316 0
M  V30 1009 C 108.024 0.946335 1.67518 0
M  V30 1010 O 107.317 -0.0321442 1.91573 0
M  V30 1011 C 107.511 3.35784 1.22409 0
M  V30 1012 C 107.34 4.49212 0.209367 0
M  V30 1013 C 106.11 5.04887 -0.204218 0
M  V30 1014 C 108.308 5.11335 -0.551431 0
M  V30 1015 N 106.29 6.01854 -1.21016 0
M  V30 1016 C 107.661 6.03754 -1.41 0
M  V30 1017 C 109.716 4.94173 -0.608038 0
M  V30 1018 C 108.419 6.80854 -2.32013 0
M  V30 1019 C 110.445 5.71912 -1.50566 0
M  V30 1020 C 109.807 6.63976 -2.35191 0
M  V30 1021 H 105.906 0.758538 0.190114 0
M  V30 1022 H 108.49 1.94175 -0.142832 0
M  V30 1023 H 106.661 3.36757 1.93518 0
M  V30 1024 H 108.393 3.59976 1.84931 0
M  V30 1025 H 105.148 4.73266 0.177908 0
M  V30 1026 H 105.572 6.55035 -1.71049 0
M  V30 1027 H 110.214 4.22788 0.032022 0
M  V30 1028 H 107.932 7.5152 -2.97057 0
M  V30 1029 H 111.518 5.60656 -1.55423 0
M  V30 1030 H 110.398 7.2308 -3.03522 0
M  V30 1031 N 107.901 -0.206675 1.56239 0
M  V30 1032 C 109.317 -0.557025 1.49564 0
M  V30 1033 C 109.517 -1.86424 0.764735 0
M  V30 1034 O 108.573 -2.50584 0.310491 0
M  V30 1035 C 109.886 -0.622478 2.94186 0
M  V30 1036 C 111.434 -0.712099 3.04792 0
M  V30 1037 C 111.909 -0.808767 4.50803 0
M  V30 1038 N 113.4 -0.8726 4.54907 0
M  V30 1039 C 114.135 -0.967365 5.65181 0
M  V30 1040 N 113.631 -1.02515 6.85173 0
M  V30 1041 N 115.424 -1.00366 5.53067 0
M  V30 1042 H 107.575 0.650943 2.02179 0
M  V30 1043 H 109.838 0.230387 0.919579 0
M  V30 1044 H 109.544 0.268727 3.50672 0
M  V30 1045 H 109.418 -1.4811 3.46905 0
M  V30 1046 H 111.805 -1.59374 2.48363 0
M  V30 1047 H 111.886 0.172489 2.55218 0
M  V30 1048 H 111.53 0.0684754 5.07854 0
M  V30 1049 H 111.46 -1.70899 4.98098 0
M  V30 1050 H 113.951 -0.837657 3.68499 0
M  V30 1051 H 114.264 -1.09765 7.64965 0
M  V30 1052 H 112.609 -0.994026 6.87855 0
M  V30 1053 H 115.8 -0.95527 4.58249 0
M  V30 1054 H 115.973 -1.07405 6.39037 0
M  V30 1055 N 109.379 -1.50304 -0.473955 0
M  V30 1056 C 110.604 -1.65175 -1.25427 0
M  V30 1057 C 111.029 -0.333673 -1.85117 0
M  V30 1058 O 110.387 0.702114 -1.67153 0
M  V30 1059 C 110.435 -2.74295 -2.34082 0
M  V30 1060 O 109.539 -2.35349 -3.38651 0
M  V30 1061 H 108.88 -0.551944 -0.369126 0
M  V30 1062 H 111.41 -1.96662 -0.564364 0
M  V30 1063 H 111.42 -2.97285 -2.79438 0
M  V30 1064 H 110.095 -3.69959 -1.90008 0
M  V30 1065 H 108.672 -2.22794 -2.99027 0
M  V30 1066 N 110.857 0.726932 -1.39834 0
M  V30 1067 C 112.134 1.47902 -1.28001 0
M  V30 1068 C 112.514 2.1083 0.106789 0
M  V30 1069 O 111.862 1.99242 1.11869 0
M  V30 1070 C 112.072 2.52392 -2.41038 0
M  V30 1071 C 113.42 3.18546 -2.80737 0
M  V30 1072 O 114.444 2.62708 -2.40547 0
M  V30 1073 O 113.303 4.19604 -3.50135 0
M  V30 1074 H 110.397 0.657163 -0.502062 0
M  V30 1075 H 112.943 0.760071 -1.51727 0
M  V30 1076 H 111.715 2.04329 -3.33715 0
M  V30 1077 H 111.338 3.31837 -2.19021 0
M  V30 1078 N 112.336 1.25143 0.95797 0
M  V30 1079 C 113.613 1.00472 1.67823 0
M  V30 1080 C 113.993 -0.470056 2.058 0
M  V30 1081 O 113.341 -1.44663 1.76875 0
M  V30 1082 C 113.551 1.9372 2.90299 0
M  V30 1083 C 114.899 2.21371 3.62326 0
M  V30 1084 O 115.923 1.91451 3.00375 0
M  V30 1085 O 114.782 2.72231 4.7387 0
M  V30 1086 H 111.876 0.380752 0.734137 0
M  V30 1087 H 114.422 1.36283 1.01119 0
M  V30 1088 H 113.194 2.93316 2.59001 0
M  V30 1089 H 112.817 1.58286 3.64735 0
M  V30 1090 N 113.814 -1.1601 1.06675 0
M  V30 1091 C 115.091 -1.82679 0.699114 0
M  V30 1092 C 115.471 -1.94559 -0.819137 0
M  V30 1093 O 114.819 -1.49169 -1.73092 0
M  V30 1094 C 115.029 -3.19445 1.40555 0
M  V30 1095 C 116.377 -3.95171 1.55323 0
M  V30 1096 O 117.401 -3.28976 1.36577 0
M  V30 1097 O 116.26 -5.13833 1.86112 0
M  V30 1098 H 113.354 -0.788954 0.247951 0
M  V30 1099 H 115.9 -1.23179 1.16726 0
M  V30 1100 H 114.672 -3.05856 2.44065 0
M  V30 1101 H 114.295 -3.86625 0.927733 0
M  V30 1102 N 115.292 -0.849877 -1.32721 0
M  V30 1103 C 116.569 -0.372405 -1.92022 0
M  V30 1104 C 116.949 1.1435 -1.77447 0
M  V30 1105 O 116.297 1.96296 -1.16962 0
M  V30 1106 C 116.507 -0.831482 -3.3895 0
M  V30 1107 C 117.855 -0.845882 -4.16089 0
M  V30 1108 O 118.879 -0.775806 -3.47649 0
M  V30 1109 O 117.738 -0.943753 -5.38289 0
M  V30 1110 H 114.832 -0.107667 -0.819961 0
M  V30 1111 H 117.378 -0.93646 -1.41522 0
M  V30 1112 H 116.15 -1.87448 -3.4348 0
M  V30 1113 H 115.773 -0.24461 -3.96847 0
M  V30 1114 N 116.77 1.45427 -0.607355 0
M  V30 1115 C 118.047 1.9557 -0.0344566 0
M  V30 1116 C 118.427 1.54979 1.43334 0
M  V30 1117 O 117.775 0.812241 2.13576 0
M  V30 1118 C 117.985 3.48226 -0.232321 0
M  V30 1119 C 119.333 4.2445 -0.113001 0
M  V30 1120 O 120.357 3.55829 -0.162431 0
M  V30 1121 O 119.216 5.465 0.00209442 0
M  V30 1122 H 116.31 0.826222 0.0358667 0
M  V30 1123 H 118.856 1.55594 -0.6774 0
M  V30 1124 H 117.628 3.70739 -1.25174 0
M  V30 1125 H 117.251 3.95092 0.445896 0
M  V30 1126 N 118.248 0.346503 1.53744 0
M  V30 1127 C 119.659 -0.136779 1.86198 0
M  V30 1128 C 120.01 -1.49749 1.26766 0
M  V30 1129 O 119.135 -2.08417 0.582355 0
M  V30 1130 C 119.73 -0.254966 3.37839 0
M  V30 1131 C 118.289 -0.682482 3.70161 0
M  V30 1132 C 117.436 0.181981 2.76702 0
M  V30 1133 H 120.387 0.565994 1.48264 0
M  V30 1134 H 120.408 -1.08195 3.64793 0
M  V30 1135 H 119.92 0.735526 3.81066 0
M  V30 1136 H 118.021 -1.68189 3.3248 0
M  V30 1137 H 118.134 -0.470326 4.76786 0
M  V30 1138 H 116.498 -0.34615 2.52337 0
M  V30 1139 H 117.281 1.16966 3.2276 0
M  V30 1140 N 119.726 -1.57421 0.075193 0
M  V30 1141 C 121.137 -1.81021 -0.456964 0
M  V30 1142 C 121.488 -0.98936 -1.69429 0
M  V30 1143 O 120.613 -0.212865 -2.15351 0
M  V30 1144 C 121.208 -3.28329 -0.83581 0
M  V30 1145 C 119.767 -3.52764 -1.31281 0
M  V30 1146 C 118.914 -2.75676 -0.299648 0
M  V30 1147 H 121.865 -1.55822 0.300856 0
M  V30 1148 H 121.886 -3.40564 -1.69696 0
M  V30 1149 H 121.398 -3.88046 0.0649238 0
M  V30 1150 H 119.499 -2.98355 -2.23193 0
M  V30 1151 H 119.612 -4.61451 -1.28839 0
M  V30 1152 H 117.976 -2.42538 -0.777641 0
M  V30 1153 H 118.759 -3.38132 0.593417 0
M  V30 1154 N 121.204 0.198386 -1.56346 0
M  V30 1155 C 122.134 1.24865 -1.9731 0
M  V30 1156 C 123.115 1.47651 -0.844576 0
M  V30 1157 O 124.3 1.59444 -1.10866 0
M  V30 1158 C 121.43 2.59358 -2.30977 0
M  V30 1159 C 120.384 2.5119 -3.46537 0
M  V30 1160 C 119.71 3.89926 -3.65871 0
M  V30 1161 C 121.01 2.03977 -4.80823 0
M  V30 1162 H 122.704 0.908252 -2.85291 0
M  V30 1163 H 120.25 0.435462 -1.37258 0
M  V30 1164 H 122.203 3.33011 -2.58228 0
M  V30 1165 H 120.927 2.95132 -1.39874 0
M  V30 1166 H 119.586 1.79993 -3.19371 0
M  V30 1167 H 119.234 4.23046 -2.72105 0
M  V30 1168 H 118.934 3.85336 -4.4361 0
M  V30 1169 H 120.458 4.65205 -3.95495 0
M  V30 1170 H 121.872 2.67386 -5.07127 0
M  V30 1171 H 120.269 2.10397 -5.62008 0
M  V30 1172 H 121.339 0.992861 -4.74626 0
M  V30 1173 N 122.682 1.50554 0.465978 0
M  V30 1174 C 123.907 1.65838 1.24549 0
M  V30 1175 C 124.332 0.343486 1.84937 0
M  V30 1176 O 123.69 -0.69324 1.67523 0
M  V30 1177 C 123.738 2.75533 2.32624 0
M  V30 1178 O 122.842 2.37142 3.37398 0
M  V30 1179 H 122.183 0.553893 0.366194 0
M  V30 1180 H 124.713 1.96959 0.553927 0
M  V30 1181 H 124.723 2.98763 2.77857 0
M  V30 1182 H 123.398 3.70962 1.88043 0
M  V30 1183 H 121.975 2.24377 2.97841 0
M  V30 1184 N 124.16 -0.719506 1.40217 0
M  V30 1185 C 125.408 -1.47641 1.3801 0
M  V30 1186 C 125.729 -1.94992 -0.018145 0
M  V30 1187 O 124.999 -1.70073 -0.972207 0
M  V30 1188 H 123.579 -0.547744 0.507923 0
M  V30 1189 H 126.241 -0.853187 1.75233 0
M  V30 1190 H 125.337 -2.35112 2.05253 0
M  V30 1191 N 125.638 -1.25649 -0.95132 0
M  V30 1192 C 126.915 -1.01361 -1.67288 0
M  V30 1193 C 127.295 0.459135 -2.06046 0
M  V30 1194 O 126.643 1.43723 -1.7764 0
M  V30 1195 C 126.853 -1.95256 -2.89268 0
M  V30 1196 C 128.201 -2.23289 -3.61147 0
M  V30 1197 O 129.225 -1.93041 -2.99355 0
M  V30 1198 O 128.084 -2.74741 -4.72419 0
M  V30 1199 H 125.178 -0.38464 -0.732107 0
M  V30 1200 H 127.724 -1.36817 -1.00395 0
M  V30 1201 H 126.496 -2.94685 -2.57442 0
M  V30 1202 H 126.119 -1.60218 -3.6389 0
M  V30 1203 N 127.117 1.15442 -1.07289 0
M  V30 1204 C 128.394 1.82306 -0.708792 0
M  V30 1205 C 128.774 1.94991 0.808807 0
M  V30 1206 O 128.122 1.50085 1.72298 0
M  V30 1207 C 128.332 3.18695 -1.42247 0
M  V30 1208 C 129.68 3.94341 -1.57417 0
M  V30 1209 O 130.704 3.28247 -1.38319 0
M  V30 1210 O 129.563 5.12839 -1.88834 0
M  V30 1211 H 126.657 0.787628 -0.252132 0
M  V30 1212 H 129.203 1.22559 -1.17377 0
M  V30 1213 H 127.975 3.04557 -2.45684 0
M  V30 1214 H 127.598 3.86128 -0.948223 0
M  V30 1215 N 128.595 0.856903 1.32268 0
M  V30 1216 C 130.006 0.515711 1.79436 0
M  V30 1217 C 130.357 -0.966586 1.70738 0
M  V30 1218 O 129.482 -1.75409 1.26731 0
M  V30 1219 C 130.077 0.929335 3.25805 0
M  V30 1220 C 128.636 0.640006 3.70919 0
M  V30 1221 C 127.783 1.12784 2.53328 0
M  V30 1222 H 130.734 1.04389 1.19535 0
M  V30 1223 H 130.755 0.246633 3.797 0
M  V30 1224 H 130.267 2.00821 3.32103 0
M  V30 1225 H 128.368 -0.428051 3.70133 0
M  V30 1226 H 128.481 1.20788 4.63624 0
M  V30 1227 H 126.845 0.548033 2.48734 0
M  V30 1228 H 127.628 2.21387 2.62379 0
M  V30 1229 N 130.073 -1.45103 0.615059 0
M  V30 1230 C 131.003 -2.33339 -0.0865619 0
M  V30 1231 C 131.984 -1.4727 -0.851209 0
M  V30 1232 O 133.169 -1.76026 -0.820281 0
M  V30 1233 C 130.299 -3.30095 -1.07956 0
M  V30 1234 C 129.253 -4.25858 -0.427628 0
M  V30 1235 C 128.579 -5.12361 -1.5294 0
M  V30 1236 C 129.879 -5.18165 0.655944 0
M  V30 1237 H 131.573 -2.92254 0.650224 0
M  V30 1238 H 129.119 -1.40532 0.314138 0
M  V30 1239 H 131.072 -3.90698 -1.57901 0
M  V30 1240 H 129.796 -2.69355 -1.84703 0
M  V30 1241 H 128.455 -3.66564 0.0510292 0
M  V30 1242 H 128.103 -4.47984 -2.28734 0
M  V30 1243 H 127.803 -5.77238 -1.09865 0
M  V30 1244 H 129.327 -5.75833 -2.03098 0
M  V30 1245 H 130.741 -5.72796 0.240257 0
M  V30 1246 H 129.138 -5.91559 1.00888 0
M  V30 1247 H 130.208 -4.60144 1.52957 0
M  V30 1248 N 131.551 -0.354651 -1.53558 0
M  V30 1249 C 132.514 0.484566 -2.24019 0
M  V30 1250 C 133.514 1.01861 -1.24422 0
M  V30 1251 O 134.704 0.906097 -1.4878 0
M  V30 1252 C 131.836 1.67615 -2.96847 0
M  V30 1253 H 133.029 -0.131843 -2.9961 0
M  V30 1254 H 130.582 -0.106165 -1.55939 0
M  V30 1255 H 131.317 2.33095 -2.25471 0
M  V30 1256 H 131.102 1.30029 -3.69912 0
M  V30 1257 H 132.592 2.27114 -3.50441 0
M  V30 1258 N 133.029 1.57378 -0.0835403 0
M  V30 1259 C 134.277 1.93547 0.581718 0
M  V30 1260 C 134.598 0.96524 1.69435 0
M  V30 1261 O 133.868 0.0153369 1.95894 0
M  V30 1262 H 132.448 0.714521 0.217874 0
M  V30 1263 H 135.11 1.94366 -0.144158 0
M  V30 1264 H 134.206 2.95665 0.999423 0
M  V30 1265 N 134.507 -0.190092 1.56449 0
M  V30 1266 C 135.755 -0.907908 1.80559 0
M  V30 1267 C 136.076 -1.83583 0.657438 0
M  V30 1268 O 135.346 -1.93203 -0.323924 0
M  V30 1269 H 133.926 -0.338247 0.666032 0
M  V30 1270 H 136.588 -0.194403 1.93928 0
M  V30 1271 H 135.684 -1.49604 2.73907 0
M  V30 1272 N 135.985 -1.50799 -0.457987 0
M  V30 1273 C 137.232 -1.62442 -1.20908 0
M  V30 1274 C 137.56 -0.330865 -1.91665 0
M  V30 1275 O 136.815 0.68401 -1.83357 0
M  V30 1276 C 137.114 -2.76358 -2.2663 0
M  V30 1277 C 136.78 -4.16378 -1.73033 0
M  V30 1278 C 135.442 -4.54473 -1.58138 0
M  V30 1279 C 137.794 -5.03836 -1.33413 0
M  V30 1280 C 135.122 -5.77754 -1.02065 0
M  V30 1281 C 137.474 -6.27676 -0.78778 0
M  V30 1282 C 136.138 -6.64562 -0.625561 0
M  V30 1283 H 135.408 -0.594417 -0.442435 0
M  V30 1284 H 138.055 -1.84772 -0.503136 0
M  V30 1285 H 136.36 -2.48167 -3.03184 0
M  V30 1286 H 138.057 -2.82568 -2.84528 0
M  V30 1287 H 134.647 -3.86331 -1.85598 0
M  V30 1288 H 138.831 -4.75026 -1.4375 0
M  V30 1289 H 134.087 -6.04997 -0.882547 0
M  V30 1290 H 138.261 -6.94797 -0.472177 0
M  V30 1291 H 135.888 -7.59965 -0.188926 0
M  V30 1292 N 137.463 0.71206 -1.40597 0
M  V30 1293 C 138.711 1.46907 -1.38791 0
M  V30 1294 C 139.032 1.94998 0.00780391 0
M  V30 1295 O 138.302 1.70587 0.963174 0
M  V30 1296 H 136.882 0.545043 -0.51082 0
M  V30 1297 H 139.544 0.843882 -1.75683 0
M  V30 1298 H 138.64 2.34021 -2.06496 0
M  V30 1299 N 138.941 1.26152 0.944643 0
M  V30 1300 C 140.188 1.11492 1.69044 0
M  V30 1301 C 140.516 -0.342366 1.91463 0
M  V30 1302 O 139.771 -1.26812 1.49054 0
M  V30 1303 C 140.07 1.82541 3.07268 0
M  V30 1304 C 139.736 3.32445 3.04616 0
M  V30 1305 C 138.398 3.73337 3.036 0
M  V30 1306 C 140.75 4.28171 2.97185 0
M  V30 1307 C 138.078 5.08348 2.92915 0
M  V30 1308 C 140.43 5.63218 2.88041 0
M  V30 1309 C 139.094 6.03426 2.85366 0
M  V30 1310 H 138.364 0.407977 0.618576 0
M  V30 1311 H 141.011 1.56551 1.10291 0
M  V30 1312 H 139.316 1.29941 3.69625 0
M  V30 1313 H 141.013 1.68642 3.63815 0
M  V30 1314 H 137.603 2.99915 3.06185 0
M  V30 1315 H 141.787 3.97563 2.97081 0
M  V30 1316 H 137.043 5.38667 2.89219 0
M  V30 1317 H 141.217 6.37078 2.81254 0
M  V30 1318 H 138.844 7.07999 2.76842 0
M  V30 1319 N 140.419 -1.14872 1.07899 0
M  V30 1320 C 141.644 -1.90202 0.826926 0
M  V30 1321 C 142.069 -1.77774 -0.614664 0
M  V30 1322 O 141.427 -1.11431 -1.43013 0
M  V30 1323 C 141.475 -3.38352 1.24702 0
M  V30 1324 O 140.579 -4.10497 0.39575 0
M  V30 1325 H 139.92 -0.591968 0.300782 0
M  V30 1326 H 142.45 -1.45437 1.43907 0
M  V30 1327 H 142.46 -3.89156 1.22563 0
M  V30 1328 H 141.135 -3.46715 2.29698 0
M  V30 1329 H 139.712 -3.69796 0.480117 0
M  V30 1330 N 141.898 -0.863906 -1.31812 0
M  V30 1331 C 143.145 -0.471836 -1.96926 0
M  V30 1332 C 143.473 0.974578 -1.68322 0
M  V30 1333 O 142.728 1.7003 -0.968933 0
M  V30 1334 C 143.027 -0.668547 -3.51091 0
M  V30 1335 C 142.693 -2.08683 -3.99703 0
M  V30 1336 C 141.355 -2.47471 -4.12688 0
M  V30 1337 C 143.707 -3.01207 -4.25351 0
M  V30 1338 C 141.035 -3.78037 -4.4867 0
M  V30 1339 C 143.387 -4.31282 -4.62794 0
M  V30 1340 C 142.051 -4.69992 -4.73987 0
M  V30 1341 H 141.321 -0.172657 -0.720604 0
M  V30 1342 H 143.968 -1.09573 -1.57054 0
M  V30 1343 H 142.273 0.0385252 -3.91781 0
M  V30 1344 H 143.97 -0.345102 -3.99512 0
M  V30 1345 H 140.56 -1.77566 -3.90087 0
M  V30 1346 H 144.744 -2.72469 -4.14819 0
M  V30 1347 H 140 -4.078 -4.55532 0
M  V30 1348 H 144.174 -5.03031 -4.81594 0
M  V30 1349 H 141.801 -5.71207 -5.01624 0
M  V30 1350 N 143.376 1.44774 -0.622745 0
M  V30 1351 C 144.792 1.56986 -0.287652 0
M  V30 1352 C 144.992 1.61167 1.20944 0
M  V30 1353 O 144.048 1.55015 1.99315 0
M  V30 1354 C 145.361 2.84551 -0.972188 0
M  V30 1355 C 146.909 2.9825 -0.949536 0
M  V30 1356 C 147.384 4.28605 -1.61437 0
M  V30 1357 N 148.875 4.35399 -1.58057 0
M  V30 1358 C 149.61 5.34964 -2.064 0
M  V30 1359 N 149.106 6.40981 -2.62897 0
M  V30 1360 N 150.899 5.26419 -1.97078 0
M  V30 1361 H 143.05 1.40304 -1.59463 0
M  V30 1362 H 145.313 0.671794 -0.668878 0
M  V30 1363 H 145.019 2.87417 -2.02693 0
M  V30 1364 H 144.893 3.73807 -0.504771 0
M  V30 1365 H 147.28 2.94941 0.0967067 0
M  V30 1366 H 147.361 2.10364 -1.45536 0
M  V30 1367 H 147.005 4.32672 -2.66002 0
M  V30 1368 H 146.935 5.15334 -1.08344 0
M  V30 1369 H 149.426 3.59397 -1.16801 0
M  V30 1370 H 149.739 7.13225 -2.97539 0
M  V30 1371 H 148.084 6.4169 -2.66943 0
M  V30 1372 H 151.275 4.42504 -1.52669 0
M  V30 1373 H 151.448 6.03861 -2.35066 0
M  V30 1374 N 144.854 0.36279 1.53368 0
M  V30 1375 C 146.079 -0.231226 2.06107 0
M  V30 1376 C 146.504 -1.419 1.23474 0
M  V30 1377 O 145.862 -1.79524 0.253128 0
M  V30 1378 C 145.91 -0.605523 3.5548 0
M  V30 1379 O 145.014 -1.70312 3.7559 0
M  V30 1380 H 144.355 -0.034327 0.663112 0
M  V30 1381 H 146.885 0.522584 1.97814 0
M  V30 1382 H 146.895 -0.877314 3.98456 0
M  V30 1383 H 145.57 0.263004 4.15068 0
M  V30 1384 H 144.147 -1.4271 3.44512 0
M  V30 1385 N 146.332 -1.57332 0.0918853 0
M  V30 1386 C 147.279 -2.13847 -0.868211 0
M  V30 1387 C 148.249 -1.05618 -1.28196 0
M  V30 1388 O 149.434 -1.33387 -1.36427 0
M  V30 1389 C 146.574 -2.72062 -2.12312 0
M  V30 1390 C 145.687 -3.94514 -1.7602 0
M  V30 1391 C 144.822 -4.40903 -2.96273 0
M  V30 1392 C 143.861 -5.55953 -2.56092 0
M  V30 1393 N 142.998 -5.97209 -3.69169 0
M  V30 1394 H 147.838 -2.95575 -0.379406 0
M  V30 1395 H 145.375 -1.46048 -0.175606 0
M  V30 1396 H 147.333 -3.03931 -2.858 0
M  V30 1397 H 145.963 -1.93068 -2.58698 0
M  V30 1398 H 145.015 -3.68979 -0.925135 0
M  V30 1399 H 146.327 -4.7802 -1.42472 0
M  V30 1400 H 145.481 -4.74539 -3.78018 0
M  V30 1401 H 144.22 -3.56291 -3.33029 0
M  V30 1402 H 143.225 -5.21948 -1.72773 0
M  V30 1403 H 144.45 -6.42311 -2.20484 0
M  V30 1404 H 142.396 -5.15543 -4.05649 0
M  V30 1405 H 142.313 -6.75504 -3.39456 0
M  V30 1406 H 143.581 -6.35475 -4.51434 0
M  V30 1407 N 147.81 0.181792 -1.56548 0
M  V30 1408 C 149.035 0.920019 -1.85877 0
M  V30 1409 C 149.46 1.75494 -0.677021 0
M  V30 1410 O 148.818 1.77399 0.374056 0
M  V30 1411 C 148.866 1.78112 -3.13542 0
M  V30 1412 O 147.97 2.88152 -2.95029 0
M  V30 1413 H 147.311 0.258334 -0.611686 0
M  V30 1414 H 149.841 0.183092 -2.03779 0
M  V30 1415 H 149.851 2.18314 -3.44678 0
M  V30 1416 H 148.526 1.16777 -3.99169 0
M  V30 1417 H 147.103 2.51609 -2.75222 0
M  V30 1418 N 149.288 1.51039 0.449983 0
M  V30 1419 C 150.251 1.70863 1.5277 0
M  V30 1420 C 151.251 0.578846 1.5002 0
M  V30 1421 O 152.441 0.846213 1.52266 0
M  V30 1422 C 149.573 1.75341 2.9235 0
M  V30 1423 H 150.766 2.67034 1.36502 0
M  V30 1424 H 148.319 1.40838 0.677812 0
M  V30 1425 H 149.054 0.809383 3.14037 0
M  V30 1426 H 148.839 2.57436 2.95752 0
M  V30 1427 H 150.329 1.92559 3.70555 0
M  V30 1428 N 150.766 -0.704594 1.40972 0
M  V30 1429 C 152.012 -1.46546 1.41053 0
M  V30 1430 C 152.367 -1.92393 0.0159714 0
M  V30 1431 O 151.66 -1.66017 -0.956506 0
M  V30 1432 C 151.854 -2.698 2.34399 0
M  V30 1433 C 151.683 -2.36008 3.82793 0
M  V30 1434 C 150.453 -2.26812 4.51536 0
M  V30 1435 C 152.651 -1.99565 4.74003 0
M  V30 1436 N 150.633 -1.8581 5.85105 0
M  V30 1437 C 152.004 -1.69251 5.96451 0
M  V30 1438 C 154.059 -1.86296 4.61734 0
M  V30 1439 C 152.762 -1.27003 7.07999 0
M  V30 1440 C 154.788 -1.45452 5.73234 0
M  V30 1441 C 154.15 -1.16043 6.94776 0
M  V30 1442 H 150.249 -0.533896 0.571383 0
M  V30 1443 H 152.833 -0.816061 1.76773 0
M  V30 1444 H 151.004 -3.32473 2.00789 0
M  V30 1445 H 152.736 -3.36214 2.25261 0
M  V30 1446 H 149.491 -2.44913 4.05357 0
M  V30 1447 H 149.915 -1.67817 6.55871 0
M  V30 1448 H 154.557 -2.0769 3.68273 0
M  V30 1449 H 152.275 -1.04353 8.01334 0
M  V30 1450 H 155.861 -1.35748 5.65742 0
M  V30 1451 H 154.741 -0.84915 7.79589 0
M  V30 1452 N 152.244 -1.26651 -0.937939 0
M  V30 1453 C 153.176 -1.04283 -2.04102 0
M  V30 1454 C 154.189 -0.00221014 -1.628 0
M  V30 1455 O 155.378 -0.242645 -1.76843 0
M  V30 1456 C 152.478 -0.557846 -3.34277 0
M  V30 1457 C 151.651 -1.66843 -4.04329 0
M  V30 1458 C 150.71 -1.18095 -5.12777 0
M  V30 1459 O 149.736 -1.87865 -5.37304 0
M  V30 1460 N 150.938 -0.0311006 -5.80492 0
M  V30 1461 H 153.703 -1.9927 -2.23856 0
M  V30 1462 H 151.264 -1.1808 -1.10764 0
M  V30 1463 H 153.256 -0.215836 -4.04124 0
M  V30 1464 H 151.826 0.298523 -3.11171 0
M  V30 1465 H 151.046 -2.18123 -3.28353 0
M  V30 1466 H 152.334 -2.41408 -4.47883 0
M  V30 1467 H 151.732 0.551486 -5.63005 0
M  V30 1468 H 150.289 0.251809 -6.51313 0
M  V30 1469 N 153.722 1.14298 -1.08507 0
M  V30 1470 C 154.632 2.23027 -0.727753 0
M  V30 1471 C 155.648 1.71952 0.26619 0
M  V30 1472 O 156.824 2.011 0.109882 0
M  V30 1473 C 153.889 3.46403 -0.143541 0
M  V30 1474 C 152.95 4.12413 -1.19223 0
M  V30 1475 C 152.183 5.29899 -0.635798 0
M  V30 1476 O 152.406 5.67796 0.544393 0
M  V30 1477 O 151.34 5.85717 -1.38634 0
M  V30 1478 H 155.166 2.55945 -1.63481 0
M  V30 1479 H 152.751 1.22248 -0.858817 0
M  V30 1480 H 154.633 4.21018 0.179404 0
M  V30 1481 H 153.308 3.15206 0.736659 0
M  V30 1482 H 152.215 3.39667 -1.56772 0
M  V30 1483 H 153.548 4.47718 -2.04474 0
M  V30 1484 N 155.201 0.870884 1.31352 0
M  V30 1485 C 156.617 0.562932 1.49343 0
M  V30 1486 C 156.817 -0.902725 1.80148 0
M  V30 1487 O 155.873 -1.68484 1.88067 0
M  V30 1488 C 157.186 1.46393 2.62659 0
M  V30 1489 C 158.734 1.46607 2.76542 0
M  V30 1490 C 159.209 2.35266 3.92955 0
M  V30 1491 N 160.7 2.33151 4.00243 0
M  V30 1492 C 161.435 2.98471 4.89594 0
M  V30 1493 N 160.931 3.72964 5.8384 0
M  V30 1494 N 162.724 2.87775 4.82848 0
M  V30 1495 H 154.875 1.81923 1.09626 0
M  V30 1496 H 157.138 0.777934 0.541777 0
M  V30 1497 H 156.844 2.50689 2.46674 0
M  V30 1498 H 156.718 1.16314 3.58819 0
M  V30 1499 H 159.105 0.43069 2.9194 0
M  V30 1500 H 159.186 1.8071 1.81046 0
M  V30 1501 H 158.83 3.38881 3.78315 0
M  V30 1502 H 158.76 1.98487 4.87761 0
M  V30 1503 H 161.251 1.79006 3.32814 0
M  V30 1504 H 161.564 4.19932 6.4875 0
M  V30 1505 H 159.909 3.77073 5.83816 0
M  V30 1506 H 163.1 2.29116 4.08195 0
M  V30 1507 H 163.273 3.38961 5.52277 0
M  V30 1508 N 156.679 -1.44442 0.630414 0
M  V30 1509 C 157.927 -2.01653 0.134351 0
M  V30 1510 C 158.248 -1.49836 -1.24796 0
M  V30 1511 O 157.518 -0.701684 -1.82902 0
M  V30 1512 H 156.098 -0.74554 0.0466769 0
M  V30 1513 H 158.76 -1.76952 0.816955 0
M  V30 1514 H 157.856 -3.11935 0.101498 0
M  V30 1515 N 158.157 -0.370918 -1.53173 0
M  V30 1516 C 159.405 0.216673 -2.00935 0
M  V30 1517 C 159.726 1.48845 -1.25977 0
M  V30 1518 O 158.996 1.92286 -0.374551 0
M  V30 1519 H 157.576 0.0830565 -0.742368 0
M  V30 1520 H 160.238 -0.49838 -1.8842 0
M  V30 1521 H 159.334 0.439893 -3.08984 0
M  V30 1522 N 159.635 1.57281 -0.100228 0
M  V30 1523 C 160.912 1.86014 0.604812 0
M  V30 1524 C 161.292 0.998025 1.86018 0
M  V30 1525 O 160.64 0.0718184 2.28387 0
M  V30 1526 C 160.85 3.36784 0.915278 0
M  V30 1527 C 162.198 4.04957 1.27651 0
M  V30 1528 O 163.222 3.41695 1.00613 0
M  V30 1529 O 162.081 5.16593 1.7831 0
M  V30 1530 H 159.175 0.76942 0.303185 0
M  V30 1531 H 161.721 1.69176 -0.133313 0
M  V30 1532 H 160.493 3.91292 0.0248896 0
M  V30 1533 H 160.116 3.58987 1.70921 0
M  V30 1534 N 161.113 -0.173488 1.56642 0
M  V30 1535 C 162.39 -0.917617 1.7274 0
M  V30 1536 C 162.77 -2.00484 0.661027 0
M  V30 1537 O 162.118 -2.26184 -0.32453 0
M  V30 1538 C 162.328 -1.48433 3.15862 0
M  V30 1539 C 163.676 -1.95809 3.76754 0
M  V30 1540 O 164.7 -1.58231 3.19126 0
M  V30 1541 O 163.559 -2.65024 4.77938 0
M  V30 1542 H 160.653 -0.431772 0.705338 0
M  V30 1543 H 163.199 -0.161487 1.6893 0
M  V30 1544 H 161.971 -0.701715 3.84957 0
M  V30 1545 H 161.594 -2.30471 3.23989 0
M  V30 1546 N 162.591 -1.51276 -0.441967 0
M  V30 1547 C 163.831 -1.65372 -1.20132 0
M  V30 1548 C 164.195 -0.359871 -1.88597 0
M  V30 1549 O 165.396 -0.376551 -2.66149 0
M  V30 1550 C 163.667 -2.8207 -2.1948 0
M  V30 1551 S 165.226 -3.16467 -3.03964 0
M  V30 1552 H 162.044 -0.582669 -0.407453 0
M  V30 1553 H 164.646 -1.89166 -0.493609 0
M  V30 1554 H 163.35 -3.74523 -1.67812 0
M  V30 1555 H 162.881 -2.6045 -2.94838 0
M  V30 1556 H 164.896 -2.62543 -4.21053 0
M  V30 1557 N 164.069 0.697108 -1.41344 0
M  V30 1558 C 165.317 1.45426 -1.40341 0
M  V30 1559 C 165.638 1.94996 -0.0128787 0
M  V30 1560 O 164.908 1.71599 0.945027 0
M  V30 1561 H 163.488 0.539594 -0.516573 0
M  V30 1562 H 166.15 0.825201 -1.76569 0
M  V30 1563 H 165.246 2.31817 -2.08967 0
M  V30 1564 N 165.547 1.27147 0.931209 0
M  V30 1565 C 166.963 1.04475 1.20653 0
M  V30 1566 C 167.163 -0.223885 2.00252 0
M  V30 1567 O 166.219 -0.930332 2.34736 0
M  V30 1568 C 167.532 2.28209 1.95809 0
M  V30 1569 C 169.08 2.33211 2.08762 0
M  V30 1570 C 169.555 3.56665 2.87323 0
M  V30 1571 N 171.046 3.57201 2.94892 0
M  V30 1572 C 171.781 4.49395 3.56134 0
M  V30 1573 N 171.277 5.51889 4.18796 0
M  V30 1574 N 173.07 4.37026 3.53504 0
M  V30 1575 H 165.221 2.08612 0.399333 0
M  V30 1576 H 167.484 0.917312 0.239253 0
M  V30 1577 H 167.19 3.20538 1.44736 0
M  V30 1578 H 167.064 2.33247 2.96438 0
M  V30 1579 H 169.451 1.41391 2.59023 0
M  V30 1580 H 169.532 2.32178 1.07364 0
M  V30 1581 H 169.176 4.4882 2.37746 0
M  V30 1582 H 169.106 3.54948 3.88998 0
M  V30 1583 H 171.597 2.83074 2.50354 0
M  V30 1584 H 171.91 6.18409 4.63454 0
M  V30 1585 H 170.255 5.55735 4.17353 0
M  V30 1586 H 173.446 3.56166 3.03749 0
M  V30 1587 H 173.619 5.09067 4.00942 0
M  V30 1588 N 167.025 -1.13721 1.09112 0
M  V30 1589 C 168.273 -1.84559 0.823562 0
M  V30 1590 C 168.594 -1.83754 -0.652658 0
M  V30 1591 O 167.864 -1.29102 -1.47342 0
M  V30 1592 H 166.444 -0.683376 0.301673 0
M  V30 1593 H 169.106 -1.37771 1.37859 0
M  V30 1594 H 168.202 -2.8917 1.17419 0
M  V30 1595 N 168.503 -0.877838 -1.30888 0
M  V30 1596 C 169.728 -0.506629 -2.01117 0
M  V30 1597 C 170.153 0.895564 -1.65412 0
M  V30 1598 O 169.511 1.5923 -0.866922 0
M  V30 1599 C 169.559 -0.680223 -3.54126 0
M  V30 1600 O 168.663 0.277033 -4.11468 0
M  V30 1601 H 168.004 -0.200518 -0.633 0
M  V30 1602 H 170.534 -1.18342 -1.66902 0
M  V30 1603 H 170.544 -0.5765 -4.03907 0
M  V30 1604 H 169.219 -1.70261 -3.79452 0
M  V30 1605 H 167.796 0.127606 -3.72682 0
M  V30 1606 N 169.982 1.44106 -0.638065 0
M  V30 1607 C 171.398 1.56672 -0.304286 0
M  V30 1608 C 171.598 1.6244 1.19228 0
M  V30 1609 O 170.654 1.57121 1.9766 0
M  V30 1610 C 171.967 2.83503 -1.00231 0
M  V30 1611 C 173.515 2.97226 -0.981116 0
M  V30 1612 C 173.99 4.26868 -1.65974 0
M  V30 1613 N 175.481 4.33698 -1.62666 0
M  V30 1614 C 176.216 5.32745 -2.12063 0
M  V30 1615 N 175.712 6.38157 -2.6968 0
M  V30 1616 N 177.505 5.24299 -2.02651 0
M  V30 1617 H 169.656 1.38605 -1.60942 0
M  V30 1618 H 171.919 0.664661 -0.675965 0
M  V30 1619 H 171.625 2.85251 -2.0573 0
M  V30 1620 H 171.499 3.73251 -0.54439 0
M  V30 1621 H 173.886 2.95027 0.0654188 0
M  V30 1622 H 173.967 2.08808 -1.47759 0
M  V30 1623 H 173.611 4.29826 -2.70576 0
M  V30 1624 H 173.541 5.14156 -1.13804 0
M  V30 1625 H 176.032 3.58138 -1.20606 0
M  V30 1626 H 176.345 7.10029 -3.05087 0
M  V30 1627 H 174.69 6.38823 -2.73734 0
M  V30 1628 H 177.881 4.4086 -1.57353 0
M  V30 1629 H 178.054 6.01334 -2.41457 0
M  V30 1630 N 171.46 0.379036 1.52974 0
M  V30 1631 C 172.876 0.0285448 1.59574 0
M  V30 1632 C 173.076 -1.45542 1.39355 0
M  V30 1633 O 172.132 -2.2187 1.20541 0
M  V30 1634 C 173.445 0.496535 2.96572 0
M  V30 1635 C 174.993 0.451909 3.0972 0
M  V30 1636 C 175.468 0.895924 4.49152 0
M  V30 1637 N 176.959 0.851522 4.55306 0
M  V30 1638 C 177.694 1.16661 5.61407 0
M  V30 1639 N 177.19 1.55166 6.752 0
M  V30 1640 N 178.983 1.08853 5.51459 0
M  V30 1641 H 171.134 1.34525 1.64367 0
M  V30 1642 H 173.397 0.550733 0.771619 0
M  V30 1643 H 173.103 1.53258 3.16552 0
M  V30 1644 H 172.977 -0.109802 3.7704 0
M  V30 1645 H 175.364 -0.575029 2.89443 0
M  V30 1646 H 175.445 1.09392 2.3123 0
M  V30 1647 H 175.089 1.92104 4.70168 0
M  V30 1648 H 175.019 0.23103 5.26093 0
M  V30 1649 H 177.51 0.568038 3.73606 0
M  V30 1650 H 177.823 1.776 7.52116 0
M  V30 1651 H 176.168 1.59044 6.76557 0
M  V30 1652 H 179.359 0.786803 4.6144 0
M  V30 1653 H 179.532 1.33742 6.34048 0
M  V30 1654 N 172.938 -1.57226 0.108567 0
M  V30 1655 C 173.87 -2.11809 -0.875752 0
M  V30 1656 C 174.883 -1.05839 -1.23701 0
M  V30 1657 O 176.072 -1.33245 -1.18778 0
M  V30 1658 C 173.172 -2.59411 -2.18081 0
M  V30 1659 C 172.345 -3.89364 -1.99284 0
M  V30 1660 C 171.404 -4.22672 -3.13424 0
M  V30 1661 O 170.43 -4.91668 -2.86795 0
M  V30 1662 N 171.632 -3.79154 -4.3957 0
M  V30 1663 H 174.397 -2.9689 -0.409477 0
M  V30 1664 H 171.958 -1.61721 -0.076158 0
M  V30 1665 H 173.95 -2.7873 -2.93414 0
M  V30 1666 H 172.52 -1.79268 -2.5609 0
M  V30 1667 H 171.74 -3.79059 -1.08203 0
M  V30 1668 H 173.028 -4.74358 -1.84017 0
M  V30 1669 H 172.426 -3.23486 -4.64083 0
M  V30 1670 H 170.983 -4.03602 -5.11809 0
M  V30 1671 N 174.416 0.165178 -1.56732 0
M  V30 1672 C 175.832 0.517174 -1.50988 0
M  V30 1673 C 176.032 1.84331 -0.813894 0
M  V30 1674 O 175.088 2.49672 -0.37682 0
M  V30 1675 C 176.401 0.544261 -2.95733 0
M  V30 1676 C 177.949 0.631039 -3.06573 0
M  V30 1677 C 178.424 0.68896 -4.52788 0
M  V30 1678 N 179.915 0.751683 -4.5706 0
M  V30 1679 C 180.65 0.817177 -5.67547 0
M  V30 1680 N 180.146 0.843129 -6.8765 0
M  V30 1681 N 181.939 0.856668 -5.55534 0
M  V30 1682 H 174.09 -0.704318 -2.00382 0
M  V30 1683 H 176.353 -0.254687 -0.913148 0
M  V30 1684 H 176.059 -0.361607 -3.49836 0
M  V30 1685 H 175.933 1.3886 -3.5071 0
M  V30 1686 H 178.32 1.52733 -2.52501 0
M  V30 1687 H 178.401 -0.240095 -2.54671 0
M  V30 1688 H 178.045 -0.2031 -5.07494 0
M  V30 1689 H 177.975 1.57633 -5.02454 0
M  V30 1690 H 180.466 0.739661 -3.70591 0
M  V30 1691 H 180.779 0.894448 -7.67606 0
M  V30 1692 H 179.124 0.811304 -6.90248 0
M  V30 1693 H 182.315 0.833437 -4.60621 0
M  V30 1694 H 182.488 0.904247 -6.4166 0
M  V30 1695 N 175.894 1.51508 0.433938 0
M  V30 1696 C 177.31 1.39759 0.770682 0
M  V30 1697 C 177.51 0.482594 1.95636 0
M  V30 1698 O 176.566 -0.0609691 2.52426 0
M  V30 1699 C 177.879 2.81851 1.04787 0
M  V30 1700 C 179.427 2.91025 1.1521 0
M  V30 1701 C 179.902 4.34032 1.46219 0
M  V30 1702 N 181.393 4.37154 1.53136 0
M  V30 1703 C 182.128 5.4484 1.78709 0
M  V30 1704 N 181.624 6.62682 2.02051 0
M  V30 1705 N 183.417 5.32324 1.80519 0
M  V30 1706 H 175.568 2.09548 -0.346892 0
M  V30 1707 H 177.831 0.943446 -0.0928074 0
M  V30 1708 H 177.537 3.50815 0.249304 0
M  V30 1709 H 177.411 3.21386 1.97461 0
M  V30 1710 H 179.798 2.22257 1.94128 0
M  V30 1711 H 179.879 2.54983 0.204281 0
M  V30 1712 H 179.523 5.03351 0.678274 0
M  V30 1713 H 179.453 4.6759 2.42212 0
M  V30 1714 H 181.944 3.52197 1.36987 0
M  V30 1715 H 182.257 7.40543 2.20943 0
M  V30 1716 H 180.602 6.65791 1.99366 0
M  V30 1717 H 183.793 4.39246 1.61805 0
M  V30 1718 H 183.966 6.16328 2.00111 0
M  V30 1719 N 177.372 -0.689602 1.41712 0
M  V30 1720 C 178.62 -1.4468 1.4111 0
M  V30 1721 C 178.941 -1.94986 0.0232196 0
M  V30 1722 O 178.211 -1.72097 -0.935913 0
M  V30 1723 H 176.791 -0.536847 0.519427 0
M  V30 1724 H 179.453 -0.815825 1.77004 0
M  V30 1725 H 178.549 -2.30706 2.10193 0
M  V30 1726 N 178.85 -1.27639 -0.924453 0
M  V30 1727 C 179.813 -1.10681 -2.00705 0
M  V30 1728 C 180.813 -0.0497823 -1.60723 0
M  V30 1729 O 182.003 -0.294654 -1.7169 0
M  V30 1730 C 179.135 -0.687164 -3.33902 0
M  V30 1731 H 180.328 -2.06817 -2.17179 0
M  V30 1732 H 177.881 -1.10473 -1.10569 0
M  V30 1733 H 178.616 0.275439 -3.23128 0
M  V30 1734 H 178.401 -1.45061 -3.6428 0
M  V30 1735 H 179.891 -0.590853 -4.13399 0
M  V30 1736 N 180.328 1.1314 -1.09713 0
M  V30 1737 C 181.291 2.16831 -0.742751 0
M  V30 1738 C 182.291 1.59159 0.229129 0
M  V30 1739 O 183.481 1.74199 0.00693237 0
M  V30 1740 C 180.613 3.40756 -0.0989168 0
M  V30 1741 H 181.806 2.49695 -1.66109 0
M  V30 1742 H 179.359 1.2802 -0.896699 0
M  V30 1743 H 180.094 3.13485 0.830514 0
M  V30 1744 H 179.879 3.83888 -0.798265 0
M  V30 1745 H 181.369 4.17386 0.133524 0
M  V30 1746 N 181.806 0.884767 1.30421 0
M  V30 1747 C 183.031 0.517288 2.00845 0
M  V30 1748 C 183.456 -0.886779 1.65885 0
M  V30 1749 O 182.814 -1.58768 0.875354 0
M  V30 1750 C 182.862 0.698994 3.5376 0
M  V30 1751 O 181.966 -0.255208 4.1161 0
M  V30 1752 H 181.307 0.203872 0.631927 0
M  V30 1753 H 183.837 1.19225 1.66272 0
M  V30 1754 H 183.847 0.597912 4.03595 0
M  V30 1755 H 182.522 1.72271 3.78544 0
M  V30 1756 H 181.099 -0.10784 3.72744 0
M  V30 1757 N 183.284 -1.43765 0.645699 0
M  V30 1758 C 184.532 -2.01499 0.155731 0
M  V30 1759 C 184.853 -1.51151 -1.232 0
M  V30 1760 O 184.123 -0.721044 -1.82148 0
M  V30 1761 H 182.703 -0.745003 0.0545817 0
M  V30 1762 H 185.365 -1.76075 0.835677 0
M  V30 1763 H 184.461 -3.1181 0.134577 0
M  V30 1764 N 184.763 -0.387143 -1.52771 0
M  V30 1765 C 186.011 0.195349 -2.01154 0
M  V30 1766 C 186.332 1.475 -1.27549 0
M  V30 1767 O 185.602 1.91878 -0.394924 0
M  V30 1768 H 184.182 0.075178 -0.743207 0
M  V30 1769 H 186.844 -0.518337 -1.87881 0
M  V30 1770 H 185.94 0.407096 -3.09434 0
M  V30 1771 N 186.241 1.57166 -0.116904 0
M  V30 1772 C 187.466 1.999 0.55271 0
M  V30 1773 C 187.891 0.996039 1.59564 0
M  V30 1774 O 187.249 -0.032556 1.81271 0
M  V30 1775 C 187.297 3.4152 1.15742 0
M  V30 1776 O 186.401 3.44106 2.27299 0
M  V30 1777 H 185.742 0.649447 0.138258 0
M  V30 1778 H 188.272 2.03573 -0.204759 0
M  V30 1779 H 188.282 3.79684 1.49346 0
M  V30 1780 H 186.957 4.14034 0.393493 0
M  V30 1781 H 185.534 3.17759 1.9515 0
M  V30 1782 N 187.719 -0.156864 1.56817 0
M  V30 1783 C 188.947 -0.886316 1.86955 0
M  V30 1784 C 189.362 -1.75185 0.703975 0
M  V30 1785 O 188.719 -1.79555 -0.326552 0
M  V30 1786 C 188.77 -1.75117 3.16253 0
M  V30 1787 O 188.491 -0.920537 4.2832 0
M  V30 1788 C 189.992 -2.58905 3.59837 0
M  V30 1789 H 187.212 -0.25678 0.619923 0
M  V30 1790 H 189.756 -0.152615 2.0393 0
M  V30 1791 H 187.911 -2.43805 3.01062 0
M  V30 1792 H 188.325 -1.51337 5.02192 0
M  V30 1793 H 189.799 -3.1518 4.53172 0
M  V30 1794 H 190.276 -3.34472 2.84649 0
M  V30 1795 H 190.882 -1.95526 3.7769 0
M  V30 1796 N 189.197 -1.51736 -0.425897 0
M  V30 1797 C 190.613 -1.40166 -0.76326 0
M  V30 1798 C 190.813 -0.492962 -1.95377 0
M  V30 1799 O 189.869 0.0475815 -2.52455 0
M  V30 1800 C 191.182 -2.82403 -1.03291 0
M  V30 1801 C 192.73 -2.91632 -1.13665 0
M  V30 1802 C 193.205 -4.34801 -1.43916 0
M  V30 1803 N 194.696 -4.3796 -1.50816 0
M  V30 1804 C 195.431 -5.4578 -1.75817 0
M  V30 1805 N 194.927 -6.63744 -1.98534 0
M  V30 1806 N 196.72 -5.33274 -1.77694 0
M  V30 1807 H 188.871 -2.09361 0.358 0
M  V30 1808 H 191.134 -0.942941 0.0978094 0
M  V30 1809 H 190.84 -3.50943 -0.230696 0
M  V30 1810 H 190.714 -3.22428 -1.95754 0
M  V30 1811 H 193.101 -2.23284 -1.92947 0
M  V30 1812 H 193.182 -2.55088 -0.190756 0
M  V30 1813 H 192.826 -5.03703 -0.65157 0
M  V30 1814 H 192.756 -4.68868 -2.39729 0
M  V30 1815 H 195.247 -3.52919 -1.35118 0
M  V30 1816 H 195.56 -7.41704 -2.17013 0
M  V30 1817 H 193.905 -6.66839 -1.95832 0
M  V30 1818 H 197.096 -4.40098 -1.59473 0
M  V30 1819 H 197.269 -6.1738 -1.9684 0
M  V30 1820 N 190.675 0.682077 -1.42076 0
M  V30 1821 C 191.638 1.77756 -1.44691 0
M  V30 1822 C 192.638 1.5726 -0.335535 0
M  V30 1823 O 193.828 1.63686 -0.596037 0
M  V30 1824 C 190.96 3.16301 -1.27146 0
M  V30 1825 H 192.153 1.76826 -2.42224 0
M  V30 1826 H 189.706 0.891012 -1.28416 0
M  V30 1827 H 190.441 3.22862 -0.305075 0
M  V30 1828 H 190.226 3.32581 -2.07683 0
M  V30 1829 H 191.716 3.96241 -1.31843 0
M  V30 1830 N 192.153 1.28127 0.917671 0
M  V30 1831 C 193.564 1.13622 1.48145 0
M  V30 1832 C 193.915 -0.275207 1.9426 0
M  V30 1833 O 193.04 -1.1691 1.82102 0
M  V30 1834 C 193.635 2.05648 2.69248 0
M  V30 1835 C 192.194 1.95219 3.21818 0
M  V30 1836 C 191.341 1.97618 1.94532 0
M  V30 1837 H 194.292 1.40874 0.730772 0
M  V30 1838 H 194.313 1.61818 3.44377 0
M  V30 1839 H 193.825 3.08365 2.35653 0
M  V30 1840 H 191.926 0.955244 3.60147 0
M  V30 1841 H 192.039 2.81976 3.87333 0
M  V30 1842 H 190.403 1.41973 2.11461 0
M  V30 1843 H 191.186 3.02007 1.63238 0
M  V30 1844 N 193.631 -1.12557 1.10312 0
M  V30 1845 C 195.042 -1.65574 0.862678 0
M  V30 1846 C 195.393 -1.86566 -0.607256 0
M  V30 1847 O 194.518 -1.59121 -1.46662 0
M  V30 1848 C 195.113 -3.00776 1.55947 0
M  V30 1849 C 193.672 -3.50748 1.36576 0
M  V30 1850 C 192.819 -2.25797 1.60968 0
M  V30 1851 H 195.77 -0.963552 1.26101 0
M  V30 1852 H 195.791 -3.67185 0.997753 0
M  V30 1853 H 195.303 -2.85465 2.62928 0
M  V30 1854 H 193.404 -3.71245 0.317531 0
M  V30 1855 H 193.517 -4.30289 2.10686 0
M  V30 1856 H 191.881 -2.32841 1.03234 0
M  V30 1857 H 192.664 -2.13043 2.69198 0
M  V30 1858 N 195.109 -0.891671 -1.2995 0
M  V30 1859 C 196.072 -0.36828 -2.26222 0
M  V30 1860 C 197.072 0.493014 -1.53056 0
M  V30 1861 O 198.262 0.299213 -1.71611 0
M  V30 1862 C 195.394 0.47442 -3.37583 0
M  V30 1863 H 196.587 -1.21844 -2.74033 0
M  V30 1864 H 194.14 -0.669107 -1.41254 0
M  V30 1865 H 194.875 1.34489 -2.95099 0
M  V30 1866 H 194.66 -0.142615 -3.91841 0
M  V30 1867 H 196.15 0.83218 -4.09224 0
M  V30 1868 N 196.587 1.43421 -0.653314 0
M  V30 1869 C 197.835 2.01414 -0.166415 0
M  V30 1870 C 198.156 1.51803 1.22397 0
M  V30 1871 O 197.426 0.730693 1.81763 0
M  V30 1872 H 196.006 0.744703 -0.0585319 0
M  V30 1873 H 198.668 1.75629 -0.845003 0
M  V30 1874 H 197.764 3.11734 -0.151111 0
M  V30 1875 N 198.065 0.39524 1.52563 0
M  V30 1876 C 199.313 -0.184678 2.01254 0
M  V30 1877 C 199.634 -1.46822 1.28329 0
M  V30 1878 O 198.904 -1.91666 0.405094 0
M  V30 1879 H 197.484 -0.0712355 0.743596 0
M  V30 1880 H 200.146 0.528293 1.87603 0
M  V30 1881 H 199.242 -0.390681 3.09645 0
M  V30 1882 N 199.544 -1.57102 0.125237 0
M  V30 1883 C 200.792 -1.95021 -0.530198 0
M  V30 1884 C 201.113 -1.00982 -1.66816 0
M  V30 1885 O 200.383 -0.0672693 -1.95784 0
M  V30 1886 H 198.963 -0.720046 -0.198853 0
M  V30 1887 H 201.625 -1.93916 0.19564 0
M  V30 1888 H 200.721 -2.98211 -0.920681 0
M  V30 1889 N 201.022 0.148545 -1.56898 0
M  V30 1890 C 202.27 0.859717 -1.82902 0
M  V30 1891 C 202.591 1.81775 -0.70588 0
M  V30 1892 O 201.861 1.93994 0.272586 0
M  V30 1893 H 200.441 0.320469 -0.674766 0
M  V30 1894 H 203.103 0.142918 -1.94375 0
M  V30 1895 H 202.199 1.4229 -2.77777 0
M  V30 1896 N 202.5 1.5196 0.417844 0
M  V30 1897 C 203.748 1.65263 1.16329 0
M  V30 1898 C 204.069 0.380634 1.91249 0
M  V30 1899 O 203.339 -0.604214 1.86349 0
M  V30 1900 H 201.919 0.60912 0.432414 0
M  V30 1901 H 204.581 1.88969 0.477162 0
M  V30 1902 H 203.677 2.4896 1.88217 0
M  V30 1903 N 203.978 -0.674533 1.42435 0
M  V30 1904 C 205.203 -1.46784 1.46524 0
M  V30 1905 C 205.628 -1.87938 0.078066 0
M  V30 1906 O 204.986 -1.56014 -0.92354 0
M  V30 1907 C 205.034 -2.69307 2.39805 0
M  V30 1908 O 204.138 -3.67587 1.86959 0
M  V30 1909 H 203.479 -0.440959 0.496439 0
M  V30 1910 H 206.009 -0.827326 1.87127 0
M  V30 1911 H 206.019 -3.17374 2.56393 0
M  V30 1912 H 204.694 -2.38692 3.40586 0
M  V30 1913 H 203.271 -3.2662 1.79927 0
M  V30 1914 N 205.456 -1.28612 -0.910864 0
M  V30 1915 C 206.419 -1.12803 -1.9952 0
M  V30 1916 C 207.419 -0.0668264 -1.60661 0
M  V30 1917 O 208.609 -0.312847 -1.71368 0
M  V30 1918 C 205.741 -0.72254 -3.33155 0
M  V30 1919 H 206.934 -2.09109 -2.14973 0
M  V30 1920 H 204.487 -1.11639 -1.09391 0
M  V30 1921 H 205.222 0.241152 -3.23402 0
M  V30 1922 H 205.007 -1.48916 -3.62721 0
M  V30 1923 H 206.497 -0.634666 -4.12749 0
M  V30 1924 N 206.934 1.1197 -1.10907 0
M  V30 1925 C 207.897 2.16031 -0.765707 0
M  V30 1926 C 208.897 1.59393 0.212235 0
M  V30 1927 O 210.087 1.74196 -0.0115441 0
M  V30 1928 C 207.219 3.40632 -0.135053 0
M  V30 1929 H 208.412 2.47919 -1.68748 0
M  V30 1930 H 205.965 1.27061 -0.910226 0
M  V30 1931 H 206.7 3.14348 0.797218 0
M  V30 1932 H 206.485 3.8302 -0.838937 0
M  V30 1933 H 207.975 4.17505 0.0892469 0
M  V30 1934 N 208.412 0.89855 1.29475 0
M  V30 1935 C 209.375 0.380272 2.26023 0
M  V30 1936 C 210.375 -0.484891 1.53315 0
M  V30 1937 O 211.565 -0.290108 1.71767 0
M  V30 1938 C 208.697 -0.45651 3.3783 0
M  V30 1939 H 209.89 1.23295 2.73383 0
M  V30 1940 H 207.443 0.676589 1.40897 0
M  V30 1941 H 208.178 -1.32922 2.95808 0
M  V30 1942 H 207.963 0.163393 3.91759 0
M  V30 1943 H 209.453 -0.810466 4.0966 0
M  V30 1944 N 209.89 -1.43072 0.660911 0
M  V30 1945 C 210.853 -2.29194 -0.0166406 0
M  V30 1946 C 211.853 -1.42609 -0.742912 0
M  V30 1947 O 213.043 -1.64155 -0.583004 0
M  V30 1948 C 210.175 -3.24831 -1.0343 0
M  V30 1949 H 211.368 -2.90596 0.741208 0
M  V30 1950 H 208.921 -1.5048 0.422532 0
M  V30 1951 H 209.656 -2.68339 -1.82111 0
M  V30 1952 H 209.441 -3.88676 -0.517082 0
M  V30 1953 H 210.931 -3.89451 -1.50723 0
M  V30 1954 N 211.368 -0.403325 -1.52352 0
M  V30 1955 C 212.331 0.413051 -2.25447 0
M  V30 1956 C 213.331 0.978513 -1.276 0
M  V30 1957 O 214.521 0.858305 -1.51587 0
M  V30 1958 C 211.653 1.58087 -3.02029 0
M  V30 1959 H 212.846 -0.227094 -2.99039 0
M  V30 1960 H 210.399 -0.155722 -1.55522 0
M  V30 1961 H 211.134 2.25804 -2.32772 0
M  V30 1962 H 210.919 1.18195 -3.73861 0
M  V30 1963 H 212.409 2.1585 -3.57489 0
M  V30 1964 N 212.846 1.57033 -0.133567 0
M  V30 1965 C 214.071 2.00475 0.531477 0
M  V30 1966 C 214.496 1.01291 1.58499 0
M  V30 1967 O 213.854 -0.0133279 1.81295 0
M  V30 1968 C 213.902 3.42729 1.12113 0
M  V30 1969 O 213.006 3.46498 2.23636 0
M  V30 1970 H 212.347 0.650876 0.131362 0
M  V30 1971 H 214.877 2.03344 -0.22634 0
M  V30 1972 H 214.887 3.81246 1.4531 0
M  V30 1973 H 213.562 4.14428 0.349557 0
M  V30 1974 H 212.139 3.19811 1.91769 0
M  V30 1975 N 214.325 -0.140222 1.56975 0
M  V30 1976 C 215.288 -1.15689 1.97861 0
M  V30 1977 C 216.288 -1.3549 0.865974 0
M  V30 1978 O 217.478 -1.32367 1.13246 0
M  V30 1979 C 214.61 -2.51582 2.30042 0
M  V30 1980 H 215.803 -0.805971 2.88867 0
M  V30 1981 H 213.356 -0.383801 1.51515 0
M  V30 1982 H 214.091 -2.91632 1.41849 0
M  V30 1983 H 213.876 -2.38569 3.11171 0
M  V30 1984 H 215.366 -3.24792 2.62488 0
M  V30 1985 N 215.803 -1.52179 -0.40978 0
M  V30 1986 C 217.051 -1.65878 -1.15451 0
M  V30 1987 C 217.372 -0.390771 -1.91044 0
M  V30 1988 O 216.642 0.594323 -1.86667 0
M  V30 1989 H 215.222 -0.611405 -0.429177 0
M  V30 1990 H 217.884 -1.89219 -0.467134 0
M  V30 1991 H 216.98 -2.49954 -1.86894 0
M  V30 1992 N 217.281 0.66697 -1.42791 0
M  V30 1993 C 218.529 1.42417 -1.43394 0
M  V30 1994 C 218.85 1.94925 -0.0542373 0
M  V30 1995 O 218.12 1.73564 0.908415 0
M  V30 1996 H 216.7 0.528515 -0.527902 0
M  V30 1997 H 219.362 0.787562 -1.78279 0
M  V30 1998 H 218.458 2.27333 -2.13837 0
M  V30 1999 N 218.759 1.29093 0.90403 0
M  V30 2000 C 219.987 1.19689 1.68766 0
M  V30 2001 C 220.402 -0.243113 1.87228 0
M  V30 2002 O 219.759 -1.16326 1.40621 0
M  V30 2003 C 219.81 1.90144 3.07453 0
M  V30 2004 O 219.531 3.2852 2.89838 0
M  V30 2005 C 221.032 1.87162 4.01852 0
M  V30 2006 H 218.252 0.415035 0.527244 0
M  V30 2007 H 220.796 1.7039 1.13082 0
M  V30 2008 H 218.951 1.43289 3.59926 0
M  V30 2009 H 219.365 3.63944 3.77684 0
M  V30 2010 H 220.839 2.41032 4.96596 0
M  V30 2011 H 221.316 0.84617 4.30972 0
M  V30 2012 H 221.922 2.33741 3.5531 0
M  V30 2013 N 220.237 -1.11381 1.11499 0
M  V30 2014 C 221.147 -2.21019 0.786628 0
M  V30 2015 C 222.163 -1.72597 -0.220507 0
M  V30 2016 O 223.339 -2.01321 -0.0565251 0
M  V30 2017 C 220.404 -3.459 0.235333 0
M  V30 2018 C 219.465 -4.09107 1.30115 0
M  V30 2019 C 218.698 -5.28027 0.776068 0
M  V30 2020 O 218.921 -5.6904 -0.393661 0
M  V30 2021 O 217.855 -5.81835 1.54114 0
M  V30 2022 H 221.681 -2.51521 1.70209 0
M  V30 2023 H 219.266 -1.19928 0.890928 0
M  V30 2024 H 221.148 -4.21346 -0.067715 0
M  V30 2025 H 219.823 -3.17049 -0.652828 0
M  V30 2026 H 218.73 -3.35391 1.65722 0
M  V30 2027 H 220.063 -4.42139 2.16273 0
M  V30 2028 N 221.715 -0.905404 -1.28997 0
M  V30 2029 C 222.961 -0.535039 -1.95615 0
M  V30 2030 C 223.294 0.917404 -1.71165 0
M  V30 2031 O 222.569 1.65123 -1.02785 0
M  V30 2032 C 222.852 -0.834918 -3.50287 0
M  V30 2033 C 222.705 -2.33948 -3.84172 0
M  V30 2034 C 224.024 -0.325318 -4.38896 0
M  V30 2035 H 221.143 -0.195861 -0.710498 0
M  V30 2036 H 223.785 -1.13313 -1.52513 0
M  V30 2037 H 221.935 -0.325904 -3.87131 0
M  V30 2038 H 223.607 -2.91847 -3.57243 0
M  V30 2039 H 221.85 -2.79789 -3.31513 0
M  V30 2040 H 222.521 -2.49987 -4.92149 0
M  V30 2041 H 224.997 -0.761256 -4.09077 0
M  V30 2042 H 223.873 -0.564295 -5.45992 0
M  V30 2043 H 224.134 0.774144 -4.35269 0
M  V30 2044 N 223.193 1.4272 -0.668489 0
M  V30 2045 C 224.609 1.55992 -0.33745 0
M  V30 2046 C 224.809 1.64933 1.15756 0
M  V30 2047 O 223.865 1.61278 1.94282 0
M  V30 2048 C 225.178 2.81314 -1.06222 0
M  V30 2049 C 226.726 2.95078 -1.04394 0
M  V30 2050 C 227.201 4.23252 -1.74991 0
M  V30 2051 N 228.692 4.3015 -1.71829 0
M  V30 2052 C 229.427 5.28127 -2.23315 0
M  V30 2053 N 228.923 6.32293 -2.83156 0
M  V30 2054 N 230.716 5.19882 -2.13726 0
M  V30 2055 H 222.867 1.3516 -1.63846 0
M  V30 2056 H 225.13 0.650174 -0.689912 0
M  V30 2057 H 224.836 2.80823 -2.11734 0
M  V30 2058 H 224.71 3.72012 -0.62344 0
M  V30 2059 H 227.097 2.951 0.0028244 0
M  V30 2060 H 227.178 2.05627 -1.52155 0
M  V30 2061 H 226.822 4.2399 -2.79633 0
M  V30 2062 H 226.752 5.11626 -1.24685 0
M  V30 2063 H 229.243 3.55499 -1.28175 0
M  V30 2064 H 229.556 7.03398 -3.20079 0
M  V30 2065 H 227.901 6.32873 -2.87223 0
M  V30 2066 H 231.092 4.37423 -1.66669 0
M  V30 2067 H 231.265 5.96077 -2.54158 0
M  V30 2068 N 224.671 0.411399 1.52136 0
M  V30 2069 C 226.082 -0.0576826 1.86611 0
M  V30 2070 C 226.433 -1.44238 1.33003 0
M  V30 2071 O 225.558 -2.05759 0.670228 0
M  V30 2072 C 226.153 -0.111448 3.38617 0
M  V30 2073 C 224.712 -0.52487 3.72723 0
M  V30 2074 C 223.859 0.299176 2.75681 0
M  V30 2075 H 226.81 0.628368 1.4573 0
M  V30 2076 H 226.831 -0.926252 3.69054 0
M  V30 2077 H 226.343 0.896488 3.77604 0
M  V30 2078 H 224.444 -1.53936 3.39315 0
M  V30 2079 H 224.557 -0.267681 4.78352 0
M  V30 2080 H 222.921 -0.238814 2.53578 0
M  V30 2081 H 223.704 1.3055 3.17508 0
M  V30 2082 N 226.149 -1.5696 0.141893 0
M  V30 2083 C 227.565 -1.58151 -0.21456 0
M  V30 2084 C 227.765 -1.1559 -1.65049 0
M  V30 2085 O 226.821 -0.853832 -2.37626 0
M  V30 2086 C 228.134 -3.00674 0.0395576 0
M  V30 2087 C 229.682 -3.1299 -0.0245529 0
M  V30 2088 C 230.157 -4.57554 0.202167 0
M  V30 2089 N 231.648 -4.62961 0.148919 0
M  V30 2090 C 232.383 -5.7262 0.298924 0
M  V30 2091 N 231.879 -6.90947 0.50637 0
M  V30 2092 N 233.672 -5.61601 0.236886 0
M  V30 2093 H 225.823 -1.8292 1.07953 0
M  V30 2094 H 228.086 -0.846425 0.42693 0
M  V30 2095 H 227.792 -3.36183 1.03315 0
M  V30 2096 H 227.666 -3.70981 -0.682143 0
M  V30 2097 H 230.053 -2.77326 -1.00869 0
M  V30 2098 H 230.134 -2.4518 0.729396 0
M  V30 2099 H 229.778 -4.93922 1.18338 0
M  V30 2100 H 229.708 -5.23484 -0.572044 0
M  V30 2101 H 232.199 -3.77899 -0.00697015 0
M  V30 2102 H 232.512 -7.7038 0.611076 0
M  V30 2103 H 230.857 -6.92878 0.542628 0
M  V30 2104 H 234.048 -4.68039 0.0756209 0
M  V30 2105 H 234.221 -6.47015 0.357227 0
M  V30 2106 N 227.627 0.131896 -1.57047 0
M  V30 2107 C 228.852 0.860418 -1.8871 0
M  V30 2108 C 229.277 1.73251 -0.73251 0
M  V30 2109 O 228.635 1.785 0.317429 0
M  V30 2110 C 228.683 1.68047 -3.19049 0
M  V30 2111 O 227.787 2.7862 -3.04047 0
M  V30 2112 H 227.128 0.238743 -0.619595 0
M  V30 2113 H 229.658 0.118169 -2.04258 0
M  V30 2114 H 229.668 2.07238 -3.51449 0
M  V30 2115 H 228.343 1.04018 -4.02682 0
M  V30 2116 H 226.92 2.42726 -2.83088 0
M  V30 2117 N 229.106 1.52395 0.401703 0
M  V30 2118 C 230.352 1.67065 1.14966 0
M  V30 2119 C 230.685 0.403052 1.89971 0
M  V30 2120 O 229.96 -0.598774 1.85054 0
M  V30 2121 C 230.243 2.8975 2.13815 0
M  V30 2122 C 230.096 4.26578 1.42658 0
M  V30 2123 C 231.415 3.07965 3.14397 0
M  V30 2124 H 228.534 0.607968 0.416587 0
M  V30 2125 H 231.176 1.84965 0.434511 0
M  V30 2126 H 229.326 2.74619 2.74803 0
M  V30 2127 H 230.998 4.53451 0.847329 0
M  V30 2128 H 229.241 4.27639 0.72849 0
M  V30 2129 H 229.912 5.08483 2.14823 0
M  V30 2130 H 232.388 3.22043 2.63491 0
M  V30 2131 H 231.264 3.95308 3.80819 0
M  V30 2132 H 231.525 2.21611 3.82545 0
M  V30 2133 N 230.584 -0.659388 1.43143 0
M  V30 2134 C 231.494 -1.80167 1.50256 0
M  V30 2135 C 232.51 -1.69571 0.390106 0
M  V30 2136 O 233.686 -1.90849 0.643319 0
M  V30 2137 C 230.751 -3.16409 1.41725 0
M  V30 2138 C 229.812 -3.38848 2.63591 0
M  V30 2139 C 229.045 -4.68591 2.55458 0
M  V30 2140 O 229.268 -5.47532 1.59891 0
M  V30 2141 O 228.202 -4.92614 3.45854 0
M  V30 2142 H 232.028 -1.77121 2.46702 0
M  V30 2143 H 229.613 -0.817092 1.25076 0
M  V30 2144 H 231.495 -3.9768 1.39387 0
M  V30 2145 H 230.17 -3.20059 0.484118 0
M  V30 2146 H 229.077 -2.57366 2.71502 0
M  V30 2147 H 230.41 -3.4004 3.55856 0
M  V30 2148 N 232.062 -1.29571 -0.897171 0
M  V30 2149 C 233.308 -1.17863 -1.65034 0
M  V30 2150 C 233.641 0.268729 -1.92332 0
M  V30 2151 O 232.916 1.19378 -1.53555 0
M  V30 2152 C 233.199 -1.995 -2.99786 0
M  V30 2153 C 233.052 -3.5239 -2.79538 0
M  V30 2154 C 234.371 -1.82335 -4.00552 0
M  V30 2155 H 231.49 -0.429528 -0.598895 0
M  V30 2156 H 234.132 -1.59072 -1.03905 0
M  V30 2157 H 232.282 -1.64485 -3.51962 0
M  V30 2158 H 233.954 -3.97401 -2.34244 0
M  V30 2159 H 232.197 -3.77187 -2.14273 0
M  V30 2160 H 232.868 -4.04787 -3.75302 0
M  V30 2161 H 235.344 -2.12924 -3.57495 0
M  V30 2162 H 234.22 -2.41801 -4.92771 0
M  V30 2163 H 234.481 -0.779209 -4.35179 0
M  V30 2164 N 233.54 1.10788 -1.12088 0
M  V30 2165 C 234.788 1.8231 -0.872205 0
M  V30 2166 C 235.109 1.85419 0.603709 0
M  V30 2167 O 234.379 1.32963 1.43867 0
M  V30 2168 H 232.959 0.675137 -0.319686 0
M  V30 2169 H 235.621 1.34068 -1.41463 0
M  V30 2170 H 234.717 2.85955 -1.25045 0
M  V30 2171 N 235.018 0.912232 1.28515 0
M  V30 2172 C 235.948 0.416403 2.29757 0
M  V30 2173 C 236.929 -0.515194 1.6211 0
M  V30 2174 O 238.114 -0.423253 1.89532 0
M  V30 2175 C 235.244 -0.34572 3.45575 0
M  V30 2176 C 234.198 0.496599 4.25109 0
M  V30 2177 C 233.524 -0.393771 5.33248 0
M  V30 2178 C 234.824 1.75307 4.92001 0
M  V30 2179 H 236.518 1.26249 2.7148 0
M  V30 2180 H 234.064 0.608515 1.30511 0
M  V30 2181 H 236.017 -0.703422 4.15488 0
M  V30 2182 H 234.741 -1.2257 3.02728 0
M  V30 2183 H 233.4 0.8368 3.56922 0
M  V30 2184 H 233.048 -1.27225 4.86644 0
M  V30 2185 H 232.748 0.166209 5.87365 0
M  V30 2186 H 234.272 -0.747389 6.06009 0
M  V30 2187 H 235.686 1.46437 5.54283 0
M  V30 2188 H 234.083 2.25534 5.56106 0
M  V30 2189 H 235.153 2.48176 4.16577 0
M  V30 2190 N 236.496 -1.42363 0.676048 0
M  V30 2191 C 237.406 -2.346 -0.00153389 0
M  V30 2192 C 238.422 -1.5516 -0.787485 0
M  V30 2193 O 239.598 -1.87723 -0.729521 0
M  V30 2194 C 236.663 -3.33705 -0.940298 0
M  V30 2195 C 235.724 -4.29042 -0.148739 0
M  V30 2196 C 234.957 -5.23413 -1.04279 0
M  V30 2197 O 235.18 -5.22749 -2.28232 0
M  V30 2198 O 234.114 -5.99795 -0.502925 0
M  V30 2199 H 237.94 -2.94082 0.758268 0
M  V30 2200 H 235.525 -1.42888 0.436289 0
M  V30 2201 H 237.407 -3.94586 -1.47917 0
M  V30 2202 H 236.082 -2.76695 -1.67993 0
M  V30 2203 H 234.989 -3.71571 0.43427 0
M  V30 2204 H 236.322 -4.89097 0.551805 0
M  V30 2205 N 237.974 -0.419461 -1.51915 0
M  V30 2206 C 238.884 0.407528 -2.31033 0
M  V30 2207 C 239.9 1.04413 -1.3919 0
M  V30 2208 O 241.076 1.0434 -1.72265 0
M  V30 2209 C 238.141 1.50365 -3.12396 0
M  V30 2210 C 237.202 0.889029 -4.19994 0
M  V30 2211 C 236.435 1.93291 -4.97468 0
M  V30 2212 O 236.658 3.15259 -4.75361 0
M  V30 2213 O 235.592 1.53339 -5.8204 0
M  V30 2214 H 239.418 -0.237865 -3.02767 0
M  V30 2215 H 237.003 -0.182413 -1.48282 0
M  V30 2216 H 238.885 2.13975 -3.63032 0
M  V30 2217 H 237.56 2.13345 -2.43445 0
M  V30 2218 H 236.467 0.215353 -3.7348 0
M  V30 2219 H 237.8 0.302991 -4.91267 0
M  V30 2220 N 239.452 1.56882 -0.150215 0
M  V30 2221 C 240.868 1.58263 0.20617 0
M  V30 2222 C 241.068 1.16464 1.64434 0
M  V30 2223 O 240.124 0.866422 2.3717 0
M  V30 2224 C 241.437 3.00649 -0.0555025 0
M  V30 2225 C 242.985 3.12999 0.00795388 0
M  V30 2226 C 243.46 4.5744 -0.226429 0
M  V30 2227 N 244.951 4.62875 -0.173469 0
M  V30 2228 C 245.686 5.72454 -0.329288 0
M  V30 2229 N 245.182 6.90669 -0.543005 0
M  V30 2230 N 246.975 5.61467 -0.266666 0
M  V30 2231 H 239.126 1.82345 -1.08922 0
M  V30 2232 H 241.389 0.844149 -0.431413 0
M  V30 2233 H 241.095 3.3563 -1.05096 0
M  V30 2234 H 240.969 3.71337 0.66246 0
M  V30 2235 H 243.356 2.77857 0.993966 0
M  V30 2236 H 243.437 2.4479 -0.742388 0
M  V30 2237 H 243.081 4.93287 -1.20956 0
M  V30 2238 H 243.011 5.2378 0.544274 0
M  V30 2239 H 245.502 3.77898 -0.0130709 0
M  V30 2240 H 245.815 7.70045 -0.651922 0
M  V30 2241 H 244.16 6.92581 -0.579366 0
M  V30 2242 H 247.351 4.67992 -0.100441 0
M  V30 2243 H 247.524 6.46816 -0.391535 0
M  V30 2244 N 240.93 -0.123565 1.57115 0
M  V30 2245 C 242.346 -0.476961 1.52306 0
M  V30 2246 C 242.546 -1.82109 0.86248 0
M  V30 2247 O 241.602 -2.48586 0.442884 0
M  V30 2248 C 242.915 -0.465661 2.97073 0
M  V30 2249 C 244.463 -0.549534 3.08138 0
M  V30 2250 C 244.938 -0.568669 4.54456 0
M  V30 2251 N 246.429 -0.630237 4.58892 0
M  V30 2252 C 247.164 -0.666415 5.69514 0
M  V30 2253 N 246.66 -0.660514 6.89644 0
M  V30 2254 N 248.453 -0.709077 5.5761 0
M  V30 2255 H 240.604 0.757198 1.98445 0
M  V30 2256 H 242.867 0.278808 0.906074 0
M  V30 2257 H 242.573 0.454232 3.48754 0
M  V30 2258 H 242.447 -1.29513 3.54269 0
M  V30 2259 H 244.834 -1.45985 2.56461 0
M  V30 2260 H 244.915 0.307532 2.53945 0
M  V30 2261 H 244.559 0.337581 5.06777 0
M  V30 2262 H 244.489 -1.44256 5.06456 0
M  V30 2263 H 246.98 -0.641146 3.72421 0
M  V30 2264 H 247.293 -0.690616 7.69708 0
M  V30 2265 H 245.638 -0.628012 6.92157 0
M  V30 2266 H 248.829 -0.711019 4.62668 0
M  V30 2267 H 249.002 -0.733804 6.43832 0
M  V30 2268 N 242.408 -1.52605 -0.393616 0
M  V30 2269 C 243.656 -1.67093 -1.13685 0
M  V30 2270 C 243.977 -0.411011 -1.90619 0
M  V30 2271 O 243.247 0.574491 -1.87287 0
M  V30 2272 H 241.827 -0.615923 -0.422668 0
M  V30 2273 H 244.489 -1.89704 -0.447039 0
M  V30 2274 H 243.585 -2.51922 -1.84232 0
M  V30 2275 N 243.887 0.651787 -1.4349 0
M  V30 2276 C 244.834 1.76462 -1.4876 0
M  V30 2277 C 245.804 1.62641 -0.337189 0
M  V30 2278 O 246.989 1.82864 -0.544544 0
M  V30 2279 C 244.129 3.14623 -1.41796 0
M  V30 2280 C 243.242 3.39568 -2.67053 0
M  V30 2281 C 242.377 4.67585 -2.52068 0
M  V30 2282 C 241.416 4.85639 -3.72587 0
M  V30 2283 N 240.553 6.04915 -3.56402 0
M  V30 2284 H 245.393 1.71293 -2.43849 0
M  V30 2285 H 242.93 0.835889 -1.21043 0
M  V30 2286 H 244.888 3.94496 -1.35753 0
M  V30 2287 H 243.518 3.18859 -0.50288 0
M  V30 2288 H 242.57 2.53783 -2.8337 0
M  V30 2289 H 243.882 3.48795 -3.56572 0
M  V30 2290 H 243.036 5.55586 -2.4374 0
M  V30 2291 H 241.775 4.60681 -1.60075 0
M  V30 2292 H 240.78 3.96073 -3.81321 0
M  V30 2293 H 242.005 4.94372 -4.65589 0
M  V30 2294 H 239.951 5.9914 -2.67146 0
M  V30 2295 H 239.868 6.15106 -4.39524 0
M  V30 2296 H 241.136 6.95533 -3.51929 0
M  V30 2297 N 245.365 1.30045 0.890287 0
M  V30 2298 C 246.613 1.18327 1.63839 0
M  V30 2299 C 246.934 -0.263455 1.93212 0
M  V30 2300 O 246.204 -1.17856 1.56482 0
M  V30 2301 H 244.784 0.434933 0.607324 0
M  V30 2302 H 247.446 1.631 1.06698 0
M  V30 2303 H 246.542 1.74024 2.59079 0
M  V30 2304 N 246.843 -1.10192 1.12674 0
M  V30 2305 C 248.259 -1.34235 0.863317 0
M  V30 2306 C 248.459 -1.95062 -0.505277 0
M  V30 2307 O 247.515 -2.19192 -1.25345 0
M  V30 2308 C 248.828 -2.2616 1.98172 0
M  V30 2309 C 250.376 -2.3969 2.0129 0
M  V30 2310 C 250.851 -3.34946 3.1237 0
M  V30 2311 N 252.342 -3.42515 3.11829 0
M  V30 2312 C 253.077 -4.16199 3.94419 0
M  V30 2313 N 252.573 -4.92747 4.87004 0
M  V30 2314 N 254.366 -4.11843 3.82547 0
M  V30 2315 H 246.517 -0.690798 2.00853 0
M  V30 2316 H 248.78 -0.366774 0.874174 0
M  V30 2317 H 248.486 -1.8868 2.96804 0
M  V30 2318 H 248.36 -3.26488 1.88906 0
M  V30 2319 H 250.747 -2.76438 1.03276 0
M  V30 2320 H 250.828 -1.39169 2.14629 0
M  V30 2321 H 250.472 -2.98923 4.10619 0
M  V30 2322 H 250.402 -4.35353 2.96269 0
M  V30 2323 H 252.893 -2.87926 2.44759 0
M  V30 2324 H 253.206 -5.46376 5.46528 0
M  V30 2325 H 251.551 -4.91862 4.91016 0
M  V30 2326 H 254.742 -3.51136 3.0955 0
M  V30 2327 H 254.915 -4.69007 4.47142 0
M  V30 2328 N 248.321 -0.919034 -1.28029 0
M  V30 2329 C 249.284 -0.416182 -2.2539 0
M  V30 2330 C 250.284 0.460438 -1.54067 0
M  V30 2331 O 251.474 0.262744 -1.72207 0
M  V30 2332 C 248.606 0.402707 -3.38513 0
M  V30 2333 H 249.799 -1.27629 -2.71387 0
M  V30 2334 H 247.352 -0.698919 -1.39803 0
M  V30 2335 H 248.087 1.282 -2.97885 0
M  V30 2336 H 247.872 -0.225698 -3.9145 0
M  V30 2337 H 249.362 0.745191 -4.10897 0
M  V30 2338 N 249.799 1.42003 -0.683588 0
M  V30 2339 C 250.762 2.29191 -0.0198243 0
M  V30 2340 C 251.762 1.43773 0.72013 0
M  V30 2341 O 252.952 1.65061 0.556815 0
M  V30 2342 C 250.084 3.26435 0.982487 0
M  V30 2343 H 251.277 2.8938 -0.787345 0
M  V30 2344 H 248.83 1.49789 -0.446418 0
M  V30 2345 H 249.565 2.71203 1.77819 0
M  V30 2346 H 249.35 3.89449 0.455182 0
M  V30 2347 H 250.84 3.918 1.44508 0
M  V30 2348 N 251.277 0.427512 1.51691 0
M  V30 2349 C 252.554 -0.201684 1.94557 0
M  V30 2350 C 252.934 -1.60981 1.36559 0
M  V30 2351 O 252.282 -2.21814 0.548702 0
M  V30 2352 C 252.492 -0.189394 3.48486 0
M  V30 2353 C 253.84 -0.39978 4.22714 0
M  V30 2354 O 254.864 -0.267945 3.55191 0
M  V30 2355 O 253.723 -0.661249 5.42485 0
M  V30 2356 H 250.817 -0.135261 0.815864 0
M  V30 2357 H 253.363 0.484782 1.62628 0
M  V30 2358 H 252.135 0.795431 3.8313 0
M  V30 2359 H 251.758 -0.919187 3.86829 0
M  V30 2360 N 252.755 -1.56801 0.158532 0
M  V30 2361 C 253.665 -2.20916 -0.789518 0
M  V30 2362 C 254.681 -1.1969 -1.26294 0
M  V30 2363 O 255.857 -1.52308 -1.31773 0
M  V30 2364 C 252.922 -2.82727 -2.00665 0
M  V30 2365 C 251.983 -3.99114 -1.58134 0
M  V30 2366 C 251.216 -4.57968 -2.74045 0
M  V30 2367 O 251.439 -4.15704 -3.90572 0
M  V30 2368 O 250.373 -5.48047 -2.48855 0
M  V30 2369 H 254.199 -3.02464 -0.273681 0
M  V30 2370 H 251.784 -1.4924 -0.0690548 0
M  V30 2371 H 253.666 -3.21968 -2.71872 0
M  V30 2372 H 252.341 -2.04184 -2.51179 0
M  V30 2373 H 251.248 -3.64567 -0.839155 0
M  V30 2374 H 252.581 -4.79212 -1.12325 0
M  V30 2375 N 254.233 0.115231 -1.57178 0
M  V30 2376 C 255.163 1.1423 -2.03651 0
M  V30 2377 C 256.144 1.42967 -0.921655 0
M  V30 2378 O 257.329 1.53343 -1.19162 0
M  V30 2379 C 254.459 2.4675 -2.44401 0
M  V30 2380 C 253.413 2.32467 -3.59365 0
M  V30 2381 C 252.739 3.69984 -3.86026 0
M  V30 2382 C 254.039 1.78203 -4.90959 0
M  V30 2383 H 255.733 0.755749 -2.89705 0
M  V30 2384 H 253.279 0.362093 -1.39373 0
M  V30 2385 H 255.232 3.18854 -2.75517 0
M  V30 2386 H 253.956 2.87302 -1.55322 0
M  V30 2387 H 252.615 1.62811 -3.28463 0
M  V30 2388 H 252.263 4.08028 -2.94147 0
M  V30 2389 H 251.963 3.61279 -4.63412 0
M  V30 2390 H 253.487 4.43587 -4.19599 0
M  V30 2391 H 254.901 2.40128 -5.20587 0
M  V30 2392 H 253.298 1.8031 -5.72371 0
M  V30 2393 H 254.368 0.739876 -4.79222 0
M  V30 2394 N 255.711 1.52812 0.385517 0
M  V30 2395 C 256.621 1.80766 1.49535 0
M  V30 2396 C 257.637 0.694651 1.59532 0
M  V30 2397 O 258.813 0.982611 1.75803 0
M  V30 2398 C 255.878 1.97381 2.85029 0
M  V30 2399 C 254.939 3.21295 2.84724 0
M  V30 2400 C 254.172 3.37108 4.13756 0
M  V30 2401 O 254.395 2.5765 5.08893 0
M  V30 2402 O 253.329 4.30378 4.20783 0
M  V30 2403 H 257.155 2.75015 1.28842 0
M  V30 2404 H 254.74 1.37946 0.573697 0
M  V30 2405 H 256.622 2.09996 3.65349 0
M  V30 2406 H 255.297 1.06322 3.05741 0
M  V30 2407 H 254.204 3.1412 2.03174 0
M  V30 2408 H 255.537 4.12212 2.68965 0
M  V30 2409 N 257.189 -0.644168 1.43834 0
M  V30 2410 C 258.152 -1.73857 1.49353 0
M  V30 2411 C 259.152 -1.56315 0.377112 0
M  V30 2412 O 260.342 -1.62048 0.639226 0
M  V30 2413 C 257.474 -3.12819 1.35488 0
M  V30 2414 H 258.667 -1.70342 2.46827 0
M  V30 2415 H 256.22 -0.856652 1.30733 0
M  V30 2416 H 256.955 -3.2194 0.390569 0
M  V30 2417 H 256.74 -3.26958 2.16428 0
M  V30 2418 H 258.23 -3.92606 1.42302 0
M  V30 2419 N 258.668 -1.30515 -0.883378 0
M  V30 2420 C 259.916 -1.19194 -1.63209 0
M  V30 2421 C 260.237 0.253205 -1.93349 0
M  V30 2422 O 259.507 1.17025 -1.57105 0
M  V30 2423 H 258.087 -0.438148 -0.605009 0
M  V30 2424 H 260.749 -1.63663 -1.05832 0
M  V30 2425 H 259.845 -1.75396 -2.58153 0
M  V30 2426 N 260.146 1.09593 -1.13257 0
M  V30 2427 C 261.109 2.14359 -0.811358 0
M  V30 2428 C 262.109 1.59808 0.178377 0
M  V30 2429 O 263.299 1.74132 -0.0484911 0
M  V30 2430 C 260.431 3.40269 -0.207276 0
M  V30 2431 H 261.624 2.44284 -1.73969 0
M  V30 2432 H 259.177 1.25102 -0.936973 0
M  V30 2433 H 259.912 3.15969 0.73036 0
M  V30 2434 H 259.697 3.81154 -0.919992 0
M  V30 2435 H 261.187 4.176 0.000667944 0
M  V30 2436 N 261.624 0.925811 1.2754 0
M  V30 2437 C 262.87 0.566092 1.94739 0
M  V30 2438 C 263.203 -0.890057 1.72603 0
M  V30 2439 O 262.478 -1.63467 1.05399 0
M  V30 2440 C 262.761 0.89054 3.48915 0
M  V30 2441 C 262.614 2.4003 3.80402 0
M  V30 2442 C 263.933 0.395101 4.38323 0
M  V30 2443 H 261.052 0.20714 0.707292 0
M  V30 2444 H 263.694 1.15725 1.50691 0
M  V30 2445 H 261.844 0.387452 3.86563 0
M  V30 2446 H 263.516 2.97494 3.52555 0
M  V30 2447 H 261.759 2.85028 3.2702 0
M  V30 2448 H 262.43 2.57785 4.8811 0
M  V30 2449 H 264.906 0.826241 4.07814 0
M  V30 2450 H 263.782 0.651086 5.45025 0
M  V30 2451 H 264.043 -0.704798 4.36446 0
M  V30 2452 N 263.102 -1.41638 0.69111 0
M  V30 2453 C 264.012 -2.34588 0.0233487 0
M  V30 2454 C 265.028 -1.55987 -0.770984 0
M  V30 2455 O 266.204 -1.88486 -0.709569 0
M  V30 2456 C 263.269 -3.34684 -0.904851 0
M  V30 2457 C 262.33 -4.29176 -0.103225 0
M  V30 2458 C 261.563 -5.2449 -0.987216 0
M  V30 2459 O 261.786 -5.2514 -2.22674 0
M  V30 2460 O 260.72 -6.00295 -0.439281 0
M  V30 2461 H 264.546 -2.93261 0.789416 0
M  V30 2462 H 262.131 -1.42417 0.45142 0
M  V30 2463 H 264.013 -3.96133 -1.43724 0
M  V30 2464 H 262.688 -2.78461 -1.65049 0
M  V30 2465 H 261.595 -3.71089 0.473655 0
M  V30 2466 H 262.928 -4.88484 0.60365 0
M  V30 2467 N 264.58 -0.43555 -1.51462 0
M  V30 2468 C 265.828 0.131254 -2.01673 0
M  V30 2469 C 266.149 1.43368 -1.32177 0
M  V30 2470 O 265.419 1.90524 -0.455769 0
M  V30 2471 H 263.999 0.0514954 -0.745223 0
M  V30 2472 H 266.661 -0.577847 -1.86137 0
M  V30 2473 H 265.757 0.308446 -3.10572 0
M  V30 2474 N 266.058 1.56714 -0.166846 0
M  V30 2475 C 267.306 1.96358 0.478305 0
M  V30 2476 C 267.627 1.0537 1.6408 0
M  V30 2477 O 266.897 0.119154 1.95537 0
M  V30 2478 H 265.477 0.725065 0.179692 0
M  V30 2479 H 268.139 1.93329 -0.246985 0
M  V30 2480 H 267.235 3.00547 0.841292 0
M  V30 2481 N 267.536 -0.106894 1.57237 0
M  V30 2482 C 268.446 -1.14911 2.0453 0
M  V30 2483 C 269.462 -1.44592 0.96795 0
M  V30 2484 O 270.638 -1.55468 1.2803 0
M  V30 2485 C 267.703 -2.45272 2.45036 0
M  V30 2486 C 266.764 -2.22879 3.66911 0
M  V30 2487 C 265.997 -3.47024 4.05475 0
M  V30 2488 O 266.22 -4.54804 3.44252 0
M  V30 2489 O 265.154 -3.3731 4.98504 0
M  V30 2490 H 268.98 -0.777461 2.9358 0
M  V30 2491 H 266.565 -0.318563 1.45964 0
M  V30 2492 H 268.447 -3.22055 2.71769 0
M  V30 2493 H 267.122 -2.81886 1.59129 0
M  V30 2494 H 266.029 -1.43915 3.45311 0
M  V30 2495 H 267.362 -1.91163 4.53561 0
M  V30 2496 N 269.014 -1.53014 -0.377408 0
M  V30 2497 C 270.262 -1.6829 -1.11906 0
M  V30 2498 C 270.583 -0.431206 -1.90173 0
M  V30 2499 O 269.853 0.554595 -1.87886 0
M  V30 2500 H 268.433 -0.620371 -0.416112 0
M  V30 2501 H 271.095 -1.90167 -0.426893 0
M  V30 2502 H 270.191 -2.53862 -1.8155 0
M  V30 2503 N 270.492 0.636531 -1.44174 0
M  V30 2504 C 271.717 1.42847 -1.50364 0
M  V30 2505 C 272.142 1.87665 -0.127867 0
M  V30 2506 O 271.5 1.58408 0.88185 0
M  V30 2507 C 271.548 2.62854 -2.4686 0
M  V30 2508 O 270.652 3.62501 -1.9664 0
M  V30 2509 H 269.993 0.427642 -0.507955 0
M  V30 2510 H 272.523 0.777422 -1.89255 0
M  V30 2511 H 272.533 3.10465 -2.64718 0
M  V30 2512 H 271.208 2.29578 -3.46795 0
M  V30 2513 H 269.785 3.21735 -1.88523 0
M  V30 2514 N 271.97 1.30982 0.876444 0
M  V30 2515 C 273.218 1.20058 1.62575 0
M  V30 2516 C 273.539 -0.242947 1.93481 0
M  V30 2517 O 272.809 -1.1619 1.57724 0
M  V30 2518 H 271.389 0.44135 0.602677 0
M  V30 2519 H 274.051 1.64222 1.04962 0
M  V30 2520 H 273.147 1.76762 2.57219 0
M  V30 2521 N 273.449 -1.08991 1.13837 0
M  V30 2522 C 274.726 -1.77863 0.813876 0
M  V30 2523 C 275.106 -1.99375 -0.693746 0
M  V30 2524 O 274.454 -1.59875 -1.63255 0
M  V30 2525 C 274.664 -3.0986 1.60586 0
M  V30 2526 C 276.012 -3.84493 1.8014 0
M  V30 2527 O 277.036 -3.19624 1.57222 0
M  V30 2528 O 275.895 -5.00957 2.18413 0
M  V30 2529 H 272.989 -0.771589 0.297624 0
M  V30 2530 H 275.535 -1.15507 1.24323 0
M  V30 2531 H 274.307 -2.89715 2.63022 0
M  V30 2532 H 273.93 -3.79942 1.17173 0
M  V30 2533 N 274.927 -0.932562 -1.27047 0
M  V30 2534 C 276.175 -0.574422 -1.93765 0
M  V30 2535 C 276.496 0.887993 -1.73608 0
M  V30 2536 O 275.766 1.62999 -1.08665 0
M  V30 2537 H 274.346 -0.209451 -0.717035 0
M  V30 2538 H 277.008 -1.18601 -1.5466 0
M  V30 2539 H 276.104 -0.784841 -3.02071 0
M  V30 2540 N 276.405 1.4127 -0.698611 0
M  V30 2541 C 277.653 2.00782 -0.230409 0
M  V30 2542 C 277.974 1.5562 1.17505 0
M  V30 2543 O 277.244 0.78815 1.79346 0
M  V30 2544 H 275.824 0.742464 -0.0821944 0
M  V30 2545 H 278.486 1.72852 -0.90045 0
M  V30 2546 H 277.582 3.11095 -0.25021 0
M  V30 2547 N 277.883 0.443576 1.51229 0
M  V30 2548 C 279.108 -0.121648 2.07043 0
M  V30 2549 C 279.533 -1.35156 1.30823 0
M  V30 2550 O 278.891 -1.7793 0.347934 0
M  V30 2551 C 278.939 -0.41624 3.5819 0
M  V30 2552 O 278.043 -1.50163 3.8409 0
M  V30 2553 H 277.384 0.000871367 0.663999 0
M  V30 2554 H 279.914 0.626706 1.94765 0
M  V30 2555 H 279.924 -0.664867 4.02546 0
M  V30 2556 H 278.599 0.482653 4.1309 0
M  V30 2557 H 277.176 -1.24248 3.51592 0
M  V30 2558 N 279.361 -1.56624 0.175154 0
M  V30 2559 C 280.586 -2.01813 -0.478137 0
M  V30 2560 C 281.011 -1.05457 -1.55757 0
M  V30 2561 O 280.369 -0.0347439 -1.81267 0
M  V30 2562 C 280.417 -3.45581 -1.02987 0
M  V30 2563 O 279.521 -3.52305 -2.14371 0
M  V30 2564 H 278.862 -0.65413 -0.114059 0
M  V30 2565 H 281.392 -2.02673 0.280173 0
M  V30 2566 H 281.402 -3.84965 -1.35151 0
M  V30 2567 H 280.077 -4.1521 -0.239556 0
M  V30 2568 H 278.654 -3.24783 -1.83222 0
M  V30 2569 N 280.839 0.0985539 -1.57292 0
M  V30 2570 C 281.802 1.10402 -2.00858 0
M  V30 2571 C 282.802 1.33146 -0.901593 0
M  V30 2572 O 283.992 1.29318 -1.16716 0
M  V30 2573 C 281.124 2.45394 -2.36632 0
M  V30 2574 H 282.317 0.729099 -2.90902 0
M  V30 2575 H 279.87 0.343495 -1.52479 0
M  V30 2576 H 280.605 2.87769 -1.49531 0
M  V30 2577 H 280.39 2.30235 -3.17387 0
M  V30 2578 H 281.88 3.17718 -2.71007 0
M  V30 2579 N 282.317 1.53212 0.369288 0
M  V30 2580 C 283.594 1.59815 1.12776 0
M  V30 2581 C 283.974 0.403402 2.0721 0
M  V30 2582 O 283.322 -0.606667 2.20299 0
M  V30 2583 C 283.532 2.94664 1.87013 0
M  V30 2584 C 284.88 3.49109 2.41677 0
M  V30 2585 O 285.904 2.96669 1.97144 0
M  V30 2586 O 284.763 4.40775 3.23079 0
M  V30 2587 H 281.857 0.645376 0.517125 0
M  V30 2588 H 284.403 1.65553 0.37285 0
M  V30 2589 H 283.175 3.73061 1.18071 0
M  V30 2590 H 282.798 2.92401 2.69421 0
M  V30 2591 N 283.795 -0.628877 1.44509 0
M  V30 2592 C 285.02 -1.42048 1.5112 0
M  V30 2593 C 285.445 -1.87594 0.137818 0
M  V30 2594 O 284.803 -1.58873 -0.873437 0
M  V30 2595 C 284.851 -2.61541 2.48251 0
M  V30 2596 O 283.955 -3.61453 1.98559 0
M  V30 2597 H 283.296 -0.424942 0.510216 0
M  V30 2598 H 285.826 -0.767374 1.89664 0
M  V30 2599 H 285.836 -3.09057 2.66361 0
M  V30 2600 H 284.511 -2.27736 3.48007 0
M  V30 2601 H 283.088 -3.20731 1.90227 0
M  V30 2602 N 285.273 -1.31445 -0.869486 0
M  V30 2603 C 286.521 -1.20918 -1.61936 0
M  V30 2604 C 286.842 0.232683 -1.93607 0
M  V30 2605 O 286.112 1.15352 -1.58338 0
M  V30 2606 H 284.692 -0.44454 -0.600328 0
M  V30 2607 H 287.354 -1.64776 -1.0409 0
M  V30 2608 H 286.45 -1.78124 -2.56278 0
M  V30 2609 N 286.751 1.08385 -1.14413 0
M  V30 2610 C 287.976 1.85057 -0.936413 0
M  V30 2611 C 288.401 1.81055 0.509971 0
M  V30 2612 O 287.759 1.1958 1.36273 0
M  V30 2613 C 287.807 3.30505 -1.44217 0
M  V30 2614 O 286.911 4.07491 -0.634409 0
M  V30 2615 H 286.252 0.573425 -0.334784 0
M  V30 2616 H 288.782 1.36799 -1.52142 0
M  V30 2617 H 288.792 3.81348 -1.45043 0
M  V30 2618 H 287.467 3.32734 -2.49522 0
M  V30 2619 H 286.044 3.66368 -0.694902 0
M  V30 2620 N 288.23 0.939286 1.26551 0
M  V30 2621 C 289.478 0.58469 1.93457 0
M  V30 2622 C 289.799 -0.878774 1.74076 0
M  V30 2623 O 289.069 -1.62421 1.09528 0
M  V30 2624 H 287.649 0.21325 0.715914 0
M  V30 2625 H 290.311 1.1942 1.54029 0
M  V30 2626 H 289.407 0.800849 3.0165 0
M  V30 2627 N 289.708 -1.40897 0.706093 0
M  V30 2628 C 290.671 -2.29131 0.0562841 0
M  V30 2629 C 291.671 -1.44901 -0.697166 0
M  V30 2630 O 292.861 -1.65926 -0.530484 0
M  V30 2631 C 289.993 -3.27957 -0.93043 0
M  V30 2632 H 291.186 -2.88091 0.833284 0
M  V30 2633 H 288.739 -1.4906 0.470192 0
M  V30 2634 H 289.474 -2.73997 -1.73482 0
M  V30 2635 H 289.259 -3.90124 -0.393166 0
M  V30 2636 H 290.749 -3.94049 -1.38256 0
M  V30 2637 N 291.186 -0.45159 -1.50991 0
M  V30 2638 C 292.434 0.109857 -2.01801 0
M  V30 2639 C 292.755 1.41958 -1.3369 0
M  V30 2640 O 292.025 1.9003 -0.475951 0
M  V30 2641 H 290.605 0.0435884 -0.745727 0
M  V30 2642 H 293.267 -0.597557 -1.85514 0
M  V30 2643 H 292.363 0.275489 -3.10882 0
M  V30 2644 N 292.664 1.56529 -0.183458 0
M  V30 2645 C 294.075 1.83739 0.331177 0
M  V30 2646 C 294.426 1.10373 1.62211 0
M  V30 2647 O 293.551 0.36071 2.13373 0
M  V30 2648 C 294.146 3.33306 0.607646 0
M  V30 2649 C 292.705 3.60969 1.06668 0
M  V30 2650 C 291.852 2.77086 0.109029 0
M  V30 2651 H 294.803 1.53379 -0.407484 0
M  V30 2652 H 294.824 3.51444 1.45832 0
M  V30 2653 H 294.336 3.86677 -0.332086 0
M  V30 2654 H 292.437 3.13021 2.0211 0
M  V30 2655 H 292.55 4.69231 0.967447 0
M  V30 2656 H 290.914 2.47319 0.608714 0
M  V30 2657 H 291.697 3.33241 -0.82494 0
M  V30 2658 N 294.142 -0.090211 1.57342 0
M  V30 2659 C 295.39 -0.791241 1.85967 0
M  V30 2660 C 295.711 -1.7903 0.772859 0
M  V30 2661 O 294.981 -1.94872 -0.200398 0
M  V30 2662 H 293.561 -0.295205 0.686195 0
M  V30 2663 H 296.223 -0.0706782 1.94772 0
M  V30 2664 H 295.319 -1.31882 2.82867 0
M  V30 2665 N 295.62 -1.53406 -0.361157 0
M  V30 2666 C 296.583 -1.79479 -1.42548 0
M  V30 2667 C 297.583 -0.665327 -1.4639 0
M  V30 2668 O 298.773 -0.933549 -1.47073 0
M  V30 2669 C 295.905 -1.92087 -2.8163 0
M  V30 2670 H 297.098 -2.74538 -1.20701 0
M  V30 2671 H 294.651 -1.4455 -0.594546 0
M  V30 2672 H 295.386 -0.991099 -3.08784 0
M  V30 2673 H 295.171 -2.74241 -2.80239 0
M  V30 2674 H 296.661 -2.13836 -3.58697 0
M  V30 2675 N 297.098 0.621204 -1.44841 0
M  V30 2676 C 298.344 1.3826 -1.48365 0
M  V30 2677 C 298.677 1.93831 -0.119624 0
M  V30 2678 O 297.952 1.74251 0.864111 0
M  V30 2679 C 298.235 2.54058 -2.55199 0
M  V30 2680 C 298.088 2.03772 -4.00995 0
M  V30 2681 C 299.407 3.56225 -2.58442 0
M  V30 2682 H 296.526 0.501374 -0.540179 0
M  V30 2683 H 299.168 0.7015 -1.76576 0
M  V30 2684 H 297.318 3.12162 -2.31274 0
M  V30 2685 H 298.99 1.50423 -4.36086 0
M  V30 2686 H 297.233 1.34876 -4.12299 0
M  V30 2687 H 297.904 2.87185 -4.71411 0
M  V30 2688 H 300.38 3.07939 -2.79844 0
M  V30 2689 H 299.256 4.34756 -3.3508 0
M  V30 2690 H 299.517 4.10949 -1.63013 0
M  V30 2691 N 298.576 1.31904 0.862503 0
M  V30 2692 C 299.506 1.22782 1.98612 0
M  V30 2693 C 300.487 0.113362 1.69722 0
M  V30 2694 O 301.672 0.299218 1.91881 0
M  V30 2695 C 298.802 0.942058 3.34279 0
M  V30 2696 C 297.756 2.0169 3.77499 0
M  V30 2697 C 297.082 1.58369 5.10709 0
M  V30 2698 C 298.382 3.43096 3.93805 0
M  V30 2699 H 300.076 2.16788 2.06502 0
M  V30 2700 H 297.622 1.04366 0.992154 0
M  V30 2701 H 299.575 0.864818 4.1243 0
M  V30 2702 H 298.299 -0.0336603 3.26583 0
M  V30 2703 H 296.958 2.08416 3.01593 0
M  V30 2704 H 296.606 0.595628 4.99461 0
M  V30 2705 H 296.306 2.30279 5.40597 0
M  V30 2706 H 297.83 1.52067 5.91361 0
M  V30 2707 H 299.244 3.39003 4.62331 0
M  V30 2708 H 297.641 4.13288 4.35101 0
M  V30 2709 H 298.711 3.83334 2.96957 0
M  V30 2710 N 300.054 -1.07777 1.14986 0
M  V30 2711 C 301.279 -1.84558 0.946213 0
M  V30 2712 C 301.704 -1.81323 -0.500362 0
M  V30 2713 O 301.062 -1.20301 -1.35637 0
M  V30 2714 C 301.11 -3.29736 1.45968 0
M  V30 2715 O 300.214 -4.07149 0.65601 0
M  V30 2716 H 299.555 -0.571641 0.33782 0
M  V30 2717 H 302.085 -1.35991 1.52865 0
M  V30 2718 H 302.095 -3.80574 1.47063 0
M  V30 2719 H 300.77 -3.31406 2.51283 0
M  V30 2720 H 299.347 -3.65994 0.714322 0
M  V30 2721 N 301.532 -0.945985 -1.26051 0
M  V30 2722 C 302.462 -0.477172 -2.28572 0
M  V30 2723 C 303.443 0.472032 -1.63419 0
M  V30 2724 O 304.628 0.372853 -1.90587 0
M  V30 2725 C 301.758 0.253975 -3.4637 0
M  V30 2726 C 300.712 -0.609135 -4.23643 0
M  V30 2727 C 300.038 0.252252 -5.34105 0
M  V30 2728 C 301.338 -1.8829 -4.8718 0
M  V30 2729 H 303.032 -1.33402 -2.68038 0
M  V30 2730 H 300.578 -0.642904 -1.28852 0
M  V30 2731 H 302.531 0.593016 -4.17207 0
M  V30 2732 H 301.255 1.145 -3.05871 0
M  V30 2733 H 299.914 -0.931138 -3.54578 0
M  V30 2734 H 299.562 1.14278 -4.89846 0
M  V30 2735 H 299.262 -0.32188 -5.86718 0
M  V30 2736 H 300.786 0.586454 -6.07777 0
M  V30 2737 H 302.2 -1.61081 -5.50205 0
M  V30 2738 H 300.597 -2.40199 -5.49931 0
M  V30 2739 H 301.667 -2.59134 -4.09851 0
M  V30 2740 N 303.011 1.40521 -0.713556 0
M  V30 2741 C 304.259 2.00527 -0.251692 0
M  V30 2742 C 304.58 1.56857 1.15848 0
M  V30 2743 O 303.85 0.807127 1.785 0
M  V30 2744 H 302.43 0.741551 -0.0900646 0
M  V30 2745 H 305.092 1.71887 -0.918733 0
M  V30 2746 H 304.188 3.10813 -0.283192 0
M  V30 2747 N 304.489 0.459591 1.5075 0
M  V30 2748 C 305.452 -0.329093 2.26825 0
M  V30 2749 C 306.452 -0.930481 1.31144 0
M  V30 2750 O 307.642 -0.801453 1.54669 0
M  V30 2751 C 304.774 -1.46768 3.07688 0
M  V30 2752 H 305.967 0.337924 2.9799 0
M  V30 2753 H 303.52 0.213336 1.54837 0
M  V30 2754 H 304.255 -2.17009 2.40993 0
M  V30 2755 H 304.04 -1.04238 3.77991 0
M  V30 2756 H 305.53 -2.02433 3.65254 0
M  V30 2757 N 305.967 -1.56429 0.191757 0
M  V30 2758 C 307.207 -1.99383 -0.450099 0
M  V30 2759 C 307.571 -1.07581 -1.59029 0
M  V30 2760 O 308.772 -1.39758 -2.29611 0
M  V30 2761 C 307.043 -3.45841 -0.901611 0
M  V30 2762 S 308.602 -4.10822 -1.54177 0
M  V30 2763 H 305.42 -0.696253 -0.144057 0
M  V30 2764 H 308.022 -1.93276 0.294036 0
M  V30 2765 H 306.726 -4.10354 -0.0616596 0
M  V30 2766 H 306.257 -3.55757 -1.67929 0
M  V30 2767 H 308.272 -4.07553 -2.83046 0
M  V30 2768 N 307.445 0.0818655 -1.57387 0
M  V30 2769 C 308.685 0.788375 -1.88584 0
M  V30 2770 C 309.049 1.75248 -0.784351 0
M  V30 2771 O 310.25 2.50334 -0.979105 0
M  V30 2772 C 308.521 1.48654 -3.25018 0
M  V30 2773 S 310.08 2.22951 -3.7794 0
M  V30 2774 H 306.898 0.262383 -0.660815 0
M  V30 2775 H 309.5 0.0448995 -1.95448 0
M  V30 2776 H 308.204 0.770919 -4.03094 0
M  V30 2777 H 307.735 2.26965 -3.21326 0
M  V30 2778 H 309.75 3.49309 -3.52417 0
M  V30 2779 N 308.923 1.53595 0.353017 0
M  V30 2780 C 309.853 1.83902 1.43883 0
M  V30 2781 C 310.834 0.693421 1.55324 0
M  V30 2782 O 312.019 0.944452 1.69687 0
M  V30 2783 C 309.149 2.04016 2.8106 0
M  V30 2784 C 308.103 3.19814 2.84434 0
M  V30 2785 C 307.429 3.25244 4.24406 0
M  V30 2786 C 308.729 4.58133 2.50822 0
M  V30 2787 H 310.423 2.74835 1.1877 0
M  V30 2788 H 307.969 1.32242 0.569917 0
M  V30 2789 H 309.922 2.238 3.57059 0
M  V30 2790 H 308.646 1.09804 3.07588 0
M  V30 2791 H 307.305 2.9987 2.10887 0
M  V30 2792 H 306.953 2.28646 4.48029 0
M  V30 2793 H 306.653 4.03054 4.27576 0
M  V30 2794 H 308.177 3.47228 5.0226 0
M  V30 2795 H 309.591 4.77995 3.16534 0
M  V30 2796 H 307.988 5.38276 2.6529 0
M  V30 2797 H 309.058 4.62387 1.46034 0
M  V30 2798 N 310.401 -0.613514 1.45168 0
M  V30 2799 C 311.364 -1.7065 1.53007 0
M  V30 2800 C 312.364 -1.5548 0.410184 0
M  V30 2801 O 313.554 -1.60656 0.673455 0
M  V30 2802 C 310.686 -3.09875 1.42093 0
M  V30 2803 H 311.879 -1.65068 2.50385 0
M  V30 2804 H 309.432 -0.828728 1.32521 0
M  V30 2805 H 310.167 -3.21039 0.458769 0
M  V30 2806 H 309.952 -3.22293 2.23315 0
M  V30 2807 H 311.442 -3.895 1.50598 0
M  V30 2808 N 311.879 -1.3236 -0.855495 0
M  V30 2809 C 312.809 -1.23833 -1.97958 0
M  V30 2810 C 313.79 -0.122361 -1.69659 0
M  V30 2811 O 314.975 -0.30939 -1.9172 0
M  V30 2812 C 312.105 -0.959772 -3.33775 0
M  V30 2813 C 311.059 -2.03689 -3.76424 0
M  V30 2814 C 310.385 -1.61075 -5.09862 0
M  V30 2815 C 311.685 -3.4518 -3.9198 0
M  V30 2816 H 313.379 -2.1788 -2.0535 0
M  V30 2817 H 310.925 -1.04891 -0.986605 0
M  V30 2818 H 312.878 -0.886678 -4.11966 0
M  V30 2819 H 311.602 0.0163404 -3.26596 0
M  V30 2820 H 310.261 -2.10012 -3.00484 0
M  V30 2821 H 309.909 -0.622107 -4.99138 0
M  V30 2822 H 309.609 -2.33143 -5.39368 0
M  V30 2823 H 311.133 -1.55201 -5.90546 0
M  V30 2824 H 312.547 -3.4145 -4.60526 0
M  V30 2825 H 310.944 -4.1559 -4.32903 0
M  V30 2826 H 312.014 -3.84903 -2.94919 0
M  V30 2827 N 313.357 1.07166 -1.15556 0
M  V30 2828 C 314.287 2.16403 -0.877046 0
M  V30 2829 C 315.268 1.69217 0.173111 0
M  V30 2830 O 316.453 1.94181 0.027084 0
M  V30 2831 C 313.583 3.45349 -0.367632 0
M  V30 2832 C 312.537 4.05995 -1.35468 0
M  V30 2833 C 311.863 5.30045 -0.704038 0
M  V30 2834 C 313.163 4.45804 -2.72132 0
M  V30 2835 H 314.857 2.39959 -1.79053 0
M  V30 2836 H 312.403 1.15325 -0.862331 0
M  V30 2837 H 314.356 4.21095 -0.160317 0
M  V30 2838 H 313.08 3.21385 0.581326 0
M  V30 2839 H 311.739 3.32296 -1.54839 0
M  V30 2840 H 311.387 5.02373 0.251128 0
M  V30 2841 H 311.087 5.71579 -1.36277 0
M  V30 2842 H 312.611 6.08495 -0.50654 0
M  V30 2843 H 314.025 5.12671 -2.56595 0
M  V30 2844 H 312.422 4.98296 -3.34397 0
M  V30 2845 H 313.492 3.57083 -3.28054 0
M  V30 2846 N 314.835 0.952656 1.25548 0
M  V30 2847 C 315.767 0.428609 2.25157 0
M  V30 2848 C 316.78 -0.454428 1.56329 0
M  V30 2849 O 317.969 -0.263023 1.76552 0
M  V30 2850 C 315.069 -0.401972 3.36508 0
M  V30 2851 C 314.242 0.467601 4.34893 0
M  V30 2852 C 313.301 -0.30445 5.25319 0
M  V30 2853 O 312.327 0.296473 5.68427 0
M  V30 2854 N 313.529 -1.59805 5.5807 0
M  V30 2855 H 316.294 1.28497 2.70756 0
M  V30 2856 H 313.855 0.822798 1.39433 0
M  V30 2857 H 315.847 -0.926134 3.9396 0
M  V30 2858 H 314.417 -1.15918 2.90313 0
M  V30 2859 H 313.637 1.17288 3.76347 0
M  V30 2860 H 314.925 1.06119 4.97611 0
M  V30 2861 H 314.323 -2.10823 5.24948 0
M  V30 2862 H 312.88 -2.06822 6.18116 0
M  V30 2863 N 316.313 -1.40141 0.720998 0
M  V30 2864 C 317.562 -2.0002 0.259804 0
M  V30 2865 C 317.875 -1.57839 -1.15526 0
M  V30 2866 O 319.081 -2.10455 -1.71525 0
M  V30 2867 C 317.537 -3.57516 0.413566 0
M  V30 2868 C 317.145 -4.08667 1.83562 0
M  V30 2869 C 318.889 -4.24498 0.0134387 0
M  V30 2870 C 316.796 -5.58686 1.93968 0
M  V30 2871 H 315.726 -0.748195 0.0933806 0
M  V30 2872 H 318.377 -1.60313 0.892866 0
M  V30 2873 H 316.759 -3.9495 -0.288169 0
M  V30 2874 H 317.933 -3.82598 2.56817 0
M  V30 2875 H 316.248 -3.543 2.1877 0
M  V30 2876 H 318.845 -5.34654 0.0703954 0
M  V30 2877 H 319.188 -4.03375 -1.02927 0
M  V30 2878 H 319.721 -3.92188 0.665815 0
M  V30 2879 H 316.46 -5.8467 2.96379 0
M  V30 2880 H 315.98 -5.86602 1.25131 0
M  V30 2881 H 317.659 -6.23875 1.71431 0
M  V30 2882 N 317.792 -0.46758 -1.50504 0
M  V30 2883 C 319.039 0.0886219 -2.02306 0
M  V30 2884 C 319.367 1.40037 -1.34981 0
M  V30 2885 O 318.622 1.90136 -0.463318 0
M  V30 2886 C 318.921 0.323995 -3.55928 0
M  V30 2887 C 318.587 -0.905618 -4.41712 0
M  V30 2888 C 317.249 -1.24275 -4.64875 0
M  V30 2889 C 319.601 -1.72448 -4.91845 0
M  V30 2890 C 316.929 -2.39888 -5.35417 0
M  V30 2891 C 319.281 -2.87185 -5.63656 0
M  V30 2892 C 317.945 -3.21317 -5.85074 0
M  V30 2893 H 317.215 0.0324291 -0.74029 0
M  V30 2894 H 319.862 -0.620945 -1.81153 0
M  V30 2895 H 318.167 1.11577 -3.75577 0
M  V30 2896 H 319.864 0.76826 -3.93572 0
M  V30 2897 H 316.454 -0.632956 -4.239 0
M  V30 2898 H 320.638 -1.4772 -4.73806 0
M  V30 2899 H 315.894 -2.66611 -5.50208 0
M  V30 2900 H 320.068 -3.50985 -6.01484 0
M  V30 2901 H 317.695 -4.1101 -6.39511 0
M  V30 2902 N 319.27 1.56325 -0.20005 0
M  V30 2903 C 320.686 1.58839 0.155716 0
M  V30 2904 C 320.886 1.21636 1.60645 0
M  V30 2905 O 319.942 0.941437 2.34293 0
M  V30 2906 C 321.255 3.0032 -0.151124 0
M  V30 2907 C 322.803 3.12866 -0.0916284 0
M  V30 2908 C 323.278 4.56488 -0.371845 0
M  V30 2909 N 324.769 4.62089 -0.320641 0
M  V30 2910 C 325.504 5.71116 -0.511243 0
M  V30 2911 N 325 6.88592 -0.762461 0
M  V30 2912 N 326.793 5.60335 -0.445157 0
M  V30 2913 H 318.944 1.78788 -1.14668 0
M  V30 2914 H 321.207 0.829996 -0.458051 0
M  V30 2915 H 320.913 3.32117 -1.15721 0
M  V30 2916 H 320.787 3.73257 0.543986 0
M  V30 2917 H 323.174 2.80878 0.905065 0
M  V30 2918 H 323.255 2.42304 -0.81989 0
M  V30 2919 H 322.899 4.89189 -1.36588 0
M  V30 2920 H 322.829 5.25246 0.377362 0
M  V30 2921 H 325.32 3.77665 -0.13329 0
M  V30 2922 H 325.633 7.67581 -0.896576 0
M  V30 2923 H 323.978 6.90387 -0.799412 0
M  V30 2924 H 327.169 4.67436 -0.249278 0
M  V30 2925 H 327.342 6.45243 -0.597116 0
M  V30 2926 N 320.748 -0.0735177 1.57428 0
M  V30 2927 C 321.973 -0.789787 1.91774 0
M  V30 2928 C 322.398 -1.70413 0.796306 0
M  V30 2929 O 321.756 -1.79555 -0.250961 0
M  V30 2930 C 321.804 -1.5609 3.25067 0
M  V30 2931 O 320.908 -2.67144 3.14178 0
M  V30 2932 H 320.249 -0.215582 0.628029 0
M  V30 2933 H 322.779 -0.0422781 2.04556 0
M  V30 2934 H 322.789 -1.94052 3.58898 0
M  V30 2935 H 321.464 -0.890015 4.06265 0
M  V30 2936 H 320.041 -2.32052 2.91901 0
M  V30 2937 N 322.226 -1.5378 -0.344866 0
M  V30 2938 C 323.173 -1.81676 -1.42346 0
M  V30 2939 C 324.143 -0.662376 -1.52321 0
M  V30 2940 O 325.328 -0.906675 -1.67881 0
M  V30 2941 C 322.468 -2.03087 -2.79015 0
M  V30 2942 C 321.581 -3.30799 -2.77842 0
M  V30 2943 C 320.716 -3.42285 -4.0622 0
M  V30 2944 C 319.755 -4.6395 -3.9927 0
M  V30 2945 N 318.892 -4.72477 -5.19336 0
M  V30 2946 H 323.732 -2.73703 -1.17858 0
M  V30 2947 H 321.269 -1.35568 -0.570949 0
M  V30 2948 H 323.227 -2.1349 -3.58438 0
M  V30 2949 H 321.857 -1.14375 -3.01858 0
M  V30 2950 H 320.909 -3.29244 -1.90533 0
M  V30 2951 H 322.221 -4.20314 -2.68584 0
M  V30 2952 H 321.375 -3.52113 -4.94066 0
M  V30 2953 H 320.114 -2.50823 -4.18258 0
M  V30 2954 H 319.119 -4.54201 -3.09809 0
M  V30 2955 H 320.344 -5.56775 -3.88817 0
M  V30 2956 H 318.29 -3.83924 -5.3192 0
M  V30 2957 H 318.207 -5.55927 -5.12329 0
M  V30 2958 H 319.475 -4.86613 -6.08957 0
M  V30 2959 N 323.704 0.605807 -1.45491 0
M  V30 2960 C 324.651 1.7164 -1.54299 0
M  V30 2961 C 325.621 1.61486 -0.388761 0
M  V30 2962 O 326.806 1.81039 -0.602445 0
M  V30 2963 C 323.946 3.09953 -1.51734 0
M  V30 2964 C 323.059 3.309 -2.77721 0
M  V30 2965 C 322.194 4.59329 -2.66816 0
M  V30 2966 C 321.233 4.7354 -3.87848 0
M  V30 2967 N 320.37 5.9327 -3.75467 0
M  V30 2968 H 325.21 1.63449 -2.49176 0
M  V30 2969 H 322.747 0.796957 -1.23641 0
M  V30 2970 H 324.705 3.89977 -1.48235 0
M  V30 2971 H 323.335 3.17098 -0.604068 0
M  V30 2972 H 322.387 2.44639 -2.913 0
M  V30 2973 H 323.699 3.37274 -3.67488 0
M  V30 2974 H 322.853 5.4755 -2.61292 0
M  V30 2975 H 321.592 4.55355 -1.74651 0
M  V30 2976 H 320.597 3.83741 -3.93729 0
M  V30 2977 H 321.822 4.79309 -4.81082 0
M  V30 2978 H 319.768 5.90338 -2.86072 0
M  V30 2979 H 319.685 6.00811 -4.5887 0
M  V30 2980 H 320.953 6.83984 -3.73879 0
M  V30 2981 N 325.182 1.32811 0.848464 0
M  V30 2982 C 326.429 1.23724 1.60308 0
M  V30 2983 C 326.757 -0.1994 1.93475 0
M  V30 2984 O 326.012 -1.15406 1.5805 0
M  V30 2985 C 326.311 2.04831 2.92881 0
M  V30 2986 C 325.977 3.54125 2.79117 0
M  V30 2987 C 324.639 3.94829 2.7507 0
M  V30 2988 C 326.991 4.49036 2.64606 0
M  V30 2989 C 324.319 5.28675 2.544 0
M  V30 2990 C 326.671 5.83033 2.4547 0
M  V30 2991 C 325.335 6.22931 2.39819 0
M  V30 2992 H 324.605 0.452737 0.586609 0
M  V30 2993 H 327.252 1.64301 0.983743 0
M  V30 2994 H 325.557 1.57001 3.58968 0
M  V30 2995 H 327.254 1.95164 3.50303 0
M  V30 2996 H 323.844 3.21801 2.83094 0
M  V30 2997 H 328.028 4.18505 2.66772 0
M  V30 2998 H 323.284 5.58637 2.48465 0
M  V30 2999 H 327.458 6.56186 2.33222 0
M  V30 3000 H 325.085 7.26584 2.23562 0
M  V30 3001 N 326.66 -1.06551 1.16123 0
M  V30 3002 C 328.071 -1.60768 0.949232 0
M  V30 3003 C 328.422 -1.89523 -0.507508 0
M  V30 3004 O 327.547 -1.66671 -1.38021 0
M  V30 3005 C 328.142 -2.92086 1.71671 0
M  V30 3006 C 326.701 -3.43015 1.54977 0
M  V30 3007 C 325.848 -2.16947 1.72711 0
M  V30 3008 H 328.799 -0.895354 1.31031 0
M  V30 3009 H 328.82 -3.6138 1.19099 0
M  V30 3010 H 328.332 -2.71127 2.7769 0
M  V30 3011 H 326.433 -3.69039 0.513873 0
M  V30 3012 H 326.546 -4.18516 2.33198 0
M  V30 3013 H 324.91 -2.27041 1.15431 0
M  V30 3014 H 325.693 -1.98473 2.80113 0
M  V30 3015 N 328.138 -0.959301 -1.25041 0
M  V30 3016 C 329.363 -0.633507 -1.97488 0
M  V30 3017 C 329.788 0.788555 -1.70773 0
M  V30 3018 O 329.146 1.53394 -0.966431 0
M  V30 3019 C 329.194 -0.904057 -3.49083 0
M  V30 3020 O 328.298 0.0147939 -4.12397 0
M  V30 3021 H 327.639 -0.240368 -0.618966 0
M  V30 3022 H 330.169 -1.28717 -1.59038 0
M  V30 3023 H 330.179 -0.832203 -3.99423 0
M  V30 3024 H 328.854 -1.94048 -3.67856 0
M  V30 3025 H 327.431 -0.109664 -3.72739 0
M  V30 3026 N 329.616 1.39756 -0.72842 0
M  V30 3027 C 330.893 1.94574 -0.200079 0
M  V30 3028 C 331.273 1.66569 1.29684 0
M  V30 3029 O 330.621 0.990326 2.05924 0
M  V30 3030 C 330.831 3.45004 -0.526608 0
M  V30 3031 C 332.179 4.21965 -0.472318 0
M  V30 3032 O 333.203 3.53173 -0.463413 0
M  V30 3033 O 332.062 5.44552 -0.461075 0
M  V30 3034 H 329.156 0.826289 -0.0342851 0
M  V30 3035 H 331.702 1.49293 -0.806829 0
M  V30 3036 H 330.474 3.58796 -1.56144 0
M  V30 3037 H 330.097 3.97449 0.109449 0
M  V30 3038 N 331.094 0.475555 1.50254 0
M  V30 3039 C 332.041 -0.316293 2.28622 0
M  V30 3040 C 333.011 -0.983227 1.33873 0
M  V30 3041 O 334.196 -0.994805 1.62814 0
M  V30 3042 C 331.336 -1.38975 3.1588 0
M  V30 3043 C 330.449 -0.737146 4.25664 0
M  V30 3044 C 329.584 -1.78887 5.00173 0
M  V30 3045 C 328.623 -1.11676 6.01826 0
M  V30 3046 N 327.76 -2.11154 6.69596 0
M  V30 3047 H 332.6 0.358297 2.95838 0
M  V30 3048 H 330.137 0.188541 1.45887 0
M  V30 3049 H 332.095 -2.02383 3.64825 0
M  V30 3050 H 330.725 -2.03344 2.50701 0
M  V30 3051 H 329.777 0.0096065 3.80399 0
M  V30 3052 H 331.089 -0.206816 4.98371 0
M  V30 3053 H 330.243 -2.49865 5.52859 0
M  V30 3054 H 328.982 -2.35302 4.27182 0
M  V30 3055 H 327.987 -0.392633 5.48396 0
M  V30 3056 H 329.212 -0.55945 6.76792 0
M  V30 3057 H 327.158 -2.66577 5.99394 0
M  V30 3058 H 327.075 -1.63118 7.38193 0
M  V30 3059 H 328.343 -2.81497 7.26897 0
M  V30 3060 N 332.573 -1.56217 0.208337 0
M  V30 3061 C 333.503 -2.22694 -0.702116 0
M  V30 3062 C 334.484 -1.19432 -1.2112 0
M  V30 3063 O 335.669 -1.47978 -1.25762 0
M  V30 3064 C 332.799 -2.8966 -1.9161 0
M  V30 3065 C 331.753 -3.9928 -1.5414 0
M  V30 3066 C 331.079 -4.53476 -2.83308 0
M  V30 3067 C 332.379 -5.17012 -0.741339 0
M  V30 3068 H 334.073 -2.99034 -0.147898 0
M  V30 3069 H 331.619 -1.43831 -0.0696951 0
M  V30 3070 H 333.572 -3.34852 -2.55836 0
M  V30 3071 H 332.296 -2.10746 -2.49507 0
M  V30 3072 H 330.955 -3.54799 -0.922668 0
M  V30 3073 H 330.603 -3.71308 -3.39322 0
M  V30 3074 H 330.303 -5.27451 -2.58976 0
M  V30 3075 H 331.827 -5.01378 -3.485 0
M  V30 3076 H 333.241 -5.58667 -1.28699 0
M  V30 3077 H 331.638 -5.97137 -0.595627 0
M  V30 3078 H 332.708 -4.8423 0.254851 0
M  V30 3079 N 334.051 0.0651679 -1.57465 0
M  V30 3080 C 334.961 1.09448 -2.07505 0
M  V30 3081 C 335.977 1.41974 -1.00595 0
M  V30 3082 O 337.153 1.52018 -1.32107 0
M  V30 3083 C 334.218 2.38689 -2.51453 0
M  V30 3084 C 333.279 2.13073 -3.72691 0
M  V30 3085 C 332.512 3.36152 -4.14533 0
M  V30 3086 O 332.735 4.45517 -3.56189 0
M  V30 3087 O 331.669 3.23974 -5.07272 0
M  V30 3088 H 335.495 0.69935 -2.95538 0
M  V30 3089 H 333.08 0.279752 -1.46757 0
M  V30 3090 H 334.962 3.14736 -2.80212 0
M  V30 3091 H 333.637 2.77568 -1.66546 0
M  V30 3092 H 332.544 1.34709 -3.49005 0
M  V30 3093 H 333.877 1.79071 -4.5847 0
M  V30 3094 N 335.529 1.53961 0.336706 0
M  V30 3095 C 336.945 1.44378 0.680241 0
M  V30 3096 C 337.145 0.606034 1.9217 0
M  V30 3097 O 336.201 0.099688 2.52303 0
M  V30 3098 C 337.514 2.87945 0.8665 0
M  V30 3099 C 339.062 2.97763 0.964682 0
M  V30 3100 C 339.537 4.42453 1.18321 0
M  V30 3101 N 341.028 4.46008 1.25025 0
M  V30 3102 C 341.763 5.55102 1.43697 0
M  V30 3103 N 341.259 6.7419 1.59498 0
M  V30 3104 N 343.052 5.42727 1.463 0
M  V30 3105 H 335.203 2.06918 -0.479455 0
M  V30 3106 H 337.466 0.935634 -0.152619 0
M  V30 3107 H 337.172 3.51691 0.0256937 0
M  V30 3108 H 337.046 3.33293 1.76623 0
M  V30 3109 H 339.433 2.34153 1.796 0
M  V30 3110 H 339.514 2.55766 0.041708 0
M  V30 3111 H 339.158 5.06645 0.356788 0
M  V30 3112 H 339.088 4.82048 2.11985 0
M  V30 3113 H 341.579 3.60196 1.14312 0
M  V30 3114 H 341.892 7.53095 1.734 0
M  V30 3115 H 340.237 6.77123 1.56621 0
M  V30 3116 H 343.428 4.48647 1.33543 0
M  V30 3117 H 343.601 6.27806 1.6051 0
M  V30 3118 N 337.007 -0.598083 1.45811 0
M  V30 3119 C 337.937 -1.71873 1.58057 0
M  V30 3120 C 338.918 -1.64533 0.431615 0
M  V30 3121 O 340.103 -1.82787 0.65595 0
M  V30 3122 C 337.233 -3.10495 1.55597 0
M  V30 3123 C 336.187 -3.32654 2.69305 0
M  V30 3124 C 335.513 -4.71646 2.51902 0
M  V30 3125 C 336.813 -3.21981 4.11248 0
M  V30 3126 H 338.507 -1.61881 2.51863 0
M  V30 3127 H 336.053 -0.777372 1.21214 0
M  V30 3128 H 338.006 -3.88699 1.6276 0
M  V30 3129 H 336.73 -3.2135 0.583255 0
M  V30 3130 H 335.389 -2.56843 2.61586 0
M  V30 3131 H 335.037 -4.79246 1.52748 0
M  V30 3132 H 334.737 -4.87426 3.2816 0
M  V30 3133 H 336.261 -5.52038 2.60933 0
M  V30 3134 H 337.675 -3.90049 4.20161 0
M  V30 3135 H 336.072 -3.49289 4.87972 0
M  V30 3136 H 337.142 -2.1928 4.32486 0
M  V30 3137 N 338.485 -1.33259 -0.841409 0
M  V30 3138 C 339.715 -1.2742 -1.62628 0
M  V30 3139 C 340.123 0.157604 -1.88542 0
M  V30 3140 O 339.466 1.10938 -1.46419 0
M  V30 3141 C 339.528 -1.97797 -3.00194 0
M  V30 3142 C 339.192 -3.47109 -2.97261 0
M  V30 3143 C 340.189 -4.42358 -2.73159 0
M  V30 3144 C 337.874 -3.89247 -3.17478 0
M  V30 3145 C 339.868 -5.77718 -2.69296 0
M  V30 3146 C 337.555 -5.24713 -3.13241 0
M  V30 3147 C 338.553 -6.1876 -2.89181 0
M  V30 3148 O 338.241 -7.51745 -2.84843 0
M  V30 3149 H 337.973 -0.440436 -0.512827 0
M  V30 3150 H 340.527 -1.76153 -1.05638 0
M  V30 3151 H 338.757 -1.43652 -3.59028 0
M  V30 3152 H 340.446 -1.8549 -3.61038 0
M  V30 3153 H 341.212 -4.11127 -2.57294 0
M  V30 3154 H 337.091 -3.16456 -3.35226 0
M  V30 3155 H 340.635 -6.51097 -2.50436 0
M  V30 3156 H 336.532 -5.55569 -3.28654 0
M  V30 3157 H 337.3 -7.61262 -3.00702 0
M  V30 3158 N 339.963 1.05934 -1.16686 0
M  V30 3159 C 340.895 2.13468 -0.834503 0
M  V30 3160 C 341.908 1.62013 0.15984 0
M  V30 3161 O 343.097 1.7838 -0.0654228 0
M  V30 3162 C 340.197 3.3817 -0.222361 0
M  V30 3163 C 339.37 4.18928 -1.25771 0
M  V30 3164 C 338.429 5.21985 -0.664703 0
M  V30 3165 O 337.455 5.53334 -1.33453 0
M  V30 3166 N 338.657 5.77919 0.546834 0
M  V30 3167 H 341.422 2.42578 -1.75999 0
M  V30 3168 H 338.983 1.21967 -1.06469 0
M  V30 3169 H 340.975 4.04266 0.187472 0
M  V30 3170 H 339.545 3.06655 0.606758 0
M  V30 3171 H 338.765 3.48433 -1.84358 0
M  V30 3172 H 340.053 4.69687 -1.95631 0
M  V30 3173 H 339.451 5.54721 1.10912 0
M  V30 3174 H 338.008 6.45573 0.898829 0
M  V30 3175 N 341.441 0.965919 1.2453 0
M  V30 3176 C 342.857 0.67216 1.44756 0
M  V30 3177 C 343.057 -0.766609 1.86347 0
M  V30 3178 O 342.113 -1.5407 2.00047 0
M  V30 3179 C 343.426 1.65473 2.51076 0
M  V30 3180 C 344.974 1.66716 2.64905 0
M  V30 3181 C 345.449 2.63766 3.74421 0
M  V30 3182 N 346.94 2.62198 3.81846 0
M  V30 3183 C 347.675 3.33966 4.66106 0
M  V30 3184 N 347.171 4.15245 5.54566 0
M  V30 3185 N 348.964 3.22799 4.60171 0
M  V30 3186 H 341.115 1.89553 0.958293 0
M  V30 3187 H 343.378 0.815979 0.482579 0
M  V30 3188 H 343.084 2.68296 2.27399 0
M  V30 3189 H 342.958 1.4261 3.49202 0
M  V30 3190 H 345.345 0.646057 2.87941 0
M  V30 3191 H 345.426 1.93642 1.67142 0
M  V30 3192 H 345.07 3.6601 3.52135 0
M  V30 3193 H 345 2.34121 4.71694 0
M  V30 3194 H 347.491 2.032 3.18619 0
M  V30 3195 H 347.804 4.66898 6.15814 0
M  V30 3196 H 346.149 4.1934 5.54237 0
M  V30 3197 H 349.34 2.58764 3.90075 0
M  V30 3198 H 349.513 3.78994 5.25612 0
M  V30 3199 N 342.919 -1.39368 0.735821 0
M  V30 3200 C 344.149 -2.04498 0.293967 0
M  V30 3201 C 344.557 -1.55593 -1.07645 0
M  V30 3202 O 343.9 -0.716324 -1.69158 0
M  V30 3203 C 343.962 -3.58836 0.218342 0
M  V30 3204 C 343.626 -4.30721 1.52736 0
M  V30 3205 C 344.623 -4.57305 2.47322 0
M  V30 3206 C 342.308 -4.69251 1.79189 0
M  V30 3207 C 344.302 -5.21429 3.66593 0
M  V30 3208 C 341.989 -5.33104 2.98737 0
M  V30 3209 C 342.987 -5.59125 3.9226 0
M  V30 3210 O 342.675 -6.21653 5.09708 0
M  V30 3211 H 342.407 -0.664118 0.126189 0
M  V30 3212 H 344.961 -1.79385 1.00051 0
M  V30 3213 H 343.191 -3.8285 -0.544314 0
M  V30 3214 H 344.88 -4.05447 -0.191626 0
M  V30 3215 H 345.646 -4.27983 2.28156 0
M  V30 3216 H 341.525 -4.48354 1.07239 0
M  V30 3217 H 345.069 -5.41656 4.39607 0
M  V30 3218 H 340.966 -5.61846 3.17803 0
M  V30 3219 H 341.734 -6.40146 5.10054 0
M  V30 3220 N 344.397 -0.483516 -1.5 0
M  V30 3221 C 345.644 0.0671597 -2.02389 0
M  V30 3222 C 345.972 1.38597 -1.36459 0
M  V30 3223 O 345.227 1.89634 -0.483458 0
M  V30 3224 C 345.526 0.286226 -3.56252 0
M  V30 3225 C 345.192 -0.952416 -4.40726 0
M  V30 3226 C 343.854 -1.29199 -4.63531 0
M  V30 3227 C 346.206 -1.77655 -4.89988 0
M  V30 3228 C 343.534 -2.45553 -5.32842 0
M  V30 3229 C 345.886 -2.93147 -5.60578 0
M  V30 3230 C 344.55 -3.27505 -5.81633 0
M  V30 3231 H 343.82 0.0245755 -0.740592 0
M  V30 3232 H 346.467 -0.640124 -1.80485 0
M  V30 3233 H 344.772 1.07587 -3.76739 0
M  V30 3234 H 346.469 0.726473 -3.94365 0
M  V30 3235 H 343.059 -0.677881 -4.23205 0
M  V30 3236 H 347.243 -1.52737 -4.72213 0
M  V30 3237 H 342.499 -2.72431 -5.47349 0
M  V30 3238 H 346.673 -3.57344 -5.97727 0
M  V30 3239 H 344.3 -4.1777 -6.35116 0
M  V30 3240 N 345.875 1.56104 -0.216619 0
M  V30 3241 C 347.122 1.98172 0.416416 0
M  V30 3242 C 347.45 1.10413 1.60122 0
M  V30 3243 O 346.705 0.147967 1.9514 0
M  V30 3244 C 347.004 3.45923 0.898464 0
M  V30 3245 C 346.67 4.50559 -0.175288 0
M  V30 3246 C 345.332 4.78897 -0.470271 0
M  V30 3247 C 347.684 5.1334 -0.901728 0
M  V30 3248 C 345.012 5.67299 -1.4963 0
M  V30 3249 C 347.364 6.02853 -1.91705 0
M  V30 3250 C 346.028 6.29537 -2.21901 0
M  V30 3251 H 345.298 0.725164 0.152377 0
M  V30 3252 H 347.945 1.88839 -0.318103 0
M  V30 3253 H 346.25 3.52434 1.71165 0
M  V30 3254 H 347.947 3.75841 1.39803 0
M  V30 3255 H 344.537 4.28551 0.0647806 0
M  V30 3256 H 348.721 4.91521 -0.687072 0
M  V30 3257 H 343.977 5.86239 -1.73592 0
M  V30 3258 H 348.151 6.50552 -2.48505 0
M  V30 3259 H 345.778 6.97835 -3.01548 0
M  V30 3260 N 347.353 -0.0568162 1.57498 0
M  V30 3261 C 348.769 -0.411933 1.54192 0
M  V30 3262 C 348.969 -1.78287 0.938942 0
M  V30 3263 O 348.025 -2.46483 0.547919 0
M  V30 3264 C 349.338 -0.339244 2.9878 0
M  V30 3265 C 350.886 -0.418348 3.10192 0
M  V30 3266 C 351.361 -0.375407 4.56459 0
M  V30 3267 N 352.852 -0.435038 4.61153 0
M  V30 3268 C 353.587 -0.424265 5.71828 0
M  V30 3269 N 353.083 -0.367418 6.91825 0
M  V30 3270 N 354.876 -0.471938 5.60115 0
M  V30 3271 H 347.027 0.840684 1.95055 0
M  V30 3272 H 349.29 0.316987 0.893433 0
M  V30 3273 H 348.996 0.601742 3.46514 0
M  V30 3274 H 348.87 -1.14371 3.59443 0
M  V30 3275 H 351.257 -1.34976 2.62422 0
M  V30 3276 H 351.338 0.414962 2.52412 0
M  V30 3277 H 350.982 0.552219 5.04889 0
M  V30 3278 H 350.912 -1.22645 5.12119 0
M  V30 3279 H 353.403 -0.482612 3.74806 0
M  V30 3280 H 353.716 -0.363535 7.71944 0
M  V30 3281 H 352.061 -0.333879 6.94198 0
M  V30 3282 H 355.252 -0.514145 4.65268 0
M  V30 3283 H 355.425 -0.460073 6.46365 0
M  V30 3284 N 348.832 -1.54138 -0.328536 0
M  V30 3285 C 349.762 -1.86167 -1.40939 0
M  V30 3286 C 350.743 -0.718044 -1.54202 0
M  V30 3287 O 351.928 -0.971328 -1.68163 0
M  V30 3288 C 349.058 -2.08461 -2.77779 0
M  V30 3289 C 348.012 -3.24299 -2.7931 0
M  V30 3290 C 347.338 -3.31955 -4.19178 0
M  V30 3291 C 348.638 -4.62065 -2.43502 0
M  V30 3292 H 350.332 -2.76689 -1.14383 0
M  V30 3293 H 347.878 -1.33132 -0.548806 0
M  V30 3294 H 349.831 -2.29453 -3.53454 0
M  V30 3295 H 348.555 -1.14684 -3.05802 0
M  V30 3296 H 347.214 -3.03187 -2.0609 0
M  V30 3297 H 346.862 -2.35745 -4.44335 0
M  V30 3298 H 346.562 -4.09805 -4.2111 0
M  V30 3299 H 348.086 -3.55175 -4.96672 0
M  V30 3300 H 349.5 -4.8297 -3.08889 0
M  V30 3301 H 347.897 -5.42429 -2.56693 0
M  V30 3302 H 348.967 -4.64652 -1.38659 0
M  V30 3303 N 350.31 0.590341 -1.46126 0
M  V30 3304 C 351.258 1.72105 -1.5647 0
M  V30 3305 C 352.252 1.63756 -0.433612 0
M  V30 3306 O 353.458 1.69342 -0.610194 0
M  V30 3307 H 349.833 0.568889 -0.491802 0
M  V30 3308 H 351.804 1.6051 -2.51553 0
M  V30 3309 C 350.553 3.10493 -1.56491 0
M  V30 3310 H 349.876 3.17583 -2.4286 0
M  V30 3311 H 351.316 3.8939 -1.67785 0
M  V30 3312 C 349.775 3.3563 -0.292231 0
M  V30 3313 O 350.305 3.96875 0.620739 0
M  V30 3314 N 348.511 2.90026 -0.182523 0
M  V30 3315 H 348.058 2.40367 -0.926356 0
M  V30 3316 H 348.016 3.07218 0.668152 0
M  V30 3317 N 351.788 1.33704 0.83433 0
M  V30 3318 C 352.72 1.20172 1.9517 0
M  V30 3319 C 353.733 0.131572 1.62267 0
M  V30 3320 O 354.922 0.382406 1.74356 0
M  V30 3321 C 352.022 0.821716 3.28787 0
M  V30 3322 C 351.195 1.98446 3.89792 0
M  V30 3323 C 350.254 1.58469 5.01771 0
M  V30 3324 O 349.28 2.29968 5.20676 0
M  V30 3325 N 350.482 0.492291 5.78409 0
M  V30 3326 H 353.247 2.16429 2.07313 0
M  V30 3327 H 350.808 1.26509 1.0103 0
M  V30 3328 H 352.8 0.536291 4.01131 0
M  V30 3329 H 351.37 -0.0503058 3.1256 0
M  V30 3330 H 350.59 2.43526 3.09982 0
M  V30 3331 H 351.878 2.76236 4.27283 0
M  V30 3332 H 351.276 -0.102349 5.65607 0
M  V30 3333 H 349.833 0.266555 6.51255 0
M  V30 3334 N 353.266 -1.05314 1.17247 0
M  V30 3335 C 354.491 -1.82509 0.985148 0
M  V30 3336 C 354.916 -1.82343 -0.461788 0
M  V30 3337 O 354.274 -1.23151 -1.33055 0
M  V30 3338 C 354.322 -3.26566 1.52929 0
M  V30 3339 O 353.426 -4.05666 0.742225 0
M  V30 3340 H 352.767 -0.564347 0.349869 0
M  V30 3341 H 355.297 -1.32718 1.55715 0
M  V30 3342 H 355.307 -3.77369 1.55103 0
M  V30 3343 H 353.982 -3.26001 2.58256 0
M  V30 3344 H 352.559 -3.64397 0.791794 0
M  V30 3345 N 354.744 -0.972509 -1.24016 0
M  V30 3346 C 355.969 -0.654417 -1.96805 0
M  V30 3347 C 356.394 0.770398 -1.716 0
M  V30 3348 O 355.752 1.52361 -0.982647 0
M  V30 3349 C 355.8 -0.941031 -3.48105 0
M  V30 3350 O 354.904 -0.0289472 -4.1239 0
M  V30 3351 H 354.245 -0.24692 -0.616382 0
M  V30 3352 H 356.775 -1.30396 -1.57664 0
M  V30 3353 H 356.785 -0.87452 -3.98517 0
M  V30 3354 H 355.46 -1.97939 -3.65777 0
M  V30 3355 H 354.037 -0.149192 -3.72601 0
M  V30 3356 N 356.222 1.38976 -0.743202 0
M  V30 3357 C 357.152 2.33171 -0.123873 0
M  V30 3358 C 358.133 1.54336 0.71516 0
M  V30 3359 O 359.318 1.82696 0.658467 0
M  V30 3360 C 356.448 3.38474 0.777978 0
M  V30 3361 C 355.402 4.27979 0.0424758 0
M  V30 3362 C 354.728 5.2405 1.06189 0
M  V30 3363 C 356.028 5.10155 -1.1198 0
M  V30 3364 H 357.722 2.85213 -0.910709 0
M  V30 3365 H 355.268 1.37133 -0.439388 0
M  V30 3366 H 357.221 4.03328 1.22084 0
M  V30 3367 H 355.945 2.84891 1.59702 0
M  V30 3368 H 354.604 3.64616 -0.380853 0
M  V30 3369 H 354.252 4.66758 1.87472 0
M  V30 3370 H 353.952 5.84785 0.574485 0
M  V30 3371 H 355.476 5.9178 1.50428 0
M  V30 3372 H 356.89 5.68307 -0.75499 0
M  V30 3373 H 355.287 5.80073 -1.53738 0
M  V30 3374 H 356.357 4.44504 -1.93764 0
M  V30 3375 N 357.7 0.491464 1.49741 0
M  V30 3376 C 358.928 -0.0535151 2.06831 0
M  V30 3377 C 359.343 -1.31683 1.35296 0
M  V30 3378 O 358.7 -1.77402 0.42836 0
M  V30 3379 C 358.751 -0.320835 3.60073 0
M  V30 3380 O 358.472 0.892394 4.28915 0
M  V30 3381 C 359.973 -0.910519 4.33848 0
M  V30 3382 H 357.193 0.0161909 0.670805 0
M  V30 3383 H 359.737 0.68609 1.92647 0
M  V30 3384 H 357.892 -1.0104 3.73991 0
M  V30 3385 H 358.306 0.649401 5.20464 0
M  V30 3386 H 359.78 -1.04721 5.41976 0
M  V30 3387 H 360.257 -1.90589 3.95692 0
M  V30 3388 H 360.863 -0.258712 4.24512 0
M  V30 3389 N 359.178 -1.55987 0.224894 0
M  V30 3390 C 360.111 -2.16413 -0.723929 0
M  V30 3391 C 361.089 -1.10952 -1.18863 0
M  V30 3392 O 362.273 -1.39225 -1.27077 0
M  V30 3393 C 359.4 -2.74711 -1.98121 0
M  V30 3394 C 358.446 -3.9303 -1.6562 0
M  V30 3395 S 359.279 -5.29817 -0.778058 0
M  V30 3396 C 360.435 -5.91555 -2.04483 0
M  V30 3397 H 360.668 -2.96555 -0.210347 0
M  V30 3398 H 358.201 -1.54397 0.00955457 0
M  V30 3399 H 360.159 -3.08938 -2.70311 0
M  V30 3400 H 358.82 -1.94555 -2.46591 0
M  V30 3401 H 358.013 -4.32334 -2.59043 0
M  V30 3402 H 357.615 -3.59966 -1.01491 0
M  V30 3403 H 359.907 -6.07732 -2.99446 0
M  V30 3404 H 360.85 -6.87498 -1.69563 0
M  V30 3405 H 361.258 -5.20419 -2.18688 0
M  V30 3406 N 360.656 0.0484629 -1.57525 0
M  V30 3407 C 361.586 1.0549 -2.08313 0
M  V30 3408 C 362.567 1.38929 -0.981463 0
M  V30 3409 O 363.752 1.48151 -1.25558 0
M  V30 3410 C 360.882 2.36162 -2.54646 0
M  V30 3411 C 359.836 2.17016 -3.68901 0
M  V30 3412 C 359.162 3.53278 -4.01371 0
M  V30 3413 C 360.462 1.57219 -4.98076 0
M  V30 3414 H 362.156 0.632195 -2.92649 0
M  V30 3415 H 359.702 0.302654 -1.40784 0
M  V30 3416 H 361.655 3.06882 -2.88793 0
M  V30 3417 H 360.379 2.80456 -1.67368 0
M  V30 3418 H 359.038 1.48733 -3.35073 0
M  V30 3419 H 358.686 3.95185 -3.11188 0
M  V30 3420 H 358.386 3.41299 -4.78318 0
M  V30 3421 H 359.91 4.25391 -4.38035 0
M  V30 3422 H 361.324 2.17832 -5.30304 0
M  V30 3423 H 359.721 1.55871 -5.79503 0
M  V30 3424 H 360.791 0.535956 -4.81929 0
M  V30 3425 N 362.134 1.5431 0.320358 0
M  V30 3426 C 363.067 1.78769 1.41834 0
M  V30 3427 C 364.045 0.63783 1.49568 0
M  V30 3428 O 365.229 0.875628 1.66928 0
M  V30 3429 C 362.356 1.90712 2.79905 0
M  V30 3430 C 361.402 3.13023 2.89687 0
M  V30 3431 S 362.235 4.71554 2.53766 0
M  V30 3432 C 363.391 4.86408 3.93902 0
M  V30 3433 H 363.624 2.71619 1.20874 0
M  V30 3434 H 361.157 1.45474 0.517377 0
M  V30 3435 H 363.115 1.98279 3.59438 0
M  V30 3436 H 361.776 0.988343 2.98145 0
M  V30 3437 H 360.969 3.18124 3.90913 0
M  V30 3438 H 360.571 3.03803 2.18128 0
M  V30 3439 H 362.863 4.69241 4.88691 0
M  V30 3440 H 363.806 5.88508 3.93782 0
M  V30 3441 H 364.214 4.14689 3.83005 0
M  V30 3442 N 363.613 -0.582584 1.46437 0
M  V30 3443 C 364.576 -1.67366 1.56592 0
M  V30 3444 C 365.576 -1.54575 0.443072 0
M  V30 3445 O 366.766 -1.59191 0.707381 0
M  V30 3446 C 363.898 -3.06791 1.48634 0
M  V30 3447 H 365.091 -1.5972 2.5383 0
M  V30 3448 H 362.644 -0.800432 1.34249 0
M  V30 3449 H 363.379 -3.19993 0.526763 0
M  V30 3450 H 363.164 -3.17484 2.30101 0
M  V30 3451 H 364.654 -3.86218 1.58826 0
M  V30 3452 N 365.091 -1.34144 -0.827227 0
M  V30 3453 C 366.337 -1.26446 -1.58554 0
M  V30 3454 C 366.67 0.1664 -1.93486 0
M  V30 3455 O 365.945 1.1107 -1.59667 0
M  V30 3456 C 366.228 -2.15111 -2.8879 0
M  V30 3457 C 366.081 -3.66712 -2.60465 0
M  V30 3458 C 367.4 -2.03311 -3.90324 0
M  V30 3459 H 364.519 -0.46067 -0.575284 0
M  V30 3460 H 367.161 -1.64356 -0.953269 0
M  V30 3461 H 365.311 -1.8291 -3.42748 0
M  V30 3462 H 366.983 -4.09259 -2.1285 0
M  V30 3463 H 365.226 -3.88014 -1.93978 0
M  V30 3464 H 365.897 -4.24112 -3.53317 0
M  V30 3465 H 368.373 -2.31574 -3.45706 0
M  V30 3466 H 367.249 -2.67582 -4.79261 0
M  V30 3467 H 367.51 -1.00879 -4.30437 0
M  V30 3468 N 366.569 1.04691 -1.17803 0
M  V30 3469 C 367.499 2.14494 -0.92275 0
M  V30 3470 C 368.48 1.69546 0.137179 0
M  V30 3471 O 369.665 1.94195 -0.0141108 0
M  V30 3472 C 366.795 3.44491 -0.440803 0
M  V30 3473 C 365.749 4.03031 -1.4405 0
M  V30 3474 C 365.075 5.28432 -0.81631 0
M  V30 3475 C 366.375 4.39932 -2.81527 0
M  V30 3476 H 368.069 2.36107 -1.84103 0
M  V30 3477 H 365.615 1.1347 -0.886599 0
M  V30 3478 H 367.568 4.2066 -0.249602 0
M  V30 3479 H 366.292 3.22546 0.513025 0
M  V30 3480 H 364.951 3.28937 -1.61853 0
M  V30 3481 H 364.599 5.02792 0.144511 0
M  V30 3482 H 364.299 5.68559 -1.48371 0
M  V30 3483 H 365.823 6.07284 -0.635496 0
M  V30 3484 H 367.237 5.07113 -2.67412 0
M  V30 3485 H 365.634 4.9109 -3.44892 0
M  V30 3486 H 366.704 3.50045 -3.35554 0
M  V30 3487 N 368.047 0.979072 1.23499 0
M  V30 3488 C 369.293 0.648178 1.92163 0
M  V30 3489 C 369.626 -0.816049 1.76222 0
M  V30 3490 O 368.901 -1.58849 1.12237 0
M  V30 3491 C 369.184 1.03773 3.44824 0
M  V30 3492 C 369.037 2.55948 3.69879 0
M  V30 3493 C 370.356 0.580653 4.36253 0
M  V30 3494 H 367.475 0.236952 0.69787 0
M  V30 3495 H 370.117 1.22012 1.45647 0
M  V30 3496 H 368.267 0.551058 3.84572 0
M  V30 3497 H 369.939 3.12179 3.3962 0
M  V30 3498 H 368.182 2.98641 3.14636 0
M  V30 3499 H 368.853 2.78255 4.76737 0
M  V30 3500 H 371.329 0.998465 4.03943 0
M  V30 3501 H 370.205 0.881663 5.41773 0
M  V30 3502 H 370.466 -0.519052 4.39042 0
M  V30 3503 N 369.525 -1.3858 0.750561 0
M  V30 3504 C 370.455 -2.33102 0.136237 0
M  V30 3505 C 371.436 -1.54713 -0.706965 0
M  V30 3506 O 372.621 -1.83043 -0.648769 0
M  V30 3507 C 369.751 -3.38882 -0.760017 0
M  V30 3508 C 368.705 -4.27995 -0.0197785 0
M  V30 3509 C 368.031 -5.24605 -1.03408 0
M  V30 3510 C 369.331 -5.09554 1.14684 0
M  V30 3511 H 371.025 -2.84726 0.925822 0
M  V30 3512 H 368.571 -1.36898 0.446654 0
M  V30 3513 H 370.524 -4.0397 -1.19943 0
M  V30 3514 H 369.248 -2.85734 -1.58189 0
M  V30 3515 H 367.907 -3.64409 0.400184 0
M  V30 3516 H 367.555 -4.67746 -1.84994 0
M  V30 3517 H 367.255 -5.85081 -0.543464 0
M  V30 3518 H 368.779 -5.9257 -1.47288 0
M  V30 3519 H 370.193 -5.67899 0.785118 0
M  V30 3520 H 368.59 -5.7925 1.56812 0
M  V30 3521 H 369.66 -4.4347 1.96118 0
M  V30 3522 N 371.003 -0.499398 -1.49478 0
M  V30 3523 C 372.249 0.0457576 -2.02748 0
M  V30 3524 C 372.582 1.36793 -1.37846 0
M  V30 3525 O 371.857 1.87596 -0.513601 0
M  V30 3526 C 372.14 0.199986 -3.59544 0
M  V30 3527 C 371.993 -1.1452 -4.34977 0
M  V30 3528 C 373.312 0.94137 -4.29914 0
M  V30 3529 H 370.431 0.0151552 -0.736844 0
M  V30 3530 H 373.073 -0.650498 -1.78518 0
M  V30 3531 H 371.223 0.793007 -3.8032 0
M  V30 3532 H 372.895 -1.77697 -4.25701 0
M  V30 3533 H 371.138 -1.73488 -3.97598 0
M  V30 3534 H 371.809 -0.990607 -5.43039 0
M  V30 3535 H 374.285 0.43844 -4.13784 0
M  V30 3536 H 373.161 1.01812 -5.39375 0
M  V30 3537 H 373.422 1.98471 -3.95046 0
M  V30 3538 N 372.481 1.55866 -0.233164 0
M  V30 3539 C 373.721 2.00506 0.397078 0
M  V30 3540 C 374.085 1.1176 1.56121 0
M  V30 3541 O 375.286 1.45796 2.25825 0
M  V30 3542 C 373.557 3.4811 0.809601 0
M  V30 3543 S 375.116 4.14765 1.43231 0
M  V30 3544 H 371.934 0.699828 0.125547 0
M  V30 3545 H 374.536 1.92429 -0.345177 0
M  V30 3546 H 373.24 4.10373 -0.0471601 0
M  V30 3547 H 372.771 3.60085 1.58438 0
M  V30 3548 H 374.786 4.14914 2.7214 0
M  V30 3549 N 373.959 -0.0401083 1.57549 0
M  V30 3550 C 374.889 -1.04384 2.08869 0
M  V30 3551 C 375.87 -1.38407 0.988817 0
M  V30 3552 O 377.055 -1.47483 1.26342 0
M  V30 3553 C 374.185 -2.34808 2.55895 0
M  V30 3554 C 373.139 -2.15057 3.70047 0
M  V30 3555 C 372.465 -3.51145 4.03239 0
M  V30 3556 C 373.765 -1.54576 4.98902 0
M  V30 3557 H 375.459 -0.616666 2.92981 0
M  V30 3558 H 373.005 -0.295184 1.40942 0
M  V30 3559 H 374.958 -3.05346 2.90417 0
M  V30 3560 H 373.682 -2.79565 1.68853 0
M  V30 3561 H 372.341 -1.46954 3.35857 0
M  V30 3562 H 371.989 -3.93529 3.13279 0
M  V30 3563 H 371.689 -3.38758 4.80122 0
M  V30 3564 H 373.213 -4.23062 4.40285 0
M  V30 3565 H 374.627 -2.15017 5.31451 0
M  V30 3566 H 373.024 -1.52796 5.80322 0
M  V30 3567 H 374.094 -0.51039 4.82206 0
M  V30 3568 N 375.437 -1.54477 -0.31217 0
M  V30 3569 C 376.683 -1.73483 -1.0503 0
M  V30 3570 C 377.016 -0.513125 -1.87298 0
M  V30 3571 O 376.291 0.489864 -1.8823 0
M  V30 3572 C 376.574 -3.01723 -1.96558 0
M  V30 3573 C 376.427 -4.3417 -1.17545 0
M  V30 3574 C 377.746 -3.25772 -2.95907 0
M  V30 3575 H 374.865 -0.631222 -0.380432 0
M  V30 3576 H 377.507 -1.87184 -0.325932 0
M  V30 3577 H 375.657 -2.90174 -2.58324 0
M  V30 3578 H 377.329 -4.5762 -0.581513 0
M  V30 3579 H 375.572 -4.31159 -0.477925 0
M  V30 3580 H 376.243 -5.20143 -1.84811 0
M  V30 3581 H 378.719 -3.36857 -2.44267 0
M  V30 3582 H 377.595 -4.16838 -3.57123 0
M  V30 3583 H 377.856 -2.43537 -3.68974 0
M  V30 3584 N 376.915 0.57481 -1.46744 0
M  V30 3585 C 377.848 1.69827 -1.52427 0
M  V30 3586 C 378.826 1.58151 -0.377744 0
M  V30 3587 O 380.01 1.79257 -0.58303 0
M  V30 3588 C 377.137 3.07943 -1.41027 0
M  V30 3589 C 376.183 3.38116 -2.59961 0
M  V30 3590 S 377.016 3.29313 -4.22272 0
M  V30 3591 C 378.172 4.69953 -4.13394 0
M  V30 3592 H 378.405 1.64748 -2.47478 0
M  V30 3593 H 375.938 0.754203 -1.34726 0
M  V30 3594 H 377.896 3.87619 -1.35137 0
M  V30 3595 H 376.557 3.10504 -0.473909 0
M  V30 3596 H 375.75 4.38762 -2.47999 0
M  V30 3597 H 375.352 2.66024 -2.62882 0
M  V30 3598 H 377.644 5.60517 -3.80562 0
M  V30 3599 H 378.587 4.86972 -5.14066 0
M  V30 3600 H 378.995 4.47174 -3.44522 0
M  V30 3601 N 378.394 1.34581 0.820102 0
M  V30 3602 C 379.324 1.29038 1.94606 0
M  V30 3603 C 380.305 0.1673 1.69275 0
M  V30 3604 O 381.49 0.360112 1.90832 0
M  V30 3605 C 378.62 1.04793 3.31113 0
M  V30 3606 C 377.574 2.13597 3.70891 0
M  V30 3607 C 376.9 1.74537 5.05412 0
M  V30 3608 C 378.2 3.55451 3.8269 0
M  V30 3609 H 379.894 2.23248 1.99501 0
M  V30 3610 H 377.44 1.0747 0.958449 0
M  V30 3611 H 379.393 0.995592 4.0947 0
M  V30 3612 H 378.117 0.0702565 3.26524 0
M  V30 3613 H 376.776 2.17905 2.9481 0
M  V30 3614 H 376.424 0.754226 4.97313 0
M  V30 3615 H 376.124 2.47361 5.32997 0
M  V30 3616 H 377.648 1.70803 5.86224 0
M  V30 3617 H 379.062 3.5354 4.51312 0
M  V30 3618 H 377.459 4.26922 4.21732 0
M  V30 3619 H 378.529 3.92587 2.84611 0
M  V30 3620 N 379.872 -1.04064 1.18357 0
M  V30 3621 C 380.835 -2.10243 0.912707 0
M  V30 3622 C 381.835 -1.60477 -0.101928 0
M  V30 3623 O 383.025 -1.73703 0.131517 0
M  V30 3624 C 380.157 -3.38893 0.369387 0
M  V30 3625 H 381.35 -2.35706 1.85426 0
M  V30 3626 H 378.903 -1.20489 0.995594 0
M  V30 3627 H 379.638 -3.19094 -0.578776 0
M  V30 3628 H 379.423 -3.76331 1.1008 0
M  V30 3629 H 380.913 -4.17128 0.198575 0
M  V30 3630 N 381.35 -0.985608 -1.22978 0
M  V30 3631 C 382.597 -0.657386 -1.91532 0
M  V30 3632 C 382.925 0.809707 -1.76845 0
M  V30 3633 O 382.18 1.60021 -1.12658 0
M  V30 3634 C 382.479 -1.00014 -3.43121 0
M  V30 3635 C 382.145 -2.4583 -3.77993 0
M  V30 3636 C 380.807 -2.85679 -3.87222 0
M  V30 3637 C 383.159 -3.40378 -3.94705 0
M  V30 3638 C 380.487 -4.19081 -4.10595 0
M  V30 3639 C 382.839 -4.73429 -4.1958 0
M  V30 3640 C 381.503 -5.1303 -4.27032 0
M  V30 3641 H 380.773 -0.240555 -0.700867 0
M  V30 3642 H 383.42 -1.24044 -1.45895 0
M  V30 3643 H 381.725 -0.335072 -3.90365 0
M  V30 3644 H 383.422 -0.724322 -3.94404 0
M  V30 3645 H 380.012 -2.13939 -3.71387 0
M  V30 3646 H 384.196 -3.10766 -3.8696 0
M  V30 3647 H 379.452 -4.49362 -4.14589 0
M  V30 3648 H 383.626 -5.46644 -4.31455 0
M  V30 3649 H 381.253 -6.16418 -4.44896 0
M  V30 3650 N 382.828 1.3818 -0.7579 0
M  V30 3651 C 383.778 2.27741 -0.108674 0
M  V30 3652 C 384.762 1.45415 0.688709 0
M  V30 3653 O 385.954 1.68108 0.553956 0
M  V30 3654 C 383.083 3.34313 0.780367 0
M  V30 3655 C 382.169 4.24093 -0.0240977 0
M  V30 3656 N 382.56 4.9451 -1.06271 0
M  V30 3657 C 380.858 4.45542 0.202049 0
M  V30 3658 C 381.559 5.60675 -1.54979 0
M  V30 3659 N 380.535 5.36684 -0.864348 0
M  V30 3660 H 384.337 2.79649 -0.904071 0
M  V30 3661 H 381.851 1.51133 -0.594346 0
M  V30 3662 H 383.848 3.97368 1.26114 0
M  V30 3663 H 382.508 2.83962 1.57467 0
M  V30 3664 H 383.519 4.97345 -1.44459 0
M  V30 3665 H 380.196 4.06091 0.96935 0
M  V30 3666 H 381.586 6.26992 -2.41517 0
M  V30 3667 N 384.306 0.507319 1.49211 0
M  V30 3668 C 385.269 -0.256763 2.27757 0
M  V30 3669 C 386.269 -0.888287 1.34038 0
M  V30 3670 O 387.459 -0.751841 1.5714 0
M  V30 3671 C 384.591 -1.36905 3.12202 0
M  V30 3672 H 385.784 0.432557 2.96764 0
M  V30 3673 H 383.337 0.262488 1.5408 0
M  V30 3674 H 384.072 -2.09233 2.47775 0
M  V30 3675 H 383.857 -0.921599 3.81115 0
M  V30 3676 H 385.347 -1.9071 3.7151 0
M  V30 3677 N 385.784 -1.5574 0.241426 0
M  V30 3678 C 386.747 -2.19877 -0.647063 0
M  V30 3679 C 387.747 -1.16642 -1.10686 0
M  V30 3680 O 388.937 -1.41757 -1.01245 0
M  V30 3681 C 386.069 -2.83797 -1.88871 0
M  V30 3682 H 387.262 -2.99772 -0.087574 0
M  V30 3683 H 384.815 -1.56298 -0.00813574 0
M  V30 3684 H 385.55 -2.07824 -2.48957 0
M  V30 3685 H 385.335 -3.59414 -1.56728 0
M  V30 3686 H 386.825 -3.32898 -2.52129 0
M  V30 3687 N 387.262 0.0317525 -1.57568 0
M  V30 3688 C 388.678 0.38735 -1.54828 0
M  V30 3689 C 388.878 1.7677 -0.967187 0
M  V30 3690 O 387.934 2.45581 -0.587063 0
M  V30 3691 C 389.247 0.291667 -2.99282 0
M  V30 3692 C 390.795 0.368946 -3.10818 0
M  V30 3693 C 391.27 0.302741 -4.56998 0
M  V30 3694 N 392.761 0.361617 -4.61786 0
M  V30 3695 C 393.496 0.333238 -5.72431 0
M  V30 3696 N 392.992 0.257308 -6.92322 0
M  V30 3697 N 394.785 0.382769 -5.60795 0
M  V30 3698 H 386.936 -0.871609 -1.93692 0
M  V30 3699 H 389.199 -0.331161 -0.888277 0
M  V30 3700 H 388.905 -0.656794 -3.45513 0
M  V30 3701 H 388.779 1.08638 -3.61217 0
M  V30 3702 H 391.166 1.30784 -2.64536 0
M  V30 3703 H 391.247 -0.455066 -2.5172 0
M  V30 3704 H 390.891 -0.632473 -5.03947 0
M  V30 3705 H 390.821 1.14482 -5.14005 0
M  V30 3706 H 393.312 0.422923 -3.75526 0
M  V30 3707 H 393.625 0.24068 -7.72425 0
M  V30 3708 H 391.97 0.223396 -6.94641 0
M  V30 3709 H 395.161 0.44006 -4.66027 0
M  V30 3710 H 395.334 0.357184 -6.47015 0
M  V30 3711 N 388.74 1.54641 0.303973 0
M  V30 3712 C 390.151 1.64811 0.877163 0
M  V30 3713 C 390.502 0.554838 1.88191 0
M  V30 3714 O 389.627 -0.309033 2.14182 0
M  V30 3715 C 390.222 2.9876 1.59775 0
M  V30 3716 C 388.781 3.11061 2.11938 0
M  V30 3717 C 387.928 2.60479 0.951097 0
M  V30 3718 H 390.879 1.58493 0.0810486 0
M  V30 3719 H 390.9 2.90017 2.46314 0
M  V30 3720 H 390.412 3.7831 0.866226 0
M  V30 3721 H 388.513 2.36225 2.88146 0
M  V30 3722 H 388.626 4.17171 2.35595 0
M  V30 3723 H 386.99 2.16859 1.33583 0
M  V30 3724 H 387.773 3.42504 0.233581 0
M  V30 3725 N 390.218 -0.567019 1.47046 0
M  V30 3726 C 391.629 -1.14916 1.47143 0
M  V30 3727 C 391.98 -1.94954 0.220767 0
M  V30 3728 O 391.105 -2.05602 -0.67505 0
M  V30 3729 C 391.7 -2.09069 2.666 0
M  V30 3730 C 390.259 -2.62575 2.69687 0
M  V30 3731 C 389.406 -1.38755 2.40088 0
M  V30 3732 H 392.357 -0.354126 1.54699 0
M  V30 3733 H 392.378 -2.92789 2.43011 0
M  V30 3734 H 391.89 -1.50789 3.57609 0
M  V30 3735 H 389.991 -3.24681 1.82792 0
M  V30 3736 H 390.104 -3.04239 3.70102 0
M  V30 3737 H 388.468 -1.69098 1.90468 0
M  V30 3738 H 389.251 -0.822822 3.33293 0
M  V30 3739 N 391.696 -1.35014 -0.812953 0
M  V30 3740 C 392.626 -1.30069 -1.93919 0
M  V30 3741 C 393.607 -0.176275 -1.69184 0
M  V30 3742 O 394.792 -0.370227 -1.90638 0
M  V30 3743 C 391.922 -1.06547 -3.30552 0
M  V30 3744 C 390.876 -2.15561 -3.69753 0
M  V30 3745 C 390.202 -1.77214 -5.04479 0
M  V30 3746 C 391.502 -3.57476 -3.808 0
M  V30 3747 H 393.196 -2.24303 -1.98314 0
M  V30 3748 H 390.742 -1.07977 -0.952736 0
M  V30 3749 H 392.695 -1.01729 -4.08937 0
M  V30 3750 H 391.419 -0.0875719 -3.26483 0
M  V30 3751 H 390.078 -2.19466 -2.9365 0
M  V30 3752 H 389.726 -0.780589 -4.96906 0
M  V30 3753 H 389.426 -2.50184 -5.31678 0
M  V30 3754 H 390.95 -1.7391 -5.8531 0
M  V30 3755 H 392.364 -3.55929 -4.4943 0
M  V30 3756 H 390.761 -4.29152 -4.19462 0
M  V30 3757 H 391.831 -3.94091 -2.82525 0
M  V30 3758 N 393.175 1.03435 -1.18907 0
M  V30 3759 C 394.107 2.1165 -0.879595 0
M  V30 3760 C 395.12 1.62316 0.125439 0
M  V30 3761 O 396.309 1.78201 -0.103245 0
M  V30 3762 C 393.409 3.37622 -0.294042 0
M  V30 3763 C 392.582 4.16166 -1.34629 0
M  V30 3764 C 391.641 5.20457 -0.775274 0
M  V30 3765 O 390.667 5.50379 -1.4516 0
M  V30 3766 N 391.869 5.78949 0.424126 0
M  V30 3767 H 394.634 2.38791 -1.81105 0
M  V30 3768 H 392.195 1.19681 -1.09032 0
M  V30 3769 H 394.187 4.04572 0.101679 0
M  V30 3770 H 392.757 3.07873 0.541575 0
M  V30 3771 H 391.977 3.44444 -1.91707 0
M  V30 3772 H 393.265 4.65432 -2.05549 0
M  V30 3773 H 392.663 5.56948 0.991209 0
M  V30 3774 H 391.22 6.47334 0.761691 0
M  V30 3775 N 394.653 0.992116 1.22453 0
M  V30 3776 C 395.583 0.561677 2.26644 0
M  V30 3777 C 396.564 -0.411055 1.65059 0
M  V30 3778 O 397.749 -0.301861 1.9184 0
M  V30 3779 C 394.879 -0.125247 3.47074 0
M  V30 3780 C 393.833 0.765948 4.21091 0
M  V30 3781 C 393.159 -0.0538484 5.34673 0
M  V30 3782 C 394.459 2.06242 4.79856 0
M  V30 3783 H 396.153 1.43259 2.62902 0
M  V30 3784 H 393.699 0.690283 1.26377 0
M  V30 3785 H 395.652 -0.437764 4.1912 0
M  V30 3786 H 394.376 -1.03069 3.0991 0
M  V30 3787 H 393.035 1.0621 3.50878 0
M  V30 3788 H 392.683 -0.960188 4.9375 0
M  V30 3789 H 392.383 0.539415 5.85119 0
M  V30 3790 H 393.907 -0.360477 6.09535 0
M  V30 3791 H 395.321 1.8139 5.43848 0
M  V30 3792 H 393.718 2.60444 5.40638 0
M  V30 3793 H 394.788 2.74167 3.99951 0
M  V30 3794 N 396.131 -1.37776 0.765217 0
M  V30 3795 C 397.542 -1.82521 0.392819 0
M  V30 3796 C 397.893 -1.63789 -1.08017 0
M  V30 3797 O 397.018 -1.14542 -1.83601 0
M  V30 3798 C 397.613 -3.31358 0.706214 0
M  V30 3799 C 396.172 -3.74406 0.386952 0
M  V30 3800 C 395.319 -2.60394 0.953422 0
M  V30 3801 H 398.27 -1.2634 0.960412 0
M  V30 3802 H 398.291 -3.80498 -0.0114706 0
M  V30 3803 H 397.803 -3.44959 1.77833 0
M  V30 3804 H 395.904 -3.66377 -0.678112 0
M  V30 3805 H 396.017 -4.70749 0.890636 0
M  V30 3806 H 394.381 -2.51878 0.378064 0
M  V30 3807 H 395.164 -2.76791 2.03081 0
M  V30 3808 N 397.609 -0.515225 -1.4894 0
M  V30 3809 C 398.839 0.0205735 -2.0659 0
M  V30 3810 C 399.247 1.30064 -1.37405 0
M  V30 3811 O 398.59 1.78087 -0.450632 0
M  V30 3812 C 398.652 0.330124 -3.57981 0
M  V30 3813 C 398.316 -0.854295 -4.48944 0
M  V30 3814 C 399.313 -1.7487 -4.89609 0
M  V30 3815 C 396.998 -1.05712 -4.9105 0
M  V30 3816 C 398.992 -2.82996 -5.71132 0
M  V30 3817 C 396.679 -2.14154 -5.72347 0
M  V30 3818 C 397.677 -3.0263 -6.12294 0
M  V30 3819 O 397.365 -4.09198 -6.91962 0
M  V30 3820 H 397.097 -0.0236833 -0.675585 0
M  V30 3821 H 399.651 -0.715956 -1.92518 0
M  V30 3822 H 397.881 1.12044 -3.70112 0
M  V30 3823 H 399.57 0.806233 -3.97812 0
M  V30 3824 H 400.336 -1.60388 -4.57712 0
M  V30 3825 H 396.215 -0.377788 -4.59449 0
M  V30 3826 H 399.759 -3.52083 -6.02232 0
M  V30 3827 H 395.656 -2.28626 -6.03656 0
M  V30 3828 H 396.424 -4.06726 -7.10293 0
M  V30 3829 N 399.087 1.5561 -0.249682 0
M  V30 3830 C 400.017 2.24477 0.642826 0
M  V30 3831 C 400.998 1.22601 1.17911 0
M  V30 3832 O 402.183 1.5126 1.21795 0
M  V30 3833 C 399.313 2.94638 1.83863 0
M  V30 3834 C 398.267 4.03227 1.435 0
M  V30 3835 C 397.593 4.60828 2.71186 0
M  V30 3836 C 398.893 5.18796 0.604002 0
M  V30 3837 H 400.587 2.99321 0.0685625 0
M  V30 3838 H 398.133 1.43965 0.0315363 0
M  V30 3839 H 400.086 3.41517 2.46868 0
M  V30 3840 H 398.81 2.17287 2.43832 0
M  V30 3841 H 397.469 3.57121 0.828275 0
M  V30 3842 H 397.117 3.80174 3.29358 0
M  V30 3843 H 396.817 5.34132 2.44901 0
M  V30 3844 H 398.341 5.10442 3.35084 0
M  V30 3845 H 399.755 5.61883 1.13842 0
M  V30 3846 H 398.152 5.98506 0.437097 0
M  V30 3847 H 399.222 4.83384 -0.383147 0
M  V30 3848 N 400.565 -0.0233959 1.57583 0
M  V30 3849 C 401.528 -1.00693 2.05897 0
M  V30 3850 C 402.528 -1.28693 0.964092 0
M  V30 3851 O 403.718 -1.23602 1.22753 0
M  V30 3852 C 400.85 -2.33825 2.4807 0
M  V30 3853 H 402.043 -0.589476 2.9405 0
M  V30 3854 H 399.596 -0.270354 1.53944 0
M  V30 3855 H 400.331 -2.80307 1.6309 0
M  V30 3856 H 400.116 -2.1483 3.2801 0
M  V30 3857 H 401.606 -3.04426 2.85857 0
M  V30 3858 N 402.043 -1.548 -0.295768 0
M  V30 3859 C 403.289 -1.74588 -1.03184 0
M  V30 3860 C 403.622 -0.532962 -1.86744 0
M  V30 3861 O 402.897 0.469872 -1.88739 0
M  V30 3862 C 403.18 -3.03791 -1.93347 0
M  V30 3863 C 403.033 -4.35392 -1.12933 0
M  V30 3864 C 404.352 -3.28892 -2.92435 0
M  V30 3865 H 401.471 -0.635221 -0.373715 0
M  V30 3866 H 404.113 -1.87519 -0.30606 0
M  V30 3867 H 402.263 -2.92898 -2.55232 0
M  V30 3868 H 403.935 -4.58211 -0.532943 0
M  V30 3869 H 402.178 -4.31642 -0.432168 0
M  V30 3870 H 402.849 -5.22074 -1.79284 0
M  V30 3871 H 405.325 -3.39429 -2.4068 0
M  V30 3872 H 404.201 -4.20603 -3.52682 0
M  V30 3873 H 404.462 -2.47437 -3.6637 0
M  V30 3874 N 403.521 0.559213 -1.47345 0
M  V30 3875 C 404.451 1.67622 -1.62558 0
M  V30 3876 C 405.432 1.63331 -0.475087 0
M  V30 3877 O 406.617 1.80983 -0.704182 0
M  V30 3878 C 403.747 3.0626 -1.63774 0
M  V30 3879 C 402.701 3.25397 -2.7803 0
M  V30 3880 C 402.027 4.64801 -2.64318 0
M  V30 3881 C 403.327 3.10965 -4.19641 0
M  V30 3882 H 405.021 1.55146 -2.56067 0
M  V30 3883 H 402.567 0.744961 -1.23233 0
M  V30 3884 H 404.52 3.84247 -1.73008 0
M  V30 3885 H 403.244 3.1969 -0.66825 0
M  V30 3886 H 401.903 2.49817 -2.68304 0
M  V30 3887 H 401.551 4.75028 -1.65401 0
M  V30 3888 H 401.251 4.78555 -3.40968 0
M  V30 3889 H 402.775 5.44926 -2.75478 0
M  V30 3890 H 404.189 3.78772 -4.30354 0
M  V30 3891 H 402.586 3.36229 -4.97062 0
M  V30 3892 H 403.656 2.07736 -4.38148 0
M  V30 3893 N 404.999 1.35443 0.805782 0
M  V30 3894 C 405.962 1.28301 1.89925 0
M  V30 3895 C 406.962 0.194285 1.59622 0
M  V30 3896 O 408.152 0.448036 1.6834 0
M  V30 3897 C 405.284 0.984997 3.2636 0
M  V30 3898 H 406.477 2.2553 1.97677 0
M  V30 3899 H 404.03 1.19979 1.00173 0
M  V30 3900 H 404.765 0.016603 3.24296 0
M  V30 3901 H 404.55 1.77269 3.4974 0
M  V30 3902 H 406.04 0.960651 4.064 0
M  V30 3903 N 406.477 -1.02803 1.19454 0
M  V30 3904 C 407.44 -2.09264 0.934955 0
M  V30 3905 C 408.44 -1.60576 -0.0849015 0
M  V30 3906 O 409.63 -1.73554 0.149933 0
M  V30 3907 C 406.762 -3.38482 0.40531 0
M  V30 3908 H 407.955 -2.33726 1.87916 0
M  V30 3909 H 405.508 -1.19426 1.00832 0
M  V30 3910 H 406.243 -3.19689 -0.544899 0
M  V30 3911 H 406.028 -3.75142 1.14065 0
M  V30 3912 H 407.518 -4.16894 0.242806 0
M  V30 3913 N 407.956 -0.998596 -1.21925 0
M  V30 3914 C 408.919 -0.558679 -2.22287 0
M  V30 3915 C 409.919 0.361525 -1.56683 0
M  V30 3916 O 411.109 0.152695 -1.73529 0
M  V30 3917 C 408.241 0.18661 -3.40389 0
M  V30 3918 H 409.434 -1.4463 -2.62721 0
M  V30 3919 H 406.987 -0.786413 -1.35075 0
M  V30 3920 H 407.722 1.08996 -3.05435 0
M  V30 3921 H 407.507 -0.474188 -3.89222 0
M  V30 3922 H 408.997 0.482367 -4.14805 0
M  V30 3923 N 409.434 1.37368 -0.772513 0
M  V30 3924 C 410.68 1.99969 -0.337681 0
M  V30 3925 C 411.013 1.61184 1.08321 0
M  V30 3926 O 410.288 0.858395 1.74533 0
M  V30 3927 C 410.571 3.56858 -0.482121 0
M  V30 3928 C 410.424 4.0555 -1.94549 0
M  V30 3929 C 411.743 4.39955 0.113143 0
M  V30 3930 H 408.862 0.726464 -0.124171 0
M  V30 3931 H 411.504 1.63034 -0.975699 0
M  V30 3932 H 409.654 3.88452 0.0610361 0
M  V30 3933 H 411.326 3.84518 -2.54841 0
M  V30 3934 H 409.569 3.57715 -2.45403 0
M  V30 3935 H 410.24 5.14587 -1.9976 0
M  V30 3936 H 412.716 4.14623 -0.35031 0
M  V30 3937 H 411.592 5.48897 -0.0180514 0
M  V30 3938 H 411.853 4.25403 1.20354 0
M  V30 3939 N 410.912 0.523116 1.48665 0
M  V30 3940 C 412.16 -0.0134497 2.02096 0
M  V30 3941 C 412.481 -1.35418 1.40311 0
M  V30 3942 O 411.751 -1.87543 0.566074 0
M  V30 3943 H 410.331 -0.00795915 0.746958 0
M  V30 3944 H 412.993 0.685388 1.82451 0
M  V30 3945 H 412.089 -0.126849 3.11842 0
M  V30 3946 N 412.39 -1.55475 0.257931 0
M  V30 3947 C 413.636 -1.99502 -0.364266 0
M  V30 3948 C 413.969 -1.146 -1.56782 0
M  V30 3949 O 413.244 -0.211968 -1.93342 0
M  V30 3950 C 413.527 -3.51917 -0.763333 0
M  V30 3951 C 413.38 -4.4758 0.446371 0
M  V30 3952 C 414.699 -4.09742 -1.60623 0
M  V30 3953 H 411.818 -0.725277 -0.130929 0
M  V30 3954 H 414.46 -1.8653 0.361446 0
M  V30 3955 H 412.61 -3.63101 -1.38166 0
M  V30 3956 H 414.282 -4.48362 1.08487 0
M  V30 3957 H 412.525 -4.19947 1.08753 0
M  V30 3958 H 413.196 -5.51862 0.123645 0
M  V30 3959 H 415.672 -4.01727 -1.08418 0
M  V30 3960 H 414.548 -5.16631 -1.85429 0
M  V30 3961 H 414.809 -3.58889 -2.58169 0
M  V30 3962 N 413.868 0.0150385 -1.57593 0
M  V30 3963 C 415.117 0.702115 -1.89085 0
M  V30 3964 C 415.43 1.75764 -0.858277 0
M  V30 3965 O 416.636 2.49829 -1.0629 0
M  V30 3966 C 415.092 1.29992 -3.35604 0
M  V30 3967 C 414.7 0.280007 -4.47124 0
M  V30 3968 C 416.444 1.96606 -3.76227 0
M  V30 3969 C 414.351 0.886949 -5.84711 0
M  V30 3970 H 413.281 0.265997 -0.705522 0
M  V30 3971 H 415.932 -0.0430408 -1.8345 0
M  V30 3972 H 414.314 2.09525 -3.36029 0
M  V30 3973 H 415.488 -0.489631 -4.58191 0
M  V30 3974 H 413.803 -0.284835 -4.15425 0
M  V30 3975 H 416.4 2.42893 -4.76347 0
M  V30 3976 H 416.743 2.79024 -3.08952 0
M  V30 3977 H 417.276 1.23828 -3.78036 0
M  V30 3978 H 414.015 0.101876 -6.55421 0
M  V30 3979 H 413.535 1.6261 -5.77337 0
M  V30 3980 H 415.214 1.39011 -6.3189 0
M  V30 3981 N 415.346 1.54954 0.287554 0
M  V30 3982 C 416.276 1.89839 1.35954 0
M  V30 3983 C 417.257 0.758675 1.52244 0
M  V30 3984 O 418.442 1.01557 1.65529 0
M  V30 3985 C 415.572 2.15753 2.72154 0
M  V30 3986 C 414.526 3.3159 2.70614 0
M  V30 3987 C 413.852 3.42952 4.10229 0
M  V30 3988 C 415.152 4.68359 2.31165 0
M  V30 3989 H 416.846 2.79625 1.07007 0
M  V30 3990 H 414.392 1.3454 0.513316 0
M  V30 3991 H 416.345 2.38743 3.47246 0
M  V30 3992 H 415.069 1.22752 3.02654 0
M  V30 3993 H 413.728 3.08545 1.97979 0
M  V30 3994 H 413.376 2.47443 4.37928 0
M  V30 3995 H 413.076 4.20826 4.10097 0
M  V30 3996 H 414.6 3.68218 4.87081 0
M  V30 3997 H 416.014 4.9099 2.95976 0
M  V30 3998 H 414.411 5.49044 2.42221 0
M  V30 3999 H 415.481 4.68165 1.26291 0
M  V30 4000 N 416.824 -0.551391 1.4764 0
M  V30 4001 C 418.073 -1.30467 1.53822 0
M  V30 4002 C 418.386 -1.94495 0.207661 0
M  V30 4003 O 419.592 -2.71099 0.147533 0
M  V30 4004 C 418.048 -2.36616 2.71184 0
M  V30 4005 C 417.656 -1.78754 4.10793 0
M  V30 4006 C 419.4 -3.13088 2.86663 0
M  V30 4007 C 417.307 -2.82717 5.19447 0
M  V30 4008 H 416.237 -0.490584 0.572576 0
M  V30 4009 H 418.888 -0.58494 1.73927 0
M  V30 4010 H 417.27 -3.11529 2.4447 0
M  V30 4011 H 418.444 -1.10173 4.47435 0
M  V30 4012 H 416.759 -1.14846 4.00249 0
M  V30 4013 H 419.356 -3.90736 3.65007 0
M  V30 4014 H 419.699 -3.67635 1.95321 0
M  V30 4015 H 420.232 -2.45288 3.13175 0
M  V30 4016 H 416.971 -2.33018 6.12685 0
M  V30 4017 H 416.491 -3.4969 4.87316 0
M  V30 4018 H 418.17 -3.46102 5.46646 0
M  V30 4019 N 418.302 -1.35869 -0.798587 0
M  V30 4020 C 419.235 -1.23801 -1.91699 0
M  V30 4021 C 420.213 -0.124143 -1.62125 0
M  V30 4022 O 421.397 -0.293656 -1.86199 0
M  V30 4023 C 418.524 -0.908063 -3.263 0
M  V30 4024 C 417.57 -2.0351 -3.74815 0
M  V30 4025 S 418.403 -3.65183 -3.91665 0
M  V30 4026 C 419.559 -3.34283 -5.29156 0
M  V30 4027 H 419.792 -2.18466 -2.01643 0
M  V30 4028 H 417.325 -1.21178 -0.956833 0
M  V30 4029 H 419.283 -0.724506 -4.04056 0
M  V30 4030 H 417.944 0.0206584 -3.14093 0
M  V30 4031 H 417.137 -1.75858 -4.72324 0
M  V30 4032 H 416.739 -2.1774 -3.04081 0
M  V30 4033 H 419.031 -2.87607 -6.13424 0
M  V30 4034 H 419.974 -4.31022 -5.61806 0
M  V30 4035 H 420.382 -2.69854 -4.95822 0
M  V30 4036 N 419.78 1.02168 -1.19998 0
M  V30 4037 C 420.743 2.08765 -0.94604 0
M  V30 4038 C 421.743 1.60618 0.0763846 0
M  V30 4039 O 422.933 1.73472 -0.159135 0
M  V30 4040 C 420.065 3.38262 -0.423255 0
M  V30 4041 H 421.258 2.32726 -1.89153 0
M  V30 4042 H 418.811 1.1889 -1.01464 0
M  V30 4043 H 419.546 3.19974 0.527938 0
M  V30 4044 H 419.331 3.74532 -1.16053 0
M  V30 4045 H 420.821 4.16759 -0.264911 0
M  V30 4046 N 421.258 1.00505 1.21394 0
M  V30 4047 C 422.504 0.688793 1.90745 0
M  V30 4048 C 422.837 -0.778486 1.77914 0
M  V30 4049 O 422.112 -1.56433 1.15581 0
M  V30 4050 C 422.395 1.11063 3.42545 0
M  V30 4051 C 422.248 2.63737 3.64367 0
M  V30 4052 C 423.567 0.673059 4.34923 0
M  V30 4053 H 420.686 0.251702 0.692687 0
M  V30 4054 H 423.328 1.25074 1.43026 0
M  V30 4055 H 421.478 0.632508 3.83317 0
M  V30 4056 H 423.15 3.19313 3.32922 0
M  V30 4057 H 421.393 3.05248 3.08231 0
M  V30 4058 H 422.064 2.88305 4.70727 0
M  V30 4059 H 424.54 1.08392 4.01734 0
M  V30 4060 H 423.416 0.996383 5.39781 0
M  V30 4061 H 423.677 -0.425808 4.40045 0
M  V30 4062 N 422.737 -1.36956 0.779787 0
M  V30 4063 C 423.667 -2.32761 0.185651 0
M  V30 4064 C 424.648 -1.56177 -0.673989 0
M  V30 4065 O 425.833 -1.84378 -0.609797 0
M  V30 4066 C 422.963 -3.40418 -0.687964 0
M  V30 4067 C 421.917 -4.27941 0.0710102 0
M  V30 4068 C 421.243 -5.26681 -0.922573 0
M  V30 4069 C 422.543 -5.07006 1.25467 0
M  V30 4070 H 424.237 -2.82698 0.986008 0
M  V30 4071 H 421.783 -1.3592 0.475592 0
M  V30 4072 H 423.736 -4.06423 -1.11348 0
M  V30 4073 H 422.46 -2.89025 -1.52093 0
M  V30 4074 H 421.119 -3.63478 0.47739 0
M  V30 4075 H 420.767 -4.71565 -1.7503 0
M  V30 4076 H 420.467 -5.86103 -0.419237 0
M  V30 4077 H 421.991 -5.9556 -1.34686 0
M  V30 4078 H 423.405 -5.66105 0.905401 0
M  V30 4079 H 421.802 -5.75793 1.69063 0
M  V30 4080 H 422.872 -4.3921 2.05481 0
M  V30 4081 N 424.215 -0.530993 -1.48385 0
M  V30 4082 C 425.455 0.000718982 -2.044 0
M  V30 4083 C 425.819 1.31485 -1.39913 0
M  V30 4084 O 427.02 1.93265 -1.86821 0
M  V30 4085 C 425.291 0.119177 -3.57201 0
M  V30 4086 S 426.85 0.600806 -4.34667 0
M  V30 4087 H 423.668 -0.0125473 -0.710889 0
M  V30 4088 H 426.27 -0.711783 -1.82082 0
M  V30 4089 H 424.974 -0.842061 -4.01668 0
M  V30 4090 H 424.505 0.856026 -3.83974 0
M  V30 4091 H 426.52 1.86514 -4.59812 0
M  V30 4092 N 425.693 1.55336 -0.266172 0
M  V30 4093 C 426.641 2.23587 0.641228 0
M  V30 4094 C 427.635 1.22986 1.16494 0
M  V30 4095 O 428.841 1.40943 1.1196 0
M  V30 4096 H 425.216 0.717452 0.225315 0
M  V30 4097 H 427.187 2.9837 0.0426561 0
M  V30 4098 C 425.936 2.96369 1.81826 0
M  V30 4099 H 425.259 3.73563 1.42445 0
M  V30 4100 H 426.699 3.47459 2.42998 0
M  V30 4101 C 425.158 2.0133 2.70125 0
M  V30 4102 O 425.688 1.55875 3.70224 0
M  V30 4103 N 423.894 1.6802 2.37102 0
M  V30 4104 H 423.441 2.05181 1.55751 0
M  V30 4105 H 423.399 1.047 2.96454 0
M  V30 4106 N 427.171 -0.0066808 1.57599 0
M  V30 4107 C 428.587 -0.36267 1.55425 0
M  V30 4108 C 428.787 -1.75209 0.995187 0
M  V30 4109 O 427.843 -2.44616 0.626058 0
M  V30 4110 C 429.156 -0.244017 2.99708 0
M  V30 4111 C 430.704 -0.319451 3.11366 0
M  V30 4112 C 431.179 -0.229998 4.57422 0
M  V30 4113 N 432.67 -0.288105 4.62303 0
M  V30 4114 C 433.405 -0.242127 5.72889 0
M  V30 4115 N 432.901 -0.147133 6.92644 0
M  V30 4116 N 434.694 -0.293502 5.61333 0
M  V30 4117 H 426.845 0.902314 1.92281 0
M  V30 4118 H 429.108 0.34525 0.882896 0
M  V30 4119 H 428.814 0.711678 3.44424 0
M  V30 4120 H 428.688 -1.02877 3.629 0
M  V30 4121 H 431.075 -1.26559 2.66584 0
M  V30 4122 H 431.156 0.495055 2.50964 0
M  V30 4123 H 430.8 0.712566 5.02877 0
M  V30 4124 H 430.73 -1.0629 5.15761 0
M  V30 4125 H 433.221 -0.363126 3.76151 0
M  V30 4126 H 433.534 -0.117763 7.7271 0
M  V30 4127 H 431.879 -0.112857 6.94908 0
M  V30 4128 H 435.07 -0.365864 4.66668 0
M  V30 4129 H 435.243 -0.254204 6.47501 0
M  V30 4130 N 428.649 -1.55105 -0.279332 0
M  V30 4131 C 429.612 -1.86783 -1.32834 0
M  V30 4132 C 430.612 -0.74199 -1.42657 0
M  V30 4133 O 431.802 -1.0102 -1.41918 0
M  V30 4134 C 428.934 -2.06746 -2.71052 0
M  V30 4135 H 430.127 -2.8055 -1.05979 0
M  V30 4136 H 427.68 -1.47499 -0.517087 0
M  V30 4137 H 428.415 -1.15339 -3.03097 0
M  V30 4138 H 428.2 -2.88711 -2.65309 0
M  V30 4139 H 429.69 -2.32549 -3.46858 0
M  V30 4140 N 430.127 0.543554 -1.4793 0
M  V30 4141 C 431.09 1.63156 -1.60975 0
M  V30 4142 C 432.09 1.53346 -0.483899 0
M  V30 4143 O 433.28 1.5726 -0.749339 0
M  V30 4144 C 430.412 3.02743 -1.56716 0
M  V30 4145 H 431.605 1.52934 -2.57975 0
M  V30 4146 H 429.158 0.764557 -1.36324 0
M  V30 4147 H 429.893 3.18484 -0.611418 0
M  V30 4148 H 429.678 3.11272 -2.38438 0
M  V30 4149 H 431.168 3.81871 -1.6901 0
M  V30 4150 N 431.605 1.3629 0.791371 0
M  V30 4151 C 432.852 1.30412 1.54916 0
M  V30 4152 C 433.18 -0.117162 1.94147 0
M  V30 4153 O 432.435 -1.08599 1.62803 0
M  V30 4154 C 432.734 2.17068 2.8393 0
M  V30 4155 C 432.4 3.65645 2.63846 0
M  V30 4156 C 431.062 4.0614 2.58077 0
M  V30 4157 C 433.414 4.59855 2.45322 0
M  V30 4158 C 430.742 5.3899 2.31748 0
M  V30 4159 C 433.094 5.9292 2.2052 0
M  V30 4160 C 431.758 6.32542 2.13183 0
M  V30 4161 H 431.028 0.47721 0.566879 0
M  V30 4162 H 433.675 1.68325 0.913172 0
M  V30 4163 H 431.98 1.72085 3.51986 0
M  V30 4164 H 433.677 2.09846 3.4171 0
M  V30 4165 H 430.267 3.33518 2.69191 0
M  V30 4166 H 434.451 4.29443 2.48782 0
M  V30 4167 H 429.707 5.68672 2.24548 0
M  V30 4168 H 433.881 6.65487 2.05182 0
M  V30 4169 H 431.508 7.35412 1.92544 0
M  V30 4170 N 433.083 -1.0153 1.20538 0
M  V30 4171 C 434.033 -2.08482 0.922991 0
M  V30 4172 C 435.017 -1.60469 -0.117702 0
M  V30 4173 O 436.209 -1.76772 0.0898465 0
M  V30 4174 C 433.338 -3.39952 0.478312 0
M  V30 4175 C 432.424 -3.94662 1.5525 0
M  V30 4176 N 432.815 -4.22866 2.77521 0
M  V30 4177 C 431.113 -4.22825 1.41897 0
M  V30 4178 C 431.814 -4.67002 3.4682 0
M  V30 4179 N 430.79 -4.69356 2.74237 0
M  V30 4180 H 434.592 -2.28199 1.85209 0
M  V30 4181 H 432.106 -1.19512 1.09957 0
M  V30 4182 H 434.103 -4.16105 0.257408 0
M  V30 4183 H 432.763 -3.21648 -0.444148 0
M  V30 4184 H 433.774 -4.11732 3.1416 0
M  V30 4185 H 430.451 -4.13714 0.561015 0
M  V30 4186 H 431.841 -4.97632 4.51455 0
M  V30 4187 N 434.561 -1.01147 -1.20859 0
M  V30 4188 C 435.493 -0.535546 -2.22855 0
M  V30 4189 C 436.506 0.379323 -1.58319 0
M  V30 4190 O 437.695 0.178489 -1.77605 0
M  V30 4191 C 434.795 0.240962 -3.38042 0
M  V30 4192 C 433.968 -0.674562 -4.32167 0
M  V30 4193 C 433.027 0.053467 -5.26173 0
M  V30 4194 O 432.053 -0.567339 -5.66366 0
M  V30 4195 N 433.255 1.32997 -5.65059 0
M  V30 4196 H 436.02 -1.41268 -2.64317 0
M  V30 4197 H 433.581 -0.888386 -1.35349 0
M  V30 4198 H 435.573 0.737115 -3.97931 0
M  V30 4199 H 434.143 1.01935 -2.95513 0
M  V30 4200 H 433.363 -1.35111 -3.70322 0
M  V30 4201 H 434.651 -1.2974 -4.91981 0
M  V30 4202 H 434.049 1.85536 -5.34409 0
M  V30 4203 H 432.606 1.77095 -6.2728 0
M  V30 4204 N 436.039 1.36541 -0.78704 0
M  V30 4205 C 437.316 1.9355 -0.282424 0
M  V30 4206 C 437.696 1.71919 1.22503 0
M  V30 4207 O 437.044 1.07677 2.01539 0
M  V30 4208 C 437.254 3.4246 -0.672462 0
M  V30 4209 C 438.602 4.19582 -0.650863 0
M  V30 4210 O 439.626 3.50889 -0.612789 0
M  V30 4211 O 438.485 5.42106 -0.691623 0
M  V30 4212 H 435.579 0.824091 -0.0693 0
M  V30 4213 H 438.125 1.45736 -0.869423 0
M  V30 4214 H 436.897 3.51851 -1.71221 0
M  V30 4215 H 436.52 3.97556 -0.0592211 0
M  V30 4216 N 437.518 0.538854 1.48102 0
M  V30 4217 C 438.468 -0.23907 2.26743 0
M  V30 4218 C 439.452 -0.901923 1.33245 0
M  V30 4219 O 440.644 -0.803263 1.57723 0
M  V30 4220 C 437.773 -1.2799 3.18549 0
M  V30 4221 C 436.859 -0.621388 4.19523 0
M  V30 4222 N 437.25 0.298004 5.04921 0
M  V30 4223 C 435.548 -0.877533 4.37282 0
M  V30 4224 C 436.249 0.678757 5.77726 0
M  V30 4225 N 435.225 0.0377881 5.43587 0
M  V30 4226 H 439.027 0.468096 2.90148 0
M  V30 4227 H 436.541 0.357497 1.58416 0
M  V30 4228 H 438.538 -1.851 3.73555 0
M  V30 4229 H 437.198 -1.98835 2.567 0
M  V30 4230 H 438.209 0.671126 5.13533 0
M  V30 4231 H 434.886 -1.57588 3.86616 0
M  V30 4232 H 436.276 1.43316 6.56437 0
M  V30 4233 N 438.996 -1.55193 0.274407 0
M  V30 4234 C 439.929 -2.18606 -0.654712 0
M  V30 4235 C 440.907 -1.14677 -1.15273 0
M  V30 4236 O 442.091 -1.43198 -1.22583 0
M  V30 4237 C 439.218 -2.80875 -1.89281 0
M  V30 4238 C 438.264 -3.981 -1.53032 0
M  V30 4239 S 439.097 -5.32025 -0.609107 0
M  V30 4240 C 440.253 -5.97761 -1.85559 0
M  V30 4241 H 440.486 -2.97074 -0.115894 0
M  V30 4242 H 438.019 -1.54288 0.05867 0
M  V30 4243 H 439.977 -3.17381 -2.60345 0
M  V30 4244 H 438.638 -2.02302 -2.40277 0
M  V30 4245 H 437.831 -4.40356 -2.45158 0
M  V30 4246 H 437.433 -3.63013 -0.899874 0
M  V30 4247 H 439.725 -6.16951 -2.7996 0
M  V30 4248 H 440.668 -6.92545 -1.47605 0
M  V30 4249 H 441.076 -5.27113 -2.02021 0
M  V30 4250 N 440.474 -0.00167713 -1.576 0
M  V30 4251 C 441.722 0.681471 -1.90264 0
M  V30 4252 C 442.043 1.7422 -0.875924 0
M  V30 4253 O 441.313 1.95709 0.0864412 0
M  V30 4254 H 439.893 0.254696 -0.702239 0
M  V30 4255 H 442.555 -0.0429996 -1.94853 0
M  V30 4256 H 441.651 1.15166 -2.90075 0
M  V30 4257 N 441.952 1.55251 0.271103 0
M  V30 4258 C 442.882 1.9127 1.33933 0
M  V30 4259 C 443.863 0.77478 1.5143 0
M  V30 4260 O 445.048 1.03307 1.64442 0
M  V30 4261 C 442.178 2.18627 2.69851 0
M  V30 4262 C 441.132 3.34442 2.67081 0
M  V30 4263 C 440.458 3.47284 4.06569 0
M  V30 4264 C 441.758 4.70784 2.26185 0
M  V30 4265 H 443.452 2.80744 1.04035 0
M  V30 4266 H 440.998 1.35077 0.499017 0
M  V30 4267 H 442.951 2.42413 3.44694 0
M  V30 4268 H 441.675 1.25955 3.01335 0
M  V30 4269 H 440.334 3.10627 1.94695 0
M  V30 4270 H 439.982 2.52074 4.35279 0
M  V30 4271 H 439.682 4.25152 4.0561 0
M  V30 4272 H 441.206 3.73363 4.83148 0
M  V30 4273 H 442.62 4.94102 2.90751 0
M  V30 4274 H 441.017 5.51582 2.36384 0
M  V30 4275 H 442.087 4.69478 1.21319 0
M  V30 4276 N 443.43 -0.535701 1.48216 0
M  V30 4277 C 444.393 -1.623 1.61838 0
M  V30 4278 C 445.393 -1.53087 0.492024 0
M  V30 4279 O 446.583 -1.5686 0.757668 0
M  V30 4280 C 443.715 -3.01907 1.58319 0
M  V30 4281 H 444.908 -1.51564 2.58783 0
M  V30 4282 H 442.461 -0.757317 1.36727 0
M  V30 4283 H 443.196 -3.18155 0.628299 0
M  V30 4284 H 442.981 -3.10003 2.40085 0
M  V30 4285 H 444.471 -3.80969 1.71033 0
M  V30 4286 N 444.908 -1.36708 -0.784132 0
M  V30 4287 C 446.148 -1.32618 -1.55537 0
M  V30 4288 C 446.512 0.0920681 -1.91779 0
M  V30 4289 O 447.713 0.257573 -2.67563 0
M  V30 4290 C 445.984 -2.22788 -2.79464 0
M  V30 4291 S 447.543 -2.36432 -3.69656 0
M  V30 4292 H 444.361 -0.470973 -0.53264 0
M  V30 4293 H 446.963 -1.72333 -0.92312 0
M  V30 4294 H 445.667 -3.24774 -2.50899 0
M  V30 4295 H 445.198 -1.84112 -3.47658 0
M  V30 4296 H 447.213 -1.56573 -4.7085 0
M  V30 4297 N 446.386 1.0089 -1.21074 0
M  V30 4298 C 447.616 1.77933 -1.04993 0
M  V30 4299 C 448.024 1.84847 0.403495 0
M  V30 4300 O 447.367 1.30606 1.29181 0
M  V30 4301 C 447.429 3.23541 -1.56722 0
M  V30 4302 C 447.093 3.40214 -3.05129 0
M  V30 4303 C 448.09 3.2881 -4.02716 0
M  V30 4304 C 445.775 3.65781 -3.44252 0
M  V30 4305 C 447.769 3.42732 -5.37414 0
M  V30 4306 C 445.456 3.79346 -4.79103 0
M  V30 4307 C 446.454 3.67827 -5.75493 0
M  V30 4308 O 446.142 3.80965 -7.07899 0
M  V30 4309 H 445.874 0.566157 -0.369381 0
M  V30 4310 H 448.428 1.27826 -1.60779 0
M  V30 4311 H 446.658 3.74766 -0.953285 0
M  V30 4312 H 448.347 3.82245 -1.36543 0
M  V30 4313 H 449.113 3.08986 -3.73835 0
M  V30 4314 H 444.992 3.73831 -2.69762 0
M  V30 4315 H 448.536 3.33658 -6.12632 0
M  V30 4316 H 444.433 3.98672 -5.07672 0
M  V30 4317 H 445.201 3.97937 -7.15254 0
M  V30 4318 N 447.864 1.01787 1.20321 0
M  V30 4319 C 448.827 0.593972 2.2137 0
M  V30 4320 C 449.827 -0.336553 1.57239 0
M  V30 4321 O 451.017 -0.125069 1.7375 0
M  V30 4322 C 448.149 -0.132433 3.40643 0
M  V30 4323 H 449.342 1.48791 2.60387 0
M  V30 4324 H 446.895 0.807803 1.33807 0
M  V30 4325 H 447.63 -1.04123 3.0713 0
M  V30 4326 H 447.415 0.53605 3.88418 0
M  V30 4327 H 448.905 -0.416314 4.1552 0
M  V30 4328 N 449.342 -1.36122 0.79427 0
M  V30 4329 C 450.272 -2.32551 0.210328 0
M  V30 4330 C 451.253 -1.56884 -0.657386 0
M  V30 4331 O 452.438 -1.85014 -0.590207 0
M  V30 4332 C 449.568 -3.41128 -0.651819 0
M  V30 4333 C 448.522 -4.27842 0.116395 0
M  V30 4334 C 447.848 -5.2763 -0.86666 0
M  V30 4335 C 449.148 -5.05647 1.30837 0
M  V30 4336 H 450.842 -2.81636 1.01594 0
M  V30 4337 H 448.388 -1.35407 0.489981 0
M  V30 4338 H 450.341 -4.07581 -1.07031 0
M  V30 4339 H 449.065 -2.90622 -1.49019 0
M  V30 4340 H 447.724 -3.62952 0.515915 0
M  V30 4341 H 447.372 -4.73395 -1.70019 0
M  V30 4342 H 447.072 -5.86514 -0.35705 0
M  V30 4343 H 448.596 -5.96955 -1.28361 0
M  V30 4344 H 450.01 -5.65113 0.965393 0
M  V30 4345 H 448.407 -5.73967 1.75161 0
M  V30 4346 H 449.477 -4.37006 2.10128 0
M  V30 4347 N 450.82 -0.546701 -1.47814 0
M  V30 4348 C 452.069 -0.0166497 -2.01693 0
M  V30 4349 C 452.382 1.33721 -1.42752 0
M  V30 4350 O 453.588 1.95658 -1.8823 0
M  V30 4351 C 452.044 0.0206769 -3.59894 0
M  V30 4352 C 451.652 -1.3293 -4.27824 0
M  V30 4353 C 453.396 0.498674 -4.21561 0
M  V30 4354 C 451.303 -1.25165 -5.78003 0
M  V30 4355 H 450.233 -0.0024541 -0.753996 0
M  V30 4356 H 452.884 -0.692984 -1.69912 0
M  V30 4357 H 451.266 0.76244 -3.88591 0
M  V30 4358 H 452.44 -2.08795 -4.10781 0
M  V30 4359 H 450.755 -1.74438 -3.78101 0
M  V30 4360 H 453.352 0.575 -5.31599 0
M  V30 4361 H 453.695 1.5083 -3.88016 0
M  V30 4362 H 454.228 -0.18791 -3.97356 0
M  V30 4363 H 450.967 -2.23695 -6.1615 0
M  V30 4364 H 450.487 -0.53464 -5.97412 0
M  V30 4365 H 452.166 -0.949299 -6.39998 0
M  V30 4366 N 452.299 1.55045 -0.282633 0
M  V30 4367 C 453.262 2.21515 0.588539 0
M  V30 4368 C 454.262 1.19535 1.07554 0
M  V30 4369 O 455.452 1.44391 0.974514 0
M  V30 4370 C 452.584 2.88704 1.8128 0
M  V30 4371 H 453.777 2.99899 0.00806397 0
M  V30 4372 H 451.33 1.56265 -0.0333067 0
M  V30 4373 H 452.065 2.14352 2.43359 0
M  V30 4374 H 451.85 3.63443 1.47144 0
M  V30 4375 H 453.34 3.39465 2.43214 0
M  V30 4376 N 453.777 0.010035 1.57597 0
M  V30 4377 C 455.023 -0.673697 1.91283 0
M  V30 4378 C 455.356 -1.72863 0.884979 0
M  V30 4379 O 454.631 -1.94268 -0.0949487 0
M  V30 4380 C 454.914 -1.30766 3.35518 0
M  V30 4381 C 454.767 -0.263578 4.49027 0
M  V30 4382 C 456.086 -2.23105 3.79358 0
M  V30 4383 H 453.205 -0.243439 0.695634 0
M  V30 4384 H 455.847 0.0633864 1.89894 0
M  V30 4385 H 453.997 -1.93588 3.36832 0
M  V30 4386 H 455.669 0.365738 4.59848 0
M  V30 4387 H 453.912 0.413077 4.31829 0
M  V30 4388 H 454.583 -0.746398 5.4693 0
M  V30 4389 H 457.059 -1.70289 3.79659 0
M  V30 4390 H 455.935 -2.64424 4.81011 0
M  V30 4391 H 456.196 -3.11433 3.13787 0
M  V30 4392 N 455.255 -1.55392 -0.262866 0
M  V30 4393 C 456.501 -1.76737 -0.99458 0
M  V30 4394 C 456.834 -0.572453 -1.85571 0
M  V30 4395 O 456.109 0.429732 -1.89693 0
M  V30 4396 C 456.392 -3.07824 -1.8686 0
M  V30 4397 C 456.245 -4.3769 -1.03672 0
M  V30 4398 C 457.564 -3.35021 -2.85393 0
M  V30 4399 H 454.683 -0.643005 -0.360157 0
M  V30 4400 H 457.325 -1.88126 -0.266216 0
M  V30 4401 H 455.475 -2.98245 -2.48962 0
M  V30 4402 H 457.147 -4.59238 -0.43563 0
M  V30 4403 H 455.39 -4.32461 -0.340513 0
M  V30 4404 H 456.061 -5.25759 -1.6817 0
M  V30 4405 H 458.537 -3.44458 -2.33426 0
M  V30 4406 H 457.413 -4.27989 -3.43681 0
M  V30 4407 H 457.674 -2.55153 -3.61039 0
M  V30 4408 N 456.733 0.527833 -1.48498 0
M  V30 4409 C 457.663 1.64136 -1.66077 0
M  V30 4410 C 458.644 1.62286 -0.509625 0
M  V30 4411 O 459.829 1.79449 -0.742413 0
M  V30 4412 C 456.959 3.02717 -1.70234 0
M  V30 4413 C 455.913 3.19426 -2.8487 0
M  V30 4414 C 455.239 4.5909 -2.74118 0
M  V30 4415 C 456.539 3.01993 -4.26142 0
M  V30 4416 H 458.233 1.4968 -2.593 0
M  V30 4417 H 455.779 0.718654 -1.24785 0
M  V30 4418 H 457.732 3.80491 -1.8112 0
M  V30 4419 H 456.456 3.18201 -0.735911 0
M  V30 4420 H 455.115 2.4407 -2.73542 0
M  V30 4421 H 454.763 4.71413 -1.7544 0
M  V30 4422 H 454.463 4.71214 -3.51042 0
M  V30 4423 H 455.987 5.3896 -2.86974 0
M  V30 4424 H 457.401 3.69558 -4.38292 0
M  V30 4425 H 455.798 3.2561 -5.04082 0
M  V30 4426 H 456.868 1.98396 -4.42456 0
M  V30 4427 N 458.211 1.37122 0.776871 0
M  V30 4428 C 459.174 1.32301 1.8716 0
M  V30 4429 C 460.174 0.228099 1.59174 0
M  V30 4430 O 461.364 0.483642 1.67352 0
M  V30 4431 C 458.496 1.054 3.24197 0
M  V30 4432 H 459.689 2.29673 1.92848 0
M  V30 4433 H 457.242 1.22077 0.97606 0
M  V30 4434 H 457.977 0.0853872 3.24188 0
M  V30 4435 H 457.762 1.84648 3.45901 0
M  V30 4436 H 459.252 1.04664 4.04271 0
M  V30 4437 N 459.689 -1.00246 1.21608 0
M  V30 4438 C 460.935 -1.74319 1.03638 0
M  V30 4439 C 461.268 -1.89408 -0.428749 0
M  V30 4440 O 460.543 -1.43026 -1.3181 0
M  V30 4441 C 460.826 -3.15431 1.73711 0
M  V30 4442 C 460.679 -3.08049 3.27759 0
M  V30 4443 C 461.998 -4.14407 1.48173 0
M  V30 4444 H 459.117 -0.632741 0.377899 0
M  V30 4445 H 461.759 -1.16853 1.49818 0
M  V30 4446 H 459.909 -3.64493 1.34452 0
M  V30 4447 H 461.581 -2.66681 3.76403 0
M  V30 4448 H 459.824 -2.45088 3.57931 0
M  V30 4449 H 460.495 -4.07862 3.71958 0
M  V30 4450 H 462.971 -3.74061 1.82258 0
M  V30 4451 H 461.847 -5.11279 1.99713 0
M  V30 4452 H 462.108 -4.40174 0.412273 0
M  V30 4453 N 461.167 -1.02423 -1.1978 0
M  V30 4454 C 462.099 -0.559152 -2.22275 0
M  V30 4455 C 463.112 0.36251 -1.58713 0
M  V30 4456 O 464.301 0.159641 -1.77785 0
M  V30 4457 C 461.401 0.205094 -3.38279 0
M  V30 4458 C 460.574 -0.720361 -4.31427 0
M  V30 4459 C 459.633 -0.00234368 -5.262 0
M  V30 4460 O 458.659 -0.627378 -5.65732 0
M  V30 4461 N 459.861 1.26996 -5.66438 0
M  V30 4462 H 462.626 -1.44064 -2.62804 0
M  V30 4463 H 460.187 -0.902692 -1.34399 0
M  V30 4464 H 462.179 0.694868 -3.9869 0
M  V30 4465 H 460.749 0.987947 -2.96578 0
M  V30 4466 H 459.969 -1.39031 -3.68869 0
M  V30 4467 H 461.257 -1.3495 -4.90577 0
M  V30 4468 H 460.655 1.79858 -5.36347 0
M  V30 4469 H 459.212 1.70432 -6.29123 0
M  V30 4470 N 462.645 1.35699 -0.801477 0
M  V30 4471 C 463.891 1.99208 -0.380022 0
M  V30 4472 C 464.224 1.63445 1.04878 0
M  V30 4473 O 463.499 0.895223 1.72673 0
M  V30 4474 C 463.782 3.55755 -0.557708 0
M  V30 4475 C 463.635 4.01332 -2.03107 0
M  V30 4476 C 464.954 4.40096 0.0197968 0
M  V30 4477 H 462.073 0.723667 -0.139552 0
M  V30 4478 H 464.715 1.60928 -1.01006 0
M  V30 4479 H 462.865 3.88494 -0.0213741 0
M  V30 4480 H 464.537 3.79026 -2.62939 0
M  V30 4481 H 462.78 3.52429 -2.52936 0
M  V30 4482 H 463.451 5.10234 -2.1063 0
M  V30 4483 H 465.927 4.13786 -0.438179 0
M  V30 4484 H 464.803 5.48735 -0.134477 0
M  V30 4485 H 465.064 4.2786 1.11303 0
M  V30 4486 N 464.123 0.554532 1.47522 0
M  V30 4487 C 465.369 0.0295227 2.02779 0
M  V30 4488 C 465.702 -1.31582 1.42828 0
M  V30 4489 O 464.977 -1.85561 0.582872 0
M  V30 4490 C 465.26 -0.0664057 3.60039 0
M  V30 4491 C 465.113 1.30585 4.30427 0
M  V30 4492 C 466.432 -0.781162 4.33112 0
M  V30 4493 H 463.551 0.0122027 0.736899 0
M  V30 4494 H 466.193 0.716305 1.7598 0
M  V30 4495 H 464.343 -0.651307 3.83002 0
M  V30 4496 H 466.015 1.93374 4.18813 0
M  V30 4497 H 464.258 1.88125 3.90886 0
M  V30 4498 H 464.929 1.19147 5.38988 0
M  V30 4499 H 467.405 -0.284565 4.15126 0
M  V30 4500 H 466.281 -0.817237 5.42782 0
M  V30 4501 H 466.542 -1.83672 4.0214 0
M  V30 4502 N 465.601 -1.54893 0.290851 0
M  V30 4503 C 466.849 -1.99538 -0.320756 0
M  V30 4504 C 467.17 -1.18075 -1.55188 0
M  V30 4505 O 466.44 -0.274162 -1.93972 0
M  V30 4506 H 465.02 -0.737052 -0.121507 0
M  V30 4507 H 467.682 -1.90755 0.399832 0
M  V30 4508 H 466.778 -3.06282 -0.599802 0
M  V30 4509 N 467.08 -0.0183926 -1.57589 0
M  V30 4510 C 468.01 0.965596 -2.12599 0
M  V30 4511 C 468.991 1.34641 -1.0395 0
M  V30 4512 O 470.176 1.42693 -1.31729 0
M  V30 4513 C 467.306 2.25149 -2.64434 0
M  V30 4514 C 466.26 2.01175 -3.77773 0
M  V30 4515 C 465.586 3.35937 -4.15994 0
M  V30 4516 C 466.886 1.35953 -5.04296 0
M  V30 4517 H 468.58 0.507504 -2.95067 0
M  V30 4518 H 466.126 0.242671 -1.41941 0
M  V30 4519 H 468.079 2.94357 -3.01549 0
M  V30 4520 H 466.803 2.73105 -1.79112 0
M  V30 4521 H 465.462 1.34388 -3.4108 0
M  V30 4522 H 465.11 3.81631 -3.27669 0
M  V30 4523 H 464.81 3.20705 -4.92364 0
M  V30 4524 H 466.334 4.0643 -4.55683 0
M  V30 4525 H 467.748 1.95144 -5.39065 0
M  V30 4526 H 466.145 1.31152 -5.85593 0
M  V30 4527 H 467.215 0.331071 -4.83768 0
M  V30 4528 N 468.558 1.5553 0.254621 0
M  V30 4529 C 469.488 1.9268 1.31897 0
M  V30 4530 C 470.469 0.790797 1.506 0
M  V30 4531 O 471.654 1.05045 1.63337 0
M  V30 4532 C 468.784 2.21477 2.67517 0
M  V30 4533 C 467.738 3.37256 2.63519 0
M  V30 4534 C 467.064 3.51576 4.02862 0
M  V30 4535 C 468.364 4.73157 2.21179 0
M  V30 4536 H 470.058 2.81832 1.01051 0
M  V30 4537 H 467.604 1.35599 0.484662 0
M  V30 4538 H 469.557 2.46055 3.42104 0
M  V30 4539 H 468.281 1.29144 2.99982 0
M  V30 4540 H 466.94 3.12675 1.9139 0
M  V30 4541 H 466.588 2.56676 4.32581 0
M  V30 4542 H 466.288 4.2943 4.01078 0
M  V30 4543 H 467.812 3.78467 4.79161 0
M  V30 4544 H 469.226 4.97158 2.85494 0
M  V30 4545 H 467.623 5.54058 2.30521 0
M  V30 4546 H 468.693 4.70739 1.16332 0
M  V30 4547 N 470.036 -0.519951 1.48776 0
M  V30 4548 C 470.966 -1.63253 1.66945 0
M  V30 4549 C 471.947 -1.62014 0.518224 0
M  V30 4550 O 473.132 -1.79053 0.751919 0
M  V30 4551 C 470.262 -3.0181 1.71836 0
M  V30 4552 C 469.216 -3.17911 2.8656 0
M  V30 4553 C 468.542 -4.5763 2.76548 0
M  V30 4554 C 469.842 -2.99729 4.27738 0
M  V30 4555 H 471.536 -1.48302 2.6009 0
M  V30 4556 H 469.082 -0.712026 1.25165 0
M  V30 4557 H 471.035 -3.79525 1.83135 0
M  V30 4558 H 469.759 -3.17806 0.752775 0
M  V30 4559 H 468.418 -2.42616 2.74833 0
M  V30 4560 H 468.066 -4.70476 1.77937 0
M  V30 4561 H 467.766 -4.69346 3.53536 0
M  V30 4562 H 469.29 -5.37431 2.89828 0
M  V30 4563 H 470.704 -3.67228 4.40246 0
M  V30 4564 H 469.101 -3.22932 5.05801 0
M  V30 4565 H 470.171 -1.96047 4.43502 0
M  V30 4566 N 471.514 -1.37532 -0.769588 0
M  V30 4567 C 472.925 -1.29382 -1.346 0
M  V30 4568 C 473.276 0.0576039 -1.96115 0
M  V30 4569 O 472.401 0.95947 -1.93967 0
M  V30 4570 C 472.996 -2.34298 -2.44724 0
M  V30 4571 C 471.555 -2.29776 -2.98128 0
M  V30 4572 C 470.702 -2.18013 -1.71364 0
M  V30 4573 H 473.653 -1.48123 -0.56968 0
M  V30 4574 H 473.674 -1.99089 -3.24259 0
M  V30 4575 H 473.186 -3.32645 -1.99922 0
M  V30 4576 H 471.287 -1.34959 -3.47299 0
M  V30 4577 H 471.4 -3.23276 -3.53595 0
M  V30 4578 H 469.764 -1.64595 -1.94372 0
M  V30 4579 H 470.547 -3.18278 -1.28662 0
M  V30 4580 N 472.992 0.995999 -1.22138 0
M  V30 4581 C 473.924 2.08745 -0.946485 0
M  V30 4582 C 474.937 1.62633 0.0737356 0
M  V30 4583 O 476.126 1.77782 -0.159886 0
M  V30 4584 C 473.226 3.36516 -0.401305 0
M  V30 4585 C 472.399 4.11672 -1.47801 0
M  V30 4586 C 471.458 5.17728 -0.940461 0
M  V30 4587 O 470.484 5.45482 -1.62596 0
M  V30 4588 N 471.686 5.80005 0.239723 0
M  V30 4589 H 474.451 2.32908 -1.88611 0
M  V30 4590 H 472.012 1.16152 -1.12785 0
M  V30 4591 H 474.004 4.04691 -0.0270837 0
M  V30 4592 H 472.574 3.0944 0.443354 0
M  V30 4593 H 471.794 3.38171 -2.02568 0
M  V30 4594 H 473.082 4.58657 -2.20253 0
M  V30 4595 H 472.48 5.5982 0.813518 0
M  V30 4596 H 471.037 6.4943 0.555361 0
M  V30 4597 N 474.47 1.03057 1.19235 0
M  V30 4598 C 475.881 0.757449 1.70645 0
M  V30 4599 C 476.232 -0.722735 1.82403 0
M  V30 4600 O 475.357 -1.56325 1.49638 0
M  V30 4601 C 475.952 1.36833 3.09939 0
M  V30 4602 C 474.511 1.14375 3.58602 0
M  V30 4603 C 473.658 1.46533 2.35422 0
M  V30 4604 H 476.609 1.19828 1.04052 0
M  V30 4605 H 476.63 0.766184 3.72706 0
M  V30 4606 H 476.142 2.44562 3.01349 0
M  V30 4607 H 474.243 0.0847542 3.72504 0
M  V30 4608 H 474.356 1.83366 4.42622 0
M  V30 4609 H 472.72 0.884712 2.38841 0
M  V30 4610 H 473.503 2.55349 2.2946 0
M  V30 4611 N 475.948 -1.35272 0.808662 0
M  V30 4612 C 477.364 -1.51806 0.492653 0
M  V30 4613 C 477.564 -1.7574 -0.985778 0
M  V30 4614 O 476.62 -1.80003 -1.77074 0
M  V30 4615 C 477.933 -2.69202 1.33981 0
M  V30 4616 C 479.481 -2.8308 1.33547 0
M  V30 4617 C 479.956 -4.03502 2.16679 0
M  V30 4618 N 481.447 -4.10684 2.14227 0
M  V30 4619 C 482.182 -5.02984 2.75308 0
M  V30 4620 N 481.678 -6.00603 3.45323 0
M  V30 4621 N 483.471 -4.95746 2.64938 0
M  V30 4622 H 475.622 -1.17993 1.76611 0
M  V30 4623 H 477.885 -0.577476 0.751814 0
M  V30 4624 H 477.591 -2.581 2.38909 0
M  V30 4625 H 477.465 -3.63854 0.994491 0
M  V30 4626 H 479.852 -2.93631 0.294036 0
M  V30 4627 H 479.933 -1.89278 1.72068 0
M  V30 4628 H 479.577 -3.93711 3.20864 0
M  V30 4629 H 479.507 -4.96489 1.75517 0
M  V30 4630 H 481.998 -3.40802 1.63285 0
M  V30 4631 H 482.311 -6.67633 3.89212 0
M  V30 4632 H 480.656 -6.0077 3.49428 0
M  V30 4633 H 483.847 -4.18439 2.09825 0
M  V30 4634 H 484.02 -5.67487 3.12829 0
M  V30 4635 N 477.426 -0.562348 -1.47226 0
M  V30 4636 C 478.651 -0.0432632 -2.07355 0
M  V30 4637 C 479.076 1.24332 -1.41149 0
M  V30 4638 O 478.434 1.74603 -0.488226 0
M  V30 4639 C 478.482 0.130288 -3.60365 0
M  V30 4640 O 477.586 1.19166 -3.94808 0
M  V30 4641 H 476.927 -0.0536334 -0.66183 0
M  V30 4642 H 479.457 -0.779495 -1.89169 0
M  V30 4643 H 479.467 0.342881 -4.06557 0
M  V30 4644 H 478.142 -0.809389 -4.07948 0
M  V30 4645 H 476.719 0.959153 -3.60354 0
M  V30 4646 N 478.904 1.54736 -0.299062 0
M  V30 4647 C 479.867 2.22127 0.565012 0
M  V30 4648 C 480.867 1.20669 1.06281 0
M  V30 4649 O 482.057 1.45417 0.959145 0
M  V30 4650 C 479.189 2.90611 1.78208 0
M  V30 4651 H 480.382 2.99891 -0.0237448 0
M  V30 4652 H 477.935 1.5622 -0.0498788 0
M  V30 4653 H 478.67 2.16921 2.41072 0
M  V30 4654 H 478.455 3.64984 1.43281 0
M  V30 4655 H 479.945 3.42026 2.396 0
M  V30 4656 N 480.382 0.0267497 1.57577 0
M  V30 4657 C 481.607 -0.666227 1.96408 0
M  V30 4658 C 482.032 -1.65004 0.903071 0
M  V30 4659 O 481.39 -1.80787 -0.136263 0
M  V30 4660 C 481.438 -1.35101 3.34335 0
M  V30 4661 O 480.542 -2.46623 3.30531 0
M  V30 4662 H 479.883 -0.175206 0.640468 0
M  V30 4663 H 482.413 0.0878977 2.04411 0
M  V30 4664 H 482.423 -1.70834 3.70513 0
M  V30 4665 H 481.098 -0.629844 4.11103 0
M  V30 4666 H 479.675 -2.13019 3.06068 0
M  V30 4667 N 481.861 -1.55662 -0.24637 0
M  V30 4668 C 482.771 -1.93495 -1.32653 0
M  V30 4669 C 483.787 -0.835462 -1.5263 0
M  V30 4670 O 484.963 -1.1369 -1.66242 0
M  V30 4671 C 482.028 -2.22242 -2.66101 0
M  V30 4672 C 481.089 -3.45625 -2.54641 0
M  V30 4673 C 480.322 -3.72991 -3.81724 0
M  V30 4674 O 480.545 -3.02421 -4.8363 0
M  V30 4675 O 479.479 -4.66515 -3.80325 0
M  V30 4676 H 483.305 -2.85498 -1.03559 0
M  V30 4677 H 480.89 -1.42551 -0.44717 0
M  V30 4678 H 482.772 -2.42037 -3.44958 0
M  V30 4679 H 481.447 -1.33417 -2.94926 0
M  V30 4680 H 480.354 -3.31136 -1.74067 0
M  V30 4681 H 481.687 -4.34754 -2.3076 0
M  V30 4682 N 483.339 0.512053 -1.4905 0
M  V30 4683 C 484.587 1.26436 -1.57665 0
M  V30 4684 C 484.908 1.93255 -0.260293 0
M  V30 4685 O 484.178 1.82206 0.719564 0
M  V30 4686 H 482.758 0.469658 -0.580888 0
M  V30 4687 H 485.42 0.594398 -1.85615 0
M  V30 4688 H 484.516 2.03417 -2.36702 0
M  V30 4689 N 484.817 1.37938 0.762283 0
M  V30 4690 C 486.066 1.32989 1.51647 0
M  V30 4691 C 486.379 -0.0802922 1.95435 0
M  V30 4692 O 487.585 -0.252295 2.70325 0
M  V30 4693 C 486.041 2.33485 2.73885 0
M  V30 4694 C 485.649 3.80079 2.37157 0
M  V30 4695 C 487.393 2.37563 3.51801 0
M  V30 4696 C 485.3 4.72283 3.55954 0
M  V30 4697 H 484.23 0.494301 0.56937 0
M  V30 4698 H 486.881 1.63448 0.834083 0
M  V30 4699 H 485.263 1.96056 3.44061 0
M  V30 4700 H 486.437 4.26398 1.74704 0
M  V30 4701 H 484.752 3.79037 1.72395 0
M  V30 4702 H 487.349 3.0365 4.40114 0
M  V30 4703 H 487.692 1.39199 3.92338 0
M  V30 4704 H 488.225 2.73747 2.8863 0
M  V30 4705 H 484.964 5.7181 3.2049 0
M  V30 4706 H 484.484 4.30663 4.1748 0
M  V30 4707 H 486.163 4.89876 4.22647 0
M  V30 4708 N 486.295 -0.989507 1.22664 0
M  V30 4709 C 487.541 -1.73298 1.06487 0
M  V30 4710 C 487.896 -1.88292 -0.395438 0
M  V30 4711 O 487.189 -1.41748 -1.28911 0
M  V30 4712 C 487.383 -3.13649 1.71345 0
M  V30 4713 C 487.212 -3.12341 3.23532 0
M  V30 4714 C 485.982 -3.18044 3.92653 0
M  V30 4715 C 488.18 -2.96226 4.20422 0
M  V30 4716 N 486.162 -3.06526 5.31898 0
M  V30 4717 C 487.533 -2.92773 5.4652 0
M  V30 4718 C 489.588 -2.80642 4.11271 0
M  V30 4719 C 488.291 -2.75332 6.64519 0
M  V30 4720 C 490.317 -2.64563 5.28924 0
M  V30 4721 C 489.679 -2.618 6.53942 0
M  V30 4722 H 485.778 -0.643643 0.444126 0
M  V30 4723 H 488.362 -1.17489 1.55256 0
M  V30 4724 H 486.533 -3.67694 1.25122 0
M  V30 4725 H 488.265 -3.76577 1.48229 0
M  V30 4726 H 485.02 -3.25861 3.43673 0
M  V30 4727 H 485.444 -3.04067 6.04874 0
M  V30 4728 H 490.086 -2.81574 3.15398 0
M  V30 4729 H 487.804 -2.73145 7.60538 0
M  V30 4730 H 491.39 -2.53482 5.23677 0
M  V30 4731 H 490.27 -2.49511 7.43447 0
M  V30 4732 N 487.773 -1.03688 -1.18687 0
M  V30 4733 C 489.019 -0.74888 -1.89112 0
M  V30 4734 C 489.374 0.715345 -1.78607 0
M  V30 4735 O 488.667 1.51498 -1.17299 0
M  V30 4736 C 488.861 -1.14477 -3.3857 0
M  V30 4737 C 488.69 -2.64594 -3.63621 0
M  V30 4738 C 487.46 -3.31685 -3.812 0
M  V30 4739 C 489.658 -3.62811 -3.64517 0
M  V30 4740 N 487.64 -4.70822 -3.93955 0
M  V30 4741 C 489.011 -4.87603 -3.8294 0
M  V30 4742 C 491.066 -3.56495 -3.47585 0
M  V30 4743 C 489.769 -6.0684 -3.86184 0
M  V30 4744 C 491.795 -4.75155 -3.52111 0
M  V30 4745 C 491.157 -5.98765 -3.71026 0
M  V30 4746 H 487.256 -0.32603 -0.710794 0
M  V30 4747 H 489.84 -1.3258 -1.42586 0
M  V30 4748 H 488.011 -0.595974 -3.838 0
M  V30 4749 H 489.743 -0.808187 -3.96548 0
M  V30 4750 H 486.498 -2.82091 -3.80423 0
M  V30 4751 H 486.922 -5.43122 -4.04163 0
M  V30 4752 H 491.564 -2.61907 -3.31911 0
M  V30 4753 H 489.282 -7.01788 -4.00648 0
M  V30 4754 H 492.868 -4.71905 -3.40289 0
M  V30 4755 H 491.748 -6.89047 -3.74412 0
M  V30 4756 N 489.251 1.34841 -0.815825 0
M  V30 4757 C 490.479 2.0273 -0.413294 0
M  V30 4758 C 490.894 1.61459 0.978599 0
M  V30 4759 O 490.251 0.816584 1.63212 0
M  V30 4760 C 490.302 3.58058 -0.497676 0
M  V30 4761 O 490.023 3.97832 -1.8347 0
M  V30 4762 C 491.524 4.4321 -0.0891339 0
M  V30 4763 H 488.744 0.649956 -0.166728 0
M  V30 4764 H 491.288 1.72267 -1.10201 0
M  V30 4765 H 489.443 3.87136 0.142886 0
M  V30 4766 H 489.857 4.92501 -1.80396 0
M  V30 4767 H 491.331 5.5164 -0.199274 0
M  V30 4768 H 491.808 4.28432 0.966571 0
M  V30 4769 H 492.414 4.19446 -0.703214 0
M  V30 4770 N 490.729 0.570148 1.46925 0
M  V30 4771 C 491.975 0.0510284 2.02736 0
M  V30 4772 C 492.308 -1.3006 1.44215 0
M  V30 4773 O 491.583 -1.84932 0.602521 0
M  V30 4774 C 491.866 -0.028215 3.60089 0
M  V30 4775 C 491.719 1.35142 4.29018 0
M  V30 4776 C 493.038 -0.735181 4.33916 0
M  V30 4777 H 490.157 0.0200178 0.736728 0
M  V30 4778 H 492.799 0.73493 1.75211 0
M  V30 4779 H 490.949 -0.610648 3.83671 0
M  V30 4780 H 492.621 1.97806 4.16738 0
M  V30 4781 H 490.864 1.9226 3.88868 0
M  V30 4782 H 491.535 1.24857 5.37694 0
M  V30 4783 H 494.011 -0.240519 4.15404 0
M  V30 4784 H 492.887 -0.759622 5.43618 0
M  V30 4785 H 493.148 -1.79397 4.04066 0
M  V30 4786 N 492.207 -1.54576 0.307264 0
M  V30 4787 C 493.454 -2.00263 -0.300167 0
M  V30 4788 C 493.782 -1.19561 -1.53413 0
M  V30 4789 O 493.037 -0.261487 -1.93945 0
M  V30 4790 C 493.336 -3.50572 -0.695253 0
M  V30 4791 C 493.002 -4.48771 0.437679 0
M  V30 4792 C 491.664 -4.7534 0.748681 0
M  V30 4793 C 494.016 -5.0721 1.19949 0
M  V30 4794 C 491.344 -5.5761 1.8245 0
M  V30 4795 C 493.696 -5.90651 2.26527 0
M  V30 4796 C 492.36 -6.15528 2.58227 0
M  V30 4797 H 491.63 -0.732814 -0.109839 0
M  V30 4798 H 494.277 -1.86664 0.427661 0
M  V30 4799 H 492.582 -3.61814 -1.50326 0
M  V30 4800 H 494.279 -3.83352 -1.17653 0
M  V30 4801 H 490.869 -4.282 0.185187 0
M  V30 4802 H 495.053 -4.86679 0.972474 0
M  V30 4803 H 490.309 -5.75121 2.07476 0
M  V30 4804 H 494.483 -6.34957 2.86011 0
M  V30 4805 H 492.11 -6.79066 3.4172 0
M  V30 4806 N 493.685 -0.035106 -1.57561 0
M  V30 4807 C 494.932 0.642229 -1.92046 0
M  V30 4808 C 495.26 1.7179 -0.91206 0
M  V30 4809 O 494.515 1.95544 0.0781153 0
M  V30 4810 C 494.814 1.29149 -3.3325 0
M  V30 4811 C 494.48 0.345604 -4.49574 0
M  V30 4812 C 493.142 0.0852775 -4.81124 0
M  V30 4813 C 495.494 -0.303569 -5.20315 0
M  V30 4814 C 492.822 -0.831927 -5.80772 0
M  V30 4815 C 495.174 -1.20886 -6.20942 0
M  V30 4816 C 493.838 -1.47802 -6.50931 0
M  V30 4817 H 493.108 0.235008 -0.702746 0
M  V30 4818 H 495.755 -0.0981529 -1.91248 0
M  V30 4819 H 494.06 2.10676 -3.30337 0
M  V30 4820 H 495.757 1.82223 -3.57205 0
M  V30 4821 H 492.347 0.558683 -4.24943 0
M  V30 4822 H 496.531 -0.115515 -4.96166 0
M  V30 4823 H 491.787 -1.0481 -6.02349 0
M  V30 4824 H 495.961 -1.71804 -6.74875 0
M  V30 4825 H 493.588 -2.19039 -7.2796 0
M  V30 4826 N 495.163 1.55791 0.238111 0
M  V30 4827 C 496.412 1.77234 0.962868 0
M  V30 4828 C 496.725 0.600661 1.86149 0
M  V30 4829 O 497.931 0.698315 2.62366 0
M  V30 4830 C 496.387 3.13808 1.76218 0
M  V30 4831 C 495.995 4.3865 0.910518 0
M  V30 4832 C 497.739 3.44585 2.47914 0
M  V30 4833 C 495.646 5.66252 1.70623 0
M  V30 4834 H 494.576 0.660731 0.36325 0
M  V30 4835 H 497.227 1.8221 0.217242 0
M  V30 4836 H 495.609 3.02963 2.55009 0
M  V30 4837 H 496.783 4.60507 0.164316 0
M  V30 4838 H 495.098 4.15271 0.30647 0
M  V30 4839 H 497.695 4.3714 3.07917 0
M  V30 4840 H 498.038 2.66314 3.19973 0
M  V30 4841 H 498.571 3.56685 1.76127 0
M  V30 4842 H 495.31 6.47369 1.02923 0
M  V30 4843 H 494.83 5.48483 2.42748 0
M  V30 4844 H 496.509 6.05829 2.27114 0
M  V30 4845 N 496.642 -0.504142 1.49319 0
M  V30 4846 C 497.872 -1.28071 1.62116 0
M  V30 4847 C 498.28 -1.86955 0.290566 0
M  V30 4848 O 497.623 -1.68415 -0.733616 0
M  V30 4849 C 497.685 -2.4521 2.62893 0
M  V30 4850 C 497.349 -2.07218 4.0732 0
M  V30 4851 C 498.346 -1.61375 4.94221 0
M  V30 4852 C 496.031 -2.16949 4.53033 0
M  V30 4853 C 498.025 -1.25763 6.2487 0
M  V30 4854 C 495.712 -1.80949 5.83696 0
M  V30 4855 C 496.71 -1.3543 6.69438 0
M  V30 4856 O 496.398 -0.99915 7.97667 0
M  V30 4857 H 496.13 -0.394763 0.54876 0
M  V30 4858 H 498.684 -0.612118 1.96067 0
M  V30 4859 H 496.914 -3.15134 2.24115 0
M  V30 4860 H 498.603 -3.0724 2.65252 0
M  V30 4861 H 499.369 -1.53306 4.60133 0
M  V30 4862 H 495.248 -2.5133 3.86463 0
M  V30 4863 H 498.792 -0.901631 6.91749 0
M  V30 4864 H 494.689 -1.88667 6.17313 0
M  V30 4865 H 495.457 -1.13089 8.1065 0
M  V30 4866 N 498.12 -1.38341 -0.754957 0
M  V30 4867 C 499.348 -1.37704 -1.54419 0
M  V30 4868 C 499.763 0.0335243 -1.8877 0
M  V30 4869 O 499.12 0.999773 -1.52679 0
M  V30 4870 C 499.171 -2.23136 -2.84416 0
M  V30 4871 O 498.892 -3.58697 -2.51531 0
M  V30 4872 C 500.393 -2.30664 -3.78562 0
M  V30 4873 H 497.613 -0.471061 -0.477852 0
M  V30 4874 H 500.157 -1.81902 -0.934446 0
M  V30 4875 H 498.312 -1.82403 -3.41772 0
M  V30 4876 H 498.726 -4.03665 -3.34896 0
M  V30 4877 H 500.2 -2.9473 -4.66732 0
M  V30 4878 H 500.677 -1.3199 -4.18898 0
M  V30 4879 H 501.283 -2.71781 -3.27131 0
M  V30 4880 N 499.598 0.982988 -1.23187 0
M  V30 4881 C 500.847 1.71817 -1.05649 0
M  V30 4882 C 501.16 1.91315 0.407176 0
M  V30 4883 O 502.366 2.62256 0.702436 0
M  V30 4884 C 500.822 3.09188 -1.84203 0
M  V30 4885 C 500.43 2.97586 -3.34882 0
M  V30 4886 C 502.174 3.86684 -1.75146 0
M  V30 4887 C 500.081 4.30173 -4.05839 0
M  V30 4888 H 499.011 0.644258 -0.391724 0
M  V30 4889 H 501.662 1.09659 -1.4713 0
M  V30 4890 H 500.044 3.72087 -1.35527 0
M  V30 4891 H 501.218 2.43793 -3.91026 0
M  V30 4892 H 499.533 2.33567 -3.44725 0
M  V30 4893 H 502.13 4.84836 -2.25473 0
M  V30 4894 H 502.473 4.10136 -0.713737 0
M  V30 4895 H 503.006 3.30482 -2.21419 0
M  V30 4896 H 499.745 4.11918 -5.09906 0
M  V30 4897 H 499.265 4.83841 -3.54482 0
M  V30 4898 H 500.944 4.98873 -4.11989 0
M  V30 4899 N 501.076 1.04316 1.18135 0
M  V30 4900 C 502.306 0.767003 1.91835 0
M  V30 4901 C 502.714 -0.68002 1.76557 0
M  V30 4902 O 502.057 -1.47548 1.09432 0
M  V30 4903 C 502.119 1.05674 3.43618 0
M  V30 4904 C 501.783 2.49818 3.82675 0
M  V30 4905 C 502.78 3.48003 3.86251 0
M  V30 4906 C 500.465 2.84596 4.13897 0
M  V30 4907 C 502.459 4.79016 4.20503 0
M  V30 4908 C 500.146 4.15813 4.4782 0
M  V30 4909 C 501.144 5.12834 4.51099 0
M  V30 4910 O 500.832 6.41699 4.84229 0
M  V30 4911 H 500.564 0.278948 0.615763 0
M  V30 4912 H 503.118 1.3946 1.50798 0
M  V30 4913 H 501.348 0.372029 3.84906 0
M  V30 4914 H 503.037 0.767994 3.98568 0
M  V30 4915 H 503.803 3.22475 3.62264 0
M  V30 4916 H 499.682 2.09748 4.1052 0
M  V30 4917 H 503.226 5.54739 4.22978 0
M  V30 4918 H 499.123 4.41109 4.71268 0
M  V30 4919 H 499.891 6.46387 5.02121 0
M  V30 4920 N 502.554 -1.34406 0.822964 0
M  V30 4921 C 503.782 -2.02508 0.424039 0
M  V30 4922 C 504.197 -1.61975 -0.970022 0
M  V30 4923 O 503.554 -0.825228 -1.62777 0
M  V30 4924 C 503.605 -3.57789 0.516657 0
M  V30 4925 O 503.326 -3.96853 1.85577 0
M  V30 4926 C 504.827 -4.43157 0.112637 0
M  V30 4927 H 502.047 -0.649063 0.170173 0
M  V30 4928 H 504.591 -1.7168 1.11113 0
M  V30 4929 H 502.746 -3.87207 -0.122353 0
M  V30 4930 H 503.16 -4.91538 1.83005 0
M  V30 4931 H 504.634 -5.51527 0.228526 0
M  V30 4932 H 505.111 -4.28939 -0.943837 0
M  V30 4933 H 505.717 -4.19067 0.725449 0
M  V30 4934 N 504.032 -0.577932 -1.46621 0
M  V30 4935 C 504.962 0.145917 -2.33044 0
M  V30 4936 C 505.943 0.888412 -1.45056 0
M  V30 4937 O 507.128 0.864812 -1.73881 0
M  V30 4938 C 504.258 1.16322 -3.27241 0
M  V30 4939 C 503.212 0.535868 -4.24632 0
M  V30 4940 C 502.538 1.65929 -5.08303 0
M  V30 4941 C 503.838 -0.523861 -5.19666 0
M  V30 4942 H 505.532 -0.575636 -2.93814 0
M  V30 4943 H 503.078 -0.278272 -1.41286 0
M  V30 4944 H 505.031 1.67793 -3.86553 0
M  V30 4945 H 503.755 1.91498 -2.64567 0
M  V30 4946 H 502.414 0.0422759 -3.66576 0
M  V30 4947 H 502.062 2.40061 -4.42018 0
M  V30 4948 H 501.762 1.2452 -5.74255 0
M  V30 4949 H 503.286 2.17686 -5.70478 0
M  V30 4950 H 504.7 -0.0944059 -5.73222 0
M  V30 4951 H 503.097 -0.858 -5.93935 0
M  V30 4952 H 504.167 -1.41197 -4.63887 0
M  V30 4953 N 505.51 1.54411 -0.315457 0
M  V30 4954 C 506.44 2.27002 0.547039 0
M  V30 4955 C 507.421 1.27492 1.12605 0
M  V30 4956 O 508.606 1.5629 1.15269 0
M  V30 4957 C 505.736 3.02171 1.71201 0
M  V30 4958 C 504.69 4.0895 1.26268 0
M  V30 4959 C 504.016 4.71915 2.51396 0
M  V30 4960 C 505.316 5.20891 0.383419 0
M  V30 4961 H 507.01 2.99343 -0.0584517 0
M  V30 4962 H 504.556 1.4397 -0.0295527 0
M  V30 4963 H 506.509 3.51681 2.32161 0
M  V30 4964 H 505.233 2.27433 2.34397 0
M  V30 4965 H 503.892 3.60312 0.676062 0
M  V30 4966 H 503.54 3.93801 3.12937 0
M  V30 4967 H 503.24 5.44039 2.22026 0
M  V30 4968 H 504.764 5.24195 3.13133 0
M  V30 4969 H 506.178 5.66206 0.899082 0
M  V30 4970 H 504.575 5.99821 0.182857 0
M  V30 4971 H 505.645 4.81324 -0.587821 0
M  V30 4972 N 506.988 0.0434614 1.5754 0
M  V30 4973 C 508.399 -0.493343 1.80064 0
M  V30 4974 C 508.75 -1.71388 0.955023 0
M  V30 4975 O 507.875 -2.15736 0.169434 0
M  V30 4976 C 508.47 -0.90179 3.26578 0
M  V30 4977 C 507.029 -1.38362 3.50047 0
M  V30 4978 C 506.176 -0.355129 2.75017 0
M  V30 4979 H 509.127 0.2694 1.56397 0
M  V30 4980 H 509.148 -1.76523 3.37075 0
M  V30 4981 H 508.66 -0.013271 3.88098 0
M  V30 4982 H 506.761 -2.29159 2.93798 0
M  V30 4983 H 506.874 -1.3811 4.58762 0
M  V30 4984 H 505.238 -0.826348 2.40922 0
M  V30 4985 H 506.021 0.525172 3.39259 0
M  V30 4986 N 508.466 -1.55915 -0.229846 0
M  V30 4987 C 509.712 -1.78807 -0.956868 0
M  V30 4988 C 510.045 -0.611687 -1.84315 0
M  V30 4989 O 509.32 0.389398 -1.90562 0
M  V30 4990 C 509.603 -3.11718 -1.80288 0
M  V30 4991 C 509.456 -4.3979 -0.943649 0
M  V30 4992 C 510.775 -3.40999 -2.78222 0
M  V30 4993 H 507.894 -0.6505 -0.346437 0
M  V30 4994 H 510.536 -1.88648 -0.226252 0
M  V30 4995 H 508.686 -3.03459 -2.42579 0
M  V30 4996 H 510.358 -4.60059 -0.338121 0
M  V30 4997 H 508.601 -4.33086 -0.248705 0
M  V30 4998 H 509.272 -5.29208 -1.5698 0
M  V30 4999 H 511.748 -3.49332 -2.26067 0
M  V30 5000 H 510.624 -4.35183 -3.34526 0
M  V30 5001 H 510.885 -2.62754 -3.55546 0
M  V30 5002 N 509.944 0.496216 -1.49584 0
M  V30 5003 C 511.36 0.827814 -1.36453 0
M  V30 5004 C 511.56 1.97464 -0.401285 0
M  V30 5005 O 510.616 2.51958 0.165296 0
M  V30 5006 C 511.929 1.16352 -2.77277 0
M  V30 5007 C 513.477 1.27145 -2.86013 0
M  V30 5008 C 513.952 1.64042 -4.27615 0
M  V30 5009 N 515.443 1.71082 -4.30448 0
M  V30 5010 C 516.178 2.01085 -5.36984 0
M  V30 5011 N 515.674 2.2928 -6.5376 0
M  V30 5012 N 517.467 2.02376 -5.24405 0
M  V30 5013 H 509.618 -0.259947 -2.10803 0
M  V30 5014 H 511.881 -0.0537163 -0.946477 0
M  V30 5015 H 511.587 0.394153 -3.49484 0
M  V30 5016 H 511.461 2.10582 -3.12946 0
M  V30 5017 H 513.848 2.03152 -2.1404 0
M  V30 5018 H 513.929 0.309542 -2.5392 0
M  V30 5019 H 513.573 0.88583 -5.00115 0
M  V30 5020 H 513.503 2.6134 -4.57175 0
M  V30 5021 H 515.994 1.51434 -3.46232 0
M  V30 5022 H 516.307 2.51376 -7.30774 0
M  V30 5023 H 514.652 2.26726 -6.56978 0
M  V30 5024 H 517.843 1.79829 -4.32179 0
M  V30 5025 H 518.016 2.25425 -6.07526 0
M  V30 5026 N 511.423 1.38739 0.74761 0
M  V30 5027 C 512.356 1.3083 1.86972 0
M  V30 5028 C 513.334 0.184229 1.61553 0
M  V30 5029 O 514.518 0.36256 1.8498 0
M  V30 5030 C 511.645 1.02854 3.22705 0
M  V30 5031 C 510.691 2.17281 3.67003 0
M  V30 5032 S 511.524 3.79468 3.77842 0
M  V30 5033 C 512.68 3.53692 5.16385 0
M  V30 5034 H 512.913 2.258 1.93395 0
M  V30 5035 H 510.446 1.24646 0.911199 0
M  V30 5036 H 512.404 0.87397 4.01089 0
M  V30 5037 H 511.065 0.0959295 3.13953 0
M  V30 5038 H 510.258 1.93267 4.65472 0
M  V30 5039 H 509.86 2.28876 2.9579 0
M  V30 5040 H 512.152 3.10176 6.02327 0
M  V30 5041 H 513.095 4.51576 5.45422 0
M  V30 5042 H 513.503 2.8807 4.85464 0
M  V30 5043 N 512.901 -0.976442 1.23707 0
M  V30 5044 C 514.317 -1.24341 1.00058 0
M  V30 5045 C 514.517 -1.99315 -0.295932 0
M  V30 5046 O 513.573 -2.3123 -1.01435 0
M  V30 5047 C 514.886 -2.03909 2.21001 0
M  V30 5048 C 516.434 -2.17034 2.25534 0
M  V30 5049 C 516.909 -2.99994 3.46075 0
M  V30 5050 N 518.4 -3.07578 3.46338 0
M  V30 5051 C 519.135 -3.72104 4.36264 0
M  V30 5052 N 518.631 -4.3842 5.36432 0
M  V30 5053 N 520.424 -3.69029 4.23998 0
M  V30 5054 H 512.575 -0.47428 2.07037 0
M  V30 5055 H 514.838 -0.272167 0.908091 0
M  V30 5056 H 514.544 -1.56198 3.15111 0
M  V30 5057 H 514.418 -3.04654 2.22409 0
M  V30 5058 H 516.805 -2.63951 1.31961 0
M  V30 5059 H 516.886 -1.15664 2.28156 0
M  V30 5060 H 516.53 -2.53772 4.39957 0
M  V30 5061 H 516.46 -4.01541 3.40694 0
M  V30 5062 H 518.951 -2.60397 2.73865 0
M  V30 5063 H 519.264 -4.85447 6.013 0
M  V30 5064 H 517.609 -4.37116 5.40328 0
M  V30 5065 H 520.8 -3.16392 3.44984 0
M  V30 5066 H 520.973 -4.19034 4.94282 0
M  V30 5067 N 514.379 -1.04941 -1.1758 0
M  V30 5068 C 515.342 -0.652456 -2.19717 0
M  V30 5069 C 516.342 0.294745 -1.58076 0
M  V30 5070 O 517.532 0.0789579 -1.74021 0
M  V30 5071 C 514.664 0.0420712 -3.40874 0
M  V30 5072 H 515.857 -1.55642 -2.5635 0
M  V30 5073 H 513.41 -0.842995 -1.31618 0
M  V30 5074 H 514.145 0.95943 -3.09783 0
M  V30 5075 H 513.93 -0.638844 -3.86861 0
M  V30 5076 H 515.42 0.306 -4.16477 0
M  V30 5077 N 515.857 1.33968 -0.830081 0
M  V30 5078 C 516.82 2.27694 -0.26235 0
M  V30 5079 C 517.82 1.50589 0.563876 0
M  V30 5080 O 519.01 1.70028 0.378941 0
M  V30 5081 C 516.142 3.35002 0.63138 0
M  V30 5082 H 517.335 2.79419 -1.08928 0
M  V30 5083 H 514.888 1.44221 -0.602486 0
M  V30 5084 H 515.623 2.88504 1.48109 0
M  V30 5085 H 515.408 3.92079 0.0403276 0
M  V30 5086 H 516.898 4.04897 1.02217 0
M  V30 5087 N 517.335 0.585699 1.46312 0
M  V30 5088 C 518.581 0.0725284 2.0267 0
M  V30 5089 C 518.914 -1.28523 1.45586 0
M  V30 5090 O 518.189 -1.84283 0.622101 0
M  V30 5091 C 518.472 0.0099788 3.60099 0
M  V30 5092 C 518.325 1.39685 4.27561 0
M  V30 5093 C 519.644 -0.689117 4.34671 0
M  V30 5094 H 516.763 0.0278307 0.736474 0
M  V30 5095 H 519.405 0.753472 1.74421 0
M  V30 5096 H 517.555 -0.56992 3.84297 0
M  V30 5097 H 519.227 2.02215 4.14617 0
M  V30 5098 H 517.47 1.96374 3.86807 0
M  V30 5099 H 518.141 1.30553 5.36339 0
M  V30 5100 H 520.617 -0.196446 4.15636 0
M  V30 5101 H 519.493 -0.701921 5.44393 0
M  V30 5102 H 519.754 -1.75101 4.05946 0
M  V30 5103 N 518.813 -1.54241 0.323641 0
M  V30 5104 C 519.743 -2.27289 -0.534993 0
M  V30 5105 C 520.724 -1.28087 -1.11927 0
M  V30 5106 O 521.909 -1.56899 -1.14439 0
M  V30 5107 C 519.039 -3.03075 -1.69596 0
M  V30 5108 C 517.993 -4.09614 -1.24098 0
M  V30 5109 C 517.319 -4.73242 -2.4889 0
M  V30 5110 C 518.619 -5.21087 -0.355789 0
M  V30 5111 H 520.313 -2.99308 0.0743257 0
M  V30 5112 H 517.859 -1.43952 0.0371874 0
M  V30 5113 H 519.812 -3.52907 -2.30293 0
M  V30 5114 H 518.536 -2.28673 -2.33187 0
M  V30 5115 H 517.195 -3.60666 -0.656945 0
M  V30 5116 H 516.843 -3.95455 -3.10845 0
M  V30 5117 H 516.543 -5.45209 -2.19138 0
M  V30 5118 H 518.067 -5.25848 -3.10348 0
M  V30 5119 H 519.481 -5.66675 -0.869042 0
M  V30 5120 H 517.878 -5.9991 -0.151045 0
M  V30 5121 H 518.948 -4.81005 0.613339 0
M  V30 5122 N 520.291 -0.0518155 -1.57515 0
M  V30 5123 C 521.516 0.634896 -1.97443 0
M  V30 5124 C 521.941 1.63546 -0.929207 0
M  V30 5125 O 521.299 1.80981 0.107484 0
M  V30 5126 C 521.347 1.29765 -3.36442 0
M  V30 5127 O 520.451 2.41333 -3.34413 0
M  V30 5128 H 519.792 0.164994 -0.643174 0
M  V30 5129 H 522.322 -0.120407 -2.04245 0
M  V30 5130 H 522.332 1.64918 -3.73184 0
M  V30 5131 H 521.007 0.564361 -4.12053 0
M  V30 5132 H 519.584 2.08122 -3.09418 0
M  V30 5133 N 521.769 1.56035 0.221574 0
M  V30 5134 C 523.017 1.78693 0.944102 0
M  V30 5135 C 523.338 0.620317 1.8487 0
M  V30 5136 O 522.608 -0.362784 1.92512 0
M  V30 5137 H 521.188 0.659082 0.351597 0
M  V30 5138 H 523.85 1.93497 0.233435 0
M  V30 5139 H 522.946 2.70837 1.55093 0
M  V30 5140 N 523.247 -0.488276 1.49845 0
M  V30 5141 C 524.493 -1.24341 1.6021 0
M  V30 5142 C 524.826 -1.91967 0.293651 0
M  V30 5143 O 524.101 -1.81323 -0.703718 0
M  V30 5144 C 524.384 -2.3005 2.77036 0
M  V30 5145 C 524.237 -1.66842 4.17713 0
M  V30 5146 C 525.556 -3.31509 2.89464 0
M  V30 5147 H 522.675 -0.450704 0.583125 0
M  V30 5148 H 525.317 -0.539673 1.82174 0
M  V30 5149 H 523.467 -2.90071 2.58439 0
M  V30 5150 H 525.139 -1.1055 4.47858 0
M  V30 5151 H 523.382 -0.972079 4.22768 0
M  V30 5152 H 524.053 -2.43576 4.95353 0
M  V30 5153 H 526.529 -2.81493 3.06433 0
M  V30 5154 H 525.405 -4.02822 3.72861 0
M  V30 5155 H 525.666 -3.94603 1.99351 0
M  V30 5156 N 524.725 -1.39134 -0.740242 0
M  V30 5157 C 525.655 -1.40165 -1.86751 0
M  V30 5158 C 526.636 -0.265708 -1.68012 0
M  V30 5159 O 527.821 -0.47076 -1.88408 0
M  V30 5160 C 524.951 -1.2392 -3.2444 0
M  V30 5161 C 523.905 -2.34858 -3.57807 0
M  V30 5162 C 523.231 -2.03707 -4.94376 0
M  V30 5163 C 524.531 -3.77159 -3.61315 0
M  V30 5164 H 526.225 -2.345 -1.86145 0
M  V30 5165 H 523.771 -1.12875 -0.89416 0
M  V30 5166 H 525.724 -1.23263 -4.02969 0
M  V30 5167 H 524.448 -0.26051 -3.25559 0
M  V30 5168 H 523.107 -2.34723 -2.81604 0
M  V30 5169 H 522.755 -1.04289 -4.9207 0
M  V30 5170 H 522.455 -2.78016 -5.17669 0
M  V30 5171 H 523.979 -2.04691 -5.75268 0
M  V30 5172 H 525.393 -3.79252 -4.29931 0
M  V30 5173 H 523.79 -4.50784 -3.96124 0
M  V30 5174 H 524.86 -4.08513 -2.61238 0
M  V30 5175 N 526.204 0.969867 -1.24223 0
M  V30 5176 C 527.134 2.08191 -1.05729 0
M  V30 5177 C 528.115 1.70075 0.0290765 0
M  V30 5178 O 529.3 1.93712 -0.137583 0
M  V30 5179 C 526.43 3.40991 -0.658995 0
M  V30 5180 C 525.384 3.93054 -1.69389 0
M  V30 5181 C 524.71 5.22171 -1.15072 0
M  V30 5182 C 526.01 4.21137 -3.08935 0
M  V30 5183 H 527.704 2.23921 -1.98746 0
M  V30 5184 H 525.25 1.07602 -0.956967 0
M  V30 5185 H 527.203 4.18221 -0.51662 0
M  V30 5186 H 525.927 3.25155 0.30686 0
M  V30 5187 H 524.586 3.17977 -1.82444 0
M  V30 5188 H 524.234 5.02694 -0.175539 0
M  V30 5189 H 523.934 5.57973 -1.84229 0
M  V30 5190 H 525.458 6.02013 -1.02042 0
M  V30 5191 H 526.872 4.8908 -2.99121 0
M  V30 5192 H 525.269 4.68163 -3.75425 0
M  V30 5193 H 526.339 3.27996 -3.57137 0
M  V30 5194 N 527.682 1.05563 1.17022 0
M  V30 5195 C 528.907 0.788437 1.91829 0
M  V30 5196 C 529.332 -0.650356 1.76499 0
M  V30 5197 O 528.69 -1.45229 1.08527 0
M  V30 5198 C 528.738 1.1786 3.40795 0
M  V30 5199 O 527.842 0.312965 4.11211 0
M  V30 5200 H 527.183 0.288794 0.597908 0
M  V30 5201 H 529.713 1.40948 1.48307 0
M  V30 5202 H 529.723 1.14697 3.91546 0
M  V30 5203 H 528.398 2.22666 3.51273 0
M  V30 5204 H 526.975 0.405515 3.70689 0
M  V30 5205 N 529.16 -1.33526 0.837174 0
M  V30 5206 C 530.123 -2.27551 0.274421 0
M  V30 5207 C 531.123 -1.50886 -0.555881 0
M  V30 5208 O 532.313 -1.70227 -0.369918 0
M  V30 5209 C 529.445 -3.35332 -0.613605 0
M  V30 5210 H 530.638 -2.78837 1.10408 0
M  V30 5211 H 528.191 -1.439 0.610126 0
M  V30 5212 H 528.926 -2.89285 -1.46577 0
M  V30 5213 H 528.711 -3.92095 -0.0195341 0
M  V30 5214 H 530.201 -4.05433 -1.00068 0
M  V30 5215 N 530.638 -0.59345 -1.46 0
M  V30 5216 C 531.568 0.121192 -2.33185 0
M  V30 5217 C 532.549 0.872977 -1.4599 0
M  V30 5218 O 533.734 0.846321 -1.74789 0
M  V30 5219 C 530.864 1.12844 -3.28456 0
M  V30 5220 C 529.818 0.4908 -4.25177 0
M  V30 5221 C 529.144 1.60529 -5.10034 0
M  V30 5222 C 530.444 -0.578949 -5.19081 0
M  V30 5223 H 532.138 -0.606767 -2.93187 0
M  V30 5224 H 529.684 -0.293242 -1.40983 0
M  V30 5225 H 531.637 1.63684 -3.88311 0
M  V30 5226 H 530.361 1.88681 -2.66584 0
M  V30 5227 H 529.02 0.00339328 -3.666 0
M  V30 5228 H 528.668 2.35359 -4.44539 0
M  V30 5229 H 528.368 1.18422 -5.75543 0
M  V30 5230 H 529.892 2.11623 -5.72755 0
M  V30 5231 H 531.306 -0.155199 -5.7309 0
M  V30 5232 H 529.703 -0.920947 -5.92991 0
M  V30 5233 H 530.773 -1.46109 -4.62364 0
M  V30 5234 N 532.116 1.54067 -0.331816 0
M  V30 5235 C 533.066 2.21363 0.546101 0
M  V30 5236 C 534.05 1.19698 1.07523 0
M  V30 5237 O 535.242 1.45293 1.01088 0
M  V30 5238 C 532.371 2.98115 1.70242 0
M  V30 5239 C 531.457 4.07127 1.18779 0
M  V30 5240 N 531.848 5.04267 0.393465 0
M  V30 5241 C 530.146 4.21226 1.46576 0
M  V30 5242 C 530.847 5.81585 0.115572 0
M  V30 5243 N 529.823 5.39022 0.703987 0
M  V30 5244 H 533.625 2.93821 -0.0679751 0
M  V30 5245 H 531.139 1.61812 -0.138085 0
M  V30 5246 H 533.136 3.44818 2.34321 0
M  V30 5247 H 531.796 2.27181 2.31989 0
M  V30 5248 H 532.807 5.17888 0.0355757 0
M  V30 5249 H 529.484 3.61509 2.08848 0
M  V30 5250 H 530.874 6.6985 -0.524426 0
M  V30 5251 N 533.594 0.0601682 1.57485 0
M  V30 5252 C 534.524 -0.90889 2.15085 0
M  V30 5253 C 535.505 -1.31838 1.07484 0
M  V30 5254 O 536.69 -1.3915 1.35466 0
M  V30 5255 C 533.82 -2.18059 2.7031 0
M  V30 5256 C 532.774 -1.91088 3.82974 0
M  V30 5257 C 532.1 -3.24789 4.24754 0
M  V30 5258 C 533.4 -1.22535 5.07723 0
M  V30 5259 H 535.094 -0.429093 2.96309 0
M  V30 5260 H 532.64 -0.204952 1.42534 0
M  V30 5261 H 534.593 -2.86258 3.09248 0
M  V30 5262 H 533.317 -2.6826 1.8629 0
M  V30 5263 H 531.976 -1.25297 3.44523 0
M  V30 5264 H 531.624 -3.72809 3.37672 0
M  V30 5265 H 531.324 -3.07538 5.00694 0
M  V30 5266 H 532.848 -3.94205 4.66299 0
M  V30 5267 H 534.262 -1.80783 5.4405 0
M  V30 5268 H 532.659 -1.1558 5.88864 0
M  V30 5269 H 533.729 -0.202692 4.84476 0
M  V30 5270 N 535.072 -1.5615 -0.213296 0
M  V30 5271 C 536.035 -1.92249 -1.24792 0
M  V30 5272 C 537.035 -0.801828 -1.39382 0
M  V30 5273 O 538.225 -1.06948 -1.37506 0
M  V30 5274 C 535.357 -2.18056 -2.62039 0
M  V30 5275 H 536.55 -2.84793 -0.939845 0
M  V30 5276 H 534.103 -1.49559 -0.454062 0
M  V30 5277 H 534.838 -1.2809 -2.97932 0
M  V30 5278 H 534.623 -2.99703 -2.52825 0
M  V30 5279 H 536.113 -2.47051 -3.36683 0
M  V30 5280 N 536.55 0.480323 -1.50102 0
M  V30 5281 C 537.799 1.22979 -1.59872 0
M  V30 5282 C 538.112 1.93282 -0.30022 0
M  V30 5283 O 539.318 2.70086 -0.276709 0
M  V30 5284 C 537.774 2.23408 -2.82164 0
M  V30 5285 C 537.382 1.5895 -4.18854 0
M  V30 5286 C 539.126 2.99055 -3.01275 0
M  V30 5287 C 537.033 2.57611 -5.32344 0
M  V30 5288 H 535.963 0.462707 -0.59533 0
M  V30 5289 H 538.614 0.501291 -1.7652 0
M  V30 5290 H 536.996 2.99511 -2.59055 0
M  V30 5291 H 538.17 0.887 -4.52182 0
M  V30 5292 H 536.485 0.956191 -4.05273 0
M  V30 5293 H 539.082 3.72876 -3.83233 0
M  V30 5294 H 539.425 3.57897 -2.12639 0
M  V30 5295 H 539.958 2.30066 -3.24522 0
M  V30 5296 H 536.697 2.03521 -6.23105 0
M  V30 5297 H 536.217 3.26041 -5.03445 0
M  V30 5298 H 537.896 3.19627 -5.62537 0
M  V30 5299 N 538.028 1.39524 0.732853 0
M  V30 5300 C 538.991 1.38189 1.82857 0
M  V30 5301 C 539.991 0.278624 1.58368 0
M  V30 5302 O 541.181 0.536639 1.65728 0
M  V30 5303 C 538.313 1.15661 3.2068 0
M  V30 5304 H 539.506 2.35692 1.85444 0
M  V30 5305 H 537.059 1.2512 0.936728 0
M  V30 5306 H 537.794 0.188482 3.23752 0
M  V30 5307 H 537.579 1.95559 3.39852 0
M  V30 5308 H 539.069 1.17472 4.00737 0
M  V30 5309 N 539.506 -0.963266 1.24736 0
M  V30 5310 C 540.436 -2.07628 1.06832 0
M  V30 5311 C 541.417 -1.70088 -0.0200566 0
M  V30 5312 O 542.602 -1.93636 0.147854 0
M  V30 5313 C 539.732 -3.40636 0.677069 0
M  V30 5314 C 538.686 -3.9215 1.71471 0
M  V30 5315 C 538.012 -5.21553 1.1784 0
M  V30 5316 C 539.312 -4.19493 3.11164 0
M  V30 5317 H 541.006 -2.22864 1.9993 0
M  V30 5318 H 538.552 -1.07093 0.96266 0
M  V30 5319 H 540.505 -4.17941 0.538792 0
M  V30 5320 H 539.229 -3.25313 -0.289612 0
M  V30 5321 H 537.888 -3.17005 1.84128 0
M  V30 5322 H 537.536 -5.02593 0.202195 0
M  V30 5323 H 537.236 -5.56988 1.87185 0
M  V30 5324 H 538.76 -6.01463 1.05233 0
M  V30 5325 H 540.174 -4.87487 3.01711 0
M  V30 5326 H 538.571 -4.66165 3.77902 0
M  V30 5327 H 539.641 -3.26097 3.58871 0
M  V30 5328 N 540.985 -1.06182 -1.16461 0
M  V30 5329 C 542.401 -0.785065 -1.38956 0
M  V30 5330 C 542.601 0.616103 -1.9185 0
M  V30 5331 O 541.657 1.37686 -2.11657 0
M  V30 5332 C 542.97 -1.84902 -2.37132 0
M  V30 5333 C 544.518 -1.8724 -2.50819 0
M  V30 5334 C 544.993 -2.92686 -3.52277 0
M  V30 5335 N 546.484 -2.91712 -3.59803 0
M  V30 5336 C 547.219 -3.69949 -4.38093 0
M  V30 5337 N 546.715 -4.58 -5.19815 0
M  V30 5338 N 548.508 -3.58346 -4.33064 0
M  V30 5339 H 540.659 -1.96569 -0.804634 0
M  V30 5340 H 542.922 -0.851747 -0.416211 0
M  V30 5341 H 542.628 -2.85518 -2.0536 0
M  V30 5342 H 542.502 -1.69908 -3.36766 0
M  V30 5343 H 544.889 -0.872827 -2.81897 0
M  V30 5344 H 544.97 -2.06311 -1.51226 0
M  V30 5345 H 544.614 -3.92835 -3.21937 0
M  V30 5346 H 544.544 -2.70864 -4.51598 0
M  V30 5347 H 547.035 -2.27876 -3.01464 0
M  V30 5348 H 547.348 -5.14357 -5.76764 0
M  V30 5349 H 545.693 -4.62056 -5.19162 0
M  V30 5350 H 548.884 -2.88943 -3.68279 0
M  V30 5351 H 549.057 -4.19563 -4.93833 0
M  V30 5352 N 542.463 1.3308 -0.844243 0
M  V30 5353 C 543.691 2.01808 -0.456203 0
M  V30 5354 C 544.106 1.63498 0.944131 0
M  V30 5355 O 543.463 0.85102 1.61443 0
M  V30 5356 C 543.514 3.56922 -0.573513 0
M  V30 5357 O 543.235 3.93851 -1.91868 0
M  V30 5358 C 544.736 4.42922 -0.183125 0
M  V30 5359 H 541.956 0.646273 -0.180477 0
M  V30 5360 H 544.5 1.69891 -1.1383 0
M  V30 5361 H 542.655 3.87352 0.0607367 0
M  V30 5362 H 543.069 4.88564 -1.90802 0
M  V30 5363 H 544.543 5.51093 -0.316241 0
M  V30 5364 H 545.02 4.30386 0.875477 0
M  V30 5365 H 545.626 4.1786 -0.792027 0
M  V30 5366 N 543.941 0.601185 1.45683 0
M  V30 5367 C 544.889 -0.133955 2.32214 0
M  V30 5368 C 545.883 -0.866034 1.45589 0
M  V30 5369 O 547.089 -0.782326 1.6211 0
M  V30 5370 H 543.464 -0.0620613 0.749435 0
M  V30 5371 H 545.435 0.614389 2.92007 0
M  V30 5372 C 544.184 -1.12216 3.29094 0
M  V30 5373 H 543.507 -0.568273 3.95741 0
M  V30 5374 H 544.947 -1.60659 3.92383 0
M  V30 5375 C 543.406 -2.19251 2.55794 0
M  V30 5376 O 543.936 -3.26894 2.33459 0
M  V30 5377 N 542.142 -1.9436 2.16039 0
M  V30 5378 H 541.689 -1.06829 2.34404 0
M  V30 5379 H 541.647 -2.66181 1.67318 0
M  V30 5380 N 545.419 -1.53889 0.339982 0
M  V30 5381 C 546.382 -2.23547 -0.50592 0
M  V30 5382 C 547.382 -1.23445 -1.03044 0
M  V30 5383 O 548.572 -1.47909 -0.920253 0
M  V30 5384 C 545.704 -2.95234 -1.7044 0
M  V30 5385 H 546.897 -2.99722 0.103247 0
M  V30 5386 H 544.45 -1.56033 0.0912804 0
M  V30 5387 H 545.185 -2.23236 -2.35236 0
M  V30 5388 H 544.97 -3.68654 -1.33553 0
M  V30 5389 H 546.46 -3.48258 -2.30447 0
M  V30 5390 N 546.897 -0.0685191 -1.57451 0
M  V30 5391 C 547.829 0.929372 -2.09512 0
M  V30 5392 C 548.842 1.26354 -1.02657 0
M  V30 5393 O 550.031 1.2213 -1.30179 0
M  V30 5394 C 547.131 2.24612 -2.53777 0
M  V30 5395 C 546.304 2.09128 -3.84167 0
M  V30 5396 C 545.363 3.24079 -4.14559 0
M  V30 5397 O 544.389 2.99215 -4.8421 0
M  V30 5398 N 545.591 4.49077 -3.67845 0
M  V30 5399 H 548.356 0.484901 -2.95751 0
M  V30 5400 H 545.917 0.11729 -1.61475 0
M  V30 5401 H 547.909 3.00412 -2.71172 0
M  V30 5402 H 546.479 2.60569 -1.72692 0
M  V30 5403 H 545.699 1.17815 -3.76182 0
M  V30 5404 H 546.987 1.9603 -4.69521 0
M  V30 5405 H 546.385 4.72165 -3.11571 0
M  V30 5406 H 544.942 5.21915 -3.90446 0
M  V30 5407 N 548.375 1.56261 0.205012 0
M  V30 5408 C 549.652 1.70856 0.952233 0
M  V30 5409 C 550.032 0.620501 2.01775 0
M  V30 5410 O 549.38 -0.370035 2.25484 0
M  V30 5411 C 549.59 3.12807 1.54767 0
M  V30 5412 C 550.938 3.72733 2.0336 0
M  V30 5413 O 551.962 3.15873 1.64629 0
M  V30 5414 O 550.821 4.72501 2.746 0
M  V30 5415 H 547.915 0.696496 0.445895 0
M  V30 5416 H 550.461 1.6857 0.195489 0
M  V30 5417 H 549.233 3.83465 0.779132 0
M  V30 5418 H 548.856 3.1928 2.36951 0
M  V30 5419 N 549.853 -0.472356 1.50355 0
M  V30 5420 C 550.785 -1.58795 1.65278 0
M  V30 5421 C 551.798 -1.53782 0.534313 0
M  V30 5422 O 552.987 -1.59193 0.807446 0
M  V30 5423 C 550.087 -2.97672 1.62001 0
M  V30 5424 C 549.26 -3.27568 2.89859 0
M  V30 5425 C 548.319 -4.45993 2.79242 0
M  V30 5426 O 547.345 -4.46364 3.53197 0
M  V30 5427 N 548.547 -5.47578 1.92713 0
M  V30 5428 H 551.312 -1.46411 2.61503 0
M  V30 5429 H 548.873 -0.660751 1.47803 0
M  V30 5430 H 550.865 -3.74862 1.52513 0
M  V30 5431 H 549.435 -3.03832 0.735159 0
M  V30 5432 H 548.655 -2.39003 3.13483 0
M  V30 5433 H 549.943 -3.44352 3.74565 0
M  V30 5434 H 549.341 -5.50099 1.31939 0
M  V30 5435 H 547.898 -6.23757 1.8913 0
M  V30 5436 N 551.331 -1.39911 -0.725443 0
M  V30 5437 C 552.578 -1.37654 -1.48518 0
M  V30 5438 C 552.906 0.0243982 -1.94485 0
M  V30 5439 O 552.161 1.00708 -1.67799 0
M  V30 5440 C 552.46 -2.30368 -2.7325 0
M  V30 5441 C 552.126 -3.77817 -2.461 0
M  V30 5442 C 550.788 -4.17991 -2.38405 0
M  V30 5443 C 553.14 -4.71036 -2.23103 0
M  V30 5444 C 550.468 -5.49433 -2.05768 0
M  V30 5445 C 552.82 -6.02766 -1.9198 0
M  V30 5446 C 551.484 -6.41993 -1.82761 0
M  V30 5447 H 550.754 -0.503713 -0.543465 0
M  V30 5448 H 553.401 -1.7249 -0.831822 0
M  V30 5449 H 551.706 -1.88683 -3.43375 0
M  V30 5450 H 553.403 -2.2591 -3.31309 0
M  V30 5451 H 549.993 -3.45982 -2.52972 0
M  V30 5452 H 554.177 -4.40823 -2.2801 0
M  V30 5453 H 549.433 -5.78738 -1.9716 0
M  V30 5454 H 553.607 -6.74519 -1.73197 0
M  V30 5455 H 551.234 -7.43761 -1.57237 0
M  V30 5456 N 552.809 0.956637 -1.25245 0
M  V30 5457 C 553.739 2.07058 -1.07931 0
M  V30 5458 C 554.72 1.70096 0.0110361 0
M  V30 5459 O 555.905 1.93555 -0.158121 0
M  V30 5460 C 553.035 3.40272 -0.695124 0
M  V30 5461 C 551.989 3.91235 -1.73549 0
M  V30 5462 C 551.315 5.20921 -1.20604 0
M  V30 5463 C 552.615 4.17837 -3.13385 0
M  V30 5464 H 554.309 2.218 -2.01109 0
M  V30 5465 H 551.855 1.06581 -0.968326 0
M  V30 5466 H 553.808 4.1765 -0.560949 0
M  V30 5467 H 552.532 3.25462 0.272355 0
M  V30 5468 H 551.191 3.16025 -1.85807 0
M  V30 5469 H 550.839 5.02479 -0.228846 0
M  V30 5470 H 550.539 5.55987 -1.90136 0
M  V30 5471 H 552.063 6.00897 -1.08421 0
M  V30 5472 H 553.477 4.8588 -3.04292 0
M  V30 5473 H 551.874 4.64154 -3.80369 0
M  V30 5474 H 552.944 3.2419 -3.60595 0
M  V30 5475 N 554.287 1.06798 1.15896 0
M  V30 5476 C 555.217 0.704677 2.22613 0
M  V30 5477 C 556.198 -0.305252 1.67339 0
M  V30 5478 O 557.383 -0.179247 1.93371 0
M  V30 5479 C 554.513 0.0957325 3.47168 0
M  V30 5480 C 553.467 1.0322 4.15367 0
M  V30 5481 C 552.793 0.286293 5.33933 0
M  V30 5482 C 554.093 2.36341 4.65768 0
M  V30 5483 H 555.787 1.59688 2.53259 0
M  V30 5484 H 553.333 0.769257 1.21731 0
M  V30 5485 H 555.286 -0.170333 4.21056 0
M  V30 5486 H 554.01 -0.831516 3.15838 0
M  V30 5487 H 552.669 1.28309 3.43413 0
M  V30 5488 H 552.317 -0.644237 4.98857 0
M  V30 5489 H 552.017 0.910436 5.80504 0
M  V30 5490 H 553.541 0.0278938 6.10594 0
M  V30 5491 H 554.955 2.1561 5.31211 0
M  V30 5492 H 553.352 2.94299 5.2298 0
M  V30 5493 H 554.422 2.99047 3.81705 0
M  V30 5494 N 555.766 -1.3263 0.851289 0
M  V30 5495 C 556.713 -2.28952 0.291469 0
M  V30 5496 C 557.683 -1.54897 -0.599676 0
M  V30 5497 O 558.868 -1.83137 -0.535305 0
M  V30 5498 C 556.008 -3.41206 -0.516992 0
M  V30 5499 C 555.121 -4.30148 0.399566 0
M  V30 5500 C 554.256 -5.29527 -0.4212 0
M  V30 5501 C 553.295 -6.10112 0.492969 0
M  V30 5502 N 552.432 -7.01499 -0.290414 0
M  V30 5503 H 557.272 -2.76228 1.11813 0
M  V30 5504 H 554.809 -1.35907 0.562826 0
M  V30 5505 H 556.767 -4.05005 -1.00132 0
M  V30 5506 H 555.397 -2.9509 -1.30851 0
M  V30 5507 H 554.449 -3.66959 1.00227 0
M  V30 5508 H 555.761 -4.8649 1.1013 0
M  V30 5509 H 554.915 -5.98914 -0.968832 0
M  V30 5510 H 553.654 -4.73794 -1.15632 0
M  V30 5511 H 552.659 -5.39632 1.05251 0
M  V30 5512 H 553.884 -6.6793 1.22664 0
M  V30 5513 H 551.83 -6.48199 -1.00868 0
M  V30 5514 H 551.747 -7.55178 0.352354 0
M  V30 5515 H 553.015 -7.75176 -0.819882 0
M  V30 5516 N 557.244 -0.608902 -1.45362 0
M  V30 5517 C 558.176 0.147318 -2.28726 0
M  V30 5518 C 559.189 0.830468 -1.40025 0
M  V30 5519 O 560.378 0.695636 -1.64387 0
M  V30 5520 C 557.478 1.22968 -3.15804 0
M  V30 5521 C 556.651 0.633391 -4.3279 0
M  V30 5522 C 555.71 1.60682 -5.01067 0
M  V30 5523 O 554.736 1.13261 -5.57818 0
M  V30 5524 N 555.938 2.94123 -5.00472 0
M  V30 5525 H 558.703 -0.568014 -2.94268 0
M  V30 5526 H 556.264 -0.448479 -1.55564 0
M  V30 5527 H 558.256 1.88072 -3.58345 0
M  V30 5528 H 556.826 1.84752 -2.52162 0
M  V30 5529 H 556.046 -0.195762 -3.93714 0
M  V30 5530 H 557.334 0.215255 -5.08344 0
M  V30 5531 H 556.732 3.3525 -4.55657 0
M  V30 5532 H 555.289 3.54646 -5.46872 0
M  V30 5533 N 558.722 1.53707 -0.348139 0
M  V30 5534 C 559.652 2.28111 0.498766 0
M  V30 5535 C 560.633 1.29851 1.09876 0
M  V30 5536 O 561.818 1.587 1.11928 0
M  V30 5537 C 558.948 3.05735 1.64753 0
M  V30 5538 C 557.902 4.11537 1.17565 0
M  V30 5539 C 557.228 4.77142 2.4133 0
M  V30 5540 C 558.528 5.21587 0.272844 0
M  V30 5541 H 560.222 2.99152 -0.121934 0
M  V30 5542 H 557.768 1.43875 -0.0600842 0
M  V30 5543 H 559.721 3.56526 2.24649 0
M  V30 5544 H 558.445 2.32354 2.2952 0
M  V30 5545 H 557.104 3.61665 0.599483 0
M  V30 5546 H 556.752 4.0035 3.04514 0
M  V30 5547 H 556.452 5.48626 2.10436 0
M  V30 5548 H 557.976 5.30719 3.01943 0
M  V30 5549 H 559.39 5.67986 0.778779 0
M  V30 5550 H 557.787 6.00074 0.0555849 0
M  V30 5551 H 558.857 4.79969 -0.689785 0
M  V30 5552 N 560.2 0.0768682 1.57412 0
M  V30 5553 C 561.446 -0.591961 1.93968 0
M  V30 5554 C 561.779 -1.68954 0.9575 0
M  V30 5555 O 561.054 -1.94496 -0.0124675 0
M  V30 5556 C 561.337 -1.16418 3.40762 0
M  V30 5557 C 561.19 -0.0728933 4.49741 0
M  V30 5558 C 562.509 -2.06814 3.88479 0
M  V30 5559 H 559.628 -0.213716 0.705333 0
M  V30 5560 H 562.27 0.14387 1.89455 0
M  V30 5561 H 560.42 -1.79128 3.4474 0
M  V30 5562 H 562.092 0.560446 4.57883 0
M  V30 5563 H 560.335 0.595859 4.29688 0
M  V30 5564 H 561.006 -0.513755 5.49604 0
M  V30 5565 H 563.482 -1.54033 3.8654 0
M  V30 5566 H 562.358 -2.43785 4.91793 0
M  V30 5567 H 562.619 -2.97844 3.26713 0
M  V30 5568 N 561.678 -1.56367 -0.196722 0
M  V30 5569 C 562.903 -1.84991 -0.937714 0
M  V30 5570 C 563.328 -0.660244 -1.76132 0
M  V30 5571 O 562.686 0.390967 -1.77034 0
M  V30 5572 C 562.734 -3.11828 -1.81096 0
M  V30 5573 O 561.838 -2.92266 -2.90955 0
M  V30 5574 H 561.179 -0.609193 -0.264159 0
M  V30 5575 H 563.709 -2.03595 -0.202529 0
M  V30 5576 H 563.719 -3.42579 -2.21594 0
M  V30 5577 H 562.394 -3.98037 -1.2058 0
M  V30 5578 H 560.971 -2.72809 -2.54224 0
M  V30 5579 N 563.156 0.464375 -1.50603 0
M  V30 5580 C 564.104 1.58224 -1.70493 0
M  V30 5581 C 565.098 1.59492 -0.570836 0
M  V30 5582 O 566.304 1.63561 -0.751517 0
M  V30 5583 H 562.679 0.525161 -0.538247 0
M  V30 5584 H 564.65 1.38613 -2.64252 0
M  V30 5585 C 563.399 2.96113 -1.82243 0
M  V30 5586 H 562.722 2.95858 -2.68901 0
M  V30 5587 H 564.162 3.73769 -2.00182 0
M  V30 5588 C 562.621 3.31946 -0.575628 0
M  V30 5589 O 563.151 4.00708 0.282152 0
M  V30 5590 N 561.357 2.87436 -0.427665 0
M  V30 5591 H 560.904 2.31652 -1.12674 0
M  V30 5592 H 560.862 3.11776 0.405379 0
M  V30 5593 N 564.634 1.40294 0.718013 0
M  V30 5594 C 565.88 1.38645 1.48005 0
M  V30 5595 C 566.213 -0.0121202 1.94196 0
M  V30 5596 O 565.488 -0.980309 1.67989 0
M  V30 5597 C 565.771 2.37379 2.70782 0
M  V30 5598 C 565.624 3.8625 2.30501 0
M  V30 5599 C 566.943 2.33685 3.72933 0
M  V30 5600 H 564.062 0.504928 0.536858 0
M  V30 5601 H 566.704 1.71411 0.819649 0
M  V30 5602 H 564.854 2.09568 3.27129 0
M  V30 5603 H 566.526 4.24879 1.79655 0
M  V30 5604 H 564.769 4.02202 1.6253 0
M  V30 5605 H 565.44 4.50847 3.18498 0
M  V30 5606 H 567.916 2.58314 3.2621 0
M  V30 5607 H 566.792 3.0482 4.56482 0
M  V30 5608 H 567.053 1.34765 4.21059 0
M  V30 5609 N 566.112 -0.949982 1.2575 0
M  V30 5610 C 567.042 -2.06483 1.09028 0
M  V30 5611 C 568.023 -1.701 -0.00201532 0
M  V30 5612 O 569.208 -1.93469 0.168383 0
M  V30 5613 C 566.338 -3.39899 0.71316 0
M  V30 5614 C 565.292 -3.90309 1.75621 0
M  V30 5615 C 564.618 -5.20274 1.23365 0
M  V30 5616 C 565.918 -4.16169 3.15596 0
M  V30 5617 H 567.612 -2.20731 2.02283 0
M  V30 5618 H 565.158 -1.06066 0.973964 0
M  V30 5619 H 567.111 -4.17346 0.58309 0
M  V30 5620 H 565.835 -3.25602 -0.255091 0
M  V30 5621 H 564.494 -3.15035 1.8748 0
M  V30 5622 H 564.142 -5.02351 0.255491 0
M  V30 5623 H 563.842 -5.54971 1.93082 0
M  V30 5624 H 565.366 -6.00314 1.11607 0
M  V30 5625 H 566.78 -4.84259 3.06864 0
M  V30 5626 H 565.177 -4.62131 3.82825 0
M  V30 5627 H 566.247 -3.22273 3.6231 0
M  V30 5628 N 567.59 -1.07411 -1.15328 0
M  V30 5629 C 568.839 -0.792643 -1.85473 0
M  V30 5630 C 569.152 0.683789 -1.83259 0
M  V30 5631 O 570.358 1.08005 -2.49093 0
M  V30 5632 C 568.814 -1.36787 -3.32892 0
M  V30 5633 C 568.422 -2.87536 -3.43551 0
M  V30 5634 C 570.166 -1.16444 -4.08217 0
M  V30 5635 C 568.073 -3.38247 -4.85122 0
M  V30 5636 H 567.003 -0.292838 -0.694811 0
M  V30 5637 H 569.654 -1.29426 -1.30082 0
M  V30 5638 H 568.036 -0.793993 -3.87958 0
M  V30 5639 H 569.21 -3.50973 -2.98588 0
M  V30 5640 H 567.525 -3.06676 -2.81672 0
M  V30 5641 H 570.122 -1.51808 -5.12697 0
M  V30 5642 H 570.465 -0.10353 -4.16171 0
M  V30 5643 H 570.998 -1.70472 -3.59422 0
M  V30 5644 H 567.737 -4.43866 -4.82351 0
M  V30 5645 H 567.257 -2.79564 -5.30664 0
M  V30 5646 H 568.936 -3.34238 -5.5398 0
M  V30 5647 N 569.068 1.32177 -0.85831 0
M  V30 5648 C 570.315 1.97125 -0.463484 0
M  V30 5649 C 570.643 1.67907 0.981705 0
M  V30 5650 O 569.898 0.961717 1.70439 0
M  V30 5651 C 570.197 3.51372 -0.653658 0
M  V30 5652 C 569.863 4.00584 -2.06987 0
M  V30 5653 C 568.525 4.13733 -2.4572 0
M  V30 5654 C 570.877 4.26624 -2.99402 0
M  V30 5655 C 568.205 4.50268 -3.76132 0
M  V30 5656 C 570.557 4.64618 -4.29316 0
M  V30 5657 C 569.221 4.75975 -4.67979 0
M  V30 5658 H 568.491 0.72133 -0.169601 0
M  V30 5659 H 571.138 1.57517 -1.08907 0
M  V30 5660 H 569.443 3.91761 0.0551328 0
M  V30 5661 H 571.14 3.99655 -0.328163 0
M  V30 5662 H 567.73 3.90837 -1.75911 0
M  V30 5663 H 571.914 4.1597 -2.70708 0
M  V30 5664 H 567.17 4.57256 -4.05865 0
M  V30 5665 H 571.344 4.83722 -5.00985 0
M  V30 5666 H 568.971 5.04041 -5.69076 0
M  V30 5667 N 570.547 0.616602 1.45037 0
M  V30 5668 C 571.772 0.120192 2.07051 0
M  V30 5669 C 572.197 -1.19008 1.45666 0
M  V30 5670 O 571.555 -1.7267 0.552692 0
M  V30 5671 C 571.603 0.00354901 3.606 0
M  V30 5672 O 570.707 -1.04431 3.98958 0
M  V30 5673 H 570.048 0.0781599 0.659384 0
M  V30 5674 H 572.578 0.849167 1.86146 0
M  V30 5675 H 572.588 -0.191754 4.07549 0
M  V30 5676 H 571.263 0.960239 4.04663 0
M  V30 5677 H 569.84 -0.824749 3.63665 0
M  V30 5678 N 572.025 -1.5352 0.356285 0
M  V30 5679 C 573.265 -2.03027 -0.23649 0
M  V30 5680 C 573.629 -1.23813 -1.46746 0
M  V30 5681 O 574.83 -1.63281 -2.13525 0
M  V30 5682 C 573.101 -3.53442 -0.530415 0
M  V30 5683 S 574.66 -4.24836 -1.09819 0
M  V30 5684 H 571.478 -0.707591 -0.0695378 0
M  V30 5685 H 574.08 -1.89077 0.496999 0
M  V30 5686 H 572.784 -4.087 0.373114 0
M  V30 5687 H 572.315 -3.71536 -1.29323 0
M  V30 5688 H 574.33 -4.35228 -2.38309 0
M  V30 5689 N 573.503 -0.0852151 -1.57369 0
M  V30 5690 C 574.731 0.58946 -1.98325 0
M  V30 5691 C 575.146 1.62333 -0.96403 0
M  V30 5692 O 574.503 1.82438 0.0476395 0
M  V30 5693 C 574.554 1.24604 -3.39347 0
M  V30 5694 O 574.275 0.253532 -4.37366 0
M  V30 5695 C 575.776 2.00726 -3.95252 0
M  V30 5696 H 572.996 0.158783 -0.651942 0
M  V30 5697 H 575.54 -0.161584 -2.03861 0
M  V30 5698 H 573.695 1.94808 -3.34856 0
M  V30 5699 H 574.109 0.726207 -5.19448 0
M  V30 5700 H 575.583 2.42039 -4.96106 0
M  V30 5701 H 576.06 2.86919 -3.32527 0
M  V30 5702 H 576.666 1.3536 -4.03185 0
M  V30 5703 N 574.981 1.5647 0.188427 0
M  V30 5704 C 575.929 1.95971 1.25293 0
M  V30 5705 C 576.923 0.846047 1.4676 0
M  V30 5706 O 578.129 1.03109 1.47542 0
M  V30 5707 H 574.504 0.623253 0.420784 0
M  V30 5708 H 576.475 2.84731 0.892792 0
M  V30 5709 C 575.224 2.32116 2.58877 0
M  V30 5710 H 574.547 3.17341 2.43176 0
M  V30 5711 H 575.987 2.63613 3.3209 0
M  V30 5712 C 574.446 1.15823 3.16365 0
M  V30 5713 O 574.976 0.436785 3.99318 0
M  V30 5714 N 573.182 0.933278 2.75206 0
M  V30 5715 H 572.729 1.52169 2.07852 0
M  V30 5716 H 572.687 0.156976 3.14008 0
M  V30 5717 N 576.459 -0.456382 1.50847 0
M  V30 5718 C 577.708 -1.2042 1.61808 0
M  V30 5719 C 578.021 -1.9278 0.330932 0
M  V30 5720 O 579.227 -2.69612 0.319643 0
M  V30 5721 C 577.683 -2.18891 2.85683 0
M  V30 5722 C 577.291 -1.52267 4.2133 0
M  V30 5723 C 579.035 -2.94224 3.05994 0
M  V30 5724 C 576.942 -2.4911 5.36375 0
M  V30 5725 H 575.872 -0.453177 0.602616 0
M  V30 5726 H 578.523 -0.473144 1.77295 0
M  V30 5727 H 576.905 -2.95351 2.63787 0
M  V30 5728 H 578.079 -0.814949 4.53536 0
M  V30 5729 H 576.394 -0.891594 4.06743 0
M  V30 5730 H 578.991 -3.66732 3.89117 0
M  V30 5731 H 579.334 -3.54469 2.18306 0
M  V30 5732 H 579.867 -2.24874 3.28141 0
M  V30 5733 H 576.606 -1.93582 6.26264 0
M  V30 5734 H 576.126 -3.17991 5.08569 0
M  V30 5735 H 577.805 -3.10637 5.67551 0
M  V30 5736 N 577.937 -1.40673 -0.710563 0
M  V30 5737 C 579.183 -1.39428 -1.47267 0
M  V30 5738 C 579.516 0.00182129 -1.942 0
M  V30 5739 O 578.791 0.971387 -1.68506 0
M  V30 5740 C 579.074 -2.38812 -2.6952 0
M  V30 5741 C 578.927 -3.87467 -2.28449 0
M  V30 5742 C 580.246 -2.3566 -3.71689 0
M  V30 5743 H 577.365 -0.507768 -0.534173 0
M  V30 5744 H 580.007 -1.71843 -0.810547 0
M  V30 5745 H 578.157 -2.113 -3.26013 0
M  V30 5746 H 579.829 -4.25825 -1.77399 0
M  V30 5747 H 578.072 -4.03058 -1.60395 0
M  V30 5748 H 578.743 -4.5253 -3.16103 0
M  V30 5749 H 581.219 -2.6004 -3.24836 0
M  V30 5750 H 580.095 -3.07237 -4.54859 0
M  V30 5751 H 580.356 -1.36996 -4.20339 0
M  V30 5752 N 579.415 0.9433 -1.26252 0
M  V30 5753 C 580.663 1.68592 -1.11451 0
M  V30 5754 C 580.984 1.91957 0.343123 0
M  V30 5755 O 580.254 1.51475 1.24226 0
M  V30 5756 H 578.834 0.624789 -0.409448 0
M  V30 5757 H 581.496 1.13351 -1.58548 0
M  V30 5758 H 580.592 2.66054 -1.63162 0
M  V30 5759 N 580.893 1.08022 1.14757 0
M  V30 5760 C 582.139 0.808705 1.85978 0
M  V30 5761 C 582.472 -0.663764 1.82504 0
M  V30 5762 O 581.747 -1.48765 1.25296 0
M  V30 5763 C 582.03 1.32623 3.34788 0
M  V30 5764 C 581.883 2.86375 3.46856 0
M  V30 5765 C 583.202 0.948291 4.29762 0
M  V30 5766 H 580.321 0.295244 0.675278 0
M  V30 5767 H 582.963 1.33917 1.34783 0
M  V30 5768 H 581.113 0.875002 3.78518 0
M  V30 5769 H 582.785 3.39839 3.11941 0
M  V30 5770 H 581.028 3.24232 2.88194 0
M  V30 5771 H 581.699 3.17658 4.51439 0
M  V30 5772 H 584.175 1.33722 3.94028 0
M  V30 5773 H 583.051 1.33765 5.32352 0
M  V30 5774 H 583.312 -0.145094 4.41862 0
M  V30 5775 N 582.371 -1.3172 0.865308 0
M  V30 5776 C 583.611 -1.98675 0.480365 0
M  V30 5777 C 583.975 -1.66929 -0.948621 0
M  V30 5778 O 585.176 -2.27059 -1.43867 0
M  V30 5779 C 583.447 -3.49972 0.724858 0
M  V30 5780 S 585.006 -4.36598 0.439078 0
M  V30 5781 H 581.824 -0.687967 0.179506 0
M  V30 5782 H 584.426 -1.60215 1.12033 0
M  V30 5783 H 583.13 -3.70567 1.76375 0
M  V30 5784 H 582.661 -3.93335 0.0717173 0
M  V30 5785 H 584.676 -4.90792 -0.730564 0
M  V30 5786 N 583.85 -0.624285 -1.44708 0
M  V30 5787 C 585.077 -0.132919 -2.06473 0
M  V30 5788 C 585.493 1.18967 -1.46602 0
M  V30 5789 O 584.85 1.72824 -0.586341 0
M  V30 5790 C 584.901 -0.00465418 -3.615 0
M  V30 5791 O 584.622 -1.27494 -4.19138 0
M  V30 5792 C 586.123 0.516213 -4.40284 0
M  V30 5793 H 583.343 -0.0765201 -0.666623 0
M  V30 5794 H 585.887 -0.856751 -1.85688 0
M  V30 5795 H 584.042 0.669583 -3.8157 0
M  V30 5796 H 584.456 -1.11536 -5.12504 0
M  V30 5797 H 585.93 0.554994 -5.49203 0
M  V30 5798 H 586.407 1.5419 -4.11245 0
M  V30 5799 H 587.013 -0.124542 -4.25118 0
M  V30 5800 N 585.328 1.53329 -0.364422 0
M  V30 5801 C 586.278 2.22472 0.499024 0
M  V30 5802 C 587.262 1.21952 1.0496 0
M  V30 5803 O 588.454 1.47405 0.979836 0
M  V30 5804 C 585.583 3.01659 1.6388 0
M  V30 5805 C 584.669 4.09555 1.10116 0
M  V30 5806 N 585.06 5.04988 0.286414 0
M  V30 5807 C 583.358 4.2424 1.37608 0
M  V30 5808 C 584.059 5.81699 -0.00781682 0
M  V30 5809 N 583.035 5.40394 0.589494 0
M  V30 5810 H 586.837 2.93611 -0.130284 0
M  V30 5811 H 584.351 1.61483 -0.172377 0
M  V30 5812 H 586.348 3.4971 2.26954 0
M  V30 5813 H 585.008 2.32051 2.27118 0
M  V30 5814 H 586.019 5.17847 -0.0742839 0
M  V30 5815 H 582.696 3.65858 2.01133 0
M  V30 5816 H 584.086 6.68587 -0.666394 0
M  V30 5817 N 586.806 0.0935595 1.57322 0
M  V30 5818 C 588.036 -0.578095 1.98347 0
M  V30 5819 C 588.444 -1.62357 0.971441 0
M  V30 5820 O 587.787 -1.83639 -0.0473959 0
M  V30 5821 C 587.849 -1.28525 3.3574 0
M  V30 5822 C 587.513 -0.390714 4.55327 0
M  V30 5823 C 588.51 0.360522 5.18648 0
M  V30 5824 C 586.195 -0.309221 5.01347 0
M  V30 5825 C 588.189 1.18125 6.26359 0
M  V30 5826 C 585.876 0.515157 6.08925 0
M  V30 5827 C 586.874 1.25904 6.71295 0
M  V30 5828 O 586.562 2.06978 7.76798 0
M  V30 5829 H 586.294 -0.159767 0.656849 0
M  V30 5830 H 588.848 0.169058 2.04703 0
M  V30 5831 H 587.078 -2.07894 3.26063 0
M  V30 5832 H 588.767 -1.85128 3.61223 0
M  V30 5833 H 589.533 0.307285 4.84026 0
M  V30 5834 H 585.412 -0.877881 4.52564 0
M  V30 5835 H 588.956 1.76236 6.74971 0
M  V30 5836 H 584.853 0.56988 6.42979 0
M  V30 5837 H 585.621 1.99644 7.93779 0
M  V30 5838 N 588.284 -1.56567 -0.180126 0
M  V30 5839 C 589.695 -1.7126 -0.743422 0
M  V30 5840 C 590.046 -0.70263 -1.83187 0
M  V30 5841 O 589.171 0.137856 -2.1596 0
M  V30 5842 C 589.766 -3.10512 -1.35528 0
M  V30 5843 C 588.325 -3.26919 -1.8655 0
M  V30 5844 C 587.472 -2.67213 -0.741099 0
M  V30 5845 H 590.423 -1.58636 0.0451543 0
M  V30 5846 H 590.444 -3.08673 -2.22489 0
M  V30 5847 H 589.956 -3.83997 -0.562862 0
M  V30 5848 H 588.057 -2.58376 -2.68464 0
M  V30 5849 H 588.17 -4.34574 -2.01699 0
M  V30 5850 H 586.534 -2.26788 -1.15927 0
M  V30 5851 H 587.317 -3.43277 0.0393291 0
M  V30 5852 N 589.762 0.448376 -1.51087 0
M  V30 5853 C 590.725 1.52588 -1.71025 0
M  V30 5854 C 591.725 1.49958 -0.580442 0
M  V30 5855 O 592.915 1.52176 -0.847833 0
M  V30 5856 C 590.047 2.92163 -1.75652 0
M  V30 5857 H 591.24 1.36218 -2.67179 0
M  V30 5858 H 588.793 0.676313 -1.4091 0
M  V30 5859 H 589.528 3.13951 -0.812724 0
M  V30 5860 H 589.313 2.95478 -2.57751 0
M  V30 5861 H 590.803 3.70349 -1.92953 0
M  V30 5862 N 591.24 1.41047 0.703093 0
M  V30 5863 C 592.15 1.44645 1.84703 0
M  V30 5864 C 593.166 0.337778 1.7069 0
M  V30 5865 O 594.342 0.584327 1.92737 0
M  V30 5866 C 591.407 1.31928 3.20618 0
M  V30 5867 C 590.468 2.53047 3.46794 0
M  V30 5868 C 589.701 2.40927 4.76224 0
M  V30 5869 O 589.924 1.42978 5.5219 0
M  V30 5870 O 588.858 3.30543 5.03016 0
M  V30 5871 H 592.684 2.41139 1.84624 0
M  V30 5872 H 590.269 1.22504 0.855167 0
M  V30 5873 H 592.151 1.27092 4.01778 0
M  V30 5874 H 590.826 0.385469 3.21397 0
M  V30 5875 H 589.733 2.6346 2.65593 0
M  V30 5876 H 591.066 3.45231 3.50822 0
M  V30 5877 N 592.718 -0.936591 1.26751 0
M  V30 5878 C 593.964 -1.6858 1.12733 0
M  V30 5879 C 594.297 -1.91414 -0.327745 0
M  V30 5880 O 593.572 -1.49812 -1.24043 0
M  V30 5881 C 593.855 -3.05779 1.90187 0
M  V30 5882 C 593.708 -2.90242 3.43627 0
M  V30 5883 C 595.027 -4.0597 1.69931 0
M  V30 5884 H 592.146 -0.61182 0.410908 0
M  V30 5885 H 594.788 -1.08747 1.55801 0
M  V30 5886 H 592.938 -3.56853 1.53584 0
M  V30 5887 H 594.61 -2.46354 3.9001 0
M  V30 5888 H 592.853 -2.2577 3.70419 0
M  V30 5889 H 593.524 -3.87572 3.93055 0
M  V30 5890 H 596 -3.63874 2.0183 0
M  V30 5891 H 594.876 -4.99974 2.26534 0
M  V30 5892 H 595.137 -4.37369 0.64502 0
M  V30 5893 N 594.196 -1.08629 -1.14182 0
M  V30 5894 C 595.421 -0.83902 -1.89671 0
M  V30 5895 C 595.846 0.603332 -1.78161 0
M  V30 5896 O 595.204 1.42301 -1.12339 0
M  V30 5897 C 595.252 -1.26854 -3.37551 0
M  V30 5898 O 594.356 -0.42188 -4.10236 0
M  V30 5899 H 593.697 -0.304545 -0.590041 0
M  V30 5900 H 596.227 -1.4483 -1.44518 0
M  V30 5901 H 596.237 -1.25038 -3.88368 0
M  V30 5902 H 594.912 -2.31901 -3.45246 0
M  V30 5903 H 593.489 -0.503654 -3.69483 0
M  V30 5904 N 595.674 1.31259 -0.872281 0
M  V30 5905 C 596.606 2.27396 -0.28697 0
M  V30 5906 C 597.619 1.53181 0.551297 0
M  V30 5907 O 598.808 1.74561 0.372914 0
M  V30 5908 C 595.908 3.33335 0.611617 0
M  V30 5909 C 595.081 4.36966 -0.194729 0
M  V30 5910 C 594.14 5.22387 0.632358 0
M  V30 5911 O 593.166 5.69169 0.0595691 0
M  V30 5912 N 594.368 5.46985 1.94391 0
M  V30 5913 H 597.133 2.78261 -1.11314 0
M  V30 5914 H 594.694 1.44306 -0.733994 0
M  V30 5915 H 596.686 3.87398 1.17068 0
M  V30 5916 H 595.256 2.82496 1.33846 0
M  V30 5917 H 594.476 3.82945 -0.935241 0
M  V30 5918 H 595.764 5.03273 -0.747935 0
M  V30 5919 H 595.162 5.10737 2.43237 0
M  V30 5920 H 593.719 6.03973 2.45071 0
M  V30 5921 N 597.152 0.631951 1.44375 0
M  V30 5922 C 598.568 0.297642 1.568 0
M  V30 5923 C 598.768 -1.19916 1.61934 0
M  V30 5924 O 597.824 -1.98324 1.56281 0
M  V30 5925 C 599.137 0.990286 2.83926 0
M  V30 5926 C 600.685 0.968507 2.97639 0
M  V30 5927 C 601.16 1.64163 4.27568 0
M  V30 5928 N 602.651 1.60826 4.34384 0
M  V30 5929 C 603.386 2.09802 5.33639 0
M  V30 5930 N 602.882 2.66973 6.39294 0
M  V30 5931 N 604.675 2.00426 5.25153 0
M  V30 5932 H 596.826 1.60353 1.39286 0
M  V30 5933 H 599.089 0.673142 0.667521 0
M  V30 5934 H 598.795 2.04519 2.8612 0
M  V30 5935 H 598.669 0.528563 3.73478 0
M  V30 5936 H 601.056 -0.0779247 2.94997 0
M  V30 5937 H 601.137 1.46873 2.09433 0
M  V30 5938 H 600.781 2.68752 4.3097 0
M  V30 5939 H 600.711 1.11624 5.14634 0
M  V30 5940 H 603.202 1.19087 3.58646 0
M  V30 5941 H 603.515 3.02074 7.11316 0
M  V30 5942 H 601.86 2.71024 6.39977 0
M  V30 5943 H 605.051 1.55483 4.41523 0
M  V30 5944 H 605.224 2.38906 6.02352 0
M  V30 5945 N 598.631 -1.53133 0.372548 0
M  V30 5946 C 599.563 -2.23557 -0.505444 0
M  V30 5947 C 600.576 -1.25211 -1.04049 0
M  V30 5948 O 601.765 -1.51391 -0.945675 0
M  V30 5949 C 598.865 -2.92516 -1.71136 0
M  V30 5950 C 598.038 -4.17428 -1.30661 0
M  V30 5951 C 597.097 -4.69535 -2.37536 0
M  V30 5952 O 596.123 -5.33042 -1.99637 0
M  V30 5953 N 597.325 -4.47947 -3.6922 0
M  V30 5954 H 600.09 -2.9954 0.0978259 0
M  V30 5955 H 597.651 -1.60684 0.198068 0
M  V30 5956 H 599.643 -3.24281 -2.42124 0
M  V30 5957 H 598.213 -2.19944 -2.22134 0
M  V30 5958 H 597.433 -3.91888 -0.426292 0
M  V30 5959 H 598.721 -4.98622 -1.01259 0
M  V30 5960 H 598.119 -3.97219 -4.02783 0
M  V30 5961 H 596.676 -4.84245 -4.36292 0
M  V30 5962 N 600.109 -0.101901 -1.5727 0
M  V30 5963 C 601.072 0.840129 -2.13247 0
M  V30 5964 C 602.072 1.20625 -1.06331 0
M  V30 5965 O 603.262 1.13456 -1.32186 0
M  V30 5966 C 600.394 2.13372 -2.65867 0
M  V30 5967 H 601.587 0.353945 -2.97804 0
M  V30 5968 H 599.14 0.147167 -1.55606 0
M  V30 5969 H 599.875 2.66461 -1.84849 0
M  V30 5970 H 599.66 1.88085 -3.44044 0
M  V30 5971 H 601.15 2.80748 -3.09145 0
M  V30 5972 N 601.587 1.56661 0.17182 0
M  V30 5973 C 602.834 1.81965 0.888529 0
M  V30 5974 C 603.162 0.6789 1.82267 0
M  V30 5975 O 602.417 -0.333875 1.92831 0
M  V30 5976 C 602.716 3.13435 1.71736 0
M  V30 5977 C 602.382 4.41159 0.932184 0
M  V30 5978 C 601.044 4.75851 0.715481 0
M  V30 5979 C 603.396 5.19803 0.381387 0
M  V30 5980 C 600.724 5.86666 -0.063126 0
M  V30 5981 C 603.076 6.31433 -0.384129 0
M  V30 5982 C 601.74 6.64692 -0.611637 0
M  V30 5983 H 601.01 0.665859 0.325136 0
M  V30 5984 H 603.657 1.90884 0.153495 0
M  V30 5985 H 601.962 2.99857 2.52177 0
M  V30 5986 H 603.659 3.30224 2.27493 0
M  V30 5987 H 600.249 4.13947 1.11112 0
M  V30 5988 H 604.433 4.93396 0.536148 0
M  V30 5989 H 599.689 6.10892 -0.249136 0
M  V30 5990 H 603.863 6.91577 -0.818185 0
M  V30 5991 H 601.49 7.50398 -1.21684 0
M  V30 5992 N 603.065 -0.440357 1.51323 0
M  V30 5993 C 603.997 -1.55254 1.68609 0
M  V30 5994 C 605.01 -1.52614 0.566812 0
M  V30 5995 O 606.199 -1.57445 0.841032 0
M  V30 5996 C 603.299 -2.94169 1.68279 0
M  V30 5997 C 602.472 -3.21346 2.96742 0
M  V30 5998 C 601.531 -4.3997 2.8864 0
M  V30 5999 O 600.557 -4.38771 3.62586 0
M  V30 6000 N 601.759 -5.43367 2.04285 0
M  V30 6001 H 604.524 -1.40831 2.6455 0
M  V30 6002 H 602.085 -0.629251 1.49171 0
M  V30 6003 H 604.077 -3.71543 1.60431 0
M  V30 6004 H 602.647 -3.02205 0.799441 0
M  V30 6005 H 601.867 -2.32299 3.18482 0
M  V30 6006 H 603.155 -3.3633 3.81785 0
M  V30 6007 H 602.553 -5.47176 1.43578 0
M  V30 6008 H 601.11 -6.19605 2.02318 0
M  V30 6009 N 604.543 -1.41418 -0.695603 0
M  V30 6010 C 605.453 -1.45622 -1.83933 0
M  V30 6011 C 606.469 -0.346825 -1.70508 0
M  V30 6012 O 607.645 -0.59454 -1.92424 0
M  V30 6013 C 604.71 -1.33627 -3.19914 0
M  V30 6014 C 603.771 -2.54882 -3.45447 0
M  V30 6015 C 603.004 -2.43449 -4.7494 0
M  V30 6016 O 603.227 -1.45905 -5.51424 0
M  V30 6017 O 602.161 -3.33206 -5.01256 0
M  V30 6018 H 605.987 -2.42114 -1.83342 0
M  V30 6019 H 603.572 -1.22956 -0.848658 0
M  V30 6020 H 605.454 -1.29221 -4.01098 0
M  V30 6021 H 604.129 -0.402508 -3.21188 0
M  V30 6022 H 603.036 -2.64865 -2.64192 0
M  V30 6023 H 604.369 -3.47087 -3.48987 0
M  V30 6024 N 606.021 0.929856 -1.27246 0
M  V30 6025 C 607.249 1.71144 -1.16265 0
M  V30 6026 C 607.664 1.867 0.280786 0
M  V30 6027 O 607.021 1.38249 1.19136 0
M  V30 6028 C 607.072 3.11222 -1.83911 0
M  V30 6029 O 606.793 2.96398 -3.22614 0
M  V30 6030 C 608.294 4.05541 -1.79028 0
M  V30 6031 H 605.514 0.535499 -0.404328 0
M  V30 6032 H 608.058 1.16492 -1.68077 0
M  V30 6033 H 606.213 3.6274 -1.36009 0
M  V30 6034 H 606.627 3.8494 -3.56261 0
M  V30 6035 H 608.101 5.01351 -2.30978 0
M  V30 6036 H 608.578 4.32589 -0.759168 0
M  V30 6037 H 609.184 3.59947 -2.26535 0
M  V30 6038 N 607.499 1.09233 1.13605 0
M  V30 6039 C 608.915 0.82163 1.36826 0
M  V30 6040 C 609.115 -0.565021 1.93416 0
M  V30 6041 O 608.171 -1.32026 2.15234 0
M  V30 6042 C 609.484 1.91124 2.32147 0
M  V30 6043 C 611.032 1.93824 2.45767 0
M  V30 6044 C 611.507 3.01923 3.44393 0
M  V30 6045 N 612.998 3.01149 3.51942 0
M  V30 6046 C 613.733 3.81434 4.2813 0
M  V30 6047 N 613.229 4.71621 5.07489 0
M  V30 6048 N 615.022 3.69702 4.23411 0
M  V30 6049 H 607.173 1.98633 0.752234 0
M  V30 6050 H 609.436 0.862482 0.393482 0
M  V30 6051 H 609.142 2.90862 1.97717 0
M  V30 6052 H 609.016 1.78777 3.32142 0
M  V30 6053 H 611.403 0.94726 2.79483 0
M  V30 6054 H 611.484 2.10248 1.45703 0
M  V30 6055 H 611.128 4.01232 3.11408 0
M  V30 6056 H 611.058 2.82742 4.44257 0
M  V30 6057 H 613.549 2.35789 2.95317 0
M  V30 6058 H 613.862 5.29468 5.62924 0
M  V30 6059 H 612.207 4.75658 5.06729 0
M  V30 6060 H 615.398 2.98606 3.60489 0
M  V30 6061 H 615.571 4.32509 4.82535 0
M  V30 6062 N 608.977 -1.30795 0.87923 0
M  V30 6063 C 609.887 -2.32041 0.345565 0
M  V30 6064 C 610.903 -1.65103 -0.549265 0
M  V30 6065 O 612.079 -1.9645 -0.443763 0
M  V30 6066 C 609.144 -3.43944 -0.436245 0
M  V30 6067 C 608.205 -4.26521 0.48765 0
M  V30 6068 C 607.438 -5.33081 -0.256943 0
M  V30 6069 O 607.661 -5.50762 -1.48381 0
M  V30 6070 O 606.595 -6.00635 0.389985 0
M  V30 6071 H 610.421 -2.79627 1.18501 0
M  V30 6072 H 608.006 -1.3486 0.642885 0
M  V30 6073 H 609.888 -4.12128 -0.879119 0
M  V30 6074 H 608.563 -2.98504 -1.25208 0
M  V30 6075 H 607.47 -3.61057 0.979216 0
M  V30 6076 H 608.803 -4.75551 1.26933 0
M  V30 6077 N 610.455 -0.639598 -1.44038 0
M  V30 6078 C 611.695 -0.150902 -2.03842 0
M  V30 6079 C 612.059 1.20744 -1.49281 0
M  V30 6080 O 613.26 1.78875 -2.00642 0
M  V30 6081 C 611.531 -0.146114 -3.57101 0
M  V30 6082 S 613.09 0.276725 -4.37927 0
M  V30 6083 H 609.908 -0.0652447 -0.708 0
M  V30 6084 H 612.51 -0.844886 -1.76301 0
M  V30 6085 H 611.214 -1.13769 -3.94316 0
M  V30 6086 H 610.745 0.568846 -3.89266 0
M  V30 6087 H 612.76 1.51893 -4.7238 0
M  V30 6088 N 611.933 1.52934 -0.380664 0
M  V30 6089 C 613.182 2.00651 0.205477 0
M  V30 6090 C 613.495 1.27164 1.48623 0
M  V30 6091 O 614.701 1.65547 2.15189 0
M  V30 6092 C 613.157 3.57479 0.416726 0
M  V30 6093 C 612.765 4.39857 -0.850268 0
M  V30 6094 C 614.509 4.13509 0.959702 0
M  V30 6095 C 612.416 5.88269 -0.607773 0
M  V30 6096 H 611.346 0.749684 0.0805614 0
M  V30 6097 H 613.997 1.76508 -0.501732 0
M  V30 6098 H 612.379 3.77836 1.18557 0
M  V30 6099 H 613.553 4.31269 -1.62307 0
M  V30 6100 H 611.868 3.95005 -1.31756 0
M  V30 6101 H 614.465 5.22039 1.15669 0
M  V30 6102 H 614.808 3.69054 1.92626 0
M  V30 6103 H 615.341 3.9701 0.250645 0
M  V30 6104 H 612.08 6.3703 -1.54509 0
M  V30 6105 H 611.6 5.99667 0.126247 0
M  V30 6106 H 613.279 6.46558 -0.239014 0
M  V30 6107 N 613.412 0.11024 1.57214 0
M  V30 6108 C 614.344 -0.873497 2.11902 0
M  V30 6109 C 615.357 -1.23588 1.05971 0
M  V30 6110 O 616.546 -1.18636 1.33371 0
M  V30 6111 C 613.646 -2.17805 2.59643 0
M  V30 6112 C 612.819 -1.98869 3.89576 0
M  V30 6113 C 611.878 -3.12974 4.23006 0
M  V30 6114 O 610.904 -2.86272 4.91973 0
M  V30 6115 N 612.106 -4.39167 3.79622 0
M  V30 6116 H 614.871 -0.406317 2.96933 0
M  V30 6117 H 612.432 -0.074437 1.61729 0
M  V30 6118 H 614.424 -2.93117 2.79042 0
M  V30 6119 H 612.994 -2.55899 1.7954 0
M  V30 6120 H 612.214 -1.078 3.79174 0
M  V30 6121 H 613.502 -1.83512 4.74553 0
M  V30 6122 H 612.9 -4.63739 3.2398 0
M  V30 6123 H 611.457 -5.11379 4.04147 0
M  V30 6124 N 614.89 -1.56749 -0.16351 0
M  V30 6125 C 615.853 -1.96121 -1.18613 0
M  V30 6126 C 616.853 -0.845765 -1.36761 0
M  V30 6127 O 618.043 -1.11268 -1.34033 0
M  V30 6128 C 615.175 -2.26282 -2.54969 0
M  V30 6129 H 616.368 -2.87639 -0.848764 0
M  V30 6130 H 613.921 -1.50928 -0.406251 0
M  V30 6131 H 614.656 -1.37504 -2.93706 0
M  V30 6132 H 614.441 -3.07595 -2.43162 0
M  V30 6133 H 615.931 -2.57638 -3.28653 0
M  V30 6134 N 616.368 0.432326 -1.51554 0
M  V30 6135 C 617.784 0.769195 -1.39841 0
M  V30 6136 C 617.984 1.95584 -0.484675 0
M  V30 6137 O 617.04 2.52433 0.0582829 0
M  V30 6138 C 618.353 1.04487 -2.81963 0
M  V30 6139 C 619.901 1.149 -2.91148 0
M  V30 6140 C 620.376 1.45758 -4.34187 0
M  V30 6141 N 621.867 1.52671 -4.37317 0
M  V30 6142 C 622.602 1.78129 -5.4503 0
M  V30 6143 N 622.098 2.01345 -6.62897 0
M  V30 6144 N 623.891 1.79953 -5.32516 0
M  V30 6145 H 616.042 -0.349122 -2.09511 0
M  V30 6146 H 618.305 -0.0938113 -0.943347 0
M  V30 6147 H 618.011 0.24557 -3.50842 0
M  V30 6148 H 617.885 1.97119 -3.21596 0
M  V30 6149 H 620.272 1.93891 -2.22464 0
M  V30 6150 H 620.353 0.201568 -2.55005 0
M  V30 6151 H 619.997 0.672917 -5.03423 0
M  V30 6152 H 619.927 2.41715 -4.67848 0
M  V30 6153 H 622.418 1.36612 -3.52343 0
M  V30 6154 H 622.731 2.20155 -7.40778 0
M  V30 6155 H 621.076 1.98657 -6.66003 0
M  V30 6156 H 624.267 1.61337 -4.39418 0
M  V30 6157 H 624.44 1.99455 -6.1654 0
M  V30 6158 N 617.846 1.41785 0.688094 0
M  V30 6159 C 618.776 1.47 1.8142 0
M  V30 6160 C 619.757 0.327881 1.6691 0
M  V30 6161 O 620.942 0.540362 1.86531 0
M  V30 6162 C 618.072 1.35876 3.19617 0
M  V30 6163 C 617.026 2.47976 3.48844 0
M  V30 6164 C 616.352 2.21915 4.86475 0
M  V30 6165 C 617.652 3.90309 3.47068 0
M  V30 6166 H 619.346 2.41247 1.77314 0
M  V30 6167 H 616.892 1.16116 0.851651 0
M  V30 6168 H 618.845 1.38134 3.98117 0
M  V30 6169 H 617.569 0.38116 3.24368 0
M  V30 6170 H 616.228 2.45013 2.72698 0
M  V30 6171 H 615.876 1.2248 4.8786 0
M  V30 6172 H 615.576 2.97037 5.06994 0
M  V30 6173 H 617.1 2.25901 5.67275 0
M  V30 6174 H 618.514 3.94947 4.1556 0
M  V30 6175 H 616.911 4.65175 3.7912 0
M  V30 6176 H 617.981 4.17927 2.45896 0
M  V30 6177 N 619.324 -0.923095 1.27737 0
M  V30 6178 C 620.274 -2.01061 1.0751 0
M  V30 6179 C 621.258 -1.609 0.00165451 0
M  V30 6180 O 622.45 -1.75618 0.220724 0
M  V30 6181 C 619.579 -3.35467 0.729162 0
M  V30 6182 C 618.665 -3.82059 1.84098 0
M  V30 6183 N 619.056 -4.01115 3.08124 0
M  V30 6184 C 617.354 -4.11135 1.7287 0
M  V30 6185 C 618.055 -4.39989 3.80506 0
M  V30 6186 N 617.031 -4.47721 3.08297 0
M  V30 6187 H 620.833 -2.13832 2.01626 0
M  V30 6188 H 618.347 -1.11027 1.18519 0
M  V30 6189 H 620.344 -4.13049 0.565355 0
M  V30 6190 H 619.004 -3.24056 -0.204334 0
M  V30 6191 H 620.015 -3.87294 3.43836 0
M  V30 6192 H 616.692 -4.08412 0.866352 0
M  V30 6193 H 618.082 -4.62773 4.87125 0
M  V30 6194 N 620.802 -1.09834 -1.13024 0
M  V30 6195 C 622.027 -0.85909 -1.88771 0
M  V30 6196 C 622.452 0.584402 -1.78791 0
M  V30 6197 O 621.81 1.41101 -1.13842 0
M  V30 6198 C 621.858 -1.30427 -3.36186 0
M  V30 6199 O 620.962 -0.465368 -4.09766 0
M  V30 6200 H 620.303 -0.310786 -0.586778 0
M  V30 6201 H 622.833 -1.46355 -1.42973 0
M  V30 6202 H 622.843 -1.2915 -3.8702 0
M  V30 6203 H 621.518 -2.3555 -3.42767 0
M  V30 6204 H 620.095 -0.542814 -3.68928 0
M  V30 6205 N 622.28 1.30327 -0.886154 0
M  V30 6206 C 623.212 2.27079 -0.311072 0
M  V30 6207 C 624.225 1.53758 0.53502 0
M  V30 6208 O 625.414 1.74947 0.354378 0
M  V30 6209 C 622.514 3.33965 0.576228 0
M  V30 6210 C 621.687 4.36735 -0.241064 0
M  V30 6211 C 620.746 5.23028 0.576916 0
M  V30 6212 O 619.772 5.692 -0.000802231 0
M  V30 6213 N 620.974 5.49016 1.88579 0
M  V30 6214 H 623.739 2.77065 -1.14259 0
M  V30 6215 H 621.3 1.43519 -0.749258 0
M  V30 6216 H 623.292 3.88618 1.12953 0
M  V30 6217 H 621.862 2.839 1.30842 0
M  V30 6218 H 621.082 3.81932 -0.975805 0
M  V30 6219 H 622.37 5.02451 -0.801272 0
M  V30 6220 H 621.768 5.13288 2.37806 0
M  V30 6221 H 620.325 6.06539 2.38651 0
M  V30 6222 N 623.758 0.647228 1.43697 0
M  V30 6223 C 625.174 0.314256 1.56476 0
M  V30 6224 C 625.374 -1.18191 1.63196 0
M  V30 6225 O 624.43 -1.96655 1.58376 0
M  V30 6226 C 625.743 1.02034 2.82859 0
M  V30 6227 C 627.291 1.00002 2.96595 0
M  V30 6228 C 627.766 1.68689 4.25803 0
M  V30 6229 N 629.257 1.65424 4.32654 0
M  V30 6230 C 629.992 2.1545 5.31384 0
M  V30 6231 N 629.488 2.73738 6.36427 0
M  V30 6232 N 631.281 2.05985 5.22998 0
M  V30 6233 H 623.432 1.61821 1.37578 0
M  V30 6234 H 625.695 0.680184 0.660344 0
M  V30 6235 H 625.401 2.07542 2.83935 0
M  V30 6236 H 625.275 0.568146 3.72897 0
M  V30 6237 H 627.662 -0.0466319 2.95063 0
M  V30 6238 H 627.743 1.49086 2.07863 0
M  V30 6239 H 627.387 2.73308 4.28095 0
M  V30 6240 H 627.317 1.17076 5.13421 0
M  V30 6241 H 629.808 1.22884 3.57363 0
M  V30 6242 H 630.121 3.09602 7.08072 0
M  V30 6243 H 628.466 2.77796 6.37067 0
M  V30 6244 H 631.657 1.60157 4.39849 0
M  V30 6245 H 631.83 2.45281 5.99784 0
M  V30 6246 N 625.236 -1.5273 0.388769 0
M  V30 6247 C 626.146 -2.30165 -0.453993 0
M  V30 6248 C 627.162 -1.37058 -1.07197 0
M  V30 6249 O 628.338 -1.70127 -1.0779 0
M  V30 6250 C 625.403 -3.09303 -1.56628 0
M  V30 6251 C 624.464 -4.18117 -0.973467 0
M  V30 6252 C 623.697 -4.93472 -2.03275 0
M  V30 6253 O 623.92 -4.68913 -3.24772 0
M  V30 6254 O 622.854 -5.78833 -1.65034 0
M  V30 6255 H 626.68 -3.03185 0.176816 0
M  V30 6256 H 624.265 -1.4862 0.152501 0
M  V30 6257 H 626.147 -3.58648 -2.21246 0
M  V30 6258 H 624.822 -2.39098 -2.18206 0
M  V30 6259 H 623.729 -3.7297 -0.290556 0
M  V30 6260 H 625.062 -4.90556 -0.401908 0
M  V30 6261 N 626.714 -0.118576 -1.57153 0
M  V30 6262 C 627.662 0.849114 -2.16547 0
M  V30 6263 C 628.656 1.27567 -1.11458 0
M  V30 6264 O 629.862 1.24746 -1.29763 0
M  V30 6265 H 626.237 0.291935 -0.693021 0
M  V30 6266 H 628.208 0.323693 -2.96639 0
M  V30 6267 C 626.957 2.08951 -2.77912 0
M  V30 6268 H 626.28 1.77021 -3.58474 0
M  V30 6269 H 627.72 2.74666 -3.23008 0
M  V30 6270 C 626.179 2.87899 -1.74974 0
M  V30 6271 O 626.709 3.83268 -1.20285 0
M  V30 6272 N 624.915 2.51884 -1.44924 0
M  V30 6273 H 624.462 1.74397 -1.89587 0
M  V30 6274 H 624.42 3.05003 -0.762921 0
M  V30 6275 N 628.193 1.56834 0.155195 0
M  V30 6276 C 629.125 1.94235 1.21677 0
M  V30 6277 C 630.138 0.83724 1.39621 0
M  V30 6278 O 631.327 1.11567 1.39338 0
M  V30 6279 C 628.427 2.19402 2.58294 0
M  V30 6280 C 627.6 3.50671 2.61436 0
M  V30 6281 C 626.659 3.64475 3.79532 0
M  V30 6282 O 625.685 4.36945 3.64784 0
M  V30 6283 N 626.887 3.00526 4.96653 0
M  V30 6284 H 629.652 2.85901 0.898932 0
M  V30 6285 H 627.213 1.58185 0.34483 0
M  V30 6286 H 629.205 2.25886 3.35794 0
M  V30 6287 H 627.775 1.34042 2.82403 0
M  V30 6288 H 626.995 3.55702 1.69912 0
M  V30 6289 H 628.283 4.3702 2.60559 0
M  V30 6290 H 627.681 2.41549 5.11538 0
M  V30 6291 H 626.238 3.12583 5.71958 0
M  V30 6292 N 629.671 -0.424282 1.51781 0
M  V30 6293 C 630.603 -1.53457 1.70246 0
M  V30 6294 C 631.616 -1.52004 0.582967 0
M  V30 6295 O 632.805 -1.56544 0.857683 0
M  V30 6296 C 629.905 -2.92368 1.71389 0
M  V30 6297 C 629.078 -3.1818 3.00133 0
M  V30 6298 C 628.137 -4.36884 2.9329 0
M  V30 6299 O 627.163 -4.34901 3.67219 0
M  V30 6300 N 628.365 -5.4117 2.10036 0
M  V30 6301 H 631.13 -1.38017 2.66029 0
M  V30 6302 H 628.691 -0.613394 1.4983 0
M  V30 6303 H 630.683 -3.6982 1.64362 0
M  V30 6304 H 629.253 -3.0134 0.831449 0
M  V30 6305 H 628.473 -2.28908 3.20928 0
M  V30 6306 H 629.761 -3.32261 3.85331 0
M  V30 6307 H 629.159 -5.45623 1.49373 0
M  V30 6308 H 627.716 -6.17425 2.08878 0
M  V30 6309 N 631.149 -1.42148 -0.680565 0
M  V30 6310 C 632.081 -1.41119 -1.80605 0
M  V30 6311 C 633.094 -0.311099 -1.598 0
M  V30 6312 O 634.283 -0.573813 -1.69026 0
M  V30 6313 C 631.383 -1.18204 -3.17618 0
M  V30 6314 C 630.556 -2.40537 -3.65322 0
M  V30 6315 C 629.615 -2.13254 -4.8105 0
M  V30 6316 O 628.641 -2.8641 -4.91892 0
M  V30 6317 N 629.843 -1.13208 -5.69354 0
M  V30 6318 H 632.608 -2.38128 -1.81975 0
M  V30 6319 H 630.169 -1.36953 -0.863446 0
M  V30 6320 H 632.161 -0.97878 -3.92686 0
M  V30 6321 H 630.731 -0.29738 -3.11182 0
M  V30 6322 H 629.951 -2.76468 -2.80996 0
M  V30 6323 H 631.239 -3.22012 -3.93936 0
M  V30 6324 H 630.637 -0.526893 -5.63241 0
M  V30 6325 H 629.194 -0.988699 -6.44258 0
M  V30 6326 N 632.627 0.916307 -1.28225 0
M  V30 6327 C 633.537 2.05165 -1.13775 0
M  V30 6328 C 634.553 1.73879 -0.0649418 0
M  V30 6329 O 635.729 1.99531 -0.273722 0
M  V30 6330 C 632.794 3.37385 -0.798267 0
M  V30 6331 C 631.855 3.82296 -1.95316 0
M  V30 6332 C 631.088 5.08206 -1.62978 0
M  V30 6333 O 631.311 5.6781 -0.542948 0
M  V30 6334 O 630.245 5.48768 -2.47261 0
M  V30 6335 H 634.071 2.20273 -2.09078 0
M  V30 6336 H 631.656 1.0373 -1.07519 0
M  V30 6337 H 633.538 4.16773 -0.62278 0
M  V30 6338 H 632.213 3.23458 0.125139 0
M  V30 6339 H 631.12 3.03746 -2.18378 0
M  V30 6340 H 632.453 4.00782 -2.85718 0
M  V30 6341 N 634.105 1.10431 1.1244 0
M  V30 6342 C 635.521 0.836096 1.35947 0
M  V30 6343 C 635.721 -0.544475 1.94004 0
M  V30 6344 O 634.777 -1.29735 2.16622 0
M  V30 6345 C 636.09 1.93575 2.30107 0
M  V30 6346 C 637.638 1.9642 2.43697 0
M  V30 6347 C 638.113 3.05559 3.41171 0
M  V30 6348 N 639.604 3.04865 3.48728 0
M  V30 6349 C 640.339 3.85954 4.24061 0
M  V30 6350 N 639.835 4.76977 5.02458 0
M  V30 6351 N 641.628 3.74172 4.19466 0
M  V30 6352 H 633.779 1.9942 0.731124 0
M  V30 6353 H 636.042 0.866607 0.384312 0
M  V30 6354 H 635.748 2.92943 1.94621 0
M  V30 6355 H 635.622 1.8229 3.30227 0
M  V30 6356 H 638.009 0.97685 2.78463 0
M  V30 6357 H 638.09 2.11782 1.43465 0
M  V30 6358 H 637.734 4.04513 3.07135 0
M  V30 6359 H 637.664 2.87438 4.41234 0
M  V30 6360 H 640.155 2.38908 2.92799 0
M  V30 6361 H 640.468 5.35409 5.57277 0
M  V30 6362 H 638.813 4.81006 5.01655 0
M  V30 6363 H 642.004 3.02412 3.57302 0
M  V30 6364 H 642.177 4.37602 4.77921 0
M  V30 6365 N 635.583 -1.29855 0.893053 0
M  V30 6366 C 636.513 -2.3035 0.382249 0
M  V30 6367 C 637.494 -1.61328 -0.539203 0
M  V30 6368 O 638.679 -1.88882 -0.451342 0
M  V30 6369 C 635.809 -3.45024 -0.396983 0
M  V30 6370 C 634.763 -4.258 0.433437 0
M  V30 6371 C 634.089 -5.32605 -0.472889 0
M  V30 6372 C 635.389 -4.94549 1.67984 0
M  V30 6373 H 637.083 -2.73325 1.22205 0
M  V30 6374 H 634.629 -1.314 0.589073 0
M  V30 6375 H 636.582 -4.14398 -0.765024 0
M  V30 6376 H 635.306 -3.00875 -1.2705 0
M  V30 6377 H 633.965 -3.58125 0.783723 0
M  V30 6378 H 633.613 -4.84702 -1.34435 0
M  V30 6379 H 633.313 -5.87547 0.0789958 0
M  V30 6380 H 634.837 -6.04832 -0.837269 0
M  V30 6381 H 636.251 -5.56395 1.38192 0
M  V30 6382 H 634.648 -5.59393 2.17254 0
M  V30 6383 H 635.718 -4.20215 2.41965 0
M  V30 6384 N 637.061 -0.65484 -1.43351 0
M  V30 6385 C 637.991 0.0221809 -2.33489 0
M  V30 6386 C 638.972 0.810272 -1.49561 0
M  V30 6387 O 640.157 0.771426 -1.78221 0
M  V30 6388 C 637.287 0.988117 -3.32947 0
M  V30 6389 C 636.241 0.310026 -4.26876 0
M  V30 6390 C 635.567 1.38752 -5.16384 0
M  V30 6391 C 636.867 -0.798589 -5.16159 0
M  V30 6392 H 638.561 -0.730571 -2.9035 0
M  V30 6393 H 636.107 -0.352773 -1.39612 0
M  V30 6394 H 638.06 1.47067 -3.94904 0
M  V30 6395 H 636.784 1.77205 -2.74346 0
M  V30 6396 H 635.443 -0.152097 -3.66284 0
M  V30 6397 H 635.091 2.16293 -4.54121 0
M  V30 6398 H 634.791 0.939051 -5.80048 0
M  V30 6399 H 636.315 1.87141 -5.81215 0
M  V30 6400 H 637.729 -0.398126 -5.71916 0
M  V30 6401 H 636.126 -1.17163 -5.88552 0
M  V30 6402 H 637.196 -1.65588 -4.55751 0
M  V30 6403 N 638.539 1.52521 -0.396863 0
M  V30 6404 C 639.469 2.29582 0.425941 0
M  V30 6405 C 640.45 1.33281 1.05689 0
M  V30 6406 O 641.635 1.62181 1.06823 0
M  V30 6407 C 638.765 3.10821 1.54943 0
M  V30 6408 C 637.719 4.15069 1.04413 0
M  V30 6409 C 637.045 4.84578 2.26028 0
M  V30 6410 C 638.345 5.22191 0.106767 0
M  V30 6411 H 640.039 2.98612 -0.217045 0
M  V30 6412 H 637.585 1.43611 -0.105826 0
M  V30 6413 H 639.538 3.63492 2.13193 0
M  V30 6414 H 638.262 2.39538 2.22011 0
M  V30 6415 H 636.921 3.63389 0.484118 0
M  V30 6416 H 636.569 4.09835 2.91623 0
M  V30 6417 H 636.269 5.55043 1.92876 0
M  V30 6418 H 637.793 5.40056 2.84906 0
M  V30 6419 H 639.207 5.70176 0.597685 0
M  V30 6420 H 637.604 5.99947 -0.135352 0
M  V30 6421 H 638.674 4.77531 -0.842134 0
M  V30 6422 N 640.017 0.126909 1.57088 0
M  V30 6423 C 641.242 -0.53997 2.00248 0
M  V30 6424 C 641.667 -1.58927 1.00618 0
M  V30 6425 O 641.025 -1.81288 -0.0210131 0
M  V30 6426 C 641.073 -1.13565 3.4225 0
M  V30 6427 O 640.177 -2.25103 3.45547 0
M  V30 6428 H 639.518 -0.13412 0.650314 0
M  V30 6429 H 642.048 0.217718 2.03438 0
M  V30 6430 H 642.058 -1.46925 3.80627 0
M  V30 6431 H 640.733 -0.367122 4.14277 0
M  V30 6432 H 639.31 -1.93123 3.18995 0
M  V30 6433 N 641.495 -1.56914 -0.146875 0
M  V30 6434 C 642.741 -1.83628 -0.860741 0
M  V30 6435 C 643.074 -0.708528 -1.80813 0
M  V30 6436 O 642.349 0.287838 -1.92358 0
M  V30 6437 C 642.632 -3.20836 -1.63511 0
M  V30 6438 C 642.485 -4.44174 -0.709199 0
M  V30 6439 C 643.804 -3.55268 -2.59756 0
M  V30 6440 H 640.923 -0.667949 -0.311468 0
M  V30 6441 H 643.565 -1.89582 -0.125936 0
M  V30 6442 H 641.715 -3.15891 -2.26153 0
M  V30 6443 H 643.387 -4.61205 -0.0937781 0
M  V30 6444 H 641.63 -4.33796 -0.0187856 0
M  V30 6445 H 642.301 -5.36785 -1.28707 0
M  V30 6446 H 644.777 -3.60824 -2.07232 0
M  V30 6447 H 643.653 -4.52303 -3.10987 0
M  V30 6448 H 643.914 -2.81231 -3.41118 0
M  V30 6449 N 642.974 0.416227 -1.52004 0
M  V30 6450 C 643.904 1.51365 -1.77795 0
M  V30 6451 C 644.885 1.58059 -0.628601 0
M  V30 6452 O 646.07 1.73447 -0.873478 0
M  V30 6453 C 643.2 2.89256 -1.92219 0
M  V30 6454 C 642.154 2.97415 -3.0778 0
M  V30 6455 C 641.48 4.37492 -3.07417 0
M  V30 6456 C 642.78 2.69551 -4.47369 0
M  V30 6457 H 644.474 1.30033 -2.69688 0
M  V30 6458 H 642.02 0.624112 -1.29772 0
M  V30 6459 H 643.973 3.66008 -2.08845 0
M  V30 6460 H 642.697 3.11866 -0.969917 0
M  V30 6461 H 641.356 2.23107 -2.90893 0
M  V30 6462 H 641.004 4.571 -2.09925 0
M  V30 6463 H 640.704 4.43877 -3.85029 0
M  V30 6464 H 642.228 5.16188 -3.26162 0
M  V30 6465 H 643.642 3.36028 -4.64497 0
M  V30 6466 H 642.039 2.87321 -5.26846 0
M  V30 6467 H 643.109 1.65029 -4.55953 0
M  V30 6468 N 644.452 1.42507 0.673017 0
M  V30 6469 C 645.863 1.38347 1.25367 0
M  V30 6470 C 646.214 0.0776327 1.96046 0
M  V30 6471 O 645.339 -0.823571 2.00116 0
M  V30 6472 C 645.934 2.506 2.28002 0
M  V30 6473 C 644.493 2.49767 2.81591 0
M  V30 6474 C 643.64 2.293 1.55938 0
M  V30 6475 H 646.591 1.51695 0.466288 0
M  V30 6476 H 646.612 2.20953 3.09774 0
M  V30 6477 H 646.124 3.45627 1.76532 0
M  V30 6478 H 644.225 1.58563 3.37177 0
M  V30 6479 H 644.338 3.46867 3.30485 0
M  V30 6480 H 642.702 1.77594 1.82572 0
M  V30 6481 H 643.485 3.26385 1.06431 0
M  V30 6482 N 645.93 -0.909495 1.28709 0
M  V30 6483 C 647.346 -1.18862 1.06508 0
M  V30 6484 C 647.546 -2.00604 -0.189864 0
M  V30 6485 O 646.602 -2.36281 -0.890355 0
M  V30 6486 C 647.915 -1.91908 2.31499 0
M  V30 6487 C 649.463 -2.04773 2.36721 0
M  V30 6488 C 649.938 -2.81228 3.6149 0
M  V30 6489 N 651.429 -2.88787 3.62155 0
M  V30 6490 C 652.164 -3.48455 4.55375 0
M  V30 6491 N 651.66 -4.09369 5.58918 0
M  V30 6492 N 653.453 -3.46035 4.42963 0
M  V30 6493 H 645.604 -0.363867 2.0926 0
M  V30 6494 H 647.867 -0.223649 0.921241 0
M  V30 6495 H 647.573 -1.39275 3.22948 0
M  V30 6496 H 647.447 -2.92436 2.38245 0
M  V30 6497 H 649.834 -2.56585 1.45767 0
M  V30 6498 H 649.915 -1.03408 2.33967 0
M  V30 6499 H 649.559 -2.30094 4.5279 0
M  V30 6500 H 649.489 -3.82917 3.61499 0
M  V30 6501 H 651.98 -2.45514 2.87283 0
M  V30 6502 H 652.293 -4.52891 6.26187 0
M  V30 6503 H 650.638 -4.0786 5.62739 0
M  V30 6504 H 653.829 -2.9766 3.6127 0
M  V30 6505 H 654.002 -3.92244 5.15799 0
M  V30 6506 N 647.408 -1.11026 -1.11852 0
M  V30 6507 C 648.358 -0.733836 -2.15868 0
M  V30 6508 C 649.342 0.26001 -1.58785 0
M  V30 6509 O 650.534 0.0677901 -1.7687 0
M  V30 6510 C 647.663 -0.173948 -3.42859 0
M  V30 6511 C 646.749 -1.1952 -4.0691 0
M  V30 6512 N 647.14 -2.38797 -4.45881 0
M  V30 6513 C 645.438 -1.03714 -4.33773 0
M  V30 6514 C 646.139 -3.03894 -4.96007 0
M  V30 6515 N 645.115 -2.31389 -4.91894 0
M  V30 6516 H 648.917 -1.64171 -2.43773 0
M  V30 6517 H 646.431 -0.988877 -1.28822 0
M  V30 6518 H 648.428 0.113836 -4.16745 0
M  V30 6519 H 647.088 0.728568 -3.16421 0
M  V30 6520 H 648.099 -2.76281 -4.38051 0
M  V30 6521 H 644.776 -0.190694 -4.17064 0
M  V30 6522 H 646.166 -4.05389 -5.35826 0
M  V30 6523 N 648.886 1.2938 -0.899927 0
M  V30 6524 C 650.132 1.9584 -0.526742 0
M  V30 6525 C 650.465 1.70774 0.924651 0
M  V30 6526 O 649.74 1.02084 1.65557 0
M  V30 6527 C 650.023 3.50638 -0.820062 0
M  V30 6528 C 649.876 3.85161 -2.32317 0
M  V30 6529 C 651.195 4.3903 -0.30671 0
M  V30 6530 H 648.314 0.711322 -0.192848 0
M  V30 6531 H 650.956 1.52992 -1.12665 0
M  V30 6532 H 649.106 3.87265 -0.309491 0
M  V30 6533 H 650.778 3.58477 -2.9033 0
M  V30 6534 H 649.021 3.32696 -2.78381 0
M  V30 6535 H 649.692 4.93204 -2.47898 0
M  V30 6536 H 652.168 4.09396 -0.743908 0
M  V30 6537 H 651.044 5.46226 -0.541144 0
M  V30 6538 H 651.305 4.34937 0.792588 0
M  V30 6539 N 650.364 0.662433 1.43002 0
M  V30 6540 C 651.327 -0.0142016 2.29196 0
M  V30 6541 C 652.327 -0.741394 1.42688 0
M  V30 6542 O 653.517 -0.581257 1.64216 0
M  V30 6543 C 650.649 -1.03084 3.24941 0
M  V30 6544 H 651.842 0.7443 2.90517 0
M  V30 6545 H 649.395 0.424133 1.50435 0
M  V30 6546 H 650.13 -1.81826 2.68533 0
M  V30 6547 H 649.915 -0.512946 3.8873 0
M  V30 6548 H 651.405 -1.50308 3.89612 0
M  V30 6549 N 651.842 -1.52309 0.404946 0
M  V30 6550 C 652.775 -2.23369 -0.467087 0
M  V30 6551 C 653.753 -1.24034 -1.0514 0
M  V30 6552 O 654.937 -1.53071 -1.10006 0
M  V30 6553 C 652.064 -2.95906 -1.64795 0
M  V30 6554 C 651.11 -4.09637 -1.18743 0
M  V30 6555 S 651.943 -5.35273 -0.156022 0
M  V30 6556 C 653.099 -6.11337 -1.34231 0
M  V30 6557 H 653.332 -2.96987 0.136294 0
M  V30 6558 H 650.865 -1.53236 0.189219 0
M  V30 6559 H 652.823 -3.38304 -2.3251 0
M  V30 6560 H 651.484 -2.21937 -2.22267 0
M  V30 6561 H 650.677 -4.59549 -2.06955 0
M  V30 6562 H 650.279 -3.69333 -0.588981 0
M  V30 6563 H 652.571 -6.38458 -2.26665 0
M  V30 6564 H 653.514 -7.02563 -0.883804 0
M  V30 6565 H 653.922 -5.42338 -1.56621 0
M  V30 6566 N 653.32 -0.135238 -1.57019 0
M  V30 6567 C 654.23 0.822226 -2.19719 0
M  V30 6568 C 655.246 1.28057 -1.17802 0
M  V30 6569 O 656.422 1.3402 -1.50335 0
M  V30 6570 C 653.487 2.0484 -2.79717 0
M  V30 6571 C 652.548 1.64042 -3.96723 0
M  V30 6572 C 651.781 2.80814 -4.53849 0
M  V30 6573 O 652.004 3.967 -4.0986 0
M  V30 6574 O 650.938 2.56963 -5.44292 0
M  V30 6575 H 654.764 0.318552 -3.02025 0
M  V30 6576 H 652.349 0.0912021 -1.49121 0
M  V30 6577 H 654.231 2.76622 -3.17897 0
M  V30 6578 H 652.906 2.54182 -2.00432 0
M  V30 6579 H 651.813 0.893182 -3.63281 0
M  V30 6580 H 653.146 1.19426 -4.77492 0
M  V30 6581 N 654.798 1.5699 0.138552 0
M  V30 6582 C 655.731 1.94064 1.2006 0
M  V30 6583 C 656.709 0.807601 1.41126 0
M  V30 6584 O 657.893 1.06399 1.556 0
M  V30 6585 C 655.02 2.21999 2.55801 0
M  V30 6586 C 654.066 3.44617 2.5128 0
M  V30 6587 S 654.899 4.97888 1.97149 0
M  V30 6588 C 656.055 5.28954 3.34602 0
M  V30 6589 H 656.288 2.83843 0.884337 0
M  V30 6590 H 653.821 1.50507 0.344517 0
M  V30 6591 H 655.779 2.38772 3.33914 0
M  V30 6592 H 654.44 1.32869 2.84613 0
M  V30 6593 H 653.633 3.61466 3.51224 0
M  V30 6594 H 653.235 3.27129 1.8128 0
M  V30 6595 H 655.527 5.22938 4.30745 0
M  V30 6596 H 656.47 6.30346 3.22598 0
M  V30 6597 H 656.878 4.56455 3.32128 0
M  V30 6598 N 656.276 -0.40816 1.52223 0
M  V30 6599 C 657.223 -1.49737 1.75635 0
M  V30 6600 C 658.193 -1.5493 0.598824 0
M  V30 6601 O 659.378 -1.71487 0.83648 0
M  V30 6602 C 656.518 -2.87174 1.91376 0
M  V30 6603 C 655.631 -2.91283 3.19027 0
M  V30 6604 C 654.766 -4.20026 3.25195 0
M  V30 6605 C 653.805 -4.18113 4.47044 0
M  V30 6606 N 652.942 -5.38429 4.50598 0
M  V30 6607 H 657.782 -1.29075 2.68596 0
M  V30 6608 H 655.319 -0.626518 1.33091 0
M  V30 6609 H 657.277 -3.66959 1.98486 0
M  V30 6610 H 655.907 -3.06329 1.01795 0
M  V30 6611 H 654.959 -2.03984 3.21084 0
M  V30 6612 H 656.271 -2.85734 4.08849 0
M  V30 6613 H 655.425 -5.08204 3.31382 0
M  V30 6614 H 654.164 -4.28271 2.33313 0
M  V30 6615 H 653.169 -3.28325 4.41002 0
M  V30 6616 H 654.394 -4.11507 5.40221 0
M  V30 6617 H 652.34 -5.4734 3.616 0
M  V30 6618 H 652.257 -5.34879 5.34266 0
M  V30 6619 H 653.525 -6.28557 4.61016 0
M  V30 6620 N 657.755 -1.42862 -0.66545 0
M  V30 6621 C 658.718 -1.46756 -1.76055 0
M  V30 6622 C 659.718 -0.353866 -1.56858 0
M  V30 6623 O 660.908 -0.615099 -1.62979 0
M  V30 6624 C 658.04 -1.30829 -3.14796 0
M  V30 6625 H 659.233 -2.44271 -1.73987 0
M  V30 6626 H 656.786 -1.29447 -0.875965 0
M  V30 6627 H 657.521 -0.342733 -3.22484 0
M  V30 6628 H 657.306 -2.11551 -3.30134 0
M  V30 6629 H 658.796 -1.36458 -3.94676 0
M  V30 6630 N 659.233 0.902656 -1.29189 0
M  V30 6631 C 660.51 1.63296 -1.07674 0
M  V30 6632 C 660.89 2.07649 0.380137 0
M  V30 6633 O 660.238 1.82997 1.36837 0
M  V30 6634 C 660.448 2.81603 -2.06158 0
M  V30 6635 C 661.796 3.52359 -2.36914 0
M  V30 6636 O 662.82 2.91767 -2.04329 0
M  V30 6637 O 661.679 4.61586 -2.92576 0
M  V30 6638 H 658.773 0.716889 -0.41231 0
M  V30 6639 H 661.319 0.950984 -1.4055 0
M  V30 6640 H 660.091 2.46004 -3.04299 0
M  V30 6641 H 659.714 3.57508 -1.73993 0
M  V30 6642 N 660.711 1.11618 1.11262 0
M  V30 6643 C 661.96 0.860934 1.82403 0
M  V30 6644 C 662.273 -0.615303 1.8567 0
M  V30 6645 O 663.479 -0.986861 2.52929 0
M  V30 6646 C 661.935 1.49048 3.27586 0
M  V30 6647 C 661.543 3.00089 3.32642 0
M  V30 6648 C 663.287 1.31515 4.03614 0
M  V30 6649 C 661.194 3.56019 4.72234 0
M  V30 6650 H 660.124 0.318423 0.683464 0
M  V30 6651 H 662.775 1.34165 1.25188 0
M  V30 6652 H 661.157 0.937434 3.84744 0
M  V30 6653 H 662.331 3.61813 2.85356 0
M  V30 6654 H 660.646 3.16919 2.70096 0
M  V30 6655 H 663.243 1.70732 5.0671 0
M  V30 6656 H 663.586 0.257917 4.155 0
M  V30 6657 H 664.119 1.83694 3.52848 0
M  V30 6658 H 660.858 4.61463 4.65545 0
M  V30 6659 H 660.378 2.99066 5.19923 0
M  V30 6660 H 662.057 3.54568 5.41193 0
M  V30 6661 N 662.189 -1.289 0.906776 0
M  V30 6662 C 663.137 -2.29477 0.379873 0
M  V30 6663 C 664.131 -1.61068 -0.524747 0
M  V30 6664 O 665.337 -1.75344 -0.406765 0
M  V30 6665 H 661.712 -0.744742 0.10423 0
M  V30 6666 H 663.683 -2.71353 1.24137 0
M  V30 6667 C 662.432 -3.45713 -0.371154 0
M  V30 6668 H 661.755 -3.98551 0.315716 0
M  V30 6669 H 663.195 -4.18105 -0.704581 0
M  V30 6670 C 661.654 -2.9774 -1.57646 0
M  V30 6671 O 662.184 -2.99618 -2.67567 0
M  V30 6672 N 660.39 -2.53485 -1.42105 0
M  V30 6673 H 659.937 -2.52156 -0.526783 0
M  V30 6674 H 659.895 -2.21747 -2.22881 0
M  V30 6675 N 663.667 -0.670007 -1.42649 0
M  V30 6676 C 664.63 0.00204659 -2.292 0
M  V30 6677 C 665.63 0.733817 -1.4308 0
M  V30 6678 O 666.82 0.57254 -1.64522 0
M  V30 6679 C 663.952 1.01359 -3.25483 0
M  V30 6680 H 665.145 -0.759696 -2.90118 0
M  V30 6681 H 662.698 -0.432105 -1.50208 0
M  V30 6682 H 663.433 1.80399 -2.69493 0
M  V30 6683 H 663.218 0.492323 -3.88997 0
M  V30 6684 H 664.708 1.4824 -3.90403 0
M  V30 6685 N 665.145 1.52092 -0.413018 0
M  V30 6686 C 666.092 2.27119 0.410558 0
M  V30 6687 C 667.062 1.29692 1.03774 0
M  V30 6688 O 668.247 1.58561 1.06128 0
M  V30 6689 C 665.387 3.09863 1.51918 0
M  V30 6690 C 664.5 4.22252 0.912528 0
M  V30 6691 C 663.635 4.92348 1.99417 0
M  V30 6692 C 662.674 5.96694 1.36466 0
M  V30 6693 N 661.811 6.60292 2.38661 0
M  V30 6694 H 666.651 2.97067 -0.235661 0
M  V30 6695 H 664.188 1.46542 -0.128055 0
M  V30 6696 H 666.146 3.56144 2.17295 0
M  V30 6697 H 664.776 2.42078 2.13537 0
M  V30 6698 H 663.828 3.80113 0.147697 0
M  V30 6699 H 665.14 4.9709 0.412717 0
M  V30 6700 H 664.294 5.42054 2.72512 0
M  V30 6701 H 663.033 4.17087 2.52764 0
M  V30 6702 H 662.038 5.46304 0.61906 0
M  V30 6703 H 663.263 6.73899 0.838827 0
M  V30 6704 H 661.209 5.87858 2.91134 0
M  V30 6705 H 661.126 7.30816 1.93503 0
M  V30 6706 H 662.394 7.14635 3.11314 0
M  V30 6707 N 666.623 0.143563 1.56945 0
M  V30 6708 C 667.555 -0.828353 2.13708 0
M  V30 6709 C 668.568 -1.21313 1.08568 0
M  V30 6710 O 669.757 -1.1578 1.35857 0
M  V30 6711 C 666.857 -2.12248 2.64204 0
M  V30 6712 C 666.03 -1.90561 3.93707 0
M  V30 6713 C 665.089 -3.03931 4.29549 0
M  V30 6714 O 664.115 -2.75772 4.97934 0
M  V30 6715 N 665.317 -4.31016 3.88852 0
M  V30 6716 H 668.082 -0.343242 2.97728 0
M  V30 6717 H 665.643 -0.0401152 1.6185 0
M  V30 6718 H 667.635 -2.87132 2.85197 0
M  V30 6719 H 666.205 -2.52033 1.84928 0
M  V30 6720 H 665.425 -0.997327 3.81375 0
M  V30 6721 H 666.713 -1.73405 4.78339 0
M  V30 6722 H 666.111 -4.56762 3.33743 0
M  V30 6723 H 664.668 -5.02691 4.14903 0
M  V30 6724 N 668.101 -1.57061 -0.130224 0
M  V30 6725 C 669.011 -2.02802 -1.17934 0
M  V30 6726 C 670.027 -0.946378 -1.46013 0
M  V30 6727 O 671.203 -1.25708 -1.57351 0
M  V30 6728 C 668.268 -2.41368 -2.48882 0
M  V30 6729 C 667.329 -3.63561 -2.28301 0
M  V30 6730 C 666.562 -4.00279 -3.53005 0
M  V30 6731 O 666.785 -3.37463 -4.59864 0
M  V30 6732 O 665.719 -4.93441 -3.44673 0
M  V30 6733 H 669.545 -2.92394 -0.820958 0
M  V30 6734 H 667.13 -1.45475 -0.340197 0
M  V30 6735 H 669.012 -2.66958 -3.26054 0
M  V30 6736 H 667.687 -1.54926 -2.84217 0
M  V30 6737 H 666.594 -3.43136 -1.49025 0
M  V30 6738 H 667.927 -4.50673 -1.97875 0
M  V30 6739 N 669.579 0.400081 -1.52437 0
M  V30 6740 C 670.856 1.15973 -1.57511 0
M  V30 6741 C 671.236 2.0798 -0.361572 0
M  V30 6742 O 670.584 2.19032 0.650929 0
M  V30 6743 C 670.794 1.92912 -2.90837 0
M  V30 6744 C 672.142 2.48662 -3.44169 0
M  V30 6745 O 673.166 2.03081 -2.92637 0
M  V30 6746 O 672.025 3.31894 -4.34176 0
M  V30 6747 H 669.119 0.530023 -0.634827 0
M  V30 6748 H 671.665 0.40613 -1.64769 0
M  V30 6749 H 670.437 1.25564 -3.70607 0
M  V30 6750 H 670.06 2.75257 -2.86913 0
M  V30 6751 N 671.057 1.43213 0.657864 0
M  V30 6752 C 671.99 1.42456 1.78273 0
M  V30 6753 C 672.968 0.286598 1.60054 0
M  V30 6754 O 674.152 0.479467 1.823 0
M  V30 6755 C 671.279 1.23169 3.15511 0
M  V30 6756 C 670.325 2.40181 3.52442 0
M  V30 6757 S 671.158 4.02729 3.52944 0
M  V30 6758 C 672.314 3.85816 4.92846 0
M  V30 6759 H 672.547 2.37642 1.78644 0
M  V30 6760 H 670.08 1.30188 0.830084 0
M  V30 6761 H 672.038 1.12728 3.94719 0
M  V30 6762 H 670.699 0.295398 3.12708 0
M  V30 6763 H 669.892 2.22478 4.52239 0
M  V30 6764 H 669.494 2.47224 2.80636 0
M  V30 6765 H 671.786 3.47853 5.81381 0
M  V30 6766 H 672.729 4.85348 5.15599 0
M  V30 6767 H 673.137 3.18361 4.66162 0
M  V30 6768 N 672.536 -0.895792 1.29666 0
M  V30 6769 C 673.469 -2.00238 1.09453 0
M  V30 6770 C 674.447 -1.62599 0.00527044 0
M  V30 6771 O 675.631 -1.87847 0.156729 0
M  V30 6772 C 672.758 -3.32066 0.667054 0
M  V30 6773 C 671.804 -3.88691 1.7556 0
M  V30 6774 S 672.637 -4.17317 3.35569 0
M  V30 6775 C 673.793 -5.52181 2.94698 0
M  V30 6776 H 674.026 -2.17076 2.03138 0
M  V30 6777 H 671.559 -1.04287 1.13858 0
M  V30 6778 H 673.517 -4.08272 0.427136 0
M  V30 6779 H 672.178 -3.13101 -0.250256 0
M  V30 6780 H 671.371 -4.83918 1.40853 0
M  V30 6781 H 670.973 -3.19187 1.94924 0
M  V30 6782 H 673.265 -6.3281 2.41986 0
M  V30 6783 H 674.208 -5.91817 3.88791 0
M  V30 6784 H 674.616 -5.14225 2.32879 0
M  V30 6785 N 674.014 -1.12206 -1.10668 0
M  V30 6786 C 675.261 -0.875875 -1.82578 0
M  V30 6787 C 675.589 0.598342 -1.85068 0
M  V30 6788 O 674.844 1.45818 -1.3052 0
M  V30 6789 C 675.143 -1.39276 -3.29146 0
M  V30 6790 C 674.809 -2.8816 -3.46806 0
M  V30 6791 C 673.471 -3.28813 -3.51334 0
M  V30 6792 C 675.823 -3.8401 -3.52399 0
M  V30 6793 C 673.151 -4.64028 -3.59019 0
M  V30 6794 C 675.503 -5.19053 -3.61617 0
M  V30 6795 C 674.167 -5.59252 -3.64408 0
M  V30 6796 H 673.437 -0.320505 -0.6681 0
M  V30 6797 H 676.084 -1.40184 -1.30464 0
M  V30 6798 H 674.389 -0.787207 -3.8381 0
M  V30 6799 H 676.086 -1.17851 -3.83291 0
M  V30 6800 H 672.676 -2.55716 -3.43958 0
M  V30 6801 H 676.86 -3.53698 -3.48154 0
M  V30 6802 H 672.116 -4.94568 -3.59461 0
M  V30 6803 H 676.29 -5.93152 -3.64889 0
M  V30 6804 H 673.917 -6.64017 -3.70116 0
M  V30 6805 N 675.492 1.28418 -0.913599 0
M  V30 6806 C 676.442 2.24928 -0.373042 0
M  V30 6807 C 677.426 1.52444 0.514753 0
M  V30 6808 O 678.618 1.73414 0.3545 0
M  V30 6809 C 675.747 3.41124 0.385896 0
M  V30 6810 C 674.833 4.20929 -0.51761 0
M  V30 6811 N 675.224 4.78777 -1.63113 0
M  V30 6812 C 673.522 4.44865 -0.317969 0
M  V30 6813 C 674.223 5.38822 -2.19193 0
M  V30 6814 N 673.199 5.22974 -1.48321 0
M  V30 6815 H 677.001 2.67224 -1.22346 0
M  V30 6816 H 674.515 1.43187 -0.766236 0
M  V30 6817 H 676.512 4.09347 0.789997 0
M  V30 6818 H 675.172 3.00362 1.23341 0
M  V30 6819 H 676.183 4.77148 -2.01372 0
M  V30 6820 H 672.86 4.14614 0.49004 0
M  V30 6821 H 674.25 5.94615 -3.12861 0
M  V30 6822 N 676.97 0.677563 1.42291 0
M  V30 6823 C 677.917 0.000947061 2.308 0
M  V30 6824 C 678.887 -0.789889 1.46116 0
M  V30 6825 O 680.072 -0.761578 1.74942 0
M  V30 6826 C 677.212 -0.942387 3.31984 0
M  V30 6827 C 676.325 -0.14508 4.31756 0
M  V30 6828 C 675.46 -1.08442 5.20013 0
M  V30 6829 C 674.499 -0.278958 6.11464 0
M  V30 6830 N 673.636 -1.17115 6.92263 0
M  V30 6831 H 678.476 0.761521 2.88106 0
M  V30 6832 H 676.013 0.38727 1.41911 0
M  V30 6833 H 677.971 -1.50317 3.89179 0
M  V30 6834 H 676.601 -1.66956 2.76271 0
M  V30 6835 H 675.653 0.532368 3.76656 0
M  V30 6836 H 676.965 0.48015 4.96484 0
M  V30 6837 H 676.119 -1.71504 5.81955 0
M  V30 6838 H 674.858 -1.74353 4.55469 0
M  V30 6839 H 673.863 0.364856 5.48588 0
M  V30 6840 H 675.088 0.376099 6.78058 0
M  V30 6841 H 673.034 -1.81661 6.30345 0
M  V30 6842 H 672.951 -0.601063 7.53607 0
M  V30 6843 H 674.219 -1.78915 7.58689 0
M  V30 6844 N 678.448 -1.51871 0.421078 0
M  V30 6845 C 679.697 -2.01125 -0.152206 0
M  V30 6846 C 680.01 -1.3106 -1.45199 0
M  V30 6847 O 681.216 -1.71195 -2.10724 0
M  V30 6848 C 679.672 -3.58458 -0.3218 0
M  V30 6849 C 679.28 -4.37448 0.96659 0
M  V30 6850 C 681.024 -4.15908 -0.84973 0
M  V30 6851 C 678.931 -5.86451 0.763529 0
M  V30 6852 H 677.861 -0.751556 -0.0606565 0
M  V30 6853 H 680.512 -1.75115 0.548354 0
M  V30 6854 H 678.894 -3.80847 -1.08498 0
M  V30 6855 H 680.068 -4.26814 1.73684 0
M  V30 6856 H 678.383 -3.91373 1.42183 0
M  V30 6857 H 680.98 -5.24922 -1.01788 0
M  V30 6858 H 681.323 -3.74031 -1.82774 0
M  V30 6859 H 681.856 -3.97535 -0.145297 0
M  V30 6860 H 678.595 -6.3271 1.71344 0
M  V30 6861 H 678.115 -5.99791 0.0327889 0
M  V30 6862 H 679.794 -6.45697 0.410354 0
M  V30 6863 N 679.926 -0.151884 -1.56866 0
M  V30 6864 C 681.156 0.504081 -2.00356 0
M  V30 6865 C 681.564 1.58639 -1.03103 0
M  V30 6866 O 680.907 1.83688 -0.0207931 0
M  V30 6867 C 680.969 1.15975 -3.40279 0
M  V30 6868 C 680.633 0.221453 -4.56463 0
M  V30 6869 C 681.63 -0.552766 -5.16953 0
M  V30 6870 C 679.315 0.122936 -5.0215 0
M  V30 6871 C 681.309 -1.4129 -6.21543 0
M  V30 6872 C 678.996 -0.740801 -6.06593 0
M  V30 6873 C 679.994 -1.50732 -6.6616 0
M  V30 6874 O 679.682 -2.35666 -7.68581 0
M  V30 6875 H 679.414 0.135279 -0.662326 0
M  V30 6876 H 681.968 -0.244916 -2.03935 0
M  V30 6877 H 680.198 1.95649 -3.33554 0
M  V30 6878 H 681.887 1.71594 -3.67846 0
M  V30 6879 H 682.653 -0.486716 -4.82552 0
M  V30 6880 H 678.532 0.70931 -4.5551 0
M  V30 6881 H 682.076 -2.01166 -6.67966 0
M  V30 6882 H 677.973 -0.808125 -6.40421 0
M  V30 6883 H 678.741 -2.28967 -7.85822 0
M  V30 6884 N 681.404 1.57128 0.121893 0
M  V30 6885 C 682.653 1.83888 0.828748 0
M  V30 6886 C 682.966 0.737087 1.81181 0
M  V30 6887 O 684.172 0.891007 2.56463 0
M  V30 6888 C 682.628 3.26014 1.52455 0
M  V30 6889 C 682.236 4.44195 0.58263 0
M  V30 6890 C 683.98 3.62025 2.21671 0
M  V30 6891 C 681.887 5.77349 1.28149 0
M  V30 6892 H 680.817 0.685856 0.313238 0
M  V30 6893 H 683.468 1.83319 0.0814851 0
M  V30 6894 H 681.85 3.21044 2.31834 0
M  V30 6895 H 683.024 4.60457 -0.177729 0
M  V30 6896 H 681.339 4.164 -0.00241228 0
M  V30 6897 H 683.936 4.58776 2.74643 0
M  V30 6898 H 684.279 2.89315 2.99337 0
M  V30 6899 H 684.812 3.68767 1.49184 0
M  V30 6900 H 681.551 6.53221 0.546189 0
M  V30 6901 H 681.071 5.64978 2.01394 0
M  V30 6902 H 682.75 6.21006 1.81549 0
M  V30 6903 N 682.882 -0.391992 1.52647 0
M  V30 6904 C 683.814 -1.49811 1.73463 0
M  V30 6905 C 684.827 -1.50734 0.615078 0
M  V30 6906 O 686.016 -1.5469 0.890696 0
M  V30 6907 C 683.116 -2.88667 1.77552 0
M  V30 6908 C 682.289 -3.11743 3.06815 0
M  V30 6909 C 681.348 -4.30564 3.02491 0
M  V30 6910 O 680.374 -4.27014 3.76361 0
M  V30 6911 N 681.576 -5.36593 2.21468 0
M  V30 6912 H 684.341 -1.32343 2.68897 0
M  V30 6913 H 681.902 -0.581475 1.51098 0
M  V30 6914 H 683.894 -3.66251 1.7217 0
M  V30 6915 H 682.464 -2.99508 0.895181 0
M  V30 6916 H 681.684 -2.2205 3.25711 0
M  V30 6917 H 682.972 -3.24013 3.92292 0
M  V30 6918 H 682.37 -5.42332 1.60913 0
M  V30 6919 H 680.927 -6.12855 2.21928 0
M  V30 6920 N 684.36 -1.4356 -0.65026 0
M  V30 6921 C 685.307 -1.48948 -1.76304 0
M  V30 6922 C 686.277 -0.338919 -1.62605 0
M  V30 6923 O 687.462 -0.54649 -1.82806 0
M  V30 6924 C 684.602 -1.42131 -3.14472 0
M  V30 6925 C 683.715 -2.67415 -3.39284 0
M  V30 6926 C 682.85 -2.52565 -4.67316 0
M  V30 6927 C 681.889 -3.73103 -4.85243 0
M  V30 6928 N 681.026 -3.57046 -6.04535 0
M  V30 6929 H 685.866 -2.44032 -1.71034 0
M  V30 6930 H 683.403 -1.21131 -0.834601 0
M  V30 6931 H 685.361 -1.36172 -3.94351 0
M  V30 6932 H 683.991 -0.506273 -3.18805 0
M  V30 6933 H 683.043 -2.8364 -2.53481 0
M  V30 6934 H 684.355 -3.56943 -3.48415 0
M  V30 6935 H 683.509 -2.44331 -5.55326 0
M  V30 6936 H 682.248 -1.60566 -4.60511 0
M  V30 6937 H 681.253 -3.81743 -3.95667 0
M  V30 6938 H 682.478 -4.66115 -4.93876 0
M  V30 6939 H 680.424 -2.67783 -5.98856 0
M  V30 6940 H 680.341 -4.40178 -6.14638 0
M  V30 6941 H 681.609 -3.52669 -6.95158 0
M  V30 6942 N 685.838 0.888903 -1.30139 0
M  V30 6943 C 686.788 1.9814 -1.12803 0
M  V30 6944 C 687.772 1.60839 -0.0443137 0
M  V30 6945 O 688.964 1.74971 -0.267208 0
M  V30 6946 C 686.093 3.33416 -0.817849 0
M  V30 6947 C 685.179 3.77043 -1.94163 0
M  V30 6948 N 685.57 3.92805 -3.18651 0
M  V30 6949 C 683.868 4.06407 -1.8371 0
M  V30 6950 C 684.569 4.29746 -3.92038 0
M  V30 6951 N 683.545 4.3939 -3.20059 0
M  V30 6952 H 687.347 2.08411 -2.07225 0
M  V30 6953 H 684.861 1.07845 -1.21421 0
M  V30 6954 H 686.858 4.11405 -0.674668 0
M  V30 6955 H 685.518 3.24484 0.118344 0
M  V30 6956 H 686.529 3.78042 -3.53984 0
M  V30 6957 H 683.206 4.05972 -0.974331 0
M  V30 6958 H 684.596 4.49695 -4.99223 0
M  V30 6959 N 687.317 1.12792 1.10072 0
M  V30 6960 C 688.594 0.796867 1.78632 0
M  V30 6961 C 688.974 -0.712739 1.98704 0
M  V30 6962 O 688.322 -1.64773 1.5831 0
M  V30 6963 C 688.532 1.57622 3.11378 0
M  V30 6964 C 689.88 1.76463 3.86194 0
M  V30 6965 O 690.904 1.54165 3.2111 0
M  V30 6966 O 689.763 2.13623 5.03018 0
M  V30 6967 H 686.857 0.290248 0.774394 0
M  V30 6968 H 689.403 1.23215 1.16688 0
M  V30 6969 H 688.175 2.60246 2.92212 0
M  V30 6970 H 687.798 1.13543 3.81043 0
M  V30 6971 N 688.795 -1.27931 0.920396 0
M  V30 6972 C 689.743 -2.29061 0.404191 0
M  V30 6973 C 690.737 -1.61615 -0.507634 0
M  V30 6974 O 691.943 -1.75765 -0.388144 0
M  V30 6975 H 688.318 -0.743594 0.112123 0
M  V30 6976 H 690.289 -2.70021 1.27008 0
M  V30 6977 C 689.038 -3.46088 -0.334466 0
M  V30 6978 H 688.361 -3.98194 0.35797 0
M  V30 6979 H 689.801 -4.18829 -0.660196 0
M  V30 6980 C 688.26 -2.99396 -1.54479 0
M  V30 6981 O 688.79 -3.02439 -2.64374 0
M  V30 6982 N 686.996 -2.54978 -1.39408 0
M  V30 6983 H 686.543 -2.52701 -0.500009 0
M  V30 6984 H 686.501 -2.24098 -2.20516 0
M  V30 6985 N 690.273 -0.685099 -1.4193 0
M  V30 6986 C 691.519 -0.211971 -2.01689 0
M  V30 6987 C 691.852 1.18189 -1.54094 0
M  V30 6988 O 691.127 1.79559 -0.747572 0
M  V30 6989 C 691.41 -0.258019 -3.59174 0
M  V30 6990 C 691.263 -1.68807 -4.16922 0
M  V30 6991 C 692.582 0.388044 -4.38386 0
M  V30 6992 H 689.701 -0.0784987 -0.732808 0
M  V30 6993 H 692.343 -0.871837 -1.68816 0
M  V30 6994 H 690.493 0.303832 -3.8731 0
M  V30 6995 H 692.165 -2.30296 -3.99702 0
M  V30 6996 H 690.408 -2.22553 -3.72361 0
M  V30 6997 H 691.079 -1.6719 -5.26072 0
M  V30 6998 H 693.555 -0.0903432 -4.16002 0
M  V30 6999 H 692.431 0.325232 -5.47936 0
M  V30 7000 H 692.692 1.4672 -4.17044 0
M  V30 7001 N 691.751 1.51645 -0.429126 0
M  V30 7002 C 692.976 2.06917 0.141399 0
M  V30 7003 C 693.401 1.29527 1.36398 0
M  V30 7004 O 692.759 0.33094 1.78254 0
M  V30 7005 C 692.807 3.57776 0.4504 0
M  V30 7006 O 691.911 3.82639 1.53821 0
M  V30 7007 H 691.252 0.663978 0.0054647 0
M  V30 7008 H 693.782 1.95355 -0.608093 0
M  V30 7009 H 693.792 4.01894 0.703249 0
M  V30 7010 H 692.467 4.13532 -0.443213 0
M  V30 7011 H 691.044 3.5039 1.27597 0
M  V30 7012 N 693.229 0.160201 1.56784 0
M  V30 7013 C 694.478 -0.487619 1.95717 0
M  V30 7014 C 694.791 -1.65136 1.0483 0
M  V30 7015 O 695.997 -2.36468 1.33398 0
M  V30 7016 C 694.453 -0.91888 3.47972 0
M  V30 7017 C 694.061 0.218655 4.47466 0
M  V30 7018 C 695.805 -1.53575 3.95746 0
M  V30 7019 C 693.712 -0.231614 5.90946 0
M  V30 7020 H 692.642 -0.185939 0.730714 0
M  V30 7021 H 695.293 0.246657 1.81835 0
M  V30 7022 H 693.675 -1.70881 3.57234 0
M  V30 7023 H 694.849 0.995825 4.49911 0
M  V30 7024 H 693.164 0.744767 4.09685 0
M  V30 7025 H 695.761 -1.88448 5.00391 0
M  V30 7026 H 696.104 -2.42959 3.38048 0
M  V30 7027 H 696.637 -0.810467 3.89456 0
M  V30 7028 H 693.376 0.62718 6.52493 0
M  V30 7029 H 692.896 -0.974379 5.91833 0
M  V30 7030 H 694.575 -0.67922 6.43425 0
M  V30 7031 N 694.707 -1.5719 -0.113559 0
M  V30 7032 C 695.637 -2.03772 -1.14013 0
M  V30 7033 C 696.618 -0.923176 -1.42869 0
M  V30 7034 O 697.803 -1.19325 -1.53216 0
M  V30 7035 C 694.933 -2.44663 -2.4649 0
M  V30 7036 C 693.887 -3.59612 -2.32085 0
M  V30 7037 C 693.213 -3.8642 -3.69573 0
M  V30 7038 C 694.513 -4.91149 -1.7768 0
M  V30 7039 H 696.207 -2.89785 -0.752665 0
M  V30 7040 H 693.753 -1.39412 -0.360609 0
M  V30 7041 H 695.706 -2.75857 -3.18561 0
M  V30 7042 H 694.43 -1.55628 -2.87137 0
M  V30 7043 H 693.089 -3.28636 -1.62461 0
M  V30 7044 H 692.737 -2.94581 -4.07715 0
M  V30 7045 H 692.437 -4.63797 -3.60786 0
M  V30 7046 H 693.961 -4.2007 -4.4314 0
M  V30 7047 H 695.375 -5.20843 -2.39574 0
M  V30 7048 H 693.772 -5.72562 -1.79701 0
M  V30 7049 H 694.842 -4.79301 -0.734776 0
M  V30 7050 N 696.185 0.383891 -1.52853 0
M  V30 7051 C 697.432 1.12842 -1.68146 0
M  V30 7052 C 697.76 1.89823 -0.423954 0
M  V30 7053 O 697.015 1.86475 0.593765 0
M  V30 7054 C 697.314 2.12881 -2.87082 0
M  V30 7055 C 696.98 1.52519 -4.24322 0
M  V30 7056 C 695.642 1.35783 -4.61645 0
M  V30 7057 C 697.994 1.0868 -5.09743 0
M  V30 7058 C 695.322 0.737643 -5.82044 0
M  V30 7059 C 697.674 0.480699 -6.30771 0
M  V30 7060 C 696.338 0.300681 -6.66822 0
M  V30 7061 H 695.608 0.412917 -0.615289 0
M  V30 7062 H 698.255 0.412416 -1.87006 0
M  V30 7063 H 696.56 2.90719 -2.62659 0
M  V30 7064 H 698.257 2.70408 -2.96109 0
M  V30 7065 H 694.847 1.66534 -3.94923 0
M  V30 7066 H 699.031 1.2041 -4.81472 0
M  V30 7067 H 694.287 0.586415 -6.08581 0
M  V30 7068 H 698.461 0.132733 -6.96273 0
M  V30 7069 H 696.088 -0.181966 -7.59982 0
M  V30 7070 N 697.663 1.43903 0.642637 0
M  V30 7071 C 698.626 1.49538 1.73698 0
M  V30 7072 C 699.626 0.378776 1.56275 0
M  V30 7073 O 700.816 0.64095 1.6198 0
M  V30 7074 C 697.948 1.35821 3.12675 0
M  V30 7075 H 699.141 2.47008 1.70079 0
M  V30 7076 H 696.694 1.30824 0.85526 0
M  V30 7077 H 697.429 0.393994 3.21898 0
M  V30 7078 H 697.214 2.16776 3.26727 0
M  V30 7079 H 698.704 1.4272 3.92455 0
M  V30 7080 N 699.141 -0.881989 1.30609 0
M  V30 7081 C 700.418 -1.61563 1.10258 0
M  V30 7082 C 700.798 -2.08228 -0.347053 0
M  V30 7083 O 700.146 -1.85151 -1.33908 0
M  V30 7084 C 700.356 -2.78287 2.10612 0
M  V30 7085 C 701.704 -3.48545 2.4249 0
M  V30 7086 O 702.728 -2.88479 2.08945 0
M  V30 7087 O 701.587 -4.56873 2.99883 0
M  V30 7088 H 698.681 -0.710238 0.423663 0
M  V30 7089 H 701.227 -0.928503 1.42045 0
M  V30 7090 H 699.999 -2.41131 3.08174 0
M  V30 7091 H 699.622 -3.54695 1.79659 0
M  V30 7092 N 700.619 -1.13374 -1.09472 0
M  V30 7093 C 701.868 -0.889844 -1.8101 0
M  V30 7094 C 702.181 0.585686 -1.86625 0
M  V30 7095 O 703.387 0.946497 -2.54467 0
M  V30 7096 C 701.843 -1.54241 -3.25174 0
M  V30 7097 C 701.451 -3.05343 -3.27826 0
M  V30 7098 C 703.195 -1.37919 -4.0147 0
M  V30 7099 C 701.102 -3.63486 -4.6651 0
M  V30 7100 H 700.032 -0.329256 -0.678311 0
M  V30 7101 H 702.683 -1.36139 -1.23038 0
M  V30 7102 H 701.065 -0.998525 -3.83204 0
M  V30 7103 H 702.239 -3.66307 -2.79563 0
M  V30 7104 H 700.554 -3.21175 -2.65019 0
M  V30 7105 H 703.151 -1.78771 -5.03929 0
M  V30 7106 H 703.494 -0.323987 -4.15037 0
M  V30 7107 H 704.027 -1.89284 -3.49881 0
M  V30 7108 H 700.766 -4.68811 -4.58145 0
M  V30 7109 H 700.286 -3.073 -5.15099 0
M  V30 7110 H 701.965 -3.63134 -5.35484 0
M  V30 7111 N 702.098 1.27442 -0.927168 0
M  V30 7112 C 703.008 2.30599 -0.431448 0
M  V30 7113 C 704.024 1.67028 0.48761 0
M  V30 7114 O 705.2 1.97962 0.370546 0
M  V30 7115 C 702.265 3.45327 0.308292 0
M  V30 7116 C 701.326 4.24418 -0.645615 0
M  V30 7117 C 700.559 5.33667 0.0589164 0
M  V30 7118 O 700.782 5.5589 1.27838 0
M  V30 7119 O 699.716 5.98774 -0.612638 0
M  V30 7120 H 703.542 2.75036 -1.28797 0
M  V30 7121 H 701.127 1.32382 -0.692495 0
M  V30 7122 H 703.009 4.15107 0.725555 0
M  V30 7123 H 701.684 3.02945 1.14043 0
M  V30 7124 H 700.591 3.57174 -1.11255 0
M  V30 7125 H 701.924 4.70512 -1.44496 0
M  V30 7126 N 703.576 0.692616 1.41565 0
M  V30 7127 C 704.824 0.221896 2.00878 0
M  V30 7128 C 705.145 -1.18164 1.5512 0
M  V30 7129 O 704.415 -1.79679 0.78054 0
M  V30 7130 H 702.995 0.0790463 0.742806 0
M  V30 7131 H 705.657 0.893115 1.73232 0
M  V30 7132 H 704.753 0.23702 3.11199 0
M  V30 7133 N 705.054 -1.51416 0.437162 0
M  V30 7134 C 706.301 -2.02086 -0.129364 0
M  V30 7135 C 706.629 -1.32133 -1.42728 0
M  V30 7136 O 705.884 -0.424916 -1.91031 0
M  V30 7137 C 706.183 -3.55203 -0.39564 0
M  V30 7138 C 705.849 -4.43447 0.81644 0
M  V30 7139 C 704.511 -4.67285 1.14884 0
M  V30 7140 C 706.863 -4.95219 1.62503 0
M  V30 7141 C 704.191 -5.40141 2.29052 0
M  V30 7142 C 706.543 -5.69327 2.7577 0
M  V30 7143 C 705.207 -5.91429 3.09464 0
M  V30 7144 H 704.477 -0.739486 -0.0473375 0
M  V30 7145 H 707.124 -1.82368 0.584321 0
M  V30 7146 H 705.429 -3.73252 -1.19121 0
M  V30 7147 H 707.126 -3.91944 -0.847399 0
M  V30 7148 H 703.716 -4.2509 0.547422 0
M  V30 7149 H 707.9 -4.76686 1.38144 0
M  V30 7150 H 703.156 -5.55468 2.55471 0
M  V30 7151 H 707.33 -6.08433 3.38795 0
M  V30 7152 H 704.957 -6.47662 3.98042 0
M  V30 7153 N 706.532 -0.168513 -1.56696 0
M  V30 7154 C 707.76 0.483503 -2.01171 0
M  V30 7155 C 708.175 1.56994 -1.04872 0
M  V30 7156 O 707.532 1.82434 -0.0491337 0
M  V30 7157 C 707.583 1.0644 -3.45475 0
M  V30 7158 O 707.304 0.0213375 -4.38095 0
M  V30 7159 C 708.805 1.79493 -4.05336 0
M  V30 7160 H 706.025 0.124002 -0.659443 0
M  V30 7161 H 708.569 -0.269419 -2.02717 0
M  V30 7162 H 706.724 1.76784 -3.44712 0
M  V30 7163 H 707.138 0.449837 -5.22567 0
M  V30 7164 H 708.612 2.15401 -5.08238 0
M  V30 7165 H 709.089 2.68889 -3.47269 0
M  V30 7166 H 709.695 1.13798 -4.09793 0
M  V30 7167 N 708.01 1.57248 0.105221 0
M  V30 7168 C 709.235 1.90143 0.828264 0
M  V30 7169 C 709.66 0.761811 1.71983 0
M  V30 7170 O 709.018 -0.287086 1.79013 0
M  V30 7171 C 709.066 3.21856 1.62608 0
M  V30 7172 O 708.17 3.08732 2.7342 0
M  V30 7173 H 707.511 0.623558 0.228192 0
M  V30 7174 H 710.041 2.0443 0.0834826 0
M  V30 7175 H 710.051 3.54916 2.01243 0
M  V30 7176 H 708.726 4.0439 0.971687 0
M  V30 7177 H 707.303 2.87167 2.37886 0
M  V30 7178 N 709.488 -0.375779 1.53054 0
M  V30 7179 C 710.418 -1.46598 1.81745 0
M  V30 7180 C 711.399 -1.56337 0.670286 0
M  V30 7181 O 712.584 -1.71071 0.919158 0
M  V30 7182 C 709.714 -2.84058 1.99821 0
M  V30 7183 C 708.668 -2.8915 3.15557 0
M  V30 7184 C 707.994 -4.29187 3.18908 0
M  V30 7185 C 709.294 -2.57595 4.54359 0
M  V30 7186 H 710.988 -1.22837 2.73041 0
M  V30 7187 H 708.534 -0.589485 1.31381 0
M  V30 7188 H 710.487 -3.60342 2.18475 0
M  V30 7189 H 709.211 -3.09184 1.05226 0
M  V30 7190 H 707.87 -2.15316 2.96706 0
M  V30 7191 H 707.518 -4.51374 2.2197 0
M  V30 7192 H 707.218 -4.33512 3.96662 0
M  V30 7193 H 708.742 -5.07359 3.39734 0
M  V30 7194 H 710.156 -3.23595 4.73243 0
M  V30 7195 H 708.553 -2.73252 5.34279 0
M  V30 7196 H 709.623 -1.52882 4.60169 0
M  V30 7197 N 710.966 -1.44241 -0.634997 0
M  V30 7198 C 711.929 -1.50457 -1.72903 0
M  V30 7199 C 712.929 -0.387058 -1.56072 0
M  V30 7200 O 714.119 -0.649531 -1.61638 0
M  V30 7201 C 711.251 -1.37477 -3.1195 0
M  V30 7202 H 712.444 -2.47907 -1.68767 0
M  V30 7203 H 709.997 -1.31276 -0.84831 0
M  V30 7204 H 710.732 -0.41106 -3.21684 0
M  V30 7205 H 710.517 -2.18506 -3.25573 0
M  V30 7206 H 712.007 -1.44799 -3.91692 0
M  V30 7207 N 712.444 0.87505 -1.31075 0
M  V30 7208 C 713.669 1.66583 -1.23551 0
M  V30 7209 C 714.094 1.87067 0.19686 0
M  V30 7210 O 713.452 1.40877 1.1412 0
M  V30 7211 C 713.5 3.01401 -1.97965 0
M  V30 7212 O 712.604 3.90923 -1.31351 0
M  V30 7213 H 711.945 0.508645 -0.426821 0
M  V30 7214 H 714.475 1.09139 -1.7306 0
M  V30 7215 H 714.485 3.51374 -2.07366 0
M  V30 7216 H 713.16 2.85812 -3.02133 0
M  V30 7217 H 711.737 3.49369 -1.30368 0
M  V30 7218 N 713.922 1.13953 1.08869 0
M  V30 7219 C 714.854 0.779906 2.15523 0
M  V30 7220 C 715.867 -0.20102 1.61554 0
M  V30 7221 O 717.056 0.0200049 1.78489 0
M  V30 7222 C 714.156 0.136226 3.38626 0
M  V30 7223 C 713.329 1.15069 4.21993 0
M  V30 7224 C 712.388 0.531645 5.23507 0
M  V30 7225 O 711.414 1.19327 5.56552 0
M  V30 7226 N 712.616 -0.693734 5.7634 0
M  V30 7227 H 715.381 1.69769 2.46979 0
M  V30 7228 H 712.942 1.03331 1.24637 0
M  V30 7229 H 714.934 -0.290295 4.03658 0
M  V30 7230 H 713.504 -0.684603 3.05011 0
M  V30 7231 H 712.724 1.75431 3.53012 0
M  V30 7232 H 714.012 1.83614 4.74514 0
M  V30 7233 H 713.41 -1.24994 5.51718 0
M  V30 7234 H 711.967 -1.06283 6.43076 0
M  V30 7235 N 715.4 -1.26948 0.933913 0
M  V30 7236 C 716.64 -1.9585 0.585003 0
M  V30 7237 C 717.004 -1.71722 -0.858802 0
M  V30 7238 O 718.205 -2.34366 -1.31629 0
M  V30 7239 C 716.476 -3.45638 0.909352 0
M  V30 7240 S 718.035 -4.33656 0.669892 0
M  V30 7241 H 714.853 -0.677485 0.215721 0
M  V30 7242 H 717.455 -1.54051 1.20368 0
M  V30 7243 H 716.159 -3.60697 1.9577 0
M  V30 7244 H 715.69 -3.92401 0.280115 0
M  V30 7245 H 717.705 -4.93975 -0.469378 0
M  V30 7246 N 716.879 -0.700114 -1.41195 0
M  V30 7247 C 718.107 -0.242179 -2.05478 0
M  V30 7248 C 718.522 1.11029 -1.52702 0
M  V30 7249 O 717.879 1.69473 -0.677127 0
M  V30 7250 C 717.93 -0.196271 -3.60967 0
M  V30 7251 O 717.651 -1.49532 -4.11791 0
M  V30 7252 C 719.152 0.282102 -4.42401 0
M  V30 7253 H 716.372 -0.111749 -0.661629 0
M  V30 7254 H 718.916 -0.953975 -1.80885 0
M  V30 7255 H 717.071 0.46638 -3.84582 0
M  V30 7256 H 717.485 -1.38545 -5.05871 0
M  V30 7257 H 718.959 0.263093 -5.51373 0
M  V30 7258 H 719.436 1.32174 -4.1884 0
M  V30 7259 H 720.042 -0.349712 -4.2386 0
M  V30 7260 N 718.357 1.51182 -0.445186 0
M  V30 7261 C 719.32 2.26501 0.350722 0
M  V30 7262 C 720.32 1.3025 0.942952 0
M  V30 7263 O 721.51 1.53897 0.816175 0
M  V30 7264 C 718.642 3.06274 1.49697 0
M  V30 7265 H 719.835 2.98299 -0.309474 0
M  V30 7266 H 717.388 1.55034 -0.198551 0
M  V30 7267 H 718.123 2.38911 2.19299 0
M  V30 7268 H 717.908 3.76979 1.0784 0
M  V30 7269 H 719.398 3.63306 2.05909 0
M  V30 7270 N 719.835 0.176821 1.56605 0
M  V30 7271 C 720.767 -0.782836 2.15417 0
M  V30 7272 C 721.78 -1.18982 1.11117 0
M  V30 7273 O 722.969 -1.12872 1.38283 0
M  V30 7274 C 720.069 -2.06596 2.68647 0
M  V30 7275 C 719.242 -1.82167 3.9766 0
M  V30 7276 C 718.301 -2.94751 4.35899 0
M  V30 7277 O 717.327 -2.65148 5.03672 0
M  V30 7278 N 718.529 -4.2267 3.97907 0
M  V30 7279 H 721.294 -0.280012 2.98389 0
M  V30 7280 H 718.855 -0.00577529 1.61899 0
M  V30 7281 H 720.847 -2.81018 2.91223 0
M  V30 7282 H 719.417 -2.48054 1.90232 0
M  V30 7283 H 718.637 -0.916208 3.83405 0
M  V30 7284 H 719.925 -1.6322 4.81909 0
M  V30 7285 H 719.323 -4.4958 3.43357 0
M  V30 7286 H 717.88 -4.93778 4.25472 0
M  V30 7287 N 721.313 -1.57302 -0.09688 0
M  V30 7288 C 722.223 -2.05258 -1.13606 0
M  V30 7289 C 723.239 -0.977137 -1.43972 0
M  V30 7290 O 724.415 -1.29018 -1.54649 0
M  V30 7291 C 721.48 -2.46593 -2.43706 0
M  V30 7292 C 720.541 -3.68322 -2.20538 0
M  V30 7293 C 719.774 -4.07676 -3.44435 0
M  V30 7294 O 719.997 -3.47141 -4.52603 0
M  V30 7295 O 718.931 -5.00641 -3.34129 0
M  V30 7296 H 722.757 -2.94069 -0.758752 0
M  V30 7297 H 720.342 -1.46164 -0.309263 0
M  V30 7298 H 722.224 -2.73814 -3.20318 0
M  V30 7299 H 720.899 -1.6092 -2.80867 0
M  V30 7300 H 719.806 -3.4622 -1.41713 0
M  V30 7301 H 721.139 -4.54769 -1.88271 0
M  V30 7302 N 722.791 0.367657 -1.53252 0
M  V30 7303 C 723.721 1.45632 -1.8252 0
M  V30 7304 C 724.702 1.55979 -0.678568 0
M  V30 7305 O 725.887 1.70581 -0.928217 0
M  V30 7306 C 723.017 2.82994 -2.01325 0
M  V30 7307 C 721.971 2.87473 -3.17086 0
M  V30 7308 C 721.297 4.2749 -3.21179 0
M  V30 7309 C 722.597 2.55182 -4.55719 0
M  V30 7310 H 724.291 1.21387 -2.73689 0
M  V30 7311 H 721.837 0.58251 -1.31692 0
M  V30 7312 H 723.79 3.59179 -2.20383 0
M  V30 7313 H 722.514 3.08622 -1.06864 0
M  V30 7314 H 721.173 2.13739 -2.97844 0
M  V30 7315 H 720.821 4.5019 -2.24361 0
M  V30 7316 H 720.521 4.31403 -3.98955 0
M  V30 7317 H 722.045 5.0555 -3.42419 0
M  V30 7318 H 723.459 3.21081 -4.74953 0
M  V30 7319 H 721.856 2.70414 -5.3572 0
M  V30 7320 H 722.926 1.5044 -4.60973 0
M  V30 7321 N 724.269 1.44576 0.627338 0
M  V30 7322 C 725.515 1.47777 1.38888 0
M  V30 7323 C 725.848 0.111406 1.9388 0
M  V30 7324 O 725.123 -0.87149 1.73883 0
M  V30 7325 C 725.406 2.54119 2.55138 0
M  V30 7326 C 725.259 4.00128 2.0547 0
M  V30 7327 C 726.578 2.56929 3.57317 0
M  V30 7328 H 723.697 0.538048 0.50366 0
M  V30 7329 H 726.339 1.76277 0.708978 0
M  V30 7330 H 724.489 2.29948 3.13139 0
M  V30 7331 H 726.161 4.35444 1.5227 0
M  V30 7332 H 724.404 4.11724 1.36623 0
M  V30 7333 H 725.075 4.7019 2.89181 0
M  V30 7334 H 727.551 2.78536 3.09122 0
M  V30 7335 H 726.427 3.33234 4.36173 0
M  V30 7336 H 726.688 1.6127 4.11636 0
M  V30 7337 N 725.747 -0.868086 1.31537 0
M  V30 7338 C 726.68 -1.97871 1.13676 0
M  V30 7339 C 727.658 -1.62551 0.0397589 0
M  V30 7340 O 728.842 -1.87473 0.196539 0
M  V30 7341 C 725.969 -3.30577 0.73734 0
M  V30 7342 C 725.015 -3.8488 1.83765 0
M  V30 7343 S 725.848 -4.10106 3.44345 0
M  V30 7344 C 727.004 -5.45806 3.06344 0
M  V30 7345 H 727.237 -2.12719 2.07697 0
M  V30 7346 H 724.77 -1.01849 1.16044 0
M  V30 7347 H 726.728 -4.07274 0.513641 0
M  V30 7348 H 725.389 -3.13562 -0.183787 0
M  V30 7349 H 724.582 -4.80821 1.51085 0
M  V30 7350 H 724.184 -3.14981 2.01651 0
M  V30 7351 H 726.476 -6.27535 2.55354 0
M  V30 7352 H 727.419 -5.83437 4.01257 0
M  V30 7353 H 727.827 -5.0917 2.43734 0
M  V30 7354 N 727.225 -1.14528 -1.08264 0
M  V30 7355 C 728.453 -0.937964 -1.84418 0
M  V30 7356 C 728.868 0.51357 -1.81681 0
M  V30 7357 O 728.225 1.35591 -1.22153 0
M  V30 7358 C 728.276 -1.43272 -3.31897 0
M  V30 7359 O 727.997 -2.82738 -3.34651 0
M  V30 7360 C 729.498 -1.26555 -4.24851 0
M  V30 7361 H 726.718 -0.333704 -0.582136 0
M  V30 7362 H 729.262 -1.52076 -1.36723 0
M  V30 7363 H 727.417 -0.892653 -3.76975 0
M  V30 7364 H 727.831 -3.04971 -4.26724 0
M  V30 7365 H 729.305 -1.66031 -5.26439 0
M  V30 7366 H 729.782 -0.208589 -4.38704 0
M  V30 7367 H 730.388 -1.79423 -3.856 0
M  V30 7368 N 728.703 1.26451 -0.940633 0
M  V30 7369 C 729.633 2.28773 -0.467479 0
M  V30 7370 C 730.614 1.63218 0.478955 0
M  V30 7371 O 731.799 1.90427 0.380929 0
M  V30 7372 C 728.929 3.46259 0.268656 0
M  V30 7373 C 727.883 4.23898 -0.591171 0
M  V30 7374 C 727.209 5.33993 0.274891 0
M  V30 7375 C 728.509 4.87974 -1.86223 0
M  V30 7376 H 730.203 2.68601 -1.32265 0
M  V30 7377 H 727.749 1.29123 -0.637436 0
M  V30 7378 H 729.702 4.16951 0.610696 0
M  V30 7379 H 728.426 3.05383 1.15796 0
M  V30 7380 H 727.085 3.54969 -0.916098 0
M  V30 7381 H 726.733 4.89358 1.16353 0
M  V30 7382 H 726.433 5.86849 -0.297006 0
M  V30 7383 H 727.957 6.07523 0.612213 0
M  V30 7384 H 729.371 5.50883 -1.58747 0
M  V30 7385 H 727.768 5.50945 -2.37866 0
M  V30 7386 H 728.838 4.10945 -2.57394 0
M  V30 7387 N 730.181 0.707592 1.40822 0
M  V30 7388 C 731.129 0.0386643 2.32568 0
M  V30 7389 C 732.123 -0.755653 1.51612 0
M  V30 7390 O 733.329 -0.659921 1.67467 0
M  V30 7391 H 729.704 -0.00629912 0.751974 0
M  V30 7392 H 731.675 0.8293 2.86645 0
M  V30 7393 C 730.424 -0.87496 3.36511 0
M  V30 7394 H 729.747 -0.273157 3.98866 0
M  V30 7395 H 731.187 -1.31111 4.03219 0
M  V30 7396 C 729.646 -1.99672 2.71353 0
M  V30 7397 O 730.176 -3.08676 2.57064 0
M  V30 7398 N 728.382 -1.77799 2.29861 0
M  V30 7399 H 727.929 -0.89147 2.41683 0
M  V30 7400 H 727.887 -2.53036 1.86601 0
M  V30 7401 N 731.66 -1.50943 0.453197 0
M  V30 7402 C 732.57 -2.31884 -0.355963 0
M  V30 7403 C 733.586 -1.41481 -1.01287 0
M  V30 7404 O 734.762 -1.74546 -1.00477 0
M  V30 7405 C 731.827 -3.15668 -1.43369 0
M  V30 7406 C 730.888 -4.2187 -0.795253 0
M  V30 7407 C 730.121 -5.0165 -1.82162 0
M  V30 7408 O 730.344 -4.82266 -3.04592 0
M  V30 7409 O 729.278 -5.85311 -1.40336 0
M  V30 7410 H 733.104 -3.02162 0.305248 0
M  V30 7411 H 730.689 -1.47839 0.215398 0
M  V30 7412 H 732.571 -3.67709 -2.05836 0
M  V30 7413 H 731.246 -2.48137 -2.07869 0
M  V30 7414 H 730.153 -3.73867 -0.132106 0
M  V30 7415 H 731.486 -4.9182 -0.193484 0
M  V30 7416 N 733.138 -0.185124 -1.56509 0
M  V30 7417 C 734.068 0.735098 -2.21627 0
M  V30 7418 C 735.049 1.2288 -1.1762 0
M  V30 7419 O 736.234 1.27945 -1.46095 0
M  V30 7420 C 733.364 1.95889 -2.86783 0
M  V30 7421 C 732.318 1.6005 -3.96948 0
M  V30 7422 C 731.644 2.90009 -4.4922 0
M  V30 7423 C 732.944 0.818008 -5.15855 0
M  V30 7424 H 734.638 0.192274 -2.98782 0
M  V30 7425 H 732.184 0.0910393 -1.43712 0
M  V30 7426 H 734.137 2.60779 -3.31017 0
M  V30 7427 H 732.861 2.52608 -2.07018 0
M  V30 7428 H 731.52 0.975237 -3.5339 0
M  V30 7429 H 731.168 3.44797 -3.6623 0
M  V30 7430 H 730.868 2.66778 -5.23549 0
M  V30 7431 H 732.392 3.55904 -4.9615 0
M  V30 7432 H 733.806 1.36979 -5.56695 0
M  V30 7433 H 732.203 0.684207 -5.96187 0
M  V30 7434 H 733.273 -0.182939 -4.84555 0
M  V30 7435 N 734.616 1.57351 0.0885366 0
M  V30 7436 C 735.863 1.86419 0.790824 0
M  V30 7437 C 736.191 0.774561 1.78412 0
M  V30 7438 O 735.446 -0.23119 1.9433 0
M  V30 7439 C 735.745 3.22098 1.5488 0
M  V30 7440 C 735.411 4.4548 0.697025 0
M  V30 7441 C 734.073 4.78975 0.462237 0
M  V30 7442 C 736.425 5.21094 0.105315 0
M  V30 7443 C 733.753 5.85507 -0.374016 0
M  V30 7444 C 736.105 6.28509 -0.718298 0
M  V30 7445 C 734.769 6.60515 -0.963116 0
M  V30 7446 H 734.039 0.682157 0.289383 0
M  V30 7447 H 736.686 1.91429 0.0520961 0
M  V30 7448 H 734.991 3.12803 2.35927 0
M  V30 7449 H 736.688 3.41819 2.09669 0
M  V30 7450 H 733.278 4.19255 0.890137 0
M  V30 7451 H 737.462 4.95544 0.273856 0
M  V30 7452 H 732.718 6.08713 -0.572606 0
M  V30 7453 H 736.892 6.86268 -1.18362 0
M  V30 7454 H 734.519 7.42893 -1.6129 0
M  V30 7455 N 736.094 -0.359525 1.53444 0
M  V30 7456 C 737.057 -1.42357 1.7963 0
M  V30 7457 C 738.057 -1.46319 0.666884 0
M  V30 7458 O 739.247 -1.46974 0.935113 0
M  V30 7459 C 736.379 -2.81425 1.92387 0
M  V30 7460 H 737.572 -1.20409 2.74666 0
M  V30 7461 H 735.125 -0.593007 1.44614 0
M  V30 7462 H 735.86 -3.08679 0.994384 0
M  V30 7463 H 735.645 -2.79947 2.74539 0
M  V30 7464 H 737.135 -3.5847 2.14218 0
M  V30 7465 N 737.572 -1.44907 -0.619662 0
M  V30 7466 C 738.988 -1.29046 -0.939107 0
M  V30 7467 C 739.188 -0.23462 -2.00129 0
M  V30 7468 O 738.244 0.37558 -2.49691 0
M  V30 7469 C 739.557 -2.66567 -1.39149 0
M  V30 7470 C 741.105 -2.74368 -1.50635 0
M  V30 7471 C 741.58 -4.12386 -1.99253 0
M  V30 7472 N 743.071 -4.1462 -2.06506 0
M  V30 7473 C 743.806 -5.18272 -2.4532 0
M  V30 7474 N 743.302 -6.32278 -2.83189 0
M  V30 7475 N 745.095 -5.05628 -2.45554 0
M  V30 7476 H 737.246 -2.12239 0.0826135 0
M  V30 7477 H 739.509 -0.947652 -0.0256829 0
M  V30 7478 H 739.215 -3.4496 -0.685254 0
M  V30 7479 H 739.089 -2.94224 -2.36034 0
M  V30 7480 H 741.476 -1.96287 -2.20353 0
M  V30 7481 H 741.557 -2.50439 -0.520963 0
M  V30 7482 H 741.201 -4.90947 -1.30127 0
M  V30 7483 H 741.131 -4.33699 -2.98684 0
M  V30 7484 H 743.622 -3.32343 -1.79878 0
M  V30 7485 H 743.935 -7.07172 -3.11652 0
M  V30 7486 H 742.28 -6.35699 -2.80913 0
M  V30 7487 H 745.471 -4.15613 -2.15367 0
M  V30 7488 H 745.644 -5.86529 -2.75478 0
M  V30 7489 N 739.05 0.861098 -1.31996 0
M  V30 7490 C 740.297 1.61481 -1.22188 0
M  V30 7491 C 740.625 1.93276 0.217853 0
M  V30 7492 O 739.88 1.56942 1.16909 0
M  V30 7493 C 740.179 2.94822 -2.02027 0
M  V30 7494 C 739.845 2.82483 -3.51446 0
M  V30 7495 C 738.507 2.78825 -3.92186 0
M  V30 7496 C 740.859 2.68878 -4.46491 0
M  V30 7497 C 738.187 2.59433 -5.26224 0
M  V30 7498 C 740.539 2.51022 -5.80664 0
M  V30 7499 C 739.203 2.45753 -6.20614 0
M  V30 7500 H 738.473 0.590902 -0.447119 0
M  V30 7501 H 741.12 0.999376 -1.63355 0
M  V30 7502 H 739.425 3.6045 -1.53569 0
M  V30 7503 H 741.122 3.52149 -1.91812 0
M  V30 7504 H 737.712 2.86152 -3.19085 0
M  V30 7505 H 741.896 2.70754 -4.1594 0
M  V30 7506 H 737.152 2.53784 -5.5624 0
M  V30 7507 H 741.326 2.39473 -6.53931 0
M  V30 7508 H 738.953 2.30485 -7.24417 0
M  V30 7509 N 740.528 1.15101 1.07655 0
M  V30 7510 C 741.805 0.834578 1.76902 0
M  V30 7511 C 742.185 -0.670431 2.00171 0
M  V30 7512 O 741.533 -1.61378 1.6177 0
M  V30 7513 C 741.743 1.64191 3.07965 0
M  V30 7514 C 743.091 1.84615 3.82364 0
M  V30 7515 O 744.115 1.60941 3.17768 0
M  V30 7516 O 742.974 2.24244 4.98374 0
M  V30 7517 H 740.068 0.306608 0.768063 0
M  V30 7518 H 742.614 1.25663 1.14048 0
M  V30 7519 H 741.386 2.66386 2.86626 0
M  V30 7520 H 741.009 1.216 3.78549 0
M  V30 7521 N 742.006 -1.2595 0.947325 0
M  V30 7522 C 742.953 -2.26159 0.460497 0
M  V30 7523 C 743.923 -1.58919 -0.483125 0
M  V30 7524 O 745.108 -1.86603 -0.397983 0
M  V30 7525 C 742.248 -3.441 -0.26247 0
M  V30 7526 C 741.361 -4.25999 0.717539 0
M  V30 7527 C 740.496 -5.31193 -0.0272486 0
M  V30 7528 C 739.535 -6.04774 0.944177 0
M  V30 7529 N 738.672 -7.01721 0.230741 0
M  V30 7530 H 743.512 -2.67173 1.31995 0
M  V30 7531 H 741.049 -1.31358 0.662088 0
M  V30 7532 H 743.007 -4.11317 -0.698137 0
M  V30 7533 H 741.637 -3.03983 -1.08602 0
M  V30 7534 H 740.689 -3.58513 1.27171 0
M  V30 7535 H 742.001 -4.76981 1.45913 0
M  V30 7536 H 741.155 -6.04451 -0.521903 0
M  V30 7537 H 739.894 -4.81066 -0.801682 0
M  V30 7538 H 738.899 -5.30338 1.4499 0
M  V30 7539 H 740.124 -6.56991 1.71872 0
M  V30 7540 H 738.07 -6.53895 -0.525088 0
M  V30 7541 H 737.987 -7.50484 0.911556 0
M  V30 7542 H 739.255 -7.79122 -0.242616 0
M  V30 7543 N 743.484 -0.715051 -1.40445 0
M  V30 7544 C 744.414 -0.0768699 -2.33373 0
M  V30 7545 C 745.395 0.746109 -1.52863 0
M  V30 7546 O 746.58 0.695142 -1.81332 0
M  V30 7547 C 743.71 0.846014 -3.36838 0
M  V30 7548 C 742.664 0.128694 -4.27806 0
M  V30 7549 C 741.99 1.16726 -5.21804 0
M  V30 7550 C 743.29 -1.01679 -5.12307 0
M  V30 7551 H 744.984 -0.853061 -2.8699 0
M  V30 7552 H 742.53 -0.41167 -1.3799 0
M  V30 7553 H 744.483 1.30185 -4.00786 0
M  V30 7554 H 743.207 1.6541 -2.81615 0
M  V30 7555 H 741.866 -0.307314 -3.6531 0
M  V30 7556 H 741.514 1.96838 -4.62887 0
M  V30 7557 H 741.214 0.692188 -5.83509 0
M  V30 7558 H 742.738 1.62321 -5.88629 0
M  V30 7559 H 744.152 -0.640337 -5.69713 0
M  V30 7560 H 742.549 -1.4202 -5.83053 0
M  V30 7561 H 743.619 -1.84769 -4.48317 0
M  V30 7562 N 744.962 1.50701 -0.461195 0
M  V30 7563 C 745.925 2.2686 0.326679 0
M  V30 7564 C 746.925 1.31243 0.929085 0
M  V30 7565 O 748.115 1.54754 0.799807 0
M  V30 7566 C 745.247 3.07844 1.46441 0
M  V30 7567 H 746.44 2.97954 -0.341095 0
M  V30 7568 H 743.993 1.54814 -0.214984 0
M  V30 7569 H 744.728 2.41223 2.16753 0
M  V30 7570 H 744.513 3.78101 1.03836 0
M  V30 7571 H 746.003 3.65469 2.02044 0
M  V30 7572 N 746.441 0.193421 1.56409 0
M  V30 7573 C 747.404 -0.714371 2.17783 0
M  V30 7574 C 748.404 -1.1422 1.13183 0
M  V30 7575 O 749.594 -1.05557 1.38576 0
M  V30 7576 C 746.726 -1.97509 2.77855 0
M  V30 7577 H 747.919 -0.179714 2.99361 0
M  V30 7578 H 745.472 -0.0561944 1.56199 0
M  V30 7579 H 746.207 -2.5523 2.0007 0
M  V30 7580 H 745.992 -1.67706 3.54425 0
M  V30 7581 H 747.482 -2.62246 3.24987 0
M  V30 7582 N 747.919 -1.57396 -0.0801906 0
M  V30 7583 C 748.829 -2.06451 -1.11423 0
M  V30 7584 C 749.845 -0.992352 -1.42928 0
M  V30 7585 O 751.021 -1.30651 -1.53272 0
M  V30 7586 C 748.086 -2.49164 -2.41077 0
M  V30 7587 C 747.147 -3.70641 -2.16619 0
M  V30 7588 C 746.38 -4.11307 -3.40092 0
M  V30 7589 O 746.603 -3.51922 -4.48895 0
M  V30 7590 O 745.537 -5.04157 -3.288 0
M  V30 7591 H 749.363 -2.94857 -0.727519 0
M  V30 7592 H 746.948 -1.46484 -0.293743 0
M  V30 7593 H 748.83 -2.77196 -3.17396 0
M  V30 7594 H 747.505 -1.6389 -2.79145 0
M  V30 7595 H 746.412 -3.47703 -1.38033 0
M  V30 7596 H 747.745 -4.5674 -1.83437 0
M  V30 7597 N 749.397 0.351382 -1.53633 0
M  V30 7598 C 750.345 1.45142 -1.8176 0
M  V30 7599 C 751.339 1.54819 -0.687571 0
M  V30 7600 O 752.545 1.57536 -0.870772 0
M  V30 7601 H 748.92 0.483789 -0.575719 0
M  V30 7602 H 750.891 1.1863 -2.73806 0
M  V30 7603 C 749.64 2.81779 -2.03706 0
M  V30 7604 H 748.963 2.75097 -2.90107 0
M  V30 7605 H 750.403 3.5789 -2.27356 0
M  V30 7606 C 748.862 3.26762 -0.820271 0
M  V30 7607 O 749.392 4.01697 -0.0158603 0
M  V30 7608 N 747.598 2.83472 -0.639699 0
M  V30 7609 H 747.145 2.22655 -1.29547 0
M  V30 7610 H 747.103 3.13924 0.172995 0
M  V30 7611 N 750.875 1.45233 0.611969 0
M  V30 7612 C 751.825 1.49997 1.71711 0
M  V30 7613 C 752.809 0.363689 1.56736 0
M  V30 7614 O 754.001 0.610261 1.66147 0
M  V30 7615 C 751.13 1.46537 3.10454 0
M  V30 7616 C 750.216 2.65351 3.30831 0
M  V30 7617 N 750.607 3.90485 3.21489 0
M  V30 7618 C 748.905 2.60955 3.61688 0
M  V30 7619 C 749.606 4.69758 3.43078 0
M  V30 7620 N 748.582 4.01141 3.66861 0
M  V30 7621 H 752.384 2.44574 1.62975 0
M  V30 7622 H 749.898 1.40464 0.815082 0
M  V30 7623 H 751.895 1.48035 3.89732 0
M  V30 7624 H 750.555 0.530139 3.20343 0
M  V30 7625 H 751.566 4.22171 2.99987 0
M  V30 7626 H 748.243 1.76319 3.78441 0
M  V30 7627 H 749.633 5.7877 3.41285 0
M  V30 7628 N 752.353 -0.854086 1.3245 0
M  V30 7629 C 753.593 -1.62216 1.2436 0
M  V30 7630 C 753.957 -1.91042 -0.191564 0
M  V30 7631 O 755.158 -2.65864 -0.396211 0
M  V30 7632 C 753.429 -2.9066 2.0797 0
M  V30 7633 S 754.988 -3.81438 2.16911 0
M  V30 7634 H 751.806 -0.556386 0.442669 0
M  V30 7635 H 754.408 -1.01139 1.67305 0
M  V30 7636 H 753.112 -2.6743 3.11302 0
M  V30 7637 H 752.643 -3.56753 1.65805 0
M  V30 7638 H 754.658 -4.78347 1.31903 0
M  V30 7639 N 753.831 -1.1567 -1.07043 0
M  V30 7640 C 754.761 -0.879348 -2.16309 0
M  V30 7641 C 755.742 0.171311 -1.69235 0
M  V30 7642 O 756.927 0.0250175 -1.94184 0
M  V30 7643 C 754.057 -0.371307 -3.45309 0
M  V30 7644 C 753.011 -1.359 -4.05851 0
M  V30 7645 C 752.337 -0.709678 -5.29969 0
M  V30 7646 C 753.637 -2.72606 -4.45514 0
M  V30 7647 H 755.331 -1.79308 -2.39768 0
M  V30 7648 H 752.877 -0.863558 -1.15233 0
M  V30 7649 H 754.83 -0.164798 -4.21078 0
M  V30 7650 H 753.554 0.577906 -3.21446 0
M  V30 7651 H 752.213 -1.55193 -3.32131 0
M  V30 7652 H 751.861 0.245782 -5.02399 0
M  V30 7653 H 751.561 -1.36886 -5.71433 0
M  V30 7654 H 753.085 -0.513015 -6.08441 0
M  V30 7655 H 754.499 -2.57141 -5.12398 0
M  V30 7656 H 752.896 -3.34927 -4.97939 0
M  V30 7657 H 753.966 -3.28434 -3.56734 0
M  V30 7658 N 755.309 1.25446 -0.953992 0
M  V30 7659 C 756.725 1.4539 -0.658316 0
M  V30 7660 C 756.925 1.85607 0.784356 0
M  V30 7661 O 755.981 1.98568 1.55972 0
M  V30 7662 C 757.294 2.52643 -1.6307 0
M  V30 7663 C 758.842 2.66484 -1.64181 0
M  V30 7664 C 759.317 3.76921 -2.60182 0
M  V30 7665 N 760.808 3.84331 -2.58542 0
M  V30 7666 C 761.543 4.69271 -3.29503 0
M  V30 7667 N 761.039 5.58503 -4.09934 0
M  V30 7668 N 762.832 4.6323 -3.18393 0
M  V30 7669 H 754.983 0.976337 -1.8863 0
M  V30 7670 H 757.246 0.490343 -0.811337 0
M  V30 7671 H 756.952 2.29949 -2.66114 0
M  V30 7672 H 756.826 3.50547 -1.39271 0
M  V30 7673 H 759.213 2.88545 -0.618552 0
M  V30 7674 H 759.294 1.68982 -1.92038 0
M  V30 7675 H 758.938 3.55612 -3.62633 0
M  V30 7676 H 758.868 4.73906 -2.29609 0
M  V30 7677 H 761.359 3.20544 -2.0015 0
M  V30 7678 H 761.672 6.20241 -4.61 0
M  V30 7679 H 760.017 5.58214 -4.14032 0
M  V30 7680 H 763.208 3.92527 -2.5503 0
M  V30 7681 H 763.381 5.29204 -3.73961 0
M  V30 7682 N 756.787 0.722489 1.40064 0
M  V30 7683 C 758.036 0.261932 1.99992 0
M  V30 7684 C 758.349 -1.15358 1.57961 0
M  V30 7685 O 759.555 -1.71301 2.10637 0
M  V30 7686 C 758.011 0.41737 3.57472 0
M  V30 7687 C 757.619 1.83997 4.08472 0
M  V30 7688 C 759.363 0.0179561 4.24496 0
M  V30 7689 C 757.27 1.94563 5.5848 0
M  V30 7690 H 756.2 0.0941768 0.748095 0
M  V30 7691 H 758.851 0.894572 1.60218 0
M  V30 7692 H 757.233 -0.283965 3.94981 0
M  V30 7693 H 758.407 2.57224 3.82325 0
M  V30 7694 H 756.722 2.19147 3.54067 0
M  V30 7695 H 759.319 0.076085 5.34646 0
M  V30 7696 H 759.662 -1.02498 4.03485 0
M  V30 7697 H 760.195 0.669988 3.92117 0
M  V30 7698 H 756.934 2.97001 5.84355 0
M  V30 7699 H 756.454 1.25756 5.86469 0
M  V30 7700 H 758.133 1.72095 6.23692 0
M  V30 7701 N 758.265 -1.50454 0.469181 0
M  V30 7702 C 759.212 -2.28486 -0.325982 0
M  V30 7703 C 760.182 -1.33455 -0.988893 0
M  V30 7704 O 761.367 -1.6239 -1.0017 0
M  V30 7705 C 758.507 -3.15288 -1.40313 0
M  V30 7706 C 757.62 -4.25348 -0.755183 0
M  V30 7707 C 756.755 -4.9941 -1.81006 0
M  V30 7708 C 755.794 -6.01348 -1.14226 0
M  V30 7709 N 754.931 -6.68695 -2.1399 0
M  V30 7710 H 759.771 -2.95987 0.345753 0
M  V30 7711 H 757.308 -1.45965 0.182355 0
M  V30 7712 H 759.266 -3.63964 -2.03927 0
M  V30 7713 H 757.896 -2.49837 -2.04405 0
M  V30 7714 H 756.948 -3.80399 -0.00651901 0
M  V30 7715 H 758.26 -4.98279 -0.227941 0
M  V30 7716 H 757.414 -5.51794 -2.52206 0
M  V30 7717 H 756.153 -4.26181 -2.3711 0
M  V30 7718 H 755.158 -5.48225 -0.415876 0
M  V30 7719 H 756.383 -6.76548 -0.588135 0
M  V30 7720 H 754.329 -5.98258 -2.69115 0
M  V30 7721 H 754.246 -7.37495 -1.66246 0
M  V30 7722 H 755.514 -7.25697 -2.84576 0
M  V30 7723 N 759.743 -0.201713 -1.56304 0
M  V30 7724 C 760.992 0.435557 -1.96941 0
M  V30 7725 C 761.305 1.62299 -1.09172 0
M  V30 7726 O 762.511 2.32849 -1.3962 0
M  V30 7727 C 760.967 0.826298 -3.50286 0
M  V30 7728 C 760.575 -0.337216 -4.46729 0
M  V30 7729 C 762.319 1.43028 -3.99679 0
M  V30 7730 C 760.226 0.0748539 -5.91353 0
M  V30 7731 H 759.156 0.1665 -0.735387 0
M  V30 7732 H 761.807 -0.294781 -1.81117 0
M  V30 7733 H 760.189 1.61349 -3.61639 0
M  V30 7734 H 761.363 -1.11476 -4.47113 0
M  V30 7735 H 759.678 -0.853126 -4.07567 0
M  V30 7736 H 762.275 1.75115 -5.05212 0
M  V30 7737 H 762.618 2.33911 -3.44371 0
M  V30 7738 H 763.151 0.706924 -3.91468 0
M  V30 7739 H 759.89 -0.799957 -6.506 0
M  V30 7740 H 759.41 0.817122 -5.94208 0
M  V30 7741 H 761.089 0.508389 -6.45 0
M  V30 7742 N 761.222 1.57436 0.0718424 0
M  V30 7743 C 762.152 2.06724 1.08571 0
M  V30 7744 C 763.133 0.960731 1.40371 0
M  V30 7745 O 764.318 1.23345 1.49999 0
M  V30 7746 C 761.448 2.51112 2.39916 0
M  V30 7747 C 760.402 3.65639 2.22469 0
M  V30 7748 C 759.728 3.96082 3.59198 0
M  V30 7749 C 761.028 4.95687 1.64596 0
M  V30 7750 H 762.722 2.91679 0.675569 0
M  V30 7751 H 760.268 1.40319 0.32352 0
M  V30 7752 H 762.221 2.84206 3.11135 0
M  V30 7753 H 760.945 1.63186 2.8291 0
M  V30 7754 H 759.604 3.32828 1.53691 0
M  V30 7755 H 759.252 3.05287 3.99761 0
M  V30 7756 H 758.952 4.73199 3.48362 0
M  V30 7757 H 760.476 4.31672 4.31847 0
M  V30 7758 H 761.89 5.27011 2.25681 0
M  V30 7759 H 760.287 5.77126 1.64457 0
M  V30 7760 H 761.357 4.8108 0.60744 0
M  V30 7761 N 762.7 -0.34323 1.53817 0
M  V30 7762 C 763.948 -1.0813 1.70741 0
M  V30 7763 C 764.269 -1.89165 0.473461 0
M  V30 7764 O 763.539 -1.89075 -0.512605 0
M  V30 7765 H 762.119 -0.40219 0.629486 0
M  V30 7766 H 764.781 -0.384426 1.91071 0
M  V30 7767 H 763.877 -1.7585 2.57843 0
M  V30 7768 N 764.178 -1.45556 -0.604258 0
M  V30 7769 C 765.455 -1.40221 -1.36373 0
M  V30 7770 C 765.835 -0.0745195 -2.10968 0
M  V30 7771 O 765.183 0.943594 -2.08107 0
M  V30 7772 C 765.393 -2.61807 -2.30777 0
M  V30 7773 C 766.741 -3.07037 -2.93281 0
M  V30 7774 O 767.765 -2.62203 -2.41097 0
M  V30 7775 O 766.624 -3.8485 -3.88011 0
M  V30 7776 H 763.718 -0.556602 -0.611656 0
M  V30 7777 H 766.264 -1.57689 -0.627069 0
M  V30 7778 H 765.036 -3.50017 -1.74939 0
M  V30 7779 H 764.659 -2.46688 -3.11818 0
M  V30 7780 N 765.656 0.84705 -1.32902 0
M  V30 7781 C 766.896 1.61554 -1.25218 0
M  V30 7782 C 767.26 1.91141 0.18143 0
M  V30 7783 O 768.461 2.6607 0.382106 0
M  V30 7784 C 766.732 2.89553 -2.09509 0
M  V30 7785 S 768.291 3.80283 -2.18931 0
M  V30 7786 H 765.109 0.554031 -0.445613 0
M  V30 7787 H 767.711 1.00251 -1.67839 0
M  V30 7788 H 766.415 2.65776 -3.12716 0
M  V30 7789 H 765.946 3.55868 -1.67694 0
M  V30 7790 H 767.961 4.77641 -1.34438 0
M  V30 7791 N 767.134 1.16236 1.06428 0
M  V30 7792 C 768.364 0.965782 1.82637 0
M  V30 7793 C 768.772 -0.489284 1.82764 0
M  V30 7794 O 768.115 -1.35133 1.24438 0
M  V30 7795 C 768.177 1.41458 3.30499 0
M  V30 7796 C 767.841 2.88926 3.54077 0
M  V30 7797 C 768.838 3.86939 3.47238 0
M  V30 7798 C 766.523 3.26814 3.81442 0
M  V30 7799 C 768.517 5.20841 3.67428 0
M  V30 7800 C 766.204 4.60886 4.01282 0
M  V30 7801 C 767.202 5.57708 3.94272 0
M  V30 7802 O 766.89 6.89357 4.13573 0
M  V30 7803 H 766.622 0.342569 0.582772 0
M  V30 7804 H 769.176 1.54641 1.35187 0
M  V30 7805 H 767.406 0.777426 3.78805 0
M  V30 7806 H 769.095 1.18563 3.88198 0
M  V30 7807 H 769.861 3.59014 3.26089 0
M  V30 7808 H 765.74 2.5203 3.86008 0
M  V30 7809 H 769.284 5.96401 3.61873 0
M  V30 7810 H 765.181 4.88522 4.21921 0
M  V30 7811 H 765.949 6.95913 4.30869 0
M  V30 7812 N 768.612 -1.24939 0.960631 0
M  V30 7813 C 769.842 -1.96595 0.635123 0
M  V30 7814 C 770.25 -1.71538 -0.798206 0
M  V30 7815 O 769.593 -0.991727 -1.5463 0
M  V30 7816 C 769.655 -3.49994 0.821248 0
M  V30 7817 C 769.319 -3.98738 2.23287 0
M  V30 7818 C 770.316 -4.08965 3.21004 0
M  V30 7819 C 768.001 -4.32247 2.55867 0
M  V30 7820 C 769.995 -4.52025 4.49391 0
M  V30 7821 C 767.682 -4.74991 3.84482 0
M  V30 7822 C 768.68 -4.84844 4.81056 0
M  V30 7823 O 768.368 -5.26638 6.07378 0
M  V30 7824 H 768.1 -0.633265 0.23654 0
M  V30 7825 H 770.654 -1.5991 1.28911 0
M  V30 7826 H 768.884 -3.86543 0.110105 0
M  V30 7827 H 770.573 -4.02859 0.495892 0
M  V30 7828 H 771.339 -3.83302 2.97161 0
M  V30 7829 H 767.218 -4.23801 1.81421 0
M  V30 7830 H 770.762 -4.5963 5.24773 0
M  V30 7831 H 766.659 -5.00101 4.08129 0
M  V30 7832 H 767.427 -5.44807 6.10842 0
M  V30 7833 N 770.09 -0.729906 -1.39679 0
M  V30 7834 C 771.33 -0.280232 -2.0247 0
M  V30 7835 C 771.694 1.11006 -1.56658 0
M  V30 7836 O 772.895 1.65753 -2.11612 0
M  V30 7837 C 771.166 -0.372922 -3.55449 0
M  V30 7838 S 772.725 -0.00233974 -4.388 0
M  V30 7839 H 769.543 -0.110139 -0.702418 0
M  V30 7840 H 772.145 -0.955296 -1.70571 0
M  V30 7841 H 770.849 -1.38616 -3.86282 0
M  V30 7842 H 770.38 0.320136 -3.92095 0
M  V30 7843 H 772.395 1.21544 -4.81084 0
M  V30 7844 N 771.568 1.50203 -0.477153 0
M  V30 7845 C 772.814 2.02658 0.0758507 0
M  V30 7846 C 773.147 1.358 1.38824 0
M  V30 7847 O 772.422 0.485696 1.88338 0
M  V30 7848 C 772.705 3.59208 0.253339 0
M  V30 7849 C 772.558 4.36629 -1.0805 0
M  V30 7850 C 773.877 4.28469 1.00509 0
M  V30 7851 H 770.996 0.736538 0.0260921 0
M  V30 7852 H 773.638 1.79464 -0.623925 0
M  V30 7853 H 771.788 3.79101 0.849378 0
M  V30 7854 H 773.46 4.28292 -1.71358 0
M  V30 7855 H 771.703 4.0013 -1.67566 0
M  V30 7856 H 772.374 5.44449 -0.909883 0
M  V30 7857 H 774.85 4.13087 0.499818 0
M  V30 7858 H 773.726 5.37804 1.09808 0
M  V30 7859 H 773.987 3.92057 2.04314 0
M  V30 7860 N 773.046 0.209999 1.56195 0
M  V30 7861 C 774.271 -0.433064 2.02828 0
M  V30 7862 C 774.696 -1.5337 1.08901 0
M  V30 7863 O 774.054 -1.81144 0.0751132 0
M  V30 7864 C 774.102 -0.952635 3.47789 0
M  V30 7865 O 773.206 -2.0647 3.56993 0
M  V30 7866 H 772.547 -0.0994594 0.656509 0
M  V30 7867 H 775.077 0.32525 2.01998 0
M  V30 7868 H 775.087 -1.26542 3.8788 0
M  V30 7869 H 773.762 -0.147007 4.1564 0
M  V30 7870 H 772.339 -1.75942 3.28784 0
M  V30 7871 N 774.524 -1.57472 -0.0634922 0
M  V30 7872 C 775.772 -1.87283 -0.759563 0
M  V30 7873 C 776.093 -0.803135 -1.77693 0
M  V30 7874 O 775.363 0.167293 -1.95184 0
M  V30 7875 H 773.943 -0.691106 -0.283516 0
M  V30 7876 H 776.605 -1.94864 -0.0376091 0
M  V30 7877 H 775.701 -2.85064 -1.27062 0
M  V30 7878 N 776.003 0.335068 -1.53997 0
M  V30 7879 C 776.933 1.41727 -1.85568 0
M  V30 7880 C 777.914 1.54505 -0.7115 0
M  V30 7881 O 779.099 1.68573 -0.964191 0
M  V30 7882 C 776.229 2.7866 -2.07282 0
M  V30 7883 C 775.183 2.80682 -3.23112 0
M  V30 7884 C 774.509 4.20581 -3.30175 0
M  V30 7885 C 775.809 2.45458 -4.61029 0
M  V30 7886 H 777.503 1.15555 -2.76202 0
M  V30 7887 H 775.049 0.554445 -1.32898 0
M  V30 7888 H 777.002 3.54423 -2.27952 0
M  V30 7889 H 775.726 3.06286 -1.13387 0
M  V30 7890 H 774.385 2.07373 -3.02311 0
M  V30 7891 H 774.033 4.4533 -2.33859 0
M  V30 7892 H 773.733 4.22843 -4.08016 0
M  V30 7893 H 775.257 4.98174 -3.53066 0
M  V30 7894 H 776.671 3.10934 -4.81656 0
M  V30 7895 H 775.068 2.5899 -5.41336 0
M  V30 7896 H 776.138 1.40628 -4.6406 0
M  V30 7897 N 777.481 1.45874 0.596531 0
M  V30 7898 C 778.892 1.44798 1.17857 0
M  V30 7899 C 779.243 0.181443 1.95359 0
M  V30 7900 O 778.368 -0.716336 2.042 0
M  V30 7901 C 778.963 2.62333 2.14398 0
M  V30 7902 C 777.522 2.64342 2.67955 0
M  V30 7903 C 776.669 2.37244 1.43564 0
M  V30 7904 H 779.62 1.53954 0.385222 0
M  V30 7905 H 779.641 2.37063 2.97626 0
M  V30 7906 H 779.153 3.54499 1.57963 0
M  V30 7907 H 777.254 1.76213 3.28298 0
M  V30 7908 H 777.367 3.63897 3.11634 0
M  V30 7909 H 775.731 1.87022 1.72901 0
M  V30 7910 H 776.514 3.31568 0.889805 0
M  V30 7911 N 778.959 -0.83999 1.33349 0
M  V30 7912 C 779.869 -1.98182 1.25543 0
M  V30 7913 C 780.885 -1.73204 0.166208 0
M  V30 7914 O 782.061 -1.97596 0.389589 0
M  V30 7915 C 779.126 -3.32157 0.993614 0
M  V30 7916 C 778.187 -3.70258 2.17273 0
M  V30 7917 C 777.42 -4.9784 1.92331 0
M  V30 7918 O 777.643 -5.63679 0.873074 0
M  V30 7919 O 776.577 -5.33418 2.78835 0
M  V30 7920 H 780.403 -2.07708 2.21565 0
M  V30 7921 H 777.988 -0.972852 1.13384 0
M  V30 7922 H 779.87 -4.12433 0.864711 0
M  V30 7923 H 778.545 -3.23637 0.0636596 0
M  V30 7924 H 777.452 -2.90497 2.35716 0
M  V30 7925 H 778.785 -3.83442 3.08598 0
M  V30 7926 N 780.437 -1.16799 -1.0581 0
M  V30 7927 C 781.4 -0.881396 -2.11575 0
M  V30 7928 C 782.4 0.12574 -1.60308 0
M  V30 7929 O 783.59 -0.105716 -1.73879 0
M  V30 7930 C 780.722 -0.319037 -3.39404 0
M  V30 7931 H 781.915 -1.81907 -2.38432 0
M  V30 7932 H 779.468 -0.977597 -1.21954 0
M  V30 7933 H 780.203 0.626082 -3.18199 0
M  V30 7934 H 779.988 -1.04481 -3.77923 0
M  V30 7935 H 781.478 -0.13663 -4.17376 0
M  V30 7936 N 781.915 1.24427 -0.967243 0
M  V30 7937 C 783.331 1.44684 -0.6737 0
M  V30 7938 C 783.531 1.86429 0.764625 0
M  V30 7939 O 782.587 2.00211 1.53857 0
M  V30 7940 C 783.9 2.509 -1.6574 0
M  V30 7941 C 785.448 2.64728 -1.66998 0
M  V30 7942 C 785.923 3.7414 -2.64165 0
M  V30 7943 N 787.414 3.81567 -2.62604 0
M  V30 7944 C 788.149 4.6575 -3.34462 0
M  V30 7945 N 787.645 5.54124 -4.15835 0
M  V30 7946 N 789.438 4.59827 -3.23288 0
M  V30 7947 H 781.589 0.956276 -1.89655 0
M  V30 7948 H 783.852 0.48171 -0.816492 0
M  V30 7949 H 783.558 2.27113 -2.68538 0
M  V30 7950 H 783.432 3.4905 -1.42981 0
M  V30 7951 H 785.819 2.87872 -0.649121 0
M  V30 7952 H 785.9 1.66936 -1.93819 0
M  V30 7953 H 785.544 3.51745 -3.66384 0
M  V30 7954 H 785.474 4.71444 -2.34623 0
M  V30 7955 H 787.965 3.18403 -2.03539 0
M  V30 7956 H 788.278 6.15316 -4.67553 0
M  V30 7957 H 786.623 5.53791 -4.19929 0
M  V30 7958 H 789.814 3.898 -2.59179 0
M  V30 7959 H 789.987 5.25208 -3.79553 0
M  V30 7960 N 783.393 0.737304 1.3929 0
M  V30 7961 C 784.356 0.10731 2.28949 0
M  V30 7962 C 785.356 -0.664716 1.46418 0
M  V30 7963 O 786.546 -0.493392 1.67067 0
M  V30 7964 C 783.678 -0.857145 3.29948 0
M  V30 7965 H 784.871 0.89725 2.86163 0
M  V30 7966 H 782.424 0.503279 1.47976 0
M  V30 7967 H 783.159 -1.67336 2.77794 0
M  V30 7968 H 782.944 -0.306167 3.90903 0
M  V30 7969 H 784.434 -1.29444 3.97031 0
M  V30 7970 N 784.871 -1.49948 0.485112 0
M  V30 7971 C 786.148 -1.95186 -0.12726 0
M  V30 7972 C 786.528 -1.42605 -1.5565 0
M  V30 7973 O 785.876 -0.632986 -2.19558 0
M  V30 7974 C 786.086 -3.48955 -0.0562117 0
M  V30 7975 C 787.434 -4.23932 -0.238106 0
M  V30 7976 O 788.458 -3.55955 -0.132145 0
M  V30 7977 O 787.317 -5.44614 -0.453658 0
M  V30 7978 H 784.411 -0.820433 -0.104014 0
M  V30 7979 H 786.957 -1.60659 0.546517 0
M  V30 7980 H 785.729 -3.79814 0.941122 0
M  V30 7981 H 785.352 -3.90056 -0.770834 0
M  V30 7982 N 786.349 -0.21828 -1.56081 0
M  V30 7983 C 787.299 0.706492 -2.16778 0
M  V30 7984 C 788.283 1.15987 -1.11516 0
M  V30 7985 O 789.475 1.11441 -1.37513 0
M  V30 7986 C 786.604 1.91583 -2.8487 0
M  V30 7987 C 785.69 1.48228 -3.97353 0
M  V30 7988 N 786.081 0.761113 -5.00041 0
M  V30 7989 C 784.379 1.76982 -4.09382 0
M  V30 7990 C 785.08 0.540496 -5.79184 0
M  V30 7991 N 784.056 1.09622 -5.32432 0
M  V30 7992 H 787.858 0.147038 -2.93532 0
M  V30 7993 H 785.372 -0.0194049 -1.62388 0
M  V30 7994 H 787.369 2.58906 -3.26762 0
M  V30 7995 H 786.029 2.47979 -2.09611 0
M  V30 7996 H 787.04 0.414141 -5.16241 0
M  V30 7997 H 783.717 2.34721 -3.45271 0
M  V30 7998 H 785.107 -0.0332531 -6.71892 0
M  V30 7999 N 787.827 1.57504 0.0551401 0
M  V30 8000 C 788.79 2.03826 1.04821 0
M  V30 8001 C 789.79 0.937968 1.30609 0
M  V30 8002 O 790.98 1.20237 1.2605 0
M  V30 8003 C 788.112 2.43309 2.38775 0
M  V30 8004 H 789.305 2.92802 0.6486 0
M  V30 8005 H 786.858 1.53368 0.301315 0
M  V30 8006 H 787.593 1.5741 2.83536 0
M  V30 8007 H 787.378 3.23615 2.21395 0
M  V30 8008 H 788.868 2.79666 3.10124 0
M  V30 8009 N 789.305 -0.326896 1.54172 0
M  V30 8010 C 790.255 -1.40319 1.79707 0
M  V30 8011 C 791.239 -1.47056 0.652938 0
M  V30 8012 O 792.431 -1.51645 0.91284 0
M  V30 8013 C 789.56 -2.77222 2.02491 0
M  V30 8014 C 788.646 -2.74811 3.23016 0
M  V30 8015 N 789.037 -2.42022 4.44138 0
M  V30 8016 C 787.335 -3.05943 3.24522 0
M  V30 8017 C 788.036 -2.48263 5.26061 0
M  V30 8018 N 787.012 -2.84567 4.63166 0
M  V30 8019 H 790.814 -1.13892 2.70935 0
M  V30 8020 H 788.328 -0.53536 1.53322 0
M  V30 8021 H 790.325 -3.54793 2.18923 0
M  V30 8022 H 788.985 -3.04582 1.12515 0
M  V30 8023 H 789.996 -2.14926 4.71197 0
M  V30 8024 H 786.673 -3.38367 2.44569 0
M  V30 8025 H 788.063 -2.2593 6.32776 0
M  V30 8026 N 790.784 -1.46188 -0.588786 0
M  V30 8027 C 792.024 -1.52738 -1.35833 0
M  V30 8028 C 792.388 -0.172403 -1.91224 0
M  V30 8029 O 793.589 -0.112633 -2.68564 0
M  V30 8030 C 791.86 -2.59085 -2.4619 0
M  V30 8031 S 793.419 -2.84997 -3.3365 0
M  V30 8032 H 790.237 -0.539713 -0.462851 0
M  V30 8033 H 792.839 -1.83386 -0.677489 0
M  V30 8034 H 791.543 -3.56177 -2.03878 0
M  V30 8035 H 791.074 -2.3015 -3.19053 0
M  V30 8036 H 793.089 -2.19804 -4.4486 0
M  V30 8037 N 792.262 0.832906 -1.33792 0
M  V30 8038 C 793.502 1.60217 -1.26925 0
M  V30 8039 C 793.866 1.91323 0.161146 0
M  V30 8040 O 795.067 2.66461 0.353864 0
M  V30 8041 C 793.338 2.87314 -2.12568 0
M  V30 8042 S 794.897 3.77939 -2.22952 0
M  V30 8043 H 791.715 0.549273 -0.451464 0
M  V30 8044 H 794.317 0.984648 -1.68893 0
M  V30 8045 H 793.021 2.62444 -3.15518 0
M  V30 8046 H 792.552 3.5407 -1.71459 0
M  V30 8047 H 794.567 4.76188 -1.39496 0
M  V30 8048 N 793.74 1.17359 1.05189 0
M  V30 8049 C 794.986 0.963413 1.78455 0
M  V30 8050 C 795.319 -0.506703 1.87473 0
M  V30 8051 O 794.594 -1.37611 1.37453 0
M  V30 8052 C 794.877 1.60519 3.22344 0
M  V30 8053 C 794.73 3.14741 3.21338 0
M  V30 8054 C 796.049 1.3091 4.20179 0
M  V30 8055 H 793.168 0.351412 0.647826 0
M  V30 8056 H 795.81 1.44858 1.22948 0
M  V30 8057 H 793.96 1.19265 3.69741 0
M  V30 8058 H 795.632 3.65053 2.82017 0
M  V30 8059 H 793.875 3.4749 2.59679 0
M  V30 8060 H 794.546 3.54775 4.22894 0
M  V30 8061 H 797.022 1.66635 3.81277 0
M  V30 8062 H 795.898 1.784 5.191 0
M  V30 8063 H 796.159 0.229908 4.41502 0
M  V30 8064 N 795.218 -1.23913 0.973828 0
M  V30 8065 C 796.128 -2.28838 0.516735 0
M  V30 8066 C 797.144 -1.68723 -0.425282 0
M  V30 8067 O 798.32 -1.99201 -0.296819 0
M  V30 8068 C 795.385 -3.46233 -0.179914 0
M  V30 8069 C 794.446 -4.21729 0.80269 0
M  V30 8070 C 793.679 -5.33518 0.139191 0
M  V30 8071 O 793.902 -5.60252 -1.07118 0
M  V30 8072 O 792.836 -5.96088 0.834447 0
M  V30 8073 H 796.662 -2.70067 1.38916 0
M  V30 8074 H 794.247 -1.2972 0.74115 0
M  V30 8075 H 796.129 -4.17514 -0.570991 0
M  V30 8076 H 794.804 -3.06969 -1.02721 0
M  V30 8077 H 793.711 -3.52799 1.24434 0
M  V30 8078 H 795.044 -4.64825 1.61859 0
M  V30 8079 N 796.696 -0.74468 -1.38897 0
M  V30 8080 C 797.629 -0.0596441 -2.28122 0
M  V30 8081 C 798.607 0.73764 -1.44906 0
M  V30 8082 O 799.791 0.718155 -1.74284 0
M  V30 8083 C 796.918 0.922533 -3.25894 0
M  V30 8084 C 795.964 0.212566 -4.2597 0
M  V30 8085 S 796.797 -1.08035 -5.24489 0
M  V30 8086 C 797.953 -0.101014 -6.25818 0
M  V30 8087 H 798.186 -0.816289 -2.85874 0
M  V30 8088 H 795.719 -0.536882 -1.44765 0
M  V30 8089 H 797.677 1.4839 -3.82741 0
M  V30 8090 H 796.338 1.65209 -2.67142 0
M  V30 8091 H 795.531 0.956106 -4.94848 0
M  V30 8092 H 795.133 -0.277029 -3.72973 0
M  V30 8093 H 797.425 0.736072 -6.7349 0
M  V30 8094 H 798.368 -0.757206 -7.0404 0
M  V30 8095 H 798.776 0.275706 -5.63826 0
M  V30 8096 N 798.174 1.49689 -0.493057 0
M  V30 8097 C 799.422 2.02027 0.0541642 0
M  V30 8098 C 799.743 1.37554 1.38217 0
M  V30 8099 O 799.013 0.528174 1.88646 0
M  V30 8100 H 797.593 0.746646 0.0230069 0
M  V30 8101 H 800.255 1.83795 -0.648489 0
M  V30 8102 H 799.351 3.11523 0.189652 0
M  V30 8103 N 799.652 0.226554 1.55963 0
M  V30 8104 C 800.585 -0.721625 2.1649 0
M  V30 8105 C 801.563 -1.18745 1.11078 0
M  V30 8106 O 802.747 -1.26929 1.3936 0
M  V30 8107 C 799.874 -1.97828 2.74921 0
M  V30 8108 C 798.92 -1.65202 3.93206 0
M  V30 8109 S 799.753 -0.772419 5.299 0
M  V30 8110 C 800.909 -2.03853 5.91773 0
M  V30 8111 H 801.142 -0.207192 2.96577 0
M  V30 8112 H 798.675 0.0111976 1.54396 0
M  V30 8113 H 800.633 -2.69982 3.09225 0
M  V30 8114 H 799.294 -2.46384 1.94817 0
M  V30 8115 H 798.487 -2.58583 4.32609 0
M  V30 8116 H 798.089 -1.01108 3.60074 0
M  V30 8117 H 800.381 -2.98799 6.08051 0
M  V30 8118 H 801.324 -1.68831 6.87678 0
M  V30 8119 H 801.732 -2.18134 5.20651 0
M  V30 8120 N 801.13 -1.57531 -0.0467866 0
M  V30 8121 C 802.407 -1.79568 -0.775536 0
M  V30 8122 C 802.787 -0.820322 -1.94509 0
M  V30 8123 O 802.135 0.14134 -2.28062 0
M  V30 8124 C 802.345 -3.26789 -1.22516 0
M  V30 8125 C 803.693 -3.91299 -1.64835 0
M  V30 8126 O 804.717 -3.30831 -1.3202 0
M  V30 8127 O 803.576 -4.97727 -2.25677 0
M  V30 8128 H 800.67 -0.737817 -0.373572 0
M  V30 8129 H 803.216 -1.69682 -0.0249302 0
M  V30 8130 H 801.988 -3.89357 -0.389446 0
M  V30 8131 H 801.611 -3.41496 -2.03633 0
M  V30 8132 N 802.608 0.318715 -1.54344 0
M  V30 8133 C 803.541 1.41644 -1.7892 0
M  V30 8134 C 804.519 1.495 -0.639421 0
M  V30 8135 O 805.703 1.66835 -0.877404 0
M  V30 8136 C 802.83 2.79701 -1.9101 0
M  V30 8137 C 801.876 2.89354 -3.13331 0
M  V30 8138 S 802.709 2.53264 -4.71824 0
M  V30 8139 C 803.865 3.93384 -4.86826 0
M  V30 8140 H 804.098 1.20585 -2.71747 0
M  V30 8141 H 801.631 0.515828 -1.45529 0
M  V30 8142 H 803.589 3.59227 -1.98661 0
M  V30 8143 H 802.25 2.9804 -0.991516 0
M  V30 8144 H 801.443 3.90574 -3.1854 0
M  V30 8145 H 801.045 2.17805 -3.04035 0
M  V30 8146 H 803.337 4.88191 -4.69761 0
M  V30 8147 H 804.28 3.93156 -5.88926 0
M  V30 8148 H 804.688 3.82564 -4.15097 0
M  V30 8149 N 804.086 1.46499 0.581025 0
M  V30 8150 C 805.335 1.51162 1.3354 0
M  V30 8151 C 805.648 0.168433 1.94873 0
M  V30 8152 O 806.854 0.092883 2.71341 0
M  V30 8153 C 805.31 2.66362 2.42032 0
M  V30 8154 C 804.918 4.07109 1.86994 0
M  V30 8155 C 806.662 2.80297 3.188 0
M  V30 8156 C 804.569 5.13645 2.93125 0
M  V30 8157 H 803.499 0.562576 0.502021 0
M  V30 8158 H 806.15 1.72713 0.619863 0
M  V30 8159 H 804.532 2.38143 3.16392 0
M  V30 8160 H 805.706 4.45125 1.19166 0
M  V30 8161 H 804.021 3.97854 1.22887 0
M  V30 8162 H 806.618 3.5706 3.9801 0
M  V30 8163 H 806.961 1.87875 3.71495 0
M  V30 8164 H 807.494 3.0817 2.51547 0
M  V30 8165 H 804.233 6.07866 2.45315 0
M  V30 8166 H 803.753 4.80172 3.59437 0
M  V30 8167 H 805.432 5.39562 3.57046 0
M  V30 8168 N 805.565 -0.825799 1.34232 0
M  V30 8169 C 806.475 -1.9684 1.27638 0
M  V30 8170 C 807.491 -1.73018 0.184569 0
M  V30 8171 O 808.667 -1.97172 0.410525 0
M  V30 8172 C 805.732 -3.31084 1.02879 0
M  V30 8173 C 804.793 -3.67933 2.21188 0
M  V30 8174 C 804.026 -4.95772 1.976 0
M  V30 8175 O 804.249 -5.62721 0.93281 0
M  V30 8176 O 803.183 -5.30431 2.84477 0
M  V30 8177 H 807.009 -2.05346 2.23756 0
M  V30 8178 H 804.594 -0.960772 1.1441 0
M  V30 8179 H 806.476 -4.11492 0.908406 0
M  V30 8180 H 805.151 -3.23552 0.0979821 0
M  V30 8181 H 804.058 -2.87981 2.38784 0
M  V30 8182 H 805.391 -3.80147 3.12648 0
M  V30 8183 N 807.043 -1.17915 -1.04565 0
M  V30 8184 C 808.006 -0.903787 -2.10628 0
M  V30 8185 C 809.006 0.10873 -1.60432 0
M  V30 8186 O 810.196 -0.124152 -1.73757 0
M  V30 8187 C 807.328 -0.355017 -3.39046 0
M  V30 8188 H 808.521 -1.84425 -2.3649 0
M  V30 8189 H 806.074 -0.990477 -1.2091 0
M  V30 8190 H 806.809 0.592297 -3.18845 0
M  V30 8191 H 806.594 -1.08484 -3.76794 0
M  V30 8192 H 808.084 -0.180891 -4.17208 0
M  V30 8193 N 808.521 1.23394 -0.980386 0
M  V30 8194 C 809.77 1.91116 -0.644785 0
M  V30 8195 C 810.083 1.77333 0.825367 0
M  V30 8196 O 811.289 2.39858 1.27203 0
M  V30 8197 C 809.745 3.42592 -1.10266 0
M  V30 8198 C 809.353 3.65037 -2.59715 0
M  V30 8199 C 811.097 4.1609 -0.8408 0
M  V30 8200 C 809.004 5.10148 -2.9917 0
M  V30 8201 H 807.934 0.715632 -0.23746 0
M  V30 8202 H 810.585 1.39829 -1.18828 0
M  V30 8203 H 808.967 3.92989 -0.487372 0
M  V30 8204 H 810.141 3.25186 -3.26482 0
M  V30 8205 H 808.456 3.04849 -2.83647 0
M  V30 8206 H 811.053 5.23021 -1.11143 0
M  V30 8207 H 811.396 4.15702 0.223085 0
M  V30 8208 H 811.929 3.71681 -1.41767 0
M  V30 8209 H 808.668 5.15668 -4.04682 0
M  V30 8210 H 808.188 5.50949 -2.37097 0
M  V30 8211 H 809.867 5.7848 -2.89775 0
M  V30 8212 N 809.999 0.752036 1.385 0
M  V30 8213 C 811.224 0.316993 2.04963 0
M  V30 8214 C 811.649 -1.04582 1.56346 0
M  V30 8215 O 811.007 -1.66616 0.714755 0
M  V30 8216 C 811.055 0.347235 3.58924 0
M  V30 8217 O 810.159 -0.659296 4.07096 0
M  V30 8218 H 809.5 0.140652 0.648932 0
M  V30 8219 H 812.03 1.02272 1.77205 0
M  V30 8220 H 812.04 0.19757 4.07521 0
M  V30 8221 H 810.715 1.34157 3.93668 0
M  V30 8222 H 809.292 -0.474371 3.6987 0
M  V30 8223 N 811.477 -1.49425 0.500989 0
M  V30 8224 C 812.407 -2.31971 -0.266775 0
M  V30 8225 C 813.388 -1.40245 -0.962563 0
M  V30 8226 O 814.573 -1.69154 -0.953968 0
M  V30 8227 C 811.703 -3.20757 -1.33163 0
M  V30 8228 C 810.657 -4.21275 -0.75572 0
M  V30 8229 C 809.983 -4.98997 -1.92109 0
M  V30 8230 C 811.283 -5.21686 0.253213 0
M  V30 8231 H 812.977 -2.96408 0.422237 0
M  V30 8232 H 810.523 -1.4254 0.204505 0
M  V30 8233 H 812.476 -3.77315 -1.87646 0
M  V30 8234 H 811.2 -2.54263 -2.04983 0
M  V30 8235 H 809.859 -3.65861 -0.232637 0
M  V30 8236 H 809.507 -4.28951 -2.62698 0
M  V30 8237 H 809.207 -5.67011 -1.54182 0
M  V30 8238 H 810.731 -5.584 -2.47026 0
M  V30 8239 H 812.145 -5.72939 -0.203483 0
M  V30 8240 H 810.542 -5.9759 0.548322 0
M  V30 8241 H 811.612 -4.70596 1.16909 0
M  V30 8242 N 812.955 -0.234822 -1.55841 0
M  V30 8243 C 814.201 0.393843 -1.98939 0
M  V30 8244 C 814.534 1.58466 -1.1226 0
M  V30 8245 O 813.809 1.93635 -0.183242 0
M  V30 8246 C 814.092 0.815492 -3.50745 0
M  V30 8247 C 813.945 -0.379878 -4.48193 0
M  V30 8248 C 815.264 1.66687 -4.07312 0
M  V30 8249 H 812.383 0.141681 -0.723253 0
M  V30 8250 H 815.025 -0.333716 -1.87046 0
M  V30 8251 H 813.175 1.43541 -3.6101 0
M  V30 8252 H 814.847 -1.0182 -4.49923 0
M  V30 8253 H 813.09 -1.02507 -4.21515 0
M  V30 8254 H 813.761 -0.0417069 -5.51984 0
M  V30 8255 H 816.237 1.14369 -4.00074 0
M  V30 8256 H 815.113 1.93078 -5.13821 0
M  V30 8257 H 815.374 2.63468 -3.55017 0
M  V30 8258 N 814.433 1.57553 0.0384317 0
M  V30 8259 C 815.849 1.54663 0.39391 0
M  V30 8260 C 816.049 0.959685 1.77179 0
M  V30 8261 O 815.105 0.576647 2.45827 0
M  V30 8262 C 816.418 2.99156 0.304352 0
M  V30 8263 C 817.966 3.10659 0.382119 0
M  V30 8264 C 818.441 4.56866 0.322111 0
M  V30 8265 N 819.932 4.61629 0.38119 0
M  V30 8266 C 820.667 5.72284 0.357501 0
M  V30 8267 N 820.163 6.92207 0.286654 0
M  V30 8268 N 821.956 5.60628 0.406538 0
M  V30 8269 H 814.107 1.9406 -0.86339 0
M  V30 8270 H 816.37 0.889673 -0.327392 0
M  V30 8271 H 816.076 3.45788 -0.642141 0
M  V30 8272 H 815.95 3.60753 1.10168 0
M  V30 8273 H 818.337 2.6398 1.31904 0
M  V30 8274 H 818.418 2.5191 -0.444391 0
M  V30 8275 H 818.062 5.0421 -0.611104 0
M  V30 8276 H 817.992 5.13515 1.1666 0
M  V30 8277 H 820.483 3.75343 0.438838 0
M  V30 8278 H 820.796 7.72316 0.273421 0
M  V30 8279 H 819.141 6.9454 0.252841 0
M  V30 8280 H 822.332 4.65836 0.459812 0
M  V30 8281 H 822.505 6.46858 0.384608 0
M  V30 8282 N 815.911 -0.310526 1.54511 0
M  V30 8283 C 816.821 -1.4054 1.87844 0
M  V30 8284 C 817.837 -1.55954 0.771635 0
M  V30 8285 O 819.013 -1.70801 1.06719 0
M  V30 8286 C 816.078 -2.75063 2.11048 0
M  V30 8287 C 815.139 -2.68715 3.348 0
M  V30 8288 C 814.372 -3.96821 3.56887 0
M  V30 8289 O 814.595 -4.95721 2.82165 0
M  V30 8290 O 813.529 -3.99291 4.50389 0
M  V30 8291 H 817.355 -1.15275 2.80972 0
M  V30 8292 H 814.94 -0.505732 1.4058 0
M  V30 8293 H 816.822 -3.54671 2.27566 0
M  V30 8294 H 815.497 -3.00191 1.21108 0
M  V30 8295 H 814.404 -1.87611 3.23655 0
M  V30 8296 H 815.737 -2.4854 4.2484 0
M  V30 8297 N 817.389 -1.46805 -0.573248 0
M  V30 8298 C 818.635 -1.5283 -1.33307 0
M  V30 8299 C 818.968 -0.183287 -1.93333 0
M  V30 8300 O 818.243 0.806354 -1.76998 0
M  V30 8301 C 818.526 -2.63414 -2.45531 0
M  V30 8302 C 818.379 -4.07478 -1.90478 0
M  V30 8303 C 819.698 -2.70014 -3.47535 0
M  V30 8304 H 816.817 -0.556371 -0.483343 0
M  V30 8305 H 819.459 -1.78787 -0.643066 0
M  V30 8306 H 817.609 -2.41412 -3.04389 0
M  V30 8307 H 819.281 -4.40795 -1.36004 0
M  V30 8308 H 817.524 -4.16511 -1.21248 0
M  V30 8309 H 818.195 -4.80598 -2.71531 0
M  V30 8310 H 820.671 -2.89817 -2.98572 0
M  V30 8311 H 819.547 -3.49192 -4.23504 0
M  V30 8312 H 819.808 -1.76436 -4.05367 0
M  V30 8313 N 818.867 0.818669 -1.34668 0
M  V30 8314 C 820.095 1.60674 -1.30351 0
M  V30 8315 C 820.51 1.88408 0.121546 0
M  V30 8316 O 819.867 1.47849 1.06991 0
M  V30 8317 C 819.918 2.94516 -2.09625 0
M  V30 8318 O 819.639 2.6799 -3.46573 0
M  V30 8319 C 821.14 3.8891 -2.12754 0
M  V30 8320 H 818.36 0.499306 -0.448258 0
M  V30 8321 H 820.904 1.01828 -1.77345 0
M  V30 8322 H 819.059 3.49908 -1.66262 0
M  V30 8323 H 819.473 3.53361 -3.87603 0
M  V30 8324 H 820.947 4.79972 -2.72637 0
M  V30 8325 H 821.424 4.24599 -1.12306 0
M  V30 8326 H 822.03 3.39453 -2.56225 0
M  V30 8327 N 820.346 1.18468 1.03938 0
M  V30 8328 C 821.594 0.978895 1.76811 0
M  V30 8329 C 821.915 -0.49257 1.88676 0
M  V30 8330 O 821.185 -1.3572 1.41269 0
M  V30 8331 H 819.765 0.359201 0.654968 0
M  V30 8332 H 822.427 1.49173 1.25433 0
M  V30 8333 H 821.523 1.418 2.78027 0
M  V30 8334 N 821.824 -1.22873 0.986916 0
M  V30 8335 C 823.07 -1.91746 0.660401 0
M  V30 8336 C 823.403 -1.76738 -0.804812 0
M  V30 8337 O 822.678 -1.13246 -1.58131 0
M  V30 8338 C 822.961 -3.44156 1.05966 0
M  V30 8339 C 822.814 -3.68242 2.58298 0
M  V30 8340 C 824.133 -4.35874 0.60842 0
M  V30 8341 H 821.252 -0.696347 0.241391 0
M  V30 8342 H 823.894 -1.44867 1.22937 0
M  V30 8343 H 822.044 -3.84213 0.575534 0
M  V30 8344 H 823.716 -3.37626 3.14335 0
M  V30 8345 H 821.959 -3.12728 3.00638 0
M  V30 8346 H 822.63 -4.74956 2.81285 0
M  V30 8347 H 825.106 -4.03299 1.02417 0
M  V30 8348 H 823.982 -5.41201 0.916142 0
M  V30 8349 H 824.243 -4.39364 -0.491086 0
M  V30 8350 N 823.302 -0.75937 -1.38099 0
M  V30 8351 C 824.25 -0.124954 -2.32264 0
M  V30 8352 C 825.244 0.698863 -1.54312 0
M  V30 8353 O 826.45 0.597312 -1.698 0
M  V30 8354 H 822.825 -0.0216142 -0.751689 0
M  V30 8355 H 824.796 -0.935115 -2.83369 0
M  V30 8356 C 823.545 0.749463 -3.39527 0
M  V30 8357 H 822.868 0.124932 -3.99605 0
M  V30 8358 H 824.308 1.16055 -4.07808 0
M  V30 8359 C 822.767 1.89464 -2.78577 0
M  V30 8360 O 823.297 2.98923 -2.68343 0
M  V30 8361 N 821.503 1.69145 -2.36301 0
M  V30 8362 H 821.05 0.801157 -2.44825 0
M  V30 8363 H 821.008 2.45936 -1.95864 0
M  V30 8364 N 824.78 1.49157 -0.508906 0
M  V30 8365 C 826.026 2.02773 0.0328469 0
M  V30 8366 C 826.359 1.38714 1.35912 0
M  V30 8367 O 825.634 0.525536 1.87266 0
M  V30 8368 C 825.917 3.59664 0.177088 0
M  V30 8369 C 825.77 4.34239 -1.17287 0
M  V30 8370 C 827.089 4.30505 0.913977 0
M  V30 8371 H 824.208 0.736926 0.0104631 0
M  V30 8372 H 826.85 1.781 -0.661851 0
M  V30 8373 H 825 3.80818 0.768774 0
M  V30 8374 H 826.672 4.24561 -1.80404 0
M  V30 8375 H 824.915 3.96486 -1.76016 0
M  V30 8376 H 825.586 5.42397 -1.02516 0
M  V30 8377 H 828.062 4.14054 0.412084 0
M  V30 8378 H 826.938 5.40012 0.983759 0
M  V30 8379 H 827.199 3.96302 1.95951 0
M  V30 8380 N 826.258 0.243083 1.55714 0
M  V30 8381 C 827.206 -0.674349 2.2261 0
M  V30 8382 C 828.2 -1.18307 1.21243 0
M  V30 8383 O 829.406 -1.1404 1.39265 0
M  V30 8384 H 825.781 -0.235941 0.714028 0
M  V30 8385 H 827.752 -0.0869446 2.98273 0
M  V30 8386 C 826.501 -1.86206 2.93637 0
M  V30 8387 H 825.824 -1.47975 3.71407 0
M  V30 8388 H 827.264 -2.4813 3.43813 0
M  V30 8389 C 825.723 -2.73084 1.97298 0
M  V30 8390 O 826.253 -3.72497 1.50361 0
M  V30 8391 N 824.459 -2.39571 1.64482 0
M  V30 8392 H 824.006 -1.5878 2.02846 0
M  V30 8393 H 823.964 -2.97976 1.00288 0
M  V30 8394 N 827.736 -1.57571 -0.0300757 0
M  V30 8395 C 828.669 -2.01874 -1.06406 0
M  V30 8396 C 829.647 -0.902901 -1.35227 0
M  V30 8397 O 830.831 -1.16865 -1.47901 0
M  V30 8398 C 827.958 -2.39093 -2.39901 0
M  V30 8399 C 827.004 -3.61108 -2.26943 0
M  V30 8400 S 827.837 -5.10287 -1.62382 0
M  V30 8401 C 828.993 -5.50747 -2.97369 0
M  V30 8402 H 829.226 -2.89261 -0.686703 0
M  V30 8403 H 826.759 -1.52523 -0.240017 0
M  V30 8404 H 828.717 -2.61207 -3.16672 0
M  V30 8405 H 827.378 -1.52159 -2.74784 0
M  V30 8406 H 826.571 -3.84803 -3.25489 0
M  V30 8407 H 826.173 -3.3884 -1.58314 0
M  V30 8408 H 828.465 -5.51369 -3.93698 0
M  V30 8409 H 829.408 -6.51071 -2.78409 0
M  V30 8410 H 829.816 -4.7825 -2.99895 0
M  V30 8411 N 829.214 0.302327 -1.54673 0
M  V30 8412 C 830.63 0.647911 -1.45857 0
M  V30 8413 C 830.83 1.90773 -0.64869 0
M  V30 8414 O 829.886 2.52018 -0.155865 0
M  V30 8415 C 831.199 0.802144 -2.89804 0
M  V30 8416 C 832.747 0.898114 -2.99838 0
M  V30 8417 C 833.222 1.08436 -4.44978 0
M  V30 8418 N 834.713 1.15059 -4.48682 0
M  V30 8419 C 835.448 1.31296 -5.58166 0
M  V30 8420 N 834.944 1.4444 -6.77576 0
M  V30 8421 N 836.737 1.34174 -5.45851 0
M  V30 8422 H 828.888 -0.525428 -2.05798 0
M  V30 8423 H 831.151 -0.173423 -0.932002 0
M  V30 8424 H 830.857 -0.0526531 -3.51661 0
M  V30 8425 H 830.731 1.69155 -3.37145 0
M  V30 8426 H 833.118 1.7434 -2.38096 0
M  V30 8427 H 833.199 -0.0152752 -2.55795 0
M  V30 8428 H 832.843 0.243843 -5.07314 0
M  V30 8429 H 832.773 2.01195 -4.8665 0
M  V30 8430 H 835.264 1.0626 -3.62653 0
M  V30 8431 H 835.577 1.56582 -7.56771 0
M  V30 8432 H 833.922 1.41499 -6.80443 0
M  V30 8433 H 837.113 1.23516 -4.5151 0
M  V30 8434 H 837.286 1.46485 -6.31226 0
M  V30 8435 N 830.692 1.47107 0.565454 0
M  V30 8436 C 831.938 1.53535 1.32495 0
M  V30 8437 C 832.271 0.193537 1.93233 0
M  V30 8438 O 831.546 -0.796956 1.77423 0
M  V30 8439 C 831.829 2.64712 2.4413 0
M  V30 8440 C 831.682 4.08482 1.88314 0
M  V30 8441 C 833.001 2.71853 3.46098 0
M  V30 8442 H 830.12 0.558926 0.480386 0
M  V30 8443 H 832.762 1.79125 0.633575 0
M  V30 8444 H 830.912 2.43023 3.03104 0
M  V30 8445 H 832.584 4.4151 1.33665 0
M  V30 8446 H 830.827 4.17148 1.19037 0
M  V30 8447 H 831.498 4.82032 2.68978 0
M  V30 8448 H 833.974 2.91397 2.97031 0
M  V30 8449 H 832.85 3.51433 4.21646 0
M  V30 8450 H 833.111 1.78584 4.04426 0
M  V30 8451 N 832.17 -0.811516 1.35101 0
M  V30 8452 C 833.418 -1.56525 1.27845 0
M  V30 8453 C 833.739 -1.94435 -0.14829 0
M  V30 8454 O 833.009 -1.63203 -1.08359 0
M  V30 8455 H 831.589 -0.580433 0.47022 0
M  V30 8456 H 834.251 -0.968277 1.69146 0
M  V30 8457 H 833.347 -2.48291 1.89097 0
M  V30 8458 N 833.648 -1.19017 -1.03309 0
M  V30 8459 C 834.897 -0.984542 -1.76039 0
M  V30 8460 C 835.21 0.485937 -1.89468 0
M  V30 8461 O 836.416 0.810278 -2.59127 0
M  V30 8462 C 834.872 -1.71261 -3.1654 0
M  V30 8463 C 834.48 -3.22291 -3.11179 0
M  V30 8464 C 836.224 -1.59007 -3.93595 0
M  V30 8465 C 834.131 -3.87704 -4.46587 0
M  V30 8466 H 833.061 -0.364749 -0.659905 0
M  V30 8467 H 835.712 -1.4247 -1.15649 0
M  V30 8468 H 834.094 -1.20025 -3.77373 0
M  V30 8469 H 835.268 -3.80611 -2.59753 0
M  V30 8470 H 833.583 -3.34772 -2.47622 0
M  V30 8471 H 836.18 -2.05232 -4.93745 0
M  V30 8472 H 836.523 -0.543534 -4.12736 0
M  V30 8473 H 837.056 -2.07564 -3.39355 0
M  V30 8474 H 833.795 -4.92437 -4.3265 0
M  V30 8475 H 833.315 -3.34172 -4.98085 0
M  V30 8476 H 834.994 -3.91008 -5.15482 0
M  V30 8477 N 835.127 1.22348 -0.993418 0
M  V30 8478 C 836.077 2.221 -0.515333 0
M  V30 8479 C 837.061 1.55409 0.416762 0
M  V30 8480 O 838.253 1.75317 0.243497 0
M  V30 8481 C 835.382 3.42888 0.168173 0
M  V30 8482 C 834.468 4.16786 -0.784257 0
M  V30 8483 N 834.859 4.67435 -1.93231 0
M  V30 8484 C 833.157 4.41942 -0.600243 0
M  V30 8485 C 833.858 5.23792 -2.53016 0
M  V30 8486 N 832.834 5.12483 -1.8128 0
M  V30 8487 H 836.636 2.58902 -1.39093 0
M  V30 8488 H 834.15 1.38024 -0.855747 0
M  V30 8489 H 836.147 4.13542 0.528069 0
M  V30 8490 H 834.807 3.07598 1.03989 0
M  V30 8491 H 835.818 4.63375 -2.31309 0
M  V30 8492 H 832.495 4.16891 0.225369 0
M  V30 8493 H 833.885 5.73515 -3.50043 0
M  V30 8494 N 836.605 0.766683 1.37694 0
M  V30 8495 C 837.83 0.338715 2.04615 0
M  V30 8496 C 838.255 -1.02918 1.57447 0
M  V30 8497 O 837.613 -1.65849 0.732386 0
M  V30 8498 C 837.661 0.385284 3.58536 0
M  V30 8499 O 836.765 -0.616081 4.07772 0
M  V30 8500 H 836.106 0.147527 0.647404 0
M  V30 8501 H 838.636 1.04146 1.7611 0
M  V30 8502 H 838.646 0.240782 4.07289 0
M  V30 8503 H 837.321 1.38325 3.92223 0
M  V30 8504 H 835.898 -0.435115 3.70353 0
M  V30 8505 N 838.083 -1.48885 0.516809 0
M  V30 8506 C 839.331 -2.02088 -0.0220166 0
M  V30 8507 C 839.652 -1.39735 -1.36011 0
M  V30 8508 O 838.922 -0.558119 -1.87781 0
M  V30 8509 H 837.502 -0.746917 -0.0111255 0
M  V30 8510 H 840.164 -1.8274 0.677647 0
M  V30 8511 H 839.26 -3.11786 -0.140067 0
M  V30 8512 N 839.561 -0.251338 -1.55583 0
M  V30 8513 C 840.977 0.103409 -1.59265 0
M  V30 8514 C 841.177 1.56559 -1.26852 0
M  V30 8515 O 840.233 2.31071 -1.01796 0
M  V30 8516 C 841.546 -0.249781 -2.99661 0
M  V30 8517 C 843.094 -0.194442 -3.12395 0
M  V30 8518 C 843.569 -0.521728 -4.55019 0
M  V30 8519 N 845.06 -0.472393 -4.60785 0
M  V30 8520 C 845.795 -0.698737 -5.69127 0
M  V30 8521 N 845.291 -0.988443 -6.85713 0
M  V30 8522 N 847.084 -0.629143 -5.58568 0
M  V30 8523 H 839.235 -1.20484 -1.74921 0
M  V30 8524 H 841.498 -0.485092 -0.814488 0
M  V30 8525 H 841.204 -1.26577 -3.28133 0
M  V30 8526 H 841.078 0.420973 -3.74844 0
M  V30 8527 H 843.465 0.812229 -2.83702 0
M  V30 8528 H 843.546 -0.899111 -2.39478 0
M  V30 8529 H 843.19 -1.52597 -4.84434 0
M  V30 8530 H 843.12 0.204468 -5.26203 0
M  V30 8531 H 845.611 -0.257386 -3.77022 0
M  V30 8532 H 845.924 -1.14846 -7.64219 0
M  V30 8533 H 844.269 -1.02596 -6.87386 0
M  V30 8534 H 847.46 -0.402826 -4.66364 0
M  V30 8535 H 847.633 -0.808935 -6.42931 0
M  V30 8536 N 841.039 1.57585 0.0217189 0
M  V30 8537 C 842.285 1.89887 0.712099 0
M  V30 8538 C 842.618 0.849971 1.74611 0
M  V30 8539 O 841.893 -0.13407 1.94037 0
M  V30 8540 C 842.176 3.32815 1.37499 0
M  V30 8541 C 842.029 4.48405 0.353993 0
M  V30 8542 C 843.348 3.74786 2.30703 0
M  V30 8543 H 840.467 0.690588 0.257405 0
M  V30 8544 H 843.109 1.89983 -0.0251145 0
M  V30 8545 H 841.259 3.32863 2.00335 0
M  V30 8546 H 842.931 4.60491 -0.273015 0
M  V30 8547 H 841.174 4.32573 -0.32599 0
M  V30 8548 H 841.845 5.45316 0.85644 0
M  V30 8549 H 844.321 3.76151 1.77904 0
M  V30 8550 H 843.197 4.75585 2.74061 0
M  V30 8551 H 843.458 3.07449 3.17691 0
M  V30 8552 N 842.517 -0.29412 1.54831 0
M  V30 8553 C 843.467 -1.36476 1.82643 0
M  V30 8554 C 844.451 -1.45638 0.683984 0
M  V30 8555 O 845.643 -1.49675 0.944801 0
M  V30 8556 C 842.772 -2.72865 2.08326 0
M  V30 8557 C 841.858 -2.67898 3.28773 0
M  V30 8558 N 842.249 -2.32547 4.49172 0
M  V30 8559 C 840.547 -2.98991 3.30939 0
M  V30 8560 C 841.248 -2.37048 5.31209 0
M  V30 8561 N 840.224 -2.74679 4.69097 0
M  V30 8562 H 844.026 -1.08119 2.7329 0
M  V30 8563 H 841.54 -0.502718 1.54423 0
M  V30 8564 H 843.537 -3.5007 2.264 0
M  V30 8565 H 842.197 -3.02127 1.1895 0
M  V30 8566 H 843.208 -2.04883 4.7565 0
M  V30 8567 H 839.885 -3.33104 2.51691 0
M  V30 8568 H 841.275 -2.12457 6.37426 0
M  V30 8569 N 843.995 -1.47404 -0.557645 0
M  V30 8570 C 845.235 -1.55585 -1.32562 0
M  V30 8571 C 845.599 -0.212926 -1.90816 0
M  V30 8572 O 846.8 -0.169574 -2.68265 0
M  V30 8573 C 845.071 -2.64249 -2.40639 0
M  V30 8574 S 846.63 -2.9201 -3.2753 0
M  V30 8575 H 843.448 -0.549409 -0.451298 0
M  V30 8576 H 846.05 -1.84782 -0.638438 0
M  V30 8577 H 844.754 -3.60421 -1.96277 0
M  V30 8578 H 844.285 -2.36866 -3.14099 0
M  V30 8579 H 846.3 -2.29191 -4.40098 0
M  V30 8580 N 845.473 0.80434 -1.35529 0
M  V30 8581 C 846.721 1.55845 -1.28673 0
M  V30 8582 C 847.042 1.94511 0.137976 0
M  V30 8583 O 846.312 1.63775 1.07492 0
M  V30 8584 H 844.892 0.577931 -0.473291 0
M  V30 8585 H 847.554 0.959293 -1.69657 0
M  V30 8586 H 846.65 2.47285 -1.90411 0
M  V30 8587 N 846.951 1.19563 1.02676 0
M  V30 8588 C 848.197 1.00105 1.76371 0
M  V30 8589 C 848.53 -0.466823 1.88506 0
M  V30 8590 O 847.805 -1.34665 1.40341 0
M  V30 8591 C 848.088 1.67321 3.18866 0
M  V30 8592 C 847.941 3.21486 3.1459 0
M  V30 8593 C 849.26 1.39794 4.17308 0
M  V30 8594 H 846.379 0.365075 0.640226 0
M  V30 8595 H 849.021 1.47433 1.19848 0
M  V30 8596 H 847.171 1.27081 3.67128 0
M  V30 8597 H 848.843 3.70953 2.7421 0
M  V30 8598 H 847.086 3.5292 2.52249 0
M  V30 8599 H 847.757 3.63665 4.15273 0
M  V30 8600 H 850.233 1.74685 3.77657 0
M  V30 8601 H 849.109 1.89371 5.15199 0
M  V30 8602 H 849.37 0.323505 4.40915 0
M  V30 8603 N 848.429 -1.21819 0.999893 0
M  V30 8604 C 849.359 -2.26282 0.576096 0
M  V30 8605 C 850.34 -1.65317 -0.400537 0
M  V30 8606 O 851.525 -1.92028 -0.28964 0
M  V30 8607 C 848.655 -3.47147 -0.103145 0
M  V30 8608 C 847.609 -4.20594 0.792745 0
M  V30 8609 C 846.935 -5.34696 -0.0198026 0
M  V30 8610 C 848.235 -4.78533 2.09293 0
M  V30 8611 H 849.929 -2.61984 1.4493 0
M  V30 8612 H 847.475 -1.25935 0.698316 0
M  V30 8613 H 849.428 -4.1939 -0.411068 0
M  V30 8614 H 848.152 -3.1056 -1.01094 0
M  V30 8615 H 846.811 -3.50194 1.08442 0
M  V30 8616 H 846.459 -4.94352 -0.928729 0
M  V30 8617 H 846.159 -5.84764 0.576661 0
M  V30 8618 H 847.683 -6.09752 -0.321659 0
M  V30 8619 H 849.097 -5.42682 1.8485 0
M  V30 8620 H 847.494 -5.38968 2.63881 0
M  V30 8621 H 848.564 -3.98197 2.76708 0
M  V30 8622 N 849.908 -0.773975 -1.37286 0
M  V30 8623 C 851.156 -0.338636 -1.99243 0
M  V30 8624 C 851.477 1.08919 -1.61746 0
M  V30 8625 O 850.747 1.74822 -0.88397 0
M  V30 8626 H 849.327 -0.12222 -0.736934 0
M  V30 8627 H 851.989 -0.992595 -1.67731 0
M  V30 8628 H 851.085 -0.418055 -3.09287 0
M  V30 8629 N 851.386 1.48609 -0.524698 0
M  V30 8630 C 852.316 2.32366 0.229837 0
M  V30 8631 C 853.297 1.41759 0.940129 0
M  V30 8632 O 854.482 1.7065 0.926936 0
M  V30 8633 C 851.612 3.22835 1.28043 0
M  V30 8634 C 850.566 4.22424 0.688603 0
M  V30 8635 C 849.892 5.0199 1.84146 0
M  V30 8636 C 851.192 5.21217 -0.336176 0
M  V30 8637 H 852.886 2.95698 -0.469339 0
M  V30 8638 H 850.432 1.42197 -0.227156 0
M  V30 8639 H 852.385 3.80253 1.8162 0
M  V30 8640 H 851.109 2.57492 2.00912 0
M  V30 8641 H 849.768 3.66185 0.174402 0
M  V30 8642 H 849.416 4.33076 2.5584 0
M  V30 8643 H 849.116 5.69392 1.45142 0
M  V30 8644 H 850.64 5.62259 2.38111 0
M  V30 8645 H 852.054 5.7319 0.112307 0
M  V30 8646 H 850.451 5.96642 -0.643324 0
M  V30 8647 H 851.521 4.68676 -1.24381 0
M  V30 8648 N 852.864 0.259585 1.55447 0
M  V30 8649 C 854.28 -0.094961 1.59317 0
M  V30 8650 C 854.48 -1.55884 1.2768 0
M  V30 8651 O 853.536 -2.30528 1.0302 0
M  V30 8652 C 854.849 0.265669 2.99524 0
M  V30 8653 C 856.397 0.211007 3.12288 0
M  V30 8654 C 856.872 0.545851 4.54736 0
M  V30 8655 N 858.363 0.496823 4.60528 0
M  V30 8656 C 859.098 0.728909 5.68748 0
M  V30 8657 N 858.594 1.02479 6.85179 0
M  V30 8658 N 860.387 0.658756 5.58226 0
M  V30 8659 H 852.538 1.2141 1.7428 0
M  V30 8660 H 854.801 0.489404 0.811904 0
M  V30 8661 H 854.507 1.28316 3.27457 0
M  V30 8662 H 854.381 -0.401089 3.75061 0
M  V30 8663 H 856.768 -0.797172 2.84129 0
M  V30 8664 H 856.849 0.911799 2.38998 0
M  V30 8665 H 856.493 1.55164 4.83618 0
M  V30 8666 H 856.423 -0.17656 5.26304 0
M  V30 8667 H 858.914 0.277376 3.76881 0
M  V30 8668 H 859.227 1.18897 7.63599 0
M  V30 8669 H 857.572 1.0624 6.86832 0
M  V30 8670 H 860.763 0.427553 4.66143 0
M  V30 8671 H 860.936 0.84302 6.42493 0
M  V30 8672 N 854.342 -1.57594 -0.0133615 0
M  V30 8673 C 855.289 -2.07574 -1.00905 0
M  V30 8674 C 856.259 -0.968231 -1.34961 0
M  V30 8675 O 857.444 -1.23981 -1.45028 0
M  V30 8676 C 854.584 -2.5728 -2.30002 0
M  V30 8677 C 853.697 -3.81881 -2.01967 0
M  V30 8678 C 852.832 -4.20139 -3.25049 0
M  V30 8679 C 851.871 -5.37614 -2.92639 0
M  V30 8680 N 851.008 -5.71229 -4.08218 0
M  V30 8681 H 855.848 -2.92382 -0.575899 0
M  V30 8682 H 853.385 -1.4455 -0.272722 0
M  V30 8683 H 855.343 -2.84171 -3.05454 0
M  V30 8684 H 853.973 -1.75365 -2.71011 0
M  V30 8685 H 853.025 -3.61979 -1.16942 0
M  V30 8686 H 854.337 -4.67441 -1.74069 0
M  V30 8687 H 853.491 -4.48242 -4.08857 0
M  V30 8688 H 852.23 -3.33262 -3.56073 0
M  V30 8689 H 851.235 -5.09248 -2.07235 0
M  V30 8690 H 852.46 -6.26157 -2.62876 0
M  V30 8691 H 850.406 -4.8731 -4.39164 0
M  V30 8692 H 850.323 -6.51333 -3.83799 0
M  V30 8693 H 851.591 -6.03917 -4.92854 0
M  V30 8694 N 855.82 0.285905 -1.54985 0
M  V30 8695 C 857.066 1.01669 -1.76168 0
M  V30 8696 C 857.421 1.84401 -0.549019 0
M  V30 8697 O 856.714 1.86034 0.458463 0
M  V30 8698 C 856.908 1.94193 -3.0004 0
M  V30 8699 C 856.737 1.20565 -4.33237 0
M  V30 8700 C 855.507 0.92661 -4.96731 0
M  V30 8701 C 857.705 0.602514 -5.10759 0
M  V30 8702 N 855.687 0.162185 -6.13686 0
M  V30 8703 C 857.058 -0.0283843 -6.19994 0
M  V30 8704 C 859.113 0.509067 -4.95291 0
M  V30 8705 C 857.816 -0.743706 -7.15445 0
M  V30 8706 C 859.842 -0.192633 -5.91086 0
M  V30 8707 C 859.204 -0.812321 -6.997 0
M  V30 8708 H 855.303 0.354451 -0.697057 0
M  V30 8709 H 857.887 0.293693 -1.92472 0
M  V30 8710 H 856.058 2.6373 -2.85133 0
M  V30 8711 H 857.79 2.60536 -3.09682 0
M  V30 8712 H 854.545 1.22861 -4.57386 0
M  V30 8713 H 854.969 -0.206982 -6.76684 0
M  V30 8714 H 859.611 0.973856 -4.11432 0
M  V30 8715 H 857.329 -1.22022 -7.98834 0
M  V30 8716 H 860.915 -0.265082 -5.81196 0
M  V30 8717 H 859.795 -1.34665 -7.72551 0
M  V30 8718 N 857.298 1.47698 0.54982 0
M  V30 8719 C 858.23 1.56806 1.67166 0
M  V30 8720 C 859.243 0.453709 1.5635 0
M  V30 8721 O 860.432 0.723663 1.63173 0
M  V30 8722 C 857.532 1.4632 3.05686 0
M  V30 8723 C 856.705 2.72452 3.42182 0
M  V30 8724 C 855.764 2.55698 4.59897 0
M  V30 8725 O 854.79 3.29534 4.64108 0
M  V30 8726 N 855.992 1.64009 5.56849 0
M  V30 8727 H 858.757 2.53545 1.59797 0
M  V30 8728 H 856.318 1.44171 0.736635 0
M  V30 8729 H 858.31 1.32835 3.82279 0
M  V30 8730 H 856.88 0.57634 3.07241 0
M  V30 8731 H 856.1 3.00644 2.54964 0
M  V30 8732 H 857.388 3.56172 3.63344 0
M  V30 8733 H 856.786 1.03186 5.5621 0
M  V30 8734 H 855.343 1.56473 6.3274 0
M  V30 8735 N 858.776 -0.797141 1.35954 0
M  V30 8736 C 860.023 -1.55468 1.29754 0
M  V30 8737 C 860.351 -1.94095 -0.125391 0
M  V30 8738 O 859.606 -1.62341 -1.09288 0
M  V30 8739 C 859.905 -2.84847 2.15863 0
M  V30 8740 C 859.571 -2.65394 3.64523 0
M  V30 8741 C 858.233 -2.59796 4.05042 0
M  V30 8742 C 860.585 -2.4727 4.58811 0
M  V30 8743 C 857.913 -2.3403 5.38002 0
M  V30 8744 C 860.265 -2.23032 5.91979 0
M  V30 8745 C 858.929 -2.15862 6.31633 0
M  V30 8746 H 858.199 -0.568897 0.474803 0
M  V30 8747 H 860.846 -0.920299 1.67937 0
M  V30 8748 H 859.151 -3.52712 1.70591 0
M  V30 8749 H 860.848 -3.42597 2.08395 0
M  V30 8750 H 857.438 -2.70602 3.32374 0
M  V30 8751 H 861.622 -2.506 4.28384 0
M  V30 8752 H 856.878 -2.26956 5.67715 0
M  V30 8753 H 861.052 -2.08001 6.64612 0
M  V30 8754 H 858.679 -1.9566 7.34589 0
M  V30 8755 N 860.254 -1.20106 -1.0204 0
M  V30 8756 C 861.531 -0.918029 -1.72718 0
M  V30 8757 C 861.911 0.574163 -2.03142 0
M  V30 8758 O 861.259 1.53476 -1.69285 0
M  V30 8759 C 861.469 -1.78698 -2.9978 0
M  V30 8760 C 862.817 -2.02648 -3.7312 0
M  V30 8761 O 863.841 -1.75919 -3.09727 0
M  V30 8762 O 862.7 -2.47767 -4.87107 0
M  V30 8763 H 859.794 -0.342904 -0.752559 0
M  V30 8764 H 862.34 -1.30961 -1.07923 0
M  V30 8765 H 861.112 -2.79757 -2.7359 0
M  V30 8766 H 860.735 -1.39522 -3.72316 0
M  V30 8767 N 861.732 1.21287 -1.00634 0
M  V30 8768 C 862.978 1.90671 -0.690822 0
M  V30 8769 C 863.311 1.77996 0.776592 0
M  V30 8770 O 862.586 1.15748 1.5631 0
M  V30 8771 C 862.869 3.42426 -1.11428 0
M  V30 8772 C 862.722 3.64086 -2.64124 0
M  V30 8773 C 864.041 4.34851 -0.677686 0
M  V30 8774 H 861.16 0.692419 -0.252439 0
M  V30 8775 H 863.802 1.42893 -1.25226 0
M  V30 8776 H 861.952 3.83249 -0.636586 0
M  V30 8777 H 863.624 3.32582 -3.19667 0
M  V30 8778 H 861.867 3.07906 -3.05576 0
M  V30 8779 H 862.538 4.7042 -2.88806 0
M  V30 8780 H 865.014 4.01619 -1.0882 0
M  V30 8781 H 863.89 5.39675 -1.00213 0
M  V30 8782 H 864.151 4.4009 0.421125 0
M  V30 8783 N 863.21 0.781244 1.36873 0
M  V30 8784 C 864.456 0.359455 2.00199 0
M  V30 8785 C 864.811 -1.05495 1.60899 0
M  V30 8786 O 864.104 -1.7173 0.849664 0
M  V30 8787 C 864.298 0.45146 3.54537 0
M  V30 8788 C 864.127 1.87326 4.08826 0
M  V30 8789 C 862.897 2.49606 4.39346 0
M  V30 8790 C 865.095 2.8342 4.29159 0
M  V30 8791 N 863.077 3.8346 4.79408 0
M  V30 8792 C 864.448 4.02091 4.71935 0
M  V30 8793 C 866.503 2.80583 4.11312 0
M  V30 8794 C 865.206 5.18322 4.98733 0
M  V30 8795 C 867.232 3.95995 4.39251 0
M  V30 8796 C 866.594 5.13409 4.82276 0
M  V30 8797 H 862.693 0.178778 0.76129 0
M  V30 8798 H 865.277 1.0171 1.66022 0
M  V30 8799 H 863.448 -0.176055 3.88001 0
M  V30 8800 H 865.18 0.00670219 4.04699 0
M  V30 8801 H 861.935 2.01149 4.28761 0
M  V30 8802 H 862.359 4.52306 5.03735 0
M  V30 8803 H 867.001 1.90974 3.77212 0
M  V30 8804 H 864.719 6.08524 5.31718 0
M  V30 8805 H 868.305 3.95152 4.2702 0
M  V30 8806 H 867.185 6.01232 5.03478 0
M  V30 8807 N 864.689 -1.48329 0.532571 0
M  V30 8808 C 865.914 -2.074 0.00147755 0
M  V30 8809 C 866.339 -1.38615 -1.27151 0
M  V30 8810 O 865.697 -0.452949 -1.75551 0
M  V30 8811 C 865.745 -3.60029 -0.202866 0
M  V30 8812 O 864.849 -3.92327 -1.27097 0
M  V30 8813 H 864.19 -0.662777 0.0402883 0
M  V30 8814 H 866.72 -1.90701 0.741224 0
M  V30 8815 H 866.73 -4.05783 -0.424722 0
M  V30 8816 H 865.405 -4.09496 0.727033 0
M  V30 8817 H 863.982 -3.58348 -1.03156 0
M  V30 8818 N 866.167 -0.267825 -1.55308 0
M  V30 8819 C 867.115 0.638848 -2.23655 0
M  V30 8820 C 868.109 1.16363 -1.2311 0
M  V30 8821 O 869.315 1.1181 -1.41062 0
M  V30 8822 H 865.69 0.224551 -0.717691 0
M  V30 8823 H 867.661 0.0394809 -2.98374 0
M  V30 8824 C 866.41 1.8151 -2.96562 0
M  V30 8825 H 865.733 1.42048 -3.73715 0
M  V30 8826 H 867.173 2.42629 -3.47717 0
M  V30 8827 C 865.632 2.69911 -2.01618 0
M  V30 8828 O 866.162 3.70058 -1.56268 0
M  V30 8829 N 864.368 2.36924 -1.68272 0
M  V30 8830 H 863.915 1.55533 -2.05347 0
M  V30 8831 H 863.873 2.96343 -1.05016 0
M  V30 8832 N 867.645 1.57599 0.00500368 0
M  V30 8833 C 868.922 1.81561 0.727654 0
M  V30 8834 C 869.302 0.871604 1.92266 0
M  V30 8835 O 868.65 -0.0808232 2.28357 0
M  V30 8836 C 868.86 3.29922 1.13809 0
M  V30 8837 C 870.208 3.95531 1.54403 0
M  V30 8838 O 871.232 3.34215 1.23202 0
M  V30 8839 O 870.091 5.03535 2.12402 0
M  V30 8840 H 867.185 0.747462 0.353878 0
M  V30 8841 H 869.731 1.69688 -0.0200667 0
M  V30 8842 H 868.503 3.90253 0.286078 0
M  V30 8843 H 868.126 3.46775 1.94507 0
M  V30 8844 N 869.123 -0.277682 1.55134 0
M  V30 8845 C 870.369 -1.0114 1.7578 0
M  V30 8846 C 870.702 -1.86109 0.554719 0
M  V30 8847 O 869.977 -1.89275 -0.447813 0
M  V30 8848 C 870.26 -1.89789 3.06027 0
M  V30 8849 C 870.113 -1.07844 4.3668 0
M  V30 8850 C 871.432 -2.88577 3.32282 0
M  V30 8851 H 868.551 -0.366277 0.639539 0
M  V30 8852 H 871.193 -0.284155 1.87863 0
M  V30 8853 H 869.343 -2.51796 2.95856 0
M  V30 8854 H 871.015 -0.479432 4.58802 0
M  V30 8855 H 869.258 -0.381764 4.32117 0
M  V30 8856 H 869.929 -1.73179 5.24131 0
M  V30 8857 H 872.405 -2.36702 3.42215 0
M  V30 8858 H 871.281 -3.47749 4.2469 0
M  V30 8859 H 871.542 -3.63458 2.51696 0
M  V30 8860 N 870.601 -1.47988 -0.541979 0
M  V30 8861 C 871.829 -1.59034 -1.32347 0
M  V30 8862 C 872.244 -0.246123 -1.87189 0
M  V30 8863 O 871.601 0.762889 -1.6579 0
M  V30 8864 C 871.652 -2.62759 -2.48274 0
M  V30 8865 O 871.373 -3.91963 -1.95695 0
M  V30 8866 C 872.874 -2.84133 -3.4027 0
M  V30 8867 H 870.094 -0.536574 -0.402901 0
M  V30 8868 H 872.638 -1.93725 -0.655045 0
M  V30 8869 H 870.793 -2.3096 -3.11025 0
M  V30 8870 H 871.207 -4.48769 -2.7149 0
M  V30 8871 H 872.681 -3.60538 -4.17991 0
M  V30 8872 H 873.158 -1.92512 -3.9476 0
M  V30 8873 H 873.764 -3.17188 -2.83322 0
M  V30 8874 N 872.079 0.78992 -1.36375 0
M  V30 8875 C 873.009 1.91683 -1.33341 0
M  V30 8876 C 873.99 1.68861 -0.204965 0
M  V30 8877 O 875.175 1.89982 -0.402531 0
M  V30 8878 C 872.305 3.28696 -1.12143 0
M  V30 8879 C 871.259 3.66041 -2.21806 0
M  V30 8880 C 870.585 5.01399 -1.85751 0
M  V30 8881 C 871.885 3.74677 -3.63888 0
M  V30 8882 H 873.579 1.94478 -2.27637 0
M  V30 8883 H 871.125 0.934271 -1.09578 0
M  V30 8884 H 873.078 4.07151 -1.08656 0
M  V30 8885 H 871.802 3.26287 -0.142974 0
M  V30 8886 H 870.461 2.89883 -2.24418 0
M  V30 8887 H 870.109 4.9551 -0.864817 0
M  V30 8888 H 869.809 5.27355 -2.59173 0
M  V30 8889 H 871.333 5.82274 -1.83819 0
M  V30 8890 H 872.747 4.43324 -3.63506 0
M  V30 8891 H 871.144 4.12118 -4.3621 0
M  V30 8892 H 872.214 2.75795 -3.9883 0
M  V30 8893 N 873.557 1.20646 1.01402 0
M  V30 8894 C 874.52 0.959314 2.08158 0
M  V30 8895 C 875.52 -0.0661558 1.60664 0
M  V30 8896 O 876.71 0.170177 1.73367 0
M  V30 8897 C 873.842 0.444785 3.37986 0
M  V30 8898 H 875.035 1.90631 2.31517 0
M  V30 8899 H 872.588 1.02219 1.18241 0
M  V30 8900 H 873.323 -0.507553 3.20304 0
M  V30 8901 H 873.108 1.18435 3.73785 0
M  V30 8902 H 874.598 0.291443 4.16582 0
M  V30 8903 N 875.035 -1.20752 1.01276 0
M  V30 8904 C 875.983 -2.25432 0.572989 0
M  V30 8905 C 876.977 -1.64935 -0.386354 0
M  V30 8906 O 878.183 -1.7816 -0.256696 0
M  V30 8907 H 874.558 -0.733229 0.166972 0
M  V30 8908 H 876.529 -2.59856 1.46687 0
M  V30 8909 C 875.278 -3.47615 -0.0768249 0
M  V30 8910 H 874.601 -3.94442 0.652354 0
M  V30 8911 H 876.041 -4.22572 -0.3477 0
M  V30 8912 C 874.5 -3.1003 -1.31845 0
M  V30 8913 O 875.03 -3.21216 -2.41211 0
M  V30 8914 N 873.236 -2.64616 -1.20111 0
M  V30 8915 H 872.783 -2.55714 -0.311184 0
M  V30 8916 H 872.741 -2.39838 -2.03286 0
M  V30 8917 N 876.513 -0.788492 -1.36457 0
M  V30 8918 C 877.463 -0.159377 -2.27442 0
M  V30 8919 C 878.447 0.656146 -1.46913 0
M  V30 8920 O 879.639 0.516372 -1.693 0
M  V30 8921 C 876.768 0.705703 -3.35968 0
M  V30 8922 C 875.854 -0.11856 -4.23934 0
M  V30 8923 N 876.245 -1.1726 -4.9202 0
M  V30 8924 C 874.543 0.102752 -4.45882 0
M  V30 8925 C 875.244 -1.6743 -5.57083 0
M  V30 8926 N 874.22 -0.983682 -5.34626 0
M  V30 8927 H 878.022 -0.96614 -2.77566 0
M  V30 8928 H 875.536 -0.627864 -1.49772 0
M  V30 8929 H 877.533 1.17231 -4.00078 0
M  V30 8930 H 876.193 1.51102 -2.87399 0
M  V30 8931 H 877.204 -1.55502 -4.94004 0
M  V30 8932 H 873.881 0.878651 -4.08149 0
M  V30 8933 H 875.271 -2.55423 -6.21457 0
M  V30 8934 N 877.991 1.48044 -0.54043 0
M  V30 8935 C 878.924 2.26667 0.264083 0
M  V30 8936 C 879.902 1.32996 0.935456 0
M  V30 8937 O 881.086 1.62354 0.95778 0
M  V30 8938 C 878.213 3.09541 1.37485 0
M  V30 8939 C 877.259 4.18664 0.813792 0
M  V30 8940 S 878.092 5.34503 -0.326536 0
M  V30 8941 C 879.248 6.20939 0.786452 0
M  V30 8942 H 879.481 2.94554 -0.403129 0
M  V30 8943 H 877.014 1.5091 -0.326415 0
M  V30 8944 H 878.972 3.57863 2.01107 0
M  V30 8945 H 877.633 2.41048 2.01382 0
M  V30 8946 H 876.826 4.76316 1.6474 0
M  V30 8947 H 876.428 3.73136 0.254066 0
M  V30 8948 H 878.72 6.56273 1.68262 0
M  V30 8949 H 879.663 7.07667 0.247673 0
M  V30 8950 H 880.071 5.54236 1.07156 0
M  V30 8951 N 879.47 0.276058 1.55163 0
M  V30 8952 C 880.38 -0.621066 2.2623 0
M  V30 8953 C 881.396 -1.16931 1.28853 0
M  V30 8954 O 882.572 -1.1994 1.61791 0
M  V30 8955 C 879.637 -1.78824 2.97023 0
M  V30 8956 C 878.698 -1.27657 4.09881 0
M  V30 8957 C 877.931 -2.38812 4.77289 0
M  V30 8958 O 878.154 -3.58188 4.43912 0
M  V30 8959 O 877.088 -2.06915 5.65217 0
M  V30 8960 H 880.914 -0.0453346 3.03666 0
M  V30 8961 H 878.499 0.0434275 1.49337 0
M  V30 8962 H 880.381 -2.46877 3.41511 0
M  V30 8963 H 879.056 -2.35104 2.22503 0
M  V30 8964 H 877.963 -0.56248 3.69847 0
M  V30 8965 H 879.296 -0.759509 4.86305 0
M  V30 8966 N 880.948 -1.576 0.00335426 0
M  V30 8967 C 881.911 -2.07576 -0.971838 0
M  V30 8968 C 882.911 -0.985796 -1.27038 0
M  V30 8969 O 884.101 -1.24833 -1.21501 0
M  V30 8970 C 881.233 -2.52003 -2.29581 0
M  V30 8971 H 882.426 -2.95008 -0.539481 0
M  V30 8972 H 879.979 -1.54381 -0.244186 0
M  V30 8973 H 880.714 -1.67825 -2.77498 0
M  V30 8974 H 880.499 -3.31609 -2.09231 0
M  V30 8975 H 881.989 -2.90983 -2.99531 0
M  V30 8976 N 882.426 0.269451 -1.5528 0
M  V30 8977 C 883.674 0.998604 -1.75705 0
M  V30 8978 C 883.995 1.86691 -0.563175 0
M  V30 8979 O 883.265 1.91305 0.421811 0
M  V30 8980 H 881.845 0.371698 -0.647958 0
M  V30 8981 H 884.507 0.292826 -1.92688 0
M  V30 8982 H 883.603 1.63348 -2.6594 0
M  V30 8983 N 883.904 1.48273 0.534124 0
M  V30 8984 C 885.152 1.55771 1.28762 0
M  V30 8985 C 885.473 0.231575 1.9362 0
M  V30 8986 O 884.743 -0.746533 1.81118 0
M  V30 8987 H 883.323 0.573851 0.47823 0
M  V30 8988 H 885.985 1.84712 0.621888 0
M  V30 8989 H 885.081 2.33657 2.06908 0
M  V30 8990 N 885.382 -0.782676 1.36792 0
M  V30 8991 C 886.329 -1.89558 1.31667 0
M  V30 8992 C 887.299 -1.65076 0.184147 0
M  V30 8993 O 888.484 -1.87143 0.371753 0
M  V30 8994 C 885.624 -3.26469 1.11858 0
M  V30 8995 C 884.737 -3.62978 2.34245 0
M  V30 8996 C 883.872 -4.89041 2.07394 0
M  V30 8997 C 882.911 -5.18249 3.25706 0
M  V30 8998 N 882.048 -6.35497 2.98476 0
M  V30 8999 H 886.888 -1.93274 2.26824 0
M  V30 9000 H 884.425 -0.945057 1.12726 0
M  V30 9001 H 886.383 -4.05431 0.983968 0
M  V30 9002 H 885.013 -3.22158 0.203531 0
M  V30 9003 H 884.065 -2.79087 2.58485 0
M  V30 9004 H 885.377 -3.80507 3.22514 0
M  V30 9005 H 884.531 -5.75883 1.90901 0
M  V30 9006 H 883.27 -4.73594 1.16446 0
M  V30 9007 H 882.275 -4.29887 3.4275 0
M  V30 9008 H 883.5 -5.35611 4.1749 0
M  V30 9009 H 881.446 -6.21429 2.10146 0
M  V30 9010 H 881.363 -6.5339 3.80286 0
M  V30 9011 H 882.631 -7.25304 2.85577 0
M  V30 9012 N 886.86 -1.21182 -1.00761 0
M  V30 9013 C 887.823 -0.970339 -2.07646 0
M  V30 9014 C 888.823 0.0576345 -1.60697 0
M  V30 9015 O 890.013 -0.179369 -1.73274 0
M  V30 9016 C 887.145 -0.462703 -3.37745 0
M  V30 9017 H 888.338 -1.91856 -2.30502 0
M  V30 9018 H 885.891 -1.02844 -1.17698 0
M  V30 9019 H 886.626 0.490559 -3.20568 0
M  V30 9020 H 886.411 -1.20416 -3.73152 0
M  V30 9021 H 887.901 -0.313531 -4.16421 0
M  V30 9022 N 888.338 1.20213 -1.01915 0
M  V30 9023 C 889.586 1.89272 -0.708552 0
M  V30 9024 C 889.907 1.79394 0.76438 0
M  V30 9025 O 889.177 1.198 1.54999 0
M  V30 9026 H 887.757 0.700628 -0.259094 0
M  V30 9027 H 890.419 1.45985 -1.29129 0
M  V30 9028 H 889.515 2.95841 -0.994215 0
M  V30 9029 N 889.816 0.795718 1.36037 0
M  V30 9030 C 891.232 0.478145 1.52269 0
M  V30 9031 C 891.432 -1.0025 1.74792 0
M  V30 9032 O 890.488 -1.78783 1.78305 0
M  V30 9033 C 891.801 1.31406 2.70468 0
M  V30 9034 C 893.349 1.3084 2.84341 0
M  V30 9035 C 893.824 2.12819 4.05551 0
M  V30 9036 N 895.315 2.10298 4.12709 0
M  V30 9037 C 896.05 2.70495 5.05589 0
M  V30 9038 N 895.546 3.39576 6.03871 0
M  V30 9039 N 897.339 2.60195 4.98252 0
M  V30 9040 H 889.49 1.75477 1.19673 0
M  V30 9041 H 891.753 0.74627 0.584624 0
M  V30 9042 H 891.459 2.36435 2.60368 0
M  V30 9043 H 891.333 0.959726 3.64786 0
M  V30 9044 H 893.72 0.266003 2.93899 0
M  V30 9045 H 893.801 1.70254 1.90912 0
M  V30 9046 H 893.445 3.17093 3.96755 0
M  V30 9047 H 893.375 1.70772 4.98141 0
M  V30 9048 H 895.866 1.60026 3.42345 0
M  V30 9049 H 896.179 3.82823 6.71317 0
M  V30 9050 H 894.524 3.43679 6.04077 0
M  V30 9051 H 897.715 2.05823 4.20422 0
M  V30 9052 H 897.888 3.074 5.70447 0
M  V30 9053 N 891.294 -1.47756 0.548274 0
M  V30 9054 C 892.543 -2.01691 0.0187961 0
M  V30 9055 C 892.856 -1.42894 -1.33569 0
M  V30 9056 O 894.062 -1.88438 -1.95457 0
M  V30 9057 C 892.518 -3.59896 -0.016847 0
M  V30 9058 C 892.126 -4.27683 1.33385 0
M  V30 9059 C 893.87 -4.21614 -0.494188 0
M  V30 9060 C 891.777 -5.7787 1.2578 0
M  V30 9061 H 890.707 -0.753993 0.00325648 0
M  V30 9062 H 893.358 -1.69838 0.694792 0
M  V30 9063 H 891.74 -3.88672 -0.758304 0
M  V30 9064 H 892.914 -4.10559 2.09232 0
M  V30 9065 H 891.229 -3.77915 1.7484 0
M  V30 9066 H 893.826 -5.3166 -0.569342 0
M  V30 9067 H 894.169 -3.88176 -1.50417 0
M  V30 9068 H 894.702 -3.97336 0.192138 0
M  V30 9069 H 891.441 -6.15912 2.2435 0
M  V30 9070 H 890.961 -5.97355 0.540997 0
M  V30 9071 H 892.64 -6.39897 0.956109 0
M  V30 9072 N 892.772 -0.284283 -1.55015 0
M  V30 9073 C 893.722 0.613913 -2.19579 0
M  V30 9074 C 894.706 1.11153 -1.16335 0
M  V30 9075 O 895.898 1.05508 -1.42116 0
M  V30 9076 C 893.027 1.79329 -2.92739 0
M  V30 9077 C 892.113 1.31242 -4.03282 0
M  V30 9078 N 892.504 0.548344 -5.02819 0
M  V30 9079 C 890.802 1.5946 -4.1652 0
M  V30 9080 C 891.503 0.294358 -5.80955 0
M  V30 9081 N 890.479 0.869406 -5.36603 0
M  V30 9082 H 894.281 0.0224088 -2.93891 0
M  V30 9083 H 891.795 -0.0882619 -1.6216 0
M  V30 9084 H 893.792 2.44814 -3.37449 0
M  V30 9085 H 892.452 2.38865 -2.1994 0
M  V30 9086 H 893.463 0.194812 -5.17533 0
M  V30 9087 H 890.14 2.19866 -3.54916 0
M  V30 9088 H 891.53 -0.318195 -6.71146 0
M  V30 9089 N 894.251 1.57596 -0.0117121 0
M  V30 9090 C 895.5 1.9025 0.669921 0
M  V30 9091 C 895.813 0.887986 1.74282 0
M  V30 9092 O 897.019 1.10516 2.47989 0
M  V30 9093 C 895.475 3.37762 1.24277 0
M  V30 9094 C 895.083 4.47535 0.204076 0
M  V30 9095 C 896.827 3.79509 1.90192 0
M  V30 9096 C 894.734 5.86132 0.787577 0
M  V30 9097 H 893.664 0.709935 0.253984 0
M  V30 9098 H 896.315 1.8335 -0.0741718 0
M  V30 9099 H 894.697 3.39537 2.03791 0
M  V30 9100 H 895.871 4.57294 -0.56733 0
M  V30 9101 H 894.186 4.14881 -0.355305 0
M  V30 9102 H 896.783 4.80402 2.34773 0
M  V30 9103 H 897.126 3.13643 2.7374 0
M  V30 9104 H 897.659 3.80084 1.17394 0
M  V30 9105 H 894.398 6.55499 -0.00938418 0
M  V30 9106 H 893.918 5.80014 1.52787 0
M  V30 9107 H 895.597 6.34158 1.28265 0
M  V30 9108 N 895.729 -0.261212 1.5542 0
M  V30 9109 C 896.957 -1.00916 1.8062 0
M  V30 9110 C 897.372 -1.79494 0.585444 0
M  V30 9111 O 896.729 -1.76974 -0.445702 0
M  V30 9112 C 896.78 -1.95841 3.03856 0
M  V30 9113 O 896.501 -1.20445 4.21218 0
M  V30 9114 C 898.002 -2.82352 3.41749 0
M  V30 9115 H 895.222 -0.297596 0.601397 0
M  V30 9116 H 897.766 -0.288427 2.02456 0
M  V30 9117 H 895.921 -2.63361 2.84112 0
M  V30 9118 H 896.335 -1.84528 4.90968 0
M  V30 9119 H 897.809 -3.44733 4.31118 0
M  V30 9120 H 898.286 -3.5273 2.61683 0
M  V30 9121 H 898.892 -2.20306 3.63793 0
M  V30 9122 N 897.207 -1.48554 -0.526253 0
M  V30 9123 C 898.154 -1.63354 -1.63046 0
M  V30 9124 C 899.124 -0.475509 -1.59148 0
M  V30 9125 O 900.309 -0.699453 -1.77517 0
M  V30 9126 C 897.449 -1.68271 -3.01295 0
M  V30 9127 C 896.562 -2.95207 -3.15399 0
M  V30 9128 C 895.697 -2.91262 -4.4423 0
M  V30 9129 C 894.736 -4.12886 -4.51876 0
M  V30 9130 N 893.873 -4.06996 -5.721 0
M  V30 9131 H 898.713 -2.57649 -1.49737 0
M  V30 9132 H 896.25 -1.27769 -0.728938 0
M  V30 9133 H 898.208 -1.69104 -3.81392 0
M  V30 9134 H 896.838 -0.774641 -3.13367 0
M  V30 9135 H 895.89 -3.04102 -2.2853 0
M  V30 9136 H 897.202 -3.85187 -3.1691 0
M  V30 9137 H 896.356 -2.90516 -5.32621 0
M  V30 9138 H 895.095 -1.99016 -4.45246 0
M  V30 9139 H 894.1 -4.13902 -3.61891 0
M  V30 9140 H 895.325 -5.06294 -4.52596 0
M  V30 9141 H 893.271 -3.17573 -5.74006 0
M  V30 9142 H 893.188 -4.90685 -5.75121 0
M  V30 9143 H 894.456 -4.10315 -6.62768 0
M  V30 9144 N 898.685 0.775411 -1.37205 0
M  V30 9145 C 899.648 1.8702 -1.325 0
M  V30 9146 C 900.648 1.5915 -0.229793 0
M  V30 9147 O 901.838 1.673 -0.485423 0
M  V30 9148 C 898.97 3.24085 -1.05745 0
M  V30 9149 H 900.163 1.92604 -2.29878 0
M  V30 9150 H 897.716 0.97476 -1.22181 0
M  V30 9151 H 898.451 3.24178 -0.0888371 0
M  V30 9152 H 898.236 3.45705 -1.85016 0
M  V30 9153 H 899.726 4.0416 -1.05094 0
M  V30 9154 N 900.163 1.21714 1.00117 0
M  V30 9155 C 901.391 1.06278 1.77518 0
M  V30 9156 C 901.806 -0.387193 1.84787 0
M  V30 9157 O 901.163 -1.26854 1.31203 0
M  V30 9158 C 901.214 1.65795 3.21239 0
M  V30 9159 O 900.935 3.05119 3.14378 0
M  V30 9160 C 902.436 1.55521 4.15124 0
M  V30 9161 H 899.656 0.373013 0.557765 0
M  V30 9162 H 902.2 1.61133 1.25922 0
M  V30 9163 H 900.355 1.15022 3.69931 0
M  V30 9164 H 900.769 3.33643 4.04701 0
M  V30 9165 H 902.243 2.01902 5.13751 0
M  V30 9166 H 902.72 0.510307 4.36225 0
M  V30 9167 H 903.326 2.0556 3.72324 0
M  V30 9168 N 901.641 -1.19671 1.02551 0
M  V30 9169 C 902.571 -2.25009 0.623965 0
M  V30 9170 C 903.552 -1.66129 -0.36538 0
M  V30 9171 O 904.737 -1.92599 -0.248842 0
M  V30 9172 C 901.867 -3.47287 -0.0294869 0
M  V30 9173 C 900.821 -4.18818 0.881781 0
M  V30 9174 C 900.147 -5.34618 0.0936189 0
M  V30 9175 C 901.447 -4.73986 2.19396 0
M  V30 9176 H 903.141 -2.58851 1.50454 0
M  V30 9177 H 900.687 -1.24425 0.724872 0
M  V30 9178 H 902.64 -4.20168 -0.322016 0
M  V30 9179 H 901.364 -3.12635 -0.944838 0
M  V30 9180 H 900.023 -3.47815 1.15845 0
M  V30 9181 H 899.671 -4.9621 -0.823661 0
M  V30 9182 H 899.371 -5.83409 0.700568 0
M  V30 9183 H 900.895 -6.10297 -0.192249 0
M  V30 9184 H 902.309 -5.38639 1.96319 0
M  V30 9185 H 900.706 -5.3325 2.75254 0
M  V30 9186 H 901.776 -3.92238 2.85092 0
M  V30 9187 N 903.119 -0.802921 -1.35613 0
M  V30 9188 C 904.067 -0.198783 -2.31749 0
M  V30 9189 C 905.061 0.649416 -1.56458 0
M  V30 9190 O 906.267 0.542989 -1.71615 0
M  V30 9191 H 902.642 -0.0455177 -0.750621 0
M  V30 9192 H 904.613 -1.02479 -2.80251 0
M  V30 9193 C 903.362 0.641066 -3.41739 0
M  V30 9194 H 902.685 -0.00226244 -3.998 0
M  V30 9195 H 904.125 1.03022 -4.11294 0
M  V30 9196 C 902.584 1.80505 -2.84464 0
M  V30 9197 O 903.114 2.90235 -2.77717 0
M  V30 9198 N 901.32 1.61542 -2.41563 0
M  V30 9199 H 900.867 0.722863 -2.4725 0
M  V30 9200 H 900.825 2.39581 -2.03589 0
M  V30 9201 N 904.597 1.47463 -0.556102 0
M  V30 9202 C 905.827 2.06568 -0.0364056 0
M  V30 9203 C 906.235 1.40939 1.26225 0
M  V30 9204 O 905.578 0.499572 1.76777 0
M  V30 9205 C 905.64 3.58755 0.231278 0
M  V30 9206 C 905.304 4.46417 -0.977776 0
M  V30 9207 C 906.301 4.846 -1.88305 0
M  V30 9208 C 903.986 4.87948 -1.19214 0
M  V30 9209 C 905.98 5.63111 -2.98639 0
M  V30 9210 C 903.667 5.66224 -2.29857 0
M  V30 9211 C 904.665 6.03716 -3.194 0
M  V30 9212 O 904.353 6.80415 -4.28125 0
M  V30 9213 H 904.085 0.674675 -0.042305 0
M  V30 9214 H 906.639 1.9047 -0.768775 0
M  V30 9215 H 904.869 3.73061 1.01794 0
M  V30 9216 H 906.558 3.99884 0.696221 0
M  V30 9217 H 907.324 4.53115 -1.72949 0
M  V30 9218 H 903.203 4.58233 -0.504347 0
M  V30 9219 H 906.747 5.92293 -3.68557 0
M  V30 9220 H 902.644 5.97121 -2.45186 0
M  V30 9221 H 903.412 6.98807 -4.26159 0
M  V30 9222 N 906.075 0.2925 1.54862 0
M  V30 9223 C 907.005 -0.580677 2.26165 0
M  V30 9224 C 907.986 -1.14485 1.25806 0
M  V30 9225 O 909.171 -1.17577 1.54562 0
M  V30 9226 C 906.301 -1.75668 2.99596 0
M  V30 9227 C 905.255 -1.32325 4.07031 0
M  V30 9228 C 904.581 -2.58374 4.68131 0
M  V30 9229 C 905.881 -0.460703 5.20264 0
M  V30 9230 H 907.575 0.0140075 2.99397 0
M  V30 9231 H 905.121 0.00817706 1.43998 0
M  V30 9232 H 907.074 -2.37356 3.48195 0
M  V30 9233 H 905.798 -2.37747 2.23928 0
M  V30 9234 H 904.457 -0.729477 3.59269 0
M  V30 9235 H 904.105 -3.18749 3.89112 0
M  V30 9236 H 903.805 -2.30078 5.40683 0
M  V30 9237 H 905.329 -3.2088 5.19489 0
M  V30 9238 H 906.743 -0.983037 5.64809 0
M  V30 9239 H 905.14 -0.271881 5.99484 0
M  V30 9240 H 906.21 0.516304 4.82143 0
M  V30 9241 N 907.553 -1.57587 0.0200696 0
M  V30 9242 C 908.501 -2.10814 -0.982868 0
M  V30 9243 C 909.495 -1.03263 -1.34287 0
M  V30 9244 O 910.701 -1.21708 -1.32617 0
M  V30 9245 H 907.076 -0.673409 -0.334701 0
M  V30 9246 H 909.047 -2.94034 -0.50856 0
M  V30 9247 C 907.796 -2.64301 -2.25921 0
M  V30 9248 H 907.119 -3.46703 -1.99091 0
M  V30 9249 H 908.559 -3.052 -2.94328 0
M  V30 9250 C 907.018 -1.56628 -2.98277 0
M  V30 9251 O 907.548 -0.960825 -3.9004 0
M  V30 9252 N 905.754 -1.28889 -2.60453 0
M  V30 9253 H 905.301 -1.7831 -1.85912 0
M  V30 9254 H 905.259 -0.570697 -3.09177 0
M  V30 9255 N 909.032 0.252966 -1.55557 0
M  V30 9256 C 910.28 0.979912 -1.76754 0
M  V30 9257 C 910.601 1.86083 -0.582944 0
M  V30 9258 O 909.871 1.91742 0.401497 0
M  V30 9259 H 908.451 0.364805 -0.651864 0
M  V30 9260 H 911.113 0.272372 -1.92987 0
M  V30 9261 H 910.209 1.60518 -2.67657 0
M  V30 9262 N 910.51 1.48831 0.518367 0
M  V30 9263 C 911.787 1.47933 1.27966 0
M  V30 9264 C 912.167 0.197393 2.10175 0
M  V30 9265 O 911.515 -0.820656 2.13255 0
M  V30 9266 C 911.725 2.74816 2.15121 0
M  V30 9267 C 913.073 3.23613 2.74881 0
M  V30 9268 O 914.097 2.75814 2.254 0
M  V30 9269 O 912.956 4.06818 3.64913 0
M  V30 9270 H 910.05 0.591316 0.578164 0
M  V30 9271 H 912.596 1.61077 0.534065 0
M  V30 9272 H 911.368 3.59621 1.54234 0
M  V30 9273 H 910.991 2.64449 2.96905 0
M  V30 9274 N 911.988 -0.768124 1.37614 0
M  V30 9275 C 913.218 -1.555 1.36027 0
M  V30 9276 C 913.626 -1.89119 -0.0554273 0
M  V30 9277 O 912.969 -1.52203 -1.02859 0
M  V30 9278 C 913.031 -2.8906 2.13739 0
M  V30 9279 C 912.695 -2.78058 3.62674 0
M  V30 9280 C 913.692 -2.48841 4.5648 0
M  V30 9281 C 911.377 -2.95966 4.05844 0
M  V30 9282 C 913.371 -2.37665 5.91434 0
M  V30 9283 C 911.058 -2.84411 5.40882 0
M  V30 9284 C 912.056 -2.55301 6.33491 0
M  V30 9285 O 911.744 -2.43779 7.66046 0
M  V30 9286 H 911.476 -0.488263 0.467521 0
M  V30 9287 H 914.03 -0.959583 1.81607 0
M  V30 9288 H 912.26 -3.50735 1.62854 0
M  V30 9289 H 913.949 -3.5048 2.04741 0
M  V30 9290 H 914.715 -2.34687 4.24437 0
M  V30 9291 H 910.594 -3.17625 3.34119 0
M  V30 9292 H 914.138 -2.14865 6.63686 0
M  V30 9293 H 910.035 -2.98134 5.72527 0
M  V30 9294 H 910.803 -2.59101 7.76408 0
M  V30 9295 N 913.466 -1.22244 -0.994698 0
M  V30 9296 C 914.376 -1.00722 -2.11878 0
M  V30 9297 C 915.392 0.043919 -1.73945 0
M  V30 9298 O 916.568 -0.148411 -2.00852 0
M  V30 9299 C 913.633 -0.585723 -3.41717 0
M  V30 9300 C 912.694 -1.71027 -3.93762 0
M  V30 9301 C 911.927 -1.30879 -5.17403 0
M  V30 9302 O 912.15 -0.18681 -5.70094 0
M  V30 9303 O 911.084 -2.1246 -5.63156 0
M  V30 9304 H 914.91 -1.94894 -2.32916 0
M  V30 9305 H 912.495 -1.00822 -1.10251 0
M  V30 9306 H 914.377 -0.360935 -4.19851 0
M  V30 9307 H 913.052 0.327166 -3.22042 0
M  V30 9308 H 911.959 -1.98956 -3.16808 0
M  V30 9309 H 913.292 -2.60096 -4.17865 0
M  V30 9310 N 914.944 1.19125 -1.03184 0
M  V30 9311 C 916.19 1.89163 -0.731111 0
M  V30 9312 C 916.523 1.79604 0.738662 0
M  V30 9313 O 915.798 1.19037 1.53819 0
M  V30 9314 C 916.081 3.39986 -1.18666 0
M  V30 9315 C 915.934 3.58401 -2.71788 0
M  V30 9316 C 917.253 4.33316 -0.769772 0
M  V30 9317 H 914.372 0.686908 -0.267069 0
M  V30 9318 H 917.014 1.40205 -1.28229 0
M  V30 9319 H 915.164 3.81813 -0.717736 0
M  V30 9320 H 916.836 3.25727 -3.26649 0
M  V30 9321 H 915.079 3.01355 -3.12038 0
M  V30 9322 H 915.75 4.64189 -2.98719 0
M  V30 9323 H 918.226 3.9922 -1.17314 0
M  V30 9324 H 917.102 5.37427 -1.11637 0
M  V30 9325 H 917.363 4.40884 0.327681 0
M  V30 9326 N 916.422 0.810101 1.35185 0
M  V30 9327 C 917.332 0.224565 2.33523 0
M  V30 9328 C 918.348 -0.634287 1.62027 0
M  V30 9329 O 919.524 -0.545211 1.9388 0
M  V30 9330 C 916.589 -0.614319 3.41214 0
M  V30 9331 C 915.65 0.265435 4.28479 0
M  V30 9332 C 914.883 -0.533506 5.31027 0
M  V30 9333 O 915.106 -1.7679 5.42311 0
M  V30 9334 O 914.04 0.0774573 6.0185 0
M  V30 9335 H 917.866 1.03815 2.85405 0
M  V30 9336 H 915.451 0.571964 1.38018 0
M  V30 9337 H 917.333 -1.09201 4.07005 0
M  V30 9338 H 916.008 -1.40545 2.91597 0
M  V30 9339 H 914.915 0.790343 3.65656 0
M  V30 9340 H 916.248 1.0206 4.81503 0
M  V30 9341 N 917.9 -1.47166 0.563914 0
M  V30 9342 C 919.311 -1.86231 0.132307 0
M  V30 9343 C 919.662 -1.46976 -1.29971 0
M  V30 9344 O 918.787 -0.875911 -1.97881 0
M  V30 9345 C 919.382 -3.37996 0.233335 0
M  V30 9346 C 917.941 -3.76127 -0.143278 0
M  V30 9347 C 917.088 -2.71212 0.577857 0
M  V30 9348 H 920.039 -1.38588 0.773249 0
M  V30 9349 H 920.06 -3.76558 -0.546309 0
M  V30 9350 H 919.572 -3.66535 1.27568 0
M  V30 9351 H 917.673 -3.53205 -1.18648 0
M  V30 9352 H 917.786 -4.78595 0.219952 0
M  V30 9353 H 916.15 -2.54692 0.020186 0
M  V30 9354 H 916.933 -3.02593 1.62149 0
M  V30 9355 N 919.378 -0.300708 -1.54705 0
M  V30 9356 C 920.626 0.308044 -1.99739 0
M  V30 9357 C 920.947 1.54433 -1.19061 0
M  V30 9358 O 920.217 1.93794 -0.286507 0
M  V30 9359 H 918.797 0.116811 -0.73781 0
M  V30 9360 H 921.459 -0.41197 -1.90496 0
M  V30 9361 H 920.555 0.580287 -3.06658 0
M  V30 9362 N 920.856 1.57574 -0.0284266 0
M  V30 9363 C 922.096 1.93637 0.65453 0
M  V30 9364 C 922.46 0.905015 1.69332 0
M  V30 9365 O 923.661 1.15181 2.42872 0
M  V30 9366 C 921.932 3.3462 1.25555 0
M  V30 9367 S 923.491 3.92609 1.95968 0
M  V30 9368 H 920.309 0.67755 0.215516 0
M  V30 9369 H 922.911 1.95284 -0.0919257 0
M  V30 9370 H 921.615 4.07499 0.487069 0
M  V30 9371 H 921.146 3.36415 2.03933 0
M  V30 9372 H 923.161 3.75988 3.23802 0
M  V30 9373 N 922.334 -0.244713 1.55689 0
M  V30 9374 C 923.582 -0.970525 1.77272 0
M  V30 9375 C 923.903 -1.85771 0.592804 0
M  V30 9376 O 923.173 -1.91952 -0.391323 0
M  V30 9377 H 921.753 -0.361342 0.653789 0
M  V30 9378 H 924.415 -0.262134 1.93129 0
M  V30 9379 H 923.511 -1.59096 2.68505 0
M  V30 9380 N 923.813 -1.49104 -0.510467 0
M  V30 9381 C 925.061 -1.578 -1.26268 0
M  V30 9382 C 925.382 -0.262349 -1.93227 0
M  V30 9383 O 924.652 0.717624 -1.82283 0
M  V30 9384 H 923.232 -0.581387 -0.46904 0
M  V30 9385 H 925.894 -1.85678 -0.592423 0
M  V30 9386 H 924.99 -2.36919 -2.03165 0
M  V30 9387 N 925.291 0.760815 -1.38019 0
M  V30 9388 C 926.201 1.90526 -1.36884 0
M  V30 9389 C 927.217 1.71941 -0.266908 0
M  V30 9390 O 928.393 1.94988 -0.50413 0
M  V30 9391 C 925.458 3.25799 -1.18558 0
M  V30 9392 C 924.519 3.56961 -2.3849 0
M  V30 9393 C 923.752 4.8578 -2.21029 0
M  V30 9394 O 923.975 5.57629 -1.20023 0
M  V30 9395 O 922.909 5.16254 -3.0946 0
M  V30 9396 H 926.735 1.94437 -2.33298 0
M  V30 9397 H 924.32 0.905091 -1.18863 0
M  V30 9398 H 926.202 4.0669 -1.1037 0
M  V30 9399 H 924.877 3.22716 -0.252241 0
M  V30 9400 H 923.784 2.7626 -2.52252 0
M  V30 9401 H 925.117 3.64798 -3.30429 0
M  V30 9402 N 926.769 1.22769 0.988202 0
M  V30 9403 C 928.185 0.988665 1.2529 0
M  V30 9404 C 928.385 -0.314938 1.99024 0
M  V30 9405 O 927.441 -1.03637 2.30251 0
M  V30 9406 C 928.754 2.19046 2.06009 0
M  V30 9407 C 930.302 2.23452 2.19176 0
M  V30 9408 C 930.777 3.43196 3.03283 0
M  V30 9409 N 932.268 3.43387 3.10869 0
M  V30 9410 C 933.003 4.32693 3.7625 0
M  V30 9411 N 932.499 5.32224 4.43519 0
M  V30 9412 N 934.292 4.20457 3.73058 0
M  V30 9413 H 926.443 2.06575 0.494014 0
M  V30 9414 H 928.706 0.905452 0.28082 0
M  V30 9415 H 928.412 3.13607 1.59197 0
M  V30 9416 H 928.286 2.19492 3.06763 0
M  V30 9417 H 930.673 1.29436 2.65199 0
M  V30 9418 H 930.754 2.27042 1.17836 0
M  V30 9419 H 930.398 4.37515 2.57959 0
M  V30 9420 H 930.328 3.36847 4.04774 0
M  V30 9421 H 932.819 2.71368 2.62998 0
M  V30 9422 H 933.132 5.9664 4.91163 0
M  V30 9423 H 931.477 5.36133 4.42252 0
M  V30 9424 H 934.668 3.41949 3.19669 0
M  V30 9425 H 934.841 4.90261 4.23731 0
M  V30 9426 N 928.247 -1.18576 1.03814 0
M  V30 9427 C 929.195 -2.24166 0.620678 0
M  V30 9428 C 930.189 -1.65718 -0.351282 0
M  V30 9429 O 931.395 -1.78665 -0.218848 0
M  V30 9430 H 927.77 -0.729522 0.182487 0
M  V30 9431 H 929.741 -2.56686 1.52166 0
M  V30 9432 C 928.49 -3.477 -0.00307331 0
M  V30 9433 H 927.813 -3.92969 0.735874 0
M  V30 9434 H 929.253 -4.23214 -0.257988 0
M  V30 9435 C 927.712 -3.12757 -1.2524 0
M  V30 9436 O 928.242 -3.26261 -2.34344 0
M  V30 9437 N 926.448 -2.67104 -1.14471 0
M  V30 9438 H 925.995 -2.56316 -0.256873 0
M  V30 9439 H 925.953 -2.44096 -1.98153 0
M  V30 9440 N 929.725 -0.817259 -1.34754 0
M  V30 9441 C 930.688 -0.240611 -2.27934 0
M  V30 9442 C 931.688 0.578219 -1.50044 0
M  V30 9443 O 932.878 0.395148 -1.69659 0
M  V30 9444 C 930.01 0.663318 -3.34384 0
M  V30 9445 H 931.203 -1.06257 -2.80445 0
M  V30 9446 H 928.756 -0.588697 -1.4479 0
M  V30 9447 H 929.491 1.50855 -2.87077 0
M  V30 9448 H 929.276 0.0777388 -3.92023 0
M  V30 9449 H 930.766 1.06076 -4.03903 0
M  V30 9450 N 931.203 1.46865 -0.571711 0
M  V30 9451 C 932.433 2.06518 -0.0583129 0
M  V30 9452 C 932.841 1.4227 1.24723 0
M  V30 9453 O 932.184 0.518293 1.76237 0
M  V30 9454 C 932.246 3.5898 0.193214 0
M  V30 9455 C 931.91 4.45355 -1.02507 0
M  V30 9456 C 932.907 4.82575 -1.93435 0
M  V30 9457 C 930.592 4.86656 -1.24382 0
M  V30 9458 C 932.586 5.59912 -3.04595 0
M  V30 9459 C 930.273 5.63754 -2.35849 0
M  V30 9460 C 931.271 6.00294 -3.25785 0
M  V30 9461 O 930.959 6.75836 -4.35318 0
M  V30 9462 H 930.691 0.674188 -0.0494584 0
M  V30 9463 H 933.245 1.89644 -0.788934 0
M  V30 9464 H 931.475 3.7412 0.978319 0
M  V30 9465 H 933.164 4.006 0.653769 0
M  V30 9466 H 933.93 4.51256 -1.77745 0
M  V30 9467 H 929.809 4.57672 -0.55292 0
M  V30 9468 H 933.353 5.88351 -3.74818 0
M  V30 9469 H 929.25 5.94487 -2.51506 0
M  V30 9470 H 930.018 6.94247 -4.33547 0
M  V30 9471 N 932.681 0.308908 1.54543 0
M  V30 9472 C 933.611 -0.556657 2.26768 0
M  V30 9473 C 934.592 -1.13145 1.27013 0
M  V30 9474 O 935.777 -1.15931 1.558 0
M  V30 9475 C 932.907 -1.72481 3.01443 0
M  V30 9476 C 931.861 -1.28001 4.08411 0
M  V30 9477 C 931.187 -2.53395 4.70845 0
M  V30 9478 C 932.487 -0.405497 5.20724 0
M  V30 9479 H 934.181 0.0457618 2.99365 0
M  V30 9480 H 931.727 0.0234495 1.43981 0
M  V30 9481 H 933.68 -2.3365 3.50693 0
M  V30 9482 H 932.404 -2.35359 2.26437 0
M  V30 9483 H 931.063 -0.69133 3.60022 0
M  V30 9484 H 930.711 -3.14604 3.92471 0
M  V30 9485 H 930.411 -2.2433 5.43093 0
M  V30 9486 H 931.935 -3.15352 5.22863 0
M  V30 9487 H 933.349 -0.923076 5.6582 0
M  V30 9488 H 931.746 -0.208282 5.99738 0
M  V30 9489 H 932.816 0.567412 4.81569 0
M  V30 9490 N 934.159 -1.57557 0.0367827 0
M  V30 9491 C 935.106 -2.10679 -0.942499 0
M  V30 9492 C 936.076 -1.01068 -1.31812 0
M  V30 9493 O 937.261 -1.28533 -1.41011 0
M  V30 9494 C 934.401 -2.64467 -2.21701 0
M  V30 9495 C 933.514 -3.88114 -1.89715 0
M  V30 9496 C 932.649 -4.30268 -3.11518 0
M  V30 9497 C 931.688 -5.46652 -2.75387 0
M  V30 9498 N 930.825 -5.83927 -3.89838 0
M  V30 9499 H 935.665 -2.94066 -0.482588 0
M  V30 9500 H 933.202 -1.45344 -0.226597 0
M  V30 9501 H 935.16 -2.93745 -2.96259 0
M  V30 9502 H 933.79 -1.83898 -2.65295 0
M  V30 9503 H 932.842 -3.65516 -1.05366 0
M  V30 9504 H 934.154 -4.72743 -1.5911 0
M  V30 9505 H 933.308 -4.61023 -3.94389 0
M  V30 9506 H 932.047 -3.44421 -3.4529 0
M  V30 9507 H 931.052 -5.15583 -1.90929 0
M  V30 9508 H 932.277 -6.34204 -2.42822 0
M  V30 9509 H 930.223 -5.01035 -4.23438 0
M  V30 9510 H 930.14 -6.63214 -3.62883 0
M  V30 9511 H 931.408 -6.19291 -4.73391 0
M  V30 9512 N 935.637 0.236453 -1.55816 0
M  V30 9513 C 936.547 1.31418 -1.94336 0
M  V30 9514 C 937.563 1.52095 -0.845164 0
M  V30 9515 O 938.739 1.65515 -1.14746 0
M  V30 9516 C 935.804 2.6468 -2.23932 0
M  V30 9517 C 934.865 2.52435 -3.47239 0
M  V30 9518 C 934.098 3.79342 -3.75414 0
M  V30 9519 O 934.321 4.81694 -3.05495 0
M  V30 9520 O 933.255 3.77347 -4.68927 0
M  V30 9521 H 937.081 1.01739 -2.86152 0
M  V30 9522 H 934.666 0.438084 -1.42833 0
M  V30 9523 H 936.548 3.4341 -2.44228 0
M  V30 9524 H 935.223 2.94071 -1.35292 0
M  V30 9525 H 934.13 1.71955 -3.32238 0
M  V30 9526 H 935.463 2.27987 -4.36214 0
M  V30 9527 N 937.115 1.49373 0.502552 0
M  V30 9528 C 938.065 1.62321 1.60112 0
M  V30 9529 C 939.049 0.47895 1.53606 0
M  V30 9530 O 940.241 0.731824 1.61162 0
M  V30 9531 C 937.37 1.69162 2.98729 0
M  V30 9532 C 936.456 2.89161 3.10237 0
M  V30 9533 N 936.847 4.13256 2.91638 0
M  V30 9534 C 935.145 2.87065 3.41335 0
M  V30 9535 C 935.846 4.93913 3.07287 0
M  V30 9536 N 934.822 4.27249 3.36094 0
M  V30 9537 H 938.624 2.55989 1.44384 0
M  V30 9538 H 936.138 1.46123 0.708644 0
M  V30 9539 H 938.135 1.76536 3.77678 0
M  V30 9540 H 936.795 0.766301 3.15528 0
M  V30 9541 H 937.806 4.4326 2.67844 0
M  V30 9542 H 934.483 2.03905 3.6432 0
M  V30 9543 H 935.873 6.02491 2.97413 0
M  V30 9544 N 938.594 -0.753485 1.38421 0
M  V30 9545 C 939.819 -1.54783 1.38047 0
M  V30 9546 C 940.244 -1.8808 -0.0276371 0
M  V30 9547 O 939.602 -1.5058 -1.00973 0
M  V30 9548 C 939.65 -2.82353 2.24297 0
M  V30 9549 O 938.754 -3.77509 1.66014 0
M  V30 9550 H 938.095 -0.468151 0.470883 0
M  V30 9551 H 940.625 -0.931144 1.82184 0
M  V30 9552 H 940.635 -3.31277 2.38159 0
M  V30 9553 H 939.31 -2.57449 3.26639 0
M  V30 9554 H 937.887 -3.36212 1.61294 0
M  V30 9555 N 940.072 -1.23292 -0.981677 0
M  V30 9556 C 941.321 -1.05832 -1.71705 0
M  V30 9557 C 941.634 0.40514 -1.91358 0
M  V30 9558 O 942.84 0.699645 -2.6233 0
M  V30 9559 C 941.296 -1.84532 -3.08992 0
M  V30 9560 C 940.904 -3.35199 -2.9723 0
M  V30 9561 C 942.648 -1.75557 -3.86497 0
M  V30 9562 C 940.555 -4.06296 -4.29741 0
M  V30 9563 H 939.485 -0.39241 -0.64384 0
M  V30 9564 H 942.136 -1.47247 -1.09502 0
M  V30 9565 H 940.518 -1.35923 -3.71942 0
M  V30 9566 H 941.692 -3.91286 -2.43377 0
M  V30 9567 H 940.007 -3.44973 -2.332 0
M  V30 9568 H 942.604 -2.25989 -4.84596 0
M  V30 9569 H 942.947 -0.718101 -4.1006 0
M  V30 9570 H 943.48 -2.21771 -3.30246 0
M  V30 9571 H 940.219 -5.10344 -4.11375 0
M  V30 9572 H 939.739 -3.54997 -4.83464 0
M  V30 9573 H 941.418 -4.12519 -4.98434 0
M  V30 9574 N 941.55 1.18024 -1.04442 0
M  V30 9575 C 942.46 2.25436 -0.649276 0
M  V30 9576 C 943.476 1.70915 0.326189 0
M  V30 9577 O 944.652 2.00592 0.180174 0
M  V30 9578 C 941.717 3.46693 -0.0222558 0
M  V30 9579 C 940.778 4.16332 -1.0472 0
M  V30 9580 C 940.011 5.31799 -0.450011 0
M  V30 9581 O 940.234 5.65544 0.742717 0
M  V30 9582 O 939.168 5.90209 -1.18056 0
M  V30 9583 H 942.994 2.61508 -1.54426 0
M  V30 9584 H 940.579 1.25178 -0.81552 0
M  V30 9585 H 942.461 4.20132 0.326597 0
M  V30 9586 H 941.136 3.12436 0.84649 0
M  V30 9587 H 940.043 3.44944 -1.44792 0
M  V30 9588 H 941.376 4.54598 -1.88684 0
M  V30 9589 N 943.028 0.824394 1.34319 0
M  V30 9590 C 944.256 0.426194 2.02463 0
M  V30 9591 C 944.671 -0.968298 1.62078 0
M  V30 9592 O 944.028 -1.62689 0.82696 0
M  V30 9593 C 944.079 0.520465 3.57734 0
M  V30 9594 O 943.8 1.86 3.96656 0
M  V30 9595 C 945.301 0.117353 4.43145 0
M  V30 9596 H 942.521 0.170864 0.648881 0
M  V30 9597 H 945.065 1.11296 1.71562 0
M  V30 9598 H 943.22 -0.118233 3.8722 0
M  V30 9599 H 943.634 1.83528 4.91343 0
M  V30 9600 H 945.108 0.234395 5.51502 0
M  V30 9601 H 945.585 -0.939271 4.29039 0
M  V30 9602 H 946.191 0.729908 4.1899 0
M  V30 9603 N 944.506 -1.46559 0.579492 0
M  V30 9604 C 945.753 -2.02399 0.0638418 0
M  V30 9605 C 946.081 -1.45135 -1.29484 0
M  V30 9606 O 945.336 -0.605061 -1.86112 0
M  V30 9607 C 945.635 -3.57357 -0.0552803 0
M  V30 9608 C 945.301 -4.33646 1.23539 0
M  V30 9609 C 943.963 -4.54207 1.589 0
M  V30 9610 C 946.315 -4.77476 2.08965 0
M  V30 9611 C 943.643 -5.1585 2.79492 0
M  V30 9612 C 945.995 -5.4045 3.2878 0
M  V30 9613 C 944.659 -5.5924 3.64427 0
M  V30 9614 H 943.929 -0.740632 0.0233614 0
M  V30 9615 H 946.576 -1.75968 0.755482 0
M  V30 9616 H 944.881 -3.82907 -0.83003 0
M  V30 9617 H 946.578 -3.98237 -0.469964 0
M  V30 9618 H 943.168 -4.17937 0.9501 0
M  V30 9619 H 947.352 -4.61349 1.8295 0
M  V30 9620 H 942.608 -5.28589 3.07252 0
M  V30 9621 H 946.782 -5.73371 3.95245 0
M  V30 9622 H 944.409 -6.06775 4.57961 0
M  V30 9623 N 945.984 -0.3171 -1.54377 0
M  V30 9624 C 946.914 0.544623 -2.2706 0
M  V30 9625 C 947.895 1.12469 -1.27611 0
M  V30 9626 O 949.08 1.15103 -1.56413 0
M  V30 9627 C 946.21 1.70879 -3.02353 0
M  V30 9628 C 945.164 1.25833 -4.09084 0
M  V30 9629 C 944.49 2.50894 -4.72182 0
M  V30 9630 C 945.79 0.377876 -5.20931 0
M  V30 9631 H 947.484 -0.0616372 -2.99337 0
M  V30 9632 H 945.03 -0.0310848 -1.43966 0
M  V30 9633 H 946.983 2.31787 -3.51927 0
M  V30 9634 H 945.707 2.34155 -2.27682 0
M  V30 9635 H 944.366 0.672228 -3.60384 0
M  V30 9636 H 944.014 3.12518 -3.94134 0
M  V30 9637 H 943.714 2.21447 -5.44275 0
M  V30 9638 H 945.238 3.12575 -5.24528 0
M  V30 9639 H 946.652 0.893056 -5.66302 0
M  V30 9640 H 945.049 0.176474 -5.9984 0
M  V30 9641 H 946.119 -0.592943 -4.81261 0
M  V30 9642 N 947.462 1.57535 -0.0451378 0
M  V30 9643 C 948.711 1.91628 0.629415 0
M  V30 9644 C 949.024 0.924754 1.72359 0
M  V30 9645 O 950.23 1.15751 2.45589 0
M  V30 9646 C 948.686 3.40322 1.17084 0
M  V30 9647 C 948.294 4.47867 0.109101 0
M  V30 9648 C 950.038 3.83458 1.82099 0
M  V30 9649 C 947.945 5.87671 0.663072 0
M  V30 9650 H 946.875 0.715163 0.238868 0
M  V30 9651 H 949.526 1.83151 -0.113046 0
M  V30 9652 H 947.908 3.43783 1.96543 0
M  V30 9653 H 949.082 4.55988 -0.664201 0
M  V30 9654 H 947.397 4.14034 -0.443227 0
M  V30 9655 H 949.994 4.85273 2.2453 0
M  V30 9656 H 950.337 3.19379 2.67026 0
M  V30 9657 H 950.87 3.82488 1.09305 0
M  V30 9658 H 947.609 6.55332 -0.148423 0
M  V30 9659 H 947.129 5.83124 1.4045 0
M  V30 9660 H 948.808 6.36737 1.14785 0
M  V30 9661 N 948.94 -0.228186 1.55939 0
M  V30 9662 C 949.87 -1.28607 1.94891 0
M  V30 9663 C 950.851 -1.49236 0.816245 0
M  V30 9664 O 952.036 -1.61531 1.07803 0
M  V30 9665 C 949.166 -2.63719 2.25986 0
M  V30 9666 C 948.12 -2.57757 3.4168 0
M  V30 9667 C 947.446 -3.96837 3.58364 0
M  V30 9668 C 948.746 -2.13116 4.76843 0
M  V30 9669 H 950.44 -0.962531 2.83506 0
M  V30 9670 H 947.986 -0.461577 1.36402 0
M  V30 9671 H 949.939 -3.37878 2.51826 0
M  V30 9672 H 948.663 -2.97747 1.34217 0
M  V30 9673 H 947.322 -1.86055 3.15878 0
M  V30 9674 H 946.97 -4.28162 2.63982 0
M  V30 9675 H 946.67 -3.93731 4.36176 0
M  V30 9676 H 948.194 -4.72668 3.86545 0
M  V30 9677 H 949.608 -2.77015 5.01932 0
M  V30 9678 H 948.005 -2.21083 5.57891 0
M  V30 9679 H 949.075 -1.08326 4.72645 0
M  V30 9680 N 950.418 -1.49637 -0.494624 0
M  V30 9681 C 951.834 -1.36541 -0.826361 0
M  V30 9682 C 952.034 -0.403386 -1.97421 0
M  V30 9683 O 951.09 0.162614 -2.51976 0
M  V30 9684 C 952.403 -2.77401 -1.16057 0
M  V30 9685 C 953.951 -2.86148 -1.26841 0
M  V30 9686 C 954.426 -4.27789 -1.63587 0
M  V30 9687 N 955.917 -4.3063 -1.70624 0
M  V30 9688 C 956.652 -5.37198 -2.00514 0
M  V30 9689 N 956.148 -6.54004 -2.28584 0
M  V30 9690 N 957.941 -5.2462 -2.01818 0
M  V30 9691 H 950.092 -2.10776 0.26219 0
M  V30 9692 H 952.355 -0.946419 0.0547235 0
M  V30 9693 H 952.061 -3.49526 -0.390434 0
M  V30 9694 H 951.935 -3.1317 -2.10249 0
M  V30 9695 H 954.322 -2.14256 -2.02925 0
M  V30 9696 H 954.403 -2.53953 -0.30684 0
M  V30 9697 H 954.047 -5.00209 -0.880507 0
M  V30 9698 H 953.977 -4.57453 -2.60854 0
M  V30 9699 H 956.468 -3.46393 -1.51065 0
M  V30 9700 H 956.781 -7.31041 -2.50598 0
M  V30 9701 H 955.126 -6.57219 -2.26027 0
M  V30 9702 H 958.317 -4.32371 -1.79369 0
M  V30 9703 H 958.49 -6.07765 -2.24778 0
M  V30 9704 N 951.896 0.746133 -1.38819 0
M  V30 9705 C 953.136 1.51821 -1.36857 0
M  V30 9706 C 953.5 1.9196 0.0391461 0
M  V30 9707 O 954.701 2.68172 0.183689 0
M  V30 9708 C 952.972 2.73214 -2.3041 0
M  V30 9709 S 954.531 3.62995 -2.46536 0
M  V30 9710 H 951.349 0.51945 -0.485482 0
M  V30 9711 H 953.951 0.875244 -1.74813 0
M  V30 9712 H 952.655 2.41847 -3.31569 0
M  V30 9713 H 952.186 3.42449 -1.9363 0
M  V30 9714 H 954.201 4.66353 -1.69498 0
M  V30 9715 N 953.375 1.23811 0.975125 0
M  V30 9716 C 954.603 1.10019 1.75224 0
M  V30 9717 C 955.018 -0.34791 1.85567 0
M  V30 9718 O 954.375 -1.24043 1.33864 0
M  V30 9719 C 954.426 1.72572 3.1765 0
M  V30 9720 O 954.147 3.11719 3.07836 0
M  V30 9721 C 955.648 1.64292 4.11732 0
M  V30 9722 H 952.868 0.38476 0.549728 0
M  V30 9723 H 955.412 1.63768 1.22476 0
M  V30 9724 H 953.567 1.22843 3.67408 0
M  V30 9725 H 953.981 3.42152 3.97533 0
M  V30 9726 H 955.455 2.12754 5.09352 0
M  V30 9727 H 955.932 0.602722 4.35045 0
M  V30 9728 H 956.538 2.13411 3.6788 0
M  V30 9729 N 954.853 -1.17469 1.05066 0
M  V30 9730 C 955.785 -2.20974 0.608526 0
M  V30 9731 C 956.798 -1.59481 -0.327066 0
M  V30 9732 O 957.987 -1.78096 -0.12 0
M  V30 9733 C 955.087 -3.38652 -0.12969 0
M  V30 9734 C 954.26 -4.29716 0.816285 0
M  V30 9735 C 953.319 -5.26064 0.119556 0
M  V30 9736 O 952.345 -5.64194 0.753241 0
M  V30 9737 N 953.547 -5.69126 -1.14347 0
M  V30 9738 H 956.312 -2.59529 1.49882 0
M  V30 9739 H 953.873 -1.32355 0.932406 0
M  V30 9740 H 955.865 -4.00139 -0.605886 0
M  V30 9741 H 954.435 -2.98705 -0.921638 0
M  V30 9742 H 953.655 -3.6568 1.47213 0
M  V30 9743 H 954.943 -4.87449 1.45845 0
M  V30 9744 H 954.341 -5.4022 -1.67866 0
M  V30 9745 H 952.898 -6.32764 -1.56376 0
M  V30 9746 N 956.331 -0.831506 -1.3388 0
M  V30 9747 C 957.278 -0.257449 -2.2936 0
M  V30 9748 C 958.248 0.622604 -1.5399 0
M  V30 9749 O 959.433 0.562432 -1.82322 0
M  V30 9750 C 956.573 0.567587 -3.404 0
M  V30 9751 C 955.686 -0.335666 -4.30694 0
M  V30 9752 C 954.821 0.499762 -5.28844 0
M  V30 9753 C 953.86 -0.402343 -6.10776 0
M  V30 9754 N 952.997 0.39452 -7.00991 0
M  V30 9755 H 957.837 -1.077 -2.77857 0
M  V30 9756 H 955.374 -0.542589 -1.36727 0
M  V30 9757 H 957.332 1.06133 -4.03474 0
M  V30 9758 H 955.962 1.35217 -2.93115 0
M  V30 9759 H 955.014 -0.94768 -3.68406 0
M  V30 9760 H 956.326 -1.02896 -4.88072 0
M  V30 9761 H 955.48 1.05763 -5.9741 0
M  V30 9762 H 954.219 1.22652 -4.72025 0
M  V30 9763 H 953.224 -0.972288 -5.41135 0
M  V30 9764 H 954.449 -1.12735 -6.69677 0
M  V30 9765 H 952.395 1.1048 -6.4663 0
M  V30 9766 H 952.312 -0.240209 -7.55618 0
M  V30 9767 H 953.58 0.934867 -7.73874 0
M  V30 9768 N 957.809 1.4625 -0.587256 0
M  V30 9769 C 959.225 1.57641 -0.249284 0
M  V30 9770 C 959.425 1.58169 1.24839 0
M  V30 9771 O 958.481 1.50109 2.03036 0
M  V30 9772 C 959.794 2.86837 -0.902509 0
M  V30 9773 C 961.342 3.00476 -0.876524 0
M  V30 9774 C 961.817 4.32414 -1.50938 0
M  V30 9775 N 963.308 4.39124 -1.47392 0
M  V30 9776 C 964.043 5.39838 -1.93293 0
M  V30 9777 N 963.539 6.47202 -2.47188 0
M  V30 9778 N 965.332 5.31068 -1.84183 0
M  V30 9779 H 957.483 1.44151 -1.55994 0
M  V30 9780 H 959.746 0.687905 -0.652297 0
M  V30 9781 H 959.452 2.92274 -1.95624 0
M  V30 9782 H 959.326 3.74927 -0.413466 0
M  V30 9783 H 961.713 2.94618 0.168601 0
M  V30 9784 H 961.794 2.1385 -1.40363 0
M  V30 9785 H 961.438 4.3903 -2.55372 0
M  V30 9786 H 961.368 5.17823 -0.957455 0
M  V30 9787 H 963.859 3.62138 -1.08002 0
M  V30 9788 H 964.172 7.20269 -2.80058 0
M  V30 9789 H 962.517 6.48009 -2.51216 0
M  V30 9790 H 965.708 4.46095 -1.41833 0
M  V30 9791 H 965.881 6.09414 -2.2027 0
M  V30 9792 N 959.287 0.325282 1.54207 0
M  V30 9793 C 960.234 -0.539889 2.24397 0
M  V30 9794 C 961.204 -1.11028 1.2354 0
M  V30 9795 O 962.389 -1.1503 1.52226 0
M  V30 9796 C 959.529 -1.69405 3.00659 0
M  V30 9797 C 958.642 -1.15273 4.16337 0
M  V30 9798 C 957.777 -2.27272 4.80126 0
M  V30 9799 C 956.816 -1.70397 5.87904 0
M  V30 9800 N 955.953 -2.76065 6.45548 0
M  V30 9801 H 960.793 0.0652318 2.97929 0
M  V30 9802 H 958.33 0.043964 1.47034 0
M  V30 9803 H 960.288 -2.37325 3.43122 0
M  V30 9804 H 958.918 -2.27043 2.29458 0
M  V30 9805 H 957.97 -0.365034 3.78645 0
M  V30 9806 H 959.282 -0.696576 4.93912 0
M  V30 9807 H 958.436 -3.03092 5.25566 0
M  V30 9808 H 957.175 -2.76224 4.01935 0
M  V30 9809 H 956.18 -0.930752 5.41864 0
M  V30 9810 H 957.405 -1.22319 6.67993 0
M  V30 9811 H 955.351 -3.24306 5.7023 0
M  V30 9812 H 955.268 -2.35018 7.18542 0
M  V30 9813 H 956.536 -3.5171 6.95644 0
M  V30 9814 N 960.765 -1.57509 0.0534917 0
M  V30 9815 C 961.675 -2.15152 -0.935249 0
M  V30 9816 C 962.691 -1.10991 -1.34003 0
M  V30 9817 O 963.867 -1.43171 -1.41648 0
M  V30 9818 C 960.932 -2.68699 -2.19093 0
M  V30 9819 C 959.993 -3.87666 -1.84428 0
M  V30 9820 C 959.226 -4.3865 -3.0401 0
M  V30 9821 O 959.449 -3.887 -4.17455 0
M  V30 9822 O 958.383 -5.30209 -2.84889 0
M  V30 9823 H 962.209 -2.99962 -0.475009 0
M  V30 9824 H 959.794 -1.48446 -0.16854 0
M  V30 9825 H 961.676 -3.03098 -2.92762 0
M  V30 9826 H 960.351 -1.86958 -2.6425 0
M  V30 9827 H 959.258 -3.58151 -1.08068 0
M  V30 9828 H 960.591 -4.70643 -1.44068 0
M  V30 9829 N 962.243 0.219913 -1.56058 0
M  V30 9830 C 963.153 1.29349 -1.95719 0
M  V30 9831 C 964.169 1.5119 -0.861248 0
M  V30 9832 O 965.345 1.64289 -1.16495 0
M  V30 9833 C 962.41 2.6229 -2.26726 0
M  V30 9834 C 961.471 2.48738 -3.49897 0
M  V30 9835 C 960.704 3.75339 -3.79416 0
M  V30 9836 O 960.927 4.78427 -3.10586 0
M  V30 9837 O 959.861 3.72352 -4.72903 0
M  V30 9838 H 963.687 0.986979 -2.87215 0
M  V30 9839 H 961.272 0.42291 -1.43289 0
M  V30 9840 H 963.154 3.408 -2.47857 0
M  V30 9841 H 961.829 2.92619 -1.38404 0
M  V30 9842 H 960.736 1.68422 -3.34043 0
M  V30 9843 H 962.069 2.23347 -4.38608 0
M  V30 9844 N 963.721 1.49897 0.486681 0
M  V30 9845 C 964.668 1.67619 1.58658 0
M  V30 9846 C 965.638 0.517537 1.57831 0
M  V30 9847 O 966.823 0.746272 1.756 0
M  V30 9848 C 963.963 1.762 2.96728 0
M  V30 9849 C 963.076 3.03465 3.07462 0
M  V30 9850 C 962.211 3.02937 4.36351 0
M  V30 9851 C 961.25 4.24721 4.4077 0
M  V30 9852 N 960.387 4.22021 5.61108 0
M  V30 9853 H 965.227 2.61528 1.42853 0
M  V30 9854 H 962.764 1.29657 0.694807 0
M  V30 9855 H 964.722 1.79156 3.76774 0
M  V30 9856 H 963.352 0.857452 3.11203 0
M  V30 9857 H 962.404 3.10054 2.20387 0
M  V30 9858 H 963.716 3.93454 3.06586 0
M  V30 9859 H 962.87 3.04536 5.24731 0
M  V30 9860 H 961.609 2.10751 4.39813 0
M  V30 9861 H 960.614 4.23352 3.5079 0
M  V30 9862 H 961.839 5.18116 4.39013 0
M  V30 9863 H 959.785 3.3268 5.65385 0
M  V30 9864 H 959.702 5.05761 5.61909 0
M  V30 9865 H 960.97 4.27743 6.51656 0
M  V30 9866 N 965.199 -0.738761 1.39212 0
M  V30 9867 C 966.162 -1.83441 1.37412 0
M  V30 9868 C 967.162 -1.58484 0.271908 0
M  V30 9869 O 968.352 -1.65954 0.529609 0
M  V30 9870 C 965.484 -3.21167 1.143 0
M  V30 9871 H 966.677 -1.86441 2.34904 0
M  V30 9872 H 964.23 -0.942023 1.24722 0
M  V30 9873 H 964.965 -3.23829 0.174756 0
M  V30 9874 H 964.75 -3.40678 1.94116 0
M  V30 9875 H 966.24 -4.01231 1.15773 0
M  V30 9876 N 966.677 -1.24326 -0.968545 0
M  V30 9877 C 967.61 -0.978121 -2.06175 0
M  V30 9878 C 968.588 0.0878107 -1.62363 0
M  V30 9879 O 969.772 -0.0489472 -1.88436 0
M  V30 9880 C 966.899 -0.475884 -3.3534 0
M  V30 9881 C 965.945 -1.53023 -3.98103 0
M  V30 9882 S 966.778 -3.11131 -4.35841 0
M  V30 9883 C 967.934 -2.62608 -5.68144 0
M  V30 9884 H 968.167 -1.9038 -2.28348 0
M  V30 9885 H 965.7 -1.07701 -1.10633 0
M  V30 9886 H 967.658 -0.192739 -4.10047 0
M  V30 9887 H 966.319 0.429067 -3.11156 0
M  V30 9888 H 965.512 -1.12922 -4.91187 0
M  V30 9889 H 965.114 -1.76334 -3.29822 0
M  V30 9890 H 967.406 -2.05367 -6.45624 0
M  V30 9891 H 968.349 -3.54277 -6.13101 0
M  V30 9892 H 968.757 -2.03063 -5.26712 0
M  V30 9893 N 968.156 1.1691 -1.05688 0
M  V30 9894 C 969.405 1.86629 -0.765022 0
M  V30 9895 C 969.718 1.82223 0.710918 0
M  V30 9896 O 970.924 2.47462 1.11691 0
M  V30 9897 C 969.38 3.34886 -1.3183 0
M  V30 9898 C 968.988 3.47781 -2.82404 0
M  V30 9899 C 970.732 4.099 -1.10372 0
M  V30 9900 C 968.639 4.9009 -3.31008 0
M  V30 9901 H 967.569 0.699082 -0.282491 0
M  V30 9902 H 970.22 1.31989 -1.27481 0
M  V30 9903 H 968.602 3.89094 -0.736312 0
M  V30 9904 H 969.776 3.03765 -3.46502 0
M  V30 9905 H 968.091 2.86193 -3.02461 0
M  V30 9906 H 970.688 5.14894 -1.4418 0
M  V30 9907 H 971.031 4.16279 -0.0417372 0
M  V30 9908 H 971.564 3.61913 -1.65117 0
M  V30 9909 H 968.303 4.88887 -4.36657 0
M  V30 9910 H 967.823 5.34756 -2.71655 0
M  V30 9911 H 969.502 5.58881 -3.25977 0
M  V30 9912 N 969.634 0.838594 1.33437 0
M  V30 9913 C 970.597 0.276843 2.27522 0
M  V30 9914 C 971.597 -0.554275 1.50945 0
M  V30 9915 O 972.787 -0.368107 1.70266 0
M  V30 9916 C 969.919 -0.610036 3.35397 0
M  V30 9917 H 971.112 1.10705 2.78719 0
M  V30 9918 H 968.665 0.611657 1.43835 0
M  V30 9919 H 969.4 -1.46269 2.89441 0
M  V30 9920 H 969.185 -0.0153615 3.92097 0
M  V30 9921 H 970.675 -0.996368 4.05539 0
M  V30 9922 N 971.112 -1.45937 0.595003 0
M  V30 9923 C 972.059 -2.30427 -0.131165 0
M  V30 9924 C 973.029 -1.41355 -0.872232 0
M  V30 9925 O 974.214 -1.70296 -0.860467 0
M  V30 9926 C 971.354 -3.26045 -1.13087 0
M  V30 9927 C 970.467 -4.30218 -0.391982 0
M  V30 9928 C 969.602 -5.12953 -1.3803 0
M  V30 9929 C 968.641 -6.08865 -0.628505 0
M  V30 9930 N 967.778 -6.84425 -1.56548 0
M  V30 9931 H 972.618 -2.91992 0.595359 0
M  V30 9932 H 970.155 -1.43895 0.305405 0
M  V30 9933 H 972.113 -3.79937 -1.72348 0
M  V30 9934 H 970.743 -2.66261 -1.82496 0
M  V30 9935 H 969.795 -3.79086 0.315895 0
M  V30 9936 H 971.107 -4.98418 0.195173 0
M  V30 9937 H 970.261 -5.71184 -2.04534 0
M  V30 9938 H 969 -4.44743 -2.00138 0
M  V30 9939 H 968.005 -5.49777 0.0502431 0
M  V30 9940 H 969.23 -6.79099 -0.012641 0
M  V30 9941 H 967.176 -6.18913 -2.17444 0
M  V30 9942 H 967.093 -7.48931 -1.03145 0
M  V30 9943 H 968.361 -7.47204 -2.22049 0
M  V30 9944 N 972.59 -0.333456 -1.54032 0
M  V30 9945 C 973.523 0.570776 -2.20947 0
M  V30 9946 C 974.501 1.10811 -1.18994 0
M  V30 9947 O 975.685 1.17027 -1.47773 0
M  V30 9948 C 972.812 1.7842 -2.87896 0
M  V30 9949 C 971.858 1.37722 -4.03652 0
M  V30 9950 S 972.691 0.405548 -5.33962 0
M  V30 9951 C 973.847 1.62603 -6.0441 0
M  V30 9952 H 974.08 0.0023936 -2.973 0
M  V30 9953 H 971.613 -0.117531 -1.53952 0
M  V30 9954 H 973.571 2.48038 -3.27089 0
M  V30 9955 H 972.232 2.32378 -2.11327 0
M  V30 9956 H 971.425 2.28167 -4.49395 0
M  V30 9957 H 971.027 0.760628 -3.66184 0
M  V30 9958 H 973.319 2.56202 -6.2719 0
M  V30 9959 H 974.262 1.21058 -6.97675 0
M  V30 9960 H 974.67 1.8175 -5.34441 0
M  V30 9961 N 974.068 1.57479 -0.061844 0
M  V30 9962 C 975.016 2.13346 0.926629 0
M  V30 9963 C 976.01 1.06787 1.31502 0
M  V30 9964 O 977.216 1.25181 1.29343 0
M  V30 9965 H 973.591 0.682046 0.316729 0
M  V30 9966 H 975.562 2.95279 0.430424 0
M  V30 9967 C 974.311 2.70198 2.18834 0
M  V30 9968 H 973.634 3.51859 1.89829 0
M  V30 9969 H 975.074 3.12897 2.86132 0
M  V30 9970 C 973.533 1.64481 2.9402 0
M  V30 9971 O 974.063 1.0639 3.87355 0
M  V30 9972 N 972.269 1.35749 2.56944 0
M  V30 9973 H 971.816 1.83177 1.81119 0
M  V30 9974 H 971.774 0.652469 3.07555 0
M  V30 9975 N 975.546 -0.211634 1.56173 0
M  V30 9976 C 976.962 -0.56177 1.49386 0
M  V30 9977 C 977.162 -1.86666 0.758813 0
M  V30 9978 O 976.218 -2.50681 0.302534 0
M  V30 9979 C 977.531 -0.631815 2.93987 0
M  V30 9980 C 979.079 -0.721773 3.04564 0
M  V30 9981 C 979.554 -0.823075 4.50544 0
M  V30 9982 N 981.045 -0.887038 4.54627 0
M  V30 9983 C 981.78 -0.985304 5.64871 0
M  V30 9984 N 981.276 -1.0469 6.84844 0
M  V30 9985 N 983.069 -1.02121 5.52746 0
M  V30 9986 H 975.22 0.64452 2.02385 0
M  V30 9987 H 977.483 0.227466 0.920306 0
M  V30 9988 H 977.189 0.257592 3.50755 0
M  V30 9989 H 977.063 -1.4921 3.46433 0
M  V30 9990 H 979.45 -1.60162 2.47855 0
M  V30 9991 H 979.531 0.164385 2.55271 0
M  V30 9992 H 979.175 0.0523511 5.07873 0
M  V30 9993 H 979.105 -1.72479 4.97552 0
M  V30 9994 H 981.596 -0.849352 3.68231 0
M  V30 9995 H 981.909 -1.12193 7.64613 0
M  V30 9996 H 980.254 -1.01586 6.87536 0
M  V30 9997 H 983.445 -0.969814 4.57943 0
M  V30 9998 H 983.618 -1.09434 6.38693 0
M  V30 9999 N 977.024 -1.50153 -0.478725 0
M  V30 10000 C 977.956 -1.64603 -1.59494 0
M  V30 10001 C 978.969 -0.527789 -1.54007 0
M  V30 10002 O 980.158 -0.80069 -1.59534 0
M  V30 10003 C 977.258 -1.60738 -2.98356 0
M  V30 10004 C 976.431 -2.88468 -3.28794 0
M  V30 10005 C 975.49 -2.77349 -4.47173 0
M  V30 10006 O 974.516 -3.51302 -4.47857 0
M  V30 10007 N 975.718 -1.9039 -5.4839 0
M  V30 10008 H 978.483 -2.6088 -1.47518 0
M  V30 10009 H 976.044 -1.47521 -0.667011 0
M  V30 10010 H 978.036 -1.50923 -3.75505 0
M  V30 10011 H 976.606 -0.722273 -3.04141 0
M  V30 10012 H 975.826 -3.12467 -2.40329 0
M  V30 10013 H 977.114 -3.73102 -3.45937 0
M  V30 10014 H 976.512 -1.29606 -5.50653 0
M  V30 10015 H 975.069 -1.86484 -6.24553 0
M  V30 10016 N 978.502 0.731368 -1.39602 0
M  V30 10017 C 979.918 1.03739 -1.21286 0
M  V30 10018 C 980.118 2.01353 -0.0769875 0
M  V30 10019 O 979.174 2.45978 0.570193 0
M  V30 10020 C 980.487 1.59621 -2.54837 0
M  V30 10021 C 982.035 1.71683 -2.61713 0
M  V30 10022 C 982.51 2.30973 -3.95494 0
M  V30 10023 N 984.001 2.38378 -3.97153 0
M  V30 10024 C 984.736 2.852 -4.97442 0
M  V30 10025 N 984.232 3.31891 -6.08129 0
M  V30 10026 N 986.025 2.84441 -4.84819 0
M  V30 10027 H 978.176 0.0840456 -2.12234 0
M  V30 10028 H 980.439 0.0999038 -0.942721 0
M  V30 10029 H 980.145 0.953608 -3.38525 0
M  V30 10030 H 980.019 2.58375 -2.74813 0
M  V30 10031 H 982.406 2.35064 -1.78406 0
M  V30 10032 H 982.487 0.715714 -2.45583 0
M  V30 10033 H 982.131 1.68219 -4.79234 0
M  V30 10034 H 982.061 3.31769 -4.08946 0
M  V30 10035 H 984.552 2.05382 -3.17217 0
M  V30 10036 H 984.865 3.66138 -6.8056 0
M  V30 10037 H 983.21 3.2989 -6.11717 0
M  V30 10038 H 986.401 2.4729 -3.97448 0
M  V30 10039 H 986.574 3.20616 -5.63124 0
M  V30 10040 N 979.98 1.24838 0.961938 0
M  V30 10041 C 981.208 1.11871 1.74047 0
M  V30 10042 C 981.623 -0.328209 1.85925 0
M  V30 10043 O 980.98 -1.22616 1.35173 0
M  V30 10044 C 981.031 1.75931 3.15801 0
M  V30 10045 O 980.752 3.14967 3.04512 0
M  V30 10046 C 982.253 1.68649 4.09966 0
M  V30 10047 H 979.473 0.390569 0.545616 0
M  V30 10048 H 982.017 1.65058 1.20732 0
M  V30 10049 H 980.172 1.26733 3.66084 0
M  V30 10050 H 980.586 3.46349 3.93882 0
M  V30 10051 H 982.06 2.18144 5.07067 0
M  V30 10052 H 982.537 0.648831 4.34381 0
M  V30 10053 H 983.143 2.17301 3.65596 0
M  V30 10054 N 981.458 -1.16348 1.06306 0
M  V30 10055 C 982.406 -2.22799 0.668087 0
M  V30 10056 C 983.4 -1.66426 -0.316051 0
M  V30 10057 O 984.606 -1.79089 -0.180902 0
M  V30 10058 H 980.981 -0.725487 0.19792 0
M  V30 10059 H 982.952 -2.53401 1.57577 0
M  V30 10060 C 981.701 -3.47628 0.0706797 0
M  V30 10061 H 981.024 -3.9132 0.819064 0
M  V30 10062 H 982.464 -4.23666 -0.16816 0
M  V30 10063 C 980.923 -3.15343 -1.18577 0
M  V30 10064 O 981.453 -3.31158 -2.27371 0
M  V30 10065 N 979.659 -2.69472 -1.08779 0
M  V30 10066 H 979.206 -2.56803 -0.202447 0
M  V30 10067 H 979.164 -2.48244 -1.92931 0
M  V30 10068 N 982.937 -0.845659 -1.3299 0
M  V30 10069 C 984.162 -0.457435 -2.02293 0
M  V30 10070 C 984.587 0.935634 -1.63179 0
M  V30 10071 O 983.945 1.61297 -0.827835 0
M  V30 10072 C 983.993 -0.593665 -3.5568 0
M  V30 10073 O 983.097 0.37729 -4.10671 0
M  V30 10074 H 982.438 -0.185022 -0.637701 0
M  V30 10075 H 984.968 -1.14237 -1.69738 0
M  V30 10076 H 984.978 -0.477834 -4.05192 0
M  V30 10077 H 983.653 -1.60957 -3.83491 0
M  V30 10078 H 982.23 0.218448 -3.7226 0
M  V30 10079 N 984.415 1.45619 -0.602734 0
M  V30 10080 C 985.664 2.01483 -0.0936395 0
M  V30 10081 C 985.977 1.47753 1.28173 0
M  V30 10082 O 987.183 1.95562 1.88329 0
M  V30 10083 C 985.639 3.59711 -0.116738 0
M  V30 10084 C 985.247 4.22437 -1.49166 0
M  V30 10085 C 986.991 4.23157 0.337368 0
M  V30 10086 C 984.898 5.72803 -1.47141 0
M  V30 10087 H 983.828 0.753353 -0.0312382 0
M  V30 10088 H 986.479 1.67142 -0.757347 0
M  V30 10089 H 984.861 3.91218 0.613529 0
M  V30 10090 H 986.035 4.02511 -2.24325 0
M  V30 10091 H 984.35 3.71166 -1.88746 0
M  V30 10092 H 986.947 5.33407 0.371628 0
M  V30 10093 H 987.29 3.93491 1.35906 0
M  V30 10094 H 987.823 3.96349 -0.339474 0
M  V30 10095 H 984.562 6.07161 -2.47055 0
M  V30 10096 H 984.082 5.94936 -0.762329 0
M  V30 10097 H 985.761 6.35907 -1.19294 0
M  V30 10098 N 985.893 0.34162 1.53853 0
M  V30 10099 C 987.141 -0.254979 2.00485 0
M  V30 10100 C 987.462 -1.51222 1.23114 0
M  V30 10101 O 986.732 -1.92966 0.337787 0
M  V30 10102 H 985.312 -0.0972084 0.740648 0
M  V30 10103 H 987.974 0.462332 1.89337 0
M  V30 10104 H 987.07 -0.498778 3.08089 0
M  V30 10105 N 987.371 -1.57444 0.0701946 0
M  V30 10106 C 988.321 -2.09154 -0.90767 0
M  V30 10107 C 989.305 -1.00087 -1.25982 0
M  V30 10108 O 990.497 -1.26397 -1.23906 0
M  V30 10109 C 987.626 -2.65544 -2.17581 0
M  V30 10110 C 986.712 -3.81613 -1.85021 0
M  V30 10111 N 987.103 -4.90641 -1.22904 0
M  V30 10112 C 985.401 -3.90878 -2.1478 0
M  V30 10113 C 986.102 -5.71511 -1.084 0
M  V30 10114 N 985.078 -5.1973 -1.59318 0
M  V30 10115 H 988.88 -2.90839 -0.423051 0
M  V30 10116 H 986.394 -1.61848 -0.13374 0
M  V30 10117 H 988.391 -3.00904 -2.88552 0
M  V30 10118 H 987.051 -1.85304 -2.66632 0
M  V30 10119 H 988.062 -5.1004 -0.898878 0
M  V30 10120 H 984.739 -3.21611 -2.66219 0
M  V30 10121 H 986.129 -6.69214 -0.600183 0
M  V30 10122 N 988.849 0.203349 -1.56283 0
M  V30 10123 C 989.797 1.27157 -1.94766 0
M  V30 10124 C 990.791 1.4756 -0.832005 0
M  V30 10125 O 991.997 1.48519 -1.01696 0
M  V30 10126 H 988.372 0.426712 -0.61921 0
M  V30 10127 H 990.343 0.919921 -2.83866 0
M  V30 10128 C 989.092 2.6108 -2.29636 0
M  V30 10129 H 988.415 2.46193 -3.15006 0
M  V30 10130 H 989.855 3.34591 -2.60433 0
M  V30 10131 C 988.314 3.17456 -1.12799 0
M  V30 10132 O 988.844 3.99717 -0.398661 0
M  V30 10133 N 987.05 2.76084 -0.906975 0
M  V30 10134 H 986.597 2.09294 -1.50179 0
M  V30 10135 H 986.555 3.14143 -0.127005 0
M  V30 10136 N 990.327 1.50405 0.470755 0
M  V30 10137 C 991.738 1.54266 1.05162 0
M  V30 10138 C 992.089 0.346359 1.93119 0
M  V30 10139 O 991.214 -0.540699 2.09536 0
M  V30 10140 C 991.809 2.7956 1.91394 0
M  V30 10141 C 990.368 2.86101 2.44588 0
M  V30 10142 C 989.515 2.48557 1.22941 0
M  V30 10143 H 992.466 1.56665 0.253359 0
M  V30 10144 H 992.487 2.61434 2.76464 0
M  V30 10145 H 991.999 3.66611 1.27351 0
M  V30 10146 H 990.1 2.03403 3.12183 0
M  V30 10147 H 990.213 3.88999 2.79672 0
M  V30 10148 H 988.577 2.01003 1.56429 0
M  V30 10149 H 989.36 3.37916 0.605598 0
M  V30 10150 N 991.805 -0.723954 1.39988 0
M  V30 10151 C 993.216 -1.30273 1.33738 0
M  V30 10152 C 993.567 -1.96199 0.00690581 0
M  V30 10153 O 992.692 -1.97016 -0.895179 0
M  V30 10154 C 993.287 -2.36889 2.42217 0
M  V30 10155 C 991.846 -2.90412 2.39453 0
M  V30 10156 C 990.993 -1.64103 2.2353 0
M  V30 10157 H 993.944 -0.520672 1.49916 0
M  V30 10158 H 993.965 -3.17538 2.09642 0
M  V30 10159 H 993.477 -1.88878 3.39038 0
M  V30 10160 H 991.578 -3.42674 1.46304 0
M  V30 10161 H 991.691 -3.42775 3.34727 0
M  V30 10162 H 990.055 -1.88855 1.70897 0
M  V30 10163 H 990.838 -1.18128 3.22336 0
M  V30 10164 N 993.283 -1.25346 -0.955304 0
M  V30 10165 C 994.233 -1.02358 -2.03732 0
M  V30 10166 C 995.217 0.0392941 -1.60852 0
M  V30 10167 O 996.409 -0.175959 -1.76123 0
M  V30 10168 C 993.538 -0.643552 -3.37214 0
M  V30 10169 C 992.624 -1.74315 -3.8662 0
M  V30 10170 N 993.015 -2.97816 -4.08827 0
M  V30 10171 C 991.313 -1.62351 -4.15401 0
M  V30 10172 C 992.014 -3.69185 -4.4953 0
M  V30 10173 N 990.99 -2.96803 -4.55422 0
M  V30 10174 H 994.792 -1.96119 -2.18894 0
M  V30 10175 H 992.306 -1.15655 -1.14007 0
M  V30 10176 H 994.303 -0.460053 -4.14354 0
M  V30 10177 H 992.963 0.286738 -3.23431 0
M  V30 10178 H 993.974 -3.33868 -3.95919 0
M  V30 10179 H 990.651 -0.762133 -4.10485 0
M  V30 10180 H 992.041 -4.7519 -4.7502 0
M  V30 10181 N 994.761 1.15782 -1.06922 0
M  V30 10182 C 996.007 1.86975 -0.800747 0
M  V30 10183 C 996.362 1.80512 0.665818 0
M  V30 10184 O 995.655 1.21432 1.48205 0
M  V30 10185 C 995.849 3.35284 -1.2377 0
M  V30 10186 C 995.678 3.56186 -2.74521 0
M  V30 10187 C 994.448 3.71908 -3.42071 0
M  V30 10188 C 996.646 3.54373 -3.72725 0
M  V30 10189 N 994.628 3.80821 -4.81507 0
M  V30 10190 C 995.999 3.69347 -4.97978 0
M  V30 10191 C 998.054 3.37622 -3.65945 0
M  V30 10192 C 996.757 3.69302 -6.17259 0
M  V30 10193 C 998.783 3.38873 -4.84684 0
M  V30 10194 C 998.145 3.54373 -6.08769 0
M  V30 10195 H 994.244 0.701533 -0.345507 0
M  V30 10196 H 996.828 1.38875 -1.36462 0
M  V30 10197 H 994.999 3.82011 -0.701588 0
M  V30 10198 H 996.731 3.94169 -0.917235 0
M  V30 10199 H 993.486 3.72499 -2.92475 0
M  V30 10200 H 993.91 3.89031 -5.54061 0
M  V30 10201 H 998.552 3.24562 -2.7096 0
M  V30 10202 H 996.27 3.81142 -7.1257 0
M  V30 10203 H 999.856 3.27146 -4.8111 0
M  V30 10204 H 998.736 3.55268 -6.9911 0
M  V30 10205 N 996.239 0.8527 1.3254 0
M  V30 10206 C 997.487 0.454224 1.96929 0
M  V30 10207 C 997.808 -0.993034 1.67821 0
M  V30 10208 O 997.078 -1.69371 0.984393 0
M  V30 10209 H 995.658 0.164977 0.728554 0
M  V30 10210 H 998.32 1.0887 1.61658 0
M  V30 10211 H 997.416 0.597667 3.06324 0
M  V30 10212 N 997.718 -1.45297 0.610449 0
M  V30 10213 C 998.681 -2.28995 -0.0968194 0
M  V30 10214 C 999.681 -1.39923 -0.792353 0
M  V30 10215 O 1000.87 -1.62014 -0.64008 0
M  V30 10216 C 998.003 -3.21013 -1.14731 0
M  V30 10217 H 999.196 -2.93012 0.639082 0
M  V30 10218 H 996.749 -1.51867 0.369624 0
M  V30 10219 H 997.484 -2.61803 -1.91388 0
M  V30 10220 H 997.269 -3.86628 -0.652753 0
M  V30 10221 H 998.759 -3.8394 -1.64256 0
M  V30 10222 N 999.196 -0.349774 -1.5367 0
M  V30 10223 C 1000.11 0.512421 -2.28935 0
M  V30 10224 C 1001.12 1.1065 -1.34286 0
M  V30 10225 O 1002.3 1.12084 -1.67329 0
M  V30 10226 C 999.363 1.64449 -3.05217 0
M  V30 10227 C 998.424 1.07956 -4.15505 0
M  V30 10228 C 997.657 2.15768 -4.88139 0
M  V30 10229 O 997.88 3.366 -4.60496 0
M  V30 10230 O 996.814 1.79712 -5.74445 0
M  V30 10231 H 1000.64 -0.0996001 -3.03537 0
M  V30 10232 H 998.225 -0.114629 -1.4896 0
M  V30 10233 H 1000.11 2.30302 -3.52901 0
M  V30 10234 H 998.782 2.24221 -2.33467 0
M  V30 10235 H 997.689 0.385381 -3.7211 0
M  V30 10236 H 999.022 0.526621 -4.89375 0
M  V30 10237 N 1000.67 1.57404 -0.0785433 0
M  V30 10238 C 1002.09 1.57158 0.2781 0
M  V30 10239 C 1002.29 1.08847 1.69572 0
M  V30 10240 O 1001.35 0.757407 2.40873 0
M  V30 10241 C 1002.66 3.00589 0.0816067 0
M  V30 10242 C 1004.21 3.12637 0.150627 0
M  V30 10243 C 1004.68 4.57997 -0.0176685 0
M  V30 10244 N 1006.17 4.63185 0.0377145 0
M  V30 10245 C 1006.91 5.7336 -0.0679907 0
M  V30 10246 N 1006.4 6.92426 -0.227598 0
M  V30 10247 N 1008.2 5.62099 -0.0104424 0
M  V30 10248 H 1000.35 1.87121 -1.00496 0
M  V30 10249 H 1002.61 0.862937 -0.392484 0
M  V30 10250 H 1002.32 3.40072 -0.896869 0
M  V30 10251 H 1002.19 3.67931 0.831046 0
M  V30 10252 H 1004.58 2.73037 1.11959 0
M  V30 10253 H 1004.66 2.4792 -0.630028 0
M  V30 10254 H 1004.3 4.98288 -0.983431 0
M  V30 10255 H 1004.23 5.20754 0.782475 0
M  V30 10256 H 1006.72 3.77564 0.159208 0
M  V30 10257 H 1007.04 7.72217 -0.300217 0
M  V30 10258 H 1005.38 6.94502 -0.263049 0
M  V30 10259 H 1008.57 4.67964 0.112999 0
M  V30 10260 H 1008.75 6.47928 -0.0962747 0
M  V30 10261 N 1002.15 -0.195058 1.56388 0
M  V30 10262 C 1003.56 -0.75973 1.70543 0
M  V30 10263 C 1003.91 -1.83849 0.685118 0
M  V30 10264 O 1003.04 -2.15819 -0.158457 0
M  V30 10265 C 1003.63 -1.38485 3.09204 0
M  V30 10266 C 1002.19 -1.89661 3.25124 0
M  V30 10267 C 1001.34 -0.766563 2.66494 0
M  V30 10268 H 1004.29 0.0300148 1.58672 0
M  V30 10269 H 1004.31 -2.25424 3.06536 0
M  V30 10270 H 1003.82 -0.599479 3.83442 0
M  V30 10271 H 1001.92 -2.70917 2.55802 0
M  V30 10272 H 1002.04 -2.05837 4.32629 0
M  V30 10273 H 1000.4 -1.18086 2.25672 0
M  V30 10274 H 1001.18 0.00657102 3.43299 0
M  V30 10275 N 1003.63 -1.50653 -0.462772 0
M  V30 10276 C 1004.88 -1.62057 -1.21424 0
M  V30 10277 C 1005.2 -0.324778 -1.91769 0
M  V30 10278 O 1004.46 0.689828 -1.83139 0
M  V30 10279 C 1004.76 -2.75637 -2.27507 0
M  V30 10280 C 1004.42 -4.15826 -1.74354 0
M  V30 10281 C 1003.09 -4.53969 -1.5958 0
M  V30 10282 C 1005.44 -5.03409 -1.35012 0
M  V30 10283 C 1002.77 -5.77427 -1.03899 0
M  V30 10284 C 1005.12 -6.27422 -0.807704 0
M  V30 10285 C 1003.78 -6.6436 -0.646657 0
M  V30 10286 H 1003.05 -0.59301 -0.44432 0
M  V30 10287 H 1005.7 -1.84612 -0.508999 0
M  V30 10288 H 1004 -2.47203 -3.0397 0
M  V30 10289 H 1005.7 -2.81663 -2.85424 0
M  V30 10290 H 1002.29 -3.85739 -1.86823 0
M  V30 10291 H 1006.48 -4.74567 -1.45258 0
M  V30 10292 H 1001.73 -6.04713 -0.901751 0
M  V30 10293 H 1005.91 -6.94644 -0.494234 0
M  V30 10294 H 1003.53 -7.59901 -0.213053 0
M  V30 10295 N 1005.11 0.71652 -1.4037 0
M  V30 10296 C 1006.34 1.50344 -1.41704 0
M  V30 10297 C 1006.75 1.89194 -0.0148011 0
M  V30 10298 O 1006.09 1.55916 0.971391 0
M  V30 10299 C 1006.15 2.80928 -2.2432 0
M  V30 10300 C 1005.82 2.64406 -3.72744 0
M  V30 10301 C 1006.81 2.31727 -4.65401 0
M  V30 10302 C 1004.5 2.807 -4.16549 0
M  V30 10303 C 1006.49 2.15551 -5.99847 0
M  V30 10304 C 1004.18 2.64141 -5.51065 0
M  V30 10305 C 1005.18 2.31614 -6.42529 0
M  V30 10306 O 1004.86 2.15179 -7.74566 0
M  V30 10307 H 1004.6 0.470574 -0.48532 0
M  V30 10308 H 1007.15 0.89152 -1.85043 0
M  V30 10309 H 1005.38 3.4445 -1.75759 0
M  V30 10310 H 1007.07 3.4264 -2.17607 0
M  V30 10311 H 1007.84 2.18773 -4.32855 0
M  V30 10312 H 1003.71 3.05005 -3.45677 0
M  V30 10313 H 1007.26 1.90084 -6.71203 0
M  V30 10314 H 1003.16 2.76679 -5.83197 0
M  V30 10315 H 1003.92 2.30106 -7.85489 0
M  V30 10316 N 1006.59 1.25851 0.948643 0
M  V30 10317 C 1007.53 1.06559 2.06756 0
M  V30 10318 C 1008.53 -0.00528632 1.69399 0
M  V30 10319 O 1009.73 0.150806 1.79367 0
M  V30 10320 H 1006.11 0.327689 0.676848 0
M  V30 10321 H 1008.08 2.01401 2.20182 0
M  V30 10322 C 1006.83 0.707392 3.40428 0
M  V30 10323 H 1006.15 1.52324 3.69645 0
M  V30 10324 H 1007.59 0.612142 4.19558 0
M  V30 10325 C 1006.05 -0.58697 3.31747 0
M  V30 10326 O 1006.58 -1.62741 3.67258 0
M  V30 10327 N 1004.79 -0.574828 2.84858 0
M  V30 10328 H 1004.33 0.272236 2.56157 0
M  V30 10329 H 1004.29 -1.441 2.79432 0
M  V30 10330 N 1008.06 -1.15214 1.07534 0
M  V30 10331 C 1009.01 -2.18022 0.667108 0
M  V30 10332 C 1010 -1.57911 -0.308714 0
M  V30 10333 O 1011.19 -1.76578 -0.122147 0
M  V30 10334 C 1008.32 -3.43232 0.0684348 0
M  V30 10335 C 1007.41 -4.10393 1.06951 0
M  V30 10336 N 1007.8 -4.53013 2.24973 0
M  V30 10337 C 1006.09 -4.36758 0.903262 0
M  V30 10338 C 1006.8 -5.05118 2.88498 0
M  V30 10339 N 1005.77 -4.98777 2.16153 0
M  V30 10340 H 1009.57 -2.48706 1.56597 0
M  V30 10341 H 1007.09 -1.31801 0.948796 0
M  V30 10342 H 1009.08 -4.16197 -0.241934 0
M  V30 10343 H 1007.74 -3.14031 -0.825525 0
M  V30 10344 H 1008.76 -4.4634 2.6268 0
M  V30 10345 H 1005.43 -4.17453 0.0623543 0
M  V30 10346 H 1006.82 -5.48039 3.8872 0
M  V30 10347 N 1009.54 -0.859717 -1.32086 0
M  V30 10348 C 1010.47 -0.323502 -2.31248 0
M  V30 10349 C 1011.45 0.580085 -1.59903 0
M  V30 10350 O 1012.64 0.499265 -1.87673 0
M  V30 10351 C 1009.77 0.484661 -3.43902 0
M  V30 10352 C 1008.72 -0.324933 -4.26765 0
M  V30 10353 C 1008.05 0.608281 -5.31229 0
M  V30 10354 C 1009.35 -1.55344 -4.98664 0
M  V30 10355 H 1011.04 -1.15209 -2.76346 0
M  V30 10356 H 1008.59 -0.555442 -1.32856 0
M  V30 10357 H 1010.54 0.870238 -4.12316 0
M  V30 10358 H 1009.27 1.34666 -2.97544 0
M  V30 10359 H 1007.92 -0.692328 -3.60003 0
M  V30 10360 H 1007.57 1.46727 -4.81124 0
M  V30 10361 H 1007.27 0.0705571 -5.87558 0
M  V30 10362 H 1008.8 0.990925 -6.02506 0
M  V30 10363 H 1010.21 -1.23987 -5.59732 0
M  V30 10364 H 1008.61 -2.02947 -5.64741 0
M  V30 10365 H 1009.68 -2.31192 -4.26237 0
M  V30 10366 N 1011.02 1.44971 -0.618145 0
M  V30 10367 C 1012.27 2.0176 -0.11725 0
M  V30 10368 C 1012.59 1.48773 1.26062 0
M  V30 10369 O 1011.86 0.686152 1.83491 0
M  V30 10370 H 1010.44 0.745909 -0.0403545 0
M  V30 10371 H 1013.1 1.77638 -0.801923 0
M  V30 10372 H 1012.2 3.1201 -0.0750477 0
M  V30 10373 N 1012.5 0.357919 1.53482 0
M  V30 10374 C 1013.75 -0.2337 2.00744 0
M  V30 10375 C 1014.07 -1.49908 1.2471 0
M  V30 10376 O 1013.34 -1.92597 0.358235 0
M  V30 10377 H 1011.92 -0.0893474 0.741637 0
M  V30 10378 H 1014.58 0.482388 1.88836 0
M  V30 10379 H 1013.68 -0.466073 3.086 0
M  V30 10380 N 1013.98 -1.5736 0.0868897 0
M  V30 10381 C 1014.92 -2.14793 -0.892571 0
M  V30 10382 C 1015.92 -1.08866 -1.29787 0
M  V30 10383 O 1017.12 -1.27223 -1.27335 0
M  V30 10384 H 1013.5 -0.686998 -0.305838 0
M  V30 10385 H 1015.47 -2.95927 -0.383393 0
M  V30 10386 C 1014.22 -2.73646 -2.14507 0
M  V30 10387 H 1013.54 -3.54835 -1.84207 0
M  V30 10388 H 1014.98 -3.17409 -2.81118 0
M  V30 10389 C 1013.44 -1.69138 -2.91366 0
M  V30 10390 O 1013.97 -1.12539 -3.85614 0
M  V30 10391 N 1012.18 -1.3982 -2.54752 0
M  V30 10392 H 1011.72 -1.86035 -1.78182 0
M  V30 10393 H 1011.68 -0.701316 -3.06478 0
M  V30 10394 N 1015.45 0.186762 -1.56489 0
M  V30 10395 C 1016.39 1.25565 -1.91745 0
M  V30 10396 C 1017.4 1.4128 -0.80894 0
M  V30 10397 O 1018.59 1.41558 -1.08737 0
M  V30 10398 C 1015.69 2.62662 -2.14154 0
M  V30 10399 C 1014.86 2.68448 -3.45333 0
M  V30 10400 C 1013.92 3.86798 -3.56754 0
M  V30 10401 O 1012.95 3.73514 -4.29507 0
M  V30 10402 N 1014.15 5.02607 -2.90459 0
M  V30 10403 H 1016.91 0.956351 -2.84032 0
M  V30 10404 H 1014.47 0.376631 -1.57458 0
M  V30 10405 H 1016.47 3.40277 -2.19075 0
M  V30 10406 H 1015.04 2.85046 -1.28326 0
M  V30 10407 H 1014.26 1.77044 -3.52206 0
M  V30 10408 H 1015.54 2.69311 -4.31682 0
M  V30 10409 H 1014.94 5.163 -2.31194 0
M  V30 10410 H 1013.5 5.78139 -3.00996 0
M  V30 10411 N 1016.93 1.50896 0.454776 0
M  V30 10412 C 1018.18 1.6294 1.20741 0
M  V30 10413 C 1018.51 0.336339 1.91265 0
M  V30 10414 O 1017.79 -0.663153 1.82846 0
M  V30 10415 C 1018.07 2.82092 2.23822 0
M  V30 10416 C 1017.92 4.21326 1.57495 0
M  V30 10417 C 1019.24 2.96777 3.24979 0
M  V30 10418 H 1016.36 0.59302 0.437603 0
M  V30 10419 H 1019 1.83331 0.498959 0
M  V30 10420 H 1017.15 2.64837 2.84243 0
M  V30 10421 H 1018.82 4.50209 1.00546 0
M  V30 10422 H 1017.07 4.24829 0.877664 0
M  V30 10423 H 1017.74 5.00656 2.32482 0
M  V30 10424 H 1020.21 3.12627 2.74597 0
M  V30 10425 H 1019.09 3.81742 3.94416 0
M  V30 10426 H 1019.35 2.08091 3.90065 0
M  V30 10427 N 1018.41 -0.709066 1.40748 0
M  V30 10428 C 1019.64 -1.50313 1.42901 0
M  V30 10429 C 1020.06 -1.88072 0.032213 0
M  V30 10430 O 1019.42 -1.53716 -0.96131 0
M  V30 10431 C 1019.47 -2.75074 2.33166 0
M  V30 10432 O 1018.57 -3.72036 1.7794 0
M  V30 10433 H 1017.91 -0.452934 0.485538 0
M  V30 10434 H 1020.44 -0.872712 1.85054 0
M  V30 10435 H 1020.45 -3.23532 2.48578 0
M  V30 10436 H 1019.13 -2.46927 3.34664 0
M  V30 10437 H 1017.7 -3.30911 1.71908 0
M  V30 10438 N 1019.89 -1.26353 -0.941956 0
M  V30 10439 C 1020.84 -1.07842 -2.04056 0
M  V30 10440 C 1021.81 0.0163064 -1.66092 0
M  V30 10441 O 1022.99 -0.143313 -1.90261 0
M  V30 10442 C 1020.13 -0.716636 -3.37577 0
M  V30 10443 C 1019.24 -1.88754 -3.88582 0
M  V30 10444 C 1018.38 -1.46893 -5.10486 0
M  V30 10445 C 1017.42 -2.60819 -5.53751 0
M  V30 10446 N 1016.56 -2.19646 -6.66858 0
M  V30 10447 H 1021.4 -2.01856 -2.19221 0
M  V30 10448 H 1018.93 -1.00504 -1.07412 0
M  V30 10449 H 1020.89 -0.487768 -4.14339 0
M  V30 10450 H 1019.52 0.18653 -3.22261 0
M  V30 10451 H 1018.57 -2.22936 -3.08227 0
M  V30 10452 H 1019.88 -2.74264 -4.1663 0
M  V30 10453 H 1019.04 -1.20047 -5.94705 0
M  V30 10454 H 1017.78 -0.584721 -4.84182 0
M  V30 10455 H 1016.78 -2.88396 -4.6809 0
M  V30 10456 H 1018.01 -3.49838 -5.82057 0
M  V30 10457 H 1015.95 -1.33657 -6.4224 0
M  V30 10458 H 1015.87 -2.987 -6.94489 0
M  V30 10459 H 1017.14 -1.96009 -7.54454 0
M  V30 10460 N 1021.37 1.14642 -1.08144 0
M  V30 10461 C 1022.28 2.23257 -0.720668 0
M  V30 10462 C 1023.29 1.71866 0.271648 0
M  V30 10463 O 1024.47 2.01064 0.116266 0
M  V30 10464 C 1021.53 3.46447 -0.132542 0
M  V30 10465 C 1020.6 4.12789 -1.17913 0
M  V30 10466 C 1019.83 5.30099 -0.618971 0
M  V30 10467 O 1020.05 5.6762 0.562418 0
M  V30 10468 O 1018.99 5.86154 -1.36774 0
M  V30 10469 H 1022.81 2.56463 -1.62667 0
M  V30 10470 H 1020.4 1.22521 -0.854932 0
M  V30 10471 H 1022.28 4.20959 0.19277 0
M  V30 10472 H 1020.95 3.14971 0.746662 0
M  V30 10473 H 1019.86 3.40163 -1.55693 0
M  V30 10474 H 1021.19 4.48365 -2.03051 0
M  V30 10475 N 1022.85 0.866709 1.31628 0
M  V30 10476 C 1023.78 0.264788 2.26659 0
M  V30 10477 C 1024.76 -0.604181 1.50958 0
M  V30 10478 O 1025.94 -0.558324 1.80042 0
M  V30 10479 C 1023.07 -0.625373 3.32877 0
M  V30 10480 C 1022.11 0.171813 4.26154 0
M  V30 10481 S 1022.95 1.54818 5.12632 0
M  V30 10482 C 1024.1 0.66405 6.22367 0
M  V30 10483 H 1024.34 1.07036 2.77364 0
M  V30 10484 H 1021.87 0.665038 1.39343 0
M  V30 10485 H 1023.83 -1.13327 3.94547 0
M  V30 10486 H 1022.49 -1.40486 2.80932 0
M  V30 10487 H 1021.68 -0.506694 5.01447 0
M  V30 10488 H 1021.28 0.611704 3.68964 0
M  V30 10489 H 1023.57 -0.126717 6.77381 0
M  V30 10490 H 1024.52 1.388 6.94363 0
M  V30 10491 H 1024.93 0.233046 5.64019 0
M  V30 10492 N 1024.32 -1.44642 0.625825 0
M  V30 10493 C 1025.27 -2.30653 -0.082259 0
M  V30 10494 C 1026.24 -1.43174 -0.842052 0
M  V30 10495 O 1027.43 -1.72082 -0.824151 0
M  V30 10496 C 1024.57 -3.2837 -1.06146 0
M  V30 10497 C 1023.68 -4.30953 -0.300638 0
M  V30 10498 C 1022.81 -5.15766 -1.27118 0
M  V30 10499 C 1021.85 -6.10061 -0.499215 0
M  V30 10500 N 1020.99 -6.87591 -1.41995 0
M  V30 10501 H 1025.83 -2.90664 0.657161 0
M  V30 10502 H 1023.37 -1.43215 0.335859 0
M  V30 10503 H 1025.32 -3.83507 -1.6425 0
M  V30 10504 H 1023.95 -2.70072 -1.76807 0
M  V30 10505 H 1023.01 -3.78331 0.396234 0
M  V30 10506 H 1024.32 -4.97892 0.300851 0
M  V30 10507 H 1023.47 -5.75394 -1.92372 0
M  V30 10508 H 1022.21 -4.48888 -1.9066 0
M  V30 10509 H 1021.22 -5.49547 0.166848 0
M  V30 10510 H 1022.44 -6.78973 0.131409 0
M  V30 10511 H 1020.39 -6.23387 -2.04267 0
M  V30 10512 H 1020.3 -7.5095 -0.872354 0
M  V30 10513 H 1021.57 -7.51746 -2.0615 0
M  V30 10514 N 1025.8 -0.366053 -1.5329 0
M  V30 10515 C 1027.22 -0.0150149 -1.59593 0
M  V30 10516 C 1027.42 1.46719 -1.38116 0
M  V30 10517 O 1026.47 2.22884 -1.18656 0
M  V30 10518 C 1027.79 -0.471374 -2.96982 0
M  V30 10519 C 1029.33 -0.425634 -3.10092 0
M  V30 10520 C 1029.81 -0.857812 -4.49895 0
M  V30 10521 N 1031.3 -0.81289 -4.56011 0
M  V30 10522 C 1032.04 -1.11898 -5.62376 0
M  V30 10523 N 1031.53 -1.49436 -6.76491 0
M  V30 10524 N 1033.32 -1.04174 -5.52362 0
M  V30 10525 H 1025.48 -1.33127 -1.65502 0
M  V30 10526 H 1027.74 -0.544172 -0.776261 0
M  V30 10527 H 1027.44 -1.50569 -3.1784 0
M  V30 10528 H 1027.32 0.141764 -3.76934 0
M  V30 10529 H 1029.71 0.599548 -2.88945 0
M  V30 10530 H 1029.79 -1.07427 -2.32149 0
M  V30 10531 H 1029.43 -1.88111 -4.7178 0
M  V30 10532 H 1029.36 -0.186419 -5.2627 0
M  V30 10533 H 1031.85 -0.536343 -3.74075 0
M  V30 10534 H 1032.16 -1.71217 -7.53594 0
M  V30 10535 H 1030.51 -1.53302 -6.77882 0
M  V30 10536 H 1033.7 -0.747654 -4.62091 0
M  V30 10537 H 1033.87 -1.28362 -6.35159 0
M  V30 10538 N 1027.28 1.57312 -0.0952337 0
M  V30 10539 C 1028.21 2.09691 0.900274 0
M  V30 10540 C 1029.19 1.0075 1.27625 0
M  V30 10541 O 1030.37 1.28249 1.38147 0
M  V30 10542 C 1027.5 2.574 2.20142 0
M  V30 10543 C 1026.55 3.78 1.9753 0
M  V30 10544 S 1027.38 5.21577 1.21318 0
M  V30 10545 C 1028.54 5.72636 2.52663 0
M  V30 10546 H 1028.77 2.93803 0.45467 0
M  V30 10547 H 1026.3 1.53948 0.118056 0
M  V30 10548 H 1028.26 2.85546 2.94914 0
M  V30 10549 H 1026.92 1.73514 2.61824 0
M  V30 10550 H 1026.11 4.09451 2.93881 0
M  V30 10551 H 1025.72 3.50349 1.30888 0
M  V30 10552 H 1028.01 5.80911 3.48638 0
M  V30 10553 H 1028.95 6.71136 2.25791 0
M  V30 10554 H 1029.36 5.00569 2.60943 0
M  V30 10555 N 1028.76 -0.17846 1.56586 0
M  V30 10556 C 1030.01 -0.894464 1.81228 0
M  V30 10557 C 1030.33 -1.83089 0.671062 0
M  V30 10558 O 1029.6 -1.93439 -0.309557 0
M  V30 10559 H 1028.18 -0.333288 0.668527 0
M  V30 10560 H 1030.84 -0.179986 1.94067 0
M  V30 10561 H 1029.93 -1.47565 2.75011 0
M  V30 10562 N 1030.24 -1.51135 -0.446768 0
M  V30 10563 C 1031.48 -1.63336 -1.19698 0
M  V30 10564 C 1031.81 -0.345099 -1.91414 0
M  V30 10565 O 1031.07 0.670365 -1.8386 0
M  V30 10566 C 1031.36 -2.78034 -2.2457 0
M  V30 10567 C 1031.03 -4.17652 -1.69934 0
M  V30 10568 C 1029.69 -4.55636 -1.54756 0
M  V30 10569 C 1032.04 -5.04813 -1.29665 0
M  V30 10570 C 1029.37 -5.78496 -0.977689 0
M  V30 10571 C 1031.72 -6.28244 -0.741112 0
M  V30 10572 C 1030.39 -6.65009 -0.576156 0
M  V30 10573 H 1029.66 -0.597689 -0.438006 0
M  V30 10574 H 1032.31 -1.85141 -0.48939 0
M  V30 10575 H 1030.61 -2.50413 -3.01331 0
M  V30 10576 H 1032.31 -2.84675 -2.8242 0
M  V30 10577 H 1028.9 -3.87699 -1.82722 0
M  V30 10578 H 1033.08 -4.76081 -1.40216 0
M  V30 10579 H 1028.34 -6.05636 -0.837563 0
M  V30 10580 H 1032.51 -6.95129 -0.42053 0
M  V30 10581 H 1030.14 -7.60085 -0.132443 0
M  V30 10582 N 1031.71 0.701592 -1.41122 0
M  V30 10583 C 1032.62 1.84548 -1.44841 0
M  V30 10584 C 1033.64 1.70654 -0.339594 0
M  V30 10585 O 1034.82 1.92675 -0.586378 0
M  V30 10586 C 1031.88 3.20477 -1.3227 0
M  V30 10587 C 1030.94 3.46524 -2.53415 0
M  V30 10588 C 1030.17 4.75968 -2.41434 0
M  V30 10589 O 1030.4 5.52037 -1.43566 0
M  V30 10590 O 1029.33 5.02664 -3.31078 0
M  V30 10591 H 1033.16 1.84367 -2.41335 0
M  V30 10592 H 1030.74 0.853863 -1.22595 0
M  V30 10593 H 1032.62 4.01642 -1.2752 0
M  V30 10594 H 1031.3 3.21355 -0.388889 0
M  V30 10595 H 1030.21 2.65313 -2.63742 0
M  V30 10596 H 1031.54 3.50455 -3.45604 0
M  V30 10597 N 1033.19 1.2685 0.935242 0
M  V30 10598 C 1034.47 1.03483 1.65984 0
M  V30 10599 C 1034.85 -0.432859 2.06614 0
M  V30 10600 O 1034.2 -1.4145 1.79455 0
M  V30 10601 C 1034.41 1.98924 2.86758 0
M  V30 10602 C 1035.75 2.2787 3.58274 0
M  V30 10603 O 1036.78 1.96838 2.96873 0
M  V30 10604 O 1035.64 2.80734 4.68882 0
M  V30 10605 H 1032.73 0.393932 0.72715 0
M  V30 10606 H 1035.28 1.38085 0.986445 0
M  V30 10607 H 1034.05 2.9794 2.53668 0
M  V30 10608 H 1033.67 1.64839 3.6182 0
M  V30 10609 N 1034.67 -1.14067 1.0875 0
M  V30 10610 C 1036.08 -1.66747 0.839778 0
M  V30 10611 C 1036.43 -1.85711 -0.632909 0
M  V30 10612 O 1035.56 -1.57084 -1.48841 0
M  V30 10613 C 1036.15 -3.02896 1.51787 0
M  V30 10614 C 1034.71 -3.52596 1.3173 0
M  V30 10615 C 1033.86 -2.27994 1.57841 0
M  V30 10616 H 1036.81 -0.980838 1.24761 0
M  V30 10617 H 1036.83 -3.68526 0.947057 0
M  V30 10618 H 1036.34 -2.89062 2.58969 0
M  V30 10619 H 1034.44 -3.71647 0.266339 0
M  V30 10620 H 1034.56 -4.33151 2.04736 0
M  V30 10621 H 1032.92 -2.34241 1.00015 0
M  V30 10622 H 1033.7 -2.16732 2.66237 0
M  V30 10623 N 1036.15 -0.873678 -1.31166 0
M  V30 10624 C 1037.1 -0.330288 -2.28424 0
M  V30 10625 C 1038.07 0.573299 -1.55893 0
M  V30 10626 O 1039.25 0.504143 -1.84019 0
M  V30 10627 C 1036.39 0.459004 -3.42034 0
M  V30 10628 C 1035.5 -0.472519 -4.29408 0
M  V30 10629 C 1034.64 0.331261 -5.30166 0
M  V30 10630 C 1033.68 -0.596453 -6.09187 0
M  V30 10631 N 1032.81 0.171305 -7.01891 0
M  V30 10632 H 1037.65 -1.16485 -2.7429 0
M  V30 10633 H 1035.19 -0.585813 -1.34932 0
M  V30 10634 H 1037.15 0.932432 -4.06647 0
M  V30 10635 H 1035.78 1.25824 -2.97268 0
M  V30 10636 H 1034.83 -1.06441 -3.65205 0
M  V30 10637 H 1036.14 -1.18372 -4.84551 0
M  V30 10638 H 1035.3 0.867038 -6.00473 0
M  V30 10639 H 1034.04 1.07573 -4.75688 0
M  V30 10640 H 1033.04 -1.14395 -5.37767 0
M  V30 10641 H 1034.27 -1.33983 -6.65752 0
M  V30 10642 H 1032.21 0.89852 -6.49817 0
M  V30 10643 H 1032.13 -0.480481 -7.54472 0
M  V30 10644 H 1033.4 0.688192 -7.76456 0
M  V30 10645 N 1037.63 1.44308 -0.633487 0
M  V30 10646 C 1038.9 1.95476 -0.0697262 0
M  V30 10647 C 1039.28 1.57539 1.40516 0
M  V30 10648 O 1038.63 0.850632 2.12077 0
M  V30 10649 C 1038.84 3.4775 -0.295093 0
M  V30 10650 C 1040.19 4.24177 -0.189542 0
M  V30 10651 O 1041.21 3.55479 -0.226586 0
M  V30 10652 O 1040.07 5.46415 -0.096479 0
M  V30 10653 H 1037.17 0.826734 0.0209582 0
M  V30 10654 H 1039.71 1.54347 -0.705354 0
M  V30 10655 H 1038.48 3.6842 -1.31841 0
M  V30 10656 H 1038.11 3.95832 0.37456 0
M  V30 10657 N 1039.1 0.374177 1.53094 0
M  V30 10658 C 1040.05 -0.468226 2.26001 0
M  V30 10659 C 1041.02 -1.07041 1.27009 0
M  V30 10660 O 1042.21 -1.10129 1.55809 0
M  V30 10661 C 1039.35 -1.59754 3.05896 0
M  V30 10662 C 1038.46 -1.01969 4.19793 0
M  V30 10663 C 1037.59 -2.11882 4.87113 0
M  V30 10664 C 1036.63 -1.51607 5.93028 0
M  V30 10665 N 1035.77 -2.55388 6.54004 0
M  V30 10666 H 1040.61 0.159983 2.9757 0
M  V30 10667 H 1038.15 0.0907196 1.4682 0
M  V30 10668 H 1040.11 -2.26288 3.50499 0
M  V30 10669 H 1038.74 -2.19628 2.36565 0
M  V30 10670 H 1037.79 -0.244386 3.79614 0
M  V30 10671 H 1039.1 -0.539089 4.95878 0
M  V30 10672 H 1038.25 -2.86218 5.34943 0
M  V30 10673 H 1036.99 -2.63297 4.10519 0
M  V30 10674 H 1036 -0.757891 5.44551 0
M  V30 10675 H 1037.22 -1.01006 6.71546 0
M  V30 10676 H 1035.17 -3.06 5.80258 0
M  V30 10677 H 1035.09 -2.12039 7.25655 0
M  V30 10678 H 1036.35 -3.294 7.06481 0
M  V30 10679 N 1040.58 -1.57259 0.103575 0
M  V30 10680 C 1041.53 -2.15727 -0.869739 0
M  V30 10681 C 1042.52 -1.10236 -1.28625 0
M  V30 10682 O 1043.73 -1.28567 -1.25979 0
M  V30 10683 H 1040.11 -0.690204 -0.298535 0
M  V30 10684 H 1042.08 -2.96317 -0.351984 0
M  V30 10685 C 1040.83 -2.75905 -2.11593 0
M  V30 10686 H 1040.15 -3.56768 -1.80434 0
M  V30 10687 H 1041.59 -3.20373 -2.77736 0
M  V30 10688 C 1040.05 -1.72218 -2.89556 0
M  V30 10689 O 1040.58 -1.16623 -3.84398 0
M  V30 10690 N 1038.78 -1.42514 -2.53255 0
M  V30 10691 H 1038.33 -1.87914 -1.76198 0
M  V30 10692 H 1038.29 -0.733782 -3.05717 0
M  V30 10693 N 1042.06 0.170153 -1.56679 0
M  V30 10694 C 1043.02 1.19443 -1.95617 0
M  V30 10695 C 1044.02 1.37118 -0.83996 0
M  V30 10696 O 1045.21 1.34504 -1.10699 0
M  V30 10697 C 1042.35 2.55926 -2.25199 0
M  V30 10698 H 1043.54 0.86095 -2.87276 0
M  V30 10699 H 1041.09 0.412646 -1.50755 0
M  V30 10700 H 1041.83 2.94286 -1.36257 0
M  V30 10701 H 1041.61 2.44464 -3.06562 0
M  V30 10702 H 1043.1 3.29742 -2.56242 0
M  V30 10703 N 1043.54 1.5137 0.438746 0
M  V30 10704 C 1044.47 1.68774 1.55074 0
M  V30 10705 C 1045.48 0.568436 1.52554 0
M  V30 10706 O 1046.67 0.842707 1.57355 0
M  V30 10707 C 1043.77 1.68592 2.9399 0
M  V30 10708 C 1042.95 2.97084 3.2103 0
M  V30 10709 C 1042 2.89108 4.39663 0
M  V30 10710 O 1041.03 3.63052 4.38385 0
M  V30 10711 N 1042.23 2.04863 5.4315 0
M  V30 10712 H 1045 2.647 1.40549 0
M  V30 10713 H 1042.56 1.49238 0.627663 0
M  V30 10714 H 1044.55 1.60826 3.71372 0
M  V30 10715 H 1043.12 0.802657 3.02119 0
M  V30 10716 H 1042.34 3.18729 2.3196 0
M  V30 10717 H 1043.63 3.82143 3.35923 0
M  V30 10718 H 1043.03 1.4416 5.47023 0
M  V30 10719 H 1041.58 2.02977 6.1939 0
M  V30 10720 N 1045.02 -0.694098 1.41492 0
M  V30 10721 C 1045.93 -1.83778 1.45818 0
M  V30 10722 C 1046.94 -1.70471 0.348639 0
M  V30 10723 O 1048.12 -1.92361 0.596588 0
M  V30 10724 C 1045.18 -3.19771 1.33967 0
M  V30 10725 C 1044.24 -3.45175 2.5525 0
M  V30 10726 C 1043.48 -4.74681 2.43955 0
M  V30 10727 O 1043.7 -5.51268 1.46491 0
M  V30 10728 O 1042.63 -5.00901 3.33739 0
M  V30 10729 H 1046.46 -1.83084 2.42309 0
M  V30 10730 H 1044.05 -0.847349 1.23046 0
M  V30 10731 H 1045.93 -4.00961 1.29648 0
M  V30 10732 H 1044.6 -3.21145 0.405926 0
M  V30 10733 H 1043.51 -2.6391 2.65146 0
M  V30 10734 H 1044.84 -3.48617 3.47458 0
M  V30 10735 N 1046.49 -1.27344 -0.928501 0
M  V30 10736 C 1047.72 -1.16557 -1.7155 0
M  V30 10737 C 1048.14 0.274044 -1.86093 0
M  V30 10738 O 1047.5 1.19847 -1.36038 0
M  V30 10739 C 1047.55 -1.85332 -3.09329 0
M  V30 10740 O 1046.65 -1.15074 -3.9602 0
M  V30 10741 H 1046 -0.405423 -0.525859 0
M  V30 10742 H 1048.53 -1.68399 -1.16202 0
M  V30 10743 H 1048.54 -1.92659 -3.59648 0
M  V30 10744 H 1047.21 -2.90056 -2.98061 0
M  V30 10745 H 1045.79 -1.1581 -3.54461 0
M  V30 10746 N 1047.97 1.13488 -1.09353 0
M  V30 10747 C 1048.94 2.17066 -0.735863 0
M  V30 10748 C 1049.94 1.59086 0.234181 0
M  V30 10749 O 1051.13 1.74196 0.012463 0
M  V30 10750 C 1048.26 3.40786 -0.0880975 0
M  V30 10751 H 1049.45 2.50221 -1.65316 0
M  V30 10752 H 1047 1.28304 -0.89263 0
M  V30 10753 H 1047.74 3.1322 0.840462 0
M  V30 10754 H 1047.52 3.8414 -0.786073 0
M  V30 10755 H 1049.01 4.17342 0.146775 0
M  V30 10756 N 1049.45 0.880621 1.30701 0
M  V30 10757 C 1050.4 0.333562 2.30196 0
M  V30 10758 C 1051.39 -0.557092 1.59978 0
M  V30 10759 O 1052.6 -0.442009 1.74489 0
M  V30 10760 H 1048.97 0.0892036 0.746691 0
M  V30 10761 H 1050.95 1.18644 2.73799 0
M  V30 10762 C 1049.69 -0.440731 3.44895 0
M  V30 10763 H 1049.02 0.235353 3.99107 0
M  V30 10764 H 1050.46 -0.788676 4.166 0
M  V30 10765 C 1048.92 -1.63613 2.94504 0
M  V30 10766 O 1049.45 -2.73549 2.94166 0
M  V30 10767 N 1047.65 -1.47183 2.5057 0
M  V30 10768 H 1047.2 -0.577479 2.51044 0
M  V30 10769 H 1047.16 -2.27303 2.17211 0
M  V30 10770 N 1050.93 -1.4397 0.641131 0
M  V30 10771 C 1052.34 -1.85267 0.230838 0
M  V30 10772 C 1052.69 -1.53659 -1.21998 0
M  V30 10773 O 1051.82 -0.979572 -1.92959 0
M  V30 10774 C 1052.41 -3.36284 0.412171 0
M  V30 10775 C 1050.97 -3.76358 0.0563004 0
M  V30 10776 C 1050.12 -2.67768 0.720809 0
M  V30 10777 H 1053.07 -1.34294 0.845624 0
M  V30 10778 H 1053.09 -3.78924 -0.345936 0
M  V30 10779 H 1052.6 -3.59258 1.46818 0
M  V30 10780 H 1050.7 -3.58997 -0.997582 0
M  V30 10781 H 1050.82 -4.76756 0.473335 0
M  V30 10782 H 1049.18 -2.54227 0.155164 0
M  V30 10783 H 1049.96 -2.93573 1.77961 0
M  V30 10784 N 1052.41 -0.382291 -1.52893 0
M  V30 10785 C 1053.32 0.463745 -2.29971 0
M  V30 10786 C 1054.33 1.07777 -1.36602 0
M  V30 10787 O 1055.51 1.0851 -1.69669 0
M  V30 10788 C 1052.57 1.57938 -3.08637 0
M  V30 10789 C 1051.64 0.991182 -4.17701 0
M  V30 10790 C 1050.87 2.05365 -4.92606 0
M  V30 10791 O 1051.09 3.26757 -4.67532 0
M  V30 10792 O 1050.03 1.67487 -5.78128 0
M  V30 10793 H 1053.85 -0.163962 -3.03257 0
M  V30 10794 H 1051.44 -0.146199 -1.48683 0
M  V30 10795 H 1053.32 2.22765 -3.57706 0
M  V30 10796 H 1051.99 2.19218 -2.3817 0
M  V30 10797 H 1050.9 0.306364 -3.72843 0
M  V30 10798 H 1052.23 0.422699 -4.90382 0
M  V30 10799 N 1053.89 1.57202 -0.111913 0
M  V30 10800 C 1055.16 1.86459 0.590972 0
M  V30 10801 C 1055.54 1.01182 1.85271 0
M  V30 10802 O 1054.89 0.0887891 2.28327 0
M  V30 10803 C 1055.1 3.37455 0.890225 0
M  V30 10804 C 1056.45 4.05895 1.24638 0
M  V30 10805 O 1057.47 3.42433 0.980713 0
M  V30 10806 O 1056.33 5.17903 1.74466 0
M  V30 10807 H 1053.43 0.771652 0.297459 0
M  V30 10808 H 1055.97 1.69072 -0.145882 0
M  V30 10809 H 1054.74 3.913 -0.00419012 0
M  V30 10810 H 1054.37 3.60248 1.68248 0
M  V30 10811 N 1055.36 -0.161842 1.56767 0
M  V30 10812 C 1056.27 -1.21996 2.00385 0
M  V30 10813 C 1057.29 -1.4789 0.916768 0
M  V30 10814 O 1058.47 -1.59852 1.22513 0
M  V30 10815 C 1055.53 -2.53695 2.36305 0
M  V30 10816 C 1054.59 -2.3558 3.58888 0
M  V30 10817 C 1053.82 -3.60998 3.93085 0
M  V30 10818 O 1054.05 -4.6657 3.28129 0
M  V30 10819 O 1052.98 -3.54544 4.86397 0
M  V30 10820 H 1056.81 -0.879701 2.9068 0
M  V30 10821 H 1054.39 -0.369437 1.4476 0
M  V30 10822 H 1056.27 -3.31366 2.60335 0
M  V30 10823 H 1054.95 -2.87281 1.49169 0
M  V30 10824 H 1053.86 -1.55908 3.40064 0
M  V30 10825 H 1055.19 -2.06915 4.46595 0
M  V30 10826 N 1056.84 -1.516 -0.430713 0
M  V30 10827 C 1058.09 -1.6484 -1.18134 0
M  V30 10828 C 1058.42 -0.366725 -1.90706 0
M  V30 10829 O 1057.7 0.63398 -1.83878 0
M  V30 10830 C 1057.98 -2.85617 -2.19306 0
M  V30 10831 C 1057.83 -4.23778 -1.50773 0
M  V30 10832 C 1059.15 -3.01909 -3.20217 0
M  V30 10833 H 1056.27 -0.599907 -0.428113 0
M  V30 10834 H 1058.91 -1.84102 -0.46973 0
M  V30 10835 H 1057.06 -2.69325 -2.79993 0
M  V30 10836 H 1058.73 -4.51752 -0.93371 0
M  V30 10837 H 1056.98 -4.26171 -0.809966 0
M  V30 10838 H 1057.65 -5.04291 -2.24487 0
M  V30 10839 H 1060.12 -3.16956 -2.69589 0
M  V30 10840 H 1059 -3.87968 -3.88293 0
M  V30 10841 H 1059.26 -2.1427 -3.86705 0
M  V30 10842 N 1058.32 0.686584 -1.41858 0
M  V30 10843 C 1059.6 1.44176 -1.32185 0
M  V30 10844 C 1059.98 2.11049 0.046362 0
M  V30 10845 O 1059.32 2.02365 1.06117 0
M  V30 10846 C 1059.53 2.45385 -2.48168 0
M  V30 10847 C 1060.88 3.10375 -2.89746 0
M  V30 10848 O 1061.91 2.55711 -2.47973 0
M  V30 10849 O 1060.77 4.09404 -3.62009 0
M  V30 10850 H 1057.86 0.642513 -0.520678 0
M  V30 10851 H 1060.41 0.716303 -1.53841 0
M  V30 10852 H 1059.18 1.94687 -3.3943 0
M  V30 10853 H 1058.8 3.25428 -2.28435 0
M  V30 10854 N 1059.8 1.27835 0.921735 0
M  V30 10855 C 1060.71 1.12904 2.05645 0
M  V30 10856 C 1061.72 0.0575704 1.73905 0
M  V30 10857 O 1062.9 0.265261 1.99645 0
M  V30 10858 C 1059.96 0.783957 3.3772 0
M  V30 10859 C 1059.03 1.93694 3.8312 0
M  V30 10860 C 1058.26 1.60823 5.08893 0
M  V30 10861 O 1058.48 0.518873 5.68035 0
M  V30 10862 O 1057.42 2.44932 5.49811 0
M  V30 10863 H 1061.24 2.08143 2.21157 0
M  V30 10864 H 1058.83 1.07078 1.04185 0
M  V30 10865 H 1060.71 0.605107 4.17033 0
M  V30 10866 H 1059.38 -0.138849 3.23402 0
M  V30 10867 H 1058.29 2.17089 3.04669 0
M  V30 10868 H 1059.62 2.84016 4.0199 0
M  V30 10869 N 1061.28 -1.12907 1.09954 0
M  V30 10870 C 1062.52 -1.84306 0.838912 0
M  V30 10871 C 1062.85 -1.83825 -0.635508 0
M  V30 10872 O 1062.11 -1.27556 -1.48418 0
M  V30 10873 C 1062.4 -3.31885 1.32616 0
M  V30 10874 C 1062.07 -3.52542 2.81114 0
M  V30 10875 C 1060.73 -3.57888 3.21667 0
M  V30 10876 C 1063.08 -3.60065 3.76833 0
M  V30 10877 C 1060.41 -3.68296 4.567 0
M  V30 10878 C 1062.76 -3.72001 5.11662 0
M  V30 10879 C 1061.43 -3.75602 5.51797 0
M  V30 10880 H 1060.7 -0.674422 0.30698 0
M  V30 10881 H 1063.35 -1.33261 1.37527 0
M  V30 10882 H 1061.65 -3.85318 0.709719 0
M  V30 10883 H 1063.35 -3.85588 1.10105 0
M  V30 10884 H 1059.94 -3.4904 2.48735 0
M  V30 10885 H 1064.12 -3.55209 3.46612 0
M  V30 10886 H 1059.38 -3.69352 4.87226 0
M  V30 10887 H 1063.55 -3.76765 5.8568 0
M  V30 10888 H 1061.18 -3.83419 6.56425 0
M  V30 10889 N 1062.75 -0.88754 -1.30232 0
M  V30 10890 C 1063.68 -0.372481 -2.3051 0
M  V30 10891 C 1064.66 0.546037 -1.61098 0
M  V30 10892 O 1065.85 0.459345 -1.88689 0
M  V30 10893 C 1062.98 0.411605 -3.44852 0
M  V30 10894 C 1061.93 -0.415383 -4.2598 0
M  V30 10895 C 1061.26 0.495463 -5.324 0
M  V30 10896 C 1062.56 -1.65886 -4.95257 0
M  V30 10897 H 1064.25 -1.21045 -2.7384 0
M  V30 10898 H 1061.8 -0.583498 -1.31648 0
M  V30 10899 H 1063.75 0.782584 -4.1407 0
M  V30 10900 H 1062.48 1.28325 -3.00334 0
M  V30 10901 H 1061.14 -0.768534 -3.58454 0
M  V30 10902 H 1060.78 1.36489 -4.84128 0
M  V30 10903 H 1060.48 -0.0540885 -5.87575 0
M  V30 10904 H 1062.01 0.862901 -6.04472 0
M  V30 10905 H 1063.42 -1.35832 -5.56976 0
M  V30 10906 H 1061.82 -2.14881 -5.60309 0
M  V30 10907 H 1062.89 -2.40181 -4.21237 0
M  V30 10908 N 1064.23 1.43628 -0.648757 0
M  V30 10909 C 1065.48 2.01465 -0.16002 0
M  V30 10910 C 1065.8 1.51413 1.22878 0
M  V30 10911 O 1065.07 0.724919 1.81994 0
M  V30 10912 H 1063.65 0.744885 -0.0561672 0
M  V30 10913 H 1066.31 1.75897 -0.839422 0
M  V30 10914 H 1065.41 3.1178 -0.141213 0
M  V30 10915 N 1065.71 0.390394 1.52688 0
M  V30 10916 C 1067.13 0.0404028 1.59549 0
M  V30 10917 C 1067.33 -1.44503 1.40432 0
M  V30 10918 O 1066.38 -2.20968 1.22187 0
M  V30 10919 C 1067.7 0.518561 2.96195 0
M  V30 10920 C 1069.24 0.474913 3.09376 0
M  V30 10921 C 1069.72 0.929278 4.48473 0
M  V30 10922 N 1071.21 0.885335 4.5466 0
M  V30 10923 C 1071.94 1.2083 5.60524 0
M  V30 10924 N 1071.44 1.6018 6.74028 0
M  V30 10925 N 1073.23 1.12949 5.50635 0
M  V30 10926 H 1065.38 1.35743 1.63363 0
M  V30 10927 H 1067.65 0.556453 0.767505 0
M  V30 10928 H 1067.35 1.55606 3.15404 0
M  V30 10929 H 1067.23 -0.081779 3.77111 0
M  V30 10930 H 1069.61 -0.553503 2.89863 0
M  V30 10931 H 1069.7 1.11107 2.3041 0
M  V30 10932 H 1069.34 1.95593 4.68728 0
M  V30 10933 H 1069.27 0.270121 5.25907 0
M  V30 10934 H 1071.76 0.595787 3.73174 0
M  V30 10935 H 1072.07 1.83184 7.50775 0
M  V30 10936 H 1070.42 1.64067 6.75357 0
M  V30 10937 H 1073.61 0.821074 4.60843 0
M  V30 10938 H 1073.78 1.3845 6.33037 0
M  V30 10939 N 1067.19 -1.57141 0.120249 0
M  V30 10940 C 1068.15 -2.14213 -0.815185 0
M  V30 10941 C 1069.15 -1.07731 -1.19376 0
M  V30 10942 O 1070.34 -1.33502 -1.11906 0
M  V30 10943 C 1067.47 -2.68339 -2.10255 0
M  V30 10944 H 1068.67 -2.98197 -0.319166 0
M  V30 10945 H 1066.22 -1.55767 -0.128997 0
M  V30 10946 H 1066.95 -1.87946 -2.64285 0
M  V30 10947 H 1066.74 -3.46216 -1.84057 0
M  V30 10948 H 1068.23 -3.124 -2.77121 0
M  V30 10949 N 1068.67 0.153526 -1.5685 0
M  V30 10950 C 1069.92 0.865628 -1.82181 0
M  V30 10951 C 1070.23 1.82629 -0.700434 0
M  V30 10952 O 1071.43 2.58206 -0.839155 0
M  V30 10953 C 1069.89 1.58993 -3.22877 0
M  V30 10954 C 1069.5 0.672006 -4.42931 0
M  V30 10955 C 1071.24 2.2892 -3.57486 0
M  V30 10956 C 1069.15 1.39755 -5.7465 0
M  V30 10957 H 1068.08 0.326993 -0.679406 0
M  V30 10958 H 1070.73 0.118403 -1.83118 0
M  V30 10959 H 1069.11 2.38255 -3.16308 0
M  V30 10960 H 1070.29 -0.0849226 -4.60722 0
M  V30 10961 H 1068.6 0.0814825 -4.1632 0
M  V30 10962 H 1071.2 2.8383 -4.5315 0
M  V30 10963 H 1071.54 3.05105 -2.83226 0
M  V30 10964 H 1072.07 1.56583 -3.65686 0
M  V30 10965 H 1068.81 0.677686 -6.51987 0
M  V30 10966 H 1068.33 2.12736 -5.60806 0
M  V30 10967 H 1070.01 1.94024 -6.17223 0
M  V30 10968 N 1070.14 1.51827 0.422667 0
M  V30 10969 C 1071.42 1.55772 1.18299 0
M  V30 10970 C 1071.8 0.330657 2.08494 0
M  V30 10971 O 1071.15 -0.683373 2.18042 0
M  V30 10972 C 1071.36 2.87941 1.97208 0
M  V30 10973 C 1072.71 3.4044 2.53744 0
M  V30 10974 O 1073.73 2.8959 2.07403 0
M  V30 10975 O 1072.59 4.29201 3.38303 0
M  V30 10976 H 1069.68 0.626889 0.539388 0
M  V30 10977 H 1072.23 1.64147 0.430545 0
M  V30 10978 H 1071 3.68702 1.31052 0
M  V30 10979 H 1070.63 2.82795 2.79486 0
M  V30 10980 N 1071.62 -0.679052 1.4222 0
M  V30 10981 C 1072.59 -1.77448 1.45069 0
M  V30 10982 C 1073.59 -1.57189 0.338882 0
M  V30 10983 O 1074.78 -1.63559 0.599519 0
M  V30 10984 C 1071.91 -3.1603 1.27819 0
M  V30 10985 H 1073.1 -1.7631 2.426 0
M  V30 10986 H 1070.65 -0.888277 1.28605 0
M  V30 10987 H 1071.39 -3.22796 0.311946 0
M  V30 10988 H 1071.17 -3.32138 2.08391 0
M  V30 10989 H 1072.66 -3.9596 1.32686 0
M  V30 10990 N 1073.1 -1.28322 -0.914942 0
M  V30 10991 C 1074.52 -1.06003 -1.19313 0
M  V30 10992 C 1074.72 0.198366 -2.00521 0
M  V30 10993 O 1073.77 0.900364 -2.35902 0
M  V30 10994 C 1075.09 -2.30684 -1.92887 0
M  V30 10995 C 1076.63 -2.35851 -2.05775 0
M  V30 10996 C 1077.11 -3.60295 -2.82757 0
M  V30 10997 N 1078.6 -3.60928 -2.9032 0
M  V30 10998 C 1079.33 -4.53894 -3.50383 0
M  V30 10999 N 1078.83 -5.57178 -4.11734 0
M  V30 11000 N 1080.62 -4.41492 -3.4791 0
M  V30 11001 H 1072.77 -2.09104 -0.372735 0
M  V30 11002 H 1075.04 -0.920285 -0.227552 0
M  V30 11003 H 1074.74 -3.22355 -1.40643 0
M  V30 11004 H 1074.62 -2.37003 -2.93444 0
M  V30 11005 H 1077 -1.44678 -2.57201 0
M  V30 11006 H 1077.09 -2.33526 -1.04399 0
M  V30 11007 H 1076.73 -4.51811 -2.32011 0
M  V30 11008 H 1076.66 -3.59873 -3.84446 0
M  V30 11009 H 1079.15 -2.8624 -2.46729 0
M  V30 11010 H 1079.46 -6.24261 -4.55541 0
M  V30 11011 H 1077.81 -5.61005 -4.10242 0
M  V30 11012 H 1081 -3.60005 -2.99189 0
M  V30 11013 H 1081.17 -5.14132 -3.94427 0
M  V30 11014 N 1074.58 1.12322 -1.10551 0
M  V30 11015 C 1075.8 1.8822 -0.871093 0
M  V30 11016 C 1076.23 1.7916 0.573005 0
M  V30 11017 O 1075.59 1.14738 1.40374 0
M  V30 11018 C 1075.63 3.35349 -1.32565 0
M  V30 11019 O 1074.74 4.09461 -0.49145 0
M  V30 11020 H 1074.08 0.584787 -0.314516 0
M  V30 11021 H 1076.61 1.42039 -1.47262 0
M  V30 11022 H 1076.62 3.86189 -1.31612 0
M  V30 11023 H 1075.29 3.4126 -2.37728 0
M  V30 11024 H 1073.87 3.68575 -0.566294 0
M  V30 11025 N 1076.06 0.894434 1.2976 0
M  V30 11026 C 1077.31 0.513673 1.95049 0
M  V30 11027 C 1077.62 -0.943744 1.71327 0
M  V30 11028 O 1078.82 -1.43179 2.30678 0
M  V30 11029 C 1077.28 0.867751 3.49282 0
M  V30 11030 C 1076.89 2.34358 3.81812 0
M  V30 11031 C 1078.63 0.556645 4.20835 0
M  V30 11032 C 1076.54 2.63879 5.29265 0
M  V30 11033 H 1075.47 0.188375 0.73009 0
M  V30 11034 H 1078.12 1.09071 1.47566 0
M  V30 11035 H 1076.5 0.2197 3.9539 0
M  V30 11036 H 1077.68 3.03674 3.46581 0
M  V30 11037 H 1075.99 2.62318 3.23386 0
M  V30 11038 H 1078.59 0.754123 5.29355 0
M  V30 11039 H 1078.93 -0.504526 4.13231 0
M  V30 11040 H 1079.46 1.1623 3.80441 0
M  V30 11041 H 1076.2 3.68774 5.41928 0
M  V30 11042 H 1075.72 1.99182 5.65762 0
M  V30 11043 H 1077.4 2.49871 5.96803 0
M  V30 11044 N 1077.53 -1.43282 0.656365 0
M  V30 11045 C 1078.81 -1.9534 0.100816 0
M  V30 11046 C 1079.19 -1.59755 -1.37992 0
M  V30 11047 O 1078.54 -0.884264 -2.10697 0
M  V30 11048 C 1078.75 -3.47237 0.35038 0
M  V30 11049 C 1080.1 -4.23822 0.257001 0
M  V30 11050 O 1081.12 -3.55073 0.283111 0
M  V30 11051 O 1079.98 -5.46192 0.183397 0
M  V30 11052 H 1077.07 -0.826963 -0.00780287 0
M  V30 11053 H 1079.62 -1.53205 0.72982 0
M  V30 11054 H 1078.39 -3.66276 1.37685 0
M  V30 11055 H 1078.02 -3.96378 -0.311539 0
M  V30 11056 N 1079.01 -0.398486 -1.52479 0
M  V30 11057 C 1080.43 -0.0488635 -1.59525 0
M  V30 11058 C 1080.63 1.43756 -1.41197 0
M  V30 11059 O 1079.69 2.20317 -1.23357 0
M  V30 11060 C 1081 -0.534262 -2.95916 0
M  V30 11061 C 1082.55 -0.491314 -3.0912 0
M  V30 11062 C 1083.02 -0.953049 -4.47974 0
M  V30 11063 N 1084.51 -0.909434 -4.54184 0
M  V30 11064 C 1085.25 -1.23801 -5.59876 0
M  V30 11065 N 1084.74 -1.63752 -6.73169 0
M  V30 11066 N 1086.54 -1.15867 -5.50028 0
M  V30 11067 H 1078.69 -1.36608 -1.62641 0
M  V30 11068 H 1080.95 -0.560515 -0.764544 0
M  V30 11069 H 1080.66 -1.57277 -3.14574 0
M  V30 11070 H 1080.53 0.0617787 -3.77149 0
M  V30 11071 H 1082.92 0.538123 -2.90152 0
M  V30 11072 H 1083 -1.12327 -2.29818 0
M  V30 11073 H 1082.64 -1.98076 -4.67684 0
M  V30 11074 H 1082.57 -0.298007 -5.25756 0
M  V30 11075 H 1085.06 -0.615569 -3.72853 0
M  V30 11076 H 1085.38 -1.87163 -7.49793 0
M  V30 11077 H 1083.72 -1.67647 -6.74477 0
M  V30 11078 H 1086.91 -0.845502 -4.60401 0
M  V30 11079 H 1087.09 -1.41805 -6.32294 0
M  V30 11080 N 1080.49 1.57075 -0.12858 0
M  V30 11081 C 1081.42 2.18833 0.814519 0
M  V30 11082 C 1082.4 1.13114 1.2704 0
M  V30 11083 O 1083.59 1.41387 1.33129 0
M  V30 11084 C 1080.72 2.79535 2.06101 0
M  V30 11085 C 1079.67 3.9092 1.74257 0
M  V30 11086 C 1079 4.38473 3.06015 0
M  V30 11087 C 1080.3 5.1257 1.00345 0
M  V30 11088 H 1081.99 2.97895 0.299862 0
M  V30 11089 H 1079.54 1.4329 0.14279 0
M  V30 11090 H 1081.49 3.21401 2.72543 0
M  V30 11091 H 1080.21 1.97777 2.59907 0
M  V30 11092 H 1078.87 3.49645 1.102 0
M  V30 11093 H 1078.52 3.53561 3.57776 0
M  V30 11094 H 1078.22 5.13591 2.85479 0
M  V30 11095 H 1079.75 4.82997 3.7356 0
M  V30 11096 H 1081.16 5.51395 1.56959 0
M  V30 11097 H 1079.56 5.93333 0.898693 0
M  V30 11098 H 1080.63 4.84899 -0.0081335 0
M  V30 11099 N 1081.97 -0.145205 1.5693 0
M  V30 11100 C 1083.39 -0.497905 1.51635 0
M  V30 11101 C 1083.59 -1.8328 0.837301 0
M  V30 11102 O 1082.64 -2.49172 0.408584 0
M  V30 11103 C 1083.95 -0.506557 2.96403 0
M  V30 11104 C 1085.5 -0.591947 3.07352 0
M  V30 11105 C 1085.98 -0.631244 4.53629 0
M  V30 11106 N 1087.47 -0.693417 4.5798 0
M  V30 11107 C 1088.2 -0.744836 5.68542 0
M  V30 11108 N 1087.7 -0.755492 6.88668 0
M  V30 11109 N 1089.49 -0.785854 5.5658 0
M  V30 11110 H 1081.64 0.729779 1.99469 0
M  V30 11111 H 1083.91 0.266295 0.90983 0
M  V30 11112 H 1083.61 0.406127 3.49347 0
M  V30 11113 H 1083.49 -1.34383 3.5245 0
M  V30 11114 H 1085.87 -1.49505 2.54425 0
M  V30 11115 H 1085.95 0.272507 2.54344 0
M  V30 11116 H 1085.6 0.26771 5.07194 0
M  V30 11117 H 1085.53 -1.51221 5.0442 0
M  V30 11118 H 1088.02 -0.692408 3.71503 0
M  V30 11119 H 1088.33 -0.796624 7.68683 0
M  V30 11120 H 1086.68 -0.723339 6.91226 0
M  V30 11121 H 1089.87 -0.774712 4.61645 0
M  V30 11122 H 1090.04 -0.822461 6.42759 0
M  V30 11123 N 1083.45 -1.52049 -0.414609 0
M  V30 11124 C 1084.67 -1.6997 -1.18848 0
M  V30 11125 C 1085.1 -0.406058 -1.83665 0
M  V30 11126 O 1084.46 0.635981 -1.69779 0
M  V30 11127 C 1084.5 -2.8327 -2.23138 0
M  V30 11128 O 1083.61 -2.48457 -3.29155 0
M  V30 11129 H 1082.95 -0.566003 -0.347183 0
M  V30 11130 H 1085.48 -1.98726 -0.486757 0
M  V30 11131 H 1085.49 -3.08022 -2.67557 0
M  V30 11132 H 1084.16 -3.7713 -1.75344 0
M  V30 11133 H 1082.74 -2.34357 -2.90054 0
M  V30 11134 N 1084.93 0.6715 -1.42579 0
M  V30 11135 C 1085.84 1.81435 -1.48723 0
M  V30 11136 C 1086.85 1.69895 -0.375716 0
M  V30 11137 O 1088.03 1.91388 -0.627115 0
M  V30 11138 C 1085.09 3.17599 -1.39038 0
M  V30 11139 C 1084.15 3.41071 -2.60709 0
M  V30 11140 C 1083.39 4.7074 -2.51476 0
M  V30 11141 O 1083.61 5.48868 -1.55243 0
M  V30 11142 O 1082.54 4.95528 -3.41666 0
M  V30 11143 H 1086.37 1.79206 -2.45191 0
M  V30 11144 H 1083.95 0.827666 -1.24379 0
M  V30 11145 H 1085.84 3.98847 -1.3601 0
M  V30 11146 H 1084.51 3.20458 -0.456966 0
M  V30 11147 H 1083.42 2.59659 -2.69311 0
M  V30 11148 H 1084.75 3.43045 -3.5296 0
M  V30 11149 N 1086.4 1.28806 0.908124 0
M  V30 11150 C 1087.35 1.09849 1.99793 0
M  V30 11151 C 1088.34 0.0204321 1.60887 0
M  V30 11152 O 1089.53 0.241204 1.75349 0
M  V30 11153 C 1086.66 0.768263 3.34593 0
M  V30 11154 C 1085.74 1.88544 3.79884 0
M  V30 11155 N 1086.14 3.12784 3.97492 0
M  V30 11156 C 1084.43 1.77657 4.09089 0
M  V30 11157 C 1085.13 3.85615 4.35518 0
M  V30 11158 N 1084.11 3.13501 4.44092 0
M  V30 11159 H 1087.91 2.04108 2.11464 0
M  V30 11160 H 1085.43 1.19807 1.09636 0
M  V30 11161 H 1087.42 0.613521 4.12361 0
M  V30 11162 H 1086.08 -0.166501 3.24273 0
M  V30 11163 H 1087.09 3.48333 3.83255 0
M  V30 11164 H 1083.77 0.913956 4.07373 0
M  V30 11165 H 1085.16 4.92492 4.57057 0
M  V30 11166 N 1087.88 -1.11734 1.11145 0
M  V30 11167 C 1089.13 -1.83677 0.859684 0
M  V30 11168 C 1089.46 -1.84265 -0.613182 0
M  V30 11169 O 1088.74 -1.29351 -1.45254 0
M  V30 11170 C 1089.02 -3.31003 1.41805 0
M  V30 11171 C 1088.87 -3.38827 2.95831 0
M  V30 11172 C 1090.19 -4.26984 1.06645 0
M  V30 11173 H 1087.31 -0.666879 0.313754 0
M  V30 11174 H 1089.95 -1.31038 1.37583 0
M  V30 11175 H 1088.1 -3.75961 0.979054 0
M  V30 11176 H 1089.77 -3.02451 3.48312 0
M  V30 11177 H 1088.02 -2.79143 3.32056 0
M  V30 11178 H 1088.69 -4.42508 3.29986 0
M  V30 11179 H 1091.16 -3.9019 1.44537 0
M  V30 11180 H 1090.04 -5.2846 1.48394 0
M  V30 11181 H 1090.3 -4.42094 -0.0231866 0
M  V30 11182 N 1089.36 -0.901303 -1.29284 0
M  V30 11183 C 1090.78 -0.597634 -1.47988 0
M  V30 11184 C 1090.98 0.860434 -1.82205 0
M  V30 11185 O 1090.03 1.64049 -1.91948 0
M  V30 11186 C 1091.34 -1.52484 -2.5917 0
M  V30 11187 C 1092.89 -1.53021 -2.73045 0
M  V30 11188 C 1093.37 -2.44373 -3.87357 0
M  V30 11189 N 1094.86 -2.42429 -3.94693 0
M  V30 11190 C 1095.59 -3.09817 -4.82495 0
M  V30 11191 N 1095.09 -3.86489 -5.74976 0
M  V30 11192 N 1096.88 -2.98966 -4.76 0
M  V30 11193 H 1089.03 -1.84432 -1.0535 0
M  V30 11194 H 1091.3 -0.790367 -0.523473 0
M  V30 11195 H 1091 -2.56378 -2.40756 0
M  V30 11196 H 1090.88 -1.24657 -3.56006 0
M  V30 11197 H 1093.26 -0.498709 -2.90855 0
M  V30 11198 H 1093.34 -1.84886 -1.76779 0
M  V30 11199 H 1092.99 -3.47618 -3.70302 0
M  V30 11200 H 1092.92 -2.09817 -4.82995 0
M  V30 11201 H 1095.41 -1.86724 -3.28546 0
M  V30 11202 H 1095.72 -4.34959 -6.38773 0
M  V30 11203 H 1094.07 -3.90596 -5.74857 0
M  V30 11204 H 1097.26 -2.38581 -4.02737 0
M  V30 11205 H 1097.43 -3.51758 -5.44215 0
M  V30 11206 N 1090.84 1.42931 -0.663954 0
M  V30 11207 C 1091.78 2.3079 0.0210764 0
M  V30 11208 C 1092.75 1.45356 0.803796 0
M  V30 11209 O 1093.94 1.74207 0.778237 0
M  V30 11210 C 1091.08 3.31069 0.974023 0
M  V30 11211 C 1090.19 4.31598 0.186273 0
M  V30 11212 C 1089.33 5.18955 1.13399 0
M  V30 11213 C 1088.37 6.1117 0.337292 0
M  V30 11214 N 1087.5 6.91114 1.23715 0
M  V30 11215 H 1092.34 2.88819 -0.733995 0
M  V30 11216 H 1089.88 1.42274 -0.373711 0
M  V30 11217 H 1091.84 3.87727 1.54024 0
M  V30 11218 H 1090.47 2.74665 1.69585 0
M  V30 11219 H 1089.52 3.77147 -0.496402 0
M  V30 11220 H 1090.83 4.96919 -0.432753 0
M  V30 11221 H 1089.99 5.80292 1.77049 0
M  V30 11222 H 1088.73 4.53785 1.78691 0
M  V30 11223 H 1087.73 5.48911 -0.312492 0
M  V30 11224 H 1088.96 6.78386 -0.31138 0
M  V30 11225 H 1086.9 6.28583 1.87668 0
M  V30 11226 H 1086.82 7.52999 0.672946 0
M  V30 11227 H 1088.09 7.56948 1.86146 0
M  V30 11228 N 1092.32 0.406567 1.52266 0
M  V30 11229 C 1093.56 -0.170053 2.01785 0
M  V30 11230 C 1093.89 -1.45361 1.2923 0
M  V30 11231 O 1093.15 -1.91849 0.386342 0
M  V30 11232 C 1093.44 -0.467124 3.54334 0
M  V30 11233 C 1093.11 0.72693 4.45002 0
M  V30 11234 C 1091.77 1.05446 4.69505 0
M  V30 11235 C 1094.12 1.52493 4.98393 0
M  V30 11236 C 1091.45 2.18123 5.44646 0
M  V30 11237 C 1093.8 2.64244 5.74768 0
M  V30 11238 C 1092.47 2.97486 5.97544 0
M  V30 11239 H 1091.74 -0.0622267 0.738383 0
M  V30 11240 H 1094.39 0.54746 1.83508 0
M  V30 11241 H 1092.69 -1.26617 3.70777 0
M  V30 11242 H 1094.39 -0.926194 3.90157 0
M  V30 11243 H 1090.98 0.461666 4.26106 0
M  V30 11244 H 1095.16 1.28512 4.79373 0
M  V30 11245 H 1090.42 2.44228 5.60502 0
M  V30 11246 H 1094.59 3.26468 6.15136 0
M  V30 11247 H 1092.22 3.84913 6.5555 0
M  V30 11248 N 1093.79 -1.57004 0.136909 0
M  V30 11249 C 1094.72 -2.19262 -0.802902 0
M  V30 11250 C 1095.71 -1.13786 -1.26439 0
M  V30 11251 O 1096.89 -1.42091 -1.32377 0
M  V30 11252 C 1094.02 -2.80624 -2.04615 0
M  V30 11253 C 1092.97 -3.91839 -1.72181 0
M  V30 11254 C 1092.3 -4.4009 -3.03686 0
M  V30 11255 C 1093.6 -5.13095 -0.976249 0
M  V30 11256 H 1095.29 -2.98049 -0.28406 0
M  V30 11257 H 1092.84 -1.43364 -0.135189 0
M  V30 11258 H 1094.79 -3.22842 -2.70834 0
M  V30 11259 H 1093.52 -1.99153 -2.58855 0
M  V30 11260 H 1092.18 -3.50224 -1.08344 0
M  V30 11261 H 1091.82 -3.55454 -3.55896 0
M  V30 11262 H 1091.52 -5.15098 -2.82751 0
M  V30 11263 H 1093.05 -4.84971 -3.70993 0
M  V30 11264 H 1094.46 -5.5222 -1.54033 0
M  V30 11265 H 1092.86 -5.93801 -0.867214 0
M  V30 11266 H 1093.93 -4.84888 0.0338488 0
M  V30 11267 N 1095.27 0.136881 -1.57004 0
M  V30 11268 C 1096.2 1.17026 -2.02057 0
M  V30 11269 C 1097.18 1.44223 -0.901866 0
M  V30 11270 O 1098.37 1.54971 -1.17037 0
M  V30 11271 C 1095.5 2.50095 -2.40977 0
M  V30 11272 C 1094.45 2.37398 -3.56127 0
M  V30 11273 C 1093.78 3.75268 -3.80891 0
M  V30 11274 C 1095.08 1.84952 -4.88457 0
M  V30 11275 H 1096.77 0.795601 -2.88636 0
M  V30 11276 H 1094.32 0.381266 -1.38861 0
M  V30 11277 H 1096.27 3.22621 -2.71097 0
M  V30 11278 H 1095 2.89416 -1.51348 0
M  V30 11279 H 1093.65 1.67322 -3.26188 0
M  V30 11280 H 1093.3 4.12043 -2.88496 0
M  V30 11281 H 1093 3.67631 -4.5839 0
M  V30 11282 H 1094.53 4.49327 -4.13446 0
M  V30 11283 H 1095.94 2.4728 -5.17229 0
M  V30 11284 H 1094.34 1.88181 -5.69832 0
M  V30 11285 H 1095.41 0.805848 -4.78157 0
M  V30 11286 N 1096.75 1.52266 0.40654 0
M  V30 11287 C 1097.98 1.70304 1.17491 0
M  V30 11288 C 1098.39 0.413656 1.84213 0
M  V30 11289 O 1097.75 -0.610524 1.71985 0
M  V30 11290 C 1097.8 2.84045 2.23609 0
M  V30 11291 O 1097.52 4.0799 1.5961 0
M  V30 11292 C 1099.02 3.13614 3.13306 0
M  V30 11293 H 1096.24 0.570669 0.352955 0
M  V30 11294 H 1098.79 1.98836 0.477967 0
M  V30 11295 H 1096.94 2.58025 2.88967 0
M  V30 11296 H 1097.36 4.7139 2.29983 0
M  V30 11297 H 1098.83 3.96707 3.83833 0
M  V30 11298 H 1099.31 2.27272 3.75824 0
M  V30 11299 H 1099.91 3.41409 2.53614 0
M  V30 11300 N 1098.23 -0.663929 1.42933 0
M  V30 11301 C 1099.48 -1.42393 1.43981 0
M  V30 11302 C 1099.8 -1.94407 0.0601802 0
M  V30 11303 O 1099.06 -1.72019 -0.933172 0
M  V30 11304 C 1099.36 -2.62976 2.4203 0
M  V30 11305 C 1099.02 -2.29441 3.88159 0
M  V30 11306 C 1097.69 -2.20007 4.27961 0
M  V30 11307 C 1100.04 -2.02413 4.8029 0
M  V30 11308 C 1097.37 -1.81686 5.57859 0
M  V30 11309 C 1099.72 -1.65592 6.10542 0
M  V30 11310 C 1098.38 -1.54676 6.49332 0
M  V30 11311 H 1097.65 -0.521051 0.526865 0
M  V30 11312 H 1100.3 -0.756042 1.75944 0
M  V30 11313 H 1098.6 -3.34847 2.03433 0
M  V30 11314 H 1100.3 -3.21174 2.40101 0
M  V30 11315 H 1096.89 -2.3769 3.56653 0
M  V30 11316 H 1101.07 -2.08628 4.5032 0
M  V30 11317 H 1096.33 -1.71812 5.86763 0
M  V30 11318 H 1100.5 -1.43707 6.81411 0
M  V30 11319 H 1098.13 -1.24752 7.49894 0
M  V30 11320 N 1099.71 -1.29285 -0.901281 0
M  V30 11321 C 1101.12 -1.07263 -1.18182 0
M  V30 11322 C 1101.32 0.177087 -2.0072 0
M  V30 11323 O 1100.38 0.875292 -2.36844 0
M  V30 11324 C 1101.69 -2.32717 -1.9043 0
M  V30 11325 C 1103.24 -2.3802 -2.03262 0
M  V30 11326 C 1103.71 -3.63273 -2.7892 0
M  V30 11327 N 1105.21 -3.63986 -2.86475 0
M  V30 11328 C 1105.94 -4.57585 -3.45549 0
M  V30 11329 N 1105.44 -5.61513 -4.05801 0
M  V30 11330 N 1107.23 -4.45157 -3.43208 0
M  V30 11331 H 1099.38 -2.09487 -0.350536 0
M  V30 11332 H 1101.64 -0.922647 -0.217778 0
M  V30 11333 H 1101.35 -3.23828 -1.37216 0
M  V30 11334 H 1101.22 -2.40102 -2.90913 0
M  V30 11335 H 1103.61 -1.47398 -2.55652 0
M  V30 11336 H 1103.69 -2.3462 -1.01916 0
M  V30 11337 H 1103.34 -4.54246 -2.27206 0
M  V30 11338 H 1103.27 -3.6393 -3.80608 0
M  V30 11339 H 1105.76 -2.8884 -2.43679 0
M  V30 11340 H 1106.07 -6.29058 -4.48894 0
M  V30 11341 H 1104.41 -5.65325 -4.04268 0
M  V30 11342 H 1107.61 -3.63158 -2.95354 0
M  V30 11343 H 1107.78 -5.18286 -3.88952 0
M  V30 11344 N 1101.18 1.11143 -1.11736 0
M  V30 11345 C 1102.09 2.20851 -0.791331 0
M  V30 11346 C 1103.11 1.72644 0.216833 0
M  V30 11347 O 1104.29 2.01332 0.0522401 0
M  V30 11348 C 1101.35 3.4585 -0.242694 0
M  V30 11349 C 1100.41 4.08829 -1.30986 0
M  V30 11350 C 1099.65 5.27861 -0.787305 0
M  V30 11351 O 1099.87 5.69122 0.381549 0
M  V30 11352 O 1098.8 5.81506 -1.55352 0
M  V30 11353 H 1102.63 2.51158 -1.70744 0
M  V30 11354 H 1100.21 1.19739 -0.893478 0
M  V30 11355 H 1102.1 4.21359 0.0587472 0
M  V30 11356 H 1100.77 3.17187 0.646079 0
M  V30 11357 H 1099.68 3.35037 -1.66436 0
M  V30 11358 H 1101.01 4.41678 -2.17213 0
M  V30 11359 N 1102.66 0.908147 1.28804 0
M  V30 11360 C 1104.07 0.585727 1.77274 0
M  V30 11361 C 1104.42 -0.898842 1.744 0
M  V30 11362 O 1103.55 -1.70301 1.33516 0
M  V30 11363 C 1104.14 1.05647 3.21907 0
M  V30 11364 C 1102.7 0.785066 3.68122 0
M  V30 11365 C 1101.85 1.22638 2.48707 0
M  V30 11366 H 1104.8 1.09 1.15346 0
M  V30 11367 H 1104.82 0.395442 3.7844 0
M  V30 11368 H 1104.33 2.13698 3.23967 0
M  V30 11369 H 1102.44 -0.282477 3.71528 0
M  V30 11370 H 1102.55 1.38888 4.58527 0
M  V30 11371 H 1100.91 0.645217 2.46392 0
M  V30 11372 H 1101.7 2.31512 2.5349 0
M  V30 11373 N 1104.14 -1.42577 0.671525 0
M  V30 11374 C 1105.42 -1.95222 0.121529 0
M  V30 11375 C 1105.8 -1.61209 -1.36289 0
M  V30 11376 O 1105.15 -0.906561 -2.09747 0
M  V30 11377 C 1105.36 -3.46846 0.387189 0
M  V30 11378 C 1106.7 -4.23525 0.301938 0
M  V30 11379 O 1107.73 -3.54753 0.320755 0
M  V30 11380 O 1106.59 -5.45967 0.241317 0
M  V30 11381 H 1103.68 -0.826999 0.000968615 0
M  V30 11382 H 1106.23 -1.52422 0.746029 0
M  V30 11383 H 1105 -3.64795 1.41563 0
M  V30 11384 H 1104.62 -3.96686 -0.26948 0
M  V30 11385 N 1105.62 -0.414636 -1.52048 0
M  V30 11386 C 1106.55 0.399119 -2.30064 0
M  V30 11387 C 1107.53 1.04126 -1.34506 0
M  V30 11388 O 1108.71 1.04923 -1.63416 0
M  V30 11389 C 1105.84 1.51305 -3.12608 0
M  V30 11390 C 1104.8 0.995621 -4.16259 0
M  V30 11391 C 1104.12 2.20357 -4.87183 0
M  V30 11392 C 1105.42 0.0458178 -5.2228 0
M  V30 11393 H 1107.12 -0.251879 -2.98339 0
M  V30 11394 H 1104.66 -0.122579 -1.43477 0
M  V30 11395 H 1106.62 2.08936 -3.65956 0
M  V30 11396 H 1105.34 2.19201 -2.42113 0
M  V30 11397 H 1104 0.441676 -3.6393 0
M  V30 11398 H 1103.65 2.8682 -4.13211 0
M  V30 11399 H 1103.35 1.86385 -5.57256 0
M  V30 11400 H 1104.87 2.78584 -5.43345 0
M  V30 11401 H 1106.29 0.531102 -5.70835 0
M  V30 11402 H 1104.68 -0.20536 -5.99749 0
M  V30 11403 H 1105.75 -0.897807 -4.76516 0
M  V30 11404 N 1107.1 1.56929 -0.145233 0
M  V30 11405 C 1108.01 2.20238 0.808219 0
M  V30 11406 C 1109.02 1.18615 1.27304 0
M  V30 11407 O 1110.2 1.51186 1.3306 0
M  V30 11408 C 1107.26 2.81016 2.03055 0
M  V30 11409 C 1106.32 3.97759 1.61512 0
M  V30 11410 C 1105.56 4.55628 2.77918 0
M  V30 11411 O 1105.78 4.12378 3.94082 0
M  V30 11412 O 1104.71 5.45917 2.53492 0
M  V30 11413 H 1108.54 3.02221 0.299314 0
M  V30 11414 H 1106.13 1.49176 0.0817051 0
M  V30 11415 H 1108.01 3.19652 2.74592 0
M  V30 11416 H 1106.68 2.02047 2.52901 0
M  V30 11417 H 1105.59 3.63842 0.870033 0
M  V30 11418 H 1106.92 4.78242 1.16383 0
M  V30 11419 N 1108.58 -0.128553 1.57075 0
M  V30 11420 C 1109.52 -1.15812 1.9964 0
M  V30 11421 C 1110.49 -1.41679 0.86696 0
M  V30 11422 O 1111.68 -1.53705 1.13046 0
M  V30 11423 C 1108.82 -2.48198 2.39774 0
M  V30 11424 C 1107.93 -2.29348 3.66092 0
M  V30 11425 C 1107.07 -3.54898 3.95248 0
M  V30 11426 C 1106.1 -3.31164 5.14779 0
M  V30 11427 N 1105.24 -4.48891 5.39853 0
M  V30 11428 H 1110.08 -0.788136 2.87389 0
M  V30 11429 H 1107.62 -0.377682 1.42169 0
M  V30 11430 H 1109.58 -3.25414 2.61077 0
M  V30 11431 H 1108.21 -2.83108 1.5508 0
M  V30 11432 H 1107.26 -1.43095 3.5246 0
M  V30 11433 H 1108.57 -2.07781 4.53463 0
M  V30 11434 H 1107.72 -4.40536 4.17148 0
M  V30 11435 H 1106.46 -3.79487 3.06335 0
M  V30 11436 H 1105.47 -2.43915 4.92733 0
M  V30 11437 H 1106.69 -3.07954 6.05261 0
M  V30 11438 H 1104.64 -4.73619 4.53895 0
M  V30 11439 H 1104.56 -4.30394 6.21528 0
M  V30 11440 H 1105.82 -5.35691 5.66265 0
M  V30 11441 N 1110.05 -1.5248 -0.398459 0
M  V30 11442 C 1111 -1.76585 -1.48615 0
M  V30 11443 C 1111.97 -0.608677 -1.54546 0
M  V30 11444 O 1113.16 -0.847383 -1.7095 0
M  V30 11445 C 1110.3 -1.93201 -2.8595 0
M  V30 11446 C 1109.41 -3.20875 -2.89246 0
M  V30 11447 C 1108.54 -3.27862 -4.17947 0
M  V30 11448 C 1107.58 -4.49697 -4.15258 0
M  V30 11449 N 1106.72 -4.54017 -5.35549 0
M  V30 11450 H 1111.56 -2.69412 -1.27362 0
M  V30 11451 H 1109.1 -1.33487 -0.618031 0
M  V30 11452 H 1111.05 -2.00819 -3.65688 0
M  V30 11453 H 1109.68 -1.03743 -3.05675 0
M  V30 11454 H 1108.74 -3.22376 -2.01935 0
M  V30 11455 H 1110.05 -4.1066 -2.83125 0
M  V30 11456 H 1109.2 -3.34611 -5.06083 0
M  V30 11457 H 1107.94 -2.36035 -4.26777 0
M  V30 11458 H 1106.95 -4.43083 -3.25511 0
M  V30 11459 H 1108.17 -5.42831 -4.08059 0
M  V30 11460 H 1106.12 -3.65078 -5.45027 0
M  V30 11461 H 1106.03 -5.37661 -5.31466 0
M  V30 11462 H 1107.3 -4.65009 -6.25609 0
M  V30 11463 N 1111.53 0.65634 -1.43283 0
M  V30 11464 C 1112.76 1.44199 -1.47954 0
M  V30 11465 C 1113.17 1.88961 -0.0950315 0
M  V30 11466 O 1112.51 1.59895 0.904388 0
M  V30 11467 C 1112.57 2.71161 -2.36033 0
M  V30 11468 C 1112.24 2.48359 -3.83623 0
M  V30 11469 C 1113.24 2.1178 -4.74811 0
M  V30 11470 C 1110.92 2.6278 -4.28079 0
M  V30 11471 C 1112.91 1.89915 -6.0845 0
M  V30 11472 C 1110.6 2.4053 -5.61772 0
M  V30 11473 C 1111.6 2.04154 -6.51775 0
M  V30 11474 O 1111.29 1.82134 -7.82996 0
M  V30 11475 H 1111.02 0.449567 -0.504842 0
M  V30 11476 H 1113.57 0.812234 -1.88658 0
M  V30 11477 H 1111.8 3.36685 -1.9021 0
M  V30 11478 H 1113.49 3.33102 -2.31944 0
M  V30 11479 H 1114.26 2.00217 -4.41744 0
M  V30 11480 H 1110.14 2.9007 -3.58302 0
M  V30 11481 H 1113.68 1.61445 -6.78661 0
M  V30 11482 H 1109.58 2.51695 -5.94407 0
M  V30 11483 H 1110.35 1.96584 -7.94542 0
M  V30 11484 N 1113.01 1.29761 0.894412 0
M  V30 11485 C 1114.23 1.21064 1.68399 0
M  V30 11486 C 1114.66 -0.224608 1.86754 0
M  V30 11487 O 1114.02 -1.16199 1.39167 0
M  V30 11488 C 1114.07 1.93468 3.04306 0
M  V30 11489 O 1113.17 1.25533 3.9283 0
M  V30 11490 H 1112.51 0.419223 0.514925 0
M  V30 11491 H 1115.04 1.71421 1.11696 0
M  V30 11492 H 1115.05 2.02127 3.54413 0
M  V30 11493 H 1113.73 2.97857 2.90265 0
M  V30 11494 H 1112.3 1.25168 3.51266 0
M  V30 11495 N 1114.49 -1.10549 1.12324 0
M  V30 11496 C 1115.43 -2.16858 0.790024 0
M  V30 11497 C 1116.4 -1.64317 -0.242694 0
M  V30 11498 O 1117.59 -1.90438 -0.117531 0
M  V30 11499 C 1114.73 -3.44197 0.249503 0
M  V30 11500 C 1113.84 -4.10696 1.33989 0
M  V30 11501 C 1112.98 -5.25751 0.758932 0
M  V30 11502 C 1112.02 -5.8415 1.82853 0
M  V30 11503 N 1111.15 -6.90585 1.26637 0
M  V30 11504 H 1115.99 -2.44705 1.7007 0
M  V30 11505 H 1113.53 -1.20117 0.849141 0
M  V30 11506 H 1115.49 -4.1712 -0.0819251 0
M  V30 11507 H 1114.12 -3.16705 -0.624332 0
M  V30 11508 H 1113.17 -3.35754 1.78812 0
M  V30 11509 H 1114.48 -4.50144 2.14875 0
M  V30 11510 H 1113.64 -6.05521 0.378104 0
M  V30 11511 H 1112.38 -4.87632 -0.0811405 0
M  V30 11512 H 1111.38 -5.03051 2.21856 0
M  V30 11513 H 1112.61 -6.24333 2.6718 0
M  V30 11514 H 1110.55 -6.54468 0.448105 0
M  V30 11515 H 1110.47 -7.28739 2.01184 0
M  V30 11516 H 1111.74 -7.74138 0.912737 0
M  V30 11517 N 1115.97 -0.914965 -1.28321 0
M  V30 11518 C 1116.9 -0.361578 -2.2633 0
M  V30 11519 C 1117.91 0.500637 -1.54911 0
M  V30 11520 O 1119.1 0.31532 -1.75693 0
M  V30 11521 C 1116.2 0.501693 -3.35166 0
M  V30 11522 C 1115.37 -0.338289 -4.3609 0
M  V30 11523 C 1114.43 0.460267 -5.24183 0
M  V30 11524 O 1113.46 -0.127594 -5.69057 0
M  V30 11525 N 1114.66 1.76302 -5.5308 0
M  V30 11526 H 1117.42 -1.20402 -2.74451 0
M  V30 11527 H 1114.99 -0.781042 -1.41814 0
M  V30 11528 H 1116.98 1.04268 -3.91037 0
M  V30 11529 H 1115.55 1.24485 -2.86744 0
M  V30 11530 H 1114.77 -1.06064 -3.79663 0
M  V30 11531 H 1116.06 -0.912996 -5.00542 0
M  V30 11532 H 1115.45 2.26314 -5.18458 0
M  V30 11533 H 1114.01 2.25081 -6.11704 0
M  V30 11534 N 1117.44 1.42219 -0.679077 0
M  V30 11535 C 1118.69 2.01777 -0.20342 0
M  V30 11536 C 1119.02 1.53592 1.18841 0
M  V30 11537 O 1118.3 0.739954 1.79875 0
M  V30 11538 C 1118.58 3.59281 -0.242791 0
M  V30 11539 C 1118.43 4.17634 -1.67038 0
M  V30 11540 C 1119.75 4.38218 0.406624 0
M  V30 11541 H 1116.87 0.733134 -0.0753916 0
M  V30 11542 H 1119.51 1.69185 -0.864673 0
M  V30 11543 H 1117.66 3.87178 0.320248 0
M  V30 11544 H 1119.34 4.00674 -2.286 0
M  V30 11545 H 1117.58 3.73301 -2.20973 0
M  V30 11546 H 1118.25 5.26776 -1.64958 0
M  V30 11547 H 1120.73 4.16036 -0.0727077 0
M  V30 11548 H 1119.6 5.47793 0.348457 0
M  V30 11549 H 1119.86 4.16418 1.48487 0
M  V30 11550 N 1118.92 0.422693 1.51826 0
M  V30 11551 C 1120.2 -0.20786 1.94492 0
M  V30 11552 C 1120.58 -1.61414 1.36047 0
M  V30 11553 O 1119.93 -2.21987 0.541657 0
M  V30 11554 C 1120.14 -0.200457 3.48424 0
M  V30 11555 C 1121.48 -0.413199 4.22585 0
M  V30 11556 O 1122.51 -0.27922 3.55104 0
M  V30 11557 O 1121.37 -0.678469 5.42272 0
M  V30 11558 H 1118.46 -0.137851 0.81543 0
M  V30 11559 H 1121.01 0.479617 1.62781 0
M  V30 11560 H 1119.78 0.783263 3.83381 0
M  V30 11561 H 1119.4 -0.931464 3.86535 0
M  V30 11562 N 1120.4 -1.5685 0.153553 0
M  V30 11563 C 1121.68 -1.8796 -0.541328 0
M  V30 11564 C 1122.06 -1.06059 -1.82523 0
M  V30 11565 O 1121.4 -0.149295 -2.28012 0
M  V30 11566 C 1121.61 -3.39697 -0.800442 0
M  V30 11567 C 1122.96 -4.09057 -1.13832 0
M  V30 11568 O 1123.99 -3.44913 -0.889578 0
M  V30 11569 O 1122.85 -5.22347 -1.60673 0
M  V30 11570 H 1119.94 -0.779268 -0.276895 0
M  V30 11571 H 1122.49 -1.68626 0.190657 0
M  V30 11572 H 1121.26 -3.91151 0.107935 0
M  V30 11573 H 1120.88 -3.64582 -1.58638 0
M  V30 11574 N 1121.88 0.120221 -1.57141 0
M  V30 11575 C 1123.29 0.473718 -1.52408 0
M  V30 11576 C 1123.49 1.81925 -0.866354 0
M  V30 11577 O 1122.55 2.48491 -0.448173 0
M  V30 11578 C 1123.86 0.459338 -2.97171 0
M  V30 11579 C 1125.41 0.542975 -3.08254 0
M  V30 11580 C 1125.89 0.558996 -4.54576 0
M  V30 11581 N 1127.38 0.620469 -4.59026 0
M  V30 11582 C 1128.11 0.654292 -5.69655 0
M  V30 11583 N 1127.61 0.645835 -6.89783 0
M  V30 11584 N 1129.4 0.697208 -5.57759 0
M  V30 11585 H 1121.55 -0.76142 -1.98283 0
M  V30 11586 H 1123.81 -0.280736 -0.905479 0
M  V30 11587 H 1123.52 -0.461654 -3.48657 0
M  V30 11588 H 1123.39 1.28759 -3.54543 0
M  V30 11589 H 1125.78 1.45439 -2.56772 0
M  V30 11590 H 1125.86 -0.312936 -2.53879 0
M  V30 11591 H 1125.51 -0.348367 -5.06704 0
M  V30 11592 H 1125.44 1.43177 -5.06762 0
M  V30 11593 H 1127.93 0.633218 -3.72557 0
M  V30 11594 H 1128.24 0.674233 -7.69853 0
M  V30 11595 H 1126.59 0.613279 -6.92289 0
M  V30 11596 H 1129.78 0.70117 -4.62819 0
M  V30 11597 H 1129.95 0.7201 -6.43986 0
M  V30 11598 N 1123.36 1.52689 0.390367 0
M  V30 11599 C 1124.6 1.67666 1.13553 0
M  V30 11600 C 1124.93 0.415903 1.90001 0
M  V30 11601 O 1124.19 -0.601664 1.86222 0
M  V30 11602 C 1124.49 2.86177 2.14096 0
M  V30 11603 C 1124.15 4.23671 1.54316 0
M  V30 11604 C 1122.81 4.61066 1.37739 0
M  V30 11605 C 1125.17 5.09278 1.1084 0
M  V30 11606 C 1122.49 5.81727 0.76231 0
M  V30 11607 C 1124.85 6.30562 0.507433 0
M  V30 11608 C 1123.51 6.66689 0.328945 0
M  V30 11609 H 1122.78 0.613533 0.415521 0
M  V30 11610 H 1125.43 1.8683 0.420339 0
M  V30 11611 H 1123.73 2.61424 2.9183 0
M  V30 11612 H 1125.43 2.9496 2.7166 0
M  V30 11613 H 1122.02 3.94214 1.68207 0
M  V30 11614 H 1126.2 4.80957 1.2245 0
M  V30 11615 H 1121.46 6.08327 0.612208 0
M  V30 11616 H 1125.63 6.96211 0.162248 0
M  V30 11617 H 1123.26 7.60052 -0.149748 0
M  V30 11618 N 1124.83 -0.648732 1.43629 0
M  V30 11619 C 1126.08 -1.40579 1.45196 0
M  V30 11620 C 1126.4 -1.9484 0.0790556 0
M  V30 11621 O 1125.67 -1.74707 -0.886239 0
M  V30 11622 H 1124.25 -0.52175 0.53459 0
M  V30 11623 H 1126.92 -0.764796 1.79268 0
M  V30 11624 H 1126.01 -2.24591 2.16715 0
M  V30 11625 N 1126.31 -1.30234 -0.887518 0
M  V30 11626 C 1127.28 -1.16384 -1.97452 0
M  V30 11627 C 1128.28 -0.0957942 -1.60514 0
M  V30 11628 O 1129.47 -0.343706 -1.70776 0
M  V30 11629 C 1126.6 -0.782514 -3.31797 0
M  V30 11630 H 1127.79 -2.12952 -2.11167 0
M  V30 11631 H 1125.34 -1.13594 -1.07359 0
M  V30 11632 H 1126.08 0.18278 -3.23785 0
M  V30 11633 H 1125.86 -1.55434 -3.59976 0
M  V30 11634 H 1127.35 -0.709011 -4.11537 0
M  V30 11635 N 1127.79 1.09952 -1.12909 0
M  V30 11636 C 1129.02 1.8552 -0.909163 0
M  V30 11637 C 1129.43 1.81173 0.545253 0
M  V30 11638 O 1128.77 1.20223 1.38896 0
M  V30 11639 C 1128.83 3.34693 -1.31228 0
M  V30 11640 C 1128.5 3.62794 -2.77902 0
M  V30 11641 C 1129.49 3.58973 -3.76078 0
M  V30 11642 C 1127.18 3.91311 -3.1493 0
M  V30 11643 C 1129.17 3.83271 -5.09296 0
M  V30 11644 C 1126.86 4.15265 -4.48328 0
M  V30 11645 C 1127.86 4.11236 -5.4532 0
M  V30 11646 O 1127.55 4.34576 -6.76313 0
M  V30 11647 H 1127.28 0.59303 -0.324486 0
M  V30 11648 H 1129.83 1.39878 -1.5041 0
M  V30 11649 H 1128.06 3.81016 -0.660573 0
M  V30 11650 H 1129.75 3.9166 -1.06569 0
M  V30 11651 H 1130.52 3.36974 -3.48817 0
M  V30 11652 H 1126.4 3.93575 -2.40041 0
M  V30 11653 H 1129.94 3.80041 -5.84991 0
M  V30 11654 H 1125.84 4.36743 -4.75316 0
M  V30 11655 H 1126.61 4.52065 -6.82334 0
M  V30 11656 N 1129.27 0.921757 1.27833 0
M  V30 11657 C 1130.51 0.559906 1.94918 0
M  V30 11658 C 1130.85 -0.895532 1.72319 0
M  V30 11659 O 1130.12 -1.638 1.04879 0
M  V30 11660 C 1130.41 0.879458 3.49196 0
M  V30 11661 C 1130.26 2.38821 3.81162 0
M  V30 11662 C 1131.58 0.381183 4.38446 0
M  V30 11663 H 1128.7 0.204893 0.707946 0
M  V30 11664 H 1131.34 1.15246 1.51058 0
M  V30 11665 H 1129.49 0.375177 3.86684 0
M  V30 11666 H 1131.16 2.96373 3.53498 0
M  V30 11667 H 1129.4 2.83988 3.27923 0
M  V30 11668 H 1130.07 2.56234 4.88926 0
M  V30 11669 H 1132.55 0.813289 4.08075 0
M  V30 11670 H 1131.43 0.633778 5.45229 0
M  V30 11671 H 1131.69 -0.718651 4.3622 0
M  V30 11672 N 1130.75 -1.41857 0.686609 0
M  V30 11673 C 1131.71 -2.29187 0.0247022 0
M  V30 11674 C 1132.71 -1.43926 -0.717069 0
M  V30 11675 O 1133.9 -1.65179 -0.5533 0
M  V30 11676 C 1131.03 -3.26644 -0.975537 0
M  V30 11677 H 1132.22 -2.89212 0.793503 0
M  V30 11678 H 1129.78 -1.49694 0.449605 0
M  V30 11679 H 1130.51 -2.7158 -1.77242 0
M  V30 11680 H 1130.3 -3.89545 -0.446892 0
M  V30 11681 H 1131.79 -3.92107 -1.43673 0
M  V30 11682 N 1132.22 -0.430739 -1.51599 0
M  V30 11683 C 1133.46 0.137184 -2.03939 0
M  V30 11684 C 1133.83 1.40533 -1.30823 0
M  V30 11685 O 1135.03 2.05307 -1.73501 0
M  V30 11686 C 1133.3 0.357395 -3.55609 0
M  V30 11687 S 1134.86 0.889669 -4.29686 0
M  V30 11688 H 1131.68 0.0349429 -0.710141 0
M  V30 11689 H 1134.28 -0.588628 -1.86428 0
M  V30 11690 H 1132.98 -0.572011 -4.06394 0
M  V30 11691 H 1132.51 1.11047 -3.77402 0
M  V30 11692 H 1134.53 2.16797 -4.46333 0
M  V30 11693 N 1133.7 1.56767 -0.161869 0
M  V30 11694 C 1134.67 2.16299 0.758104 0
M  V30 11695 C 1135.67 1.10859 1.16478 0
M  V30 11696 O 1136.86 1.36422 1.08327 0
M  V30 11697 C 1133.99 2.73819 2.03067 0
M  V30 11698 H 1135.18 2.98938 0.239992 0
M  V30 11699 H 1132.73 1.56054 0.0876532 0
M  V30 11700 H 1133.47 1.94887 2.59209 0
M  V30 11701 H 1133.25 3.50974 1.74813 0
M  V30 11702 H 1134.74 3.19638 2.68741 0
M  V30 11703 N 1135.18 -0.111886 1.57202 0
M  V30 11704 C 1136.41 -0.836317 1.89791 0
M  V30 11705 C 1136.83 -1.72304 0.754513 0
M  V30 11706 O 1136.19 -1.78889 -0.294672 0
M  V30 11707 C 1136.24 -1.63971 3.21164 0
M  V30 11708 O 1135.34 -2.74726 3.0757 0
M  V30 11709 H 1134.68 -0.230833 0.622585 0
M  V30 11710 H 1137.21 -0.0921478 2.04392 0
M  V30 11711 H 1137.22 -2.02746 3.54059 0
M  V30 11712 H 1135.9 -0.98882 4.03974 0
M  V30 11713 H 1134.47 -2.39101 2.86156 0
M  V30 11714 N 1136.66 -1.52894 -0.382264 0
M  V30 11715 C 1137.59 -1.81122 -1.47367 0
M  V30 11716 C 1138.57 -0.663653 -1.56619 0
M  V30 11717 O 1139.75 -0.911898 -1.71459 0
M  V30 11718 C 1136.88 -1.98615 -2.84902 0
M  V30 11719 C 1135.84 -3.14328 -2.90485 0
M  V30 11720 C 1135.16 -3.17086 -4.30535 0
M  V30 11721 C 1136.46 -4.53263 -2.59519 0
M  V30 11722 H 1138.16 -2.72518 -1.23993 0
M  V30 11723 H 1135.7 -1.3113 -0.595049 0
M  V30 11724 H 1137.66 -2.16946 -3.61265 0
M  V30 11725 H 1136.38 -1.03915 -3.09628 0
M  V30 11726 H 1135.04 -2.95791 -2.16572 0
M  V30 11727 H 1134.69 -2.20055 -4.52311 0
M  V30 11728 H 1134.39 -3.94821 -4.3519 0
M  V30 11729 H 1135.91 -3.3758 -5.08795 0
M  V30 11730 H 1137.33 -4.71867 -3.25598 0
M  V30 11731 H 1135.72 -5.33115 -2.75514 0
M  V30 11732 H 1136.79 -4.59516 -1.54831 0
M  V30 11733 N 1138.14 0.641106 -1.43971 0
M  V30 11734 C 1139.38 1.40291 -1.46445 0
M  V30 11735 C 1139.72 1.93978 -0.0929004 0
M  V30 11736 O 1138.99 1.73043 0.888043 0
M  V30 11737 C 1139.27 2.57551 -2.51673 0
M  V30 11738 C 1139.13 2.09279 -3.98149 0
M  V30 11739 C 1140.45 3.59752 -2.53508 0
M  V30 11740 H 1137.57 0.508771 -0.533218 0
M  V30 11741 H 1140.21 0.725767 -1.75592 0
M  V30 11742 H 1138.36 3.15319 -2.2695 0
M  V30 11743 H 1140.03 1.56418 -4.33971 0
M  V30 11744 H 1138.27 1.40545 -4.10402 0
M  V30 11745 H 1138.94 2.93655 -4.67409 0
M  V30 11746 H 1141.42 3.11766 -2.75574 0
M  V30 11747 H 1140.3 4.39332 -3.29057 0
M  V30 11748 H 1140.56 4.13156 -1.57335 0
M  V30 11749 N 1139.62 1.30703 0.880598 0
M  V30 11750 C 1140.86 1.19778 1.63277 0
M  V30 11751 C 1141.19 -0.246521 1.92931 0
M  V30 11752 O 1140.45 -1.19226 1.55189 0
M  V30 11753 C 1140.74 1.97628 2.97789 0
M  V30 11754 C 1140.41 3.47213 2.87669 0
M  V30 11755 C 1139.07 3.88004 2.84617 0
M  V30 11756 C 1141.42 4.4245 2.75477 0
M  V30 11757 C 1138.75 5.22315 2.67216 0
M  V30 11758 C 1141.1 5.76874 2.59614 0
M  V30 11759 C 1139.77 6.16898 2.54939 0
M  V30 11760 H 1139.04 0.438298 0.597475 0
M  V30 11761 H 1141.69 1.61853 1.02352 0
M  V30 11762 H 1139.99 1.48201 3.6269 0
M  V30 11763 H 1141.69 1.86563 3.54958 0
M  V30 11764 H 1138.28 3.14802 2.90857 0
M  V30 11765 H 1142.46 4.11875 2.76899 0
M  V30 11766 H 1137.72 5.52412 2.62014 0
M  V30 11767 H 1141.89 6.50304 2.49155 0
M  V30 11768 H 1139.52 7.20916 2.41214 0
M  V30 11769 N 1141.09 -1.09351 1.1349 0
M  V30 11770 C 1142.02 -2.18037 0.835588 0
M  V30 11771 C 1143 -1.68856 -0.205373 0
M  V30 11772 O 1144.19 -1.94094 -0.0641357 0
M  V30 11773 C 1141.32 -3.45987 0.301661 0
M  V30 11774 C 1140.27 -4.08507 1.27696 0
M  V30 11775 C 1139.6 -5.31292 0.602758 0
M  V30 11776 C 1140.9 -4.50916 2.63575 0
M  V30 11777 H 1142.59 -2.43332 1.74441 0
M  V30 11778 H 1140.14 -1.1695 0.840166 0
M  V30 11779 H 1142.09 -4.21324 0.079928 0
M  V30 11780 H 1140.82 -3.20217 -0.642552 0
M  V30 11781 H 1139.48 -3.3519 1.4847 0
M  V30 11782 H 1139.12 -5.01802 -0.346953 0
M  V30 11783 H 1138.82 -5.74075 1.25345 0
M  V30 11784 H 1140.35 -6.09351 0.390325 0
M  V30 11785 H 1141.76 -5.17474 2.46765 0
M  V30 11786 H 1140.16 -5.04586 3.24827 0
M  V30 11787 H 1141.23 -3.63279 3.2118 0
M  V30 11788 N 1142.57 -0.928524 -1.27343 0
M  V30 11789 C 1143.82 -0.569392 -1.9433 0
M  V30 11790 C 1144.15 0.889481 -1.7297 0
M  V30 11791 O 1143.4 1.6499 -1.05247 0
M  V30 11792 C 1143.7 -0.84269 -3.47323 0
M  V30 11793 C 1143.37 -2.28344 -3.88806 0
M  V30 11794 C 1142.03 -2.67731 -3.99842 0
M  V30 11795 C 1144.38 -3.22031 -4.09811 0
M  V30 11796 C 1141.71 -3.99928 -4.29272 0
M  V30 11797 C 1144.06 -4.5381 -4.40725 0
M  V30 11798 C 1142.72 -4.93031 -4.49975 0
M  V30 11799 H 1141.99 -0.208355 -0.711104 0
M  V30 11800 H 1144.64 -1.17264 -1.51398 0
M  V30 11801 H 1142.95 -0.156775 -3.91486 0
M  V30 11802 H 1144.64 -0.543779 -3.97296 0
M  V30 11803 H 1141.23 -1.96787 -3.80753 0
M  V30 11804 H 1145.42 -2.92803 -4.00724 0
M  V30 11805 H 1140.67 -4.29996 -4.34642 0
M  V30 11806 H 1144.85 -5.26407 -4.55926 0
M  V30 11807 H 1142.47 -5.95497 -4.72533 0
M  V30 11808 N 1144.05 1.41491 -0.694123 0
M  V30 11809 C 1145.3 2.00479 -0.221585 0
M  V30 11810 C 1145.61 1.55605 1.18518 0
M  V30 11811 O 1146.82 2.07143 1.7551 0
M  V30 11812 C 1145.27 3.5824 -0.345264 0
M  V30 11813 C 1144.88 4.12096 -1.7573 0
M  V30 11814 C 1146.63 4.24446 0.0675731 0
M  V30 11815 C 1144.53 5.62286 -1.83271 0
M  V30 11816 H 1143.46 0.749841 -0.0790854 0
M  V30 11817 H 1146.11 1.61987 -0.86211 0
M  V30 11818 H 1144.5 3.94328 0.363487 0
M  V30 11819 H 1145.67 3.8743 -2.49469 0
M  V30 11820 H 1143.98 3.58411 -2.11969 0
M  V30 11821 H 1146.58 5.34691 0.0316485 0
M  V30 11822 H 1146.92 4.01338 1.10606 0
M  V30 11823 H 1147.46 3.93388 -0.59085 0
M  V30 11824 H 1144.2 5.9022 -2.85168 0
M  V30 11825 H 1143.72 5.88883 -1.13914 0
M  V30 11826 H 1145.4 6.27033 -1.59494 0
M  V30 11827 N 1145.53 0.438773 1.51369 0
M  V30 11828 C 1146.77 -0.126367 2.04009 0
M  V30 11829 C 1147.13 -1.39837 1.31566 0
M  V30 11830 O 1148.33 -2.04384 1.74587 0
M  V30 11831 C 1146.6 -0.338531 3.55793 0
M  V30 11832 S 1148.16 -0.866869 4.30152 0
M  V30 11833 H 1144.98 -0.0311763 0.710316 0
M  V30 11834 H 1147.58 0.598507 1.86113 0
M  V30 11835 H 1146.29 0.593555 4.06085 0
M  V30 11836 H 1145.82 -1.09044 3.77985 0
M  V30 11837 H 1147.83 -2.14427 4.47477 0
M  V30 11838 N 1147.01 -1.56678 0.170181 0
M  V30 11839 C 1148.25 -1.96849 -0.475064 0
M  V30 11840 C 1148.58 -1.05611 -1.6333 0
M  V30 11841 O 1147.84 -0.0899708 -1.95493 0
M  V30 11842 C 1148.13 -3.43103 -1.00076 0
M  V30 11843 C 1147.8 -4.50881 0.0414538 0
M  V30 11844 C 1146.46 -4.80082 0.327894 0
M  V30 11845 C 1148.81 -5.15791 0.748936 0
M  V30 11846 C 1146.14 -5.71491 1.32722 0
M  V30 11847 C 1148.49 -6.08278 1.73724 0
M  V30 11848 C 1147.16 -6.35847 2.03114 0
M  V30 11849 H 1146.43 -0.72032 -0.173838 0
M  V30 11850 H 1149.08 -1.89701 0.261903 0
M  V30 11851 H 1147.38 -3.47197 -1.81553 0
M  V30 11852 H 1149.08 -3.71525 -1.50899 0
M  V30 11853 H 1145.67 -4.2817 -0.191976 0
M  V30 11854 H 1149.85 -4.93344 0.540852 0
M  V30 11855 H 1145.11 -5.91134 1.56112 0
M  V30 11856 H 1149.28 -6.57643 2.29082 0
M  V30 11857 H 1146.91 -7.06479 2.80698 0
M  V30 11858 N 1148.48 0.103547 -1.57259 0
M  V30 11859 C 1149.73 0.809774 -1.85931 0
M  V30 11860 C 1150.06 1.78791 -0.758122 0
M  V30 11861 O 1149.34 1.93079 0.234682 0
M  V30 11862 C 1149.62 1.54601 -3.25224 0
M  V30 11863 C 1149.47 0.586439 -4.45961 0
M  V30 11864 C 1150.79 2.4986 -3.62296 0
M  V30 11865 H 1147.91 0.29293 -0.676285 0
M  V30 11866 H 1150.55 0.0736065 -1.89857 0
M  V30 11867 H 1148.7 2.17355 -3.22008 0
M  V30 11868 H 1150.38 -0.0334441 -4.61288 0
M  V30 11869 H 1148.62 -0.10085 -4.33683 0
M  V30 11870 H 1149.29 1.13855 -5.40131 0
M  V30 11871 H 1151.77 1.97203 -3.66402 0
M  V30 11872 H 1150.64 2.98396 -4.60707 0
M  V30 11873 H 1150.9 3.33233 -2.90531 0
M  V30 11874 N 1149.96 1.53094 0.37415 0
M  V30 11875 C 1150.89 1.75199 1.47776 0
M  V30 11876 C 1151.91 0.632627 1.50006 0
M  V30 11877 O 1153.1 0.908688 1.5364 0
M  V30 11878 C 1150.2 1.80909 2.86575 0
M  V30 11879 C 1149.37 3.10432 3.08141 0
M  V30 11880 C 1148.43 3.07495 4.27005 0
M  V30 11881 O 1147.45 3.81319 4.22592 0
M  V30 11882 N 1148.66 2.27715 5.33972 0
M  V30 11883 H 1151.42 2.70423 1.29196 0
M  V30 11884 H 1148.98 1.51766 0.563802 0
M  V30 11885 H 1150.97 1.76432 3.64217 0
M  V30 11886 H 1149.54 0.930074 2.98443 0
M  V30 11887 H 1148.76 3.2828 2.18233 0
M  V30 11888 H 1150.05 3.96047 3.19413 0
M  V30 11889 H 1149.45 1.67231 5.40417 0
M  V30 11890 H 1148.01 2.29065 6.10223 0
M  V30 11891 N 1151.44 -0.633461 1.44309 0
M  V30 11892 C 1152.69 -1.38902 1.4625 0
M  V30 11893 C 1153 -1.95354 0.0980699 0
M  V30 11894 O 1154.21 -2.715 -0.0049983 0
M  V30 11895 C 1152.66 -2.51477 2.57463 0
M  V30 11896 C 1152.27 -2.01549 4.00103 0
M  V30 11897 C 1154.02 -3.28698 2.68622 0
M  V30 11898 C 1151.92 -3.11452 5.02744 0
M  V30 11899 H 1150.85 -0.521976 0.544112 0
M  V30 11900 H 1153.5 -0.681725 1.70367 0
M  V30 11901 H 1151.89 -3.24771 2.26582 0
M  V30 11902 H 1153.06 -1.35135 4.4054 0
M  V30 11903 H 1151.37 -1.3715 3.93165 0
M  V30 11904 H 1153.97 -4.10624 3.42479 0
M  V30 11905 H 1154.31 -3.78027 1.7436 0
M  V30 11906 H 1154.85 -2.62494 2.98901 0
M  V30 11907 H 1151.59 -2.6707 5.98627 0
M  V30 11908 H 1151.11 -3.76514 4.66902 0
M  V30 11909 H 1152.79 -3.76265 5.2634 0
M  V30 11910 N 1152.92 -1.31168 -0.873655 0
M  V30 11911 C 1154.15 -1.23595 -1.65927 0
M  V30 11912 C 1154.56 0.199349 -1.87745 0
M  V30 11913 O 1153.92 1.13013 -1.43298 0
M  V30 11914 C 1153.97 -1.97268 -3.02932 0
M  V30 11915 O 1153.69 -3.35196 -2.82091 0
M  V30 11916 C 1155.19 -1.9649 -3.97374 0
M  V30 11917 H 1152.41 -0.427228 -0.517414 0
M  V30 11918 H 1154.96 -1.72983 -1.09074 0
M  V30 11919 H 1153.11 -1.51651 -3.56484 0
M  V30 11920 H 1153.52 -3.7266 -3.69087 0
M  V30 11921 H 1155 -2.52557 -4.90835 0
M  V30 11922 H 1155.48 -0.946525 -4.28879 0
M  V30 11923 H 1156.08 -2.4197 -3.49758 0
M  V30 11924 N 1154.4 1.08748 -1.14068 0
M  V30 11925 C 1155.65 1.8044 -0.901352 0
M  V30 11926 C 1155.96 1.86995 0.573791 0
M  V30 11927 O 1157.16 2.55065 0.930275 0
M  V30 11928 C 1155.62 3.24185 -1.56308 0
M  V30 11929 C 1155.23 3.25875 -3.07424 0
M  V30 11930 C 1156.97 4.00584 -1.40473 0
M  V30 11931 C 1154.88 4.64186 -3.66449 0
M  V30 11932 H 1153.81 0.676201 -0.333569 0
M  V30 11933 H 1156.46 1.22169 -1.3692 0
M  V30 11934 H 1154.84 3.82561 -1.0229 0
M  V30 11935 H 1156.02 2.77225 -3.6808 0
M  V30 11936 H 1154.33 2.62969 -3.22856 0
M  V30 11937 H 1156.93 5.02781 -1.81976 0
M  V30 11938 H 1157.27 4.14823 -0.350408 0
M  V30 11939 H 1157.8 3.48668 -1.91508 0
M  V30 11940 H 1154.54 4.5515 -4.71719 0
M  V30 11941 H 1154.06 5.13132 -3.10574 0
M  V30 11942 H 1155.74 5.33161 -3.66536 0
M  V30 11943 N 1155.87 0.935264 1.26849 0
M  V30 11944 C 1157.12 0.580548 1.94313 0
M  V30 11945 C 1157.45 -0.877205 1.73259 0
M  V30 11946 O 1156.73 -1.62679 1.06611 0
M  V30 11947 C 1157.01 0.916445 3.48243 0
M  V30 11948 C 1156.86 2.42851 3.78607 0
M  V30 11949 C 1158.18 0.427665 4.38017 0
M  V30 11950 H 1155.3 0.21239 0.705733 0
M  V30 11951 H 1157.94 1.16841 1.49827 0
M  V30 11952 H 1156.09 0.416169 3.86265 0
M  V30 11953 H 1157.77 3.00106 3.50335 0
M  V30 11954 H 1156.01 2.8745 3.24892 0
M  V30 11955 H 1156.68 2.61405 4.8618 0
M  V30 11956 H 1159.16 0.856525 4.07189 0
M  V30 11957 H 1158.03 0.691571 5.44526 0
M  V30 11958 H 1158.29 -0.672344 4.36958 0
M  V30 11959 N 1157.35 -1.41121 0.701616 0
M  V30 11960 C 1158.76 -1.84122 0.309208 0
M  V30 11961 C 1159.11 -1.58695 -1.15371 0
M  V30 11962 O 1158.24 -1.06053 -1.88631 0
M  V30 11963 C 1158.83 -3.34233 0.554429 0
M  V30 11964 C 1157.39 -3.7578 0.215876 0
M  V30 11965 C 1156.54 -2.6447 0.833729 0
M  V30 11966 H 1159.49 -1.30587 0.901822 0
M  V30 11967 H 1159.51 -3.8005 -0.18491 0
M  V30 11968 H 1159.02 -3.52707 1.61923 0
M  V30 11969 H 1157.13 -3.62905 -0.844421 0
M  V30 11970 H 1157.24 -4.74319 0.675118 0
M  V30 11971 H 1155.6 -2.5334 0.262851 0
M  V30 11972 H 1156.39 -2.85761 1.90252 0
M  V30 11973 N 1158.83 -0.446794 -1.51134 0
M  V30 11974 C 1159.78 0.378002 -2.24845 0
M  V30 11975 C 1160.76 0.982126 -1.27448 0
M  V30 11976 O 1161.96 0.8987 -1.52487 0
M  V30 11977 C 1159.09 1.4733 -3.10079 0
M  V30 11978 C 1158.17 0.878102 -4.1491 0
M  V30 11979 N 1158.56 0.0129452 -5.05798 0
M  V30 11980 C 1156.86 1.14468 -4.3106 0
M  V30 11981 C 1157.56 -0.322333 -5.80806 0
M  V30 11982 N 1156.54 0.296438 -5.42791 0
M  V30 11983 H 1160.34 -0.28885 -2.92477 0
M  V30 11984 H 1157.85 -0.259439 -1.60314 0
M  V30 11985 H 1159.85 2.07713 -3.6147 0
M  V30 11986 H 1158.51 2.14239 -2.43992 0
M  V30 11987 H 1159.52 -0.354177 -5.16688 0
M  V30 11988 H 1156.2 1.81056 -3.76198 0
M  V30 11989 H 1157.59 -1.02693 -6.64006 0
M  V30 11990 N 1160.31 1.56586 -0.178487 0
M  V30 11991 C 1161.53 2.01915 0.473841 0
M  V30 11992 C 1161.96 1.05789 1.55533 0
M  V30 11993 O 1161.32 0.0386018 1.81259 0
M  V30 11994 C 1161.36 3.45799 1.02251 0
M  V30 11995 O 1160.47 3.52761 2.1362 0
M  V30 11996 H 1159.81 0.654372 0.112666 0
M  V30 11997 H 1162.34 2.02613 -0.284486 0
M  V30 11998 H 1162.35 3.85252 1.34332 0
M  V30 11999 H 1161.02 4.1526 0.230719 0
M  V30 12000 H 1159.6 3.25172 1.8253 0
M  V30 12001 N 1161.79 -0.095206 1.57312 0
M  V30 12002 C 1163.04 -0.797417 1.85268 0
M  V30 12003 C 1163.35 -1.79903 0.767733 0
M  V30 12004 O 1164.55 -2.54914 0.934409 0
M  V30 12005 C 1163.01 -1.469 3.28555 0
M  V30 12006 C 1162.62 -0.507152 4.4512 0
M  V30 12007 C 1164.36 -2.15494 3.65735 0
M  V30 12008 C 1162.27 -1.18331 5.79441 0
M  V30 12009 H 1161.2 -0.301552 0.691074 0
M  V30 12010 H 1163.85 -0.0503584 1.83431 0
M  V30 12011 H 1162.23 -2.26351 3.24933 0
M  V30 12012 H 1163.41 0.255858 4.60089 0
M  V30 12013 H 1161.72 0.0730882 4.16336 0
M  V30 12014 H 1164.32 -2.66816 4.63371 0
M  V30 12015 H 1164.66 -2.94383 2.94354 0
M  V30 12016 H 1165.19 -1.42903 3.71246 0
M  V30 12017 H 1161.93 -0.435238 6.54053 0
M  V30 12018 H 1161.45 -1.91775 5.68315 0
M  V30 12019 H 1163.13 -1.70983 6.23998 0
M  V30 12020 N 1163.26 -1.53291 -0.366026 0
M  V30 12021 C 1164.51 -1.69451 -1.10872 0
M  V30 12022 C 1164.84 -0.446078 -1.89316 0
M  V30 12023 O 1164.09 0.571962 -1.87155 0
M  V30 12024 C 1164.39 -2.89547 -2.09517 0
M  V30 12025 C 1164.06 -4.26073 -1.47556 0
M  V30 12026 C 1162.72 -4.63199 -1.30386 0
M  V30 12027 C 1165.07 -5.10977 -1.02724 0
M  V30 12028 C 1162.4 -5.82866 -0.669666 0
M  V30 12029 C 1164.75 -6.31289 -0.407052 0
M  V30 12030 C 1163.42 -6.67128 -0.222839 0
M  V30 12031 H 1162.69 -0.620066 -0.405708 0
M  V30 12032 H 1165.33 -1.87475 -0.390563 0
M  V30 12033 H 1163.64 -2.66034 -2.87634 0
M  V30 12034 H 1165.34 -2.99245 -2.66933 0
M  V30 12035 H 1161.93 -3.9684 -1.61914 0
M  V30 12036 H 1166.11 -4.82844 -1.14783 0
M  V30 12037 H 1161.37 -6.09224 -0.515351 0
M  V30 12038 H 1165.54 -6.96381 -0.0514661 0
M  V30 12039 H 1163.17 -7.59718 0.270647 0
M  V30 12040 N 1164.74 0.6258 -1.44643 0
M  V30 12041 C 1165.68 1.75056 -1.46392 0
M  V30 12042 C 1166.65 1.59376 -0.322179 0
M  V30 12043 O 1167.84 1.81187 -0.519956 0
M  V30 12044 C 1164.96 3.12689 -1.30166 0
M  V30 12045 C 1164.01 3.47005 -2.47972 0
M  V30 12046 S 1164.84 3.43885 -4.10491 0
M  V30 12047 C 1166 4.84129 -3.96698 0
M  V30 12048 H 1166.23 1.73306 -2.41562 0
M  V30 12049 H 1163.77 0.800879 -1.32005 0
M  V30 12050 H 1165.72 3.9211 -1.21492 0
M  V30 12051 H 1164.38 3.11972 -0.364982 0
M  V30 12052 H 1163.58 4.47171 -2.32496 0
M  V30 12053 H 1163.18 2.75059 -2.53414 0
M  V30 12054 H 1165.47 5.73488 -3.60718 0
M  V30 12055 H 1166.41 5.0466 -4.96713 0
M  V30 12056 H 1166.82 4.58954 -3.28666 0
M  V30 12057 N 1166.22 1.31629 0.866686 0
M  V30 12058 C 1167.15 1.22151 1.99001 0
M  V30 12059 C 1168.13 0.107972 1.69757 0
M  V30 12060 O 1169.32 0.293125 1.91975 0
M  V30 12061 C 1166.45 0.93144 3.34577 0
M  V30 12062 C 1165.4 2.0049 3.78137 0
M  V30 12063 C 1164.73 1.56747 5.11209 0
M  V30 12064 C 1166.03 3.41844 3.94892 0
M  V30 12065 H 1167.72 2.16132 2.0719 0
M  V30 12066 H 1165.27 1.04051 0.995463 0
M  V30 12067 H 1167.22 0.851719 4.12703 0
M  V30 12068 H 1165.94 -0.0440289 3.2657 0
M  V30 12069 H 1164.6 2.07457 3.02253 0
M  V30 12070 H 1164.25 0.579767 4.99648 0
M  V30 12071 H 1163.95 2.28562 5.41326 0
M  V30 12072 H 1165.47 1.50188 5.91841 0
M  V30 12073 H 1166.89 3.37534 4.63405 0
M  V30 12074 H 1165.29 4.11905 4.36411 0
M  V30 12075 H 1166.36 3.82389 2.98172 0
M  V30 12076 N 1167.7 -1.08142 1.14644 0
M  V30 12077 C 1168.92 -1.84857 0.940349 0
M  V30 12078 C 1169.35 -1.81163 -0.506117 0
M  V30 12079 O 1168.71 -1.19869 -1.36019 0
M  V30 12080 C 1168.76 -3.30198 1.4492 0
M  V30 12081 O 1167.86 -4.07355 0.64308 0
M  V30 12082 H 1167.2 -0.572711 0.336003 0
M  V30 12083 H 1169.73 -1.36475 1.52432 0
M  V30 12084 H 1169.74 -3.81039 1.45854 0
M  V30 12085 H 1168.42 -3.32202 2.50229 0
M  V30 12086 H 1166.99 -3.66219 0.702698 0
M  V30 12087 N 1169.18 -0.941978 -1.26351 0
M  V30 12088 C 1170.42 -0.589971 -1.93715 0
M  V30 12089 C 1170.75 0.871085 -1.73903 0
M  V30 12090 O 1170.01 1.63864 -1.06991 0
M  V30 12091 C 1170.31 -0.879481 -3.4641 0
M  V30 12092 C 1169.97 -2.32454 -3.86362 0
M  V30 12093 C 1168.63 -2.71957 -3.9698 0
M  V30 12094 C 1170.99 -3.2636 -4.06373 0
M  V30 12095 C 1168.31 -4.04459 -4.25006 0
M  V30 12096 C 1170.67 -4.58459 -4.35887 0
M  V30 12097 C 1169.33 -4.97775 -4.4472 0
M  V30 12098 H 1168.6 -0.215886 -0.708854 0
M  V30 12099 H 1171.25 -1.18863 -1.50146 0
M  V30 12100 H 1169.55 -0.198289 -3.91298 0
M  V30 12101 H 1171.25 -0.585887 -3.96697 0
M  V30 12102 H 1167.84 -2.00814 -3.78645 0
M  V30 12103 H 1172.02 -2.97037 -3.97596 0
M  V30 12104 H 1167.28 -4.34582 -4.30057 0
M  V30 12105 H 1171.45 -5.31213 -4.50317 0
M  V30 12106 H 1169.08 -6.00475 -4.66191 0
M  V30 12107 N 1170.66 1.40747 -0.709091 0
M  V30 12108 C 1171.89 2.05022 -0.254887 0
M  V30 12109 C 1172.29 1.5351 1.10595 0
M  V30 12110 O 1171.64 0.683912 1.70494 0
M  V30 12111 C 1171.7 3.59188 -0.149823 0
M  V30 12112 C 1171.36 4.33557 -1.44489 0
M  V30 12113 C 1172.36 4.61941 -2.3855 0
M  V30 12114 C 1170.04 4.72585 -1.70201 0
M  V30 12115 C 1172.04 5.2833 -3.56575 0
M  V30 12116 C 1169.73 5.38707 -2.88509 0
M  V30 12117 C 1170.72 5.66509 -3.81518 0
M  V30 12118 O 1170.41 6.31267 -4.97752 0
M  V30 12119 H 1170.14 0.666405 -0.113493 0
M  V30 12120 H 1172.7 1.81261 -0.966099 0
M  V30 12121 H 1170.93 3.81742 0.617276 0
M  V30 12122 H 1172.62 4.05008 0.268965 0
M  V30 12123 H 1173.38 4.32259 -2.19947 0
M  V30 12124 H 1169.26 4.50318 -0.986628 0
M  V30 12125 H 1172.81 5.49947 -4.2919 0
M  V30 12126 H 1168.7 5.67809 -3.07023 0
M  V30 12127 H 1169.47 6.49764 -4.97745 0
M  V30 12128 N 1172.13 0.454803 1.50895 0
M  V30 12129 C 1173.06 -0.337982 2.31041 0
M  V30 12130 C 1174.04 -1.00523 1.37219 0
M  V30 12131 O 1175.23 -1.00553 1.66141 0
M  V30 12132 C 1172.36 -1.42964 3.1651 0
M  V30 12133 C 1171.31 -0.884907 4.18752 0
M  V30 12134 C 1170.64 -2.07363 4.92854 0
M  V30 12135 C 1171.94 0.0926716 5.22218 0
M  V30 12136 H 1173.63 0.33089 2.97566 0
M  V30 12137 H 1171.18 0.160577 1.43102 0
M  V30 12138 H 1173.13 -1.9916 3.71367 0
M  V30 12139 H 1171.86 -2.12705 2.47839 0
M  V30 12140 H 1170.52 -0.345031 3.64973 0
M  V30 12141 H 1170.16 -2.75764 4.2067 0
M  V30 12142 H 1169.86 -1.71545 5.62002 0
M  V30 12143 H 1171.39 -2.6408 5.5054 0
M  V30 12144 H 1172.8 -0.379568 5.72042 0
M  V30 12145 H 1171.2 0.3643 5.98993 0
M  V30 12146 H 1172.27 1.02383 4.73968 0
M  V30 12147 N 1173.61 -1.56489 0.186789 0
M  V30 12148 C 1174.84 -2.01722 -0.459993 0
M  V30 12149 C 1175.25 -1.06697 -1.5576 0
M  V30 12150 O 1174.61 -0.0704212 -1.82364 0
M  V30 12151 C 1174.66 -3.46693 -1.02401 0
M  V30 12152 O 1174.38 -4.3809 0.0297916 0
M  V30 12153 C 1175.88 -4.07403 -1.7475 0
M  V30 12154 H 1173.1 -0.660845 -0.116298 0
M  V30 12155 H 1175.65 -2.02389 0.293059 0
M  V30 12156 H 1173.8 -3.46752 -1.72749 0
M  V30 12157 H 1174.22 -5.23057 -0.388821 0
M  V30 12158 H 1175.69 -5.10718 -2.09455 0
M  V30 12159 H 1176.17 -3.50383 -2.64818 0
M  V30 12160 H 1176.77 -4.11093 -1.09007 0
M  V30 12161 N 1175.09 0.086862 -1.5736 0
M  V30 12162 C 1176.33 0.794358 -1.88333 0
M  V30 12163 C 1176.69 1.75496 -0.778783 0
M  V30 12164 O 1177.89 2.50643 -0.971152 0
M  V30 12165 C 1176.17 1.49686 -3.24544 0
M  V30 12166 S 1177.72 2.2415 -3.7723 0
M  V30 12167 H 1174.54 0.264479 -0.659979 0
M  V30 12168 H 1177.14 0.0511046 -1.95433 0
M  V30 12169 H 1175.85 0.783713 -4.02847 0
M  V30 12170 H 1175.38 2.27984 -3.20604 0
M  V30 12171 H 1177.39 3.50426 -3.51306 0
M  V30 12172 N 1176.57 1.53483 0.357892 0
M  V30 12173 C 1177.79 1.74264 1.12458 0
M  V30 12174 C 1178.22 0.473944 1.82031 0
M  V30 12175 O 1177.58 -0.57253 1.72023 0
M  V30 12176 C 1177.62 2.91356 2.12471 0
M  V30 12177 O 1176.73 2.60502 3.19707 0
M  V30 12178 H 1176.07 0.578499 0.325937 0
M  V30 12179 H 1178.6 2.00395 0.412666 0
M  V30 12180 H 1178.61 3.1774 2.5594 0
M  V30 12181 H 1177.28 3.83378 1.61226 0
M  V30 12182 H 1175.86 2.44961 2.81156 0
M  V30 12183 N 1178.05 -0.61812 1.44973 0
M  V30 12184 C 1178.98 -1.74035 1.55673 0
M  V30 12185 C 1179.96 -1.65112 0.4089 0
M  V30 12186 O 1181.14 -1.83673 0.630698 0
M  V30 12187 C 1178.27 -3.1261 1.51303 0
M  V30 12188 C 1177.23 -3.36334 2.64696 0
M  V30 12189 C 1176.55 -4.75072 2.45378 0
M  V30 12190 C 1177.85 -3.27618 4.06772 0
M  V30 12191 H 1179.55 -1.65336 2.49608 0
M  V30 12192 H 1177.09 -0.794003 1.20132 0
M  V30 12193 H 1179.04 -3.90906 1.57388 0
M  V30 12194 H 1177.77 -3.22123 0.538914 0
M  V30 12195 H 1176.43 -2.60423 2.58022 0
M  V30 12196 H 1176.08 -4.81306 1.46129 0
M  V30 12197 H 1175.78 -4.91903 3.21412 0
M  V30 12198 H 1177.3 -5.55582 2.53301 0
M  V30 12199 H 1178.71 -3.95802 4.14746 0
M  V30 12200 H 1177.11 -3.55981 4.83113 0
M  V30 12201 H 1178.18 -2.25219 4.29423 0
M  V30 12202 N 1179.52 -1.32087 -0.859693 0
M  V30 12203 C 1180.45 -1.23204 -1.98351 0
M  V30 12204 C 1181.43 -0.116974 -1.69697 0
M  V30 12205 O 1182.62 -0.303301 -1.91817 0
M  V30 12206 C 1179.75 -0.949171 -3.34078 0
M  V30 12207 C 1178.7 -2.02493 -3.77069 0
M  V30 12208 C 1178.03 -1.59455 -5.1037 0
M  V30 12209 C 1179.33 -3.43934 -3.93074 0
M  V30 12210 H 1181.02 -2.17227 -2.0604 0
M  V30 12211 H 1178.57 -1.04577 -0.989931 0
M  V30 12212 H 1180.52 -0.873594 -4.12245 0
M  V30 12213 H 1179.25 0.0267095 -3.26589 0
M  V30 12214 H 1177.91 -2.09057 -3.01149 0
M  V30 12215 H 1177.55 -0.606256 -4.99333 0
M  V30 12216 H 1177.25 -2.31429 -5.40106 0
M  V30 12217 H 1178.78 -1.53325 -5.91036 0
M  V30 12218 H 1180.19 -3.39986 -4.61608 0
M  V30 12219 H 1178.59 -4.14214 -4.3422 0
M  V30 12220 H 1179.66 -3.83965 -2.9614 0
M  V30 12221 N 1181 1.07532 -1.15215 0
M  V30 12222 C 1181.93 2.1668 -0.870171 0
M  V30 12223 C 1182.91 1.69161 0.178483 0
M  V30 12224 O 1184.1 1.94172 0.0332489 0
M  V30 12225 C 1181.23 3.45464 -0.356666 0
M  V30 12226 C 1180.18 4.06424 -1.34179 0
M  V30 12227 C 1179.51 5.30266 -0.687206 0
M  V30 12228 C 1180.81 4.46666 -2.70715 0
M  V30 12229 H 1182.5 2.40526 -1.7829 0
M  V30 12230 H 1180.05 1.15598 -0.858665 0
M  V30 12231 H 1182 4.21144 -0.146947 0
M  V30 12232 H 1180.72 3.21199 0.591527 0
M  V30 12233 H 1179.38 3.32786 -1.53783 0
M  V30 12234 H 1179.03 5.0229 0.267077 0
M  V30 12235 H 1178.73 5.72009 -1.34462 0
M  V30 12236 H 1180.26 6.08653 -0.487218 0
M  V30 12237 H 1181.67 5.13483 -2.54966 0
M  V30 12238 H 1180.07 4.99355 -3.32813 0
M  V30 12239 H 1181.14 3.58123 -3.26919 0
M  V30 12240 N 1182.48 0.948665 1.2585 0
M  V30 12241 C 1183.71 0.617229 1.97479 0
M  V30 12242 C 1184.12 -0.809406 1.7057 0
M  V30 12243 O 1183.48 -1.54066 0.97826 0
M  V30 12244 C 1183.53 0.859065 3.51144 0
M  V30 12245 O 1183.25 2.2296 3.77121 0
M  V30 12246 C 1184.75 0.539197 4.40009 0
M  V30 12247 H 1181.97 0.231933 0.629641 0
M  V30 12248 H 1184.52 1.27141 1.60173 0
M  V30 12249 H 1182.67 0.25138 3.86584 0
M  V30 12250 H 1183.09 2.29524 4.71613 0
M  V30 12251 H 1184.56 0.758986 5.46757 0
M  V30 12252 H 1185.04 -0.526062 4.36038 0
M  V30 12253 H 1185.64 1.12594 4.10125 0
M  V30 12254 N 1183.96 -1.40369 0.716545 0
M  V30 12255 C 1184.89 -2.33365 0.0793533 0
M  V30 12256 C 1185.87 -1.52943 -0.744482 0
M  V30 12257 O 1187.05 -1.81406 -0.693212 0
M  V30 12258 C 1184.18 -3.36928 -0.842429 0
M  V30 12259 C 1183.14 -4.2782 -0.124142 0
M  V30 12260 C 1182.46 -5.21928 -1.1617 0
M  V30 12261 C 1183.76 -5.12199 1.02224 0
M  V30 12262 H 1185.46 -2.86899 0.856115 0
M  V30 12263 H 1183 -1.37946 0.413138 0
M  V30 12264 H 1184.96 -4.00925 -1.29759 0
M  V30 12265 H 1183.68 -2.81791 -1.6511 0
M  V30 12266 H 1182.34 -3.65277 0.311201 0
M  V30 12267 H 1181.99 -4.63096 -1.96345 0
M  V30 12268 H 1181.69 -5.83582 -0.685978 0
M  V30 12269 H 1183.21 -5.88802 -1.61694 0
M  V30 12270 H 1184.63 -5.69644 0.646399 0
M  V30 12271 H 1183.02 -5.82901 1.4264 0
M  V30 12272 H 1184.09 -4.4812 1.85246 0
M  V30 12273 N 1185.44 -0.462799 -1.50652 0
M  V30 12274 C 1186.68 0.0951853 -2.02576 0
M  V30 12275 C 1187.02 1.40113 -1.34469 0
M  V30 12276 O 1186.29 1.88793 -0.467702 0
M  V30 12277 C 1186.57 0.287603 -3.5895 0
M  V30 12278 C 1186.43 -1.03878 -4.37641 0
M  V30 12279 C 1187.75 1.04593 -4.27491 0
M  V30 12280 H 1184.86 0.0331191 -0.736255 0
M  V30 12281 H 1187.51 -0.606772 -1.80051 0
M  V30 12282 H 1185.66 0.885514 -3.78274 0
M  V30 12283 H 1187.33 -1.67263 -4.29908 0
M  V30 12284 H 1185.57 -1.6374 -4.01711 0
M  V30 12285 H 1186.24 -0.857889 -5.45293 0
M  V30 12286 H 1188.72 0.539213 -4.12591 0
M  V30 12287 H 1187.59 1.14935 -5.36732 0
M  V30 12288 H 1187.86 2.08045 -3.90089 0
M  V30 12289 N 1186.91 1.56388 -0.195085 0
M  V30 12290 C 1188.16 1.97872 0.444344 0
M  V30 12291 C 1188.49 1.0819 1.61271 0
M  V30 12292 O 1187.77 0.133904 1.94039 0
M  V30 12293 C 1188.05 3.48556 0.90449 0
M  V30 12294 C 1187.9 4.49015 -0.265693 0
M  V30 12295 C 1189.22 4.02938 1.76999 0
M  V30 12296 H 1186.34 0.719413 0.160041 0
M  V30 12297 H 1188.98 1.87835 -0.286005 0
M  V30 12298 H 1187.13 3.5724 1.52682 0
M  V30 12299 H 1188.81 4.52368 -0.903363 0
M  V30 12300 H 1187.05 4.23987 -0.917462 0
M  V30 12301 H 1187.72 5.51912 0.0987834 0
M  V30 12302 H 1190.2 3.97033 1.24514 0
M  V30 12303 H 1189.07 5.08741 2.06092 0
M  V30 12304 H 1189.33 3.48197 2.72418 0
M  V30 12305 N 1188.39 -0.0785156 1.57404 0
M  V30 12306 C 1189.64 -0.778938 1.86919 0
M  V30 12307 C 1189.97 -1.77915 0.785906 0
M  V30 12308 O 1189.22 -1.94473 -0.218811 0
M  V30 12309 C 1189.52 -1.52826 3.23078 0
M  V30 12310 C 1189.19 -0.668645 4.45915 0
M  V30 12311 C 1187.85 -0.43173 4.79259 0
M  V30 12312 C 1190.2 -0.0721327 5.2115 0
M  V30 12313 C 1187.53 0.41129 5.85257 0
M  V30 12314 C 1189.88 0.758303 6.28039 0
M  V30 12315 C 1188.55 1.00515 6.59889 0
M  V30 12316 H 1187.82 -0.285034 0.683986 0
M  V30 12317 H 1190.46 -0.039906 1.91458 0
M  V30 12318 H 1188.77 -2.33931 3.14299 0
M  V30 12319 H 1190.46 -2.07488 3.43147 0
M  V30 12320 H 1187.05 -0.863424 4.19813 0
M  V30 12321 H 1191.24 -0.242297 4.95708 0
M  V30 12322 H 1186.49 0.611354 6.08336 0
M  V30 12323 H 1190.67 1.2273 6.855 0
M  V30 12324 H 1188.3 1.66017 7.41851 0
M  V30 12325 N 1189.87 -1.5367 -0.349747 0
M  V30 12326 C 1191.12 -1.7087 -1.0923 0
M  V30 12327 C 1191.45 -0.467299 -1.88494 0
M  V30 12328 O 1190.72 0.535619 -1.8698 0
M  V30 12329 C 1191.01 -2.9684 -2.03858 0
M  V30 12330 C 1190.86 -4.31174 -1.28097 0
M  V30 12331 C 1192.18 -3.18459 -3.03763 0
M  V30 12332 H 1189.3 -0.621757 -0.395711 0
M  V30 12333 H 1191.94 -1.86333 -0.371481 0
M  V30 12334 H 1190.09 -2.83788 -2.65323 0
M  V30 12335 H 1191.76 -4.56066 -0.692933 0
M  V30 12336 H 1190.01 -4.29866 -0.582924 0
M  V30 12337 H 1190.68 -5.15482 -1.9744 0
M  V30 12338 H 1193.15 -3.30801 -2.52409 0
M  V30 12339 H 1192.03 -4.08006 -3.67182 0
M  V30 12340 H 1192.29 -2.34467 -3.74803 0
M  V30 12341 N 1191.35 0.610423 -1.45298 0
M  V30 12342 C 1192.57 1.40112 -1.52917 0
M  V30 12343 C 1193 1.87404 -0.161696 0
M  V30 12344 O 1192.36 1.59973 0.853135 0
M  V30 12345 C 1192.4 2.58359 -2.51561 0
M  V30 12346 O 1191.51 3.58895 -2.03146 0
M  V30 12347 H 1190.85 0.41841 -0.515586 0
M  V30 12348 H 1193.38 0.743159 -1.90626 0
M  V30 12349 H 1193.39 3.0564 -2.70275 0
M  V30 12350 H 1192.06 2.23286 -3.50879 0
M  V30 12351 H 1190.64 3.18282 -1.94296 0
M  V30 12352 N 1192.83 1.32541 0.852676 0
M  V30 12353 C 1194.07 1.23397 1.60938 0
M  V30 12354 C 1194.41 -0.203294 1.93133 0
M  V30 12355 O 1193.68 -1.14097 1.57519 0
M  V30 12356 C 1193.96 2.0956 2.92842 0
M  V30 12357 C 1193.82 3.61675 2.67416 0
M  V30 12358 C 1195.14 1.95825 3.94133 0
M  V30 12359 H 1192.25 0.449608 0.583971 0
M  V30 12360 H 1194.9 1.62507 0.98446 0
M  V30 12361 H 1193.05 1.76336 3.46176 0
M  V30 12362 H 1194.72 4.05122 2.20621 0
M  V30 12363 H 1192.96 3.84242 2.01347 0
M  V30 12364 H 1193.63 4.17292 3.61347 0
M  V30 12365 H 1196.11 2.24935 3.50062 0
M  V30 12366 H 1194.98 2.58387 4.8428 0
M  V30 12367 H 1195.25 0.926466 4.32284 0
M  V30 12368 N 1194.3 -1.0692 1.15784 0
M  V30 12369 C 1195.55 -1.78983 0.929944 0
M  V30 12370 C 1195.87 -1.87884 -0.543969 0
M  V30 12371 O 1197.07 -2.56513 -0.889578 0
M  V30 12372 C 1195.53 -3.21657 1.61446 0
M  V30 12373 C 1195.14 -3.20943 3.12569 0
M  V30 12374 C 1196.88 -3.98299 1.46828 0
M  V30 12375 C 1194.79 -4.58298 3.73788 0
M  V30 12376 H 1193.72 -0.670809 0.344284 0
M  V30 12377 H 1196.37 -1.19975 1.38846 0
M  V30 12378 H 1194.75 -3.80885 1.08364 0
M  V30 12379 H 1195.92 -2.71334 3.72444 0
M  V30 12380 H 1194.24 -2.57799 3.26999 0
M  V30 12381 H 1196.84 -4.99822 1.89952 0
M  V30 12382 H 1197.18 -4.14213 0.416358 0
M  V30 12383 H 1197.71 -3.45577 1.97031 0
M  V30 12384 H 1194.45 -4.47588 4.789 0
M  V30 12385 H 1193.97 -5.08126 3.18698 0
M  V30 12386 H 1195.65 -5.27262 3.74972 0
M  V30 12387 N 1195.78 -0.955326 -1.25345 0
M  V30 12388 C 1197.01 -0.626783 -1.96863 0
M  V30 12389 C 1197.42 0.80547 -1.71198 0
M  V30 12390 O 1196.76 1.55049 -0.985163 0
M  V30 12391 C 1196.83 -0.806404 -3.50339 0
M  V30 12392 C 1196.49 -2.21595 -3.99681 0
M  V30 12393 C 1197.49 -3.19268 -4.10322 0
M  V30 12394 C 1195.17 -2.54032 -4.33328 0
M  V30 12395 C 1197.17 -4.47471 -4.53926 0
M  V30 12396 C 1194.85 -3.82465 -4.76617 0
M  V30 12397 C 1195.85 -4.78997 -4.86879 0
M  V30 12398 O 1195.54 -6.0514 -5.29208 0
M  V30 12399 H 1195.27 -0.233854 -0.634262 0
M  V30 12400 H 1197.82 -1.28232 -1.60455 0
M  V30 12401 H 1196.05 -0.0937184 -3.86586 0
M  V30 12402 H 1197.74 -0.47881 -4.03066 0
M  V30 12403 H 1198.51 -2.95534 -3.84558 0
M  V30 12404 H 1194.39 -1.79623 -4.24566 0
M  V30 12405 H 1197.93 -5.22819 -4.6185 0
M  V30 12406 H 1193.83 -4.06005 -5.01827 0
M  V30 12407 H 1194.6 -6.08527 -5.47392 0
M  V30 12408 N 1197.26 1.39987 -0.723979 0
M  V30 12409 C 1198.49 2.0556 -0.275634 0
M  V30 12410 C 1198.91 1.54207 1.07711 0
M  V30 12411 O 1198.27 0.681041 1.68022 0
M  V30 12412 C 1198.32 3.59551 -0.27485 0
M  V30 12413 O 1197.42 4.05685 0.741182 0
M  V30 12414 H 1196.76 0.651634 -0.12755 0
M  V30 12415 H 1199.29 1.79229 -0.986814 0
M  V30 12416 H 1199.3 4.07837 -0.115425 0
M  V30 12417 H 1197.98 3.96291 -1.26198 0
M  V30 12418 H 1196.55 3.6884 0.548795 0
M  V30 12419 N 1198.74 0.470782 1.50404 0
M  V30 12420 C 1199.98 -0.0830648 2.04231 0
M  V30 12421 C 1200.34 -1.37015 1.34503 0
M  V30 12422 O 1201.54 -2.00635 1.78883 0
M  V30 12423 C 1199.82 -0.262986 3.56431 0
M  V30 12424 S 1201.37 -0.775432 4.31894 0
M  V30 12425 H 1198.19 -0.0161025 0.710818 0
M  V30 12426 H 1200.79 0.63785 1.84802 0
M  V30 12427 H 1199.5 0.679558 4.04735 0
M  V30 12428 H 1199.03 -1.01002 3.80213 0
M  V30 12429 H 1201.04 -2.04887 4.51924 0
M  V30 12430 N 1200.22 -1.56282 0.203376 0
M  V30 12431 C 1201.46 -1.98105 -0.433844 0
M  V30 12432 C 1201.8 -1.09044 -1.60695 0
M  V30 12433 O 1201.07 -0.144193 -1.93965 0
M  V30 12434 C 1201.35 -3.4903 -0.885992 0
M  V30 12435 C 1201.21 -4.48867 0.289501 0
M  V30 12436 C 1202.53 -4.03871 -1.7486 0
M  V30 12437 H 1199.65 -0.720252 -0.156224 0
M  V30 12438 H 1202.29 -1.87681 0.295963 0
M  V30 12439 H 1200.44 -3.58045 -1.50785 0
M  V30 12440 H 1202.11 -4.51883 0.92734 0
M  V30 12441 H 1200.35 -4.23495 0.939934 0
M  V30 12442 H 1201.02 -5.51956 -0.0695128 0
M  V30 12443 H 1203.5 -3.97688 -1.22407 0
M  V30 12444 H 1202.38 -5.09827 -2.03391 0
M  V30 12445 H 1202.64 -3.49637 -2.70567 0
M  V30 12446 N 1201.7 0.070167 -1.57444 0
M  V30 12447 C 1202.64 1.08322 -2.03801 0
M  V30 12448 C 1203.61 1.38364 -0.918946 0
M  V30 12449 O 1204.8 1.49404 -1.18672 0
M  V30 12450 C 1201.94 2.39128 -2.48821 0
M  V30 12451 C 1201.05 2.15603 -3.74352 0
M  V30 12452 C 1200.19 3.39984 -4.08148 0
M  V30 12453 C 1199.22 3.1183 -5.26715 0
M  V30 12454 N 1198.36 4.28546 -5.56141 0
M  V30 12455 H 1203.2 0.680931 -2.90116 0
M  V30 12456 H 1200.74 0.324657 -1.43473 0
M  V30 12457 H 1202.7 3.15501 -2.72975 0
M  V30 12458 H 1201.33 2.77157 -1.65481 0
M  V30 12459 H 1200.38 1.29915 -3.57528 0
M  V30 12460 H 1201.69 1.90808 -4.60862 0
M  V30 12461 H 1200.84 4.2475 -4.33211 0
M  V30 12462 H 1199.58 3.67856 -3.20208 0
M  V30 12463 H 1198.59 2.2546 -5.01446 0
M  V30 12464 H 1199.81 2.85278 -6.16273 0
M  V30 12465 H 1197.76 4.56447 -4.71161 0
M  V30 12466 H 1197.68 4.0703 -6.37073 0
M  V30 12467 H 1198.94 5.14305 -5.85757 0
M  V30 12468 N 1203.17 1.53854 0.341593 0
M  V30 12469 C 1204.1 1.84966 1.42513 0
M  V30 12470 C 1205.08 0.704944 1.54805 0
M  V30 12471 O 1206.27 0.957036 1.68981 0
M  V30 12472 C 1203.4 2.06099 2.79536 0
M  V30 12473 C 1202.35 3.21919 2.82049 0
M  V30 12474 C 1201.68 3.28389 4.21977 0
M  V30 12475 C 1202.98 4.59984 2.4741 0
M  V30 12476 H 1204.67 2.7571 1.16724 0
M  V30 12477 H 1202.22 1.32662 0.560073 0
M  V30 12478 H 1204.17 2.26448 3.55386 0
M  V30 12479 H 1202.9 1.12087 3.06764 0
M  V30 12480 H 1201.56 3.01429 2.08653 0
M  V30 12481 H 1201.2 2.3197 4.46317 0
M  V30 12482 H 1200.9 4.0622 4.24569 0
M  V30 12483 H 1202.43 3.50951 4.99666 0
M  V30 12484 H 1203.84 4.80334 3.12973 0
M  V30 12485 H 1202.24 5.40233 2.61282 0
M  V30 12486 H 1203.31 4.6346 1.42594 0
M  V30 12487 N 1204.65 -0.602709 1.4562 0
M  V30 12488 C 1205.9 -1.36158 1.49891 0
M  V30 12489 C 1206.23 -1.93977 0.142581 0
M  V30 12490 O 1205.48 -1.75822 -0.859374 0
M  V30 12491 C 1205.78 -2.52474 2.52966 0
M  V30 12492 C 1205.45 -2.12772 3.97541 0
M  V30 12493 C 1204.11 -2.01658 4.36907 0
M  V30 12494 C 1206.46 -1.8186 4.88443 0
M  V30 12495 C 1203.79 -1.57862 5.65063 0
M  V30 12496 C 1206.14 -1.39548 6.17016 0
M  V30 12497 C 1204.8 -1.26997 6.55308 0
M  V30 12498 H 1204.07 -0.498236 0.54849 0
M  V30 12499 H 1206.72 -0.680738 1.78992 0
M  V30 12500 H 1205.03 -3.25917 2.17452 0
M  V30 12501 H 1206.72 -3.10701 2.53507 0
M  V30 12502 H 1203.31 -2.22349 3.66413 0
M  V30 12503 H 1207.5 -1.89341 4.58763 0
M  V30 12504 H 1202.75 -1.46771 5.93522 0
M  V30 12505 H 1206.93 -1.14677 6.86893 0
M  V30 12506 H 1204.55 -0.928346 7.5451 0
M  V30 12507 N 1206.13 -1.32992 -0.845635 0
M  V30 12508 C 1207.54 -1.21616 -1.41656 0
M  V30 12509 C 1207.89 0.167687 -1.95482 0
M  V30 12510 O 1207.02 1.06692 -1.8827 0
M  V30 12511 C 1207.61 -2.2018 -2.575 0
M  V30 12512 C 1206.17 -2.12664 -3.10565 0
M  V30 12513 C 1205.32 -2.08042 -1.83341 0
M  V30 12514 H 1208.27 -1.44688 -0.651993 0
M  V30 12515 H 1208.29 -1.80558 -3.34931 0
M  V30 12516 H 1207.8 -3.20888 -2.18294 0
M  V30 12517 H 1205.9 -1.15235 -3.54333 0
M  V30 12518 H 1206.02 -3.02902 -3.71197 0
M  V30 12519 H 1204.38 -1.53416 -2.03312 0
M  V30 12520 H 1205.16 -3.10547 -1.46339 0
M  V30 12521 N 1207.61 1.06304 -1.1635 0
M  V30 12522 C 1208.83 1.83338 -0.969639 0
M  V30 12523 C 1209.26 1.81945 0.477231 0
M  V30 12524 O 1208.62 1.22018 1.34094 0
M  V30 12525 C 1208.66 3.2785 -1.50155 0
M  V30 12526 O 1207.77 4.06281 -0.707805 0
M  V30 12527 H 1207.11 0.567293 -0.345072 0
M  V30 12528 H 1209.64 1.34033 -1.54584 0
M  V30 12529 H 1209.65 3.7867 -1.51898 0
M  V30 12530 H 1208.32 3.28179 -2.55483 0
M  V30 12531 H 1206.9 3.65055 -0.760872 0
M  V30 12532 N 1209.09 0.96196 1.24836 0
M  V30 12533 C 1210.5 0.660388 1.7463 0
M  V30 12534 C 1210.85 -0.824064 1.78055 0
M  V30 12535 O 1209.97 -1.64485 1.40619 0
M  V30 12536 C 1210.57 1.19205 3.17137 0
M  V30 12537 C 1209.13 0.940493 3.64461 0
M  V30 12538 C 1208.27 1.33076 2.43282 0
M  V30 12539 H 1211.22 1.13794 1.1062 0
M  V30 12540 H 1211.25 0.555595 3.76422 0
M  V30 12541 H 1210.76 2.27247 3.14612 0
M  V30 12542 H 1208.86 -0.124645 3.72391 0
M  V30 12543 H 1208.97 1.5821 4.52224 0
M  V30 12544 H 1207.34 0.749139 2.43434 0
M  V30 12545 H 1208.12 2.42055 2.43442 0
M  V30 12546 N 1210.56 -1.39601 0.731392 0
M  V30 12547 C 1211.49 -2.33268 0.1041 0
M  V30 12548 C 1212.47 -1.53724 -0.728219 0
M  V30 12549 O 1213.66 -1.82131 -0.673933 0
M  V30 12550 C 1210.79 -3.37802 -0.806646 0
M  V30 12551 C 1209.74 -4.27928 -0.0787588 0
M  V30 12552 C 1209.07 -5.23131 -1.10628 0
M  V30 12553 C 1210.37 -5.11086 1.07651 0
M  V30 12554 H 1212.06 -2.85975 0.886496 0
M  V30 12555 H 1209.61 -1.375 0.427746 0
M  V30 12556 H 1211.56 -4.02278 -1.25499 0
M  V30 12557 H 1210.29 -2.83527 -1.62112 0
M  V30 12558 H 1208.95 -3.64926 0.349926 0
M  V30 12559 H 1208.59 -4.65152 -1.91422 0
M  V30 12560 H 1208.29 -5.84277 -0.624043 0
M  V30 12561 H 1209.82 -5.90483 -1.5544 0
M  V30 12562 H 1211.23 -5.68927 0.706781 0
M  V30 12563 H 1209.63 -5.81356 1.48814 0
M  V30 12564 H 1210.7 -4.46131 1.89988 0
M  V30 12565 N 1212.04 -0.478751 -1.50152 0
M  V30 12566 C 1212.97 0.347829 -2.26545 0
M  V30 12567 C 1213.99 0.950354 -1.32182 0
M  V30 12568 O 1215.18 0.837462 -1.57635 0
M  V30 12569 C 1212.28 1.50255 -3.0377 0
M  V30 12570 C 1211.45 1.01142 -4.25546 0
M  V30 12571 C 1210.51 2.0411 -4.85 0
M  V30 12572 O 1209.53 1.61862 -5.45701 0
M  V30 12573 N 1210.74 3.36982 -4.72677 0
M  V30 12574 H 1213.5 -0.307113 -2.98122 0
M  V30 12575 H 1211.06 -0.309981 -1.58905 0
M  V30 12576 H 1213.05 2.18848 -3.40423 0
M  V30 12577 H 1211.62 2.06205 -2.34943 0
M  V30 12578 H 1210.84 0.151124 -3.9391 0
M  V30 12579 H 1212.13 0.661326 -5.04484 0
M  V30 12580 H 1211.53 3.74011 -4.2442 0
M  V30 12581 H 1210.09 4.0135 -5.13577 0
M  V30 12582 N 1213.52 1.56172 -0.211661 0
M  V30 12583 C 1214.75 2.02428 0.427843 0
M  V30 12584 C 1215.16 1.09162 1.54043 0
M  V30 12585 O 1214.52 0.0994249 1.82229 0
M  V30 12586 C 1214.57 3.48279 0.968728 0
M  V30 12587 O 1214.29 4.37987 -0.0994841 0
M  V30 12588 C 1215.79 4.10132 1.68246 0
M  V30 12589 H 1213.01 0.662611 0.10577 0
M  V30 12590 H 1215.56 2.01897 -0.32522 0
M  V30 12591 H 1213.71 3.49456 1.6721 0
M  V30 12592 H 1214.13 5.23609 0.305558 0
M  V30 12593 H 1215.6 5.13985 2.01304 0
M  V30 12594 H 1216.08 3.54552 2.5921 0
M  V30 12595 H 1216.68 4.12775 1.02453 0
M  V30 12596 N 1215 -0.0618163 1.57479 0
M  V30 12597 C 1215.93 -1.07252 2.07411 0
M  V30 12598 C 1216.91 -1.39756 0.969649 0
M  V30 12599 O 1218.09 -1.4921 1.24298 0
M  V30 12600 C 1215.22 -2.38313 2.52635 0
M  V30 12601 C 1214.18 -2.20136 3.67048 0
M  V30 12602 C 1213.5 -3.56668 3.98361 0
M  V30 12603 C 1214.8 -1.61437 4.96725 0
M  V30 12604 H 1216.5 -0.656983 2.92103 0
M  V30 12605 H 1214.04 -0.314579 1.40522 0
M  V30 12606 H 1216 -3.09319 2.86181 0
M  V30 12607 H 1214.72 -2.81865 1.64984 0
M  V30 12608 H 1213.38 -1.51569 3.338 0
M  V30 12609 H 1213.03 -3.97809 3.07826 0
M  V30 12610 H 1212.73 -3.45342 4.75408 0
M  V30 12611 H 1214.25 -4.2909 4.34413 0
M  V30 12612 H 1215.67 -2.2232 5.28438 0
M  V30 12613 H 1214.06 -1.60779 5.78161 0
M  V30 12614 H 1215.13 -0.576795 4.81457 0
M  V30 12615 N 1216.48 -1.54033 -0.333429 0
M  V30 12616 C 1217.7 -1.76031 -1.09672 0
M  V30 12617 C 1218.13 -0.502844 -1.81254 0
M  V30 12618 O 1217.48 0.54509 -1.72912 0
M  V30 12619 C 1217.53 -2.947 -2.07809 0
M  V30 12620 O 1216.64 -2.65555 -3.15522 0
M  V30 12621 H 1215.98 -0.583611 -0.316692 0
M  V30 12622 H 1218.51 -2.01026 -0.380732 0
M  V30 12623 H 1218.52 -3.21771 -2.50853 0
M  V30 12624 H 1217.19 -3.85895 -1.55106 0
M  V30 12625 H 1215.77 -2.49403 -2.77223 0
M  V30 12626 N 1217.95 0.594978 -1.45938 0
M  V30 12627 C 1219.37 0.917069 -1.30622 0
M  V30 12628 C 1219.57 1.99702 -0.268554 0
M  V30 12629 O 1218.63 2.50293 0.333146 0
M  V30 12630 C 1219.94 1.34604 -2.68891 0
M  V30 12631 C 1221.49 1.45957 -2.76886 0
M  V30 12632 C 1221.96 1.92225 -4.15708 0
M  V30 12633 N 1223.45 1.99439 -4.18065 0
M  V30 12634 C 1224.19 2.36488 -5.22361 0
M  V30 12635 N 1223.68 2.72416 -6.36994 0
M  V30 12636 N 1225.48 2.36936 -5.09723 0
M  V30 12637 H 1217.63 -0.118625 -2.12068 0
M  V30 12638 H 1219.89 0.00959453 -0.947951 0
M  V30 12639 H 1219.6 0.626605 -3.46073 0
M  V30 12640 H 1219.47 2.31006 -2.98188 0
M  V30 12641 H 1221.86 2.16989 -1.99999 0
M  V30 12642 H 1221.94 0.47838 -2.51287 0
M  V30 12643 H 1221.58 1.21775 -4.93085 0
M  V30 12644 H 1221.51 2.9128 -4.38707 0
M  V30 12645 H 1224 1.74212 -3.35349 0
M  V30 12646 H 1224.32 2.99604 -7.1236 0
M  V30 12647 H 1222.66 2.70083 -6.40375 0
M  V30 12648 H 1225.85 2.08282 -4.19209 0
M  V30 12649 H 1226.03 2.65483 -5.9112 0
M  V30 12650 N 1219.43 1.33438 0.838571 0
M  V30 12651 C 1220.38 1.23717 1.94841 0
M  V30 12652 C 1221.35 0.11573 1.65696 0
M  V30 12653 O 1222.53 0.294051 1.8852 0
M  V30 12654 C 1219.67 0.982626 3.30815 0
M  V30 12655 C 1218.79 2.19036 3.72354 0
M  V30 12656 C 1217.92 1.86995 4.97199 0
M  V30 12657 C 1216.96 3.03998 5.31274 0
M  V30 12658 N 1216.1 2.71943 6.47295 0
M  V30 12659 H 1220.94 2.18639 2.02487 0
M  V30 12660 H 1218.48 1.08721 0.990861 0
M  V30 12661 H 1220.43 0.81548 4.09152 0
M  V30 12662 H 1219.06 0.0701443 3.22724 0
M  V30 12663 H 1218.12 2.46724 2.89537 0
M  V30 12664 H 1219.43 3.06505 3.93518 0
M  V30 12665 H 1218.58 1.66925 5.83285 0
M  V30 12666 H 1217.32 0.967628 4.78004 0
M  V30 12667 H 1216.33 3.24681 4.43692 0
M  V30 12668 H 1217.55 3.94985 5.52416 0
M  V30 12669 H 1215.5 1.8427 6.29588 0
M  V30 12670 H 1215.41 3.52943 6.68556 0
M  V30 12671 H 1216.68 2.55342 7.36492 0
M  V30 12672 N 1220.91 -1.05686 1.16912 0
M  V30 12673 C 1222.16 -1.77987 0.948875 0
M  V30 12674 C 1222.47 -1.8845 -0.524011 0
M  V30 12675 O 1223.68 -2.57442 -0.862322 0
M  V30 12676 C 1222.13 -3.19927 1.64848 0
M  V30 12677 C 1221.74 -3.1761 3.15956 0
M  V30 12678 C 1223.49 -3.96719 1.51044 0
M  V30 12679 C 1221.39 -4.54307 3.78628 0
M  V30 12680 H 1220.32 -0.667119 0.35138 0
M  V30 12681 H 1222.97 -1.18496 1.40111 0
M  V30 12682 H 1221.36 -3.79714 1.12397 0
M  V30 12683 H 1222.53 -2.67369 3.75301 0
M  V30 12684 H 1220.85 -2.54317 3.29715 0
M  V30 12685 H 1223.44 -4.97779 1.95243 0
M  V30 12686 H 1223.79 -4.13748 0.460268 0
M  V30 12687 H 1224.32 -3.43468 2.00685 0
M  V30 12688 H 1221.06 -4.42484 4.8362 0
M  V30 12689 H 1220.58 -5.04717 3.24069 0
M  V30 12690 H 1222.26 -5.23255 3.80543 0
M  V30 12691 N 1222.39 -0.968567 -1.24324 0
M  V30 12692 C 1223.63 -0.631863 -1.92705 0
M  V30 12693 C 1223.97 0.83096 -1.75524 0
M  V30 12694 O 1223.24 1.59795 -1.10887 0
M  V30 12695 C 1223.53 -1.00845 -3.45691 0
M  V30 12696 C 1223.38 -2.52803 -3.72036 0
M  V30 12697 C 1224.7 -0.543647 -4.36729 0
M  V30 12698 H 1221.82 -0.231027 -0.699854 0
M  V30 12699 H 1224.46 -1.20773 -1.46676 0
M  V30 12700 H 1222.61 -0.518434 -3.85025 0
M  V30 12701 H 1224.28 -3.09289 -3.42255 0
M  V30 12702 H 1222.52 -2.95963 -3.17157 0
M  V30 12703 H 1223.19 -2.74203 -4.79079 0
M  V30 12704 H 1225.67 -0.964182 -4.04775 0
M  V30 12705 H 1224.55 -0.8357 -5.42501 0
M  V30 12706 H 1224.81 0.556256 -4.38587 0
M  V30 12707 N 1223.87 1.39211 -0.738786 0
M  V30 12708 C 1225.28 1.54116 -0.414773 0
M  V30 12709 C 1225.48 1.70497 1.07392 0
M  V30 12710 O 1224.54 1.7076 1.86003 0
M  V30 12711 C 1225.85 2.7567 -1.2011 0
M  V30 12712 C 1227.4 2.89508 -1.1897 0
M  V30 12713 C 1227.87 4.14005 -1.95868 0
M  V30 12714 N 1229.37 4.21052 -1.93053 0
M  V30 12715 C 1230.1 5.16341 -2.49358 0
M  V30 12716 N 1229.6 6.17396 -3.14316 0
M  V30 12717 N 1231.39 5.08585 -2.3937 0
M  V30 12718 H 1223.54 1.26827 -1.70378 0
M  V30 12719 H 1225.8 0.614983 -0.721457 0
M  V30 12720 H 1225.51 2.69922 -2.25467 0
M  V30 12721 H 1225.38 3.68443 -0.808065 0
M  V30 12722 H 1227.77 2.94747 -0.144248 0
M  V30 12723 H 1227.85 1.97788 -1.62214 0
M  V30 12724 H 1227.5 4.09527 -3.00416 0
M  V30 12725 H 1227.43 5.04776 -1.50028 0
M  V30 12726 H 1229.92 3.48669 -1.45733 0
M  V30 12727 H 1230.23 6.86572 -3.54737 0
M  V30 12728 H 1228.57 6.17772 -3.18407 0
M  V30 12729 H 1231.77 4.28573 -1.88262 0
M  V30 12730 H 1231.94 5.8267 -2.83549 0
M  V30 12731 N 1225.34 0.486708 1.49896 0
M  V30 12732 C 1226.57 -0.0622999 2.07306 0
M  V30 12733 C 1226.99 -1.31353 1.3464 0
M  V30 12734 O 1226.35 -1.76861 0.398752 0
M  V30 12735 C 1226.4 -0.313481 3.59235 0
M  V30 12736 O 1225.5 -1.39101 3.88233 0
M  V30 12737 H 1224.85 0.0198885 0.663702 0
M  V30 12738 H 1227.38 0.682232 1.92891 0
M  V30 12739 H 1227.39 -0.549302 4.04285 0
M  V30 12740 H 1226.06 0.600767 4.11538 0
M  V30 12741 H 1224.64 -1.14127 3.55006 0
M  V30 12742 N 1226.82 -1.56058 0.219941 0
M  V30 12743 C 1227.77 -2.20218 -0.690846 0
M  V30 12744 C 1228.74 -1.15725 -1.19151 0
M  V30 12745 O 1229.93 -1.44073 -1.2509 0
M  V30 12746 C 1227.07 -2.88477 -1.89408 0
M  V30 12747 C 1226.18 -4.07559 -1.43246 0
M  V30 12748 C 1225.31 -4.63605 -2.59314 0
M  V30 12749 C 1224.35 -5.74993 -2.0988 0
M  V30 12750 N 1223.49 -6.25337 -3.19214 0
M  V30 12751 H 1228.33 -2.97685 -0.136992 0
M  V30 12752 H 1225.87 -1.46994 -0.055865 0
M  V30 12753 H 1227.82 -3.26235 -2.60051 0
M  V30 12754 H 1226.45 -2.1353 -2.42084 0
M  V30 12755 H 1225.51 -3.75297 -0.621013 0
M  V30 12756 H 1226.82 -4.8805 -1.02997 0
M  V30 12757 H 1225.97 -5.03798 -3.38041 0
M  V30 12758 H 1224.71 -3.82274 -3.0285 0
M  V30 12759 H 1223.72 -5.34304 -1.29613 0
M  V30 12760 H 1224.94 -6.58158 -1.67345 0
M  V30 12761 H 1222.89 -5.4692 -3.62236 0
M  V30 12762 H 1222.8 -7.00947 -2.83213 0
M  V30 12763 H 1224.07 -6.70187 -3.98083 0
M  V30 12764 N 1228.3 0.053464 -1.57509 0
M  V30 12765 C 1229.23 1.09391 -2.00272 0
M  V30 12766 C 1230.21 1.36553 -0.882727 0
M  V30 12767 O 1231.4 1.4962 -1.14657 0
M  V30 12768 C 1228.52 2.43424 -2.35505 0
M  V30 12769 C 1227.57 2.32278 -3.577 0
M  V30 12770 S 1228.4 1.69939 -5.0782 0
M  V30 12771 C 1229.56 3.05512 -5.46272 0
M  V30 12772 H 1229.79 0.729569 -2.88209 0
M  V30 12773 H 1227.32 0.262633 -1.5215 0
M  V30 12774 H 1229.28 3.20515 -2.56477 0
M  V30 12775 H 1227.94 2.77013 -1.48064 0
M  V30 12776 H 1227.14 3.31165 -3.79928 0
M  V30 12777 H 1226.74 1.63327 -3.36453 0
M  V30 12778 H 1229.03 4.0184 -5.45464 0
M  V30 12779 H 1229.97 2.88043 -6.46867 0
M  V30 12780 H 1230.38 3.06962 -4.73745 0
M  V30 12781 N 1229.78 1.54207 0.325255 0
M  V30 12782 C 1230.73 1.84197 1.42036 0
M  V30 12783 C 1231.72 0.71375 1.53629 0
M  V30 12784 O 1232.93 0.897385 1.56035 0
M  V30 12785 H 1229.3 0.583848 0.473947 0
M  V30 12786 H 1231.27 2.7578 1.13965 0
M  V30 12787 C 1230.02 2.08459 2.78281 0
M  V30 12788 H 1229.35 2.94734 2.70133 0
M  V30 12789 H 1230.79 2.33398 3.5398 0
M  V30 12790 C 1229.24 0.875615 3.25322 0
M  V30 12791 O 1229.77 0.0840387 4.01612 0
M  V30 12792 N 1227.98 0.687721 2.82345 0
M  V30 12793 H 1227.53 1.33307 2.20425 0
M  V30 12794 H 1227.49 -0.119687 3.14172 0
M  V30 12795 N 1231.26 -0.58723 1.46251 0
M  V30 12796 C 1232.48 -1.37661 1.55126 0
M  V30 12797 C 1232.91 -1.87123 0.191489 0
M  V30 12798 O 1232.27 -1.6131 -0.827576 0
M  V30 12799 C 1232.31 -2.54324 2.5564 0
M  V30 12800 O 1231.42 -3.55617 2.0883 0
M  V30 12801 H 1230.76 -0.410154 0.522178 0
M  V30 12802 H 1233.29 -0.712738 1.91784 0
M  V30 12803 H 1233.3 -3.01301 2.75103 0
M  V30 12804 H 1231.97 -2.17675 3.54387 0
M  V30 12805 H 1230.55 -3.15151 1.99335 0
M  V30 12806 N 1232.74 -1.33881 -0.831482 0
M  V30 12807 C 1233.96 -1.28812 -1.61911 0
M  V30 12808 C 1234.38 0.139519 -1.88284 0
M  V30 12809 O 1233.74 1.08397 -1.46821 0
M  V30 12810 C 1233.79 -2.06806 -2.96502 0
M  V30 12811 O 1233.51 -3.44 -2.71285 0
M  V30 12812 C 1235.01 -2.09033 -3.90922 0
M  V30 12813 H 1232.23 -0.443473 -0.50356 0
M  V30 12814 H 1234.77 -1.76365 -1.03516 0
M  V30 12815 H 1232.93 -1.62915 -3.51479 0
M  V30 12816 H 1233.34 -3.84213 -3.57044 0
M  V30 12817 H 1234.82 -2.68044 -4.82552 0
M  V30 12818 H 1235.29 -1.08249 -4.25651 0
M  V30 12819 H 1235.9 -2.52975 -3.41883 0
M  V30 12820 N 1234.21 1.05064 -1.1747 0
M  V30 12821 C 1235.14 2.14786 -0.915936 0
M  V30 12822 C 1236.12 1.69502 0.142561 0
M  V30 12823 O 1237.31 1.94198 -0.00794522 0
M  V30 12824 C 1234.44 3.44629 -0.429864 0
M  V30 12825 C 1233.39 4.03486 -1.42769 0
M  V30 12826 C 1232.72 5.28689 -0.799528 0
M  V30 12827 C 1234.02 4.40823 -2.80129 0
M  V30 12828 H 1235.71 2.3669 -1.83352 0
M  V30 12829 H 1233.26 1.13751 -0.882992 0
M  V30 12830 H 1235.21 4.20737 -0.236245 0
M  V30 12831 H 1233.94 3.22381 0.523263 0
M  V30 12832 H 1232.6 3.29449 -1.60808 0
M  V30 12833 H 1232.24 5.02744 0.160474 0
M  V30 12834 H 1231.94 5.69028 -1.46565 0
M  V30 12835 H 1233.47 6.07483 -0.616212 0
M  V30 12836 H 1234.88 5.07959 -2.65801 0
M  V30 12837 H 1233.28 4.92183 -3.43331 0
M  V30 12838 H 1234.35 3.51108 -3.34441 0
M  V30 12839 N 1235.69 0.975146 1.23809 0
M  V30 12840 C 1236.94 0.642074 1.92367 0
M  V30 12841 C 1237.27 -0.82164 1.75962 0
M  V30 12842 O 1236.55 -1.59205 1.11732 0
M  V30 12843 C 1236.83 1.02677 3.45151 0
M  V30 12844 C 1236.68 2.54773 3.7069 0
M  V30 12845 C 1238 0.5668 4.36435 0
M  V30 12846 H 1235.12 0.234735 0.698619 0
M  V30 12847 H 1237.76 1.21549 1.46034 0
M  V30 12848 H 1235.91 0.538846 3.84745 0
M  V30 12849 H 1237.58 3.11099 3.4061 0
M  V30 12850 H 1235.83 2.97641 3.15583 0
M  V30 12851 H 1236.5 2.7674 4.77618 0
M  V30 12852 H 1238.97 0.985635 4.04258 0
M  V30 12853 H 1237.85 0.864458 5.4205 0
M  V30 12854 H 1238.11 -0.532989 4.38875 0
M  V30 12855 N 1237.17 -1.38817 0.746158 0
M  V30 12856 C 1238.42 -1.99885 0.298425 0
M  V30 12857 C 1238.74 -1.59518 -1.12156 0
M  V30 12858 O 1238.01 -0.848568 -1.76568 0
M  V30 12859 H 1236.59 -0.739247 0.107347 0
M  V30 12860 H 1239.25 -1.69696 0.9586 0
M  V30 12861 H 1238.35 -3.10067 0.355656 0
M  V30 12862 N 1238.65 -0.49465 -1.49636 0
M  V30 12863 C 1239.89 0.0521945 -2.02733 0
M  V30 12864 C 1240.23 1.3723 -1.37411 0
M  V30 12865 O 1239.5 1.87758 -0.507642 0
M  V30 12866 C 1239.78 0.2114 -3.59479 0
M  V30 12867 C 1239.64 -1.13138 -4.35339 0
M  V30 12868 C 1240.96 0.955015 -4.29613 0
M  V30 12869 H 1238.08 0.0174946 -0.736792 0
M  V30 12870 H 1240.72 -0.644827 -1.78723 0
M  V30 12871 H 1238.87 0.805078 -3.80067 0
M  V30 12872 H 1240.54 -1.76345 -4.26263 0
M  V30 12873 H 1238.78 -1.72224 -3.98147 0
M  V30 12874 H 1239.45 -0.97336 -5.4335 0
M  V30 12875 H 1241.93 0.451575 -4.13642 0
M  V30 12876 H 1240.81 1.03524 -5.39049 0
M  V30 12877 H 1241.07 1.99724 -3.94414 0
M  V30 12878 N 1240.13 1.55939 -0.228214 0
M  V30 12879 C 1241.37 1.98476 0.401677 0
M  V30 12880 C 1241.7 1.116 1.59297 0
M  V30 12881 O 1240.96 0.162465 1.95024 0
M  V30 12882 C 1241.25 3.46581 0.872732 0
M  V30 12883 C 1240.92 4.50416 -0.208767 0
M  V30 12884 C 1239.58 4.78534 -0.505847 0
M  V30 12885 C 1241.93 5.12656 -0.939852 0
M  V30 12886 C 1239.26 5.66171 -1.53841 0
M  V30 12887 C 1241.61 6.01412 -1.9618 0
M  V30 12888 C 1240.28 6.2787 -2.26573 0
M  V30 12889 H 1239.55 0.726276 0.146984 0
M  V30 12890 H 1242.2 1.88598 -0.332128 0
M  V30 12891 H 1240.5 3.53696 1.68541 0
M  V30 12892 H 1242.2 3.76869 1.37006 0
M  V30 12893 H 1238.79 4.28587 0.0329308 0
M  V30 12894 H 1242.97 4.90997 -0.723581 0
M  V30 12895 H 1238.23 5.84933 -1.77944 0
M  V30 12896 H 1242.4 6.48688 -2.53332 0
M  V30 12897 H 1240.03 6.95574 -3.06725 0
M  V30 12898 N 1241.6 -0.0451101 1.57535 0
M  V30 12899 C 1242.83 -0.75132 1.92777 0
M  V30 12900 C 1243.25 -1.69743 0.826599 0
M  V30 12901 O 1242.6 -1.8142 -0.198224 0
M  V30 12902 C 1242.66 -1.52218 3.2789 0
M  V30 12903 O 1242.38 -0.614059 4.33775 0
M  V30 12904 C 1243.88 -2.32699 3.77314 0
M  V30 12905 H 1241.1 -0.21211 0.636593 0
M  V30 12906 H 1243.64 -0.0074174 2.04499 0
M  V30 12907 H 1241.8 -2.2181 3.17614 0
M  V30 12908 H 1242.21 -1.15294 5.11671 0
M  V30 12909 H 1243.68 -2.82205 4.7441 0
M  V30 12910 H 1244.16 -3.13414 3.07682 0
M  V30 12911 H 1244.77 -1.68212 3.90621 0
M  V30 12912 N 1243.08 -1.54377 -0.317073 0
M  V30 12913 C 1244.33 -1.72105 -1.0518 0
M  V30 12914 C 1244.64 -0.505166 -1.88964 0
M  V30 12915 O 1245.85 -0.563912 -2.65579 0
M  V30 12916 C 1244.31 -3.04435 -1.91957 0
M  V30 12917 C 1243.91 -4.33449 -1.13253 0
M  V30 12918 C 1245.66 -3.31524 -2.65127 0
M  V30 12919 C 1243.57 -5.56837 -1.99214 0
M  V30 12920 H 1242.5 -0.641392 -0.396399 0
M  V30 12921 H 1245.15 -1.80868 -0.309673 0
M  V30 12922 H 1243.53 -2.89595 -2.70094 0
M  V30 12923 H 1244.7 -4.59074 -0.39842 0
M  V30 12924 H 1243.02 -4.13173 -0.517372 0
M  V30 12925 H 1245.61 -4.20906 -3.29761 0
M  V30 12926 H 1245.96 -2.49688 -3.33109 0
M  V30 12927 H 1246.49 -3.47261 -1.94048 0
M  V30 12928 H 1243.23 -6.41294 -1.35729 0
M  V30 12929 H 1242.75 -5.35421 -2.70341 0
M  V30 12930 H 1244.43 -5.93488 -2.57646 0
M  V30 12931 N 1244.56 0.579466 -1.4656 0
M  V30 12932 C 1245.79 1.36351 -1.55615 0
M  V30 12933 C 1246.2 1.87755 -0.198405 0
M  V30 12934 O 1245.56 1.63795 0.804834 0
M  V30 12935 C 1245.61 2.54881 -2.56355 0
M  V30 12936 O 1245.33 2.05607 -3.86856 0
M  V30 12937 C 1246.83 3.47391 -2.75381 0
M  V30 12938 H 1244.05 0.416426 -0.526147 0
M  V30 12939 H 1246.6 0.704134 -1.91995 0
M  V30 12940 H 1244.75 3.16802 -2.2297 0
M  V30 12941 H 1245.17 2.82823 -4.41714 0
M  V30 12942 H 1246.64 4.27031 -3.49783 0
M  V30 12943 H 1247.12 3.99532 -1.82403 0
M  V30 12944 H 1247.72 2.91303 -3.09875 0
M  V30 12945 N 1246.04 1.3432 0.824371 0
M  V30 12946 C 1246.97 1.2842 1.95014 0
M  V30 12947 C 1247.95 0.161925 1.69328 0
M  V30 12948 O 1249.13 0.354052 1.90945 0
M  V30 12949 C 1246.26 1.03741 3.31444 0
M  V30 12950 C 1245.22 2.12419 3.71567 0
M  V30 12951 C 1244.54 1.72931 5.05963 0
M  V30 12952 C 1245.84 3.54235 3.83817 0
M  V30 12953 H 1247.54 2.22614 2.00209 0
M  V30 12954 H 1245.08 1.07165 0.961856 0
M  V30 12955 H 1247.04 0.982586 4.09784 0
M  V30 12956 H 1245.76 0.0598892 3.26545 0
M  V30 12957 H 1244.42 2.16968 2.955 0
M  V30 12958 H 1244.07 0.738433 4.9755 0
M  V30 12959 H 1243.77 2.45668 5.3378 0
M  V30 12960 H 1245.29 1.68941 5.86763 0
M  V30 12961 H 1246.71 3.52106 4.52432 0
M  V30 12962 H 1245.1 4.25581 4.23085 0
M  V30 12963 H 1246.17 3.91682 2.85856 0
M  V30 12964 N 1247.52 -1.0444 1.18026 0
M  V30 12965 C 1248.76 -1.77838 0.974756 0
M  V30 12966 C 1249.1 -1.87792 -0.494755 0
M  V30 12967 O 1248.37 -1.38327 -1.36733 0
M  V30 12968 C 1248.65 -3.21315 1.62569 0
M  V30 12969 C 1248.51 -3.19327 3.16781 0
M  V30 12970 C 1249.83 -4.19337 1.33583 0
M  V30 12971 H 1246.94 -0.645575 0.35553 0
M  V30 12972 H 1249.59 -1.22023 1.45638 0
M  V30 12973 H 1247.74 -3.68974 1.21617 0
M  V30 12974 H 1249.41 -2.79687 3.66842 0
M  V30 12975 H 1247.65 -2.57461 3.49137 0
M  V30 12976 H 1248.32 -4.20626 3.5746 0
M  V30 12977 H 1250.8 -3.80208 1.69059 0
M  V30 12978 H 1249.67 -5.17953 1.81702 0
M  V30 12979 H 1249.94 -4.41346 0.258016 0
M  V30 12980 N 1248.99 -0.981699 -1.2329 0
M  V30 12981 C 1250.24 -0.651302 -1.9174 0
M  V30 12982 C 1250.57 0.815318 -1.76587 0
M  V30 12983 O 1249.82 1.60377 -1.1215 0
M  V30 12984 C 1250.12 -0.989244 -3.43437 0
M  V30 12985 C 1249.79 -2.44629 -3.78771 0
M  V30 12986 C 1248.45 -2.84449 -3.88127 0
M  V30 12987 C 1250.8 -3.39123 -3.95784 0
M  V30 12988 C 1248.13 -4.17775 -4.11923 0
M  V30 12989 C 1250.48 -4.72095 -4.21081 0
M  V30 12990 C 1249.15 -5.11672 -4.28659 0
M  V30 12991 H 1248.42 -0.238328 -0.701627 0
M  V30 12992 H 1251.06 -1.2358 -1.46288 0
M  V30 12993 H 1249.37 -0.322677 -3.90469 0
M  V30 12994 H 1251.07 -0.711796 -3.94632 0
M  V30 12995 H 1247.66 -2.12759 -3.72064 0
M  V30 12996 H 1251.84 -3.09536 -3.87945 0
M  V30 12997 H 1247.1 -4.48043 -4.16013 0
M  V30 12998 H 1251.27 -5.45271 -4.33189 0
M  V30 12999 H 1248.9 -6.15003 -4.46851 0
M  V30 13000 N 1250.47 1.3842 -0.753509 0
M  V30 13001 C 1251.4 2.33073 -0.141198 0
M  V30 13002 C 1252.38 1.54863 0.70367 0
M  V30 13003 O 1253.57 1.8318 0.644872 0
M  V30 13004 C 1250.7 3.39043 0.752802 0
M  V30 13005 C 1249.65 4.27999 0.0106692 0
M  V30 13006 C 1248.98 5.24824 1.02291 0
M  V30 13007 C 1250.28 5.09308 -1.15768 0
M  V30 13008 H 1251.97 2.84528 -0.93188 0
M  V30 13009 H 1249.52 1.36802 -0.449567 0
M  V30 13010 H 1251.47 4.04224 1.19083 0
M  V30 13011 H 1250.2 2.8607 1.57581 0
M  V30 13012 H 1248.85 3.64323 -0.407939 0
M  V30 13013 H 1248.5 4.68139 1.83998 0
M  V30 13014 H 1248.2 5.85196 0.53101 0
M  V30 13015 H 1249.73 5.92882 1.46026 0
M  V30 13016 H 1251.14 5.6773 -0.797203 0
M  V30 13017 H 1249.54 5.78914 -1.58044 0
M  V30 13018 H 1250.61 4.43051 -1.97062 0
M  V30 13019 N 1251.95 0.502579 1.49372 0
M  V30 13020 C 1252.91 -0.263993 2.27675 0
M  V30 13021 C 1253.91 -0.892538 1.33755 0
M  V30 13022 O 1255.1 -0.756826 1.56901 0
M  V30 13023 C 1252.24 -1.37895 3.11765 0
M  V30 13024 H 1253.43 0.423132 2.969 0
M  V30 13025 H 1250.98 0.257595 1.54163 0
M  V30 13026 H 1251.72 -2.10018 2.47109 0
M  V30 13027 H 1251.5 -0.933694 3.80821 0
M  V30 13028 H 1252.99 -1.91889 3.70902 0
M  V30 13029 N 1253.43 -1.55816 0.23648 0
M  V30 13030 C 1254.39 -2.1967 -0.654041 0
M  V30 13031 C 1255.39 -1.1629 -1.11056 0
M  V30 13032 O 1256.58 -1.41435 -1.01695 0
M  V30 13033 C 1253.71 -2.83196 -1.89771 0
M  V30 13034 H 1254.91 -2.99743 -0.0970911 0
M  V30 13035 H 1252.46 -1.56295 -0.013098 0
M  V30 13036 H 1253.19 -2.07033 -2.49616 0
M  V30 13037 H 1252.98 -3.58915 -1.57868 0
M  V30 13038 H 1254.47 -3.32095 -2.53184 0
M  V30 13039 N 1254.91 0.036755 -1.57557 0
M  V30 13040 C 1256.15 0.729106 -1.88919 0
M  V30 13041 C 1256.48 1.75769 -0.832801 0
M  V30 13042 O 1255.74 1.94985 0.167173 0
M  V30 13043 C 1256.04 1.44206 -3.27016 0
M  V30 13044 C 1255.7 0.550184 -4.47531 0
M  V30 13045 C 1254.36 0.304511 -4.80236 0
M  V30 13046 C 1256.72 -0.0660664 -5.21158 0
M  V30 13047 C 1254.04 -0.566316 -5.8396 0
M  V30 13048 C 1256.4 -0.92455 -6.25807 0
M  V30 13049 C 1255.06 -1.17976 -6.56992 0
M  V30 13050 H 1254.33 0.266799 -0.691303 0
M  V30 13051 H 1256.98 -0.0108698 -1.91497 0
M  V30 13052 H 1255.28 2.25516 -3.2039 0
M  V30 13053 H 1256.98 1.98317 -3.48527 0
M  V30 13054 H 1253.57 0.751814 -4.21955 0
M  V30 13055 H 1257.75 0.110784 -4.96176 0
M  V30 13056 H 1253.01 -0.772428 -6.06501 0
M  V30 13057 H 1257.18 -1.40861 -6.82005 0
M  V30 13058 H 1254.81 -1.85627 -7.37188 0
M  V30 13059 N 1256.39 1.54543 0.308881 0
M  V30 13060 C 1257.63 1.73706 1.04661 0
M  V30 13061 C 1257.96 0.517111 1.87189 0
M  V30 13062 O 1257.24 -0.485856 1.88334 0
M  V30 13063 C 1257.52 3.02141 1.95916 0
M  V30 13064 C 1257.38 4.34419 1.1662 0
M  V30 13065 C 1258.69 3.26401 2.95213 0
M  V30 13066 H 1255.81 0.63203 0.379087 0
M  V30 13067 H 1258.46 1.87253 0.321947 0
M  V30 13068 H 1256.61 2.90723 2.57706 0
M  V30 13069 H 1258.28 4.57743 0.571772 0
M  V30 13070 H 1256.52 4.3126 0.468747 0
M  V30 13071 H 1257.19 5.20535 1.83704 0
M  V30 13072 H 1259.67 3.37377 2.43549 0
M  V30 13073 H 1258.54 4.17597 3.56235 0
M  V30 13074 H 1258.8 2.44322 3.68455 0
M  V30 13075 N 1257.86 -0.571685 1.46866 0
M  V30 13076 C 1258.81 -1.70098 1.58649 0
M  V30 13077 C 1259.81 -1.63191 0.45443 0
M  V30 13078 O 1261.01 -1.68551 0.63171 0
M  V30 13079 H 1257.39 -0.56258 0.499007 0
M  V30 13080 H 1259.36 -1.57293 2.53577 0
M  V30 13081 C 1258.11 -3.08475 1.60433 0
M  V30 13082 H 1257.43 -3.14465 2.46884 0
M  V30 13083 H 1258.87 -3.87221 1.7273 0
M  V30 13084 C 1257.33 -3.35231 0.334948 0
M  V30 13085 O 1257.86 -3.97633 -0.570149 0
M  V30 13086 N 1256.06 -2.8977 0.219441 0
M  V30 13087 H 1255.61 -2.39168 0.956891 0
M  V30 13088 H 1255.57 -3.08044 -0.628975 0
M  V30 13089 N 1259.34 -1.34755 -0.817236 0
M  V30 13090 C 1260.27 -1.21147 -1.93387 0
M  V30 13091 C 1261.25 -0.101788 -1.62281 0
M  V30 13092 O 1262.44 -0.267968 -1.86586 0
M  V30 13093 C 1259.56 -0.86301 -3.27521 0
M  V30 13094 C 1258.61 -1.98325 -3.77584 0
M  V30 13095 S 1259.44 -3.59751 -3.9666 0
M  V30 13096 C 1260.6 -3.26959 -5.33712 0
M  V30 13097 H 1260.83 -2.15667 -2.04634 0
M  V30 13098 H 1258.36 -1.19848 -0.973441 0
M  V30 13099 H 1260.32 -0.668754 -4.05016 0
M  V30 13100 H 1258.98 0.0639417 -3.14035 0
M  V30 13101 H 1258.18 -1.69332 -4.74703 0
M  V30 13102 H 1257.78 -2.13529 -3.07053 0
M  V30 13103 H 1260.07 -2.79126 -6.17329 0
M  V30 13104 H 1261.01 -4.23238 -5.67693 0
M  V30 13105 H 1261.42 -2.62996 -4.99493 0
M  V30 13106 N 1260.82 1.03812 -1.18578 0
M  V30 13107 C 1262.07 1.77056 -0.982718 0
M  V30 13108 C 1262.39 1.88294 0.487421 0
M  V30 13109 O 1261.65 1.38946 1.37813 0
M  V30 13110 C 1261.95 3.20297 -1.5857 0
M  V30 13111 C 1261.61 3.29088 -3.0824 0
M  V30 13112 C 1260.28 3.31194 -3.4909 0
M  V30 13113 C 1262.63 3.28981 -4.04253 0
M  V30 13114 C 1259.96 3.30839 -4.84523 0
M  V30 13115 C 1262.31 3.30166 -5.39605 0
M  V30 13116 C 1260.97 3.30565 -5.79899 0
M  V30 13117 H 1260.24 0.647895 -0.359602 0
M  V30 13118 H 1262.89 1.21911 -1.47682 0
M  V30 13119 H 1261.19 3.7846 -1.01367 0
M  V30 13120 H 1262.89 3.75619 -1.40398 0
M  V30 13121 H 1259.48 3.28171 -2.75685 0
M  V30 13122 H 1263.67 3.26543 -3.73743 0
M  V30 13123 H 1258.92 3.29467 -5.15035 0
M  V30 13124 H 1263.1 3.29033 -6.13767 0
M  V30 13125 H 1260.72 3.30044 -6.84818 0
M  V30 13126 N 1262.3 0.988223 1.22768 0
M  V30 13127 C 1263.53 0.679743 1.95415 0
M  V30 13128 C 1263.94 -0.754731 1.73059 0
M  V30 13129 O 1263.3 -1.50876 1.02678 0
M  V30 13130 C 1263.35 0.970344 3.48234 0
M  V30 13131 O 1263.07 2.34845 3.69837 0
M  V30 13132 C 1264.57 0.67891 4.3807 0
M  V30 13133 H 1261.79 0.251847 0.621944 0
M  V30 13134 H 1264.33 1.32173 1.56047 0
M  V30 13135 H 1262.49 0.374241 3.85588 0
M  V30 13136 H 1262.9 2.44412 4.64072 0
M  V30 13137 H 1264.38 0.932549 5.44066 0
M  V30 13138 H 1264.85 -0.387073 4.37491 0
M  V30 13139 H 1265.46 1.25585 4.06335 0
M  V30 13140 N 1263.78 -1.38018 0.760839 0
M  V30 13141 C 1265.02 -2.01795 0.325264 0
M  V30 13142 C 1265.38 -1.59092 -1.07489 0
M  V30 13143 O 1266.58 -2.15251 -1.60998 0
M  V30 13144 C 1264.85 -3.5453 0.452007 0
M  V30 13145 S 1266.41 -4.38686 0.100084 0
M  V30 13146 H 1263.23 -0.69979 0.125758 0
M  V30 13147 H 1265.83 -1.684 0.993054 0
M  V30 13148 H 1264.53 -3.83099 1.47186 0
M  V30 13149 H 1264.07 -3.92711 -0.232716 0
M  V30 13150 H 1266.08 -4.83672 -1.10797 0
M  V30 13151 N 1265.25 -0.510493 -1.49103 0
M  V30 13152 C 1266.2 0.276449 -2.30951 0
M  V30 13153 C 1267.2 0.953893 -1.3999 0
M  V30 13154 O 1268.4 0.880499 -1.56994 0
M  V30 13155 H 1264.78 0.108013 -0.744202 0
M  V30 13156 H 1266.75 -0.433725 -2.95231 0
M  V30 13157 C 1265.5 1.32234 -3.21573 0
M  V30 13158 H 1264.82 0.810468 -3.91499 0
M  V30 13159 H 1266.26 1.84476 -3.81765 0
M  V30 13160 C 1264.72 2.3456 -2.41833 0
M  V30 13161 O 1265.25 3.40627 -2.12922 0
M  V30 13162 N 1263.45 2.07272 -2.03682 0
M  V30 13163 H 1263 1.21036 -2.27394 0
M  V30 13164 H 1262.96 2.75963 -1.50638 0
M  V30 13165 N 1266.73 1.55688 -0.24474 0
M  V30 13166 C 1267.96 2.03743 0.387776 0
M  V30 13167 C 1268.38 1.1229 1.50906 0
M  V30 13168 O 1267.74 0.115445 1.80932 0
M  V30 13169 C 1267.79 3.49825 0.874927 0
M  V30 13170 O 1266.89 3.61504 1.98466 0
M  V30 13171 H 1266.23 0.658561 0.0848107 0
M  V30 13172 H 1268.76 2.01224 -0.370165 0
M  V30 13173 H 1268.77 3.90603 1.17871 0
M  V30 13174 H 1267.45 4.15864 0.0543852 0
M  V30 13175 H 1266.02 3.32622 1.68574 0
M  V30 13176 N 1268.21 -0.0283989 1.57574 0
M  V30 13177 C 1269.63 -0.384054 1.5491 0
M  V30 13178 C 1269.83 -1.76564 0.970947 0
M  V30 13179 O 1268.88 -2.45455 0.592288 0
M  V30 13180 C 1270.19 -0.285297 2.99344 0
M  V30 13181 C 1271.74 -0.36233 3.10896 0
M  V30 13182 C 1272.22 -0.293014 4.57062 0
M  V30 13183 N 1273.71 -0.351788 4.61862 0
M  V30 13184 C 1274.44 -0.321054 5.725 0
M  V30 13185 N 1273.94 -0.242573 6.92375 0
M  V30 13186 N 1275.73 -0.370832 5.60875 0
M  V30 13187 H 1267.88 0.87573 1.93506 0
M  V30 13188 H 1270.15 0.33305 0.887571 0
M  V30 13189 H 1269.85 0.664146 3.45372 0
M  V30 13190 H 1269.73 -1.07869 3.61447 0
M  V30 13191 H 1272.11 -1.30221 2.64814 0
M  V30 13192 H 1272.19 0.460422 2.51622 0
M  V30 13193 H 1271.84 0.643197 5.03811 0
M  V30 13194 H 1271.77 -1.13388 5.14248 0
M  V30 13195 H 1274.26 -0.414929 3.75615 0
M  V30 13196 H 1274.57 -0.224239 7.72475 0
M  V30 13197 H 1272.92 -0.208612 6.94687 0
M  V30 13198 H 1276.11 -0.430141 4.6612 0
M  V30 13199 H 1276.28 -0.343412 6.47089 0
M  V30 13200 N 1269.69 -1.54705 -0.300681 0
M  V30 13201 C 1270.96 -1.6468 -1.05546 0
M  V30 13202 C 1271.34 -0.495292 -2.05207 0
M  V30 13203 O 1270.69 0.507944 -2.22783 0
M  V30 13204 C 1270.9 -3.02702 -1.73703 0
M  V30 13205 C 1272.25 -3.59527 -2.25888 0
M  V30 13206 O 1273.27 -3.05156 -1.83735 0
M  V30 13207 O 1272.13 -4.54727 -3.03126 0
M  V30 13208 H 1269.23 -0.667769 -0.487867 0
M  V30 13209 H 1271.77 -1.6705 -0.298743 0
M  V30 13210 H 1270.55 -3.7795 -1.01338 0
M  V30 13211 H 1270.17 -3.0411 -2.5613 0
M  V30 13212 N 1271.17 0.563888 -1.47167 0
M  V30 13213 C 1272.1 1.68137 -1.62025 0
M  V30 13214 C 1273.08 1.63481 -0.469899 0
M  V30 13215 O 1274.26 1.81206 -0.698432 0
M  V30 13216 C 1271.39 3.06779 -1.62801 0
M  V30 13217 C 1270.35 3.26278 -2.76996 0
M  V30 13218 C 1269.67 4.65638 -2.62841 0
M  V30 13219 C 1270.97 3.12295 -4.18651 0
M  V30 13220 H 1272.67 1.55958 -2.55573 0
M  V30 13221 H 1270.21 0.74887 -1.22996 0
M  V30 13222 H 1272.17 3.84795 -1.71787 0
M  V30 13223 H 1270.89 3.19901 -0.658097 0
M  V30 13224 H 1269.55 2.50668 -2.67509 0
M  V30 13225 H 1269.2 4.75551 -1.63892 0
M  V30 13226 H 1268.9 4.79635 -3.39447 0
M  V30 13227 H 1270.42 5.45798 -2.73746 0
M  V30 13228 H 1271.83 3.80136 -4.2915 0
M  V30 13229 H 1270.23 3.37805 -4.95992 0
M  V30 13230 H 1271.3 2.09126 -4.37486 0
M  V30 13231 N 1272.64 1.35187 0.810078 0
M  V30 13232 C 1273.57 1.30481 1.93641 0
M  V30 13233 C 1274.56 0.179875 1.69146 0
M  V30 13234 O 1275.74 0.374284 1.90559 0
M  V30 13235 C 1272.87 1.07251 3.30325 0
M  V30 13236 C 1271.82 2.16348 3.69293 0
M  V30 13237 C 1271.15 1.78288 5.04101 0
M  V30 13238 C 1272.45 3.58285 3.80038 0
M  V30 13239 H 1274.14 2.24725 1.97836 0
M  V30 13240 H 1271.69 1.08179 0.950436 0
M  V30 13241 H 1273.64 1.02599 4.08719 0
M  V30 13242 H 1272.37 0.0945203 3.26463 0
M  V30 13243 H 1271.03 2.2009 2.93182 0
M  V30 13244 H 1270.67 0.791163 4.96739 0
M  V30 13245 H 1270.37 2.51315 5.31144 0
M  V30 13246 H 1271.9 1.75155 5.84938 0
M  V30 13247 H 1273.31 3.56884 4.48672 0
M  V30 13248 H 1271.71 4.30044 4.18548 0
M  V30 13249 H 1272.78 3.94691 2.81685 0
M  V30 13250 N 1274.12 -1.03182 1.19127 0
M  V30 13251 C 1275.37 -1.76184 0.990134 0
M  V30 13252 C 1275.69 -1.88986 -0.480546 0
M  V30 13253 O 1274.96 -1.4213 -1.34817 0
M  V30 13254 H 1273.54 -0.652668 0.363364 0
M  V30 13255 H 1276.2 -1.24481 1.49968 0
M  V30 13256 H 1275.3 -2.77119 1.43568 0
M  V30 13257 N 1275.6 -0.99472 -1.22242 0
M  V30 13258 C 1276.84 -0.679831 -1.92763 0
M  V30 13259 C 1277.2 0.774024 -1.75707 0
M  V30 13260 O 1278.41 1.20041 -2.40507 0
M  V30 13261 C 1276.68 -1.07685 -3.40791 0
M  V30 13262 S 1278.24 -0.880607 -4.29873 0
M  V30 13263 H 1275.05 -0.248508 -0.666157 0
M  V30 13264 H 1277.66 -1.27738 -1.47997 0
M  V30 13265 H 1276.36 -2.1313 -3.50719 0
M  V30 13266 H 1275.89 -0.471172 -3.90568 0
M  V30 13267 H 1277.91 0.227887 -4.95676 0
M  V30 13268 N 1277.08 1.37613 -0.768148 0
M  V30 13269 C 1278.01 2.3291 -0.165911 0
M  V30 13270 C 1278.99 1.556 0.687205 0
M  V30 13271 O 1280.17 1.83854 0.625407 0
M  V30 13272 C 1277.3 3.39822 0.7168 0
M  V30 13273 C 1276.26 4.27986 -0.0347264 0
M  V30 13274 C 1275.58 5.2588 0.967192 0
M  V30 13275 C 1276.88 5.08052 -1.21164 0
M  V30 13276 H 1278.58 2.83524 -0.962006 0
M  V30 13277 H 1276.12 1.36318 -0.464051 0
M  V30 13278 H 1278.08 4.05464 1.14789 0
M  V30 13279 H 1276.8 2.87725 1.54538 0
M  V30 13280 H 1275.46 3.6387 -0.446557 0
M  V30 13281 H 1275.11 4.70064 1.79022 0
M  V30 13282 H 1274.81 5.85726 0.468913 0
M  V30 13283 H 1276.33 5.94397 1.3973 0
M  V30 13284 H 1277.75 5.66853 -0.857373 0
M  V30 13285 H 1276.14 5.77206 -1.64176 0
M  V30 13286 H 1277.21 4.40936 -2.0175 0
M  V30 13287 N 1278.56 0.518393 1.4883 0
M  V30 13288 C 1279.52 -0.23983 2.27942 0
M  V30 13289 C 1280.52 -0.878302 1.34694 0
M  V30 13290 O 1281.71 -0.740142 1.57694 0
M  V30 13291 C 1278.84 -1.34581 3.1321 0
M  V30 13292 H 1280.03 0.454599 2.96434 0
M  V30 13293 H 1277.59 0.273932 1.53881 0
M  V30 13294 H 1278.32 -2.07385 2.49323 0
M  V30 13295 H 1278.11 -0.893251 3.8179 0
M  V30 13296 H 1279.6 -1.87944 3.72917 0
M  V30 13297 N 1280.03 -1.55556 0.252993 0
M  V30 13298 C 1280.97 -2.18978 -0.676837 0
M  V30 13299 C 1281.98 -1.16788 -1.13421 0
M  V30 13300 O 1283.17 -1.43623 -1.05993 0
M  V30 13301 C 1280.27 -2.78404 -1.93248 0
M  V30 13302 C 1279.44 -4.06072 -1.62555 0
M  V30 13303 C 1278.5 -4.49757 -2.7314 0
M  V30 13304 O 1277.53 -5.16005 -2.40266 0
M  V30 13305 N 1278.73 -4.18049 -4.0276 0
M  V30 13306 H 1281.49 -2.994 -0.134142 0
M  V30 13307 H 1279.05 -1.61734 0.0731965 0
M  V30 13308 H 1281.05 -3.04583 -2.6648 0
M  V30 13309 H 1279.62 -2.02104 -2.3848 0
M  V30 13310 H 1278.84 -3.87417 -0.728115 0
M  V30 13311 H 1280.12 -4.89297 -1.39521 0
M  V30 13312 H 1279.52 -3.64876 -4.32298 0
M  V30 13313 H 1278.08 -4.4905 -4.72438 0
M  V30 13314 N 1281.51 0.0200419 -1.57587 0
M  V30 13315 C 1282.42 1.0346 -2.10555 0
M  V30 13316 C 1283.44 1.39035 -1.0462 0
M  V30 13317 O 1284.61 1.48172 -1.36407 0
M  V30 13318 C 1281.68 2.31389 -2.58186 0
M  V30 13319 C 1280.74 2.02311 -3.7864 0
M  V30 13320 C 1279.97 3.24141 -4.23991 0
M  V30 13321 O 1280.2 4.35132 -3.68803 0
M  V30 13322 O 1279.13 3.09312 -5.16342 0
M  V30 13323 H 1282.96 0.614419 -2.9742 0
M  V30 13324 H 1280.54 0.237604 -1.47498 0
M  V30 13325 H 1282.42 3.06582 -2.89112 0
M  V30 13326 H 1281.1 2.72684 -1.74428 0
M  V30 13327 H 1280.01 1.24658 -3.5272 0
M  V30 13328 H 1281.34 1.65866 -4.6341 0
M  V30 13329 N 1282.99 1.54862 0.292472 0
M  V30 13330 C 1283.94 1.82788 1.36281 0
M  V30 13331 C 1284.92 0.685534 1.45565 0
M  V30 13332 O 1286.12 0.946393 1.49574 0
M  V30 13333 C 1283.25 2.08616 2.72643 0
M  V30 13334 C 1282.33 3.29058 2.67548 0
M  V30 13335 N 1282.72 4.49419 2.32069 0
M  V30 13336 C 1281.02 3.31257 2.98639 0
M  V30 13337 C 1281.72 5.31461 2.36483 0
M  V30 13338 N 1280.7 4.69389 2.7418 0
M  V30 13339 H 1284.5 2.73405 1.07828 0
M  V30 13340 H 1282.01 1.54477 0.501074 0
M  V30 13341 H 1284.01 2.26772 3.49829 0
M  V30 13342 H 1282.67 1.19272 3.02001 0
M  V30 13343 H 1283.68 4.75868 2.04377 0
M  V30 13344 H 1280.36 2.52045 3.32836 0
M  V30 13345 H 1281.75 6.37651 2.11779 0
M  V30 13346 N 1284.47 -0.556076 1.47464 0
M  V30 13347 C 1285.42 -1.68406 1.60444 0
M  V30 13348 C 1286.41 -1.627 0.471713 0
M  V30 13349 O 1287.62 -1.67871 0.649551 0
M  V30 13350 H 1283.99 -0.557255 0.504946 0
M  V30 13351 H 1285.96 -1.54595 2.55231 0
M  V30 13352 C 1284.71 -3.06756 1.63695 0
M  V30 13353 H 1284.03 -3.11829 2.50206 0
M  V30 13354 H 1285.47 -3.85368 1.76827 0
M  V30 13355 C 1283.93 -3.34857 0.370485 0
M  V30 13356 O 1284.46 -3.98216 -0.527942 0
M  V30 13357 N 1282.67 -2.89521 0.250163 0
M  V30 13358 H 1282.22 -2.3814 0.982204 0
M  V30 13359 H 1282.17 -3.08694 -0.596268 0
M  V30 13360 N 1285.95 -1.35615 -0.802897 0
M  V30 13361 C 1287.2 -1.28428 -1.55528 0
M  V30 13362 C 1287.51 0.138275 -1.95111 0
M  V30 13363 O 1288.72 0.332435 -2.69457 0
M  V30 13364 C 1287.17 -2.25251 -2.80696 0
M  V30 13365 C 1286.78 -3.72871 -2.48336 0
M  V30 13366 C 1288.52 -2.27014 -3.58699 0
M  V30 13367 C 1286.43 -4.61507 -3.69817 0
M  V30 13368 H 1285.36 -0.47718 -0.583794 0
M  V30 13369 H 1288.01 -1.609 -0.882238 0
M  V30 13370 H 1286.39 -1.85755 -3.4973 0
M  V30 13371 H 1287.57 -4.21024 -1.87285 0
M  V30 13372 H 1285.88 -3.73752 -1.83571 0
M  V30 13373 H 1288.48 -2.90451 -4.48935 0
M  V30 13374 H 1288.82 -1.27491 -3.96298 0
M  V30 13375 H 1289.36 -2.65058 -2.9663 0
M  V30 13376 H 1286.09 -5.62043 -3.37324 0
M  V30 13377 H 1285.61 -4.18079 -4.30081 0
M  V30 13378 H 1287.29 -4.77113 -4.37004 0
M  V30 13379 N 1287.43 1.02549 -1.19673 0
M  V30 13380 C 1288.65 1.8016 -1.02748 0
M  V30 13381 C 1289.08 1.83372 0.419105 0
M  V30 13382 O 1288.43 1.26222 1.30144 0
M  V30 13383 C 1288.48 3.22907 -1.60509 0
M  V30 13384 O 1287.59 4.03823 -0.836702 0
M  V30 13385 H 1286.93 0.556027 -0.362946 0
M  V30 13386 H 1289.46 1.29047 -1.5877 0
M  V30 13387 H 1289.47 3.73646 -1.63868 0
M  V30 13388 H 1288.14 3.19885 -2.65794 0
M  V30 13389 H 1286.72 3.6245 -0.876626 0
M  V30 13390 N 1288.9 1.00119 1.21713 0
M  V30 13391 C 1289.87 0.563409 2.22167 0
M  V30 13392 C 1290.87 -0.35819 1.5676 0
M  V30 13393 O 1292.06 -0.149001 1.73562 0
M  V30 13394 C 1289.19 -0.179365 3.40428 0
M  V30 13395 H 1290.38 1.45189 2.62412 0
M  V30 13396 H 1287.93 0.789286 1.34907 0
M  V30 13397 H 1288.67 -1.08345 3.05666 0
M  V30 13398 H 1288.45 0.482471 3.8912 0
M  V30 13399 H 1289.94 -0.473537 4.14906 0
M  V30 13400 N 1290.38 -1.37203 0.775435 0
M  V30 13401 C 1291.61 -2.04396 0.351737 0
M  V30 13402 C 1292.03 -1.58099 -1.01913 0
M  V30 13403 O 1291.39 -0.742932 -1.65379 0
M  V30 13404 C 1291.44 -3.58283 0.408105 0
M  V30 13405 O 1290.54 -4.08156 -0.590104 0
M  V30 13406 H 1289.88 -0.646451 0.151647 0
M  V30 13407 H 1292.41 -1.75443 1.05265 0
M  V30 13408 H 1292.42 -4.07127 0.266711 0
M  V30 13409 H 1291.1 -3.91335 1.40819 0
M  V30 13410 H 1289.67 -3.70622 -0.411524 0
M  V30 13411 N 1291.86 -0.526279 -1.48553 0
M  V30 13412 C 1292.79 0.275579 -2.27537 0
M  V30 13413 C 1293.8 0.90782 -1.35139 0
M  V30 13414 O 1294.99 0.786887 -1.6022 0
M  V30 13415 C 1292.09 1.40515 -3.08397 0
M  V30 13416 C 1291.27 0.875523 -4.28548 0
M  V30 13417 C 1290.33 1.88577 -4.91249 0
M  V30 13418 O 1289.35 1.44419 -5.50574 0
M  V30 13419 N 1290.55 3.21774 -4.83158 0
M  V30 13420 H 1293.32 -0.401803 -2.96994 0
M  V30 13421 H 1290.88 -0.360378 -1.57838 0
M  V30 13422 H 1292.87 2.07907 -3.47213 0
M  V30 13423 H 1291.44 1.98626 -2.41384 0
M  V30 13424 H 1290.66 0.025728 -3.94192 0
M  V30 13425 H 1291.95 0.500493 -5.06332 0
M  V30 13426 H 1291.35 3.60319 -4.36104 0
M  V30 13427 H 1289.9 3.84808 -5.26085 0
M  V30 13428 N 1293.34 1.5542 -0.261239 0
M  V30 13429 C 1294.58 1.99579 0.36002 0
M  V30 13430 C 1294.92 1.14933 1.56538 0
M  V30 13431 O 1294.19 0.216082 1.93296 0
M  V30 13432 C 1294.47 3.52078 0.755842 0
M  V30 13433 C 1294.33 4.47484 -0.455896 0
M  V30 13434 C 1295.65 4.10083 1.5975 0
M  V30 13435 H 1292.77 0.725554 0.129385 0
M  V30 13436 H 1295.41 1.86453 -0.365415 0
M  V30 13437 H 1293.56 3.63394 1.37393 0
M  V30 13438 H 1295.23 4.4813 -1.09441 0
M  V30 13439 H 1293.47 4.19714 -1.09646 0
M  V30 13440 H 1294.14 5.51834 -0.13539 0
M  V30 13441 H 1296.62 4.01957 1.07562 0
M  V30 13442 H 1295.5 5.17024 1.84329 0
M  V30 13443 H 1295.76 3.59438 2.57404 0
M  V30 13444 N 1294.82 -0.0116844 1.57596 0
M  V30 13445 C 1295.76 -1.02514 2.08791 0
M  V30 13446 C 1296.76 -1.36341 1.00536 0
M  V30 13447 O 1297.96 -1.35042 1.19011 0
M  V30 13448 H 1294.34 -0.348201 0.666528 0
M  V30 13449 H 1296.31 -0.567698 2.9295 0
M  V30 13450 C 1295.06 -2.312 2.59696 0
M  V30 13451 H 1294.38 -2.06036 3.42621 0
M  V30 13452 H 1295.82 -3.00417 2.99208 0
M  V30 13453 C 1294.28 -3.01372 1.50586 0
M  V30 13454 O 1294.81 -3.91896 0.882046 0
M  V30 13455 N 1293.02 -2.62997 1.23616 0
M  V30 13456 H 1292.56 -1.89466 1.74529 0
M  V30 13457 H 1292.52 -3.10264 0.508289 0
M  V30 13458 N 1296.29 -1.55015 -0.284256 0
M  V30 13459 C 1297.26 -1.8636 -1.33426 0
M  V30 13460 C 1298.26 -0.737457 -1.42892 0
M  V30 13461 O 1299.45 -1.00569 -1.42238 0
M  V30 13462 C 1296.58 -2.05884 -2.71707 0
M  V30 13463 H 1297.77 -2.80212 -1.06869 0
M  V30 13464 H 1295.32 -1.47334 -0.521767 0
M  V30 13465 H 1296.06 -1.14376 -3.03461 0
M  V30 13466 H 1295.84 -2.87867 -2.66224 0
M  V30 13467 H 1297.33 -2.31447 -3.47595 0
M  V30 13468 N 1297.77 0.548248 -1.47757 0
M  V30 13469 C 1299.01 1.31569 -1.56426 0
M  V30 13470 C 1299.38 1.90676 -0.225072 0
M  V30 13471 O 1300.58 2.68151 -0.186652 0
M  V30 13472 C 1298.85 2.38951 -2.65776 0
M  V30 13473 S 1300.41 3.25664 -2.94089 0
M  V30 13474 H 1297.22 0.447791 -0.552272 0
M  V30 13475 H 1299.83 0.626659 -1.85184 0
M  V30 13476 H 1298.53 1.93978 -3.61664 0
M  V30 13477 H 1298.06 3.12584 -2.38861 0
M  V30 13478 H 1300.08 4.38629 -2.31989 0
M  V30 13479 N 1299.25 1.36039 0.795694 0
M  V30 13480 C 1300.2 1.26386 1.89765 0
M  V30 13481 C 1301.18 0.156711 1.60135 0
M  V30 13482 O 1302.38 0.388946 1.72674 0
M  V30 13483 C 1299.5 1.04907 3.26878 0
M  V30 13484 C 1298.59 2.20061 3.62538 0
M  V30 13485 N 1298.98 3.45347 3.69553 0
M  V30 13486 C 1297.28 2.11688 3.92561 0
M  V30 13487 C 1297.98 4.21138 4.0127 0
M  V30 13488 N 1296.96 3.5001 4.15925 0
M  V30 13489 H 1300.76 2.21295 1.93405 0
M  V30 13490 H 1298.27 1.28668 0.990877 0
M  V30 13491 H 1300.27 0.960791 4.05678 0
M  V30 13492 H 1298.93 0.108921 3.24517 0
M  V30 13493 H 1299.94 3.79561 3.52355 0
M  V30 13494 H 1296.62 1.25592 3.98162 0
M  V30 13495 H 1298.01 5.29456 4.13673 0
M  V30 13496 N 1300.73 -1.01913 1.20215 0
M  V30 13497 C 1301.97 -1.7573 1.01226 0
M  V30 13498 C 1302.31 -1.88799 -0.45481 0
M  V30 13499 O 1301.58 -1.41196 -1.33768 0
M  V30 13500 C 1301.87 -3.17795 1.69348 0
M  V30 13501 C 1301.72 -3.12536 3.23483 0
M  V30 13502 C 1303.04 -4.16409 1.42448 0
M  V30 13503 H 1300.16 -0.637889 0.369144 0
M  V30 13504 H 1302.8 -1.18907 1.48193 0
M  V30 13505 H 1300.95 -3.66311 1.29416 0
M  V30 13506 H 1302.62 -2.71843 3.72692 0
M  V30 13507 H 1300.86 -2.49997 3.54519 0
M  V30 13508 H 1301.53 -4.12949 3.66302 0
M  V30 13509 H 1304.01 -3.76537 1.77086 0
M  V30 13510 H 1302.89 -5.13983 1.92648 0
M  V30 13511 H 1303.15 -4.407 0.351574 0
M  V30 13512 N 1302.21 -1.00763 -1.2118 0
M  V30 13513 C 1303.17 -0.575183 -2.21865 0
M  V30 13514 C 1304.17 0.349871 -1.56948 0
M  V30 13515 O 1305.36 0.139795 -1.73638 0
M  V30 13516 C 1302.49 0.161308 -3.40518 0
M  V30 13517 H 1303.68 -1.46578 -2.61639 0
M  V30 13518 H 1301.24 -0.79643 -1.34487 0
M  V30 13519 H 1301.97 1.06723 -3.06236 0
M  V30 13520 H 1301.76 -0.503101 -3.88859 0
M  V30 13521 H 1303.25 0.451527 -4.15152 0
M  V30 13522 N 1303.68 1.3679 -0.7827 0
M  V30 13523 C 1304.59 2.33928 -0.17747 0
M  V30 13524 C 1305.61 1.60716 0.666802 0
M  V30 13525 O 1306.79 1.92742 0.584162 0
M  V30 13526 C 1303.85 3.39907 0.68294 0
M  V30 13527 C 1302.91 4.28926 -0.179053 0
M  V30 13528 C 1302.15 5.29844 0.640386 0
M  V30 13529 O 1302.37 5.38639 1.87681 0
M  V30 13530 O 1301.3 6.01884 0.0438164 0
M  V30 13531 H 1305.13 2.87439 -0.980441 0
M  V30 13532 H 1302.71 1.39142 -0.54404 0
M  V30 13533 H 1304.6 4.04722 1.17379 0
M  V30 13534 H 1303.27 2.88706 1.46391 0
M  V30 13535 H 1302.18 3.67174 -0.716512 0
M  V30 13536 H 1303.51 4.83461 -0.923377 0
M  V30 13537 N 1305.16 0.53415 1.48272 0
M  V30 13538 C 1306.39 0.00368464 2.074 0
M  V30 13539 C 1306.81 -1.27003 1.38751 0
M  V30 13540 O 1306.17 -1.75502 0.454817 0
M  V30 13541 C 1306.22 -0.199034 3.6005 0
M  V30 13542 O 1305.32 -1.26679 3.92462 0
M  V30 13543 H 1304.66 0.0409936 0.662733 0
M  V30 13544 H 1307.19 0.743253 1.90622 0
M  V30 13545 H 1307.2 -0.420404 4.05828 0
M  V30 13546 H 1305.88 0.731391 4.09418 0
M  V30 13547 H 1304.46 -1.02775 3.58457 0
M  V30 13548 N 1306.64 -1.55279 0.269478 0
M  V30 13549 C 1307.6 -2.21008 -0.607299 0
M  V30 13550 C 1308.6 -1.18619 -1.08564 0
M  V30 13551 O 1309.79 -1.4356 -0.986721 0
M  V30 13552 C 1306.93 -2.87157 -1.83721 0
M  V30 13553 H 1308.12 -2.99881 -0.0334894 0
M  V30 13554 H 1305.67 -1.56287 0.0200573 0
M  V30 13555 H 1306.41 -2.12281 -2.45168 0
M  V30 13556 H 1306.19 -3.62183 -1.5022 0
M  V30 13557 H 1307.68 -3.37391 -2.46083 0
M  V30 13558 N 1308.12 0.00332656 -1.576 0
M  V30 13559 C 1309.36 0.68989 -1.90705 0
M  V30 13560 C 1309.7 1.73608 -0.870291 0
M  V30 13561 O 1308.97 1.94181 0.111416 0
M  V30 13562 C 1309.26 1.33605 -3.34397 0
M  V30 13563 C 1309.11 0.301638 -4.48787 0
M  V30 13564 C 1310.43 2.26313 -3.77453 0
M  V30 13565 H 1307.55 0.249328 -0.693545 0
M  V30 13566 H 1310.19 -0.0472847 -1.89941 0
M  V30 13567 H 1308.34 1.96437 -3.35179 0
M  V30 13568 H 1310.01 -0.326738 -4.60141 0
M  V30 13569 H 1308.25 -0.376451 -4.32163 0
M  V30 13570 H 1308.92 0.792741 -5.46278 0
M  V30 13571 H 1311.4 1.73502 -3.78201 0
M  V30 13572 H 1310.28 2.68492 -4.78752 0
M  V30 13573 H 1310.54 3.14082 -3.11135 0
M  V30 13574 N 1309.6 1.55164 0.276031 0
M  V30 13575 C 1310.54 1.88623 1.36104 0
M  V30 13576 C 1311.54 0.762265 1.51281 0
M  V30 13577 O 1312.74 0.946573 1.53101 0
M  V30 13578 H 1309.12 0.59863 0.455133 0
M  V30 13579 H 1311.09 2.79266 1.05134 0
M  V30 13580 C 1309.84 2.17207 2.71508 0
M  V30 13581 H 1309.16 3.03179 2.6062 0
M  V30 13582 H 1310.6 2.44541 3.46375 0
M  V30 13583 C 1309.06 0.978671 3.22372 0
M  V30 13584 O 1309.59 0.211766 4.01141 0
M  V30 13585 N 1307.8 0.777199 2.80014 0
M  V30 13586 H 1307.34 1.40252 2.16072 0
M  V30 13587 H 1307.3 -0.0196754 3.14394 0
M  V30 13588 N 1311.07 -0.540404 1.48045 0
M  V30 13589 C 1312.3 -1.31986 1.58944 0
M  V30 13590 C 1312.71 -1.87608 0.244889 0
M  V30 13591 O 1312.06 -1.66576 -0.774467 0
M  V30 13592 C 1312.12 -2.51547 2.56835 0
M  V30 13593 C 1311.78 -2.17089 4.02146 0
M  V30 13594 C 1312.78 -1.73379 4.90138 0
M  V30 13595 C 1310.46 -2.27932 4.47607 0
M  V30 13596 C 1312.46 -1.40964 6.21617 0
M  V30 13597 C 1310.14 -1.95129 5.7911 0
M  V30 13598 C 1311.14 -1.51715 6.65937 0
M  V30 13599 O 1310.83 -1.19337 7.94993 0
M  V30 13600 H 1310.56 -0.408028 0.538971 0
M  V30 13601 H 1313.12 -0.659748 1.94516 0
M  V30 13602 H 1311.35 -3.20505 2.16364 0
M  V30 13603 H 1313.04 -3.13617 2.57681 0
M  V30 13604 H 1313.8 -1.64481 4.56258 0
M  V30 13605 H 1309.68 -2.6068 3.8022 0
M  V30 13606 H 1313.22 -1.07005 6.89344 0
M  V30 13607 H 1309.12 -2.03664 6.12528 0
M  V30 13608 H 1309.89 -1.32824 8.07651 0
M  V30 13609 N 1312.55 -1.36459 -0.788468 0
M  V30 13610 C 1313.78 -1.34063 -1.58246 0
M  V30 13611 C 1314.2 0.0754933 -1.87948 0
M  V30 13612 O 1313.56 1.04772 -1.47961 0
M  V30 13613 C 1313.61 -2.17038 -2.8797 0
M  V30 13614 O 1312.71 -1.56353 -3.81612 0
M  V30 13615 H 1312.05 -0.458816 -0.479983 0
M  V30 13616 H 1314.58 -1.79755 -0.977207 0
M  V30 13617 H 1314.59 -2.29651 -3.3723 0
M  V30 13618 H 1313.27 -3.19981 -2.65678 0
M  V30 13619 H 1311.85 -1.52685 -3.40208 0
M  V30 13620 N 1314.03 1.01274 -1.20754 0
M  V30 13621 C 1314.96 2.11763 -0.983805 0
M  V30 13622 C 1315.94 1.69869 0.0885635 0
M  V30 13623 O 1317.13 1.94075 -0.0697239 0
M  V30 13624 C 1314.26 3.43087 -0.539287 0
M  V30 13625 C 1313.21 3.9874 -1.55534 0
M  V30 13626 C 1312.54 5.25877 -0.967322 0
M  V30 13627 C 1313.84 4.31688 -2.94012 0
M  V30 13628 H 1315.53 2.30737 -1.90789 0
M  V30 13629 H 1313.08 1.10884 -0.918734 0
M  V30 13630 H 1315.03 4.19773 -0.369979 0
M  V30 13631 H 1313.75 3.23883 0.420435 0
M  V30 13632 H 1312.41 3.24166 -1.71207 0
M  V30 13633 H 1312.06 5.03 0.000448307 0
M  V30 13634 H 1311.76 5.64077 -1.64594 0
M  V30 13635 H 1313.28 6.05215 -0.809167 0
M  V30 13636 H 1314.7 4.99246 -2.81827 0
M  V30 13637 H 1313.1 4.81011 -3.58815 0
M  V30 13638 H 1314.17 3.4029 -3.45442 0
M  V30 13639 N 1315.51 1.01404 1.20644 0
M  V30 13640 C 1316.76 0.700523 1.89571 0
M  V30 13641 C 1317.08 -0.771978 1.79068 0
M  V30 13642 O 1316.35 -1.55506 1.19142 0
M  V30 13643 H 1314.93 0.256122 0.70172 0
M  V30 13644 H 1317.59 1.28509 1.46531 0
M  V30 13645 H 1316.69 0.981665 2.9626 0
M  V30 13646 N 1316.99 -1.36373 0.789944 0
M  V30 13647 C 1318.26 -1.9349 0.286543 0
M  V30 13648 C 1318.64 -1.7218 -1.22136 0
M  V30 13649 O 1317.99 -1.08106 -2.01309 0
M  V30 13650 C 1318.2 -3.42316 0.679749 0
M  V30 13651 C 1319.55 -4.19442 0.659791 0
M  V30 13652 O 1320.57 -3.50758 0.620256 0
M  V30 13653 O 1319.43 -5.41957 0.703159 0
M  V30 13654 H 1316.53 -0.823942 0.0710537 0
M  V30 13655 H 1319.07 -1.45551 0.872523 0
M  V30 13656 H 1317.85 -3.51485 1.7197 0
M  V30 13657 H 1317.47 -3.97542 0.0676823 0
M  V30 13658 N 1318.47 -0.542005 -1.47987 0
M  V30 13659 C 1319.38 0.217677 -2.33588 0
M  V30 13660 C 1320.39 0.927093 -1.47245 0
M  V30 13661 O 1321.57 0.899378 -1.80203 0
M  V30 13662 C 1318.63 1.24376 -3.23622 0
M  V30 13663 C 1317.69 0.543407 -4.25847 0
M  V30 13664 C 1316.93 1.5206 -5.11579 0
M  V30 13665 O 1317.15 2.75425 -4.99497 0
M  V30 13666 O 1316.08 1.05341 -5.9261 0
M  V30 13667 H 1319.91 -0.484089 -2.99817 0
M  V30 13668 H 1317.49 -0.302783 -1.463 0
M  V30 13669 H 1319.38 1.83644 -3.7928 0
M  V30 13670 H 1318.05 1.92772 -2.6004 0
M  V30 13671 H 1316.96 -0.090074 -3.73992 0
M  V30 13672 H 1318.29 -0.0988264 -4.92101 0
M  V30 13673 N 1319.94 1.55134 -0.277709 0
M  V30 13674 C 1320.88 2.20028 0.641913 0
M  V30 13675 C 1321.89 1.18578 1.11549 0
M  V30 13676 O 1323.08 1.45291 1.03695 0
M  V30 13677 C 1320.18 2.81443 1.88794 0
M  V30 13678 C 1319.35 4.08607 1.56074 0
M  V30 13679 C 1318.41 4.54045 2.6595 0
M  V30 13680 O 1317.44 5.19762 2.32026 0
M  V30 13681 N 1318.64 4.24403 3.96058 0
M  V30 13682 H 1321.4 2.99575 0.0864929 0
M  V30 13683 H 1318.96 1.61598 -0.0989178 0
M  V30 13684 H 1320.96 3.08784 2.616 0
M  V30 13685 H 1319.53 2.05873 2.35234 0
M  V30 13686 H 1318.75 3.88527 0.666388 0
M  V30 13687 H 1320.03 4.91455 1.31719 0
M  V30 13688 H 1319.43 3.71708 4.26439 0
M  V30 13689 H 1317.99 4.56509 4.65234 0
M  V30 13690 N 1321.42 0.00503138 1.57599 0
M  V30 13691 C 1322.67 -0.67742 1.90409 0
M  V30 13692 C 1322.99 -1.74033 0.87963 0
M  V30 13693 O 1322.26 -1.95727 -0.0822757 0
M  V30 13694 H 1320.84 -0.2532 0.702779 0
M  V30 13695 H 1323.5 0.0471466 1.94843 0
M  V30 13696 H 1322.6 -1.14548 2.90319 0
M  V30 13697 N 1322.9 -1.55308 -0.267798 0
M  V30 13698 C 1324.15 -1.76159 -0.998707 0
M  V30 13699 C 1324.47 -0.565573 -1.86095 0
M  V30 13700 O 1323.73 0.45178 -1.90414 0
M  V30 13701 C 1324.03 -3.02286 -1.90678 0
M  V30 13702 C 1323.69 -4.34594 -1.20161 0
M  V30 13703 C 1322.36 -4.70553 -1.00664 0
M  V30 13704 C 1324.71 -5.16475 -0.7002 0
M  V30 13705 C 1322.04 -5.85945 -0.297629 0
M  V30 13706 C 1324.39 -6.326 -0.00475187 0
M  V30 13707 C 1323.05 -6.67195 0.20188 0
M  V30 13708 H 1322.32 -0.644613 -0.365453 0
M  V30 13709 H 1324.97 -1.89579 -0.270545 0
M  V30 13710 H 1323.27 -2.83788 -2.70133 0
M  V30 13711 H 1324.97 -3.15615 -2.47362 0
M  V30 13712 H 1321.56 -4.06334 -1.36348 0
M  V30 13713 H 1325.75 -4.89167 -0.838435 0
M  V30 13714 H 1321 -6.11268 -0.126864 0
M  V30 13715 H 1325.18 -6.95299 0.39151 0
M  V30 13716 H 1322.8 -7.56459 0.753252 0
M  V30 13717 N 1324.38 0.532545 -1.4833 0
M  V30 13718 C 1325.62 1.29902 -1.57812 0
M  V30 13719 C 1325.98 1.90427 -0.245283 0
M  V30 13720 O 1327.18 2.67938 -0.215083 0
M  V30 13721 C 1325.45 2.36119 -2.68296 0
M  V30 13722 S 1327.01 3.22526 -2.97527 0
M  V30 13723 H 1323.83 0.441908 -0.55699 0
M  V30 13724 H 1326.43 0.606983 -1.85839 0
M  V30 13725 H 1325.14 1.90131 -3.63701 0
M  V30 13726 H 1324.67 3.10033 -2.42163 0
M  V30 13727 H 1326.68 4.36144 -2.36628 0
M  V30 13728 N 1325.86 1.36875 0.78122 0
M  V30 13729 C 1327.1 1.31299 1.53639 0
M  V30 13730 C 1327.42 -0.104942 1.94717 0
M  V30 13731 O 1326.69 -1.04696 1.65576 0
M  V30 13732 H 1325.27 0.483032 0.569815 0
M  V30 13733 H 1327.94 1.71261 0.930359 0
M  V30 13734 H 1327.03 1.94581 2.44018 0
M  V30 13735 N 1327.33 -1.00632 1.21289 0
M  V30 13736 C 1328.56 -1.78503 1.05601 0
M  V30 13737 C 1328.98 -1.84015 -0.389879 0
M  V30 13738 O 1328.34 -1.28277 -1.2812 0
M  V30 13739 C 1328.39 -3.20313 1.65626 0
M  V30 13740 O 1327.49 -4.02441 0.900841 0
M  V30 13741 H 1326.83 -0.550183 0.371746 0
M  V30 13742 H 1329.36 -1.26505 1.60803 0
M  V30 13743 H 1329.37 -3.70992 1.69792 0
M  V30 13744 H 1328.05 -3.15616 2.7085 0
M  V30 13745 H 1326.63 -3.61009 0.934178 0
M  V30 13746 N 1328.81 -1.02043 -1.20104 0
M  V30 13747 C 1330.22 -0.742954 -1.71281 0
M  V30 13748 C 1330.57 0.738173 -1.81784 0
M  V30 13749 O 1329.7 1.57588 -1.48307 0
M  V30 13750 C 1330.29 -1.342 -3.11088 0
M  V30 13751 C 1328.85 -1.11331 -3.59559 0
M  V30 13752 C 1328 -1.44532 -2.36655 0
M  V30 13753 H 1330.95 -1.18942 -1.05064 0
M  V30 13754 H 1330.97 -0.734558 -3.73342 0
M  V30 13755 H 1330.48 -2.41998 -3.03411 0
M  V30 13756 H 1328.58 -0.05317 -3.72562 0
M  V30 13757 H 1328.7 -1.79606 -4.4416 0
M  V30 13758 H 1327.06 -0.864431 -2.39582 0
M  V30 13759 H 1327.84 -2.53394 -2.31616 0
M  V30 13760 N 1330.29 1.35952 -0.797165 0
M  V30 13761 C 1331.54 1.99765 -0.382794 0
M  V30 13762 C 1331.89 1.62119 1.0361 0
M  V30 13763 O 1331.18 0.869648 1.70727 0
M  V30 13764 C 1331.38 3.53986 -0.492805 0
M  V30 13765 C 1331.21 4.06612 -1.92085 0
M  V30 13766 C 1329.98 4.36403 -2.54716 0
M  V30 13767 C 1332.18 4.25823 -2.88409 0
M  V30 13768 N 1330.16 4.749 -3.89028 0
M  V30 13769 C 1331.53 4.67211 -4.07571 0
M  V30 13770 C 1333.58 4.0801 -2.85364 0
M  V30 13771 C 1332.29 4.9265 -5.24107 0
M  V30 13772 C 1334.31 4.346 -4.01095 0
M  V30 13773 C 1333.67 4.76252 -5.19003 0
M  V30 13774 H 1329.77 0.759152 -0.18765 0
M  V30 13775 H 1332.36 1.64823 -1.03641 0
M  V30 13776 H 1330.53 3.8818 0.130762 0
M  V30 13777 H 1332.26 4.04664 -0.0539319 0
M  V30 13778 H 1329.02 4.26384 -2.06139 0
M  V30 13779 H 1329.44 4.98422 -4.58154 0
M  V30 13780 H 1334.08 3.74958 -1.95363 0
M  V30 13781 H 1331.8 5.2458 -6.14688 0
M  V30 13782 H 1335.39 4.2238 -4.00108 0
M  V30 13783 H 1334.27 4.96427 -6.07066 0
M  V30 13784 N 1331.77 0.549846 1.47697 0
M  V30 13785 C 1333.18 0.11453 1.86348 0
M  V30 13786 C 1333.53 -1.31368 1.45729 0
M  V30 13787 O 1332.66 -1.98707 0.856989 0
M  V30 13788 C 1333.25 0.201072 3.38203 0
M  V30 13789 C 1331.81 -0.179162 3.75973 0
M  V30 13790 C 1330.96 0.551951 2.71751 0
M  V30 13791 H 1333.91 0.759989 1.39319 0
M  V30 13792 H 1333.93 -0.582216 3.76019 0
M  V30 13793 H 1333.44 1.24065 3.67736 0
M  V30 13794 H 1331.54 -1.22013 3.52056 0
M  V30 13795 H 1331.65 0.174273 4.78783 0
M  V30 13796 H 1330.02 -0.00411819 2.547 0
M  V30 13797 H 1330.8 1.59254 3.04127 0
M  V30 13798 N 1333.25 -1.54984 0.285932 0
M  V30 13799 C 1334.19 -2.24385 -0.612703 0
M  V30 13800 C 1335.19 -1.24459 -1.14918 0
M  V30 13801 O 1336.39 -1.42357 -1.10156 0
M  V30 13802 H 1332.77 -0.720263 -0.21616 0
M  V30 13803 H 1334.74 -2.984 -0.00465668 0
M  V30 13804 C 1333.49 -2.98661 -1.78037 0
M  V30 13805 H 1332.81 -3.75347 -1.37676 0
M  V30 13806 H 1334.25 -3.50525 -2.38554 0
M  V30 13807 C 1332.71 -2.04754 -2.67539 0
M  V30 13808 O 1333.24 -1.60577 -3.68209 0
M  V30 13809 N 1331.45 -1.71026 -2.34944 0
M  V30 13810 H 1330.99 -2.07148 -1.53126 0
M  V30 13811 H 1330.95 -1.08467 -2.95097 0
M  V30 13812 N 1334.72 -0.0133892 -1.57594 0
M  V30 13813 C 1335.96 0.672977 -1.93004 0
M  V30 13814 C 1336.33 1.70188 -0.888816 0
M  V30 13815 O 1337.53 2.4396 -1.12859 0
M  V30 13816 C 1335.8 1.28743 -3.33407 0
M  V30 13817 S 1337.36 1.99706 -3.90721 0
M  V30 13818 H 1334.18 0.221972 -0.675462 0
M  V30 13819 H 1336.78 -0.0732871 -1.95363 0
M  V30 13820 H 1335.48 0.525931 -4.07016 0
M  V30 13821 H 1335.01 2.07134 -3.34454 0
M  V30 13822 H 1337.03 3.27375 -3.72881 0
M  V30 13823 N 1336.2 1.55448 0.259558 0
M  V30 13824 C 1337.15 1.90056 1.34096 0
M  V30 13825 C 1338.14 0.778267 1.50464 0
M  V30 13826 O 1339.35 0.962758 1.52089 0
M  V30 13827 H 1335.73 0.603424 0.448758 0
M  V30 13828 H 1337.7 2.80365 1.02166 0
M  V30 13829 C 1336.45 2.20074 2.69189 0
M  V30 13830 H 1335.77 3.05926 2.57389 0
M  V30 13831 H 1337.21 2.48201 3.43762 0
M  V30 13832 C 1335.67 1.01281 3.21316 0
M  V30 13833 O 1336.2 0.2543 4.00894 0
M  V30 13834 N 1334.4 0.806855 2.79174 0
M  V30 13835 H 1333.95 1.42536 2.14572 0
M  V30 13836 H 1333.91 0.0136714 3.14397 0
M  V30 13837 N 1337.68 -0.524672 1.4861 0
M  V30 13838 C 1338.93 -1.28021 1.56898 0
M  V30 13839 C 1339.26 -1.92948 0.245203 0
M  V30 13840 O 1338.51 -1.8013 -0.764966 0
M  V30 13841 C 1338.81 -2.3871 2.65993 0
M  V30 13842 C 1338.48 -1.914 4.08261 0
M  V30 13843 C 1337.14 -1.78215 4.46982 0
M  V30 13844 C 1339.49 -1.55713 4.97396 0
M  V30 13845 C 1336.82 -1.27687 5.72637 0
M  V30 13846 C 1339.17 -1.06645 6.23546 0
M  V30 13847 C 1337.83 -0.920818 6.61118 0
M  V30 13848 H 1337.1 -0.468461 0.57413 0
M  V30 13849 H 1339.75 -0.584901 1.82349 0
M  V30 13850 H 1338.06 -3.13932 2.34422 0
M  V30 13851 H 1339.75 -2.96827 2.6962 0
M  V30 13852 H 1336.34 -2.02614 3.77684 0
M  V30 13853 H 1340.53 -1.64757 4.68155 0
M  V30 13854 H 1335.78 -1.15103 6.00468 0
M  V30 13855 H 1339.96 -0.781048 6.92006 0
M  V30 13856 H 1337.58 -0.527091 7.5837 0
M  V30 13857 N 1339.16 -1.37287 -0.77395 0
M  V30 13858 C 1340.57 -1.28954 -1.3501 0
M  V30 13859 C 1340.92 0.0638301 -1.96096 0
M  V30 13860 O 1340.05 0.965624 -1.93661 0
M  V30 13861 C 1340.64 -2.3352 -2.45467 0
M  V30 13862 C 1339.2 -2.28828 -2.98856 0
M  V30 13863 C 1338.35 -2.17468 -1.72055 0
M  V30 13864 H 1341.3 -1.47941 -0.57438 0
M  V30 13865 H 1341.32 -1.98058 -3.24889 0
M  V30 13866 H 1340.83 -3.32009 -2.00977 0
M  V30 13867 H 1338.93 -1.33855 -3.47726 0
M  V30 13868 H 1339.04 -3.22152 -3.54619 0
M  V30 13869 H 1337.41 -1.63977 -1.94894 0
M  V30 13870 H 1338.19 -3.17868 -1.29672 0
M  V30 13871 N 1340.64 0.999871 -1.21821 0
M  V30 13872 C 1341.55 2.12303 -0.99823 0
M  V30 13873 C 1342.56 1.73924 0.0512923 0
M  V30 13874 O 1343.74 2.00914 -0.139895 0
M  V30 13875 C 1340.8 3.41962 -0.571232 0
M  V30 13876 C 1339.86 3.94483 -1.69356 0
M  V30 13877 C 1339.1 5.17954 -1.28685 0
M  V30 13878 O 1339.32 5.70168 -0.162641 0
M  V30 13879 O 1338.25 5.64051 -2.10071 0
M  V30 13880 H 1342.08 2.3374 -1.93905 0
M  V30 13881 H 1339.67 1.10677 -1.00354 0
M  V30 13882 H 1341.55 4.20001 -0.343134 0
M  V30 13883 H 1340.22 3.21901 0.340814 0
M  V30 13884 H 1339.13 3.17648 -1.97612 0
M  V30 13885 H 1340.46 4.18964 -2.58322 0
M  V30 13886 N 1342.11 1.02678 1.19562 0
M  V30 13887 C 1343.34 0.740493 1.92874 0
M  V30 13888 C 1343.75 -0.704287 1.75603 0
M  V30 13889 O 1343.1 -1.49042 1.07389 0
M  V30 13890 C 1343.16 1.00929 3.45041 0
M  V30 13891 C 1342.82 2.4452 3.86081 0
M  V30 13892 C 1343.82 3.42647 3.9101 0
M  V30 13893 C 1341.5 2.78865 4.1778 0
M  V30 13894 C 1343.5 4.73175 4.27065 0
M  V30 13895 C 1341.18 4.09603 4.53507 0
M  V30 13896 C 1342.18 5.06568 4.58124 0
M  V30 13897 O 1341.87 6.34965 4.93026 0
M  V30 13898 H 1341.6 0.270435 0.619549 0
M  V30 13899 H 1344.16 1.37369 1.52706 0
M  V30 13900 H 1342.39 0.31895 3.85382 0
M  V30 13901 H 1344.08 0.712994 3.99589 0
M  V30 13902 H 1344.84 3.17452 3.66673 0
M  V30 13903 H 1340.72 2.04071 4.13372 0
M  V30 13904 H 1344.26 5.48857 4.30583 0
M  V30 13905 H 1340.16 4.34573 4.77302 0
M  V30 13906 H 1340.93 6.39406 5.10982 0
M  V30 13907 N 1343.59 -1.35528 0.804364 0
M  V30 13908 C 1344.84 -1.98832 0.383692 0
M  V30 13909 C 1345.17 -1.63816 -1.04855 0
M  V30 13910 O 1344.42 -0.892272 -1.74175 0
M  V30 13911 C 1344.72 -3.5372 0.511571 0
M  V30 13912 C 1344.39 -4.08597 1.9068 0
M  V30 13913 C 1343.05 -4.23297 2.28852 0
M  V30 13914 C 1345.4 -4.3834 2.81971 0
M  V30 13915 C 1342.73 -4.65056 3.57687 0
M  V30 13916 C 1345.08 -4.81537 4.1025 0
M  V30 13917 C 1343.75 -4.94442 4.48423 0
M  V30 13918 H 1343.02 -0.727577 0.140403 0
M  V30 13919 H 1345.66 -1.61777 1.02472 0
M  V30 13920 H 1343.97 -3.91221 -0.212916 0
M  V30 13921 H 1345.66 -4.00653 0.166888 0
M  V30 13922 H 1342.25 -3.97606 1.60023 0
M  V30 13923 H 1346.44 -4.26538 2.5373 0
M  V30 13924 H 1341.69 -4.73236 3.87115 0
M  V30 13925 H 1345.87 -5.03512 4.81091 0
M  V30 13926 H 1343.5 -5.26558 5.48307 0
M  V30 13927 N 1345.07 -0.557671 -1.47404 0
M  V30 13928 C 1346.3 -0.0386599 -2.06864 0
M  V30 13929 C 1346.71 1.25527 -1.41027 0
M  V30 13930 O 1346.07 1.75318 -0.506949 0
M  V30 13931 C 1346.12 0.160141 -3.61145 0
M  V30 13932 O 1345.84 -1.08255 -4.24515 0
M  V30 13933 C 1347.34 0.716381 -4.37473 0
M  V30 13934 H 1344.56 -0.0460523 -0.669418 0
M  V30 13935 H 1347.11 -0.771214 -1.894 0
M  V30 13936 H 1345.26 0.842826 -3.78121 0
M  V30 13937 H 1345.68 -0.88057 -5.17055 0
M  V30 13938 H 1347.15 0.804773 -5.46102 0
M  V30 13939 H 1347.63 1.72776 -4.03788 0
M  V30 13940 H 1348.23 0.0693787 -4.25243 0
M  V30 13941 N 1346.55 1.54831 -0.294147 0
M  V30 13942 C 1347.78 2.04115 0.319474 0
M  V30 13943 C 1348.19 1.17125 1.48588 0
M  V30 13944 O 1347.53 0.188034 1.82735 0
M  V30 13945 C 1347.59 3.49429 0.84496 0
M  V30 13946 C 1347.26 4.56583 -0.195275 0
M  V30 13947 C 1348.25 5.09768 -1.02138 0
M  V30 13948 C 1345.94 5.01182 -0.335 0
M  V30 13949 C 1347.93 6.06088 -1.97321 0
M  V30 13950 C 1345.62 5.97323 -1.29029 0
M  V30 13951 C 1346.62 6.49659 -2.10788 0
M  V30 13952 O 1346.31 7.43918 -3.04698 0
M  V30 13953 H 1346.04 0.671895 0.074383 0
M  V30 13954 H 1348.59 2.00856 -0.429669 0
M  V30 13955 H 1346.82 3.4999 1.64451 0
M  V30 13956 H 1348.51 3.81947 1.37372 0
M  V30 13957 H 1349.28 4.76112 -0.924264 0
M  V30 13958 H 1345.16 4.60078 0.291422 0
M  V30 13959 H 1348.7 6.46863 -2.61177 0
M  V30 13960 H 1344.6 6.30397 -1.38815 0
M  V30 13961 H 1345.36 7.61698 -2.99598 0
M  V30 13962 N 1348.03 0.0217466 1.57585 0
M  V30 13963 C 1349.25 -0.67246 1.96196 0
M  V30 13964 C 1349.68 -1.6529 0.897827 0
M  V30 13965 O 1349.04 -1.80743 -0.142002 0
M  V30 13966 C 1349.08 -1.36162 3.33905 0
M  V30 13967 O 1348.19 -2.47671 3.29747 0
M  V30 13968 H 1347.53 -0.177238 0.639908 0
M  V30 13969 H 1350.06 0.0814073 2.04438 0
M  V30 13970 H 1350.07 -1.7201 3.69968 0
M  V30 13971 H 1348.74 -0.642893 4.10901 0
M  V30 13972 H 1347.32 -2.13989 3.0539 0
M  V30 13973 N 1349.51 -1.55583 -0.251311 0
M  V30 13974 C 1350.75 -1.77471 -0.981418 0
M  V30 13975 C 1351.08 -0.586228 -1.85141 0
M  V30 13976 O 1350.36 0.415623 -1.90007 0
M  V30 13977 C 1350.64 -3.09204 -1.84567 0
M  V30 13978 C 1350.5 -4.38448 -1.00417 0
M  V30 13979 C 1351.81 -3.37133 -2.82895 0
M  V30 13980 H 1348.93 -0.645664 -0.355369 0
M  V30 13981 H 1351.58 -1.88318 -0.252228 0
M  V30 13982 H 1349.73 -3.00087 -2.46738 0
M  V30 13983 H 1351.4 -4.5955 -0.40149 0
M  V30 13984 H 1349.64 -4.32703 -0.308365 0
M  V30 13985 H 1350.31 -5.26995 -1.64258 0
M  V30 13986 H 1352.79 -3.46183 -2.3086 0
M  V30 13987 H 1351.66 -4.30531 -3.40491 0
M  V30 13988 H 1351.92 -2.57829 -3.59133 0
M  V30 13989 N 1350.98 0.516783 -1.48886 0
M  V30 13990 C 1351.91 1.62897 -1.67292 0
M  V30 13991 C 1352.89 1.61903 -0.521671 0
M  V30 13992 O 1354.08 1.78892 -0.755728 0
M  V30 13993 C 1351.21 3.01444 -1.72478 0
M  V30 13994 C 1350.16 3.173 -2.87236 0
M  V30 13995 C 1349.49 4.5704 -2.77522 0
M  V30 13996 C 1350.79 2.98818 -4.28375 0
M  V30 13997 H 1352.48 1.47748 -2.60405 0
M  V30 13998 H 1350.03 0.709361 -1.25316 0
M  V30 13999 H 1351.98 3.79135 -1.83942 0
M  V30 14000 H 1350.71 3.17645 -0.759538 0
M  V30 14001 H 1349.37 2.4203 -2.75349 0
M  V30 14002 H 1349.01 4.70096 -1.78938 0
M  V30 14003 H 1348.71 4.68593 -3.54534 0
M  V30 14004 H 1350.24 5.36813 -2.90972 0
M  V30 14005 H 1351.65 3.66291 -4.41026 0
M  V30 14006 H 1350.05 3.21854 -5.06488 0
M  V30 14007 H 1351.12 1.95102 -4.43918 0
M  V30 14008 N 1352.46 1.37696 0.766659 0
M  V30 14009 C 1353.39 1.36576 1.89392 0
M  V30 14010 C 1354.37 0.233597 1.68488 0
M  V30 14011 O 1355.56 0.434719 1.89272 0
M  V30 14012 C 1352.69 1.17705 3.26746 0
M  V30 14013 C 1351.64 2.27987 3.62224 0
M  V30 14014 C 1350.97 1.94235 4.98174 0
M  V30 14015 C 1352.27 3.70195 3.68447 0
M  V30 14016 H 1353.96 2.30905 1.90587 0
M  V30 14017 H 1351.51 1.11148 0.915538 0
M  V30 14018 H 1353.46 1.15551 4.05248 0
M  V30 14019 H 1352.18 0.198334 3.25997 0
M  V30 14020 H 1350.84 2.29306 2.86032 0
M  V30 14021 H 1350.49 0.948796 4.93971 0
M  V30 14022 H 1350.19 2.68086 5.2288 0
M  V30 14023 H 1351.72 1.93676 5.7907 0
M  V30 14024 H 1353.13 3.70978 4.37091 0
M  V30 14025 H 1351.53 4.43142 4.04654 0
M  V30 14026 H 1352.6 4.03453 2.68986 0
M  V30 14027 N 1353.94 -0.993397 1.22349 0
M  V30 14028 C 1355.16 -1.77373 1.07488 0
M  V30 14029 C 1355.59 -1.84418 -0.37034 0
M  V30 14030 O 1354.95 -1.29629 -1.26752 0
M  V30 14031 C 1355 -3.18538 1.69014 0
M  V30 14032 O 1354.1 -4.01463 0.943474 0
M  V30 14033 H 1353.44 -0.546209 0.37756 0
M  V30 14034 H 1355.97 -1.24792 1.62136 0
M  V30 14035 H 1355.98 -3.6917 1.73717 0
M  V30 14036 H 1354.66 -3.12725 2.74182 0
M  V30 14037 H 1353.23 -3.59998 0.972415 0
M  V30 14038 N 1355.42 -1.03311 -1.19015 0
M  V30 14039 C 1356.35 -0.638279 -2.24607 0
M  V30 14040 C 1357.33 0.354795 -1.66359 0
M  V30 14041 O 1358.51 0.236574 -1.92754 0
M  V30 14042 C 1355.64 0.00737316 -3.47299 0
M  V30 14043 C 1354.6 -0.908431 -4.18248 0
M  V30 14044 C 1353.92 -0.127658 -5.34548 0
M  V30 14045 C 1355.22 -2.2241 -4.72579 0
M  V30 14046 H 1356.92 -1.52099 -2.57888 0
M  V30 14047 H 1354.46 -0.732779 -1.23961 0
M  V30 14048 H 1356.42 0.295256 -4.20364 0
M  V30 14049 H 1355.14 0.924912 -3.1323 0
M  V30 14050 H 1353.8 -1.18058 -3.47071 0
M  V30 14051 H 1353.45 0.792048 -4.96725 0
M  V30 14052 H 1353.15 -0.737702 -5.82951 0
M  V30 14053 H 1354.67 0.153385 -6.10407 0
M  V30 14054 H 1356.09 -1.99745 -5.37378 0
M  V30 14055 H 1354.48 -2.78644 -5.31486 0
M  V30 14056 H 1355.55 -2.87584 -3.90415 0
M  V30 14057 N 1356.9 1.35099 -0.81154 0
M  V30 14058 C 1357.83 2.32264 -0.239925 0
M  V30 14059 C 1358.81 1.57708 0.637354 0
M  V30 14060 O 1359.99 1.85751 0.566598 0
M  V30 14061 C 1357.12 3.41931 0.608325 0
M  V30 14062 C 1356.08 4.27659 -0.170869 0
M  V30 14063 C 1355.4 5.28691 0.799398 0
M  V30 14064 C 1356.7 5.0394 -1.37266 0
M  V30 14065 H 1358.4 2.8032 -1.05172 0
M  V30 14066 H 1355.94 1.34773 -0.507185 0
M  V30 14067 H 1357.89 4.08911 1.01832 0
M  V30 14068 H 1356.62 2.92496 1.45306 0
M  V30 14069 H 1355.28 3.62265 -0.562094 0
M  V30 14070 H 1354.93 4.75521 1.63977 0
M  V30 14071 H 1354.63 5.86921 0.282331 0
M  V30 14072 H 1356.15 5.98542 1.20749 0
M  V30 14073 H 1357.56 5.63838 -1.03728 0
M  V30 14074 H 1355.96 5.7169 -1.82456 0
M  V30 14075 H 1357.03 4.34295 -2.15676 0
M  V30 14076 N 1358.37 0.56548 1.47106 0
M  V30 14077 C 1359.34 -0.167191 2.28589 0
M  V30 14078 C 1360.34 -0.835005 1.3742 0
M  V30 14079 O 1361.53 -0.689598 1.59969 0
M  V30 14080 C 1358.66 -1.24548 3.17333 0
M  V30 14081 H 1359.85 0.548677 2.94838 0
M  V30 14082 H 1357.4 0.322749 1.52931 0
M  V30 14083 H 1358.14 -1.99348 2.55794 0
M  V30 14084 H 1357.92 -0.771335 3.84438 0
M  V30 14085 H 1359.41 -1.75985 3.78707 0
M  V30 14086 N 1359.85 -1.54672 0.302354 0
M  V30 14087 C 1361.09 -2.02076 -0.30738 0
M  V30 14088 C 1361.46 -1.18603 -1.50988 0
M  V30 14089 O 1362.66 -1.5571 -2.19107 0
M  V30 14090 C 1360.93 -3.5137 -0.65375 0
M  V30 14091 S 1362.49 -4.20733 -1.24615 0
M  V30 14092 H 1359.31 -0.704725 -0.0942521 0
M  V30 14093 H 1361.91 -1.907 0.430542 0
M  V30 14094 H 1360.61 -4.09756 0.229892 0
M  V30 14095 H 1360.14 -3.66784 -1.42243 0
M  V30 14096 H 1362.16 -4.26624 -2.5339 0
M  V30 14097 N 1361.33 -0.0301034 -1.57571 0
M  V30 14098 C 1362.56 0.662045 -1.9655 0
M  V30 14099 C 1362.98 1.64811 -0.906581 0
M  V30 14100 O 1362.34 1.80816 0.132415 0
M  V30 14101 C 1362.39 1.34389 -3.34622 0
M  V30 14102 O 1361.49 2.45919 -3.31056 0
M  V30 14103 H 1360.83 0.173842 -0.640839 0
M  V30 14104 H 1363.36 -0.092248 -2.04392 0
M  V30 14105 H 1363.37 1.70045 -3.70875 0
M  V30 14106 H 1362.05 0.621092 -4.11236 0
M  V30 14107 H 1360.62 2.12367 -3.06521 0
M  V30 14108 N 1362.81 1.55714 0.243056 0
M  V30 14109 C 1364.05 1.77989 0.971993 0
M  V30 14110 C 1364.39 0.596038 1.84827 0
M  V30 14111 O 1363.66 -0.40554 1.90225 0
M  V30 14112 C 1363.95 3.10178 1.82925 0
M  V30 14113 C 1363.8 4.38974 0.9809 0
M  V30 14114 C 1365.12 3.38628 2.81103 0
M  V30 14115 H 1362.24 0.64754 0.35194 0
M  V30 14116 H 1364.88 1.88449 0.242237 0
M  V30 14117 H 1363.03 3.01392 2.45143 0
M  V30 14118 H 1364.7 4.59756 0.377113 0
M  V30 14119 H 1362.94 4.3286 0.285414 0
M  V30 14120 H 1363.61 5.27858 1.61461 0
M  V30 14121 H 1366.09 3.47403 2.29021 0
M  V30 14122 H 1364.97 4.32331 3.38203 0
M  V30 14123 H 1365.23 2.5973 3.57761 0
M  V30 14124 N 1364.29 -0.50888 1.49158 0
M  V30 14125 C 1365.53 -1.2635 1.58247 0
M  V30 14126 C 1365.86 -1.92677 0.265654 0
M  V30 14127 O 1365.12 -1.80931 -0.745818 0
M  V30 14128 C 1365.42 -2.35875 2.6851 0
M  V30 14129 C 1365.08 -1.87059 4.10268 0
M  V30 14130 C 1363.74 -1.73464 4.48847 0
M  V30 14131 C 1366.1 -1.50429 4.9902 0
M  V30 14132 C 1363.42 -1.21606 5.73959 0
M  V30 14133 C 1365.78 -1.00026 6.24642 0
M  V30 14134 C 1364.44 -0.850646 6.62058 0
M  V30 14135 H 1363.71 -0.462346 0.579066 0
M  V30 14136 H 1366.36 -0.565528 1.82959 0
M  V30 14137 H 1364.66 -3.11428 2.37739 0
M  V30 14138 H 1366.36 -2.9395 2.72753 0
M  V30 14139 H 1362.95 -1.98597 3.79812 0
M  V30 14140 H 1367.13 -1.59782 4.69876 0
M  V30 14141 H 1362.39 -1.08728 6.01655 0
M  V30 14142 H 1366.56 -0.707608 6.92796 0
M  V30 14143 H 1364.19 -0.446627 7.58887 0
M  V30 14144 N 1365.76 -1.381 -0.759346 0
M  V30 14145 C 1366.69 -1.37578 -1.88665 0
M  V30 14146 C 1367.68 -0.242529 -1.68362 0
M  V30 14147 O 1368.86 -0.444751 -1.89039 0
M  V30 14148 C 1365.99 -1.19437 -3.26117 0
M  V30 14149 C 1364.94 -2.29905 -3.61009 0
M  V30 14150 C 1364.27 -1.96874 -4.97136 0
M  V30 14151 C 1365.57 -3.72143 -3.66479 0
M  V30 14152 H 1367.26 -2.31912 -1.89359 0
M  V30 14153 H 1364.81 -1.11632 -0.909631 0
M  V30 14154 H 1366.76 -1.17698 -4.0463 0
M  V30 14155 H 1365.49 -0.21562 -3.25887 0
M  V30 14156 H 1364.15 -2.3082 -2.84812 0
M  V30 14157 H 1363.79 -0.974979 -4.9346 0
M  V30 14158 H 1363.49 -2.70855 -5.21451 0
M  V30 14159 H 1365.02 -1.96744 -5.78035 0
M  V30 14160 H 1366.43 -3.73291 -4.35117 0
M  V30 14161 H 1364.83 -4.45282 -4.02299 0
M  V30 14162 H 1365.9 -4.04874 -2.66843 0
M  V30 14163 N 1367.24 0.986894 -1.22875 0
M  V30 14164 C 1368.17 2.08035 -0.961971 0
M  V30 14165 C 1369.19 1.62683 0.0616475 0
M  V30 14166 O 1370.38 1.77659 -0.173094 0
M  V30 14167 C 1367.48 3.36208 -0.426302 0
M  V30 14168 C 1366.65 4.10562 -1.50856 0
M  V30 14169 C 1365.71 5.17014 -0.97891 0
M  V30 14170 O 1364.73 5.44259 -1.66645 0
M  V30 14171 N 1365.94 5.80167 0.196613 0
M  V30 14172 H 1368.7 2.315 -1.90336 0
M  V30 14173 H 1366.26 1.1531 -1.13645 0
M  V30 14174 H 1368.25 4.0466 -0.0571577 0
M  V30 14175 H 1366.82 3.09761 0.420345 0
M  V30 14176 H 1366.04 3.36656 -2.05076 0
M  V30 14177 H 1367.33 4.57007 -2.23655 0
M  V30 14178 H 1366.73 5.60409 0.771892 0
M  V30 14179 H 1365.29 6.49825 0.507083 0
M  V30 14180 N 1368.72 1.0394 1.18466 0
M  V30 14181 C 1369.97 0.737233 1.87744 0
M  V30 14182 C 1370.28 -0.737891 1.81148 0
M  V30 14183 O 1371.49 -1.15353 2.45776 0
M  V30 14184 C 1369.94 1.26844 3.36806 0
M  V30 14185 C 1369.55 2.7721 3.51935 0
M  V30 14186 C 1371.3 1.04274 4.11494 0
M  V30 14187 C 1369.2 3.23696 4.9495 0
M  V30 14188 H 1368.13 0.272082 0.703198 0
M  V30 14189 H 1370.78 1.25507 1.33866 0
M  V30 14190 H 1369.17 0.67847 3.90145 0
M  V30 14191 H 1370.34 3.41954 3.08875 0
M  V30 14192 H 1368.66 2.98179 2.90652 0
M  V30 14193 H 1371.25 1.3652 5.16978 0
M  V30 14194 H 1371.6 -0.0200645 4.16295 0
M  V30 14195 H 1372.13 1.59726 3.64325 0
M  V30 14196 H 1368.87 4.29351 4.95316 0
M  V30 14197 H 1368.39 2.63687 5.38729 0
M  V30 14198 H 1370.07 3.17645 5.63658 0
M  V30 14199 N 1370.2 -1.34667 0.818693 0
M  V30 14200 C 1371.42 -2.03173 0.416585 0
M  V30 14201 C 1371.85 -1.61261 -0.968321 0
M  V30 14202 O 1371.21 -0.79517 -1.62932 0
M  V30 14203 C 1371.25 -3.56803 0.521884 0
M  V30 14204 O 1370.36 -4.09827 -0.459953 0
M  V30 14205 H 1369.7 -0.6413 0.172136 0
M  V30 14206 H 1372.23 -1.72006 1.10794 0
M  V30 14207 H 1372.24 -4.06073 0.3961 0
M  V30 14208 H 1370.91 -3.86656 1.53198 0
M  V30 14209 H 1369.49 -3.71744 -0.293405 0
M  V30 14210 N 1371.68 -0.573274 -1.46804 0
M  V30 14211 C 1372.92 -0.057823 -2.04318 0
M  V30 14212 C 1373.28 1.27424 -1.43622 0
M  V30 14213 O 1374.48 1.87835 -1.92279 0
M  V30 14214 C 1372.75 0.016823 -3.57396 0
M  V30 14215 S 1374.31 0.476068 -4.3621 0
M  V30 14216 H 1371.13 -0.0329025 -0.710238 0
M  V30 14217 H 1373.73 -0.76364 -1.79969 0
M  V30 14218 H 1372.44 -0.956757 -3.99092 0
M  V30 14219 H 1371.97 0.745702 -3.86268 0
M  V30 14220 H 1373.98 1.73268 -4.64965 0
M  V30 14221 N 1373.15 1.5451 -0.310553 0
M  V30 14222 C 1374.4 1.99505 0.296731 0
M  V30 14223 C 1374.72 1.20257 1.54265 0
M  V30 14224 O 1375.92 1.55566 2.22512 0
M  V30 14225 C 1374.38 3.55208 0.579251 0
M  V30 14226 C 1373.99 4.43276 -0.648874 0
M  V30 14227 C 1375.73 4.08705 1.1472 0
M  V30 14228 C 1373.64 5.90428 -0.338978 0
M  V30 14229 H 1372.57 0.745232 0.114652 0
M  V30 14230 H 1375.22 1.78611 -0.420749 0
M  V30 14231 H 1373.6 3.72039 1.35658 0
M  V30 14232 H 1374.77 4.3822 -1.42478 0
M  V30 14233 H 1373.09 4.00601 -1.13613 0
M  V30 14234 H 1375.69 5.16223 1.39346 0
M  V30 14235 H 1376.03 3.59889 2.09249 0
M  V30 14236 H 1376.56 3.95454 0.431363 0
M  V30 14237 H 1373.3 6.43411 -1.25309 0
M  V30 14238 H 1372.82 5.98468 0.399475 0
M  V30 14239 H 1374.5 6.46976 0.0559696 0
M  V30 14240 N 1374.63 0.0384594 1.57553 0
M  V30 14241 C 1375.88 -0.636879 1.91803 0
M  V30 14242 C 1376.2 -1.72128 0.916347 0
M  V30 14243 O 1375.47 -1.95858 -0.0407405 0
M  V30 14244 H 1374.05 -0.238237 0.707992 0
M  V30 14245 H 1376.71 0.0884651 1.94699 0
M  V30 14246 H 1375.81 -1.08364 2.92683 0
M  V30 14247 N 1376.11 -1.55841 -0.234795 0
M  V30 14248 C 1377.06 -1.91326 -1.29086 0
M  V30 14249 C 1378.03 -0.768868 -1.47233 0
M  V30 14250 O 1379.21 -1.0236 -1.61019 0
M  V30 14251 C 1376.35 -2.22388 -2.6389 0
M  V30 14252 C 1375.47 -3.49693 -2.5365 0
M  V30 14253 C 1374.6 -3.70267 -3.80889 0
M  V30 14254 C 1373.64 -4.91132 -3.65317 0
M  V30 14255 N 1372.78 -5.08163 -4.84474 0
M  V30 14256 H 1377.62 -2.81382 -0.981246 0
M  V30 14257 H 1375.15 -1.3928 -0.47324 0
M  V30 14258 H 1377.11 -2.38404 -3.42373 0
M  V30 14259 H 1375.74 -1.35521 -2.92974 0
M  V30 14260 H 1374.79 -3.41943 -1.66672 0
M  V30 14261 H 1376.11 -4.38326 -2.38059 0
M  V30 14262 H 1375.26 -3.86308 -4.67815 0
M  V30 14263 H 1374 -2.7989 -3.9939 0
M  V30 14264 H 1373 -4.75054 -2.76774 0
M  V30 14265 H 1374.23 -5.8298 -3.48298 0
M  V30 14266 H 1372.18 -4.20726 -5.03314 0
M  V30 14267 H 1372.09 -5.90904 -4.71559 0
M  V30 14268 H 1373.36 -5.28627 -5.72865 0
M  V30 14269 N 1377.59 0.500963 -1.49426 0
M  V30 14270 C 1378.52 1.61114 -1.69011 0
M  V30 14271 C 1379.5 1.61341 -0.538813 0
M  V30 14272 O 1380.69 1.78081 -0.77466 0
M  V30 14273 C 1377.82 2.99598 -1.75666 0
M  V30 14274 C 1376.77 3.14236 -2.90585 0
M  V30 14275 C 1376.1 4.54071 -2.82354 0
M  V30 14276 C 1377.4 2.94258 -4.3152 0
M  V30 14277 H 1379.09 1.44978 -2.61957 0
M  V30 14278 H 1376.64 0.69603 -1.26061 0
M  V30 14279 H 1378.59 3.77163 -1.87953 0
M  V30 14280 H 1377.31 3.16822 -0.793186 0
M  V30 14281 H 1375.97 2.39096 -2.779 0
M  V30 14282 H 1375.62 4.68172 -1.83914 0
M  V30 14283 H 1375.32 4.64806 -3.59485 0
M  V30 14284 H 1376.84 5.33696 -2.96649 0
M  V30 14285 H 1378.26 3.61592 -4.44886 0
M  V30 14286 H 1376.65 3.16464 -5.09873 0
M  V30 14287 H 1377.72 1.90383 -4.45962 0
M  V30 14288 N 1379.07 1.38501 0.752011 0
M  V30 14289 C 1380.31 1.34995 1.51341 0
M  V30 14290 C 1380.65 -0.0594724 1.94109 0
M  V30 14291 O 1379.92 -1.02098 1.65548 0
M  V30 14292 C 1380.2 2.30705 2.76491 0
M  V30 14293 C 1380.06 3.80515 2.39851 0
M  V30 14294 C 1381.38 2.24521 3.78521 0
M  V30 14295 H 1378.5 0.491687 0.549011 0
M  V30 14296 H 1381.14 1.69361 0.861205 0
M  V30 14297 H 1379.29 2.01529 3.32142 0
M  V30 14298 H 1380.96 4.20371 1.89962 0
M  V30 14299 H 1379.2 3.98119 1.7229 0
M  V30 14300 H 1379.87 4.42946 3.29397 0
M  V30 14301 H 1382.35 2.50282 3.32413 0
M  V30 14302 H 1381.23 2.93598 4.63779 0
M  V30 14303 H 1381.49 1.24457 4.2422 0
M  V30 14304 N 1380.55 -0.980364 1.23396 0
M  V30 14305 C 1381.48 -2.0908 1.0396 0
M  V30 14306 C 1382.46 -1.70044 -0.0434946 0
M  V30 14307 O 1383.64 -1.93822 0.121155 0
M  V30 14308 C 1380.77 -3.41537 0.630061 0
M  V30 14309 C 1379.73 -3.94476 1.66051 0
M  V30 14310 C 1379.05 -5.23128 1.10641 0
M  V30 14311 C 1380.35 -4.23741 3.05354 0
M  V30 14312 H 1382.05 -2.25598 1.9684 0
M  V30 14313 H 1379.59 -1.08409 0.94781 0
M  V30 14314 H 1381.54 -4.18644 0.481145 0
M  V30 14315 H 1380.27 -3.24883 -0.334416 0
M  V30 14316 H 1378.93 -3.19513 1.79742 0
M  V30 14317 H 1378.58 -5.02824 0.132913 0
M  V30 14318 H 1378.28 -5.59515 1.79492 0
M  V30 14319 H 1379.8 -6.02857 0.969344 0
M  V30 14320 H 1381.21 -4.91598 2.94964 0
M  V30 14321 H 1379.61 -4.71329 3.71442 0
M  V30 14322 H 1380.68 -3.31012 3.54343 0
M  V30 14323 N 1382.02 -1.04567 -1.17913 0
M  V30 14324 C 1382.96 -0.585519 -2.2056 0
M  V30 14325 C 1383.93 0.382581 -1.58035 0
M  V30 14326 O 1385.12 0.295692 -1.86166 0
M  V30 14327 C 1382.25 0.14396 -3.38394 0
M  V30 14328 C 1381.29 -0.778174 -4.19341 0
M  V30 14329 S 1382.12 -2.26385 -4.85294 0
M  V30 14330 C 1383.28 -1.54537 -6.06522 0
M  V30 14331 H 1383.51 -1.4552 -2.59251 0
M  V30 14332 H 1381.05 -0.857075 -1.28427 0
M  V30 14333 H 1383 0.558661 -4.06681 0
M  V30 14334 H 1381.67 0.989593 -2.98104 0
M  V30 14335 H 1380.86 -0.214053 -5.03545 0
M  V30 14336 H 1380.46 -1.13195 -3.56459 0
M  V30 14337 H 1382.75 -0.841199 -6.72257 0
M  V30 14338 H 1383.7 -2.36465 -6.6745 0
M  V30 14339 H 1384.1 -1.03551 -5.54921 0
M  V30 14340 N 1383.5 1.34231 -0.825823 0
M  V30 14341 C 1384.43 2.31997 -0.264546 0
M  V30 14342 C 1385.41 1.58375 0.620592 0
M  V30 14343 O 1386.6 1.86341 0.546865 0
M  V30 14344 C 1383.73 3.42557 0.572025 0
M  V30 14345 C 1382.68 4.27454 -0.216219 0
M  V30 14346 C 1382.01 5.29509 0.743279 0
M  V30 14347 C 1383.31 5.02456 -1.42603 0
M  V30 14348 H 1385 2.79189 -1.08139 0
M  V30 14349 H 1382.55 1.34227 -0.521451 0
M  V30 14350 H 1384.5 4.09968 0.974889 0
M  V30 14351 H 1383.22 2.94021 1.42195 0
M  V30 14352 H 1381.88 3.61649 -0.600485 0
M  V30 14353 H 1381.53 4.77234 1.58924 0
M  V30 14354 H 1381.23 5.87188 0.220064 0
M  V30 14355 H 1382.76 5.99789 1.14394 0
M  V30 14356 H 1384.17 5.62706 -1.09702 0
M  V30 14357 H 1382.57 5.69723 -1.88509 0
M  V30 14358 H 1383.64 4.31983 -2.2027 0
M  V30 14359 N 1384.98 0.581051 1.46498 0
M  V30 14360 C 1385.94 -0.142937 2.28754 0
M  V30 14361 C 1386.94 -0.820383 1.38298 0
M  V30 14362 O 1388.13 -0.672592 1.60692 0
M  V30 14363 C 1385.26 -1.21176 3.18637 0
M  V30 14364 H 1386.46 0.579918 2.9424 0
M  V30 14365 H 1384.01 0.338951 1.52581 0
M  V30 14366 H 1384.75 -1.96624 2.57894 0
M  V30 14367 H 1384.53 -0.730517 3.85235 0
M  V30 14368 H 1386.02 -1.71958 3.80552 0
M  V30 14369 N 1386.46 -1.54343 0.318742 0
M  V30 14370 C 1387.71 -1.9966 -0.286146 0
M  V30 14371 C 1388.02 -1.21073 -1.53625 0
M  V30 14372 O 1389.23 -1.56744 -2.21684 0
M  V30 14373 C 1387.68 -3.5551 -0.560405 0
M  V30 14374 C 1387.29 -4.42926 0.672373 0
M  V30 14375 C 1389.03 -4.09307 -1.12551 0
M  V30 14376 C 1386.94 -5.9024 0.370285 0
M  V30 14377 H 1385.87 -0.74583 -0.110698 0
M  V30 14378 H 1388.52 -1.78386 0.430215 0
M  V30 14379 H 1386.9 -3.72753 -1.33683 0
M  V30 14380 H 1388.08 -4.37458 1.448 0
M  V30 14381 H 1386.39 -3.99993 1.15736 0
M  V30 14382 H 1388.99 -5.16955 -1.36607 0
M  V30 14383 H 1389.33 -3.60994 -2.07338 0
M  V30 14384 H 1389.87 -3.95677 -0.410385 0
M  V30 14385 H 1386.6 -6.42738 1.28719 0
M  V30 14386 H 1386.12 -5.98672 -0.367731 0
M  V30 14387 H 1387.8 -6.46996 -0.0216582 0
M  V30 14388 N 1387.94 -0.0468143 -1.5753 0
M  V30 14389 C 1388.85 0.944362 -2.14753 0
M  V30 14390 C 1389.86 1.34473 -1.10422 0
M  V30 14391 O 1391.04 1.42254 -1.42569 0
M  V30 14392 C 1388.1 2.2023 -2.67768 0
M  V30 14393 C 1387.16 1.8607 -3.8688 0
M  V30 14394 C 1386.4 3.05867 -4.37357 0
M  V30 14395 O 1386.62 4.19099 -3.86927 0
M  V30 14396 O 1385.55 2.87134 -5.28997 0
M  V30 14397 H 1389.38 0.48772 -2.99758 0
M  V30 14398 H 1386.96 0.174831 -1.48374 0
M  V30 14399 H 1388.85 2.94044 -3.01855 0
M  V30 14400 H 1387.52 2.65041 -1.85836 0
M  V30 14401 H 1386.43 1.09586 -3.5769 0
M  V30 14402 H 1387.76 1.46062 -4.70028 0
M  V30 14403 N 1389.41 1.55964 0.226527 0
M  V30 14404 C 1390.34 1.95028 1.284 0
M  V30 14405 C 1391.33 0.817833 1.49149 0
M  V30 14406 O 1392.51 1.07975 1.61416 0
M  V30 14407 C 1389.64 2.26266 2.63478 0
M  V30 14408 C 1388.59 3.41954 2.57393 0
M  V30 14409 C 1387.92 3.58786 3.96456 0
M  V30 14410 C 1389.22 4.77069 2.12608 0
M  V30 14411 H 1390.91 2.83608 0.959513 0
M  V30 14412 H 1388.46 1.36451 0.460125 0
M  V30 14413 H 1390.41 2.52186 3.3761 0
M  V30 14414 H 1389.14 1.34533 2.97604 0
M  V30 14415 H 1387.8 3.16076 1.85719 0
M  V30 14416 H 1387.44 2.64437 4.27881 0
M  V30 14417 H 1387.14 4.36595 3.93267 0
M  V30 14418 H 1388.67 3.87048 4.72256 0
M  V30 14419 H 1390.08 5.02226 2.76481 0
M  V30 14420 H 1388.48 5.58126 2.2049 0
M  V30 14421 H 1389.55 4.7276 1.07823 0
M  V30 14422 N 1390.89 -0.493031 1.4969 0
M  V30 14423 C 1392.14 -1.2433 1.58823 0
M  V30 14424 C 1392.45 -1.9353 0.283823 0
M  V30 14425 O 1393.66 -2.70311 0.253801 0
M  V30 14426 C 1392.12 -2.25792 2.8026 0
M  V30 14427 C 1391.72 -1.62496 4.17491 0
M  V30 14428 C 1393.47 -3.01598 2.98729 0
M  V30 14429 C 1391.38 -2.62115 5.30141 0
M  V30 14430 H 1390.31 -0.467738 0.591386 0
M  V30 14431 H 1392.96 -0.516238 1.76089 0
M  V30 14432 H 1391.34 -3.01696 2.56506 0
M  V30 14433 H 1392.51 -0.925305 4.51414 0
M  V30 14434 H 1390.83 -0.990516 4.04447 0
M  V30 14435 H 1393.42 -3.76111 3.80058 0
M  V30 14436 H 1393.77 -3.59687 2.09597 0
M  V30 14437 H 1394.3 -2.32809 3.2256 0
M  V30 14438 H 1391.04 -2.08797 6.21357 0
M  V30 14439 H 1390.56 -3.30298 5.00663 0
M  V30 14440 H 1392.24 -3.24385 5.59807 0
M  V30 14441 N 1392.37 -1.38898 -0.744656 0
M  V30 14442 C 1393.6 -1.38647 -1.53169 0
M  V30 14443 C 1394.01 0.0233199 -1.89186 0
M  V30 14444 O 1393.35 1.00261 -1.53927 0
M  V30 14445 C 1393.41 -2.18615 -2.85391 0
M  V30 14446 C 1393.08 -3.67342 -2.71862 0
M  V30 14447 C 1394.07 -4.60638 -2.41057 0
M  V30 14448 C 1391.76 -4.10809 -2.89035 0
M  V30 14449 C 1393.75 -5.95383 -2.27592 0
M  V30 14450 C 1391.44 -5.45632 -2.7519 0
M  V30 14451 C 1392.44 -6.37733 -2.44512 0
M  V30 14452 O 1392.13 -7.70074 -2.30741 0
M  V30 14453 H 1391.86 -0.475741 -0.480257 0
M  V30 14454 H 1394.41 -1.8321 -0.928621 0
M  V30 14455 H 1392.64 -1.68784 -3.47921 0
M  V30 14456 H 1394.33 -2.1066 -3.46954 0
M  V30 14457 H 1395.1 -4.28359 -2.2745 0
M  V30 14458 H 1390.98 -3.39462 -3.11908 0
M  V30 14459 H 1394.52 -6.67237 -2.03569 0
M  V30 14460 H 1390.42 -5.77504 -2.88373 0
M  V30 14461 H 1391.19 -7.80694 -2.45885 0
M  V30 14462 N 1393.85 0.973806 -1.23914 0
M  V30 14463 C 1395.09 1.71852 -1.07678 0
M  V30 14464 C 1395.43 1.90357 0.384425 0
M  V30 14465 O 1394.7 1.46063 1.28436 0
M  V30 14466 C 1394.99 3.1129 -1.81026 0
M  V30 14467 C 1394.84 3.00315 -3.3486 0
M  V30 14468 C 1396.16 4.10835 -1.57805 0
M  V30 14469 H 1393.28 0.623749 -0.392564 0
M  V30 14470 H 1395.92 1.13325 -1.52504 0
M  V30 14471 H 1394.07 3.61255 -1.42922 0
M  V30 14472 H 1395.74 2.57823 -3.82524 0
M  V30 14473 H 1393.98 2.36667 -3.63553 0
M  V30 14474 H 1394.65 3.9907 -3.81376 0
M  V30 14475 H 1397.13 3.69705 -1.90939 0
M  V30 14476 H 1396.01 5.06478 -2.11591 0
M  V30 14477 H 1396.27 4.39091 -0.514894 0
M  V30 14478 N 1395.33 1.05191 1.17357 0
M  V30 14479 C 1396.26 0.673931 2.23563 0
M  V30 14480 C 1397.24 -0.328284 1.66902 0
M  V30 14481 O 1398.42 -0.205878 1.93106 0
M  V30 14482 C 1395.55 0.0478801 3.47267 0
M  V30 14483 C 1394.51 0.974855 4.1675 0
M  V30 14484 C 1393.83 0.212684 5.34277 0
M  V30 14485 C 1395.13 2.299 4.68981 0
M  V30 14486 H 1396.83 1.56183 2.55436 0
M  V30 14487 H 1394.37 0.752408 1.2278 0
M  V30 14488 H 1396.33 -0.228343 4.20781 0
M  V30 14489 H 1395.05 -0.874963 3.14662 0
M  V30 14490 H 1393.71 1.23564 3.45148 0
M  V30 14491 H 1393.36 -0.712924 4.97922 0
M  V30 14492 H 1393.06 0.830351 5.81703 0
M  V30 14493 H 1394.58 -0.056255 6.10574 0
M  V30 14494 H 1395.99 2.08269 5.34132 0
M  V30 14495 H 1394.39 2.87064 5.26986 0
M  V30 14496 H 1395.46 2.93759 3.8579 0
M  V30 14497 N 1396.8 -1.33791 0.83293 0
M  V30 14498 C 1398.05 -1.97233 0.422127 0
M  V30 14499 C 1398.37 -1.66738 -1.02264 0
M  V30 14500 O 1399.57 -2.23747 -1.53783 0
M  V30 14501 C 1398.03 -3.5295 0.703872 0
M  V30 14502 C 1397.64 -3.92329 2.16292 0
M  V30 14503 C 1399.38 -4.22973 0.359727 0
M  V30 14504 C 1397.29 -5.40999 2.38903 0
M  V30 14505 H 1396.22 -0.738082 0.154112 0
M  V30 14506 H 1398.87 -1.52494 1.02068 0
M  V30 14507 H 1397.25 -3.95985 0.0350184 0
M  V30 14508 H 1398.42 -3.6037 2.87176 0
M  V30 14509 H 1396.74 -3.35271 2.46947 0
M  V30 14510 H 1399.34 -5.32297 0.506366 0
M  V30 14511 H 1399.68 -4.10428 -0.696743 0
M  V30 14512 H 1400.21 -3.85449 0.983568 0
M  V30 14513 H 1396.95 -5.58541 3.43093 0
M  V30 14514 H 1396.47 -5.74438 1.72573 0
M  V30 14515 H 1398.15 -6.07809 2.2176 0
M  V30 14516 N 1398.28 -0.588812 -1.46187 0
M  V30 14517 C 1399.53 -0.0768417 -2.02654 0
M  V30 14518 C 1399.86 1.28213 -1.4586 0
M  V30 14519 O 1399.14 1.8415 -0.626022 0
M  V30 14520 C 1399.42 -0.0176429 -3.60096 0
M  V30 14521 C 1399.27 -1.40595 -4.27262 0
M  V30 14522 C 1400.59 0.679864 -4.34817 0
M  V30 14523 H 1397.71 -0.0293981 -0.736413 0
M  V30 14524 H 1400.35 -0.757183 -1.74261 0
M  V30 14525 H 1398.5 0.56174 -3.84417 0
M  V30 14526 H 1400.17 -2.03097 -4.14185 0
M  V30 14527 H 1398.42 -1.97196 -3.86388 0
M  V30 14528 H 1399.09 -1.31694 -5.3606 0
M  V30 14529 H 1401.56 0.1876 -4.15677 0
M  V30 14530 H 1400.44 0.690333 -5.44542 0
M  V30 14531 H 1400.7 1.74237 -4.06318 0
M  V30 14532 N 1399.76 1.54172 -0.326923 0
M  V30 14533 C 1400.67 2.28149 0.546351 0
M  V30 14534 C 1401.69 1.32628 1.12631 0
M  V30 14535 O 1402.86 1.65647 1.14556 0
M  V30 14536 C 1399.93 3.02742 1.68962 0
M  V30 14537 C 1398.99 4.13856 1.14112 0
M  V30 14538 C 1398.22 4.84882 2.2299 0
M  V30 14539 O 1398.44 4.55448 3.43399 0
M  V30 14540 O 1397.38 5.71714 1.8822 0
M  V30 14541 H 1401.2 3.03651 -0.0545288 0
M  V30 14542 H 1398.79 1.49113 -0.0925027 0
M  V30 14543 H 1400.67 3.49443 2.35515 0
M  V30 14544 H 1399.35 2.30113 2.27662 0
M  V30 14545 H 1398.25 3.71497 0.440579 0
M  V30 14546 H 1399.59 4.88539 0.599211 0
M  V30 14547 N 1401.24 0.0551678 1.57503 0
M  V30 14548 C 1402.48 -0.618636 1.93134 0
M  V30 14549 C 1402.82 -1.70258 0.934125 0
M  V30 14550 O 1402.09 -1.9446 -0.0392699 0
M  V30 14551 C 1402.38 -1.21103 3.39126 0
M  V30 14552 C 1402.23 -0.134865 4.49598 0
M  V30 14553 C 1403.55 -2.12148 3.85592 0
M  V30 14554 H 1400.67 -0.223416 0.702321 0
M  V30 14555 H 1403.31 0.117748 1.89635 0
M  V30 14556 H 1401.46 -1.83862 3.42238 0
M  V30 14557 H 1403.13 0.497292 4.58612 0
M  V30 14558 H 1401.37 0.536587 4.30469 0
M  V30 14559 H 1402.04 -0.589447 5.48844 0
M  V30 14560 H 1404.52 -1.59346 3.8438 0
M  V30 14561 H 1403.4 -2.50539 4.88387 0
M  V30 14562 H 1403.66 -3.02318 3.22578 0
M  V30 14563 N 1402.72 -1.56081 -0.218252 0
M  V30 14564 C 1404.13 -1.69397 -0.784964 0
M  V30 14565 C 1404.48 -0.65775 -1.84846 0
M  V30 14566 O 1403.6 0.190478 -2.1556 0
M  V30 14567 C 1404.2 -3.07114 -1.4306 0
M  V30 14568 C 1402.76 -3.22273 -1.94466 0
M  V30 14569 C 1401.9 -2.65327 -0.80604 0
M  V30 14570 H 1404.86 -1.58699 0.0064566 0
M  V30 14571 H 1404.88 -3.03156 -2.2995 0
M  V30 14572 H 1404.39 -3.8251 -0.656335 0
M  V30 14573 H 1402.49 -2.51752 -2.74684 0
M  V30 14574 H 1402.6 -4.29526 -2.12237 0
M  V30 14575 H 1400.97 -2.23894 -1.21423 0
M  V30 14576 H 1401.75 -3.43271 -0.0443928 0
M  V30 14577 N 1404.2 0.485086 -1.49949 0
M  V30 14578 C 1405.44 1.23571 -1.5992 0
M  V30 14579 C 1405.76 1.92754 -0.295108 0
M  V30 14580 O 1405.03 1.83474 0.686582 0
M  V30 14581 H 1403.61 0.459104 -0.589264 0
M  V30 14582 H 1406.28 0.560822 -1.86657 0
M  V30 14583 H 1405.37 1.99114 -2.40333 0
M  V30 14584 N 1405.67 1.39291 0.737279 0
M  V30 14585 C 1406.92 1.36592 1.49901 0
M  V30 14586 C 1407.25 -0.0388812 1.94161 0
M  V30 14587 O 1406.53 -1.00337 1.66622 0
M  V30 14588 C 1406.81 2.33625 2.74028 0
M  V30 14589 C 1406.66 3.83037 2.35802 0
M  V30 14590 C 1407.98 2.28524 3.76118 0
M  V30 14591 H 1405.1 0.497482 0.543765 0
M  V30 14592 H 1407.74 1.70265 0.843193 0
M  V30 14593 H 1405.89 2.0504 3.29986 0
M  V30 14594 H 1407.57 4.22363 1.85493 0
M  V30 14595 H 1405.81 3.99924 1.68058 0
M  V30 14596 H 1406.48 4.46415 3.24681 0
M  V30 14597 H 1408.96 2.53794 3.29739 0
M  V30 14598 H 1407.83 2.98501 4.60639 0
M  V30 14599 H 1408.09 1.28949 4.22876 0
M  V30 14600 N 1407.15 -0.967221 1.24429 0
M  V30 14601 C 1408.38 -1.7452 1.11133 0
M  V30 14602 C 1408.79 -1.85785 -0.336087 0
M  V30 14603 O 1408.15 -1.34652 -1.23188 0
M  V30 14604 C 1408.2 -3.16544 1.74591 0
M  V30 14605 O 1407.92 -3.05845 3.13673 0
M  V30 14606 C 1409.42 -4.10677 1.6691 0
M  V30 14607 H 1406.64 -0.547267 0.388253 0
M  V30 14608 H 1409.19 -1.2143 1.64545 0
M  V30 14609 H 1407.34 -3.66618 1.2518 0
M  V30 14610 H 1407.76 -3.95346 3.44676 0
M  V30 14611 H 1409.23 -5.07987 2.15992 0
M  V30 14612 H 1409.71 -4.34652 0.630411 0
M  V30 14613 H 1410.31 -3.66514 2.15749 0
M  V30 14614 N 1408.63 -1.05812 -1.16797 0
M  V30 14615 C 1409.56 -0.685778 -2.23202 0
M  V30 14616 C 1410.54 0.319428 -1.67074 0
M  V30 14617 O 1411.73 0.195635 -1.93212 0
M  V30 14618 C 1408.86 -0.0662958 -3.47237 0
M  V30 14619 C 1407.81 -0.996943 -4.16227 0
M  V30 14620 C 1407.14 -0.241015 -5.34157 0
M  V30 14621 C 1408.44 -2.32384 -4.67755 0
M  V30 14622 H 1410.13 -1.57535 -2.54604 0
M  V30 14623 H 1407.68 -0.758909 -1.22379 0
M  V30 14624 H 1409.63 0.206024 -4.20896 0
M  V30 14625 H 1408.35 0.858263 -3.15121 0
M  V30 14626 H 1407.01 -1.25393 -3.44488 0
M  V30 14627 H 1406.66 0.686508 -4.98293 0
M  V30 14628 H 1406.36 -0.861188 -5.81255 0
M  V30 14629 H 1407.88 0.0238739 -6.10595 0
M  V30 14630 H 1409.3 -2.11099 -5.3302 0
M  V30 14631 H 1407.69 -2.89855 -5.25456 0
M  V30 14632 H 1408.76 -2.958 -3.84227 0
M  V30 14633 N 1410.11 1.33347 -0.840014 0
M  V30 14634 C 1411.35 1.97745 -0.436274 0
M  V30 14635 C 1411.68 1.66538 1.00475 0
M  V30 14636 O 1410.94 0.938137 1.71748 0
M  V30 14637 C 1411.24 3.52239 -0.605173 0
M  V30 14638 C 1410.9 4.03398 -2.01446 0
M  V30 14639 C 1409.56 4.1708 -2.39994 0
M  V30 14640 C 1411.92 4.3071 -2.93494 0
M  V30 14641 C 1409.24 4.55409 -3.69891 0
M  V30 14642 C 1411.6 4.70491 -4.22873 0
M  V30 14643 C 1410.26 4.82379 -4.61375 0
M  V30 14644 H 1409.53 0.723599 -0.159644 0
M  V30 14645 H 1412.18 1.59003 -1.06725 0
M  V30 14646 H 1410.48 3.91648 0.109116 0
M  V30 14647 H 1412.18 4.00069 -0.273056 0
M  V30 14648 H 1408.77 3.93224 -1.70508 0
M  V30 14649 H 1412.95 4.19661 -2.64949 0
M  V30 14650 H 1408.21 4.62806 -3.99525 0
M  V30 14651 H 1412.38 4.9058 -4.94271 0
M  V30 14652 H 1410.01 5.11835 -5.62075 0
M  V30 14653 N 1411.59 0.596556 1.45873 0
M  V30 14654 C 1412.86 0.0199562 1.9559 0
M  V30 14655 C 1413.24 -1.44479 1.53912 0
M  V30 14656 O 1412.59 -2.14173 0.796384 0
M  V30 14657 C 1412.8 0.206497 3.48389 0
M  V30 14658 C 1414.15 0.0815298 4.24522 0
M  V30 14659 O 1415.17 0.136045 3.5594 0
M  V30 14660 O 1414.03 -0.0426117 5.46483 0
M  V30 14661 H 1411.13 -0.0419913 0.825933 0
M  V30 14662 H 1413.67 0.665846 1.56092 0
M  V30 14663 H 1412.44 1.22422 3.71656 0
M  V30 14664 H 1412.07 -0.475175 3.9475 0
M  V30 14665 N 1413.06 -1.53996 0.335095 0
M  V30 14666 C 1414.01 -2.26221 -0.541007 0
M  V30 14667 C 1415.01 -1.28053 -1.109 0
M  V30 14668 O 1416.21 -1.4579 -1.05571 0
M  V30 14669 H 1412.59 -0.726775 -0.193136 0
M  V30 14670 H 1414.56 -2.98263 0.0902792 0
M  V30 14671 C 1413.31 -3.04173 -1.68445 0
M  V30 14672 H 1412.63 -3.79537 -1.25665 0
M  V30 14673 H 1414.07 -3.57937 -2.27282 0
M  V30 14674 C 1412.53 -2.13162 -2.6089 0
M  V30 14675 O 1413.06 -1.7221 -3.62914 0
M  V30 14676 N 1411.26 -1.78414 -2.29384 0
M  V30 14677 H 1410.81 -2.11914 -1.46458 0
M  V30 14678 H 1410.77 -1.178 -2.91497 0
M  V30 14679 N 1414.54 -0.0635198 -1.57472 0
M  V30 14680 C 1415.5 0.891881 -2.11135 0
M  V30 14681 C 1416.5 1.23182 -1.03358 0
M  V30 14682 O 1417.69 1.16646 -1.2938 0
M  V30 14683 C 1414.83 2.19792 -2.60584 0
M  V30 14684 H 1416.02 0.426461 -2.96852 0
M  V30 14685 H 1413.57 0.185069 -1.552 0
M  V30 14686 H 1414.31 2.70889 -1.78297 0
M  V30 14687 H 1414.09 1.96419 -3.39355 0
M  V30 14688 H 1415.58 2.88203 -3.02206 0
M  V30 14689 N 1416.02 1.56195 0.209972 0
M  V30 14690 C 1417.3 1.70553 0.957653 0
M  V30 14691 C 1417.68 0.614091 2.01971 0
M  V30 14692 O 1417.02 -0.377192 2.25365 0
M  V30 14693 C 1417.23 3.12314 1.55759 0
M  V30 14694 C 1418.58 3.72085 2.04543 0
M  V30 14695 O 1419.61 3.15349 1.65631 0
M  V30 14696 O 1418.47 4.71627 2.76099 0
M  V30 14697 H 1415.56 0.695077 0.448104 0
M  V30 14698 H 1418.11 1.68507 0.20084 0
M  V30 14699 H 1416.88 3.83215 0.791302 0
M  V30 14700 H 1416.5 3.18526 2.37964 0
M  V30 14701 N 1417.5 -0.477127 1.50204 0
M  V30 14702 C 1418.43 -1.58405 1.71552 0
M  V30 14703 C 1419.41 -1.60463 0.564413 0
M  V30 14704 O 1420.59 -1.76826 0.802893 0
M  V30 14705 C 1417.72 -2.96765 1.8041 0
M  V30 14706 C 1416.68 -3.09573 2.95548 0
M  V30 14707 C 1416 -4.49522 2.89542 0
M  V30 14708 C 1417.3 -2.87356 4.36147 0
M  V30 14709 H 1419 -1.40792 2.64231 0
M  V30 14710 H 1416.54 -0.675886 1.27153 0
M  V30 14711 H 1418.5 -3.74125 1.9393 0
M  V30 14712 H 1417.22 -3.1552 0.843489 0
M  V30 14713 H 1415.88 -2.34645 2.81669 0
M  V30 14714 H 1415.53 -4.65186 1.91339 0
M  V30 14715 H 1415.23 -4.59028 3.66834 0
M  V30 14716 H 1416.75 -5.28909 3.05102 0
M  V30 14717 H 1418.17 -3.54469 4.50583 0
M  V30 14718 H 1416.56 -3.08313 5.14843 0
M  V30 14719 H 1417.63 -1.83264 4.48935 0
M  V30 14720 N 1418.98 -1.3968 -0.729882 0
M  V30 14721 C 1419.91 -1.41549 -1.85704 0
M  V30 14722 C 1420.89 -0.278186 -1.6781 0
M  V30 14723 O 1422.07 -0.484749 -1.88053 0
M  V30 14724 C 1419.2 -1.26327 -3.2351 0
M  V30 14725 C 1418.16 -2.37511 -3.56051 0
M  V30 14726 C 1417.48 -2.07375 -4.92849 0
M  V30 14727 C 1418.78 -3.79833 -3.58502 0
M  V30 14728 H 1420.48 -2.35877 -1.84398 0
M  V30 14729 H 1418.02 -1.13536 -0.885747 0
M  V30 14730 H 1419.98 -1.26254 -4.02042 0
M  V30 14731 H 1418.7 -0.284697 -3.25357 0
M  V30 14732 H 1417.36 -2.36809 -2.79852 0
M  V30 14733 H 1417.01 -1.07943 -4.91281 0
M  V30 14734 H 1416.71 -2.81855 -5.15588 0
M  V30 14735 H 1418.23 -2.08961 -5.73731 0
M  V30 14736 H 1419.64 -3.82436 -4.27101 0
M  V30 14737 H 1418.04 -4.53715 -3.92763 0
M  V30 14738 H 1419.11 -4.10443 -2.58195 0
M  V30 14739 N 1420.45 0.960609 -1.2494 0
M  V30 14740 C 1421.7 1.70701 -1.09495 0
M  V30 14741 C 1422.03 1.90754 0.364214 0
M  V30 14742 O 1421.31 1.47417 1.26879 0
M  V30 14743 C 1421.59 3.09353 -1.84317 0
M  V30 14744 C 1421.44 2.96747 -3.38026 0
M  V30 14745 C 1422.76 4.09139 -1.62153 0
M  V30 14746 H 1419.88 0.61955 -0.399158 0
M  V30 14747 H 1422.52 1.11701 -1.53698 0
M  V30 14748 H 1420.67 3.59719 -1.46746 0
M  V30 14749 H 1422.35 2.53752 -3.85237 0
M  V30 14750 H 1420.59 2.32798 -3.66043 0
M  V30 14751 H 1421.26 3.95002 -3.85587 0
M  V30 14752 H 1423.74 3.67659 -1.94849 0
M  V30 14753 H 1422.61 5.04206 -2.16951 0
M  V30 14754 H 1422.87 4.38521 -0.561437 0
M  V30 14755 N 1421.93 1.0643 1.16234 0
M  V30 14756 C 1423.16 0.802644 1.90697 0
M  V30 14757 C 1423.58 -0.643145 1.77508 0
M  V30 14758 O 1422.93 -1.4404 1.12065 0
M  V30 14759 C 1422.98 1.18984 3.41358 0
M  V30 14760 O 1422.7 2.5789 3.54153 0
M  V30 14761 C 1424.21 0.956132 4.32866 0
M  V30 14762 H 1421.43 0.290891 0.604668 0
M  V30 14763 H 1423.97 1.41829 1.47325 0
M  V30 14764 H 1422.12 0.618703 3.82428 0
M  V30 14765 H 1422.54 2.73431 4.47589 0
M  V30 14766 H 1424.01 1.27667 5.37034 0
M  V30 14767 H 1424.49 -0.108062 4.39067 0
M  V30 14768 H 1425.1 1.51172 3.97526 0
M  V30 14769 N 1423.41 -1.329 0.847073 0
M  V30 14770 C 1424.37 -2.27341 0.291324 0
M  V30 14771 C 1425.37 -1.51295 -0.544653 0
M  V30 14772 O 1426.56 -1.70497 -0.357258 0
M  V30 14773 C 1423.7 -3.35779 -0.588668 0
M  V30 14774 H 1424.89 -2.78009 1.12477 0
M  V30 14775 H 1422.44 -1.43442 0.620803 0
M  V30 14776 H 1423.18 -2.90366 -1.44423 0
M  V30 14777 H 1422.96 -3.92099 0.00960515 0
M  V30 14778 H 1424.45 -4.06166 -0.970526 0
M  V30 14779 N 1424.89 -0.604284 -1.45555 0
M  V30 14780 C 1425.84 0.129013 -2.32242 0
M  V30 14781 C 1426.83 0.862933 -1.45773 0
M  V30 14782 O 1428.04 0.778874 -1.62276 0
M  V30 14783 H 1424.41 0.0604661 -0.749565 0
M  V30 14784 H 1426.38 -0.620603 -2.91875 0
M  V30 14785 C 1425.13 1.11516 -3.29332 0
M  V30 14786 H 1424.45 0.559849 -3.95861 0
M  V30 14787 H 1425.89 1.59824 -3.92724 0
M  V30 14788 C 1424.35 2.18706 -2.5626 0
M  V30 14789 O 1424.88 3.26397 -2.34154 0
M  V30 14790 N 1423.09 1.93899 -2.16452 0
M  V30 14791 H 1422.64 1.0633 -2.34631 0
M  V30 14792 H 1422.59 2.65824 -1.67884 0
M  V30 14793 N 1426.37 1.53816 -0.343257 0
M  V30 14794 C 1427.33 2.23654 0.501161 0
M  V30 14795 C 1428.33 1.23664 1.02781 0
M  V30 14796 O 1429.52 1.48104 0.917103 0
M  V30 14797 C 1426.65 2.95596 1.69812 0
M  V30 14798 H 1427.84 2.997 -0.109626 0
M  V30 14799 H 1425.4 1.56013 -0.0946011 0
M  V30 14800 H 1426.13 2.23736 2.34761 0
M  V30 14801 H 1425.92 3.68938 1.32768 0
M  V30 14802 H 1427.41 3.48748 2.29706 0
M  V30 14803 N 1427.84 0.0718701 1.57436 0
M  V30 14804 C 1429.09 -0.596799 1.92669 0
M  V30 14805 C 1429.41 -1.70765 0.953876 0
M  V30 14806 O 1430.61 -2.43589 1.19903 0
M  V30 14807 C 1429.07 -1.11291 3.42261 0
M  V30 14808 C 1428.68 -0.0330681 4.47988 0
M  V30 14809 C 1430.42 -1.75564 3.86494 0
M  V30 14810 C 1428.33 -0.56323 5.88712 0
M  V30 14811 H 1427.26 -0.226695 0.719114 0
M  V30 14812 H 1429.91 0.144117 1.82933 0
M  V30 14813 H 1428.29 -1.9068 3.4707 0
M  V30 14814 H 1429.46 0.741501 4.54795 0
M  V30 14815 H 1427.78 0.513438 4.13222 0
M  V30 14816 H 1430.38 -2.16261 4.89014 0
M  V30 14817 H 1430.72 -2.61566 3.23865 0
M  V30 14818 H 1431.25 -1.02798 3.84288 0
M  V30 14819 H 1427.99 0.259632 6.54986 0
M  V30 14820 H 1427.51 -1.30532 5.85424 0
M  V30 14821 H 1429.19 -1.03961 6.38593 0
M  V30 14822 N 1429.32 -1.56304 -0.201686 0
M  V30 14823 C 1430.6 -1.71059 -0.948595 0
M  V30 14824 C 1430.98 -0.624794 -2.01642 0
M  V30 14825 O 1430.33 0.365235 -2.25562 0
M  V30 14826 C 1430.54 -3.13136 -1.54101 0
M  V30 14827 C 1431.89 -3.73165 -2.02567 0
M  V30 14828 O 1432.91 -3.16223 -1.63956 0
M  V30 14829 O 1431.77 -4.73084 -2.73594 0
M  V30 14830 H 1428.86 -0.697443 -0.444412 0
M  V30 14831 H 1431.41 -1.68611 -0.191901 0
M  V30 14832 H 1430.18 -3.8363 -0.770968 0
M  V30 14833 H 1429.8 -3.19784 -2.36271 0
M  V30 14834 N 1430.8 0.469154 -1.50455 0
M  V30 14835 C 1432.05 1.22109 -1.61541 0
M  V30 14836 C 1432.38 1.91905 -0.316646 0
M  V30 14837 O 1431.63 1.82845 0.697585 0
M  V30 14838 C 1431.93 2.28673 -2.7467 0
M  V30 14839 C 1431.6 1.76115 -4.15083 0
M  V30 14840 C 1430.26 1.61503 -4.53288 0
M  V30 14841 C 1432.61 1.37145 -5.02833 0
M  V30 14842 C 1429.94 1.06346 -5.76981 0
M  V30 14843 C 1432.29 0.834294 -6.27074 0
M  V30 14844 C 1430.95 0.674814 -6.6408 0
M  V30 14845 H 1430.22 0.44683 -0.591121 0
M  V30 14846 H 1432.87 0.516821 -1.84394 0
M  V30 14847 H 1431.18 3.05015 -2.45912 0
M  V30 14848 H 1432.87 2.86615 -2.80451 0
M  V30 14849 H 1429.46 1.88457 -3.84944 0
M  V30 14850 H 1433.65 1.47268 -4.73947 0
M  V30 14851 H 1428.9 0.927377 -6.04326 0
M  V30 14852 H 1433.08 0.523676 -6.94428 0
M  V30 14853 H 1430.7 0.245264 -7.59804 0
M  V30 14854 N 1432.28 1.40065 0.722464 0
M  V30 14855 C 1433.53 1.3797 1.48224 0
M  V30 14856 C 1433.85 -0.0202588 1.94489 0
M  V30 14857 O 1433.11 -1.0035 1.68013 0
M  V30 14858 C 1433.41 2.30949 2.72759 0
M  V30 14859 C 1433.07 3.7834 2.45295 0
M  V30 14860 C 1431.74 4.18497 2.37515 0
M  V30 14861 C 1434.09 4.71509 2.221 0
M  V30 14862 C 1431.42 5.4987 2.04598 0
M  V30 14863 C 1433.77 6.03173 1.90697 0
M  V30 14864 C 1432.43 6.4238 1.81394 0
M  V30 14865 H 1431.7 0.504869 0.542392 0
M  V30 14866 H 1434.35 1.72667 0.828149 0
M  V30 14867 H 1432.65 1.89413 3.42972 0
M  V30 14868 H 1434.35 2.26615 3.30827 0
M  V30 14869 H 1430.94 3.46519 2.52235 0
M  V30 14870 H 1435.12 4.41308 2.27071 0
M  V30 14871 H 1430.38 5.79157 1.95928 0
M  V30 14872 H 1434.55 6.74886 1.71761 0
M  V30 14873 H 1432.18 7.44094 1.55654 0
M  V30 14874 N 1433.76 -0.95397 1.25448 0
M  V30 14875 C 1434.71 -2.07206 1.05681 0
M  V30 14876 C 1435.7 -1.69395 -0.0124672 0
M  V30 14877 O 1436.91 -1.79429 0.143201 0
M  V30 14878 H 1433.28 -0.678231 0.324817 0
M  V30 14879 H 1435.25 -2.21034 2.00466 0
M  V30 14880 C 1434 -3.40725 0.692955 0
M  V30 14881 H 1433.32 -3.70287 1.50756 0
M  V30 14882 H 1434.76 -4.19814 0.594351 0
M  V30 14883 C 1433.22 -3.31495 -0.601028 0
M  V30 14884 O 1433.75 -3.66565 -1.64296 0
M  V30 14885 N 1431.96 -2.84612 -0.586899 0
M  V30 14886 H 1431.51 -2.56271 0.261375 0
M  V30 14887 H 1431.46 -2.78819 -1.45284 0
M  V30 14888 N 1435.24 -1.07045 -1.15668 0
M  V30 14889 C 1436.18 -0.68226 -2.22369 0
M  V30 14890 C 1437.18 0.305448 -1.66623 0
M  V30 14891 O 1438.38 0.169495 -1.792 0
M  V30 14892 H 1434.76 -0.202536 -0.724212 0
M  V30 14893 H 1436.73 -1.59187 -2.52393 0
M  V30 14894 C 1435.48 -0.0928131 -3.47576 0
M  V30 14895 H 1434.8 -0.843964 -3.90791 0
M  V30 14896 H 1436.24 0.14118 -4.23765 0
M  V30 14897 C 1434.7 1.16567 -3.16091 0
M  V30 14898 O 1435.23 2.25257 -3.32599 0
M  V30 14899 N 1433.44 1.07061 -2.7016 0
M  V30 14900 H 1432.98 0.186091 -2.56927 0
M  V30 14901 H 1432.94 1.91346 -2.49468 0
M  V30 14902 N 1436.71 1.32449 -0.85411 0
M  V30 14903 C 1437.96 1.96881 -0.45632 0
M  V30 14904 C 1438.28 1.67926 0.991248 0
M  V30 14905 O 1437.55 0.986195 1.69266 0
M  V30 14906 H 1436.13 0.728378 -0.165752 0
M  V30 14907 H 1438.79 1.61542 -1.09042 0
M  V30 14908 H 1437.89 3.0626 -0.600927 0
M  V30 14909 N 1438.19 0.611994 1.45232 0
M  V30 14910 C 1439.42 0.115409 2.06578 0
M  V30 14911 C 1439.83 -1.20206 1.45588 0
M  V30 14912 O 1439.19 -1.73315 0.571668 0
M  V30 14913 C 1439.24 -0.0259943 3.61491 0
M  V30 14914 O 1438.96 1.23936 4.20204 0
M  V30 14915 C 1440.46 -0.553522 4.39831 0
M  V30 14916 H 1437.68 0.0708656 0.667247 0
M  V30 14917 H 1440.23 0.840977 1.86408 0
M  V30 14918 H 1438.38 -0.701909 3.80988 0
M  V30 14919 H 1438.8 1.07187 5.13431 0
M  V30 14920 H 1440.27 -0.601536 5.48713 0
M  V30 14921 H 1440.75 -1.57671 4.09923 0
M  V30 14922 H 1441.35 0.0884954 4.25208 0
M  V30 14923 N 1439.67 -1.53632 0.351409 0
M  V30 14924 C 1440.89 -2.0593 -0.246501 0
M  V30 14925 C 1441.32 -1.22419 -1.42812 0
M  V30 14926 O 1440.68 -0.239811 -1.79707 0
M  V30 14927 C 1440.73 -3.55021 -0.631862 0
M  V30 14928 O 1439.83 -3.74317 -1.73092 0
M  V30 14929 H 1439.17 -0.662839 -0.0392424 0
M  V30 14930 H 1441.7 -1.98196 0.507904 0
M  V30 14931 H 1441.71 -3.97795 -0.906831 0
M  V30 14932 H 1440.39 -4.15251 0.232224 0
M  V30 14933 H 1438.96 -3.43444 -1.4526 0
M  V30 14934 N 1441.15 -0.0802183 -1.57396 0
M  V30 14935 C 1442.08 0.913777 -2.10197 0
M  V30 14936 C 1443.09 1.25588 -1.03593 0
M  V30 14937 O 1444.28 1.21159 -1.31083 0
M  V30 14938 C 1441.38 2.2272 -2.55439 0
M  V30 14939 C 1440.55 2.06268 -3.8571 0
M  V30 14940 C 1439.61 3.20989 -4.16956 0
M  V30 14941 O 1438.64 2.95608 -4.8642 0
M  V30 14942 N 1439.84 4.46331 -3.71172 0
M  V30 14943 H 1442.61 0.462908 -2.96103 0
M  V30 14944 H 1440.17 0.105287 -1.61557 0
M  V30 14945 H 1442.16 2.98389 -2.73397 0
M  V30 14946 H 1440.73 2.59278 -1.74624 0
M  V30 14947 H 1439.95 1.15016 -3.77048 0
M  V30 14948 H 1441.24 1.92535 -4.70965 0
M  V30 14949 H 1440.64 4.69837 -3.15071 0
M  V30 14950 H 1439.19 5.18999 -3.94314 0
M  V30 14951 N 1442.63 1.56409 0.193394 0
M  V30 14952 C 1443.87 1.82511 0.920268 0
M  V30 14953 C 1444.23 0.657957 1.80374 0
M  V30 14954 O 1445.43 0.798914 2.56653 0
M  V30 14955 C 1443.7 3.13644 1.71354 0
M  V30 14956 S 1445.26 3.61158 2.4922 0
M  V30 14957 H 1442.08 0.64052 0.308634 0
M  V30 14958 H 1444.68 1.94637 0.183542 0
M  V30 14959 H 1443.38 3.96604 1.05514 0
M  V30 14960 H 1442.92 3.04402 2.49205 0
M  V30 14961 H 1444.93 3.26729 3.73447 0
M  V30 14962 N 1444.1 -0.461169 1.50702 0
M  V30 14963 C 1445.51 -1.04177 1.54932 0
M  V30 14964 C 1445.87 -1.92894 0.358648 0
M  V30 14965 O 1444.99 -2.09876 -0.527346 0
M  V30 14966 C 1445.59 -1.8961 2.80773 0
M  V30 14967 C 1444.14 -2.42761 2.87652 0
M  V30 14968 C 1443.29 -1.21356 2.49335 0
M  V30 14969 H 1446.24 -0.243379 1.56823 0
M  V30 14970 H 1446.26 -2.74794 2.63189 0
M  V30 14971 H 1445.78 -1.25014 3.67414 0
M  V30 14972 H 1443.88 -3.10881 2.05386 0
M  V30 14973 H 1443.99 -2.77189 3.90772 0
M  V30 14974 H 1442.35 -1.55146 2.01995 0
M  V30 14975 H 1443.14 -0.584069 3.38295 0
M  V30 14976 N 1445.58 -1.40446 -0.715026 0
M  V30 14977 C 1446.49 -1.43074 -1.85922 0
M  V30 14978 C 1447.51 -0.323294 -1.7097 0
M  V30 14979 O 1448.68 -0.567966 -1.93226 0
M  V30 14980 C 1445.75 -1.29206 -3.21725 0
M  V30 14981 C 1444.81 -2.50097 -3.48927 0
M  V30 14982 C 1444.04 -2.36881 -4.7825 0
M  V30 14983 O 1444.27 -1.38292 -5.53382 0
M  V30 14984 O 1443.2 -3.26266 -5.058 0
M  V30 14985 H 1447.03 -2.39565 -1.86661 0
M  V30 14986 H 1444.61 -1.21775 -0.865522 0
M  V30 14987 H 1446.49 -1.23681 -4.02841 0
M  V30 14988 H 1445.17 -0.358207 -3.21712 0
M  V30 14989 H 1444.07 -2.61199 -2.67817 0
M  V30 14990 H 1445.41 -3.42244 -3.53737 0
M  V30 14991 N 1447.06 0.947303 -1.25952 0
M  V30 14992 C 1448.01 2.03076 -1.03653 0
M  V30 14993 C 1448.99 1.60874 0.0290512 0
M  V30 14994 O 1450.19 1.76008 -0.187169 0
M  V30 14995 C 1447.31 3.36797 -0.66501 0
M  V30 14996 C 1446.4 3.85502 -1.76773 0
M  V30 14997 N 1446.79 4.06922 -3.00413 0
M  V30 14998 C 1445.09 4.14359 -1.64993 0
M  V30 14999 C 1445.79 4.4717 -3.7204 0
M  V30 15000 N 1444.77 4.53523 -2.99697 0
M  V30 15001 H 1448.57 2.17641 -1.97509 0
M  V30 15002 H 1446.08 1.13268 -1.16379 0
M  V30 15003 H 1448.08 4.14053 -0.486427 0
M  V30 15004 H 1446.74 3.23607 0.266138 0
M  V30 15005 H 1447.75 3.93786 -3.36383 0
M  V30 15006 H 1444.43 4.09991 -0.788254 0
M  V30 15007 H 1445.82 4.71985 -4.78205 0
M  V30 15008 N 1448.54 1.07657 1.15099 0
M  V30 15009 C 1449.5 0.703558 2.18135 0
M  V30 15010 C 1450.5 -0.257771 1.5872 0
M  V30 15011 O 1451.69 -0.0383211 1.74158 0
M  V30 15012 C 1448.82 0.0374978 3.40879 0
M  V30 15013 H 1450.02 1.61583 2.52648 0
M  V30 15014 H 1447.57 0.873484 1.29615 0
M  V30 15015 H 1448.3 -0.886868 3.11938 0
M  V30 15016 H 1448.09 0.728961 3.85264 0
M  V30 15017 H 1449.58 -0.208714 4.17078 0
M  V30 15018 N 1450.02 -1.31994 0.861122 0
M  V30 15019 C 1451.24 -2.01211 0.481865 0
M  V30 15020 C 1451.66 -1.64687 -0.923233 0
M  V30 15021 O 1451.02 -0.87151 -1.60346 0
M  V30 15022 C 1451.07 -3.56162 0.618919 0
M  V30 15023 O 1450.79 -3.91376 1.96868 0
M  V30 15024 C 1452.29 -4.42652 0.239514 0
M  V30 15025 H 1449.51 -0.643922 0.188693 0
M  V30 15026 H 1452.05 -1.68427 1.15985 0
M  V30 15027 H 1450.21 -3.87398 -0.0114042 0
M  V30 15028 H 1450.62 -4.86095 1.97008 0
M  V30 15029 H 1452.1 -5.50646 0.386394 0
M  V30 15030 H 1452.57 -4.31466 -0.820598 0
M  V30 15031 H 1453.18 -4.16818 0.845175 0
M  V30 15032 N 1451.49 -0.619688 -1.44906 0
M  V30 15033 C 1452.44 0.0920359 -2.30616 0
M  V30 15034 C 1453.41 0.848114 -1.42815 0
M  V30 15035 O 1454.6 0.831439 -1.71732 0
M  V30 15036 C 1451.74 1.07537 -3.27917 0
M  V30 15037 C 1450.85 0.318904 -4.30821 0
M  V30 15038 C 1449.98 1.29303 -5.15222 0
M  V30 15039 C 1449.02 0.525071 -6.09844 0
M  V30 15040 N 1448.16 1.44909 -6.86983 0
M  V30 15041 H 1453 -0.644834 -2.9094 0
M  V30 15042 H 1450.54 -0.329785 -1.43356 0
M  V30 15043 H 1452.5 1.65874 -3.82808 0
M  V30 15044 H 1451.13 1.7795 -2.6932 0
M  V30 15045 H 1450.18 -0.380192 -3.78495 0
M  V30 15046 H 1451.49 -0.279742 -4.98015 0
M  V30 15047 H 1450.64 1.94809 -5.74573 0
M  V30 15048 H 1449.38 1.92561 -4.48076 0
M  V30 15049 H 1448.39 -0.14355 -5.49613 0
M  V30 15050 H 1449.61 -0.102625 -6.79022 0
M  V30 15051 H 1447.56 2.06908 -6.22515 0
M  V30 15052 H 1447.48 0.90418 -7.50574 0
M  V30 15053 H 1448.74 2.09335 -7.50866 0
M  V30 15054 N 1452.97 1.53444 -0.359552 0
M  V30 15055 C 1454.22 2.01464 0.232366 0
M  V30 15056 C 1454.55 1.24656 1.48911 0
M  V30 15057 O 1453.83 0.338574 1.9153 0
M  V30 15058 C 1454.11 3.56172 0.530403 0
M  V30 15059 C 1453.96 4.43678 -0.739556 0
M  V30 15060 C 1455.28 4.19412 1.33347 0
M  V30 15061 H 1452.4 0.732314 0.0829802 0
M  V30 15062 H 1455.04 1.83752 -0.483253 0
M  V30 15063 H 1453.19 3.71396 1.14004 0
M  V30 15064 H 1454.86 4.40263 -1.37719 0
M  V30 15065 H 1453.11 4.11892 -1.36117 0
M  V30 15066 H 1453.78 5.49856 -0.486062 0
M  V30 15067 H 1456.25 4.07984 0.817816 0
M  V30 15068 H 1455.13 5.277 1.51075 0
M  V30 15069 H 1455.39 3.7508 2.34024 0
M  V30 15070 N 1454.45 0.0885642 1.57351 0
M  V30 15071 C 1455.41 -0.858178 2.12528 0
M  V30 15072 C 1456.41 -1.21522 1.05304 0
M  V30 15073 O 1457.6 -1.14573 1.3122 0
M  V30 15074 C 1454.74 -2.15619 2.64048 0
M  V30 15075 H 1455.93 -0.37918 2.97493 0
M  V30 15076 H 1453.48 -0.160354 1.55475 0
M  V30 15077 H 1454.22 -2.68018 1.82584 0
M  V30 15078 H 1454 -1.90995 3.42437 0
M  V30 15079 H 1455.49 -2.83359 3.06753 0
M  V30 15080 N 1455.93 -1.56509 -0.185096 0
M  V30 15081 C 1456.86 -1.98363 -1.23184 0
M  V30 15082 C 1457.84 -0.85709 -1.46929 0
M  V30 15083 O 1459.02 -1.12216 -1.58497 0
M  V30 15084 C 1456.15 -2.33172 -2.57387 0
M  V30 15085 C 1455.11 -3.48658 -2.48236 0
M  V30 15086 C 1454.43 -3.69171 -3.86804 0
M  V30 15087 C 1455.73 -4.82538 -1.99885 0
M  V30 15088 H 1457.43 -2.86053 -0.883982 0
M  V30 15089 H 1454.97 -1.37623 -0.423786 0
M  V30 15090 H 1456.93 -2.61048 -3.30805 0
M  V30 15091 H 1455.65 -1.42377 -2.93933 0
M  V30 15092 H 1454.31 -3.20889 -1.77273 0
M  V30 15093 H 1453.96 -2.75689 -4.20719 0
M  V30 15094 H 1453.66 -4.46868 -3.81553 0
M  V30 15095 H 1455.18 -3.99433 -4.61829 0
M  V30 15096 H 1456.6 -5.0938 -2.63068 0
M  V30 15097 H 1454.99 -5.63775 -2.05614 0
M  V30 15098 H 1456.06 -4.75453 -0.952503 0
M  V30 15099 N 1457.41 0.45317 -1.50944 0
M  V30 15100 C 1458.35 1.54885 -1.71112 0
M  V30 15101 C 1459.32 1.56639 -0.552566 0
M  V30 15102 O 1460.51 1.73894 -0.785203 0
M  V30 15103 C 1457.65 2.92729 -1.82766 0
M  V30 15104 C 1456.76 3.00626 -3.10239 0
M  V30 15105 C 1455.9 4.29495 -3.12582 0
M  V30 15106 C 1454.94 4.312 -4.34434 0
M  V30 15107 N 1454.07 5.51568 -4.34415 0
M  V30 15108 H 1458.91 1.36992 -2.64645 0
M  V30 15109 H 1456.45 0.665753 -1.31172 0
M  V30 15110 H 1458.41 3.7269 -1.87505 0
M  V30 15111 H 1457.04 3.09216 -0.926561 0
M  V30 15112 H 1456.09 2.13426 -3.14886 0
M  V30 15113 H 1457.4 2.97746 -4.00186 0
M  V30 15114 H 1456.56 5.17817 -3.16149 0
M  V30 15115 H 1455.29 4.35009 -2.20496 0
M  V30 15116 H 1454.3 3.41272 -4.3106 0
M  V30 15117 H 1455.52 4.27363 -5.27767 0
M  V30 15118 H 1453.47 5.57834 -3.45192 0
M  V30 15119 H 1453.39 5.50504 -5.18152 0
M  V30 15120 H 1454.66 6.41966 -4.42153 0
M  V30 15121 N 1458.88 1.40823 0.707568 0
M  V30 15122 C 1460.13 1.39741 1.4697 0
M  V30 15123 C 1460.46 0.00231194 1.942 0
M  V30 15124 O 1459.74 -0.967798 1.68713 0
M  V30 15125 C 1460.02 2.39385 2.69011 0
M  V30 15126 C 1459.87 3.87953 2.27624 0
M  V30 15127 C 1461.19 2.3645 3.71186 0
M  V30 15128 H 1458.31 0.508904 0.533091 0
M  V30 15129 H 1460.95 1.72015 0.806888 0
M  V30 15130 H 1459.1 2.11993 3.25563 0
M  V30 15131 H 1460.78 4.26202 1.76492 0
M  V30 15132 H 1459.02 4.03399 1.59537 0
M  V30 15133 H 1459.69 4.53201 3.15139 0
M  V30 15134 H 1462.17 2.60731 3.24282 0
M  V30 15135 H 1461.04 3.08204 4.54204 0
M  V30 15136 H 1461.3 1.3789 4.20046 0
M  V30 15137 N 1460.36 -0.94061 1.26453 0
M  V30 15138 C 1461.61 -1.68937 1.12197 0
M  V30 15139 C 1461.94 -1.91309 -0.33382 0
M  V30 15140 O 1461.22 -1.49417 -1.24518 0
M  V30 15141 C 1461.5 -3.06381 1.89215 0
M  V30 15142 C 1461.35 -2.91331 3.42704 0
M  V30 15143 C 1462.67 -4.06507 1.68642 0
M  V30 15144 H 1459.79 -0.613121 0.408964 0
M  V30 15145 H 1462.43 -1.09242 1.55455 0
M  V30 15146 H 1460.58 -3.57339 1.5245 0
M  V30 15147 H 1462.25 -2.47591 3.89226 0
M  V30 15148 H 1460.5 -2.26945 3.697 0
M  V30 15149 H 1461.17 -3.88818 3.91822 0
M  V30 15150 H 1463.64 -3.64512 2.00674 0
M  V30 15151 H 1462.52 -5.0069 2.24945 0
M  V30 15152 H 1462.78 -4.37572 0.631131 0
M  V30 15153 N 1461.84 -1.08266 -1.14527 0
M  V30 15154 C 1463.07 -0.83288 -1.89396 0
M  V30 15155 C 1463.48 0.614823 -1.78509 0
M  V30 15156 O 1462.84 1.42239 -1.14343 0
M  V30 15157 C 1462.89 -1.244 -3.39421 0
M  V30 15158 O 1462.61 -2.63491 -3.50006 0
M  V30 15159 C 1464.11 -1.02488 -4.3129 0
M  V30 15160 H 1461.33 -0.300474 -0.599964 0
M  V30 15161 H 1463.88 -1.44155 -1.4505 0
M  V30 15162 H 1462.03 -0.679466 -3.81395 0
M  V30 15163 H 1462.45 -2.80517 -4.43182 0
M  V30 15164 H 1463.92 -1.36194 -5.34935 0
M  V30 15165 H 1464.4 0.0381961 -4.39183 0
M  V30 15166 H 1465 -1.57477 -3.95071 0
M  V30 15167 N 1463.32 1.31536 -0.86811 0
M  V30 15168 C 1464.73 1.78991 -0.530937 0
M  V30 15169 C 1465.08 1.71553 0.952046 0
M  V30 15170 O 1464.21 1.28216 1.74326 0
M  V30 15171 C 1464.8 3.25004 -0.956981 0
M  V30 15172 C 1463.36 3.70362 -0.671495 0
M  V30 15173 C 1462.51 2.52361 -1.14932 0
M  V30 15174 H 1465.46 1.18644 -1.05401 0
M  V30 15175 H 1465.48 3.79477 -0.278883 0
M  V30 15176 H 1464.99 3.30385 -2.03635 0
M  V30 15177 H 1463.09 3.70483 0.39659 0
M  V30 15178 H 1463.21 4.62581 -1.24722 0
M  V30 15179 H 1461.57 2.4826 -0.569144 0
M  V30 15180 H 1462.35 2.60489 -2.23608 0
M  V30 15181 N 1464.8 0.627364 1.44575 0
M  V30 15182 C 1466.05 0.127824 2.01295 0
M  V30 15183 C 1466.36 -1.25647 1.49907 0
M  V30 15184 O 1467.57 -1.84982 1.9873 0
M  V30 15185 C 1466.02 0.177775 3.59461 0
M  V30 15186 C 1465.63 1.56315 4.19845 0
M  V30 15187 C 1467.37 -0.265497 4.23669 0
M  V30 15188 C 1465.28 1.56842 5.70223 0
M  V30 15189 H 1464.21 0.0440205 0.752714 0
M  V30 15190 H 1466.86 0.785607 1.65833 0
M  V30 15191 H 1465.24 -0.547038 3.92203 0
M  V30 15192 H 1466.42 2.31125 3.98645 0
M  V30 15193 H 1464.73 1.95019 3.67909 0
M  V30 15194 H 1467.33 -0.281038 5.33961 0
M  V30 15195 H 1467.67 -1.29208 3.95741 0
M  V30 15196 H 1468.21 0.406698 3.95716 0
M  V30 15197 H 1464.94 2.57325 6.0288 0
M  V30 15198 H 1464.46 0.863198 5.93556 0
M  V30 15199 H 1466.14 1.30071 6.33791 0
M  V30 15200 N 1466.28 -1.53251 0.367684 0
M  V30 15201 C 1467.52 -2.00469 -0.222481 0
M  V30 15202 C 1467.84 -1.259 -1.49695 0
M  V30 15203 O 1469.04 -1.63717 -2.16585 0
M  V30 15204 C 1467.5 -3.57113 -0.447018 0
M  V30 15205 C 1467.11 -4.40562 0.812946 0
M  V30 15206 C 1468.85 -4.12681 -0.994725 0
M  V30 15207 C 1466.76 -5.88763 0.557877 0
M  V30 15208 H 1465.69 -0.748974 -0.0869144 0
M  V30 15209 H 1468.34 -1.76927 0.48675 0
M  V30 15210 H 1466.72 -3.76818 -1.21756 0
M  V30 15211 H 1467.9 -4.3263 1.58644 0
M  V30 15212 H 1466.21 -3.96108 1.28403 0
M  V30 15213 H 1468.81 -5.2104 -1.20091 0
M  V30 15214 H 1469.15 -3.67408 -1.95748 0
M  V30 15215 H 1469.68 -3.96783 -0.284295 0
M  V30 15216 H 1466.42 -6.38317 1.49102 0
M  V30 15217 H 1465.94 -5.99539 -0.177082 0
M  V30 15218 H 1467.62 -6.46738 0.18419 0
M  V30 15219 N 1467.75 -0.0969077 -1.57302 0
M  V30 15220 C 1469 0.566072 -1.93594 0
M  V30 15221 C 1469.32 1.69226 -0.980922 0
M  V30 15222 O 1470.52 2.41651 -1.23763 0
M  V30 15223 C 1468.98 1.05832 -3.43988 0
M  V30 15224 C 1468.59 -0.038207 -4.47984 0
M  V30 15225 C 1470.33 1.69393 -3.89238 0
M  V30 15226 C 1468.24 0.4695 -5.89533 0
M  V30 15227 H 1467.17 0.215226 -0.72263 0
M  V30 15228 H 1469.82 -0.173202 -1.82681 0
M  V30 15229 H 1468.2 1.85134 -3.50059 0
M  V30 15230 H 1469.37 -0.813761 -4.53558 0
M  V30 15231 H 1467.69 -0.579113 -4.12353 0
M  V30 15232 H 1470.29 2.08454 -4.92393 0
M  V30 15233 H 1470.63 2.56381 -3.27986 0
M  V30 15234 H 1471.16 0.966709 -3.85875 0
M  V30 15235 H 1467.9 -0.363802 -6.5449 0
M  V30 15236 H 1467.42 1.21202 -5.87427 0
M  V30 15237 H 1469.1 0.937885 -6.40166 0
M  V30 15238 N 1469.23 1.56605 0.176793 0
M  V30 15239 C 1470.46 1.8617 0.91408 0
M  V30 15240 C 1470.88 0.68262 1.75277 0
M  V30 15241 O 1470.24 -0.368391 1.77518 0
M  V30 15242 C 1470.29 3.14109 1.7711 0
M  V30 15243 O 1469.39 2.95947 2.87209 0
M  V30 15244 H 1468.73 0.612507 0.25638 0
M  V30 15245 H 1471.26 2.03837 0.176586 0
M  V30 15246 H 1471.27 3.45373 2.17213 0
M  V30 15247 H 1469.95 3.9954 1.15502 0
M  V30 15248 H 1468.52 2.76024 2.50729 0
M  V30 15249 N 1470.71 -0.445159 1.51182 0
M  V30 15250 C 1471.96 -1.19701 1.63705 0
M  V30 15251 C 1472.29 -1.91047 0.348511 0
M  V30 15252 O 1471.56 -1.83264 -0.651497 0
M  V30 15253 C 1471.85 -2.22021 2.83511 0
M  V30 15254 C 1471.7 -1.54809 4.2232 0
M  V30 15255 C 1473.02 -3.23083 2.9884 0
M  V30 15256 H 1470.14 -0.433818 0.595795 0
M  V30 15257 H 1472.78 -0.487276 1.83645 0
M  V30 15258 H 1470.93 -2.82551 2.66641 0
M  V30 15259 H 1472.6 -0.976774 4.5084 0
M  V30 15260 H 1470.84 -0.850596 4.25379 0
M  V30 15261 H 1471.52 -2.29289 5.02126 0
M  V30 15262 H 1473.99 -2.72601 3.14369 0
M  V30 15263 H 1472.87 -3.91978 3.84246 0
M  V30 15264 H 1473.13 -3.88732 2.1057 0
M  V30 15265 N 1472.19 -1.41197 -0.700089 0
M  V30 15266 C 1473.43 -1.40311 -1.46011 0
M  V30 15267 C 1473.76 -0.0106853 -1.94497 0
M  V30 15268 O 1473.02 0.976648 -1.69588 0
M  V30 15269 C 1473.32 -2.35259 -2.6905 0
M  V30 15270 C 1472.98 -3.82194 -2.39245 0
M  V30 15271 C 1471.64 -4.22223 -2.30827 0
M  V30 15272 C 1474 -4.74983 -2.1457 0
M  V30 15273 C 1471.32 -5.53055 -1.95824 0
M  V30 15274 C 1473.68 -6.0613 -1.81077 0
M  V30 15275 C 1472.34 -6.45185 -1.71151 0
M  V30 15276 H 1471.61 -0.513434 -0.534291 0
M  V30 15277 H 1474.26 -1.73963 -0.800574 0
M  V30 15278 H 1472.56 -1.94845 -3.39915 0
M  V30 15279 H 1474.26 -2.31849 -3.2718 0
M  V30 15280 H 1470.85 -3.50488 -2.4669 0
M  V30 15281 H 1475.03 -4.44864 -2.20021 0
M  V30 15282 H 1470.29 -5.822 -1.86689 0
M  V30 15283 H 1474.46 -6.77533 -1.61002 0
M  V30 15284 H 1472.09 -7.46476 -1.43796 0
M  V30 15285 N 1473.67 0.933891 -1.2695 0
M  V30 15286 C 1474.91 1.6834 -1.13091 0
M  V30 15287 C 1475.24 1.91484 0.32367 0
M  V30 15288 O 1474.52 1.50075 1.23724 0
M  V30 15289 C 1474.8 3.05374 -1.90838 0
M  V30 15290 C 1474.66 2.8951 -3.44244 0
M  V30 15291 C 1475.97 4.05607 -1.70795 0
M  V30 15292 H 1473.09 0.610944 -0.41221 0
M  V30 15293 H 1475.74 1.08416 -1.56032 0
M  V30 15294 H 1473.89 3.56526 -1.54343 0
M  V30 15295 H 1475.56 2.45523 -3.90533 0
M  V30 15296 H 1473.8 2.24981 -3.70899 0
M  V30 15297 H 1474.47 3.86734 -3.93879 0
M  V30 15298 H 1476.95 3.63443 -2.02604 0
M  V30 15299 H 1475.82 4.9949 -2.27597 0
M  V30 15300 H 1476.08 4.37231 -0.654327 0
M  V30 15301 N 1475.14 1.08871 1.13951 0
M  V30 15302 C 1476.07 0.744715 2.21306 0
M  V30 15303 C 1477.05 -0.275019 1.67862 0
M  V30 15304 O 1478.24 -0.144339 1.93663 0
M  V30 15305 C 1475.37 0.158336 3.46939 0
M  V30 15306 C 1474.32 1.10695 4.13438 0
M  V30 15307 C 1473.65 0.382552 5.3333 0
M  V30 15308 C 1474.95 2.44704 4.61429 0
M  V30 15309 H 1476.64 1.6423 2.50337 0
M  V30 15310 H 1474.19 0.791088 1.20324 0
M  V30 15311 H 1476.14 -0.0943587 4.21294 0
M  V30 15312 H 1474.87 -0.774413 3.17286 0
M  V30 15313 H 1473.53 1.34482 3.41043 0
M  V30 15314 H 1473.17 -0.554153 4.99938 0
M  V30 15315 H 1472.87 1.01499 5.78767 0
M  V30 15316 H 1474.4 0.138023 6.10444 0
M  V30 15317 H 1475.81 2.25156 5.27236 0
M  V30 15318 H 1474.21 3.03684 5.17586 0
M  V30 15319 H 1475.28 3.05883 3.76249 0
M  V30 15320 N 1476.62 -1.31073 0.875073 0
M  V30 15321 C 1477.58 -2.26672 0.339481 0
M  V30 15322 C 1478.58 -1.52416 -0.512439 0
M  V30 15323 O 1479.77 -1.71217 -0.321012 0
M  V30 15324 C 1476.91 -3.36952 -0.517311 0
M  V30 15325 H 1478.1 -2.7556 1.18349 0
M  V30 15326 H 1475.65 -1.42093 0.65109 0
M  V30 15327 H 1476.39 -2.93364 -1.38231 0
M  V30 15328 H 1476.17 -3.9199 0.092773 0
M  V30 15329 H 1477.66 -4.08133 -0.884154 0
M  V30 15330 N 1478.1 -0.635022 -1.4424 0
M  V30 15331 C 1479.03 0.0543561 -2.33437 0
M  V30 15332 C 1480.01 0.830807 -1.48431 0
M  V30 15333 O 1481.2 0.795913 -1.77141 0
M  V30 15334 C 1478.33 1.03391 -3.31553 0
M  V30 15335 C 1477.28 0.368824 -4.26408 0
M  V30 15336 C 1476.61 1.45855 -5.14422 0
M  V30 15337 C 1477.91 -0.727381 -5.1721 0
M  V30 15338 H 1479.6 -0.690489 -2.91329 0
M  V30 15339 H 1477.15 -0.3335 -1.40085 0
M  V30 15340 H 1479.1 1.52495 -3.9284 0
M  V30 15341 H 1477.82 1.80969 -2.71878 0
M  V30 15342 H 1476.48 -0.101605 -3.66459 0
M  V30 15343 H 1476.13 2.22531 -4.51098 0
M  V30 15344 H 1475.83 1.0189 -5.78699 0
M  V30 15345 H 1477.35 1.95132 -5.78581 0
M  V30 15346 H 1478.77 -0.319272 -5.7241 0
M  V30 15347 H 1477.17 -1.09041 -5.9011 0
M  V30 15348 H 1478.24 -1.59292 -4.57989 0
M  V30 15349 N 1479.58 1.53054 -0.375806 0
M  V30 15350 C 1480.81 2.05521 0.210828 0
M  V30 15351 C 1481.22 1.24837 1.4217 0
M  V30 15352 O 1480.56 0.284634 1.81481 0
M  V30 15353 C 1480.62 3.53417 0.658548 0
M  V30 15354 C 1480.29 4.54906 -0.437025 0
M  V30 15355 C 1481.28 5.03638 -1.29016 0
M  V30 15356 C 1478.97 4.98701 -0.600194 0
M  V30 15357 C 1480.96 5.94777 -2.29171 0
M  V30 15358 C 1478.65 5.89644 -1.6051 0
M  V30 15359 C 1479.65 6.37573 -2.44929 0
M  V30 15360 O 1479.33 7.26721 -3.43703 0
M  V30 15361 H 1479.07 0.674893 0.0386627 0
M  V30 15362 H 1481.62 1.98296 -0.535534 0
M  V30 15363 H 1479.85 3.58215 1.45667 0
M  V30 15364 H 1481.54 3.88692 1.16933 0
M  V30 15365 H 1482.31 4.70543 -1.17534 0
M  V30 15366 H 1478.18 4.60976 0.0471346 0
M  V30 15367 H 1481.73 6.3211 -2.95099 0
M  V30 15368 H 1477.63 6.22153 -1.72035 0
M  V30 15369 H 1478.39 7.44746 -3.39553 0
M  V30 15370 N 1481.06 0.105248 1.57248 0
M  V30 15371 C 1481.99 -0.846915 2.176 0
M  V30 15372 C 1482.97 -1.28706 1.11216 0
M  V30 15373 O 1484.15 -1.35213 1.39396 0
M  V30 15374 C 1481.28 -2.10228 2.76445 0
M  V30 15375 C 1480.24 -1.80041 3.8829 0
M  V30 15376 C 1479.56 -3.12491 4.33882 0
M  V30 15377 C 1480.86 -1.07943 5.11024 0
M  V30 15378 H 1482.56 -0.344052 2.97417 0
M  V30 15379 H 1480.1 -0.164045 1.43063 0
M  V30 15380 H 1482.06 -2.77284 3.17319 0
M  V30 15381 H 1480.78 -2.62815 1.93897 0
M  V30 15382 H 1479.44 -1.15379 3.4797 0
M  V30 15383 H 1479.09 -3.62985 3.48211 0
M  V30 15384 H 1478.79 -2.93072 5.09296 0
M  V30 15385 H 1480.31 -3.80688 4.77398 0
M  V30 15386 H 1481.72 -1.65127 5.49004 0
M  V30 15387 H 1480.12 -0.986674 5.91933 0
M  V30 15388 H 1481.19 -0.0638511 4.84858 0
M  V30 15389 N 1482.53 -1.56697 -0.168486 0
M  V30 15390 C 1483.48 -1.93039 -1.21325 0
M  V30 15391 C 1484.47 -0.799039 -1.39657 0
M  V30 15392 O 1485.66 -1.06226 -1.41581 0
M  V30 15393 C 1482.79 -2.29622 -2.55203 0
M  V30 15394 C 1481.88 -3.49278 -2.40553 0
M  V30 15395 N 1482.27 -4.6644 -1.95622 0
M  V30 15396 C 1480.56 -3.53941 -2.71371 0
M  V30 15397 C 1481.27 -5.48572 -1.93502 0
M  V30 15398 N 1480.24 -4.89693 -2.36012 0
M  V30 15399 H 1484.04 -2.81109 -0.857611 0
M  V30 15400 H 1481.56 -1.5797 -0.376734 0
M  V30 15401 H 1483.55 -2.53854 -3.30702 0
M  V30 15402 H 1482.21 -1.42893 -2.91568 0
M  V30 15403 H 1483.23 -4.90604 -1.65916 0
M  V30 15404 H 1479.9 -2.77697 -3.11754 0
M  V30 15405 H 1481.29 -6.52464 -1.60438 0
M  V30 15406 N 1484.01 0.437135 -1.51416 0
M  V30 15407 C 1484.98 1.51313 -1.72154 0
M  V30 15408 C 1485.98 1.49523 -0.59157 0
M  V30 15409 O 1487.17 1.51541 -0.859118 0
M  V30 15410 C 1484.3 2.9085 -1.77818 0
M  V30 15411 H 1485.49 1.34229 -2.68184 0
M  V30 15412 H 1483.04 0.665822 -1.41409 0
M  V30 15413 H 1483.78 3.13338 -0.836033 0
M  V30 15414 H 1483.56 2.93554 -2.59939 0
M  V30 15415 H 1485.05 3.68905 -1.957 0
M  V30 15416 N 1485.49 1.41566 0.692592 0
M  V30 15417 C 1486.42 1.39582 1.81795 0
M  V30 15418 C 1487.44 0.29754 1.60058 0
M  V30 15419 O 1488.62 0.559463 1.69506 0
M  V30 15420 C 1485.72 1.15506 3.18609 0
M  V30 15421 C 1484.9 2.37432 3.67349 0
M  V30 15422 C 1483.96 2.09168 4.82841 0
M  V30 15423 O 1482.98 2.8223 4.94303 0
M  V30 15424 N 1484.18 1.08377 5.70294 0
M  V30 15425 H 1486.95 2.36577 1.83988 0
M  V30 15426 H 1484.51 1.36216 0.875026 0
M  V30 15427 H 1486.5 0.945452 3.93501 0
M  V30 15428 H 1485.07 0.270987 3.11423 0
M  V30 15429 H 1484.29 2.74076 2.8333 0
M  V30 15430 H 1485.58 3.18661 3.96652 0
M  V30 15431 H 1484.98 0.479122 5.63667 0
M  V30 15432 H 1483.54 0.934042 6.45073 0
M  V30 15433 N 1486.97 -0.927146 1.27443 0
M  V30 15434 C 1487.9 -2.03209 1.06013 0
M  V30 15435 C 1488.91 -1.62792 0.016041 0
M  V30 15436 O 1490.1 -1.76631 0.25766 0
M  V30 15437 C 1487.2 -3.33791 0.586225 0
M  V30 15438 C 1486.38 -4.02897 1.70273 0
M  V30 15439 C 1485.43 -5.11755 1.22447 0
M  V30 15440 O 1484.46 -5.35688 1.92423 0
M  V30 15441 N 1485.66 -5.80444 0.0804162 0
M  V30 15442 H 1488.43 -2.22155 2.01165 0
M  V30 15443 H 1485.99 -1.09757 1.19017 0
M  V30 15444 H 1487.98 -4.03926 0.250161 0
M  V30 15445 H 1486.55 -3.11414 -0.272076 0
M  V30 15446 H 1485.77 -3.26489 2.20905 0
M  V30 15447 H 1487.06 -4.45816 2.45205 0
M  V30 15448 H 1486.46 -5.63454 -0.503635 0
M  V30 15449 H 1485.01 -6.51504 -0.196466 0
M  V30 15450 N 1488.45 -1.09474 -1.13372 0
M  V30 15451 C 1489.69 -0.832323 -1.84933 0
M  V30 15452 C 1490.03 0.640469 -1.83335 0
M  V30 15453 O 1489.3 1.47158 -1.2718 0
M  V30 15454 C 1489.58 -1.36876 -3.33072 0
M  V30 15455 C 1489.44 -2.90769 -3.43181 0
M  V30 15456 C 1490.76 -1.00294 -4.2852 0
M  V30 15457 H 1487.87 -0.30382 -0.671463 0
M  V30 15458 H 1490.52 -1.35622 -1.33066 0
M  V30 15459 H 1488.67 -0.923134 -3.77373 0
M  V30 15460 H 1490.34 -3.43784 -3.07588 0
M  V30 15461 H 1488.58 -3.27876 -2.84042 0
M  V30 15462 H 1489.25 -3.23381 -4.47358 0
M  V30 15463 H 1491.73 -1.38729 -3.92293 0
M  V30 15464 H 1490.6 -1.40533 -5.30605 0
M  V30 15465 H 1490.87 0.0888133 -4.42011 0
M  V30 15466 N 1489.92 1.30607 -0.882012 0
M  V30 15467 C 1490.83 2.31967 -0.350503 0
M  V30 15468 C 1491.85 1.6522 0.54575 0
M  V30 15469 O 1493.03 1.96544 0.439581 0
M  V30 15470 C 1490.09 3.44037 0.428924 0
M  V30 15471 C 1489.15 4.26417 -0.496727 0
M  V30 15472 C 1488.39 5.33135 0.245597 0
M  V30 15473 O 1488.61 5.51077 1.47209 0
M  V30 15474 O 1487.54 6.00551 -0.402767 0
M  V30 15475 H 1491.37 2.79374 -1.19095 0
M  V30 15476 H 1488.95 1.34723 -0.645754 0
M  V30 15477 H 1490.84 4.12314 0.870346 0
M  V30 15478 H 1489.51 2.9877 1.24573 0
M  V30 15479 H 1488.42 3.60848 -0.986899 0
M  V30 15480 H 1489.75 4.7528 -1.27945 0
M  V30 15481 N 1491.4 0.642663 1.43901 0
M  V30 15482 C 1492.63 0.157518 2.06801 0
M  V30 15483 C 1493.05 -1.16361 1.47789 0
M  V30 15484 O 1492.41 -1.71645 0.583747 0
M  V30 15485 C 1492.46 0.0685904 3.60535 0
M  V30 15486 O 1491.56 -0.972183 4.00777 0
M  V30 15487 H 1490.9 0.0900406 0.657867 0
M  V30 15488 H 1493.43 0.882604 1.84584 0
M  V30 15489 H 1493.44 -0.118212 4.07829 0
M  V30 15490 H 1492.12 1.03307 4.02865 0
M  V30 15491 H 1490.7 -0.75902 3.65094 0
M  V30 15492 N 1492.88 -1.52852 0.383918 0
M  V30 15493 C 1494.11 -2.05929 -0.200216 0
M  V30 15494 C 1494.52 -1.25606 -1.40956 0
M  V30 15495 O 1493.88 -0.301336 -1.79995 0
M  V30 15496 C 1493.93 -3.56887 -0.575655 0
M  V30 15497 O 1493.65 -4.34168 0.58564 0
M  V30 15498 C 1495.15 -4.2629 -1.21623 0
M  V30 15499 H 1492.37 -0.670261 -0.0314727 0
M  V30 15500 H 1494.92 -1.97032 0.547591 0
M  V30 15501 H 1493.07 -3.65875 -1.27336 0
M  V30 15502 H 1493.49 -5.23761 0.278267 0
M  V30 15503 H 1494.96 -5.33174 -1.42933 0
M  V30 15504 H 1495.44 -3.81163 -2.182 0
M  V30 15505 H 1496.04 -4.21605 -0.559435 0
M  V30 15506 N 1494.36 -0.113586 -1.5719 0
M  V30 15507 C 1495.32 0.824258 -2.13866 0
M  V30 15508 C 1496.32 1.19831 -1.07224 0
M  V30 15509 O 1497.51 1.12471 -1.33026 0
M  V30 15510 C 1494.64 2.11391 -2.67445 0
M  V30 15511 H 1495.84 0.331803 -2.98059 0
M  V30 15512 H 1493.39 0.135599 -1.55711 0
M  V30 15513 H 1494.13 2.65079 -1.86824 0
M  V30 15514 H 1493.91 1.85523 -3.45433 0
M  V30 15515 H 1495.4 2.78443 -3.11222 0
M  V30 15516 N 1495.84 1.56784 0.160173 0
M  V30 15517 C 1497.25 1.51153 0.512352 0
M  V30 15518 C 1497.45 0.819774 1.84071 0
M  V30 15519 O 1496.51 0.384789 2.49551 0
M  V30 15520 C 1497.82 2.95906 0.534817 0
M  V30 15521 C 1499.37 3.06773 0.621248 0
M  V30 15522 C 1499.85 4.53006 0.674501 0
M  V30 15523 N 1501.34 4.57298 0.737087 0
M  V30 15524 C 1502.07 5.67805 0.799054 0
M  V30 15525 N 1501.57 6.87916 0.821171 0
M  V30 15526 N 1503.36 5.55804 0.838928 0
M  V30 15527 H 1495.51 2.00157 -0.710712 0
M  V30 15528 H 1497.77 0.91233 -0.257601 0
M  V30 15529 H 1497.48 3.49719 -0.372773 0
M  V30 15530 H 1497.35 3.51152 1.3774 0
M  V30 15531 H 1499.74 2.52987 1.51926 0
M  V30 15532 H 1499.82 2.54593 -0.248224 0
M  V30 15533 H 1499.47 5.07426 -0.219301 0
M  V30 15534 H 1499.4 5.02954 1.56028 0
M  V30 15535 H 1501.89 3.70825 0.727827 0
M  V30 15536 H 1502.2 7.67888 0.869938 0
M  V30 15537 H 1500.55 6.90504 0.789264 0
M  V30 15538 H 1503.74 4.60884 0.818728 0
M  V30 15539 H 1503.91 6.41945 0.883757 0
M  V30 15540 N 1497.32 -0.429099 1.51646 0
M  V30 15541 C 1498.25 -1.52867 1.76505 0
M  V30 15542 C 1499.23 -1.58586 0.615178 0
M  V30 15543 O 1500.41 -1.74182 0.858742 0
M  V30 15544 C 1497.54 -2.90875 1.8976 0
M  V30 15545 C 1496.5 -3.00014 3.05247 0
M  V30 15546 C 1495.82 -4.40082 3.03696 0
M  V30 15547 C 1497.12 -2.73334 4.45068 0
M  V30 15548 H 1498.82 -1.32315 2.68576 0
M  V30 15549 H 1496.36 -0.635091 1.29238 0
M  V30 15550 H 1498.31 -3.67765 2.05734 0
M  V30 15551 H 1497.04 -3.12677 0.943442 0
M  V30 15552 H 1495.7 -2.25565 2.88991 0
M  V30 15553 H 1495.35 -4.58864 2.06042 0
M  V30 15554 H 1495.05 -4.47125 3.81252 0
M  V30 15555 H 1496.57 -5.18935 3.21774 0
M  V30 15556 H 1497.98 -3.39954 4.61632 0
M  V30 15557 H 1496.38 -2.91777 5.24391 0
M  V30 15558 H 1497.45 -1.68889 4.54538 0
M  V30 15559 N 1498.79 -1.41931 -0.685074 0
M  V30 15560 C 1500.07 -1.32338 -1.44035 0
M  V30 15561 C 1500.45 0.0441161 -2.11054 0
M  V30 15562 O 1499.8 1.05901 -2.02478 0
M  V30 15563 C 1500.01 -2.48429 -2.45121 0
M  V30 15564 C 1501.36 -2.90076 -3.10067 0
M  V30 15565 O 1502.38 -2.48245 -2.55447 0
M  V30 15566 O 1501.24 -3.62445 -4.09019 0
M  V30 15567 H 1498.33 -0.521361 -0.641959 0
M  V30 15568 H 1500.88 -1.53918 -0.714666 0
M  V30 15569 H 1499.65 -3.39637 -1.94326 0
M  V30 15570 H 1499.27 -2.28781 -3.25184 0
M  V30 15571 N 1500.27 0.920374 -1.27933 0
M  V30 15572 C 1501.52 1.66883 -1.147 0
M  V30 15573 C 1501.85 1.92082 0.305732 0
M  V30 15574 O 1501.1 1.51449 1.23942 0
M  V30 15575 C 1501.4 3.03725 -1.88377 0
M  V30 15576 C 1501.07 2.9821 -3.38203 0
M  V30 15577 C 1499.73 2.96413 -3.79068 0
M  V30 15578 C 1502.08 2.88952 -4.3377 0
M  V30 15579 C 1499.41 2.83151 -5.13851 0
M  V30 15580 C 1501.76 2.77231 -5.68618 0
M  V30 15581 C 1500.42 2.73788 -6.08766 0
M  V30 15582 H 1499.69 0.61067 -0.419718 0
M  V30 15583 H 1502.34 1.0728 -1.58629 0
M  V30 15584 H 1500.65 3.67075 -1.36978 0
M  V30 15585 H 1502.34 3.60527 -1.7556 0
M  V30 15586 H 1498.93 3.004 -3.05709 0
M  V30 15587 H 1503.12 2.89433 -4.03165 0
M  V30 15588 H 1498.37 2.78877 -5.44093 0
M  V30 15589 H 1502.55 2.69034 -6.42335 0
M  V30 15590 H 1500.17 2.63268 -7.13158 0
M  V30 15591 N 1501.75 1.10074 1.1279 0
M  V30 15592 C 1502.68 0.768146 2.20503 0
M  V30 15593 C 1503.66 -0.257199 1.68144 0
M  V30 15594 O 1504.85 -0.12379 1.93805 0
M  V30 15595 C 1501.98 0.195125 3.46751 0
M  V30 15596 C 1500.93 1.15074 4.1224 0
M  V30 15597 C 1500.26 0.439098 5.32894 0
M  V30 15598 C 1501.56 2.49584 4.58808 0
M  V30 15599 H 1503.25 1.66876 2.48581 0
M  V30 15600 H 1500.8 0.803806 1.19478 0
M  V30 15601 H 1502.75 -0.0496695 4.21371 0
M  V30 15602 H 1501.47 -0.740717 3.1809 0
M  V30 15603 H 1500.13 1.38092 3.39597 0
M  V30 15604 H 1499.78 -0.501096 5.00498 0
M  V30 15605 H 1499.48 1.07632 5.77658 0
M  V30 15606 H 1501 0.202761 6.10263 0
M  V30 15607 H 1502.42 2.30736 5.24818 0
M  V30 15608 H 1500.81 3.09157 5.14336 0
M  V30 15609 H 1501.88 3.09857 3.72984 0
M  V30 15610 N 1503.23 -1.30138 0.888926 0
M  V30 15611 C 1504.47 -1.96654 0.519499 0
M  V30 15612 C 1504.83 -1.68872 -0.92196 0
M  V30 15613 O 1504.12 -0.985192 -1.64331 0
M  V30 15614 C 1504.32 -3.4975 0.735488 0
M  V30 15615 C 1504.14 -3.92414 2.19639 0
M  V30 15616 C 1502.91 -4.1782 2.84174 0
M  V30 15617 C 1505.11 -4.04943 3.17058 0
M  V30 15618 N 1503.09 -4.46973 4.20819 0
M  V30 15619 C 1504.47 -4.38024 4.38788 0
M  V30 15620 C 1506.52 -3.87382 3.12793 0
M  V30 15621 C 1505.22 -4.55375 5.568 0
M  V30 15622 C 1507.25 -4.05937 4.3008 0
M  V30 15623 C 1506.61 -4.39367 5.50578 0
M  V30 15624 H 1502.71 -0.744421 0.239501 0
M  V30 15625 H 1505.29 -1.57292 1.14749 0
M  V30 15626 H 1503.47 -3.88158 0.136957 0
M  V30 15627 H 1505.2 -4.03331 0.332568 0
M  V30 15628 H 1501.95 -4.11171 2.35022 0
M  V30 15629 H 1502.38 -4.65677 4.914 0
M  V30 15630 H 1507.02 -3.60609 2.20729 0
M  V30 15631 H 1504.74 -4.80989 6.49365 0
M  V30 15632 H 1508.32 -3.93814 4.28255 0
M  V30 15633 H 1507.2 -4.53428 6.39822 0
M  V30 15634 N 1504.71 -0.650285 -1.43559 0
M  V30 15635 C 1505.65 0.043098 -2.3076 0
M  V30 15636 C 1506.62 0.81763 -1.44582 0
M  V30 15637 O 1507.81 0.794825 -1.73457 0
M  V30 15638 C 1504.95 1.00557 -3.30125 0
M  V30 15639 C 1504.06 0.227448 -4.31401 0
M  V30 15640 C 1503.2 1.18345 -5.17849 0
M  V30 15641 C 1502.23 0.395596 -6.1082 0
M  V30 15642 N 1501.37 1.30304 -6.89902 0
M  V30 15643 H 1506.21 -0.706402 -2.89506 0
M  V30 15644 H 1503.75 -0.360118 -1.42624 0
M  V30 15645 H 1505.71 1.57717 -3.8624 0
M  V30 15646 H 1504.34 1.72198 -2.73034 0
M  V30 15647 H 1503.39 -0.460391 -3.77604 0
M  V30 15648 H 1504.7 -0.385316 -4.9731 0
M  V30 15649 H 1503.85 1.82578 -5.78576 0
M  V30 15650 H 1502.59 1.83013 -4.52059 0
M  V30 15651 H 1501.6 -0.260099 -5.49184 0
M  V30 15652 H 1502.82 -0.246633 -6.78652 0
M  V30 15653 H 1500.77 1.93657 -6.26764 0
M  V30 15654 H 1500.69 0.744768 -7.52323 0
M  V30 15655 H 1501.95 1.93361 -7.55137 0
M  V30 15656 N 1506.18 1.52647 -0.392018 0
M  V30 15657 C 1507.11 2.29446 0.433228 0
M  V30 15658 C 1508.09 1.32945 1.06111 0
M  V30 15659 O 1509.28 1.61841 1.07337 0
M  V30 15660 C 1506.41 3.10328 1.55929 0
M  V30 15661 C 1505.36 4.14735 1.05731 0
M  V30 15662 C 1504.69 4.83858 2.27565 0
M  V30 15663 C 1505.99 5.22154 0.123346 0
M  V30 15664 H 1507.68 2.9868 -0.207563 0
M  V30 15665 H 1505.23 1.43643 -0.101266 0
M  V30 15666 H 1507.18 3.62814 2.14346 0
M  V30 15667 H 1505.91 2.38832 2.22771 0
M  V30 15668 H 1504.57 3.63234 0.495653 0
M  V30 15669 H 1504.21 4.08907 2.92923 0
M  V30 15670 H 1503.91 5.54428 1.94637 0
M  V30 15671 H 1505.44 5.39149 2.86619 0
M  V30 15672 H 1506.85 5.69983 0.615784 0
M  V30 15673 H 1505.25 5.99987 -0.116304 0
M  V30 15674 H 1506.32 4.77796 -0.826969 0
M  V30 15675 N 1507.66 0.121921 1.57128 0
M  V30 15676 C 1508.59 -0.857725 2.12546 0
M  V30 15677 C 1509.61 -1.22797 1.06886 0
M  V30 15678 O 1510.8 -1.17641 1.34249 0
M  V30 15679 C 1507.9 -2.15869 2.61254 0
M  V30 15680 C 1507.07 -1.95969 3.91043 0
M  V30 15681 C 1506.13 -3.09822 4.2532 0
M  V30 15682 O 1505.15 -2.82608 4.94087 0
M  V30 15683 N 1506.36 -4.36333 3.82875 0
M  V30 15684 H 1509.12 -0.384239 2.97227 0
M  V30 15685 H 1506.68 -0.062416 1.6178 0
M  V30 15686 H 1508.67 -2.91035 2.81213 0
M  V30 15687 H 1507.24 -2.54557 1.81437 0
M  V30 15688 H 1506.46 -1.04979 3.79965 0
M  V30 15689 H 1507.75 -1.79981 4.75904 0
M  V30 15690 H 1507.15 -4.61318 3.27417 0
M  V30 15691 H 1505.71 -5.08362 4.07936 0
M  V30 15692 N 1509.14 -1.56867 -0.151857 0
M  V30 15693 C 1510.1 -1.96997 -1.17152 0
M  V30 15694 C 1511.1 -0.855905 -1.36128 0
M  V30 15695 O 1512.29 -1.12261 -1.33203 0
M  V30 15696 C 1509.43 -2.28171 -2.5328 0
M  V30 15697 H 1510.62 -2.88261 -0.827365 0
M  V30 15698 H 1508.17 -1.51226 -0.395024 0
M  V30 15699 H 1508.91 -1.39683 -2.92676 0
M  V30 15700 H 1508.69 -3.09394 -2.40869 0
M  V30 15701 H 1510.18 -2.60073 -3.26729 0
M  V30 15702 N 1510.62 0.421051 -1.51871 0
M  V30 15703 C 1511.85 1.1911 -1.69175 0
M  V30 15704 C 1512.26 1.84599 -0.39606 0
M  V30 15705 O 1511.62 1.71395 0.626907 0
M  V30 15706 C 1511.67 2.26309 -2.81898 0
M  V30 15707 O 1511.39 1.63496 -4.06449 0
M  V30 15708 C 1512.89 3.16285 -3.10611 0
M  V30 15709 H 1510.11 0.358385 -0.567275 0
M  V30 15710 H 1512.66 0.496919 -1.98371 0
M  V30 15711 H 1510.81 2.91416 -2.55255 0
M  V30 15712 H 1511.22 2.3447 -4.69174 0
M  V30 15713 H 1512.7 3.87601 -3.93026 0
M  V30 15714 H 1513.18 3.77976 -2.23676 0
M  V30 15715 H 1513.78 2.5686 -3.38973 0
M  V30 15716 N 1512.1 1.42293 0.677538 0
M  V30 15717 C 1513.01 1.47953 1.82063 0
M  V30 15718 C 1514.02 0.36851 1.70053 0
M  V30 15719 O 1515.2 0.618996 1.91652 0
M  V30 15720 C 1512.26 1.3769 3.18186 0
M  V30 15721 C 1511.32 2.59261 3.42173 0
M  V30 15722 C 1510.56 2.49478 4.71801 0
M  V30 15723 O 1510.78 1.52915 5.49521 0
M  V30 15724 O 1509.71 3.39562 4.96972 0
M  V30 15725 H 1513.54 2.4443 1.80244 0
M  V30 15726 H 1511.13 1.24027 0.832932 0
M  V30 15727 H 1513.01 1.34319 3.9942 0
M  V30 15728 H 1511.68 0.443377 3.20649 0
M  V30 15729 H 1510.59 2.68207 2.60798 0
M  V30 15730 H 1511.92 3.51503 3.44538 0
M  V30 15731 N 1513.57 -0.913576 1.28419 0
M  V30 15732 C 1514.48 -2.04922 1.14211 0
M  V30 15733 C 1515.5 -1.73865 0.0686424 0
M  V30 15734 O 1516.68 -1.99473 0.277968 0
M  V30 15735 C 1513.74 -3.37214 0.805445 0
M  V30 15736 C 1512.8 -3.81879 1.96129 0
M  V30 15737 C 1512.04 -5.07858 1.6406 0
M  V30 15738 O 1512.26 -5.67693 0.555032 0
M  V30 15739 O 1511.19 -5.4824 2.48428 0
M  V30 15740 H 1515.02 -2.19827 2.09547 0
M  V30 15741 H 1512.6 -1.03501 1.0774 0
M  V30 15742 H 1514.49 -4.16639 0.631648 0
M  V30 15743 H 1513.16 -3.23484 -0.118254 0
M  V30 15744 H 1512.07 -3.03281 2.19024 0
M  V30 15745 H 1513.4 -4.00173 2.8657 0
M  V30 15746 N 1515.05 -1.1067 -1.12204 0
M  V30 15747 C 1516 -0.757745 -2.18007 0
M  V30 15748 C 1516.97 0.26706 -1.63939 0
M  V30 15749 O 1518.15 0.145789 -1.90242 0
M  V30 15750 C 1515.29 -0.198379 -3.44529 0
M  V30 15751 C 1514.41 -1.27878 -4.12639 0
M  V30 15752 C 1513.54 -0.6808 -5.26819 0
M  V30 15753 C 1512.58 -1.74161 -5.868 0
M  V30 15754 N 1511.72 -1.16372 -6.92389 0
M  V30 15755 H 1516.56 -1.66418 -2.47202 0
M  V30 15756 H 1514.1 -0.831216 -1.21364 0
M  V30 15757 H 1516.05 0.143838 -4.16952 0
M  V30 15758 H 1514.68 0.671279 -3.15743 0
M  V30 15759 H 1513.74 -1.73808 -3.38371 0
M  V30 15760 H 1515.05 -2.08169 -4.53285 0
M  V30 15761 H 1514.2 -0.288172 -6.06015 0
M  V30 15762 H 1512.94 0.153521 -4.87458 0
M  V30 15763 H 1511.95 -2.14364 -5.06289 0
M  V30 15764 H 1513.17 -2.57882 -6.28231 0
M  V30 15765 H 1511.12 -0.350899 -6.55061 0
M  V30 15766 H 1511.03 -1.90344 -7.31646 0
M  V30 15767 H 1512.3 -0.797715 -7.75407 0
M  V30 15768 N 1516.53 1.29665 -0.895815 0
M  V30 15769 C 1517.44 2.31582 -0.375086 0
M  V30 15770 C 1518.46 1.65789 0.528196 0
M  V30 15771 O 1519.63 1.96999 0.41871 0
M  V30 15772 C 1516.7 3.44472 0.39241 0
M  V30 15773 C 1515.76 4.25866 -0.541926 0
M  V30 15774 C 1514.99 5.33365 0.189037 0
M  V30 15775 O 1515.21 5.52607 1.41355 0
M  V30 15776 O 1514.15 6.0009 -0.466441 0
M  V30 15777 H 1517.97 2.78095 -1.22052 0
M  V30 15778 H 1515.56 1.34031 -0.660007 0
M  V30 15779 H 1517.44 4.13214 0.826565 0
M  V30 15780 H 1516.12 3.00074 1.21397 0
M  V30 15781 H 1515.02 3.59781 -1.02512 0
M  V30 15782 H 1516.36 4.73896 -1.32979 0
M  V30 15783 N 1518.01 0.657889 1.43212 0
M  V30 15784 C 1518.92 -0.0313677 2.34579 0
M  V30 15785 C 1519.93 -0.807153 1.54146 0
M  V30 15786 O 1521.11 -0.753335 1.8678 0
M  V30 15787 C 1518.18 -0.982659 3.32483 0
M  V30 15788 C 1517.24 -0.203288 4.28818 0
M  V30 15789 C 1516.47 -1.10927 5.22045 0
M  V30 15790 O 1516.69 -2.34861 5.19804 0
M  V30 15791 O 1515.63 -0.57916 5.99107 0
M  V30 15792 H 1519.45 0.720808 2.95022 0
M  V30 15793 H 1517.04 0.418083 1.43431 0
M  V30 15794 H 1518.92 -1.52923 3.92673 0
M  V30 15795 H 1517.59 -1.71498 2.74536 0
M  V30 15796 H 1516.5 0.386982 3.72093 0
M  V30 15797 H 1517.83 0.489562 4.89759 0
M  V30 15798 N 1519.49 -1.52437 0.400108 0
M  V30 15799 C 1520.42 -2.23219 -0.474176 0
M  V30 15800 C 1521.4 -1.23699 -1.05533 0
M  V30 15801 O 1522.58 -1.52721 -1.10492 0
M  V30 15802 C 1519.71 -2.95381 -1.65734 0
M  V30 15803 C 1518.75 -4.09258 -1.20042 0
M  V30 15804 S 1519.59 -5.3522 -0.173016 0
M  V30 15805 C 1520.74 -6.10908 -1.36171 0
M  V30 15806 H 1520.98 -2.97029 0.126865 0
M  V30 15807 H 1518.51 -1.53295 0.184353 0
M  V30 15808 H 1520.47 -3.37564 -2.33583 0
M  V30 15809 H 1519.13 -2.21231 -2.2297 0
M  V30 15810 H 1518.32 -4.5889 -2.08413 0
M  V30 15811 H 1517.92 -3.69144 -0.600704 0
M  V30 15812 H 1520.22 -6.37735 -2.28691 0
M  V30 15813 H 1521.16 -7.02279 -0.906106 0
M  V30 15814 H 1521.57 -5.41838 -1.58342 0
M  V30 15815 N 1520.96 -0.130252 -1.57061 0
M  V30 15816 C 1521.87 0.829198 -2.19457 0
M  V30 15817 C 1522.89 1.2843 -1.17395 0
M  V30 15818 O 1524.07 1.34496 -1.49909 0
M  V30 15819 C 1521.13 2.05727 -2.79065 0
M  V30 15820 C 1520.19 1.65301 -3.962 0
M  V30 15821 C 1519.43 2.82253 -4.52956 0
M  V30 15822 O 1519.65 3.97999 -4.08598 0
M  V30 15823 O 1518.58 2.5869 -5.43473 0
M  V30 15824 H 1522.41 0.328139 -3.01922 0
M  V30 15825 H 1519.99 0.0959361 -1.49092 0
M  V30 15826 H 1521.88 2.7763 -3.17017 0
M  V30 15827 H 1520.55 2.54817 -1.99624 0
M  V30 15828 H 1519.46 0.904712 -3.62996 0
M  V30 15829 H 1520.79 1.20942 -4.7711 0
M  V30 15830 N 1522.44 1.56945 0.143535 0
M  V30 15831 C 1523.35 2.01795 1.1965 0
M  V30 15832 C 1524.37 0.933965 1.4681 0
M  V30 15833 O 1525.55 1.2437 1.58411 0
M  V30 15834 C 1522.61 2.39249 2.5092 0
M  V30 15835 C 1521.67 3.61613 2.31376 0
M  V30 15836 C 1520.9 3.97271 3.56386 0
M  V30 15837 O 1521.13 3.33552 4.62709 0
M  V30 15838 O 1520.06 4.90501 3.48844 0
M  V30 15839 H 1523.89 2.91687 0.845718 0
M  V30 15840 H 1521.47 1.45182 0.352518 0
M  V30 15841 H 1523.35 2.64184 3.28306 0
M  V30 15842 H 1522.03 1.52511 2.85521 0
M  V30 15843 H 1520.94 3.4186 1.51929 0
M  V30 15844 H 1522.27 4.48979 2.01689 0
M  V30 15845 N 1523.92 -0.412991 1.52093 0
M  V30 15846 C 1524.85 -1.50986 1.78117 0
M  V30 15847 C 1525.83 -1.57925 0.631963 0
M  V30 15848 O 1527.02 -1.73261 0.877168 0
M  V30 15849 C 1524.15 -2.88846 1.92835 0
M  V30 15850 C 1523.1 -2.96759 3.08412 0
M  V30 15851 C 1522.43 -4.36837 3.08347 0
M  V30 15852 C 1523.73 -2.68599 4.47942 0
M  V30 15853 H 1525.42 -1.29459 2.69964 0
M  V30 15854 H 1522.97 -0.621348 1.29905 0
M  V30 15855 H 1524.92 -3.65563 2.09623 0
M  V30 15856 H 1523.64 -3.11658 0.976553 0
M  V30 15857 H 1522.3 -2.22487 2.91368 0
M  V30 15858 H 1521.95 -4.56652 2.10897 0
M  V30 15859 H 1521.65 -4.43056 3.85973 0
M  V30 15860 H 1523.18 -5.15493 3.2726 0
M  V30 15861 H 1524.59 -3.35039 4.65212 0
M  V30 15862 H 1522.99 -2.86199 5.27456 0
M  V30 15863 H 1524.06 -1.64058 4.56304 0
M  V30 15864 N 1525.4 -1.4265 -0.669982 0
M  V30 15865 C 1526.33 -1.42457 -1.79551 0
M  V30 15866 C 1527.34 -0.322966 -1.59564 0
M  V30 15867 O 1528.53 -0.586359 -1.68594 0
M  V30 15868 C 1525.63 -1.20561 -3.16731 0
M  V30 15869 C 1524.81 -2.43246 -3.63525 0
M  V30 15870 C 1523.87 -2.16823 -4.79452 0
M  V30 15871 O 1522.89 -2.90058 -4.8975 0
M  V30 15872 N 1524.09 -1.17436 -5.68497 0
M  V30 15873 H 1526.86 -2.39474 -1.80201 0
M  V30 15874 H 1524.42 -1.37591 -0.853244 0
M  V30 15875 H 1526.41 -1.00794 -3.91947 0
M  V30 15876 H 1524.98 -0.320497 -3.10953 0
M  V30 15877 H 1524.2 -2.78549 -2.78934 0
M  V30 15878 H 1525.49 -3.24931 -3.91532 0
M  V30 15879 H 1524.89 -0.568736 -5.62834 0
M  V30 15880 H 1523.44 -1.03655 -6.43505 0
M  V30 15881 N 1526.88 0.906753 -1.28902 0
M  V30 15882 C 1527.84 1.99158 -1.1344 0
M  V30 15883 C 1528.84 1.60639 -0.0719551 0
M  V30 15884 O 1530.03 1.71267 -0.318317 0
M  V30 15885 C 1527.16 3.32923 -0.733172 0
M  V30 15886 H 1528.36 2.14305 -2.09794 0
M  V30 15887 H 1525.91 1.09034 -1.11988 0
M  V30 15888 H 1526.64 3.23477 0.230826 0
M  V30 15889 H 1526.43 3.62244 -1.50073 0
M  V30 15890 H 1527.92 4.12544 -0.64784 0
M  V30 15891 N 1528.36 1.11264 1.11616 0
M  V30 15892 C 1529.59 0.881522 1.8685 0
M  V30 15893 C 1529.99 -0.572088 1.80344 0
M  V30 15894 O 1529.34 -1.40665 1.18148 0
M  V30 15895 C 1529.4 1.26245 3.36604 0
M  V30 15896 C 1529.06 2.72485 3.6688 0
M  V30 15897 C 1530.06 3.70708 3.64516 0
M  V30 15898 C 1527.74 3.09086 3.95943 0
M  V30 15899 C 1529.74 5.0355 3.90789 0
M  V30 15900 C 1527.43 4.42114 4.21875 0
M  V30 15901 C 1528.42 5.39155 4.19286 0
M  V30 15902 O 1528.11 6.69787 4.44568 0
M  V30 15903 H 1527.84 0.315647 0.597782 0
M  V30 15904 H 1530.4 1.48317 1.42095 0
M  V30 15905 H 1528.63 0.603938 3.81955 0
M  V30 15906 H 1530.32 1.00744 3.93199 0
M  V30 15907 H 1531.08 3.43776 3.42115 0
M  V30 15908 H 1526.96 2.34171 3.97095 0
M  V30 15909 H 1530.51 5.79285 3.88684 0
M  V30 15910 H 1526.4 4.6878 4.43751 0
M  V30 15911 H 1527.17 6.75548 4.62144 0
M  V30 15912 N 1529.83 -1.29188 0.902679 0
M  V30 15913 C 1530.78 -2.29597 0.372585 0
M  V30 15914 C 1531.78 -1.609 -0.529858 0
M  V30 15915 O 1532.98 -1.75214 -0.41233 0
M  V30 15916 H 1529.36 -0.745069 0.101864 0
M  V30 15917 H 1531.33 -2.71746 1.23275 0
M  V30 15918 C 1530.08 -3.45594 -0.382128 0
M  V30 15919 H 1529.4 -3.9865 0.303061 0
M  V30 15920 H 1530.84 -4.17879 -0.717852 0
M  V30 15921 C 1529.3 -2.97238 -1.58591 0
M  V30 15922 O 1529.83 -2.98767 -2.68517 0
M  V30 15923 N 1528.03 -2.53032 -1.42909 0
M  V30 15924 H 1527.58 -2.51988 -0.534786 0
M  V30 15925 H 1527.54 -2.21038 -2.23584 0
M  V30 15926 N 1531.31 -0.665475 -1.42861 0
M  V30 15927 C 1532.73 -0.334157 -1.56063 0
M  V30 15928 C 1532.93 1.16104 -1.64688 0
M  V30 15929 O 1531.98 1.94622 -1.60867 0
M  V30 15930 C 1533.3 -1.05628 -2.81537 0
M  V30 15931 C 1534.84 -1.03771 -2.95297 0
M  V30 15932 C 1535.32 -1.74098 -4.2362 0
M  V30 15933 N 1536.81 -1.7092 -4.30512 0
M  V30 15934 C 1537.55 -2.222 -5.28597 0
M  V30 15935 N 1537.04 -2.81821 -6.32889 0
M  V30 15936 N 1538.83 -2.12628 -5.20332 0
M  V30 15937 H 1530.99 -1.6356 -1.35506 0
M  V30 15938 H 1533.25 -0.688538 -0.651628 0
M  V30 15939 H 1532.95 -2.11141 -2.81269 0
M  V30 15940 H 1532.83 -0.615586 -3.72143 0
M  V30 15941 H 1535.22 0.00905324 -2.95099 0
M  V30 15942 H 1535.3 -1.51721 -2.05948 0
M  V30 15943 H 1534.94 -2.78737 -4.2458 0
M  V30 15944 H 1534.87 -1.23604 -5.11888 0
M  V30 15945 H 1537.36 -1.27425 -3.55769 0
M  V30 15946 H 1537.67 -3.18594 -7.04072 0
M  V30 15947 H 1536.02 -2.85887 -6.33478 0
M  V30 15948 H 1539.21 -1.65746 -4.37774 0
M  V30 15949 H 1539.38 -2.52899 -5.96612 0
M  V30 15950 N 1532.79 1.52222 -0.408187 0
M  V30 15951 C 1534.21 1.59491 -0.0590201 0
M  V30 15952 C 1534.41 1.42109 1.42854 0
M  V30 15953 O 1533.46 1.24757 2.19527 0
M  V30 15954 C 1534.77 2.9557 -0.553093 0
M  V30 15955 C 1536.32 3.08801 -0.510986 0
M  V30 15956 C 1536.8 4.47358 -0.981554 0
M  V30 15957 N 1538.29 4.53596 -0.938335 0
M  V30 15958 C 1539.02 5.59076 -1.27364 0
M  V30 15959 N 1538.52 6.72113 -1.68035 0
M  V30 15960 N 1540.31 5.49279 -1.19367 0
M  V30 15961 H 1532.46 1.61768 -1.37641 0
M  V30 15962 H 1534.73 0.760959 -0.565372 0
M  V30 15963 H 1534.43 3.13566 -1.59276 0
M  V30 15964 H 1534.31 3.77181 0.0377629 0
M  V30 15965 H 1536.69 2.90489 0.519637 0
M  V30 15966 H 1536.77 2.29098 -1.13788 0
M  V30 15967 H 1536.42 4.66413 -2.0105 0
M  V30 15968 H 1536.35 5.25556 -0.331478 0
M  V30 15969 H 1538.84 3.72453 -0.639297 0
M  V30 15970 H 1539.15 7.48586 -1.91934 0
M  V30 15971 H 1537.5 6.73396 -1.71938 0
M  V30 15972 H 1540.69 4.59853 -0.8748 0
M  V30 15973 H 1540.86 6.31378 -1.45829 0
M  V30 15974 N 1534.27 0.138579 1.5699 0
M  V30 15975 C 1535.2 -0.800568 2.19347 0
M  V30 15976 C 1536.18 -1.26318 1.13921 0
M  V30 15977 O 1537.36 -1.32226 1.42232 0
M  V30 15978 C 1534.49 -2.04317 2.80842 0
M  V30 15979 C 1533.45 -1.71764 3.92022 0
M  V30 15980 C 1532.77 -3.03217 4.40413 0
M  V30 15981 C 1534.07 -0.970789 5.13199 0
M  V30 15982 H 1535.77 -0.280888 2.98079 0
M  V30 15983 H 1533.31 -0.133663 1.43378 0
M  V30 15984 H 1535.27 -2.70491 3.2313 0
M  V30 15985 H 1533.99 -2.58643 1.99428 0
M  V30 15986 H 1532.65 -1.07972 3.50339 0
M  V30 15987 H 1532.3 -3.55517 3.55832 0
M  V30 15988 H 1532 -2.82203 5.15398 0
M  V30 15989 H 1533.52 -3.70477 4.85365 0
M  V30 15990 H 1534.94 -1.53445 5.52384 0
M  V30 15991 H 1533.33 -0.860895 5.93893 0
M  V30 15992 H 1534.4 0.0390088 4.84884 0
M  V30 15993 N 1535.75 -1.57019 -0.13521 0
M  V30 15994 C 1536.68 -2.02182 -1.16811 0
M  V30 15995 C 1537.66 -0.9034 -1.44127 0
M  V30 15996 O 1538.84 -1.17202 -1.54846 0
M  V30 15997 C 1535.97 -2.41243 -2.49838 0
M  V30 15998 C 1534.93 -3.56379 -2.37018 0
M  V30 15999 C 1534.25 -3.8129 -3.74863 0
M  V30 16000 C 1535.55 -4.88653 -1.84432 0
M  V30 16001 H 1537.25 -2.8872 -0.792529 0
M  V30 16002 H 1534.79 -1.38901 -0.379788 0
M  V30 16003 H 1536.74 -2.7144 -3.22332 0
M  V30 16004 H 1535.47 -1.51656 -2.89254 0
M  V30 16005 H 1534.13 -3.26366 -1.66975 0
M  V30 16006 H 1533.78 -2.88934 -4.11735 0
M  V30 16007 H 1533.48 -4.58781 -3.67143 0
M  V30 16008 H 1535 -4.13924 -4.48887 0
M  V30 16009 H 1536.41 -5.17492 -2.46729 0
M  V30 16010 H 1534.81 -5.70032 -1.87574 0
M  V30 16011 H 1535.88 -4.78242 -0.800759 0
M  V30 16012 N 1537.22 0.404919 -1.52309 0
M  V30 16013 C 1538.17 1.49281 -1.72334 0
M  V30 16014 C 1539.16 1.50188 -0.577267 0
M  V30 16015 O 1540.35 1.56093 -0.834497 0
M  V30 16016 C 1537.48 2.87166 -1.88123 0
M  V30 16017 C 1536.57 2.90891 -3.08615 0
M  V30 16018 N 1536.96 2.64307 -4.31249 0
M  V30 16019 C 1535.25 3.2206 -3.08535 0
M  V30 16020 C 1535.96 2.74708 -5.12748 0
M  V30 16021 N 1534.93 3.07766 -4.48086 0
M  V30 16022 H 1538.73 1.2753 -2.64789 0
M  V30 16023 H 1536.25 0.61268 -1.50399 0
M  V30 16024 H 1538.24 3.65473 -2.00587 0
M  V30 16025 H 1536.9 3.09913 -0.968712 0
M  V30 16026 H 1537.92 2.38624 -4.59651 0
M  V30 16027 H 1534.59 3.50373 -2.27035 0
M  V30 16028 H 1535.98 2.57835 -6.2046 0
M  V30 16029 N 1538.7 1.43003 0.662408 0
M  V30 16030 C 1539.65 1.47701 1.79686 0
M  V30 16031 C 1540.64 0.351491 1.65713 0
M  V30 16032 O 1541.85 0.525071 1.72171 0
M  V30 16033 H 1538.23 0.46285 0.592684 0
M  V30 16034 H 1540.2 2.43245 1.72843 0
M  V30 16035 C 1538.95 1.40828 3.17904 0
M  V30 16036 H 1538.27 2.26736 3.29288 0
M  V30 16037 H 1539.71 1.48177 3.97265 0
M  V30 16038 C 1538.17 0.124659 3.36669 0
M  V30 16039 O 1538.7 -0.81769 3.9329 0
M  V30 16040 N 1536.9 0.0378063 2.90575 0
M  V30 16041 H 1536.45 0.805456 2.44684 0
M  V30 16042 H 1536.41 -0.820377 3.03508 0
M  V30 16043 N 1540.18 -0.899904 1.29381 0
M  V30 16044 C 1541.43 -1.64502 1.16713 0
M  V30 16045 C 1541.74 -1.93577 -0.280563 0
M  V30 16046 O 1542.95 -2.66305 -0.528563 0
M  V30 16047 C 1541.4 -2.96414 2.04125 0
M  V30 16048 C 1541.01 -2.74935 3.53716 0
M  V30 16049 C 1542.76 -3.74337 2.0018 0
M  V30 16050 C 1540.66 -4.02571 4.33232 0
M  V30 16051 H 1539.59 -0.617121 0.433218 0
M  V30 16052 H 1542.24 -0.997521 1.54019 0
M  V30 16053 H 1540.63 -3.62375 1.59687 0
M  V30 16054 H 1541.8 -2.17567 4.06203 0
M  V30 16055 H 1540.12 -2.10407 3.5933 0
M  V30 16056 H 1542.71 -4.6897 2.56849 0
M  V30 16057 H 1543.06 -4.04559 0.981735 0
M  V30 16058 H 1543.59 -3.15216 2.4266 0
M  V30 16059 H 1540.33 -3.77516 5.35875 0
M  V30 16060 H 1539.85 -4.59499 3.85514 0
M  V30 16061 H 1541.53 -4.70719 4.43884 0
M  V30 16062 N 1541.66 -1.11854 -1.11024 0
M  V30 16063 C 1542.59 -0.803129 -2.19253 0
M  V30 16064 C 1543.57 0.230417 -1.68532 0
M  V30 16065 O 1544.75 0.0929421 -1.93977 0
M  V30 16066 C 1541.88 -0.250265 -3.46397 0
M  V30 16067 C 1540.84 -1.21617 -4.10357 0
M  V30 16068 C 1540.16 -0.523821 -5.32128 0
M  V30 16069 C 1541.46 -2.56852 -4.54779 0
M  V30 16070 H 1543.16 -1.7081 -2.45895 0
M  V30 16071 H 1540.7 -0.822712 -1.18184 0
M  V30 16072 H 1542.66 -0.0173732 -4.21396 0
M  V30 16073 H 1541.38 0.690018 -3.19228 0
M  V30 16074 H 1540.04 -1.43477 -3.37357 0
M  V30 16075 H 1539.69 0.421408 -5.01232 0
M  V30 16076 H 1539.39 -1.16809 -5.75873 0
M  V30 16077 H 1540.91 -0.299823 -6.09863 0
M  V30 16078 H 1542.33 -2.39056 -5.21081 0
M  V30 16079 H 1540.72 -3.17301 -5.09353 0
M  V30 16080 H 1541.79 -3.15751 -3.68007 0
M  V30 16081 N 1543.14 1.28707 -0.909517 0
M  V30 16082 C 1544.55 1.77212 -0.587613 0
M  V30 16083 C 1544.9 1.74495 0.896986 0
M  V30 16084 O 1544.02 1.33698 1.70158 0
M  V30 16085 C 1544.62 3.21794 -1.05989 0
M  V30 16086 C 1543.18 3.68038 -0.788983 0
M  V30 16087 C 1542.32 2.48576 -1.22903 0
M  V30 16088 H 1545.28 1.1523 -1.09122 0
M  V30 16089 H 1545.3 3.78397 -0.399469 0
M  V30 16090 H 1544.81 3.23739 -2.14043 0
M  V30 16091 H 1542.91 3.71558 0.278523 0
M  V30 16092 H 1543.02 4.58379 -1.39376 0
M  V30 16093 H 1541.39 2.46323 -0.647838 0
M  V30 16094 H 1542.17 2.53243 -2.31782 0
M  V30 16095 N 1544.61 0.673042 1.42506 0
M  V30 16096 C 1545.56 -0.00638067 2.30799 0
M  V30 16097 C 1546.53 -0.794524 1.45865 0
M  V30 16098 O 1547.72 -0.767129 1.74699 0
M  V30 16099 C 1544.86 -0.952923 3.31683 0
M  V30 16100 C 1543.97 -0.158787 4.31708 0
M  V30 16101 C 1543.1 -1.10092 5.19666 0
M  V30 16102 C 1542.14 -0.29837 6.11372 0
M  V30 16103 N 1541.28 -1.19312 6.91888 0
M  V30 16104 H 1546.12 0.75237 2.88346 0
M  V30 16105 H 1543.66 0.382763 1.42033 0
M  V30 16106 H 1545.62 -1.51552 3.887 0
M  V30 16107 H 1544.25 -1.67832 2.75739 0
M  V30 16108 H 1543.3 0.520406 3.76823 0
M  V30 16109 H 1544.61 0.464385 4.96634 0
M  V30 16110 H 1543.76 -1.7335 5.81407 0
M  V30 16111 H 1542.5 -1.75798 4.54914 0
M  V30 16112 H 1541.51 0.347437 5.48701 0
M  V30 16113 H 1542.73 0.354569 6.78174 0
M  V30 16114 H 1540.68 -1.83661 6.29765 0
M  V30 16115 H 1540.6 -0.624986 7.53412 0
M  V30 16116 H 1541.86 -1.81323 7.58118 0
M  V30 16117 N 1546.09 -1.52004 0.416254 0
M  V30 16118 C 1547.37 -1.94403 -0.216103 0
M  V30 16119 C 1547.75 -1.35362 -1.61989 0
M  V30 16120 O 1547.1 -0.532242 -2.22215 0
M  V30 16121 C 1547.31 -3.48336 -0.215225 0
M  V30 16122 C 1548.66 -4.22406 -0.431109 0
M  V30 16123 O 1549.68 -3.54982 -0.294271 0
M  V30 16124 O 1548.54 -5.4198 -0.70145 0
M  V30 16125 H 1545.63 -0.814838 -0.141306 0
M  V30 16126 H 1548.18 -1.62983 0.472712 0
M  V30 16127 H 1546.95 -3.83709 0.767004 0
M  V30 16128 H 1546.57 -3.86137 -0.947841 0
M  V30 16129 N 1547.57 -0.146903 -1.56914 0
M  V30 16130 C 1548.82 0.504981 -1.96412 0
M  V30 16131 C 1549.15 1.64522 -1.0318 0
M  V30 16132 O 1548.42 1.94359 -0.0741728 0
M  V30 16133 C 1548.71 1.01125 -3.45609 0
M  V30 16134 C 1548.56 -0.127493 -4.49619 0
M  V30 16135 C 1549.88 1.89306 -3.97305 0
M  V30 16136 H 1547 0.182088 -0.714152 0
M  V30 16137 H 1549.64 -0.22811 -1.88626 0
M  V30 16138 H 1547.79 1.63595 -3.52376 0
M  V30 16139 H 1549.46 -0.763829 -4.54932 0
M  V30 16140 H 1547.71 -0.786649 -4.26608 0
M  V30 16141 H 1548.38 0.268453 -5.51347 0
M  V30 16142 H 1550.85 1.36664 -3.93017 0
M  V30 16143 H 1549.73 2.21638 -5.02163 0
M  V30 16144 H 1549.99 2.82996 -3.39655 0
M  V30 16145 N 1549.05 1.57088 0.126881 0
M  V30 16146 C 1550.01 1.98836 1.14003 0
M  V30 16147 C 1551.01 0.877454 1.34749 0
M  V30 16148 O 1552.2 1.14366 1.314 0
M  V30 16149 C 1549.33 2.32171 2.49618 0
M  V30 16150 H 1550.53 2.89541 0.7814 0
M  V30 16151 H 1548.08 1.51835 0.370915 0
M  V30 16152 H 1548.81 1.44321 2.90417 0
M  V30 16153 H 1548.6 3.13187 2.35916 0
M  V30 16154 H 1550.09 2.65238 3.2255 0
M  V30 16155 N 1550.53 -0.396836 1.52522 0
M  V30 16156 C 1551.49 -1.46695 1.76106 0
M  V30 16157 C 1552.49 -1.47902 0.631005 0
M  V30 16158 O 1553.68 -1.4921 0.898995 0
M  V30 16159 C 1550.81 -2.86033 1.85467 0
M  V30 16160 H 1552 -1.27071 2.71649 0
M  V30 16161 H 1549.56 -0.628096 1.43125 0
M  V30 16162 H 1550.29 -3.11012 0.918816 0
M  V30 16163 H 1550.08 -2.86559 2.67631 0
M  V30 16164 H 1551.57 -3.63587 2.05412 0
M  V30 16165 N 1552.01 -1.43353 -0.654814 0
M  V30 16166 C 1552.96 -1.44834 -1.76089 0
M  V30 16167 C 1553.94 -0.316999 -1.57746 0
M  V30 16168 O 1555.13 -0.560668 -1.67885 0
M  V30 16169 C 1552.26 -1.37256 -3.14668 0
M  V30 16170 C 1551.35 -2.55413 -3.38563 0
M  V30 16171 N 1551.74 -3.80769 -3.3294 0
M  V30 16172 C 1550.04 -2.50103 -3.69276 0
M  V30 16173 C 1550.74 -4.59366 -3.56872 0
M  V30 16174 N 1549.71 -3.90073 -3.78608 0
M  V30 16175 H 1553.51 -2.39628 -1.70164 0
M  V30 16176 H 1551.03 -1.37982 -0.856422 0
M  V30 16177 H 1553.03 -1.364 -3.93955 0
M  V30 16178 H 1551.69 -0.434805 -3.21776 0
M  V30 16179 H 1552.7 -4.13079 -3.12387 0
M  V30 16180 H 1549.37 -1.65007 -3.83509 0
M  V30 16181 H 1550.76 -5.68383 -3.58316 0
M  V30 16182 N 1553.48 0.89303 -1.29857 0
M  V30 16183 C 1554.73 1.64413 -1.18214 0
M  V30 16184 C 1555.06 1.92687 0.26492 0
M  V30 16185 O 1554.31 1.54044 1.20702 0
M  V30 16186 C 1554.61 2.99661 -1.94777 0
M  V30 16187 C 1554.28 2.90969 -3.44453 0
M  V30 16188 C 1552.94 2.88306 -3.8527 0
M  V30 16189 C 1555.29 2.79686 -4.39801 0
M  V30 16190 C 1552.62 2.72188 -5.19741 0
M  V30 16191 C 1554.97 2.65107 -5.7437 0
M  V30 16192 C 1553.64 2.60814 -6.14437 0
M  V30 16193 H 1552.91 0.60163 -0.432577 0
M  V30 16194 H 1555.55 1.03891 -1.60869 0
M  V30 16195 H 1553.86 3.64087 -1.44733 0
M  V30 16196 H 1555.56 3.56722 -1.83168 0
M  V30 16197 H 1552.15 2.93848 -3.12012 0
M  V30 16198 H 1556.33 2.80816 -4.09214 0
M  V30 16199 H 1551.59 2.67273 -5.49886 0
M  V30 16200 H 1555.76 2.55349 -6.47897 0
M  V30 16201 H 1553.39 2.48082 -7.18582 0
M  V30 16202 N 1554.96 1.12442 1.10429 0
M  V30 16203 C 1555.89 0.814745 2.18824 0
M  V30 16204 C 1556.87 -0.221476 1.68652 0
M  V30 16205 O 1558.06 -0.0826537 1.94024 0
M  V30 16206 C 1555.19 0.268632 3.4626 0
M  V30 16207 C 1554.14 1.23792 4.09707 0
M  V30 16208 C 1553.47 0.552034 5.31843 0
M  V30 16209 C 1554.77 2.5926 4.53411 0
M  V30 16210 H 1556.46 1.72111 2.44986 0
M  V30 16211 H 1554.01 0.828968 1.17746 0
M  V30 16212 H 1555.96 0.0397207 4.21381 0
M  V30 16213 H 1554.68 -0.673079 3.19589 0
M  V30 16214 H 1553.34 1.45264 3.36592 0
M  V30 16215 H 1552.99 -0.394821 5.01448 0
M  V30 16216 H 1552.69 1.19861 5.75245 0
M  V30 16217 H 1554.22 0.332161 6.09696 0
M  V30 16218 H 1555.63 2.41816 5.19806 0
M  V30 16219 H 1554.03 3.19997 5.07663 0
M  V30 16220 H 1555.1 3.17699 3.66327 0
M  V30 16221 N 1556.44 -1.28223 0.91633 0
M  V30 16222 C 1557.4 -2.25477 0.411423 0
M  V30 16223 C 1558.4 -1.53969 -0.463689 0
M  V30 16224 O 1559.59 -1.72151 -0.266379 0
M  V30 16225 C 1556.72 -3.38427 -0.409851 0
M  V30 16226 H 1557.92 -2.71656 1.27056 0
M  V30 16227 H 1555.47 -1.3995 0.695966 0
M  V30 16228 H 1556.21 -2.97614 -1.28828 0
M  V30 16229 H 1555.99 -3.91497 0.217435 0
M  V30 16230 H 1557.48 -4.10739 -0.753862 0
M  V30 16231 N 1557.92 -0.68059 -1.42147 0
M  V30 16232 C 1559.33 -0.350691 -1.55699 0
M  V30 16233 C 1559.53 1.1435 -1.6591 0
M  V30 16234 O 1558.59 1.92905 -1.62923 0
M  V30 16235 C 1559.9 -1.08608 -2.80401 0
M  V30 16236 C 1561.45 -1.06897 -2.9418 0
M  V30 16237 C 1561.93 -1.78581 -4.2175 0
M  V30 16238 N 1563.42 -1.75477 -4.28675 0
M  V30 16239 C 1564.15 -2.27794 -5.26211 0
M  V30 16240 N 1563.65 -2.88518 -6.29865 0
M  V30 16241 N 1565.44 -2.18135 -5.18048 0
M  V30 16242 H 1557.59 -1.64988 -1.33763 0
M  V30 16243 H 1559.85 -0.695411 -0.644289 0
M  V30 16244 H 1559.56 -2.14113 -2.79014 0
M  V30 16245 H 1559.43 -0.655022 -3.71469 0
M  V30 16246 H 1561.82 -0.0222464 -2.95092 0
M  V30 16247 H 1561.9 -1.53897 -2.04327 0
M  V30 16248 H 1561.55 -2.83225 -4.21599 0
M  V30 16249 H 1561.48 -1.29027 -5.10548 0
M  V30 16250 H 1563.97 -1.31191 -3.54397 0
M  V30 16251 H 1564.28 -3.26043 -7.00654 0
M  V30 16252 H 1562.63 -2.92589 -6.3041 0
M  V30 16253 H 1565.82 -1.7038 -4.35991 0
M  V30 16254 H 1565.99 -2.59213 -5.93896 0
M  V30 16255 N 1559.4 1.51781 -0.424309 0
M  V30 16256 C 1560.31 2.31162 0.40015 0
M  V30 16257 C 1561.32 1.39523 1.03969 0
M  V30 16258 O 1562.5 1.72597 1.0379 0
M  V30 16259 C 1559.56 3.12875 1.49366 0
M  V30 16260 C 1558.62 4.20275 0.875616 0
M  V30 16261 C 1557.86 4.98082 1.91702 0
M  V30 16262 O 1558.08 4.76365 3.13739 0
M  V30 16263 O 1557.01 5.82527 1.5148 0
M  V30 16264 H 1560.84 3.0269 -0.247529 0
M  V30 16265 H 1558.42 1.48223 -0.187146 0
M  V30 16266 H 1560.31 3.63714 2.12815 0
M  V30 16267 H 1558.98 2.44125 2.12567 0
M  V30 16268 H 1557.89 3.73546 0.203429 0
M  V30 16269 H 1559.22 4.91361 0.287306 0
M  V30 16270 N 1560.87 0.155222 1.56834 0
M  V30 16271 C 1562.29 -0.201116 1.58328 0
M  V30 16272 C 1562.49 -1.64061 1.16988 0
M  V30 16273 O 1561.55 -2.36892 0.873989 0
M  V30 16274 C 1562.86 0.0651005 3.0063 0
M  V30 16275 C 1564.41 0.00203866 3.13 0
M  V30 16276 C 1564.88 0.241032 4.57365 0
M  V30 16277 N 1566.37 0.188245 4.62817 0
M  V30 16278 C 1567.11 0.347562 5.72346 0
M  V30 16279 N 1566.6 0.565052 6.90492 0
M  V30 16280 N 1568.4 0.284589 5.61379 0
M  V30 16281 H 1560.55 1.09503 1.81997 0
M  V30 16282 H 1562.81 0.434106 0.842767 0
M  V30 16283 H 1562.52 1.06167 3.35293 0
M  V30 16284 H 1562.39 -0.650601 3.71547 0
M  V30 16285 H 1564.78 -0.98509 2.78173 0
M  V30 16286 H 1564.86 0.750199 2.44552 0
M  V30 16287 H 1564.5 1.2253 4.92898 0
M  V30 16288 H 1564.43 -0.52755 5.23951 0
M  V30 16289 H 1566.92 0.0251352 3.77892 0
M  V30 16290 H 1567.24 0.676502 7.69833 0
M  V30 16291 H 1565.58 0.601473 6.92392 0
M  V30 16292 H 1568.77 0.115381 4.67958 0
M  V30 16293 H 1568.95 0.412182 6.46688 0
M  V30 16294 N 1562.35 -1.57153 -0.118549 0
M  V30 16295 C 1563.77 -1.52458 -0.472096 0
M  V30 16296 C 1563.97 -0.868289 -1.81832 0
M  V30 16297 O 1563.02 -0.450817 -2.48443 0
M  V30 16298 C 1564.34 -2.9722 -0.456175 0
M  V30 16299 C 1565.88 -3.08312 -0.539694 0
M  V30 16300 C 1566.36 -4.54635 -0.554158 0
M  V30 16301 N 1567.85 -4.59091 -0.615584 0
M  V30 16302 C 1568.59 -5.69724 -0.64823 0
M  V30 16303 N 1568.08 -6.89852 -0.638494 0
M  V30 16304 N 1569.87 -5.57833 -0.691272 0
M  V30 16305 H 1562.03 -1.98202 0.76353 0
M  V30 16306 H 1564.29 -0.905179 0.281699 0
M  V30 16307 H 1563.99 -3.48608 0.465364 0
M  V30 16308 H 1563.87 -3.5468 -1.28381 0
M  V30 16309 H 1566.26 -2.56926 -1.45165 0
M  V30 16310 H 1566.34 -2.53845 0.315638 0
M  V30 16311 H 1565.98 -5.06667 0.353759 0
M  V30 16312 H 1565.91 -5.06914 -1.42638 0
M  V30 16313 H 1568.4 -3.72624 -0.629253 0
M  V30 16314 H 1568.71 -7.69925 -0.66604 0
M  V30 16315 H 1567.06 -6.92354 -0.605912 0
M  V30 16316 H 1570.25 -4.62893 -0.696244 0
M  V30 16317 H 1570.42 -6.44063 -0.713246 0
M  V30 16318 N 1563.83 0.388742 -1.5273 0
M  V30 16319 C 1564.78 1.49531 -1.78166 0
M  V30 16320 C 1565.77 1.56449 -0.649613 0
M  V30 16321 O 1566.98 1.59612 -0.832097 0
M  V30 16322 H 1563.35 0.497684 -0.56375 0
M  V30 16323 H 1565.32 1.25271 -2.70831 0
M  V30 16324 C 1564.07 2.86663 -1.96774 0
M  V30 16325 H 1563.4 2.82089 -2.83312 0
M  V30 16326 H 1564.84 3.63328 -2.18561 0
M  V30 16327 C 1563.29 3.28665 -0.740345 0
M  V30 16328 O 1563.82 4.01616 0.0821005 0
M  V30 16329 N 1562.03 2.84947 -0.570383 0
M  V30 16330 H 1561.58 2.25748 -1.24078 0
M  V30 16331 H 1561.54 3.13408 0.249496 0
M  V30 16332 N 1565.31 1.43698 0.647203 0
M  V30 16333 C 1566.58 1.3611 1.40476 0
M  V30 16334 C 1566.96 0.0118567 2.11097 0
M  V30 16335 O 1566.31 -1.00496 2.05214 0
M  V30 16336 C 1566.52 2.5484 2.38448 0
M  V30 16337 C 1567.87 2.98195 3.02267 0
M  V30 16338 O 1568.89 2.5493 2.48775 0
M  V30 16339 O 1567.75 3.73162 3.99265 0
M  V30 16340 H 1564.85 0.538198 0.62791 0
M  V30 16341 H 1567.39 1.55758 0.673606 0
M  V30 16342 H 1566.17 3.4467 1.85253 0
M  V30 16343 H 1565.79 2.37323 3.19004 0
M  V30 16344 N 1566.79 -0.886131 1.30328 0
M  V30 16345 C 1567.7 -2.02453 1.18532 0
M  V30 16346 C 1568.71 -1.7368 0.105506 0
M  V30 16347 O 1569.89 -1.98838 0.320217 0
M  V30 16348 C 1566.95 -3.3543 0.876792 0
M  V30 16349 C 1566.01 -3.77633 2.04185 0
M  V30 16350 C 1565.25 -5.04264 1.74795 0
M  V30 16351 O 1565.47 -5.66388 0.675323 0
M  V30 16352 O 1564.4 -5.42847 2.60001 0
M  V30 16353 H 1568.23 -2.15333 2.14162 0
M  V30 16354 H 1565.82 -1.01193 1.09911 0
M  V30 16355 H 1567.7 -4.15206 0.719882 0
M  V30 16356 H 1566.37 -3.23662 -0.0496117 0
M  V30 16357 H 1565.28 -2.98567 2.25408 0
M  V30 16358 H 1566.61 -3.94004 2.94994 0
M  V30 16359 N 1568.26 -1.13026 -1.09832 0
M  V30 16360 C 1569.19 -0.826338 -2.18389 0
M  V30 16361 C 1570.18 0.212529 -1.68767 0
M  V30 16362 O 1571.36 0.072363 -1.94065 0
M  V30 16363 C 1568.49 -0.286991 -3.46112 0
M  V30 16364 C 1567.44 -1.25963 -4.09044 0
M  V30 16365 C 1566.77 -0.580231 -5.31542 0
M  V30 16366 C 1568.07 -2.61661 -4.5203 0
M  V30 16367 H 1569.76 -1.73408 -2.4407 0
M  V30 16368 H 1567.31 -0.835201 -1.17305 0
M  V30 16369 H 1569.26 -0.062067 -4.21354 0
M  V30 16370 H 1567.99 0.656121 -3.19942 0
M  V30 16371 H 1566.65 -1.47047 -3.35816 0
M  V30 16372 H 1566.29 0.368222 -5.0165 0
M  V30 16373 H 1565.99 -1.2291 -5.74601 0
M  V30 16374 H 1567.52 -0.36449 -6.09511 0
M  V30 16375 H 1568.93 -2.44569 -5.18516 0
M  V30 16376 H 1567.33 -3.22685 -5.05959 0
M  V30 16377 H 1568.4 -3.19637 -3.64637 0
M  V30 16378 N 1569.74 1.27735 -0.923117 0
M  V30 16379 C 1570.97 1.98394 -0.57648 0
M  V30 16380 C 1571.38 1.69093 0.848778 0
M  V30 16381 O 1570.72 0.945385 1.57506 0
M  V30 16382 C 1570.79 3.52278 -0.716984 0
M  V30 16383 C 1570.45 4.05191 -2.11351 0
M  V30 16384 C 1571.45 4.18314 -3.08722 0
M  V30 16385 C 1569.13 4.39652 -2.42922 0
M  V30 16386 C 1571.13 4.65166 -4.35774 0
M  V30 16387 C 1568.81 4.86196 -3.70211 0
M  V30 16388 C 1569.81 4.98911 -4.66451 0
M  V30 16389 O 1569.5 5.44437 -5.91476 0
M  V30 16390 H 1569.23 0.640008 -0.217636 0
M  V30 16391 H 1571.78 1.63666 -1.24107 0
M  V30 16392 H 1570.01 3.867 0.00469601 0
M  V30 16393 H 1571.7 4.04154 -0.376077 0
M  V30 16394 H 1572.47 3.91955 -2.85651 0
M  V30 16395 H 1568.35 4.29 -1.6876 0
M  V30 16396 H 1571.89 4.75006 -5.10896 0
M  V30 16397 H 1567.79 5.11997 -3.93103 0
M  V30 16398 H 1568.56 5.62701 -5.94399 0
M  V30 16399 N 1571.22 0.688118 1.41784 0
M  V30 16400 C 1572.45 0.224424 2.05377 0
M  V30 16401 C 1572.86 -1.12862 1.51852 0
M  V30 16402 O 1572.2 -1.71491 0.658526 0
M  V30 16403 C 1572.26 0.0964852 3.5937 0
M  V30 16404 C 1571.93 1.38037 4.35655 0
M  V30 16405 C 1572.92 2.31666 4.65432 0
M  V30 16406 C 1570.61 1.63167 4.7506 0
M  V30 16407 C 1572.6 3.48693 5.33565 0
M  V30 16408 C 1570.29 2.8048 5.42931 0
M  V30 16409 C 1571.29 3.73067 5.7211 0
M  V30 16410 O 1570.98 4.88326 6.38587 0
M  V30 16411 H 1570.71 0.103587 0.668016 0
M  V30 16412 H 1573.26 0.939084 1.82676 0
M  V30 16413 H 1571.49 -0.673878 3.80783 0
M  V30 16414 H 1573.18 -0.329059 4.04564 0
M  V30 16415 H 1573.95 2.13506 4.35477 0
M  V30 16416 H 1569.83 0.919669 4.51733 0
M  V30 16417 H 1573.37 4.20979 5.56258 0
M  V30 16418 H 1569.27 2.9856 5.72304 0
M  V30 16419 H 1570.04 4.88044 6.57081 0
M  V30 16420 N 1572.7 -1.51554 0.432352 0
M  V30 16421 C 1573.63 -2.25369 -0.417328 0
M  V30 16422 C 1574.64 -1.29197 -0.990551 0
M  V30 16423 O 1575.83 -1.54985 -0.885539 0
M  V30 16424 C 1572.93 -2.99006 -1.59526 0
M  V30 16425 C 1572.11 -4.22234 -1.1418 0
M  V30 16426 C 1571.16 -4.78495 -2.18928 0
M  V30 16427 O 1570.19 -5.40465 -1.78566 0
M  V30 16428 N 1571.39 -4.62091 -3.51358 0
M  V30 16429 H 1574.16 -2.98926 0.215294 0
M  V30 16430 H 1571.72 -1.59783 0.26097 0
M  V30 16431 H 1573.71 -3.33532 -2.29212 0
M  V30 16432 H 1572.28 -2.28491 -2.13332 0
M  V30 16433 H 1571.5 -3.93259 -0.272182 0
M  V30 16434 H 1572.79 -5.02212 -0.816145 0
M  V30 16435 H 1572.19 -4.12718 -3.86885 0
M  V30 16436 H 1570.74 -5.00992 -4.16953 0
M  V30 16437 N 1574.18 -0.163538 -1.56749 0
M  V30 16438 C 1575.4 0.493087 -2.01453 0
M  V30 16439 C 1575.83 1.56535 -1.043 0
M  V30 16440 O 1575.18 1.81287 -0.0213039 0
M  V30 16441 C 1575.23 1.05546 -3.44808 0
M  V30 16442 O 1574.34 2.16977 -3.50706 0
M  V30 16443 H 1573.68 0.118905 -0.653267 0
M  V30 16444 H 1576.21 -0.265139 -2.02875 0
M  V30 16445 H 1576.22 1.38002 -3.83953 0
M  V30 16446 H 1574.89 0.270333 -4.1502 0
M  V30 16447 H 1573.47 1.85625 -3.23416 0
M  V30 16448 N 1575.65 1.57214 0.110213 0
M  V30 16449 C 1576.89 1.87133 0.822229 0
M  V30 16450 C 1577.26 0.752645 1.76633 0
M  V30 16451 O 1578.46 0.933837 2.52057 0
M  V30 16452 C 1576.73 3.22286 1.54487 0
M  V30 16453 S 1578.29 3.73861 2.29725 0
M  V30 16454 H 1575.11 0.65598 0.274248 0
M  V30 16455 H 1577.71 1.95336 0.0801112 0
M  V30 16456 H 1576.41 4.0164 0.84343 0
M  V30 16457 H 1575.94 3.17184 2.32719 0
M  V30 16458 H 1577.96 3.46066 3.55602 0
M  V30 16459 N 1577.13 -0.380637 1.52934 0
M  V30 16460 C 1578.04 -1.48957 1.81243 0
M  V30 16461 C 1579.06 -1.5931 0.69974 0
M  V30 16462 O 1580.23 -1.75488 0.988218 0
M  V30 16463 C 1577.3 -2.84397 1.9829 0
M  V30 16464 C 1576.36 -2.83697 3.22202 0
M  V30 16465 C 1575.59 -4.12677 3.38427 0
M  V30 16466 O 1575.82 -5.08068 2.59274 0
M  V30 16467 O 1574.75 -4.19407 4.31719 0
M  V30 16468 H 1578.58 -1.27964 2.75425 0
M  V30 16469 H 1576.16 -0.56929 1.38128 0
M  V30 16470 H 1578.04 -3.64676 2.11161 0
M  V30 16471 H 1576.72 -3.054 1.07298 0
M  V30 16472 H 1575.63 -2.0217 3.14767 0
M  V30 16473 H 1576.96 -2.67648 4.13068 0
M  V30 16474 N 1578.61 -1.44039 -0.639573 0
M  V30 16475 C 1579.85 -1.47892 -1.41093 0
M  V30 16476 C 1580.21 -0.105393 -1.91711 0
M  V30 16477 O 1581.42 -0.0186006 -2.68794 0
M  V30 16478 C 1579.69 -2.50313 -2.55104 0
M  V30 16479 S 1581.25 -2.73148 -3.43417 0
M  V30 16480 H 1578.06 -0.523189 -0.48145 0
M  V30 16481 H 1580.67 -1.80903 -0.741236 0
M  V30 16482 H 1579.37 -3.48826 -2.16214 0
M  V30 16483 H 1578.9 -2.18846 -3.2691 0
M  V30 16484 H 1580.92 -2.04105 -4.52278 0
M  V30 16485 N 1580.09 0.879207 -1.30796 0
M  V30 16486 C 1581.33 1.63392 -1.20129 0
M  V30 16487 C 1581.67 1.92684 0.242164 0
M  V30 16488 O 1580.94 1.55188 1.17247 0
M  V30 16489 C 1581.23 2.97005 -2.03618 0
M  V30 16490 C 1581.08 2.74649 -3.56214 0
M  V30 16491 C 1582.4 3.97998 -1.87845 0
M  V30 16492 H 1579.52 0.592911 -0.437751 0
M  V30 16493 H 1582.16 1.017 -1.6049 0
M  V30 16494 H 1580.31 3.49659 -1.69326 0
M  V30 16495 H 1581.98 2.28738 -4.00595 0
M  V30 16496 H 1580.22 2.09048 -3.80107 0
M  V30 16497 H 1580.89 3.69681 -4.09927 0
M  V30 16498 H 1583.37 3.54523 -2.17836 0
M  V30 16499 H 1582.25 4.89388 -2.48578 0
M  V30 16500 H 1582.51 4.34062 -0.839183 0
M  V30 16501 N 1581.57 1.13606 1.09231 0
M  V30 16502 C 1582.53 0.818197 2.14099 0
M  V30 16503 C 1583.53 -0.173275 1.59864 0
M  V30 16504 O 1584.72 0.05405 1.74116 0
M  V30 16505 C 1581.85 0.218138 3.40201 0
M  V30 16506 H 1583.05 1.74748 2.43727 0
M  V30 16507 H 1580.6 0.940962 1.24802 0
M  V30 16508 H 1581.33 -0.720269 3.162 0
M  V30 16509 H 1581.12 0.932156 3.80859 0
M  V30 16510 H 1582.61 0.0126639 4.17598 0
M  V30 16511 N 1583.05 -1.27244 0.929878 0
M  V30 16512 C 1584.29 -1.94557 0.572306 0
M  V30 16513 C 1584.62 -1.72886 -0.884542 0
M  V30 16514 O 1583.9 -1.0592 -1.63129 0
M  V30 16515 C 1584.18 -3.48629 0.901675 0
M  V30 16516 C 1584.04 -3.79633 2.41244 0
M  V30 16517 C 1585.35 -4.38195 0.409093 0
M  V30 16518 H 1582.47 -0.706627 0.209397 0
M  V30 16519 H 1585.12 -1.50321 1.16205 0
M  V30 16520 H 1583.27 -3.86437 0.399791 0
M  V30 16521 H 1584.94 -3.51604 2.98618 0
M  V30 16522 H 1583.18 -3.26108 2.8607 0
M  V30 16523 H 1583.85 -4.87284 2.59342 0
M  V30 16524 H 1586.33 -4.07548 0.839256 0
M  V30 16525 H 1585.2 -5.44814 0.668482 0
M  V30 16526 H 1585.46 -4.36669 -0.690861 0
M  V30 16527 N 1584.52 -0.695628 -1.41417 0
M  V30 16528 C 1585.46 0.0202064 -2.28191 0
M  V30 16529 C 1586.43 0.787887 -1.42236 0
M  V30 16530 O 1587.62 0.778692 -1.71664 0
M  V30 16531 C 1584.75 1.03599 -3.22467 0
M  V30 16532 C 1583.79 0.361472 -4.24965 0
M  V30 16533 S 1584.62 -0.896181 -5.27948 0
M  V30 16534 C 1585.78 0.118005 -6.25789 0
M  V30 16535 H 1586.01 -0.715769 -2.88555 0
M  V30 16536 H 1583.55 -0.485904 -1.46555 0
M  V30 16537 H 1585.5 1.6169 -3.77315 0
M  V30 16538 H 1584.17 1.74454 -2.61198 0
M  V30 16539 H 1583.36 1.12866 -4.912 0
M  V30 16540 H 1582.96 -0.146366 -3.73713 0
M  V30 16541 H 1585.25 0.971258 -6.70502 0
M  V30 16542 H 1586.2 -0.510417 -7.06258 0
M  V30 16543 H 1586.6 0.472806 -5.62516 0
M  V30 16544 N 1586 1.51322 -0.440383 0
M  V30 16545 C 1587.25 2.02113 0.125062 0
M  V30 16546 C 1587.58 1.32436 1.42446 0
M  V30 16547 O 1586.83 0.428981 1.9094 0
M  V30 16548 C 1587.13 3.55287 0.388079 0
M  V30 16549 C 1586.8 4.43272 -0.825876 0
M  V30 16550 C 1585.46 4.67039 -1.15878 0
M  V30 16551 C 1587.81 4.94872 -1.63557 0
M  V30 16552 C 1585.14 5.39652 -2.30201 0
M  V30 16553 C 1587.49 5.68739 -2.76981 0
M  V30 16554 C 1586.15 5.90769 -3.10722 0
M  V30 16555 H 1585.42 0.739585 0.0457635 0
M  V30 16556 H 1588.07 1.82243 -0.588201 0
M  V30 16557 H 1586.38 3.73505 1.18327 0
M  V30 16558 H 1588.07 3.92124 0.839055 0
M  V30 16559 H 1584.66 4.24972 -0.556468 0
M  V30 16560 H 1588.85 4.76391 -1.39158 0
M  V30 16561 H 1584.1 5.54923 -2.56653 0
M  V30 16562 H 1588.28 6.07711 -3.40089 0
M  V30 16563 H 1585.9 6.46814 -3.9942 0
M  V30 16564 N 1587.48 0.171848 1.5666 0
M  V30 16565 C 1588.44 -0.744316 2.16778 0
M  V30 16566 C 1589.44 -1.15769 1.11598 0
M  V30 16567 O 1590.63 -1.07456 1.37109 0
M  V30 16568 C 1587.76 -2.01319 2.75106 0
M  V30 16569 H 1588.96 -0.220952 2.99085 0
M  V30 16570 H 1586.51 -0.0777149 1.56107 0
M  V30 16571 H 1587.25 -2.57963 1.96534 0
M  V30 16572 H 1587.03 -1.72575 3.5208 0
M  V30 16573 H 1588.52 -2.667 3.21342 0
M  V30 16574 N 1588.96 -1.5727 -0.101874 0
M  V30 16575 C 1590.18 -1.90319 -0.824215 0
M  V30 16576 C 1590.61 -0.765469 -1.7182 0
M  V30 16577 O 1589.97 0.283275 -1.79073 0
M  V30 16578 C 1590.01 -3.22201 -1.61922 0
M  V30 16579 O 1589.12 -3.09313 -2.72762 0
M  V30 16580 H 1588.46 -0.624042 -0.226864 0
M  V30 16581 H 1590.99 -2.04447 -0.0791314 0
M  V30 16582 H 1591 -3.55343 -2.00487 0
M  V30 16583 H 1589.67 -4.04596 -0.963078 0
M  V30 16584 H 1588.25 -2.87672 -2.37274 0
M  V30 16585 N 1590.44 0.372521 -1.53134 0
M  V30 16586 C 1591.68 1.11316 -1.68201 0
M  V30 16587 C 1592 1.90662 -0.436714 0
M  V30 16588 O 1593.2 2.67439 -0.467802 0
M  V30 16589 C 1591.66 2.02808 -2.97317 0
M  V30 16590 C 1591.27 1.28806 -4.29084 0
M  V30 16591 C 1593.01 2.76906 -3.2175 0
M  V30 16592 C 1590.92 2.19159 -5.49294 0
M  V30 16593 H 1589.85 0.419264 -0.626685 0
M  V30 16594 H 1592.5 0.374677 -1.79634 0
M  V30 16595 H 1590.88 2.80359 -2.79669 0
M  V30 16596 H 1592.06 0.563661 -4.5734 0
M  V30 16597 H 1590.37 0.665989 -4.1104 0
M  V30 16598 H 1592.97 3.44721 -4.08744 0
M  V30 16599 H 1593.31 3.41894 -2.37517 0
M  V30 16600 H 1593.84 2.06441 -3.4004 0
M  V30 16601 H 1590.58 1.5876 -6.35984 0
M  V30 16602 H 1590.1 2.89468 -5.25327 0
M  V30 16603 H 1591.78 2.78874 -5.83814 0
M  V30 16604 N 1591.91 1.44376 0.631925 0
M  V30 16605 C 1592.88 1.50825 1.72582 0
M  V30 16606 C 1593.88 0.390379 1.55989 0
M  V30 16607 O 1595.07 0.65297 1.61499 0
M  V30 16608 C 1592.2 1.38141 3.11657 0
M  V30 16609 H 1593.39 2.48265 1.68239 0
M  V30 16610 H 1590.94 1.31456 0.845514 0
M  V30 16611 H 1591.68 0.417905 3.21596 0
M  V30 16612 H 1591.46 2.19198 3.25107 0
M  V30 16613 H 1592.95 1.45633 3.91383 0
M  V30 16614 N 1593.39 -0.872258 1.31261 0
M  V30 16615 C 1594.34 -2.00065 1.18645 0
M  V30 16616 C 1595.33 -1.69132 0.0952872 0
M  V30 16617 O 1596.54 -1.78156 0.257022 0
M  V30 16618 H 1592.91 -0.656201 0.367293 0
M  V30 16619 H 1594.89 -2.07837 2.14117 0
M  V30 16620 C 1593.63 -3.35628 0.908241 0
M  V30 16621 H 1592.96 -3.5995 1.74 0
M  V30 16622 H 1594.4 -4.15184 0.860134 0
M  V30 16623 C 1592.86 -3.34647 -0.388993 0
M  V30 16624 O 1593.39 -3.76271 -1.40651 0
M  V30 16625 N 1591.59 -2.87768 -0.404708 0
M  V30 16626 H 1591.14 -2.5409 0.423824 0
M  V30 16627 H 1591.1 -2.87494 -1.27258 0
M  V30 16628 N 1594.87 -1.14184 -1.08627 0
M  V30 16629 C 1596.12 -0.908664 -1.80968 0
M  V30 16630 C 1596.44 0.564864 -1.86117 0
M  V30 16631 O 1595.7 1.4344 -1.33129 0
M  V30 16632 C 1596 -1.4519 -3.2658 0
M  V30 16633 C 1595.66 -2.94368 -3.41552 0
M  V30 16634 C 1594.33 -3.35096 -3.45346 0
M  V30 16635 C 1596.68 -3.90304 -3.45416 0
M  V30 16636 C 1594.01 -4.70428 -3.50591 0
M  V30 16637 C 1596.36 -5.25491 -3.52196 0
M  V30 16638 C 1595.02 -5.65734 -3.54262 0
M  V30 16639 H 1594.29 -0.332504 -0.66221 0
M  V30 16640 H 1596.94 -1.42514 -1.27914 0
M  V30 16641 H 1595.24 -0.856308 -3.82328 0
M  V30 16642 H 1596.94 -1.24746 -3.81103 0
M  V30 16643 H 1593.53 -2.61879 -3.3929 0
M  V30 16644 H 1597.72 -3.59921 -3.41718 0
M  V30 16645 H 1592.97 -5.00971 -3.50482 0
M  V30 16646 H 1597.15 -5.99637 -3.54131 0
M  V30 16647 H 1594.77 -6.70585 -3.58079 0
M  V30 16648 N 1596.35 1.26749 -0.936613 0
M  V30 16649 C 1597.57 1.98597 -0.597817 0
M  V30 16650 C 1598 1.69324 0.8192 0
M  V30 16651 O 1597.36 0.938634 1.55111 0
M  V30 16652 C 1597.4 3.50656 -0.841007 0
M  V30 16653 O 1596.51 4.12304 0.0891038 0
M  V30 16654 H 1595.85 0.623197 -0.229176 0
M  V30 16655 H 1598.38 1.61332 -1.2583 0
M  V30 16656 H 1598.39 4.00857 -0.760093 0
M  V30 16657 H 1597.06 3.71293 -1.87388 0
M  V30 16658 H 1595.64 3.72876 -0.0424804 0
M  V30 16659 N 1597.83 0.703118 1.41046 0
M  V30 16660 C 1598.74 0.0432777 2.3456 0
M  V30 16661 C 1599.75 -0.757704 1.56636 0
M  V30 16662 O 1600.93 -0.693531 1.89082 0
M  V30 16663 C 1597.99 -0.876385 3.35441 0
M  V30 16664 C 1597.05 -0.06676 4.29248 0
M  V30 16665 C 1596.29 -0.942622 5.2531 0
M  V30 16666 O 1596.51 -2.18205 5.27013 0
M  V30 16667 O 1595.44 -0.388266 6.00646 0
M  V30 16668 H 1599.27 0.814302 2.9258 0
M  V30 16669 H 1596.86 0.463503 1.42028 0
M  V30 16670 H 1598.74 -1.40353 3.9734 0
M  V30 16671 H 1597.41 -1.62677 2.79853 0
M  V30 16672 H 1596.32 0.505165 3.70674 0
M  V30 16673 H 1597.65 0.645128 4.87954 0
M  V30 16674 N 1599.3 -1.51086 0.448402 0
M  V30 16675 C 1600.55 -2.02177 -0.114342 0
M  V30 16676 C 1600.88 -1.3319 -1.41742 0
M  V30 16677 O 1600.13 -0.439101 -1.9071 0
M  V30 16678 C 1600.43 -3.55488 -0.369232 0
M  V30 16679 C 1600.1 -4.42828 0.849372 0
M  V30 16680 C 1598.76 -4.66418 1.18354 0
M  V30 16681 C 1601.11 -4.93998 1.66179 0
M  V30 16682 C 1598.44 -5.38424 2.33059 0
M  V30 16683 C 1600.79 -5.67262 2.79994 0
M  V30 16684 C 1599.46 -5.89113 3.13851 0
M  V30 16685 H 1598.73 -0.739818 -0.0418407 0
M  V30 16686 H 1601.37 -1.81928 0.597857 0
M  V30 16687 H 1599.68 -3.74127 -1.16344 0
M  V30 16688 H 1601.38 -3.92563 -0.818248 0
M  V30 16689 H 1597.97 -4.24671 0.578998 0
M  V30 16690 H 1602.15 -4.75647 1.41683 0
M  V30 16691 H 1597.41 -5.53554 2.59592 0
M  V30 16692 H 1601.58 -6.05899 3.43307 0
M  V30 16693 H 1599.21 -6.44686 4.02844 0
M  V30 16694 N 1600.78 -0.180154 -1.56567 0
M  V30 16695 C 1602.01 0.467861 -2.01233 0
M  V30 16696 C 1602.42 1.56754 -1.05948 0
M  V30 16697 O 1601.76 1.83621 -0.0539219 0
M  V30 16698 C 1601.83 1.09819 -3.42316 0
M  V30 16699 C 1601.49 0.139084 -4.56788 0
M  V30 16700 C 1602.49 -0.64592 -5.15872 0
M  V30 16701 C 1600.17 0.0323422 -5.0229 0
M  V30 16702 C 1602.17 -1.52478 -6.18894 0
M  V30 16703 C 1599.85 -0.850092 -6.05158 0
M  V30 16704 C 1600.85 -1.62723 -6.63333 0
M  V30 16705 O 1600.54 -2.4949 -7.64205 0
M  V30 16706 H 1600.27 0.12331 -0.664658 0
M  V30 16707 H 1602.82 -0.28166 -2.0346 0
M  V30 16708 H 1601.05 1.89601 -3.37029 0
M  V30 16709 H 1602.74 1.64931 -3.70881 0
M  V30 16710 H 1603.51 -0.573675 -4.81595 0
M  V30 16711 H 1599.39 0.627034 -4.56716 0
M  V30 16712 H 1602.93 -2.13182 -6.64228 0
M  V30 16713 H 1598.83 -0.923507 -6.3886 0
M  V30 16714 H 1599.6 -2.43104 -7.81564 0
M  V30 16715 N 1602.26 1.57322 0.0935319 0
M  V30 16716 C 1603.51 1.86443 0.797919 0
M  V30 16717 C 1603.84 0.769491 1.78304 0
M  V30 16718 O 1603.11 -0.222383 1.93225 0
M  V30 16719 C 1603.4 3.26201 1.52528 0
M  V30 16720 C 1603.25 4.46325 0.558031 0
M  V30 16721 C 1604.57 3.63879 2.47548 0
M  V30 16722 H 1601.69 0.678136 0.288618 0
M  V30 16723 H 1604.33 1.899 0.0615161 0
M  V30 16724 H 1602.48 3.23385 2.15301 0
M  V30 16725 H 1604.15 4.61257 -0.0628154 0
M  V30 16726 H 1602.4 4.3361 -0.128462 0
M  V30 16727 H 1603.07 5.40845 1.10413 0
M  V30 16728 H 1605.54 3.6765 1.94866 0
M  V30 16729 H 1604.42 4.62598 2.95456 0
M  V30 16730 H 1604.68 2.92647 3.31376 0
M  V30 16731 N 1603.74 -0.364395 1.53329 0
M  V30 16732 C 1604.65 -1.47027 1.82812 0
M  V30 16733 C 1605.66 -1.58559 0.716598 0
M  V30 16734 O 1606.84 -1.7443 1.00678 0
M  V30 16735 C 1603.91 -2.82278 2.01295 0
M  V30 16736 C 1602.97 -2.80264 3.25193 0
M  V30 16737 C 1602.2 -4.09065 3.42785 0
M  V30 16738 O 1602.42 -5.0529 2.64648 0
M  V30 16739 O 1601.36 -4.14804 4.36144 0
M  V30 16740 H 1605.18 -1.25035 2.76767 0
M  V30 16741 H 1602.77 -0.554608 1.38724 0
M  V30 16742 H 1604.65 -3.62416 2.15017 0
M  V30 16743 H 1603.32 -3.04244 1.10531 0
M  V30 16744 H 1602.23 -1.9882 3.16893 0
M  V30 16745 H 1603.56 -2.63252 4.15884 0
M  V30 16746 N 1605.22 -1.44709 -0.62426 0
M  V30 16747 C 1606.15 -1.54934 -1.74693 0
M  V30 16748 C 1607.13 -0.401897 -1.65284 0
M  V30 16749 O 1608.31 -0.622906 -1.83939 0
M  V30 16750 C 1605.44 -1.49976 -3.13248 0
M  V30 16751 C 1604.4 -2.63267 -3.37453 0
M  V30 16752 C 1603.72 -2.43362 -4.76108 0
M  V30 16753 C 1605.02 -4.0538 -3.2934 0
M  V30 16754 H 1606.72 -2.48905 -1.66393 0
M  V30 16755 H 1604.26 -1.19794 -0.799088 0
M  V30 16756 H 1606.22 -1.55729 -3.91569 0
M  V30 16757 H 1604.94 -0.525254 -3.22349 0
M  V30 16758 H 1603.6 -2.56915 -2.61515 0
M  V30 16759 H 1603.25 -1.44088 -4.81921 0
M  V30 16760 H 1602.95 -3.19324 -4.93261 0
M  V30 16761 H 1604.47 -2.50943 -5.56651 0
M  V30 16762 H 1605.88 -4.13064 -3.97556 0
M  V30 16763 H 1604.28 -4.81599 -3.58025 0
M  V30 16764 H 1605.35 -4.28465 -2.27038 0
M  V30 16765 N 1606.69 0.865285 -1.31722 0
M  V30 16766 C 1607.6 2.00542 -1.21738 0
M  V30 16767 C 1608.62 1.7349 -0.133124 0
M  V30 16768 O 1609.8 1.98303 -0.351809 0
M  V30 16769 C 1606.86 3.33993 -0.930045 0
M  V30 16770 C 1605.92 3.74337 -2.10167 0
M  V30 16771 C 1605.16 5.0142 -1.82795 0
M  V30 16772 O 1605.38 5.65242 -0.765345 0
M  V30 16773 O 1604.31 5.38642 -2.68604 0
M  V30 16774 H 1608.14 2.11898 -2.17561 0
M  V30 16775 H 1605.72 0.994313 -1.11507 0
M  V30 16776 H 1607.61 4.14008 -0.785846 0
M  V30 16777 H 1606.28 3.237 -0.00188642 0
M  V30 16778 H 1605.19 2.94943 -2.3013 0
M  V30 16779 H 1606.52 3.89261 -3.01225 0
M  V30 16780 N 1608.17 1.14759 1.0802 0
M  V30 16781 C 1609.14 0.840859 2.13219 0
M  V30 16782 C 1610.14 -0.156309 1.60038 0
M  V30 16783 O 1611.33 0.0725143 1.74049 0
M  V30 16784 C 1608.46 0.254208 3.39951 0
M  V30 16785 H 1609.65 1.77323 2.4186 0
M  V30 16786 H 1607.2 0.954146 1.23797 0
M  V30 16787 H 1607.94 -0.686692 3.16946 0
M  V30 16788 H 1607.72 0.972499 3.79848 0
M  V30 16789 H 1609.21 0.0569551 4.17561 0
M  V30 16790 N 1609.65 -1.26251 0.943322 0
M  V30 16791 C 1610.6 -2.28295 0.445441 0
M  V30 16792 C 1611.59 -1.62504 -0.478401 0
M  V30 16793 O 1612.8 -1.76437 -0.356378 0
M  V30 16794 H 1609.17 -0.741451 0.125517 0
M  V30 16795 H 1611.14 -2.67687 1.31858 0
M  V30 16796 C 1609.89 -3.46635 -0.271987 0
M  V30 16797 H 1609.22 -3.97484 0.429734 0
M  V30 16798 H 1610.66 -4.19951 -0.584544 0
M  V30 16799 C 1609.12 -3.02133 -1.49054 0
M  V30 16800 O 1609.65 -3.07158 -2.58876 0
M  V30 16801 N 1607.85 -2.57451 -1.34787 0
M  V30 16802 H 1607.4 -2.53562 -0.454347 0
M  V30 16803 H 1607.36 -2.28039 -2.16438 0
M  V30 16804 N 1611.13 -0.710588 -1.40671 0
M  V30 16805 C 1612.08 -0.043614 -2.32559 0
M  V30 16806 C 1613.07 0.752425 -1.51773 0
M  V30 16807 O 1614.28 0.656356 -1.67607 0
M  V30 16808 H 1610.65 0.00469865 -0.751985 0
M  V30 16809 H 1612.62 -0.835399 -2.86468 0
M  V30 16810 C 1611.37 0.867796 -3.36697 0
M  V30 16811 H 1610.7 0.264667 -3.98923 0
M  V30 16812 H 1612.14 1.30252 -4.03498 0
M  V30 16813 C 1610.59 1.99094 -2.71778 0
M  V30 16814 O 1611.12 3.08129 -2.5772 0
M  V30 16815 N 1609.33 1.77309 -2.30239 0
M  V30 16816 H 1608.88 0.886325 -2.41872 0
M  V30 16817 H 1608.84 2.52639 -1.87139 0
M  V30 16818 N 1612.61 1.50847 -0.456408 0
M  V30 16819 C 1613.52 2.31959 0.351027 0
M  V30 16820 C 1614.53 1.41697 1.00986 0
M  V30 16821 O 1615.71 1.7476 1.00105 0
M  V30 16822 C 1612.77 3.15973 1.42696 0
M  V30 16823 C 1611.84 4.22038 0.786272 0
M  V30 16824 C 1611.07 5.02036 1.81094 0
M  V30 16825 O 1611.29 4.82913 3.03564 0
M  V30 16826 O 1610.23 5.85609 1.3909 0
M  V30 16827 H 1614.05 3.02096 -0.311678 0
M  V30 16828 H 1611.64 1.47793 -0.218544 0
M  V30 16829 H 1613.52 3.68146 2.05053 0
M  V30 16830 H 1612.19 2.48579 2.0734 0
M  V30 16831 H 1611.1 3.73894 0.124148 0
M  V30 16832 H 1612.43 4.9186 0.183016 0
M  V30 16833 N 1614.09 0.188454 1.56469 0
M  V30 16834 C 1615.33 -0.451165 1.97 0
M  V30 16835 C 1615.65 -1.6261 1.07624 0
M  V30 16836 O 1614.92 -1.95354 0.146125 0
M  V30 16837 H 1613.5 -0.16967 0.727476 0
M  V30 16838 H 1616.17 0.273638 1.9297 0
M  V30 16839 H 1615.26 -0.799741 3.0168 0
M  V30 16840 N 1615.56 -1.5737 -0.0851874 0
M  V30 16841 C 1616.81 -1.86864 -0.78802 0
M  V30 16842 C 1617.14 -0.778936 -1.77894 0
M  V30 16843 O 1616.42 0.212132 -1.9334 0
M  V30 16844 C 1616.7 -3.27006 -1.50795 0
M  V30 16845 C 1616.55 -4.46615 -0.534354 0
M  V30 16846 C 1617.87 -3.65187 -2.45614 0
M  V30 16847 H 1614.99 -0.679657 -0.285017 0
M  V30 16848 H 1617.63 -1.8993 -0.0514443 0
M  V30 16849 H 1615.78 -3.24522 -2.13583 0
M  V30 16850 H 1617.46 -4.61217 0.0872761 0
M  V30 16851 H 1615.7 -4.33536 0.151455 0
M  V30 16852 H 1616.37 -5.41423 -1.07544 0
M  V30 16853 H 1618.85 -3.68678 -1.92913 0
M  V30 16854 H 1617.72 -4.64158 -2.92999 0
M  V30 16855 H 1617.98 -2.944 -3.2982 0
M  V30 16856 N 1617.04 0.356258 -1.53521 0
M  V30 16857 C 1617.95 1.46055 -1.83589 0
M  V30 16858 C 1618.97 1.58176 -0.724997 0
M  V30 16859 O 1620.14 1.73894 -1.01601 0
M  V30 16860 C 1617.21 2.81207 -2.0279 0
M  V30 16861 C 1616.27 2.78535 -3.26675 0
M  V30 16862 C 1615.5 4.07241 -3.4495 0
M  V30 16863 O 1615.73 5.03879 -2.67324 0
M  V30 16864 O 1614.66 4.12485 -4.38337 0
M  V30 16865 H 1618.49 1.23566 -2.77426 0
M  V30 16866 H 1616.07 0.547243 -1.39017 0
M  V30 16867 H 1617.95 3.61271 -2.16936 0
M  V30 16868 H 1616.63 3.03654 -1.12143 0
M  V30 16869 H 1615.53 1.97137 -3.17943 0
M  V30 16870 H 1616.87 2.61042 -4.17274 0
M  V30 16871 N 1618.52 1.45038 0.616577 0
M  V30 16872 C 1619.76 1.50118 1.38723 0
M  V30 16873 C 1620.12 0.135879 1.91519 0
M  V30 16874 O 1621.32 0.0613609 2.6873 0
M  V30 16875 C 1619.6 2.5434 2.51089 0
M  V30 16876 S 1621.15 2.78577 3.39028 0
M  V30 16877 H 1617.97 0.530782 0.473066 0
M  V30 16878 H 1620.57 1.82059 0.712362 0
M  V30 16879 H 1619.28 3.52222 2.10638 0
M  V30 16880 H 1618.81 2.24019 3.23387 0
M  V30 16881 H 1620.82 2.11275 4.48974 0
M  V30 16882 N 1620 -0.858287 1.32179 0
M  V30 16883 C 1620.93 -1.98219 1.23415 0
M  V30 16884 C 1621.91 -1.69685 0.118779 0
M  V30 16885 O 1623.09 -1.91785 0.305342 0
M  V30 16886 C 1620.22 -3.33977 0.952725 0
M  V30 16887 C 1619.18 -3.76853 2.02894 0
M  V30 16888 C 1618.5 -5.10201 1.59999 0
M  V30 16889 C 1619.8 -3.92707 3.44352 0
M  V30 16890 H 1621.5 -2.05809 2.17446 0
M  V30 16891 H 1619.04 -0.988817 1.04682 0
M  V30 16892 H 1621 -4.12152 0.87798 0
M  V30 16893 H 1619.72 -3.26592 -0.023234 0
M  V30 16894 H 1618.38 -3.00926 2.09378 0
M  V30 16895 H 1618.03 -4.99268 0.61157 0
M  V30 16896 H 1617.73 -5.39859 2.32004 0
M  V30 16897 H 1619.25 -5.90873 1.53954 0
M  V30 16898 H 1620.67 -4.61246 3.40477 0
M  V30 16899 H 1619.06 -4.33779 4.14675 0
M  V30 16900 H 1620.13 -2.95731 3.8428 0
M  V30 16901 N 1621.48 -1.1533 -1.07409 0
M  V30 16902 C 1622.89 -0.895817 -1.32088 0
M  V30 16903 C 1623.09 0.457526 -1.96237 0
M  V30 16904 O 1622.15 1.19958 -2.22185 0
M  V30 16905 C 1623.46 -2.03632 -2.21256 0
M  V30 16906 C 1625.01 -2.07079 -2.34707 0
M  V30 16907 C 1625.48 -3.20451 -3.27223 0
M  V30 16908 N 1626.97 -3.20095 -3.34804 0
M  V30 16909 C 1627.71 -4.04458 -4.0645 0
M  V30 16910 N 1627.21 -4.98883 -4.80715 0
M  V30 16911 N 1629 -3.92483 -4.02385 0
M  V30 16912 H 1621.15 -2.02478 -0.641578 0
M  V30 16913 H 1623.41 -0.882864 -0.345332 0
M  V30 16914 H 1623.12 -3.0132 -1.81381 0
M  V30 16915 H 1622.99 -1.96817 -3.21781 0
M  V30 16916 H 1625.38 -1.09991 -2.73836 0
M  V30 16917 H 1625.46 -2.17962 -1.3389 0
M  V30 16918 H 1625.1 -4.17791 -2.88813 0
M  V30 16919 H 1625.03 -3.06805 -4.27993 0
M  V30 16920 H 1627.53 -2.51712 -2.81868 0
M  V30 16921 H 1627.84 -5.59698 -5.32877 0
M  V30 16922 H 1626.18 -5.02872 -4.79734 0
M  V30 16923 H 1629.37 -3.18026 -3.43478 0
M  V30 16924 H 1629.55 -4.58454 -4.57956 0
M  V30 16925 N 1622.95 1.25748 -0.950004 0
M  V30 16926 C 1623.88 2.28419 -0.484467 0
M  V30 16927 C 1624.86 1.63569 0.466813 0
M  V30 16928 O 1626.05 1.90705 0.366766 0
M  V30 16929 C 1623.18 3.46449 0.242916 0
M  V30 16930 C 1622.13 4.23447 -0.622657 0
M  V30 16931 C 1621.46 5.34182 0.235199 0
M  V30 16932 C 1622.76 4.86576 -1.89845 0
M  V30 16933 H 1624.45 2.6761 -1.34257 0
M  V30 16934 H 1622 1.28646 -0.647014 0
M  V30 16935 H 1623.95 4.17394 0.579693 0
M  V30 16936 H 1622.68 3.06235 1.13523 0
M  V30 16937 H 1621.34 3.54279 -0.942453 0
M  V30 16938 H 1620.98 4.90209 1.12713 0
M  V30 16939 H 1620.68 5.86612 -0.340609 0
M  V30 16940 H 1622.21 6.07961 0.567048 0
M  V30 16941 H 1623.62 5.49688 -1.62837 0
M  V30 16942 H 1622.02 5.49162 -2.41954 0
M  V30 16943 H 1623.09 4.09021 -2.60441 0
M  V30 16944 N 1624.43 0.718038 1.40292 0
M  V30 16945 C 1625.36 0.0818367 2.33357 0
M  V30 16946 C 1626.34 -0.742854 1.53022 0
M  V30 16947 O 1627.53 -0.691281 1.8148 0
M  V30 16948 C 1624.66 -0.838843 3.37017 0
M  V30 16949 C 1623.61 -0.119589 4.27833 0
M  V30 16950 C 1622.94 -1.15615 5.22051 0
M  V30 16951 C 1624.24 1.02769 5.1209 0
M  V30 16952 H 1625.93 0.859167 2.86808 0
M  V30 16953 H 1623.48 0.414606 1.37902 0
M  V30 16954 H 1625.43 -1.29332 4.01063 0
M  V30 16955 H 1624.15 -1.6481 2.81967 0
M  V30 16956 H 1622.81 0.315088 3.65243 0
M  V30 16957 H 1622.46 -1.95852 4.63304 0
M  V30 16958 H 1622.16 -0.679767 5.83655 0
M  V30 16959 H 1623.69 -1.61068 5.88973 0
M  V30 16960 H 1625.1 0.652461 5.69575 0
M  V30 16961 H 1623.5 1.4326 5.82749 0
M  V30 16962 H 1624.57 1.85723 4.47923 0
M  V30 16963 N 1625.91 -1.50602 0.464402 0
M  V30 16964 C 1626.86 -2.29992 -0.347337 0
M  V30 16965 C 1627.85 -1.36991 -0.996489 0
M  V30 16966 O 1629.06 -1.54213 -0.928359 0
M  V30 16967 H 1625.43 -0.740529 -0.130847 0
M  V30 16968 H 1627.4 -2.96425 0.342734 0
M  V30 16969 C 1626.15 -3.17355 -1.4206 0
M  V30 16970 H 1625.48 -3.88822 -0.930473 0
M  V30 16971 H 1626.92 -3.75912 -1.96129 0
M  V30 16972 C 1625.38 -2.34506 -2.41886 0
M  V30 16973 O 1625.91 -2.02347 -3.47014 0
M  V30 16974 N 1624.11 -1.97212 -2.13438 0
M  V30 16975 H 1623.66 -2.23564 -1.27971 0
M  V30 16976 H 1623.62 -1.42081 -2.80464 0
M  V30 16977 N 1627.39 -0.19675 -1.56367 0
M  V30 16978 C 1628.3 0.735372 -2.22777 0
M  V30 16979 C 1629.31 1.23336 -1.22737 0
M  V30 16980 O 1630.49 1.28017 -1.55479 0
M  V30 16981 C 1627.56 1.93706 -2.8754 0
M  V30 16982 C 1626.62 1.48348 -4.02854 0
M  V30 16983 C 1625.85 2.62788 -4.64519 0
M  V30 16984 O 1626.07 3.80311 -4.25111 0
M  V30 16985 O 1625.01 2.35406 -5.53956 0
M  V30 16986 H 1628.83 0.199788 -3.03042 0
M  V30 16987 H 1626.42 0.0326149 -1.49364 0
M  V30 16988 H 1628.3 2.63934 -3.28507 0
M  V30 16989 H 1626.97 2.46121 -2.10252 0
M  V30 16990 H 1625.88 0.749939 -3.66506 0
M  V30 16991 H 1627.21 1.00597 -4.8181 0
M  V30 16992 N 1628.87 1.57413 0.0768405 0
M  V30 16993 C 1630.12 1.86186 0.775741 0
M  V30 16994 C 1630.43 0.788676 1.78995 0
M  V30 16995 O 1631.63 0.964095 2.53806 0
M  V30 16996 C 1630.09 3.30247 1.43055 0
M  V30 16997 C 1629.7 4.45682 0.45517 0
M  V30 16998 C 1631.44 3.68225 2.11211 0
M  V30 16999 C 1629.35 5.80782 1.11561 0
M  V30 17000 H 1628.28 0.694546 0.293466 0
M  V30 17001 H 1630.93 1.83477 0.0289478 0
M  V30 17002 H 1629.31 3.27552 2.22544 0
M  V30 17003 H 1630.49 4.59759 -0.309535 0
M  V30 17004 H 1628.8 4.16222 -0.121671 0
M  V30 17005 H 1631.4 4.66454 2.6139 0
M  V30 17006 H 1631.74 2.9777 2.90928 0
M  V30 17007 H 1632.27 3.72888 1.38561 0
M  V30 17008 H 1629.01 6.54517 0.358877 0
M  V30 17009 H 1628.53 5.70515 1.8513 0
M  V30 17010 H 1630.21 6.25951 1.63689 0
M  V30 17011 N 1630.34 -0.348112 1.53707 0
M  V30 17012 C 1631.59 -1.08626 1.69951 0
M  V30 17013 C 1631.91 -1.89944 0.466992 0
M  V30 17014 O 1633.11 -2.66661 0.51029 0
M  V30 17015 C 1631.57 -1.98052 3.00505 0
M  V30 17016 C 1631.18 -1.21963 4.31079 0
M  V30 17017 C 1632.92 -2.71752 3.26115 0
M  V30 17018 C 1630.83 -2.10392 5.52711 0
M  V30 17019 H 1629.76 -0.409241 0.633275 0
M  V30 17020 H 1632.41 -0.346051 1.80207 0
M  V30 17021 H 1630.79 -2.75874 2.84094 0
M  V30 17022 H 1631.96 -0.490831 4.58178 0
M  V30 17023 H 1630.28 -0.600511 4.12047 0
M  V30 17024 H 1632.88 -3.38174 4.14177 0
M  V30 17025 H 1633.22 -3.38072 2.42926 0
M  V30 17026 H 1633.75 -2.01005 3.43281 0
M  V30 17027 H 1630.49 -1.48622 6.38429 0
M  V30 17028 H 1630.01 -2.81074 5.29866 0
M  V30 17029 H 1631.69 -2.69551 5.88176 0
M  V30 17030 N 1631.82 -1.45363 -0.608876 0
M  V30 17031 C 1632.79 -1.53551 -1.70161 0
M  V30 17032 C 1633.79 -0.415146 -1.55349 0
M  V30 17033 O 1634.98 -0.67858 -1.6044 0
M  V30 17034 C 1632.11 -1.43081 -3.0942 0
M  V30 17035 H 1633.3 -2.5091 -1.64268 0
M  V30 17036 H 1630.85 -1.32785 -0.824493 0
M  V30 17037 H 1631.59 -0.469016 -3.20891 0
M  V30 17038 H 1631.37 -2.24343 -3.21579 0
M  V30 17039 H 1632.86 -1.51841 -3.89017 0
M  V30 17040 N 1633.3 0.851265 -1.32632 0
M  V30 17041 C 1634.58 1.58945 -1.13999 0
M  V30 17042 C 1634.96 2.08981 0.29836 0
M  V30 17043 O 1634.31 1.88226 1.2955 0
M  V30 17044 C 1634.52 2.73296 -2.17049 0
M  V30 17045 C 1635.86 3.42791 -2.50559 0
M  V30 17046 O 1636.89 2.83524 -2.15621 0
M  V30 17047 O 1635.75 4.49749 -3.10464 0
M  V30 17048 H 1632.84 0.700157 -0.440124 0
M  V30 17049 H 1635.39 0.895098 -1.44174 0
M  V30 17050 H 1634.16 2.33873 -3.13718 0
M  V30 17051 H 1633.78 3.50405 -1.87888 0
M  V30 17052 N 1634.78 1.15898 1.06796 0
M  V30 17053 C 1636.03 0.937339 1.795 0
M  V30 17054 C 1636.35 -0.535183 1.86992 0
M  V30 17055 O 1635.61 -1.41304 1.35394 0
M  V30 17056 C 1635.91 1.50368 3.24229 0
M  V30 17057 C 1635.57 2.99765 3.36826 0
M  V30 17058 C 1634.24 3.40548 3.39971 0
M  V30 17059 C 1636.59 3.9575 3.39163 0
M  V30 17060 C 1633.92 4.75946 3.43063 0
M  V30 17061 C 1636.27 5.31028 3.43791 0
M  V30 17062 C 1634.93 5.71298 3.45216 0
M  V30 17063 H 1634.2 0.342997 0.656837 0
M  V30 17064 H 1636.85 1.44531 1.2563 0
M  V30 17065 H 1635.15 0.917024 3.80917 0
M  V30 17066 H 1636.85 1.30793 3.7907 0
M  V30 17067 H 1633.44 2.67244 3.3508 0
M  V30 17068 H 1637.62 3.65311 3.35948 0
M  V30 17069 H 1632.88 5.06484 3.42468 0
M  V30 17070 H 1637.05 6.05195 3.44546 0
M  V30 17071 H 1634.68 6.76196 3.47365 0
M  V30 17072 N 1636.26 -1.25243 0.956659 0
M  V30 17073 C 1637.53 -1.88287 0.529832 0
M  V30 17074 C 1637.91 -1.8629 -0.992929 0
M  V30 17075 O 1637.26 -1.32785 -1.85958 0
M  V30 17076 C 1637.47 -3.30919 1.10877 0
M  V30 17077 C 1638.82 -4.07674 1.18687 0
M  V30 17078 O 1639.84 -3.40048 1.06047 0
M  V30 17079 O 1638.7 -5.28648 1.38541 0
M  V30 17080 H 1635.8 -0.808258 0.175066 0
M  V30 17081 H 1638.34 -1.33298 1.05022 0
M  V30 17082 H 1637.11 -3.26813 2.15195 0
M  V30 17083 H 1636.74 -3.93468 0.571755 0
M  V30 17084 N 1637.73 -0.725468 -1.3991 0
M  V30 17085 C 1638.64 -0.0805887 -2.34462 0
M  V30 17086 C 1639.66 0.732689 -1.57822 0
M  V30 17087 O 1640.84 0.663362 -1.90162 0
M  V30 17088 C 1637.9 0.822908 -3.36792 0
M  V30 17089 C 1636.96 -0.00153812 -4.293 0
M  V30 17090 C 1636.2 0.85893 -5.26743 0
M  V30 17091 O 1636.42 2.09793 -5.30418 0
M  V30 17092 O 1635.35 0.292659 -6.01188 0
M  V30 17093 H 1639.18 -0.860746 -2.91247 0
M  V30 17094 H 1636.76 -0.48604 -1.41273 0
M  V30 17095 H 1638.65 1.34014 -3.99522 0
M  V30 17096 H 1637.32 1.58204 -2.82406 0
M  V30 17097 H 1636.23 -0.564072 -3.69823 0
M  V30 17098 H 1637.56 -0.722675 -4.86866 0
M  V30 17099 N 1639.21 1.50354 -0.472382 0
M  V30 17100 C 1640.46 2.01526 0.0838536 0
M  V30 17101 C 1640.77 1.35913 1.40667 0
M  V30 17102 O 1641.98 1.78248 2.04792 0
M  V30 17103 C 1640.44 3.59344 0.199949 0
M  V30 17104 C 1640.04 4.33916 -1.11451 0
M  V30 17105 C 1641.79 4.18553 0.708075 0
M  V30 17106 C 1639.7 5.83521 -0.962138 0
M  V30 17107 H 1638.63 0.753182 0.0351127 0
M  V30 17108 H 1641.28 1.73153 -0.607474 0
M  V30 17109 H 1639.66 3.8431 0.955088 0
M  V30 17110 H 1640.83 4.20673 -1.8807 0
M  V30 17111 H 1639.15 3.86322 -1.55385 0
M  V30 17112 H 1641.74 5.28075 0.839126 0
M  V30 17113 H 1642.09 3.80019 1.69973 0
M  V30 17114 H 1642.62 3.97799 0.0102847 0
M  V30 17115 H 1639.36 6.26529 -1.9272 0
M  V30 17116 H 1638.88 5.99334 -0.236348 0
M  V30 17117 H 1640.56 6.43933 -0.629276 0
M  V30 17118 N 1640.69 0.205039 1.56261 0
M  V30 17119 C 1641.94 -0.431364 1.97033 0
M  V30 17120 C 1642.25 -1.62066 1.09517 0
M  V30 17121 O 1643.46 -2.32551 1.40116 0
M  V30 17122 C 1641.92 -0.818841 3.50461 0
M  V30 17123 C 1641.52 0.346723 4.46656 0
M  V30 17124 C 1643.27 -1.42177 3.99982 0
M  V30 17125 C 1641.17 -0.0622677 5.91367 0
M  V30 17126 H 1640.1 -0.164934 0.73574 0
M  V30 17127 H 1642.76 0.298635 1.81054 0
M  V30 17128 H 1641.14 -1.60579 3.61981 0
M  V30 17129 H 1642.31 1.12427 4.46874 0
M  V30 17130 H 1640.63 0.861799 4.07384 0
M  V30 17131 H 1643.22 -1.74039 5.05583 0
M  V30 17132 H 1643.57 -2.33177 3.44868 0
M  V30 17133 H 1644.1 -0.698591 3.91618 0
M  V30 17134 H 1640.84 0.813802 6.50429 0
M  V30 17135 H 1640.36 -0.804474 5.94381 0
M  V30 17136 H 1642.04 -0.49466 6.45106 0
M  V30 17137 N 1642.17 -1.57451 -0.0684915 0
M  V30 17138 C 1643.39 -1.92025 -0.78366 0
M  V30 17139 C 1643.82 -0.801743 -1.70158 0
M  V30 17140 O 1643.18 0.245227 -1.79634 0
M  V30 17141 C 1643.23 -3.25563 -1.55051 0
M  V30 17142 O 1642.33 -3.15029 -2.6614 0
M  V30 17143 H 1641.67 -0.628714 -0.213576 0
M  V30 17144 H 1644.2 -2.04569 -0.0357474 0
M  V30 17145 H 1644.21 -3.59516 -1.92905 0
M  V30 17146 H 1642.89 -4.06547 -0.87704 0
M  V30 17147 H 1641.46 -2.9264 -2.31119 0
M  V30 17148 N 1643.65 0.339955 -1.5389 0
M  V30 17149 C 1644.56 1.441 -1.85128 0
M  V30 17150 C 1645.57 1.57399 -0.741733 0
M  V30 17151 O 1646.75 1.72807 -1.0344 0
M  V30 17152 C 1643.81 2.7904 -2.05761 0
M  V30 17153 C 1642.88 2.75055 -3.29611 0
M  V30 17154 C 1642.11 4.0356 -3.4925 0
M  V30 17155 O 1642.33 5.01015 -2.72653 0
M  V30 17156 O 1641.27 4.07813 -4.42687 0
M  V30 17157 H 1645.09 1.20616 -2.78721 0
M  V30 17158 H 1642.68 0.532468 -1.39589 0
M  V30 17159 H 1644.56 3.5895 -2.20756 0
M  V30 17160 H 1643.23 3.02447 -1.15357 0
M  V30 17161 H 1642.14 1.93753 -3.20016 0
M  V30 17162 H 1643.47 2.56602 -4.20019 0
M  V30 17163 N 1645.13 1.45684 0.601159 0
M  V30 17164 C 1646.4 1.4051 1.36074 0
M  V30 17165 C 1646.78 0.0790095 2.10952 0
M  V30 17166 O 1646.13 -0.939162 2.08307 0
M  V30 17167 C 1646.34 2.62297 2.3022 0
M  V30 17168 C 1647.69 3.0766 2.92627 0
M  V30 17169 O 1648.71 2.62716 2.40539 0
M  V30 17170 O 1647.57 3.85675 3.87191 0
M  V30 17171 H 1644.67 0.557902 0.61047 0
M  V30 17172 H 1647.21 1.57822 0.623712 0
M  V30 17173 H 1645.98 3.50389 1.74194 0
M  V30 17174 H 1645.61 2.47351 3.11293 0
M  V30 17175 N 1646.6 -0.84422 1.33082 0
M  V30 17176 C 1648.02 -1.13406 1.12299 0
M  V30 17177 C 1648.22 -2.013 -0.0896529 0
M  V30 17178 O 1647.28 -2.40425 -0.771493 0
M  V30 17179 C 1648.59 -1.80132 2.40776 0
M  V30 17180 C 1650.14 -1.92721 2.46632 0
M  V30 17181 C 1650.61 -2.62863 3.75056 0
M  V30 17182 N 1652.1 -2.70379 3.76097 0
M  V30 17183 C 1652.84 -3.25328 4.72175 0
M  V30 17184 N 1652.33 -3.81005 5.78625 0
M  V30 17185 N 1654.13 -3.23529 4.59658 0
M  V30 17186 H 1646.28 -0.259126 2.10813 0
M  V30 17187 H 1648.54 -0.177459 0.931242 0
M  V30 17188 H 1648.25 -1.23007 3.29488 0
M  V30 17189 H 1648.12 -2.802 2.52523 0
M  V30 17190 H 1650.51 -2.49002 1.58373 0
M  V30 17191 H 1650.59 -0.916191 2.3883 0
M  V30 17192 H 1650.23 -2.07242 4.63695 0
M  V30 17193 H 1650.16 -3.64425 3.80134 0
M  V30 17194 H 1652.65 -2.30891 2.99162 0
M  V30 17195 H 1652.97 -4.21121 6.47979 0
M  V30 17196 H 1651.31 -3.79308 5.82366 0
M  V30 17197 H 1654.5 -2.79286 3.75656 0
M  V30 17198 H 1654.68 -3.66051 5.34706 0
M  V30 17199 N 1648.08 -1.16463 -1.0618 0
M  V30 17200 C 1649.33 -0.946846 -1.79 0
M  V30 17201 C 1649.66 0.525259 -1.87273 0
M  V30 17202 O 1648.91 1.40584 -1.36142 0
M  V30 17203 C 1649.21 -1.52085 -3.23427 0
M  V30 17204 C 1648.88 -3.01547 -3.35232 0
M  V30 17205 C 1647.54 -3.42346 -3.38161 0
M  V30 17206 C 1649.89 -3.97543 -3.37059 0
M  V30 17207 C 1647.22 -4.77759 -3.40534 0
M  V30 17208 C 1649.57 -5.32843 -3.4097 0
M  V30 17209 C 1648.23 -5.73121 -3.42182 0
M  V30 17210 H 1647.5 -0.346475 -0.655008 0
M  V30 17211 H 1650.15 -1.45195 -1.24862 0
M  V30 17212 H 1648.46 -0.937212 -3.80426 0
M  V30 17213 H 1650.15 -1.32801 -3.78371 0
M  V30 17214 H 1646.74 -2.69017 -3.33658 0
M  V30 17215 H 1650.93 -3.67088 -3.34006 0
M  V30 17216 H 1646.18 -5.08293 -3.39777 0
M  V30 17217 H 1650.36 -6.07014 -3.41332 0
M  V30 17218 H 1647.98 -6.78029 -3.43774 0
M  V30 17219 N 1649.56 1.24734 -0.963288 0
M  V30 17220 C 1650.98 1.44897 -0.669103 0
M  V30 17221 C 1651.18 1.86185 0.770541 0
M  V30 17222 O 1650.23 1.99721 1.54492 0
M  V30 17223 C 1651.54 2.51425 -1.64943 0
M  V30 17224 C 1653.09 2.65256 -1.66157 0
M  V30 17225 C 1653.57 3.74977 -2.62976 0
M  V30 17226 N 1655.06 3.82399 -2.61391 0
M  V30 17227 C 1655.79 4.66809 -3.32981 0
M  V30 17228 N 1655.29 5.55441 -4.14073 0
M  V30 17229 N 1657.08 4.60851 -3.21827 0
M  V30 17230 H 1649.23 0.962292 -1.89351 0
M  V30 17231 H 1651.5 0.4843 -0.814958 0
M  V30 17232 H 1651.2 2.27965 -2.67815 0
M  V30 17233 H 1651.08 3.49503 -1.41872 0
M  V30 17234 H 1653.46 2.88077 -0.639978 0
M  V30 17235 H 1653.54 1.67551 -1.93288 0
M  V30 17236 H 1653.19 3.52907 -3.65266 0
M  V30 17237 H 1653.12 4.72187 -2.33125 0
M  V30 17238 H 1655.61 3.19048 -2.02527 0
M  V30 17239 H 1655.92 6.16798 -4.65597 0
M  V30 17240 H 1654.27 5.55121 -4.18169 0
M  V30 17241 H 1657.46 3.90621 -2.5794 0
M  V30 17242 H 1657.63 5.26411 -3.77883 0
M  V30 17243 N 1651.04 0.732878 1.39523 0
M  V30 17244 C 1651.97 0.0519358 2.29141 0
M  V30 17245 C 1652.98 -0.705687 1.4671 0
M  V30 17246 O 1654.17 -0.550202 1.69809 0
M  V30 17247 C 1651.27 -0.950691 3.25292 0
M  V30 17248 C 1650.44 -0.255028 4.36656 0
M  V30 17249 C 1649.5 -1.16546 5.13131 0
M  V30 17250 O 1648.53 -0.643742 5.65548 0
M  V30 17251 N 1649.73 -2.49534 5.24131 0
M  V30 17252 H 1652.5 0.8215 2.88221 0
M  V30 17253 H 1650.06 0.581924 1.5108 0
M  V30 17254 H 1652.05 -1.56232 3.73328 0
M  V30 17255 H 1650.62 -1.62148 2.67258 0
M  V30 17256 H 1649.84 0.537045 3.90525 0
M  V30 17257 H 1651.13 0.227162 5.08293 0
M  V30 17258 H 1650.53 -2.944 4.83058 0
M  V30 17259 H 1649.08 -3.05798 5.75613 0
M  V30 17260 N 1652.52 -1.50101 0.480349 0
M  V30 17261 C 1653.45 -2.31581 -0.298718 0
M  V30 17262 C 1654.43 -1.38905 -0.981798 0
M  V30 17263 O 1655.61 -1.67823 -0.977188 0
M  V30 17264 C 1652.74 -3.18891 -1.37571 0
M  V30 17265 C 1651.7 -4.20194 -0.813704 0
M  V30 17266 C 1651.02 -4.96302 -1.98968 0
M  V30 17267 C 1652.32 -5.21985 0.181295 0
M  V30 17268 H 1654.02 -2.96961 0.381349 0
M  V30 17269 H 1651.56 -1.42809 0.184842 0
M  V30 17270 H 1653.51 -3.74694 -1.92828 0
M  V30 17271 H 1652.24 -2.51414 -2.08467 0
M  V30 17272 H 1650.9 -3.65506 -0.283034 0
M  V30 17273 H 1650.55 -4.2529 -2.68584 0
M  V30 17274 H 1650.25 -5.64833 -1.61981 0
M  V30 17275 H 1651.77 -5.54943 -2.54698 0
M  V30 17276 H 1653.18 -5.72604 -0.28242 0
M  V30 17277 H 1651.58 -5.98289 0.465916 0
M  V30 17278 H 1652.65 -4.72162 1.10413 0
M  V30 17279 N 1653.99 -0.213323 -1.5615 0
M  V30 17280 C 1654.9 0.711703 -2.23544 0
M  V30 17281 C 1655.92 1.22027 -1.24038 0
M  V30 17282 O 1657.1 1.26361 -1.56828 0
M  V30 17283 C 1654.16 1.90645 -2.89578 0
M  V30 17284 C 1653.22 1.44066 -4.04405 0
M  V30 17285 C 1652.45 2.57846 -4.6728 0
M  V30 17286 O 1652.68 3.75781 -4.29121 0
M  V30 17287 O 1651.61 2.29518 -5.56422 0
M  V30 17288 H 1655.44 0.167635 -3.03237 0
M  V30 17289 H 1653.02 0.016771 -1.49391 0
M  V30 17290 H 1654.9 2.60435 -3.31288 0
M  V30 17291 H 1653.58 2.43877 -2.12851 0
M  V30 17292 H 1652.49 0.711024 -3.67281 0
M  V30 17293 H 1653.82 0.954809 -4.8285 0
M  V30 17294 N 1655.47 1.57485 0.0601405 0
M  V30 17295 C 1656.42 2.04487 1.07023 0
M  V30 17296 C 1657.39 0.927738 1.37776 0
M  V30 17297 O 1658.57 1.19621 1.48645 0
M  V30 17298 C 1655.71 2.50338 2.37539 0
M  V30 17299 C 1654.83 3.75717 2.13215 0
M  V30 17300 C 1653.96 4.10304 3.37378 0
M  V30 17301 C 1653 5.2869 3.0847 0
M  V30 17302 N 1652.14 5.58858 4.24996 0
M  V30 17303 H 1656.98 2.90544 0.662444 0
M  V30 17304 H 1654.52 1.43676 0.315515 0
M  V30 17305 H 1656.47 2.74978 3.13756 0
M  V30 17306 H 1655.1 1.67242 2.76098 0
M  V30 17307 H 1654.16 3.58348 1.27636 0
M  V30 17308 H 1655.47 4.62068 1.87869 0
M  V30 17309 H 1654.62 4.35907 4.21983 0
M  V30 17310 H 1653.36 3.22544 3.6581 0
M  V30 17311 H 1652.37 5.02871 2.22262 0
M  V30 17312 H 1653.59 6.18077 2.81349 0
M  V30 17313 H 1651.54 4.74058 4.53437 0
M  V30 17314 H 1651.45 6.39652 4.02965 0
M  V30 17315 H 1652.72 5.89019 5.10565 0
M  V30 17316 N 1656.95 -0.331789 1.54068 0
M  V30 17317 C 1658.2 -1.06818 1.71093 0
M  V30 17318 C 1658.51 -1.89438 0.487111 0
M  V30 17319 O 1659.72 -2.66105 0.538544 0
M  V30 17320 C 1658.17 -1.94853 3.02589 0
M  V30 17321 C 1657.78 -1.17384 4.32348 0
M  V30 17322 C 1659.53 -2.68278 3.28979 0
M  V30 17323 C 1657.43 -2.04518 5.54911 0
M  V30 17324 H 1656.36 -0.402501 0.63758 0
M  V30 17325 H 1659.01 -0.326918 1.80564 0
M  V30 17326 H 1657.4 -2.72845 2.87004 0
M  V30 17327 H 1658.57 -0.442208 4.58673 0
M  V30 17328 H 1656.89 -0.556775 4.12661 0
M  V30 17329 H 1659.48 -3.33762 4.1774 0
M  V30 17330 H 1659.83 -3.35476 2.46498 0
M  V30 17331 H 1660.36 -1.97353 3.45394 0
M  V30 17332 H 1657.1 -1.41842 6.3997 0
M  V30 17333 H 1656.62 -2.75438 5.32817 0
M  V30 17334 H 1658.3 -2.63297 5.91002 0
M  V30 17335 N 1658.43 -1.46001 -0.593424 0
M  V30 17336 C 1659.38 -1.55752 -1.70323 0
M  V30 17337 C 1660.35 -0.402466 -1.6115 0
M  V30 17338 O 1661.53 -0.617804 -1.80521 0
M  V30 17339 C 1658.67 -1.54362 -3.08653 0
M  V30 17340 C 1657.78 -2.80523 -3.28529 0
M  V30 17341 C 1656.92 -2.70709 -4.57045 0
M  V30 17342 C 1655.96 -3.91857 -4.70228 0
M  V30 17343 N 1655.09 -3.80494 -5.90059 0
M  V30 17344 H 1659.93 -2.50555 -1.61326 0
M  V30 17345 H 1657.47 -1.24313 -0.786425 0
M  V30 17346 H 1659.43 -1.51542 -3.88704 0
M  V30 17347 H 1658.06 -0.630986 -3.16573 0
M  V30 17348 H 1657.11 -2.93368 -2.42155 0
M  V30 17349 H 1658.42 -3.70341 -3.3414 0
M  V30 17350 H 1657.58 -2.65935 -5.45311 0
M  V30 17351 H 1656.32 -1.78513 -4.53855 0
M  V30 17352 H 1655.32 -3.96975 -3.80383 0
M  V30 17353 H 1656.55 -4.85136 -4.75205 0
M  V30 17354 H 1654.49 -2.91077 -5.87886 0
M  V30 17355 H 1654.41 -4.63958 -5.96891 0
M  V30 17356 H 1655.68 -3.79676 -6.80783 0
M  V30 17357 N 1659.91 0.83715 -1.33527 0
M  V30 17358 C 1661.13 1.62456 -1.28124 0
M  V30 17359 C 1661.55 1.88223 0.147499 0
M  V30 17360 O 1660.91 1.4636 1.09018 0
M  V30 17361 C 1660.96 2.97376 -2.05547 0
M  V30 17362 O 1660.68 2.7274 -3.42847 0
M  V30 17363 C 1662.18 3.91805 -2.07374 0
M  V30 17364 H 1659.4 0.505436 -0.441334 0
M  V30 17365 H 1661.94 1.04263 -1.75925 0
M  V30 17366 H 1660.1 3.52166 -1.61424 0
M  V30 17367 H 1660.51 3.58669 -3.82696 0
M  V30 17368 H 1661.99 4.83684 -2.65996 0
M  V30 17369 H 1662.46 4.26106 -1.06444 0
M  V30 17370 H 1663.07 3.42952 -2.51523 0
M  V30 17371 N 1661.38 1.17024 1.05561 0
M  V30 17372 C 1662.63 0.950769 1.77886 0
M  V30 17373 C 1662.95 -0.522005 1.88506 0
M  V30 17374 O 1664.15 -0.859582 2.57533 0
M  V30 17375 C 1662.61 1.65189 3.19751 0
M  V30 17376 C 1662.22 3.16294 3.17273 0
M  V30 17377 C 1663.96 1.51466 3.96558 0
M  V30 17378 C 1661.87 3.79111 4.53904 0
M  V30 17379 H 1660.8 0.352089 0.666745 0
M  V30 17380 H 1663.45 1.40237 1.18346 0
M  V30 17381 H 1661.83 1.12801 3.79594 0
M  V30 17382 H 1663 3.75585 2.66969 0
M  V30 17383 H 1661.32 3.29986 2.53966 0
M  V30 17384 H 1663.92 1.95772 4.97571 0
M  V30 17385 H 1664.26 0.46467 4.13699 0
M  V30 17386 H 1664.79 2.0105 3.43254 0
M  V30 17387 H 1661.53 4.84091 4.41969 0
M  V30 17388 H 1661.05 3.24606 5.04372 0
M  V30 17389 H 1662.73 3.81099 5.2285 0
M  V30 17390 N 1662.86 -1.24221 0.969889 0
M  V30 17391 C 1664.11 -1.91973 0.631725 0
M  V30 17392 C 1664.43 -1.76169 -0.836032 0
M  V30 17393 O 1663.7 -1.13459 -1.597 0
M  V30 17394 H 1662.28 -0.710497 0.230658 0
M  V30 17395 H 1664.94 -1.51069 1.23143 0
M  V30 17396 H 1664.04 -2.99606 0.874223 0
M  V30 17397 N 1664.34 -0.740267 -1.39132 0
M  V30 17398 C 1665.57 -0.299605 -2.05225 0
M  V30 17399 C 1665.99 1.05904 -1.55454 0
M  V30 17400 O 1665.35 1.67216 -0.700603 0
M  V30 17401 C 1665.4 -0.316792 -3.59206 0
M  V30 17402 O 1664.5 0.693786 -4.06522 0
M  V30 17403 H 1663.84 -0.135146 -0.650101 0
M  V30 17404 H 1666.37 -1.00766 -1.78065 0
M  V30 17405 H 1666.38 -0.163013 -4.07674 0
M  V30 17406 H 1665.06 -1.30814 -3.94792 0
M  V30 17407 H 1663.63 0.505712 -3.69455 0
M  V30 17408 N 1665.82 1.49844 -0.488302 0
M  V30 17409 C 1667.05 2.06819 0.0578807 0
M  V30 17410 C 1667.46 1.35018 1.31969 0
M  V30 17411 O 1666.82 0.424614 1.77492 0
M  V30 17412 C 1666.87 3.60005 0.328435 0
M  V30 17413 O 1666.59 4.29102 -0.883338 0
M  V30 17414 C 1668.09 4.33655 0.919675 0
M  V30 17415 H 1665.31 0.670837 -0.014775 0
M  V30 17416 H 1667.86 1.92792 -0.682022 0
M  V30 17417 H 1666.01 3.73777 1.0183 0
M  V30 17418 H 1666.42 5.206 -0.638414 0
M  V30 17419 H 1667.9 5.41753 1.05864 0
M  V30 17420 H 1668.38 3.95289 1.91424 0
M  V30 17421 H 1668.98 4.24457 0.267672 0
M  V30 17422 N 1667.3 0.221601 1.56034 0
M  V30 17423 C 1668.53 -0.414343 2.02402 0
M  V30 17424 C 1668.93 -1.5389 1.10066 0
M  V30 17425 O 1668.28 -1.83413 0.102587 0
M  V30 17426 C 1668.34 -1.00704 3.45107 0
M  V30 17427 C 1668 -0.0179259 4.56996 0
M  V30 17428 C 1669 0.782467 5.13978 0
M  V30 17429 C 1666.69 0.100842 5.02199 0
M  V30 17430 C 1668.68 1.68833 6.14633 0
M  V30 17431 C 1666.37 1.01024 6.02692 0
M  V30 17432 C 1667.36 1.80253 6.58785 0
M  V30 17433 O 1667.05 2.69664 7.57322 0
M  V30 17434 H 1666.78 -0.105645 0.667694 0
M  V30 17435 H 1669.34 0.335505 2.02641 0
M  V30 17436 H 1667.57 -1.80598 3.41937 0
M  V30 17437 H 1669.26 -1.5504 3.75123 0
M  V30 17438 H 1670.02 0.70116 4.79905 0
M  V30 17439 H 1665.9 -0.505723 4.58218 0
M  V30 17440 H 1669.45 2.30718 6.58343 0
M  V30 17441 H 1665.34 1.09256 6.36187 0
M  V30 17442 H 1666.11 2.6374 7.74844 0
M  V30 17443 N 1668.77 -1.57515 -0.0517878 0
M  V30 17444 C 1669.71 -2.00388 -1.09178 0
M  V30 17445 C 1670.69 -0.88418 -1.36459 0
M  V30 17446 O 1671.87 -1.14816 -1.49498 0
M  V30 17447 C 1669 -2.35764 -2.43173 0
M  V30 17448 C 1668.04 -3.57947 -2.31898 0
M  V30 17449 S 1668.88 -5.08 -1.69399 0
M  V30 17450 C 1670.03 -5.46597 -3.04931 0
M  V30 17451 H 1670.26 -2.88287 -0.726501 0
M  V30 17452 H 1667.8 -1.52178 -0.261014 0
M  V30 17453 H 1669.76 -2.56818 -3.20241 0
M  V30 17454 H 1668.42 -1.48358 -2.76855 0
M  V30 17455 H 1667.61 -3.80281 -3.30761 0
M  V30 17456 H 1667.21 -3.36626 -1.62969 0
M  V30 17457 H 1669.5 -5.45891 -4.01259 0
M  V30 17458 H 1670.45 -6.47173 -2.87355 0
M  V30 17459 H 1670.85 -4.74072 -3.06457 0
M  V30 17460 N 1670.25 0.323614 -1.54242 0
M  V30 17461 C 1671.22 1.38126 -1.82904 0
M  V30 17462 C 1672.22 1.44723 -0.700853 0
M  V30 17463 O 1673.41 1.44751 -0.969161 0
M  V30 17464 C 1670.54 2.76858 -1.98903 0
M  V30 17465 H 1671.73 1.13966 -2.77402 0
M  V30 17466 H 1669.28 0.559094 -1.45958 0
M  V30 17467 H 1670.02 3.06274 -1.06616 0
M  V30 17468 H 1669.8 2.73464 -2.80998 0
M  V30 17469 H 1671.29 3.53372 -2.22526 0
M  V30 17470 N 1671.73 1.46313 0.585673 0
M  V30 17471 C 1672.69 1.56239 1.67696 0
M  V30 17472 C 1673.69 0.439808 1.54668 0
M  V30 17473 O 1674.88 0.704019 1.5934 0
M  V30 17474 C 1672.02 1.47986 3.07104 0
M  V30 17475 H 1673.21 2.53492 1.60255 0
M  V30 17476 H 1670.76 1.3408 0.803264 0
M  V30 17477 H 1671.5 0.520007 3.20104 0
M  V30 17478 H 1671.28 2.2943 3.17969 0
M  V30 17479 H 1672.77 1.5801 3.86552 0
M  V30 17480 N 1673.21 -0.830057 1.33969 0
M  V30 17481 C 1674.43 -1.62294 1.29133 0
M  V30 17482 C 1674.86 -1.87627 -0.133253 0
M  V30 17483 O 1674.22 -1.44669 -1.09272 0
M  V30 17484 C 1674.27 -2.94508 2.0808 0
M  V30 17485 O 1673.37 -3.86239 1.44544 0
M  V30 17486 H 1672.71 -0.493865 0.443839 0
M  V30 17487 H 1675.24 -1.03202 1.76665 0
M  V30 17488 H 1675.25 -3.44133 2.19173 0
M  V30 17489 H 1673.93 -2.75392 3.1166 0
M  V30 17490 H 1672.5 -3.44743 1.42151 0
M  V30 17491 N 1674.69 -1.17582 -1.04939 0
M  V30 17492 C 1675.94 -0.96387 -1.77634 0
M  V30 17493 C 1676.26 0.508548 -1.88252 0
M  V30 17494 O 1675.53 1.36913 -1.40113 0
M  V30 17495 H 1674.11 -0.353636 -0.65799 0
M  V30 17496 H 1676.77 -1.48104 -1.26693 0
M  V30 17497 H 1675.86 -1.39438 -2.79219 0
M  V30 17498 N 1676.17 1.23705 -0.976463 0
M  V30 17499 C 1677.1 2.2734 -0.532809 0
M  V30 17500 C 1678.08 1.64523 0.432012 0
M  V30 17501 O 1679.26 1.9144 0.326233 0
M  V30 17502 C 1676.39 3.46887 0.169374 0
M  V30 17503 C 1675.35 4.22031 -0.712336 0
M  V30 17504 C 1674.67 5.34561 0.121838 0
M  V30 17505 C 1675.97 4.8244 -2.00123 0
M  V30 17506 H 1677.67 2.64702 -1.39904 0
M  V30 17507 H 1675.21 1.27244 -0.674156 0
M  V30 17508 H 1677.16 4.18529 0.491028 0
M  V30 17509 H 1675.89 3.08574 1.07002 0
M  V30 17510 H 1674.55 3.522 -1.01739 0
M  V30 17511 H 1674.2 4.92489 1.0229 0
M  V30 17512 H 1673.9 5.85758 -0.464962 0
M  V30 17513 H 1675.42 6.09027 0.437963 0
M  V30 17514 H 1676.83 5.46111 -1.7446 0
M  V30 17515 H 1675.23 5.43906 -2.53548 0
M  V30 17516 H 1676.3 4.03405 -2.69059 0
M  V30 17517 N 1677.64 0.747635 1.38738 0
M  V30 17518 C 1678.59 0.105258 2.32362 0
M  V30 17519 C 1679.59 -0.711921 1.53714 0
M  V30 17520 O 1680.79 -0.611687 1.69288 0
M  V30 17521 H 1677.17 0.0152406 0.751846 0
M  V30 17522 H 1679.14 0.911057 2.84152 0
M  V30 17523 C 1677.89 -0.778221 3.38879 0
M  V30 17524 H 1677.21 -0.158806 3.99484 0
M  V30 17525 H 1678.65 -1.19509 4.06809 0
M  V30 17526 C 1677.11 -1.91819 2.76961 0
M  V30 17527 O 1677.64 -3.01187 2.65799 0
M  V30 17528 N 1675.84 -1.71143 2.34859 0
M  V30 17529 H 1675.39 -0.821885 2.44137 0
M  V30 17530 H 1675.35 -2.47588 1.93772 0
M  V30 17531 N 1679.12 -1.49583 0.496242 0
M  V30 17532 C 1680.4 -1.95275 -0.112751 0
M  V30 17533 C 1680.78 -1.43758 -1.54586 0
M  V30 17534 O 1680.13 -0.649285 -2.19081 0
M  V30 17535 C 1680.34 -3.48987 -0.0302774 0
M  V30 17536 C 1681.68 -4.24097 -0.206595 0
M  V30 17537 O 1682.71 -3.56043 -0.105689 0
M  V30 17538 O 1681.57 -5.44936 -0.413172 0
M  V30 17539 H 1678.66 -0.821183 -0.0979145 0
M  V30 17540 H 1681.21 -1.60248 0.558441 0
M  V30 17541 H 1679.98 -3.79104 0.969322 0
M  V30 17542 H 1679.6 -3.90618 -0.741825 0
M  V30 17543 N 1680.6 -0.229873 -1.55915 0
M  V30 17544 C 1681.82 0.4072 -2.03363 0
M  V30 17545 C 1682.25 1.5197 -1.10845 0
M  V30 17546 O 1681.61 1.81034 -0.098175 0
M  V30 17547 C 1681.66 0.908268 -3.48974 0
M  V30 17548 O 1680.76 2.01907 -3.59593 0
M  V30 17549 H 1680.1 0.091091 -0.657722 0
M  V30 17550 H 1682.63 -0.350947 -2.01568 0
M  V30 17551 H 1682.64 1.21593 -3.8946 0
M  V30 17552 H 1681.32 0.0940655 -4.15794 0
M  V30 17553 H 1679.89 1.71741 -3.30998 0
M  V30 17554 N 1682.08 1.5754 0.0434337 0
M  V30 17555 C 1683.31 1.92856 0.749268 0
M  V30 17556 C 1683.72 0.828405 1.69655 0
M  V30 17557 O 1683.08 -0.196294 1.81441 0
M  V30 17558 C 1683.13 3.28052 1.51869 0
M  V30 17559 O 1682.85 4.3384 0.609442 0
M  V30 17560 C 1684.35 3.77562 2.32298 0
M  V30 17561 H 1681.57 0.636818 0.211433 0
M  V30 17562 H 1684.11 2.04499 0.00524119 0
M  V30 17563 H 1682.27 3.1785 2.21472 0
M  V30 17564 H 1682.68 5.11794 1.1475 0
M  V30 17565 H 1684.16 4.7471 2.817 0
M  V30 17566 H 1684.63 3.08015 3.13087 0
M  V30 17567 H 1685.24 3.908 1.67796 0
M  V30 17568 N 1683.56 -0.31543 1.54411 0
M  V30 17569 C 1684.79 -1.07018 1.76722 0
M  V30 17570 C 1685.19 -1.81921 0.519754 0
M  V30 17571 O 1684.54 -1.76201 -0.519501 0
M  V30 17572 C 1684.6 -2.10781 2.91224 0
M  V30 17573 C 1684.26 -1.55204 4.29838 0
M  V30 17574 C 1685.26 -0.989568 5.10395 0
M  V30 17575 C 1682.94 -1.59201 4.76403 0
M  V30 17576 C 1684.94 -0.474466 6.35632 0
M  V30 17577 C 1682.63 -1.07304 6.01605 0
M  V30 17578 C 1683.62 -0.51522 6.81054 0
M  V30 17579 O 1683.31 -0.00407259 8.039 0
M  V30 17580 H 1683.04 -0.323799 0.593406 0
M  V30 17581 H 1685.6 -0.364708 2.02136 0
M  V30 17582 H 1683.83 -2.84968 2.614 0
M  V30 17583 H 1685.52 -2.72043 3.01243 0
M  V30 17584 H 1686.28 -0.951691 4.75571 0
M  V30 17585 H 1682.16 -2.01559 4.14602 0
M  V30 17586 H 1685.71 -0.0384139 6.97589 0
M  V30 17587 H 1681.6 -1.10802 6.35919 0
M  V30 17588 H 1682.37 -0.118732 8.18414 0
M  V30 17589 N 1685.03 -1.46622 -0.577906 0
M  V30 17590 C 1686.31 -1.42657 -1.33822 0
M  V30 17591 C 1686.69 -0.11256 -2.108 0
M  V30 17592 O 1686.04 0.905903 -2.09775 0
M  V30 17593 C 1686.25 -2.65927 -2.26018 0
M  V30 17594 C 1687.6 -3.12277 -2.87695 0
M  V30 17595 O 1688.62 -2.66509 -2.36329 0
M  V30 17596 O 1687.48 -3.91786 -3.81007 0
M  V30 17597 H 1684.57 -0.567544 -0.601517 0
M  V30 17598 H 1687.12 -1.58795 -0.598524 0
M  V30 17599 H 1685.89 -3.53116 -1.68597 0
M  V30 17600 H 1685.52 -2.52272 -3.07318 0
M  V30 17601 N 1686.51 0.822941 -1.34408 0
M  V30 17602 C 1687.46 1.93383 -1.25982 0
M  V30 17603 C 1688.43 1.6555 -0.13506 0
M  V30 17604 O 1689.61 1.88164 -0.316033 0
M  V30 17605 C 1686.75 3.29646 -1.02117 0
M  V30 17606 C 1685.87 3.69772 -2.23366 0
M  V30 17607 C 1685 4.94982 -1.92784 0
M  V30 17608 C 1684.04 5.2769 -3.10177 0
M  V30 17609 N 1683.18 6.44078 -2.79479 0
M  V30 17610 H 1688.02 1.99922 -2.20987 0
M  V30 17611 H 1685.56 0.978105 -1.0987 0
M  V30 17612 H 1687.51 4.08173 -0.863175 0
M  V30 17613 H 1686.14 3.2262 -0.107803 0
M  V30 17614 H 1685.2 2.86637 -2.50086 0
M  V30 17615 H 1686.51 3.89914 -3.11076 0
M  V30 17616 H 1685.66 5.81297 -1.73721 0
M  V30 17617 H 1684.4 4.76843 -1.02335 0
M  V30 17618 H 1683.41 4.39873 -3.29837 0
M  V30 17619 H 1684.63 5.47769 -4.01405 0
M  V30 17620 H 1682.58 6.27394 -1.91605 0
M  V30 17621 H 1682.49 6.64392 -3.60721 0
M  V30 17622 H 1683.76 7.33462 -2.63919 0
M  V30 17623 N 1687.99 1.18137 1.04314 0
M  V30 17624 C 1689.24 0.976648 1.77734 0
M  V30 17625 C 1689.57 -0.492756 1.87844 0
M  V30 17626 O 1688.84 -1.36586 1.38472 0
M  V30 17627 C 1689.13 1.62911 3.21142 0
M  V30 17628 C 1688.98 3.1712 3.1899 0
M  V30 17629 C 1690.3 1.34029 4.19195 0
M  V30 17630 H 1687.42 0.356217 0.645197 0
M  V30 17631 H 1690.06 1.45767 1.21868 0
M  V30 17632 H 1688.21 1.22009 3.68844 0
M  V30 17633 H 1689.88 3.67139 2.79296 0
M  V30 17634 H 1688.13 3.4941 2.57089 0
M  V30 17635 H 1688.8 3.57907 4.20245 0
M  V30 17636 H 1691.27 1.69463 3.80028 0
M  V30 17637 H 1690.15 1.82253 5.1776 0
M  V30 17638 H 1690.41 0.262712 4.41319 0
M  V30 17639 N 1689.47 -1.23186 0.98301 0
M  V30 17640 C 1690.72 -1.91292 0.652051 0
M  V30 17641 C 1691.04 -1.77046 -0.8173 0
M  V30 17642 O 1690.31 -1.15146 -1.58487 0
M  V30 17643 H 1688.89 -0.708011 0.23818 0
M  V30 17644 H 1691.55 -1.49754 1.24739 0
M  V30 17645 H 1690.65 -2.98662 0.905951 0
M  V30 17646 N 1690.95 -0.754982 -1.38339 0
M  V30 17647 C 1691.89 -0.128193 -2.30444 0
M  V30 17648 C 1692.86 0.70813 -1.50249 0
M  V30 17649 O 1694.05 0.663969 -1.78875 0
M  V30 17650 C 1691.19 0.757921 -3.36674 0
M  V30 17651 C 1690.3 -0.093181 -4.31899 0
M  V30 17652 C 1689.44 0.796067 -5.25201 0
M  V30 17653 C 1688.48 -0.0585854 -6.12072 0
M  V30 17654 N 1687.61 0.7877 -6.97667 0
M  V30 17655 H 1692.45 -0.919204 -2.83469 0
M  V30 17656 H 1689.99 -0.464921 -1.3956 0
M  V30 17657 H 1691.95 1.28632 -3.96875 0
M  V30 17658 H 1690.58 1.5147 -2.85055 0
M  V30 17659 H 1689.63 -0.73922 -3.73148 0
M  V30 17660 H 1690.94 -0.753146 -4.93081 0
M  V30 17661 H 1690.1 1.39158 -5.90525 0
M  V30 17662 H 1688.83 1.48976 -4.64389 0
M  V30 17663 H 1687.84 -0.666754 -5.45742 0
M  V30 17664 H 1689.06 -0.749361 -6.74953 0
M  V30 17665 H 1687.01 1.46632 -6.39402 0
M  V30 17666 H 1686.93 0.184662 -7.55774 0
M  V30 17667 H 1688.2 1.36814 -7.674 0
M  V30 17668 N 1692.42 1.49318 -0.504168 0
M  V30 17669 C 1693.65 2.06869 0.0359415 0
M  V30 17670 C 1694.07 1.3641 1.30529 0
M  V30 17671 O 1693.42 0.443416 1.77031 0
M  V30 17672 C 1693.48 3.60333 0.290233 0
M  V30 17673 O 1693.2 4.28141 -0.928801 0
M  V30 17674 C 1694.7 4.34606 0.873628 0
M  V30 17675 H 1691.92 0.670643 -0.0218893 0
M  V30 17676 H 1694.46 1.92058 -0.702432 0
M  V30 17677 H 1692.62 3.74836 0.978594 0
M  V30 17678 H 1693.03 5.19894 -0.693595 0
M  V30 17679 H 1694.5 5.42846 1.00112 0
M  V30 17680 H 1694.98 3.97297 1.87221 0
M  V30 17681 H 1695.59 4.24717 0.222638 0
M  V30 17682 N 1693.9 0.238138 1.5579 0
M  V30 17683 C 1694.85 -0.678829 2.1766 0
M  V30 17684 C 1695.84 -1.14558 1.12984 0
M  V30 17685 O 1697.03 -1.09681 1.38921 0
M  V30 17686 C 1694.16 -1.8794 2.87286 0
M  V30 17687 C 1693.24 -1.43156 3.99208 0
M  V30 17688 N 1693.63 -0.697374 5.00969 0
M  V30 17689 C 1691.93 -1.71755 4.11602 0
M  V30 17690 C 1692.63 -0.466696 5.79825 0
M  V30 17691 N 1691.61 -1.02832 5.33785 0
M  V30 17692 H 1695.41 -0.109646 2.93695 0
M  V30 17693 H 1692.93 0.0400828 1.62351 0
M  V30 17694 H 1694.92 -2.54724 3.30033 0
M  V30 17695 H 1693.58 -2.45289 2.12752 0
M  V30 17696 H 1694.59 -0.348366 5.16727 0
M  V30 17697 H 1691.27 -2.30305 3.48232 0
M  V30 17698 H 1692.66 0.118813 6.71795 0
M  V30 17699 N 1695.38 -1.57561 -0.0350783 0
M  V30 17700 C 1696.63 -1.88177 -0.726105 0
M  V30 17701 C 1696.94 -0.835856 -1.76841 0
M  V30 17702 O 1698.15 -1.03105 -2.51161 0
M  V30 17703 C 1696.6 -3.33924 -1.34249 0
M  V30 17704 C 1696.21 -4.46732 -0.336845 0
M  V30 17705 C 1697.96 -3.73696 -2.01374 0
M  V30 17706 C 1695.86 -5.83536 -0.961234 0
M  V30 17707 H 1694.79 -0.702082 -0.274948 0
M  V30 17708 H 1697.44 -1.83489 0.0197081 0
M  V30 17709 H 1695.83 -3.33337 -2.13781 0
M  V30 17710 H 1697 -4.58777 0.431323 0
M  V30 17711 H 1695.32 -4.15753 0.231983 0
M  V30 17712 H 1697.91 -4.7322 -2.48931 0
M  V30 17713 H 1698.26 -3.05379 -2.8293 0
M  V30 17714 H 1698.79 -3.76431 -1.28626 0
M  V30 17715 H 1695.53 -6.55238 -0.185217 0
M  V30 17716 H 1695.05 -5.75223 -1.69938 0
M  V30 17717 H 1696.73 -6.30071 -1.47035 0
M  V30 17718 N 1696.86 0.307236 -1.54576 0
M  V30 17719 C 1697.81 1.3787 -1.85096 0
M  V30 17720 C 1698.78 1.5066 -0.69935 0
M  V30 17721 O 1699.96 1.65618 -0.947373 0
M  V30 17722 C 1697.1 2.73976 -2.09836 0
M  V30 17723 C 1696.21 2.69687 -3.3748 0
M  V30 17724 C 1695.35 3.97746 -3.52096 0
M  V30 17725 C 1694.39 3.87829 -4.73556 0
M  V30 17726 N 1693.52 5.07651 -4.8501 0
M  V30 17727 H 1698.36 1.11144 -2.76498 0
M  V30 17728 H 1695.9 0.537696 -1.36921 0
M  V30 17729 H 1697.86 3.53121 -2.22174 0
M  V30 17730 H 1696.49 2.98977 -1.21707 0
M  V30 17731 H 1695.54 1.82441 -3.33795 0
M  V30 17732 H 1696.85 2.58247 -4.26743 0
M  V30 17733 H 1696.01 4.85327 -3.64065 0
M  V30 17734 H 1694.75 4.12012 -2.60955 0
M  V30 17735 H 1693.75 2.98633 -4.61626 0
M  V30 17736 H 1694.98 3.75114 -5.66098 0
M  V30 17737 H 1692.92 5.22393 -3.9679 0
M  V30 17738 H 1692.84 4.9861 -5.68264 0
M  V30 17739 H 1694.11 5.969 -5.01328 0
M  V30 17740 N 1698.34 1.46926 0.570122 0
M  V30 17741 C 1699.3 1.58009 1.6603 0
M  V30 17742 C 1700.3 0.456188 1.54193 0
M  V30 17743 O 1701.49 0.720879 1.58584 0
M  V30 17744 C 1698.62 1.51235 3.05517 0
M  V30 17745 H 1699.81 2.55178 1.57558 0
M  V30 17746 H 1697.37 1.34924 0.788998 0
M  V30 17747 H 1698.1 0.553929 3.19534 0
M  V30 17748 H 1697.89 2.3279 3.15518 0
M  V30 17749 H 1699.38 1.62101 3.84854 0
M  V30 17750 N 1699.82 -0.815801 1.34842 0
M  V30 17751 C 1700.75 -1.94193 1.29659 0
M  V30 17752 C 1701.73 -1.69221 0.172703 0
M  V30 17753 O 1702.91 -1.90716 0.366203 0
M  V30 17754 C 1700.04 -3.30777 1.0585 0
M  V30 17755 C 1699 -3.70207 2.1478 0
M  V30 17756 C 1698.32 -5.04852 1.76149 0
M  V30 17757 C 1699.62 -3.81553 3.56671 0
M  V30 17758 H 1701.32 -1.98787 2.23884 0
M  V30 17759 H 1698.86 -0.955013 1.07775 0
M  V30 17760 H 1700.81 -4.0915 1.00866 0
M  V30 17761 H 1699.54 -3.265 0.0806804 0
M  V30 17762 H 1698.2 -2.94113 2.18845 0
M  V30 17763 H 1697.85 -4.9707 0.770099 0
M  V30 17764 H 1697.55 -5.32205 2.49062 0
M  V30 17765 H 1699.07 -5.85676 1.72674 0
M  V30 17766 H 1700.48 -4.50181 3.54979 0
M  V30 17767 H 1698.88 -4.20367 4.28266 0
M  V30 17768 H 1699.95 -2.83356 3.93494 0
M  V30 17769 N 1701.29 -1.18689 -1.03686 0
M  V30 17770 C 1702.26 -0.919415 -2.09951 0
M  V30 17771 C 1703.26 0.0968042 -1.60508 0
M  V30 17772 O 1704.45 -0.137062 -1.7366 0
M  V30 17773 C 1701.58 -0.380204 -3.38773 0
M  V30 17774 H 1702.77 -1.86178 -2.35112 0
M  V30 17775 H 1700.32 -0.999435 -1.20171 0
M  V30 17776 H 1701.06 0.568586 -3.19277 0
M  V30 17777 H 1700.84 -1.11281 -3.75977 0
M  V30 17778 H 1702.33 -0.211891 -4.17062 0
M  V30 17779 N 1702.77 1.22662 -0.989529 0
M  V30 17780 C 1704.05 1.86816 -0.579566 0
M  V30 17781 C 1704.43 1.88858 0.943188 0
M  V30 17782 O 1703.78 1.37668 1.82372 0
M  V30 17783 C 1703.99 3.27863 -1.19612 0
M  V30 17784 C 1705.33 4.04384 -1.29454 0
M  V30 17785 O 1706.36 3.37116 -1.15026 0
M  V30 17786 O 1705.22 5.24789 -1.52508 0
M  V30 17787 H 1702.31 0.803332 -0.196434 0
M  V30 17788 H 1704.86 1.30467 -1.08519 0
M  V30 17789 H 1703.63 3.20993 -2.23784 0
M  V30 17790 H 1703.25 3.91813 -0.675875 0
M  V30 17791 N 1704.25 0.762308 1.37937 0
M  V30 17792 C 1705.5 0.322369 1.99918 0
M  V30 17793 C 1705.82 -1.09843 1.60514 0
M  V30 17794 O 1705.08 -1.76837 0.83829 0
M  V30 17795 C 1705.38 0.402558 3.55126 0
M  V30 17796 C 1705.04 1.78025 4.14268 0
M  V30 17797 C 1703.71 2.15727 4.30134 0
M  V30 17798 C 1706.06 2.68359 4.46803 0
M  V30 17799 C 1703.39 3.43217 4.75835 0
M  V30 17800 C 1705.74 3.95248 4.93925 0
M  V30 17801 C 1704.4 4.33007 5.07997 0
M  V30 17802 H 1703.67 0.117963 0.73155 0
M  V30 17803 H 1706.32 0.974491 1.64851 0
M  V30 17804 H 1704.62 -0.333119 3.90381 0
M  V30 17805 H 1706.32 0.0436064 4.00976 0
M  V30 17806 H 1702.91 1.4772 4.02339 0
M  V30 17807 H 1707.1 2.40493 4.34139 0
M  V30 17808 H 1702.35 3.72379 4.84916 0
M  V30 17809 H 1706.53 4.6538 5.18068 0
M  V30 17810 H 1704.15 5.31856 5.4317 0
M  V30 17811 N 1705.73 -1.49049 0.51208 0
M  V30 17812 C 1706.69 -2.27838 -0.249491 0
M  V30 17813 C 1707.69 -1.34321 -0.884004 0
M  V30 17814 O 1708.88 -1.57379 -0.74682 0
M  V30 17815 C 1706.01 -3.12637 -1.35908 0
M  V30 17816 H 1707.21 -2.96625 0.442029 0
M  V30 17817 H 1704.76 -1.53996 0.267406 0
M  V30 17818 H 1705.49 -2.48441 -2.0844 0
M  V30 17819 H 1705.28 -3.81408 -0.909427 0
M  V30 17820 H 1706.77 -3.72117 -1.89523 0
M  V30 17821 N 1707.21 -0.246397 -1.55662 0
M  V30 17822 C 1708.14 0.693998 -2.17391 0
M  V30 17823 C 1709.12 1.17321 -1.12581 0
M  V30 17824 O 1710.3 1.25144 -1.40965 0
M  V30 17825 C 1707.43 1.94311 -2.77418 0
M  V30 17826 C 1706.47 1.60181 -3.95277 0
M  V30 17827 S 1707.31 0.704877 -5.30841 0
M  V30 17828 C 1708.46 1.96301 -5.94321 0
M  V30 17829 H 1708.7 0.169407 -2.96817 0
M  V30 17830 H 1706.23 -0.0308583 -1.54369 0
M  V30 17831 H 1708.19 2.66022 -3.12638 0
M  V30 17832 H 1706.85 2.43883 -1.97939 0
M  V30 17833 H 1706.04 2.53053 -4.35867 0
M  V30 17834 H 1705.64 0.965141 -3.61332 0
M  V30 17835 H 1707.93 2.91031 -6.11806 0
M  V30 17836 H 1708.88 1.6006 -6.89773 0
M  V30 17837 H 1709.29 2.11487 -5.23387 0
M  V30 17838 N 1708.68 1.57577 0.026722 0
M  V30 17839 C 1709.63 2.06711 1.02661 0
M  V30 17840 C 1710.6 0.956754 1.35777 0
M  V30 17841 O 1711.79 1.22747 1.46074 0
M  V30 17842 C 1708.93 2.55321 2.32175 0
M  V30 17843 C 1708.04 3.80155 2.05197 0
M  V30 17844 C 1707.17 4.17368 3.28599 0
M  V30 17845 C 1706.21 5.35114 2.97186 0
M  V30 17846 N 1705.35 5.67747 4.13046 0
M  V30 17847 H 1710.19 2.91884 0.600666 0
M  V30 17848 H 1707.73 1.44313 0.284968 0
M  V30 17849 H 1709.68 2.81572 3.07853 0
M  V30 17850 H 1708.31 1.73061 2.72488 0
M  V30 17851 H 1707.37 3.60975 1.20006 0
M  V30 17852 H 1708.68 4.65949 1.78026 0
M  V30 17853 H 1707.83 4.4476 4.12642 0
M  V30 17854 H 1706.57 3.30231 3.58886 0
M  V30 17855 H 1705.58 5.07473 2.11545 0
M  V30 17856 H 1706.8 6.23906 2.68175 0
M  V30 17857 H 1704.75 4.83569 4.4328 0
M  V30 17858 H 1704.66 6.48056 3.89307 0
M  V30 17859 H 1705.93 5.99717 4.97956 0
M  V30 17860 N 1710.16 -0.299034 1.54737 0
M  V30 17861 C 1711.09 -1.37358 1.88826 0
M  V30 17862 C 1712.07 -1.52802 0.747367 0
M  V30 17863 O 1713.26 -1.66277 1.00327 0
M  V30 17864 C 1710.39 -2.73746 2.13729 0
M  V30 17865 C 1709.34 -2.73065 3.29575 0
M  V30 17866 C 1708.67 -4.12761 3.39901 0
M  V30 17867 C 1709.97 -2.34631 4.66632 0
M  V30 17868 H 1711.66 -1.09077 2.78824 0
M  V30 17869 H 1709.21 -0.523276 1.34156 0
M  V30 17870 H 1711.16 -3.49006 2.36162 0
M  V30 17871 H 1709.88 -3.03556 1.20504 0
M  V30 17872 H 1708.54 -2.00261 3.07068 0
M  V30 17873 H 1708.19 -4.39751 2.44189 0
M  V30 17874 H 1707.89 -4.13205 4.17774 0
M  V30 17875 H 1709.42 -4.89797 3.64597 0
M  V30 17876 H 1710.83 -2.99608 4.88782 0
M  V30 17877 H 1709.23 -2.46285 5.47233 0
M  V30 17878 H 1710.3 -1.29759 4.67216 0
M  V30 17879 N 1711.64 -1.47227 -0.562322 0
M  V30 17880 C 1712.57 -1.53865 -1.68526 0
M  V30 17881 C 1713.55 -0.391166 -1.57825 0
M  V30 17882 O 1714.73 -0.598238 -1.78755 0
M  V30 17883 C 1711.86 -1.43638 -3.06734 0
M  V30 17884 C 1710.91 -2.62824 -3.35895 0
M  V30 17885 S 1711.74 -4.25054 -3.25714 0
M  V30 17886 C 1712.9 -4.17372 -4.66424 0
M  V30 17887 H 1713.13 -2.48869 -1.6264 0
M  V30 17888 H 1710.66 -1.35362 -0.74273 0
M  V30 17889 H 1712.62 -1.38425 -3.86457 0
M  V30 17890 H 1711.28 -0.500271 -3.1009 0
M  V30 17891 H 1710.47 -2.51718 -4.3664 0
M  V30 17892 H 1710.08 -2.65133 -2.63782 0
M  V30 17893 H 1712.37 -3.8531 -5.57263 0
M  V30 17894 H 1713.31 -5.18184 -4.82587 0
M  V30 17895 H 1713.72 -3.48309 -4.44231 0
M  V30 17896 N 1713.12 0.808639 -1.35273 0
M  V30 17897 C 1714.39 1.55238 -1.18998 0
M  V30 17898 C 1714.77 2.09824 0.231723 0
M  V30 17899 O 1714.12 1.92252 1.23497 0
M  V30 17900 C 1714.33 2.66252 -2.25634 0
M  V30 17901 C 1715.68 3.34646 -2.61338 0
M  V30 17902 O 1716.7 2.76521 -2.24532 0
M  V30 17903 O 1715.56 4.39644 -3.24615 0
M  V30 17904 H 1712.66 0.6858 -0.462176 0
M  V30 17905 H 1715.2 0.848777 -1.46949 0
M  V30 17906 H 1713.98 2.23774 -3.21 0
M  V30 17907 H 1713.6 3.4425 -1.98941 0
M  V30 17908 N 1714.6 1.19237 1.03055 0
M  V30 17909 C 1715.53 0.886348 2.11368 0
M  V30 17910 C 1716.54 -0.120256 1.62355 0
M  V30 17911 O 1717.73 0.108934 1.78167 0
M  V30 17912 C 1714.83 0.304819 3.37526 0
M  V30 17913 C 1714 1.35957 4.15734 0
M  V30 17914 C 1713.06 0.791885 5.20207 0
M  V30 17915 O 1712.09 1.46916 5.49913 0
M  V30 17916 N 1713.29 -0.40564 5.79081 0
M  V30 17917 H 1716.06 1.81867 2.38211 0
M  V30 17918 H 1713.62 1.09414 1.19332 0
M  V30 17919 H 1715.61 -0.0887629 4.04603 0
M  V30 17920 H 1714.18 -0.531744 3.08044 0
M  V30 17921 H 1713.4 1.92806 3.43831 0
M  V30 17922 H 1714.69 2.07034 4.64773 0
M  V30 17923 H 1714.08 -0.973423 5.57262 0
M  V30 17924 H 1712.64 -0.741021 6.47574 0
M  V30 17925 N 1716.07 -1.22136 0.99602 0
M  V30 17926 C 1717.01 -2.22793 0.493816 0
M  V30 17927 C 1717.99 -1.56318 -0.447601 0
M  V30 17928 O 1719.17 -1.84784 -0.372419 0
M  V30 17929 C 1716.3 -3.37509 -0.283763 0
M  V30 17930 C 1715.34 -4.222 0.60411 0
M  V30 17931 S 1716.18 -4.9424 2.06125 0
M  V30 17932 C 1717.33 -6.12394 1.29325 0
M  V30 17933 H 1717.56 -2.65047 1.34675 0
M  V30 17934 H 1715.1 -1.31862 0.803237 0
M  V30 17935 H 1717.06 -4.04023 -0.726346 0
M  V30 17936 H 1715.72 -2.93757 -1.11201 0
M  V30 17937 H 1714.91 -5.04 0.00565269 0
M  V30 17938 H 1714.51 -3.60835 0.983588 0
M  V30 17939 H 1716.8 -6.75161 0.5625 0
M  V30 17940 H 1717.75 -6.76657 2.08664 0
M  V30 17941 H 1718.15 -5.58728 0.805166 0
M  V30 17942 N 1717.55 -0.769612 -1.37531 0
M  V30 17943 C 1718.5 -0.152627 -2.30295 0
M  V30 17944 C 1719.47 0.692154 -1.50992 0
M  V30 17945 O 1720.65 0.64496 -1.79569 0
M  V30 17946 C 1717.79 0.72217 -3.37459 0
M  V30 17947 C 1716.91 -0.138985 -4.31776 0
M  V30 17948 C 1716.04 0.740317 -5.26016 0
M  V30 17949 C 1715.08 -0.1235 -6.11975 0
M  V30 17950 N 1714.22 0.713658 -6.98464 0
M  V30 17951 H 1719.06 -0.949218 -2.82478 0
M  V30 17952 H 1716.6 -0.479697 -1.39059 0
M  V30 17953 H 1718.55 1.24415 -3.98217 0
M  V30 17954 H 1717.18 1.48438 -2.86646 0
M  V30 17955 H 1716.24 -0.778756 -3.72343 0
M  V30 17956 H 1717.55 -0.805402 -4.92255 0
M  V30 17957 H 1716.7 1.32887 -5.91968 0
M  V30 17958 H 1715.44 1.44042 -4.65943 0
M  V30 17959 H 1714.45 -0.7246 -5.45004 0
M  V30 17960 H 1715.67 -0.820907 -6.7412 0
M  V30 17961 H 1713.62 1.39842 -6.40921 0
M  V30 17962 H 1713.53 0.104492 -7.55928 0
M  V30 17963 H 1714.8 1.28667 -7.68808 0
M  V30 17964 N 1719.03 1.48775 -0.519977 0
M  V30 17965 C 1720.26 2.06595 0.013978 0
M  V30 17966 C 1720.67 1.37819 1.29624 0
M  V30 17967 O 1720.01 0.456315 1.77942 0
M  V30 17968 C 1720.07 3.58085 0.318694 0
M  V30 17969 C 1719.74 4.48669 -0.868623 0
M  V30 17970 C 1720.73 4.89048 -1.76432 0
M  V30 17971 C 1718.42 4.9071 -1.07279 0
M  V30 17972 C 1720.41 5.70226 -2.84818 0
M  V30 17973 C 1718.1 5.7166 -2.15981 0
M  V30 17974 C 1719.1 6.11325 -3.04583 0
M  V30 17975 O 1718.79 6.90653 -4.11405 0
M  V30 17976 H 1718.52 0.675506 -0.02584 0
M  V30 17977 H 1721.07 1.92289 -0.722099 0
M  V30 17978 H 1719.3 3.70468 1.10861 0
M  V30 17979 H 1720.99 3.98068 0.793529 0
M  V30 17980 H 1721.76 4.57198 -1.61848 0
M  V30 17981 H 1717.64 4.59326 -0.392454 0
M  V30 17982 H 1721.18 6.01105 -3.54004 0
M  V30 17983 H 1717.08 6.02923 -2.30552 0
M  V30 17984 H 1717.85 7.08991 -4.08992 0
M  V30 17985 N 1720.51 0.254649 1.55529 0
M  V30 17986 C 1721.76 -0.368461 1.98306 0
M  V30 17987 C 1722.07 -1.585 1.14617 0
M  V30 17988 O 1723.28 -2.27975 1.47443 0
M  V30 17989 C 1721.73 -0.70693 3.52889 0
M  V30 17990 C 1721.34 0.488648 4.45327 0
M  V30 17991 C 1723.08 -1.2938 4.04303 0
M  V30 17992 C 1720.99 0.125903 5.91266 0
M  V30 17993 H 1719.92 -0.141444 0.740614 0
M  V30 17994 H 1722.57 0.356085 1.80012 0
M  V30 17995 H 1720.95 -1.48982 3.66907 0
M  V30 17996 H 1722.13 1.26587 4.43071 0
M  V30 17997 H 1720.44 0.990969 4.04436 0
M  V30 17998 H 1723.04 -1.57866 5.10864 0
M  V30 17999 H 1723.38 -2.22088 3.52112 0
M  V30 18000 H 1723.92 -0.573647 3.93642 0
M  V30 18001 H 1720.66 1.02032 6.4751 0
M  V30 18002 H 1720.18 -0.614969 5.96639 0
M  V30 18003 H 1721.85 -0.289174 6.46353 0
M  V30 18004 N 1721.99 -1.57589 -0.0183649 0
M  V30 18005 C 1722.93 -2.08354 -1.03398 0
M  V30 18006 C 1723.93 -0.999575 -1.36766 0
M  V30 18007 O 1725.13 -1.18438 -1.35545 0
M  V30 18008 H 1721.51 -0.665046 -0.351023 0
M  V30 18009 H 1723.48 -2.92707 -0.580111 0
M  V30 18010 C 1722.23 -2.58713 -2.32299 0
M  V30 18011 H 1721.55 -3.41744 -2.07487 0
M  V30 18012 H 1722.99 -2.97932 -3.01683 0
M  V30 18013 C 1721.45 -1.49307 -3.02008 0
M  V30 18014 O 1721.98 -0.865426 -3.92267 0
M  V30 18015 N 1720.19 -1.225 -2.63519 0
M  V30 18016 H 1719.73 -1.73724 -1.90205 0
M  V30 18017 H 1719.69 -0.495132 -3.10477 0
M  V30 18018 N 1723.46 0.290824 -1.54893 0
M  V30 18019 C 1724.37 1.38137 -1.89619 0
M  V30 18020 C 1725.39 1.54959 -0.791432 0
M  V30 18021 O 1726.57 1.69428 -1.08885 0
M  V30 18022 C 1723.63 2.72353 -2.14534 0
M  V30 18023 C 1722.69 2.64429 -3.38195 0
M  V30 18024 C 1721.93 3.92244 -3.61912 0
M  V30 18025 O 1722.15 4.92088 -2.88454 0
M  V30 18026 O 1721.08 3.93523 -4.55438 0
M  V30 18027 H 1724.91 1.11688 -2.82417 0
M  V30 18028 H 1722.49 0.487789 -1.41213 0
M  V30 18029 H 1724.38 3.51745 -2.32064 0
M  V30 18030 H 1723.05 2.98624 -1.24921 0
M  V30 18031 H 1721.96 1.83474 -3.26018 0
M  V30 18032 H 1723.29 2.43109 -4.2797 0
M  V30 18033 N 1724.94 1.47523 0.554506 0
M  V30 18034 C 1725.89 1.5662 1.65693 0
M  V30 18035 C 1726.88 0.424914 1.55188 0
M  V30 18036 O 1728.07 0.674989 1.63624 0
M  V30 18037 C 1725.2 1.58607 3.04465 0
M  V30 18038 C 1724.28 2.78129 3.20164 0
M  V30 18039 N 1724.67 4.028 3.05918 0
M  V30 18040 C 1722.97 2.74947 3.5117 0
M  V30 18041 C 1723.67 4.82859 3.24379 0
M  V30 18042 N 1722.65 4.15228 3.50837 0
M  V30 18043 H 1726.45 2.50781 1.53252 0
M  V30 18044 H 1723.97 1.43554 0.759335 0
M  V30 18045 H 1725.96 1.63214 3.83623 0
M  V30 18046 H 1724.62 0.655437 3.18016 0
M  V30 18047 H 1725.63 4.33618 2.83189 0
M  V30 18048 H 1722.31 1.91034 3.71231 0
M  V30 18049 H 1723.7 5.91716 3.1831 0
M  V30 18050 N 1726.42 -0.801453 1.357 0
M  V30 18051 C 1727.65 -1.59518 1.32547 0
M  V30 18052 C 1728.07 -1.87868 -0.0934243 0
M  V30 18053 O 1727.43 -1.46955 -1.06179 0
M  V30 18054 C 1727.48 -2.90028 2.14281 0
M  V30 18055 O 1726.58 -3.83086 1.52704 0
M  V30 18056 H 1725.92 -0.48434 0.454215 0
M  V30 18057 H 1728.45 -0.994315 1.78814 0
M  V30 18058 H 1728.46 -3.39406 2.26423 0
M  V30 18059 H 1727.14 -2.6872 3.17431 0
M  V30 18060 H 1725.71 -3.4165 1.49432 0
M  V30 18061 N 1727.9 -1.19782 -1.02421 0
M  V30 18062 C 1729.15 -1.00331 -1.75897 0
M  V30 18063 C 1729.47 0.465413 -1.8885 0
M  V30 18064 O 1728.73 1.36182 -1.40545 0
M  V30 18065 C 1729.03 -1.62297 -3.18425 0
M  V30 18066 C 1728.69 -3.12059 -3.25468 0
M  V30 18067 C 1727.36 -3.52931 -3.27098 0
M  V30 18068 C 1729.71 -4.08065 -3.24241 0
M  V30 18069 C 1727.04 -4.88351 -3.25162 0
M  V30 18070 C 1729.39 -5.43421 -3.23846 0
M  V30 18071 C 1728.05 -5.83717 -3.23775 0
M  V30 18072 H 1727.32 -0.367139 -0.643654 0
M  V30 18073 H 1729.97 -1.49094 -1.2018 0
M  V30 18074 H 1728.27 -1.05777 -3.77251 0
M  V30 18075 H 1729.97 -1.44772 -3.73955 0
M  V30 18076 H 1726.56 -2.79496 -3.24931 0
M  V30 18077 H 1730.74 -3.77528 -3.22159 0
M  V30 18078 H 1726 -5.18845 -3.23434 0
M  V30 18079 H 1730.17 -6.17566 -3.21847 0
M  V30 18080 H 1727.8 -6.88623 -3.22029 0
M  V30 18081 N 1729.38 1.21606 -1.00248 0
M  V30 18082 C 1730.33 2.2591 -0.553856 0
M  V30 18083 C 1731.32 1.64602 0.400323 0
M  V30 18084 O 1732.53 1.77936 0.271792 0
M  V30 18085 H 1728.9 0.734618 -0.160749 0
M  V30 18086 H 1730.87 2.61091 -1.44479 0
M  V30 18087 C 1729.62 3.47537 0.106293 0
M  V30 18088 H 1728.94 3.94981 -0.61889 0
M  V30 18089 H 1730.38 4.22262 0.383514 0
M  V30 18090 C 1728.84 3.08901 1.34469 0
M  V30 18091 O 1729.37 3.1916 2.43926 0
M  V30 18092 N 1727.58 2.63588 1.2235 0
M  V30 18093 H 1727.13 2.55441 0.332852 0
M  V30 18094 H 1727.08 2.38106 2.05312 0
M  V30 18095 N 1730.86 0.776895 1.37121 0
M  V30 18096 C 1731.8 0.154521 2.32086 0
M  V30 18097 C 1732.8 -0.679155 1.5519 0
M  V30 18098 O 1734 -0.575641 1.70547 0
M  V30 18099 H 1730.38 0.0311849 0.751353 0
M  V30 18100 H 1732.35 0.971125 2.82156 0
M  V30 18101 C 1731.1 -0.706165 3.40454 0
M  V30 18102 H 1730.42 -0.0740341 3.99731 0
M  V30 18103 H 1731.86 -1.10853 4.09253 0
M  V30 18104 C 1730.32 -1.85901 2.80967 0
M  V30 18105 O 1730.85 -2.95482 2.72128 0
M  V30 18106 N 1729.06 -1.66122 2.38436 0
M  V30 18107 H 1728.6 -0.769915 2.45825 0
M  V30 18108 H 1728.56 -2.43422 1.9898 0
M  V30 18109 N 1732.33 -1.48497 0.527859 0
M  V30 18110 C 1733.58 -2.02499 -0.00701157 0
M  V30 18111 C 1733.91 -1.40516 -1.34483 0
M  V30 18112 O 1733.16 -0.539575 -1.88115 0
M  V30 18113 C 1733.46 -3.56945 -0.180276 0
M  V30 18114 C 1733.13 -4.37703 1.08291 0
M  V30 18115 C 1731.79 -4.59489 1.42911 0
M  V30 18116 C 1734.14 -4.84495 1.92131 0
M  V30 18117 C 1731.47 -5.25313 2.61272 0
M  V30 18118 C 1733.82 -5.51623 3.09669 0
M  V30 18119 C 1732.49 -5.71648 3.44637 0
M  V30 18120 H 1731.76 -0.740996 -0.00256572 0
M  V30 18121 H 1734.4 -1.78503 0.693453 0
M  V30 18122 H 1732.71 -3.79768 -0.963491 0
M  V30 18123 H 1734.41 -3.96348 -0.609009 0
M  V30 18124 H 1731 -4.21005 0.803293 0
M  V30 18125 H 1735.18 -4.67468 1.66696 0
M  V30 18126 H 1730.44 -5.39015 2.8857 0
M  V30 18127 H 1734.61 -5.86849 3.74942 0
M  V30 18128 H 1732.24 -6.22426 4.36451 0
M  V30 18129 N 1733.81 -0.262893 -1.55392 0
M  V30 18130 C 1734.74 0.66288 -2.19405 0
M  V30 18131 C 1735.76 1.12675 -1.17508 0
M  V30 18132 O 1736.95 1.05077 -1.44295 0
M  V30 18133 C 1734.05 1.91471 -2.79628 0
M  V30 18134 C 1733.22 1.59966 -4.07099 0
M  V30 18135 C 1732.28 2.7027 -4.51487 0
M  V30 18136 O 1731.3 2.36976 -5.17524 0
M  V30 18137 N 1732.51 4.0009 -4.20605 0
M  V30 18138 H 1735.27 0.115075 -2.99479 0
M  V30 18139 H 1732.83 -0.0834933 -1.61685 0
M  V30 18140 H 1734.82 2.64535 -3.06273 0
M  V30 18141 H 1733.39 2.37188 -2.03619 0
M  V30 18142 H 1732.61 0.703431 -3.87873 0
M  V30 18143 H 1733.9 1.36402 -4.90175 0
M  V30 18144 H 1733.3 4.29966 -3.67621 0
M  V30 18145 H 1731.86 4.69569 -4.52049 0
M  V30 18146 N 1735.29 1.57597 0.0100073 0
M  V30 18147 C 1736.22 2.03212 1.03826 0
M  V30 18148 C 1737.2 0.920049 1.34067 0
M  V30 18149 O 1738.38 1.18739 1.46401 0
M  V30 18150 C 1735.51 2.42128 2.36836 0
M  V30 18151 C 1734.56 3.63969 2.22326 0
M  V30 18152 S 1735.39 5.12313 1.5587 0
M  V30 18153 C 1736.55 5.54489 2.90331 0
M  V30 18154 H 1736.78 2.90112 0.649812 0
M  V30 18155 H 1734.31 1.52816 0.220575 0
M  V30 18156 H 1736.27 2.65219 3.1332 0
M  V30 18157 H 1734.93 1.55646 2.72824 0
M  V30 18158 H 1734.12 3.88916 3.20562 0
M  V30 18159 H 1733.73 3.40829 1.53986 0
M  V30 18160 H 1736.02 5.56338 3.86645 0
M  V30 18161 H 1736.96 6.54564 2.70095 0
M  V30 18162 H 1737.37 4.8203 2.93781 0
M  V30 18163 N 1736.77 -0.282606 1.55045 0
M  V30 18164 C 1737.71 -1.34908 1.87266 0
M  V30 18165 C 1738.68 -1.49528 0.72323 0
M  V30 18166 O 1739.87 -1.6409 0.973602 0
M  V30 18167 C 1737.01 -2.70603 2.14168 0
M  V30 18168 C 1736.12 -2.64284 3.41728 0
M  V30 18169 C 1735.26 -3.92094 3.58379 0
M  V30 18170 C 1734.3 -3.80246 4.79666 0
M  V30 18171 N 1733.43 -4.99871 4.93025 0
M  V30 18172 H 1738.27 -1.06731 2.78231 0
M  V30 18173 H 1735.81 -0.515845 1.37759 0
M  V30 18174 H 1737.77 -3.49542 2.27763 0
M  V30 18175 H 1736.4 -2.97003 1.26448 0
M  V30 18176 H 1735.45 -1.77108 3.36656 0
M  V30 18177 H 1736.76 -2.51425 4.30798 0
M  V30 18178 H 1735.92 -4.79473 3.7174 0
M  V30 18179 H 1734.66 -4.07808 2.67476 0
M  V30 18180 H 1733.66 -2.91251 4.66319 0
M  V30 18181 H 1734.89 -3.6606 5.71994 0
M  V30 18182 H 1732.83 -5.16014 4.0505 0
M  V30 18183 H 1732.75 -4.89507 5.76124 0
M  V30 18184 H 1734.02 -5.88849 5.10761 0
M  V30 18185 N 1738.25 -1.47815 -0.546675 0
M  V30 18186 C 1739.49 -1.54238 -1.29975 0
M  V30 18187 C 1739.81 -0.213869 -1.94427 0
M  V30 18188 O 1741.01 -0.156187 -2.7105 0
M  V30 18189 C 1739.47 -2.71938 -2.35749 0
M  V30 18190 C 1739.08 -4.11362 -1.77441 0
M  V30 18191 C 1740.82 -2.87661 -3.12172 0
M  V30 18192 C 1738.73 -5.20347 -2.81057 0
M  V30 18193 H 1737.66 -0.574139 -0.488754 0
M  V30 18194 H 1740.31 -1.74113 -0.579384 0
M  V30 18195 H 1738.69 -2.45463 -3.10747 0
M  V30 18196 H 1739.87 -4.47785 -1.08744 0
M  V30 18197 H 1738.18 -4.00614 -1.13568 0
M  V30 18198 H 1740.78 -3.66252 -3.89568 0
M  V30 18199 H 1741.12 -1.96494 -3.67009 0
M  V30 18200 H 1741.65 -3.13957 -2.44286 0
M  V30 18201 H 1738.39 -6.13426 -2.31061 0
M  V30 18202 H 1737.91 -4.8843 -3.48132 0
M  V30 18203 H 1739.59 -5.47748 -3.44355 0
M  V30 18204 N 1739.72 0.794246 -1.36123 0
M  V30 18205 C 1740.97 1.54885 -1.29827 0
M  V30 18206 C 1741.29 1.94608 0.123517 0
M  V30 18207 O 1740.56 1.6457 1.06272 0
M  V30 18208 H 1739.14 0.574398 -0.477573 0
M  V30 18209 H 1741.8 0.946658 -1.70365 0
M  V30 18210 H 1740.9 2.45863 -1.92244 0
M  V30 18211 N 1741.2 1.20323 1.01785 0
M  V30 18212 C 1742.13 0.974819 2.12178 0
M  V30 18213 C 1743.11 -0.0957637 1.6983 0
M  V30 18214 O 1744.3 0.0614963 1.94103 0
M  V30 18215 C 1741.43 0.524739 3.43313 0
M  V30 18216 C 1740.38 1.53842 3.99395 0
M  V30 18217 C 1739.71 0.945021 5.26283 0
M  V30 18218 C 1741.01 2.92179 4.3293 0
M  V30 18219 H 1742.7 1.8981 2.31544 0
M  V30 18220 H 1740.25 0.914025 1.11273 0
M  V30 18221 H 1742.2 0.352182 4.19926 0
M  V30 18222 H 1740.92 -0.434161 3.23701 0
M  V30 18223 H 1739.58 1.69832 3.24889 0
M  V30 18224 H 1739.23 -0.0217709 5.02995 0
M  V30 18225 H 1738.93 1.62201 5.64769 0
M  V30 18226 H 1740.46 0.783504 6.05552 0
M  V30 18227 H 1741.87 2.79708 5.00436 0
M  V30 18228 H 1740.27 3.56773 4.82528 0
M  V30 18229 H 1741.34 3.43997 3.41752 0
M  V30 18230 N 1742.68 -1.21073 1.00892 0
M  V30 18231 C 1743.63 -2.25613 0.565829 0
M  V30 18232 C 1744.62 -1.64812 -0.391588 0
M  V30 18233 O 1745.83 -1.78078 -0.262352 0
M  V30 18234 H 1742.2 -0.733755 0.164643 0
M  V30 18235 H 1744.17 -2.60321 1.45862 0
M  V30 18236 C 1742.92 -3.47589 -0.087861 0
M  V30 18237 H 1742.25 -3.94647 0.639828 0
M  V30 18238 H 1743.69 -4.22459 -0.361115 0
M  V30 18239 C 1742.14 -3.09609 -1.32829 0
M  V30 18240 O 1742.67 -3.20449 -2.4223 0
M  V30 18241 N 1740.88 -2.64234 -1.2095 0
M  V30 18242 H 1740.43 -2.55613 -0.319301 0
M  V30 18243 H 1740.39 -2.39191 -2.04046 0
M  V30 18244 N 1744.16 -0.784156 -1.36707 0
M  V30 18245 C 1745.41 -0.350748 -1.98627 0
M  V30 18246 C 1745.72 1.08208 -1.62943 0
M  V30 18247 O 1746.93 1.6175 -2.18058 0
M  V30 18248 C 1745.38 -0.576173 -3.55258 0
M  V30 18249 C 1744.99 -2.02008 -3.99871 0
M  V30 18250 C 1746.73 -0.207008 -4.23995 0
M  V30 18251 C 1744.64 -2.19244 -5.4926 0
M  V30 18252 H 1743.57 -0.127403 -0.743158 0
M  V30 18253 H 1746.22 -0.965044 -1.56074 0
M  V30 18254 H 1744.6 0.10776 -3.95853 0
M  V30 18255 H 1745.78 -2.73998 -3.70489 0
M  V30 18256 H 1744.09 -2.34699 -3.43955 0
M  V30 18257 H 1746.69 -0.314139 -5.33776 0
M  V30 18258 H 1747.03 0.844253 -4.07649 0
M  V30 18259 H 1747.57 -0.843971 -3.88744 0
M  V30 18260 H 1744.31 -3.22734 -5.70546 0
M  V30 18261 H 1743.83 -1.51752 -5.80286 0
M  V30 18262 H 1745.5 -1.99703 -6.15408 0
M  V30 18263 N 1745.64 1.48215 -0.535727 0
M  V30 18264 C 1746.88 2.021 -0.00372016 0
M  V30 18265 C 1747.21 1.41456 1.34221 0
M  V30 18266 O 1746.48 0.581987 1.87055 0
M  V30 18267 H 1745.06 0.746998 0.00161295 0
M  V30 18268 H 1747.72 1.81862 -0.700863 0
M  V30 18269 H 1746.81 3.11939 0.100352 0
M  V30 18270 N 1747.11 0.27113 1.5525 0
M  V30 18271 C 1748.53 -0.2274 1.8531 0
M  V30 18272 C 1748.88 -1.55752 1.19314 0
M  V30 18273 O 1748 -2.11008 0.480046 0
M  V30 18274 C 1748.6 -0.419382 3.36194 0
M  V30 18275 C 1747.16 -0.862149 3.66393 0
M  V30 18276 C 1746.3 0.0468534 2.7726 0
M  V30 18277 H 1749.25 0.493032 1.50847 0
M  V30 18278 H 1749.27 -1.25852 3.59084 0
M  V30 18279 H 1748.79 0.548856 3.84199 0
M  V30 18280 H 1746.89 -1.842 3.23884 0
M  V30 18281 H 1747 -0.702231 4.73926 0
M  V30 18282 H 1745.36 -0.468769 2.50349 0
M  V30 18283 H 1746.15 1.0109 3.28079 0
M  V30 18284 N 1748.59 -1.576 -0.00164943 0
M  V30 18285 C 1749.84 -1.90778 -0.68786 0
M  V30 18286 C 1750.17 -0.872138 -1.73515 0
M  V30 18287 O 1749.45 0.109349 -1.94192 0
M  V30 18288 C 1749.73 -3.34539 -1.3325 0
M  V30 18289 C 1749.58 -4.48819 -0.296862 0
M  V30 18290 C 1750.9 -3.77693 -2.25911 0
M  V30 18291 H 1748.02 -0.69381 -0.24859 0
M  V30 18292 H 1750.66 -1.89936 0.0493059 0
M  V30 18293 H 1748.81 -3.35388 -1.9608 0
M  V30 18294 H 1750.48 -4.60106 0.331635 0
M  V30 18295 H 1748.73 -4.32123 0.38105 0
M  V30 18296 H 1749.4 -5.46362 -0.786927 0
M  V30 18297 H 1751.87 -3.78386 -1.73099 0
M  V30 18298 H 1750.75 -4.79037 -2.67983 0
M  V30 18299 H 1751.01 -3.11469 -3.1375 0
M  V30 18300 N 1750.07 0.274379 -1.55193 0
M  V30 18301 C 1751.32 1.00766 -1.75995 0
M  V30 18302 C 1751.65 1.8599 -0.558679 0
M  V30 18303 O 1750.92 1.8937 0.443784 0
M  V30 18304 C 1751.21 1.89137 -3.0643 0
M  V30 18305 C 1751.06 1.06914 -4.36909 0
M  V30 18306 C 1752.38 2.87869 -3.32896 0
M  V30 18307 H 1749.5 0.364915 -0.640317 0
M  V30 18308 H 1752.14 0.280156 -1.87923 0
M  V30 18309 H 1750.29 2.51166 -2.96391 0
M  V30 18310 H 1751.96 0.469666 -4.58903 0
M  V30 18311 H 1750.21 0.372566 -4.32197 0
M  V30 18312 H 1750.88 1.72063 -5.24498 0
M  V30 18313 H 1753.35 2.35974 -3.42718 0
M  V30 18314 H 1752.23 3.46845 -4.25429 0
M  V30 18315 H 1752.49 3.62921 -2.52469 0
M  V30 18316 N 1751.55 1.48103 0.538828 0
M  V30 18317 C 1752.51 1.61495 1.62641 0
M  V30 18318 C 1753.51 0.488792 1.53191 0
M  V30 18319 O 1754.7 0.754355 1.57019 0
M  V30 18320 C 1751.83 1.57681 3.02241 0
M  V30 18321 H 1753.03 2.58462 1.5211 0
M  V30 18322 H 1750.58 1.36567 0.760201 0
M  V30 18323 H 1751.31 0.621583 3.18287 0
M  V30 18324 H 1751.1 2.3943 3.10509 0
M  V30 18325 H 1752.59 1.70228 3.81329 0
M  V30 18326 N 1753.03 -0.787016 1.36542 0
M  V30 18327 C 1754.27 -1.54194 1.30647 0
M  V30 18328 C 1754.6 -1.94671 -0.113195 0
M  V30 18329 O 1753.87 -1.65131 -1.05397 0
M  V30 18330 H 1752.45 -0.571857 0.480613 0
M  V30 18331 H 1755.11 -0.93761 1.70865 0
M  V30 18332 H 1754.2 -2.4484 1.93545 0
M  V30 18333 N 1754.5 -1.20861 -1.01145 0
M  V30 18334 C 1755.75 -1.02343 -1.75082 0
M  V30 18335 C 1756.08 0.44278 -1.89085 0
M  V30 18336 O 1755.36 1.32867 -1.42045 0
M  V30 18337 C 1755.64 -1.71368 -3.1671 0
M  V30 18338 C 1755.49 -3.25466 -3.1047 0
M  V30 18339 C 1756.81 -1.45097 -4.15494 0
M  V30 18340 H 1753.93 -0.373198 -0.635525 0
M  V30 18341 H 1756.57 -1.48947 -1.17961 0
M  V30 18342 H 1754.72 -1.31746 -3.6548 0
M  V30 18343 H 1756.4 -3.74415 -2.69464 0
M  V30 18344 H 1754.64 -3.56104 -2.47735 0
M  V30 18345 H 1755.31 -3.68924 -4.10608 0
M  V30 18346 H 1757.79 -1.7948 -3.75401 0
M  V30 18347 H 1756.66 -1.95917 -5.12745 0
M  V30 18348 H 1756.92 -0.379628 -4.40467 0
M  V30 18349 N 1755.98 1.20536 -1.01532 0
M  V30 18350 C 1757.23 1.89191 -0.699258 0
M  V30 18351 C 1757.54 1.79624 0.774238 0
M  V30 18352 O 1758.75 2.43402 1.20281 0
M  V30 18353 C 1757.21 3.39294 -1.20033 0
M  V30 18354 C 1756.81 3.57449 -2.70064 0
M  V30 18355 C 1758.56 4.13511 -0.959626 0
M  V30 18356 C 1756.47 5.01371 -3.13658 0
M  V30 18357 H 1755.4 0.708537 -0.257859 0
M  V30 18358 H 1758.05 1.36368 -1.22785 0
M  V30 18359 H 1756.43 3.91432 -0.599728 0
M  V30 18360 H 1757.6 3.15702 -3.35662 0
M  V30 18361 H 1755.92 2.966 -2.92262 0
M  V30 18362 H 1758.51 5.19624 -1.26077 0
M  V30 18363 H 1758.86 4.1617 0.103934 0
M  V30 18364 H 1759.39 3.67469 -1.52354 0
M  V30 18365 H 1756.13 5.03866 -4.19285 0
M  V30 18366 H 1755.65 5.43933 -2.52779 0
M  V30 18367 H 1757.33 5.69944 -3.06224 0
M  V30 18368 N 1757.46 0.791395 1.36289 0
M  V30 18369 C 1758.71 0.363981 1.98795 0
M  V30 18370 C 1759.03 -1.0685 1.6312 0
M  V30 18371 O 1758.3 -1.73682 0.906161 0
M  V30 18372 H 1756.88 0.131594 0.735318 0
M  V30 18373 H 1759.54 1.01387 1.66453 0
M  V30 18374 H 1758.64 0.457407 3.0873 0
M  V30 18375 N 1758.94 -1.47929 0.54358 0
M  V30 18376 C 1759.9 -2.28316 -0.201107 0
M  V30 18377 C 1760.9 -1.36165 -0.855313 0
M  V30 18378 O 1762.09 -1.58928 -0.71327 0
M  V30 18379 C 1759.22 -3.1545 -1.29245 0
M  V30 18380 H 1760.42 -2.9562 0.504848 0
M  V30 18381 H 1757.97 -1.53394 0.300011 0
M  V30 18382 H 1758.71 -2.52807 -2.03124 0
M  V30 18383 H 1758.49 -3.83251 -0.82832 0
M  V30 18384 H 1759.98 -3.76053 -1.81587 0
M  V30 18385 N 1760.42 -0.27936 -1.55104 0
M  V30 18386 C 1761.83 0.074665 -1.59425 0
M  V30 18387 C 1762.03 1.54246 -1.29655 0
M  V30 18388 O 1761.09 2.29197 -1.05947 0
M  V30 18389 C 1762.4 -0.30379 -2.99162 0
M  V30 18390 C 1763.95 -0.250758 -3.11994 0
M  V30 18391 C 1764.43 -0.603715 -4.54004 0
M  V30 18392 N 1765.92 -0.555428 -4.59858 0
M  V30 18393 C 1766.65 -0.801278 -5.67774 0
M  V30 18394 N 1766.15 -1.11197 -6.83818 0
M  V30 18395 N 1767.94 -0.72979 -5.57342 0
M  V30 18396 H 1760.09 -1.23619 -1.7272 0
M  V30 18397 H 1762.35 -0.499704 -0.805606 0
M  V30 18398 H 1762.06 -1.32475 -3.25796 0
M  V30 18399 H 1761.93 0.353294 -3.75542 0
M  V30 18400 H 1764.32 0.760925 -2.85121 0
M  V30 18401 H 1764.4 -0.94216 -2.37817 0
M  V30 18402 H 1764.05 -1.6131 -4.81603 0
M  V30 18403 H 1763.98 0.109523 -5.26486 0
M  V30 18404 H 1766.47 -0.325348 -3.76497 0
M  V30 18405 H 1766.78 -1.28611 -7.62023 0
M  V30 18406 H 1765.13 -1.14978 -6.85423 0
M  V30 18407 H 1768.32 -0.48688 -4.65561 0
M  V30 18408 H 1768.49 -0.92477 -6.41367 0
M  V30 18409 N 1761.9 1.57599 -0.0067085 0
M  V30 18410 C 1762.84 2.08842 0.982532 0
M  V30 18411 C 1763.81 0.985339 1.33717 0
M  V30 18412 O 1765 1.25818 1.43438 0
M  V30 18413 C 1762.14 2.60188 2.26708 0
M  V30 18414 C 1761.25 3.84422 1.97087 0
M  V30 18415 C 1760.39 4.24244 3.19672 0
M  V30 18416 C 1759.42 5.41297 2.85769 0
M  V30 18417 N 1758.56 5.76381 4.00911 0
M  V30 18418 H 1763.4 2.93092 0.538618 0
M  V30 18419 H 1760.94 1.44885 0.254293 0
M  V30 18420 H 1762.9 2.88038 3.01811 0
M  V30 18421 H 1761.53 1.78802 2.68756 0
M  V30 18422 H 1760.58 3.63439 1.12323 0
M  V30 18423 H 1761.89 4.6962 1.68102 0
M  V30 18424 H 1761.04 4.53413 4.03115 0
M  V30 18425 H 1759.78 3.37769 3.518 0
M  V30 18426 H 1758.79 5.11846 2.00734 0
M  V30 18427 H 1760.01 6.29454 2.54881 0
M  V30 18428 H 1757.96 4.92863 4.32923 0
M  V30 18429 H 1757.88 6.56168 3.75473 0
M  V30 18430 H 1759.14 6.10144 4.85123 0
M  V30 18431 N 1763.37 -0.266145 1.55336 0
M  V30 18432 C 1764.78 -0.836683 1.66903 0
M  V30 18433 C 1765.14 -1.86781 0.600597 0
M  V30 18434 O 1764.26 -2.14872 -0.256674 0
M  V30 18435 C 1764.86 -1.52436 3.0257 0
M  V30 18436 C 1763.41 -2.04284 3.1614 0
M  V30 18437 C 1762.56 -0.887248 2.62723 0
M  V30 18438 H 1765.51 -0.0423472 1.58643 0
M  V30 18439 H 1765.53 -2.39163 2.95941 0
M  V30 18440 H 1765.05 -0.773649 3.80311 0
M  V30 18441 H 1763.15 -2.82296 2.43187 0
M  V30 18442 H 1763.26 -2.25345 4.22796 0
M  V30 18443 H 1761.62 -1.28251 2.20054 0
M  V30 18444 H 1762.41 -0.14993 3.42972 0
M  V30 18445 N 1764.85 -1.48386 -0.530967 0
M  V30 18446 C 1765.78 -1.58922 -1.65156 0
M  V30 18447 C 1766.8 -0.473583 -1.5576 0
M  V30 18448 O 1767.99 -0.744383 -1.62238 0
M  V30 18449 C 1765.09 -1.50201 -3.03798 0
M  V30 18450 C 1764.26 -2.76787 -3.38685 0
M  V30 18451 C 1763.32 -2.61534 -4.56603 0
M  V30 18452 O 1762.34 -3.35417 -4.59874 0
M  V30 18453 N 1763.55 -1.71087 -5.54716 0
M  V30 18454 H 1766.31 -2.55559 -1.56555 0
M  V30 18455 H 1763.87 -1.45097 -0.718216 0
M  V30 18456 H 1765.86 -1.37693 -3.80556 0
M  V30 18457 H 1764.43 -0.615419 -3.06482 0
M  V30 18458 H 1763.65 -3.03867 -2.51115 0
M  V30 18459 H 1764.94 -3.6077 -3.58779 0
M  V30 18460 H 1764.34 -1.10261 -5.54851 0
M  V30 18461 H 1762.9 -1.64518 -6.30696 0
M  V30 18462 N 1766.33 0.779763 -1.36958 0
M  V30 18463 C 1767.56 1.56648 -1.34704 0
M  V30 18464 C 1767.97 1.89065 0.071459 0
M  V30 18465 O 1767.31 1.51325 1.04146 0
M  V30 18466 C 1767.37 2.90862 -2.11281 0
M  V30 18467 C 1767.04 2.81123 -3.60304 0
M  V30 18468 C 1768.03 2.52702 -4.54354 0
M  V30 18469 C 1765.72 2.99397 -4.0332 0
M  V30 18470 C 1767.71 2.42671 -5.89398 0
M  V30 18471 C 1765.4 2.88987 -5.38451 0
M  V30 18472 C 1766.4 2.60663 -6.31303 0
M  V30 18473 O 1766.09 2.50264 -7.63952 0
M  V30 18474 H 1765.82 0.492209 -0.463364 0
M  V30 18475 H 1768.37 0.974946 -1.80787 0
M  V30 18476 H 1766.6 3.52104 -1.59875 0
M  V30 18477 H 1768.29 3.52203 -2.01762 0
M  V30 18478 H 1769.06 2.38277 -4.22432 0
M  V30 18479 H 1764.94 3.20446 -3.31414 0
M  V30 18480 H 1768.48 2.20484 -6.6184 0
M  V30 18481 H 1764.38 3.02977 -5.69978 0
M  V30 18482 H 1765.14 2.65674 -7.74183 0
M  V30 18483 N 1767.81 1.21396 1.00503 0
M  V30 18484 C 1769.08 0.93995 1.71535 0
M  V30 18485 C 1769.46 -0.548247 2.03856 0
M  V30 18486 O 1768.81 -1.51308 1.71226 0
M  V30 18487 C 1769.02 1.82501 2.9748 0
M  V30 18488 C 1770.37 2.07383 3.7051 0
M  V30 18489 O 1771.39 1.79849 3.07462 0
M  V30 18490 O 1770.25 2.5395 4.83913 0
M  V30 18491 H 1767.35 0.35246 0.748132 0
M  V30 18492 H 1769.89 1.32325 1.06246 0
M  V30 18493 H 1768.67 2.83219 2.70005 0
M  V30 18494 H 1768.29 1.44252 3.70509 0
M  V30 18495 N 1769.29 -1.19996 1.0217 0
M  V30 18496 C 1770.53 -1.88818 0.709281 0
M  V30 18497 C 1770.85 -1.80032 -0.764702 0
M  V30 18498 O 1772.05 -2.44037 -1.18988 0
M  V30 18499 C 1770.51 -3.38652 1.2183 0
M  V30 18500 C 1770.12 -3.56012 2.71955 0
M  V30 18501 C 1771.86 -4.12996 0.981542 0
M  V30 18502 C 1769.77 -4.997 3.16313 0
M  V30 18503 H 1768.7 -0.70716 0.261613 0
M  V30 18504 H 1771.35 -1.35715 1.23506 0
M  V30 18505 H 1769.73 -3.91109 0.620478 0
M  V30 18506 H 1770.91 -3.13918 3.37331 0
M  V30 18507 H 1769.22 -2.95046 2.93831 0
M  V30 18508 H 1771.82 -5.18948 1.28831 0
M  V30 18509 H 1772.16 -4.1622 -0.0818616 0
M  V30 18510 H 1772.69 -3.66656 1.543 0
M  V30 18511 H 1769.43 -5.01635 4.21951 0
M  V30 18512 H 1768.95 -5.42585 2.5566 0
M  V30 18513 H 1770.63 -5.68312 3.09242 0
M  V30 18514 N 1770.76 -0.798611 -1.35867 0
M  V30 18515 C 1772.01 -0.38492 -1.99725 0
M  V30 18516 C 1772.36 1.03438 -1.6223 0
M  V30 18517 O 1771.66 1.70634 -0.871464 0
M  V30 18518 C 1771.85 -0.496572 -3.53934 0
M  V30 18519 C 1771.68 -1.92517 -4.06408 0
M  V30 18520 C 1770.45 -2.5518 -4.36132 0
M  V30 18521 C 1772.65 -2.88862 -4.25515 0
M  V30 18522 N 1770.63 -3.89534 -4.74486 0
M  V30 18523 C 1772 -4.08068 -4.66777 0
M  V30 18524 C 1774.06 -2.85798 -4.07706 0
M  V30 18525 C 1772.76 -5.24631 -4.92092 0
M  V30 18526 C 1774.79 -4.01557 -4.34173 0
M  V30 18527 C 1774.15 -5.19509 -4.75699 0
M  V30 18528 H 1770.25 -0.188458 -0.758952 0
M  V30 18529 H 1772.83 -1.03816 -1.64713 0
M  V30 18530 H 1771 0.126631 -3.88194 0
M  V30 18531 H 1772.73 -0.0582382 -4.04658 0
M  V30 18532 H 1769.49 -2.06593 -4.26165 0
M  V30 18533 H 1769.91 -4.58684 -4.97934 0
M  V30 18534 H 1774.55 -1.95762 -3.7475 0
M  V30 18535 H 1772.27 -6.15246 -5.23926 0
M  V30 18536 H 1775.86 -4.00558 -4.21954 0
M  V30 18537 H 1774.74 -6.07594 -4.95781 0
M  V30 18538 N 1772.24 1.47639 -0.551417 0
M  V30 18539 C 1773.49 2.02084 -0.0251553 0
M  V30 18540 C 1773.81 1.42872 1.32713 0
M  V30 18541 O 1773.08 0.601794 1.86428 0
M  V30 18542 H 1771.66 0.746973 -0.00631005 0
M  V30 18543 H 1774.32 1.81109 -0.720113 0
M  V30 18544 H 1773.42 3.12028 0.0672608 0
M  V30 18545 N 1773.72 0.287581 1.54954 0
M  V30 18546 C 1774.67 -0.610315 2.2445 0
M  V30 18547 C 1775.66 -1.14786 1.24582 0
M  V30 18548 O 1776.87 -1.10005 1.42474 0
M  V30 18549 H 1773.24 -0.215394 0.720493 0
M  V30 18550 H 1775.21 -0.00148121 2.984 0
M  V30 18551 C 1773.96 -1.77719 2.9885 0
M  V30 18552 H 1773.29 -1.37277 3.75493 0
M  V30 18553 H 1774.73 -2.38181 3.50779 0
M  V30 18554 C 1773.19 -2.67321 2.05039 0
M  V30 18555 O 1773.72 -3.68038 1.60968 0
M  V30 18556 N 1771.92 -2.34761 1.71276 0
M  V30 18557 H 1771.47 -1.52905 2.07311 0
M  V30 18558 H 1771.43 -2.94981 1.08781 0
M  V30 18559 N 1775.2 -1.57593 0.0150662 0
M  V30 18560 C 1776.43 -1.95504 -0.677174 0
M  V30 18561 C 1776.84 -0.8908 -1.66464 0
M  V30 18562 O 1776.2 0.128818 -1.82045 0
M  V30 18563 C 1776.25 -3.33463 -1.39589 0
M  V30 18564 O 1775.97 -4.35803 -0.448005 0
M  V30 18565 C 1777.47 -3.85923 -2.18125 0
M  V30 18566 H 1774.69 -0.644226 -0.187652 0
M  V30 18567 H 1777.24 -2.04378 0.070661 0
M  V30 18568 H 1775.39 -3.25851 -2.09523 0
M  V30 18569 H 1775.8 -5.157 -0.956756 0
M  V30 18570 H 1777.28 -4.84838 -2.63887 0
M  V30 18571 H 1777.76 -3.19423 -3.01439 0
M  V30 18572 H 1778.36 -3.96758 -1.53176 0
M  V30 18573 N 1776.68 0.257904 -1.55475 0
M  V30 18574 C 1777.92 0.988933 -1.77054 0
M  V30 18575 C 1778.26 1.85387 -0.578375 0
M  V30 18576 O 1777.53 1.8983 0.423673 0
M  V30 18577 C 1777.81 1.85876 -3.08419 0
M  V30 18578 C 1777.67 1.02274 -4.38018 0
M  V30 18579 C 1778.99 2.84322 -3.3593 0
M  V30 18580 H 1776.1 0.358103 -0.644152 0
M  V30 18581 H 1778.75 0.260209 -1.8821 0
M  V30 18582 H 1776.9 2.48008 -2.99039 0
M  V30 18583 H 1778.57 0.420967 -4.59375 0
M  V30 18584 H 1776.81 0.326705 -4.32568 0
M  V30 18585 H 1777.48 1.6649 -5.26294 0
M  V30 18586 H 1779.96 2.32325 -3.45202 0
M  V30 18587 H 1778.83 3.42313 -4.29084 0
M  V30 18588 H 1779.1 3.60223 -2.56304 0
M  V30 18589 N 1778.15 1.48666 0.52309 0
M  V30 18590 C 1779.1 1.64155 1.6479 0
M  V30 18591 C 1780.1 0.507838 1.61609 0
M  V30 18592 O 1781.3 0.686784 1.66383 0
M  V30 18593 H 1777.68 0.517234 0.545869 0
M  V30 18594 H 1779.65 2.58611 1.48871 0
M  V30 18595 C 1778.4 1.70488 3.03033 0
M  V30 18596 H 1777.72 2.5709 3.06178 0
M  V30 18597 H 1779.16 1.85367 3.81333 0
M  V30 18598 C 1777.62 0.444984 3.33948 0
M  V30 18599 O 1778.15 -0.439107 3.99293 0
M  V30 18600 N 1776.36 0.314593 2.88892 0
M  V30 18601 H 1775.9 1.03501 2.35893 0
M  V30 18602 H 1775.86 -0.527357 3.09946 0
M  V30 18603 N 1779.63 -0.772489 1.37369 0
M  V30 18604 C 1780.88 -1.53329 1.32733 0
M  V30 18605 C 1781.21 -1.93999 -0.0882815 0
M  V30 18606 O 1780.49 -1.64014 -1.04545 0
M  V30 18607 C 1780.77 -2.79885 2.26575 0
M  V30 18608 C 1780.62 -2.45474 3.76912 0
M  V30 18609 C 1781.94 -3.81812 2.18878 0
M  V30 18610 H 1779.06 -0.55625 0.483482 0
M  V30 18611 H 1781.7 -0.886251 1.68064 0
M  V30 18612 H 1779.85 -3.35097 1.96576 0
M  V30 18613 H 1781.52 -1.96182 4.17505 0
M  V30 18614 H 1779.77 -1.78181 3.95517 0
M  V30 18615 H 1780.44 -3.35937 4.38007 0
M  V30 18616 H 1782.91 -3.36091 2.4532 0
M  V30 18617 H 1781.79 -4.68087 2.86681 0
M  V30 18618 H 1782.05 -4.26021 1.18146 0
M  V30 18619 N 1781.11 -1.21927 -0.998575 0
M  V30 18620 C 1782.07 -0.985744 -2.0692 0
M  V30 18621 C 1783.07 0.0456907 -1.60735 0
M  V30 18622 O 1784.26 -0.192241 -1.73136 0
M  V30 18623 C 1781.4 -0.48779 -3.37392 0
M  V30 18624 H 1782.59 -1.93563 -2.2907 0
M  V30 18625 H 1780.14 -1.03716 -1.1693 0
M  V30 18626 H 1780.88 0.466723 -3.20924 0
M  V30 18627 H 1780.66 -1.23186 -3.72247 0
M  V30 18628 H 1782.15 -0.344469 -4.16177 0
M  V30 18629 N 1782.59 1.19452 -1.02805 0
M  V30 18630 C 1783.81 1.93616 -0.743485 0
M  V30 18631 C 1784.24 1.74934 0.691342 0
M  V30 18632 O 1783.6 1.05111 1.47721 0
M  V30 18633 C 1783.64 3.43451 -1.0988 0
M  V30 18634 O 1782.75 4.11829 -0.216978 0
M  V30 18635 H 1782.09 0.60448 -0.274771 0
M  V30 18636 H 1784.62 1.51554 -1.37451 0
M  V30 18637 H 1784.63 3.94115 -1.05535 0
M  V30 18638 H 1783.3 3.5637 -2.14413 0
M  V30 18639 H 1781.88 3.71533 -0.318954 0
M  V30 18640 N 1784.07 0.805805 1.35442 0
M  V30 18641 C 1785.48 0.489448 1.5191 0
M  V30 18642 C 1785.68 -0.989485 1.75532 0
M  V30 18643 O 1784.74 -1.77453 1.79629 0
M  V30 18644 C 1786.05 1.33413 2.69484 0
M  V30 18645 C 1787.6 1.32949 2.83361 0
M  V30 18646 C 1788.07 2.15827 4.03959 0
M  V30 18647 N 1789.57 2.13359 4.11135 0
M  V30 18648 C 1790.3 2.74245 5.03564 0
M  V30 18649 N 1789.8 3.44055 6.0133 0
M  V30 18650 N 1791.59 2.63891 4.96304 0
M  V30 18651 H 1783.74 1.76361 1.18366 0
M  V30 18652 H 1786 0.750594 0.579062 0
M  V30 18653 H 1785.71 2.38364 2.58603 0
M  V30 18654 H 1785.58 0.986809 3.64063 0
M  V30 18655 H 1787.97 0.287837 2.93693 0
M  V30 18656 H 1788.05 1.71668 1.89641 0
M  V30 18657 H 1787.7 3.20033 3.94388 0
M  V30 18658 H 1787.63 1.74469 4.96858 0
M  V30 18659 H 1790.12 1.62566 3.41146 0
M  V30 18660 H 1790.43 3.87802 6.68453 0
M  V30 18661 H 1788.77 3.48159 6.01507 0
M  V30 18662 H 1791.97 2.08941 4.18881 0
M  V30 18663 H 1792.14 3.11631 5.68146 0
M  V30 18664 N 1785.54 -1.47344 0.559239 0
M  V30 18665 C 1786.48 -2.26985 -0.235197 0
M  V30 18666 C 1787.46 -1.34177 -0.918443 0
M  V30 18667 O 1788.64 -1.63561 -0.937027 0
M  V30 18668 C 1785.77 -3.11267 -1.33532 0
M  V30 18669 C 1784.81 -4.19667 -0.760412 0
M  V30 18670 S 1785.65 -5.34044 0.394576 0
M  V30 18671 C 1786.8 -6.21891 -0.707314 0
M  V30 18672 H 1787.03 -2.94017 0.440606 0
M  V30 18673 H 1784.57 -1.50482 0.345606 0
M  V30 18674 H 1786.53 -3.60395 -1.96534 0
M  V30 18675 H 1785.19 -2.43593 -1.98296 0
M  V30 18676 H 1784.38 -4.78375 -1.58661 0
M  V30 18677 H 1783.98 -3.73429 -0.206528 0
M  V30 18678 H 1786.27 -6.58362 -1.59891 0
M  V30 18679 H 1787.22 -7.07925 -0.157535 0
M  V30 18680 H 1787.62 -5.55556 -1.0009 0
M  V30 18681 N 1787.02 -0.295795 -1.54799 0
M  V30 18682 C 1788.3 0.367858 -1.9211 0
M  V30 18683 C 1788.68 1.72103 -1.22244 0
M  V30 18684 O 1788.03 2.25704 -0.356377 0
M  V30 18685 C 1788.24 0.487673 -3.45576 0
M  V30 18686 C 1789.59 0.760966 -4.17725 0
M  V30 18687 O 1790.61 0.571687 -3.51582 0
M  V30 18688 O 1789.47 1.12423 -5.34812 0
M  V30 18689 H 1786.56 0.204758 -0.801251 0
M  V30 18690 H 1789.11 -0.343471 -1.66188 0
M  V30 18691 H 1787.88 -0.463798 -3.88542 0
M  V30 18692 H 1787.5 1.24767 -3.77517 0
M  V30 18693 N 1788.5 1.57583 -0.0234236 0
M  V30 18694 C 1789.73 1.96267 0.670371 0
M  V30 18695 C 1790.15 0.899586 1.65194 0
M  V30 18696 O 1789.51 -0.140079 1.80758 0
M  V30 18697 C 1789.56 3.34049 1.35806 0
M  V30 18698 O 1788.66 3.3001 2.4732 0
M  V30 18699 H 1788 0.640097 0.176557 0
M  V30 18700 H 1790.53 2.04429 -0.0835829 0
M  V30 18701 H 1790.54 3.70151 1.71616 0
M  V30 18702 H 1789.22 4.10969 0.63852 0
M  V30 18703 H 1787.79 3.05618 2.13664 0
M  V30 18704 N 1789.98 -0.249655 1.5561 0
M  V30 18705 C 1791.21 -0.995707 1.81365 0
M  V30 18706 C 1791.62 -1.79054 0.598767 0
M  V30 18707 O 1790.98 -1.773 -0.432538 0
M  V30 18708 C 1791.03 -1.93577 3.05303 0
M  V30 18709 O 1790.75 -1.17311 4.22102 0
M  V30 18710 C 1792.25 -2.79804 3.43838 0
M  V30 18711 H 1789.47 -0.293118 0.603591 0
M  V30 18712 H 1792.02 -0.273374 2.02665 0
M  V30 18713 H 1790.17 -2.61242 2.86062 0
M  V30 18714 H 1790.59 -1.80875 4.92326 0
M  V30 18715 H 1792.06 -3.4152 4.33668 0
M  V30 18716 H 1792.54 -3.50776 2.64298 0
M  V30 18717 H 1793.14 -2.17596 3.6542 0
M  V30 18718 N 1791.46 -1.48941 -0.515198 0
M  V30 18719 C 1792.71 -1.57398 -1.26768 0
M  V30 18720 C 1793.03 -0.256213 -1.93309 0
M  V30 18721 O 1792.3 0.723408 -1.82054 0
M  V30 18722 H 1790.88 -0.579895 -0.470883 0
M  V30 18723 H 1793.54 -1.85489 -0.598315 0
M  V30 18724 H 1792.63 -2.36272 -2.03916 0
M  V30 18725 N 1792.94 0.765193 -1.37777 0
M  V30 18726 C 1794.18 1.52623 -1.33545 0
M  V30 18727 C 1794.51 1.94043 0.077992 0
M  V30 18728 O 1793.79 1.64566 1.03673 0
M  V30 18729 C 1794.07 2.78679 -2.28057 0
M  V30 18730 C 1793.93 2.43471 -3.78209 0
M  V30 18731 C 1795.24 3.80646 -2.20899 0
M  V30 18732 H 1792.36 0.553678 -0.486425 0
M  V30 18733 H 1795.01 0.877326 -1.68532 0
M  V30 18734 H 1793.16 3.3405 -1.9835 0
M  V30 18735 H 1794.83 1.93965 -4.1854 0
M  V30 18736 H 1793.07 1.76081 -3.96457 0
M  V30 18737 H 1793.74 3.33609 -4.39783 0
M  V30 18738 H 1796.22 3.34786 -2.47099 0
M  V30 18739 H 1795.09 4.6656 -2.89159 0
M  V30 18740 H 1795.35 4.25389 -1.20403 0
M  V30 18741 N 1794.41 1.22455 0.992094 0
M  V30 18742 C 1795.82 1.04629 1.54627 0
M  V30 18743 C 1796.18 -0.390011 1.92285 0
M  V30 18744 O 1795.3 -1.27511 1.74842 0
M  V30 18745 C 1795.9 1.89306 2.80978 0
M  V30 18746 C 1794.45 1.75775 3.32836 0
M  V30 18747 C 1793.6 1.85724 2.05917 0
M  V30 18748 H 1796.55 1.36288 0.813089 0
M  V30 18749 H 1796.57 1.41095 3.53373 0
M  V30 18750 H 1796.09 2.93836 2.53539 0
M  V30 18751 H 1794.19 0.739821 3.65181 0
M  V30 18752 H 1794.3 2.58491 4.03385 0
M  V30 18753 H 1792.66 1.29173 2.19514 0
M  V30 18754 H 1793.45 2.91787 1.80874 0
M  V30 18755 N 1795.89 -1.18905 1.03437 0
M  V30 18756 C 1797.17 -1.84537 0.648503 0
M  V30 18757 C 1797.55 -1.92228 -0.872445 0
M  V30 18758 O 1796.9 -1.44342 -1.77137 0
M  V30 18759 C 1797.11 -3.23198 1.31698 0
M  V30 18760 C 1798.45 -3.99301 1.44374 0
M  V30 18761 O 1799.48 -3.32615 1.27458 0
M  V30 18762 O 1798.34 -5.18767 1.7188 0
M  V30 18763 H 1795.43 -0.795488 0.226114 0
M  V30 18764 H 1797.98 -1.2635 1.13287 0
M  V30 18765 H 1796.75 -3.12466 2.35543 0
M  V30 18766 H 1796.37 -3.89035 0.820829 0
M  V30 18767 N 1797.37 -0.812977 -1.35013 0
M  V30 18768 C 1798.79 -0.497497 -1.51648 0
M  V30 18769 C 1798.99 0.980162 -1.76054 0
M  V30 18770 O 1798.04 1.76498 -1.80567 0
M  V30 18771 C 1799.35 -1.3484 -2.68772 0
M  V30 18772 C 1800.9 -1.3445 -2.82652 0
M  V30 18773 C 1801.38 -2.17966 -4.02808 0
M  V30 18774 N 1802.87 -2.15537 -4.09998 0
M  V30 18775 C 1803.6 -2.76912 -5.02103 0
M  V30 18776 N 1803.1 -3.47239 -5.99497 0
M  V30 18777 N 1804.89 -2.66519 -4.94898 0
M  V30 18778 H 1797.04 -1.76987 -1.17429 0
M  V30 18779 H 1799.31 -0.753654 -0.575073 0
M  V30 18780 H 1799.01 -2.39732 -2.57336 0
M  V30 18781 H 1798.89 -1.0061 -3.63535 0
M  V30 18782 H 1801.27 -0.303409 -2.93536 0
M  V30 18783 H 1801.35 -1.72671 -1.88728 0
M  V30 18784 H 1801 -3.2212 -3.92685 0
M  V30 18785 H 1800.93 -1.77102 -4.95926 0
M  V30 18786 H 1803.42 -1.64373 -3.40279 0
M  V30 18787 H 1803.73 -3.91341 -6.66387 0
M  V30 18788 H 1802.08 -3.51344 -5.99652 0
M  V30 18789 H 1805.27 -2.1116 -4.17767 0
M  V30 18790 H 1805.44 -3.14639 -5.66486 0
M  V30 18791 N 1798.85 1.47045 -0.567045 0
M  V30 18792 C 1800.1 2.01651 -0.044479 0
M  V30 18793 C 1800.41 1.44583 1.31738 0
M  V30 18794 O 1801.62 1.90911 1.93042 0
M  V30 18795 C 1800.07 3.59888 -0.0289854 0
M  V30 18796 C 1799.68 4.25949 -1.38821 0
M  V30 18797 C 1801.42 4.22209 0.440457 0
M  V30 18798 C 1799.33 5.76221 -1.33129 0
M  V30 18799 H 1798.26 0.75389 -0.012858 0
M  V30 18800 H 1800.91 1.68939 -0.716363 0
M  V30 18801 H 1799.29 3.89606 0.708747 0
M  V30 18802 H 1800.47 4.07861 -2.14443 0
M  V30 18803 H 1798.78 3.75658 -1.79639 0
M  V30 18804 H 1801.38 5.32342 0.501592 0
M  V30 18805 H 1801.72 3.9006 1.45461 0
M  V30 18806 H 1802.26 3.97059 -0.242721 0
M  V30 18807 H 1798.99 6.13005 -2.32175 0
M  V30 18808 H 1798.51 5.96618 -0.617023 0
M  V30 18809 H 1800.19 6.38627 -1.03752 0
M  V30 18810 N 1800.33 0.304 1.5464 0
M  V30 18811 C 1801.26 -0.604475 2.21085 0
M  V30 18812 C 1802.27 -1.0952 1.20454 0
M  V30 18813 O 1803.46 -1.01214 1.47031 0
M  V30 18814 C 1800.56 -1.8399 2.84607 0
M  V30 18815 C 1799.73 -1.49116 4.11197 0
M  V30 18816 C 1798.79 -2.58205 4.58494 0
M  V30 18817 O 1797.82 -2.23171 5.23625 0
M  V30 18818 N 1799.02 -3.88798 4.31065 0
M  V30 18819 H 1801.78 -0.035633 2.99679 0
M  V30 18820 H 1799.35 0.126332 1.61406 0
M  V30 18821 H 1801.34 -2.56322 3.13179 0
M  V30 18822 H 1799.91 -2.31706 2.09836 0
M  V30 18823 H 1799.13 -0.600347 3.89602 0
M  V30 18824 H 1800.42 -1.23358 4.93619 0
M  V30 18825 H 1799.81 -4.20068 3.78892 0
M  V30 18826 H 1798.37 -4.57419 4.6434 0
M  V30 18827 N 1801.8 -1.57568 0.0317802 0
M  V30 18828 C 1803.05 -1.92194 -0.647238 0
M  V30 18829 C 1803.38 -0.908747 -1.71626 0
M  V30 18830 O 1802.66 0.0681334 -1.94381 0
M  V30 18831 C 1802.94 -3.3729 -1.26124 0
M  V30 18832 C 1802.79 -4.49348 -0.201594 0
M  V30 18833 C 1804.11 -3.824 -2.17849 0
M  V30 18834 H 1801.23 -0.698927 -0.233817 0
M  V30 18835 H 1803.87 -1.89789 0.0895831 0
M  V30 18836 H 1802.02 -3.39471 -1.88922 0
M  V30 18837 H 1803.7 -4.59299 0.429155 0
M  V30 18838 H 1801.94 -4.31218 0.472624 0
M  V30 18839 H 1802.61 -5.47908 -0.670859 0
M  V30 18840 H 1805.09 -3.81972 -1.65034 0
M  V30 18841 H 1803.96 -4.84614 -2.57761 0
M  V30 18842 H 1804.22 -3.18054 -3.07073 0
M  V30 18843 N 1803.28 0.241399 -1.5574 0
M  V30 18844 C 1804.51 0.986075 -1.81891 0
M  V30 18845 C 1804.93 1.78734 -0.608254 0
M  V30 18846 O 1804.28 1.77527 0.423129 0
M  V30 18847 C 1804.33 1.91956 -3.06325 0
M  V30 18848 O 1804.05 1.15071 -4.22718 0
M  V30 18849 C 1805.56 2.77977 -3.45317 0
M  V30 18850 H 1802.78 0.289913 -0.605137 0
M  V30 18851 H 1805.32 0.262622 -2.02807 0
M  V30 18852 H 1803.47 2.59721 -2.87443 0
M  V30 18853 H 1803.89 1.78261 -4.93278 0
M  V30 18854 H 1805.36 3.39215 -4.35474 0
M  V30 18855 H 1805.84 3.49369 -2.66154 0
M  V30 18856 H 1806.45 2.15655 -3.66569 0
M  V30 18857 N 1804.76 1.49212 0.507292 0
M  V30 18858 C 1805.99 1.6208 1.28599 0
M  V30 18859 C 1806.4 0.289745 1.86563 0
M  V30 18860 O 1805.76 -0.723987 1.67525 0
M  V30 18861 C 1805.81 2.68482 2.42074 0
M  V30 18862 O 1805.53 3.96424 1.86493 0
M  V30 18863 C 1807.03 2.91997 3.33546 0
M  V30 18864 H 1804.25 0.545831 0.390268 0
M  V30 18865 H 1806.8 1.95201 0.609652 0
M  V30 18866 H 1804.95 2.38156 3.05549 0
M  V30 18867 H 1805.37 4.54983 2.60942 0
M  V30 18868 H 1806.84 3.70195 4.09463 0
M  V30 18869 H 1807.32 2.01673 3.9016 0
M  V30 18870 H 1807.92 3.23715 2.75842 0
M  V30 18871 N 1806.24 -0.757876 1.38181 0
M  V30 18872 C 1807.52 -1.50715 1.24677 0
M  V30 18873 C 1807.9 -2.1054 -0.153689 0
M  V30 18874 O 1807.24 -1.96703 -1.16276 0
M  V30 18875 C 1807.45 -2.57695 2.3536 0
M  V30 18876 C 1808.8 -3.24716 2.73578 0
M  V30 18877 O 1809.83 -2.67997 2.3464 0
M  V30 18878 O 1808.68 -4.27294 3.40709 0
M  V30 18879 H 1805.78 -0.668175 0.487311 0
M  V30 18880 H 1808.32 -0.793653 1.49997 0
M  V30 18881 H 1807.1 -2.11706 3.29084 0
M  V30 18882 H 1806.72 -3.36629 2.11581 0
M  V30 18883 N 1807.72 -1.22979 -0.985586 0
M  V30 18884 C 1808.65 -0.949615 -2.07503 0
M  V30 18885 C 1809.63 0.110178 -1.62226 0
M  V30 18886 O 1810.81 -0.022974 -1.88486 0
M  V30 18887 C 1807.94 -0.429626 -3.35964 0
M  V30 18888 C 1806.98 -1.47522 -4.00174 0
M  V30 18889 S 1807.82 -3.05095 -4.40088 0
M  V30 18890 C 1808.97 -2.54753 -5.71709 0
M  V30 18891 H 1809.21 -1.87215 -2.3095 0
M  V30 18892 H 1806.74 -1.06167 -1.12107 0
M  V30 18893 H 1808.7 -0.136212 -4.10274 0
M  V30 18894 H 1807.36 0.471907 -3.10535 0
M  V30 18895 H 1806.55 -1.06142 -4.92697 0
M  V30 18896 H 1806.15 -1.71772 -3.3222 0
M  V30 18897 H 1808.45 -1.9645 -6.48393 0
M  V30 18898 H 1809.39 -3.45795 -6.17925 0
M  V30 18899 H 1809.8 -1.95785 -5.29461 0
M  V30 18900 N 1809.19 1.18355 -1.04066 0
M  V30 18901 C 1810.42 1.91996 -0.762952 0
M  V30 18902 C 1810.83 1.76413 0.683745 0
M  V30 18903 O 1810.18 1.09121 1.47778 0
M  V30 18904 C 1810.24 3.4384 -1.04949 0
M  V30 18905 C 1809.9 3.83201 -2.4901 0
M  V30 18906 C 1810.9 3.86984 -3.47187 0
M  V30 18907 C 1808.58 4.14497 -2.83721 0
M  V30 18908 C 1810.58 4.21513 -4.78127 0
M  V30 18909 C 1808.26 4.48696 -4.14867 0
M  V30 18910 C 1809.26 4.52181 -5.1188 0
M  V30 18911 O 1808.95 4.85582 -6.40676 0
M  V30 18912 H 1808.68 0.616351 -0.277647 0
M  V30 18913 H 1811.24 1.51092 -1.39141 0
M  V30 18914 H 1809.47 3.84984 -0.363904 0
M  V30 18915 H 1811.16 3.98729 -0.759579 0
M  V30 18916 H 1811.92 3.62944 -3.21709 0
M  V30 18917 H 1807.8 4.10962 -2.08881 0
M  V30 18918 H 1811.34 4.24148 -5.53845 0
M  V30 18919 H 1807.24 4.72198 -4.40113 0
M  V30 18920 H 1808.01 5.03485 -6.45326 0
M  V30 18921 N 1810.67 0.820125 1.3458 0
M  V30 18922 C 1811.6 0.197556 2.28347 0
M  V30 18923 C 1812.62 -0.610956 1.50901 0
M  V30 18924 O 1813.81 -0.441096 1.72964 0
M  V30 18925 C 1810.91 -0.741893 3.3068 0
M  V30 18926 C 1810.08 0.0231854 4.37394 0
M  V30 18927 C 1809.14 -0.83677 5.19504 0
M  V30 18928 O 1808.16 -0.282772 5.68497 0
M  V30 18929 N 1809.37 -2.15696 5.38939 0
M  V30 18930 H 1812.13 1.00314 2.82413 0
M  V30 18931 H 1809.69 0.676827 1.47074 0
M  V30 18932 H 1811.68 -1.32173 3.82508 0
M  V30 18933 H 1810.25 -1.44823 2.77029 0
M  V30 18934 H 1809.47 0.784316 3.86319 0
M  V30 18935 H 1810.76 0.549958 5.05819 0
M  V30 18936 H 1810.16 -2.63083 5.00803 0
M  V30 18937 H 1808.72 -2.68572 5.93896 0
M  V30 18938 N 1812.15 -1.46743 0.574835 0
M  V30 18939 C 1813.4 -2.02718 0.0575005 0
M  V30 18940 C 1813.73 -1.4463 -1.29599 0
M  V30 18941 O 1813 -0.608422 -1.84739 0
M  V30 18942 C 1813.29 -3.60096 -0.016719 0
M  V30 18943 C 1813.14 -4.28584 1.36511 0
M  V30 18944 C 1814.46 -4.34149 -0.721324 0
M  V30 18945 H 1811.58 -0.73666 0.0223697 0
M  V30 18946 H 1814.22 -1.74975 0.74052 0
M  V30 18947 H 1812.37 -3.83864 -0.598396 0
M  V30 18948 H 1814.04 -4.16104 1.99135 0
M  V30 18949 H 1812.29 -3.88253 1.935 0
M  V30 18950 H 1812.96 -5.37293 1.26573 0
M  V30 18951 H 1815.43 -4.15479 -0.227256 0
M  V30 18952 H 1814.31 -5.43858 -0.742263 0
M  V30 18953 H 1814.57 -4.04637 -1.78106 0
M  V30 18954 N 1813.63 -0.312197 -1.54477 0
M  V30 18955 C 1814.56 0.551829 -2.26886 0
M  V30 18956 C 1815.54 1.12874 -1.27254 0
M  V30 18957 O 1816.72 1.15599 -1.56046 0
M  V30 18958 C 1813.85 1.71839 -3.01809 0
M  V30 18959 C 1812.81 1.27131 -4.08683 0
M  V30 18960 C 1812.13 2.52392 -4.71384 0
M  V30 18961 C 1813.43 0.394413 -5.20809 0
M  V30 18962 H 1815.13 -0.0521331 -2.99355 0
M  V30 18963 H 1812.67 -0.0265138 -1.43976 0
M  V30 18964 H 1814.63 2.32903 -3.5119 0
M  V30 18965 H 1813.35 2.34876 -2.26938 0
M  V30 18966 H 1812.01 0.683666 -3.60169 0
M  V30 18967 H 1811.66 3.13768 -3.93139 0
M  V30 18968 H 1811.36 2.23174 -5.43569 0
M  V30 18969 H 1812.88 3.14239 -5.23533 0
M  V30 18970 H 1814.3 0.911031 -5.66015 0
M  V30 18971 H 1812.69 0.195517 -5.99781 0
M  V30 18972 H 1813.76 -0.577661 -4.81447 0
M  V30 18973 N 1815.11 1.57549 -0.040136 0
M  V30 18974 C 1816.07 2.09788 0.923126 0
M  V30 18975 C 1817.07 1.01518 1.24703 0
M  V30 18976 O 1818.26 1.27635 1.18554 0
M  V30 18977 C 1815.39 2.57293 2.23636 0
M  V30 18978 H 1816.58 2.96187 0.470482 0
M  V30 18979 H 1814.14 1.54909 0.208088 0
M  V30 18980 H 1814.87 1.74256 2.73506 0
M  V30 18981 H 1814.66 3.36402 2.01435 0
M  V30 18982 H 1816.15 2.97895 2.92658 0
M  V30 18983 N 1816.58 -0.233136 1.55866 0
M  V30 18984 C 1817.55 -1.27227 1.90646 0
M  V30 18985 C 1818.55 -1.4039 0.784038 0
M  V30 18986 O 1819.74 -1.38854 1.05191 0
M  V30 18987 C 1816.87 -2.64791 2.14706 0
M  V30 18988 H 1818.06 -0.975986 2.83575 0
M  V30 18989 H 1815.62 -0.473045 1.4897 0
M  V30 18990 H 1816.35 -2.99537 1.24291 0
M  V30 18991 H 1816.14 -2.56615 2.96464 0
M  V30 18992 H 1817.63 -3.39797 2.4275 0
M  V30 18993 N 1818.06 -1.49479 -0.499372 0
M  V30 18994 C 1819.01 -1.66756 -1.62158 0
M  V30 18995 C 1820.01 -0.533485 -1.6078 0
M  V30 18996 O 1821.21 -0.713167 -1.65269 0
M  V30 18997 H 1817.59 -0.525853 -0.537571 0
M  V30 18998 H 1819.56 -2.60947 -1.44738 0
M  V30 18999 C 1818.31 -1.75287 -3.00283 0
M  V30 19000 H 1817.63 -2.61928 -3.02049 0
M  V30 19001 H 1819.07 -1.91411 -3.78336 0
M  V30 19002 C 1817.53 -0.498056 -3.33198 0
M  V30 19003 O 1818.06 0.375528 -3.99941 0
M  V30 19004 N 1816.26 -0.360513 -2.88355 0
M  V30 19005 H 1815.81 -1.0724 -2.34216 0
M  V30 19006 H 1815.77 0.477981 -3.10745 0
M  V30 19007 N 1819.54 0.750537 -1.38581 0
M  V30 19008 C 1820.77 1.53978 -1.38196 0
M  V30 19009 C 1821.18 1.8878 0.0274976 0
M  V30 19010 O 1820.54 1.52997 0.994894 0
M  V30 19011 C 1820.59 2.83702 -2.24043 0
M  V30 19012 O 1820.31 2.50384 -3.59499 0
M  V30 19013 C 1821.81 3.77823 -2.31872 0
M  V30 19014 H 1819.03 0.476345 -0.472585 0
M  V30 19015 H 1821.58 0.928634 -1.82199 0
M  V30 19016 H 1819.73 3.41187 -1.83494 0
M  V30 19017 H 1820.15 3.33605 -4.04732 0
M  V30 19018 H 1821.62 4.65788 -2.96218 0
M  V30 19019 H 1822.1 4.18474 -1.33327 0
M  V30 19020 H 1822.7 3.26262 -2.72824 0
M  V30 19021 N 1821.02 1.235 0.979051 0
M  V30 19022 C 1822.25 1.09304 1.75318 0
M  V30 19023 C 1822.66 -0.358266 1.85777 0
M  V30 19024 O 1822 -1.25956 1.33719 0
M  V30 19025 C 1822.06 1.6457 3.1962 0
M  V30 19026 C 1821.73 3.1334 3.32666 0
M  V30 19027 C 1822.72 4.1062 3.18885 0
M  V30 19028 C 1820.41 3.53076 3.57271 0
M  V30 19029 C 1822.4 5.45617 3.29515 0
M  V30 19030 C 1820.09 4.88218 3.67541 0
M  V30 19031 C 1821.09 5.84298 3.53674 0
M  V30 19032 O 1820.78 7.16985 3.63577 0
M  V30 19033 H 1820.51 0.383087 0.556974 0
M  V30 19034 H 1823.06 1.6385 1.23864 0
M  V30 19035 H 1821.29 1.04446 3.72328 0
M  V30 19036 H 1822.98 1.4583 3.78799 0
M  V30 19037 H 1823.75 3.81264 2.99771 0
M  V30 19038 H 1819.63 2.78804 3.67136 0
M  V30 19039 H 1823.17 6.20592 3.18608 0
M  V30 19040 H 1819.07 5.17249 3.86165 0
M  V30 19041 H 1819.83 7.24752 3.80364 0
M  V30 19042 N 1822.5 -1.17802 1.04693 0
M  V30 19043 C 1823.43 -2.21166 0.601507 0
M  V30 19044 C 1824.44 -1.59376 -0.332128 0
M  V30 19045 O 1825.63 -1.78057 -0.125653 0
M  V30 19046 C 1822.73 -3.38609 -0.140442 0
M  V30 19047 C 1821.9 -4.29973 0.802637 0
M  V30 19048 C 1820.96 -5.26099 0.102853 0
M  V30 19049 O 1819.99 -5.6443 0.735325 0
M  V30 19050 N 1821.19 -5.68761 -1.16154 0
M  V30 19051 H 1823.96 -2.60004 1.49057 0
M  V30 19052 H 1821.52 -1.3265 0.928199 0
M  V30 19053 H 1823.51 -3.99944 -0.618587 0
M  V30 19054 H 1822.08 -2.98411 -0.931117 0
M  V30 19055 H 1821.3 -3.66146 1.46051 0
M  V30 19056 H 1822.59 -4.8791 1.44296 0
M  V30 19057 H 1821.99 -5.39684 -1.6958 0
M  V30 19058 H 1820.54 -6.32264 -1.58384 0
M  V30 19059 N 1823.98 -0.827251 -1.34143 0
M  V30 19060 C 1824.91 -0.267015 -2.31968 0
M  V30 19061 C 1825.89 0.618906 -1.58441 0
M  V30 19062 O 1827.07 0.544882 -1.86399 0
M  V30 19063 C 1824.2 0.568379 -3.42617 0
M  V30 19064 C 1823.16 -0.220767 -4.2743 0
M  V30 19065 C 1822.48 0.737643 -5.29587 0
M  V30 19066 C 1823.78 -1.43137 -5.02304 0
M  V30 19067 H 1825.48 -1.08436 -2.79073 0
M  V30 19068 H 1823.02 -0.522879 -1.34171 0
M  V30 19069 H 1824.97 0.970525 -4.10072 0
M  V30 19070 H 1823.7 1.41882 -2.94172 0
M  V30 19071 H 1822.36 -0.604333 -3.61585 0
M  V30 19072 H 1822.01 1.58416 -4.77403 0
M  V30 19073 H 1821.71 0.213815 -5.87211 0
M  V30 19074 H 1823.23 1.13755 -5.9991 0
M  V30 19075 H 1824.64 -1.10301 -5.62589 0
M  V30 19076 H 1823.04 -1.89115 -5.69522 0
M  V30 19077 H 1824.11 -2.2073 -4.31748 0
M  V30 19078 N 1825.45 1.46436 -0.582609 0
M  V30 19079 C 1826.36 2.34099 0.153178 0
M  V30 19080 C 1827.38 1.49745 0.886135 0
M  V30 19081 O 1828.56 1.82615 0.849341 0
M  V30 19082 C 1825.62 3.26929 1.15404 0
M  V30 19083 C 1824.68 4.27183 0.425764 0
M  V30 19084 C 1823.91 5.15578 1.37895 0
M  V30 19085 O 1824.14 5.06903 2.61545 0
M  V30 19086 O 1823.07 5.9529 0.889585 0
M  V30 19087 H 1826.9 2.98368 -0.566585 0
M  V30 19088 H 1824.48 1.45409 -0.343013 0
M  V30 19089 H 1826.36 3.842 1.73114 0
M  V30 19090 H 1825.04 2.65257 1.85527 0
M  V30 19091 H 1823.95 3.73601 -0.193175 0
M  V30 19092 H 1825.28 4.91641 -0.234496 0
M  V30 19093 N 1826.93 0.320385 1.54309 0
M  V30 19094 C 1828.17 -0.283775 2.02421 0
M  V30 19095 C 1828.54 -1.49594 1.20357 0
M  V30 19096 O 1829.74 -2.17275 1.58256 0
M  V30 19097 C 1828.01 -0.612699 3.52109 0
M  V30 19098 S 1829.57 -1.19697 4.22159 0
M  V30 19099 H 1826.38 -0.0860212 0.705777 0
M  V30 19100 H 1828.99 0.452768 1.90185 0
M  V30 19101 H 1827.69 0.277697 4.09459 0
M  V30 19102 H 1827.22 -1.37952 3.68419 0
M  V30 19103 H 1829.24 -2.48394 4.29552 0
M  V30 19104 N 1828.41 -1.57525 0.0484906 0
M  V30 19105 C 1829.83 -1.56599 -0.308041 0
M  V30 19106 C 1830.03 -1.05591 -1.71618 0
M  V30 19107 O 1829.08 -0.711302 -2.42274 0
M  V30 19108 C 1830.39 -3.00379 -0.138955 0
M  V30 19109 C 1831.94 -3.12293 -0.210262 0
M  V30 19110 C 1832.42 -4.57947 -0.0697369 0
M  V30 19111 N 1833.91 -4.63028 -0.1261 0
M  V30 19112 C 1834.64 -5.73385 -0.0414392 0
M  V30 19113 N 1834.14 -6.92734 0.0954164 0
M  V30 19114 N 1835.93 -5.62017 -0.0968281 0
M  V30 19115 H 1828.08 -1.89005 0.969069 0
M  V30 19116 H 1830.35 -0.87027 0.375944 0
M  V30 19117 H 1830.05 -3.41722 0.831808 0
M  V30 19118 H 1829.93 -3.66278 -0.901109 0
M  V30 19119 H 1832.31 -2.7085 -1.1715 0
M  V30 19120 H 1832.39 -2.49077 0.582601 0
M  V30 19121 H 1832.04 -5.00074 0.888161 0
M  V30 19122 H 1831.97 -5.19166 -0.881711 0
M  V30 19123 H 1834.46 -3.77192 -0.231232 0
M  V30 19124 H 1834.77 -7.72649 0.152796 0
M  V30 19125 H 1833.12 -6.94878 0.130465 0
M  V30 19126 H 1836.31 -4.67663 -0.202283 0
M  V30 19127 H 1836.48 -6.47994 -0.0273908 0
M  V30 19128 N 1829.89 0.224867 -1.55988 0
M  V30 19129 C 1831.14 0.947871 -1.78493 0
M  V30 19130 C 1831.46 1.85001 -0.616413 0
M  V30 19131 O 1830.73 1.92435 0.366847 0
M  V30 19132 H 1829.31 0.352987 -0.658338 0
M  V30 19133 H 1831.97 0.237519 -1.93447 0
M  V30 19134 H 1831.06 1.55664 -2.70509 0
M  V30 19135 N 1831.37 1.49742 0.491438 0
M  V30 19136 C 1832.61 1.59947 1.24679 0
M  V30 19137 C 1832.94 0.289598 1.92029 0
M  V30 19138 O 1832.22 -0.707544 1.81174 0
M  V30 19139 C 1832.5 2.7655 2.30634 0
M  V30 19140 C 1832.36 4.1736 1.67723 0
M  V30 19141 C 1833.67 2.88764 3.3212 0
M  V30 19142 H 1830.79 0.582173 0.451934 0
M  V30 19143 H 1833.44 1.8206 0.543517 0
M  V30 19144 H 1831.59 2.57826 2.90616 0
M  V30 19145 H 1833.26 4.47623 1.11495 0
M  V30 19146 H 1831.5 4.22562 0.981 0
M  V30 19147 H 1832.17 4.94838 2.44621 0
M  V30 19148 H 1834.65 3.05838 2.82139 0
M  V30 19149 H 1833.52 3.7201 4.03608 0
M  V30 19150 H 1833.78 1.98517 3.95023 0
M  V30 19151 N 1832.84 -0.743177 1.38977 0
M  V30 19152 C 1834.09 -1.50479 1.35956 0
M  V30 19153 C 1834.42 -1.94143 -0.0471116 0
M  V30 19154 O 1833.7 -1.66195 -1.01042 0
M  V30 19155 C 1833.98 -2.75016 2.32461 0
M  V30 19156 C 1833.83 -2.37423 3.82034 0
M  V30 19157 C 1835.15 -3.77084 2.26927 0
M  V30 19158 H 1832.27 -0.545869 0.495172 0
M  V30 19159 H 1834.91 -0.850403 1.69906 0
M  V30 19160 H 1833.06 -3.30852 2.03639 0
M  V30 19161 H 1834.74 -1.87282 4.21572 0
M  V30 19162 H 1832.98 -1.69752 3.99208 0
M  V30 19163 H 1833.65 -3.2657 4.45035 0
M  V30 19164 H 1836.13 -3.30812 2.52394 0
M  V30 19165 H 1835 -4.61901 2.96545 0
M  V30 19166 H 1835.26 -4.23419 1.27156 0
M  V30 19167 N 1834.32 -1.24018 -0.972487 0
M  V30 19168 C 1835.27 -1.02834 -2.06625 0
M  V30 19169 C 1836.24 0.056804 -1.66003 0
M  V30 19170 O 1837.42 -0.0968745 -1.90554 0
M  V30 19171 C 1834.56 -0.634103 -3.39224 0
M  V30 19172 C 1833.68 -1.79222 -3.93069 0
M  V30 19173 C 1832.81 -1.34401 -5.13916 0
M  V30 19174 C 1831.85 -2.47238 -5.59946 0
M  V30 19175 N 1830.99 -2.03319 -6.72016 0
M  V30 19176 H 1835.83 -1.96451 -2.24078 0
M  V30 19177 H 1833.37 -0.978545 -1.09831 0
M  V30 19178 H 1835.32 -0.386584 -4.15405 0
M  V30 19179 H 1833.95 0.26506 -3.2171 0
M  V30 19180 H 1833.01 -2.15353 -3.13572 0
M  V30 19181 H 1834.32 -2.64023 -4.23194 0
M  V30 19182 H 1833.47 -1.05509 -5.97455 0
M  V30 19183 H 1832.21 -0.466476 -4.85464 0
M  V30 19184 H 1831.22 -2.76895 -4.74983 0
M  V30 19185 H 1832.44 -3.35541 -5.90415 0
M  V30 19186 H 1830.39 -1.17956 -6.45308 0
M  V30 19187 H 1830.3 -2.81675 -7.01566 0
M  V30 19188 H 1831.57 -1.77553 -7.59009 0
M  V30 19189 N 1835.8 1.17245 -1.05316 0
M  V30 19190 C 1837.05 1.87813 -0.765112 0
M  V30 19191 C 1837.38 1.80907 0.706147 0
M  V30 19192 O 1836.65 1.21793 1.51647 0
M  V30 19193 C 1836.94 3.3779 -1.24779 0
M  V30 19194 C 1836.79 3.53441 -2.78208 0
M  V30 19195 C 1838.11 4.31857 -0.847805 0
M  V30 19196 H 1835.23 0.681979 -0.279415 0
M  V30 19197 H 1837.87 1.37869 -1.30737 0
M  V30 19198 H 1836.02 3.80456 -0.786487 0
M  V30 19199 H 1837.69 3.19782 -3.32472 0
M  V30 19200 H 1835.94 2.95678 -3.17423 0
M  V30 19201 H 1836.61 4.58725 -3.07043 0
M  V30 19202 H 1839.08 3.97039 -1.24496 0
M  V30 19203 H 1837.96 5.35326 -1.21313 0
M  V30 19204 H 1838.22 4.41403 0.248104 0
M  V30 19205 N 1837.28 0.834353 1.33702 0
M  V30 19206 C 1838.23 0.26233 2.29304 0
M  V30 19207 C 1839.2 -0.619326 1.54122 0
M  V30 19208 O 1840.38 -0.558551 1.82441 0
M  V30 19209 C 1837.52 -0.560341 3.4052 0
M  V30 19210 C 1836.63 0.344832 4.30622 0
M  V30 19211 C 1835.77 -0.488505 5.28949 0
M  V30 19212 C 1834.81 0.415341 6.10689 0
M  V30 19213 N 1833.94 -0.3796 7.01073 0
M  V30 19214 H 1838.78 1.08291 2.77628 0
M  V30 19215 H 1836.32 0.545497 1.36612 0
M  V30 19216 H 1838.28 -1.05274 4.03699 0
M  V30 19217 H 1836.91 -1.34593 2.93402 0
M  V30 19218 H 1835.96 0.955519 3.68204 0
M  V30 19219 H 1837.27 1.03935 4.87851 0
M  V30 19220 H 1836.43 -1.04492 5.97634 0
M  V30 19221 H 1835.17 -1.21648 4.72285 0
M  V30 19222 H 1834.17 0.983803 5.40926 0
M  V30 19223 H 1835.4 1.1416 6.69436 0
M  V30 19224 H 1833.34 -1.09103 6.46864 0
M  V30 19225 H 1833.26 0.25629 7.55565 0
M  V30 19226 H 1834.53 -0.918394 7.74071 0
M  V30 19227 N 1838.76 -1.46125 0.590367 0
M  V30 19228 C 1840 -2.01947 0.0787256 0
M  V30 19229 C 1840.33 -1.4634 -1.28878 0
M  V30 19230 O 1839.6 -0.651011 -1.84767 0
M  V30 19231 H 1838.18 -0.746543 0.0261125 0
M  V30 19232 H 1840.84 -1.79136 0.767877 0
M  V30 19233 H 1839.93 -3.12096 0.0154914 0
M  V30 19234 N 1840.23 -0.328564 -1.54137 0
M  V30 19235 C 1841.18 0.535112 -2.24511 0
M  V30 19236 C 1842.15 1.10765 -1.23776 0
M  V30 19237 O 1843.34 1.14706 -1.52471 0
M  V30 19238 C 1840.48 1.68765 -3.01019 0
M  V30 19239 C 1839.59 1.14387 -4.16581 0
M  V30 19240 C 1838.72 2.26249 -4.80609 0
M  V30 19241 C 1837.76 1.69146 -5.88265 0
M  V30 19242 N 1836.9 2.74691 -6.46134 0
M  V30 19243 H 1841.74 -0.0715726 -2.97914 0
M  V30 19244 H 1839.28 -0.0470933 -1.47025 0
M  V30 19245 H 1841.24 2.36594 -3.43626 0
M  V30 19246 H 1839.87 2.26555 -2.29941 0
M  V30 19247 H 1838.92 0.356974 -3.78721 0
M  V30 19248 H 1840.23 0.686063 -4.94059 0
M  V30 19249 H 1839.38 3.01973 -5.2621 0
M  V30 19250 H 1838.12 2.75368 -4.02522 0
M  V30 19251 H 1837.13 0.919217 -5.42061 0
M  V30 19252 H 1838.35 1.20897 -6.68252 0
M  V30 19253 H 1836.3 3.23091 -5.70918 0
M  V30 19254 H 1836.22 2.33488 -7.19041 0
M  V30 19255 H 1837.48 3.50228 -6.96391 0
M  V30 19256 N 1841.71 1.57497 -0.0568439 0
M  V30 19257 C 1842.96 1.92533 0.614452 0
M  V30 19258 C 1843.28 0.936373 1.71047 0
M  V30 19259 O 1842.55 -0.0178803 1.95892 0
M  V30 19260 H 1841.13 0.710724 0.229958 0
M  V30 19261 H 1843.79 1.94583 -0.111181 0
M  V30 19262 H 1842.89 2.93928 1.04941 0
M  V30 19263 N 1843.19 -0.216591 1.56105 0
M  V30 19264 C 1844.1 -1.28933 1.95994 0
M  V30 19265 C 1845.12 -1.51007 0.864464 0
M  V30 19266 O 1846.29 -1.6404 1.16845 0
M  V30 19267 C 1843.36 -2.61807 2.27284 0
M  V30 19268 C 1842.42 -2.47992 3.50426 0
M  V30 19269 C 1841.65 -3.7453 3.80214 0
M  V30 19270 O 1841.87 -4.77765 3.11604 0
M  V30 19271 O 1840.81 -3.71345 4.73694 0
M  V30 19272 H 1844.63 -0.980864 2.87424 0
M  V30 19273 H 1842.22 -0.419859 1.43379 0
M  V30 19274 H 1844.1 -3.40272 2.48582 0
M  V30 19275 H 1842.78 -2.92324 1.39026 0
M  V30 19276 H 1841.68 -1.67711 3.34401 0
M  V30 19277 H 1843.02 -2.22413 4.39082 0
M  V30 19278 N 1844.67 -1.5 -0.48349 0
M  V30 19279 C 1845.6 -1.62581 -1.60133 0
M  V30 19280 C 1846.58 -0.474276 -1.55529 0
M  V30 19281 O 1847.76 -0.692152 -1.75333 0
M  V30 19282 C 1844.89 -1.59695 -2.98689 0
M  V30 19283 C 1843.94 -2.8026 -3.21492 0
M  V30 19284 S 1844.77 -4.41722 -3.02724 0
M  V30 19285 C 1845.93 -4.41509 -4.43645 0
M  V30 19286 H 1846.16 -2.5714 -1.49219 0
M  V30 19287 H 1843.69 -1.39109 -0.669933 0
M  V30 19288 H 1845.65 -1.58716 -3.78576 0
M  V30 19289 H 1844.31 -0.66394 -3.07003 0
M  V30 19290 H 1843.5 -2.74509 -4.22683 0
M  V30 19291 H 1843.11 -2.78742 -2.49357 0
M  V30 19292 H 1845.4 -4.14307 -5.36056 0
M  V30 19293 H 1846.34 -5.43037 -4.54441 0
M  V30 19294 H 1846.75 -3.71367 -4.25143 0
M  V30 19295 N 1846.15 0.735796 -1.39369 0
M  V30 19296 C 1847.08 1.85854 -1.32414 0
M  V30 19297 C 1848.06 1.61391 -0.197947 0
M  V30 19298 O 1849.24 1.84666 -0.378263 0
M  V30 19299 C 1846.37 3.2182 -1.05592 0
M  V30 19300 C 1845.41 3.65144 -2.20391 0
M  V30 19301 S 1846.25 3.74604 -3.82664 0
M  V30 19302 C 1847.4 5.13361 -3.58066 0
M  V30 19303 H 1847.64 1.9147 -2.27435 0
M  V30 19304 H 1845.17 0.900577 -1.25415 0
M  V30 19305 H 1847.13 4.00332 -0.908013 0
M  V30 19306 H 1845.79 3.13861 -0.122598 0
M  V30 19307 H 1844.98 4.63813 -1.97214 0
M  V30 19308 H 1844.58 2.93835 -2.3138 0
M  V30 19309 H 1846.88 5.9967 -3.15282 0
M  V30 19310 H 1847.82 5.41566 -4.56193 0
M  V30 19311 H 1848.23 4.83 -2.92184 0
M  V30 19312 N 1847.63 1.24532 0.965897 0
M  V30 19313 C 1848.85 1.11318 1.74401 0
M  V30 19314 C 1849.27 -0.33411 1.8582 0
M  V30 19315 O 1848.63 -1.23044 1.34783 0
M  V30 19316 C 1848.68 1.74927 3.16358 0
M  V30 19317 O 1848.4 3.13998 3.05511 0
M  V30 19318 C 1849.9 1.67347 4.105 0
M  V30 19319 H 1847.12 0.388835 0.546853 0
M  V30 19320 H 1849.66 1.64674 1.21255 0
M  V30 19321 H 1847.82 1.2557 3.66485 0
M  V30 19322 H 1848.23 3.45097 3.94979 0
M  V30 19323 H 1849.71 2.16533 5.07757 0
M  V30 19324 H 1850.18 0.635036 4.34585 0
M  V30 19325 H 1850.79 2.16139 3.66284 0
M  V30 19326 N 1849.1 -1.16685 1.05936 0
M  V30 19327 C 1850.33 -1.90758 0.793401 0
M  V30 19328 C 1850.74 -1.77479 -0.655593 0
M  V30 19329 O 1850.08 -1.11458 -1.46023 0
M  V30 19330 C 1850.15 -3.42127 1.10406 0
M  V30 19331 C 1849.81 -3.79191 2.55074 0
M  V30 19332 C 1850.81 -3.81412 3.533 0
M  V30 19333 C 1848.49 -4.09931 2.9028 0
M  V30 19334 C 1850.49 -4.13853 4.84772 0
M  V30 19335 C 1848.17 -4.42039 4.21953 0
M  V30 19336 C 1849.17 -4.4398 5.19009 0
M  V30 19337 O 1848.86 -4.75328 6.4832 0
M  V30 19338 H 1848.59 -0.611855 0.287418 0
M  V30 19339 H 1851.15 -1.48859 1.41527 0
M  V30 19340 H 1849.38 -3.84356 0.425106 0
M  V30 19341 H 1851.06 -3.97471 0.822918 0
M  V30 19342 H 1851.83 -3.5778 3.27443 0
M  V30 19343 H 1847.71 -4.07587 2.15393 0
M  V30 19344 H 1851.25 -4.15283 5.60523 0
M  V30 19345 H 1847.15 -4.65136 4.4757 0
M  V30 19346 H 1847.92 -4.93154 6.53254 0
M  V30 19347 N 1850.58 -0.841432 -1.33258 0
M  V30 19348 C 1851.83 -0.438378 -1.97698 0
M  V30 19349 C 1852.16 1.00298 -1.66645 0
M  V30 19350 O 1851.41 1.71648 -0.939965 0
M  V30 19351 C 1851.71 -0.608921 -3.52175 0
M  V30 19352 C 1851.38 -2.01876 -4.03184 0
M  V30 19353 C 1850.04 -2.40438 -4.16825 0
M  V30 19354 C 1852.39 -2.93952 -4.30397 0
M  V30 19355 C 1849.72 -3.70376 -4.55015 0
M  V30 19356 C 1852.07 -4.23373 -4.7004 0
M  V30 19357 C 1850.73 -4.61888 -4.81888 0
M  V30 19358 H 1850 -0.160414 -0.723428 0
M  V30 19359 H 1852.65 -1.06895 -1.58889 0
M  V30 19360 H 1850.96 0.104948 -3.91659 0
M  V30 19361 H 1852.65 -0.277313 -4.0004 0
M  V30 19362 H 1849.24 -1.70927 -3.93042 0
M  V30 19363 H 1853.43 -2.65396 -4.19379 0
M  V30 19364 H 1848.68 -4.00018 -4.62381 0
M  V30 19365 H 1852.86 -4.94793 -4.90054 0
M  V30 19366 H 1850.48 -5.6262 -5.11237 0
M  V30 19367 N 1852.06 1.4581 -0.598108 0
M  V30 19368 C 1852.99 2.33223 0.113747 0
M  V30 19369 C 1853.97 1.46268 0.868312 0
M  V30 19370 O 1855.16 1.75058 0.840737 0
M  V30 19371 C 1852.29 3.28815 1.11795 0
M  V30 19372 C 1851.24 4.25331 0.477223 0
M  V30 19373 C 1850.57 5.10544 1.589 0
M  V30 19374 C 1851.87 5.18894 -0.595518 0
M  V30 19375 H 1853.56 2.92992 -0.616123 0
M  V30 19376 H 1851.11 1.40888 -0.297741 0
M  V30 19377 H 1853.06 3.88832 1.62443 0
M  V30 19378 H 1851.78 2.67185 1.87829 0
M  V30 19379 H 1850.44 3.66599 -0.00831044 0
M  V30 19380 H 1850.09 4.45288 2.33939 0
M  V30 19381 H 1849.79 5.75918 1.16584 0
M  V30 19382 H 1851.31 5.73427 2.09794 0
M  V30 19383 H 1852.73 5.73037 -0.173494 0
M  V30 19384 H 1851.12 5.92694 -0.939873 0
M  V30 19385 H 1852.19 4.61895 -1.47584 0
M  V30 19386 N 1853.54 0.336733 1.53961 0
M  V30 19387 C 1854.49 -0.538599 2.26278 0
M  V30 19388 C 1855.48 -1.10764 1.2817 0
M  V30 19389 O 1856.69 -1.05416 1.45902 0
M  V30 19390 H 1853.06 -0.192363 0.72698 0
M  V30 19391 H 1855.03 0.0934532 2.98254 0
M  V30 19392 C 1853.78 -1.68121 3.04353 0
M  V30 19393 H 1853.1 -1.25261 3.7967 0
M  V30 19394 H 1854.54 -2.26901 3.58179 0
M  V30 19395 C 1853 -2.60663 2.13439 0
M  V30 19396 O 1853.53 -3.62731 1.72596 0
M  V30 19397 N 1851.74 -2.29194 1.78658 0
M  V30 19398 H 1851.29 -1.46233 2.1207 0
M  V30 19399 H 1851.24 -2.91371 1.18111 0
M  V30 19400 N 1855.02 -1.57465 0.0651956 0
M  V30 19401 C 1856.26 -1.92856 -0.604233 0
M  V30 19402 C 1856.58 -0.945431 -1.70548 0
M  V30 19403 O 1855.85 0.00749144 -1.95899 0
M  V30 19404 H 1854.43 -0.711933 -0.226185 0
M  V30 19405 H 1857.1 -1.94521 0.121499 0
M  V30 19406 H 1856.19 -2.94481 -1.03381 0
M  V30 19407 N 1856.49 0.20831 -1.56217 0
M  V30 19408 C 1857.74 0.928886 -1.79488 0
M  V30 19409 C 1858.06 1.84337 -0.636 0
M  V30 19410 O 1857.33 1.92813 0.346416 0
M  V30 19411 H 1855.91 0.345985 -0.662045 0
M  V30 19412 H 1858.57 0.216988 -1.93688 0
M  V30 19413 H 1857.67 1.52786 -2.72145 0
M  V30 19414 N 1857.97 1.50255 0.475528 0
M  V30 19415 C 1859.38 1.53931 1.05651 0
M  V30 19416 C 1859.73 0.340226 1.93228 0
M  V30 19417 O 1858.86 -0.547349 2.09363 0
M  V30 19418 C 1859.45 2.78951 1.92281 0
M  V30 19419 C 1858.01 2.85323 2.45495 0
M  V30 19420 C 1857.16 2.48166 1.2373 0
M  V30 19421 H 1860.11 1.56583 0.258332 0
M  V30 19422 H 1860.13 2.60555 2.77293 0
M  V30 19423 H 1859.64 3.66205 1.28514 0
M  V30 19424 H 1857.74 2.0241 3.12827 0
M  V30 19425 H 1857.86 3.88109 2.80906 0
M  V30 19426 H 1856.22 2.00505 1.57066 0
M  V30 19427 H 1857 3.37722 0.616324 0
M  V30 19428 N 1859.45 -0.728395 1.39758 0
M  V30 19429 C 1860.86 -1.30697 1.33323 0
M  V30 19430 C 1861.21 -1.962 0.000676614 0
M  V30 19431 O 1860.34 -1.96731 -0.90143 0
M  V30 19432 C 1860.93 -2.37656 2.41464 0
M  V30 19433 C 1859.49 -2.91171 2.3853 0
M  V30 19434 C 1858.64 -1.64812 2.23007 0
M  V30 19435 H 1861.59 -0.525429 1.4975 0
M  V30 19436 H 1861.61 -3.18202 2.08633 0
M  V30 19437 H 1861.12 -1.89953 3.38437 0
M  V30 19438 H 1859.22 -3.43137 1.45216 0
M  V30 19439 H 1859.34 -3.43836 3.33637 0
M  V30 19440 H 1857.7 -1.89397 1.70296 0
M  V30 19441 H 1858.48 -1.19151 3.21959 0
M  V30 19442 N 1860.93 -1.25042 -0.959279 0
M  V30 19443 C 1861.86 -1.07494 -2.07285 0
M  V30 19444 C 1862.84 0.0146264 -1.70094 0
M  V30 19445 O 1864.02 -0.154035 -1.93588 0
M  V30 19446 C 1861.15 -0.68794 -3.40418 0
M  V30 19447 C 1860.11 -1.72722 -3.91601 0
M  V30 19448 C 1859.43 -1.19504 -5.21175 0
M  V30 19449 C 1860.73 -3.12502 -4.18497 0
M  V30 19450 H 1862.43 -2.00641 -2.22224 0
M  V30 19451 H 1859.97 -0.966074 -1.06785 0
M  V30 19452 H 1861.93 -0.552133 -4.17767 0
M  V30 19453 H 1860.65 0.279224 -3.25404 0
M  V30 19454 H 1859.31 -1.85139 -3.16416 0
M  V30 19455 H 1858.96 -0.218239 -5.02526 0
M  V30 19456 H 1858.66 -1.88962 -5.56387 0
M  V30 19457 H 1860.18 -1.07153 -6.01124 0
M  V30 19458 H 1861.6 -3.03266 -4.86521 0
M  V30 19459 H 1859.99 -3.79389 -4.64956 0
M  V30 19460 H 1861.06 -3.5991 -3.2495 0
M  V30 19461 N 1862.41 1.16121 -1.06553 0
M  V30 19462 C 1863.63 1.91152 -0.804706 0
M  V30 19463 C 1864.06 1.77045 0.635338 0
M  V30 19464 O 1863.41 1.09757 1.44302 0
M  V30 19465 C 1863.46 3.39782 -1.20751 0
M  V30 19466 O 1862.57 4.1093 -0.347889 0
M  V30 19467 H 1861.91 0.595433 -0.293863 0
M  V30 19468 H 1864.44 1.47104 -1.42203 0
M  V30 19469 H 1864.45 3.90558 -1.1802 0
M  V30 19470 H 1863.12 3.49369 -2.25642 0
M  V30 19471 H 1861.7 3.70331 -0.436993 0
M  V30 19472 O 1863.92 0.982836 1.28151 0
M  V30 19473 H 1864.61 0.628136 1.83232 0
M  V30 END ATOM
M  V30 BEGIN BOND
M  V30 END BOND
M  V30 END CTAB
M  END
$$$$
