drugbank_target|P22459 Potassium voltage-gated channel subfamily A member 4 (DB00228; DB01069; DB01110)
 OpenBabel12092120543D

  0  0  0     0  0            999 V3000
M  V30 BEGIN CTAB
M  V30 COUNTS 10126 10238 0 0 0
M  V30 BEGIN ATOM
M  V30 1 H -0.908 1.98254 -0.117106 0
M  V30 2 N 0 1.576 0 0
M  V30 3 C 0.933 2.03868 1.02534 0
M  V30 4 C 1.911 0.928543 1.3348 0
M  V30 5 O 3.095 1.19667 1.45644 0
M  V30 6 C 0.222 2.43627 2.35294 0
M  V30 7 C -0.732 3.65373 2.2001 0
M  V30 8 S 0.101 5.13292 1.52614 0
M  V30 9 C 1.257 5.56322 2.86805 0
M  V30 10 H 1.49 2.90518 0.631377 0
M  V30 11 H -0.977 1.52953 0.210867 0
M  V30 12 H 0.981 2.67203 3.11629 0
M  V30 13 H -0.358 1.57376 2.7183 0
M  V30 14 H -1.165 3.90944 3.18086 0
M  V30 15 H -1.563 3.418 1.51819 0
M  V30 16 H 0.729 5.58782 3.83104 0
M  V30 17 H 1.672 6.56266 2.65933 0
M  V30 18 H 2.08 4.83886 2.90714 0
M  V30 19 N 1.4781 -0.272755 1.55222 0
M  V30 20 C 2.3881 -1.35918 1.91216 0
M  V30 21 C 3.4041 -1.54026 0.809436 0
M  V30 22 O 4.5801 -1.68148 1.10852 0
M  V30 23 C 1.6451 -2.69834 2.17693 0
M  V30 24 C 0.7061 -2.6047 3.41253 0
M  V30 25 C -0.0609 -3.88 3.66458 0
M  V30 26 O 0.1621 -4.88693 2.94169 0
M  V30 27 O -0.9039 -3.88189 4.59992 0
M  V30 28 H 2.9221 -1.0839 2.83699 0
M  V30 29 H 0.5071 -0.471301 1.41771 0
M  V30 30 H 2.3891 -3.49017 2.36147 0
M  V30 31 H 1.0641 -2.97148 1.28392 0
M  V30 32 H -0.0289 -1.79663 3.28134 0
M  V30 33 H 1.3041 -2.38106 4.30774 0
M  V30 34 N 2.9562 -1.48159 -0.537278 0
M  V30 35 C 4.2022 -1.56035 -1.29541 0
M  V30 36 C 4.5352 -0.230377 -1.92829 0
M  V30 37 O 3.8102 0.762952 -1.78911 0
M  V30 38 C 4.0932 -2.69323 -2.39034 0
M  V30 39 C 3.9462 -4.12002 -1.80485 0
M  V30 40 C 5.2652 -2.78408 -3.40847 0
M  V30 41 H 2.3842 -0.567992 -0.469632 0
M  V30 42 H 5.0262 -1.80302 -0.599277 0
M  V30 43 H 3.1762 -2.48763 -2.98412 0
M  V30 44 H 4.8482 -4.43981 -1.25215 0
M  V30 45 H 3.0912 -4.19344 -1.11055 0
M  V30 46 H 3.7622 -4.87077 -2.59731 0
M  V30 47 H 6.2382 -2.97012 -2.91416 0
M  V30 48 H 5.1142 -3.59416 -4.14863 0
M  V30 49 H 5.3752 -1.86269 -4.00944 0
M  V30 50 N 4.4343 0.785586 -1.36625 0
M  V30 51 C 5.3973 1.87999 -1.31107 0
M  V30 52 C 6.3973 1.59316 -0.217959 0
M  V30 53 O 7.5873 1.67656 -0.472977 0
M  V30 54 C 4.7193 3.24861 -1.03334 0
M  V30 55 H 5.9123 1.94307 -2.2844 0
M  V30 56 H 3.4653 0.983813 -1.21453 0
M  V30 57 H 4.2003 3.24235 -0.0647432 0
M  V30 58 H 3.9853 3.4707 -1.82441 0
M  V30 59 H 5.4753 4.04929 -1.02088 0
M  V30 60 N 5.9124 1.20967 1.01018 0
M  V30 61 C 6.8454 0.907578 2.09376 0
M  V30 62 C 7.8234 -0.142868 1.61971 0
M  V30 63 O 9.0074 -0.0150391 1.88494 0
M  V30 64 C 6.1344 0.361791 3.36762 0
M  V30 65 C 5.1804 1.39423 4.03068 0
M  V30 66 S 6.0134 2.96159 4.4615 0
M  V30 67 C 7.1694 2.43173 5.7673 0
M  V30 68 H 7.4024 1.82519 2.34678 0
M  V30 69 H 4.9354 1.03884 1.14225 0
M  V30 70 H 6.8934 0.0534523 4.10465 0
M  V30 71 H 5.5544 -0.53443 3.0952 0
M  V30 72 H 4.7474 0.961853 4.94737 0
M  V30 73 H 4.3494 1.65038 3.35617 0
M  V30 74 H 6.6414 1.83335 6.52223 0
M  V30 75 H 7.5844 3.33264 6.24773 0
M  V30 76 H 7.9924 1.85069 5.33301 0
M  V30 77 N 7.3905 -1.2043 1.01659 0
M  V30 78 C 8.6365 -1.90079 0.706963 0
M  V30 79 C 8.9695 -1.78648 -0.761474 0
M  V30 80 O 8.2445 -1.17069 -1.55323 0
M  V30 81 C 8.5275 -3.41469 1.14327 0
M  V30 82 C 8.3805 -3.61833 2.67201 0
M  V30 83 C 9.6995 -4.34261 0.714529 0
M  V30 84 H 6.8185 -0.690254 0.2583 0
M  V30 85 H 9.4605 -1.41826 1.26433 0
M  V30 86 H 7.6105 -3.82696 0.669056 0
M  V30 87 H 9.2825 -3.2986 3.22475 0
M  V30 88 H 7.5255 -3.05304 3.08175 0
M  V30 89 H 8.1965 -4.67955 2.92783 0
M  V30 90 H 10.6725 -4.00682 1.12221 0
M  V30 91 H 9.5485 -5.38806 1.04784 0
M  V30 92 H 9.8095 -4.40431 -0.383799 0
M  V30 93 N 8.8686 -0.792821 -1.36206 0
M  V30 94 C 10.0936 -0.377701 -2.03932 0
M  V30 95 C 10.5186 0.998947 -1.59382 0
M  V30 96 O 9.8766 1.64421 -0.763903 0
M  V30 97 C 9.9246 -0.453635 -3.57735 0
M  V30 98 O 9.0286 0.538151 -4.08874 0
M  V30 99 H 8.3696 -0.159855 -0.644471 0
M  V30 100 H 10.8996 -1.07488 -1.7409 0
M  V30 101 H 10.9096 -0.318464 -4.06755 0
M  V30 102 H 9.5846 -1.45784 -3.89512 0
M  V30 103 H 8.1616 0.364359 -3.71116 0
M  V30 104 N 10.3467 1.47872 -0.545128 0
M  V30 105 C 11.3097 2.28337 0.198717 0
M  V30 106 C 12.3097 1.36255 0.853888 0
M  V30 107 O 13.4997 1.59003 0.711606 0
M  V30 108 C 10.6317 3.15585 1.28915 0
M  V30 109 H 11.8247 2.95567 -0.507941 0
M  V30 110 H 9.3777 1.53362 -0.301616 0
M  V30 111 H 10.1127 2.53019 2.02859 0
M  V30 112 H 9.8977 3.83337 0.824309 0
M  V30 113 H 11.3877 3.76243 1.81194 0
M  V30 114 N 11.8248 0.280983 1.55075 0
M  V30 115 C 12.7348 -0.61388 2.26426 0
M  V30 116 C 13.7508 -1.16521 1.29224 0
M  V30 117 O 14.9268 -1.19426 1.62171 0
M  V30 118 C 11.9918 -1.7788 2.9759 0
M  V30 119 C 11.0528 -1.26355 4.10284 0
M  V30 120 C 10.2858 -2.37295 4.78045 0
M  V30 121 O 10.5088 -3.56777 4.45047 0
M  V30 122 O 9.4428 -2.05119 5.65871 0
M  V30 123 H 13.2688 -0.0356932 3.03679 0
M  V30 124 H 10.8538 0.0481686 1.49322 0
M  V30 125 H 12.7358 -2.45791 3.42293 0
M  V30 126 H 11.4108 -2.34397 2.23249 0
M  V30 127 H 10.3178 -0.550735 3.70024 0
M  V30 128 H 11.6508 -0.744065 4.86543 0
M  V30 129 N 13.3029 -1.57598 0.00835791 0
M  V30 130 C 14.5279 -1.95617 -0.689103 0
M  V30 131 C 14.9529 -0.883753 -1.66046 0
M  V30 132 O 14.3109 0.157352 -1.80616 0
M  V30 133 C 14.3589 -3.32736 -1.38994 0
M  V30 134 O 13.4629 -3.27631 -2.50463 0
M  V30 135 H 12.8039 -0.638379 -0.182668 0
M  V30 136 H 15.3339 -2.045 0.064036 0
M  V30 137 H 15.3439 -3.68494 -1.75147 0
M  V30 138 H 14.0189 -4.1034 -0.677778 0
M  V30 139 H 12.5959 -3.03561 -2.16576 0
M  V30 140 N 14.781 0.264519 -1.55364 0
M  V30 141 C 16.006 1.01726 -1.80739 0
M  V30 142 C 16.431 1.78836 -0.583044 0
M  V30 143 O 15.789 1.75167 0.467566 0
M  V30 144 C 15.837 1.94482 -3.03659 0
M  V30 145 O 14.941 3.03386 -2.7934 0
M  V30 146 H 14.282 0.290395 -0.597132 0
M  V30 147 H 16.812 0.290854 -2.02522 0
M  V30 148 H 16.822 2.36278 -3.32621 0
M  V30 149 H 15.497 1.37772 -3.92418 0
M  V30 150 H 14.074 2.65844 -2.61498 0
M  V30 151 N 16.2591 1.48442 0.529413 0
M  V30 152 C 17.5071 1.56179 1.28267 0
M  V30 153 C 17.8281 0.237721 1.93546 0
M  V30 154 O 17.0981 -0.740779 1.81354 0
M  V30 155 H 15.6781 0.575367 0.476405 0
M  V30 156 H 18.3401 1.84909 0.61602 0
M  V30 157 H 17.4361 2.34312 2.06165 0
M  V30 158 N 17.7372 -0.778329 1.37039 0
M  V30 159 C 18.9772 -1.54973 1.33276 0
M  V30 160 C 19.3412 -1.91816 -0.0839376 0
M  V30 161 O 20.5422 -2.6767 -0.246228 0
M  V30 162 C 18.8132 -2.78517 2.23971 0
M  V30 163 S 20.3722 -3.6865 2.37997 0
M  V30 164 H 17.1902 -0.530639 0.473226 0
M  V30 165 H 19.7922 -0.915806 1.72723 0
M  V30 166 H 18.4962 -2.4952 3.25835 0
M  V30 167 H 18.0272 -3.46875 1.85584 0
M  V30 168 H 20.0422 -4.70182 1.58567 0
M  V30 169 N 19.2153 -1.21501 -1.00376 0
M  V30 170 C 20.1633 -0.972442 -2.11297 0
M  V30 171 C 21.1573 0.080731 -1.69208 0
M  V30 172 O 22.3633 -0.0707666 -1.79861 0
M  V30 173 H 18.7383 -0.297218 -0.690772 0
M  V30 174 H 20.7093 -1.91394 -2.28934 0
M  V30 175 C 19.4583 -0.555065 -3.43241 0
M  V30 176 H 18.7813 -1.35709 -3.76062 0
M  V30 177 H 20.2213 -0.424664 -4.21868 0
M  V30 178 C 18.6803 0.734147 -3.28804 0
M  V30 179 O 19.2103 1.78937 -3.59645 0
M  V30 180 N 17.4163 0.701133 -2.82015 0
M  V30 181 H 16.9633 -0.157874 -2.57116 0
M  V30 182 H 16.9213 1.56403 -2.72737 0
M  V30 183 N 20.6934 1.19889 -1.02296 0
M  V30 184 C 21.9184 1.9393 -0.735237 0
M  V30 185 C 22.3434 1.74639 0.698782 0
M  V30 186 O 21.7014 1.04481 1.48167 0
M  V30 187 C 21.7494 3.43916 -1.08417 0
M  V30 188 O 20.8534 4.11917 -0.199446 0
M  V30 189 H 20.1944 0.605645 -0.272196 0
M  V30 190 H 22.7244 1.52137 -1.36804 0
M  V30 191 H 22.7344 3.9456 -1.03856 0
M  V30 192 H 21.4094 3.5728 -2.12894 0
M  V30 193 H 19.9864 3.71666 -0.303136 0
M  V30 194 N 22.1715 0.800033 1.35784 0
M  V30 195 C 23.1215 0.178654 2.27299 0
M  V30 196 C 24.1055 -0.643667 1.47464 0
M  V30 197 O 25.2975 -0.502 1.69732 0
M  V30 198 C 22.4265 -0.677194 3.36555 0
M  V30 199 C 21.5125 0.154497 4.23818 0
M  V30 200 N 21.9035 1.21427 4.91008 0
M  V30 201 C 20.2015 -0.0649462 4.45953 0
M  V30 202 C 20.9025 1.72147 5.55644 0
M  V30 203 N 19.8785 1.02897 5.33773 0
M  V30 204 H 23.6805 0.989637 2.76737 0
M  V30 205 H 21.1945 0.64054 1.49234 0
M  V30 206 H 23.1915 -1.13835 4.01058 0
M  V30 207 H 21.8515 -1.4866 2.8867 0
M  V30 208 H 22.8625 1.59684 4.92668 0
M  V30 209 H 19.5395 -0.844016 4.0888 0
M  V30 210 H 20.9295 2.60683 6.19269 0
M  V30 211 N 23.6496 -1.47581 0.552962 0
M  V30 212 C 24.5826 -2.26883 -0.244857 0
M  V30 213 C 25.5606 -1.33784 -0.924147 0
M  V30 214 O 26.7446 -1.6316 -0.943981 0
M  V30 215 C 23.8716 -3.10695 -1.34856 0
M  V30 216 C 22.9176 -4.19339 -0.778268 0
M  V30 217 S 23.7506 -5.34207 0.37184 0
M  V30 218 C 24.9066 -6.21584 -0.733779 0
M  V30 219 H 25.1396 -2.94202 0.428087 0
M  V30 220 H 22.6726 -1.50628 0.339197 0
M  V30 221 H 24.6306 -3.59555 -1.98066 0
M  V30 222 H 23.2916 -2.42746 -1.99332 0
M  V30 223 H 22.4846 -4.77695 -1.60696 0
M  V30 224 H 22.0866 -3.73338 -0.222422 0
M  V30 225 H 24.3786 -6.57676 -1.62692 0
M  V30 226 H 25.3216 -7.07851 -0.187668 0
M  V30 227 H 25.7296 -5.55125 -1.02454 0
M  V30 228 N 25.1277 -0.289203 -1.54924 0
M  V30 229 C 26.5387 0.205791 -1.85562 0
M  V30 230 C 26.8897 1.54351 -1.2112 0
M  V30 231 O 26.0147 2.10435 -0.504601 0
M  V30 232 C 26.6097 0.380177 -3.3666 0
M  V30 233 C 25.1687 0.819395 -3.67373 0
M  V30 234 C 24.3157 -0.079159 -2.77187 0
M  V30 235 H 27.2667 -0.510577 -1.50262 0
M  V30 236 H 27.2877 1.21659 -3.60526 0
M  V30 237 H 26.7997 -0.593589 -3.83534 0
M  V30 238 H 24.9007 1.80413 -3.26009 0
M  V30 239 H 25.0137 0.646957 -4.74712 0
M  V30 240 H 23.3777 0.439565 -2.50878 0
M  V30 241 H 24.1607 -1.04906 -3.26878 0
M  V30 242 N 26.6058 1.57591 -0.0167156 0
M  V30 243 C 27.8358 1.95292 0.674149 0
M  V30 244 C 28.2438 0.891097 1.66901 0
M  V30 245 O 27.5868 -0.136908 1.83189 0
M  V30 246 C 27.6488 3.29072 1.44747 0
M  V30 247 C 27.3128 4.52879 0.612331 0
M  V30 248 C 28.3098 5.1979 -0.107126 0
M  V30 249 C 25.9948 4.99242 0.553381 0
M  V30 250 C 27.9888 6.31375 -0.874339 0
M  V30 251 C 25.6758 6.10713 -0.217546 0
M  V30 252 C 26.6738 6.76637 -0.930123 0
M  V30 253 O 26.3618 7.85969 -1.68844 0
M  V30 254 H 26.0938 0.648275 0.191615 0
M  V30 255 H 28.6478 2.05284 -0.0690148 0
M  V30 256 H 26.8778 3.15535 2.2355 0
M  V30 257 H 28.5668 3.51764 2.02526 0
M  V30 258 H 29.3328 4.84948 -0.0708392 0
M  V30 259 H 25.2118 4.47744 1.09757 0
M  V30 260 H 28.7558 6.82764 -1.43106 0
M  V30 261 H 24.6528 6.44994 -0.255593 0
M  V30 262 H 25.4208 8.02571 -1.6069 0
M  V30 263 N 28.0839 -0.256276 1.55502 0
M  V30 264 C 29.3319 -0.983672 1.76545 0
M  V30 265 C 29.6529 -1.86206 0.578982 0
M  V30 266 O 28.9229 -1.91656 -0.405577 0
M  V30 267 H 27.5029 -0.366191 0.651086 0
M  V30 268 H 30.1649 -0.276479 1.92929 0
M  V30 269 H 29.2609 -1.61087 2.67315 0
M  V30 270 N 29.562 -1.4872 -0.521534 0
M  V30 271 C 30.792 -1.6061 -1.29954 0
M  V30 272 C 31.2 -0.268728 -1.87282 0
M  V30 273 O 30.543 0.753221 -1.67548 0
M  V30 274 C 30.605 -2.60013 -2.48261 0
M  V30 275 C 30.269 -4.04874 -2.11957 0
M  V30 276 C 31.266 -4.92304 -1.67132 0
M  V30 277 C 28.951 -4.5047 -2.22221 0
M  V30 278 C 30.945 -6.2336 -1.33047 0
M  V30 279 C 28.632 -5.81544 -1.87748 0
M  V30 280 C 29.63 -6.67812 -1.43234 0
M  V30 281 O 29.318 -7.96446 -1.09217 0
M  V30 282 H 29.05 -0.544116 -0.401141 0
M  V30 283 H 31.604 -1.95339 -0.634958 0
M  V30 284 H 29.834 -2.20422 -3.17728 0
M  V30 285 H 31.523 -2.61648 -3.10315 0
M  V30 286 H 32.289 -4.58312 -1.58665 0
M  V30 287 H 28.168 -3.83504 -2.55823 0
M  V30 288 H 31.712 -6.90649 -0.982299 0
M  V30 289 H 27.609 -6.15069 -1.95858 0
M  V30 290 H 28.377 -8.09275 -1.22542 0
M  V30 291 N 31.0401 0.771051 -1.3745 0
M  V30 292 C 32.0031 1.86598 -1.33093 0
M  V30 293 C 33.0031 1.59076 -0.234845 0
M  V30 294 O 34.1931 1.67145 -0.490732 0
M  V30 295 C 31.3251 3.23747 -1.06773 0
M  V30 296 H 32.5181 1.91873 -2.30488 0
M  V30 297 H 30.0711 0.970876 -1.2249 0
M  V30 298 H 30.8061 3.24148 -0.099129 0
M  V30 299 H 30.5911 3.45115 -1.86112 0
M  V30 300 H 32.0811 4.03824 -1.06377 0
M  V30 301 N 32.5182 1.22032 0.997298 0
M  V30 302 C 33.4812 0.987909 2.06816 0
M  V30 303 C 34.4812 -0.0440084 1.6074 0
M  V30 304 O 35.6712 0.194053 1.73116 0
M  V30 305 C 32.8032 0.49132 3.37341 0
M  V30 306 H 33.9962 1.93803 2.28868 0
M  V30 307 H 31.5492 1.03838 1.16822 0
M  V30 308 H 32.2842 -0.463364 3.20973 0
M  V30 309 H 32.0692 1.23575 3.72118 0
M  V30 310 H 33.5592 0.348824 4.16141 0
M  V30 311 N 33.9963 -1.19345 1.0293 0
M  V30 312 C 34.9283 -2.22036 0.56857 0
M  V30 313 C 35.9413 -1.58865 -0.355779 0
M  V30 314 O 37.1303 -1.77851 -0.152103 0
M  V30 315 C 34.2303 -3.38363 -0.190752 0
M  V30 316 C 33.4033 -4.31118 0.738643 0
M  V30 317 C 32.4623 -5.26194 0.0246497 0
M  V30 318 O 31.4883 -5.65461 0.651354 0
M  V30 319 N 32.6903 -5.66971 -1.24594 0
M  V30 320 H 35.4553 -2.6219 1.45177 0
M  V30 321 H 33.0163 -1.34015 0.908381 0
M  V30 322 H 35.0083 -3.98981 -0.677961 0
M  V30 323 H 33.5783 -2.96994 -0.975366 0
M  V30 324 H 32.7983 -3.68276 1.40593 0
M  V30 325 H 34.0863 -4.90001 1.37029 0
M  V30 326 H 33.4843 -5.37104 -1.77583 0
M  V30 327 H 32.0413 -6.2984 -1.67764 0
M  V30 328 N 35.4744 -0.807222 -1.35358 0
M  V30 329 C 36.4374 -0.223665 -2.28106 0
M  V30 330 C 37.4374 0.589354 -1.4961 0
M  V30 331 O 38.6274 0.407745 -1.69361 0
M  V30 332 C 35.7594 0.688149 -3.33882 0
M  V30 333 H 36.9524 -1.04169 -2.81227 0
M  V30 334 H 34.5054 -0.577921 -1.45223 0
M  V30 335 H 35.2404 1.52984 -2.85948 0
M  V30 336 H 35.0254 0.10687 -3.91954 0
M  V30 337 H 36.5154 1.09075 -4.03104 0
M  V30 338 N 36.9525 1.47285 -0.560781 0
M  V30 339 C 38.3685 1.58065 -0.22081 0
M  V30 340 C 38.5685 1.55892 1.27671 0
M  V30 341 O 37.6245 1.46422 2.0571 0
M  V30 342 C 38.9375 2.88418 -0.850625 0
M  V30 343 C 40.4855 3.02009 -0.822184 0
M  V30 344 C 40.9605 4.35066 -1.43113 0
M  V30 345 N 42.4515 4.41711 -1.39448 0
M  V30 346 C 43.1865 5.43237 -1.83525 0
M  V30 347 N 42.6825 6.51555 -2.35474 0
M  V30 348 N 44.4755 5.34304 -1.74574 0
M  V30 349 H 36.6265 1.46941 -1.53369 0
M  V30 350 H 38.8895 0.699558 -0.639783 0
M  V30 351 H 38.5955 2.95755 -1.9032 0
M  V30 352 H 38.4695 3.75612 -0.345773 0
M  V30 353 H 40.8565 2.94266 0.221714 0
M  V30 354 H 40.9375 2.16347 -1.36483 0
M  V30 355 H 40.5815 4.43565 -2.47412 0
M  V30 356 H 40.5115 5.19465 -0.863899 0
M  V30 357 H 43.0025 3.64027 -1.01452 0
M  V30 358 H 43.3155 7.25203 -2.67021 0
M  V30 359 H 41.6605 6.52435 -2.39487 0
M  V30 360 H 44.8515 4.48581 -1.33763 0
M  V30 361 H 45.0245 6.13288 -2.09242 0
M  V30 362 N 38.4306 0.297415 1.54768 0
M  V30 363 C 39.3936 -0.567375 2.22066 0
M  V30 364 C 40.3936 -1.06409 1.20556 0
M  V30 365 O 41.5836 -0.960691 1.45315 0
M  V30 366 C 38.7156 -1.78517 2.90421 0
M  V30 367 H 39.9086 0.0205534 2.99893 0
M  V30 368 H 37.4616 0.0482163 1.56226 0
M  V30 369 H 38.1966 -2.41303 2.16664 0
M  V30 370 H 37.9816 -1.43669 3.64831 0
M  V30 371 H 39.4716 -2.39964 3.41771 0
M  V30 372 N 39.9087 -1.5758 0.0250728 0
M  V30 373 C 41.3247 -1.56124 -0.331282 0
M  V30 374 C 41.5247 -1.03029 -1.73169 0
M  V30 375 O 40.5807 -0.675215 -2.43305 0
M  V30 376 C 41.8937 -3.00139 -0.183584 0
M  V30 377 C 43.4417 -3.11946 -0.256654 0
M  V30 378 C 43.9167 -4.57793 -0.137792 0
M  V30 379 N 45.4077 -4.6279 -0.194904 0
M  V30 380 C 46.1427 -5.7326 -0.126655 0
M  V30 381 N 45.6387 -6.928 -0.00755288 0
M  V30 382 N 47.4317 -5.61811 -0.180348 0
M  V30 383 H 39.5827 -1.90424 0.94087 0
M  V30 384 H 41.8457 -0.875761 0.362968 0
M  V30 385 H 41.5517 -3.4292 0.780927 0
M  V30 386 H 41.4257 -3.64899 -0.955448 0
M  V30 387 H 43.8127 -2.69079 -1.21162 0
M  V30 388 H 43.8937 -2.49915 0.545517 0
M  V30 389 H 43.5377 -5.01339 0.813739 0
M  V30 390 H 43.4677 -5.17798 -0.958775 0
M  V30 391 H 45.9587 -3.76807 -0.287267 0
M  V30 392 H 46.2717 -7.72791 0.0379428 0
M  V30 393 H 44.6167 -6.94995 0.0271731 0
M  V30 394 H 47.8077 -4.6731 -0.271767 0
M  V30 395 H 47.9807 -6.47882 -0.123697 0
M  V30 396 N 41.3868 0.248026 -1.55636 0
M  V30 397 C 42.2968 1.32859 -1.93354 0
M  V30 398 C 43.3128 1.52719 -0.833838 0
M  V30 399 O 44.4888 1.66363 -1.13513 0
M  V30 400 C 41.5538 2.66337 -2.21958 0
M  V30 401 C 40.6148 2.55008 -3.45354 0
M  V30 402 C 39.8478 3.82121 -3.72584 0
M  V30 403 O 40.0708 4.83951 -3.01907 0
M  V30 404 O 39.0048 3.80822 -4.6611 0
M  V30 405 H 42.8308 1.03862 -2.85388 0
M  V30 406 H 40.4158 0.448686 -1.42503 0
M  V30 407 H 42.2978 3.45216 -2.4167 0
M  V30 408 H 40.9728 2.95068 -1.33103 0
M  V30 409 H 39.8798 1.7442 -3.30951 0
M  V30 410 H 41.2128 2.31222 -4.34508 0
M  V30 411 N 42.8649 1.48995 0.513639 0
M  V30 412 C 44.2809 1.35478 0.843682 0
M  V30 413 C 44.4809 0.378213 1.97919 0
M  V30 414 O 43.5369 -0.194689 2.51748 0
M  V30 415 C 44.8499 2.75901 1.1958 0
M  V30 416 C 46.3979 2.84509 1.30474 0
M  V30 417 C 46.8729 4.25671 1.69021 0
M  V30 418 N 48.3639 4.28422 1.76094 0
M  V30 419 C 49.0989 5.34601 2.07338 0
M  V30 420 N 48.5949 6.5104 2.36894 0
M  V30 421 N 50.3879 5.22007 2.08483 0
M  V30 422 H 42.5389 2.11092 -0.235328 0
M  V30 423 H 44.8019 0.947039 -0.0426669 0
M  V30 424 H 44.5079 3.49001 0.434913 0
M  V30 425 H 44.3819 3.10467 2.1422 0
M  V30 426 H 46.7689 2.11655 2.05637 0
M  V30 427 H 46.8499 2.53542 0.339155 0
M  V30 428 H 46.4939 4.99048 0.944135 0
M  V30 429 H 46.4239 4.54094 2.66658 0
M  V30 430 H 48.9149 3.44441 1.55464 0
M  V30 431 H 49.2279 7.2779 2.59887 0
M  V30 432 H 47.5729 6.54287 2.34378 0
M  V30 433 H 50.7639 4.30051 1.84861 0
M  V30 434 H 50.9369 6.04854 2.325 0
M  V30 435 N 44.343 -0.763751 1.37857 0
M  V30 436 C 45.253 -1.90817 1.36478 0
M  V30 437 C 46.269 -1.71997 0.263248 0
M  V30 438 O 47.445 -1.95095 0.499979 0
M  V30 439 C 44.51 -3.2605 1.17864 0
M  V30 440 C 43.571 -3.57467 2.3773 0
M  V30 441 C 42.804 -4.86249 2.19995 0
M  V30 442 O 43.027 -5.57884 1.18836 0
M  V30 443 O 41.961 -5.16911 3.08361 0
M  V30 444 H 45.787 -1.94933 2.32884 0
M  V30 445 H 43.372 -0.907619 1.1867 0
M  V30 446 H 45.254 -4.06924 1.09504 0
M  V30 447 H 43.929 -3.22769 0.245372 0
M  V30 448 H 42.836 -2.76796 2.51664 0
M  V30 449 H 44.169 -3.655 3.29652 0
M  V30 450 N 45.8211 -1.22559 -0.990812 0
M  V30 451 C 47.2371 -0.985996 -1.255 0
M  V30 452 C 47.4371 0.319173 -1.98956 0
M  V30 453 O 46.4931 1.04127 -2.3003 0
M  V30 454 C 47.8061 -2.18607 -2.06474 0
M  V30 455 C 49.3541 -2.22985 -2.19651 0
M  V30 456 C 49.8291 -3.4255 -3.04012 0
M  V30 457 N 51.3201 -3.42725 -3.11599 0
M  V30 458 C 52.0551 -4.31892 -3.7717 0
M  V30 459 N 51.5511 -5.31279 -4.44651 0
M  V30 460 N 53.3441 -4.19662 -3.73952 0
M  V30 461 H 45.4951 -2.06469 -0.49841 0
M  V30 462 H 47.7581 -0.904853 -0.282747 0
M  V30 463 H 47.4641 -3.13267 -1.59865 0
M  V30 464 H 47.3381 -2.18838 -3.07229 0
M  V30 465 H 49.7251 -1.28871 -2.65474 0
M  V30 466 H 49.8061 -2.26791 -1.18319 0
M  V30 467 H 49.4501 -4.36965 -2.58889 0
M  V30 468 H 49.3801 -3.35984 -4.0549 0
M  V30 469 H 51.8711 -2.70807 -2.63575 0
M  V30 470 H 52.1841 -5.95593 -4.92431 0
M  V30 471 H 50.5291 -5.3519 -4.43392 0
M  V30 472 H 53.7201 -3.41268 -3.20396 0
M  V30 473 H 53.8931 -4.89358 -4.24774 0
M  V30 474 N 47.2992 1.18797 -1.03562 0
M  V30 475 C 48.2292 2.24472 -0.643019 0
M  V30 476 C 49.2102 1.66433 0.351283 0
M  V30 477 O 50.3952 1.92803 0.232505 0
M  V30 478 C 47.5252 3.473 4.24935e-05 0
M  V30 479 C 46.4792 4.18055 -0.917257 0
M  V30 480 C 45.8052 5.34519 -0.138941 0
M  V30 481 C 47.1052 4.72109 -2.23407 0
M  V30 482 H 48.7992 2.57566 -1.52643 0
M  V30 483 H 46.3452 1.23806 -0.735394 0
M  V30 484 H 48.2982 4.20426 0.286383 0
M  V30 485 H 47.0222 3.13424 0.918299 0
M  V30 486 H 45.6812 3.46821 -1.1879 0
M  V30 487 H 45.3292 4.96891 0.781562 0
M  V30 488 H 45.0292 5.82794 -0.750005 0
M  V30 489 H 46.5532 6.10438 0.1405 0
M  V30 490 H 47.9672 5.36955 -2.00879 0
M  V30 491 H 46.3642 5.30897 -2.79765 0
M  V30 492 H 47.4342 3.89807 -2.88407 0
M  V30 493 N 48.7773 0.814389 1.34928 0
M  V30 494 C 49.7403 0.235759 2.27984 0
M  V30 495 C 50.7403 -0.581412 1.49921 0
M  V30 496 O 51.9303 -0.398758 1.69575 0
M  V30 497 C 49.0623 -0.670433 3.34242 0
M  V30 498 H 50.2553 1.05659 2.80671 0
M  V30 499 H 47.8083 0.585614 1.44915 0
M  V30 500 H 48.5433 -1.51466 2.86755 0
M  V30 501 H 48.3283 -0.0860822 3.92005 0
M  V30 502 H 49.8183 -1.06935 4.03676 0
M  V30 503 N 50.2554 -1.46986 0.568584 0
M  V30 504 C 51.2054 -2.27179 -0.193339 0
M  V30 505 C 52.1894 -1.35035 -0.874895 0
M  V30 506 O 53.3814 -1.5931 -0.771322 0
M  V30 507 C 50.5104 -3.21063 -1.21546 0
M  V30 508 C 49.5964 -4.2069 -0.536738 0
M  V30 509 N 49.9874 -5.04218 0.399673 0
M  V30 510 C 48.2854 -4.38961 -0.789254 0
M  V30 511 C 48.9864 -5.76242 0.795017 0
M  V30 512 N 47.9624 -5.434 0.1473 0
M  V30 513 H 51.7644 -2.89146 0.526458 0
M  V30 514 H 49.2784 -1.57664 0.389342 0
M  V30 515 H 51.2754 -3.77209 -1.77536 0
M  V30 516 H 49.9354 -2.60654 -1.93623 0
M  V30 517 H 50.9464 -5.12077 0.774454 0
M  V30 518 H 47.6234 -3.89713 -1.49767 0
M  V30 519 H 49.0134 -6.53417 1.56513 0
M  V30 520 N 51.7335 -0.305618 -1.54608 0
M  V30 521 C 52.9585 0.307562 -2.05107 0
M  V30 522 C 53.3835 1.46385 -1.18123 0
M  V30 523 O 52.7415 1.8034 -0.186324 0
M  V30 524 C 52.7895 0.73704 -3.52987 0
M  V30 525 O 51.8935 1.84134 -3.6901 0
M  V30 526 H 51.2345 0.0589143 -0.661381 0
M  V30 527 H 53.7645 -0.448807 -1.99617 0
M  V30 528 H 53.7745 1.02459 -3.94925 0
M  V30 529 H 52.4495 -0.108773 -4.15758 0
M  V30 530 H 51.0265 1.55398 -3.38978 0
M  V30 531 N 53.2116 1.57565 -0.0334293 0
M  V30 532 C 54.6276 1.56297 0.322997 0
M  V30 533 C 54.8276 1.03945 1.7262 0
M  V30 534 O 53.8836 0.688109 2.42943 0
M  V30 535 C 55.1966 3.00232 0.167664 0
M  V30 536 C 56.7446 3.12078 0.240107 0
M  V30 537 C 57.2196 4.57859 0.113513 0
M  V30 538 N 58.7106 4.62887 0.170359 0
M  V30 539 C 59.4456 5.73319 0.0962517 0
M  V30 540 N 58.9416 6.92794 -0.0291881 0
M  V30 541 N 60.7346 5.61898 0.150551 0
M  V30 542 H 52.8856 1.89923 -0.950956 0
M  V30 543 H 55.1486 0.873824 -0.367608 0
M  V30 544 H 54.8546 3.42501 -0.799102 0
M  V30 545 H 54.7286 3.654 0.936083 0
M  V30 546 H 57.1156 2.69718 1.19733 0
M  V30 547 H 57.1966 2.49623 -0.558763 0
M  V30 548 H 56.8406 5.009 -0.840314 0
M  V30 549 H 56.7706 5.18299 0.931302 0
M  V30 550 H 59.2616 3.76954 0.26728 0
M  V30 551 H 59.5746 7.7276 -0.0789252 0
M  V30 552 H 57.9196 6.94971 -0.0640299 0
M  V30 553 H 61.1106 4.67448 0.246981 0
M  V30 554 H 61.2836 6.47938 0.0893365 0
M  V30 555 N 54.6897 -0.239769 1.55765 0
M  V30 556 C 55.6527 -1.28038 1.90103 0
M  V30 557 C 56.6527 -1.40723 0.778055 0
M  V30 558 O 57.8427 -1.39301 1.04599 0
M  V30 559 C 54.9747 -2.65702 2.13577 0
M  V30 560 H 56.1677 -0.988048 2.83157 0
M  V30 561 H 53.7207 -0.479382 1.48767 0
M  V30 562 H 54.4557 -3.00063 1.23015 0
M  V30 563 H 54.2407 -2.57875 2.95369 0
M  V30 564 H 55.7307 -3.40828 2.41301 0
M  V30 565 N 56.1678 -1.49265 -0.50573 0
M  V30 566 C 57.1308 -1.65075 -1.59006 0
M  V30 567 C 58.1308 -0.522768 -1.52065 0
M  V30 568 O 59.3208 -0.789117 -1.55302 0
M  V30 569 C 56.4528 -1.64369 -2.98656 0
M  V30 570 H 57.6458 -2.61784 -1.46319 0
M  V30 571 H 55.1988 -1.38226 -0.729616 0
M  V30 572 H 55.9338 -0.692272 -3.16825 0
M  V30 573 H 55.7188 -2.46282 -3.05103 0
M  V30 574 H 57.2088 -1.78674 -3.77446 0
M  V30 575 N 57.6459 0.756429 -1.3826 0
M  V30 576 C 58.6089 1.85176 -1.35065 0
M  V30 577 C 59.6089 1.58818 -0.251703 0
M  V30 578 O 60.7989 1.66615 -0.508433 0
M  V30 579 C 57.9309 3.22596 -1.10201 0
M  V30 580 H 59.1239 1.89417 -2.3251 0
M  V30 581 H 56.6769 0.95783 -1.23512 0
M  V30 582 H 57.4119 3.24025 -0.133504 0
M  V30 583 H 57.1969 3.43122 -1.89762 0
M  V30 584 H 58.6869 4.02673 -1.10654 0
M  V30 585 N 59.124 1.23083 0.984299 0
M  V30 586 C 60.087 1.00979 2.05757 0
M  V30 587 C 61.087 -0.0269573 1.60777 0
M  V30 588 O 62.277 0.212403 1.729 0
M  V30 589 C 59.409 0.527072 3.36801 0
M  V30 590 H 60.602 1.9622 2.26799 0
M  V30 591 H 58.155 1.05072 1.15714 0
M  V30 592 H 58.89 -0.429294 3.21446 0
M  V30 593 H 58.675 1.27515 3.70786 0
M  V30 594 H 60.165 0.392942 4.15747 0
M  V30 595 N 60.6021 -1.18246 1.0419 0
M  V30 596 C 61.5651 -2.20128 0.638452 0
M  V30 597 C 62.5651 -1.57885 -0.304805 0
M  V30 598 O 63.7551 -1.73967 -0.0900369 0
M  V30 599 C 60.8871 -3.4084 -0.0637751 0
M  V30 600 H 62.0801 -2.57336 1.54007 0
M  V30 601 H 59.6331 -1.32152 0.834598 0
M  V30 602 H 60.3681 -3.09166 -0.979136 0
M  V30 603 H 60.1531 -3.8726 0.614198 0
M  V30 604 H 61.6431 -4.16274 -0.332512 0
M  V30 605 N 62.0802 -0.821533 -1.34494 0
M  V30 606 C 63.0432 -0.247847 -2.27856 0
M  V30 607 C 64.0432 0.573453 -1.50227 0
M  V30 608 O 65.2332 0.389759 -1.69784 0
M  V30 609 C 62.3652 0.652698 -3.34593 0
M  V30 610 H 63.5582 -1.07146 -2.80107 0
M  V30 611 H 61.1112 -0.593291 -1.44602 0
M  V30 612 H 61.8462 1.49943 -2.87555 0
M  V30 613 H 61.6312 0.065292 -3.92046 0
M  V30 614 H 63.1212 1.04793 -4.04238 0
M  V30 615 N 63.5583 1.46682 -0.576371 0
M  V30 616 C 64.8043 2.02712 -0.0596221 0
M  V30 617 C 65.1373 1.44765 1.29448 0
M  V30 618 O 64.4123 0.610355 1.84675 0
M  V30 619 C 64.6953 3.60098 0.0129503 0
M  V30 620 C 64.5483 4.28441 -1.3696 0
M  V30 621 C 65.8673 4.34224 0.71678 0
M  V30 622 H 62.9863 0.736637 -0.0231407 0
M  V30 623 H 65.6283 1.74898 -0.742351 0
M  V30 624 H 63.7783 3.83926 0.594378 0
M  V30 625 H 65.4503 4.15896 -1.9957 0
M  V30 626 H 63.6933 3.8805 -1.93907 0
M  V30 627 H 64.3643 5.3716 -1.27135 0
M  V30 628 H 66.8403 4.15503 0.222908 0
M  V30 629 H 65.7163 5.43936 0.73657 0
M  V30 630 H 65.9773 4.04823 1.77682 0
M  V30 631 N 65.0364 0.313813 1.54444 0
M  V30 632 C 65.9994 -0.54379 2.22656 0
M  V30 633 C 66.9994 -1.05124 1.21678 0
M  V30 634 O 68.1894 -0.945225 1.46325 0
M  V30 635 C 65.3214 -1.75427 2.92298 0
M  V30 636 H 66.5144 0.0523599 2.99854 0
M  V30 637 H 64.0674 0.0647834 1.56166 0
M  V30 638 H 64.8024 -2.38991 2.19211 0
M  V30 639 H 64.5874 -1.39791 3.66334 0
M  V30 640 H 66.0774 -2.36325 3.44297 0
M  V30 641 N 66.5145 -1.57545 0.0417849 0
M  V30 642 C 67.4775 -2.09885 -0.92093 0
M  V30 643 C 68.4775 -1.01648 -1.24596 0
M  V30 644 O 69.6675 -1.27759 -1.1842 0
M  V30 645 C 66.7995 -2.57527 -2.23367 0
M  V30 646 H 67.9925 -2.96236 -0.467382 0
M  V30 647 H 65.5455 -1.5493 -0.206467 0
M  V30 648 H 66.2805 -1.74542 -2.73323 0
M  V30 649 H 66.0655 -3.36613 -2.01083 0
M  V30 650 H 67.5555 -2.98201 -2.92346 0
M  V30 651 N 67.9926 0.231505 -1.5589 0
M  V30 652 C 68.9556 1.27028 -1.90779 0
M  V30 653 C 69.9556 1.40308 -0.785507 0
M  V30 654 O 71.1456 1.38744 -1.05336 0
M  V30 655 C 68.2776 2.64566 -2.14983 0
M  V30 656 H 69.4706 0.973017 -2.83677 0
M  V30 657 H 67.0236 0.471486 -1.49019 0
M  V30 658 H 67.7586 2.99406 -1.24604 0
M  V30 659 H 67.5436 2.56305 -2.96732 0
M  V30 660 H 69.0336 3.39543 -2.43105 0
M  V30 661 N 69.4707 1.49531 0.497807 0
M  V30 662 C 70.6987 1.62893 1.27567 0
M  V30 663 C 71.1137 0.301585 1.86376 0
M  V30 664 O 70.4707 -0.713335 1.67982 0
M  V30 665 C 70.5217 2.70013 2.40364 0
M  V30 666 O 70.2427 3.976 1.83972 0
M  V30 667 C 71.7437 2.94109 3.31685 0
M  V30 668 H 68.9637 0.548298 0.386794 0
M  V30 669 H 71.5077 1.95584 0.597245 0
M  V30 670 H 69.6627 2.40092 3.04031 0
M  V30 671 H 70.0767 4.56631 2.58047 0
M  V30 672 H 71.5507 3.72788 4.07104 0
M  V30 673 H 72.0277 2.04147 3.88871 0
M  V30 674 H 72.6337 3.2546 2.73781 0
M  V30 675 N 70.9488 -0.749086 1.3866 0
M  V30 676 C 71.9118 -1.84457 1.36045 0
M  V30 677 C 72.9118 -1.58682 0.260122 0
M  V30 678 O 74.1018 -1.66343 0.517261 0
M  V30 679 C 71.2338 -3.22008 1.11911 0
M  V30 680 H 72.4268 -1.88182 2.33512 0
M  V30 681 H 69.9798 -0.951266 1.24019 0
M  V30 682 H 70.7148 -3.2395 0.150686 0
M  V30 683 H 70.4998 -3.42111 1.91579 0
M  V30 684 H 71.9898 -4.0208 1.12788 0
M  V30 685 N 72.4269 -1.23603 -0.977757 0
M  V30 686 C 73.3899 -1.02069 -2.05218 0
M  V30 687 C 74.3899 0.0184305 -1.60789 0
M  V30 688 O 75.5799 -0.221569 -1.72785 0
M  V30 689 C 72.7119 -0.544926 -3.36517 0
M  V30 690 H 73.9049 -1.9742 -2.25755 0
M  V30 691 H 71.4579 -1.05684 -1.15155 0
M  V30 692 H 72.1929 0.412241 -3.21669 0
M  V30 693 H 71.9779 -1.2948 -3.70105 0
M  V30 694 H 73.4679 -0.414985 -4.15533 0
M  V30 695 N 73.905 1.17692 -1.04816 0
M  V30 696 C 75.151 1.88137 -0.75711 0
M  V30 697 C 75.484 1.80604 0.713841 0
M  V30 698 O 74.759 1.21146 1.52164 0
M  V30 699 C 75.042 3.38318 -1.2334 0
M  V30 700 C 74.895 3.54622 -2.76701 0
M  V30 701 C 76.214 4.32214 -0.829415 0
M  V30 702 H 73.333 0.683163 -0.27651 0
M  V30 703 H 75.975 1.38424 -1.30149 0
M  V30 704 H 74.125 3.80787 -0.770286 0
M  V30 705 H 75.797 3.21194 -3.31107 0
M  V30 706 H 74.04 2.97026 -3.16161 0
M  V30 707 H 74.711 4.60028 -3.05088 0
M  V30 708 H 77.187 3.97565 -1.22805 0
M  V30 709 H 76.063 5.35838 -1.19033 0
M  V30 710 H 76.324 4.41294 0.266891 0
M  V30 711 N 75.3831 0.828654 1.34056 0
M  V30 712 C 76.2931 0.256725 2.33191 0
M  V30 713 C 77.3091 -0.611898 1.62886 0
M  V30 714 O 78.4851 -0.51844 1.94613 0
M  V30 715 C 75.5501 -0.567238 3.42028 0
M  V30 716 C 74.6111 0.324458 4.28072 0
M  V30 717 C 73.8441 -0.460274 5.31712 0
M  V30 718 O 74.0671 -1.693 5.44696 0
M  V30 719 O 73.0011 0.160391 6.01686 0
M  V30 720 H 76.8271 1.07739 2.83947 0
M  V30 721 H 74.4121 0.59093 1.37217 0
M  V30 722 H 76.2941 -1.03582 4.08471 0
M  V30 723 H 74.9691 -1.36513 2.93506 0
M  V30 724 H 73.8761 0.840659 3.64532 0
M  V30 725 H 75.2091 1.08685 4.8005 0
M  V30 726 N 76.8612 -1.46375 0.584142 0
M  V30 727 C 78.1092 -2.01978 0.0701287 0
M  V30 728 C 78.4302 -1.4579 -1.295 0
M  V30 729 O 77.7002 -0.64314 -1.85042 0
M  V30 730 H 76.2802 -0.746648 0.0229345 0
M  V30 731 H 78.9422 -1.79461 0.760245 0
M  V30 732 H 78.0382 -3.121 0.0022064 0
M  V30 733 N 78.3393 -0.321999 -1.54275 0
M  V30 734 C 79.5643 0.285791 -2.05422 0
M  V30 735 C 79.9893 1.45124 -1.19669 0
M  V30 736 O 79.3473 1.80132 -0.205441 0
M  V30 737 C 79.3953 0.69956 -3.53749 0
M  V30 738 O 78.4993 1.8021 -3.70942 0
M  V30 739 H 77.8403 0.0518962 -0.661969 0
M  V30 740 H 80.3703 -0.469954 -1.9913 0
M  V30 741 H 80.3803 0.982649 -3.9599 0
M  V30 742 H 79.0553 -0.152864 -4.15619 0
M  V30 743 H 77.6323 1.51794 -3.40607 0
M  V30 744 N 79.8174 1.5752 -0.0501392 0
M  V30 745 C 81.0654 1.9227 0.622642 0
M  V30 746 C 81.3864 0.929083 1.71444 0
M  V30 747 O 80.6564 -0.0262186 1.95882 0
M  V30 748 H 79.2364 0.709739 0.232981 0
M  V30 749 H 81.8984 1.94628 -0.102898 0
M  V30 750 H 80.9944 2.93479 1.06191 0
M  V30 751 N 81.2955 -0.223234 1.56011 0
M  V30 752 C 82.5435 -0.946003 1.78592 0
M  V30 753 C 82.8645 -1.84936 0.618349 0
M  V30 754 O 82.1345 -1.92473 -0.364833 0
M  V30 755 H 80.7145 -0.352298 0.658707 0
M  V30 756 H 83.3765 -0.235494 1.93472 0
M  V30 757 H 82.4725 -1.55381 2.70672 0
M  V30 758 N 82.7736 -1.49793 -0.48987 0
M  V30 759 C 83.9986 -1.63836 -1.27172 0
M  V30 760 C 84.4236 -0.31402 -1.8546 0
M  V30 761 O 83.7816 0.719803 -1.66399 0
M  V30 762 C 83.8296 -2.71797 -2.36978 0
M  V30 763 O 82.9336 -2.31744 -3.41128 0
M  V30 764 H 82.2746 -0.547997 -0.37496 0
M  V30 765 H 84.8046 -1.96053 -0.585191 0
M  V30 766 H 84.8146 -2.94305 -2.82575 0
M  V30 767 H 83.4896 -3.67923 -1.93921 0
M  V30 768 H 82.0666 -2.1961 -3.01373 0
M  V30 769 N 84.2517 0.741722 -1.39055 0
M  V30 770 C 85.4997 1.49818 -1.35643 0
M  V30 771 C 85.8207 1.94938 0.0491642 0
M  V30 772 O 85.0907 1.68505 0.999141 0
M  V30 773 H 83.6707 0.555755 -0.499144 0
M  V30 774 H 86.3327 0.880957 -1.73854 0
M  V30 775 H 85.4287 2.38348 -2.01486 0
M  V30 776 N 85.7298 1.2412 0.971189 0
M  V30 777 C 86.9778 1.07668 1.71032 0
M  V30 778 C 87.2988 -0.385797 1.91146 0
M  V30 779 O 86.5688 -1.27569 1.4867 0
M  V30 780 H 85.1488 0.395429 0.633755 0
M  V30 781 H 87.8108 1.55984 1.16855 0
M  V30 782 H 86.9068 1.57195 2.69622 0
M  V30 783 N 87.2079 -1.17134 1.05439 0
M  V30 784 C 88.4559 -1.87085 0.764429 0
M  V30 785 C 88.7769 -1.81584 -0.710787 0
M  V30 786 O 88.0469 -1.24349 -1.51374 0
M  V30 787 H 86.6269 -0.692627 0.279779 0
M  V30 788 H 89.2889 -1.42087 1.33406 0
M  V30 789 H 88.3849 -2.92759 1.0816 0
M  V30 790 N 88.686 -0.835752 -1.33615 0
M  V30 791 C 89.911 -0.442389 -2.02627 0
M  V30 792 C 90.336 0.947735 -1.62479 0
M  V30 793 O 89.694 1.61907 -0.815826 0
M  V30 794 C 89.742 -0.567216 -3.56111 0
M  V30 795 O 88.846 0.407799 -4.10379 0
M  V30 796 H 88.187 -0.180278 -0.639059 0
M  V30 797 H 90.717 -1.12972 -1.70583 0
M  V30 798 H 90.727 -0.447708 -4.05536 0
M  V30 799 H 89.402 -1.58103 -3.84677 0
M  V30 800 H 87.979 0.246107 -3.72087 0
M  V30 801 N 90.1641 1.46063 -0.591896 0
M  V30 802 C 91.1141 2.27458 0.157172 0
M  V30 803 C 92.0981 1.3641 0.853301 0
M  V30 804 O 93.2901 1.60517 0.74588 0
M  V30 805 C 90.4191 3.22956 1.16423 0
M  V30 806 C 89.5051 4.2149 0.469742 0
M  V30 807 N 89.8961 5.03519 -0.479839 0
M  V30 808 C 88.1941 4.40161 0.719319 0
M  V30 809 C 88.8951 5.74904 -0.886591 0
M  V30 810 N 87.8711 5.43097 -0.233731 0
M  V30 811 H 91.6731 2.88272 -0.572392 0
M  V30 812 H 89.1871 1.57024 -0.414375 0
M  V30 813 H 91.1841 3.79986 1.71513 0
M  V30 814 H 89.8441 2.63701 1.89451 0
M  V30 815 H 90.8551 5.1078 -0.855823 0
M  V30 816 H 87.5321 3.92046 1.43548 0
M  V30 817 H 88.9221 6.50844 -1.66888 0
M  V30 818 N 91.6422 0.330177 1.54103 0
M  V30 819 C 92.5922 -0.548456 2.21305 0
M  V30 820 C 93.5762 -1.07651 1.19583 0
M  V30 821 O 94.7682 -1.01243 1.45186 0
M  V30 822 C 91.8972 -1.70559 2.97934 0
M  V30 823 C 90.9832 -1.19212 4.07 0
M  V30 824 N 91.3742 -0.398831 5.04225 0
M  V30 825 C 89.6722 -1.47024 4.2107 0
M  V30 826 C 90.3732 -0.121761 5.81573 0
M  V30 827 N 89.3492 -0.709722 5.38947 0
M  V30 828 H 93.1512 0.0648483 2.93828 0
M  V30 829 H 90.6652 0.136363 1.61826 0
M  V30 830 H 92.6622 -2.34688 3.44568 0
M  V30 831 H 91.3222 -2.32231 2.26934 0
M  V30 832 H 92.3332 -0.0410869 5.17884 0
M  V30 833 H 89.0102 -2.09232 3.61287 0
M  V30 834 H 90.4002 0.517298 6.69906 0
M  V30 835 N 93.1203 -1.57491 0.0584922 0
M  V30 836 C 94.0703 -2.08474 -0.923188 0
M  V30 837 C 95.0543 -0.991479 -1.26722 0
M  V30 838 O 96.2463 -1.25473 -1.24842 0
M  V30 839 C 93.3753 -2.6392 -2.19548 0
M  V30 840 C 92.4613 -3.80227 -1.87852 0
M  V30 841 N 92.8523 -4.89714 -1.26546 0
M  V30 842 C 91.1503 -3.89271 -2.17679 0
M  V30 843 C 91.8513 -5.70689 -1.12644 0
M  V30 844 N 90.8273 -5.18531 -1.63176 0
M  V30 845 H 94.6293 -2.90517 -0.444653 0
M  V30 846 H 92.1433 -1.61745 -0.145764 0
M  V30 847 H 94.1403 -2.98752 -2.9078 0
M  V30 848 H 92.8003 -1.83318 -2.68001 0
M  V30 849 H 93.8113 -5.09358 -0.936757 0
M  V30 850 H 90.4883 -3.19623 -2.68602 0
M  V30 851 H 91.8783 -6.6875 -0.6499 0
M  V30 852 N 94.5984 0.214957 -1.56127 0
M  V30 853 C 95.5484 1.27006 -1.8935 0
M  V30 854 C 96.5324 1.41969 -0.757202 0
M  V30 855 O 97.7244 1.44673 -1.01973 0
M  V30 856 C 94.8534 2.61911 -2.2194 0
M  V30 857 C 93.9394 2.50822 -3.41978 0
M  V30 858 N 94.3304 2.09391 -4.60423 0
M  V30 859 C 92.6284 2.81765 -3.45723 0
M  V30 860 C 93.3294 2.09712 -5.42582 0
M  V30 861 N 92.3054 2.50454 -4.82466 0
M  V30 862 H 96.1074 0.940734 -2.78437 0
M  V30 863 H 93.6214 0.423492 -1.56781 0
M  V30 864 H 95.6184 3.38096 -2.43919 0
M  V30 865 H 94.2784 2.95684 -1.34169 0
M  V30 866 H 95.2894 1.80416 -4.85459 0
M  V30 867 H 91.9664 3.19865 -2.68314 0
M  V30 868 H 93.3564 1.79748 -6.4741 0
M  V30 869 N 96.0765 1.50051 0.48192 0
M  V30 870 C 97.0085 1.64263 1.59844 0
M  V30 871 C 98.0215 0.52451 1.54119 0
M  V30 872 O 99.2105 0.797293 1.59704 0
M  V30 873 C 96.3105 1.60102 2.98698 0
M  V30 874 C 95.4835 2.87767 3.29407 0
M  V30 875 C 94.5425 2.76397 4.47762 0
M  V30 876 O 93.5685 3.50348 4.48603 0
M  V30 877 N 94.7705 1.89222 5.48794 0
M  V30 878 H 97.5355 2.60566 1.48073 0
M  V30 879 H 95.0965 1.47379 0.670149 0
M  V30 880 H 97.0885 1.50123 3.75826 0
M  V30 881 H 95.6585 0.715798 3.04294 0
M  V30 882 H 94.8785 3.11954 2.40994 0
M  V30 883 H 96.1665 3.72365 3.4673 0
M  V30 884 H 95.5645 1.28434 5.50928 0
M  V30 885 H 94.1215 1.85154 6.24949 0
M  V30 886 N 97.5546 -0.734337 1.39446 0
M  V30 887 C 98.7796 -1.52866 1.40167 0
M  V30 888 C 99.2046 -1.881 -0.00171513 0
M  V30 889 O 98.5626 -1.51957 -0.988879 0
M  V30 890 C 98.6106 -2.79235 2.28167 0
M  V30 891 O 97.7146 -3.75185 1.71201 0
M  V30 892 H 97.0556 -0.461618 0.477289 0
M  V30 893 H 99.5856 -0.905949 1.8345 0
M  V30 894 H 99.5956 -3.27963 2.42702 0
M  V30 895 H 98.2706 -2.52923 3.30156 0
M  V30 896 H 96.8476 -3.33958 1.65912 0
M  V30 897 N 99.0327 -1.24633 -0.964593 0
M  V30 898 C 100.449 -1.01239 -1.2338 0
M  V30 899 C 100.649 0.2769 -1.99588 0
M  V30 900 O 99.7047 0.992241 -2.32187 0
M  V30 901 C 101.018 -2.22937 -2.01791 0
M  V30 902 C 102.566 -2.27594 -2.14872 0
M  V30 903 C 103.041 -3.48921 -2.96678 0
M  V30 904 N 104.532 -3.49257 -3.04259 0
M  V30 905 C 105.267 -4.39795 -3.67924 0
M  V30 906 N 104.763 -5.40591 -4.33281 0
M  V30 907 N 106.556 -4.275 -3.64966 0
M  V30 908 H 98.7067 -2.0748 -0.454502 0
M  V30 909 H 100.97 -0.910647 -0.26349 0
M  V30 910 H 100.676 -3.16587 -1.53184 0
M  V30 911 H 100.55 -2.25306 -3.02518 0
M  V30 912 H 102.937 -1.34473 -2.6268 0
M  V30 913 H 103.018 -2.2925 -1.13482 0
M  V30 914 H 102.662 -4.42359 -2.49562 0
M  V30 915 H 102.592 -3.4451 -3.98272 0
M  V30 916 H 105.083 -2.76337 -2.57771 0
M  V30 917 H 105.396 -6.05904 -4.79687 0
M  V30 918 H 103.741 -5.44475 -4.3194 0
M  V30 919 H 106.932 -3.47987 -3.13086 0
M  V30 920 H 107.105 -4.98258 -4.14298 0
M  V30 921 N 100.511 1.16574 -1.06058 0
M  V30 922 C 101.759 1.86677 -0.77434 0
M  V30 923 C 102.08 1.81959 0.701147 0
M  V30 924 O 101.35 1.2515 1.50713 0
M  V30 925 H 99.9298 0.691134 -0.283449 0
M  V30 926 H 102.592 1.41378 -1.34158 0
M  V30 927 H 101.688 2.92181 -1.09711 0
M  V30 928 N 101.989 0.842826 1.3317 0
M  V30 929 C 102.952 0.284065 2.27433 0
M  V30 930 C 103.952 -0.54948 1.5112 0
M  V30 931 O 105.142 -0.362699 1.70382 0
M  V30 932 C 102.274 -0.599384 3.35589 0
M  V30 933 H 103.467 1.11589 2.78366 0
M  V30 934 H 101.02 0.616221 1.4364 0
M  V30 935 H 101.755 -1.45349 2.89904 0
M  V30 936 H 101.54 -0.00291266 3.921 0
M  V30 937 H 103.03 -0.983488 4.05854 0
M  V30 938 N 103.467 -1.45747 0.599634 0
M  V30 939 C 104.707 -2.04181 0.0946309 0
M  V30 940 C 105.071 -1.45895 -1.24815 0
M  V30 941 O 106.272 -1.95633 -1.8434 0
M  V30 942 C 104.543 -3.57368 0.047581 0
M  V30 943 S 106.102 -4.36997 -0.397387 0
M  V30 944 H 102.92 -0.70953 0.0456954 0
M  V30 945 H 105.522 -1.78564 0.795946 0
M  V30 946 H 104.226 -3.97303 1.02852 0
M  V30 947 H 103.757 -3.87549 -0.675977 0
M  V30 948 H 105.772 -4.68012 -1.64862 0
M  V30 949 N 104.945 -0.338344 -1.53925 0
M  V30 950 C 106.173 0.261298 -2.05243 0
M  V30 951 C 106.588 1.44625 -1.21363 0
M  V30 952 O 105.945 1.80811 -0.247736 0
M  V30 953 C 105.996 0.681412 -3.5502 0
M  V30 954 O 105.717 -0.456414 -4.35716 0
M  V30 955 C 107.218 1.34232 -4.22489 0
M  V30 956 H 104.438 0.0513685 -0.669031 0
M  V30 957 H 106.982 -0.488822 -1.98572 0
M  V30 958 H 105.137 1.38148 -3.61931 0
M  V30 959 H 105.551 -0.122564 -5.24357 0
M  V30 960 H 107.025 1.58708 -5.28693 0
M  V30 961 H 107.502 2.29426 -3.74514 0
M  V30 962 H 108.108 0.684424 -4.19757 0
M  V30 963 N 106.423 1.57458 -0.0668435 0
M  V30 964 C 107.648 1.9804 0.616027 0
M  V30 965 C 108.073 0.944771 1.62652 0
M  V30 966 O 107.431 -0.0902094 1.81075 0
M  V30 967 C 107.479 3.37665 1.26549 0
M  V30 968 O 106.583 3.36701 2.38131 0
M  V30 969 H 105.924 0.644719 0.158849 0
M  V30 970 H 108.454 2.04121 -0.139891 0
M  V30 971 H 108.464 3.7474 1.6135 0
M  V30 972 H 107.139 4.12573 0.525016 0
M  V30 973 H 105.716 3.1139 2.0516 0
M  V30 974 N 107.901 -0.206675 1.56239 0
M  V30 975 C 108.851 -1.26 1.90021 0
M  V30 976 C 109.835 -1.41566 0.764721 0
M  V30 977 O 111.027 -1.44131 1.02739 0
M  V30 978 C 108.156 -2.6073 2.23326 0
M  V30 979 C 107.242 -2.49005 3.43304 0
M  V30 980 N 107.633 -2.06946 4.61527 0
M  V30 981 C 105.931 -2.79927 3.47213 0
M  V30 982 C 106.632 -2.06832 5.43687 0
M  V30 983 N 105.608 -2.47892 4.83788 0
M  V30 984 H 109.41 -0.925955 2.78932 0
M  V30 985 H 106.924 -0.415172 1.57003 0
M  V30 986 H 108.921 -3.36798 2.45708 0
M  V30 987 H 107.581 -2.94968 1.35735 0
M  V30 988 H 108.592 -1.77839 4.86409 0
M  V30 989 H 105.269 -3.18438 2.70006 0
M  V30 990 H 106.659 -1.76312 6.48354 0
M  V30 991 N 109.379 -1.50304 -0.473955 0
M  V30 992 C 110.656 -1.51667 -1.23518 0
M  V30 993 C 111.036 -0.259701 -2.09496 0
M  V30 994 O 110.384 0.756986 -2.15597 0
M  V30 995 C 110.594 -2.81082 -2.06868 0
M  V30 996 C 111.942 -3.31631 -2.65153 0
M  V30 997 O 112.966 -2.82384 -2.17113 0
M  V30 998 O 111.825 -4.17471 -3.52675 0
M  V30 999 H 108.919 -0.60822 -0.560355 0
M  V30 1000 H 111.465 -1.62592 -0.486011 0
M  V30 1001 H 110.237 -3.64041 -1.4349 0
M  V30 1002 H 109.86 -2.73146 -2.88924 0
M  V30 1003 N 110.857 0.726932 -1.39834 0
M  V30 1004 C 112.268 1.30558 -1.3346 0
M  V30 1005 C 112.619 1.962 -0.00273003 0
M  V30 1006 O 111.744 1.96826 0.899371 0
M  V30 1007 C 112.339 2.37404 -2.41713 0
M  V30 1008 C 110.898 2.90921 -2.38835 0
M  V30 1009 C 110.045 1.64578 -2.2318 0
M  V30 1010 H 112.996 0.523862 -1.49804 0
M  V30 1011 H 113.017 3.17984 -2.08966 0
M  V30 1012 H 112.529 1.89599 -3.38635 0
M  V30 1013 H 110.63 3.42985 -1.45575 0
M  V30 1014 H 110.743 3.43487 -3.33997 0
M  V30 1015 H 109.107 1.89219 -1.70494 0
M  V30 1016 H 109.89 1.18814 -3.22084 0
M  V30 1017 N 112.336 1.25143 0.95797 0
M  V30 1018 C 113.268 1.01023 2.05735 0
M  V30 1019 C 114.281 -0.0236902 1.62783 0
M  V30 1020 O 115.47 0.21448 1.77207 0
M  V30 1021 C 112.57 0.504595 3.35122 0
M  V30 1022 C 111.743 1.6039 4.06932 0
M  V30 1023 C 110.802 1.09922 5.14591 0
M  V30 1024 O 109.828 1.79293 5.40225 0
M  V30 1025 N 111.03 -0.0612545 5.80468 0
M  V30 1026 H 113.795 1.95683 2.26998 0
M  V30 1027 H 111.356 1.16303 1.12629 0
M  V30 1028 H 113.348 0.151516 4.04416 0
M  V30 1029 H 111.918 -0.347989 3.10657 0
M  V30 1030 H 111.138 2.12872 3.31782 0
M  V30 1031 H 112.426 2.34252 4.51667 0
M  V30 1032 H 111.824 -0.640985 5.62057 0
M  V30 1033 H 110.381 -0.355395 6.5083 0
M  V30 1034 N 113.814 -1.1601 1.06675 0
M  V30 1035 C 115.039 -1.91068 0.806706 0
M  V30 1036 C 115.464 -1.77112 -0.633485 0
M  V30 1037 O 114.822 -1.09908 -1.44187 0
M  V30 1038 C 114.87 -3.39655 1.21106 0
M  V30 1039 O 113.974 -4.10893 0.352189 0
M  V30 1040 H 113.315 -0.595125 0.294486 0
M  V30 1041 H 115.845 -1.46955 1.42356 0
M  V30 1042 H 115.855 -3.90434 1.18428 0
M  V30 1043 H 114.53 -3.49132 2.26008 0
M  V30 1044 H 113.107 -3.70285 0.440868 0
M  V30 1045 N 115.292 -0.849877 -1.32721 0
M  V30 1046 C 116.517 -0.463856 -2.02146 0
M  V30 1047 C 116.942 0.930449 -1.63476 0
M  V30 1048 O 116.3 1.61033 -0.832952 0
M  V30 1049 C 116.348 -0.604955 -3.55489 0
M  V30 1050 O 115.452 0.36425 -4.10788 0
M  V30 1051 H 114.793 -0.187046 -0.637111 0
M  V30 1052 H 117.323 -1.14775 -1.69375 0
M  V30 1053 H 117.333 -0.490696 -4.05038 0
M  V30 1054 H 116.008 -1.62174 -3.82978 0
M  V30 1055 H 114.585 0.206628 -3.72327 0
M  V30 1056 N 116.77 1.45427 -0.607355 0
M  V30 1057 C 118.186 1.57283 -0.270985 0
M  V30 1058 C 118.386 1.59875 1.22647 0
M  V30 1059 O 117.442 1.52893 2.00948 0
M  V30 1060 C 118.755 2.85566 -0.941952 0
M  V30 1061 C 120.303 2.9924 -0.917849 0
M  V30 1062 C 120.778 4.30293 -1.56882 0
M  V30 1063 N 122.269 4.37051 -1.5343 0
M  V30 1064 C 123.004 5.37123 -2.00715 0
M  V30 1065 N 122.5 6.43734 -2.56084 0
M  V30 1066 N 124.293 5.28479 -1.91484 0
M  V30 1067 H 116.444 1.41988 -1.57966 0
M  V30 1068 H 118.707 0.67885 -0.661715 0
M  V30 1069 H 118.413 2.8955 -1.99633 0
M  V30 1070 H 118.287 3.74322 -0.465096 0
M  V30 1071 H 120.674 2.94822 0.127984 0
M  V30 1072 H 120.755 2.11895 -1.43297 0
M  V30 1073 H 120.399 4.35469 -2.61398 0
M  V30 1074 H 120.329 5.16454 -1.02873 0
M  V30 1075 H 122.82 3.60615 -1.12982 0
M  V30 1076 H 123.133 7.16341 -2.89958 0
M  V30 1077 H 121.478 6.44485 -2.60122 0
M  V30 1078 H 124.669 4.44098 -1.47967 0
M  V30 1079 H 124.842 6.0632 -2.28648 0
M  V30 1080 N 118.248 0.346503 1.53744 0
M  V30 1081 C 119.496 -0.248612 2.00565 0
M  V30 1082 C 119.817 -1.5083 1.23593 0
M  V30 1083 O 119.087 -1.92858 0.343912 0
M  V30 1084 H 117.667 -0.0948564 0.740953 0
M  V30 1085 H 120.329 0.468341 1.89189 0
M  V30 1086 H 119.425 -0.488994 3.08245 0
M  V30 1087 N 119.726 -1.57421 0.075193 0
M  V30 1088 C 120.951 -1.98364 -0.605515 0
M  V30 1089 C 121.376 -0.953383 -1.62149 0
M  V30 1090 O 120.734 0.0806053 -1.81121 0
M  V30 1091 C 120.782 -3.38332 -1.24756 0
M  V30 1092 O 119.886 -3.37959 -2.36342 0
M  V30 1093 H 119.227 -0.645553 -0.155428 0
M  V30 1094 H 121.757 -2.04044 0.150714 0
M  V30 1095 H 121.767 -3.75591 -1.5936 0
M  V30 1096 H 120.442 -4.12846 -0.503129 0
M  V30 1097 H 119.019 -3.12474 -2.03506 0
M  V30 1098 N 121.204 0.198386 -1.56346 0
M  V30 1099 C 122.62 0.549085 -1.49857 0
M  V30 1100 C 122.82 1.86016 -0.774611 0
M  V30 1101 O 121.876 2.50416 -0.323776 0
M  V30 1102 C 123.189 0.606868 -2.94512 0
M  V30 1103 C 124.737 0.695925 -3.05165 0
M  V30 1104 C 125.212 0.784848 -4.51225 0
M  V30 1105 N 126.703 0.848463 -4.55363 0
M  V30 1106 C 127.438 0.937378 -5.65686 0
M  V30 1107 N 126.934 0.9888 -6.85707 0
M  V30 1108 N 128.727 0.974312 -5.53592 0
M  V30 1109 H 120.878 -0.661655 -2.01831 0
M  V30 1110 H 123.141 -0.235261 -0.918344 0
M  V30 1111 H 122.847 -0.28732 -3.50524 0
M  V30 1112 H 122.721 1.46268 -3.47686 0
M  V30 1113 H 125.108 1.58055 -2.49204 0
M  V30 1114 H 125.189 -0.186022 -2.55123 0
M  V30 1115 H 124.833 -0.0954072 -5.0781 0
M  V30 1116 H 124.763 1.68255 -4.98997 0
M  V30 1117 H 127.254 0.818103 -3.68938 0
M  V30 1118 H 127.567 1.05707 -7.65536 0
M  V30 1119 H 125.912 0.957534 -6.88372 0
M  V30 1120 H 129.103 0.930954 -4.58749 0
M  V30 1121 H 129.276 1.04015 -6.39597 0
M  V30 1122 N 122.682 1.50554 0.465978 0
M  V30 1123 C 124.098 1.38093 0.800154 0
M  V30 1124 C 124.298 0.440988 1.96615 0
M  V30 1125 O 123.354 -0.114499 2.5224 0
M  V30 1126 C 124.667 2.79565 1.10742 0
M  V30 1127 C 126.215 2.88516 1.21357 0
M  V30 1128 C 126.69 4.30833 1.55393 0
M  V30 1129 N 128.181 4.33807 1.62375 0
M  V30 1130 C 128.916 5.40927 1.90225 0
M  V30 1131 N 128.412 6.58247 2.16062 0
M  V30 1132 N 130.205 5.28376 1.9177 0
M  V30 1133 H 122.356 2.10237 -0.302366 0
M  V30 1134 H 124.619 0.945203 -0.0727746 0
M  V30 1135 H 124.325 3.50208 0.323661 0
M  V30 1136 H 124.199 3.17125 2.04234 0
M  V30 1137 H 126.586 2.1809 1.98799 0
M  V30 1138 H 126.667 2.54492 0.258321 0
M  V30 1139 H 126.311 5.01799 0.784889 0
M  V30 1140 H 126.241 4.62347 2.52076 0
M  V30 1141 H 128.732 3.49212 1.44427 0
M  V30 1142 H 129.045 7.3569 2.36601 0
M  V30 1143 H 127.39 6.61413 2.13444 0
M  V30 1144 H 130.581 4.35715 1.71085 0
M  V30 1145 H 130.754 6.11944 2.13139 0
M  V30 1146 N 124.16 -0.719506 1.40217 0
M  V30 1147 C 125.576 -1.02707 1.22161 0
M  V30 1148 C 125.776 -2.0128 0.0940557 0
M  V30 1149 O 124.832 -2.46452 -0.549318 0
M  V30 1150 C 126.145 -1.57454 2.56181 0
M  V30 1151 C 127.693 -1.69458 2.63159 0
M  V30 1152 C 128.168 -2.27611 3.97438 0
M  V30 1153 N 129.659 -2.35002 3.99159 0
M  V30 1154 C 130.394 -2.80972 4.99842 0
M  V30 1155 N 129.89 -3.26723 6.10921 0
M  V30 1156 N 131.683 -2.80321 4.87213 0
M  V30 1157 H 123.834 -0.0660492 2.12297 0
M  V30 1158 H 126.097 -0.0919077 0.943534 0
M  V30 1159 H 125.803 -0.924873 3.39321 0
M  V30 1160 H 125.677 -2.56036 2.76993 0
M  V30 1161 H 128.064 -2.33543 1.80393 0
M  V30 1162 H 128.145 -0.694867 2.46181 0
M  V30 1163 H 127.789 -1.6415 4.80643 0
M  V30 1164 H 127.719 -3.2829 4.11744 0
M  V30 1165 H 130.21 -2.02685 3.18947 0
M  V30 1166 H 130.523 -3.60355 6.8364 0
M  V30 1167 H 128.868 -3.24692 6.14492 0
M  V30 1168 H 132.059 -2.43912 3.9953 0
M  V30 1169 H 132.232 -3.15831 5.65822 0
M  V30 1170 N 125.638 -1.25649 -0.95132 0
M  V30 1171 C 127.054 -1.02542 -1.223 0
M  V30 1172 C 127.254 0.255715 -1.99871 0
M  V30 1173 O 126.31 0.967558 -2.33226 0
M  V30 1174 C 127.623 -2.25065 -1.99415 0
M  V30 1175 C 129.171 -2.29861 -2.12446 0
M  V30 1176 C 129.646 -3.52048 -2.92961 0
M  V30 1177 N 131.137 -3.52465 -3.00538 0
M  V30 1178 C 131.872 -4.43672 -3.63239 0
M  V30 1179 N 131.368 -5.45157 -4.27523 0
M  V30 1180 N 133.161 -4.31346 -3.60412 0
M  V30 1181 H 125.312 -2.07951 -0.432471 0
M  V30 1182 H 127.575 -0.91339 -0.253816 0
M  V30 1183 H 127.281 -3.18194 -1.49817 0
M  V30 1184 H 127.155 -2.28502 -3.00111 0
M  V30 1185 H 129.542 -1.37252 -2.61239 0
M  V30 1186 H 129.623 -2.3044 -1.11044 0
M  V30 1187 H 129.267 -4.44981 -2.44856 0
M  V30 1188 H 129.197 -3.48715 -3.94596 0
M  V30 1189 H 131.688 -2.79056 -2.54826 0
M  V30 1190 H 132.001 -6.10958 -4.73234 0
M  V30 1191 H 130.346 -5.49025 -4.26141 0
M  V30 1192 H 133.537 -3.51288 -3.09377 0
M  V30 1193 H 133.71 -5.02624 -4.0899 0
M  V30 1194 N 127.117 1.15442 -1.07289 0
M  V30 1195 C 128.533 1.38201 -0.798288 0
M  V30 1196 C 128.733 1.92429 0.597769 0
M  V30 1197 O 127.789 2.12962 1.3566 0
M  V30 1198 C 129.102 2.35357 -1.87156 0
M  V30 1199 C 130.65 2.49021 -1.89624 0
M  V30 1200 C 131.125 3.49468 -2.96034 0
M  V30 1201 N 132.616 3.57003 -2.95132 0
M  V30 1202 C 133.351 4.34543 -3.74112 0
M  V30 1203 N 132.847 5.15421 -4.6294 0
M  V30 1204 N 134.64 4.29625 -3.62462 0
M  V30 1205 H 126.791 0.78584 -1.97328 0
M  V30 1206 H 129.054 0.408065 -0.855679 0
M  V30 1207 H 128.76 2.02626 -2.87464 0
M  V30 1208 H 128.634 3.35129 -1.73114 0
M  V30 1209 H 131.021 2.81051 -0.899687 0
M  V30 1210 H 131.102 1.4925 -2.07745 0
M  V30 1211 H 130.746 3.18173 -3.95889 0
M  V30 1212 H 130.676 4.48992 -2.75161 0
M  V30 1213 H 133.167 2.99276 -2.30743 0
M  V30 1214 H 133.48 5.7183 -5.19837 0
M  V30 1215 H 131.825 5.14729 -4.66989 0
M  V30 1216 H 135.016 3.65505 -2.92444 0
M  V30 1217 H 135.189 4.89807 -4.24256 0
M  V30 1218 N 128.595 0.856903 1.32268 0
M  V30 1219 C 129.527 0.260412 2.27716 0
M  V30 1220 C 130.54 -0.569137 1.52528 0
M  V30 1221 O 131.729 -0.39326 1.74114 0
M  V30 1222 C 128.829 -0.650477 3.32599 0
M  V30 1223 C 128.002 0.14372 4.37164 0
M  V30 1224 C 127.061 -0.69328 5.21613 0
M  V30 1225 O 126.087 -0.12599 5.69061 0
M  V30 1226 N 127.289 -2.00761 5.44679 0
M  V30 1227 H 130.054 1.08059 2.79541 0
M  V30 1228 H 127.615 0.717103 1.45152 0
M  V30 1229 H 129.607 -1.21581 3.86005 0
M  V30 1230 H 128.177 -1.37133 2.80915 0
M  V30 1231 H 127.397 0.890486 3.8401 0
M  V30 1232 H 128.685 0.68915 5.04111 0
M  V30 1233 H 128.083 -2.49181 5.07863 0
M  V30 1234 H 126.64 -2.52103 6.01072 0
M  V30 1235 N 130.073 -1.45103 0.615059 0
M  V30 1236 C 131.489 -1.57137 0.279322 0
M  V30 1237 C 131.689 -1.60523 -1.21797 0
M  V30 1238 O 130.745 -1.53956 -2.00134 0
M  V30 1239 C 132.058 -2.85062 0.957083 0
M  V30 1240 C 133.606 -2.98749 0.933706 0
M  V30 1241 C 134.081 -4.29455 1.59162 0
M  V30 1242 N 135.572 -4.36231 1.55746 0
M  V30 1243 C 136.307 -5.36051 2.0356 0
M  V30 1244 N 135.803 -6.42367 2.59494 0
M  V30 1245 N 137.596 -5.27456 1.94284 0
M  V30 1246 H 129.747 -1.41148 1.58717 0
M  V30 1247 H 132.01 -0.675331 0.665306 0
M  V30 1248 H 131.716 -2.88488 2.01166 0
M  V30 1249 H 131.59 -3.7407 0.48494 0
M  V30 1250 H 133.977 -2.94886 -0.112347 0
M  V30 1251 H 134.058 -2.11132 1.44419 0
M  V30 1252 H 133.702 -4.34077 2.63704 0
M  V30 1253 H 133.632 -5.15901 1.0561 0
M  V30 1254 H 136.123 -3.60011 1.14893 0
M  V30 1255 H 136.436 -7.14793 2.93752 0
M  V30 1256 H 134.781 -6.43097 2.63537 0
M  V30 1257 H 137.972 -4.43308 1.5032 0
M  V30 1258 H 138.145 -6.05099 2.3186 0
M  V30 1259 N 131.551 -0.354651 -1.53558 0
M  V30 1260 C 132.776 0.242153 -2.05981 0
M  V30 1261 C 133.201 1.42553 -1.2272 0
M  V30 1262 O 132.559 1.79656 -0.243604 0
M  V30 1263 C 132.607 0.624367 -3.55154 0
M  V30 1264 O 131.711 1.72301 -3.74681 0
M  V30 1265 H 131.052 0.0378432 -0.662921 0
M  V30 1266 H 133.582 -0.512087 -1.98088 0
M  V30 1267 H 133.592 0.898433 -3.97985 0
M  V30 1268 H 132.267 -0.240989 -4.15201 0
M  V30 1269 H 130.844 1.44535 -3.4375 0
M  V30 1270 N 133.029 1.57378 -0.0835403 0
M  V30 1271 C 133.939 2.16897 0.894021 0
M  V30 1272 C 134.955 1.13528 1.31861 0
M  V30 1273 O 136.131 1.45848 1.3889 0
M  V30 1274 C 133.196 2.72831 2.13925 0
M  V30 1275 C 132.257 3.91115 1.76997 0
M  V30 1276 C 131.49 4.44371 2.95584 0
M  V30 1277 O 131.713 3.96596 4.09961 0
M  V30 1278 O 130.647 5.35549 2.74719 0
M  V30 1279 H 134.473 3.00814 0.417679 0
M  V30 1280 H 132.058 1.48741 0.140181 0
M  V30 1281 H 133.94 3.0863 2.86924 0
M  V30 1282 H 132.615 1.91967 2.60635 0
M  V30 1283 H 131.522 3.60148 1.01214 0
M  V30 1284 H 132.855 4.73307 1.3506 0
M  V30 1285 N 134.507 -0.190092 1.56449 0
M  V30 1286 C 135.454 -1.23557 1.94942 0
M  V30 1287 C 136.424 -1.44972 0.810696 0
M  V30 1288 O 137.609 -1.58023 1.06927 0
M  V30 1289 C 134.749 -2.57416 2.2985 0
M  V30 1290 C 133.862 -2.43537 3.5681 0
M  V30 1291 C 132.997 -3.70134 3.81017 0
M  V30 1292 C 132.036 -3.51109 5.01387 0
M  V30 1293 N 131.173 -4.6973 5.21822 0
M  V30 1294 H 136.013 -0.900304 2.84075 0
M  V30 1295 H 133.55 -0.43318 1.40577 0
M  V30 1296 H 135.508 -3.35409 2.48106 0
M  V30 1297 H 134.138 -2.88975 1.43852 0
M  V30 1298 H 133.19 -1.56816 3.46573 0
M  V30 1299 H 134.502 -2.25415 4.4496 0
M  V30 1300 H 133.656 -4.56566 3.9954 0
M  V30 1301 H 132.395 -3.91215 2.91207 0
M  V30 1302 H 131.4 -2.63063 4.82782 0
M  V30 1303 H 132.625 -3.31468 5.9271 0
M  V30 1304 H 130.571 -4.91065 4.34961 0
M  V30 1305 H 130.488 -4.54452 6.0416 0
M  V30 1306 H 131.756 -5.57499 5.44808 0
M  V30 1307 N 135.985 -1.50799 -0.457987 0
M  V30 1308 C 136.932 -1.70617 -1.5543 0
M  V30 1309 C 137.902 -0.547562 -1.56815 0
M  V30 1310 O 139.087 -0.779647 -1.74144 0
M  V30 1311 C 136.227 -1.81831 -2.93311 0
M  V30 1312 C 135.34 -3.09278 -3.01615 0
M  V30 1313 C 134.475 -3.11209 -4.30491 0
M  V30 1314 C 133.514 -4.33055 -4.32585 0
M  V30 1315 N 132.651 -4.32652 -5.52952 0
M  V30 1316 H 137.491 -2.64207 -1.37836 0
M  V30 1317 H 135.028 -1.30959 -0.669937 0
M  V30 1318 H 136.986 -1.86314 -3.73287 0
M  V30 1319 H 135.616 -0.916685 -3.0951 0
M  V30 1320 H 134.668 -3.14203 -2.1443 0
M  V30 1321 H 135.98 -3.99233 -2.99022 0
M  V30 1322 H 135.134 -3.14494 -5.18824 0
M  V30 1323 H 133.873 -2.19106 -4.35711 0
M  V30 1324 H 132.878 -4.29969 -3.42647 0
M  V30 1325 H 134.103 -5.264 -4.29046 0
M  V30 1326 H 132.049 -3.43409 -5.58933 0
M  V30 1327 H 131.966 -5.16392 -5.52155 0
M  V30 1328 H 133.234 -4.40101 -6.43375 0
M  V30 1329 N 137.463 0.71206 -1.40597 0
M  V30 1330 C 138.41 1.82613 -1.41142 0
M  V30 1331 C 139.38 1.63925 -0.267903 0
M  V30 1332 O 140.565 1.85009 -0.466495 0
M  V30 1333 C 137.705 3.20354 -1.28324 0
M  V30 1334 C 136.818 3.50589 -2.52411 0
M  V30 1335 C 135.953 4.77855 -2.32009 0
M  V30 1336 C 134.992 5.01005 -3.51654 0
M  V30 1337 N 134.129 6.19487 -3.30425 0
M  V30 1338 H 138.969 1.81482 -2.36365 0
M  V30 1339 H 136.506 0.886475 -1.17388 0
M  V30 1340 H 138.464 3.99899 -1.18899 0
M  V30 1341 H 137.094 3.20705 -0.367189 0
M  V30 1342 H 136.146 2.65573 -2.72351 0
M  V30 1343 H 137.458 3.63604 -3.41458 0
M  V30 1344 H 136.612 5.65424 -2.19956 0
M  V30 1345 H 135.351 4.67056 -1.40392 0
M  V30 1346 H 134.356 4.1189 -3.64179 0
M  V30 1347 H 135.581 5.13674 -4.44202 0
M  V30 1348 H 133.527 6.09932 -2.41494 0
M  V30 1349 H 133.444 6.33194 -4.13039 0
M  V30 1350 H 134.712 7.09834 -3.22113 0
M  V30 1351 N 138.941 1.26152 0.944643 0
M  V30 1352 C 139.904 1.07474 2.0244 0
M  V30 1353 C 140.904 0.0242064 1.60782 0
M  V30 1354 O 142.094 0.267302 1.72137 0
M  V30 1355 C 139.226 0.633956 3.34953 0
M  V30 1356 H 140.419 2.03336 2.20442 0
M  V30 1357 H 137.972 1.087 1.12312 0
M  V30 1358 H 138.707 -0.326811 3.22649 0
M  V30 1359 H 138.492 1.39247 3.66542 0
M  V30 1360 H 139.982 0.52501 4.14287 0
M  V30 1361 N 140.419 -1.14872 1.07899 0
M  V30 1362 C 141.369 -2.17809 0.674027 0
M  V30 1363 C 142.353 -1.58008 -0.303699 0
M  V30 1364 O 143.545 -1.76616 -0.11654 0
M  V30 1365 C 140.674 -3.43208 0.0793318 0
M  V30 1366 C 139.76 -4.10051 1.08253 0
M  V30 1367 N 140.151 -4.52296 2.2641 0
M  V30 1368 C 138.449 -4.36469 0.917124 0
M  V30 1369 C 139.15 -5.04199 2.901 0
M  V30 1370 N 138.126 -4.98088 2.17736 0
M  V30 1371 H 141.928 -2.48207 1.57386 0
M  V30 1372 H 139.442 -1.315 0.952976 0
M  V30 1373 H 141.439 -4.16272 -0.228719 0
M  V30 1374 H 140.099 -3.14291 -0.815551 0
M  V30 1375 H 141.11 -4.45504 2.64096 0
M  V30 1376 H 137.787 -4.17432 0.0756078 0
M  V30 1377 H 139.177 -5.46802 3.90458 0
M  V30 1378 N 141.898 -0.863906 -1.31812 0
M  V30 1379 C 143.128 -0.485406 -2.00817 0
M  V30 1380 C 143.536 0.925007 -1.65046 0
M  V30 1381 O 142.879 1.61653 -0.872574 0
M  V30 1382 C 142.941 -0.555589 -3.55181 0
M  V30 1383 C 142.605 -1.92654 -4.14407 0
M  V30 1384 C 143.602 -2.89324 -4.31958 0
M  V30 1385 C 141.287 -2.2262 -4.50273 0
M  V30 1386 C 143.281 -4.14108 -4.84555 0
M  V30 1387 C 140.968 -3.47654 -5.02573 0
M  V30 1388 C 141.966 -4.43214 -5.19664 0
M  V30 1389 O 141.654 -5.66033 -5.70843 0
M  V30 1390 H 141.386 -0.188224 -0.649267 0
M  V30 1391 H 143.94 -1.16514 -1.69156 0
M  V30 1392 H 142.17 0.181037 -3.86276 0
M  V30 1393 H 143.859 -0.19138 -4.05449 0
M  V30 1394 H 144.625 -2.6748 -4.04573 0
M  V30 1395 H 140.504 -1.4902 -4.3625 0
M  V30 1396 H 144.048 -4.88703 -4.9781 0
M  V30 1397 H 139.945 -3.69345 -5.29391 0
M  V30 1398 H 140.713 -5.6812 -5.89222 0
M  V30 1399 N 143.376 1.44774 -0.622745 0
M  V30 1400 C 144.792 1.56986 -0.287652 0
M  V30 1401 C 144.992 1.61167 1.20944 0
M  V30 1402 O 144.048 1.55015 1.99315 0
M  V30 1403 C 145.361 2.84551 -0.972188 0
M  V30 1404 C 146.909 2.9825 -0.949536 0
M  V30 1405 C 147.384 4.28605 -1.61437 0
M  V30 1406 N 148.875 4.35399 -1.58057 0
M  V30 1407 C 149.61 5.34964 -2.064 0
M  V30 1408 N 149.106 6.40981 -2.62897 0
M  V30 1409 N 150.899 5.26419 -1.97078 0
M  V30 1410 H 143.05 1.40304 -1.59463 0
M  V30 1411 H 145.313 0.671794 -0.668878 0
M  V30 1412 H 145.019 2.87417 -2.02693 0
M  V30 1413 H 144.893 3.73807 -0.504771 0
M  V30 1414 H 147.28 2.94941 0.0967067 0
M  V30 1415 H 147.361 2.10364 -1.45536 0
M  V30 1416 H 147.005 4.32672 -2.66002 0
M  V30 1417 H 146.935 5.15334 -1.08344 0
M  V30 1418 H 149.426 3.59397 -1.16801 0
M  V30 1419 H 149.739 7.13225 -2.97539 0
M  V30 1420 H 148.084 6.4169 -2.66943 0
M  V30 1421 H 151.275 4.42504 -1.52669 0
M  V30 1422 H 151.448 6.03861 -2.35066 0
M  V30 1423 N 144.854 0.36279 1.53368 0
M  V30 1424 C 145.786 -0.519668 2.23231 0
M  V30 1425 C 146.799 -1.04844 1.24546 0
M  V30 1426 O 147.988 -0.955296 1.50786 0
M  V30 1427 C 145.088 -1.72995 2.9142 0
M  V30 1428 C 144.261 -1.33316 4.16588 0
M  V30 1429 C 143.32 -2.40521 4.68013 0
M  V30 1430 O 142.346 -2.03027 5.3176 0
M  V30 1431 N 143.548 -3.72065 4.45587 0
M  V30 1432 H 146.313 0.078751 2.99597 0
M  V30 1433 H 143.874 0.187833 1.60807 0
M  V30 1434 H 145.866 -2.44184 3.22733 0
M  V30 1435 H 144.436 -2.2353 2.18525 0
M  V30 1436 H 143.656 -0.451236 3.91609 0
M  V30 1437 H 144.944 -1.04432 4.97967 0
M  V30 1438 H 144.342 -4.05304 3.94646 0
M  V30 1439 H 142.899 -4.39366 4.81457 0
M  V30 1440 N 146.332 -1.57332 0.0918853 0
M  V30 1441 C 147.557 -1.98995 -0.584442 0
M  V30 1442 C 147.982 -0.970528 -1.61128 0
M  V30 1443 O 147.34 0.0613904 -1.81196 0
M  V30 1444 C 147.388 -3.39636 -1.21161 0
M  V30 1445 O 146.492 -3.40447 -2.32744 0
M  V30 1446 H 145.833 -0.647165 -0.148572 0
M  V30 1447 H 148.363 -2.03873 0.172347 0
M  V30 1448 H 148.373 -3.7726 -1.55367 0
M  V30 1449 H 147.048 -4.13356 -0.459313 0
M  V30 1450 H 145.625 -3.14614 -2.0018 0
M  V30 1451 N 147.81 0.181792 -1.56548 0
M  V30 1452 C 149.035 0.920019 -1.85877 0
M  V30 1453 C 149.46 1.75494 -0.677021 0
M  V30 1454 O 148.818 1.77399 0.374056 0
M  V30 1455 C 148.866 1.78112 -3.13542 0
M  V30 1456 O 147.97 2.88152 -2.95029 0
M  V30 1457 H 147.311 0.258334 -0.611686 0
M  V30 1458 H 149.841 0.183092 -2.03779 0
M  V30 1459 H 149.851 2.18314 -3.44678 0
M  V30 1460 H 148.526 1.16777 -3.99169 0
M  V30 1461 H 147.103 2.51609 -2.75222 0
M  V30 1462 N 149.288 1.51039 0.449983 0
M  V30 1463 C 150.535 1.63081 1.20045 0
M  V30 1464 C 150.863 0.341024 1.91487 0
M  V30 1465 O 150.118 -0.674276 1.83717 0
M  V30 1466 C 150.417 2.77556 2.25161 0
M  V30 1467 C 150.083 4.17289 1.70823 0
M  V30 1468 C 148.745 4.55305 1.55725 0
M  V30 1469 C 151.097 5.04536 1.3074 0
M  V30 1470 C 148.425 5.78287 0.989999 0
M  V30 1471 C 150.777 6.28085 0.754482 0
M  V30 1472 C 149.441 6.64885 0.590308 0
M  V30 1473 H 148.711 0.596755 0.439277 0
M  V30 1474 H 151.358 1.85037 0.49333 0
M  V30 1475 H 149.663 2.49771 3.01863 0
M  V30 1476 H 151.36 2.84073 2.83026 0
M  V30 1477 H 147.95 3.8731 1.83546 0
M  V30 1478 H 152.134 4.75782 1.41229 0
M  V30 1479 H 147.39 6.05456 0.850451 0
M  V30 1480 H 151.564 6.95038 0.435324 0
M  V30 1481 H 149.191 7.60055 0.14862 0
M  V30 1482 N 150.766 -0.704594 1.40972 0
M  V30 1483 C 152.177 -1.28418 1.3552 0
M  V30 1484 C 152.528 -1.96171 0.0339434 0
M  V30 1485 O 151.653 -1.98231 -0.867944 0
M  V30 1486 C 152.248 -2.33528 2.45459 0
M  V30 1487 C 150.807 -2.87085 2.43433 0
M  V30 1488 C 149.954 -1.61007 2.2577 0
M  V30 1489 H 152.905 -0.499963 1.50619 0
M  V30 1490 H 152.926 -3.14619 2.13998 0
M  V30 1491 H 152.438 -1.84187 3.41609 0
M  V30 1492 H 150.539 -3.40626 1.51013 0
M  V30 1493 H 150.652 -3.3813 3.39419 0
M  V30 1494 H 149.016 -1.86482 1.73483 0
M  V30 1495 H 149.799 -1.13675 3.23933 0
M  V30 1496 N 152.244 -1.26651 -0.937939 0
M  V30 1497 C 153.194 -1.05156 -2.02302 0
M  V30 1498 C 154.178 0.0171233 -1.60891 0
M  V30 1499 O 155.37 -0.200213 -1.75864 0
M  V30 1500 C 152.499 -0.689962 -3.36295 0
M  V30 1501 C 151.585 -1.79626 -3.84181 0
M  V30 1502 N 151.976 -3.03422 -4.04684 0
M  V30 1503 C 150.274 -1.6806 -4.13124 0
M  V30 1504 C 150.975 -3.75345 -4.444 0
M  V30 1505 N 149.951 -3.03051 -4.51288 0
M  V30 1506 H 153.753 -1.99117 -2.1617 0
M  V30 1507 H 151.267 -1.17216 -1.12402 0
M  V30 1508 H 153.264 -0.517112 -4.13681 0
M  V30 1509 H 151.924 0.242139 -3.23796 0
M  V30 1510 H 152.935 -3.39293 -3.91281 0
M  V30 1511 H 149.612 -0.818629 -4.09396 0
M  V30 1512 H 151.002 -4.81691 -4.68427 0
M  V30 1513 N 153.722 1.14298 -1.08507 0
M  V30 1514 C 154.962 1.87016 -0.824894 0
M  V30 1515 C 155.326 1.81099 0.637735 0
M  V30 1516 O 156.527 2.48963 1.01345 0
M  V30 1517 C 154.798 3.31584 -1.33368 0
M  V30 1518 S 156.357 4.21903 -1.20596 0
M  V30 1519 H 153.175 0.645259 -0.2986 0
M  V30 1520 H 155.777 1.37822 -1.38656 0
M  V30 1521 H 154.481 3.33439 -2.39262 0
M  V30 1522 H 154.012 3.85836 -0.767734 0
M  V30 1523 H 156.027 4.95971 -0.150891 0
M  V30 1524 N 155.201 0.870884 1.31352 0
M  V30 1525 C 156.426 0.495957 2.01383 0
M  V30 1526 C 156.851 -0.904324 1.64935 0
M  V30 1527 O 156.209 -1.59687 0.858466 0
M  V30 1528 C 156.257 0.661433 3.54482 0
M  V30 1529 O 155.361 -0.298851 4.11316 0
M  V30 1530 H 154.702 0.197158 0.634054 0
M  V30 1531 H 157.232 1.17455 1.67527 0
M  V30 1532 H 157.242 0.555072 4.04207 0
M  V30 1533 H 155.917 1.68246 3.8035 0
M  V30 1534 H 154.494 -0.147368 3.72609 0
M  V30 1535 N 156.679 -1.44442 0.630414 0
M  V30 1536 C 157.956 -1.9549 0.0655657 0
M  V30 1537 C 158.336 -1.5724 -1.40851 0
M  V30 1538 O 157.684 -0.846116 -2.12257 0
M  V30 1539 C 157.894 -3.47812 0.287691 0
M  V30 1540 C 159.242 -4.24216 0.180513 0
M  V30 1541 O 160.266 -3.55526 0.219019 0
M  V30 1542 O 159.125 -5.46434 0.0848493 0
M  V30 1543 H 156.219 -0.826688 -0.0227177 0
M  V30 1544 H 158.765 -1.54496 0.702068 0
M  V30 1545 H 157.537 -3.687 1.31056 0
M  V30 1546 H 157.16 -3.95751 -0.382984 0
M  V30 1547 N 158.157 -0.370918 -1.53173 0
M  V30 1548 C 159.087 0.464847 -2.28826 0
M  V30 1549 C 160.068 1.07936 -1.31468 0
M  V30 1550 O 161.253 1.0956 -1.60344 0
M  V30 1551 C 158.383 1.60196 -3.08147 0
M  V30 1552 C 157.337 1.11443 -4.13237 0
M  V30 1553 C 156.663 2.3422 -4.80672 0
M  V30 1554 C 157.963 0.195384 -5.21934 0
M  V30 1555 H 159.657 -0.166329 -2.98938 0
M  V30 1556 H 157.203 -0.0814359 -1.4377 0
M  V30 1557 H 159.156 2.19332 -3.59822 0
M  V30 1558 H 157.88 2.26045 -2.35735 0
M  V30 1559 H 156.539 0.545727 -3.62515 0
M  V30 1560 H 156.187 2.98537 -4.04827 0
M  V30 1561 H 155.887 2.02269 -5.51689 0
M  V30 1562 H 157.411 2.94032 -5.35143 0
M  V30 1563 H 158.825 0.694375 -5.69079 0
M  V30 1564 H 157.222 -0.0335027 -6.00091 0
M  V30 1565 H 158.292 -0.760961 -4.78892 0
M  V30 1566 N 159.635 1.57281 -0.100228 0
M  V30 1567 C 160.568 2.09976 0.893612 0
M  V30 1568 C 161.546 1.01155 1.27304 0
M  V30 1569 O 162.73 1.28687 1.37739 0
M  V30 1570 C 159.857 2.58098 2.19324 0
M  V30 1571 C 158.903 3.78626 1.96328 0
M  V30 1572 S 159.736 5.21959 1.19662 0
M  V30 1573 C 160.892 5.73435 2.50844 0
M  V30 1574 H 161.125 2.93946 0.44534 0
M  V30 1575 H 158.658 1.53985 0.113167 0
M  V30 1576 H 160.616 2.8648 2.94005 0
M  V30 1577 H 159.277 1.74344 2.61272 0
M  V30 1578 H 158.47 4.10382 2.92579 0
M  V30 1579 H 158.072 3.50763 1.29775 0
M  V30 1580 H 160.364 5.82015 3.46792 0
M  V30 1581 H 161.307 6.7185 2.23659 0
M  V30 1582 H 161.715 5.01395 2.59352 0
M  V30 1583 N 161.113 -0.173488 1.56642 0
M  V30 1584 C 162.524 -0.736155 1.71574 0
M  V30 1585 C 162.875 -1.82888 0.710389 0
M  V30 1586 O 162 -2.16017 -0.1287 0
M  V30 1587 C 162.595 -1.34211 3.11083 0
M  V30 1588 C 161.154 -1.85162 3.27707 0
M  V30 1589 C 160.301 -0.729765 2.67525 0
M  V30 1590 H 163.252 0.0518786 1.58615 0
M  V30 1591 H 163.273 -2.21178 3.09613 0
M  V30 1592 H 162.785 -0.546579 3.84232 0
M  V30 1593 H 160.886 -2.67366 2.59512 0
M  V30 1594 H 160.999 -1.99855 4.35425 0
M  V30 1595 H 159.363 -1.14965 2.27278 0
M  V30 1596 H 160.146 0.0538806 3.43258 0
M  V30 1597 N 162.591 -1.51276 -0.441967 0
M  V30 1598 C 163.816 -1.67799 -1.21895 0
M  V30 1599 C 164.241 -0.372864 -1.84367 0
M  V30 1600 O 163.599 0.666501 -1.68604 0
M  V30 1601 C 163.647 -2.79199 -2.28211 0
M  V30 1602 O 162.751 -2.42479 -3.33583 0
M  V30 1603 H 162.092 -0.559649 -0.357336 0
M  V30 1604 H 164.622 -1.97815 -0.522522 0
M  V30 1605 H 164.632 -3.03146 -2.73069 0
M  V30 1606 H 163.307 -3.73906 -1.82118 0
M  V30 1607 H 161.884 -2.29087 -2.94234 0
M  V30 1608 N 164.069 0.697108 -1.41344 0
M  V30 1609 C 165.317 1.45426 -1.40341 0
M  V30 1610 C 165.638 1.94996 -0.0128787 0
M  V30 1611 O 164.908 1.71599 0.945027 0
M  V30 1612 H 163.488 0.539594 -0.516573 0
M  V30 1613 H 166.15 0.825201 -1.76569 0
M  V30 1614 H 165.246 2.31817 -2.08967 0
M  V30 1615 N 165.547 1.27147 0.931209 0
M  V30 1616 C 166.772 1.16191 1.71797 0
M  V30 1617 C 167.197 -0.278004 1.86034 0
M  V30 1618 O 166.555 -1.20137 1.35782 0
M  V30 1619 C 166.603 1.84673 3.09723 0
M  V30 1620 O 165.707 1.14231 3.96264 0
M  V30 1621 H 165.048 0.404303 0.526721 0
M  V30 1622 H 167.578 1.68152 1.1656 0
M  V30 1623 H 167.588 1.91893 3.60057 0
M  V30 1624 H 166.263 2.89421 2.98677 0
M  V30 1625 H 164.84 1.15056 3.54706 0
M  V30 1626 N 167.025 -1.13721 1.09112 0
M  V30 1627 C 167.935 -2.22638 0.73957 0
M  V30 1628 C 168.951 -1.72091 -0.257068 0
M  V30 1629 O 170.127 -2.01155 -0.0992154 0
M  V30 1630 C 167.192 -3.46322 0.16191 0
M  V30 1631 C 166.253 -4.11775 1.21408 0
M  V30 1632 C 165.486 -5.29555 0.663891 0
M  V30 1633 O 165.709 -5.68077 -0.514274 0
M  V30 1634 O 164.643 -5.84973 1.41738 0
M  V30 1635 H 168.469 -2.55074 1.64836 0
M  V30 1636 H 166.054 -1.21791 0.865289 0
M  V30 1637 H 167.936 -4.21107 -0.157073 0
M  V30 1638 H 166.611 -3.15593 -0.719932 0
M  V30 1639 H 165.518 -3.3883 1.58571 0
M  V30 1640 H 166.851 -4.46627 2.06845 0
M  V30 1641 N 168.503 -0.877838 -1.30888 0
M  V30 1642 C 169.413 -0.343096 -2.32078 0
M  V30 1643 C 170.429 0.551022 -1.65045 0
M  V30 1644 O 171.605 0.445854 -1.96403 0
M  V30 1645 C 168.67 0.439905 -3.43898 0
M  V30 1646 C 167.731 -0.483111 -4.26573 0
M  V30 1647 C 166.964 0.262616 -5.33053 0
M  V30 1648 O 167.187 1.48967 -5.50604 0
M  V30 1649 O 166.121 -0.383593 -6.00676 0
M  V30 1650 H 169.947 -1.18203 -2.79753 0
M  V30 1651 H 167.532 -0.64145 -1.34929 0
M  V30 1652 H 169.414 0.883504 -4.12034 0
M  V30 1653 H 168.089 1.25526 -2.98371 0
M  V30 1654 H 166.996 -0.975374 -3.61161 0
M  V30 1655 H 168.329 -1.26427 -4.75686 0
M  V30 1656 N 169.982 1.44106 -0.638065 0
M  V30 1657 C 170.929 2.30715 0.062701 0
M  V30 1658 C 171.899 1.43882 0.829883 0
M  V30 1659 O 173.084 1.72775 0.809532 0
M  V30 1660 C 170.224 3.29258 1.03358 0
M  V30 1661 C 169.337 4.31192 0.26409 0
M  V30 1662 C 168.472 5.16825 1.22741 0
M  V30 1663 C 167.511 6.10462 0.447475 0
M  V30 1664 N 166.648 6.8877 1.36161 0
M  V30 1665 H 171.488 2.90096 -0.681781 0
M  V30 1666 H 169.025 1.42925 -0.347988 0
M  V30 1667 H 170.983 3.84886 1.60992 0
M  V30 1668 H 169.613 2.71562 1.74511 0
M  V30 1669 H 168.665 3.77981 -0.428295 0
M  V30 1670 H 169.977 4.97619 -0.343052 0
M  V30 1671 H 169.131 5.77004 1.87487 0
M  V30 1672 H 167.87 4.50488 1.86847 0
M  V30 1673 H 166.875 5.49386 -0.213433 0
M  V30 1674 H 168.1 6.78837 -0.188968 0
M  V30 1675 H 166.046 6.25096 1.98975 0
M  V30 1676 H 165.963 7.51663 0.808656 0
M  V30 1677 H 167.231 7.53467 1.99769 0
M  V30 1678 N 171.46 0.379036 1.52974 0
M  V30 1679 C 172.709 -0.207612 2.00629 0
M  V30 1680 C 173.022 -1.48758 1.27006 0
M  V30 1681 O 174.228 -2.15365 1.65318 0
M  V30 1682 C 172.684 -0.42053 3.57435 0
M  V30 1683 C 172.292 0.845587 4.39948 0
M  V30 1684 C 174.036 -0.964102 4.13407 0
M  V30 1685 C 171.943 0.601513 5.88333 0
M  V30 1686 H 170.873 -0.0813591 0.749598 0
M  V30 1687 H 173.524 0.499853 1.76561 0
M  V30 1688 H 171.906 -1.18959 3.7771 0
M  V30 1689 H 173.08 1.61848 4.31442 0
M  V30 1690 H 171.395 1.31336 3.95145 0
M  V30 1691 H 173.992 -1.16225 5.21916 0
M  V30 1692 H 174.335 -1.93019 3.68849 0
M  V30 1693 H 174.868 -0.25487 3.96983 0
M  V30 1694 H 171.607 1.53831 6.37194 0
M  V30 1695 H 171.127 -0.132628 5.99653 0
M  V30 1696 H 172.806 0.232134 6.46583 0
M  V30 1697 N 172.938 -1.57226 0.108567 0
M  V30 1698 C 173.868 -2.17778 -0.84232 0
M  V30 1699 C 174.849 -1.11487 -1.2847 0
M  V30 1700 O 176.034 -1.39681 -1.34918 0
M  V30 1701 C 173.164 -2.76888 -2.09644 0
M  V30 1702 C 172.118 -3.88669 -1.79221 0
M  V30 1703 C 171.444 -4.34541 -3.11574 0
M  V30 1704 C 172.744 -5.11251 -1.06864 0
M  V30 1705 H 174.438 -2.97489 -0.337774 0
M  V30 1706 H 171.984 -1.43097 -0.161025 0
M  V30 1707 H 173.937 -3.17904 -2.76614 0
M  V30 1708 H 172.661 -1.94451 -2.62405 0
M  V30 1709 H 171.32 -3.48213 -1.14644 0
M  V30 1710 H 170.968 -3.48977 -3.62249 0
M  V30 1711 H 170.668 -5.09914 -2.91996 0
M  V30 1712 H 172.192 -4.782 -3.7968 0
M  V30 1713 H 173.606 -5.49352 -1.63968 0
M  V30 1714 H 172.003 -5.9214 -0.974178 0
M  V30 1715 H 173.073 -4.8487 -0.0536168 0
M  V30 1716 N 174.416 0.165178 -1.56732 0
M  V30 1717 C 175.832 0.517174 -1.50988 0
M  V30 1718 C 176.032 1.84331 -0.813894 0
M  V30 1719 O 175.088 2.49672 -0.37682 0
M  V30 1720 C 176.401 0.544261 -2.95733 0
M  V30 1721 C 177.949 0.631039 -3.06573 0
M  V30 1722 C 178.424 0.68896 -4.52788 0
M  V30 1723 N 179.915 0.751683 -4.5706 0
M  V30 1724 C 180.65 0.817177 -5.67547 0
M  V30 1725 N 180.146 0.843129 -6.8765 0
M  V30 1726 N 181.939 0.856668 -5.55534 0
M  V30 1727 H 174.09 -0.704318 -2.00382 0
M  V30 1728 H 176.353 -0.254687 -0.913148 0
M  V30 1729 H 176.059 -0.361607 -3.49836 0
M  V30 1730 H 175.933 1.3886 -3.5071 0
M  V30 1731 H 178.32 1.52733 -2.52501 0
M  V30 1732 H 178.401 -0.240095 -2.54671 0
M  V30 1733 H 178.045 -0.2031 -5.07494 0
M  V30 1734 H 177.975 1.57633 -5.02454 0
M  V30 1735 H 180.466 0.739661 -3.70591 0
M  V30 1736 H 180.779 0.894448 -7.67606 0
M  V30 1737 H 179.124 0.811304 -6.90248 0
M  V30 1738 H 182.315 0.833437 -4.60621 0
M  V30 1739 H 182.488 0.904247 -6.4166 0
M  V30 1740 N 175.894 1.51508 0.433938 0
M  V30 1741 C 176.804 1.75917 1.5521 0
M  V30 1742 C 177.82 0.643545 1.61662 0
M  V30 1743 O 178.996 0.926183 1.7884 0
M  V30 1744 C 176.061 1.88213 2.91164 0
M  V30 1745 C 175.122 3.12074 2.94802 0
M  V30 1746 C 174.355 3.23774 4.24271 0
M  V30 1747 O 174.578 2.4133 5.16833 0
M  V30 1748 O 173.512 4.16774 4.34262 0
M  V30 1749 H 177.338 2.70777 1.37527 0
M  V30 1750 H 174.923 1.36051 0.617293 0
M  V30 1751 H 176.805 1.98267 3.71845 0
M  V30 1752 H 175.48 0.965413 3.08968 0
M  V30 1753 H 174.387 3.07497 2.13065 0
M  V30 1754 H 175.72 4.03446 2.81943 0
M  V30 1755 N 177.372 -0.689602 1.41712 0
M  V30 1756 C 178.302 -1.81577 1.46806 0
M  V30 1757 C 179.283 -1.66945 0.326105 0
M  V30 1758 O 180.468 -1.86588 0.538377 0
M  V30 1759 C 177.598 -3.19762 1.35535 0
M  V30 1760 C 176.552 -3.49107 2.47605 0
M  V30 1761 C 175.878 -4.86711 2.21397 0
M  V30 1762 C 177.178 -3.47483 3.89939 0
M  V30 1763 H 178.872 -1.7757 2.41058 0
M  V30 1764 H 176.418 -0.852887 1.16025 0
M  V30 1765 H 178.371 -3.98263 1.3771 0
M  V30 1766 H 177.095 -3.24409 0.377708 0
M  V30 1767 H 175.754 -2.72959 2.44722 0
M  V30 1768 H 175.402 -4.8799 1.21961 0
M  V30 1769 H 175.102 -5.0731 2.96497 0
M  V30 1770 H 176.626 -5.67515 2.25297 0
M  V30 1771 H 178.04 -4.1598 3.94505 0
M  V30 1772 H 176.437 -3.79615 4.64771 0
M  V30 1773 H 177.507 -2.46341 4.17665 0
M  V30 1774 N 178.85 -1.27639 -0.924453 0
M  V30 1775 C 180.075 -1.17101 -1.71179 0
M  V30 1776 C 180.5 0.268134 -1.86179 0
M  V30 1777 O 179.858 1.19415 -1.36418 0
M  V30 1778 C 179.906 -1.86313 -3.08739 0
M  V30 1779 O 179.01 -1.16331 -3.95652 0
M  V30 1780 H 178.351 -0.407091 -0.524569 0
M  V30 1781 H 180.881 -1.68767 -1.15666 0
M  V30 1782 H 180.891 -1.938 -3.59034 0
M  V30 1783 H 179.566 -2.91001 -2.97138 0
M  V30 1784 H 178.143 -1.16935 -3.54091 0
M  V30 1785 N 180.328 1.1314 -1.09713 0
M  V30 1786 C 181.238 2.22242 -0.751367 0
M  V30 1787 C 182.254 1.72224 0.247938 0
M  V30 1788 O 183.43 2.01205 0.0885463 0
M  V30 1789 C 180.495 3.46231 -0.180274 0
M  V30 1790 C 179.556 4.11125 -1.2359 0
M  V30 1791 C 178.789 5.29195 -0.691966 0
M  V30 1792 O 179.012 5.68342 0.48414 0
M  V30 1793 O 177.946 5.84214 -1.44838 0
M  V30 1794 H 181.772 2.54197 -1.66186 0
M  V30 1795 H 179.357 1.21331 -0.871735 0
M  V30 1796 H 181.239 4.21185 0.134739 0
M  V30 1797 H 179.914 3.1597 0.703185 0
M  V30 1798 H 178.821 3.37985 -1.60366 0
M  V30 1799 H 180.154 4.45524 -2.09211 0
M  V30 1800 N 181.806 0.884767 1.30421 0
M  V30 1801 C 182.716 0.355398 2.31892 0
M  V30 1802 C 183.732 -0.542261 1.65335 0
M  V30 1803 O 184.908 -0.435432 1.96637 0
M  V30 1804 C 181.973 -0.421661 3.44126 0
M  V30 1805 C 181.034 0.505727 4.26311 0
M  V30 1806 C 180.267 -0.234343 5.33185 0
M  V30 1807 O 180.49 -1.46045 5.51386 0
M  V30 1808 O 179.424 0.415443 6.00465 0
M  V30 1809 H 183.25 1.19685 2.79122 0
M  V30 1810 H 180.835 0.648596 1.34587 0
M  V30 1811 H 182.717 -0.861641 4.12497 0
M  V30 1812 H 181.392 -1.23942 2.99032 0
M  V30 1813 H 180.299 0.994513 3.60639 0
M  V30 1814 H 181.632 1.28948 4.75009 0
M  V30 1815 N 183.284 -1.43765 0.645699 0
M  V30 1816 C 184.194 -2.34544 -0.0512957 0
M  V30 1817 C 185.21 -1.53455 -0.82022 0
M  V30 1818 O 186.386 -1.86133 -0.769176 0
M  V30 1819 C 183.451 -3.31636 -1.01087 0
M  V30 1820 C 182.512 -4.2863 -0.239712 0
M  V30 1821 C 181.745 -5.21084 -1.15358 0
M  V30 1822 O 181.968 -5.1779 -2.39269 0
M  V30 1823 O 180.902 -5.98593 -0.630038 0
M  V30 1824 H 184.728 -2.95624 0.695718 0
M  V30 1825 H 182.313 -1.43781 0.405882 0
M  V30 1826 H 184.195 -3.9136 -1.56254 0
M  V30 1827 H 182.87 -2.73069 -1.73824 0
M  V30 1828 H 181.777 -3.72408 0.355356 0
M  V30 1829 H 183.11 -4.90157 0.447936 0
M  V30 1830 N 184.763 -0.387143 -1.52771 0
M  V30 1831 C 185.673 0.456442 -2.30117 0
M  V30 1832 C 186.689 1.07342 -1.36944 0
M  V30 1833 O 187.865 1.07971 -1.70013 0
M  V30 1834 C 184.93 1.56957 -3.09136 0
M  V30 1835 C 183.991 0.977916 -4.18014 0
M  V30 1836 C 183.224 2.038 -4.93256 0
M  V30 1837 O 183.447 3.25271 -4.68567 0
M  V30 1838 O 182.381 1.6565 -5.78657 0
M  V30 1839 H 186.207 -0.17359 -3.03203 0
M  V30 1840 H 183.792 -0.150919 -1.48636 0
M  V30 1841 H 185.674 2.21628 -3.58412 0
M  V30 1842 H 184.349 2.18461 -2.38865 0
M  V30 1843 H 183.256 0.294525 -3.72939 0
M  V30 1844 H 184.589 0.407128 -4.90513 0
M  V30 1845 N 186.241 1.57166 -0.116904 0
M  V30 1846 C 187.518 1.86645 0.585049 0
M  V30 1847 C 187.898 1.0177 1.84949 0
M  V30 1848 O 187.246 0.0960379 2.28298 0
M  V30 1849 C 187.456 3.37736 0.879507 0
M  V30 1850 C 188.804 4.06289 1.23348 0
M  V30 1851 O 189.828 3.42743 0.969836 0
M  V30 1852 O 188.687 5.18455 1.7282 0
M  V30 1853 H 185.781 0.772593 0.295007 0
M  V30 1854 H 188.327 1.69025 -0.151249 0
M  V30 1855 H 187.099 3.91296 -0.0166136 0
M  V30 1856 H 186.722 3.6078 1.67103 0
M  V30 1857 N 187.719 -0.156864 1.56817 0
M  V30 1858 C 188.629 -1.2136 2.00771 0
M  V30 1859 C 189.645 -1.47598 0.921459 0
M  V30 1860 O 190.821 -1.59462 1.2302 0
M  V30 1861 C 187.886 -2.52943 2.37109 0
M  V30 1862 C 186.947 -2.34439 3.59634 0
M  V30 1863 C 186.18 -3.59748 3.94229 0
M  V30 1864 O 186.403 -4.65526 3.29609 0
M  V30 1865 O 185.337 -3.52998 4.8752 0
M  V30 1866 H 189.163 -0.870468 2.90958 0
M  V30 1867 H 186.748 -0.36484 1.44877 0
M  V30 1868 H 188.63 -3.30538 2.61386 0
M  V30 1869 H 187.305 -2.86806 1.5008 0
M  V30 1870 H 186.212 -1.54828 3.40557 0
M  V30 1871 H 187.545 -2.05496 4.4725 0
M  V30 1872 N 189.197 -1.51736 -0.425897 0
M  V30 1873 C 190.107 -1.76738 -1.54275 0
M  V30 1874 C 191.123 -0.65211 -1.61318 0
M  V30 1875 O 192.299 -0.935654 -1.78346 0
M  V30 1876 C 189.364 -1.89755 -2.90162 0
M  V30 1877 C 188.425 -3.13633 -2.93143 0
M  V30 1878 C 187.658 -3.2602 -4.22548 0
M  V30 1879 O 187.881 -2.44067 -5.15546 0
M  V30 1880 O 186.815 -4.19071 -4.32046 0
M  V30 1881 H 190.641 -2.71502 -1.36089 0
M  V30 1882 H 188.226 -1.36376 -0.610069 0
M  V30 1883 H 190.108 -2.00236 -3.70788 0
M  V30 1884 H 188.783 -0.981785 -3.08452 0
M  V30 1885 H 187.69 -3.08622 -2.11431 0
M  V30 1886 H 189.023 -4.04936 -2.798 0
M  V30 1887 N 190.675 0.682077 -1.42076 0
M  V30 1888 C 191.585 1.82535 -1.47371 0
M  V30 1889 C 192.601 1.7017 -0.363079 0
M  V30 1890 O 193.777 1.91848 -0.612875 0
M  V30 1891 C 190.842 3.18624 -1.36674 0
M  V30 1892 C 189.903 3.42999 -2.58167 0
M  V30 1893 C 189.136 4.72595 -2.4797 0
M  V30 1894 O 189.359 5.50006 -1.5116 0
M  V30 1895 O 188.293 4.98054 -3.37974 0
M  V30 1896 H 192.119 1.81023 -2.43853 0
M  V30 1897 H 189.704 0.836887 -1.2376 0
M  V30 1898 H 191.586 3.99847 -1.33043 0
M  V30 1899 H 190.261 3.20789 -0.433138 0
M  V30 1900 H 189.168 2.61653 -2.67373 0
M  V30 1901 H 190.501 3.45659 -3.50401 0
M  V30 1902 N 192.153 1.28127 0.917671 0
M  V30 1903 C 193.063 1.13556 2.05286 0
M  V30 1904 C 194.079 0.0630914 1.73886 0
M  V30 1905 O 195.255 0.271598 1.9956 0
M  V30 1906 C 192.32 0.794676 3.3747 0
M  V30 1907 C 191.381 1.94909 3.82504 0
M  V30 1908 C 190.614 1.62437 5.0838 0
M  V30 1909 O 190.837 0.536905 5.67867 0
M  V30 1910 O 189.771 2.46677 5.4903 0
M  V30 1911 H 193.597 2.08844 2.20495 0
M  V30 1912 H 191.182 1.07409 1.03845 0
M  V30 1913 H 193.064 0.618344 4.16839 0
M  V30 1914 H 191.739 -0.128581 3.23445 0
M  V30 1915 H 190.646 2.18055 3.03978 0
M  V30 1916 H 191.979 2.85291 4.01086 0
M  V30 1917 N 193.631 -1.12557 1.10312 0
M  V30 1918 C 194.541 -2.21841 0.763142 0
M  V30 1919 C 195.557 -1.72354 -0.238801 0
M  V30 1920 O 196.733 -2.01249 -0.0778746 0
M  V30 1921 C 193.798 -3.46131 0.198632 0
M  V30 1922 C 192.859 -4.10464 1.25769 0
M  V30 1923 C 192.092 -5.28821 0.72002 0
M  V30 1924 O 192.315 -5.6859 -0.453993 0
M  V30 1925 O 191.249 -5.83437 1.47935 0
M  V30 1926 H 195.075 -2.53312 1.67532 0
M  V30 1927 H 192.66 -1.20867 0.878157 0
M  V30 1928 H 194.542 -4.2125 -0.112401 0
M  V30 1929 H 193.217 -3.16338 -0.686419 0
M  V30 1930 H 192.124 -3.3713 1.62156 0
M  V30 1931 H 193.457 -4.44408 2.11571 0
M  V30 1932 N 195.109 -0.891671 -1.2995 0
M  V30 1933 C 196.019 -0.367691 -2.31701 0
M  V30 1934 C 197.035 0.533486 -1.6562 0
M  V30 1935 O 198.211 0.424997 -1.96865 0
M  V30 1936 C 195.276 0.403406 -3.44345 0
M  V30 1937 C 194.337 -0.528328 -4.26037 0
M  V30 1938 C 193.57 0.206063 -5.33302 0
M  V30 1939 O 193.793 1.43119 -5.52153 0
M  V30 1940 O 192.727 -0.447281 -6.00236 0
M  V30 1941 H 196.553 -1.21163 -2.78484 0
M  V30 1942 H 194.138 -0.655725 -1.34241 0
M  V30 1943 H 196.02 0.839753 -4.12948 0
M  V30 1944 H 194.695 1.22354 -2.99685 0
M  V30 1945 H 193.602 -1.01362 -3.60106 0
M  V30 1946 H 194.935 -1.31465 -4.74318 0
M  V30 1947 N 196.587 1.43421 -0.653314 0
M  V30 1948 C 197.497 2.34568 0.0388565 0
M  V30 1949 C 198.513 1.53888 0.81207 0
M  V30 1950 O 199.689 1.86539 0.759294 0
M  V30 1951 C 196.754 3.32167 0.993269 0
M  V30 1952 C 195.815 4.28751 0.216977 0
M  V30 1953 C 195.048 5.21688 1.12593 0
M  V30 1954 O 195.271 5.19052 2.36519 0
M  V30 1955 O 194.205 5.98919 0.598284 0
M  V30 1956 H 198.031 2.95251 -0.711386 0
M  V30 1957 H 195.616 1.43564 -0.413502 0
M  V30 1958 H 197.498 3.92183 1.54176 0
M  V30 1959 H 196.173 2.73987 1.72374 0
M  V30 1960 H 195.08 3.72215 -0.375101 0
M  V30 1961 H 196.413 4.89913 -0.473924 0
M  V30 1962 N 198.065 0.39524 1.52563 0
M  V30 1963 C 198.975 -0.444232 2.30356 0
M  V30 1964 C 199.991 -1.06615 1.37511 0
M  V30 1965 O 201.167 -1.07067 1.70583 0
M  V30 1966 C 198.232 -1.55315 3.09964 0
M  V30 1967 C 197.293 -0.955734 4.18526 0
M  V30 1968 C 196.526 -2.01181 4.9433 0
M  V30 1969 O 196.749 -3.22781 4.70285 0
M  V30 1970 O 195.683 -1.62579 5.79527 0
M  V30 1971 H 199.509 0.189667 3.03107 0
M  V30 1972 H 197.094 0.1588 1.48554 0
M  V30 1973 H 198.976 -2.19724 3.59582 0
M  V30 1974 H 197.651 -2.17191 2.4002 0
M  V30 1975 H 196.558 -0.274743 3.7309 0
M  V30 1976 H 197.891 -0.381109 4.90722 0
M  V30 1977 N 199.544 -1.57102 0.125237 0
M  V30 1978 C 200.454 -2.19191 -0.8362 0
M  V30 1979 C 201.47 -1.16985 -1.28805 0
M  V30 1980 O 202.646 -1.49479 -1.34974 0
M  V30 1981 C 199.711 -2.78407 -2.06617 0
M  V30 1982 C 198.772 -3.9567 -1.66565 0
M  V30 1983 C 198.005 -4.52052 -2.83698 0
M  V30 1984 O 198.228 -4.07326 -3.99302 0
M  V30 1985 O 197.162 -5.42645 -2.60423 0
M  V30 1986 H 200.988 -3.01816 -0.337776 0
M  V30 1987 H 198.573 -1.4906 -0.100695 0
M  V30 1988 H 200.455 -3.16129 -2.7864 0
M  V30 1989 H 199.13 -1.9881 -2.55453 0
M  V30 1990 H 198.037 -3.62705 -0.916296 0
M  V30 1991 H 199.37 -4.76722 -1.22464 0
M  V30 1992 N 201.022 0.148545 -1.56898 0
M  V30 1993 C 201.932 1.20293 -2.01412 0
M  V30 1994 C 202.948 1.47107 -0.929273 0
M  V30 1995 O 204.124 1.58807 -1.23863 0
M  V30 1996 C 201.189 2.51682 -2.38447 0
M  V30 1997 C 200.25 2.32529 -3.60872 0
M  V30 1998 C 199.483 3.57653 -3.96132 0
M  V30 1999 O 199.706 4.63771 -3.32073 0
M  V30 2000 O 198.64 3.50408 -4.89385 0
M  V30 2001 H 202.466 0.855025 -2.91416 0
M  V30 2002 H 200.051 0.357151 -1.45068 0
M  V30 2003 H 201.933 3.29147 -2.63135 0
M  V30 2004 H 200.608 2.86006 -1.51599 0
M  V30 2005 H 199.515 1.53019 -3.41373 0
M  V30 2006 H 200.848 2.03121 -4.48333 0
M  V30 2007 N 202.5 1.5196 0.417844 0
M  V30 2008 C 203.748 1.65263 1.16329 0
M  V30 2009 C 204.069 0.380634 1.91249 0
M  V30 2010 O 203.339 -0.604214 1.86349 0
M  V30 2011 H 201.919 0.60912 0.432414 0
M  V30 2012 H 204.581 1.88969 0.477162 0
M  V30 2013 H 203.677 2.4896 1.88217 0
M  V30 2014 N 203.978 -0.674533 1.42435 0
M  V30 2015 C 205.394 -0.98769 1.25367 0
M  V30 2016 C 205.594 -2.00879 0.158044 0
M  V30 2017 O 204.65 -2.48075 -0.470633 0
M  V30 2018 C 205.963 -1.49224 2.6106 0
M  V30 2019 C 207.511 -1.61 2.68417 0
M  V30 2020 C 207.986 -2.14852 4.04478 0
M  V30 2021 N 209.477 -2.22185 4.06434 0
M  V30 2022 C 210.212 -2.64928 5.08528 0
M  V30 2023 N 209.708 -3.07121 6.21006 0
M  V30 2024 N 211.501 -2.64679 4.95885 0
M  V30 2025 H 203.652 0.00152503 2.124 0
M  V30 2026 H 205.915 -0.0618434 0.945981 0
M  V30 2027 H 205.621 -0.816453 3.42092 0
M  V30 2028 H 205.495 -2.47094 2.84999 0
M  V30 2029 H 207.882 -2.27686 1.87732 0
M  V30 2030 H 207.963 -0.616195 2.48267 0
M  V30 2031 H 207.607 -1.48775 4.85622 0
M  V30 2032 H 207.537 -3.15024 4.2198 0
M  V30 2033 H 210.028 -1.92435 3.25234 0
M  V30 2034 H 210.341 -3.38423 6.94759 0
M  V30 2035 H 208.686 -3.04978 6.24511 0
M  V30 2036 H 211.877 -2.31078 4.07088 0
M  V30 2037 H 212.05 -2.9767 5.75584 0
M  V30 2038 N 205.456 -1.28612 -0.910864 0
M  V30 2039 C 206.703 -1.15934 -1.66029 0
M  V30 2040 C 207.031 0.291483 -1.92303 0
M  V30 2041 O 206.286 1.22816 -1.52364 0
M  V30 2042 C 206.585 -1.90624 -3.0232 0
M  V30 2043 C 206.251 -3.40405 -2.95695 0
M  V30 2044 C 204.913 -3.81255 -2.93595 0
M  V30 2045 C 207.265 -4.359 -2.85728 0
M  V30 2046 C 204.593 -5.15936 -2.79334 0
M  V30 2047 C 206.945 -5.70657 -2.73007 0
M  V30 2048 C 205.609 -6.10779 -2.69267 0
M  V30 2049 H 204.879 -0.424234 -0.607541 0
M  V30 2050 H 207.526 -1.5942 -1.06101 0
M  V30 2051 H 205.831 -1.39696 -3.6605 0
M  V30 2052 H 207.528 -1.78228 -3.59215 0
M  V30 2053 H 204.118 -3.07927 -2.98125 0
M  V30 2054 H 208.302 -4.053 -2.86436 0
M  V30 2055 H 203.558 -5.46146 -2.74835 0
M  V30 2056 H 207.732 -6.44311 -2.64264 0
M  V30 2057 H 205.359 -7.1509 -2.57974 0
M  V30 2058 N 206.934 1.1197 -1.10907 0
M  V30 2059 C 208.164 1.8713 -0.875553 0
M  V30 2060 C 208.572 1.8016 0.577843 0
M  V30 2061 O 207.915 1.17699 1.41042 0
M  V30 2062 C 207.977 3.37005 -1.2517 0
M  V30 2063 C 207.641 3.67748 -2.71313 0
M  V30 2064 C 208.638 3.65698 -3.69542 0
M  V30 2065 C 206.323 3.96928 -3.07821 0
M  V30 2066 C 208.317 3.92395 -5.023 0
M  V30 2067 C 206.004 4.23284 -4.40765 0
M  V30 2068 C 207.002 4.21005 -5.37814 0
M  V30 2069 O 206.69 4.46704 -6.68364 0
M  V30 2070 H 206.422 0.598786 -0.313737 0
M  V30 2071 H 208.976 1.42568 -1.47863 0
M  V30 2072 H 207.206 3.82146 -0.591741 0
M  V30 2073 H 208.895 3.93519 -0.994877 0
M  V30 2074 H 209.661 3.43211 -3.42682 0
M  V30 2075 H 205.54 3.97841 -2.32902 0
M  V30 2076 H 209.084 3.90531 -5.78041 0
M  V30 2077 H 204.981 4.45246 -4.67361 0
M  V30 2078 H 205.749 4.64299 -6.74069 0
M  V30 2079 N 208.412 0.89855 1.29475 0
M  V30 2080 C 209.642 0.538479 1.99459 0
M  V30 2081 C 210.05 -0.880922 1.67441 0
M  V30 2082 O 209.393 -1.59283 0.915127 0
M  V30 2083 C 209.455 0.649564 3.53583 0
M  V30 2084 C 209.119 2.03573 4.09154 0
M  V30 2085 C 210.116 3.00675 4.24135 0
M  V30 2086 C 207.801 2.3448 4.44212 0
M  V30 2087 C 209.795 4.26809 4.73405 0
M  V30 2088 C 207.482 3.60857 4.93179 0
M  V30 2089 C 208.48 4.56836 5.0773 0
M  V30 2090 O 208.168 5.80969 5.55635 0
M  V30 2091 H 207.9 0.205372 0.644048 0
M  V30 2092 H 210.454 1.20958 1.66007 0
M  V30 2093 H 208.684 -0.0785592 3.8662 0
M  V30 2094 H 210.373 0.29881 4.04799 0
M  V30 2095 H 211.139 2.78112 3.97339 0
M  V30 2096 H 207.018 1.60534 4.32145 0
M  V30 2097 H 210.562 5.0173 4.84678 0
M  V30 2098 H 206.459 3.83251 5.19412 0
M  V30 2099 H 207.227 5.83542 5.73952 0
M  V30 2100 N 209.89 -1.43072 0.660911 0
M  V30 2101 C 211.115 -2.06584 0.183805 0
M  V30 2102 C 211.54 -1.49257 -1.14472 0
M  V30 2103 O 210.898 -0.605528 -1.70889 0
M  V30 2104 C 210.946 -3.60418 0.114434 0
M  V30 2105 O 210.05 -4.01981 -0.921137 0
M  V30 2106 H 209.391 -0.656669 0.0983994 0
M  V30 2107 H 211.921 -1.83447 0.906006 0
M  V30 2108 H 211.931 -4.07946 -0.0663394 0
M  V30 2109 H 210.606 -4.01519 1.08422 0
M  V30 2110 H 209.183 -3.66029 -0.71253 0
M  V30 2111 N 211.368 -0.403325 -1.52352 0
M  V30 2112 C 212.278 0.432009 -2.30588 0
M  V30 2113 C 213.294 1.05884 -1.38075 0
M  V30 2114 O 214.47 1.06161 -1.71148 0
M  V30 2115 C 211.535 1.53669 -3.10784 0
M  V30 2116 C 210.596 0.933525 -4.19027 0
M  V30 2117 C 209.829 1.98557 -4.9539 0
M  V30 2118 O 210.052 3.20283 -4.71991 0
M  V30 2119 O 208.986 1.59504 -5.80381 0
M  V30 2120 H 212.812 -0.205739 -3.03002 0
M  V30 2121 H 210.397 -0.166675 -1.48467 0
M  V30 2122 H 212.279 2.17814 -3.60742 0
M  V30 2123 H 210.954 2.15915 -2.41169 0
M  V30 2124 H 209.861 0.254954 -3.7323 0
M  V30 2125 H 211.194 0.35508 -4.90918 0
M  V30 2126 N 212.846 1.57033 -0.133567 0
M  V30 2127 C 214.123 1.87256 0.56522 0
M  V30 2128 C 214.503 1.03726 1.83859 0
M  V30 2129 O 213.851 0.120247 2.28183 0
M  V30 2130 C 214.061 3.3865 0.843636 0
M  V30 2131 C 215.409 4.07574 1.19032 0
M  V30 2132 O 216.433 3.43752 0.933429 0
M  V30 2133 O 215.292 5.20259 1.67312 0
M  V30 2134 H 212.386 0.775678 0.286796 0
M  V30 2135 H 214.932 1.68855 -0.169168 0
M  V30 2136 H 213.704 3.91257 -0.0581149 0
M  V30 2137 H 213.327 3.62532 1.63268 0
M  V30 2138 N 214.325 -0.140222 1.56975 0
M  V30 2139 C 215.602 -0.880769 1.74648 0
M  V30 2140 C 215.982 -1.99036 0.703404 0
M  V30 2141 O 215.33 -2.26821 -0.27648 0
M  V30 2142 C 215.54 -1.417 3.18939 0
M  V30 2143 C 216.888 -1.87774 3.80823 0
M  V30 2144 O 217.912 -1.51427 3.2241 0
M  V30 2145 O 216.771 -2.54827 4.83452 0
M  V30 2146 H 213.865 -0.416713 0.714338 0
M  V30 2147 H 216.411 -0.125618 1.69234 0
M  V30 2148 H 215.183 -0.619902 3.86359 0
M  V30 2149 H 214.806 -2.23546 3.28805 0
M  V30 2150 N 215.803 -1.52179 -0.40978 0
M  V30 2151 C 216.753 -1.71857 -1.49831 0
M  V30 2152 C 217.737 -0.572469 -1.50372 0
M  V30 2153 O 218.929 -0.829509 -1.56359 0
M  V30 2154 C 216.058 -1.87206 -2.87765 0
M  V30 2155 C 215.144 -3.07685 -2.91875 0
M  V30 2156 N 215.535 -4.30403 -2.65683 0
M  V30 2157 C 213.833 -3.07505 -3.23043 0
M  V30 2158 C 214.534 -5.11868 -2.76344 0
M  V30 2159 N 213.51 -4.47101 -3.09195 0
M  V30 2160 H 217.312 -2.64381 -1.28375 0
M  V30 2161 H 214.826 -1.50203 -0.617479 0
M  V30 2162 H 216.823 -1.99419 -3.66111 0
M  V30 2163 H 215.483 -0.958814 -3.10221 0
M  V30 2164 H 216.494 -4.58887 -2.4009 0
M  V30 2165 H 213.171 -2.25915 -3.51096 0
M  V30 2166 H 214.561 -6.19634 -2.59814 0
M  V30 2167 N 217.281 0.66697 -1.42791 0
M  V30 2168 C 218.529 1.42417 -1.43394 0
M  V30 2169 C 218.85 1.94925 -0.0542373 0
M  V30 2170 O 218.12 1.73564 0.908415 0
M  V30 2171 H 216.7 0.528515 -0.527902 0
M  V30 2172 H 219.362 0.787562 -1.78279 0
M  V30 2173 H 218.458 2.27333 -2.13837 0
M  V30 2174 N 218.759 1.29093 0.90403 0
M  V30 2175 C 220.036 1.075 1.63411 0
M  V30 2176 C 220.416 -0.382346 2.07609 0
M  V30 2177 O 219.764 -1.37031 1.82851 0
M  V30 2178 C 219.974 2.05858 2.81822 0
M  V30 2179 C 221.322 2.36539 3.52611 0
M  V30 2180 O 222.346 2.04019 2.91984 0
M  V30 2181 O 221.205 2.92085 4.61897 0
M  V30 2182 H 218.299 0.411547 0.717327 0
M  V30 2183 H 220.845 1.40449 0.952479 0
M  V30 2184 H 219.617 3.04037 2.46327 0
M  V30 2185 H 219.24 1.73613 3.57693 0
M  V30 2186 N 220.237 -1.11381 1.11499 0
M  V30 2187 C 221.147 -2.21019 0.786628 0
M  V30 2188 C 222.163 -1.72597 -0.220507 0
M  V30 2189 O 223.339 -2.01321 -0.0565251 0
M  V30 2190 C 220.404 -3.459 0.235333 0
M  V30 2191 C 219.465 -4.09107 1.30115 0
M  V30 2192 C 218.698 -5.28027 0.776068 0
M  V30 2193 O 218.921 -5.6904 -0.393661 0
M  V30 2194 O 217.855 -5.81835 1.54114 0
M  V30 2195 H 221.681 -2.51521 1.70209 0
M  V30 2196 H 219.266 -1.19928 0.890928 0
M  V30 2197 H 221.148 -4.21346 -0.067715 0
M  V30 2198 H 219.823 -3.17049 -0.652828 0
M  V30 2199 H 218.73 -3.35391 1.65722 0
M  V30 2200 H 220.063 -4.42139 2.16273 0
M  V30 2201 N 221.715 -0.905404 -1.28997 0
M  V30 2202 C 222.955 -0.541232 -1.97104 0
M  V30 2203 C 223.319 0.896841 -1.69767 0
M  V30 2204 O 224.52 1.36817 -2.31375 0
M  V30 2205 C 222.791 -0.832134 -3.47578 0
M  V30 2206 S 224.35 -0.573127 -4.35041 0
M  V30 2207 H 221.168 -0.200576 -0.682122 0
M  V30 2208 H 223.77 -1.16906 -1.56694 0
M  V30 2209 H 222.474 -1.87687 -3.64968 0
M  V30 2210 H 222.005 -0.192636 -3.92928 0
M  V30 2211 H 224.02 0.579297 -4.92807 0
M  V30 2212 N 223.193 1.4272 -0.668489 0
M  V30 2213 C 224.418 2.06484 -0.194758 0
M  V30 2214 C 224.843 1.49862 1.13679 0
M  V30 2215 O 224.201 0.614582 1.70565 0
M  V30 2216 C 224.249 3.60353 -0.133546 0
M  V30 2217 O 223.353 4.02464 0.899806 0
M  V30 2218 H 222.694 0.656137 -0.10188 0
M  V30 2219 H 225.224 1.82964 -0.915722 0
M  V30 2220 H 225.234 4.07976 0.0447041 0
M  V30 2221 H 223.909 4.00938 -1.1055 0
M  V30 2222 H 222.486 3.66402 0.693109 0
M  V30 2223 N 224.671 0.411399 1.52136 0
M  V30 2224 C 225.901 -0.16284 2.05957 0
M  V30 2225 C 226.309 -1.3922 1.28119 0
M  V30 2226 O 225.652 -1.80768 0.326881 0
M  V30 2227 C 225.714 -0.575946 3.54856 0
M  V30 2228 C 225.378 0.542998 4.53763 0
M  V30 2229 C 226.375 1.40726 5.00492 0
M  V30 2230 C 224.06 0.716337 4.97166 0
M  V30 2231 C 226.054 2.4298 5.8927 0
M  V30 2232 C 223.741 1.74218 5.8574 0
M  V30 2233 C 224.739 2.59731 6.31687 0
M  V30 2234 O 224.427 3.60558 7.18507 0
M  V30 2235 H 224.159 -0.0229125 0.675612 0
M  V30 2236 H 226.713 0.581634 1.96993 0
M  V30 2237 H 224.943 -1.37274 3.61515 0
M  V30 2238 H 226.632 -1.07836 3.91313 0
M  V30 2239 H 227.398 1.28476 4.67674 0
M  V30 2240 H 223.277 0.0603857 4.6096 0
M  V30 2241 H 226.821 3.0976 6.25055 0
M  V30 2242 H 222.718 1.86498 6.17971 0
M  V30 2243 H 223.486 3.56829 7.36624 0
M  V30 2244 N 226.149 -1.5696 0.141893 0
M  V30 2245 C 227.377 -2.00322 -0.517579 0
M  V30 2246 C 227.792 -1.02193 -1.58752 0
M  V30 2247 O 227.149 -0.0181619 -1.82491 0
M  V30 2248 C 227.2 -3.43618 -1.12289 0
M  V30 2249 O 226.921 -4.37995 -0.0956929 0
M  V30 2250 C 228.422 -4.02231 -1.86347 0
M  V30 2251 H 225.642 -0.657243 -0.135177 0
M  V30 2252 H 228.186 -2.03146 0.234973 0
M  V30 2253 H 226.341 -3.41662 -1.82609 0
M  V30 2254 H 226.755 -5.21729 -0.538469 0
M  V30 2255 H 228.229 -5.04509 -2.23997 0
M  V30 2256 H 228.706 -3.42655 -2.74744 0
M  V30 2257 H 229.312 -4.07802 -1.20737 0
M  V30 2258 N 227.627 0.131896 -1.57047 0
M  V30 2259 C 228.904 0.871495 -1.75112 0
M  V30 2260 C 229.284 1.9866 -0.713949 0
M  V30 2261 O 228.632 2.26965 0.264447 0
M  V30 2262 C 228.842 1.40007 -3.19686 0
M  V30 2263 C 230.19 1.85752 -3.81813 0
M  V30 2264 O 231.214 1.49715 -3.23209 0
M  V30 2265 O 230.073 2.5226 -4.84796 0
M  V30 2266 H 227.167 0.412919 -0.716538 0
M  V30 2267 H 229.713 0.116641 -1.69299 0
M  V30 2268 H 228.485 0.599404 -3.86682 0
M  V30 2269 H 228.108 2.218 -3.29986 0
M  V30 2270 N 229.106 1.52395 0.401703 0
M  V30 2271 C 230.036 1.79231 1.49661 0
M  V30 2272 C 231.017 0.643654 1.57452 0
M  V30 2273 O 232.202 0.889989 1.72606 0
M  V30 2274 C 229.332 1.94971 2.87409 0
M  V30 2275 C 228.286 3.10604 2.94465 0
M  V30 2276 C 227.612 3.11577 4.34538 0
M  V30 2277 C 228.912 4.49921 2.6527 0
M  V30 2278 H 230.606 2.70917 1.27454 0
M  V30 2279 H 228.152 1.30362 0.6117 0
M  V30 2280 H 230.105 2.12328 3.63999 0
M  V30 2281 H 228.829 0.999632 3.10926 0
M  V30 2282 H 227.488 2.93009 2.20321 0
M  V30 2283 H 227.136 2.14277 4.55076 0
M  V30 2284 H 226.836 3.89247 4.40183 0
M  V30 2285 H 228.36 3.31073 5.13053 0
M  V30 2286 H 229.774 4.67683 3.31581 0
M  V30 2287 H 228.171 5.29564 2.82281 0
M  V30 2288 H 229.241 4.57507 1.60671 0
M  V30 2289 N 230.584 -0.659388 1.43143 0
M  V30 2290 C 231.514 -1.78422 1.50625 0
M  V30 2291 C 232.495 -1.66216 0.361443 0
M  V30 2292 O 233.68 -1.85404 0.577834 0
M  V30 2293 C 230.81 -3.16815 1.42287 0
M  V30 2294 C 229.764 -3.43777 2.54954 0
M  V30 2295 C 229.09 -4.81905 2.31671 0
M  V30 2296 C 230.39 -3.39134 3.97222 0
M  V30 2297 H 232.084 -1.72417 2.44771 0
M  V30 2298 H 229.63 -0.828084 1.17808 0
M  V30 2299 H 231.583 -3.95253 1.46127 0
M  V30 2300 H 230.307 -3.23534 0.446435 0
M  V30 2301 H 228.966 -2.67707 2.50457 0
M  V30 2302 H 228.614 -4.85294 1.32284 0
M  V30 2303 H 228.314 -5.00906 3.07192 0
M  V30 2304 H 229.838 -5.62609 2.37284 0
M  V30 2305 H 231.252 -4.07518 4.03239 0
M  V30 2306 H 229.649 -3.69671 4.72719 0
M  V30 2307 H 230.719 -2.37426 4.22797 0
M  V30 2308 N 232.062 -1.29571 -0.897171 0
M  V30 2309 C 233.473 -1.15964 -1.46319 0
M  V30 2310 C 233.824 0.244267 -1.94674 0
M  V30 2311 O 232.949 1.13998 -1.83939 0
M  V30 2312 C 233.544 -2.09906 -2.65942 0
M  V30 2313 C 232.103 -2.00314 -3.18671 0
M  V30 2314 C 231.25 -2.00687 -1.91363 0
M  V30 2315 H 234.201 -1.42019 -0.708268 0
M  V30 2316 H 234.222 -1.67276 -3.41759 0
M  V30 2317 H 233.734 -3.12075 -2.30718 0
M  V30 2318 H 231.835 -1.01242 -3.58582 0
M  V30 2319 H 231.948 -2.88102 -3.82798 0
M  V30 2320 H 230.312 -1.45319 -2.09175 0
M  V30 2321 H 231.095 -3.04566 -1.58413 0
M  V30 2322 N 233.54 1.10788 -1.12088 0
M  V30 2323 C 234.472 2.16816 -0.743213 0
M  V30 2324 C 235.485 1.6119 0.228412 0
M  V30 2325 O 236.674 1.78497 0.0102931 0
M  V30 2326 C 233.774 3.38809 -0.0787313 0
M  V30 2327 C 232.947 4.23885 -1.0789 0
M  V30 2328 C 232.006 5.24334 -0.442713 0
M  V30 2329 O 231.032 5.58497 -1.09864 0
M  V30 2330 N 232.234 5.75079 0.791457 0
M  V30 2331 H 234.999 2.49825 -1.65552 0
M  V30 2332 H 232.56 1.26373 -1.012 0
M  V30 2333 H 234.552 4.03107 0.358766 0
M  V30 2334 H 233.122 3.03805 0.736275 0
M  V30 2335 H 232.342 3.55939 -1.69414 0
M  V30 2336 H 233.63 4.77562 -1.75533 0
M  V30 2337 H 233.028 5.49517 1.3434 0
M  V30 2338 H 231.585 6.4118 1.17183 0
M  V30 2339 N 235.018 0.912232 1.28515 0
M  V30 2340 C 236.295 0.463597 1.90027 0
M  V30 2341 C 236.675 -1.05753 1.82701 0
M  V30 2342 O 236.023 -1.90492 1.26194 0
M  V30 2343 C 236.233 0.992253 3.34597 0
M  V30 2344 C 237.581 1.04344 4.11579 0
M  V30 2345 O 238.605 0.94079 3.43551 0
M  V30 2346 O 237.464 1.1995 5.33174 0
M  V30 2347 H 234.558 0.146666 0.813891 0
M  V30 2348 H 237.104 1.00292 1.36893 0
M  V30 2349 H 235.876 2.03623 3.34146 0
M  V30 2350 H 235.499 0.433672 3.95228 0
M  V30 2351 N 236.496 -1.42363 0.676048 0
M  V30 2352 C 237.406 -2.346 -0.00153389 0
M  V30 2353 C 238.422 -1.5516 -0.787485 0
M  V30 2354 O 239.598 -1.87723 -0.729521 0
M  V30 2355 C 236.663 -3.33705 -0.940298 0
M  V30 2356 C 235.724 -4.29042 -0.148739 0
M  V30 2357 C 234.957 -5.23413 -1.04279 0
M  V30 2358 O 235.18 -5.22749 -2.28232 0
M  V30 2359 O 234.114 -5.99795 -0.502925 0
M  V30 2360 H 237.94 -2.94082 0.758268 0
M  V30 2361 H 235.525 -1.42888 0.436289 0
M  V30 2362 H 237.407 -3.94586 -1.47917 0
M  V30 2363 H 236.082 -2.76695 -1.67993 0
M  V30 2364 H 234.989 -3.71571 0.43427 0
M  V30 2365 H 236.322 -4.89097 0.551805 0
M  V30 2366 N 237.974 -0.419461 -1.51915 0
M  V30 2367 C 239.222 0.152637 -2.01523 0
M  V30 2368 C 239.543 1.44762 -1.30649 0
M  V30 2369 O 238.813 1.90997 -0.435535 0
M  V30 2370 H 237.393 0.0593966 -0.744635 0
M  V30 2371 H 240.055 -0.558073 -1.86739 0
M  V30 2372 H 239.151 0.341369 -3.10227 0
M  V30 2373 N 239.452 1.56882 -0.150215 0
M  V30 2374 C 240.7 1.9584 0.499105 0
M  V30 2375 C 241.021 1.03623 1.65188 0
M  V30 2376 O 240.291 0.0984084 1.95653 0
M  V30 2377 H 238.871 0.723119 0.187373 0
M  V30 2378 H 241.533 1.9358 -0.226466 0
M  V30 2379 H 240.629 2.99638 0.873122 0
M  V30 2380 N 240.93 -0.123565 1.57115 0
M  V30 2381 C 242.178 -0.83051 1.84247 0
M  V30 2382 C 242.499 -1.80629 0.73471 0
M  V30 2383 O 241.769 -1.94403 -0.241688 0
M  V30 2384 H 240.349 -0.309694 0.679778 0
M  V30 2385 H 243.011 -0.111976 1.94578 0
M  V30 2386 H 242.107 -1.37852 2.80006 0
M  V30 2387 N 242.408 -1.52605 -0.393616 0
M  V30 2388 C 243.656 -1.67093 -1.13685 0
M  V30 2389 C 243.977 -0.411011 -1.90619 0
M  V30 2390 O 243.247 0.574491 -1.87287 0
M  V30 2391 H 241.827 -0.615923 -0.422668 0
M  V30 2392 H 244.489 -1.89704 -0.447039 0
M  V30 2393 H 243.585 -2.51922 -1.84232 0
M  V30 2394 N 243.887 0.651787 -1.4349 0
M  V30 2395 C 245.117 1.43728 -1.48411 0
M  V30 2396 C 245.525 1.8893 -0.10103 0
M  V30 2397 O 244.868 1.60182 0.899307 0
M  V30 2398 C 244.93 2.70411 -2.36893 0
M  V30 2399 C 244.594 2.4714 -3.8441 0
M  V30 2400 C 245.591 2.10271 -4.75481 0
M  V30 2401 C 243.276 2.6142 -4.28912 0
M  V30 2402 C 245.27 1.87982 -6.0905 0
M  V30 2403 C 242.957 2.38746 -5.62533 0
M  V30 2404 C 243.955 2.02083 -6.5242 0
M  V30 2405 O 243.643 1.79647 -7.8357 0
M  V30 2406 H 243.375 0.447962 -0.506267 0
M  V30 2407 H 245.929 0.80624 -1.88915 0
M  V30 2408 H 244.159 3.36079 -1.91278 0
M  V30 2409 H 245.848 3.32364 -2.33 0
M  V30 2410 H 246.614 1.98814 -4.42378 0
M  V30 2411 H 242.493 2.88931 -3.59222 0
M  V30 2412 H 246.037 1.5929 -6.7917 0
M  V30 2413 H 241.934 2.49806 -5.95203 0
M  V30 2414 H 242.702 1.9406 -7.95162 0
M  V30 2415 N 245.365 1.30045 0.890287 0
M  V30 2416 C 246.59 1.21598 1.68014 0
M  V30 2417 C 247.015 -0.218678 1.86825 0
M  V30 2418 O 246.373 -1.15756 1.39536 0
M  V30 2419 C 246.421 1.94434 3.03691 0
M  V30 2420 O 245.525 1.2678 3.92429 0
M  V30 2421 H 244.866 0.420856 0.513592 0
M  V30 2422 H 247.396 1.71775 1.11151 0
M  V30 2423 H 247.406 2.03251 3.5377 0
M  V30 2424 H 246.081 2.98777 2.89318 0
M  V30 2425 H 244.658 1.26282 3.50866 0
M  V30 2426 N 246.843 -1.10192 1.12674 0
M  V30 2427 C 248.068 -1.86523 0.906853 0
M  V30 2428 C 248.493 -1.80221 -0.538711 0
M  V30 2429 O 247.851 -1.17396 -1.38158 0
M  V30 2430 C 247.899 -3.32758 1.3894 0
M  V30 2431 O 247.003 -4.08449 0.5695 0
M  V30 2432 H 246.344 -0.578678 0.325619 0
M  V30 2433 H 248.874 -1.39203 1.49946 0
M  V30 2434 H 248.884 -3.83608 1.38958 0
M  V30 2435 H 247.559 -3.36661 2.44197 0
M  V30 2436 H 246.136 -3.67427 0.636528 0
M  V30 2437 N 248.321 -0.919034 -1.28029 0
M  V30 2438 C 249.567 -0.555757 -1.95036 0
M  V30 2439 C 249.9 0.899198 -1.72128 0
M  V30 2440 O 249.175 1.64023 -1.04531 0
M  V30 2441 C 249.458 -0.872024 -3.49382 0
M  V30 2442 C 249.311 -2.3801 -3.81669 0
M  V30 2443 C 250.63 -0.37185 -4.38526 0
M  V30 2444 H 247.749 -0.203386 -0.708381 0
M  V30 2445 H 250.391 -1.14924 -1.51303 0
M  V30 2446 H 248.541 -0.366946 -3.86763 0
M  V30 2447 H 250.213 -2.9562 -3.54128 0
M  V30 2448 H 248.456 -2.83289 -3.28526 0
M  V30 2449 H 249.127 -2.55192 -4.8947 0
M  V30 2450 H 251.603 -0.804602 -4.08247 0
M  V30 2451 H 250.479 -0.622173 -5.45362 0
M  V30 2452 H 250.74 0.727934 -4.36066 0
M  V30 2453 N 249.799 1.42003 -0.683588 0
M  V30 2454 C 251.215 1.55625 -0.353976 0
M  V30 2455 C 251.415 1.66151 1.14 0
M  V30 2456 O 250.471 1.63329 1.92561 0
M  V30 2457 C 251.784 2.80171 -1.092 0
M  V30 2458 C 253.332 2.93954 -1.07518 0
M  V30 2459 C 253.807 4.21372 -1.79471 0
M  V30 2460 N 255.298 4.28303 -1.76381 0
M  V30 2461 C 256.033 5.25729 -2.28904 0
M  V30 2462 N 255.529 6.29254 -2.89846 0
M  V30 2463 N 257.322 5.17586 -2.19228 0
M  V30 2464 H 249.473 1.33415 -1.6527 0
M  V30 2465 H 251.736 0.64282 -0.696769 0
M  V30 2466 H 251.442 2.78561 -2.14701 0
M  V30 2467 H 251.316 3.7133 -0.662862 0
M  V30 2468 H 253.703 2.95086 -0.028475 0
M  V30 2469 H 253.784 2.04002 -1.54328 0
M  V30 2470 H 253.428 4.21001 -2.84114 0
M  V30 2471 H 253.358 5.10275 -1.30104 0
M  V30 2472 H 255.849 3.54119 -1.31939 0
M  V30 2473 H 256.162 6.99964 -3.27522 0
M  V30 2474 H 254.507 6.29791 -2.93919 0
M  V30 2475 H 257.698 4.35631 -1.71299 0
M  V30 2476 H 257.871 5.93348 -2.60466 0
M  V30 2477 N 251.277 0.427512 1.51691 0
M  V30 2478 C 252.507 -0.140986 2.06118 0
M  V30 2479 C 252.915 -1.37854 1.29588 0
M  V30 2480 O 252.258 -1.80411 0.346036 0
M  V30 2481 C 252.32 -0.538276 3.55447 0
M  V30 2482 C 251.984 0.591095 4.53161 0
M  V30 2483 C 252.981 1.46027 4.98971 0
M  V30 2484 C 250.666 0.769028 4.96378 0
M  V30 2485 C 252.66 2.49216 5.8666 0
M  V30 2486 C 250.347 1.80421 5.83859 0
M  V30 2487 C 251.345 2.66417 6.28897 0
M  V30 2488 O 251.033 3.68159 7.14643 0
M  V30 2489 H 250.765 -0.0157455 0.675817 0
M  V30 2490 H 253.319 0.602495 1.96365 0
M  V30 2491 H 251.549 -1.33432 3.6295 0
M  V30 2492 H 253.238 -1.0368 3.92435 0
M  V30 2493 H 254.004 1.33429 4.66285 0
M  V30 2494 H 249.883 0.109273 4.6087 0
M  V30 2495 H 253.427 3.16372 6.21735 0
M  V30 2496 H 249.324 1.93042 6.15959 0
M  V30 2497 H 250.092 3.64622 7.32798 0
M  V30 2498 N 252.755 -1.56801 0.158532 0
M  V30 2499 C 253.98 -2.01295 -0.499516 0
M  V30 2500 C 254.405 -1.03799 -1.56867 0
M  V30 2501 O 253.763 -0.0155162 -1.81293 0
M  V30 2502 C 253.811 -3.44469 -1.06647 0
M  V30 2503 O 252.915 -3.50012 -2.18095 0
M  V30 2504 H 252.256 -0.652884 -0.12099 0
M  V30 2505 H 254.786 -2.02958 0.258661 0
M  V30 2506 H 254.796 -3.8351 -1.39227 0
M  V30 2507 H 253.471 -4.14932 -0.283581 0
M  V30 2508 H 252.048 -3.22822 -1.86656 0
M  V30 2509 N 254.233 0.115231 -1.57178 0
M  V30 2510 C 255.51 0.852873 -1.76027 0
M  V30 2511 C 255.89 1.97892 -0.73498 0
M  V30 2512 O 255.238 2.27232 0.24036 0
M  V30 2513 C 255.448 1.36608 -3.21153 0
M  V30 2514 C 256.796 1.81692 -3.83762 0
M  V30 2515 O 257.82 1.46278 -3.24779 0
M  V30 2516 O 256.679 2.47104 -4.87444 0
M  V30 2517 H 253.773 0.405296 -0.720877 0
M  V30 2518 H 256.319 0.0986785 -1.69413 0
M  V30 2519 H 255.091 0.558357 -3.87296 0
M  V30 2520 H 254.714 2.18287 -3.3232 0
M  V30 2521 N 255.711 1.52812 0.385517 0
M  V30 2522 C 256.951 1.69716 1.13911 0
M  V30 2523 C 257.315 0.42962 1.87132 0
M  V30 2524 O 258.516 0.475071 2.64569 0
M  V30 2525 C 256.787 2.90021 2.0886 0
M  V30 2526 S 258.346 3.27531 2.92009 0
M  V30 2527 H 255.164 0.59739 0.385547 0
M  V30 2528 H 257.766 1.90868 0.423061 0
M  V30 2529 H 256.47 3.80493 1.53797 0
M  V30 2530 H 256.001 2.71213 2.84969 0
M  V30 2531 H 258.016 2.77989 4.11019 0
M  V30 2532 N 257.189 -0.644168 1.43834 0
M  V30 2533 C 258.429 -1.41565 1.47441 0
M  V30 2534 C 258.793 -1.91743 0.0992723 0
M  V30 2535 O 259.994 -2.68798 0.0100192 0
M  V30 2536 C 258.265 -2.55902 2.49498 0
M  V30 2537 S 259.824 -3.44287 2.72051 0
M  V30 2538 H 256.642 -0.483118 0.521649 0
M  V30 2539 H 259.244 -0.747008 1.80666 0
M  V30 2540 H 257.948 -2.17327 3.48134 0
M  V30 2541 H 257.479 -3.27607 2.17801 0
M  V30 2542 H 259.494 -4.52927 2.0266 0
M  V30 2543 N 258.668 -1.30515 -0.883378 0
M  V30 2544 C 259.578 -1.18959 -2.02203 0
M  V30 2545 C 260.594 -0.109172 -1.73657 0
M  V30 2546 O 261.77 -0.324413 -1.9877 0
M  V30 2547 C 258.835 -0.883871 -3.35244 0
M  V30 2548 C 257.896 -2.04982 -3.77201 0
M  V30 2549 C 257.129 -1.75859 -5.03894 0
M  V30 2550 O 257.352 -0.687276 -5.66244 0
M  V30 2551 O 256.286 -2.61146 -5.42297 0
M  V30 2552 H 260.112 -2.14616 -2.1488 0
M  V30 2553 H 257.697 -1.10124 -1.0096 0
M  V30 2554 H 259.579 -0.728644 -4.15053 0
M  V30 2555 H 258.254 0.0427798 -3.23672 0
M  V30 2556 H 257.161 -2.26038 -2.9809 0
M  V30 2557 H 258.494 -2.95825 -3.93381 0
M  V30 2558 N 260.146 1.09593 -1.13257 0
M  V30 2559 C 261.562 1.33775 -0.870423 0
M  V30 2560 C 261.762 1.95327 0.494926 0
M  V30 2561 O 260.818 2.19853 1.2418 0
M  V30 2562 C 262.131 2.25106 -1.99369 0
M  V30 2563 C 263.679 2.3862 -2.02558 0
M  V30 2564 C 264.154 3.33285 -3.14142 0
M  V30 2565 N 265.645 3.40857 -3.13641 0
M  V30 2566 C 266.38 4.14101 -3.96621 0
M  V30 2567 N 265.876 4.90157 -4.8961 0
M  V30 2568 N 267.669 4.09808 -3.84726 0
M  V30 2569 H 259.82 0.680136 -2.01216 0
M  V30 2570 H 262.083 0.362133 -0.876107 0
M  V30 2571 H 261.789 1.87103 -2.97801 0
M  V30 2572 H 261.663 3.25481 -1.90635 0
M  V30 2573 H 264.05 2.75887 -1.0474 0
M  V30 2574 H 264.131 1.38028 -2.15364 0
M  V30 2575 H 263.775 2.96741 -4.12198 0
M  V30 2576 H 263.705 4.33776 -2.98574 0
M  V30 2577 H 266.196 2.86624 -2.46282 0
M  V30 2578 H 266.509 5.4347 -5.49418 0
M  V30 2579 H 264.854 4.89251 -4.93617 0
M  V30 2580 H 268.045 3.4949 -3.11408 0
M  V30 2581 H 268.218 4.66629 -4.49623 0
M  V30 2582 N 261.624 0.925811 1.2754 0
M  V30 2583 C 262.87 0.566092 1.94739 0
M  V30 2584 C 263.203 -0.890057 1.72603 0
M  V30 2585 O 262.478 -1.63467 1.05399 0
M  V30 2586 C 262.761 0.89054 3.48915 0
M  V30 2587 C 262.614 2.4003 3.80402 0
M  V30 2588 C 263.933 0.395101 4.38323 0
M  V30 2589 H 261.052 0.20714 0.707292 0
M  V30 2590 H 263.694 1.15725 1.50691 0
M  V30 2591 H 261.844 0.387452 3.86563 0
M  V30 2592 H 263.516 2.97494 3.52555 0
M  V30 2593 H 261.759 2.85028 3.2702 0
M  V30 2594 H 262.43 2.57785 4.8811 0
M  V30 2595 H 264.906 0.826241 4.07814 0
M  V30 2596 H 263.782 0.651086 5.45025 0
M  V30 2597 H 264.043 -0.704798 4.36446 0
M  V30 2598 N 263.102 -1.41638 0.69111 0
M  V30 2599 C 264.348 -2.01598 0.220519 0
M  V30 2600 C 264.681 -1.54594 -1.17535 0
M  V30 2601 O 263.956 -0.755177 -1.79241 0
M  V30 2602 C 264.239 -3.59062 0.273243 0
M  V30 2603 C 264.092 -4.16203 1.70573 0
M  V30 2604 C 265.411 -4.38546 -0.369457 0
M  V30 2605 H 262.53 -0.732468 0.0816045 0
M  V30 2606 H 265.172 -1.68445 0.878986 0
M  V30 2607 H 263.322 -3.87435 -0.287411 0
M  V30 2608 H 264.994 -3.98722 2.31989 0
M  V30 2609 H 263.237 -3.71414 2.2413 0
M  V30 2610 H 263.908 -5.25358 1.69419 0
M  V30 2611 H 266.384 -4.1596 0.107977 0
M  V30 2612 H 265.26 -5.48069 -0.302002 0
M  V30 2613 H 265.521 -4.17662 -1.44951 0
M  V30 2614 N 264.58 -0.43555 -1.51462 0
M  V30 2615 C 265.829 0.133007 -2.01261 0
M  V30 2616 C 266.142 1.43942 -1.32439 0
M  V30 2617 O 267.348 2.09081 -1.73198 0
M  V30 2618 C 265.804 0.287581 -3.58749 0
M  V30 2619 C 265.412 -1.00829 -4.36506 0
M  V30 2620 C 267.156 0.810004 -4.167 0
M  V30 2621 C 265.063 -0.819454 -5.85695 0
M  V30 2622 H 263.993 0.0534822 -0.752101 0
M  V30 2623 H 266.644 -0.565038 -1.74584 0
M  V30 2624 H 265.026 1.04859 -3.81865 0
M  V30 2625 H 266.2 -1.77749 -4.25138 0
M  V30 2626 H 264.515 -1.45911 -3.89999 0
M  V30 2627 H 267.112 0.967743 -5.2587 0
M  V30 2628 H 267.455 1.79196 -3.75758 0
M  V30 2629 H 267.988 0.107357 -3.97655 0
M  V30 2630 H 264.727 -1.77374 -6.31046 0
M  V30 2631 H 264.247 -0.0900208 -5.99732 0
M  V30 2632 H 265.926 -0.471949 -6.45276 0
M  V30 2633 N 266.058 1.56714 -0.166846 0
M  V30 2634 C 267.006 2.19056 0.782123 0
M  V30 2635 C 268 1.15328 1.24079 0
M  V30 2636 O 269.206 1.33537 1.20697 0
M  V30 2637 H 265.581 0.70167 0.270486 0
M  V30 2638 H 267.552 2.97494 0.232322 0
M  V30 2639 C 266.301 2.84206 2.00306 0
M  V30 2640 H 265.624 3.63748 1.65914 0
M  V30 2641 H 267.064 3.31302 2.64604 0
M  V30 2642 C 265.523 1.83744 2.82382 0
M  V30 2643 O 266.053 1.32014 3.79388 0
M  V30 2644 N 264.259 1.52601 2.47308 0
M  V30 2645 H 263.806 1.9486 1.68485 0
M  V30 2646 H 263.764 0.856351 3.02513 0
M  V30 2647 N 267.536 -0.106894 1.57237 0
M  V30 2648 C 268.782 -0.81373 1.85759 0
M  V30 2649 C 269.115 -1.78952 0.754315 0
M  V30 2650 O 268.39 -1.93029 -0.23879 0
M  V30 2651 C 268.673 -1.55293 3.24894 0
M  V30 2652 C 268.526 -0.595929 4.45835 0
M  V30 2653 C 269.845 -2.5063 3.61763 0
M  V30 2654 H 266.964 -0.294369 0.67566 0
M  V30 2655 H 269.606 -0.0776472 1.89841 0
M  V30 2656 H 267.756 -2.1804 3.21544 0
M  V30 2657 H 269.428 0.0236262 4.61294 0
M  V30 2658 H 267.671 0.0916191 4.33703 0
M  V30 2659 H 268.342 -1.15004 5.39887 0
M  V30 2660 H 270.818 -1.97982 3.65981 0
M  V30 2661 H 269.694 -2.99376 4.60071 0
M  V30 2662 H 269.955 -3.3385 2.89821 0
M  V30 2663 N 269.014 -1.53014 -0.377408 0
M  V30 2664 C 270.239 -1.72818 -1.14668 0
M  V30 2665 C 270.664 -0.450725 -1.8262 0
M  V30 2666 O 270.022 0.59439 -1.7128 0
M  V30 2667 C 270.07 -2.88627 -2.16164 0
M  V30 2668 O 269.174 -2.56409 -3.22998 0
M  V30 2669 H 268.515 -0.574301 -0.333278 0
M  V30 2670 H 271.045 -1.99853 -0.438152 0
M  V30 2671 H 271.055 -3.14455 -2.59966 0
M  V30 2672 H 269.73 -3.81294 -1.66095 0
M  V30 2673 H 268.307 -2.4136 -2.84253 0
M  V30 2674 N 270.492 0.636531 -1.44174 0
M  V30 2675 C 271.74 1.39343 -1.46383 0
M  V30 2676 C 272.061 1.94766 -0.0955715 0
M  V30 2677 O 271.331 1.75452 0.871395 0
M  V30 2678 H 269.911 0.517199 -0.538994 0
M  V30 2679 H 272.573 0.74957 -1.7991 0
M  V30 2680 H 271.669 2.22746 -2.18611 0
M  V30 2681 N 271.97 1.30982 0.876444 0
M  V30 2682 C 272.9 1.20668 1.99903 0
M  V30 2683 C 273.881 0.095354 1.69833 0
M  V30 2684 O 275.066 0.27885 1.92188 0
M  V30 2685 C 272.196 0.90655 3.3526 0
M  V30 2686 C 271.15 1.97675 3.79617 0
M  V30 2687 C 270.476 1.52943 5.1236 0
M  V30 2688 C 271.776 3.389 3.97422 0
M  V30 2689 H 273.47 2.14586 2.0879 0
M  V30 2690 H 271.016 1.03308 1.00317 0
M  V30 2691 H 272.969 0.821025 4.13324 0
M  V30 2692 H 271.693 -0.0682969 3.26529 0
M  V30 2693 H 270.352 2.05205 3.03787 0
M  V30 2694 H 270 0.54262 5.00065 0
M  V30 2695 H 269.7 2.24532 5.43009 0
M  V30 2696 H 271.224 1.45786 5.92941 0
M  V30 2697 H 272.638 3.34081 4.659 0
M  V30 2698 H 271.035 4.0865 4.3946 0
M  V30 2699 H 272.105 3.80163 3.01006 0
M  V30 2700 N 273.449 -1.08991 1.13837 0
M  V30 2701 C 274.865 -1.33312 0.877506 0
M  V30 2702 C 275.065 -1.95587 -0.48456 0
M  V30 2703 O 274.121 -2.20509 -1.23013 0
M  V30 2704 C 275.434 -2.24045 2.0056 0
M  V30 2705 C 276.982 -2.37542 2.03821 0
M  V30 2706 C 277.457 -3.31614 3.15905 0
M  V30 2707 N 278.948 -3.39189 3.15445 0
M  V30 2708 C 279.683 -4.11992 3.98811 0
M  V30 2709 N 279.179 -4.87553 4.92203 0
M  V30 2710 N 280.972 -4.07762 3.86894 0
M  V30 2711 H 273.123 -0.669456 2.01574 0
M  V30 2712 H 275.386 -0.357482 0.878015 0
M  V30 2713 H 275.092 -1.85521 2.98789 0
M  V30 2714 H 274.966 -3.24466 1.92359 0
M  V30 2715 H 277.353 -2.75327 1.06202 0
M  V30 2716 H 277.434 -1.36884 2.16093 0
M  V30 2717 H 277.078 -2.94551 4.13766 0
M  V30 2718 H 277.008 -4.32186 3.0087 0
M  V30 2719 H 279.499 -2.85314 2.47799 0
M  V30 2720 H 279.812 -5.40549 5.52292 0
M  V30 2721 H 278.157 -4.86627 4.96205 0
M  V30 2722 H 281.348 -3.47833 3.13257 0
M  V30 2723 H 281.521 -4.64238 4.52092 0
M  V30 2724 N 274.927 -0.932562 -1.27047 0
M  V30 2725 C 276.174 -0.575559 -1.94148 0
M  V30 2726 C 276.502 0.883984 -1.73251 0
M  V30 2727 O 275.757 1.64655 -1.0577 0
M  V30 2728 C 276.056 -0.853713 -3.47054 0
M  V30 2729 C 275.722 -2.29577 -3.88079 0
M  V30 2730 C 274.384 -2.68999 -3.9899 0
M  V30 2731 C 276.736 -3.23331 -4.08787 0
M  V30 2732 C 274.064 -4.01289 -4.28 0
M  V30 2733 C 276.416 -4.55207 -4.39282 0
M  V30 2734 C 275.08 -4.94457 -4.48407 0
M  V30 2735 H 274.35 -0.210612 -0.710439 0
M  V30 2736 H 276.997 -1.17744 -1.51025 0
M  V30 2737 H 275.302 -0.169204 -3.91434 0
M  V30 2738 H 276.999 -0.55639 -3.97121 0
M  V30 2739 H 273.589 -1.97994 -3.80127 0
M  V30 2740 H 277.773 -2.94074 -3.99793 0
M  V30 2741 H 273.029 -4.31374 -4.33275 0
M  V30 2742 H 277.203 -5.27852 -4.54252 0
M  V30 2743 H 274.83 -5.96994 -4.7064 0
M  V30 2744 N 276.405 1.4127 -0.698611 0
M  V30 2745 C 277.315 2.34573 -0.0357891 0
M  V30 2746 C 278.331 1.56393 0.762701 0
M  V30 2747 O 279.507 1.8886 0.699564 0
M  V30 2748 C 276.572 3.35159 0.887089 0
M  V30 2749 C 275.633 4.29225 0.0804634 0
M  V30 2750 C 274.866 5.25006 0.959387 0
M  V30 2751 O 275.089 5.26314 2.19886 0
M  V30 2752 O 274.023 6.00519 0.407439 0
M  V30 2753 H 277.849 2.92838 -0.804957 0
M  V30 2754 H 275.434 1.42175 -0.458966 0
M  V30 2755 H 277.316 3.9689 1.41621 0
M  V30 2756 H 275.991 2.79333 1.6357 0
M  V30 2757 H 274.898 3.70833 -0.493328 0
M  V30 2758 H 276.231 4.88157 -0.629547 0
M  V30 2759 N 277.883 0.443576 1.51229 0
M  V30 2760 C 279.111 -0.11929 2.06556 0
M  V30 2761 C 279.526 -1.35921 1.31038 0
M  V30 2762 O 278.883 -1.78675 0.371704 0
M  V30 2763 C 278.934 -0.435228 3.5887 0
M  V30 2764 O 278.655 0.755486 4.31537 0
M  V30 2765 C 280.156 -1.04808 4.30732 0
M  V30 2766 H 277.376 -0.0051584 0.67098 0
M  V30 2767 H 279.92 0.624453 1.94733 0
M  V30 2768 H 278.075 -1.12887 3.70588 0
M  V30 2769 H 278.489 0.483491 5.22267 0
M  V30 2770 H 279.963 -1.2191 5.3837 0
M  V30 2771 H 280.44 -2.03081 3.89429 0
M  V30 2772 H 281.046 -0.393637 4.23474 0
M  V30 2773 N 279.361 -1.56624 0.175154 0
M  V30 2774 C 280.293 -2.15333 -0.785128 0
M  V30 2775 C 281.306 -1.1099 -1.19101 0
M  V30 2776 O 282.495 -1.38162 -1.13019 0
M  V30 2777 C 279.595 -2.68427 -2.06882 0
M  V30 2778 C 278.768 -3.97466 -1.8259 0
M  V30 2779 C 277.827 -4.35585 -2.95215 0
M  V30 2780 O 276.853 -5.03389 -2.65684 0
M  V30 2781 N 278.055 -3.97457 -4.23094 0
M  V30 2782 H 280.82 -2.98359 -0.283187 0
M  V30 2783 H 278.381 -1.61898 -0.00749817 0
M  V30 2784 H 280.373 -2.90924 -2.81328 0
M  V30 2785 H 278.943 -1.89968 -2.48256 0
M  V30 2786 H 278.163 -3.83307 -0.920287 0
M  V30 2787 H 279.451 -4.81736 -1.63733 0
M  V30 2788 H 278.849 -3.42878 -4.49945 0
M  V30 2789 H 277.406 -4.24947 -4.9423 0
M  V30 2790 N 280.839 0.0985539 -1.57292 0
M  V30 2791 C 281.772 1.15082 -1.97057 0
M  V30 2792 C 282.75 1.39025 -0.843255 0
M  V30 2793 O 283.934 1.52842 -1.10325 0
M  V30 2794 C 281.061 2.50069 -2.28437 0
M  V30 2795 C 280.107 2.42428 -3.509 0
M  V30 2796 S 280.94 1.84414 -5.02744 0
M  V30 2797 C 282.096 3.21032 -5.37298 0
M  V30 2798 H 282.329 0.811815 -2.86002 0
M  V30 2799 H 279.862 0.306102 -1.51335 0
M  V30 2800 H 281.82 3.27729 -2.47192 0
M  V30 2801 H 280.481 2.8114 -1.40069 0
M  V30 2802 H 279.674 3.41911 -3.70288 0
M  V30 2803 H 279.276 1.72896 -3.31637 0
M  V30 2804 H 281.568 4.17297 -5.33731 0
M  V30 2805 H 282.511 3.06452 -6.38352 0
M  V30 2806 H 282.919 3.20404 -4.64759 0
M  V30 2807 N 282.317 1.53212 0.369288 0
M  V30 2808 C 283.264 1.79388 1.45219 0
M  V30 2809 C 284.234 0.638059 1.53356 0
M  V30 2810 O 285.419 0.879852 1.69302 0
M  V30 2811 C 282.559 1.98623 2.82211 0
M  V30 2812 C 281.672 3.26337 2.8307 0
M  V30 2813 C 280.807 3.35779 4.11614 0
M  V30 2814 C 279.846 4.5754 4.06601 0
M  V30 2815 N 278.983 4.64155 5.26787 0
M  V30 2816 H 283.823 2.71794 1.22198 0
M  V30 2817 H 281.36 1.34642 0.592444 0
M  V30 2818 H 283.318 2.07761 3.61789 0
M  V30 2819 H 281.948 1.09558 3.03639 0
M  V30 2820 H 281 3.26171 1.95747 0
M  V30 2821 H 282.312 4.15988 2.75237 0
M  V30 2822 H 281.466 3.44208 4.99606 0
M  V30 2823 H 280.205 2.44137 4.22195 0
M  V30 2824 H 279.21 4.49215 3.16996 0
M  V30 2825 H 280.435 5.50519 3.97625 0
M  V30 2826 H 278.381 3.75413 5.3796 0
M  V30 2827 H 278.298 5.47706 5.21109 0
M  V30 2828 H 279.566 4.76863 6.16621 0
M  V30 2829 N 283.795 -0.628877 1.44509 0
M  V30 2830 C 285.023 -1.41554 1.50897 0
M  V30 2831 C 285.438 -1.8832 0.134564 0
M  V30 2832 O 284.795 -1.60969 -0.859965 0
M  V30 2833 C 284.846 -2.63435 2.47556 0
M  V30 2834 O 284.567 -2.18619 3.79654 0
M  V30 2835 C 286.068 -3.56537 2.63431 0
M  V30 2836 H 283.288 -0.434044 0.511709 0
M  V30 2837 H 285.832 -0.768895 1.89495 0
M  V30 2838 H 283.987 -3.24187 2.12089 0
M  V30 2839 H 284.401 -2.97652 4.31861 0
M  V30 2840 H 285.875 -4.38657 3.35088 0
M  V30 2841 H 286.352 -4.05493 1.68738 0
M  V30 2842 H 286.958 -3.01653 2.9981 0
M  V30 2843 N 285.273 -1.31445 -0.869486 0
M  V30 2844 C 286.203 -1.21727 -1.99261 0
M  V30 2845 C 287.184 -0.104359 -1.6978 0
M  V30 2846 O 288.369 -0.289038 -1.92037 0
M  V30 2847 C 285.499 -0.924317 -3.34774 0
M  V30 2848 C 284.453 -1.99685 -3.78563 0
M  V30 2849 C 283.779 -1.55658 -5.11541 0
M  V30 2850 C 285.079 -3.41003 -3.95619 0
M  V30 2851 H 286.773 -2.1569 -2.07649 0
M  V30 2852 H 284.319 -1.03839 -0.997675 0
M  V30 2853 H 286.272 -0.842934 -4.12883 0
M  V30 2854 H 284.996 0.0509793 -3.2656 0
M  V30 2855 H 283.655 -2.06813 -3.02694 0
M  V30 2856 H 283.303 -0.569132 -4.9977 0
M  V30 2857 H 283.003 -2.27409 -5.41811 0
M  V30 2858 H 284.527 -1.48928 -5.92159 0
M  V30 2859 H 285.941 -3.36547 -4.64122 0
M  V30 2860 H 284.338 -4.10975 -4.37286 0
M  V30 2861 H 285.408 -3.81754 -2.98985 0
M  V30 2862 N 286.751 1.08385 -1.14413 0
M  V30 2863 C 287.714 2.13486 -0.834048 0
M  V30 2864 C 288.714 1.59988 0.161418 0
M  V30 2865 O 289.904 1.74071 -0.0669575 0
M  V30 2866 C 287.036 3.4003 -0.243354 0
M  V30 2867 H 288.229 2.42425 -1.7655 0
M  V30 2868 H 285.782 1.24101 -0.950189 0
M  V30 2869 H 286.517 3.16726 0.696807 0
M  V30 2870 H 286.302 3.80157 -0.960367 0
M  V30 2871 H 287.792 4.17577 -0.0436242 0
M  V30 2872 N 288.23 0.939286 1.26551 0
M  V30 2873 C 289.162 0.404704 2.25599 0
M  V30 2874 C 290.175 -0.470983 1.55838 0
M  V30 2875 O 291.364 -0.281734 1.76263 0
M  V30 2876 C 288.464 -0.43764 3.36062 0
M  V30 2877 C 287.637 0.421449 4.35365 0
M  V30 2878 C 286.696 -0.36015 5.24966 0
M  V30 2879 O 285.722 0.236167 5.6871 0
M  V30 2880 N 286.924 -1.65715 5.56344 0
M  V30 2881 H 289.689 1.25618 2.72103 0
M  V30 2882 H 287.25 0.807963 1.40298 0
M  V30 2883 H 289.242 -0.967866 3.92956 0
M  V30 2884 H 287.812 -1.18991 2.89067 0
M  V30 2885 H 287.032 1.1329 3.7757 0
M  V30 2886 H 288.32 1.00835 4.98708 0
M  V30 2887 H 287.718 -2.16378 5.22682 0
M  V30 2888 H 286.275 -2.13366 6.15888 0
M  V30 2889 N 289.708 -1.40897 0.706093 0
M  V30 2890 C 290.955 -2.01054 0.241531 0
M  V30 2891 C 291.283 -1.55956 -1.16223 0
M  V30 2892 O 290.538 -0.766336 -1.80072 0
M  V30 2893 C 290.837 -3.5646 0.259099 0
M  V30 2894 C 290.503 -4.21106 1.61184 0
M  V30 2895 C 289.165 -4.38479 1.98216 0
M  V30 2896 C 291.517 -4.57256 2.50132 0
M  V30 2897 C 288.845 -4.89282 3.2376 0
M  V30 2898 C 291.197 -5.09454 3.7502 0
M  V30 2899 C 289.861 -5.25037 4.12181 0
M  V30 2900 H 289.131 -0.73571 0.0883825 0
M  V30 2901 H 291.778 -1.68645 0.907257 0
M  V30 2902 H 290.083 -3.88721 -0.490189 0
M  V30 2903 H 291.78 -4.00826 -0.11804 0
M  V30 2904 H 288.37 -4.07966 1.31384 0
M  V30 2905 H 292.554 -4.43479 2.228 0
M  V30 2906 H 287.81 -4.99531 3.52532 0
M  V30 2907 H 291.984 -5.36404 4.44121 0
M  V30 2908 H 289.611 -5.64164 5.09532 0
M  V30 2909 N 291.186 -0.45159 -1.50991 0
M  V30 2910 C 292.597 0.00818571 -1.86698 0
M  V30 2911 C 292.948 1.40661 -1.3678 0
M  V30 2912 O 292.073 2.0391 -0.724546 0
M  V30 2913 C 292.668 0.0216303 -3.38793 0
M  V30 2914 C 291.227 0.425865 -3.73983 0
M  V30 2915 C 290.374 -0.372163 -2.74791 0
M  V30 2916 H 293.325 -0.666785 -1.44013 0
M  V30 2917 H 293.346 0.828078 -3.7138 0
M  V30 2918 H 292.858 -0.996288 -3.75094 0
M  V30 2919 H 290.959 1.44886 -3.43277 0
M  V30 2920 H 291.072 0.140761 -4.78893 0
M  V30 2921 H 289.436 0.171498 -2.54122 0
M  V30 2922 H 290.219 -1.38922 -3.13935 0
M  V30 2923 N 292.664 1.56529 -0.183458 0
M  V30 2924 C 293.574 2.22144 0.754272 0
M  V30 2925 C 294.59 1.21684 1.24374 0
M  V30 2926 O 295.766 1.54385 1.29333 0
M  V30 2927 C 292.831 2.85884 1.96141 0
M  V30 2928 C 291.892 4.01579 1.51765 0
M  V30 2929 C 291.125 4.6227 2.66725 0
M  V30 2930 O 291.348 4.21865 3.83909 0
M  V30 2931 O 290.282 5.51936 2.40104 0
M  V30 2932 H 294.108 3.02861 0.225527 0
M  V30 2933 H 291.693 1.49331 0.0453032 0
M  V30 2934 H 293.575 3.26253 2.66715 0
M  V30 2935 H 292.25 2.08154 2.47899 0
M  V30 2936 H 291.157 3.65856 0.781049 0
M  V30 2937 H 292.49 4.80938 1.04686 0
M  V30 2938 N 294.142 -0.090211 1.57342 0
M  V30 2939 C 295.37 -0.806224 1.90546 0
M  V30 2940 C 295.785 -1.72041 0.777644 0
M  V30 2941 O 295.142 -1.80778 -0.250103 0
M  V30 2942 C 295.193 -1.61546 3.23396 0
M  V30 2943 O 294.914 -0.738043 4.31839 0
M  V30 2944 C 296.415 -2.4341 3.70495 0
M  V30 2945 H 293.635 -0.230256 0.630257 0
M  V30 2946 H 296.179 -0.0659843 2.04394 0
M  V30 2947 H 294.334 -2.30816 3.11131 0
M  V30 2948 H 294.748 -1.29901 5.08159 0
M  V30 2949 H 296.222 -2.95676 4.66133 0
M  V30 2950 H 296.699 -3.22098 2.98579 0
M  V30 2951 H 297.305 -1.79331 3.85643 0
M  V30 2952 N 295.62 -1.53406 -0.361157 0
M  V30 2953 C 296.55 -1.83136 -1.44857 0
M  V30 2954 C 297.531 -0.685174 -1.5569 0
M  V30 2955 O 298.716 -0.93544 -1.70186 0
M  V30 2956 C 295.846 -2.02522 -2.82138 0
M  V30 2957 C 294.8 -3.18302 -2.86126 0
M  V30 2958 C 294.126 -3.22989 -4.26125 0
M  V30 2959 C 295.426 -4.56796 -2.53248 0
M  V30 2960 H 297.12 -2.74201 -1.20226 0
M  V30 2961 H 294.666 -1.31938 -0.576922 0
M  V30 2962 H 296.619 -2.21904 -3.58241 0
M  V30 2963 H 295.343 -1.08172 -3.08166 0
M  V30 2964 H 294.002 -2.98747 -2.12475 0
M  V30 2965 H 293.65 -2.26267 -4.49235 0
M  V30 2966 H 293.35 -4.00781 -4.29708 0
M  V30 2967 H 294.874 -3.44559 -5.04094 0
M  V30 2968 H 296.288 -4.7631 -3.19064 0
M  V30 2969 H 294.685 -5.36862 -2.68141 0
M  V30 2970 H 295.755 -4.61606 -1.48484 0
M  V30 2971 N 297.098 0.621204 -1.44841 0
M  V30 2972 C 298.028 1.74366 -1.55303 0
M  V30 2973 C 299.009 1.65199 -0.405385 0
M  V30 2974 O 300.194 1.83807 -0.626787 0
M  V30 2975 C 297.324 3.12931 -1.50637 0
M  V30 2976 C 296.278 3.36896 -2.63979 0
M  V30 2977 C 295.604 4.75594 -2.44366 0
M  V30 2978 C 296.904 3.28483 -4.06074 0
M  V30 2979 H 298.598 1.65867 -2.49256 0
M  V30 2980 H 296.144 0.796558 -1.19962 0
M  V30 2981 H 298.097 3.9124 -1.56555 0
M  V30 2982 H 296.821 3.22237 -0.532057 0
M  V30 2983 H 295.48 2.60972 -2.57467 0
M  V30 2984 H 295.128 4.81616 -1.45105 0
M  V30 2985 H 294.828 4.92586 -3.20364 0
M  V30 2986 H 296.352 5.5612 -2.52117 0
M  V30 2987 H 297.766 3.96684 -4.13902 0
M  V30 2988 H 296.163 3.57008 -4.82354 0
M  V30 2989 H 297.233 2.26133 -4.28943 0
M  V30 2990 N 298.576 1.31904 0.862503 0
M  V30 2991 C 299.824 1.21776 1.61292 0
M  V30 2992 C 300.145 -0.222413 1.93727 0
M  V30 2993 O 299.415 -1.1451 1.58947 0
M  V30 2994 H 297.995 0.447717 0.597962 0
M  V30 2995 H 300.657 1.65326 1.03215 0
M  V30 2996 H 299.753 1.7948 2.5533 0
M  V30 2997 N 300.054 -1.07777 1.14986 0
M  V30 2998 C 301.331 -1.7699 0.832695 0
M  V30 2999 C 301.711 -2.001 -0.672561 0
M  V30 3000 O 301.059 -1.61598 -1.6155 0
M  V30 3001 C 301.269 -3.08139 1.63863 0
M  V30 3002 C 302.617 -3.8256 1.84208 0
M  V30 3003 O 303.641 -3.17939 1.60603 0
M  V30 3004 O 302.5 -4.98612 2.23714 0
M  V30 3005 H 299.594 -0.768389 0.305791 0
M  V30 3006 H 302.14 -1.14182 1.25541 0
M  V30 3007 H 300.912 -2.86909 2.6608 0
M  V30 3008 H 300.535 -3.78678 1.21197 0
M  V30 3009 N 301.532 -0.945985 -1.26051 0
M  V30 3010 C 302.943 -0.638096 -1.75457 0
M  V30 3011 C 303.294 0.846672 -1.76991 0
M  V30 3012 O 302.419 1.66262 -1.38513 0
M  V30 3013 C 303.014 -1.15157 -3.18629 0
M  V30 3014 C 301.573 -0.894004 -3.65629 0
M  V30 3015 C 300.72 -1.29967 -2.44957 0
M  V30 3016 H 303.671 -1.12376 -1.1206 0
M  V30 3017 H 303.692 -0.507615 -3.77099 0
M  V30 3018 H 303.204 -2.23222 -3.1748 0
M  V30 3019 H 301.305 0.172057 -3.72203 0
M  V30 3020 H 301.418 -1.52439 -4.54202 0
M  V30 3021 H 299.782 -0.718078 -2.44368 0
M  V30 3022 H 300.565 -2.38935 -2.46505 0
M  V30 3023 N 303.011 1.40521 -0.713556 0
M  V30 3024 C 303.921 2.34522 -0.0606667 0
M  V30 3025 C 304.937 1.57193 0.74607 0
M  V30 3026 O 306.113 1.89591 0.679493 0
M  V30 3027 C 303.178 3.36081 0.851491 0
M  V30 3028 C 302.239 4.29286 0.0349339 0
M  V30 3029 C 301.472 5.25994 0.903649 0
M  V30 3030 O 301.695 5.28616 2.14292 0
M  V30 3031 O 300.629 6.00918 0.343723 0
M  V30 3032 H 304.455 2.91968 -0.835972 0
M  V30 3033 H 302.04 1.41681 -0.47402 0
M  V30 3034 H 303.922 3.98369 1.37404 0
M  V30 3035 H 302.597 2.81052 1.60598 0
M  V30 3036 H 301.504 3.70289 -0.532633 0
M  V30 3037 H 302.837 4.87462 -0.681287 0
M  V30 3038 N 304.489 0.459591 1.5075 0
M  V30 3039 C 305.436 -0.340524 2.28274 0
M  V30 3040 C 306.406 -0.997371 1.32822 0
M  V30 3041 O 307.591 -1.01202 1.61749 0
M  V30 3042 C 304.731 -1.42317 3.14388 0
M  V30 3043 C 303.844 -0.782251 4.24859 0
M  V30 3044 C 302.979 -1.84182 4.98247 0
M  V30 3045 C 302.018 -1.18053 6.00608 0
M  V30 3046 N 301.155 -2.18244 6.67319 0
M  V30 3047 H 305.995 0.326899 2.96202 0
M  V30 3048 H 303.532 0.173057 1.46078 0
M  V30 3049 H 305.49 -2.06241 3.62658 0
M  V30 3050 H 304.12 -2.05992 2.4853 0
M  V30 3051 H 303.172 -0.0307404 3.80388 0
M  V30 3052 H 304.484 -0.259663 4.98124 0
M  V30 3053 H 303.638 -2.55714 5.50177 0
M  V30 3054 H 302.377 -2.39819 4.24662 0
M  V30 3055 H 301.382 -0.450776 5.47949 0
M  V30 3056 H 302.607 -0.631202 6.7616 0
M  V30 3057 H 300.553 -2.72919 5.96533 0
M  V30 3058 H 300.47 -1.70938 7.36421 0
M  V30 3059 H 301.738 -2.89191 7.23871 0
M  V30 3060 N 305.967 -1.56429 0.191757 0
M  V30 3061 C 307.383 -1.58754 -0.164137 0
M  V30 3062 C 307.583 -1.20782 -1.61288 0
M  V30 3063 O 306.639 -0.928999 -2.34789 0
M  V30 3064 C 307.952 -3.00396 0.135195 0
M  V30 3065 C 309.5 -3.1291 0.0750351 0
M  V30 3066 C 309.975 -4.56679 0.347632 0
M  V30 3067 N 311.466 -4.62252 0.296131 0
M  V30 3068 C 312.201 -5.71379 0.480948 0
M  V30 3069 N 311.697 -6.88986 0.725933 0
M  V30 3070 N 313.49 -5.60563 0.415435 0
M  V30 3071 H 305.641 -1.79393 1.13718 0
M  V30 3072 H 307.904 -0.832414 0.453643 0
M  V30 3073 H 307.61 -3.32726 1.13958 0
M  V30 3074 H 307.484 -3.72963 -0.563773 0
M  V30 3075 H 309.871 -2.80394 -0.919948 0
M  V30 3076 H 309.952 -2.42736 0.807029 0
M  V30 3077 H 309.596 -4.89907 1.33992 0
M  V30 3078 H 309.526 -5.25039 -0.405212 0
M  V30 3079 H 312.017 -3.7773 0.113259 0
M  V30 3080 H 312.33 -7.68046 0.855857 0
M  V30 3081 H 310.675 -6.90801 0.762788 0
M  V30 3082 H 313.866 -4.67561 0.224486 0
M  V30 3083 H 314.039 -6.45551 0.562889 0
M  V30 3084 N 307.445 0.0818655 -1.57387 0
M  V30 3085 C 308.673 0.796108 -1.9097 0
M  V30 3086 C 309.088 1.71626 -0.786757 0
M  V30 3087 O 308.445 1.80908 0.240513 0
M  V30 3088 C 308.496 1.59829 -3.24248 0
M  V30 3089 O 308.217 0.715131 -4.32224 0
M  V30 3090 C 309.718 2.41442 -3.7178 0
M  V30 3091 H 306.938 0.22691 -0.631469 0
M  V30 3092 H 309.482 0.0551439 -2.04426 0
M  V30 3093 H 307.637 2.29163 -3.12351 0
M  V30 3094 H 308.051 1.27205 -5.08841 0
M  V30 3095 H 309.525 2.932 -4.67694 0
M  V30 3096 H 310.002 3.2051 -3.00283 0
M  V30 3097 H 310.608 1.77283 -3.86589 0
M  V30 3098 N 308.923 1.53595 0.353017 0
M  V30 3099 C 309.855 1.77219 1.45348 0
M  V30 3100 C 310.868 0.65324 1.49119 0
M  V30 3101 O 312.057 0.929775 1.52373 0
M  V30 3102 C 309.157 1.84841 2.84055 0
M  V30 3103 C 308.33 3.14649 3.03833 0
M  V30 3104 C 307.389 3.13351 4.22727 0
M  V30 3105 O 306.415 3.87107 4.17297 0
M  V30 3106 N 307.617 2.35052 5.30783 0
M  V30 3107 H 310.382 2.72178 1.25457 0
M  V30 3108 H 307.943 1.52528 0.542833 0
M  V30 3109 H 309.935 1.81435 3.61751 0
M  V30 3110 H 308.505 0.971114 2.97133 0
M  V30 3111 H 307.725 3.31256 2.13689 0
M  V30 3112 H 309.013 4.00411 3.13925 0
M  V30 3113 H 308.411 1.74663 5.38061 0
M  V30 3114 H 306.968 2.37453 6.07009 0
M  V30 3115 N 310.401 -0.613514 1.45168 0
M  V30 3116 C 311.631 -1.39743 1.52169 0
M  V30 3117 C 312.039 -1.88596 0.151086 0
M  V30 3118 O 311.382 -1.6251 -0.856521 0
M  V30 3119 C 311.444 -2.64035 2.43979 0
M  V30 3120 C 311.108 -2.36861 3.90827 0
M  V30 3121 C 312.105 -1.97591 4.80889 0
M  V30 3122 C 309.79 -2.49956 4.35692 0
M  V30 3123 C 311.784 -1.71768 6.1382 0
M  V30 3124 C 309.471 -2.23747 5.68665 0
M  V30 3125 C 310.469 -1.84714 6.57548 0
M  V30 3126 O 310.157 -1.58809 7.88058 0
M  V30 3127 H 309.889 -0.434382 0.517966 0
M  V30 3128 H 312.443 -0.75587 1.90986 0
M  V30 3129 H 310.673 -3.3089 2.00122 0
M  V30 3130 H 312.362 -3.26069 2.41731 0
M  V30 3131 H 313.128 -1.87015 4.47493 0
M  V30 3132 H 309.007 -2.79305 3.66756 0
M  V30 3133 H 312.551 -1.41227 6.83155 0
M  V30 3134 H 308.448 -2.33938 6.01617 0
M  V30 3135 H 309.216 -1.7291 8.00028 0
M  V30 3136 N 311.879 -1.3236 -0.855495 0
M  V30 3137 C 313.126 -1.22872 -1.60962 0
M  V30 3138 C 313.454 0.209658 -1.93367 0
M  V30 3139 O 312.709 1.16243 -1.57436 0
M  V30 3140 C 313.008 -2.03275 -2.93963 0
M  V30 3141 C 312.674 -3.5264 -2.80991 0
M  V30 3142 C 311.336 -3.93364 -2.7716 0
M  V30 3143 C 313.688 -4.47626 -2.66983 0
M  V30 3144 C 311.016 -5.27319 -2.572 0
M  V30 3145 C 313.368 -5.81723 -2.48558 0
M  V30 3146 C 312.032 -6.2165 -2.4312 0
M  V30 3147 H 311.302 -0.44962 -0.589001 0
M  V30 3148 H 313.949 -1.63777 -0.992442 0
M  V30 3149 H 312.254 -1.55095 -3.59795 0
M  V30 3150 H 313.951 -1.93303 -3.51333 0
M  V30 3151 H 310.541 -3.20295 -2.84797 0
M  V30 3152 H 314.725 -4.17084 -2.68988 0
M  V30 3153 H 309.981 -5.57311 -2.51424 0
M  V30 3154 H 314.155 -6.5494 -2.36699 0
M  V30 3155 H 311.782 -7.25388 -2.27412 0
M  V30 3156 N 313.357 1.07166 -1.15556 0
M  V30 3157 C 314.634 1.76546 -0.842069 0
M  V30 3158 C 315.014 2.00453 0.661939 0
M  V30 3159 O 314.362 1.62452 1.60691 0
M  V30 3160 C 314.572 3.07266 -1.65495 0
M  V30 3161 C 315.92 3.81578 -1.86234 0
M  V30 3162 O 316.944 3.17083 -1.62287 0
M  V30 3163 O 315.803 4.97419 -2.26355 0
M  V30 3164 H 312.897 0.766756 -0.309862 0
M  V30 3165 H 315.443 1.13514 -1.26145 0
M  V30 3166 H 314.215 2.85494 -2.67598 0
M  V30 3167 H 313.838 3.7803 -1.23203 0
M  V30 3168 N 314.835 0.952656 1.25548 0
M  V30 3169 C 316.246 0.647392 1.75116 0
M  V30 3170 C 316.597 -0.837274 1.77438 0
M  V30 3171 O 315.722 -1.65525 1.39393 0
M  V30 3172 C 316.317 1.16845 3.18014 0
M  V30 3173 C 314.876 0.913382 3.6515 0
M  V30 3174 C 314.023 1.31265 2.44264 0
M  V30 3175 H 316.974 1.12968 1.11462 0
M  V30 3176 H 316.995 0.527606 3.76824 0
M  V30 3177 H 316.507 2.24902 3.16292 0
M  V30 3178 H 314.608 -0.152316 3.72289 0
M  V30 3179 H 314.721 1.54845 4.53387 0
M  V30 3180 H 313.085 0.731028 2.43984 0
M  V30 3181 H 313.868 2.40239 2.45234 0
M  V30 3182 N 316.313 -1.40141 0.720998 0
M  V30 3183 C 317.243 -2.33339 0.0867621 0
M  V30 3184 C 318.224 -1.53178 -0.739622 0
M  V30 3185 O 319.409 -1.81625 -0.687449 0
M  V30 3186 C 316.539 -3.37194 -0.831728 0
M  V30 3187 C 315.493 -4.27857 -0.110558 0
M  V30 3188 C 314.819 -5.22294 -1.14513 0
M  V30 3189 C 316.119 -5.11872 1.0385 0
M  V30 3190 H 317.813 -2.86626 0.865219 0
M  V30 3191 H 315.359 -1.37814 0.417516 0
M  V30 3192 H 317.312 -4.01335 -1.28485 0
M  V30 3193 H 316.036 -2.82314 -1.64214 0
M  V30 3194 H 314.695 -3.65176 0.322797 0
M  V30 3195 H 314.343 -4.63717 -1.94874 0
M  V30 3196 H 314.043 -5.83797 -0.667446 0
M  V30 3197 H 315.567 -5.89312 -1.59824 0
M  V30 3198 H 316.981 -5.69436 0.664482 0
M  V30 3199 H 315.378 -5.82445 1.4449 0
M  V30 3200 H 316.448 -4.4753 1.86668 0
M  V30 3201 N 317.792 -0.46758 -1.50504 0
M  V30 3202 C 319.208 -0.121533 -1.59137 0
M  V30 3203 C 319.408 1.3717 -1.47603 0
M  V30 3204 O 318.464 2.14464 -1.33272 0
M  V30 3205 C 319.777 -0.6686 -2.93173 0
M  V30 3206 C 321.325 -0.631716 -3.06559 0
M  V30 3207 C 321.8 -1.15627 -4.43164 0
M  V30 3208 N 323.291 -1.11553 -4.49567 0
M  V30 3209 C 324.026 -1.49195 -5.5365 0
M  V30 3210 N 323.522 -1.94269 -6.65005 0
M  V30 3211 N 325.315 -1.4082 -5.44175 0
M  V30 3212 H 317.466 -1.4388 -1.56245 0
M  V30 3213 H 319.729 -0.594784 -0.738198 0
M  V30 3214 H 319.435 -1.71453 -3.07078 0
M  V30 3215 H 319.309 -0.11021 -3.77039 0
M  V30 3216 H 321.696 0.405297 -2.92304 0
M  V30 3217 H 321.777 -1.22687 -2.24458 0
M  V30 3218 H 321.421 -2.1919 -4.58168 0
M  V30 3219 H 321.351 -0.537365 -5.23851 0
M  V30 3220 H 323.842 -0.784895 -3.69659 0
M  V30 3221 H 324.155 -2.21148 -7.40482 0
M  V30 3222 H 322.5 -1.98219 -6.66134 0
M  V30 3223 H 325.691 -1.0545 -4.56068 0
M  V30 3224 H 325.864 -1.70481 -6.25172 0
M  V30 3225 N 319.27 1.56325 -0.20005 0
M  V30 3226 C 320.218 2.20666 0.735482 0
M  V30 3227 C 321.212 1.17934 1.21605 0
M  V30 3228 O 322.418 1.36068 1.17837 0
M  V30 3229 H 318.793 0.70725 0.255542 0
M  V30 3230 H 320.764 2.9792 0.169166 0
M  V30 3231 C 319.513 2.88391 1.94232 0
M  V30 3232 H 318.836 3.67185 1.58161 0
M  V30 3233 H 320.276 3.3684 2.57517 0
M  V30 3234 C 318.735 1.89692 2.78421 0
M  V30 3235 O 319.265 1.40032 3.76502 0
M  V30 3236 N 317.471 1.57813 2.44015 0
M  V30 3237 H 317.018 1.9839 1.64314 0
M  V30 3238 H 316.976 0.920325 3.00628 0
M  V30 3239 N 320.748 -0.0735177 1.57428 0
M  V30 3240 C 321.658 -1.10547 2.06922 0
M  V30 3241 C 322.674 -1.42506 0.998402 0
M  V30 3242 O 323.85 -1.52717 1.31299 0
M  V30 3243 C 320.915 -2.40019 2.50184 0
M  V30 3244 C 319.976 -2.15046 3.71556 0
M  V30 3245 C 319.209 -3.38345 4.12745 0
M  V30 3246 O 319.432 -4.47399 3.53822 0
M  V30 3247 O 318.366 -3.2666 5.05546 0
M  V30 3248 H 322.192 -0.715013 2.95163 0
M  V30 3249 H 319.777 -0.287531 1.46607 0
M  V30 3250 H 321.659 -3.16218 2.78539 0
M  V30 3251 H 320.334 -2.78447 1.65072 0
M  V30 3252 H 319.241 -1.36558 3.48285 0
M  V30 3253 H 320.574 -1.81499 4.57514 0
M  V30 3254 N 322.226 -1.5378 -0.344866 0
M  V30 3255 C 323.456 -1.74646 -1.10374 0
M  V30 3256 C 323.864 -0.48491 -1.8288 0
M  V30 3257 O 323.207 0.553062 -1.75177 0
M  V30 3258 C 323.269 -2.87145 -2.16306 0
M  V30 3259 C 322.933 -4.26795 -1.63386 0
M  V30 3260 C 323.93 -5.08412 -1.08688 0
M  V30 3261 C 321.615 -4.73276 -1.68272 0
M  V30 3262 C 323.609 -6.34609 -0.595792 0
M  V30 3263 C 321.296 -5.99446 -1.18776 0
M  V30 3264 C 322.294 -6.79946 -0.645215 0
M  V30 3265 O 321.982 -8.03745 -0.157626 0
M  V30 3266 H 321.714 -0.587112 -0.335075 0
M  V30 3267 H 324.268 -2.01403 -0.403252 0
M  V30 3268 H 322.498 -2.55909 -2.89909 0
M  V30 3269 H 324.187 -2.95992 -2.77747 0
M  V30 3270 H 324.953 -4.73666 -1.04236 0
M  V30 3271 H 320.832 -4.10677 -2.09442 0
M  V30 3272 H 324.376 -6.97389 -0.171654 0
M  V30 3273 H 320.273 -6.33687 -1.22928 0
M  V30 3274 H 321.041 -8.18038 -0.275037 0
M  V30 3275 N 323.704 0.605807 -1.45491 0
M  V30 3276 C 324.951 1.36476 -1.49601 0
M  V30 3277 C 325.279 1.94007 -0.138452 0
M  V30 3278 O 324.534 1.75638 0.863114 0
M  V30 3279 C 324.833 2.53012 -2.52428 0
M  V30 3280 C 324.499 2.13617 -3.97087 0
M  V30 3281 C 323.161 2.02587 -4.36477 0
M  V30 3282 C 325.513 1.82899 -4.88055 0
M  V30 3283 C 322.841 1.59064 -5.64726 0
M  V30 3284 C 325.193 1.40861 -6.16718 0
M  V30 3285 C 323.857 1.28391 -6.55036 0
M  V30 3286 H 323.127 0.499402 -0.547429 0
M  V30 3287 H 325.774 0.684546 -1.78847 0
M  V30 3288 H 324.079 3.26379 -2.16758 0
M  V30 3289 H 325.776 3.1124 -2.52845 0
M  V30 3290 H 322.366 2.23129 -3.65939 0
M  V30 3291 H 326.55 1.90317 -4.58359 0
M  V30 3292 H 321.806 1.48034 -5.93208 0
M  V30 3293 H 325.98 1.16138 -6.86648 0
M  V30 3294 H 323.607 0.944403 -7.54311 0
M  V30 3295 N 325.182 1.32811 0.848464 0
M  V30 3296 C 326.429 1.23724 1.60308 0
M  V30 3297 C 326.757 -0.1994 1.93475 0
M  V30 3298 O 326.012 -1.15406 1.5805 0
M  V30 3299 C 326.311 2.04831 2.92881 0
M  V30 3300 C 325.977 3.54125 2.79117 0
M  V30 3301 C 324.639 3.94829 2.7507 0
M  V30 3302 C 326.991 4.49036 2.64606 0
M  V30 3303 C 324.319 5.28675 2.544 0
M  V30 3304 C 326.671 5.83033 2.4547 0
M  V30 3305 C 325.335 6.22931 2.39819 0
M  V30 3306 H 324.605 0.452737 0.586609 0
M  V30 3307 H 327.252 1.64301 0.983743 0
M  V30 3308 H 325.557 1.57001 3.58968 0
M  V30 3309 H 327.254 1.95164 3.50303 0
M  V30 3310 H 323.844 3.21801 2.83094 0
M  V30 3311 H 328.028 4.18505 2.66772 0
M  V30 3312 H 323.284 5.58637 2.48465 0
M  V30 3313 H 327.458 6.56186 2.33222 0
M  V30 3314 H 325.085 7.26584 2.23562 0
M  V30 3315 N 326.66 -1.06551 1.16123 0
M  V30 3316 C 327.937 -1.76097 0.85142 0
M  V30 3317 C 328.317 -2.00802 -0.6513 0
M  V30 3318 O 327.665 -1.63302 -1.59827 0
M  V30 3319 C 327.875 -3.06384 1.67122 0
M  V30 3320 C 329.223 -3.80585 1.88255 0
M  V30 3321 O 330.247 -3.16218 1.63966 0
M  V30 3322 O 329.106 -4.96212 2.2899 0
M  V30 3323 H 326.2 -0.765102 0.313923 0
M  V30 3324 H 328.746 -1.12844 1.26745 0
M  V30 3325 H 327.518 -2.84071 2.69108 0
M  V30 3326 H 327.141 -3.77371 1.25206 0
M  V30 3327 N 328.138 -0.959301 -1.25041 0
M  V30 3328 C 329.554 -0.664474 -1.4511 0
M  V30 3329 C 329.754 0.776481 -1.85938 0
M  V30 3330 O 328.81 1.55128 -1.99227 0
M  V30 3331 C 330.123 -1.64139 -2.5195 0
M  V30 3332 C 331.671 -1.65309 -2.65786 0
M  V30 3333 C 332.146 -2.61777 -3.75815 0
M  V30 3334 N 333.637 -2.60169 -3.83231 0
M  V30 3335 C 334.372 -3.31489 -4.6787 0
M  V30 3336 N 333.868 -4.12298 -5.56761 0
M  V30 3337 N 335.661 -3.20354 -4.61876 0
M  V30 3338 H 327.812 -1.89043 -0.968332 0
M  V30 3339 H 330.075 -0.813408 -0.4869 0
M  V30 3340 H 329.781 -2.67086 -2.28819 0
M  V30 3341 H 329.655 -1.40756 -3.49954 0
M  V30 3342 H 332.042 -0.630778 -2.8828 0
M  V30 3343 H 332.123 -1.92753 -1.68167 0
M  V30 3344 H 331.767 -3.64137 -3.54071 0
M  V30 3345 H 331.697 -2.31616 -4.72929 0
M  V30 3346 H 334.188 -2.01507 -3.19692 0
M  V30 3347 H 334.501 -4.63625 -6.18281 0
M  V30 3348 H 332.846 -4.16395 -5.56454 0
M  V30 3349 H 336.037 -2.56692 -3.91442 0
M  V30 3350 H 336.21 -3.76201 -5.27614 0
M  V30 3351 N 329.616 1.39756 -0.72842 0
M  V30 3352 C 330.564 2.32485 -0.0731849 0
M  V30 3353 C 331.558 1.52717 0.733063 0
M  V30 3354 O 332.764 1.68428 0.634988 0
M  V30 3355 H 329.139 0.751984 -0.00486469 0
M  V30 3356 H 331.11 2.85382 -0.871761 0
M  V30 3357 C 329.859 3.37773 0.824908 0
M  V30 3358 H 329.182 3.99227 0.213915 0
M  V30 3359 H 330.622 4.05121 1.25111 0
M  V30 3360 C 329.081 2.74287 1.95622 0
M  V30 3361 O 329.611 2.61618 3.04826 0
M  V30 3362 N 327.817 2.32475 1.74367 0
M  V30 3363 H 327.364 2.4298 0.855494 0
M  V30 3364 H 327.322 1.90337 2.50238 0
M  V30 3365 N 331.094 0.475555 1.50254 0
M  V30 3366 C 332.51 0.12997 1.5907 0
M  V30 3367 C 332.71 -1.36385 1.48328 0
M  V30 3368 O 331.766 -2.13754 1.34407 0
M  V30 3369 C 333.079 0.684139 2.92814 0
M  V30 3370 C 334.627 0.647965 3.0622 0
M  V30 3371 C 335.102 1.17975 4.42545 0
M  V30 3372 N 336.593 1.13936 4.48969 0
M  V30 3373 C 337.328 1.52129 5.52851 0
M  V30 3374 N 336.824 1.97793 6.63965 0
M  V30 3375 N 338.617 1.43704 5.4342 0
M  V30 3376 H 330.768 1.44706 1.55479 0
M  V30 3377 H 333.031 0.598691 0.735033 0
M  V30 3378 H 332.737 1.73079 3.06164 0
M  V30 3379 H 332.611 0.130204 3.76975 0
M  V30 3380 H 334.998 -0.38979 2.92514 0
M  V30 3381 H 335.079 1.23876 2.23805 0
M  V30 3382 H 334.723 2.21616 4.57 0
M  V30 3383 H 334.653 0.565138 5.23559 0
M  V30 3384 H 337.144 0.804488 3.69238 0
M  V30 3385 H 337.457 2.25072 7.39299 0
M  V30 3386 H 335.802 2.01749 6.65073 0
M  V30 3387 H 338.993 1.07867 4.55502 0
M  V30 3388 H 339.166 1.73794 6.24259 0
M  V30 3389 N 332.573 -1.56217 0.208337 0
M  V30 3390 C 333.984 -1.84243 -0.301904 0
M  V30 3391 C 334.335 -1.12939 -1.60434 0
M  V30 3392 O 333.46 -0.39461 -2.12772 0
M  V30 3393 C 334.055 -3.34231 -0.554543 0
M  V30 3394 C 332.614 -3.62621 -1.00912 0
M  V30 3395 C 331.761 -2.77224 -0.064933 0
M  V30 3396 H 334.712 -1.52712 0.431833 0
M  V30 3397 H 334.733 -3.5372 -1.40223 0
M  V30 3398 H 334.245 -3.86099 0.393561 0
M  V30 3399 H 332.346 -3.16197 -1.97104 0
M  V30 3400 H 332.459 -4.7071 -0.892674 0
M  V30 3401 H 330.823 -2.48256 -0.56929 0
M  V30 3402 H 331.606 -3.31887 0.877851 0
M  V30 3403 N 334.051 0.0651679 -1.57465 0
M  V30 3404 C 335.276 0.779605 -1.9219 0
M  V30 3405 C 335.701 1.69988 -0.805333 0
M  V30 3406 O 335.059 1.79685 0.241435 0
M  V30 3407 C 335.107 1.54364 -3.2589 0
M  V30 3408 O 334.211 2.65474 -3.1559 0
M  V30 3409 H 333.552 0.212249 -0.629163 0
M  V30 3410 H 336.082 0.0314294 -2.04576 0
M  V30 3411 H 336.092 1.92146 -3.59922 0
M  V30 3412 H 334.767 0.868457 -4.06732 0
M  V30 3413 H 333.344 2.30501 -2.93128 0
M  V30 3414 N 335.529 1.53961 0.336706 0
M  V30 3415 C 336.776 1.71536 1.07618 0
M  V30 3416 C 337.104 0.482125 1.8843 0
M  V30 3417 O 336.359 -0.536142 1.88213 0
M  V30 3418 C 336.658 2.93493 2.03953 0
M  V30 3419 C 336.324 4.28811 1.39399 0
M  V30 3420 C 334.986 4.65602 1.21523 0
M  V30 3421 C 337.338 5.12844 0.929541 0
M  V30 3422 C 334.666 5.84037 0.558312 0
M  V30 3423 C 337.018 6.31951 0.286505 0
M  V30 3424 C 335.682 6.67432 0.0954869 0
M  V30 3425 H 334.952 0.627696 0.393801 0
M  V30 3426 H 337.599 1.88186 0.354715 0
M  V30 3427 H 335.904 2.71475 2.82504 0
M  V30 3428 H 337.601 3.04285 2.61174 0
M  V30 3429 H 334.191 3.99858 1.54311 0
M  V30 3430 H 338.375 4.84947 1.05548 0
M  V30 3431 H 333.631 6.10097 0.398995 0
M  V30 3432 H 337.805 6.96352 -0.0814376 0
M  V30 3433 H 335.432 7.59063 -0.415579 0
M  V30 3434 N 337.007 -0.598083 1.45811 0
M  V30 3435 C 338.284 -1.35777 1.40797 0
M  V30 3436 C 338.664 -2.10935 0.083462 0
M  V30 3437 O 338.012 -2.08505 -0.934763 0
M  V30 3438 C 338.222 -2.29666 2.62783 0
M  V30 3439 C 339.57 -2.91977 3.08277 0
M  V30 3440 O 340.594 -2.39984 2.63223 0
M  V30 3441 O 339.453 -3.86376 3.86491 0
M  V30 3442 H 336.547 -0.609291 0.55919 0
M  V30 3443 H 339.093 -0.620379 1.57954 0
M  V30 3444 H 337.865 -1.73454 3.50756 0
M  V30 3445 H 337.488 -3.1077 2.48008 0
M  V30 3446 N 338.485 -1.33259 -0.841409 0
M  V30 3447 C 339.448 -1.23221 -1.9326 0
M  V30 3448 C 340.448 -0.151895 -1.60081 0
M  V30 3449 O 341.638 -0.403246 -1.69468 0
M  V30 3450 C 338.77 -0.898123 -3.28856 0
M  V30 3451 H 339.963 -2.2021 -2.03587 0
M  V30 3452 H 337.516 -1.17281 -1.03319 0
M  V30 3453 H 338.251 0.0693841 -3.24226 0
M  V30 3454 H 338.036 -1.67934 -3.54317 0
M  V30 3455 H 339.526 -0.852563 -4.08805 0
M  V30 3456 N 339.963 1.05934 -1.16686 0
M  V30 3457 C 341.212 1.78188 -0.945085 0
M  V30 3458 C 341.525 1.88338 0.528021 0
M  V30 3459 O 342.731 2.57258 0.867799 0
M  V30 3460 C 341.187 3.20277 -1.64167 0
M  V30 3461 C 340.795 3.18281 -3.15279 0
M  V30 3462 C 342.539 3.97039 -1.502 0
M  V30 3463 C 340.446 4.55112 -3.7766 0
M  V30 3464 H 339.376 0.667866 -0.349959 0
M  V30 3465 H 342.027 1.18794 -1.39858 0
M  V30 3466 H 340.409 3.79952 -1.11589 0
M  V30 3467 H 341.583 2.68167 -3.74731 0
M  V30 3468 H 339.898 2.55018 -3.29173 0
M  V30 3469 H 342.495 4.98194 -1.94183 0
M  V30 3470 H 342.838 4.13845 -0.451461 0
M  V30 3471 H 343.371 3.43894 -1.99954 0
M  V30 3472 H 340.11 4.43512 -4.82677 0
M  V30 3473 H 339.63 5.05406 -3.22994 0
M  V30 3474 H 341.309 5.24064 -3.79428 0
M  V30 3475 N 341.441 0.965919 1.2453 0
M  V30 3476 C 342.371 0.513476 2.27784 0
M  V30 3477 C 343.352 -0.445974 1.6415 0
M  V30 3478 O 344.537 -0.342485 1.91156 0
M  V30 3479 C 341.667 -0.198839 3.4673 0
M  V30 3480 C 340.621 0.676456 4.2262 0
M  V30 3481 C 339.947 -0.167248 5.34438 0
M  V30 3482 C 341.247 1.96017 4.84123 0
M  V30 3483 H 342.941 1.3765 2.65881 0
M  V30 3484 H 340.487 0.663321 1.27813 0
M  V30 3485 H 342.44 -0.526567 4.18097 0
M  V30 3486 H 341.164 -1.0962 3.07654 0
M  V30 3487 H 339.823 0.98743 3.53052 0
M  V30 3488 H 339.471 -1.0647 4.91603 0
M  V30 3489 H 339.171 0.415181 5.86131 0
M  V30 3490 H 340.695 -0.489688 6.08633 0
M  V30 3491 H 342.109 1.69814 5.47573 0
M  V30 3492 H 340.506 2.48918 5.4604 0
M  V30 3493 H 341.576 2.65622 4.05676 0
M  V30 3494 N 342.919 -1.39368 0.735821 0
M  V30 3495 C 344.149 -2.04498 0.293967 0
M  V30 3496 C 344.557 -1.55593 -1.07645 0
M  V30 3497 O 343.9 -0.716324 -1.69158 0
M  V30 3498 C 343.962 -3.58836 0.218342 0
M  V30 3499 C 343.626 -4.30721 1.52736 0
M  V30 3500 C 344.623 -4.57305 2.47322 0
M  V30 3501 C 342.308 -4.69251 1.79189 0
M  V30 3502 C 344.302 -5.21429 3.66593 0
M  V30 3503 C 341.989 -5.33104 2.98737 0
M  V30 3504 C 342.987 -5.59125 3.9226 0
M  V30 3505 O 342.675 -6.21653 5.09708 0
M  V30 3506 H 342.407 -0.664118 0.126189 0
M  V30 3507 H 344.961 -1.79385 1.00051 0
M  V30 3508 H 343.191 -3.8285 -0.544314 0
M  V30 3509 H 344.88 -4.05447 -0.191626 0
M  V30 3510 H 345.646 -4.27983 2.28156 0
M  V30 3511 H 341.525 -4.48354 1.07239 0
M  V30 3512 H 345.069 -5.41656 4.39607 0
M  V30 3513 H 340.966 -5.61846 3.17803 0
M  V30 3514 H 341.734 -6.40146 5.10054 0
M  V30 3515 N 344.397 -0.483516 -1.5 0
M  V30 3516 C 345.627 0.0643896 -2.065 0
M  V30 3517 C 346.035 1.32949 -1.34615 0
M  V30 3518 O 345.378 1.79003 -0.412756 0
M  V30 3519 C 345.44 0.405983 -3.572 0
M  V30 3520 C 345.104 -0.758875 -4.50655 0
M  V30 3521 C 346.101 -1.64445 -4.93208 0
M  V30 3522 C 343.786 -0.952725 -4.93182 0
M  V30 3523 C 345.78 -2.70818 -5.77006 0
M  V30 3524 C 343.467 -2.01966 -5.76761 0
M  V30 3525 C 344.465 -2.89574 -6.18576 0
M  V30 3526 O 344.153 -3.94429 -7.00486 0
M  V30 3527 H 343.885 -0.00934786 -0.675935 0
M  V30 3528 H 346.439 -0.674959 -1.93993 0
M  V30 3529 H 344.669 1.19869 -3.67652 0
M  V30 3530 H 346.358 0.890433 -3.96013 0
M  V30 3531 H 347.124 -1.50643 -4.61012 0
M  V30 3532 H 343.003 -0.280247 -4.60147 0
M  V30 3533 H 346.547 -3.3923 -6.09565 0
M  V30 3534 H 342.444 -2.1577 -6.0837 0
M  V30 3535 H 343.212 -3.91568 -7.1876 0
M  V30 3536 N 345.875 1.56104 -0.216619 0
M  V30 3537 C 347.105 2.02269 0.420802 0
M  V30 3538 C 347.513 1.09575 1.5424 0
M  V30 3539 O 346.856 0.0967308 1.83445 0
M  V30 3540 C 346.918 3.44784 1.01806 0
M  V30 3541 C 346.582 4.56988 0.0325154 0
M  V30 3542 C 347.579 5.14225 -0.766055 0
M  V30 3543 C 345.264 5.02228 -0.0848092 0
M  V30 3544 C 347.258 6.15169 -1.6687 0
M  V30 3545 C 344.945 6.03011 -0.990994 0
M  V30 3546 C 345.943 6.59357 -1.78149 0
M  V30 3547 O 345.631 7.58179 -2.67245 0
M  V30 3548 H 345.363 0.667353 0.107776 0
M  V30 3549 H 347.917 2.02747 -0.329034 0
M  V30 3550 H 346.147 3.41359 1.81689 0
M  V30 3551 H 347.836 3.74626 1.56237 0
M  V30 3552 H 348.602 4.80126 -0.685836 0
M  V30 3553 H 344.481 4.58054 0.520349 0
M  V30 3554 H 348.025 6.59076 -2.28615 0
M  V30 3555 H 343.922 6.36532 -1.07225 0
M  V30 3556 H 344.69 7.75682 -2.61265 0
M  V30 3557 N 347.353 -0.0568162 1.57498 0
M  V30 3558 C 348.285 -1.09292 2.01464 0
M  V30 3559 C 349.298 -1.34112 0.922913 0
M  V30 3560 O 350.487 -1.32089 1.20062 0
M  V30 3561 C 347.587 -2.44068 2.35125 0
M  V30 3562 C 346.76 -2.38995 3.66333 0
M  V30 3563 C 345.819 -3.55997 3.87495 0
M  V30 3564 O 344.845 -3.36746 4.58901 0
M  V30 3565 N 346.047 -4.76888 3.30996 0
M  V30 3566 H 348.812 -0.718386 2.90963 0
M  V30 3567 H 346.373 -0.245235 1.60032 0
M  V30 3568 H 348.365 -3.21011 2.46443 0
M  V30 3569 H 346.935 -2.73468 1.5144 0
M  V30 3570 H 346.155 -1.47336 3.65631 0
M  V30 3571 H 347.443 -2.3272 4.52458 0
M  V30 3572 H 346.841 -4.95431 2.73065 0
M  V30 3573 H 345.398 -5.51291 3.47738 0
M  V30 3574 N 348.832 -1.54138 -0.328536 0
M  V30 3575 C 350.057 -1.76378 -1.09112 0
M  V30 3576 C 350.482 -0.508596 -1.81094 0
M  V30 3577 O 349.84 0.539598 -1.73084 0
M  V30 3578 C 349.888 -2.95358 -2.06872 0
M  V30 3579 O 348.992 -2.66556 -3.14677 0
M  V30 3580 H 348.333 -0.584614 -0.314838 0
M  V30 3581 H 350.863 -2.01146 -0.374348 0
M  V30 3582 H 350.873 -3.22566 -2.4983 0
M  V30 3583 H 349.548 -3.86385 -1.5388 0
M  V30 3584 H 348.125 -2.50282 -2.7643 0
M  V30 3585 N 350.31 0.590341 -1.46126 0
M  V30 3586 C 351.558 1.34616 -1.50742 0
M  V30 3587 C 351.879 1.94363 -0.157486 0
M  V30 3588 O 351.149 1.78136 0.815136 0
M  V30 3589 H 349.729 0.499789 -0.555175 0
M  V30 3590 H 352.391 0.691953 -1.82203 0
M  V30 3591 H 351.487 2.15678 -2.25587 0
M  V30 3592 N 351.788 1.33704 0.83433 0
M  V30 3593 C 353.036 1.25169 1.58673 0
M  V30 3594 C 353.357 -0.18127 1.94156 0
M  V30 3595 O 352.627 -1.11113 1.6134 0
M  V30 3596 H 351.207 0.4603 0.58833 0
M  V30 3597 H 353.869 1.67478 0.996847 0
M  V30 3598 H 352.965 1.84856 2.51465 0
M  V30 3599 N 353.266 -1.05314 1.17247 0
M  V30 3600 C 354.682 -1.30452 0.919473 0
M  V30 3601 C 354.882 -1.9703 -0.42209 0
M  V30 3602 O 353.938 -2.24311 -1.15935 0
M  V30 3603 C 355.251 -2.17551 2.07586 0
M  V30 3604 C 356.799 -2.30937 2.11275 0
M  V30 3605 C 357.274 -3.21396 3.26296 0
M  V30 3606 N 358.765 -3.28981 3.26076 0
M  V30 3607 C 359.5 -3.99095 4.11716 0
M  V30 3608 N 358.996 -4.71648 5.07465 0
M  V30 3609 N 360.789 -3.95247 3.9967 0
M  V30 3610 H 352.94 -0.604988 2.03602 0
M  V30 3611 H 355.203 -0.329368 0.888944 0
M  V30 3612 H 354.909 -1.75921 3.0454 0
M  V30 3613 H 354.783 -3.18182 2.02584 0
M  V30 3614 H 357.17 -2.71809 1.14907 0
M  V30 3615 H 357.251 -1.2994 2.20339 0
M  V30 3616 H 356.895 -2.81238 4.22927 0
M  V30 3617 H 356.825 -4.22395 3.14467 0
M  V30 3618 H 359.316 -2.77286 2.5675 0
M  V30 3619 H 359.629 -5.22705 5.6921 0
M  V30 3620 H 357.974 -4.70594 5.11435 0
M  V30 3621 H 361.165 -3.37691 3.24164 0
M  V30 3622 H 361.338 -4.4962 4.66632 0
M  V30 3623 N 354.744 -0.972509 -1.24016 0
M  V30 3624 C 355.674 -0.525548 -2.27509 0
M  V30 3625 C 356.655 0.437262 -1.64384 0
M  V30 3626 O 357.84 0.332343 -1.91335 0
M  V30 3627 C 354.97 0.180448 -3.46831 0
M  V30 3628 C 353.924 -0.698859 -4.22256 0
M  V30 3629 C 353.25 0.138903 -5.3452 0
M  V30 3630 C 354.55 -1.98582 -4.83076 0
M  V30 3631 H 356.244 -1.39058 -2.65148 0
M  V30 3632 H 353.79 -0.67009 -1.27459 0
M  V30 3633 H 355.743 0.504387 -4.18371 0
M  V30 3634 H 354.467 1.07987 -3.08231 0
M  V30 3635 H 353.126 -1.00614 -3.52523 0
M  V30 3636 H 352.774 1.03862 -4.9216 0
M  V30 3637 H 352.474 -0.446259 -5.85903 0
M  V30 3638 H 353.998 0.457404 -6.08884 0
M  V30 3639 H 355.412 -1.72715 -5.46665 0
M  V30 3640 H 353.809 -2.5181 -5.44713 0
M  V30 3641 H 354.879 -2.67769 -4.04262 0
M  V30 3642 N 356.222 1.38976 -0.743202 0
M  V30 3643 C 357.169 2.30544 -0.10861 0
M  V30 3644 C 358.139 1.49642 0.720869 0
M  V30 3645 O 359.324 1.78304 0.679142 0
M  V30 3646 C 356.464 3.36018 0.786496 0
M  V30 3647 C 355.577 4.31963 -0.0564849 0
M  V30 3648 C 354.712 5.24506 0.840657 0
M  V30 3649 C 353.751 6.121 -0.00658363 0
M  V30 3650 N 352.888 6.96973 0.846943 0
M  V30 3651 H 357.728 2.8424 -0.895088 0
M  V30 3652 H 355.265 1.3995 -0.453048 0
M  V30 3653 H 357.223 3.95768 1.31999 0
M  V30 3654 H 355.853 2.83758 1.53887 0
M  V30 3655 H 354.905 3.73763 -0.707492 0
M  V30 3656 H 356.217 4.93703 -0.711229 0
M  V30 3657 H 355.371 5.89322 1.4417 0
M  V30 3658 H 354.11 4.63107 1.52916 0
M  V30 3659 H 353.115 5.46289 -0.620366 0
M  V30 3660 H 354.34 6.75565 -0.691992 0
M  V30 3661 H 352.286 6.38133 1.52059 0
M  V30 3662 H 352.203 7.5559 0.248864 0
M  V30 3663 H 353.471 7.6621 1.43328 0
M  V30 3664 N 357.7 0.491464 1.49741 0
M  V30 3665 C 359.116 0.146835 1.58923 0
M  V30 3666 C 359.316 -1.34804 1.49767 0
M  V30 3667 O 358.372 -2.12317 1.36667 0
M  V30 3668 C 359.685 0.715157 2.92072 0
M  V30 3669 C 361.233 0.680407 3.05515 0
M  V30 3670 C 361.708 1.22663 4.41269 0
M  V30 3671 N 363.199 1.18691 4.47735 0
M  V30 3672 C 363.934 1.57984 5.51207 0
M  V30 3673 N 363.43 2.04824 6.6183 0
M  V30 3674 N 365.223 1.49459 5.41866 0
M  V30 3675 H 357.374 1.46347 1.53936 0
M  V30 3676 H 359.637 0.606453 0.728642 0
M  V30 3677 H 359.343 1.76317 3.04311 0
M  V30 3678 H 359.217 0.17018 3.76816 0
M  V30 3679 H 361.604 -0.358743 2.92911 0
M  V30 3680 H 361.685 1.26242 2.22478 0
M  V30 3681 H 361.329 2.26451 4.54623 0
M  V30 3682 H 361.259 0.620637 5.2293 0
M  V30 3683 H 363.75 0.843605 3.68364 0
M  V30 3684 H 364.063 2.32901 7.3687 0
M  V30 3685 H 362.408 2.08791 6.62896 0
M  V30 3686 H 365.599 1.12692 4.54333 0
M  V30 3687 H 365.772 1.80406 6.22381 0
M  V30 3688 N 359.178 -1.55987 0.224894 0
M  V30 3689 C 360.589 -1.84553 -0.282345 0
M  V30 3690 C 360.94 -1.14634 -1.59227 0
M  V30 3691 O 360.065 -0.417155 -2.12341 0
M  V30 3692 C 360.66 -3.348 -0.519062 0
M  V30 3693 C 359.219 -3.63671 -0.970604 0
M  V30 3694 C 358.366 -2.77277 -0.0355261 0
M  V30 3695 H 361.317 -1.52245 0.448006 0
M  V30 3696 H 361.338 -3.55187 -1.36463 0
M  V30 3697 H 360.85 -3.8566 0.43449 0
M  V30 3698 H 358.951 -3.1827 -1.9374 0
M  V30 3699 H 359.064 -4.71631 -0.842698 0
M  V30 3700 H 357.428 -2.48846 -0.542927 0
M  V30 3701 H 358.211 -3.30937 0.913003 0
M  V30 3702 N 360.656 0.0484629 -1.57525 0
M  V30 3703 C 361.902 0.744226 -1.88651 0
M  V30 3704 C 362.235 1.76029 -0.820212 0
M  V30 3705 O 361.51 1.93782 0.166985 0
M  V30 3706 C 361.793 1.43128 -3.30434 0
M  V30 3707 C 361.646 0.43005 -4.47739 0
M  V30 3708 C 362.965 2.37031 -3.70816 0
M  V30 3709 H 360.084 0.269089 -0.68612 0
M  V30 3710 H 362.726 0.00713532 -1.89999 0
M  V30 3711 H 360.876 2.05956 -3.29415 0
M  V30 3712 H 362.548 -0.194816 -4.60888 0
M  V30 3713 H 360.791 -0.252522 -4.33064 0
M  V30 3714 H 361.462 0.948874 -5.43783 0
M  V30 3715 H 363.938 1.84263 -3.73077 0
M  V30 3716 H 362.814 2.82094 -4.70865 0
M  V30 3717 H 363.075 3.22864 -3.02012 0
M  V30 3718 N 362.134 1.5431 0.320358 0
M  V30 3719 C 363.082 1.84647 1.4145 0
M  V30 3720 C 364.076 0.718624 1.53402 0
M  V30 3721 O 365.282 0.902335 1.5575 0
M  V30 3722 H 361.657 0.585349 0.472091 0
M  V30 3723 H 363.628 2.7614 1.13089 0
M  V30 3724 C 362.377 2.09341 2.77617 0
M  V30 3725 H 361.7 2.9559 2.69196 0
M  V30 3726 H 363.14 2.3452 3.53237 0
M  V30 3727 C 361.599 0.885939 3.25043 0
M  V30 3728 O 362.129 0.0967891 4.01583 0
M  V30 3729 N 360.335 0.696682 2.82125 0
M  V30 3730 H 359.882 1.34006 2.2 0
M  V30 3731 H 359.84 -0.109712 3.14209 0
M  V30 3732 N 363.613 -0.582584 1.46437 0
M  V30 3733 C 364.859 -1.34278 1.51978 0
M  V30 3734 C 365.192 -1.93446 0.170973 0
M  V30 3735 O 364.467 -1.76481 -0.817608 0
M  V30 3736 C 364.75 -2.47203 2.61845 0
M  V30 3737 C 364.603 -1.93069 4.06257 0
M  V30 3738 C 365.922 -3.49247 2.67795 0
M  V30 3739 H 363.041 -0.486876 0.553282 0
M  V30 3740 H 365.683 -0.654437 1.78374 0
M  V30 3741 H 363.833 -3.0592 2.39469 0
M  V30 3742 H 365.505 -1.38808 4.3992 0
M  V30 3743 H 363.748 -1.23898 4.1573 0
M  V30 3744 H 364.419 -2.74586 4.7886 0
M  V30 3745 H 366.895 -3.00411 2.8791 0
M  V30 3746 H 365.771 -4.25719 3.46489 0
M  V30 3747 H 366.032 -4.06482 1.73852 0
M  V30 3748 N 365.091 -1.34144 -0.827227 0
M  V30 3749 C 366.502 -1.23557 -1.39966 0
M  V30 3750 C 366.853 0.140731 -1.95695 0
M  V30 3751 O 365.978 1.04087 -1.89723 0
M  V30 3752 C 366.573 -2.23708 -2.54441 0
M  V30 3753 C 365.132 -2.16924 -3.07605 0
M  V30 3754 C 364.279 -2.10549 -1.80456 0
M  V30 3755 H 367.23 -1.45573 -0.631991 0
M  V30 3756 H 367.251 -1.85157 -3.32411 0
M  V30 3757 H 366.763 -3.23866 -2.13851 0
M  V30 3758 H 364.864 -1.20107 -3.52711 0
M  V30 3759 H 364.977 -3.07988 -3.66988 0
M  V30 3760 H 363.341 -1.56203 -2.01178 0
M  V30 3761 H 364.124 -3.12535 -1.42046 0
M  V30 3762 N 366.569 1.04691 -1.17803 0
M  V30 3763 C 367.816 1.77782 -0.969532 0
M  V30 3764 C 368.144 1.87926 0.501401 0
M  V30 3765 O 367.399 1.37918 1.38842 0
M  V30 3766 C 367.698 3.21467 -1.56186 0
M  V30 3767 C 367.364 3.3137 -3.05786 0
M  V30 3768 C 366.026 3.3378 -3.46619 0
M  V30 3769 C 368.378 3.31976 -4.01797 0
M  V30 3770 C 365.706 3.34431 -4.82051 0
M  V30 3771 C 368.058 3.34167 -5.37136 0
M  V30 3772 C 366.722 3.34866 -5.77426 0
M  V30 3773 H 365.992 0.650549 -0.354777 0
M  V30 3774 H 368.639 1.23006 -1.46772 0
M  V30 3775 H 366.944 3.79203 -0.985515 0
M  V30 3776 H 368.641 3.76652 -1.37602 0
M  V30 3777 H 365.231 3.3021 -2.73238 0
M  V30 3778 H 369.415 3.29311 -3.71306 0
M  V30 3779 H 364.671 3.33285 -5.12573 0
M  V30 3780 H 368.845 3.33585 -6.11305 0
M  V30 3781 H 366.472 3.35124 -6.82346 0
M  V30 3782 N 368.047 0.979072 1.23499 0
M  V30 3783 C 369.324 0.563674 1.87302 0
M  V30 3784 C 369.704 -0.959199 1.88049 0
M  V30 3785 O 369.052 -1.83535 1.36114 0
M  V30 3786 C 369.262 1.16822 3.28867 0
M  V30 3787 C 370.61 1.26014 4.0547 0
M  V30 3788 O 371.634 1.12158 3.38082 0
M  V30 3789 O 370.493 1.48044 5.26066 0
M  V30 3790 H 367.587 0.189602 0.804972 0
M  V30 3791 H 370.133 1.07407 1.31384 0
M  V30 3792 H 368.905 2.21049 3.22883 0
M  V30 3793 H 368.528 0.642564 3.92373 0
M  V30 3794 N 369.525 -1.3858 0.750561 0
M  V30 3795 C 370.774 -1.99424 0.302172 0
M  V30 3796 C 371.087 -1.60254 -1.12152 0
M  V30 3797 O 372.293 -2.14046 -1.67023 0
M  V30 3798 C 370.749 -3.56558 0.489307 0
M  V30 3799 C 370.357 -4.04682 1.92189 0
M  V30 3800 C 372.101 -4.24374 0.103478 0
M  V30 3801 C 370.008 -5.54446 2.05775 0
M  V30 3802 H 368.938 -0.746046 0.10923 0
M  V30 3803 H 371.589 -1.58383 0.92667 0
M  V30 3804 H 369.971 -3.95472 -0.204329 0
M  V30 3805 H 371.145 -3.77065 2.64875 0
M  V30 3806 H 369.46 -3.4958 2.26236 0
M  V30 3807 H 372.057 -5.34384 0.183787 0
M  V30 3808 H 372.4 -4.05468 -0.943481 0
M  V30 3809 H 372.933 -3.90688 0.748854 0
M  V30 3810 H 369.672 -5.78252 3.08714 0
M  V30 3811 H 369.192 -5.83816 1.37546 0
M  V30 3812 H 370.871 -6.20099 1.84626 0
M  V30 3813 N 371.003 -0.499398 -1.49478 0
M  V30 3814 C 372.25 0.0456899 -2.02448 0
M  V30 3815 C 372.578 1.37142 -1.37921 0
M  V30 3816 O 371.833 1.89111 -0.503544 0
M  V30 3817 C 372.132 0.248424 -3.56536 0
M  V30 3818 C 371.798 -0.999107 -4.39692 0
M  V30 3819 C 370.46 -1.34108 -4.62135 0
M  V30 3820 C 372.812 -1.82842 -4.88076 0
M  V30 3821 C 370.14 -2.51191 -5.30208 0
M  V30 3822 C 372.492 -2.99076 -5.57437 0
M  V30 3823 C 371.156 -3.33655 -5.78127 0
M  V30 3824 H 370.426 0.0167191 -0.740811 0
M  V30 3825 H 373.073 -0.65923 -1.79795 0
M  V30 3826 H 371.378 1.03586 -3.77859 0
M  V30 3827 H 373.075 0.684605 -3.95113 0
M  V30 3828 H 369.665 -0.722729 -4.22463 0
M  V30 3829 H 373.849 -1.57737 -4.70566 0
M  V30 3830 H 369.105 -2.78221 -5.44429 0
M  V30 3831 H 373.279 -3.63664 -5.93904 0
M  V30 3832 H 370.906 -4.24483 -6.30649 0
M  V30 3833 N 372.481 1.55866 -0.233164 0
M  V30 3834 C 373.709 2.02998 0.399905 0
M  V30 3835 C 374.124 1.11274 1.52524 0
M  V30 3836 O 373.481 0.124528 1.82075 0
M  V30 3837 C 373.532 3.4958 0.920639 0
M  V30 3838 O 373.253 4.37808 -0.159834 0
M  V30 3839 C 374.754 4.12411 1.62578 0
M  V30 3840 H 371.974 0.664006 0.0966281 0
M  V30 3841 H 374.518 2.0143 -0.353013 0
M  V30 3842 H 372.673 3.51727 1.62379 0
M  V30 3843 H 373.087 5.23981 0.23337 0
M  V30 3844 H 374.561 5.16711 1.94201 0
M  V30 3845 H 375.038 3.5809 2.54299 0
M  V30 3846 H 375.644 4.14148 0.967553 0
M  V30 3847 N 373.959 -0.0401083 1.57549 0
M  V30 3848 C 374.869 -1.06133 2.0922 0
M  V30 3849 C 375.885 -1.40356 1.0284 0
M  V30 3850 O 377.061 -1.49897 1.34509 0
M  V30 3851 C 374.126 -2.34658 2.55218 0
M  V30 3852 C 373.187 -2.07117 3.76033 0
M  V30 3853 C 372.42 -3.29514 4.19829 0
M  V30 3854 O 372.643 -4.39794 3.63232 0
M  V30 3855 O 371.577 -3.15863 5.12362 0
M  V30 3856 H 375.403 -0.652244 2.96613 0
M  V30 3857 H 372.988 -0.256368 1.47184 0
M  V30 3858 H 374.87 -3.10239 2.85184 0
M  V30 3859 H 373.545 -2.74883 1.70941 0
M  V30 3860 H 372.452 -1.29139 3.51104 0
M  V30 3861 H 373.785 -1.71754 4.61261 0
M  V30 3862 N 375.437 -1.54477 -0.31217 0
M  V30 3863 C 376.347 -1.87695 -1.4074 0
M  V30 3864 C 377.363 -0.769975 -1.56036 0
M  V30 3865 O 378.539 -1.06537 -1.70915 0
M  V30 3866 C 375.604 -2.10755 -2.75287 0
M  V30 3867 C 374.665 -3.34514 -2.69071 0
M  V30 3868 C 373.898 -3.56465 -3.97201 0
M  V30 3869 O 374.121 -2.81637 -4.96021 0
M  V30 3870 O 373.055 -4.49964 -3.9977 0
M  V30 3871 H 376.881 -2.80849 -1.15574 0
M  V30 3872 H 374.466 -1.40526 -0.507228 0
M  V30 3873 H 376.348 -2.27188 -3.54913 0
M  V30 3874 H 375.023 -1.20788 -3.0032 0
M  V30 3875 H 373.93 -3.23456 -1.87955 0
M  V30 3876 H 375.263 -4.24575 -2.48992 0
M  V30 3877 N 376.915 0.57481 -1.46744 0
M  V30 3878 C 378.161 1.3347 -1.52688 0
M  V30 3879 C 378.494 1.93353 -0.181229 0
M  V30 3880 O 377.769 1.76912 0.808237 0
M  V30 3881 C 378.052 2.45811 -2.63152 0
M  V30 3882 C 377.905 1.90912 -4.07275 0
M  V30 3883 C 379.224 3.47822 -2.69644 0
M  V30 3884 H 376.343 0.483935 -0.555856 0
M  V30 3885 H 378.985 0.644968 -1.78718 0
M  V30 3886 H 377.135 3.04646 -2.41088 0
M  V30 3887 H 378.807 1.36473 -4.4065 0
M  V30 3888 H 377.05 1.21691 -4.16382 0
M  V30 3889 H 377.721 2.72042 -4.80309 0
M  V30 3890 H 380.197 2.9888 -2.895 0
M  V30 3891 H 379.073 4.23876 -3.48742 0
M  V30 3892 H 379.334 4.05555 -1.76005 0
M  V30 3893 N 378.394 1.34581 0.820102 0
M  V30 3894 C 379.341 1.2639 1.93117 0
M  V30 3895 C 380.311 0.138554 1.65521 0
M  V30 3896 O 381.496 0.320004 1.88097 0
M  V30 3897 C 378.636 1.02812 3.29429 0
M  V30 3898 C 377.749 2.24146 3.693 0
M  V30 3899 C 376.884 1.93829 4.94574 0
M  V30 3900 C 375.923 3.1129 5.27034 0
M  V30 3901 N 375.06 2.80838 6.43486 0
M  V30 3902 H 379.9 2.21408 1.99455 0
M  V30 3903 H 377.437 1.10077 0.975784 0
M  V30 3904 H 379.395 0.871788 4.0799 0
M  V30 3905 H 378.025 0.114612 3.22596 0
M  V30 3906 H 377.077 2.50691 2.86109 0
M  V30 3907 H 378.389 3.11899 3.89257 0
M  V30 3908 H 377.543 1.74948 5.80929 0
M  V30 3909 H 376.282 1.03341 4.76626 0
M  V30 3910 H 375.287 3.30764 4.39175 0
M  V30 3911 H 376.512 4.02561 5.4692 0
M  V30 3912 H 374.458 1.92929 6.26988 0
M  V30 3913 H 374.375 3.62123 6.63629 0
M  V30 3914 H 375.643 2.65467 7.32903 0
M  V30 3915 N 379.872 -1.04064 1.18357 0
M  V30 3916 C 381.119 -1.77265 0.978947 0
M  V30 3917 C 381.447 -1.88189 -0.491428 0
M  V30 3918 O 380.702 -1.38653 -1.38108 0
M  V30 3919 C 381.001 -3.20634 1.57888 0
M  V30 3920 C 380.667 -3.29743 3.07539 0
M  V30 3921 C 379.329 -3.31937 3.48384 0
M  V30 3922 C 381.681 -3.29841 4.03552 0
M  V30 3923 C 379.009 -3.3187 4.83818 0
M  V30 3924 C 381.361 -3.31313 5.38901 0
M  V30 3925 C 380.025 -3.31799 5.79194 0
M  V30 3926 H 379.295 -0.648659 0.358222 0
M  V30 3927 H 381.942 -1.22225 1.47422 0
M  V30 3928 H 380.247 -3.78675 1.00561 0
M  V30 3929 H 381.944 -3.75917 1.39598 0
M  V30 3930 H 378.534 -3.28757 2.74986 0
M  V30 3931 H 382.718 -3.27337 3.73047 0
M  V30 3932 H 377.974 -3.30562 5.14333 0
M  V30 3933 H 382.148 -3.30338 6.13066 0
M  V30 3934 H 379.775 -3.315 6.84114 0
M  V30 3935 N 381.35 -0.985608 -1.22978 0
M  V30 3936 C 382.58 -0.674603 -1.95276 0
M  V30 3937 C 382.988 0.763483 -1.73111 0
M  V30 3938 O 382.331 1.52601 -1.02268 0
M  V30 3939 C 382.393 -0.891597 -3.48268 0
M  V30 3940 C 382.057 -2.31275 -3.94158 0
M  V30 3941 C 383.054 -3.29179 -4.02415 0
M  V30 3942 C 380.739 -2.64524 -4.27004 0
M  V30 3943 C 382.733 -4.58407 -4.42879 0
M  V30 3944 C 380.42 -3.93974 -4.67149 0
M  V30 3945 C 381.418 -4.90727 -4.75053 0
M  V30 3946 O 381.106 -6.17865 -5.14294 0
M  V30 3947 H 380.838 -0.249251 -0.628371 0
M  V30 3948 H 383.392 -1.32106 -1.5728 0
M  V30 3949 H 381.622 -0.187962 -3.86243 0
M  V30 3950 H 383.311 -0.576957 -4.01779 0
M  V30 3951 H 384.077 -3.04823 -3.77237 0
M  V30 3952 H 379.956 -1.89923 -4.2006 0
M  V30 3953 H 383.5 -5.33926 -4.48964 0
M  V30 3954 H 379.397 -4.18122 -4.91777 0
M  V30 3955 H 380.165 -6.21694 -5.32389 0
M  V30 3956 N 382.828 1.3818 -0.7579 0
M  V30 3957 C 383.76 2.2901 -0.0932177 0
M  V30 3958 C 384.773 1.47958 0.679136 0
M  V30 3959 O 385.962 1.70773 0.519514 0
M  V30 3960 C 383.062 3.26953 0.89192 0
M  V30 3961 C 382.235 4.37045 0.176303 0
M  V30 3962 C 381.294 5.15148 1.07281 0
M  V30 3963 O 380.32 5.66616 0.541728 0
M  V30 3964 N 381.522 5.28542 2.40049 0
M  V30 3965 H 384.287 2.86694 -0.873303 0
M  V30 3966 H 381.848 1.50007 -0.609054 0
M  V30 3967 H 383.84 3.76083 1.49479 0
M  V30 3968 H 382.41 2.70136 1.57306 0
M  V30 3969 H 381.63 3.89493 -0.607328 0
M  V30 3970 H 382.918 5.07801 -0.318718 0
M  V30 3971 H 382.316 4.88285 2.85647 0
M  V30 3972 H 380.873 5.8103 2.95376 0
M  V30 3973 N 384.306 0.507319 1.49211 0
M  V30 3974 C 385.236 -0.256939 2.32082 0
M  V30 3975 C 386.217 -0.956609 1.40652 0
M  V30 3976 O 387.402 -0.946788 1.69557 0
M  V30 3977 C 384.532 -1.31802 3.21318 0
M  V30 3978 C 383.486 -0.737855 4.21592 0
M  V30 3979 C 382.812 -1.89992 4.99807 0
M  V30 3980 C 384.112 0.275325 5.21574 0
M  V30 3981 H 385.806 0.434798 2.96226 0
M  V30 3982 H 383.352 0.210546 1.42452 0
M  V30 3983 H 385.305 -1.86045 3.78107 0
M  V30 3984 H 384.029 -2.03903 2.5513 0
M  V30 3985 H 382.688 -0.217126 3.65956 0
M  V30 3986 H 382.336 -2.60877 4.30061 0
M  V30 3987 H 382.036 -1.51777 5.6766 0
M  V30 3988 H 383.56 -2.44657 5.59442 0
M  V30 3989 H 384.974 -0.179193 5.7302 0
M  V30 3990 H 383.371 0.573649 5.97352 0
M  V30 3991 H 384.441 1.18903 4.70096 0
M  V30 3992 N 385.784 -1.5574 0.241426 0
M  V30 3993 C 387.032 -1.98417 -0.384075 0
M  V30 3994 C 387.353 -1.13078 -1.58866 0
M  V30 3995 O 386.623 -0.212312 -1.94746 0
M  V30 3996 H 385.203 -0.732813 -0.144894 0
M  V30 3997 H 387.865 -1.9193 0.338943 0
M  V30 3998 H 386.961 -3.04219 -0.696939 0
M  V30 3999 N 387.262 0.0317525 -1.57568 0
M  V30 4000 C 388.172 1.05021 -2.0978 0
M  V30 4001 C 389.188 1.39809 -1.03583 0
M  V30 4002 O 390.364 1.49182 -1.35302 0
M  V30 4003 C 387.429 2.33301 -2.56459 0
M  V30 4004 C 386.49 2.0512 -3.77127 0
M  V30 4005 C 385.723 3.27283 -4.2157 0
M  V30 4006 O 385.946 4.37861 -3.65559 0
M  V30 4007 O 384.88 3.13141 -5.14029 0
M  V30 4008 H 388.706 0.636505 -2.96955 0
M  V30 4009 H 386.291 0.248559 -1.47318 0
M  V30 4010 H 388.173 3.08722 -2.86825 0
M  V30 4011 H 386.848 2.73973 -1.72397 0
M  V30 4012 H 385.755 1.27276 -3.51784 0
M  V30 4013 H 387.088 1.69305 -4.62165 0
M  V30 4014 N 388.74 1.54641 0.303973 0
M  V30 4015 C 389.65 1.88439 1.39743 0
M  V30 4016 C 390.666 0.778239 1.55626 0
M  V30 4017 O 391.842 1.07442 1.70347 0
M  V30 4018 C 388.907 2.12212 2.74166 0
M  V30 4019 C 387.968 3.35936 2.67293 0
M  V30 4020 C 387.201 3.58566 3.95305 0
M  V30 4021 O 387.424 2.84263 4.9452 0
M  V30 4022 O 386.358 4.52078 3.97378 0
M  V30 4023 H 390.184 2.81458 1.14083 0
M  V30 4024 H 387.769 1.40793 0.499768 0
M  V30 4025 H 389.651 2.29067 3.53704 0
M  V30 4026 H 388.326 1.22379 2.99675 0
M  V30 4027 H 387.233 3.24448 1.86237 0
M  V30 4028 H 388.566 4.2589 2.46736 0
M  V30 4029 N 390.218 -0.567019 1.47046 0
M  V30 4030 C 391.181 -1.65696 1.58359 0
M  V30 4031 C 392.181 -1.54097 0.459441 0
M  V30 4032 O 393.371 -1.58432 0.724225 0
M  V30 4033 C 390.503 -3.05197 1.51879 0
M  V30 4034 H 391.696 -1.57019 2.5551 0
M  V30 4035 H 389.249 -0.786148 1.3509 0
M  V30 4036 H 389.984 -3.19417 0.560673 0
M  V30 4037 H 389.769 -3.15025 2.33455 0
M  V30 4038 H 391.259 -3.84511 1.62913 0
M  V30 4039 N 391.696 -1.35014 -0.812953 0
M  V30 4040 C 392.626 -1.30069 -1.93919 0
M  V30 4041 C 393.607 -0.176275 -1.69184 0
M  V30 4042 O 394.792 -0.370227 -1.90638 0
M  V30 4043 C 391.922 -1.06547 -3.30552 0
M  V30 4044 C 390.876 -2.15561 -3.69753 0
M  V30 4045 C 390.202 -1.77214 -5.04479 0
M  V30 4046 C 391.502 -3.57476 -3.808 0
M  V30 4047 H 393.196 -2.24303 -1.98314 0
M  V30 4048 H 390.742 -1.07977 -0.952736 0
M  V30 4049 H 392.695 -1.01729 -4.08937 0
M  V30 4050 H 391.419 -0.0875719 -3.26483 0
M  V30 4051 H 390.078 -2.19466 -2.9365 0
M  V30 4052 H 389.726 -0.780589 -4.96906 0
M  V30 4053 H 389.426 -2.50184 -5.31678 0
M  V30 4054 H 390.95 -1.7391 -5.8531 0
M  V30 4055 H 392.364 -3.55929 -4.4943 0
M  V30 4056 H 390.761 -4.29152 -4.19462 0
M  V30 4057 H 391.831 -3.94091 -2.82525 0
M  V30 4058 N 393.175 1.03435 -1.18907 0
M  V30 4059 C 394.105 2.13503 -0.945448 0
M  V30 4060 C 395.086 1.69682 0.119189 0
M  V30 4061 O 396.271 1.94169 -0.034707 0
M  V30 4062 C 393.401 3.44004 -0.477316 0
M  V30 4063 C 392.355 4.0148 -1.48316 0
M  V30 4064 C 391.681 5.27537 -0.872311 0
M  V30 4065 C 392.981 4.36921 -2.86177 0
M  V30 4066 H 394.675 2.34141 -1.86597 0
M  V30 4067 H 392.221 1.12523 -0.898584 0
M  V30 4068 H 394.174 4.20372 -0.294204 0
M  V30 4069 H 392.898 3.23072 0.478786 0
M  V30 4070 H 391.557 3.27201 -1.65332 0
M  V30 4071 H 391.205 5.02917 0.0911752 0
M  V30 4072 H 390.905 5.66954 -1.54393 0
M  V30 4073 H 392.429 6.06576 -0.699871 0
M  V30 4074 H 393.843 5.04248 -2.72776 0
M  V30 4075 H 392.24 4.87405 -3.50081 0
M  V30 4076 H 393.31 3.46466 -3.39248 0
M  V30 4077 N 394.653 0.992116 1.22453 0
M  V30 4078 C 395.6 0.541731 2.24352 0
M  V30 4079 C 396.57 -0.425519 1.60557 0
M  V30 4080 O 397.755 -0.330453 1.87917 0
M  V30 4081 C 394.895 -0.138248 3.44823 0
M  V30 4082 C 394.008 0.870649 4.23136 0
M  V30 4083 C 393.143 0.164269 5.30946 0
M  V30 4084 C 392.182 1.16159 6.00977 0
M  V30 4085 N 391.319 0.483568 7.00433 0
M  V30 4086 H 396.159 1.41541 2.62241 0
M  V30 4087 H 393.696 0.709013 1.28885 0
M  V30 4088 H 395.654 -0.5494 4.13567 0
M  V30 4089 H 394.284 -0.975721 3.077 0
M  V30 4090 H 393.336 1.40013 3.53696 0
M  V30 4091 H 394.648 1.63014 4.7141 0
M  V30 4092 H 393.802 -0.303653 6.0594 0
M  V30 4093 H 392.541 -0.627733 4.83643 0
M  V30 4094 H 391.546 1.64015 5.24766 0
M  V30 4095 H 392.771 1.95445 6.50368 0
M  V30 4096 H 390.717 -0.289012 6.55363 0
M  V30 4097 H 390.634 1.18152 7.4671 0
M  V30 4098 H 391.902 0.0384219 7.79491 0
M  V30 4099 N 396.131 -1.37776 0.765217 0
M  V30 4100 C 397.378 -1.99849 0.326588 0
M  V30 4101 C 397.706 -1.60746 -1.09504 0
M  V30 4102 O 396.961 -0.84202 -1.76659 0
M  V30 4103 C 397.26 -3.5504 0.410053 0
M  V30 4104 C 396.926 -4.13891 1.78899 0
M  V30 4105 C 395.588 -4.29678 2.16635 0
M  V30 4106 C 397.94 -4.46236 2.69301 0
M  V30 4107 C 395.268 -4.7511 3.44221 0
M  V30 4108 C 397.62 -4.93089 3.9629 0
M  V30 4109 C 396.284 -5.07082 4.34078 0
M  V30 4110 H 395.554 -0.7313 0.119507 0
M  V30 4111 H 398.201 -1.64645 0.977968 0
M  V30 4112 H 396.506 -3.90451 -0.324878 0
M  V30 4113 H 398.203 -4.00966 0.0520699 0
M  V30 4114 H 394.793 -4.02026 1.48569 0
M  V30 4115 H 398.977 -4.3363 2.41409 0
M  V30 4116 H 394.233 -4.84129 3.73402 0
M  V30 4117 H 398.407 -5.17084 4.66472 0
M  V30 4118 H 396.034 -5.42046 5.33001 0
M  V30 4119 N 397.609 -0.515225 -1.4894 0
M  V30 4120 C 399.025 -0.172099 -1.58669 0
M  V30 4121 C 399.225 1.32405 -1.51892 0
M  V30 4122 O 398.281 2.10116 -1.40027 0
M  V30 4123 C 399.594 -0.761533 -2.90897 0
M  V30 4124 C 401.142 -0.728926 -3.04394 0
M  V30 4125 C 401.617 -1.29667 -4.39261 0
M  V30 4126 N 403.108 -1.25799 -4.4579 0
M  V30 4127 C 403.843 -1.66733 -5.48623 0
M  V30 4128 N 403.339 -2.15327 -6.58488 0
M  V30 4129 N 405.132 -1.58061 -5.39419 0
M  V30 4130 H 397.283 -1.48778 -1.51588 0
M  V30 4131 H 399.546 -0.617968 -0.718901 0
M  V30 4132 H 399.252 -1.81136 -3.01468 0
M  V30 4133 H 399.126 -0.230106 -3.76497 0
M  V30 4134 H 401.513 0.312098 -2.93445 0
M  V30 4135 H 401.594 -1.29766 -2.20442 0
M  V30 4136 H 401.238 -2.33655 -4.50963 0
M  V30 4137 H 401.168 -0.703752 -5.21876 0
M  V30 4138 H 403.659 -0.902102 -3.66975 0
M  V30 4139 H 403.972 -2.44594 -7.33071 0
M  V30 4140 H 402.317 -2.19311 -6.59491 0
M  V30 4141 H 405.508 -1.19906 -4.52482 0
M  V30 4142 H 405.681 -1.90284 -6.19432 0
M  V30 4143 N 399.087 1.5561 -0.249682 0
M  V30 4144 C 399.997 2.25143 0.659375 0
M  V30 4145 C 401.013 1.2685 1.19101 0
M  V30 4146 O 402.189 1.59732 1.22669 0
M  V30 4147 C 399.254 2.93945 1.8384 0
M  V30 4148 C 398.315 4.07655 1.34596 0
M  V30 4149 C 397.548 4.73167 2.46878 0
M  V30 4150 O 397.771 4.37768 3.65671 0
M  V30 4151 O 396.705 5.61623 2.16478 0
M  V30 4152 H 400.531 3.03545 0.0968698 0
M  V30 4153 H 398.116 1.49389 -0.018074 0
M  V30 4154 H 399.998 3.37271 2.52638 0
M  V30 4155 H 398.673 2.18481 2.38847 0
M  V30 4156 H 397.58 3.68839 0.625174 0
M  V30 4157 H 398.913 4.84946 0.841941 0
M  V30 4158 N 400.565 -0.0233959 1.57583 0
M  V30 4159 C 401.842 -0.748794 1.807 0
M  V30 4160 C 402.222 -1.9327 0.849106 0
M  V30 4161 O 401.57 -2.28247 -0.107468 0
M  V30 4162 C 401.78 -1.17651 3.28571 0
M  V30 4163 C 403.128 -1.59008 3.93702 0
M  V30 4164 O 404.152 -1.27094 3.32755 0
M  V30 4165 O 403.011 -2.18264 5.01022 0
M  V30 4166 H 400.105 -0.362578 0.743281 0
M  V30 4167 H 402.651 0.000261958 1.697 0
M  V30 4168 H 401.423 -0.331603 3.89892 0
M  V30 4169 H 401.046 -1.98541 3.44481 0
M  V30 4170 N 402.043 -1.548 -0.295768 0
M  V30 4171 C 402.953 -1.89177 -1.38742 0
M  V30 4172 C 403.969 -0.786481 -1.55211 0
M  V30 4173 O 405.145 -1.08344 -1.69775 0
M  V30 4174 C 402.21 -2.13663 -2.73036 0
M  V30 4175 C 401.271 -3.37349 -2.65508 0
M  V30 4176 C 400.504 -3.60658 -3.93398 0
M  V30 4177 O 400.727 -2.86882 -4.93006 0
M  V30 4178 O 399.661 -4.54179 -3.94975 0
M  V30 4179 H 403.487 -2.82059 -1.12589 0
M  V30 4180 H 401.072 -1.41056 -0.492295 0
M  V30 4181 H 402.954 -2.3094 -3.52484 0
M  V30 4182 H 401.629 -1.23967 -2.99022 0
M  V30 4183 H 400.536 -3.25431 -1.84514 0
M  V30 4184 H 401.869 -4.27192 -2.44474 0
M  V30 4185 N 403.521 0.559213 -1.47345 0
M  V30 4186 C 404.769 1.31388 -1.53563 0
M  V30 4187 C 405.09 1.93985 -0.198678 0
M  V30 4188 O 404.36 1.79825 0.777167 0
M  V30 4189 H 402.94 0.487901 -0.565652 0
M  V30 4190 H 405.602 0.65315 -1.8363 0
M  V30 4191 H 404.698 2.10844 -2.30111 0
M  V30 4192 N 404.999 1.35443 0.805782 0
M  V30 4193 C 406.246 1.28761 1.56291 0
M  V30 4194 C 406.574 -0.137747 1.94012 0
M  V30 4195 O 405.829 -1.1032 1.61642 0
M  V30 4196 C 406.128 2.14045 2.86216 0
M  V30 4197 C 405.794 3.62826 2.67709 0
M  V30 4198 C 404.456 4.0338 2.6237 0
M  V30 4199 C 406.808 4.57227 2.50186 0
M  V30 4200 C 404.136 5.36501 2.37451 0
M  V30 4201 C 406.488 5.90547 2.26797 0
M  V30 4202 C 405.152 6.30245 2.1988 0
M  V30 4203 H 404.422 0.471171 0.571908 0
M  V30 4204 H 407.069 1.67347 0.930974 0
M  V30 4205 H 405.374 1.68342 3.53791 0
M  V30 4206 H 407.071 2.0621 3.43917 0
M  V30 4207 H 403.661 3.30644 2.72713 0
M  V30 4208 H 407.845 4.2678 2.53323 0
M  V30 4209 H 403.101 5.66259 2.30567 0
M  V30 4210 H 407.275 6.63274 2.12228 0
M  V30 4211 H 404.902 7.33328 2.00333 0
M  V30 4212 N 406.477 -1.02803 1.19454 0
M  V30 4213 C 407.723 -1.76478 0.999171 0
M  V30 4214 C 408.056 -1.88456 -0.468828 0
M  V30 4215 O 407.331 -1.40198 -1.34814 0
M  V30 4216 C 407.614 -3.19044 1.66981 0
M  V30 4217 C 407.467 -3.14932 3.21151 0
M  V30 4218 C 408.786 -4.17456 1.39349 0
M  V30 4219 H 405.905 -0.640614 0.364393 0
M  V30 4220 H 408.547 -1.20005 1.47305 0
M  V30 4221 H 406.697 -3.67263 1.2669 0
M  V30 4222 H 408.369 -2.74605 3.70661 0
M  V30 4223 H 406.612 -2.52625 3.52652 0
M  V30 4224 H 407.283 -4.1566 3.63223 0
M  V30 4225 H 409.759 -3.77842 1.74283 0
M  V30 4226 H 408.635 -5.154 1.88823 0
M  V30 4227 H 408.896 -4.40949 0.318813 0
M  V30 4228 N 407.956 -0.998596 -1.21925 0
M  V30 4229 C 409.372 -0.710303 -1.42923 0
M  V30 4230 C 409.572 0.716933 -1.88314 0
M  V30 4231 O 408.628 1.48712 -2.04062 0
M  V30 4232 C 409.941 -1.72072 -2.466 0
M  V30 4233 C 411.489 -1.73681 -2.60392 0
M  V30 4234 C 411.964 -2.73601 -3.67296 0
M  V30 4235 N 413.455 -2.7223 -3.7476 0
M  V30 4236 C 414.19 -3.46206 -4.57087 0
M  V30 4237 N 413.686 -4.29802 -5.43362 0
M  V30 4238 N 415.479 -3.34886 -4.51451 0
M  V30 4239 H 407.63 -1.92028 -0.9077 0
M  V30 4240 H 409.893 -0.828487 -0.460775 0
M  V30 4241 H 409.599 -2.74231 -2.20206 0
M  V30 4242 H 409.473 -1.51818 -3.45299 0
M  V30 4243 H 411.86 -0.722173 -2.86127 0
M  V30 4244 H 411.941 -1.98005 -1.61949 0
M  V30 4245 H 411.585 -3.75217 -3.42307 0
M  V30 4246 H 411.515 -2.46545 -4.65321 0
M  V30 4247 H 414.006 -2.11576 -3.1312 0
M  V30 4248 H 414.319 -4.83061 -6.03218 0
M  V30 4249 H 412.664 -4.33887 -5.42925 0
M  V30 4250 H 415.855 -2.69015 -3.83078 0
M  V30 4251 H 416.028 -3.92796 -5.15379 0
M  V30 4252 N 409.434 1.37368 -0.772513 0
M  V30 4253 C 410.344 2.34053 -0.160081 0
M  V30 4254 C 411.36 1.60216 0.678728 0
M  V30 4255 O 412.536 1.92303 0.59847 0
M  V30 4256 C 409.601 3.3939 0.708182 0
M  V30 4257 C 408.662 4.29048 -0.147172 0
M  V30 4258 C 407.895 5.29354 0.679744 0
M  V30 4259 O 408.118 5.3723 1.91678 0
M  V30 4260 O 407.052 6.01835 0.0885444 0
M  V30 4261 H 410.878 2.88159 -0.959053 0
M  V30 4262 H 408.463 1.39543 -0.533685 0
M  V30 4263 H 410.345 4.03839 1.20384 0
M  V30 4264 H 409.02 2.8761 1.48533 0
M  V30 4265 H 407.927 3.67697 -0.689205 0
M  V30 4266 H 409.26 4.84134 -0.887423 0
M  V30 4267 N 410.912 0.523116 1.48665 0
M  V30 4268 C 411.822 -0.247406 2.33292 0
M  V30 4269 C 412.838 -0.945769 1.46052 0
M  V30 4270 O 414.014 -0.922253 1.79043 0
M  V30 4271 C 411.079 -1.28487 3.22012 0
M  V30 4272 C 410.14 -0.597592 4.2512 0
M  V30 4273 C 409.373 -1.58563 5.09601 0
M  V30 4274 O 409.596 -2.81763 4.95949 0
M  V30 4275 O 408.53 -1.12879 5.91221 0
M  V30 4276 H 412.356 0.445869 3.00409 0
M  V30 4277 H 409.941 0.284128 1.46673 0
M  V30 4278 H 411.823 -1.88459 3.7691 0
M  V30 4279 H 410.498 -1.96068 2.57564 0
M  V30 4280 H 409.405 0.0424407 3.74076 0
M  V30 4281 H 410.738 0.0361517 4.92187 0
M  V30 4282 N 412.39 -1.55475 0.257931 0
M  V30 4283 C 413.3 -2.2549 -0.647425 0
M  V30 4284 C 414.316 -1.2748 -1.18427 0
M  V30 4285 O 415.492 -1.6038 -1.2182 0
M  V30 4286 C 412.557 -2.94916 -1.82278 0
M  V30 4287 C 411.618 -4.08363 -1.32432 0
M  V30 4288 C 410.851 -4.74469 -2.44366 0
M  V30 4289 O 411.074 -4.39701 -3.63344 0
M  V30 4290 O 410.008 -5.62763 -2.13497 0
M  V30 4291 H 413.834 -3.03593 -0.0807707 0
M  V30 4292 H 411.419 -1.49377 0.0259962 0
M  V30 4293 H 413.301 -3.38606 -2.50846 0
M  V30 4294 H 411.976 -2.19744 -2.37685 0
M  V30 4295 H 410.883 -3.69166 -0.605605 0
M  V30 4296 H 412.216 -4.85385 -0.816211 0
M  V30 4297 N 413.868 0.0150385 -1.57593 0
M  V30 4298 C 415.145 0.7392 -1.81094 0
M  V30 4299 C 415.525 1.92817 -0.859344 0
M  V30 4300 O 414.873 2.28301 0.095362 0
M  V30 4301 C 415.083 1.15907 -3.29191 0
M  V30 4302 C 416.431 1.56918 -3.9454 0
M  V30 4303 O 417.455 1.25328 -3.33424 0
M  V30 4304 O 416.314 2.15604 -5.02173 0
M  V30 4305 H 413.408 0.358631 -0.745193 0
M  V30 4306 H 415.954 -0.00926156 -1.69697 0
M  V30 4307 H 414.726 0.310921 -3.90063 0
M  V30 4308 H 414.349 1.96711 -3.45529 0
M  V30 4309 N 415.346 1.54954 0.287554 0
M  V30 4310 C 416.762 1.46469 0.633964 0
M  V30 4311 C 416.962 0.666865 1.90145 0
M  V30 4312 O 416.018 0.179906 2.51858 0
M  V30 4313 C 417.331 2.90556 0.774454 0
M  V30 4314 C 418.879 3.00681 0.869462 0
M  V30 4315 C 419.354 4.45993 1.04184 0
M  V30 4316 N 420.845 4.4976 1.10772 0
M  V30 4317 C 421.58 5.59393 1.25964 0
M  V30 4318 N 421.076 6.78923 1.37968 0
M  V30 4319 N 422.869 5.47107 1.28959 0
M  V30 4320 H 415.02 2.05288 -0.545041 0
M  V30 4321 H 417.283 0.930305 -0.182308 0
M  V30 4322 H 416.989 3.51594 -0.086207 0
M  V30 4323 H 416.863 3.38743 1.6593 0
M  V30 4324 H 419.25 2.39749 1.7206 0
M  V30 4325 H 419.331 2.55769 -0.0396831 0
M  V30 4326 H 418.975 5.07524 0.195422 0
M  V30 4327 H 418.905 4.88548 1.96542 0
M  V30 4328 H 421.396 3.63651 1.02794 0
M  V30 4329 H 421.709 7.58231 1.49353 0
M  V30 4330 H 420.054 6.81763 1.34999 0
M  V30 4331 H 423.245 4.52668 1.19202 0
M  V30 4332 H 423.418 6.32595 1.40455 0
M  V30 4333 N 416.824 -0.551391 1.4764 0
M  V30 4334 C 417.787 -1.64007 1.60107 0
M  V30 4335 C 418.787 -1.53601 0.47576 0
M  V30 4336 O 419.977 -1.57655 0.740988 0
M  V30 4337 C 417.109 -3.03569 1.55108 0
M  V30 4338 H 418.302 -1.543 2.57161 0
M  V30 4339 H 415.855 -0.771776 1.35917 0
M  V30 4340 H 416.59 -3.18804 0.594519 0
M  V30 4341 H 416.375 -3.12532 2.36783 0
M  V30 4342 H 417.865 -3.82762 1.66982 0
M  V30 4343 N 418.302 -1.35869 -0.798587 0
M  V30 4344 C 419.232 -1.32118 -1.92528 0
M  V30 4345 C 420.213 -0.194209 -1.68988 0
M  V30 4346 O 421.398 -0.390426 -1.90235 0
M  V30 4347 C 418.528 -1.10047 -3.29404 0
M  V30 4348 C 417.482 -2.19471 -3.67446 0
M  V30 4349 C 416.808 -1.82555 -5.02571 0
M  V30 4350 C 418.108 -3.61495 -3.76987 0
M  V30 4351 H 419.802 -2.26394 -1.95924 0
M  V30 4352 H 417.348 -1.08981 -0.94123 0
M  V30 4353 H 419.301 -1.06061 -4.07835 0
M  V30 4354 H 418.025 -0.122195 -3.26371 0
M  V30 4355 H 416.684 -2.22568 -2.91306 0
M  V30 4356 H 416.332 -0.833249 -4.9605 0
M  V30 4357 H 416.032 -2.5581 -5.28995 0
M  V30 4358 H 417.556 -1.80108 -5.83432 0
M  V30 4359 H 418.97 -3.60676 -4.4563 0
M  V30 4360 H 417.367 -4.33577 -4.14887 0
M  V30 4361 H 418.437 -3.97065 -2.78329 0
M  V30 4362 N 419.78 1.02168 -1.19998 0
M  V30 4363 C 421.191 1.57135 -1.00825 0
M  V30 4364 C 421.542 1.91276 0.436818 0
M  V30 4365 O 420.667 1.71679 1.3174 0
M  V30 4366 C 421.262 2.85514 -1.82393 0
M  V30 4367 C 419.821 3.37027 -1.67601 0
M  V30 4368 C 418.968 2.10388 -1.80644 0
M  V30 4369 H 421.919 0.846106 -1.34264 0
M  V30 4370 H 421.94 3.56711 -1.32429 0
M  V30 4371 H 421.452 2.60634 -2.87561 0
M  V30 4372 H 419.553 3.66878 -0.650485 0
M  V30 4373 H 419.666 4.09572 -2.4857 0
M  V30 4374 H 418.03 2.22601 -1.23778 0
M  V30 4375 H 418.813 1.8794 -2.87286 0
M  V30 4376 N 421.258 1.00505 1.21394 0
M  V30 4377 C 422.168 0.574806 2.27449 0
M  V30 4378 C 423.184 -0.382206 1.6975 0
M  V30 4379 O 424.36 -0.246027 1.99892 0
M  V30 4380 C 421.425 -0.0917414 3.46579 0
M  V30 4381 C 420.486 0.909758 4.1955 0
M  V30 4382 C 419.719 0.274924 5.32991 0
M  V30 4383 O 419.942 -0.928254 5.62796 0
M  V30 4384 O 418.876 0.985877 5.93771 0
M  V30 4385 H 422.702 1.45744 2.66444 0
M  V30 4386 H 420.287 0.773923 1.27792 0
M  V30 4387 H 422.169 -0.464551 4.18832 0
M  V30 4388 H 420.844 -0.948755 3.09484 0
M  V30 4389 H 419.751 1.33372 3.49518 0
M  V30 4390 H 421.084 1.73636 4.60555 0
M  V30 4391 N 422.737 -1.36956 0.779787 0
M  V30 4392 C 423.685 -2.32053 0.15942 0
M  V30 4393 C 424.679 -1.55333 -0.675878 0
M  V30 4394 O 425.885 -1.70668 -0.57204 0
M  V30 4395 H 422.26 -0.751286 0.0327707 0
M  V30 4396 H 424.231 -2.8195 0.977078 0
M  V30 4397 C 422.98 -3.40602 -0.698977 0
M  V30 4398 H 422.303 -3.99746 -0.0655966 0
M  V30 4399 H 423.743 -4.09486 -1.09989 0
M  V30 4400 C 422.202 -2.81359 -1.85307 0
M  V30 4401 O 422.732 -2.72751 -2.94906 0
M  V30 4402 N 420.938 -2.38786 -1.65619 0
M  V30 4403 H 420.485 -2.45987 -0.764725 0
M  V30 4404 H 420.443 -1.99493 -2.43002 0
M  V30 4405 N 424.215 -0.530993 -1.48385 0
M  V30 4406 C 425.125 0.23503 -2.3342 0
M  V30 4407 C 426.141 0.93801 -1.46552 0
M  V30 4408 O 427.317 0.912745 -1.7953 0
M  V30 4409 C 424.382 1.26778 -3.22689 0
M  V30 4410 C 423.443 0.575038 -4.25431 0
M  V30 4411 C 422.676 1.55858 -5.10435 0
M  V30 4412 O 422.899 2.79129 -4.97437 0
M  V30 4413 O 421.833 1.09742 -5.91811 0
M  V30 4414 H 425.659 -0.461794 -3.00169 0
M  V30 4415 H 423.244 -0.291903 -1.46521 0
M  V30 4416 H 425.126 1.86457 -3.77904 0
M  V30 4417 H 423.801 1.94699 -2.586 0
M  V30 4418 H 422.708 -0.0622782 -3.74048 0
M  V30 4419 H 424.041 -0.062253 -4.92161 0
M  V30 4420 N 425.693 1.55336 -0.266172 0
M  V30 4421 C 426.94 1.99397 0.353158 0
M  V30 4422 C 427.268 1.15451 1.56529 0
M  V30 4423 O 426.523 0.209974 1.9457 0
M  V30 4424 C 426.822 3.48606 0.787957 0
M  V30 4425 C 426.488 4.49773 -0.318541 0
M  V30 4426 C 425.15 4.77158 -0.62239 0
M  V30 4427 C 427.502 5.10212 -1.06459 0
M  V30 4428 C 424.83 5.62251 -1.67602 0
M  V30 4429 C 427.182 5.96449 -2.10788 0
M  V30 4430 C 425.846 6.22158 -2.41817 0
M  V30 4431 H 425.116 0.729644 0.12923 0
M  V30 4432 H 427.763 1.87732 -0.37802 0
M  V30 4433 H 426.068 3.57701 1.59866 0
M  V30 4434 H 427.765 3.80098 1.27775 0
M  V30 4435 H 424.355 4.2854 -0.0715925 0
M  V30 4436 H 428.539 4.89086 -0.843098 0
M  V30 4437 H 423.795 5.80419 -1.92155 0
M  V30 4438 H 427.969 6.42317 -2.69076 0
M  V30 4439 H 425.596 6.87888 -3.23596 0
M  V30 4440 N 427.171 -0.0066808 1.57599 0
M  V30 4441 C 428.118 -1.00024 2.08 0
M  V30 4442 C 429.088 -1.34549 0.973943 0
M  V30 4443 O 430.273 -1.44502 1.24595 0
M  V30 4444 C 427.413 -2.2891 2.58252 0
M  V30 4445 C 426.526 -2.00346 3.82734 0
M  V30 4446 C 425.661 -3.23265 4.21513 0
M  V30 4447 C 424.7 -2.90357 5.3885 0
M  V30 4448 N 423.837 -4.05793 5.72954 0
M  V30 4449 H 428.677 -0.563499 2.92624 0
M  V30 4450 H 426.214 -0.266592 1.44664 0
M  V30 4451 H 428.172 -3.04247 2.85464 0
M  V30 4452 H 426.802 -2.70265 1.76512 0
M  V30 4453 H 425.854 -1.15406 3.62471 0
M  V30 4454 H 427.166 -1.72086 4.68175 0
M  V30 4455 H 426.32 -4.06953 4.49971 0
M  V30 4456 H 425.059 -3.54657 3.34768 0
M  V30 4457 H 424.064 -2.05075 5.10122 0
M  V30 4458 H 425.289 -2.60219 6.27266 0
M  V30 4459 H 423.235 -4.37094 4.89167 0
M  V30 4460 H 423.152 -3.81034 6.52954 0
M  V30 4461 H 424.42 -4.90289 6.06001 0
M  V30 4462 N 428.649 -1.55105 -0.279332 0
M  V30 4463 C 429.596 -1.8755 -1.34513 0
M  V30 4464 C 430.566 -0.726384 -1.49375 0
M  V30 4465 O 431.751 -0.977063 -1.63884 0
M  V30 4466 C 428.891 -2.14738 -2.70151 0
M  V30 4467 C 428.004 -3.42285 -2.63562 0
M  V30 4468 C 427.139 -3.59206 -3.91337 0
M  V30 4469 C 426.178 -4.80467 -3.79233 0
M  V30 4470 N 425.315 -4.94079 -4.98829 0
M  V30 4471 H 430.155 -2.78456 -1.06143 0
M  V30 4472 H 427.692 -1.37867 -0.512936 0
M  V30 4473 H 429.65 -2.28501 -3.49061 0
M  V30 4474 H 428.28 -1.27075 -2.96735 0
M  V30 4475 H 427.332 -3.37029 -1.76397 0
M  V30 4476 H 428.644 -4.31328 -2.50515 0
M  V30 4477 H 427.798 -3.72751 -4.78687 0
M  V30 4478 H 426.537 -2.68337 -4.07243 0
M  V30 4479 H 425.542 -4.66932 -2.90266 0
M  V30 4480 H 426.767 -5.72765 -3.64852 0
M  V30 4481 H 424.713 -4.06139 -5.15158 0
M  V30 4482 H 424.63 -5.77156 -4.8829 0
M  V30 4483 H 425.898 -5.12003 -5.8777 0
M  V30 4484 N 430.127 0.543554 -1.4793 0
M  V30 4485 C 431.059 1.665 -1.57513 0
M  V30 4486 C 432.072 1.56156 -0.460333 0
M  V30 4487 O 433.261 1.62865 -0.730573 0
M  V30 4488 C 430.361 3.05063 -1.47614 0
M  V30 4489 C 429.534 3.41024 -2.739 0
M  V30 4490 C 428.593 4.58809 -2.57645 0
M  V30 4491 O 427.619 4.62707 -3.31498 0
M  V30 4492 N 428.821 5.56149 -1.66368 0
M  V30 4493 H 431.586 1.5872 -2.5422 0
M  V30 4494 H 429.147 0.730517 -1.44482 0
M  V30 4495 H 431.139 3.81712 -1.34455 0
M  V30 4496 H 429.709 3.06994 -0.589359 0
M  V30 4497 H 428.929 2.53687 -3.01723 0
M  V30 4498 H 430.217 3.61831 -3.57709 0
M  V30 4499 H 429.615 5.55767 -1.05543 0
M  V30 4500 H 428.172 6.32071 -1.59154 0
M  V30 4501 N 431.605 1.3629 0.791371 0
M  V30 4502 C 432.854 1.29742 1.54434 0
M  V30 4503 C 433.167 -0.121729 1.95221 0
M  V30 4504 O 434.373 -0.309579 2.69729 0
M  V30 4505 C 432.829 2.27623 2.78776 0
M  V30 4506 C 432.437 3.74963 2.45166 0
M  V30 4507 C 434.181 2.30047 3.56761 0
M  V30 4508 C 432.088 4.64626 3.65891 0
M  V30 4509 H 431.018 0.482113 0.579727 0
M  V30 4510 H 433.669 1.61642 0.868565 0
M  V30 4511 H 432.051 1.88714 3.48142 0
M  V30 4512 H 433.225 4.22596 1.83709 0
M  V30 4513 H 431.54 3.75295 1.80396 0
M  V30 4514 H 434.137 2.94247 4.46456 0
M  V30 4515 H 434.48 1.30846 3.95203 0
M  V30 4516 H 435.013 2.67563 2.94372 0
M  V30 4517 H 431.752 5.64883 3.32547 0
M  V30 4518 H 431.272 4.2171 4.26521 0
M  V30 4519 H 432.951 4.80801 4.32943 0
M  V30 4520 N 433.083 -1.0153 1.20538 0
M  V30 4521 C 434.329 -1.75517 1.02787 0
M  V30 4522 C 434.684 -1.87411 -0.435289 0
M  V30 4523 O 433.977 -1.38982 -1.31889 0
M  V30 4524 C 434.171 -3.17213 1.64654 0
M  V30 4525 C 434 -3.19134 3.16834 0
M  V30 4526 C 432.77 -3.26301 3.85818 0
M  V30 4527 C 434.968 -3.05077 4.14044 0
M  V30 4528 N 432.95 -3.17739 5.25276 0
M  V30 4529 C 434.321 -3.04299 5.40187 0
M  V30 4530 C 436.376 -2.89303 4.05226 0
M  V30 4531 C 435.079 -2.89365 6.58529 0
M  V30 4532 C 437.105 -2.75723 5.23193 0
M  V30 4533 C 436.467 -2.75612 6.48242 0
M  V30 4534 H 432.566 -0.652919 0.430373 0
M  V30 4535 H 435.15 -1.20755 1.52729 0
M  V30 4536 H 433.321 -3.70266 1.17294 0
M  V30 4537 H 435.053 -3.79637 1.40208 0
M  V30 4538 H 431.808 -3.33078 3.36684 0
M  V30 4539 H 432.232 -3.16829 5.98288 0
M  V30 4540 H 436.874 -2.88201 3.09354 0
M  V30 4541 H 434.592 -2.89216 7.54573 0
M  V30 4542 H 438.178 -2.64533 5.18183 0
M  V30 4543 H 437.058 -2.65224 7.37988 0
M  V30 4544 N 434.561 -1.01147 -1.20859 0
M  V30 4545 C 435.491 -0.597663 -2.25722 0
M  V30 4546 C 436.472 0.384744 -1.65692 0
M  V30 4547 O 437.657 0.271303 -1.92296 0
M  V30 4548 C 434.787 0.0700149 -3.47229 0
M  V30 4549 C 433.741 -0.832843 -4.19819 0
M  V30 4550 C 433.067 -0.0312202 -5.34691 0
M  V30 4551 C 434.367 -2.1385 -4.76514 0
M  V30 4552 H 436.061 -1.47423 -2.60589 0
M  V30 4553 H 433.607 -0.710301 -1.25263 0
M  V30 4554 H 435.56 0.37103 -4.19763 0
M  V30 4555 H 434.284 0.981259 -3.11511 0
M  V30 4556 H 432.943 -1.11778 -3.49144 0
M  V30 4557 H 432.591 0.881515 -4.95215 0
M  V30 4558 H 432.291 -0.632434 -5.84187 0
M  V30 4559 H 433.815 0.26346 -6.10031 0
M  V30 4560 H 435.229 -1.9002 -5.40893 0
M  V30 4561 H 433.626 -2.69012 -5.36426 0
M  V30 4562 H 434.696 -2.80495 -3.95538 0
M  V30 4563 N 436.039 1.36541 -0.78704 0
M  V30 4564 C 436.969 2.32659 -0.197992 0
M  V30 4565 C 437.95 1.56533 0.665697 0
M  V30 4566 O 439.135 1.84698 0.60001 0
M  V30 4567 C 436.265 3.40778 0.669901 0
M  V30 4568 C 435.219 4.27897 -0.0937039 0
M  V30 4569 C 434.545 5.27163 0.894629 0
M  V30 4570 C 435.845 5.06334 -1.28154 0
M  V30 4571 H 437.539 2.82171 -1.00099 0
M  V30 4572 H 435.085 1.35665 -0.482793 0
M  V30 4573 H 437.038 4.07008 1.09191 0
M  V30 4574 H 435.762 2.89827 1.50558 0
M  V30 4575 H 434.421 3.6322 -0.49666 0
M  V30 4576 H 434.069 4.72486 1.72527 0
M  V30 4577 H 433.769 5.86317 0.388149 0
M  V30 4578 H 435.293 5.96266 1.31525 0
M  V30 4579 H 436.707 5.65617 -0.93541 0
M  V30 4580 H 435.104 5.74888 -1.72115 0
M  V30 4581 H 436.174 4.38114 -2.07807 0
M  V30 4582 N 437.518 0.538854 1.48102 0
M  V30 4583 C 438.765 0.0080018 2.02498 0
M  V30 4584 C 439.093 -1.33437 1.41509 0
M  V30 4585 O 438.348 -1.87709 0.553507 0
M  V30 4586 C 438.647 -0.153808 3.57069 0
M  V30 4587 C 438.313 1.11533 4.36888 0
M  V30 4588 C 436.975 1.46314 4.58417 0
M  V30 4589 C 439.327 1.95718 4.83057 0
M  V30 4590 C 436.655 2.6516 5.23361 0
M  V30 4591 C 439.007 3.13751 5.49312 0
M  V30 4592 C 437.671 3.48866 5.69077 0
M  V30 4593 H 436.941 0.00292807 0.740994 0
M  V30 4594 H 439.588 0.706668 1.77984 0
M  V30 4595 H 437.893 -0.935309 3.80472 0
M  V30 4596 H 439.59 -0.579607 3.96789 0
M  V30 4597 H 436.18 0.834484 4.20398 0
M  V30 4598 H 440.364 1.70158 4.66219 0
M  V30 4599 H 435.62 2.92558 5.36861 0
M  V30 4600 H 439.794 3.79282 5.84053 0
M  V30 4601 H 437.421 4.41054 6.19173 0
M  V30 4602 N 438.996 -1.55193 0.274407 0
M  V30 4603 C 439.906 -2.26164 -0.623473 0
M  V30 4604 C 440.922 -1.28729 -1.17068 0
M  V30 4605 O 442.098 -1.61663 -1.20112 0
M  V30 4606 C 439.163 -2.96833 -1.7914 0
M  V30 4607 C 438.224 -4.09745 -1.28093 0
M  V30 4608 C 437.457 -4.77034 -2.3932 0
M  V30 4609 O 437.68 -4.4353 -3.5866 0
M  V30 4610 O 436.614 -5.64996 -2.07516 0
M  V30 4611 H 440.44 -3.03661 -0.0485661 0
M  V30 4612 H 438.025 -1.49341 0.0418382 0
M  V30 4613 H 439.907 -3.41248 -2.4724 0
M  V30 4614 H 438.582 -2.22253 -2.35341 0
M  V30 4615 H 437.489 -3.69787 -0.566416 0
M  V30 4616 H 438.822 -4.86224 -0.764683 0
M  V30 4617 N 440.474 -0.00167713 -1.576 0
M  V30 4618 C 441.704 0.692754 -1.94639 0
M  V30 4619 C 442.112 1.67744 -0.87513 0
M  V30 4620 O 441.455 1.8305 0.154382 0
M  V30 4621 C 441.517 1.47881 -3.27676 0
M  V30 4622 C 441.181 0.655518 -4.52274 0
M  V30 4623 C 442.178 -0.0575214 -5.19868 0
M  V30 4624 C 439.863 0.600994 -4.98692 0
M  V30 4625 C 441.857 -0.814052 -6.3218 0
M  V30 4626 C 439.544 -0.15926 -6.10892 0
M  V30 4627 C 440.542 -0.865515 -6.77494 0
M  V30 4628 O 440.23 -1.61336 -7.87544 0
M  V30 4629 H 439.962 0.197792 -0.646417 0
M  V30 4630 H 442.516 -0.049423 -2.05341 0
M  V30 4631 H 440.746 2.2655 -3.13388 0
M  V30 4632 H 442.435 2.05874 -3.49816 0
M  V30 4633 H 443.201 -0.0245611 -4.84994 0
M  V30 4634 H 439.08 1.14025 -4.46676 0
M  V30 4635 H 442.624 -1.36584 -6.84098 0
M  V30 4636 H 438.521 -0.194035 -6.45208 0
M  V30 4637 H 439.289 -1.53025 -8.04068 0
M  V30 4638 N 441.952 1.55251 0.271103 0
M  V30 4639 C 443.363 1.66635 0.842007 0
M  V30 4640 C 443.714 0.594631 1.86972 0
M  V30 4641 O 442.839 -0.263532 2.14789 0
M  V30 4642 C 443.434 3.02082 1.53401 0
M  V30 4643 C 441.993 3.15487 2.05293 0
M  V30 4644 C 441.14 2.62438 0.895631 0
M  V30 4645 H 444.091 1.58629 0.0474117 0
M  V30 4646 H 444.112 2.95176 2.40107 0
M  V30 4647 H 443.624 3.80062 0.785786 0
M  V30 4648 H 441.725 2.42284 2.83071 0
M  V30 4649 H 441.838 4.22075 2.26693 0
M  V30 4650 H 440.202 2.19644 1.28953 0
M  V30 4651 H 440.985 3.42923 0.160878 0
M  V30 4652 N 443.43 -0.535701 1.48216 0
M  V30 4653 C 444.34 -1.66785 1.64985 0
M  V30 4654 C 445.356 -1.65654 0.532414 0
M  V30 4655 O 446.532 -1.8471 0.80275 0
M  V30 4656 C 443.597 -3.0326 1.68031 0
M  V30 4657 C 442.658 -3.1529 2.9136 0
M  V30 4658 C 441.891 -4.45255 2.94252 0
M  V30 4659 O 442.114 -5.32011 2.05719 0
M  V30 4660 O 441.048 -4.6153 3.86359 0
M  V30 4661 H 444.874 -1.55576 2.60825 0
M  V30 4662 H 442.459 -0.70815 1.31551 0
M  V30 4663 H 444.341 -3.84436 1.72589 0
M  V30 4664 H 443.016 -3.14805 0.753628 0
M  V30 4665 H 441.923 -2.3343 2.92337 0
M  V30 4666 H 443.256 -3.08658 3.83394 0
M  V30 4667 N 444.908 -1.36708 -0.784132 0
M  V30 4668 C 446.133 -1.34565 -1.5782 0
M  V30 4669 C 446.558 0.0695257 -1.87971 0
M  V30 4670 O 445.916 1.04302 -1.48293 0
M  V30 4671 C 445.964 -2.17952 -2.87279 0
M  V30 4672 O 445.068 -1.57563 -3.81114 0
M  V30 4673 H 444.409 -0.460337 -0.478524 0
M  V30 4674 H 446.939 -1.80064 -0.971495 0
M  V30 4675 H 446.949 -2.30721 -3.365 0
M  V30 4676 H 445.624 -3.20823 -2.64661 0
M  V30 4677 H 444.201 -1.53764 -3.39722 0
M  V30 4678 N 446.386 1.0089 -1.21074 0
M  V30 4679 C 447.611 1.78727 -1.05221 0
M  V30 4680 C 448.036 1.83932 0.393795 0
M  V30 4681 O 447.394 1.28004 1.28393 0
M  V30 4682 C 447.442 3.20665 -1.64944 0
M  V30 4683 O 446.546 4.02632 -0.892273 0
M  V30 4684 H 445.887 0.550973 -0.370574 0
M  V30 4685 H 448.417 1.26847 -1.60534 0
M  V30 4686 H 448.427 3.71352 -1.69002 0
M  V30 4687 H 447.102 3.16191 -2.70177 0
M  V30 4688 H 445.679 3.61207 -0.926492 0
M  V30 4689 N 447.864 1.01787 1.20321 0
M  V30 4690 C 449.089 0.727009 1.9424 0
M  V30 4691 C 449.514 -0.706179 1.74341 0
M  V30 4692 O 448.872 -1.48609 1.03852 0
M  V30 4693 C 448.92 1.06958 3.44372 0
M  V30 4694 O 448.024 0.181983 4.11998 0
M  V30 4695 H 447.365 0.269626 0.606793 0
M  V30 4696 H 449.895 1.36158 1.52716 0
M  V30 4697 H 449.905 1.02182 3.94997 0
M  V30 4698 H 448.58 2.11378 3.58179 0
M  V30 4699 H 447.157 0.287378 3.71791 0
M  V30 4700 N 449.342 -1.36122 0.79427 0
M  V30 4701 C 450.753 -1.81646 0.431446 0
M  V30 4702 C 451.104 -1.66043 -1.04518 0
M  V30 4703 O 450.229 -1.1841 -1.8113 0
M  V30 4704 C 450.824 -3.29785 0.776341 0
M  V30 4705 C 449.383 -3.73501 0.466282 0
M  V30 4706 C 448.53 -2.58313 1.00844 0
M  V30 4707 H 451.481 -1.24274 0.986995 0
M  V30 4708 H 451.502 -3.80437 0.0692413 0
M  V30 4709 H 451.014 -3.4111 1.8511 0
M  V30 4710 H 449.115 -3.67733 -0.600245 0
M  V30 4711 H 449.228 -4.68754 0.990288 0
M  V30 4712 H 447.592 -2.5102 0.431406 0
M  V30 4713 H 448.375 -2.72421 2.08906 0
M  V30 4714 N 450.82 -0.546701 -1.47814 0
M  V30 4715 C 451.783 0.196287 -2.28358 0
M  V30 4716 C 452.783 0.852437 -1.36346 0
M  V30 4717 O 453.973 0.709913 -1.59078 0
M  V30 4718 C 451.105 1.28579 -3.15722 0
M  V30 4719 H 452.298 -0.511086 -2.95513 0
M  V30 4720 H 449.851 -0.303248 -1.5333 0
M  V30 4721 H 450.586 2.0259 -2.53235 0
M  V30 4722 H 450.371 0.820229 -3.83425 0
M  V30 4723 H 451.861 1.80793 -3.76435 0
M  V30 4724 N 452.299 1.55045 -0.282633 0
M  V30 4725 C 453.715 1.59441 0.0712997 0
M  V30 4726 C 453.915 1.2998 1.53972 0
M  V30 4727 O 452.971 1.06431 2.28973 0
M  V30 4728 C 454.284 2.99097 -0.310104 0
M  V30 4729 C 455.832 3.1194 -0.257343 0
M  V30 4730 C 456.307 4.53875 -0.613297 0
M  V30 4731 N 457.798 4.5974 -0.565134 0
M  V30 4732 C 458.533 5.67603 -0.81326 0
M  V30 4733 N 458.029 6.83582 -1.1264 0
M  V30 4734 N 459.822 5.57187 -0.741553 0
M  V30 4735 H 451.973 1.72458 -1.23984 0
M  V30 4736 H 454.236 0.804549 -0.501403 0
M  V30 4737 H 453.942 3.25516 -1.33163 0
M  V30 4738 H 453.816 3.75616 0.345366 0
M  V30 4739 H 456.203 2.85281 0.754905 0
M  V30 4740 H 456.284 2.37618 -0.947178 0
M  V30 4741 H 455.928 4.81261 -1.62327 0
M  V30 4742 H 455.858 5.26508 0.09841 0
M  V30 4743 H 458.349 3.76427 -0.333294 0
M  V30 4744 H 458.662 7.6175 -1.30219 0
M  V30 4745 H 457.007 6.85179 -1.16425 0
M  V30 4746 H 460.198 4.65457 -0.496705 0
M  V30 4747 H 460.371 6.41171 -0.938306 0
M  V30 4748 N 453.777 0.010035 1.57597 0
M  V30 4749 C 455.025 -0.671371 1.90623 0
M  V30 4750 C 455.346 -1.73753 0.885151 0
M  V30 4751 O 454.616 -1.95752 -0.0760611 0
M  V30 4752 H 453.196 -0.250968 0.703579 0
M  V30 4753 H 455.858 0.0533325 1.94827 0
M  V30 4754 H 454.954 -1.13626 2.90681 0
M  V30 4755 N 455.255 -1.55392 -0.262866 0
M  V30 4756 C 456.504 -1.75679 -0.990943 0
M  V30 4757 C 456.817 -0.57097 -1.87081 0
M  V30 4758 O 458.023 -0.656486 -2.63444 0
M  V30 4759 C 456.479 -3.10964 -1.81188 0
M  V30 4760 C 456.087 -4.37146 -0.980188 0
M  V30 4761 C 457.831 -3.40597 -2.53365 0
M  V30 4762 C 455.738 -5.63466 -1.7961 0
M  V30 4763 H 454.668 -0.654868 -0.373716 0
M  V30 4764 H 457.319 -1.81841 -0.246203 0
M  V30 4765 H 455.701 -2.98867 -2.59797 0
M  V30 4766 H 456.875 -4.60187 -0.237558 0
M  V30 4767 H 455.19 -4.14731 -0.372497 0
M  V30 4768 H 457.787 -4.32186 -3.14833 0
M  V30 4769 H 458.13 -2.6119 -3.24169 0
M  V30 4770 H 458.663 -3.53838 -1.81779 0
M  V30 4771 H 455.402 -6.4565 -1.13209 0
M  V30 4772 H 454.922 -5.44552 -2.51443 0
M  V30 4773 H 456.601 -6.02139 -2.36723 0
M  V30 4774 N 456.733 0.527833 -1.48498 0
M  V30 4775 C 457.696 1.61439 -1.62696 0
M  V30 4776 C 458.696 1.52824 -0.500136 0
M  V30 4777 O 459.886 1.56456 -0.765976 0
M  V30 4778 C 457.018 3.01063 -1.59918 0
M  V30 4779 H 458.211 1.50189 -2.59583 0
M  V30 4780 H 455.764 0.750055 -1.37127 0
M  V30 4781 H 456.499 3.17818 -0.645163 0
M  V30 4782 H 456.284 3.08725 -2.41726 0
M  V30 4783 H 457.774 3.80057 -1.73051 0
M  V30 4784 N 458.211 1.37122 0.776871 0
M  V30 4785 C 459.46 1.31373 1.53049 0
M  V30 4786 C 459.773 -0.101016 1.95339 0
M  V30 4787 O 460.979 -0.280953 2.70042 0
M  V30 4788 C 459.435 2.30567 2.76346 0
M  V30 4789 C 459.043 3.77543 2.41175 0
M  V30 4790 C 460.787 2.33818 3.54301 0
M  V30 4791 C 458.694 4.68481 3.60943 0
M  V30 4792 H 457.624 0.488234 0.574581 0
M  V30 4793 H 460.275 1.62554 0.851372 0
M  V30 4794 H 458.657 1.92396 3.46121 0
M  V30 4795 H 459.831 4.24521 1.79216 0
M  V30 4796 H 458.146 3.77187 1.76405 0
M  V30 4797 H 460.743 2.98965 4.4331 0
M  V30 4798 H 461.086 1.3503 3.93793 0
M  V30 4799 H 461.619 2.7067 2.91518 0
M  V30 4800 H 458.358 5.68378 3.26537 0
M  V30 4801 H 457.878 4.2621 4.22025 0
M  V30 4802 H 459.557 4.85366 4.27819 0
M  V30 4803 N 459.689 -1.00246 1.21608 0
M  V30 4804 C 460.935 -1.74319 1.03638 0
M  V30 4805 C 461.268 -1.89408 -0.428749 0
M  V30 4806 O 460.543 -1.43026 -1.3181 0
M  V30 4807 C 460.826 -3.15431 1.73711 0
M  V30 4808 C 460.679 -3.08049 3.27759 0
M  V30 4809 C 461.998 -4.14407 1.48173 0
M  V30 4810 H 459.117 -0.632741 0.377899 0
M  V30 4811 H 461.759 -1.16853 1.49818 0
M  V30 4812 H 459.909 -3.64493 1.34452 0
M  V30 4813 H 461.581 -2.66681 3.76403 0
M  V30 4814 H 459.824 -2.45088 3.57931 0
M  V30 4815 H 460.495 -4.07862 3.71958 0
M  V30 4816 H 462.971 -3.74061 1.82258 0
M  V30 4817 H 461.847 -5.11279 1.99713 0
M  V30 4818 H 462.108 -4.40174 0.412273 0
M  V30 4819 N 461.167 -1.02423 -1.1978 0
M  V30 4820 C 462.392 -0.7373 -1.93852 0
M  V30 4821 C 462.817 0.696923 -1.74713 0
M  V30 4822 O 462.175 1.48056 -1.04638 0
M  V30 4823 C 462.223 -1.08783 -3.438 0
M  V30 4824 O 461.327 -0.20383 -4.11896 0
M  V30 4825 H 460.668 -0.27284 -0.605355 0
M  V30 4826 H 463.198 -1.36966 -1.51992 0
M  V30 4827 H 463.208 -1.04276 -3.9445 0
M  V30 4828 H 461.883 -2.13274 -3.57053 0
M  V30 4829 H 460.46 -0.307091 -3.71633 0
M  V30 4830 N 462.645 1.35699 -0.801477 0
M  V30 4831 C 463.891 1.99208 -0.380022 0
M  V30 4832 C 464.224 1.63445 1.04878 0
M  V30 4833 O 463.499 0.895223 1.72673 0
M  V30 4834 C 463.782 3.55755 -0.557708 0
M  V30 4835 C 463.635 4.01332 -2.03107 0
M  V30 4836 C 464.954 4.40096 0.0197968 0
M  V30 4837 H 462.073 0.723667 -0.139552 0
M  V30 4838 H 464.715 1.60928 -1.01006 0
M  V30 4839 H 462.865 3.88494 -0.0213741 0
M  V30 4840 H 464.537 3.79026 -2.62939 0
M  V30 4841 H 462.78 3.52429 -2.52936 0
M  V30 4842 H 463.451 5.10234 -2.1063 0
M  V30 4843 H 465.927 4.13786 -0.438179 0
M  V30 4844 H 464.803 5.48735 -0.134477 0
M  V30 4845 H 465.064 4.2786 1.11303 0
M  V30 4846 N 464.123 0.554532 1.47522 0
M  V30 4847 C 465.053 -0.182974 2.32782 0
M  V30 4848 C 466.034 -0.911377 1.43624 0
M  V30 4849 O 467.219 -0.892366 1.72483 0
M  V30 4850 C 464.349 -1.21513 3.25349 0
M  V30 4851 C 463.303 -0.603355 4.23726 0
M  V30 4852 C 462.629 -1.73995 5.05598 0
M  V30 4853 C 463.929 0.441121 5.20434 0
M  V30 4854 H 465.623 0.52882 2.94693 0
M  V30 4855 H 463.169 0.255759 1.41711 0
M  V30 4856 H 465.122 -1.73922 3.83835 0
M  V30 4857 H 463.846 -1.95683 2.61487 0
M  V30 4858 H 462.505 -0.10059 3.66462 0
M  V30 4859 H 462.153 -2.47063 4.38143 0
M  V30 4860 H 461.853 -1.3364 5.72201 0
M  V30 4861 H 463.377 -2.26735 5.66942 0
M  V30 4862 H 464.791 0.00319931 5.733 0
M  V30 4863 H 463.188 0.763402 5.95224 0
M  V30 4864 H 464.258 1.33799 4.66075 0
M  V30 4865 N 465.601 -1.54893 0.290851 0
M  V30 4866 C 466.847 -2.0023 -0.321867 0
M  V30 4867 C 467.18 -1.179 -1.54316 0
M  V30 4868 O 466.455 -0.25293 -1.92848 0
M  V30 4869 C 466.738 -3.53456 -0.688515 0
M  V30 4870 C 466.591 -4.46532 0.541209 0
M  V30 4871 C 467.91 -4.13057 -1.51895 0
M  V30 4872 H 465.029 -0.727891 -0.115515 0
M  V30 4873 H 467.671 -1.85722 0.400931 0
M  V30 4874 H 465.821 -3.6595 -1.30433 0
M  V30 4875 H 467.493 -4.4596 1.17973 0
M  V30 4876 H 465.736 -4.17545 1.17636 0
M  V30 4877 H 466.407 -5.51475 0.240675 0
M  V30 4878 H 468.883 -4.03937 -0.99872 0
M  V30 4879 H 467.759 -5.20448 -1.74429 0
M  V30 4880 H 468.02 -3.64284 -2.50498 0
M  V30 4881 N 467.08 -0.0183926 -1.57589 0
M  V30 4882 C 468.329 0.66185 -1.90532 0
M  V30 4883 C 468.642 1.73904 -0.895366 0
M  V30 4884 O 469.848 2.47518 -1.11566 0
M  V30 4885 C 468.304 1.22844 -3.38286 0
M  V30 4886 C 467.912 0.185103 -4.47617 0
M  V30 4887 C 469.656 1.88581 -3.80312 0
M  V30 4888 C 467.563 0.762723 -5.86461 0
M  V30 4889 H 466.493 0.250972 -0.711006 0
M  V30 4890 H 469.144 -0.0819435 -1.83317 0
M  V30 4891 H 467.526 2.0235 -3.40398 0
M  V30 4892 H 468.7 -0.58671 -4.5705 0
M  V30 4893 H 467.015 -0.372889 -4.14727 0
M  V30 4894 H 469.612 2.32735 -4.81392 0
M  V30 4895 H 469.955 2.72408 -3.14801 0
M  V30 4896 H 470.488 1.15782 -3.80578 0
M  V30 4897 H 467.227 -0.0371713 -6.55489 0
M  V30 4898 H 466.747 1.50327 -5.80656 0
M  V30 4899 H 468.426 1.25576 -6.34697 0
M  V30 4900 N 468.558 1.5553 0.254621 0
M  V30 4901 C 469.488 1.9268 1.31897 0
M  V30 4902 C 470.469 0.790797 1.506 0
M  V30 4903 O 471.654 1.05045 1.63337 0
M  V30 4904 C 468.784 2.21477 2.67517 0
M  V30 4905 C 467.738 3.37256 2.63519 0
M  V30 4906 C 467.064 3.51576 4.02862 0
M  V30 4907 C 468.364 4.73157 2.21179 0
M  V30 4908 H 470.058 2.81832 1.01051 0
M  V30 4909 H 467.604 1.35599 0.484662 0
M  V30 4910 H 469.557 2.46055 3.42104 0
M  V30 4911 H 468.281 1.29144 2.99982 0
M  V30 4912 H 466.94 3.12675 1.9139 0
M  V30 4913 H 466.588 2.56676 4.32581 0
M  V30 4914 H 466.288 4.2943 4.01078 0
M  V30 4915 H 467.812 3.78467 4.79161 0
M  V30 4916 H 469.226 4.97158 2.85494 0
M  V30 4917 H 467.623 5.54058 2.30521 0
M  V30 4918 H 468.693 4.70739 1.16332 0
M  V30 4919 N 470.036 -0.519951 1.48776 0
M  V30 4920 C 471.285 -1.27175 1.56555 0
M  V30 4921 C 471.598 -1.9401 0.248869 0
M  V30 4922 O 472.804 -2.70725 0.205004 0
M  V30 4923 C 471.26 -2.30811 2.76142 0
M  V30 4924 C 470.868 -1.7 4.14493 0
M  V30 4925 C 472.612 -3.06937 2.9324 0
M  V30 4926 C 470.519 -2.71635 5.25327 0
M  V30 4927 H 469.449 -0.478329 0.582853 0
M  V30 4928 H 472.1 -0.547916 1.75129 0
M  V30 4929 H 470.482 -3.06274 2.51023 0
M  V30 4930 H 471.656 -1.00658 4.49672 0
M  V30 4931 H 469.971 -1.06331 4.02595 0
M  V30 4932 H 472.568 -3.82905 3.73213 0
M  V30 4933 H 472.911 -3.63409 2.03075 0
M  V30 4934 H 473.444 -2.38589 3.18308 0
M  V30 4935 H 470.183 -2.1997 6.1749 0
M  V30 4936 H 469.703 -3.39275 4.94624 0
M  V30 4937 H 471.382 -3.34429 5.53865 0
M  V30 4938 N 471.514 -1.37532 -0.769588 0
M  V30 4939 C 472.739 -1.36231 -1.56384 0
M  V30 4940 C 473.164 0.0495849 -1.88035 0
M  V30 4941 O 472.522 1.02723 -1.49391 0
M  V30 4942 C 472.57 -2.20986 -2.84952 0
M  V30 4943 O 471.674 -1.61597 -3.79421 0
M  V30 4944 H 471.015 -0.465387 -0.473615 0
M  V30 4945 H 473.545 -1.81085 -0.952342 0
M  V30 4946 H 473.555 -2.34277 -3.34034 0
M  V30 4947 H 472.23 -3.23612 -2.61243 0
M  V30 4948 H 470.807 -1.57359 -3.38072 0
M  V30 4949 N 472.992 0.995999 -1.22138 0
M  V30 4950 C 474.241 1.72928 -1.03821 0
M  V30 4951 C 474.554 1.90872 0.427444 0
M  V30 4952 O 475.76 2.61496 0.730212 0
M  V30 4953 C 474.216 3.11124 -1.80913 0
M  V30 4954 C 473.824 3.01122 -3.31707 0
M  V30 4955 C 475.568 3.8852 -1.71035 0
M  V30 4956 C 473.475 4.34453 -4.01253 0
M  V30 4957 H 472.405 0.648376 -0.384869 0
M  V30 4958 H 475.056 1.11213 -1.45959 0
M  V30 4959 H 473.438 3.73503 -1.31573 0
M  V30 4960 H 474.612 2.47926 -3.88419 0
M  V30 4961 H 472.927 2.3721 -3.42228 0
M  V30 4962 H 475.524 4.872 -2.20318 0
M  V30 4963 H 475.867 4.1087 -0.670196 0
M  V30 4964 H 476.4 3.32812 -2.17902 0
M  V30 4965 H 473.139 4.17303 -5.05508 0
M  V30 4966 H 472.659 4.87574 -3.49331 0
M  V30 4967 H 474.338 5.03215 -4.06674 0
M  V30 4968 N 474.47 1.03057 1.19235 0
M  V30 4969 C 475.716 0.729098 1.89241 0
M  V30 4970 C 476.049 -0.740573 1.79525 0
M  V30 4971 O 475.324 -1.53946 1.18874 0
M  V30 4972 C 475.607 1.18304 3.40112 0
M  V30 4973 C 475.46 2.71406 3.5869 0
M  V30 4974 C 476.779 0.765161 4.33397 0
M  V30 4975 H 473.898 0.266338 0.687192 0
M  V30 4976 H 476.54 1.28079 1.40341 0
M  V30 4977 H 474.69 0.713672 3.81889 0
M  V30 4978 H 476.362 3.26303 3.26074 0
M  V30 4979 H 474.605 3.11717 3.01687 0
M  V30 4980 H 475.276 2.98225 4.64506 0
M  V30 4981 H 477.752 1.16889 3.99345 0
M  V30 4982 H 476.628 1.11065 5.37546 0
M  V30 4983 H 476.889 -0.332372 4.40849 0
M  V30 4984 N 475.948 -1.35272 0.808662 0
M  V30 4985 C 477.197 -1.97963 0.386483 0
M  V30 4986 C 477.51 -1.64866 -1.05255 0
M  V30 4987 O 478.716 -2.20937 -1.57794 0
M  V30 4988 C 477.172 -3.54162 0.640096 0
M  V30 4989 C 476.78 -3.96166 2.0918 0
M  V30 4990 C 478.524 -4.23553 0.283376 0
M  V30 4991 C 476.431 -5.4522 2.29106 0
M  V30 4992 H 475.361 -0.740742 0.140774 0
M  V30 4993 H 478.012 -1.5431 0.993012 0
M  V30 4994 H 476.394 -3.95983 -0.0364117 0
M  V30 4995 H 477.568 -3.65491 2.80629 0
M  V30 4996 H 475.883 -3.3967 2.40859 0
M  V30 4997 H 478.48 -5.33124 0.410273 0
M  V30 4998 H 478.823 -4.09105 -0.770659 0
M  V30 4999 H 479.356 -3.8716 0.913884 0
M  V30 5000 H 476.095 -5.64638 3.32962 0
M  V30 5001 H 475.615 -5.77457 1.62184 0
M  V30 5002 H 477.294 -6.1171 2.1076 0
M  V30 5003 N 477.426 -0.562348 -1.47226 0
M  V30 5004 C 478.673 -0.0402165 -2.0246 0
M  V30 5005 C 479.001 1.31169 -1.43614 0
M  V30 5006 O 478.256 1.86805 -0.5833 0
M  V30 5007 C 478.555 0.0969817 -3.57268 0
M  V30 5008 C 478.221 -1.1847 -4.35058 0
M  V30 5009 C 476.883 -1.53588 -4.56031 0
M  V30 5010 C 479.235 -2.03378 -4.79882 0
M  V30 5011 C 476.563 -2.73452 -5.19077 0
M  V30 5012 C 478.915 -3.2245 -5.44251 0
M  V30 5013 C 477.579 -3.57876 -5.63455 0
M  V30 5014 H 476.849 -0.0147163 -0.740854 0
M  V30 5015 H 479.496 -0.734895 -1.76838 0
M  V30 5016 H 477.801 0.87466 -3.81912 0
M  V30 5017 H 479.498 0.516408 -3.97661 0
M  V30 5018 H 476.088 -0.90126 -4.19017 0
M  V30 5019 H 480.272 -1.77553 -4.63453 0
M  V30 5020 H 475.528 -3.01062 -5.32139 0
M  V30 5021 H 479.702 -3.88526 -5.77945 0
M  V30 5022 H 477.329 -4.50849 -6.12078 0
M  V30 5023 N 478.904 1.54736 -0.299062 0
M  V30 5024 C 480.144 2.0201 0.31168 0
M  V30 5025 C 480.508 1.18281 1.5124 0
M  V30 5026 O 481.709 1.55243 2.19438 0
M  V30 5027 C 479.98 3.5123 0.661227 0
M  V30 5028 S 481.539 4.20467 1.2551 0
M  V30 5029 H 478.357 0.704523 0.0957517 0
M  V30 5030 H 480.959 1.90791 -0.426482 0
M  V30 5031 H 479.663 4.09804 -0.221171 0
M  V30 5032 H 479.194 3.66481 1.43023 0
M  V30 5033 H 481.209 4.26083 2.54298 0
M  V30 5034 N 480.382 0.0267497 1.57577 0
M  V30 5035 C 481.312 -0.954308 2.13108 0
M  V30 5036 C 482.293 -1.34088 1.04663 0
M  V30 5037 O 483.478 -1.41992 1.32484 0
M  V30 5038 C 480.608 -2.23744 2.65624 0
M  V30 5039 C 479.562 -1.99168 3.78835 0
M  V30 5040 C 478.888 -3.33726 4.17769 0
M  V30 5041 C 480.188 -1.33277 5.0501 0
M  V30 5042 H 481.882 -0.491848 2.95332 0
M  V30 5043 H 479.428 -0.23514 1.42067 0
M  V30 5044 H 481.381 -2.92754 3.03106 0
M  V30 5045 H 480.105 -2.72151 1.80558 0
M  V30 5046 H 478.764 -1.32577 3.41788 0
M  V30 5047 H 478.412 -3.79888 3.29688 0
M  V30 5048 H 478.112 -3.18089 4.94058 0
M  V30 5049 H 479.636 -4.04008 4.57832 0
M  V30 5050 H 481.05 -1.92283 5.40093 0
M  V30 5051 H 479.447 -1.28045 5.8628 0
M  V30 5052 H 480.517 -0.305411 4.83937 0
M  V30 5053 N 481.861 -1.55662 -0.24637 0
M  V30 5054 C 482.771 -1.93495 -1.32653 0
M  V30 5055 C 483.787 -0.835462 -1.5263 0
M  V30 5056 O 484.963 -1.1369 -1.66242 0
M  V30 5057 C 482.028 -2.22242 -2.66101 0
M  V30 5058 C 481.089 -3.45625 -2.54641 0
M  V30 5059 C 480.322 -3.72991 -3.81724 0
M  V30 5060 O 480.545 -3.02421 -4.8363 0
M  V30 5061 O 479.479 -4.66515 -3.80325 0
M  V30 5062 H 483.305 -2.85498 -1.03559 0
M  V30 5063 H 480.89 -1.42551 -0.44717 0
M  V30 5064 H 482.772 -2.42037 -3.44958 0
M  V30 5065 H 481.447 -1.33417 -2.94926 0
M  V30 5066 H 480.354 -3.31136 -1.74067 0
M  V30 5067 H 481.687 -4.34754 -2.3076 0
M  V30 5068 N 483.339 0.512053 -1.4905 0
M  V30 5069 C 484.567 1.29116 -1.61669 0
M  V30 5070 C 484.982 1.86655 -0.283787 0
M  V30 5071 O 484.339 1.67293 0.729331 0
M  V30 5072 C 484.39 2.4293 -2.67707 0
M  V30 5073 O 484.111 1.87758 -3.95826 0
M  V30 5074 C 485.612 3.34476 -2.90931 0
M  V30 5075 H 482.832 0.392009 -0.544583 0
M  V30 5076 H 485.376 0.615881 -1.95006 0
M  V30 5077 H 483.531 3.06308 -2.37179 0
M  V30 5078 H 483.945 2.62393 -4.54148 0
M  V30 5079 H 485.419 4.10642 -3.68886 0
M  V30 5080 H 485.896 3.90801 -2.00427 0
M  V30 5081 H 486.502 2.76874 -3.22832 0
M  V30 5082 N 484.817 1.37938 0.762283 0
M  V30 5083 C 485.747 1.37176 1.88958 0
M  V30 5084 C 486.728 0.238945 1.68413 0
M  V30 5085 O 487.913 0.440726 1.89133 0
M  V30 5086 C 485.043 1.18742 3.2637 0
M  V30 5087 C 483.997 2.29136 3.61498 0
M  V30 5088 C 483.323 1.95816 4.97554 0
M  V30 5089 C 484.623 3.71363 3.6727 0
M  V30 5090 H 486.317 2.31509 1.89853 0
M  V30 5091 H 483.863 1.11438 0.912005 0
M  V30 5092 H 485.816 1.16837 4.04879 0
M  V30 5093 H 484.54 0.208683 3.25933 0
M  V30 5094 H 483.199 2.30213 2.85303 0
M  V30 5095 H 482.847 0.964475 4.93667 0
M  V30 5096 H 482.547 2.69745 5.22026 0
M  V30 5097 H 484.071 1.95513 5.78452 0
M  V30 5098 H 485.485 3.72364 4.35911 0
M  V30 5099 H 483.882 4.44425 4.03245 0
M  V30 5100 H 484.952 4.04305 2.67704 0
M  V30 5101 N 486.295 -0.989507 1.22664 0
M  V30 5102 C 487.706 -1.54406 1.04955 0
M  V30 5103 C 488.057 -1.92366 -0.385951 0
M  V30 5104 O 487.182 -1.75111 -1.27142 0
M  V30 5105 C 487.777 -2.80578 1.89899 0
M  V30 5106 C 486.336 -3.32464 1.76478 0
M  V30 5107 C 485.483 -2.05524 1.86159 0
M  V30 5108 H 488.434 -0.810211 1.3646 0
M  V30 5109 H 488.455 -3.53075 1.4184 0
M  V30 5110 H 487.967 -2.52918 2.94371 0
M  V30 5111 H 486.068 -3.65024 0.747528 0
M  V30 5112 H 486.181 -4.02838 2.59342 0
M  V30 5113 H 484.545 -2.19241 1.29636 0
M  V30 5114 H 485.328 -1.80258 2.92168 0
M  V30 5115 N 487.773 -1.03688 -1.18687 0
M  V30 5116 C 488.683 -0.634908 -2.25845 0
M  V30 5117 C 489.699 0.337065 -1.70704 0
M  V30 5118 O 490.875 0.192943 -2.00474 0
M  V30 5119 C 487.94 -0.000180054 -3.467 0
M  V30 5120 C 487.001 -1.02067 -4.1699 0
M  V30 5121 C 486.234 -0.41614 -5.32075 0
M  V30 5122 O 486.457 0.778712 -5.65059 0
M  V30 5123 O 485.391 -1.14296 -5.90948 0
M  V30 5124 H 489.217 -1.52757 -2.62486 0
M  V30 5125 H 486.802 -0.807533 -1.25695 0
M  V30 5126 H 488.684 0.353342 -4.19916 0
M  V30 5127 H 487.359 0.866367 -3.11891 0
M  V30 5128 H 486.266 -1.42592 -3.45859 0
M  V30 5129 H 487.599 -1.85786 -4.5579 0
M  V30 5130 N 489.251 1.34841 -0.815825 0
M  V30 5131 C 490.498 1.98499 -0.400535 0
M  V30 5132 C 490.826 1.64699 1.03463 0
M  V30 5133 O 490.081 0.907006 1.73412 0
M  V30 5134 C 490.38 3.53273 -0.541541 0
M  V30 5135 C 490.046 4.06966 -1.94138 0
M  V30 5136 C 488.708 4.21341 -2.32433 0
M  V30 5137 C 491.06 4.35933 -2.85677 0
M  V30 5138 C 488.388 4.62007 -3.61617 0
M  V30 5139 C 490.74 4.78042 -4.14317 0
M  V30 5140 C 489.404 4.90622 -4.52599 0
M  V30 5141 H 488.674 0.72636 -0.146566 0
M  V30 5142 H 491.321 1.60902 -1.0384 0
M  V30 5143 H 489.626 3.91387 0.179741 0
M  V30 5144 H 491.323 4.00497 -0.20085 0
M  V30 5145 H 487.913 3.96235 -1.63388 0
M  V30 5146 H 492.097 4.24372 -2.57337 0
M  V30 5147 H 487.353 4.69937 -3.91113 0
M  V30 5148 H 491.527 4.99415 -4.85342 0
M  V30 5149 H 489.154 5.2189 -5.52752 0
M  V30 5150 N 490.729 0.570148 1.46925 0
M  V30 5151 C 492.145 0.23087 1.57921 0
M  V30 5152 C 492.345 -1.26676 1.56702 0
M  V30 5153 O 491.401 -2.04774 1.47729 0
M  V30 5154 C 492.714 0.868973 2.8787 0
M  V30 5155 C 494.262 0.841397 3.01479 0
M  V30 5156 C 494.737 1.45881 4.34146 0
M  V30 5157 N 496.228 1.42258 4.40814 0
M  V30 5158 C 496.963 1.8698 5.42057 0
M  V30 5159 N 496.459 2.39618 6.50042 0
M  V30 5160 N 498.252 1.77972 5.33181 0
M  V30 5161 H 490.403 1.54301 1.45962 0
M  V30 5162 H 492.666 0.644224 0.69547 0
M  V30 5163 H 492.372 1.922 2.94537 0
M  V30 5164 H 492.246 0.369682 3.75384 0
M  V30 5165 H 494.633 -0.202973 2.94401 0
M  V30 5166 H 494.714 1.37858 2.15474 0
M  V30 5167 H 494.358 2.50231 4.4198 0
M  V30 5168 H 494.288 0.896958 5.18905 0
M  V30 5169 H 496.779 1.03768 3.63374 0
M  V30 5170 H 497.092 2.71633 7.23488 0
M  V30 5171 H 495.437 2.43636 6.50897 0
M  V30 5172 H 498.628 1.36617 4.4772 0
M  V30 5173 H 498.801 2.13143 6.11943 0
M  V30 5174 N 492.207 -1.54576 0.307264 0
M  V30 5175 C 493.484 -1.92377 -0.353605 0
M  V30 5176 C 493.864 -1.23517 -1.71192 0
M  V30 5177 O 493.212 -0.373101 -2.25433 0
M  V30 5178 C 493.422 -3.45928 -0.462039 0
M  V30 5179 C 494.77 -4.18278 -0.729975 0
M  V30 5180 O 495.794 -3.51997 -0.545605 0
M  V30 5181 O 494.653 -5.3563 -1.08454 0
M  V30 5182 H 491.747 -0.802747 -0.198812 0
M  V30 5183 H 494.293 -1.65929 0.355783 0
M  V30 5184 H 493.065 -3.88187 0.492592 0
M  V30 5185 H 492.688 -3.78431 -1.21965 0
M  V30 5186 N 493.685 -0.035106 -1.57561 0
M  V30 5187 C 494.962 0.681212 -1.83354 0
M  V30 5188 C 495.342 1.89986 -0.920252 0
M  V30 5189 O 494.69 2.28489 0.0226815 0
M  V30 5190 C 494.9 1.05376 -3.32712 0
M  V30 5191 C 496.248 1.44286 -3.99333 0
M  V30 5192 O 497.272 1.14656 -3.37242 0
M  V30 5193 O 496.131 1.99518 -5.08778 0
M  V30 5194 H 493.225 0.334741 -0.756226 0
M  V30 5195 H 495.771 -0.0632448 -1.69582 0
M  V30 5196 H 494.543 0.186668 -3.90854 0
M  V30 5197 H 494.166 1.85619 -3.51613 0
M  V30 5198 N 495.163 1.55791 0.238111 0
M  V30 5199 C 496.579 1.48411 0.587045 0
M  V30 5200 C 496.779 0.72702 1.87927 0
M  V30 5201 O 495.835 0.259942 2.51158 0
M  V30 5202 C 497.148 2.92873 0.681623 0
M  V30 5203 C 498.696 3.03295 0.773363 0
M  V30 5204 C 499.171 4.49082 0.899428 0
M  V30 5205 N 500.662 4.53056 0.964075 0
M  V30 5206 C 501.397 5.63117 1.08104 0
M  V30 5207 N 500.893 6.82969 1.16299 0
M  V30 5208 N 502.686 5.50933 1.11488 0
M  V30 5209 H 494.837 2.0345 -0.610076 0
M  V30 5210 H 497.1 0.924034 -0.211813 0
M  V30 5211 H 496.806 3.51142 -0.19802 0
M  V30 5212 H 496.68 3.43851 1.55069 0
M  V30 5213 H 499.067 2.45101 1.64346 0
M  V30 5214 H 499.148 2.55513 -0.121034 0
M  V30 5215 H 498.792 5.07889 0.0338586 0
M  V30 5216 H 498.722 4.94553 1.809 0
M  V30 5217 H 501.213 3.66737 0.91173 0
M  V30 5218 H 501.526 7.62598 1.25155 0
M  V30 5219 H 499.871 6.85712 1.13241 0
M  V30 5220 H 503.062 4.56231 1.0474 0
M  V30 5221 H 503.235 6.36743 1.20259 0
M  V30 5222 N 496.642 -0.504142 1.49319 0
M  V30 5223 C 497.919 -1.26548 1.49147 0
M  V30 5224 C 498.299 -2.09977 0.21744 0
M  V30 5225 O 497.647 -2.14028 -0.800269 0
M  V30 5226 C 497.857 -2.12489 2.76857 0
M  V30 5227 C 499.205 -2.7178 3.26222 0
M  V30 5228 O 500.229 -2.22758 2.77952 0
M  V30 5229 O 499.088 -3.61015 4.10281 0
M  V30 5230 H 496.182 -0.572495 0.596806 0
M  V30 5231 H 498.728 -0.51867 1.61579 0
M  V30 5232 H 497.5 -1.50796 3.61077 0
M  V30 5233 H 497.123 -2.94368 2.6727 0
M  V30 5234 N 498.12 -1.38341 -0.754957 0
M  V30 5235 C 499.05 -1.38176 -1.88227 0
M  V30 5236 C 500.031 -0.247873 -1.68284 0
M  V30 5237 O 501.216 -0.45075 -1.88896 0
M  V30 5238 C 498.346 -1.20471 -3.25736 0
M  V30 5239 C 497.3 -2.3105 -3.60278 0
M  V30 5240 C 496.626 -1.98452 -4.96509 0
M  V30 5241 C 497.926 -3.73305 -3.65295 0
M  V30 5242 H 499.62 -2.32512 -1.88622 0
M  V30 5243 H 497.166 -1.1192 -0.906082 0
M  V30 5244 H 499.119 -1.18982 -4.04254 0
M  V30 5245 H 497.843 -0.225965 -3.25817 0
M  V30 5246 H 496.502 -2.31723 -2.84078 0
M  V30 5247 H 496.15 -0.990641 -4.93148 0
M  V30 5248 H 495.85 -2.7251 -5.20588 0
M  V30 5249 H 497.374 -1.98578 -5.77407 0
M  V30 5250 H 498.788 -3.7467 -4.3393 0
M  V30 5251 H 497.185 -4.46557 -4.00883 0
M  V30 5252 H 498.255 -4.05719 -2.65556 0
M  V30 5253 N 499.598 0.982988 -1.23187 0
M  V30 5254 C 500.844 1.72648 -1.06398 0
M  V30 5255 C 501.177 1.90066 0.398561 0
M  V30 5256 O 500.452 1.45105 1.29518 0
M  V30 5257 C 500.735 3.12627 -1.78707 0
M  V30 5258 C 500.588 3.02795 -3.32618 0
M  V30 5259 C 501.907 4.11997 -1.54747 0
M  V30 5260 H 499.026 0.626649 -0.387918 0
M  V30 5261 H 501.668 1.14455 -1.51658 0
M  V30 5262 H 499.818 3.62308 -1.40234 0
M  V30 5263 H 501.49 2.60659 -3.80598 0
M  V30 5264 H 499.733 2.39362 -3.61785 0
M  V30 5265 H 500.404 4.01893 -3.78399 0
M  V30 5266 H 502.88 3.71114 -1.88186 0
M  V30 5267 H 501.756 5.08037 -2.07821 0
M  V30 5268 H 502.017 4.39462 -0.482249 0
M  V30 5269 N 501.076 1.04316 1.18135 0
M  V30 5270 C 502.009 0.580823 2.20685 0
M  V30 5271 C 502.987 -0.385943 1.57953 0
M  V30 5272 O 504.171 -0.299654 1.86103 0
M  V30 5273 C 501.298 -0.151162 3.38363 0
M  V30 5274 C 500.344 0.769247 4.19505 0
M  V30 5275 S 501.177 2.25352 4.85774 0
M  V30 5276 C 502.333 1.53246 6.0685 0
M  V30 5277 H 502.566 1.44968 2.5956 0
M  V30 5278 H 500.099 0.85434 1.28609 0
M  V30 5279 H 502.057 -0.567315 4.06561 0
M  V30 5280 H 500.718 -0.995936 2.97892 0
M  V30 5281 H 499.911 0.203335 5.0359 0
M  V30 5282 H 499.513 1.12436 3.56699 0
M  V30 5283 H 501.805 0.82689 6.72435 0
M  V30 5284 H 502.748 2.35044 6.67952 0
M  V30 5285 H 503.156 1.0237 5.5514 0
M  V30 5286 N 502.554 -1.34406 0.822964 0
M  V30 5287 C 503.517 -2.2783 0.250271 0
M  V30 5288 C 504.517 -1.50288 -0.571854 0
M  V30 5289 O 505.707 -1.69825 -0.387952 0
M  V30 5290 C 502.839 -3.34663 -0.649137 0
M  V30 5291 H 504.032 -2.79992 1.07444 0
M  V30 5292 H 501.585 -1.44539 0.594829 0
M  V30 5293 H 502.32 -2.87714 -1.49637 0
M  V30 5294 H 502.105 -3.92052 -0.0611199 0
M  V30 5295 H 503.595 -4.04349 -1.04363 0
M  V30 5296 N 504.032 -0.577932 -1.46621 0
M  V30 5297 C 504.962 0.145917 -2.33044 0
M  V30 5298 C 505.943 0.888412 -1.45056 0
M  V30 5299 O 507.128 0.864812 -1.73881 0
M  V30 5300 C 504.258 1.16322 -3.27241 0
M  V30 5301 C 503.212 0.535868 -4.24632 0
M  V30 5302 C 502.538 1.65929 -5.08303 0
M  V30 5303 C 503.838 -0.523861 -5.19666 0
M  V30 5304 H 505.532 -0.575636 -2.93814 0
M  V30 5305 H 503.078 -0.278272 -1.41286 0
M  V30 5306 H 505.031 1.67793 -3.86553 0
M  V30 5307 H 503.755 1.91498 -2.64567 0
M  V30 5308 H 502.414 0.0422759 -3.66576 0
M  V30 5309 H 502.062 2.40061 -4.42018 0
M  V30 5310 H 501.762 1.2452 -5.74255 0
M  V30 5311 H 503.286 2.17686 -5.70478 0
M  V30 5312 H 504.7 -0.0944059 -5.73222 0
M  V30 5313 H 503.097 -0.858 -5.93935 0
M  V30 5314 H 504.167 -1.41197 -4.63887 0
M  V30 5315 N 505.51 1.54411 -0.315457 0
M  V30 5316 C 506.735 2.05299 0.294496 0
M  V30 5317 C 507.16 1.19052 1.4563 0
M  V30 5318 O 506.518 0.197804 1.80218 0
M  V30 5319 C 506.566 3.5345 0.714549 0
M  V30 5320 O 505.67 3.70175 1.81781 0
M  V30 5321 H 505.011 0.661743 0.0547019 0
M  V30 5322 H 507.541 1.99327 -0.461508 0
M  V30 5323 H 507.551 3.9557 0.999426 0
M  V30 5324 H 506.226 4.1568 -0.135244 0
M  V30 5325 H 504.803 3.3996 1.53236 0
M  V30 5326 N 506.988 0.0434614 1.5754 0
M  V30 5327 C 507.951 -0.918696 2.09982 0
M  V30 5328 C 508.951 -1.24488 1.01781 0
M  V30 5329 O 510.141 -1.18284 1.27885 0
M  V30 5330 C 507.273 -2.23093 2.57764 0
M  V30 5331 H 508.466 -0.464229 2.96285 0
M  V30 5332 H 506.019 -0.204818 1.54952 0
M  V30 5333 H 506.754 -2.73137 1.74832 0
M  V30 5334 H 506.539 -2.00724 3.36827 0
M  V30 5335 H 508.029 -2.92028 2.98512 0
M  V30 5336 N 508.466 -1.55915 -0.229846 0
M  V30 5337 C 509.714 -1.7819 -0.953565 0
M  V30 5338 C 510.035 -0.610504 -1.85197 0
M  V30 5339 O 509.305 0.372988 -1.92316 0
M  V30 5340 H 507.885 -0.657208 -0.355087 0
M  V30 5341 H 510.547 -1.9337 -0.243693 0
M  V30 5342 H 509.643 -2.70011 -1.56527 0
M  V30 5343 N 509.944 0.496216 -1.49584 0
M  V30 5344 C 511.192 1.24756 -1.58998 0
M  V30 5345 C 511.513 1.92968 -0.280775 0
M  V30 5346 O 510.783 1.82959 0.700198 0
M  V30 5347 H 509.363 0.463471 -0.585836 0
M  V30 5348 H 512.025 0.574678 -1.86235 0
M  V30 5349 H 511.121 2.00895 -2.38847 0
M  V30 5350 N 511.423 1.38739 0.74761 0
M  V30 5351 C 512.373 1.32948 1.85226 0
M  V30 5352 C 513.357 0.212642 1.59489 0
M  V30 5353 O 514.549 0.449121 1.71207 0
M  V30 5354 C 511.678 1.16279 3.23008 0
M  V30 5355 C 510.764 2.32611 3.54617 0
M  V30 5356 N 511.155 3.58065 3.57244 0
M  V30 5357 C 509.453 2.25293 3.84914 0
M  V30 5358 C 510.154 4.34919 3.8629 0
M  V30 5359 N 509.13 3.64348 4.03425 0
M  V30 5360 H 512.932 2.27927 1.85544 0
M  V30 5361 H 510.446 1.32056 0.945253 0
M  V30 5362 H 512.443 1.10214 4.02068 0
M  V30 5363 H 511.103 0.222394 3.23937 0
M  V30 5364 H 512.114 3.91656 3.3886 0
M  V30 5365 H 508.791 1.39446 3.93524 0
M  V30 5366 H 510.181 5.43605 3.94896 0
M  V30 5367 N 512.901 -0.976442 1.23707 0
M  V30 5368 C 514.149 -1.71487 1.06942 0
M  V30 5369 C 514.47 -1.9098 -0.393897 0
M  V30 5370 O 513.74 -1.48128 -1.28198 0
M  V30 5371 H 512.32 -0.635425 0.392739 0
M  V30 5372 H 514.982 -1.17515 1.55487 0
M  V30 5373 H 514.078 -2.70286 1.56051 0
M  V30 5374 N 514.379 -1.04941 -1.1758 0
M  V30 5375 C 515.627 -0.756492 -1.87408 0
M  V30 5376 C 515.948 0.718478 -1.81281 0
M  V30 5377 O 515.218 1.519 -1.23706 0
M  V30 5378 H 513.798 -0.276841 -0.693807 0
M  V30 5379 H 516.46 -1.32803 -1.42652 0
M  V30 5380 H 515.556 -1.06918 -2.93215 0
M  V30 5381 N 515.857 1.33968 -0.830081 0
M  V30 5382 C 516.787 2.31911 -0.271911 0
M  V30 5383 C 517.768 1.58571 0.61556 0
M  V30 5384 O 518.953 1.86514 0.540946 0
M  V30 5385 C 516.083 3.42737 0.561146 0
M  V30 5386 C 515.037 4.27383 -0.229789 0
M  V30 5387 C 514.363 5.29742 0.726463 0
M  V30 5388 C 515.663 5.02 -1.44197 0
M  V30 5389 H 517.357 2.78844 -1.09025 0
M  V30 5390 H 514.903 1.34061 -0.52571 0
M  V30 5391 H 516.856 4.10276 0.961867 0
M  V30 5392 H 515.58 2.94471 1.41261 0
M  V30 5393 H 514.239 3.61456 -0.611964 0
M  V30 5394 H 513.887 4.77736 1.57408 0
M  V30 5395 H 513.587 5.87255 0.20142 0
M  V30 5396 H 515.111 6.00149 1.12489 0
M  V30 5397 H 516.525 5.62355 -1.11488 0
M  V30 5398 H 514.922 5.69122 -1.90317 0
M  V30 5399 H 515.992 4.31281 -2.2164 0
M  V30 5400 N 517.335 0.585699 1.46312 0
M  V30 5401 C 518.265 -0.133556 2.33118 0
M  V30 5402 C 519.246 -0.880707 1.45525 0
M  V30 5403 O 520.431 -0.855579 1.74337 0
M  V30 5404 C 517.561 -1.14585 3.27853 0
M  V30 5405 C 516.515 -0.513341 4.2491 0
M  V30 5406 C 515.841 -1.63231 5.09175 0
M  V30 5407 C 517.141 0.551413 5.19381 0
M  V30 5408 H 518.835 0.59121 2.93505 0
M  V30 5409 H 516.381 0.285761 1.41136 0
M  V30 5410 H 518.334 -1.65741 3.87438 0
M  V30 5411 H 517.058 -1.90093 2.65579 0
M  V30 5412 H 515.717 -0.0228349 3.66593 0
M  V30 5413 H 515.365 -2.37713 4.43285 0
M  V30 5414 H 515.065 -1.21473 5.74907 0
M  V30 5415 H 516.589 -2.14658 5.71624 0
M  V30 5416 H 518.003 0.124804 5.73164 0
M  V30 5417 H 516.4 0.889486 5.93471 0
M  V30 5418 H 517.47 1.43655 4.63132 0
M  V30 5419 N 518.813 -1.54241 0.323641 0
M  V30 5420 C 519.761 -2.25813 -0.557804 0
M  V30 5421 C 520.755 -1.27225 -1.11849 0
M  V30 5422 O 521.961 -1.45001 -1.06652 0
M  V30 5423 H 518.336 -0.72532 -0.198532 0
M  V30 5424 H 520.307 -2.98322 0.0681112 0
M  V30 5425 C 519.056 -3.02913 -1.70701 0
M  V30 5426 H 518.379 -3.78593 -1.28482 0
M  V30 5427 H 519.819 -3.56238 -2.29935 0
M  V30 5428 C 518.278 -2.11217 -2.62467 0
M  V30 5429 O 518.808 -1.69508 -3.64184 0
M  V30 5430 N 517.014 -1.76704 -2.30703 0
M  V30 5431 H 516.561 -2.1082 -1.48029 0
M  V30 5432 H 516.519 -1.15631 -2.92364 0
M  V30 5433 N 520.291 -0.0518155 -1.57515 0
M  V30 5434 C 521.568 0.661727 -1.84067 0
M  V30 5435 C 521.948 1.88999 -0.940351 0
M  V30 5436 O 521.296 2.285 -0.00155404 0
M  V30 5437 C 521.506 1.01841 -3.3381 0
M  V30 5438 C 522.854 1.40043 -4.00841 0
M  V30 5439 O 523.878 1.11073 -3.38439 0
M  V30 5440 O 522.737 1.94111 -5.10865 0
M  V30 5441 H 519.831 0.326702 -0.759733 0
M  V30 5442 H 522.377 -0.0812277 -1.69505 0
M  V30 5443 H 521.149 0.145202 -3.91031 0
M  V30 5444 H 520.772 1.81879 -3.53562 0
M  V30 5445 N 521.769 1.56035 0.221574 0
M  V30 5446 C 522.997 1.8313 0.962864 0
M  V30 5447 C 523.412 0.630934 1.77946 0
M  V30 5448 O 522.769 -0.400519 1.78051 0
M  V30 5449 C 522.82 3.08742 1.88045 0
M  V30 5450 O 522.541 4.24147 1.09686 0
M  V30 5451 C 524.042 3.48824 2.73563 0
M  V30 5452 H 521.262 0.608775 0.282194 0
M  V30 5453 H 523.806 2.03124 0.23681 0
M  V30 5454 H 521.961 2.90723 2.56045 0
M  V30 5455 H 522.375 4.95505 1.71974 0
M  V30 5456 H 523.849 4.39752 3.3365 0
M  V30 5457 H 524.326 2.70575 3.45956 0
M  V30 5458 H 524.932 3.69282 2.10976 0
M  V30 5459 N 523.247 -0.488276 1.49845 0
M  V30 5460 C 524.472 -1.26997 1.63971 0
M  V30 5461 C 524.897 -1.85427 0.315994 0
M  V30 5462 O 524.255 -1.66475 -0.718032 0
M  V30 5463 C 524.303 -2.36689 2.72049 0
M  V30 5464 O 523.407 -3.40882 2.32107 0
M  V30 5465 H 522.748 -0.374376 0.548396 0
M  V30 5466 H 525.278 -0.583104 1.96115 0
M  V30 5467 H 525.288 -2.82262 2.94605 0
M  V30 5468 H 523.963 -1.93529 3.68129 0
M  V30 5469 H 522.54 -3.01139 2.19931 0
M  V30 5470 N 524.725 -1.39134 -0.740242 0
M  V30 5471 C 525.688 -1.37217 -1.83587 0
M  V30 5472 C 526.688 -0.270221 -1.58513 0
M  V30 5473 O 527.878 -0.527843 -1.6601 0
M  V30 5474 C 525.01 -1.13959 -3.21288 0
M  V30 5475 H 526.203 -2.34705 -1.86691 0
M  V30 5476 H 523.756 -1.24622 -0.94335 0
M  V30 5477 H 524.491 -0.17131 -3.23847 0
M  V30 5478 H 524.276 -1.93754 -3.40884 0
M  V30 5479 H 525.766 -1.15346 -4.01354 0
M  V30 5480 N 526.204 0.969867 -1.24223 0
M  V30 5481 C 527.615 1.52717 -1.07399 0
M  V30 5482 C 527.966 1.92956 0.355298 0
M  V30 5483 O 527.091 1.77112 1.2434 0
M  V30 5484 C 527.686 2.77521 -1.94339 0
M  V30 5485 C 526.245 3.29615 -1.81744 0
M  V30 5486 C 525.392 2.02537 -1.89405 0
M  V30 5487 H 528.343 0.788399 -1.37732 0
M  V30 5488 H 528.364 3.50773 -1.47439 0
M  V30 5489 H 527.876 2.48203 -2.98357 0
M  V30 5490 H 525.977 3.63789 -0.805505 0
M  V30 5491 H 526.09 3.98661 -2.65718 0
M  V30 5492 H 524.454 2.17151 -1.33108 0
M  V30 5493 H 525.237 1.75587 -2.94999 0
M  V30 5494 N 527.682 1.05563 1.17022 0
M  V30 5495 C 528.632 0.630007 2.19123 0
M  V30 5496 C 529.616 -0.335472 1.57364 0
M  V30 5497 O 530.808 -0.1521 1.76345 0
M  V30 5498 C 527.937 0.0101676 3.43298 0
M  V30 5499 C 527.023 0.999698 4.12149 0
M  V30 5500 N 527.414 2.17251 4.56766 0
M  V30 5501 C 525.712 0.829 4.38228 0
M  V30 5502 C 526.413 2.79883 5.09942 0
M  V30 5503 N 525.389 2.07656 5.02374 0
M  V30 5504 H 529.191 1.52353 2.51328 0
M  V30 5505 H 526.705 0.926288 1.33393 0
M  V30 5506 H 528.702 -0.312541 4.15727 0
M  V30 5507 H 527.362 -0.878707 3.12584 0
M  V30 5508 H 528.373 2.55067 4.50734 0
M  V30 5509 H 525.05 -0.00850974 4.17499 0
M  V30 5510 H 526.44 3.79362 5.54558 0
M  V30 5511 N 529.16 -1.33526 0.837174 0
M  V30 5512 C 530.09 -2.31764 0.284206 0
M  V30 5513 C 531.071 -1.58896 -0.607142 0
M  V30 5514 O 532.256 -1.86798 -0.531047 0
M  V30 5515 C 529.386 -3.43029 -0.542962 0
M  V30 5516 C 528.34 -4.27255 0.252451 0
M  V30 5517 C 527.666 -5.3012 -0.69836 0
M  V30 5518 C 528.966 -5.01229 1.46858 0
M  V30 5519 H 530.66 -2.78262 1.10502 0
M  V30 5520 H 528.206 -1.3378 0.532812 0
M  V30 5521 H 530.159 -4.1078 -0.940096 0
M  V30 5522 H 528.883 -2.95216 -1.39697 0
M  V30 5523 H 527.542 -3.61127 0.631124 0
M  V30 5524 H 527.19 -4.78564 -1.54872 0
M  V30 5525 H 526.89 -5.87353 -0.170274 0
M  V30 5526 H 528.414 -6.00737 -1.09305 0
M  V30 5527 H 529.828 -5.61756 1.14469 0
M  V30 5528 H 528.225 -5.68104 1.93333 0
M  V30 5529 H 529.295 -4.301 2.23924 0
M  V30 5530 N 530.638 -0.59345 -1.46 0
M  V30 5531 C 531.548 0.135817 -2.34207 0
M  V30 5532 C 532.564 0.875008 -1.50398 0
M  V30 5533 O 533.74 0.835778 -1.83239 0
M  V30 5534 C 530.805 1.12977 -3.27776 0
M  V30 5535 C 529.866 0.394081 -4.27487 0
M  V30 5536 C 529.099 1.34068 -5.16586 0
M  V30 5537 O 529.322 2.5778 -5.08828 0
M  V30 5538 O 528.256 0.845426 -5.95933 0
M  V30 5539 H 532.082 -0.588691 -2.9794 0
M  V30 5540 H 529.667 -0.353784 -1.45151 0
M  V30 5541 H 531.549 1.70261 -3.85473 0
M  V30 5542 H 530.224 1.83556 -2.66625 0
M  V30 5543 H 529.131 -0.220869 -3.73447 0
M  V30 5544 H 530.464 -0.270939 -4.91454 0
M  V30 5545 N 532.116 1.54067 -0.331816 0
M  V30 5546 C 533.064 2.26105 0.54582 0
M  V30 5547 C 534.058 1.27816 1.11173 0
M  V30 5548 O 535.264 1.45565 1.05882 0
M  V30 5549 H 531.639 0.726363 0.194683 0
M  V30 5550 H 533.61 2.98282 -0.083931 0
M  V30 5551 C 532.359 3.03814 1.69092 0
M  V30 5552 H 531.682 3.79269 1.26473 0
M  V30 5553 H 533.122 3.57453 2.28043 0
M  V30 5554 C 531.581 2.12606 2.61343 0
M  V30 5555 O 532.111 1.71437 3.6328 0
M  V30 5556 N 530.317 1.77925 2.29763 0
M  V30 5557 H 529.864 2.11602 1.46909 0
M  V30 5558 H 529.822 1.1718 2.91747 0
M  V30 5559 N 533.594 0.0601682 1.57485 0
M  V30 5560 C 534.819 -0.624416 1.97777 0
M  V30 5561 C 535.244 -1.63051 0.937867 0
M  V30 5562 O 534.602 -1.81036 -0.0978845 0
M  V30 5563 C 534.65 -1.27979 3.37126 0
M  V30 5564 O 533.754 -2.39556 3.35688 0
M  V30 5565 H 533.095 -0.161581 0.64404 0
M  V30 5566 H 535.625 0.131237 2.04179 0
M  V30 5567 H 535.635 -1.62937 3.74053 0
M  V30 5568 H 534.31 -0.542501 4.12347 0
M  V30 5569 H 532.887 -2.06478 3.10517 0
M  V30 5570 N 535.072 -1.5615 -0.213296 0
M  V30 5571 C 536.32 -1.79191 -0.934612 0
M  V30 5572 C 536.641 -0.630112 -1.84539 0
M  V30 5573 O 535.911 0.35257 -1.92701 0
M  V30 5574 H 534.491 -0.660937 -0.348097 0
M  V30 5575 H 537.153 -1.93618 -0.22317 0
M  V30 5576 H 536.249 -2.71656 -1.53654 0
M  V30 5577 N 536.55 0.480323 -1.50102 0
M  V30 5578 C 537.5 1.57685 -1.6468 0
M  V30 5579 C 538.484 1.52878 -0.5017 0
M  V30 5580 O 539.676 1.60058 -0.755668 0
M  V30 5581 C 536.805 2.96185 -1.73578 0
M  V30 5582 C 535.891 3.0591 -2.93734 0
M  V30 5583 N 536.282 2.85471 -4.1754 0
M  V30 5584 C 534.58 3.37036 -2.92101 0
M  V30 5585 C 535.281 2.99921 -4.9842 0
M  V30 5586 N 534.257 3.29715 -4.32191 0
M  V30 5587 H 538.059 1.40568 -2.58104 0
M  V30 5588 H 535.573 0.686874 -1.47159 0
M  V30 5589 H 537.57 3.75015 -1.82124 0
M  V30 5590 H 536.23 3.14356 -0.813057 0
M  V30 5591 H 537.241 2.61235 -4.47188 0
M  V30 5592 H 533.918 3.61253 -2.09291 0
M  V30 5593 H 535.308 2.88436 -6.06839 0
M  V30 5594 N 538.028 1.39524 0.732853 0
M  V30 5595 C 539.256 1.40143 1.52209 0
M  V30 5596 C 539.671 -0.00348836 1.888 0
M  V30 5597 O 539.028 -0.975357 1.5425 0
M  V30 5598 C 539.079 2.27632 2.8083 0
M  V30 5599 O 538.8 3.62654 2.45792 0
M  V30 5600 C 540.301 2.36658 3.74844 0
M  V30 5601 H 537.521 0.478604 0.470297 0
M  V30 5602 H 540.065 1.83366 0.905388 0
M  V30 5603 H 538.22 1.87818 3.38826 0
M  V30 5604 H 538.634 4.08941 3.28431 0
M  V30 5605 H 540.108 3.02118 4.61984 0
M  V30 5606 H 540.585 1.38638 4.16745 0
M  V30 5607 H 541.191 2.76951 3.22766 0
M  V30 5608 N 539.506 -0.963266 1.24736 0
M  V30 5609 C 540.755 -1.70115 1.08369 0
M  V30 5610 C 541.068 -1.91939 -0.376688 0
M  V30 5611 O 542.274 -2.6334 -0.660624 0
M  V30 5612 C 540.73 -3.06218 1.89099 0
M  V30 5613 C 540.338 -2.92221 3.39574 0
M  V30 5614 C 542.082 -3.83848 1.81275 0
M  V30 5615 C 539.989 -4.23662 4.12631 0
M  V30 5616 H 538.919 -0.637944 0.401924 0
M  V30 5617 H 541.57 -1.07304 1.48856 0
M  V30 5618 H 539.952 -3.69884 1.41429 0
M  V30 5619 H 541.126 -2.37541 3.94856 0
M  V30 5620 H 539.441 -2.28054 3.48397 0
M  V30 5621 H 542.038 -4.81188 2.33158 0
M  V30 5622 H 542.381 -4.08949 0.778895 0
M  V30 5623 H 542.914 -3.26918 2.26649 0
M  V30 5624 H 539.653 -4.03753 5.16395 0
M  V30 5625 H 539.173 -4.78141 3.62135 0
M  V30 5626 H 540.852 -4.92256 4.19873 0
M  V30 5627 N 540.985 -1.06182 -1.16461 0
M  V30 5628 C 542.232 -0.777863 -1.86964 0
M  V30 5629 C 542.56 0.695602 -1.81636 0
M  V30 5630 O 541.815 1.52532 -1.22607 0
M  V30 5631 C 542.114 -1.21633 -3.36066 0
M  V30 5632 C 541.78 -2.69371 -3.61594 0
M  V30 5633 C 540.442 -3.09727 -3.6827 0
M  V30 5634 C 542.794 -3.64791 -3.7226 0
M  V30 5635 C 540.122 -4.44345 -3.83112 0
M  V30 5636 C 542.474 -4.99155 -3.88623 0
M  V30 5637 C 541.138 -5.39149 -3.93541 0
M  V30 5638 H 540.408 -0.28464 -0.68415 0
M  V30 5639 H 543.055 -1.33071 -1.37711 0
M  V30 5640 H 541.36 -0.582651 -3.87443 0
M  V30 5641 H 543.057 -0.973682 -3.88999 0
M  V30 5642 H 539.647 -2.37124 -3.57029 0
M  V30 5643 H 543.831 -3.34746 -3.66413 0
M  V30 5644 H 539.087 -4.74819 -3.85172 0
M  V30 5645 H 543.261 -5.72976 -3.95817 0
M  V30 5646 H 540.888 -6.43464 -4.04794 0
M  V30 5647 N 542.463 1.3308 -0.844243 0
M  V30 5648 C 543.411 2.31028 -0.269954 0
M  V30 5649 C 544.405 1.58381 0.600997 0
M  V30 5650 O 545.611 1.73203 0.48996 0
M  V30 5651 H 541.986 0.748866 -0.0685782 0
M  V30 5652 H 543.957 2.76967 -1.11049 0
M  V30 5653 C 542.706 3.43549 0.535676 0
M  V30 5654 H 542.029 3.99604 -0.125202 0
M  V30 5655 H 543.469 4.14267 0.903262 0
M  V30 5656 C 541.928 2.8988 1.71672 0
M  V30 5657 O 542.458 2.86511 2.81557 0
M  V30 5658 N 540.664 2.46416 1.54037 0
M  V30 5659 H 540.211 2.49356 0.64649 0
M  V30 5660 H 540.169 2.1086 2.33207 0
M  V30 5661 N 543.941 0.601185 1.45683 0
M  V30 5662 C 545.218 0.0261659 1.95582 0
M  V30 5663 C 545.598 -1.4399 1.5437 0
M  V30 5664 O 544.946 -2.13919 0.80318 0
M  V30 5665 C 545.156 0.217557 3.48321 0
M  V30 5666 C 546.504 0.0950076 4.24494 0
M  V30 5667 O 547.528 0.147345 3.55895 0
M  V30 5668 O 546.387 -0.025261 5.46494 0
M  V30 5669 H 543.481 -0.0393688 0.826062 0
M  V30 5670 H 546.027 0.670798 1.55879 0
M  V30 5671 H 544.799 1.23601 3.71266 0
M  V30 5672 H 544.422 -0.46264 3.94899 0
M  V30 5673 N 545.419 -1.53889 0.339982 0
M  V30 5674 C 546.83 -1.86139 -0.144671 0
M  V30 5675 C 547.181 -1.2613 -1.50285 0
M  V30 5676 O 546.306 -0.573515 -2.08662 0
M  V30 5677 C 546.901 -3.37728 -0.269285 0
M  V30 5678 C 545.46 -3.69868 -0.698168 0
M  V30 5679 C 544.607 -2.76777 0.170249 0
M  V30 5680 H 547.558 -1.48503 0.559704 0
M  V30 5681 H 547.579 -3.64331 -1.0974 0
M  V30 5682 H 547.091 -3.81375 0.719366 0
M  V30 5683 H 545.192 -3.31764 -1.69597 0
M  V30 5684 H 545.305 -4.76582 -0.490533 0
M  V30 5685 H 543.669 -2.52188 -0.356844 0
M  V30 5686 H 544.452 -3.23253 1.15597 0
M  V30 5687 N 546.897 -0.0685191 -1.57451 0
M  V30 5688 C 548.144 0.601348 -1.93365 0
M  V30 5689 C 548.472 1.69816 -0.948294 0
M  V30 5690 O 547.727 1.95666 0.0366199 0
M  V30 5691 C 548.026 1.22051 -3.35914 0
M  V30 5692 C 547.692 0.250165 -4.50205 0
M  V30 5693 C 546.354 -0.0167954 -4.81197 0
M  V30 5694 C 548.706 -0.413867 -5.19554 0
M  V30 5695 C 546.034 -0.95493 -5.78876 0
M  V30 5696 C 548.386 -1.3403 -6.18238 0
M  V30 5697 C 547.05 -1.61576 -6.47649 0
M  V30 5698 H 546.32 0.220049 -0.707573 0
M  V30 5699 H 548.967 -0.138697 -1.90997 0
M  V30 5700 H 547.272 2.03622 -3.34732 0
M  V30 5701 H 548.969 1.74605 -3.6099 0
M  V30 5702 H 545.559 0.468421 -4.26033 0
M  V30 5703 H 549.743 -0.220733 -4.95809 0
M  V30 5704 H 544.999 -1.17563 -5.99991 0
M  V30 5705 H 549.173 -1.86081 -6.71079 0
M  V30 5706 H 546.8 -2.34431 -7.2315 0
M  V30 5707 N 548.375 1.56261 0.205012 0
M  V30 5708 C 549.622 1.8004 0.926927 0
M  V30 5709 C 549.95 0.640086 1.83666 0
M  V30 5710 O 549.205 -0.374702 1.92079 0
M  V30 5711 C 549.504 3.09722 1.78345 0
M  V30 5712 C 549.17 4.39082 1.02555 0
M  V30 5713 C 547.832 4.74226 0.816256 0
M  V30 5714 C 550.184 5.18877 0.491559 0
M  V30 5715 C 547.512 5.86668 0.0613287 0
M  V30 5716 C 549.864 6.32105 -0.250107 0
M  V30 5717 C 548.528 6.6584 -0.470508 0
M  V30 5718 H 547.798 0.658812 0.339187 0
M  V30 5719 H 550.445 1.90515 0.19395 0
M  V30 5720 H 548.75 2.9444 2.5848 0
M  V30 5721 H 550.447 3.25324 2.34446 0
M  V30 5722 H 547.037 4.11497 1.19868 0
M  V30 5723 H 551.221 4.92147 0.640684 0
M  V30 5724 H 546.477 6.11283 -0.119501 0
M  V30 5725 H 550.651 6.93157 -0.671307 0
M  V30 5726 H 548.278 7.5281 -1.05739 0
M  V30 5727 N 549.853 -0.472356 1.50355 0
M  V30 5728 C 551.102 -1.2213 1.60522 0
M  V30 5729 C 551.415 -1.9312 0.310466 0
M  V30 5730 O 552.621 -2.69936 0.291029 0
M  V30 5731 C 551.077 -2.21909 2.83345 0
M  V30 5732 C 550.685 -1.56727 4.19691 0
M  V30 5733 C 552.429 -2.97453 3.02856 0
M  V30 5734 C 550.336 -2.54785 5.33703 0
M  V30 5735 H 549.266 -0.459543 0.597776 0
M  V30 5736 H 551.917 -0.491922 1.76783 0
M  V30 5737 H 550.299 -2.98133 2.60639 0
M  V30 5738 H 551.473 -0.863007 4.52646 0
M  V30 5739 H 549.788 -0.934685 4.05774 0
M  V30 5740 H 552.385 -3.70838 3.85205 0
M  V30 5741 H 552.728 -3.56764 2.14534 0
M  V30 5742 H 553.261 -2.28342 3.25737 0
M  V30 5743 H 550 -2.00214 6.24175 0
M  V30 5744 H 549.52 -3.23367 5.05167 0
M  V30 5745 H 551.199 -3.16639 5.64224 0
M  V30 5746 N 551.331 -1.39911 -0.725443 0
M  V30 5747 C 552.577 -1.37858 -1.48738 0
M  V30 5748 C 552.91 0.0224187 -1.94187 0
M  V30 5749 O 552.185 0.989204 -1.67466 0
M  V30 5750 C 552.468 -2.3594 -2.72038 0
M  V30 5751 C 552.321 -3.85023 -2.32546 0
M  V30 5752 C 553.64 -2.31704 -3.74167 0
M  V30 5753 H 550.759 -0.502074 -0.539528 0
M  V30 5754 H 553.401 -1.70974 -0.828728 0
M  V30 5755 H 551.551 -2.0783 -3.28236 0
M  V30 5756 H 553.223 -4.2392 -1.81905 0
M  V30 5757 H 551.466 -4.01334 -1.64661 0
M  V30 5758 H 552.137 -4.49152 -3.20884 0
M  V30 5759 H 554.613 -2.5658 -3.27576 0
M  V30 5760 H 553.489 -3.02395 -4.58092 0
M  V30 5761 H 553.75 -1.3253 -4.21768 0
M  V30 5762 N 552.809 0.956637 -1.25245 0
M  V30 5763 C 553.719 2.0868 -1.0719 0
M  V30 5764 C 554.735 1.73997 -0.00959074 0
M  V30 5765 O 555.911 2.00301 -0.210104 0
M  V30 5766 C 552.976 3.39754 -0.690526 0
M  V30 5767 C 552.037 3.88316 -1.83055 0
M  V30 5768 C 551.27 5.13134 -1.46728 0
M  V30 5769 O 551.493 5.6925 -0.362029 0
M  V30 5770 O 550.427 5.56356 -2.29677 0
M  V30 5771 H 554.253 2.26813 -2.01965 0
M  V30 5772 H 551.838 1.07098 -1.04165 0
M  V30 5773 H 553.72 4.18543 -0.489871 0
M  V30 5774 H 552.395 3.22896 0.227981 0
M  V30 5775 H 551.302 3.1054 -2.08604 0
M  V30 5776 H 552.635 4.09669 -2.72822 0
M  V30 5777 N 554.287 1.06798 1.15896 0
M  V30 5778 C 555.515 0.808694 1.90441 0
M  V30 5779 C 555.93 -0.637506 1.77711 0
M  V30 5780 O 555.287 -1.43684 1.12522 0
M  V30 5781 C 555.338 1.20068 3.40978 0
M  V30 5782 O 555.059 2.59013 3.53333 0
M  V30 5783 C 556.56 0.96987 4.3256 0
M  V30 5784 H 553.78 0.292809 0.603742 0
M  V30 5785 H 556.324 1.42296 1.46874 0
M  V30 5786 H 554.479 0.630842 3.82229 0
M  V30 5787 H 554.893 2.7485 4.46719 0
M  V30 5788 H 556.367 1.29371 5.36626 0
M  V30 5789 H 556.844 -0.0941209 4.39099 0
M  V30 5790 H 557.45 1.52433 3.97044 0
M  V30 5791 N 555.766 -1.3263 0.851289 0
M  V30 5792 C 557.012 -1.9766 0.453694 0
M  V30 5793 C 557.345 -1.67225 -0.987396 0
M  V30 5794 O 556.62 -0.958693 -1.69232 0
M  V30 5795 C 556.903 -3.5344 0.68936 0
M  V30 5796 C 556.756 -3.93517 2.17862 0
M  V30 5797 C 558.075 -4.39866 0.143555 0
M  V30 5798 H 555.194 -0.717989 0.166314 0
M  V30 5799 H 557.836 -1.57068 1.06909 0
M  V30 5800 H 555.986 -3.88147 0.165546 0
M  V30 5801 H 557.658 -3.69006 2.76826 0
M  V30 5802 H 555.901 -3.42798 2.65841 0
M  V30 5803 H 556.572 -5.02065 2.29422 0
M  V30 5804 H 559.048 -4.11875 0.591451 0
M  V30 5805 H 557.924 -5.47858 0.338043 0
M  V30 5806 H 558.185 -4.31696 -0.953466 0
M  V30 5807 N 557.244 -0.608902 -1.45362 0
M  V30 5808 C 558.484 -0.10763 -2.04116 0
M  V30 5809 C 558.848 1.23883 -1.46686 0
M  V30 5810 O 560.049 1.83091 -1.96803 0
M  V30 5811 C 558.32 -0.0703351 -3.57331 0
M  V30 5812 S 559.879 0.369554 -4.37241 0
M  V30 5813 H 556.697 -0.0502123 -0.709225 0
M  V30 5814 H 559.299 -0.8073 -1.78053 0
M  V30 5815 H 558.003 -1.05379 -3.9664 0
M  V30 5816 H 557.534 0.651287 -3.87971 0
M  V30 5817 H 559.549 1.61878 -4.69052 0
M  V30 5818 N 558.722 1.53707 -0.348139 0
M  V30 5819 C 559.971 2.0017 0.247992 0
M  V30 5820 C 560.284 1.23983 1.51286 0
M  V30 5821 O 561.49 1.60946 2.18652 0
M  V30 5822 C 559.946 3.56515 0.492459 0
M  V30 5823 C 559.554 4.41562 -0.756777 0
M  V30 5824 C 561.298 4.11381 1.0472 0
M  V30 5825 C 559.205 5.89426 -0.482856 0
M  V30 5826 H 558.135 0.747806 0.0964452 0
M  V30 5827 H 560.786 1.77532 -0.464179 0
M  V30 5828 H 559.168 3.75236 1.26545 0
M  V30 5829 H 560.342 4.34615 -1.53122 0
M  V30 5830 H 558.657 3.97711 -1.23348 0
M  V30 5831 H 561.254 5.19468 1.26717 0
M  V30 5832 H 561.597 3.64885 2.00411 0
M  V30 5833 H 562.13 3.96389 0.334801 0
M  V30 5834 H 558.869 6.40164 -1.40962 0
M  V30 5835 H 558.389 5.99264 0.253416 0
M  V30 5836 H 560.068 6.4692 -0.101816 0
M  V30 5837 N 560.2 0.0768682 1.57412 0
M  V30 5838 C 561.446 -0.591961 1.93968 0
M  V30 5839 C 561.779 -1.68954 0.9575 0
M  V30 5840 O 561.054 -1.94496 -0.0124675 0
M  V30 5841 C 561.337 -1.16418 3.40762 0
M  V30 5842 C 561.19 -0.0728933 4.49741 0
M  V30 5843 C 562.509 -2.06814 3.88479 0
M  V30 5844 H 559.628 -0.213716 0.705333 0
M  V30 5845 H 562.27 0.14387 1.89455 0
M  V30 5846 H 560.42 -1.79128 3.4474 0
M  V30 5847 H 562.092 0.560446 4.57883 0
M  V30 5848 H 560.335 0.595859 4.29688 0
M  V30 5849 H 561.006 -0.513755 5.49604 0
M  V30 5850 H 563.482 -1.54033 3.8654 0
M  V30 5851 H 562.358 -2.43785 4.91793 0
M  V30 5852 H 562.619 -2.97844 3.26713 0
M  V30 5853 N 561.678 -1.56367 -0.196722 0
M  V30 5854 C 562.924 -1.81698 -0.914182 0
M  V30 5855 C 563.279 -0.65367 -1.80956 0
M  V30 5856 O 562.572 0.351224 -1.88353 0
M  V30 5857 C 562.766 -3.10663 -1.767 0
M  V30 5858 C 562.595 -4.39428 -0.955689 0
M  V30 5859 C 561.365 -5.01221 -0.64076 0
M  V30 5860 C 563.563 -5.1337 -0.309165 0
M  V30 5861 N 561.545 -6.13608 0.189358 0
M  V30 5862 C 562.916 -6.18815 0.383225 0
M  V30 5863 C 564.971 -4.97393 -0.224726 0
M  V30 5864 C 563.674 -7.10015 1.15201 0
M  V30 5865 C 565.7 -5.89014 0.530658 0
M  V30 5866 C 565.062 -6.93903 1.2115 0
M  V30 5867 H 561.161 -0.716203 -0.31397 0
M  V30 5868 H 563.745 -1.93838 -0.18304 0
M  V30 5869 H 561.916 -2.99762 -2.46976 0
M  V30 5870 H 563.648 -3.24088 -2.42382 0
M  V30 5871 H 560.403 -4.63669 -0.96479 0
M  V30 5872 H 560.827 -6.74389 0.593979 0
M  V30 5873 H 565.469 -4.16331 -0.736754 0
M  V30 5874 H 563.187 -7.9054 1.67547 0
M  V30 5875 H 566.773 -5.78726 0.597326 0
M  V30 5876 H 565.653 -7.63576 1.78665 0
M  V30 5877 N 563.156 0.464375 -1.50603 0
M  V30 5878 C 564.403 1.21596 -1.61928 0
M  V30 5879 C 564.731 1.91804 -0.322737 0
M  V30 5880 O 563.986 1.83065 0.691776 0
M  V30 5881 C 564.285 2.278 -2.75394 0
M  V30 5882 C 563.951 1.74797 -4.1564 0
M  V30 5883 C 562.613 1.60063 -4.53799 0
M  V30 5884 C 564.965 1.35548 -5.03266 0
M  V30 5885 C 562.293 1.04514 -5.77316 0
M  V30 5886 C 564.645 0.814381 -6.27336 0
M  V30 5887 C 563.309 0.653726 -6.64291 0
M  V30 5888 H 562.579 0.444951 -0.592536 0
M  V30 5889 H 565.226 0.510964 -1.84557 0
M  V30 5890 H 563.531 3.04233 -2.46879 0
M  V30 5891 H 565.228 2.85723 -2.81359 0
M  V30 5892 H 561.818 1.87234 -3.8554 0
M  V30 5893 H 566.002 1.45763 -4.74412 0
M  V30 5894 H 561.258 0.908186 -6.04617 0
M  V30 5895 H 565.432 0.501626 -6.94591 0
M  V30 5896 H 563.059 0.22114 -7.59878 0
M  V30 5897 N 564.634 1.40294 0.718013 0
M  V30 5898 C 565.859 1.41941 1.5122 0
M  V30 5899 C 566.284 0.0202371 1.88089 0
M  V30 5900 O 565.642 -0.971078 1.53101 0
M  V30 5901 C 565.69 2.3141 2.76554 0
M  V30 5902 O 564.794 1.75567 3.73162 0
M  V30 5903 H 564.135 0.482644 0.456016 0
M  V30 5904 H 566.665 1.84494 0.884478 0
M  V30 5905 H 566.675 2.46513 3.25108 0
M  V30 5906 H 565.35 3.33085 2.49053 0
M  V30 5907 H 563.927 1.69798 3.31999 0
M  V30 5908 N 566.112 -0.949982 1.2575 0
M  V30 5909 C 567.359 -1.69515 1.10774 0
M  V30 5910 C 567.687 -1.91316 -0.350479 0
M  V30 5911 O 566.942 -1.48515 -1.27443 0
M  V30 5912 C 567.241 -3.08039 1.81237 0
M  V30 5913 C 566.907 -3.06023 3.31151 0
M  V30 5914 C 565.569 -3.0518 3.72047 0
M  V30 5915 C 567.921 -2.98998 4.26907 0
M  V30 5916 C 565.249 -2.95067 5.07102 0
M  V30 5917 C 567.601 -2.90426 5.61992 0
M  V30 5918 C 566.265 -2.87922 6.0221 0
M  V30 5919 H 565.535 -0.6203 0.405351 0
M  V30 5920 H 568.182 -1.10953 1.56082 0
M  V30 5921 H 566.487 -3.70172 1.28373 0
M  V30 5922 H 568.184 -3.64526 1.67098 0
M  V30 5923 H 564.774 -3.07453 2.98614 0
M  V30 5924 H 568.958 -2.98764 3.963 0
M  V30 5925 H 564.214 -2.915 5.37436 0
M  V30 5926 H 568.388 -2.83952 6.35881 0
M  V30 5927 H 566.015 -2.79841 7.06819 0
M  V30 5928 N 567.59 -1.07411 -1.15328 0
M  V30 5929 C 568.5 -0.706438 -2.23711 0
M  V30 5930 C 569.516 0.282586 -1.7169 0
M  V30 5931 O 570.692 0.129066 -2.00986 0
M  V30 5932 C 567.757 -0.11048 -3.46524 0
M  V30 5933 C 566.818 -1.15282 -4.13532 0
M  V30 5934 C 566.051 -0.585205 -5.30482 0
M  V30 5935 O 566.274 0.598549 -5.67251 0
M  V30 5936 O 565.208 -1.33039 -5.87013 0
M  V30 5937 H 569.034 -1.61031 -2.57493 0
M  V30 5938 H 566.619 -0.847113 -1.23062 0
M  V30 5939 H 568.501 0.21957 -4.20828 0
M  V30 5940 H 567.176 0.766703 -3.14489 0
M  V30 5941 H 566.083 -1.53523 -3.41147 0
M  V30 5942 H 567.416 -2.00192 -4.49649 0
M  V30 5943 N 569.068 1.32177 -0.85831 0
M  V30 5944 C 570.315 1.97125 -0.463484 0
M  V30 5945 C 570.643 1.67907 0.981705 0
M  V30 5946 O 569.898 0.961717 1.70439 0
M  V30 5947 C 570.197 3.51372 -0.653658 0
M  V30 5948 C 569.863 4.00584 -2.06987 0
M  V30 5949 C 568.525 4.13733 -2.4572 0
M  V30 5950 C 570.877 4.26624 -2.99402 0
M  V30 5951 C 568.205 4.50268 -3.76132 0
M  V30 5952 C 570.557 4.64618 -4.29316 0
M  V30 5953 C 569.221 4.75975 -4.67979 0
M  V30 5954 H 568.491 0.72133 -0.169601 0
M  V30 5955 H 571.138 1.57517 -1.08907 0
M  V30 5956 H 569.443 3.91761 0.0551328 0
M  V30 5957 H 571.14 3.99655 -0.328163 0
M  V30 5958 H 567.73 3.90837 -1.75911 0
M  V30 5959 H 571.914 4.1597 -2.70708 0
M  V30 5960 H 567.17 4.57256 -4.05865 0
M  V30 5961 H 571.344 4.83722 -5.00985 0
M  V30 5962 H 568.971 5.04041 -5.69076 0
M  V30 5963 N 570.547 0.616602 1.45037 0
M  V30 5964 C 571.793 0.115501 2.02471 0
M  V30 5965 C 572.126 -1.25406 1.4828 0
M  V30 5966 O 571.401 -1.82922 0.661051 0
M  V30 5967 C 571.684 0.0863588 3.59996 0
M  V30 5968 C 571.537 1.48723 4.24501 0
M  V30 5969 C 572.856 -0.596762 4.36035 0
M  V30 5970 H 569.975 0.0434461 0.735718 0
M  V30 5971 H 572.617 0.7903 1.72784 0
M  V30 5972 H 570.767 -0.488277 3.85419 0
M  V30 5973 H 572.439 2.10964 4.10234 0
M  V30 5974 H 570.682 2.04534 3.82555 0
M  V30 5975 H 571.353 1.419 5.3345 0
M  V30 5976 H 573.829 -0.10824 4.15959 0
M  V30 5977 H 572.705 -0.586289 5.4576 0
M  V30 5978 H 572.966 -1.66451 4.09569 0
M  V30 5979 N 572.025 -1.5352 0.356285 0
M  V30 5980 C 573.271 -2.01414 -0.236653 0
M  V30 5981 C 573.604 -1.24339 -1.49176 0
M  V30 5982 O 572.879 -0.334496 -1.91602 0
M  V30 5983 C 573.162 -3.56059 -0.537982 0
M  V30 5984 C 573.015 -4.43835 0.730112 0
M  V30 5985 C 574.334 -4.19127 -1.34239 0
M  V30 5986 H 571.453 -0.732135 -0.0845386 0
M  V30 5987 H 574.095 -1.83854 0.479341 0
M  V30 5988 H 572.245 -3.71153 -1.14795 0
M  V30 5989 H 573.917 -4.40555 1.36782 0
M  V30 5990 H 572.16 -4.1218 1.3524 0
M  V30 5991 H 572.831 -5.49958 0.474358 0
M  V30 5992 H 575.307 -4.07809 -0.826498 0
M  V30 5993 H 574.183 -5.27378 -1.52198 0
M  V30 5994 H 574.444 -3.74581 -2.34822 0
M  V30 5995 N 573.503 -0.0852151 -1.57369 0
M  V30 5996 C 574.919 0.271436 -1.57275 0
M  V30 5997 C 575.119 1.69109 -1.09565 0
M  V30 5998 O 574.175 2.40549 -0.767611 0
M  V30 5999 C 575.488 0.0688638 -3.00621 0
M  V30 6000 C 577.036 0.137373 -3.12698 0
M  V30 6001 C 577.511 -0.0370832 -4.57985 0
M  V30 6002 N 579.002 0.0180794 -4.63196 0
M  V30 6003 C 579.737 -0.0922953 -5.73326 0
M  V30 6004 N 579.233 -0.256948 -6.92323 0
M  V30 6005 N 581.026 -0.0342702 -5.6209 0
M  V30 6006 H 573.177 -1.01288 -1.86693 0
M  V30 6007 H 575.44 -0.396138 -0.861266 0
M  V30 6008 H 575.146 -0.911277 -3.39689 0
M  V30 6009 H 575.02 0.815442 -3.6828 0
M  V30 6010 H 577.407 1.10801 -2.73509 0
M  V30 6011 H 577.488 -0.640532 -2.47651 0
M  V30 6012 H 577.132 -1.00455 -4.97867 0
M  V30 6013 H 577.062 0.760392 -5.21081 0
M  V30 6014 H 579.553 0.143202 -3.77629 0
M  V30 6015 H 579.866 -0.332949 -7.72082 0
M  V30 6016 H 578.211 -0.292487 -6.94384 0
M  V30 6017 H 581.402 0.0931605 -4.68007 0
M  V30 6018 H 581.575 -0.12374 -6.47882 0
M  V30 6019 N 574.981 1.5647 0.188427 0
M  V30 6020 C 576.221 1.82803 0.914469 0
M  V30 6021 C 576.585 0.663681 1.80165 0
M  V30 6022 O 577.786 0.807059 2.56398 0
M  V30 6023 C 576.057 3.14187 1.70357 0
M  V30 6024 S 577.616 3.61947 2.48072 0
M  V30 6025 H 574.434 0.641497 0.306599 0
M  V30 6026 H 577.036 1.94694 0.177361 0
M  V30 6027 H 575.74 3.96937 1.04255 0
M  V30 6028 H 575.271 3.05192 2.48237 0
M  V30 6029 H 577.286 3.27913 3.72407 0
M  V30 6030 N 576.459 -0.456382 1.50847 0
M  V30 6031 C 577.706 -1.20736 1.62571 0
M  V30 6032 C 578.034 -1.9163 0.332904 0
M  V30 6033 O 577.289 -1.8343 -0.682058 0
M  V30 6034 C 577.588 -2.26336 2.76599 0
M  V30 6035 C 577.254 -1.7259 4.16562 0
M  V30 6036 C 575.916 -1.57654 4.54641 0
M  V30 6037 C 578.268 -1.32877 5.03977 0
M  V30 6038 C 575.596 -1.0145 5.77862 0
M  V30 6039 C 577.948 -0.7811 6.27759 0
M  V30 6040 C 576.612 -0.618488 6.64628 0
M  V30 6041 H 575.882 -0.441803 0.594888 0
M  V30 6042 H 578.529 -0.501169 1.84826 0
M  V30 6043 H 576.834 -3.0292 2.48489 0
M  V30 6044 H 578.531 -2.84227 2.82871 0
M  V30 6045 H 575.121 -1.85187 3.86528 0
M  V30 6046 H 579.305 -1.43245 4.75179 0
M  V30 6047 H 574.561 -0.876109 6.0509 0
M  V30 6048 H 578.735 -0.464783 6.94847 0
M  V30 6049 H 576.362 -0.180838 7.59985 0
M  V30 6050 N 577.937 -1.40673 -0.710563 0
M  V30 6051 C 578.9 -1.4108 -1.80635 0
M  V30 6052 C 579.9 -0.303783 -1.57904 0
M  V30 6053 O 581.09 -0.562937 -1.64853 0
M  V30 6054 C 578.222 -1.20748 -3.18799 0
M  V30 6055 H 579.415 -2.38612 -1.81671 0
M  V30 6056 H 576.968 -1.26595 -0.916704 0
M  V30 6057 H 577.703 -0.239964 -3.23411 0
M  V30 6058 H 577.488 -2.00941 -3.36698 0
M  V30 6059 H 578.978 -1.23833 -3.98817 0
M  V30 6060 N 579.415 0.9433 -1.26252 0
M  V30 6061 C 580.655 1.70397 -1.1289 0
M  V30 6062 C 581.019 1.89268 0.322713 0
M  V30 6063 O 582.22 2.62503 0.578418 0
M  V30 6064 C 580.491 3.04296 -1.87453 0
M  V30 6065 S 582.05 3.95475 -1.90119 0
M  V30 6066 H 578.868 0.585559 -0.403289 0
M  V30 6067 H 581.47 1.12424 -1.59941 0
M  V30 6068 H 580.174 2.8824 -2.9214 0
M  V30 6069 H 579.705 3.67327 -1.40835 0
M  V30 6070 H 581.72 4.86297 -0.986373 0
M  V30 6071 N 580.893 1.08022 1.14757 0
M  V30 6072 C 582.304 0.829144 1.67279 0
M  V30 6073 C 582.655 -0.644721 1.85305 0
M  V30 6074 O 581.78 -1.49838 1.56133 0
M  V30 6075 C 582.375 1.49855 3.03857 0
M  V30 6076 C 580.934 1.29482 3.53428 0
M  V30 6077 C 580.081 1.56386 2.28995 0
M  V30 6078 H 583.032 1.24134 0.988762 0
M  V30 6079 H 583.053 0.923572 3.69121 0
M  V30 6080 H 582.565 2.57123 2.90705 0
M  V30 6081 H 580.666 0.242669 3.71809 0
M  V30 6082 H 580.779 2.01974 4.34446 0
M  V30 6083 H 579.143 0.985217 2.34874 0
M  V30 6084 H 579.926 2.64851 2.18423 0
M  V30 6085 N 582.371 -1.3172 0.865308 0
M  V30 6086 C 583.596 -2.01591 0.487415 0
M  V30 6087 C 584.021 -1.6455 -0.911307 0
M  V30 6088 O 583.379 -0.851689 -1.6005 0
M  V30 6089 C 583.427 -3.54759 0.646401 0
M  V30 6090 O 582.531 -4.11185 -0.316284 0
M  V30 6091 H 581.872 -0.634884 0.194468 0
M  V30 6092 H 584.402 -1.68024 1.16744 0
M  V30 6093 H 584.412 -4.04438 0.537932 0
M  V30 6094 H 583.087 -3.8106 1.66632 0
M  V30 6095 H 581.664 -3.72543 -0.163162 0
M  V30 6096 N 583.85 -0.624285 -1.44708 0
M  V30 6097 C 584.782 0.12305 -2.28869 0
M  V30 6098 C 585.795 0.81557 -1.40898 0
M  V30 6099 O 586.984 0.678162 -1.65116 0
M  V30 6100 C 584.084 1.19612 -3.1709 0
M  V30 6101 C 583.257 0.587452 -4.33437 0
M  V30 6102 C 582.316 1.55358 -5.02743 0
M  V30 6103 O 581.341 1.07338 -5.58988 0
M  V30 6104 N 582.543 2.88798 -5.03563 0
M  V30 6105 H 585.308 -0.599193 -2.93649 0
M  V30 6106 H 582.87 -0.464954 -1.5508 0
M  V30 6107 H 584.861 1.84261 -3.60319 0
M  V30 6108 H 583.432 1.82067 -2.54107 0
M  V30 6109 H 582.652 -0.237509 -3.93484 0
M  V30 6110 H 583.94 0.161326 -5.08544 0
M  V30 6111 H 583.338 3.30399 -4.59188 0
M  V30 6112 H 581.894 3.48826 -5.50603 0
M  V30 6113 N 585.328 1.53329 -0.364422 0
M  V30 6114 C 586.291 2.24323 0.470292 0
M  V30 6115 C 587.291 1.25068 1.01067 0
M  V30 6116 O 588.481 1.49354 0.896605 0
M  V30 6117 C 585.613 2.97908 1.65722 0
M  V30 6118 H 586.806 2.9952 -0.150917 0
M  V30 6119 H 584.359 1.55868 -0.116092 0
M  V30 6120 H 585.094 2.2695 2.31655 0
M  V30 6121 H 584.879 3.70732 1.27671 0
M  V30 6122 H 586.369 3.5188 2.24878 0
M  V30 6123 N 586.806 0.0935595 1.57322 0
M  V30 6124 C 587.736 -0.863062 2.16964 0
M  V30 6125 C 588.717 -1.29528 1.10256 0
M  V30 6126 O 589.902 -1.36245 1.38387 0
M  V30 6127 C 587.032 -2.12276 2.74875 0
M  V30 6128 C 585.986 -1.82921 3.86942 0
M  V30 6129 C 585.312 -3.15707 4.31548 0
M  V30 6130 C 586.612 -1.11737 5.10208 0
M  V30 6131 H 588.306 -0.366145 2.97153 0
M  V30 6132 H 585.852 -0.174673 1.42937 0
M  V30 6133 H 587.805 -2.79634 3.1525 0
M  V30 6134 H 586.529 -2.64248 1.91938 0
M  V30 6135 H 585.188 -1.17961 3.47103 0
M  V30 6136 H 584.836 -3.65563 3.45504 0
M  V30 6137 H 584.536 -2.96849 5.07104 0
M  V30 6138 H 586.06 -3.84226 4.74555 0
M  V30 6139 H 587.474 -1.69203 5.47762 0
M  V30 6140 H 585.871 -1.03064 5.91183 0
M  V30 6141 H 586.941 -0.0998818 4.84797 0
M  V30 6142 N 588.284 -1.56567 -0.180126 0
M  V30 6143 C 589.531 -1.81492 -0.898167 0
M  V30 6144 C 589.859 -0.669225 -1.82624 0
M  V30 6145 O 589.114 0.344096 -1.92651 0
M  V30 6146 C 589.413 -3.1252 -1.73395 0
M  V30 6147 C 589.079 -4.40658 -0.955567 0
M  V30 6148 C 587.741 -4.75465 -0.740707 0
M  V30 6149 C 590.093 -5.19593 -0.408948 0
M  V30 6150 C 587.421 -5.86691 0.0320128 0
M  V30 6151 C 589.773 -6.31627 0.350638 0
M  V30 6152 C 588.437 -6.65007 0.576378 0
M  V30 6153 H 587.707 -0.664125 -0.328662 0
M  V30 6154 H 590.354 -1.908 -0.163616 0
M  V30 6155 H 588.659 -2.98515 -2.53763 0
M  V30 6156 H 590.356 -3.29013 -2.29241 0
M  V30 6157 H 586.946 -4.13352 -1.13306 0
M  V30 6158 H 591.13 -4.93104 -0.562307 0
M  V30 6159 H 586.386 -6.11016 0.216735 0
M  V30 6160 H 590.56 -6.92001 0.781497 0
M  V30 6161 H 588.187 -7.51033 1.17703 0
M  V30 6162 N 589.762 0.448376 -1.51087 0
M  V30 6163 C 591.009 1.19872 -1.63209 0
M  V30 6164 C 591.337 1.91451 -0.343062 0
M  V30 6165 O 590.592 1.83789 0.672321 0
M  V30 6166 C 590.891 2.24866 -2.77795 0
M  V30 6167 C 590.557 1.70378 -4.17471 0
M  V30 6168 C 589.219 1.55241 -4.55471 0
M  V30 6169 C 591.571 1.30203 -5.04675 0
M  V30 6170 C 588.899 0.983844 -5.78392 0
M  V30 6171 C 591.251 0.747798 -6.28165 0
M  V30 6172 C 589.915 0.583233 -6.64947 0
M  V30 6173 H 589.185 0.438642 -0.597222 0
M  V30 6174 H 591.832 0.49136 -1.85089 0
M  V30 6175 H 590.137 3.01598 -2.50092 0
M  V30 6176 H 591.834 2.82723 -2.84374 0
M  V30 6177 H 588.424 1.83134 -3.87505 0
M  V30 6178 H 592.608 1.40723 -4.75932 0
M  V30 6179 H 587.864 0.844007 -6.05546 0
M  V30 6180 H 592.038 0.427927 -6.95084 0
M  V30 6181 H 589.665 0.140532 -7.6007 0
M  V30 6182 N 591.24 1.41047 0.703093 0
M  V30 6183 C 592.187 1.42302 1.81711 0
M  V30 6184 C 593.157 0.278336 1.63751 0
M  V30 6185 O 594.342 0.478266 1.84709 0
M  V30 6186 C 591.482 1.30362 3.19531 0
M  V30 6187 C 590.595 2.54638 3.48975 0
M  V30 6188 C 589.73 2.35047 4.76368 0
M  V30 6189 C 588.769 3.54837 4.98756 0
M  V30 6190 N 587.906 3.34363 6.1737 0
M  V30 6191 H 592.746 2.37516 1.79973 0
M  V30 6192 H 590.283 1.1795 0.878983 0
M  V30 6193 H 592.241 1.21443 3.99134 0
M  V30 6194 H 590.871 0.387602 3.20464 0
M  V30 6195 H 589.923 2.74037 2.63833 0
M  V30 6196 H 591.235 3.43766 3.61423 0
M  V30 6197 H 590.389 2.23552 5.64012 0
M  V30 6198 H 589.128 1.43363 4.66153 0
M  V30 6199 H 588.133 3.66795 4.09563 0
M  V30 6200 H 589.358 4.47464 5.10835 0
M  V30 6201 H 587.304 2.45373 6.08382 0
M  V30 6202 H 587.221 4.17063 6.30551 0
M  V30 6203 H 588.489 3.26626 7.07768 0
M  V30 6204 N 592.718 -0.936591 1.26751 0
M  V30 6205 C 593.666 -2.0573 1.08527 0
M  V30 6206 C 594.66 -1.69397 0.0108784 0
M  V30 6207 O 595.866 -1.79215 0.167915 0
M  V30 6208 H 592.241 -0.673691 0.334133 0
M  V30 6209 H 594.212 -2.1825 2.03493 0
M  V30 6210 C 592.961 -3.39738 0.739845 0
M  V30 6211 H 592.284 -3.68174 1.55845 0
M  V30 6212 H 593.724 -4.18955 0.652149 0
M  V30 6213 C 592.183 -3.32292 -0.555288 0
M  V30 6214 O 592.713 -3.68794 -1.59229 0
M  V30 6215 N 590.919 -2.85394 -0.54762 0
M  V30 6216 H 590.466 -2.55886 0.296667 0
M  V30 6217 H 590.424 -2.80795 -1.41427 0
M  V30 6218 N 594.196 -1.08629 -1.14182 0
M  V30 6219 C 595.445 -0.812271 -1.84621 0
M  V30 6220 C 595.758 0.664313 -1.83973 0
M  V30 6221 O 596.964 1.05357 -2.50224 0
M  V30 6222 C 595.42 -1.4031 -3.31423 0
M  V30 6223 C 595.028 -2.91164 -3.40481 0
M  V30 6224 C 596.772 -1.20767 -4.06959 0
M  V30 6225 C 594.679 -3.43373 -4.81507 0
M  V30 6226 H 593.609 -0.30019 -0.691666 0
M  V30 6227 H 596.26 -1.30798 -1.28701 0
M  V30 6228 H 594.642 -0.835096 -3.87094 0
M  V30 6229 H 595.816 -3.5412 -2.94848 0
M  V30 6230 H 594.131 -3.09646 -2.78403 0
M  V30 6231 H 596.728 -1.57237 -5.11058 0
M  V30 6232 H 597.071 -0.147664 -4.16038 0
M  V30 6233 H 597.604 -1.74274 -3.57594 0
M  V30 6234 H 594.343 -4.48958 -4.77616 0
M  V30 6235 H 593.863 -2.85176 -5.27669 0
M  V30 6236 H 595.542 -3.40095 -5.50404 0
M  V30 6237 N 595.674 1.31259 -0.872281 0
M  V30 6238 C 596.607 2.26544 -0.274394 0
M  V30 6239 C 597.585 1.51213 0.597776 0
M  V30 6240 O 598.769 1.80277 0.550687 0
M  V30 6241 C 595.896 3.33139 0.611256 0
M  V30 6242 C 594.942 4.26077 -0.189876 0
M  V30 6243 S 595.775 5.11971 -1.56989 0
M  V30 6244 C 596.931 6.2208 -0.690427 0
M  V30 6245 H 597.164 2.76908 -1.0821 0
M  V30 6246 H 594.697 1.3906 -0.670939 0
M  V30 6247 H 596.655 3.95024 1.11654 0
M  V30 6248 H 595.316 2.81525 1.39294 0
M  V30 6249 H 594.509 5.01657 0.485433 0
M  V30 6250 H 594.111 3.68701 -0.627339 0
M  V30 6251 H 596.403 6.77429 0.098001 0
M  V30 6252 H 597.346 6.93768 -1.41742 0
M  V30 6253 H 597.754 5.63915 -0.256953 0
M  V30 6254 N 597.152 0.631951 1.44375 0
M  V30 6255 C 598.1 -0.0846693 2.32446 0
M  V30 6256 C 599.094 -0.834957 1.47393 0
M  V30 6257 O 600.3 -0.747764 1.63733 0
M  V30 6258 H 596.675 -0.0461508 0.750583 0
M  V30 6259 H 598.646 0.67619 2.90638 0
M  V30 6260 C 597.395 -1.05211 3.314 0
M  V30 6261 H 596.718 -0.484203 3.96857 0
M  V30 6262 H 598.158 -1.523 3.95703 0
M  V30 6263 C 596.617 -2.13776 2.60387 0
M  V30 6264 O 597.147 -3.21869 2.4034 0
M  V30 6265 N 595.353 -1.89733 2.20113 0
M  V30 6266 H 594.9 -1.01833 2.36618 0
M  V30 6267 H 594.858 -2.62572 1.72926 0
M  V30 6268 N 598.631 -1.53133 0.372548 0
M  V30 6269 C 599.88 -2.00539 -0.216115 0
M  V30 6270 C 600.193 -1.26374 -1.49295 0
M  V30 6271 O 601.399 -1.64404 -2.16064 0
M  V30 6272 C 599.855 -3.57253 -0.435678 0
M  V30 6273 C 599.463 -4.40302 0.82693 0
M  V30 6274 C 601.207 -4.12995 -0.981618 0
M  V30 6275 C 599.114 -5.88583 0.576567 0
M  V30 6276 H 598.044 -0.749246 -0.084536 0
M  V30 6277 H 600.695 -1.76771 0.492364 0
M  V30 6278 H 599.077 -3.77202 -1.20559 0
M  V30 6279 H 600.251 -4.32124 1.60017 0
M  V30 6280 H 598.566 -3.95699 1.29659 0
M  V30 6281 H 601.163 -5.21418 -1.18436 0
M  V30 6282 H 601.506 -3.68027 -1.94581 0
M  V30 6283 H 602.039 -3.96871 -0.271696 0
M  V30 6284 H 598.778 -6.37841 1.51128 0
M  V30 6285 H 598.298 -5.99592 -0.158047 0
M  V30 6286 H 599.977 -6.46676 0.204722 0
M  V30 6287 N 600.109 -0.101901 -1.5727 0
M  V30 6288 C 601.358 0.559922 -1.93772 0
M  V30 6289 C 601.671 1.68913 -0.98629 0
M  V30 6290 O 602.877 2.41256 -1.24529 0
M  V30 6291 C 601.333 1.04739 -3.44322 0
M  V30 6292 C 600.941 -0.05243 -4.47969 0
M  V30 6293 C 602.685 1.68157 -3.89774 0
M  V30 6294 C 600.592 0.450781 -5.8968 0
M  V30 6295 H 599.522 0.212931 -0.723309 0
M  V30 6296 H 602.173 -0.179001 -1.82625 0
M  V30 6297 H 600.555 1.84021 -3.50645 0
M  V30 6298 H 601.729 -0.828157 -4.53297 0
M  V30 6299 H 600.044 -0.592202 -4.12167 0
M  V30 6300 H 602.641 2.0689 -4.93052 0
M  V30 6301 H 602.984 2.55338 -3.28798 0
M  V30 6302 H 603.517 0.954453 -3.8618 0
M  V30 6303 H 600.256 -0.38458 -6.54371 0
M  V30 6304 H 599.776 1.19336 -5.87809 0
M  V30 6305 H 601.455 0.917555 -6.40461 0
M  V30 6306 N 601.587 1.56661 0.17182 0
M  V30 6307 C 602.864 1.72838 0.915778 0
M  V30 6308 C 603.244 0.66316 2.00413 0
M  V30 6309 O 602.592 -0.322123 2.26218 0
M  V30 6310 C 602.802 3.16019 1.48097 0
M  V30 6311 C 604.15 3.76962 1.95408 0
M  V30 6312 O 605.174 3.19294 1.57892 0
M  V30 6313 O 604.033 4.78219 2.64516 0
M  V30 6314 H 601.127 0.705797 0.431021 0
M  V30 6315 H 603.673 1.68947 0.159689 0
M  V30 6316 H 602.445 3.85031 0.697618 0
M  V30 6317 H 602.068 3.24234 2.30126 0
M  V30 6318 N 603.065 -0.440357 1.51323 0
M  V30 6319 C 604.314 -1.18697 1.63076 0
M  V30 6320 C 604.627 -1.92418 0.35136 0
M  V30 6321 O 605.833 -2.69258 0.348221 0
M  V30 6322 C 604.289 -2.15849 2.87988 0
M  V30 6323 C 603.897 -1.47789 4.22921 0
M  V30 6324 C 605.641 -2.90962 3.09098 0
M  V30 6325 C 603.548 -2.43407 5.38987 0
M  V30 6326 H 602.478 -0.44676 0.607389 0
M  V30 6327 H 605.129 -0.454313 1.77787 0
M  V30 6328 H 603.511 -2.92537 2.66905 0
M  V30 6329 H 604.685 -0.7668 4.54375 0
M  V30 6330 H 603 -0.848404 4.07665 0
M  V30 6331 H 605.597 -3.62584 3.92985 0
M  V30 6332 H 605.94 -3.52133 2.22053 0
M  V30 6333 H 606.473 -2.21381 3.30507 0
M  V30 6334 H 603.212 -1.86929 6.28282 0
M  V30 6335 H 602.732 -3.12579 5.11913 0
M  V30 6336 H 604.411 -3.046 5.70813 0
M  V30 6337 N 604.543 -1.41418 -0.695603 0
M  V30 6338 C 605.789 -1.40982 -1.4578 0
M  V30 6339 C 606.122 -0.0187763 -1.94191 0
M  V30 6340 O 605.397 0.95346 -1.69527 0
M  V30 6341 C 605.68 -2.41657 -2.66972 0
M  V30 6342 C 605.533 -3.89869 -2.24327 0
M  V30 6343 C 606.852 -2.39589 -3.69168 0
M  V30 6344 H 603.971 -0.513405 -0.528757 0
M  V30 6345 H 606.613 -1.72693 -0.792275 0
M  V30 6346 H 604.763 -2.14746 -3.23754 0
M  V30 6347 H 606.435 -4.27683 -1.72872 0
M  V30 6348 H 604.678 -4.04737 -1.56111 0
M  V30 6349 H 605.349 -4.55857 -3.11285 0
M  V30 6350 H 607.825 -2.63471 -3.2206 0
M  V30 6351 H 606.701 -3.12044 -4.51575 0
M  V30 6352 H 606.962 -1.41447 -4.18862 0
M  V30 6353 N 606.021 0.929856 -1.27246 0
M  V30 6354 C 607.246 1.71674 -1.16374 0
M  V30 6355 C 607.671 1.86064 0.276024 0
M  V30 6356 O 607.029 1.3591 1.19992 0
M  V30 6357 C 607.077 3.09526 -1.85003 0
M  V30 6358 O 606.181 3.96142 -1.14653 0
M  V30 6359 H 605.522 0.52629 -0.404863 0
M  V30 6360 H 608.052 1.16381 -1.68276 0
M  V30 6361 H 608.062 3.59852 -1.92276 0
M  V30 6362 H 606.737 2.98369 -2.89739 0
M  V30 6363 H 605.314 3.54584 -1.15433 0
M  V30 6364 N 607.499 1.09233 1.13605 0
M  V30 6365 C 608.748 0.82205 1.84188 0
M  V30 6366 C 609.061 -0.654548 1.84323 0
M  V30 6367 O 610.267 -1.04029 2.50779 0
M  V30 6368 C 608.723 1.42066 3.30674 0
M  V30 6369 C 608.331 2.92965 3.38933 0
M  V30 6370 C 610.075 1.22924 4.06313 0
M  V30 6371 C 607.982 3.45922 4.79679 0
M  V30 6372 H 606.912 0.303854 0.690064 0
M  V30 6373 H 609.563 1.31479 1.28006 0
M  V30 6374 H 607.945 0.855613 3.86646 0
M  V30 6375 H 609.119 3.55679 2.92966 0
M  V30 6376 H 607.434 3.11118 2.76757 0
M  V30 6377 H 610.031 1.59945 5.10217 0
M  V30 6378 H 610.374 0.169726 4.15954 0
M  V30 6379 H 610.907 1.76168 3.56665 0
M  V30 6380 H 607.646 4.51484 4.75229 0
M  V30 6381 H 607.166 2.87971 5.26149 0
M  V30 6382 H 608.845 3.43009 5.48592 0
M  V30 6383 N 608.977 -1.30795 0.87923 0
M  V30 6384 C 609.907 -2.30742 0.357796 0
M  V30 6385 C 610.888 -1.60747 -0.556283 0
M  V30 6386 O 612.073 -1.88393 -0.47135 0
M  V30 6387 C 609.203 -3.44583 -0.433555 0
M  V30 6388 C 608.157 -4.26235 0.388251 0
M  V30 6389 C 607.483 -5.32073 -0.529352 0
M  V30 6390 C 608.783 -4.96303 1.62729 0
M  V30 6391 H 610.477 -2.74605 1.19299 0
M  V30 6392 H 608.023 -1.32017 0.575104 0
M  V30 6393 H 609.976 -4.13563 -0.808934 0
M  V30 6394 H 608.7 -2.99511 -1.30234 0
M  V30 6395 H 607.359 -3.58936 0.745695 0
M  V30 6396 H 607.007 -4.83249 -1.39569 0
M  V30 6397 H 606.707 -5.87598 0.0166741 0
M  V30 6398 H 608.231 -6.0391 -0.901373 0
M  V30 6399 H 609.645 -5.5783 1.32283 0
M  V30 6400 H 608.042 -5.61666 2.11309 0
M  V30 6401 H 609.112 -4.22758 2.37494 0
M  V30 6402 N 610.455 -0.639598 -1.44038 0
M  V30 6403 C 611.866 -0.228866 -1.85292 0
M  V30 6404 C 612.217 1.22161 -1.53529 0
M  V30 6405 O 611.342 1.93064 -0.977518 0
M  V30 6406 C 611.937 -0.408592 -3.36327 0
M  V30 6407 C 610.496 -0.0522953 -3.76364 0
M  V30 6408 C 609.643 -0.717959 -2.67844 0
M  V30 6409 H 612.594 -0.844194 -1.34384 0
M  V30 6410 H 612.615 0.349968 -3.78887 0
M  V30 6411 H 612.127 -1.46435 -3.59414 0
M  V30 6412 H 610.228 1.0014 -3.58891 0
M  V30 6413 H 610.341 -0.468261 -4.76806 0
M  V30 6414 H 608.705 -0.152459 -2.54243 0
M  V30 6415 H 609.488 -1.77648 -2.93762 0
M  V30 6416 N 611.933 1.52934 -0.380664 0
M  V30 6417 C 613.163 2.05587 0.204302 0
M  V30 6418 C 613.571 1.25288 1.41773 0
M  V30 6419 O 612.914 0.290394 1.8139 0
M  V30 6420 C 612.976 3.53624 0.647324 0
M  V30 6421 C 612.64 4.54765 -0.451465 0
M  V30 6422 C 613.637 5.03226 -1.30614 0
M  V30 6423 C 611.322 4.98508 -0.616025 0
M  V30 6424 C 613.316 5.94046 -2.31058 0
M  V30 6425 C 611.003 5.89131 -1.62381 0
M  V30 6426 C 612.001 6.36792 -2.46952 0
M  V30 6427 O 611.689 7.25626 -3.46009 0
M  V30 6428 H 611.421 0.675013 0.0365198 0
M  V30 6429 H 613.975 1.98125 -0.541827 0
M  V30 6430 H 612.205 3.58676 1.44529 0
M  V30 6431 H 613.894 3.89061 1.15698 0
M  V30 6432 H 614.66 4.70167 -1.19027 0
M  V30 6433 H 610.539 4.60989 0.0324987 0
M  V30 6434 H 614.083 6.3117 -2.97104 0
M  V30 6435 H 609.98 6.21603 -1.7401 0
M  V30 6436 H 610.748 7.43664 -3.41916 0
M  V30 6437 N 613.412 0.11024 1.57214 0
M  V30 6438 C 614.659 -0.54987 1.94891 0
M  V30 6439 C 614.987 -1.67243 0.992984 0
M  V30 6440 O 614.242 -1.95694 0.0152703 0
M  V30 6441 C 614.541 -1.13102 3.39032 0
M  V30 6442 C 614.207 -0.130713 4.5071 0
M  V30 6443 C 612.869 0.14437 4.80983 0
M  V30 6444 C 615.221 0.551472 5.18274 0
M  V30 6445 C 612.549 1.10807 5.76141 0
M  V30 6446 C 614.901 1.50375 6.14467 0
M  V30 6447 C 613.565 1.78691 6.43138 0
M  V30 6448 H 612.835 -0.201212 0.713158 0
M  V30 6449 H 615.482 0.189288 1.90562 0
M  V30 6450 H 613.787 -1.94675 3.40013 0
M  V30 6451 H 615.484 -1.64973 3.65493 0
M  V30 6452 H 612.074 -0.355301 4.27125 0
M  V30 6453 H 616.258 0.35211 4.95049 0
M  V30 6454 H 611.514 1.3343 5.96663 0
M  V30 6455 H 615.688 2.03808 6.65909 0
M  V30 6456 H 613.315 2.53522 7.1668 0
M  V30 6457 N 614.89 -1.56749 -0.16351 0
M  V30 6458 C 616.139 -1.81626 -0.877211 0
M  V30 6459 C 616.452 -0.688791 -1.83071 0
M  V30 6460 O 617.658 -0.822697 -2.58735 0
M  V30 6461 C 616.114 -3.21858 -1.61045 0
M  V30 6462 C 615.722 -4.42494 -0.700195 0
M  V30 6463 C 617.466 -3.56021 -2.31192 0
M  V30 6464 C 615.373 -5.73748 -1.43412 0
M  V30 6465 H 614.303 -0.67731 -0.331312 0
M  V30 6466 H 616.954 -1.83039 -0.13006 0
M  V30 6467 H 615.336 -3.14784 -2.40264 0
M  V30 6468 H 616.51 -4.60766 0.0555849 0
M  V30 6469 H 614.825 -4.1626 -0.10799 0
M  V30 6470 H 617.422 -4.51333 -2.8671 0
M  V30 6471 H 617.765 -2.81277 -3.06902 0
M  V30 6472 H 618.298 -3.64682 -1.58909 0
M  V30 6473 H 615.037 -6.51543 -0.719186 0
M  V30 6474 H 614.557 -5.5944 -2.16302 0
M  V30 6475 H 616.236 -6.15975 -1.9795 0
M  V30 6476 N 616.368 0.432326 -1.51554 0
M  V30 6477 C 617.596 1.20364 -1.68286 0
M  V30 6478 C 618.011 1.84888 -0.38233 0
M  V30 6479 O 617.368 1.70924 0.639627 0
M  V30 6480 C 617.419 2.28398 -2.80208 0
M  V30 6481 O 617.14 1.66512 -4.05223 0
M  V30 6482 C 618.641 3.18584 -3.08251 0
M  V30 6483 H 615.861 0.36259 -0.564596 0
M  V30 6484 H 618.405 0.511647 -1.97996 0
M  V30 6485 H 616.56 2.93305 -2.53083 0
M  V30 6486 H 616.974 2.37951 -4.67418 0
M  V30 6487 H 618.448 3.90511 -3.90135 0
M  V30 6488 H 618.925 3.79628 -2.2086 0
M  V30 6489 H 619.531 2.59372 -3.37055 0
M  V30 6490 N 617.846 1.41785 0.688094 0
M  V30 6491 C 618.776 1.47 1.8142 0
M  V30 6492 C 619.757 0.327881 1.6691 0
M  V30 6493 O 620.942 0.540362 1.86531 0
M  V30 6494 C 618.072 1.35876 3.19617 0
M  V30 6495 C 617.026 2.47976 3.48844 0
M  V30 6496 C 616.352 2.21915 4.86475 0
M  V30 6497 C 617.652 3.90309 3.47068 0
M  V30 6498 H 619.346 2.41247 1.77314 0
M  V30 6499 H 616.892 1.16116 0.851651 0
M  V30 6500 H 618.845 1.38134 3.98117 0
M  V30 6501 H 617.569 0.38116 3.24368 0
M  V30 6502 H 616.228 2.45013 2.72698 0
M  V30 6503 H 615.876 1.2248 4.8786 0
M  V30 6504 H 615.576 2.97037 5.06994 0
M  V30 6505 H 617.1 2.25901 5.67275 0
M  V30 6506 H 618.514 3.94947 4.1556 0
M  V30 6507 H 616.911 4.65175 3.7912 0
M  V30 6508 H 617.981 4.17927 2.45896 0
M  V30 6509 N 619.324 -0.923095 1.27737 0
M  V30 6510 C 620.572 -1.66797 1.14119 0
M  V30 6511 C 620.893 -1.92479 -0.312541 0
M  V30 6512 O 620.163 -1.53432 -1.218 0
M  V30 6513 H 618.743 -0.618196 0.419336 0
M  V30 6514 H 621.405 -1.10815 1.60331 0
M  V30 6515 H 620.501 -2.63424 1.67374 0
M  V30 6516 N 620.802 -1.09834 -1.13024 0
M  V30 6517 C 622.03 -0.858902 -1.8823 0
M  V30 6518 C 622.445 0.590164 -1.79339 0
M  V30 6519 O 621.802 1.4065 -1.16292 0
M  V30 6520 C 621.853 -1.29066 -3.37675 0
M  V30 6521 O 621.574 -2.6829 -3.46341 0
M  V30 6522 C 623.075 -1.08421 -4.29837 0
M  V30 6523 H 620.295 -0.308713 -0.595766 0
M  V30 6524 H 622.839 -1.4614 -1.4305 0
M  V30 6525 H 620.994 -0.731961 -3.80422 0
M  V30 6526 H 621.408 -2.86598 -4.39274 0
M  V30 6527 H 622.882 -1.43553 -5.33007 0
M  V30 6528 H 623.359 -0.0223315 -4.39194 0
M  V30 6529 H 623.965 -1.62907 -3.92863 0
M  V30 6530 N 622.28 1.30327 -0.886154 0
M  V30 6531 C 623.557 1.90922 -0.425217 0
M  V30 6532 C 623.937 1.80533 1.09413 0
M  V30 6533 O 623.285 1.2233 1.92996 0
M  V30 6534 C 623.495 3.36529 -0.924638 0
M  V30 6535 C 624.843 4.13598 -0.960305 0
M  V30 6536 O 625.867 3.45377 -0.871382 0
M  V30 6537 O 624.726 5.35482 -1.09184 0
M  V30 6538 H 621.82 0.81668 -0.130238 0
M  V30 6539 H 624.366 1.38886 -0.975132 0
M  V30 6540 H 623.138 3.38181 -1.96849 0
M  V30 6541 H 622.761 3.96021 -0.353955 0
M  V30 6542 N 623.758 0.647228 1.43697 0
M  V30 6543 C 624.688 -0.0345631 2.33474 0
M  V30 6544 C 625.669 -0.818193 1.4913 0
M  V30 6545 O 626.854 -0.780867 1.77809 0
M  V30 6546 C 623.984 -1.00576 3.32418 0
M  V30 6547 C 622.938 -0.33266 4.26705 0
M  V30 6548 C 622.264 -1.41489 5.1564 0
M  V30 6549 C 623.564 0.771204 5.16575 0
M  V30 6550 H 625.258 0.715163 2.90733 0
M  V30 6551 H 622.804 0.345364 1.39797 0
M  V30 6552 H 624.757 -1.49159 3.94119 0
M  V30 6553 H 623.481 -1.78657 2.73403 0
M  V30 6554 H 622.14 0.13267 3.6636 0
M  V30 6555 H 621.788 -2.18698 4.52968 0
M  V30 6556 H 621.488 -0.969799 5.79542 0
M  V30 6557 H 623.012 -1.9022 5.80214 0
M  V30 6558 H 624.426 0.36779 5.72119 0
M  V30 6559 H 622.823 1.1404 5.89165 0
M  V30 6560 H 623.893 1.63169 4.56622 0
M  V30 6561 N 625.236 -1.5273 0.388769 0
M  V30 6562 C 626.199 -2.25043 -0.434544 0
M  V30 6563 C 627.199 -1.26661 -0.990644 0
M  V30 6564 O 628.389 -1.50762 -0.872731 0
M  V30 6565 C 625.521 -3.00507 -1.60961 0
M  V30 6566 H 626.714 -2.99242 0.198549 0
M  V30 6567 H 624.267 -1.55664 0.140875 0
M  V30 6568 H 625.002 -2.30607 -2.28015 0
M  V30 6569 H 624.787 -3.72716 -1.21757 0
M  V30 6570 H 626.277 -3.55413 -2.19251 0
M  V30 6571 N 626.714 -0.118576 -1.57153 0
M  V30 6572 C 627.646 0.862247 -2.12363 0
M  V30 6573 C 628.659 1.23025 -1.06625 0
M  V30 6574 O 629.848 1.17927 -1.33998 0
M  V30 6575 C 626.948 2.16425 -2.60794 0
M  V30 6576 C 626.121 1.96801 -3.90626 0
M  V30 6577 C 625.18 3.10726 -4.2466 0
M  V30 6578 O 624.206 2.83659 -4.93484 0
M  V30 6579 N 625.408 4.37147 -3.81946 0
M  V30 6580 H 628.173 0.390564 -2.97144 0
M  V30 6581 H 625.734 0.0658591 -1.61766 0
M  V30 6582 H 627.726 2.91633 -2.80593 0
M  V30 6583 H 626.296 2.54943 -1.80895 0
M  V30 6584 H 625.516 1.05787 -3.7974 0
M  V30 6585 H 626.804 1.80993 -4.7552 0
M  V30 6586 H 626.202 4.62014 -3.26435 0
M  V30 6587 H 624.759 5.09229 -4.06853 0
M  V30 6588 N 628.193 1.56834 0.155195 0
M  V30 6589 C 629.125 1.94235 1.21677 0
M  V30 6590 C 630.138 0.83724 1.39621 0
M  V30 6591 O 631.327 1.11567 1.39338 0
M  V30 6592 C 628.427 2.19402 2.58294 0
M  V30 6593 C 627.6 3.50671 2.61436 0
M  V30 6594 C 626.659 3.64475 3.79532 0
M  V30 6595 O 625.685 4.36945 3.64784 0
M  V30 6596 N 626.887 3.00526 4.96653 0
M  V30 6597 H 629.652 2.85901 0.898932 0
M  V30 6598 H 627.213 1.58185 0.34483 0
M  V30 6599 H 629.205 2.25886 3.35794 0
M  V30 6600 H 627.775 1.34042 2.82403 0
M  V30 6601 H 626.995 3.55702 1.69912 0
M  V30 6602 H 628.283 4.3702 2.60559 0
M  V30 6603 H 627.681 2.41549 5.11538 0
M  V30 6604 H 626.238 3.12583 5.71958 0
M  V30 6605 N 629.671 -0.424282 1.51781 0
M  V30 6606 C 630.603 -1.53457 1.70246 0
M  V30 6607 C 631.616 -1.52004 0.582967 0
M  V30 6608 O 632.805 -1.56544 0.857683 0
M  V30 6609 C 629.905 -2.92368 1.71389 0
M  V30 6610 C 629.078 -3.1818 3.00133 0
M  V30 6611 C 628.137 -4.36884 2.9329 0
M  V30 6612 O 627.163 -4.34901 3.67219 0
M  V30 6613 N 628.365 -5.4117 2.10036 0
M  V30 6614 H 631.13 -1.38017 2.66029 0
M  V30 6615 H 628.691 -0.613394 1.4983 0
M  V30 6616 H 630.683 -3.6982 1.64362 0
M  V30 6617 H 629.253 -3.0134 0.831449 0
M  V30 6618 H 628.473 -2.28908 3.20928 0
M  V30 6619 H 629.761 -3.32261 3.85331 0
M  V30 6620 H 629.159 -5.45623 1.49373 0
M  V30 6621 H 627.716 -6.17425 2.08878 0
M  V30 6622 N 631.149 -1.42148 -0.680565 0
M  V30 6623 C 632.397 -1.42029 -1.43779 0
M  V30 6624 C 632.718 -0.0356347 -1.94967 0
M  V30 6625 O 631.988 0.924936 -1.7269 0
M  V30 6626 H 630.568 -0.522835 -0.533529 0
M  V30 6627 H 633.23 -1.7752 -0.804538 0
M  V30 6628 H 632.326 -2.11658 -2.29363 0
M  V30 6629 N 632.627 0.916307 -1.28225 0
M  V30 6630 C 633.875 1.6619 -1.15002 0
M  V30 6631 C 634.196 1.92642 0.302329 0
M  V30 6632 O 633.466 1.54076 1.20985 0
M  V30 6633 H 632.046 0.615964 -0.422608 0
M  V30 6634 H 634.708 1.09963 -1.60917 0
M  V30 6635 H 633.804 2.62533 -1.68769 0
M  V30 6636 N 634.105 1.10431 1.1244 0
M  V30 6637 C 635.353 0.845045 1.83585 0
M  V30 6638 C 635.674 -0.631168 1.84503 0
M  V30 6639 O 634.944 -1.45825 1.30813 0
M  V30 6640 H 633.524 0.309628 0.679809 0
M  V30 6641 H 636.186 1.39458 1.36153 0
M  V30 6642 H 635.282 1.20786 2.8778 0
M  V30 6643 N 635.583 -1.29855 0.893053 0
M  V30 6644 C 636.531 -2.29867 0.355512 0
M  V30 6645 C 637.525 -1.60502 -0.541801 0
M  V30 6646 O 638.731 -1.74902 -0.425339 0
M  V30 6647 H 635.106 -0.745805 0.0963247 0
M  V30 6648 H 637.077 -2.72655 1.21252 0
M  V30 6649 C 635.826 -3.453 -0.407801 0
M  V30 6650 H 635.149 -3.98864 0.273426 0
M  V30 6651 H 636.589 -4.17334 -0.748887 0
M  V30 6652 C 635.048 -2.96051 -1.60795 0
M  V30 6653 O 635.578 -2.96763 -2.7073 0
M  V30 6654 N 633.784 -2.51963 -1.44786 0
M  V30 6655 H 633.331 -2.51583 -0.553498 0
M  V30 6656 H 633.289 -2.1937 -2.2522 0
M  V30 6657 N 637.061 -0.65484 -1.43351 0
M  V30 6658 C 638.309 -0.168559 -2.01396 0
M  V30 6659 C 638.63 1.22235 -1.51933 0
M  V30 6660 O 637.9 1.81685 -0.732627 0
M  V30 6661 H 636.48 -0.0593244 -0.744641 0
M  V30 6662 H 639.142 -0.846871 -1.75539 0
M  V30 6663 H 638.238 -0.154428 -3.11718 0
M  V30 6664 N 638.539 1.52521 -0.396863 0
M  V30 6665 C 639.471 2.24333 0.469814 0
M  V30 6666 C 640.484 1.2685 1.02043 0
M  V30 6667 O 641.673 1.52876 0.92147 0
M  V30 6668 C 638.773 2.95202 1.66461 0
M  V30 6669 C 637.946 4.19454 1.24003 0
M  V30 6670 C 637.005 4.73255 2.30036 0
M  V30 6671 O 636.031 5.36151 1.91131 0
M  V30 6672 N 637.233 4.53765 3.62047 0
M  V30 6673 H 639.998 2.99347 -0.145468 0
M  V30 6674 H 637.559 1.60348 -0.223606 0
M  V30 6675 H 639.551 3.28092 2.36934 0
M  V30 6676 H 638.121 2.2345 2.18607 0
M  V30 6677 H 637.341 3.92517 0.363892 0
M  V30 6678 H 638.629 5.0017 0.933135 0
M  V30 6679 H 638.027 4.03576 3.96412 0
M  V30 6680 H 636.584 4.91124 4.28533 0
M  V30 6681 N 640.017 0.126909 1.57088 0
M  V30 6682 C 640.949 -0.850973 2.12817 0
M  V30 6683 C 641.962 -1.22457 1.07276 0
M  V30 6684 O 643.151 -1.17215 1.34622 0
M  V30 6685 C 640.251 -2.15039 2.61938 0
M  V30 6686 C 639.424 -1.94726 3.91664 0
M  V30 6687 C 638.483 -3.0847 4.26301 0
M  V30 6688 O 637.509 -2.81038 4.94981 0
M  V30 6689 N 638.711 -4.35116 3.84259 0
M  V30 6690 H 641.476 -0.3748 2.97347 0
M  V30 6691 H 639.037 -0.0572793 1.61799 0
M  V30 6692 H 641.029 -2.90141 2.82135 0
M  V30 6693 H 639.599 -2.5398 1.82244 0
M  V30 6694 H 638.819 -1.03772 3.80296 0
M  V30 6695 H 640.107 -1.78469 4.76473 0
M  V30 6696 H 639.505 -4.60276 3.2888 0
M  V30 6697 H 638.062 -5.07064 4.09548 0
M  V30 6698 N 641.495 -1.56914 -0.146875 0
M  V30 6699 C 642.427 -1.94878 -1.20645 0
M  V30 6700 C 643.44 -0.844633 -1.39175 0
M  V30 6701 O 644.629 -1.12304 -1.38744 0
M  V30 6702 C 641.729 -2.20769 -2.57127 0
M  V30 6703 C 640.902 -3.52053 -2.59572 0
M  V30 6704 C 639.961 -3.66482 -3.77594 0
M  V30 6705 O 638.987 -4.38873 -3.62462 0
M  V30 6706 N 640.189 -3.03156 -4.95052 0
M  V30 6707 H 642.954 -2.86374 -0.883757 0
M  V30 6708 H 640.515 -1.58366 -0.336436 0
M  V30 6709 H 642.507 -2.27664 -3.34591 0
M  V30 6710 H 641.077 -1.35538 -2.81688 0
M  V30 6711 H 640.297 -3.56598 -1.68023 0
M  V30 6712 H 641.585 -4.38396 -2.58238 0
M  V30 6713 H 640.983 -2.44258 -5.10249 0
M  V30 6714 H 639.54 -3.15611 -5.70292 0
M  V30 6715 N 642.974 0.416227 -1.52004 0
M  V30 6716 C 643.906 1.52552 -1.71058 0
M  V30 6717 C 644.919 1.51693 -0.59102 0
M  V30 6718 O 646.108 1.56087 -0.865973 0
M  V30 6719 C 643.208 2.91455 -1.72937 0
M  V30 6720 C 642.381 3.16584 -3.01816 0
M  V30 6721 C 641.44 4.35322 -2.95603 0
M  V30 6722 O 640.466 4.32947 -3.6952 0
M  V30 6723 N 641.668 5.40049 -2.12903 0
M  V30 6724 H 644.433 1.36604 -2.66757 0
M  V30 6725 H 641.994 0.60544 -1.50153 0
M  V30 6726 H 643.986 3.68944 -1.66321 0
M  V30 6727 H 642.556 3.00895 -0.847418 0
M  V30 6728 H 641.776 2.27203 -3.22137 0
M  V30 6729 H 643.064 3.30213 -3.87088 0
M  V30 6730 H 642.462 5.44823 -1.52265 0
M  V30 6731 H 641.019 6.16308 -2.1215 0
M  V30 6732 N 644.452 1.42507 0.673017 0
M  V30 6733 C 645.415 1.4582 1.76831 0
M  V30 6734 C 646.415 0.345542 1.57043 0
M  V30 6735 O 647.605 0.606447 1.63303 0
M  V30 6736 C 644.737 1.29158 3.15485 0
M  V30 6737 H 645.93 2.43345 1.7528 0
M  V30 6738 H 643.483 1.28981 0.882817 0
M  V30 6739 H 644.218 0.325626 3.22661 0
M  V30 6740 H 644.003 2.09797 3.31252 0
M  V30 6741 H 645.493 1.34363 3.95394 0
M  V30 6742 N 645.93 -0.909495 1.28709 0
M  V30 6743 C 646.863 -2.01388 1.07323 0
M  V30 6744 C 647.841 -1.62596 -0.0119757 0
M  V30 6745 O 649.025 -1.88003 0.136796 0
M  V30 6746 C 646.152 -3.32755 0.631797 0
M  V30 6747 C 645.198 -3.90532 1.71428 0
M  V30 6748 S 646.031 -4.20853 3.31124 0
M  V30 6749 C 647.187 -5.55276 2.88825 0
M  V30 6750 H 647.42 -2.19219 2.00824 0
M  V30 6751 H 644.953 -1.05489 1.12745 0
M  V30 6752 H 646.911 -4.08702 0.38381 0
M  V30 6753 H 645.572 -3.12818 -0.283451 0
M  V30 6754 H 644.765 -4.85385 1.35712 0
M  V30 6755 H 644.367 -3.21237 1.91528 0
M  V30 6756 H 646.659 -6.35341 2.3526 0
M  V30 6757 H 647.602 -5.95907 3.82492 0
M  V30 6758 H 648.01 -5.16666 2.27412 0
M  V30 6759 N 647.408 -1.11026 -1.11852 0
M  V30 6760 C 648.633 -0.879064 -1.87849 0
M  V30 6761 C 649.058 0.565406 -1.79401 0
M  V30 6762 O 648.416 1.39886 -1.15333 0
M  V30 6763 C 648.464 -1.33985 -3.34784 0
M  V30 6764 O 647.568 -0.508803 -4.09249 0
M  V30 6765 H 646.909 -0.316992 -0.583448 0
M  V30 6766 H 649.439 -1.47863 -1.41413 0
M  V30 6767 H 649.449 -1.33248 -3.85628 0
M  V30 6768 H 648.124 -2.39172 -3.40249 0
M  V30 6769 H 646.701 -0.581913 -3.68332 0
M  V30 6770 N 648.886 1.2938 -0.899927 0
M  V30 6771 C 650.133 1.9555 -0.525963 0
M  V30 6772 C 650.461 1.70945 0.927789 0
M  V30 6773 O 649.716 1.01545 1.67293 0
M  V30 6774 C 650.015 3.49114 -0.765113 0
M  V30 6775 C 649.681 3.93796 -2.19626 0
M  V30 6776 C 648.343 4.05707 -2.58758 0
M  V30 6777 C 650.695 4.16883 -3.12823 0
M  V30 6778 C 648.023 4.38074 -3.90267 0
M  V30 6779 C 650.375 4.50725 -4.4388 0
M  V30 6780 C 649.039 4.60845 -4.82885 0
M  V30 6781 H 648.309 0.715569 -0.192463 0
M  V30 6782 H 650.956 1.53972 -1.13863 0
M  V30 6783 H 649.261 3.91738 -0.069531 0
M  V30 6784 H 650.958 3.98409 -0.455144 0
M  V30 6785 H 647.548 3.85042 -1.88256 0
M  V30 6786 H 651.732 4.07147 -2.83804 0
M  V30 6787 H 646.988 4.44112 -4.20207 0
M  V30 6788 H 651.162 4.67538 -5.16121 0
M  V30 6789 H 648.789 4.85681 -5.84823 0
M  V30 6790 N 650.364 0.662433 1.43002 0
M  V30 6791 C 651.327 -0.0142016 2.29196 0
M  V30 6792 C 652.327 -0.741394 1.42688 0
M  V30 6793 O 653.517 -0.581257 1.64216 0
M  V30 6794 C 650.649 -1.03084 3.24941 0
M  V30 6795 H 651.842 0.7443 2.90517 0
M  V30 6796 H 649.395 0.424133 1.50435 0
M  V30 6797 H 650.13 -1.81826 2.68533 0
M  V30 6798 H 649.915 -0.512946 3.8873 0
M  V30 6799 H 651.405 -1.50308 3.89612 0
M  V30 6800 N 651.842 -1.52309 0.404946 0
M  V30 6801 C 653.091 -2.00952 -0.173529 0
M  V30 6802 C 653.404 -1.29512 -1.46581 0
M  V30 6803 O 654.61 -1.6895 -2.12528 0
M  V30 6804 C 653.066 -3.58097 -0.359801 0
M  V30 6805 C 652.674 -4.38449 0.920138 0
M  V30 6806 C 654.418 -4.14984 -0.893794 0
M  V30 6807 C 652.325 -5.87227 0.701285 0
M  V30 6808 H 651.255 -0.750871 -0.0686244 0
M  V30 6809 H 653.906 -1.75687 0.529749 0
M  V30 6810 H 652.288 -3.79675 -1.12531 0
M  V30 6811 H 653.462 -4.28633 1.69147 0
M  V30 6812 H 651.777 -3.92859 1.38024 0
M  V30 6813 H 654.374 -5.23813 -1.0735 0
M  V30 6814 H 654.717 -3.72072 -1.8673 0
M  V30 6815 H 655.25 -3.97358 -0.187453 0
M  V30 6816 H 651.989 -6.34491 1.64624 0
M  V30 6817 H 651.509 -5.99792 -0.0308288 0
M  V30 6818 H 653.188 -6.46096 0.341846 0
M  V30 6819 N 653.32 -0.135238 -1.57019 0
M  V30 6820 C 654.25 0.805235 -2.19176 0
M  V30 6821 C 655.231 1.2656 -1.13651 0
M  V30 6822 O 656.416 1.32528 -1.4195 0
M  V30 6823 C 653.546 2.04914 -2.80406 0
M  V30 6824 C 652.5 1.72598 -3.91655 0
M  V30 6825 C 651.826 3.04154 -4.39766 0
M  V30 6826 C 653.126 0.981709 -5.12991 0
M  V30 6827 H 654.82 0.287232 -2.98019 0
M  V30 6828 H 652.366 0.136714 -1.4335 0
M  V30 6829 H 654.319 2.71178 -3.22553 0
M  V30 6830 H 653.043 2.59067 -1.98877 0
M  V30 6831 H 651.702 1.08717 -3.50109 0
M  V30 6832 H 651.35 3.56274 -3.55075 0
M  V30 6833 H 651.05 2.83299 -5.14796 0
M  V30 6834 H 652.574 3.71509 -4.84576 0
M  V30 6835 H 653.988 1.5462 -5.52056 0
M  V30 6836 H 652.385 0.873533 -5.93708 0
M  V30 6837 H 653.455 -0.0286887 -4.84892 0
M  V30 6838 N 654.798 1.5699 0.138552 0
M  V30 6839 C 656.214 1.51844 0.491472 0
M  V30 6840 C 656.414 0.845063 1.82923 0
M  V30 6841 O 655.47 0.419143 2.48997 0
M  V30 6842 C 656.783 2.96615 0.493987 0
M  V30 6843 C 658.331 3.076 0.578913 0
M  V30 6844 C 658.806 4.53893 0.612009 0
M  V30 6845 N 660.297 4.5827 0.673997 0
M  V30 6846 C 661.032 5.68852 0.720729 0
M  V30 6847 N 660.528 6.88982 0.726292 0
M  V30 6848 N 662.321 5.56908 0.762253 0
M  V30 6849 H 654.472 1.99158 -0.738228 0
M  V30 6850 H 656.735 0.908693 -0.270149 0
M  V30 6851 H 656.441 3.49172 -0.420933 0
M  V30 6852 H 656.315 3.53017 1.32887 0
M  V30 6853 H 658.702 2.55057 1.48425 0
M  V30 6854 H 658.783 2.54227 -0.283286 0
M  V30 6855 H 658.427 5.07076 -0.289208 0
M  V30 6856 H 658.357 5.05057 1.49082 0
M  V30 6857 H 660.848 3.71793 0.676654 0
M  V30 6858 H 661.161 7.69014 0.764032 0
M  V30 6859 H 659.506 6.91526 0.69403 0
M  V30 6860 H 662.697 4.61969 0.755135 0
M  V30 6861 H 662.87 6.43102 0.795207 0
M  V30 6862 N 656.276 -0.40816 1.52223 0
M  V30 6863 C 657.525 -1.15212 1.65557 0
M  V30 6864 C 657.838 -1.9163 0.392096 0
M  V30 6865 O 659.044 -2.68458 0.405256 0
M  V30 6866 C 657.5 -2.09691 2.92502 0
M  V30 6867 C 657.108 -1.38785 4.25961 0
M  V30 6868 C 658.852 -2.8434 3.152 0
M  V30 6869 C 656.759 -2.31919 5.44029 0
M  V30 6870 H 655.689 -0.433776 0.616729 0
M  V30 6871 H 658.34 -0.4165 1.78711 0
M  V30 6872 H 656.722 -2.8681 2.7305 0
M  V30 6873 H 657.896 -0.670248 4.55899 0
M  V30 6874 H 656.211 -0.761741 4.09373 0
M  V30 6875 H 658.808 -3.54166 4.00587 0
M  V30 6876 H 659.151 -3.47344 2.29473 0
M  V30 6877 H 659.684 -2.14321 3.35129 0
M  V30 6878 H 656.423 -1.7356 6.32105 0
M  V30 6879 H 655.943 -3.0165 5.18428 0
M  V30 6880 H 657.622 -2.92424 5.77146 0
M  V30 6881 N 657.755 -1.42862 -0.66545 0
M  V30 6882 C 659.004 -1.43119 -1.42126 0
M  V30 6883 C 659.317 -0.0545297 -1.95524 0
M  V30 6884 O 660.523 0.0654747 -2.71421 0
M  V30 6885 C 658.979 -2.51797 -2.5715 0
M  V30 6886 C 658.587 -3.95514 -2.10411 0
M  V30 6887 C 660.331 -2.61233 -3.346 0
M  V30 6888 C 658.238 -4.95682 -3.22573 0
M  V30 6889 H 657.168 -0.532349 -0.533966 0
M  V30 6890 H 659.819 -1.68806 -0.719506 0
M  V30 6891 H 658.201 -2.19292 -3.29738 0
M  V30 6892 H 659.375 -4.3742 -1.44915 0
M  V30 6893 H 657.69 -3.90012 -1.45874 0
M  V30 6894 H 660.287 -3.33248 -4.18151 0
M  V30 6895 H 660.63 -1.65896 -3.81817 0
M  V30 6896 H 661.163 -2.9298 -2.69087 0
M  V30 6897 H 657.902 -5.92529 -2.80338 0
M  V30 6898 H 657.422 -4.58399 -3.86821 0
M  V30 6899 H 659.101 -5.17828 -3.87896 0
M  V30 6900 N 659.233 0.902656 -1.29189 0
M  V30 6901 C 660.649 1.18296 -1.07137 0
M  V30 6902 C 660.849 2.00701 0.179223 0
M  V30 6903 O 659.905 2.3675 0.877812 0
M  V30 6904 C 661.218 1.90677 -2.32514 0
M  V30 6905 C 662.766 2.03515 -2.37804 0
M  V30 6906 C 663.241 2.79307 -3.62976 0
M  V30 6907 N 664.732 2.86862 -3.63681 0
M  V30 6908 C 665.467 3.46035 -4.57217 0
M  V30 6909 N 664.963 4.06399 -5.61081 0
M  V30 6910 N 666.756 3.43681 -4.44792 0
M  V30 6911 H 658.907 0.352765 -2.0945 0
M  V30 6912 H 661.17 0.21876 -0.922414 0
M  V30 6913 H 660.876 1.3756 -3.23682 0
M  V30 6914 H 660.75 2.91169 -2.39793 0
M  V30 6915 H 663.137 2.55809 -1.47125 0
M  V30 6916 H 663.218 1.02166 -2.34512 0
M  V30 6917 H 662.862 2.2769 -4.54004 0
M  V30 6918 H 662.792 3.80995 -3.63525 0
M  V30 6919 H 665.283 2.43987 -2.88581 0
M  V30 6920 H 665.596 4.49564 -6.2858 0
M  V30 6921 H 663.941 4.0487 -5.64894 0
M  V30 6922 H 667.132 2.9574 -3.62843 0
M  V30 6923 H 667.305 3.89503 -5.17872 0
M  V30 6924 N 660.711 1.11618 1.11262 0
M  V30 6925 C 661.641 0.79846 2.19424 0
M  V30 6926 C 662.622 -0.234003 1.68483 0
M  V30 6927 O 663.807 -0.0970704 1.93957 0
M  V30 6928 C 660.937 0.242892 3.4645 0
M  V30 6929 C 659.891 1.20744 4.10615 0
M  V30 6930 C 659.217 0.512494 5.32238 0
M  V30 6931 C 660.517 2.55884 4.55325 0
M  V30 6932 H 662.211 1.70286 2.46258 0
M  V30 6933 H 659.757 0.820195 1.18359 0
M  V30 6934 H 661.71 0.00840447 4.21399 0
M  V30 6935 H 660.434 -0.696811 3.1908 0
M  V30 6936 H 659.093 1.42759 3.37662 0
M  V30 6937 H 658.741 -0.432075 5.01141 0
M  V30 6938 H 658.441 1.15583 5.7612 0
M  V30 6939 H 659.965 0.286842 6.09926 0
M  V30 6940 H 661.379 2.37946 5.21588 0
M  V30 6941 H 659.776 3.16216 5.10027 0
M  V30 6942 H 660.846 3.14968 3.68678 0
M  V30 6943 N 662.189 -1.289 0.906776 0
M  V30 6944 C 663.435 -1.95558 0.53712 0
M  V30 6945 C 663.768 -1.71262 -0.915582 0
M  V30 6946 O 663.043 -1.02961 -1.65013 0
M  V30 6947 C 663.326 -3.50198 0.838645 0
M  V30 6948 C 663.179 -3.83923 2.34357 0
M  V30 6949 C 664.498 -4.38861 0.329988 0
M  V30 6950 H 661.617 -0.710289 0.196617 0
M  V30 6951 H 664.259 -1.52392 1.13475 0
M  V30 6952 H 662.409 -3.87096 0.330024 0
M  V30 6953 H 664.081 -3.56933 2.92227 0
M  V30 6954 H 662.324 -3.31215 2.80141 0
M  V30 6955 H 662.995 -4.91883 2.5051 0
M  V30 6956 H 665.471 -4.08996 0.765609 0
M  V30 6957 H 664.347 -5.45931 0.570105 0
M  V30 6958 H 664.608 -4.35352 -0.769511 0
M  V30 6959 N 663.667 -0.670007 -1.42649 0
M  V30 6960 C 665.083 -0.33911 -1.55956 0
M  V30 6961 C 665.283 1.1558 -1.65056 0
M  V30 6962 O 664.339 1.94111 -1.61485 0
M  V30 6963 C 665.652 -1.06522 -2.812 0
M  V30 6964 C 667.2 -1.04708 -2.94966 0
M  V30 6965 C 667.675 -1.75442 -4.23065 0
M  V30 6966 N 669.166 -1.72286 -4.29967 0
M  V30 6967 C 669.901 -2.23877 -5.27889 0
M  V30 6968 N 669.397 -2.83829 -6.31991 0
M  V30 6969 N 671.19 -2.14279 -5.19654 0
M  V30 6970 H 663.341 -1.6399 -1.34986 0
M  V30 6971 H 665.604 -0.690603 -0.649439 0
M  V30 6972 H 665.31 -2.12033 -2.80597 0
M  V30 6973 H 665.184 -0.627398 -3.71946 0
M  V30 6974 H 667.571 -0.000315966 -2.951 0
M  V30 6975 H 667.652 -1.52374 -2.05465 0
M  V30 6976 H 667.296 -2.80084 -4.23693 0
M  V30 6977 H 667.226 -1.25229 -5.11493 0
M  V30 6978 H 669.717 -1.28554 -3.55362 0
M  V30 6979 H 670.03 -3.20827 -7.03057 0
M  V30 6980 H 668.375 -2.87896 -6.32567 0
M  V30 6981 H 671.566 -1.67135 -4.37245 0
M  V30 6982 H 671.739 -2.54792 -5.95806 0
M  V30 6983 N 665.145 1.52092 -0.413018 0
M  V30 6984 C 666.391 2.02154 0.161737 0
M  V30 6985 C 666.724 1.29789 1.44459 0
M  V30 6986 O 665.999 0.405378 1.90229 0
M  V30 6987 C 666.282 3.5781 0.405463 0
M  V30 6988 C 666.135 4.40819 -0.894335 0
M  V30 6989 C 667.454 4.23821 1.18591 0
M  V30 6990 H 664.573 0.734769 0.0573077 0
M  V30 6991 H 667.215 1.81948 -0.547247 0
M  V30 6992 H 665.365 3.75158 1.0094 0
M  V30 6993 H 667.037 4.35175 -1.53039 0
M  V30 6994 H 665.28 4.06877 -1.50444 0
M  V30 6995 H 665.951 5.47819 -0.678144 0
M  V30 6996 H 668.427 4.10596 0.674573 0
M  V30 6997 H 667.303 5.32663 1.3252 0
M  V30 6998 H 667.564 3.83038 2.20758 0
M  V30 6999 N 666.623 0.143563 1.56945 0
M  V30 7000 C 667.87 -0.508407 1.96014 0
M  V30 7001 C 668.198 -1.65099 1.02824 0
M  V30 7002 O 667.453 -1.95618 0.0567764 0
M  V30 7003 C 667.752 -1.05885 3.41355 0
M  V30 7004 C 667.418 -0.0350809 4.50886 0
M  V30 7005 C 666.08 0.246362 4.80569 0
M  V30 7006 C 668.432 0.661282 5.16988 0
M  V30 7007 C 665.76 1.23003 5.73661 0
M  V30 7008 C 668.112 1.63375 6.11139 0
M  V30 7009 C 666.776 1.92292 6.39203 0
M  V30 7010 H 666.046 -0.186039 0.717266 0
M  V30 7011 H 668.693 0.229667 1.90118 0
M  V30 7012 H 666.998 -1.87419 3.44066 0
M  V30 7013 H 668.695 -1.57183 3.6891 0
M  V30 7014 H 665.285 -0.264622 4.27782 0
M  V30 7015 H 669.469 0.457038 4.94191 0
M  V30 7016 H 664.725 1.46056 5.93698 0
M  V30 7017 H 668.899 2.17887 6.61436 0
M  V30 7018 H 666.526 2.68666 7.11142 0
M  V30 7019 N 668.101 -1.57061 -0.130224 0
M  V30 7020 C 669.517 -1.52103 -0.483413 0
M  V30 7021 C 669.717 -0.854752 -1.82473 0
M  V30 7022 O 668.773 -0.432342 -2.48771 0
M  V30 7023 C 670.086 -2.96872 -0.47825 0
M  V30 7024 C 671.634 -3.07902 -0.562592 0
M  V30 7025 C 672.109 -4.54211 -0.587929 0
M  V30 7026 N 673.6 -4.58621 -0.649684 0
M  V30 7027 C 674.335 -5.69227 -0.690551 0
M  V30 7028 N 673.831 -6.89358 -0.689743 0
M  V30 7029 N 675.624 -5.57304 -0.732708 0
M  V30 7030 H 667.775 -1.98764 0.748779 0
M  V30 7031 H 670.038 -0.907248 0.274965 0
M  V30 7032 H 669.744 -3.48944 0.439444 0
M  V30 7033 H 669.618 -3.53716 -1.31013 0
M  V30 7034 H 672.005 -2.5584 -1.47071 0
M  V30 7035 H 672.086 -2.54073 0.296764 0
M  V30 7036 H 671.73 -5.06915 0.316096 0
M  V30 7037 H 671.66 -5.0584 -1.46401 0
M  V30 7038 H 674.151 -3.72146 -0.656927 0
M  V30 7039 H 674.464 -7.69408 -0.723239 0
M  V30 7040 H 672.809 -6.91884 -0.657347 0
M  V30 7041 H 676 -4.62363 -0.730625 0
M  V30 7042 H 676.173 -6.43515 -0.76109 0
M  V30 7043 N 669.579 0.400081 -1.52437 0
M  V30 7044 C 670.828 1.14332 -1.66166 0
M  V30 7045 C 671.141 1.91419 -0.402253 0
M  V30 7046 O 672.347 2.6824 -0.419487 0
M  V30 7047 C 670.803 2.08137 -2.9361 0
M  V30 7048 C 670.411 1.36524 -4.26691 0
M  V30 7049 C 672.155 2.82664 -3.16703 0
M  V30 7050 C 670.062 2.29031 -5.45251 0
M  V30 7051 H 668.992 0.430499 -0.61902 0
M  V30 7052 H 671.643 0.407017 -1.78929 0
M  V30 7053 H 670.025 2.85358 -2.74567 0
M  V30 7054 H 671.199 0.646061 -4.56249 0
M  V30 7055 H 669.514 0.74002 -4.09771 0
M  V30 7056 H 672.111 3.52037 -4.0246 0
M  V30 7057 H 672.454 3.46122 -2.31312 0
M  V30 7058 H 672.987 2.12541 -3.36261 0
M  V30 7059 H 669.726 1.70206 -6.33017 0
M  V30 7060 H 669.246 2.98896 -5.2002 0
M  V30 7061 H 670.925 2.89359 -5.78689 0
M  V30 7062 N 671.057 1.43213 0.657864 0
M  V30 7063 C 672.304 1.44584 1.41781 0
M  V30 7064 C 672.632 0.0684208 1.9438 0
M  V30 7065 O 671.887 -0.925872 1.72413 0
M  V30 7066 C 672.186 2.43143 2.61947 0
M  V30 7067 C 671.852 3.89128 2.27794 0
M  V30 7068 C 670.514 4.28889 2.18191 0
M  V30 7069 C 672.866 4.81144 2.00375 0
M  V30 7070 C 670.194 5.58625 1.79319 0
M  V30 7071 C 672.546 6.11239 1.63003 0
M  V30 7072 C 671.21 6.49981 1.51922 0
M  V30 7073 H 670.48 0.529069 0.518813 0
M  V30 7074 H 673.127 1.76263 0.748577 0
M  V30 7075 H 671.432 2.04851 3.33981 0
M  V30 7076 H 673.129 2.4146 3.20153 0
M  V30 7077 H 669.719 3.57657 2.36176 0
M  V30 7078 H 673.903 4.512 2.06718 0
M  V30 7079 H 669.159 5.87486 1.69323 0
M  V30 7080 H 673.333 6.82014 1.40817 0
M  V30 7081 H 670.96 7.50416 1.21572 0
M  V30 7082 N 672.536 -0.895792 1.29666 0
M  V30 7083 C 673.483 -2.00035 1.15129 0
M  V30 7084 C 674.453 -1.66043 0.0435819 0
M  V30 7085 O 675.638 -1.89621 0.211811 0
M  V30 7086 C 672.778 -3.34774 0.83787 0
M  V30 7087 C 671.891 -3.81525 2.0264 0
M  V30 7088 C 671.026 -5.04858 1.65201 0
M  V30 7089 C 670.065 -5.43988 2.80612 0
M  V30 7090 N 669.202 -6.58507 2.43544 0
M  V30 7091 H 674.042 -2.11802 2.09628 0
M  V30 7092 H 671.579 -1.03719 1.04311 0
M  V30 7093 H 673.537 -4.12311 0.636824 0
M  V30 7094 H 672.167 -3.22724 -0.0702314 0
M  V30 7095 H 671.219 -2.9999 2.33903 0
M  V30 7096 H 672.531 -4.06472 2.89106 0
M  V30 7097 H 671.685 -5.8999 1.41408 0
M  V30 7098 H 670.424 -4.81759 0.758893 0
M  V30 7099 H 669.429 -4.57388 3.05083 0
M  V30 7100 H 670.654 -5.69066 3.70595 0
M  V30 7101 H 668.6 -6.37004 1.56724 0
M  V30 7102 H 668.517 -6.83269 3.23542 0
M  V30 7103 H 669.785 -7.46897 2.2308 0
M  V30 7104 N 674.014 -1.12206 -1.10668 0
M  V30 7105 C 674.944 -0.810086 -2.18997 0
M  V30 7106 C 675.925 0.225065 -1.68604 0
M  V30 7107 O 677.11 0.086783 -1.94006 0
M  V30 7108 C 674.24 -0.261262 -3.46316 0
M  V30 7109 C 673.194 -1.2292 -4.09969 0
M  V30 7110 C 672.52 -0.540713 -5.31959 0
M  V30 7111 C 673.82 -2.58295 -4.53962 0
M  V30 7112 H 675.514 -1.7159 -2.45352 0
M  V30 7113 H 673.06 -0.82646 -1.17922 0
M  V30 7114 H 675.013 -0.0307522 -4.21389 0
M  V30 7115 H 673.737 0.679879 -3.19445 0
M  V30 7116 H 672.396 -1.44548 -3.369 0
M  V30 7117 H 672.044 0.405492 -5.01363 0
M  V30 7118 H 671.744 -1.18637 -5.75499 0
M  V30 7119 H 673.268 -0.319184 -6.09765 0
M  V30 7120 H 674.682 -2.40709 -5.20319 0
M  V30 7121 H 673.079 -3.18916 -5.08343 0
M  V30 7122 H 674.149 -3.16918 -3.67002 0
M  V30 7123 N 675.492 1.28418 -0.913599 0
M  V30 7124 C 676.717 1.99643 -0.561899 0
M  V30 7125 C 677.142 1.67819 0.849608 0
M  V30 7126 O 676.5 0.910503 1.56779 0
M  V30 7127 C 676.548 3.52116 -0.777622 0
M  V30 7128 O 675.652 4.12076 0.163457 0
M  V30 7129 H 674.993 0.627229 -0.217898 0
M  V30 7130 H 677.523 1.63575 -1.229 0
M  V30 7131 H 677.533 4.02163 -0.687666 0
M  V30 7132 H 676.208 3.74613 -1.8066 0
M  V30 7133 H 674.785 3.72892 0.0247827 0
M  V30 7134 N 676.97 0.677563 1.42291 0
M  V30 7135 C 678.386 0.347376 1.55774 0
M  V30 7136 C 678.586 -1.14703 1.65667 0
M  V30 7137 O 677.642 -1.93252 1.62512 0
M  V30 7138 C 678.955 1.08011 2.80631 0
M  V30 7139 C 680.503 1.06271 2.94407 0
M  V30 7140 C 680.978 1.77683 4.22129 0
M  V30 7141 N 682.469 1.74564 4.29047 0
M  V30 7142 C 683.204 2.26673 5.26694 0
M  V30 7143 N 682.7 2.87176 6.30477 0
M  V30 7144 N 684.493 2.17032 5.18511 0
M  V30 7145 H 676.644 1.64703 1.34114 0
M  V30 7146 H 678.907 0.694038 0.645768 0
M  V30 7147 H 678.613 2.13518 2.79469 0
M  V30 7148 H 678.487 0.647115 3.71608 0
M  V30 7149 H 680.874 0.0159658 2.95096 0
M  V30 7150 H 680.955 1.53461 2.04654 0
M  V30 7151 H 680.599 2.82327 4.22201 0
M  V30 7152 H 680.529 1.2794 5.10822 0
M  V30 7153 H 683.02 1.30436 3.54676 0
M  V30 7154 H 683.333 3.24551 7.01346 0
M  V30 7155 H 681.678 2.91247 6.31031 0
M  V30 7156 H 684.869 1.69451 4.36353 0
M  V30 7157 H 685.042 2.57948 5.94446 0
M  V30 7158 N 678.448 -1.51871 0.421078 0
M  V30 7159 C 679.398 -2.24171 -0.416111 0
M  V30 7160 C 680.382 -1.25763 -1.00362 0
M  V30 7161 O 681.574 -1.5094 -0.924452 0
M  V30 7162 C 678.703 -3.07533 -1.52571 0
M  V30 7163 C 677.789 -4.1336 -0.948399 0
M  V30 7164 N 678.18 -5.05704 -0.0987933 0
M  V30 7165 C 676.478 -4.29055 -1.21768 0
M  V30 7166 C 677.179 -5.8127 0.223705 0
M  V30 7167 N 676.155 -5.4221 -0.388524 0
M  V30 7168 H 679.957 -2.92925 0.239166 0
M  V30 7169 H 677.471 -1.60732 0.232191 0
M  V30 7170 H 679.468 -3.57893 -2.13819 0
M  V30 7171 H 678.128 -2.4032 -2.18349 0
M  V30 7172 H 679.139 -5.17214 0.266428 0
M  V30 7173 H 675.816 -3.73071 -1.87416 0
M  V30 7174 H 677.206 -6.65653 0.914076 0
M  V30 7175 N 679.926 -0.151884 -1.56866 0
M  V30 7176 C 681.151 0.508044 -2.01081 0
M  V30 7177 C 681.576 1.57306 -1.03134 0
M  V30 7178 O 680.934 1.81298 -0.0078309 0
M  V30 7179 C 680.982 1.08106 -3.44014 0
M  V30 7180 O 680.086 2.19577 -3.49084 0
M  V30 7181 H 679.427 0.123757 -0.652365 0
M  V30 7182 H 681.957 -0.250055 -2.03066 0
M  V30 7183 H 681.967 1.40851 -3.82916 0
M  V30 7184 H 680.642 0.301168 -4.14808 0
M  V30 7185 H 679.219 1.88023 -3.22027 0
M  V30 7186 N 681.404 1.57128 0.121893 0
M  V30 7187 C 682.351 2.0013 1.14964 0
M  V30 7188 C 683.321 0.872959 1.4131 0
M  V30 7189 O 684.506 1.13696 1.53225 0
M  V30 7190 C 681.646 2.40824 2.4718 0
M  V30 7191 C 680.759 3.67061 2.27794 0
M  V30 7192 C 679.894 3.96749 3.53219 0
M  V30 7193 C 678.933 5.16178 3.28978 0
M  V30 7194 N 678.07 5.41751 4.46599 0
M  V30 7195 H 682.91 2.8772 0.775947 0
M  V30 7196 H 680.447 1.42328 0.371652 0
M  V30 7197 H 682.405 2.62454 3.24305 0
M  V30 7198 H 681.035 1.56279 2.82448 0
M  V30 7199 H 680.087 3.53063 1.416 0
M  V30 7200 H 681.399 4.5434 2.05857 0
M  V30 7201 H 680.553 4.19012 4.38764 0
M  V30 7202 H 679.292 3.07941 3.78185 0
M  V30 7203 H 678.297 4.93762 2.41824 0
M  V30 7204 H 679.522 6.06561 3.05386 0
M  V30 7205 H 677.468 4.55899 4.71691 0
M  V30 7206 H 677.385 6.23347 4.27756 0
M  V30 7207 H 678.653 5.68531 5.33285 0
M  V30 7208 N 682.882 -0.391992 1.52647 0
M  V30 7209 C 684.13 -1.13507 1.67214 0
M  V30 7210 C 684.451 -1.90575 0.41304 0
M  V30 7211 O 683.721 -1.87348 -0.572498 0
M  V30 7212 H 682.301 -0.422013 0.616372 0
M  V30 7213 H 684.963 -0.44502 1.89751 0
M  V30 7214 H 684.059 -1.83964 2.52118 0
M  V30 7215 N 684.36 -1.4356 -0.65026 0
M  V30 7216 C 685.29 -1.51758 -1.77459 0
M  V30 7217 C 686.271 -0.372019 -1.65982 0
M  V30 7218 O 687.456 -0.589627 -1.85033 0
M  V30 7219 C 684.586 -1.44302 -3.15902 0
M  V30 7220 C 683.54 -2.57138 -3.42146 0
M  V30 7221 C 682.866 -2.34735 -4.8042 0
M  V30 7222 C 684.166 -3.99373 -3.36598 0
M  V30 7223 H 685.86 -2.45863 -1.70855 0
M  V30 7224 H 683.406 -1.18333 -0.820566 0
M  V30 7225 H 685.359 -1.48641 -3.94314 0
M  V30 7226 H 684.083 -0.467026 -3.23244 0
M  V30 7227 H 682.742 -2.52157 -2.66106 0
M  V30 7228 H 682.39 -1.35372 -4.84441 0
M  V30 7229 H 682.09 -3.10375 -4.9894 0
M  V30 7230 H 683.614 -2.40862 -5.61086 0
M  V30 7231 H 685.028 -4.05826 -4.04942 0
M  V30 7232 H 683.425 -4.75063 -3.66654 0
M  V30 7233 H 684.495 -4.243 -2.34729 0
M  V30 7234 N 685.838 0.888903 -1.30139 0
M  V30 7235 C 686.77 1.99972 -1.11999 0
M  V30 7236 C 687.783 1.62673 -0.0643619 0
M  V30 7237 O 688.972 1.75788 -0.309983 0
M  V30 7238 C 686.072 3.31904 -0.685059 0
M  V30 7239 C 685.245 3.97665 -1.82158 0
M  V30 7240 C 684.304 5.07894 -1.37585 0
M  V30 7241 O 683.33 5.2974 -2.08241 0
M  V30 7242 N 684.532 5.7995 -0.252697 0
M  V30 7243 H 687.297 2.16085 -2.07671 0
M  V30 7244 H 684.858 1.06175 -1.22223 0
M  V30 7245 H 686.85 4.03005 -0.369964 0
M  V30 7246 H 685.42 3.12084 0.179507 0
M  V30 7247 H 684.64 3.19787 -2.305 0
M  V30 7248 H 685.928 4.3834 -2.58332 0
M  V30 7249 H 685.326 5.647 0.336141 0
M  V30 7250 H 683.883 6.518 0.00296813 0
M  V30 7251 N 687.317 1.12792 1.10072 0
M  V30 7252 C 688.566 0.880232 1.81479 0
M  V30 7253 C 688.879 -0.595575 1.86312 0
M  V30 7254 O 690.085 -0.959979 2.53962 0
M  V30 7255 C 688.541 1.52514 3.25987 0
M  V30 7256 C 688.149 3.036 3.29441 0
M  V30 7257 C 689.893 1.35788 4.02196 0
M  V30 7258 C 687.8 3.61007 4.68431 0
M  V30 7259 H 686.73 0.325654 0.680048 0
M  V30 7260 H 689.381 1.35485 1.23758 0
M  V30 7261 H 687.763 0.978188 3.83728 0
M  V30 7262 H 688.937 3.64819 2.81502 0
M  V30 7263 H 687.252 3.19765 2.66719 0
M  V30 7264 H 689.849 1.76096 5.0487 0
M  V30 7265 H 690.192 0.301972 4.15203 0
M  V30 7266 H 690.725 1.87426 3.50879 0
M  V30 7267 H 687.464 4.66375 4.60625 0
M  V30 7268 H 686.984 3.04564 5.16721 0
M  V30 7269 H 688.663 3.60289 5.37402 0
M  V30 7270 N 688.795 -1.27931 0.920396 0
M  V30 7271 C 689.725 -2.29487 0.431024 0
M  V30 7272 C 690.706 -1.62435 -0.504861 0
M  V30 7273 O 691.891 -1.89797 -0.411176 0
M  V30 7274 C 689.021 -3.45788 -0.323709 0
M  V30 7275 C 687.975 -4.24784 0.523658 0
M  V30 7276 C 687.301 -5.33488 -0.359809 0
M  V30 7277 C 688.601 -4.90874 1.78437 0
M  V30 7278 H 690.295 -2.70671 1.27975 0
M  V30 7279 H 687.841 -1.30121 0.616813 0
M  V30 7280 H 689.794 -4.15927 -0.676952 0
M  V30 7281 H 688.518 -3.03502 -1.2064 0
M  V30 7282 H 687.177 -3.56382 0.85951 0
M  V30 7283 H 686.825 -4.87445 -1.24124 0
M  V30 7284 H 686.525 -5.87247 0.203605 0
M  V30 7285 H 688.049 -6.06472 -0.708787 0
M  V30 7286 H 689.463 -5.53339 1.49963 0
M  V30 7287 H 687.86 -5.54659 2.29071 0
M  V30 7288 H 688.93 -4.14988 2.50824 0
M  V30 7289 N 690.273 -0.685099 -1.4193 0
M  V30 7290 C 691.521 -0.21124 -2.00993 0
M  V30 7291 C 691.842 1.18985 -1.54491 0
M  V30 7292 O 691.112 1.8009 -0.771 0
M  V30 7293 H 689.692 -0.0751059 -0.743215 0
M  V30 7294 H 692.354 -0.883915 -1.73704 0
M  V30 7295 H 691.45 -0.220513 -3.1132 0
M  V30 7296 N 691.751 1.51645 -0.429126 0
M  V30 7297 C 692.701 2.24388 0.404217 0
M  V30 7298 C 693.685 1.26294 0.996933 0
M  V30 7299 O 694.877 1.51428 0.916434 0
M  V30 7300 C 692.006 3.08338 1.50938 0
M  V30 7301 C 691.092 4.13857 0.926464 0
M  V30 7302 N 691.483 5.05749 0.0719732 0
M  V30 7303 C 689.781 4.29695 1.19491 0
M  V30 7304 C 690.482 5.81143 -0.254528 0
M  V30 7305 N 689.458 5.42408 0.359763 0
M  V30 7306 H 693.26 2.92794 -0.254697 0
M  V30 7307 H 690.774 1.60606 -0.240712 0
M  V30 7308 H 692.771 3.59022 2.11918 0
M  V30 7309 H 691.431 2.41475 2.17072 0
M  V30 7310 H 692.442 5.17066 -0.293854 0
M  V30 7311 H 689.119 3.74059 1.85434 0
M  V30 7312 H 690.509 6.65159 -0.949365 0
M  V30 7313 N 693.229 0.160201 1.56784 0
M  V30 7314 C 694.457 -0.494165 2.00912 0
M  V30 7315 C 694.872 -1.57548 1.04038 0
M  V30 7316 O 694.229 -1.82457 0.0394581 0
M  V30 7317 C 694.28 -1.08271 3.44905 0
M  V30 7318 O 694.001 -0.0445704 4.38077 0
M  V30 7319 C 695.502 -1.8164 4.04378 0
M  V30 7320 H 692.722 -0.127498 0.658776 0
M  V30 7321 H 695.266 0.258665 2.02858 0
M  V30 7322 H 693.421 -1.78609 3.4377 0
M  V30 7323 H 693.835 -0.477544 5.22322 0
M  V30 7324 H 695.309 -2.18094 5.07089 0
M  V30 7325 H 695.786 -2.70727 3.45838 0
M  V30 7326 H 696.392 -1.15969 4.09184 0
M  V30 7327 N 694.707 -1.5719 -0.113559 0
M  V30 7328 C 695.637 -2.03772 -1.14013 0
M  V30 7329 C 696.618 -0.923176 -1.42869 0
M  V30 7330 O 697.803 -1.19325 -1.53216 0
M  V30 7331 C 694.933 -2.44663 -2.4649 0
M  V30 7332 C 693.887 -3.59612 -2.32085 0
M  V30 7333 C 693.213 -3.8642 -3.69573 0
M  V30 7334 C 694.513 -4.91149 -1.7768 0
M  V30 7335 H 696.207 -2.89785 -0.752665 0
M  V30 7336 H 693.753 -1.39412 -0.360609 0
M  V30 7337 H 695.706 -2.75857 -3.18561 0
M  V30 7338 H 694.43 -1.55628 -2.87137 0
M  V30 7339 H 693.089 -3.28636 -1.62461 0
M  V30 7340 H 692.737 -2.94581 -4.07715 0
M  V30 7341 H 692.437 -4.63797 -3.60786 0
M  V30 7342 H 693.961 -4.2007 -4.4314 0
M  V30 7343 H 695.375 -5.20843 -2.39574 0
M  V30 7344 H 693.772 -5.72562 -1.79701 0
M  V30 7345 H 694.842 -4.79301 -0.734776 0
M  V30 7346 N 696.185 0.383891 -1.52853 0
M  V30 7347 C 697.601 0.724316 -1.42218 0
M  V30 7348 C 697.801 1.93943 -0.546654 0
M  V30 7349 O 696.857 2.5249 -0.0220562 0
M  V30 7350 C 698.17 0.954635 -2.85144 0
M  V30 7351 C 699.718 1.05579 -2.94656 0
M  V30 7352 C 700.193 1.3187 -4.38605 0
M  V30 7353 N 701.684 1.38681 -4.41952 0
M  V30 7354 C 702.419 1.60699 -5.50421 0
M  V30 7355 N 701.915 1.80154 -6.68967 0
M  V30 7356 N 703.708 1.6292 -5.37972 0
M  V30 7357 H 695.859 -0.4156 -2.08294 0
M  V30 7358 H 698.122 -0.123776 -0.939885 0
M  V30 7359 H 697.828 0.133829 -3.51445 0
M  V30 7360 H 697.702 1.86788 -3.27704 0
M  V30 7361 H 700.089 1.86716 -2.2852 0
M  V30 7362 H 700.17 0.120338 -2.55517 0
M  V30 7363 H 699.814 0.512416 -5.05309 0
M  V30 7364 H 699.744 2.26708 -4.75301 0
M  V30 7365 H 702.235 1.25334 -3.56511 0
M  V30 7366 H 702.548 1.96476 -7.47407 0
M  V30 7367 H 700.893 1.77368 -6.71986 0
M  V30 7368 H 704.084 1.47276 -4.44328 0
M  V30 7369 H 704.257 1.79739 -6.22574 0
M  V30 7370 N 697.663 1.43903 0.642637 0
M  V30 7371 C 698.626 1.49538 1.73698 0
M  V30 7372 C 699.626 0.378776 1.56275 0
M  V30 7373 O 700.816 0.64095 1.6198 0
M  V30 7374 C 697.948 1.35821 3.12675 0
M  V30 7375 H 699.141 2.47008 1.70079 0
M  V30 7376 H 696.694 1.30824 0.85526 0
M  V30 7377 H 697.429 0.393994 3.21898 0
M  V30 7378 H 697.214 2.16776 3.26727 0
M  V30 7379 H 698.704 1.4272 3.92455 0
M  V30 7380 N 699.141 -0.881989 1.30609 0
M  V30 7381 C 700.366 -1.67236 1.22665 0
M  V30 7382 C 700.791 -1.8696 -0.206777 0
M  V30 7383 O 700.149 -1.4027 -1.14865 0
M  V30 7384 C 700.197 -3.02446 1.96363 0
M  V30 7385 O 699.301 -3.91614 1.29276 0
M  V30 7386 H 698.642 -0.510902 0.424117 0
M  V30 7387 H 701.172 -1.10055 1.72479 0
M  V30 7388 H 701.182 -3.52468 2.055 0
M  V30 7389 H 699.857 -2.8741 3.00613 0
M  V30 7390 H 698.434 -3.50055 1.28514 0
M  V30 7391 N 700.619 -1.13374 -1.09472 0
M  V30 7392 C 701.552 -0.754354 -2.15371 0
M  V30 7393 C 702.53 0.259205 -1.60521 0
M  V30 7394 O 703.714 0.150819 -1.87896 0
M  V30 7395 C 700.841 -0.118197 -3.38494 0
M  V30 7396 C 699.887 -1.10017 -4.12066 0
M  V30 7397 S 700.72 -2.63242 -4.6633 0
M  V30 7398 C 701.876 -2.00984 -5.92753 0
M  V30 7399 H 702.109 -1.65135 -2.4722 0
M  V30 7400 H 699.642 -0.953838 -1.21414 0
M  V30 7401 H 701.6 0.242447 -4.09783 0
M  V30 7402 H 700.261 0.756065 -3.04865 0
M  V30 7403 H 699.454 -0.60287 -5.00381 0
M  V30 7404 H 699.056 -1.40426 -3.46636 0
M  V30 7405 H 701.348 -1.35863 -6.63738 0
M  V30 7406 H 702.291 -2.8738 -6.47162 0
M  V30 7407 H 702.699 -1.46161 -5.4525 0
M  V30 7408 N 702.098 1.27442 -0.927168 0
M  V30 7409 C 703.514 1.46754 -0.627329 0
M  V30 7410 C 703.714 1.83902 0.823549 0
M  V30 7411 O 702.77 1.95215 1.60148 0
M  V30 7412 C 704.083 2.56045 -1.57674 0
M  V30 7413 C 705.631 2.69906 -1.58491 0
M  V30 7414 C 706.106 3.82355 -2.52128 0
M  V30 7415 N 707.597 3.89728 -2.50332 0
M  V30 7416 C 708.332 4.76155 -3.19475 0
M  V30 7417 N 707.828 5.67073 -3.97995 0
M  V30 7418 N 709.621 4.6988 -3.08496 0
M  V30 7419 H 701.772 1.01613 -1.86517 0
M  V30 7420 H 704.035 0.507443 -0.800753 0
M  V30 7421 H 703.741 2.35542 -2.61176 0
M  V30 7422 H 703.615 3.53423 -1.31804 0
M  V30 7423 H 706.002 2.89792 -0.557208 0
M  V30 7424 H 706.083 1.73018 -1.8841 0
M  V30 7425 H 705.727 3.63224 -3.55008 0
M  V30 7426 H 705.657 4.7867 -2.19505 0
M  V30 7427 H 708.148 3.24717 -1.93306 0
M  V30 7428 H 708.461 6.2988 -4.4774 0
M  V30 7429 H 706.806 5.6687 -4.02098 0
M  V30 7430 H 709.997 3.97848 -2.46646 0
M  V30 7431 H 710.17 5.37017 -3.62652 0
M  V30 7432 N 703.576 0.692616 1.41565 0
M  V30 7433 C 704.486 0.0258451 2.34586 0
M  V30 7434 C 705.502 -0.769324 1.56069 0
M  V30 7435 O 706.678 -0.707563 1.88562 0
M  V30 7436 C 703.743 -0.901289 3.3478 0
M  V30 7437 C 702.804 -0.0986579 4.29187 0
M  V30 7438 C 702.037 -0.981634 5.24595 0
M  V30 7439 O 702.26 -2.22115 5.25377 0
M  V30 7440 O 701.194 -0.432892 6.00341 0
M  V30 7441 H 705.02 0.792537 2.93177 0
M  V30 7442 H 702.605 0.452935 1.42369 0
M  V30 7443 H 704.487 -1.43302 3.96286 0
M  V30 7444 H 703.162 -1.64752 2.78637 0
M  V30 7445 H 702.069 0.477604 3.71039 0
M  V30 7446 H 703.402 0.608848 4.8842 0
M  V30 7447 N 705.054 -1.51416 0.437162 0
M  V30 7448 C 705.984 -2.30631 -0.364922 0
M  V30 7449 C 706.965 -1.36037 -1.02118 0
M  V30 7450 O 708.15 -1.64956 -1.02485 0
M  V30 7451 C 705.28 -3.1482 -1.46648 0
M  V30 7452 C 704.234 -4.17691 -0.933717 0
M  V30 7453 C 703.56 -4.904 -2.13101 0
M  V30 7454 C 704.86 -5.2229 0.0317201 0
M  V30 7455 H 706.554 -2.97932 0.29614 0
M  V30 7456 H 704.1 -1.4328 0.143865 0
M  V30 7457 H 706.053 -3.69017 -2.03481 0
M  V30 7458 H 704.777 -2.4534 -2.15583 0
M  V30 7459 H 703.436 -3.64545 -0.387602 0
M  V30 7460 H 703.084 -4.17423 -2.80654 0
M  V30 7461 H 702.784 -5.59962 -1.78092 0
M  V30 7462 H 704.308 -5.4742 -2.70487 0
M  V30 7463 H 705.722 -5.7156 -0.446302 0
M  V30 7464 H 704.119 -5.99378 0.29437 0
M  V30 7465 H 705.189 -4.75131 0.968447 0
M  V30 7466 N 706.532 -0.168513 -1.56696 0
M  V30 7467 C 707.78 0.476216 -1.96409 0
M  V30 7468 C 708.101 1.63968 -1.05544 0
M  V30 7469 O 707.371 1.95525 -0.121235 0
M  V30 7470 H 705.951 0.178921 -0.725256 0
M  V30 7471 H 708.613 -0.249042 -1.93302 0
M  V30 7472 H 707.709 0.838094 -3.00637 0
M  V30 7473 N 708.01 1.57248 0.105221 0
M  V30 7474 C 708.94 2.04374 1.12931 0
M  V30 7475 C 709.921 0.93074 1.42377 0
M  V30 7476 O 711.106 1.20136 1.52581 0
M  V30 7477 C 708.236 2.45967 2.45189 0
M  V30 7478 C 707.19 3.60838 2.30174 0
M  V30 7479 C 706.516 3.88374 3.67518 0
M  V30 7480 C 707.816 4.92084 1.75073 0
M  V30 7481 H 709.51 2.9018 0.737287 0
M  V30 7482 H 707.056 1.39601 0.353211 0
M  V30 7483 H 709.009 2.77542 3.17094 0
M  V30 7484 H 707.733 1.57148 2.86308 0
M  V30 7485 H 706.392 3.29493 1.60716 0
M  V30 7486 H 706.04 2.96739 4.06147 0
M  V30 7487 H 705.74 4.65703 3.58321 0
M  V30 7488 H 707.264 4.22415 4.40906 0
M  V30 7489 H 708.678 5.22106 2.36809 0
M  V30 7490 H 707.075 5.73507 1.76662 0
M  V30 7491 H 708.145 4.79684 0.709347 0
M  V30 7492 N 709.488 -0.375779 1.53054 0
M  V30 7493 C 710.418 -1.46598 1.81745 0
M  V30 7494 C 711.399 -1.56337 0.670286 0
M  V30 7495 O 712.584 -1.71071 0.919158 0
M  V30 7496 C 709.714 -2.84058 1.99821 0
M  V30 7497 C 708.668 -2.8915 3.15557 0
M  V30 7498 C 707.994 -4.29187 3.18908 0
M  V30 7499 C 709.294 -2.57595 4.54359 0
M  V30 7500 H 710.988 -1.22837 2.73041 0
M  V30 7501 H 708.534 -0.589485 1.31381 0
M  V30 7502 H 710.487 -3.60342 2.18475 0
M  V30 7503 H 709.211 -3.09184 1.05226 0
M  V30 7504 H 707.87 -2.15316 2.96706 0
M  V30 7505 H 707.518 -4.51374 2.2197 0
M  V30 7506 H 707.218 -4.33512 3.96662 0
M  V30 7507 H 708.742 -5.07359 3.39734 0
M  V30 7508 H 710.156 -3.23595 4.73243 0
M  V30 7509 H 708.553 -2.73252 5.34279 0
M  V30 7510 H 709.623 -1.52882 4.60169 0
M  V30 7511 N 710.966 -1.44241 -0.634997 0
M  V30 7512 C 712.215 -1.46102 -1.39058 0
M  V30 7513 C 712.528 -0.0959909 -1.95364 0
M  V30 7514 O 713.734 0.00788751 -2.71499 0
M  V30 7515 C 712.19 -2.57195 -2.51751 0
M  V30 7516 C 711.798 -3.99888 -2.01974 0
M  V30 7517 C 713.542 -2.68272 -3.28984 0
M  V30 7518 C 711.449 -5.02412 -3.11987 0
M  V30 7519 H 710.379 -0.543556 -0.522554 0
M  V30 7520 H 713.03 -1.70294 -0.683538 0
M  V30 7521 H 711.412 -2.26237 -3.25012 0
M  V30 7522 H 712.586 -4.40396 -1.35604 0
M  V30 7523 H 710.901 -3.93019 -1.37568 0
M  V30 7524 H 713.498 -3.42042 -4.10988 0
M  V30 7525 H 713.841 -1.73957 -3.78212 0
M  V30 7526 H 714.374 -2.98622 -2.62812 0
M  V30 7527 H 711.113 -5.98342 -2.67707 0
M  V30 7528 H 710.633 -4.66501 -3.77011 0
M  V30 7529 H 712.312 -5.25939 -3.76825 0
M  V30 7530 N 712.444 0.87505 -1.31075 0
M  V30 7531 C 713.691 1.62768 -1.20469 0
M  V30 7532 C 714.019 1.93034 0.23834 0
M  V30 7533 O 713.274 1.55693 1.18567 0
M  V30 7534 C 713.573 2.96948 -1.98888 0
M  V30 7535 C 713.239 2.86195 -3.4843 0
M  V30 7536 C 711.901 2.82969 -3.89207 0
M  V30 7537 C 714.253 2.73599 -4.43614 0
M  V30 7538 C 711.581 2.64999 -5.23443 0
M  V30 7539 C 713.933 2.57166 -5.77969 0
M  V30 7540 C 712.597 2.52321 -6.17973 0
M  V30 7541 H 711.867 0.595611 -0.440827 0
M  V30 7542 H 714.514 1.01665 -1.62285 0
M  V30 7543 H 712.819 3.62058 -1.49737 0
M  V30 7544 H 714.516 3.54164 -1.88067 0
M  V30 7545 H 711.106 2.8952 -3.16032 0
M  V30 7546 H 715.29 2.7515 -4.13045 0
M  V30 7547 H 710.546 2.5967 -5.53517 0
M  V30 7548 H 714.72 2.46396 -6.51354 0
M  V30 7549 H 712.347 2.38156 -7.21932 0
M  V30 7550 N 713.922 1.13953 1.08869 0
M  V30 7551 C 715.169 0.90481 1.81161 0
M  V30 7552 C 715.497 -0.568824 1.85996 0
M  V30 7553 O 714.752 -1.43723 1.32823 0
M  V30 7554 C 715.051 1.44495 3.26888 0
M  V30 7555 C 714.717 2.93641 3.42178 0
M  V30 7556 C 713.379 3.34361 3.46059 0
M  V30 7557 C 715.731 3.89568 3.46246 0
M  V30 7558 C 713.059 4.69681 3.51592 0
M  V30 7559 C 715.411 5.2474 3.53314 0
M  V30 7560 C 714.075 5.64979 3.55465 0
M  V30 7561 H 713.345 0.331094 0.662916 0
M  V30 7562 H 715.992 1.42242 1.28217 0
M  V30 7563 H 714.297 0.848169 3.82509 0
M  V30 7564 H 715.994 1.23934 3.81368 0
M  V30 7565 H 712.584 2.61156 3.39846 0
M  V30 7566 H 716.768 3.59192 3.42483 0
M  V30 7567 H 712.024 5.00224 3.51547 0
M  V30 7568 H 716.198 5.98882 3.55406 0
M  V30 7569 H 713.825 6.69821 3.59505 0
M  V30 7570 N 715.4 -1.26948 0.933913 0
M  V30 7571 C 716.33 -2.29017 0.45534 0
M  V30 7572 C 717.311 -1.62961 -0.487605 0
M  V30 7573 O 718.496 -1.90223 -0.391022 0
M  V30 7574 C 715.626 -3.46112 -0.287015 0
M  V30 7575 C 714.58 -4.24205 0.568682 0
M  V30 7576 C 713.906 -5.3384 -0.303206 0
M  V30 7577 C 715.206 -4.88954 1.83633 0
M  V30 7578 H 716.9 -2.69298 1.30839 0
M  V30 7579 H 714.446 -1.29459 0.630579 0
M  V30 7580 H 716.399 -4.16622 -0.6328 0
M  V30 7581 H 715.123 -3.04765 -1.17414 0
M  V30 7582 H 713.782 -3.5545 0.897261 0
M  V30 7583 H 713.43 -4.88734 -1.18947 0
M  V30 7584 H 713.13 -5.86998 0.265879 0
M  V30 7585 H 714.654 -6.0719 -0.644423 0
M  V30 7586 H 716.068 -5.51717 1.55823 0
M  V30 7587 H 714.465 -5.52198 2.34941 0
M  V30 7588 H 715.535 -4.12305 2.55211 0
M  V30 7589 N 716.879 -0.700114 -1.41195 0
M  V30 7590 C 718.126 -0.233006 -2.01155 0
M  V30 7591 C 718.454 1.16883 -1.55462 0
M  V30 7592 O 717.709 1.80395 -0.758695 0
M  V30 7593 C 718.008 -0.243986 -3.56566 0
M  V30 7594 C 717.674 -1.59397 -4.21786 0
M  V30 7595 C 716.336 -1.96355 -4.39316 0
M  V30 7596 C 718.688 -2.48192 -4.58312 0
M  V30 7597 C 716.016 -3.21683 -4.9065 0
M  V30 7598 C 718.368 -3.72857 -5.11039 0
M  V30 7599 C 717.032 -4.09951 -5.26779 0
M  V30 7600 H 716.302 -0.085263 -0.736078 0
M  V30 7601 H 718.949 -0.9001 -1.69028 0
M  V30 7602 H 717.254 0.506663 -3.8851 0
M  V30 7603 H 718.951 0.135031 -4.00773 0
M  V30 7604 H 715.541 -1.29654 -4.08519 0
M  V30 7605 H 719.725 -2.20918 -4.4442 0
M  V30 7606 H 714.981 -3.50412 -5.01021 0
M  V30 7607 H 719.155 -4.41844 -5.38282 0
M  V30 7608 H 716.782 -5.07136 -5.66319 0
M  V30 7609 N 718.357 1.51182 -0.445186 0
M  V30 7610 C 719.606 2.01342 0.120189 0
M  V30 7611 C 719.919 1.33353 1.43095 0
M  V30 7612 O 721.125 1.74525 2.07974 0
M  V30 7613 C 719.581 3.58925 0.264732 0
M  V30 7614 C 719.189 4.35855 -1.03606 0
M  V30 7615 C 720.933 4.17208 0.783455 0
M  V30 7616 C 718.84 5.85162 -0.856731 0
M  V30 7617 H 717.77 0.752426 0.0486922 0
M  V30 7618 H 720.421 1.74221 -0.576143 0
M  V30 7619 H 718.803 3.82525 1.02425 0
M  V30 7620 H 719.977 4.23997 -1.80452 0
M  V30 7621 H 718.292 3.89062 -1.48391 0
M  V30 7622 H 720.889 5.26475 0.934239 0
M  V30 7623 H 721.232 3.76892 1.768 0
M  V30 7624 H 721.765 3.97715 0.0820346 0
M  V30 7625 H 718.504 6.29904 -1.81388 0
M  V30 7626 H 718.024 5.99663 -0.128206 0
M  V30 7627 H 719.703 6.44963 -0.513027 0
M  V30 7628 N 719.835 0.176821 1.56605 0
M  V30 7629 C 721.083 -0.465793 1.96659 0
M  V30 7630 C 721.404 -1.63406 1.06412 0
M  V30 7631 O 720.674 -1.95457 0.131603 0
M  V30 7632 H 719.254 -0.175072 0.726195 0
M  V30 7633 H 721.916 0.25929 1.93168 0
M  V30 7634 H 721.012 -0.822138 3.01077 0
M  V30 7635 N 721.313 -1.57302 -0.09688 0
M  V30 7636 C 722.559 -1.86273 -0.801885 0
M  V30 7637 C 722.892 -0.765694 -1.78468 0
M  V30 7638 O 722.167 0.226495 -1.93177 0
M  V30 7639 C 722.45 -3.25876 -1.53221 0
M  V30 7640 C 722.303 -4.46205 -0.567529 0
M  V30 7641 C 723.622 -3.63352 -2.48321 0
M  V30 7642 H 720.741 -0.67752 -0.29006 0
M  V30 7643 H 723.383 -1.89887 -0.0655577 0
M  V30 7644 H 721.533 -3.22926 -2.15988 0
M  V30 7645 H 723.205 -4.6127 0.0529982 0
M  V30 7646 H 721.448 -4.33636 0.119233 0
M  V30 7647 H 722.119 -5.40608 -1.11564 0
M  V30 7648 H 724.595 -3.67234 -1.95648 0
M  V30 7649 H 723.471 -4.61968 -2.9644 0
M  V30 7650 H 723.732 -2.91941 -3.31998 0
M  V30 7651 N 722.791 0.367657 -1.53252 0
M  V30 7652 C 724.04 1.10782 -1.68554 0
M  V30 7653 C 724.353 1.90523 -0.442765 0
M  V30 7654 O 725.559 2.6729 -0.47629 0
M  V30 7655 C 724.015 2.01863 -2.97959 0
M  V30 7656 C 723.623 1.27443 -4.29491 0
M  V30 7657 C 725.367 2.75883 -3.22628 0
M  V30 7658 C 723.274 2.17414 -5.49987 0
M  V30 7659 H 722.204 0.417272 -0.628013 0
M  V30 7660 H 724.855 0.368971 -1.79752 0
M  V30 7661 H 723.237 2.7947 -2.80558 0
M  V30 7662 H 724.411 0.549138 -4.57516 0
M  V30 7663 H 722.726 0.652935 -4.11249 0
M  V30 7664 H 725.323 3.43421 -4.09837 0
M  V30 7665 H 725.666 3.41138 -2.38601 0
M  V30 7666 H 726.199 2.0536 -3.40693 0
M  V30 7667 H 722.938 1.5674 -6.36485 0
M  V30 7668 H 722.458 2.87799 -5.26243 0
M  V30 7669 H 724.137 2.77019 -5.84696 0
M  V30 7670 N 724.269 1.44576 0.627338 0
M  V30 7671 C 725.199 1.54562 1.75022 0
M  V30 7672 C 726.18 0.398378 1.65369 0
M  V30 7673 O 727.365 0.61899 1.84071 0
M  V30 7674 C 724.495 1.49309 3.13567 0
M  V30 7675 C 723.449 2.62549 3.38012 0
M  V30 7676 C 722.775 2.42348 4.76625 0
M  V30 7677 C 724.075 4.04678 3.30202 0
M  V30 7678 H 725.769 2.4855 1.66922 0
M  V30 7679 H 723.315 1.19624 0.801636 0
M  V30 7680 H 725.268 1.54895 3.919 0
M  V30 7681 H 723.992 0.518392 3.2246 0
M  V30 7682 H 722.651 2.56358 2.62061 0
M  V30 7683 H 722.299 1.43062 4.82226 0
M  V30 7684 H 721.999 3.18273 4.93939 0
M  V30 7685 H 723.523 2.49758 5.57183 0
M  V30 7686 H 724.937 4.12217 3.98435 0
M  V30 7687 H 723.334 4.80836 3.5905 0
M  V30 7688 H 724.404 4.2798 2.27949 0
M  V30 7689 N 725.747 -0.868086 1.31537 0
M  V30 7690 C 726.994 -1.62127 1.2133 0
M  V30 7691 C 727.322 -1.93158 -0.2281 0
M  V30 7692 O 726.577 -1.5632 -1.1774 0
M  V30 7693 C 726.876 -2.95889 2.0046 0
M  V30 7694 C 726.542 -2.84343 3.49943 0
M  V30 7695 C 725.204 -2.80901 3.90702 0
M  V30 7696 C 727.556 -2.71243 4.45058 0
M  V30 7697 C 724.884 -2.6222 5.24841 0
M  V30 7698 C 727.236 -2.54098 5.79325 0
M  V30 7699 C 725.9 -2.4904 6.19302 0
M  V30 7700 H 725.17 -0.593265 0.443979 0
M  V30 7701 H 727.817 -1.00803 1.62822 0
M  V30 7702 H 726.122 -3.61259 1.51655 0
M  V30 7703 H 727.819 -3.53161 1.89942 0
M  V30 7704 H 724.409 -2.8784 3.17563 0
M  V30 7705 H 728.593 -2.72956 4.14498 0
M  V30 7706 H 723.849 -2.56731 5.54887 0
M  V30 7707 H 728.023 -2.42938 6.52652 0
M  V30 7708 H 725.65 -2.34324 7.23185 0
M  V30 7709 N 727.225 -1.14528 -1.08264 0
M  V30 7710 C 728.45 -0.938381 -1.84957 0
M  V30 7711 C 728.875 0.508044 -1.81109 0
M  V30 7712 O 728.233 1.36146 -1.19724 0
M  V30 7713 C 728.281 -1.44568 -3.30352 0
M  V30 7714 O 727.385 -0.638745 -4.07423 0
M  V30 7715 H 726.726 -0.335394 -0.573068 0
M  V30 7716 H 729.256 -1.52287 -1.36637 0
M  V30 7717 H 729.266 -1.45449 -3.81194 0
M  V30 7718 H 727.941 -2.49876 -3.32468 0
M  V30 7719 H 726.518 -0.698801 -3.66294 0
M  V30 7720 N 728.703 1.26451 -0.940633 0
M  V30 7721 C 729.928 1.98407 -0.60412 0
M  V30 7722 C 730.353 1.69584 0.81382 0
M  V30 7723 O 729.711 0.943553 1.54812 0
M  V30 7724 C 729.759 3.50387 -0.852136 0
M  V30 7725 O 728.863 4.1233 0.076013 0
M  V30 7726 H 728.204 0.622466 -0.231153 0
M  V30 7727 H 730.734 1.60932 -1.26342 0
M  V30 7728 H 730.744 4.00614 -0.772816 0
M  V30 7729 H 729.419 3.70696 -1.88566 0
M  V30 7730 H 727.996 3.7286 -0.0543187 0
M  V30 7731 N 730.181 0.707592 1.40822 0
M  V30 7732 C 731.144 0.0587224 2.29125 0
M  V30 7733 C 732.144 -0.695624 1.44975 0
M  V30 7734 O 733.334 -0.528718 1.65983 0
M  V30 7735 C 730.466 -0.926939 3.28056 0
M  V30 7736 H 731.659 0.836349 2.88002 0
M  V30 7737 H 729.212 0.471778 1.4901 0
M  V30 7738 H 729.947 -1.7319 2.74182 0
M  V30 7739 H 729.732 -0.389015 3.90165 0
M  V30 7740 H 731.222 -1.37837 3.94196 0
M  V30 7741 N 731.66 -1.50943 0.453197 0
M  V30 7742 C 732.906 -2.02512 -0.108082 0
M  V30 7743 C 733.239 -1.33574 -1.40967 0
M  V30 7744 O 732.514 -0.455671 -1.89087 0
M  V30 7745 C 732.797 -3.58759 -0.310453 0
M  V30 7746 C 732.65 -4.38293 1.0109 0
M  V30 7747 C 733.969 -4.26816 -1.07313 0
M  V30 7748 H 731.088 -0.73603 -0.0378064 0
M  V30 7749 H 733.73 -1.80433 0.595295 0
M  V30 7750 H 731.88 -3.77702 -0.909582 0
M  V30 7751 H 733.552 -4.30964 1.64523 0
M  V30 7752 H 731.795 -4.02745 1.61179 0
M  V30 7753 H 732.466 -5.45828 0.82315 0
M  V30 7754 H 734.942 -4.1224 -0.565473 0
M  V30 7755 H 733.818 -5.35989 -1.1835 0
M  V30 7756 H 734.079 -3.88757 -2.10525 0
M  V30 7757 N 733.138 -0.185124 -1.56509 0
M  V30 7758 C 734.368 0.461469 -2.0138 0
M  V30 7759 C 734.776 1.56417 -1.06445 0
M  V30 7760 O 734.119 1.83603 -0.0597515 0
M  V30 7761 C 734.181 1.08731 -3.42663 0
M  V30 7762 C 733.845 0.124581 -4.5683 0
M  V30 7763 C 734.842 -0.662295 -5.15664 0
M  V30 7764 C 732.527 0.0163947 -5.02297 0
M  V30 7765 C 734.521 -1.54442 -6.18406 0
M  V30 7766 C 732.208 -0.869301 -6.04885 0
M  V30 7767 C 733.206 -1.64828 -6.62813 0
M  V30 7768 O 732.894 -2.51915 -7.63409 0
M  V30 7769 H 732.626 0.1212 -0.665046 0
M  V30 7770 H 735.18 -0.288119 -2.03369 0
M  V30 7771 H 733.41 1.8853 -3.37629 0
M  V30 7772 H 735.099 1.63753 -3.71403 0
M  V30 7773 H 735.865 -0.588963 -4.81411 0
M  V30 7774 H 731.744 0.61253 -4.56913 0
M  V30 7775 H 735.288 -2.15289 -6.63548 0
M  V30 7776 H 731.185 -0.943786 -6.38563 0
M  V30 7777 H 731.953 -2.45584 -7.80789 0
M  V30 7778 N 734.616 1.57351 0.0885366 0
M  V30 7779 C 735.863 1.86419 0.790824 0
M  V30 7780 C 736.191 0.774561 1.78412 0
M  V30 7781 O 735.446 -0.23119 1.9433 0
M  V30 7782 C 735.745 3.22098 1.5488 0
M  V30 7783 C 735.411 4.4548 0.697025 0
M  V30 7784 C 734.073 4.78975 0.462237 0
M  V30 7785 C 736.425 5.21094 0.105315 0
M  V30 7786 C 733.753 5.85507 -0.374016 0
M  V30 7787 C 736.105 6.28509 -0.718298 0
M  V30 7788 C 734.769 6.60515 -0.963116 0
M  V30 7789 H 734.039 0.682157 0.289383 0
M  V30 7790 H 736.686 1.91429 0.0520961 0
M  V30 7791 H 734.991 3.12803 2.35927 0
M  V30 7792 H 736.688 3.41819 2.09669 0
M  V30 7793 H 733.278 4.19255 0.890137 0
M  V30 7794 H 737.462 4.95544 0.273856 0
M  V30 7795 H 732.718 6.08713 -0.572606 0
M  V30 7796 H 736.892 6.86268 -1.18362 0
M  V30 7797 H 734.519 7.42893 -1.6129 0
M  V30 7798 N 736.094 -0.359525 1.53444 0
M  V30 7799 C 737.057 -1.42357 1.7963 0
M  V30 7800 C 738.057 -1.46319 0.666884 0
M  V30 7801 O 739.247 -1.46974 0.935113 0
M  V30 7802 C 736.379 -2.81425 1.92387 0
M  V30 7803 H 737.572 -1.20409 2.74666 0
M  V30 7804 H 735.125 -0.593007 1.44614 0
M  V30 7805 H 735.86 -3.08679 0.994384 0
M  V30 7806 H 735.645 -2.79947 2.74539 0
M  V30 7807 H 737.135 -3.5847 2.14218 0
M  V30 7808 N 737.572 -1.44907 -0.619662 0
M  V30 7809 C 738.482 -1.55168 -1.75955 0
M  V30 7810 C 739.498 -0.43672 -1.6843 0
M  V30 7811 O 740.674 -0.695704 -1.89002 0
M  V30 7812 C 737.739 -1.50397 -3.12381 0
M  V30 7813 C 736.8 -2.72835 -3.31451 0
M  V30 7814 C 736.033 -2.68283 -4.61368 0
M  V30 7815 O 736.256 -1.74929 -5.42914 0
M  V30 7816 O 735.19 -3.59308 -4.82889 0
M  V30 7817 H 739.016 -2.51493 -1.7025 0
M  V30 7818 H 736.601 -1.27282 -0.782289 0
M  V30 7819 H 738.483 -1.50301 -3.93685 0
M  V30 7820 H 737.158 -0.572197 -3.18603 0
M  V30 7821 H 736.065 -2.78496 -2.49781 0
M  V30 7822 H 737.398 -3.65098 -3.30098 0
M  V30 7823 N 739.05 0.861098 -1.31996 0
M  V30 7824 C 740.013 1.95068 -1.20338 0
M  V30 7825 C 741.013 1.60289 -0.128114 0
M  V30 7826 O 742.203 1.70048 -0.378044 0
M  V30 7827 C 739.335 3.30153 -0.849205 0
M  V30 7828 H 740.528 2.06833 -2.17164 0
M  V30 7829 H 738.081 1.05049 -1.15734 0
M  V30 7830 H 738.816 3.24087 0.117508 0
M  V30 7831 H 738.601 3.56771 -1.62655 0
M  V30 7832 H 740.091 4.10025 -0.791782 0
M  V30 7833 N 740.528 1.15101 1.07655 0
M  V30 7834 C 741.805 0.834578 1.76902 0
M  V30 7835 C 742.185 -0.670431 2.00171 0
M  V30 7836 O 741.533 -1.61378 1.6177 0
M  V30 7837 C 741.743 1.64191 3.07965 0
M  V30 7838 C 743.091 1.84615 3.82364 0
M  V30 7839 O 744.115 1.60941 3.17768 0
M  V30 7840 O 742.974 2.24244 4.98374 0
M  V30 7841 H 740.068 0.306608 0.768063 0
M  V30 7842 H 742.614 1.25663 1.14048 0
M  V30 7843 H 741.386 2.66386 2.86626 0
M  V30 7844 H 741.009 1.216 3.78549 0
M  V30 7845 N 742.006 -1.2595 0.947325 0
M  V30 7846 C 742.916 -2.29883 0.468079 0
M  V30 7847 C 743.932 -1.67783 -0.460975 0
M  V30 7848 O 745.108 -1.98526 -0.339006 0
M  V30 7849 C 742.173 -3.45773 -0.253315 0
M  V30 7850 C 741.234 -4.23337 0.713054 0
M  V30 7851 C 740.467 -5.33694 0.025993 0
M  V30 7852 O 740.69 -5.57853 -1.18978 0
M  V30 7853 O 739.624 -5.97724 0.70782 0
M  V30 7854 H 743.45 -2.72952 1.33156 0
M  V30 7855 H 741.035 -1.31263 0.713468 0
M  V30 7856 H 742.917 -4.16209 -0.659423 0
M  V30 7857 H 741.592 -3.04721 -1.09209 0
M  V30 7858 H 740.499 -3.55359 1.16923 0
M  V30 7859 H 741.832 -4.68154 1.51963 0
M  V30 7860 N 743.484 -0.715051 -1.40445 0
M  V30 7861 C 744.895 -0.326763 -1.83818 0
M  V30 7862 C 745.246 1.13851 -1.59789 0
M  V30 7863 O 744.371 1.87611 -1.07848 0
M  V30 7864 C 744.966 -0.586297 -3.33688 0
M  V30 7865 C 743.525 -0.251724 -3.75557 0
M  V30 7866 C 742.672 -0.858928 -2.63662 0
M  V30 7867 H 745.623 -0.914241 -1.2972 0
M  V30 7868 H 745.644 0.148636 -3.8021 0
M  V30 7869 H 745.156 -1.65281 -3.51146 0
M  V30 7870 H 743.257 0.809754 -3.63695 0
M  V30 7871 H 743.37 -0.720348 -4.73654 0
M  V30 7872 H 741.734 -0.287013 -2.53078 0
M  V30 7873 H 742.517 -1.9297 -2.83932 0
M  V30 7874 N 744.962 1.50701 -0.461195 0
M  V30 7875 C 746.19 2.06681 0.0951756 0
M  V30 7876 C 746.605 1.32615 1.34382 0
M  V30 7877 O 745.962 0.392531 1.78229 0
M  V30 7878 C 746.013 3.59354 0.393316 0
M  V30 7879 O 745.734 4.30626 -0.805797 0
M  V30 7880 C 747.235 4.31926 0.997744 0
M  V30 7881 H 744.455 0.670995 -0.00267259 0
M  V30 7882 H 746.999 1.93991 -0.647137 0
M  V30 7883 H 745.154 3.7188 1.08555 0
M  V30 7884 H 745.568 5.21667 -0.544409 0
M  V30 7885 H 747.042 5.39756 1.15619 0
M  V30 7886 H 747.519 3.91772 1.98523 0
M  V30 7887 H 748.125 4.23905 0.344188 0
M  V30 7888 N 746.441 0.193421 1.56409 0
M  V30 7889 C 747.669 -0.451438 2.01915 0
M  V30 7890 C 748.084 -1.55306 1.07357 0
M  V30 7891 O 747.441 -1.82333 0.0781512 0
M  V30 7892 C 747.492 -1.00931 3.47124 0
M  V30 7893 O 747.213 0.0483623 4.38073 0
M  V30 7894 C 748.714 -1.73021 4.0814 0
M  V30 7895 H 745.934 -0.113495 0.661332 0
M  V30 7896 H 748.478 0.301636 2.02263 0
M  V30 7897 H 746.633 -1.71277 3.47481 0
M  V30 7898 H 747.047 -0.366644 5.23217 0
M  V30 7899 H 748.521 -2.07289 5.11601 0
M  V30 7900 H 748.998 -2.6333 3.51502 0
M  V30 7901 H 749.604 -1.07264 4.11551 0
M  V30 7902 N 747.919 -1.57396 -0.0801906 0
M  V30 7903 C 748.869 -1.9955 -1.10289 0
M  V30 7904 C 749.853 -0.876234 -1.34948 0
M  V30 7905 O 751.045 -1.14012 -1.35389 0
M  V30 7906 C 748.174 -2.43596 -2.419 0
M  V30 7907 C 747.26 -3.6224 -2.20551 0
M  V30 7908 N 747.651 -4.76693 -1.69109 0
M  V30 7909 C 745.949 -3.68627 -2.51059 0
M  V30 7910 C 746.65 -5.58577 -1.62379 0
M  V30 7911 N 745.626 -5.02178 -2.0813 0
M  V30 7912 H 749.428 -2.85483 -0.698335 0
M  V30 7913 H 746.942 -1.59837 -0.287395 0
M  V30 7914 H 748.939 -2.72031 -3.15919 0
M  V30 7915 H 747.599 -1.59047 -2.8308 0
M  V30 7916 H 748.61 -4.9915 -1.38092 0
M  V30 7917 H 745.287 -2.94772 -2.95661 0
M  V30 7918 H 746.677 -6.60447 -1.2353 0
M  V30 7919 N 749.397 0.351382 -1.53633 0
M  V30 7920 C 750.644 1.0925 -1.70502 0
M  V30 7921 C 750.972 1.88881 -0.464123 0
M  V30 7922 O 750.227 1.87693 0.554077 0
M  V30 7923 C 750.526 2.06744 -2.91533 0
M  V30 7924 C 750.192 1.43484 -4.27461 0
M  V30 7925 C 748.854 1.2596 -4.64422 0
M  V30 7926 C 751.206 0.978436 -5.11934 0
M  V30 7927 C 748.534 0.614017 -5.83478 0
M  V30 7928 C 750.886 0.346795 -6.31649 0
M  V30 7929 C 749.55 0.15917 -6.6731 0
M  V30 7930 H 748.82 0.399773 -0.623909 0
M  V30 7931 H 751.467 0.372656 -1.87839 0
M  V30 7932 H 749.772 2.85082 -2.68767 0
M  V30 7933 H 751.469 2.64066 -3.01778 0
M  V30 7934 H 748.059 1.5812 -3.98367 0
M  V30 7935 H 752.243 1.1017 -4.83918 0
M  V30 7936 H 747.499 0.457194 -6.09688 0
M  V30 7937 H 751.673 -0.0149864 -6.96398 0
M  V30 7938 H 749.3 -0.343129 -7.59425 0
M  V30 7939 N 750.875 1.45233 0.611969 0
M  V30 7940 C 751.807 1.49575 1.73666 0
M  V30 7941 C 752.82 0.386987 1.58134 0
M  V30 7942 O 754.009 0.653804 1.66095 0
M  V30 7943 C 751.109 1.33223 3.11617 0
M  V30 7944 C 750.282 2.57694 3.5343 0
M  V30 7945 C 749.341 2.35962 4.70328 0
M  V30 7946 O 748.367 3.09553 4.77667 0
M  V30 7947 N 749.569 1.40243 5.63305 0
M  V30 7948 H 752.334 2.46539 1.70407 0
M  V30 7949 H 749.895 1.40917 0.79712 0
M  V30 7950 H 751.887 1.16502 3.87569 0
M  V30 7951 H 750.457 0.44551 3.09409 0
M  V30 7952 H 749.677 2.8956 2.67486 0
M  V30 7953 H 750.965 3.40441 3.78124 0
M  V30 7954 H 750.363 0.795023 5.60086 0
M  V30 7955 H 748.92 1.29496 6.38807 0
M  V30 7956 N 752.353 -0.854086 1.3245 0
M  V30 7957 C 753.578 -1.64597 1.26185 0
M  V30 7958 C 754.003 -1.87357 -0.167074 0
M  V30 7959 O 753.361 -1.42675 -1.11864 0
M  V30 7960 C 753.409 -2.98213 2.02734 0
M  V30 7961 O 752.513 -3.88784 1.37554 0
M  V30 7962 H 751.854 -0.50179 0.434859 0
M  V30 7963 H 754.384 -1.06372 1.74775 0
M  V30 7964 H 754.394 -3.4803 2.1293 0
M  V30 7965 H 753.069 -2.80969 3.06642 0
M  V30 7966 H 751.646 -3.4725 1.3591 0
M  V30 7967 N 753.831 -1.1567 -1.07043 0
M  V30 7968 C 755.08 -0.928039 -1.79082 0
M  V30 7969 C 755.393 0.545968 -1.87826 0
M  V30 7970 O 756.599 0.892308 -2.56418 0
M  V30 7971 C 755.055 -1.61103 -3.21829 0
M  V30 7972 C 754.663 -3.12228 -3.21275 0
M  V30 7973 C 756.407 -1.46404 -3.98455 0
M  V30 7974 C 754.314 -3.733 -4.58695 0
M  V30 7975 H 753.244 -0.34357 -0.671175 0
M  V30 7976 H 755.895 -1.38718 -1.20123 0
M  V30 7977 H 754.277 -1.07958 -3.81 0
M  V30 7978 H 755.451 -3.72155 -2.71731 0
M  V30 7979 H 753.766 -3.26725 -2.58147 0
M  V30 7980 H 756.363 -1.8942 -5.00024 0
M  V30 7981 H 756.706 -0.41195 -4.14257 0
M  V30 7982 H 757.239 -1.96663 -3.45787 0
M  V30 7983 H 753.978 -4.78423 -4.48098 0
M  V30 7984 H 753.498 -3.18157 -5.08465 0
M  V30 7985 H 755.177 -3.7441 -5.27661 0
M  V30 7986 N 755.309 1.25446 -0.953992 0
M  V30 7987 C 756.72 1.75047 -0.649255 0
M  V30 7988 C 757.071 1.77527 0.835385 0
M  V30 7989 O 756.196 1.39569 1.65377 0
M  V30 7990 C 756.791 3.17889 -1.17183 0
M  V30 7991 C 755.35 3.65052 -0.917267 0
M  V30 7992 C 754.497 2.44124 -1.31525 0
M  V30 7993 H 757.448 1.11342 -1.13087 0
M  V30 7994 H 757.469 3.76768 -0.531616 0
M  V30 7995 H 756.981 3.16052 -2.25239 0
M  V30 7996 H 755.082 3.72305 0.148354 0
M  V30 7997 H 755.195 4.53222 -1.55328 0
M  V30 7998 H 753.559 2.43906 -0.733624 0
M  V30 7999 H 754.342 2.44979 -2.405 0
M  V30 8000 N 756.787 0.722489 1.40064 0
M  V30 8001 C 758.064 0.191829 1.94657 0
M  V30 8002 C 758.444 -1.30389 1.66018 0
M  V30 8003 O 757.792 -2.06342 0.981588 0
M  V30 8004 C 758.002 0.511978 3.45224 0
M  V30 8005 C 759.35 0.454426 4.22161 0
M  V30 8006 O 760.374 0.448438 3.53366 0
M  V30 8007 O 759.233 0.437986 5.44742 0
M  V30 8008 H 756.327 0.0307821 0.826427 0
M  V30 8009 H 758.873 0.800493 1.49634 0
M  V30 8010 H 757.645 1.54622 3.59455 0
M  V30 8011 H 757.268 -0.126296 3.97399 0
M  V30 8012 N 758.265 -1.50454 0.469181 0
M  V30 8013 C 759.228 -2.2703 -0.314643 0
M  V30 8014 C 760.228 -1.31734 -0.922111 0
M  V30 8015 O 761.418 -1.55176 -0.791588 0
M  V30 8016 C 758.55 -3.08616 -1.44806 0
M  V30 8017 H 759.743 -2.97769 0.356892 0
M  V30 8018 H 757.296 -1.54698 0.223191 0
M  V30 8019 H 758.031 -2.42369 -2.1547 0
M  V30 8020 H 757.816 -3.78647 -1.01829 0
M  V30 8021 H 759.306 -3.66536 -2.00103 0
M  V30 8022 N 759.743 -0.201713 -1.56304 0
M  V30 8023 C 760.99 0.435307 -1.97766 0
M  V30 8024 C 761.318 1.61169 -1.0888 0
M  V30 8025 O 760.573 1.95272 -0.12934 0
M  V30 8026 C 760.872 0.931432 -3.45049 0
M  V30 8027 C 760.538 -0.132287 -4.50706 0
M  V30 8028 C 759.2 -0.424552 -4.79323 0
M  V30 8029 C 761.552 -0.852703 -5.14177 0
M  V30 8030 C 758.88 -1.4421 -5.68701 0
M  V30 8031 C 761.232 -1.85944 -6.04655 0
M  V30 8032 C 759.896 -2.15884 -6.31625 0
M  V30 8033 H 759.166 0.15929 -0.723676 0
M  V30 8034 H 761.813 -0.300069 -1.89134 0
M  V30 8035 H 760.118 1.7452 -3.50785 0
M  V30 8036 H 761.815 1.43383 -3.74489 0
M  V30 8037 H 758.405 0.105671 -4.2847 0
M  V30 8038 H 762.589 -0.640139 -4.92154 0
M  V30 8039 H 757.845 -1.6799 -5.87869 0
M  V30 8040 H 762.019 -2.42286 -6.52894 0
M  V30 8041 H 759.646 -2.94875 -7.0068 0
M  V30 8042 N 761.222 1.57436 0.0718424 0
M  V30 8043 C 762.468 1.88388 0.766904 0
M  V30 8044 C 762.823 0.7954 1.75189 0
M  V30 8045 O 762.116 -0.200438 1.90549 0
M  V30 8046 C 762.31 3.23723 1.51455 0
M  V30 8047 C 762.139 4.45632 0.603475 0
M  V30 8048 C 760.909 5.04728 0.240437 0
M  V30 8049 C 763.107 5.14203 -0.0997624 0
M  V30 8050 N 761.089 6.10163 -0.676363 0
M  V30 8051 C 762.46 6.13812 -0.873755 0
M  V30 8052 C 764.515 4.97605 -0.171238 0
M  V30 8053 C 763.218 6.98615 -1.71258 0
M  V30 8054 C 765.244 5.82935 -0.997041 0
M  V30 8055 C 764.606 6.82082 -1.75908 0
M  V30 8056 H 760.705 0.738888 0.256064 0
M  V30 8057 H 763.289 1.94679 0.0284273 0
M  V30 8058 H 761.46 3.1844 2.22375 0
M  V30 8059 H 763.192 3.42324 2.15862 0
M  V30 8060 H 759.947 4.69869 0.593284 0
M  V30 8061 H 760.371 6.67537 -1.12801 0
M  V30 8062 H 765.013 4.20869 0.403586 0
M  V30 8063 H 762.731 7.74726 -2.29838 0
M  V30 8064 H 766.317 5.72149 -1.05532 0
M  V30 8065 H 765.197 7.46964 -2.38778 0
M  V30 8066 N 762.7 -0.34323 1.53817 0
M  V30 8067 C 763.946 -1.08137 1.72273 0
M  V30 8068 C 764.301 -1.86311 0.480201 0
M  V30 8069 O 763.594 -1.84204 -0.527192 0
M  V30 8070 C 763.788 -2.05195 2.92626 0
M  V30 8071 C 763.617 -1.36561 4.28464 0
M  V30 8072 C 762.387 -1.11033 4.9295 0
M  V30 8073 C 764.585 -0.791663 5.0817 0
M  V30 8074 N 762.567 -0.389839 6.12661 0
M  V30 8075 C 763.938 -0.201742 6.19672 0
M  V30 8076 C 765.993 -0.692541 4.9306 0
M  V30 8077 C 764.696 0.477661 7.17712 0
M  V30 8078 C 766.722 -0.0268775 5.91394 0
M  V30 8079 C 766.084 0.552072 7.02233 0
M  V30 8080 H 762.183 -0.380078 0.683421 0
M  V30 8081 H 764.767 -0.364925 1.9125 0
M  V30 8082 H 762.938 -2.74131 2.75149 0
M  V30 8083 H 764.67 -2.7185 2.99799 0
M  V30 8084 H 761.425 -1.39752 4.52511 0
M  V30 8085 H 761.849 -0.0443076 6.76986 0
M  V30 8086 H 766.491 -1.12589 4.07534 0
M  V30 8087 H 764.209 0.922895 8.02813 0
M  V30 8088 H 767.795 0.0491921 5.81779 0
M  V30 8089 H 766.675 1.05899 7.77017 0
M  V30 8090 N 764.178 -1.45556 -0.604258 0
M  V30 8091 C 765.141 -1.54091 -1.69672 0
M  V30 8092 C 766.141 -0.420076 -1.55216 0
M  V30 8093 O 767.331 -0.683671 -1.60224 0
M  V30 8094 C 764.463 -1.44063 -3.08964 0
M  V30 8095 H 765.656 -2.51431 -1.6347 0
M  V30 8096 H 763.209 -1.33046 -0.820273 0
M  V30 8097 H 763.944 -0.479201 -3.2074 0
M  V30 8098 H 763.729 -2.25362 -3.20865 0
M  V30 8099 H 765.219 -1.53075 -3.88533 0
M  V30 8100 N 765.656 0.84705 -1.32902 0
M  V30 8101 C 766.902 1.60414 -1.24078 0
M  V30 8102 C 767.235 1.93217 0.195105 0
M  V30 8103 O 766.51 1.58001 1.13428 0
M  V30 8104 C 766.793 2.91951 -2.108 0
M  V30 8105 C 766.646 2.6588 -3.62805 0
M  V30 8106 C 767.965 3.93299 -1.97494 0
M  V30 8107 H 765.084 0.58206 -0.452079 0
M  V30 8108 H 767.726 0.977562 -1.62922 0
M  V30 8109 H 765.876 3.45425 -1.77802 0
M  V30 8110 H 767.548 2.18902 -4.06054 0
M  V30 8111 H 765.791 1.99716 -3.85092 0
M  V30 8112 H 766.462 3.59574 -4.1882 0
M  V30 8113 H 768.938 3.49105 -2.26417 0
M  V30 8114 H 767.814 4.8318 -2.60438 0
M  V30 8115 H 768.075 4.31887 -0.944782 0
M  V30 8116 N 767.134 1.16236 1.06428 0
M  V30 8117 C 768.38 0.944431 1.79467 0
M  V30 8118 C 768.713 -0.526558 1.86925 0
M  V30 8119 O 767.988 -1.39061 1.35986 0
M  V30 8120 C 768.271 1.57092 3.24028 0
M  V30 8121 C 768.124 3.11315 3.24658 0
M  V30 8122 C 769.443 1.26447 4.21544 0
M  V30 8123 H 766.562 0.344521 0.651517 0
M  V30 8124 H 769.204 1.43545 1.24478 0
M  V30 8125 H 767.354 1.15337 3.70985 0
M  V30 8126 H 769.026 3.62042 2.85873 0
M  V30 8127 H 767.269 3.44716 2.6335 0
M  V30 8128 H 767.94 3.50269 4.26633 0
M  V30 8129 H 770.416 1.62581 3.83023 0
M  V30 8130 H 769.292 1.72885 5.20963 0
M  V30 8131 H 769.553 0.183068 4.41721 0
M  V30 8132 N 768.612 -1.24939 0.960631 0
M  V30 8133 C 769.84 -1.96881 0.636045 0
M  V30 8134 C 770.255 -1.71334 -0.793093 0
M  V30 8135 O 769.612 -0.992917 -1.53125 0
M  V30 8136 C 769.663 -3.50309 0.892533 0
M  V30 8137 O 769.384 -3.74977 2.26548 0
M  V30 8138 C 770.885 -4.39474 0.581159 0
M  V30 8139 H 768.105 -0.627399 0.237931 0
M  V30 8140 H 770.649 -1.58952 1.28664 0
M  V30 8141 H 768.804 -3.86326 0.288257 0
M  V30 8142 H 769.218 -4.69401 2.34014 0
M  V30 8143 H 770.692 -5.46008 0.811125 0
M  V30 8144 H 771.169 -4.3652 -0.48443 0
M  V30 8145 H 771.775 -4.09032 1.16502 0
M  V30 8146 N 770.09 -0.729906 -1.39679 0
M  V30 8147 C 771.023 -0.0354454 -2.28172 0
M  V30 8148 C 772.001 0.752968 -1.44115 0
M  V30 8149 O 773.185 0.736599 -1.73512 0
M  V30 8150 C 770.312 0.957047 -3.24897 0
M  V30 8151 C 769.358 0.257734 -4.25721 0
M  V30 8152 S 770.191 -1.02466 -5.25605 0
M  V30 8153 C 771.347 -0.0346322 -6.2589 0
M  V30 8154 H 771.58 -0.785922 -2.86724 0
M  V30 8155 H 769.113 -0.521497 -1.45326 0
M  V30 8156 H 771.071 1.52441 -3.81146 0
M  V30 8157 H 769.732 1.68033 -2.65375 0
M  V30 8158 H 768.925 1.00854 -4.93806 0
M  V30 8159 H 768.527 -0.237454 -3.73245 0
M  V30 8160 H 770.819 0.807464 -6.72671 0
M  V30 8161 H 771.762 -0.682491 -7.04803 0
M  V30 8162 H 772.17 0.335492 -5.63502 0
M  V30 8163 N 771.568 1.50203 -0.477153 0
M  V30 8164 C 772.796 2.0677 0.0732489 0
M  V30 8165 C 773.211 1.34033 1.32968 0
M  V30 8166 O 772.568 0.411412 1.77802 0
M  V30 8167 C 772.619 3.59751 0.35518 0
M  V30 8168 O 772.34 4.29747 -0.851425 0
M  V30 8169 C 773.841 4.3296 0.951877 0
M  V30 8170 H 771.061 0.670929 -0.00978923 0
M  V30 8171 H 773.605 1.93293 -0.667676 0
M  V30 8172 H 771.76 3.7301 1.04605 0
M  V30 8173 H 772.174 5.2106 -0.599708 0
M  V30 8174 H 773.648 5.40952 1.09888 0
M  V30 8175 H 774.125 3.93856 1.94356 0
M  V30 8176 H 774.731 4.24246 0.299208 0
M  V30 8177 N 773.046 0.209999 1.56195 0
M  V30 8178 C 774.274 -0.429996 2.02382 0
M  V30 8179 C 774.689 -1.54159 1.08998 0
M  V30 8180 O 774.046 -1.82239 0.0974856 0
M  V30 8181 C 774.097 -0.972433 3.48175 0
M  V30 8182 O 773.818 0.0948231 4.37997 0
M  V30 8183 C 775.319 -1.68683 4.09952 0
M  V30 8184 H 772.539 -0.106475 0.662498 0
M  V30 8185 H 775.083 0.323072 2.01932 0
M  V30 8186 H 773.238 -1.67582 3.49278 0
M  V30 8187 H 773.652 -0.31113 5.23576 0
M  V30 8188 H 775.126 -2.01851 5.13771 0
M  V30 8189 H 775.603 -2.59587 3.54276 0
M  V30 8190 H 776.209 -1.02893 4.12666 0
M  V30 8191 N 774.524 -1.57472 -0.0634922 0
M  V30 8192 C 775.77 -1.87932 -0.762194 0
M  V30 8193 C 776.103 -0.803377 -1.76804 0
M  V30 8194 O 775.378 0.185468 -1.93614 0
M  V30 8195 C 775.661 -3.29053 -1.46275 0
M  V30 8196 C 775.514 -4.47309 -0.472755 0
M  V30 8197 C 776.833 -3.68537 -2.40558 0
M  V30 8198 H 773.952 -0.683521 -0.275624 0
M  V30 8199 H 776.594 -1.89983 -0.0252651 0
M  V30 8200 H 774.744 -3.27435 -2.0909 0
M  V30 8201 H 776.416 -4.61053 0.150828 0
M  V30 8202 H 774.659 -4.33286 0.211187 0
M  V30 8203 H 775.33 -5.42853 -1.00072 0
M  V30 8204 H 777.806 -3.71302 -1.87814 0
M  V30 8205 H 776.682 -4.68152 -2.86574 0
M  V30 8206 H 776.943 -2.98917 -3.25731 0
M  V30 8207 N 776.003 0.335068 -1.53997 0
M  V30 8208 C 777.251 1.07223 -1.71312 0
M  V30 8209 C 777.572 1.88911 -0.483486 0
M  V30 8210 O 776.842 1.89344 0.50257 0
M  V30 8211 H 775.422 0.398846 -0.63161 0
M  V30 8212 H 778.084 0.374288 -1.91272 0
M  V30 8213 H 777.18 1.7448 -2.58772 0
M  V30 8214 N 777.481 1.45874 0.596531 0
M  V30 8215 C 778.711 1.5379 1.37958 0
M  V30 8216 C 779.119 0.173086 1.88407 0
M  V30 8217 O 778.462 -0.837498 1.63498 0
M  V30 8218 C 778.524 2.47044 2.61169 0
M  V30 8219 C 778.188 3.93565 2.32283 0
M  V30 8220 C 779.185 4.83162 1.91965 0
M  V30 8221 C 776.87 4.38579 2.44854 0
M  V30 8222 C 778.864 6.15782 1.64593 0
M  V30 8223 C 776.551 5.71238 2.17095 0
M  V30 8224 C 777.549 6.59659 1.77028 0
M  V30 8225 O 777.237 7.89857 1.49601 0
M  V30 8226 H 776.969 0.523 0.428307 0
M  V30 8227 H 779.523 1.91855 0.733529 0
M  V30 8228 H 777.753 2.0397 3.28532 0
M  V30 8229 H 779.442 2.4552 3.23226 0
M  V30 8230 H 780.208 4.49646 1.8178 0
M  V30 8231 H 776.087 3.6999 2.75006 0
M  V30 8232 H 779.631 6.84757 1.33245 0
M  V30 8233 H 775.528 6.04306 2.26901 0
M  V30 8234 H 776.296 8.01991 1.63561 0
M  V30 8235 N 778.959 -0.83999 1.33349 0
M  V30 8236 C 780.207 -1.59202 1.24496 0
M  V30 8237 C 780.528 -1.94077 -0.189499 0
M  V30 8238 O 779.798 -1.60868 -1.11796 0
M  V30 8239 H 778.378 -0.590276 0.457802 0
M  V30 8240 H 781.04 -1.00394 1.67054 0
M  V30 8241 H 780.136 -2.52247 1.83788 0
M  V30 8242 N 780.437 -1.16799 -1.0581 0
M  V30 8243 C 781.714 -0.862616 -1.75551 0
M  V30 8244 C 782.094 0.6385 -2.01212 0
M  V30 8245 O 781.442 1.58784 -1.64317 0
M  V30 8246 C 781.652 -1.6907 -3.05314 0
M  V30 8247 C 783 -1.90675 -3.79379 0
M  V30 8248 O 784.024 -1.65976 -3.15167 0
M  V30 8249 O 782.883 -2.32145 -4.94743 0
M  V30 8250 H 779.977 -0.318789 -0.763088 0
M  V30 8251 H 782.523 -1.27461 -1.12034 0
M  V30 8252 H 781.295 -2.70912 -2.82352 0
M  V30 8253 H 780.918 -1.27606 -3.76567 0
M  V30 8254 N 781.915 1.24427 -0.967243 0
M  V30 8255 C 782.848 2.23885 -0.441683 0
M  V30 8256 C 783.826 1.55231 0.483963 0
M  V30 8257 O 785.01 1.83865 0.415445 0
M  V30 8258 C 782.137 3.36755 0.362458 0
M  V30 8259 C 781.183 4.23495 -0.505407 0
M  V30 8260 S 782.016 4.98916 -1.94534 0
M  V30 8261 C 783.172 6.15245 -1.14997 0
M  V30 8262 H 783.405 2.68118 -1.28453 0
M  V30 8263 H 780.938 1.337 -0.772243 0
M  V30 8264 H 782.896 4.02218 0.820445 0
M  V30 8265 H 781.557 2.91081 1.18027 0
M  V30 8266 H 780.75 5.03876 0.111979 0
M  V30 8267 H 780.352 3.63032 -0.899104 0
M  V30 8268 H 782.644 6.7629 -0.404769 0
M  V30 8269 H 783.587 6.81343 -1.92814 0
M  V30 8270 H 783.995 5.60455 -0.674543 0
M  V30 8271 N 783.393 0.737304 1.3929 0
M  V30 8272 C 784.34 0.0988364 2.30588 0
M  V30 8273 C 785.31 -0.727206 1.49335 0
M  V30 8274 O 786.495 -0.686694 1.78014 0
M  V30 8275 C 783.635 -0.800734 3.35682 0
M  V30 8276 C 782.748 0.0381731 4.31983 0
M  V30 8277 C 781.883 -0.862884 5.24145 0
M  V30 8278 C 780.922 -0.0193639 6.12097 0
M  V30 8279 N 780.059 -0.87648 6.96608 0
M  V30 8280 H 784.899 0.883031 2.84617 0
M  V30 8281 H 782.436 0.447111 1.4014 0
M  V30 8282 H 784.394 -1.33676 3.95205 0
M  V30 8283 H 783.024 -1.55088 2.83103 0
M  V30 8284 H 782.076 0.691641 3.74059 0
M  V30 8285 H 783.388 0.690294 4.94 0
M  V30 8286 H 782.542 -1.46667 5.88705 0
M  V30 8287 H 781.281 -1.54878 4.62454 0
M  V30 8288 H 780.286 0.597202 5.46547 0
M  V30 8289 H 781.511 0.663348 6.75852 0
M  V30 8290 H 779.457 -1.54762 6.37483 0
M  V30 8291 H 779.374 -0.280892 7.55478 0
M  V30 8292 H 780.642 -1.46575 7.65595 0
M  V30 8293 N 784.871 -1.49948 0.485112 0
M  V30 8294 C 786.282 -1.8667 0.0334041 0
M  V30 8295 C 786.633 -1.3988 -1.37579 0
M  V30 8296 O 785.758 -0.769788 -2.02245 0
M  V30 8297 C 786.353 -3.38757 0.0538426 0
M  V30 8298 C 784.912 -3.74839 -0.342453 0
M  V30 8299 C 784.059 -2.73894 0.433281 0
M  V30 8300 H 787.01 -1.42492 0.698699 0
M  V30 8301 H 787.031 -3.73132 -0.745146 0
M  V30 8302 H 786.543 -3.72782 1.07959 0
M  V30 8303 H 784.644 -3.46419 -1.37203 0
M  V30 8304 H 784.757 -4.79088 -0.0340503 0
M  V30 8305 H 783.121 -2.54441 -0.114849 0
M  V30 8306 H 783.904 -3.10763 1.45881 0
M  V30 8307 N 786.349 -0.21828 -1.56081 0
M  V30 8308 C 787.598 0.414644 -1.97392 0
M  V30 8309 C 787.911 1.61132 -1.10887 0
M  V30 8310 O 789.117 2.31355 -1.42082 0
M  V30 8311 C 787.573 0.789099 -3.51143 0
M  V30 8312 C 787.181 -0.384578 -4.46346 0
M  V30 8313 C 788.925 1.38781 -4.01173 0
M  V30 8314 C 786.832 0.0121288 -5.91399 0
M  V30 8315 H 785.762 0.158691 -0.737111 0
M  V30 8316 H 788.413 -0.313974 -1.80794 0
M  V30 8317 H 786.795 1.57505 -3.6333 0
M  V30 8318 H 787.969 -1.16212 -4.45905 0
M  V30 8319 H 786.284 -0.896306 -4.06639 0
M  V30 8320 H 788.881 1.69746 -5.07041 0
M  V30 8321 H 789.224 2.30245 -3.46833 0
M  V30 8322 H 789.757 0.665364 -3.92196 0
M  V30 8323 H 786.496 -0.868917 -6.49715 0
M  V30 8324 H 786.016 0.754053 -5.95041 0
M  V30 8325 H 787.695 0.439949 -6.45502 0
M  V30 8326 N 787.827 1.57504 0.0551401 0
M  V30 8327 C 789.055 1.92294 0.76358 0
M  V30 8328 C 789.47 0.815774 1.70266 0
M  V30 8329 O 788.827 -0.209772 1.8129 0
M  V30 8330 C 788.878 3.26914 1.54302 0
M  V30 8331 O 788.599 4.33375 0.641666 0
M  V30 8332 C 790.1 3.75825 2.35097 0
M  V30 8333 H 787.32 0.635229 0.216159 0
M  V30 8334 H 789.864 2.0449 0.0204385 0
M  V30 8335 H 788.019 3.16196 2.23828 0
M  V30 8336 H 788.433 5.10927 1.1855 0
M  V30 8337 H 789.907 4.72603 2.8522 0
M  V30 8338 H 790.384 3.0568 3.15367 0
M  V30 8339 H 790.99 3.89542 1.70696 0
M  V30 8340 N 789.305 -0.326896 1.54172 0
M  V30 8341 C 790.551 -1.06681 1.72473 0
M  V30 8342 C 790.884 -1.87779 0.49523 0
M  V30 8343 O 790.159 -1.87754 -0.507803 0
M  V30 8344 C 790.442 -1.99429 2.99834 0
M  V30 8345 C 790.295 -1.21682 4.33028 0
M  V30 8346 C 791.614 -2.99002 3.22933 0
M  V30 8347 H 788.733 -0.386438 0.627563 0
M  V30 8348 H 791.375 -0.343779 1.86864 0
M  V30 8349 H 789.525 -2.61081 2.87696 0
M  V30 8350 H 791.197 -0.625153 4.57044 0
M  V30 8351 H 789.44 -0.519045 4.30684 0
M  V30 8352 H 790.111 -1.89766 5.18356 0
M  V30 8353 H 792.587 -2.4747 3.34511 0
M  V30 8354 H 791.463 -3.61085 4.13412 0
M  V30 8355 H 791.724 -3.71281 2.40006 0
M  V30 8356 N 790.784 -1.46188 -0.588786 0
M  V30 8357 C 792.032 -1.50885 -1.34455 0
M  V30 8358 C 792.353 -0.159555 -1.94346 0
M  V30 8359 O 791.623 0.813239 -1.78222 0
M  V30 8360 H 790.203 -0.555707 -0.499198 0
M  V30 8361 H 792.865 -1.82277 -0.690014 0
M  V30 8362 H 791.961 -2.25816 -2.15438 0
M  V30 8363 N 792.262 0.832906 -1.33792 0
M  V30 8364 C 793.51 1.58539 -1.25338 0
M  V30 8365 C 793.831 1.94175 0.179204 0
M  V30 8366 O 793.101 1.61458 1.10941 0
M  V30 8367 H 791.681 0.58784 -0.460926 0
M  V30 8368 H 794.343 0.995064 -1.67584 0
M  V30 8369 H 793.439 2.51268 -1.85123 0
M  V30 8370 N 793.74 1.17359 1.05189 0
M  V30 8371 C 794.687 0.890325 2.12936 0
M  V30 8372 C 795.657 -0.165779 1.65271 0
M  V30 8373 O 796.842 -0.0285672 1.90779 0
M  V30 8374 C 793.982 0.409793 3.42658 0
M  V30 8375 C 793.095 1.53002 4.03998 0
M  V30 8376 C 792.23 1.00336 5.21638 0
M  V30 8377 C 791.269 2.09903 5.74984 0
M  V30 8378 N 790.406 1.58714 6.83926 0
M  V30 8379 H 795.246 1.81299 2.36505 0
M  V30 8380 H 792.783 0.904249 1.16025 0
M  V30 8381 H 794.741 0.112743 4.17048 0
M  V30 8382 H 793.371 -0.475915 3.19272 0
M  V30 8383 H 792.423 1.9428 3.27047 0
M  V30 8384 H 793.735 2.3564 4.39631 0
M  V30 8385 H 792.889 0.660158 6.03098 0
M  V30 8386 H 791.628 0.14642 4.8748 0
M  V30 8387 H 790.633 2.45081 4.92154 0
M  V30 8388 H 791.858 2.96013 6.1119 0
M  V30 8389 H 789.804 0.752915 6.51665 0
M  V30 8390 H 789.721 2.34959 7.18561 0
M  V30 8391 H 790.989 1.27287 7.69037 0
M  V30 8392 N 795.218 -1.23913 0.973828 0
M  V30 8393 C 796.467 -1.91455 0.63464 0
M  V30 8394 C 796.78 -1.76893 -0.834759 0
M  V30 8395 O 797.986 -2.3918 -1.28473 0
M  V30 8396 C 796.442 -3.43172 1.08447 0
M  V30 8397 C 796.05 -3.66409 2.57776 0
M  V30 8398 C 797.794 -4.1653 0.818721 0
M  V30 8399 C 795.701 -5.11728 2.9646 0
M  V30 8400 H 794.631 -0.716881 0.233661 0
M  V30 8401 H 797.282 -1.40457 1.18085 0
M  V30 8402 H 795.664 -3.93242 0.466524 0
M  V30 8403 H 796.838 -3.26913 3.24753 0
M  V30 8404 H 795.153 -3.06349 2.82027 0
M  V30 8405 H 797.75 -5.23603 1.08367 0
M  V30 8406 H 798.093 -4.15578 -0.245128 0
M  V30 8407 H 798.626 -3.72428 1.39793 0
M  V30 8408 H 795.365 -5.17806 4.01941 0
M  V30 8409 H 794.885 -5.52199 2.34172 0
M  V30 8410 H 796.564 -5.80009 2.86703 0
M  V30 8411 N 796.696 -0.74468 -1.38897 0
M  V30 8412 C 797.942 -0.297324 -2.00609 0
M  V30 8413 C 798.275 1.11547 -1.58968 0
M  V30 8414 O 797.55 1.76227 -0.823057 0
M  V30 8415 C 797.833 -0.410125 -3.57757 0
M  V30 8416 C 797.686 -1.86338 -4.09387 0
M  V30 8417 C 799.005 0.20176 -4.39637 0
M  V30 8418 H 796.124 -0.109509 -0.728819 0
M  V30 8419 H 798.766 -0.942653 -1.64967 0
M  V30 8420 H 796.916 0.139287 -3.8825 0
M  V30 8421 H 798.588 -2.47042 -3.89574 0
M  V30 8422 H 796.831 -2.38146 -3.62586 0
M  V30 8423 H 797.502 -1.89352 -5.18507 0
M  V30 8424 H 799.978 -0.266703 -4.15244 0
M  V30 8425 H 798.854 0.0925415 -5.48822 0
M  V30 8426 H 799.115 1.289 -4.22891 0
M  V30 8427 N 798.174 1.49689 -0.493057 0
M  V30 8428 C 799.422 2.02027 0.0541642 0
M  V30 8429 C 799.743 1.37554 1.38217 0
M  V30 8430 O 799.013 0.528174 1.88646 0
M  V30 8431 H 797.593 0.746646 0.0230069 0
M  V30 8432 H 800.255 1.83795 -0.648489 0
M  V30 8433 H 799.351 3.11523 0.189652 0
M  V30 8434 N 799.652 0.226554 1.55963 0
M  V30 8435 C 800.877 -0.411527 2.03276 0
M  V30 8436 C 801.302 -1.52206 1.10521 0
M  V30 8437 O 800.66 -1.81054 0.0943217 0
M  V30 8438 C 800.708 -0.915694 3.4878 0
M  V30 8439 O 799.812 -2.02672 3.59163 0
M  V30 8440 H 799.153 -0.0924907 0.657527 0
M  V30 8441 H 801.683 0.346656 2.01642 0
M  V30 8442 H 801.693 -1.22421 3.892 0
M  V30 8443 H 800.368 -0.102915 4.15773 0
M  V30 8444 H 798.945 -1.72445 3.30632 0
M  V30 8445 N 801.13 -1.57531 -0.0467866 0
M  V30 8446 C 802.06 -2.08425 -1.05268 0
M  V30 8447 C 803.041 -0.982941 -1.38825 0
M  V30 8448 O 804.226 -1.25716 -1.48018 0
M  V30 8449 C 801.356 -2.54897 -2.35891 0
M  V30 8450 C 800.31 -3.69132 -2.16623 0
M  V30 8451 C 799.636 -4.01747 -3.52851 0
M  V30 8452 C 800.936 -4.98243 -1.56689 0
M  V30 8453 H 802.63 -2.92716 -0.62908 0
M  V30 8454 H 800.176 -1.40816 -0.301156 0
M  V30 8455 H 802.129 -2.8912 -3.06574 0
M  V30 8456 H 800.853 -1.67666 -2.80278 0
M  V30 8457 H 799.512 -3.35231 -1.48377 0
M  V30 8458 H 799.16 -3.11608 -3.94853 0
M  V30 8459 H 798.86 -4.78681 -3.4079 0
M  V30 8460 H 800.384 -4.38487 -4.24925 0
M  V30 8461 H 801.798 -5.30535 -2.17268 0
M  V30 8462 H 800.195 -5.79669 -1.55255 0
M  V30 8463 H 801.265 -4.81986 -0.530827 0
M  V30 8464 N 802.608 0.318715 -1.54344 0
M  V30 8465 C 803.848 1.06425 -1.74508 0
M  V30 8466 C 804.212 1.85087 -0.510572 0
M  V30 8467 O 805.413 2.62253 -0.589647 0
M  V30 8468 C 803.684 1.96054 -2.98827 0
M  V30 8469 S 805.243 2.77493 -3.39916 0
M  V30 8470 H 802.061 0.35921 -0.613587 0
M  V30 8471 H 804.663 0.339679 -1.92526 0
M  V30 8472 H 803.367 1.37109 -3.8682 0
M  V30 8473 H 802.898 2.72908 -2.83346 0
M  V30 8474 H 804.913 3.98544 -2.95596 0
M  V30 8475 N 804.086 1.46499 0.581025 0
M  V30 8476 C 805.049 1.5677 1.672 0
M  V30 8477 C 806.049 0.444716 1.54528 0
M  V30 8478 O 807.239 0.709074 1.59116 0
M  V30 8479 C 804.371 1.4896 3.06633 0
M  V30 8480 H 805.564 2.54 1.5945 0
M  V30 8481 H 803.117 1.34334 0.799003 0
M  V30 8482 H 803.852 0.530168 3.19937 0
M  V30 8483 H 803.637 2.30439 3.17239 0
M  V30 8484 H 805.127 1.59237 3.86048 0
M  V30 8485 N 805.565 -0.825799 1.34232 0
M  V30 8486 C 806.814 -1.57686 1.2577 0
M  V30 8487 C 807.127 -1.94848 -0.171372 0
M  V30 8488 O 808.333 -2.68854 -0.378123 0
M  V30 8489 C 806.789 -2.84478 2.20454 0
M  V30 8490 C 806.397 -2.54629 3.68603 0
M  V30 8491 C 808.141 -3.625 2.20893 0
M  V30 8492 C 806.048 -3.77597 4.55164 0
M  V30 8493 H 804.978 -0.591809 0.467203 0
M  V30 8494 H 807.629 -0.909421 1.59379 0
M  V30 8495 H 806.011 -3.52832 1.79793 0
M  V30 8496 H 807.185 -1.94404 4.17784 0
M  V30 8497 H 805.5 -1.89888 3.70582 0
M  V30 8498 H 808.097 -4.538 2.82789 0
M  V30 8499 H 808.44 -3.98404 1.20746 0
M  V30 8500 H 808.973 -3.01086 2.59985 0
M  V30 8501 H 805.712 -3.46815 5.56237 0
M  V30 8502 H 805.232 -4.37116 4.10719 0
M  V30 8503 H 806.911 -4.45039 4.69627 0
M  V30 8504 N 807.043 -1.17915 -1.04565 0
M  V30 8505 C 808.006 -0.903787 -2.10628 0
M  V30 8506 C 809.006 0.10873 -1.60432 0
M  V30 8507 O 810.196 -0.124152 -1.73757 0
M  V30 8508 C 807.328 -0.355017 -3.39046 0
M  V30 8509 H 808.521 -1.84425 -2.3649 0
M  V30 8510 H 806.074 -0.990477 -1.2091 0
M  V30 8511 H 806.809 0.592297 -3.18845 0
M  V30 8512 H 806.594 -1.08484 -3.76794 0
M  V30 8513 H 808.084 -0.180891 -4.17208 0
M  V30 8514 N 808.521 1.23394 -0.980386 0
M  V30 8515 C 809.769 1.91431 -0.647978 0
M  V30 8516 C 810.09 1.76871 0.821066 0
M  V30 8517 O 809.36 1.14808 1.58732 0
M  V30 8518 H 807.94 0.708516 -0.236673 0
M  V30 8519 H 810.602 1.50019 -1.2442 0
M  V30 8520 H 809.698 2.98854 -0.899592 0
M  V30 8521 N 809.999 0.752036 1.385 0
M  V30 8522 C 811.245 0.307958 2.00448 0
M  V30 8523 C 811.578 -1.10702 1.59558 0
M  V30 8524 O 810.853 -1.75788 0.832391 0
M  V30 8525 C 811.136 0.429092 3.57534 0
M  V30 8526 C 810.989 1.88507 4.08393 0
M  V30 8527 C 812.308 -0.178442 4.39738 0
M  V30 8528 H 809.427 0.113373 0.728228 0
M  V30 8529 H 812.069 0.951389 1.64465 0
M  V30 8530 H 810.219 -0.118695 3.88319 0
M  V30 8531 H 811.891 2.49104 3.88259 0
M  V30 8532 H 810.134 2.40066 3.61318 0
M  V30 8533 H 810.805 1.92099 5.17496 0
M  V30 8534 H 813.281 0.28872 4.15097 0
M  V30 8535 H 812.157 -0.0634349 5.48863 0
M  V30 8536 H 812.418 -1.26655 4.23569 0
M  V30 8537 N 811.477 -1.49425 0.500989 0
M  V30 8538 C 812.407 -2.31971 -0.266775 0
M  V30 8539 C 813.388 -1.40245 -0.962563 0
M  V30 8540 O 814.573 -1.69154 -0.953968 0
M  V30 8541 C 811.703 -3.20757 -1.33163 0
M  V30 8542 C 810.657 -4.21275 -0.75572 0
M  V30 8543 C 809.983 -4.98997 -1.92109 0
M  V30 8544 C 811.283 -5.21686 0.253213 0
M  V30 8545 H 812.977 -2.96408 0.422237 0
M  V30 8546 H 810.523 -1.4254 0.204505 0
M  V30 8547 H 812.476 -3.77315 -1.87646 0
M  V30 8548 H 811.2 -2.54263 -2.04983 0
M  V30 8549 H 809.859 -3.65861 -0.232637 0
M  V30 8550 H 809.507 -4.28951 -2.62698 0
M  V30 8551 H 809.207 -5.67011 -1.54182 0
M  V30 8552 H 810.731 -5.584 -2.47026 0
M  V30 8553 H 812.145 -5.72939 -0.203483 0
M  V30 8554 H 810.542 -5.9759 0.548322 0
M  V30 8555 H 811.612 -4.70596 1.16909 0
M  V30 8556 N 812.955 -0.234822 -1.55841 0
M  V30 8557 C 814.183 0.397745 -2.03041 0
M  V30 8558 C 814.598 1.52405 -1.11437 0
M  V30 8559 O 813.955 1.82061 -0.126466 0
M  V30 8560 C 814.006 0.916919 -3.49678 0
M  V30 8561 O 813.727 -0.164493 -4.37791 0
M  V30 8562 C 815.228 1.62139 -4.12584 0
M  V30 8563 H 812.448 0.0959214 -0.664108 0
M  V30 8564 H 814.992 -0.355156 -2.01392 0
M  V30 8565 H 813.147 1.62004 -3.519 0
M  V30 8566 H 813.561 0.227794 -5.24005 0
M  V30 8567 H 815.035 1.93651 -5.16917 0
M  V30 8568 H 815.512 2.53918 -3.58361 0
M  V30 8569 H 816.118 0.963145 -4.14251 0
M  V30 8570 N 814.433 1.57553 0.0384317 0
M  V30 8571 C 815.682 1.88022 0.730108 0
M  V30 8572 C 815.995 0.83209 1.77019 0
M  V30 8573 O 817.201 1.0257 2.51379 0
M  V30 8574 C 815.657 3.33637 1.3496 0
M  V30 8575 C 815.265 4.46659 0.346352 0
M  V30 8576 C 817.009 3.73266 2.02169 0
M  V30 8577 C 814.916 5.8333 0.973652 0
M  V30 8578 H 813.846 0.701496 0.276442 0
M  V30 8579 H 816.497 1.83493 -0.0158028 0
M  V30 8580 H 814.879 3.32882 2.1449 0
M  V30 8581 H 816.053 4.58868 -0.421558 0
M  V30 8582 H 814.368 4.15802 -0.223133 0
M  V30 8583 H 816.965 4.72689 2.49938 0
M  V30 8584 H 817.308 3.04776 2.8358 0
M  V30 8585 H 817.841 3.76156 1.29427 0
M  V30 8586 H 814.58 6.55197 0.199163 0
M  V30 8587 H 814.1 5.7486 1.71162 0
M  V30 8588 H 815.779 6.29757 1.48376 0
M  V30 8589 N 815.911 -0.310526 1.54511 0
M  V30 8590 C 816.874 -1.3657 1.84068 0
M  V30 8591 C 817.874 -1.44123 0.713097 0
M  V30 8592 O 819.064 -1.43924 0.981399 0
M  V30 8593 C 816.196 -2.75162 2.01243 0
M  V30 8594 H 817.389 -1.1161 2.78358 0
M  V30 8595 H 814.942 -0.546699 1.46427 0
M  V30 8596 H 815.677 -3.05359 1.09208 0
M  V30 8597 H 815.462 -2.71071 2.83307 0
M  V30 8598 H 816.952 -3.51473 2.25514 0
M  V30 8599 N 817.389 -1.46805 -0.573248 0
M  V30 8600 C 818.319 -1.60951 -1.69165 0
M  V30 8601 C 819.3 -0.45948 -1.63777 0
M  V30 8602 O 820.485 -0.68688 -1.81647 0
M  V30 8603 C 817.615 -1.60844 -3.07809 0
M  V30 8604 C 816.569 -2.74913 -3.28035 0
M  V30 8605 C 815.895 -2.59871 -4.67302 0
M  V30 8606 C 817.195 -4.16654 -3.14955 0
M  V30 8607 H 818.889 -2.54574 -1.57582 0
M  V30 8608 H 816.435 -1.22516 -0.756686 0
M  V30 8609 H 818.388 -1.69334 -3.85881 0
M  V30 8610 H 817.112 -0.637714 -3.20314 0
M  V30 8611 H 815.771 -2.65908 -2.52366 0
M  V30 8612 H 815.419 -1.60861 -4.76585 0
M  V30 8613 H 815.119 -3.36386 -4.81786 0
M  V30 8614 H 816.643 -2.70265 -5.4753 0
M  V30 8615 H 818.057 -4.26721 -3.82861 0
M  V30 8616 H 816.454 -4.93831 -3.40956 0
M  V30 8617 H 817.524 -4.36146 -2.11908 0
M  V30 8618 N 818.867 0.818669 -1.34668 0
M  V30 8619 C 820.278 1.39177 -1.24446 0
M  V30 8620 C 820.629 1.9578 0.128268 0
M  V30 8621 O 819.754 1.90382 1.02877 0
M  V30 8622 C 820.349 2.53012 -2.25323 0
M  V30 8623 C 818.908 3.06218 -2.18878 0
M  V30 8624 C 818.055 1.79112 -2.11694 0
M  V30 8625 H 821.006 0.622709 -1.45973 0
M  V30 8626 H 821.027 3.31226 -1.8727 0
M  V30 8627 H 820.539 2.11784 -3.25221 0
M  V30 8628 H 818.64 3.51939 -1.22351 0
M  V30 8629 H 818.753 3.65019 -3.10319 0
M  V30 8630 H 817.117 2.0018 -1.57481 0
M  V30 8631 H 817.9 1.40053 -3.13433 0
M  V30 8632 N 820.346 1.18468 1.03938 0
M  V30 8633 C 821.592 0.982286 1.77423 0
M  V30 8634 C 821.925 -0.48679 1.88 0
M  V30 8635 O 821.2 -1.36146 1.38905 0
M  V30 8636 C 821.483 1.63929 3.20623 0
M  V30 8637 C 821.336 3.18132 3.17982 0
M  V30 8638 C 822.655 1.3536 4.18767 0
M  V30 8639 H 819.774 0.358264 0.644062 0
M  V30 8640 H 822.416 1.46154 1.21405 0
M  V30 8641 H 820.566 1.2318 3.68455 0
M  V30 8642 H 822.238 3.68024 2.78129 0
M  V30 8643 H 820.481 3.50225 2.55978 0
M  V30 8644 H 821.152 3.5924 4.19107 0
M  V30 8645 H 823.628 1.70669 3.79488 0
M  V30 8646 H 822.504 1.83896 5.17178 0
M  V30 8647 H 822.765 0.276722 4.41233 0
M  V30 8648 N 821.824 -1.22873 0.986916 0
M  V30 8649 C 823.235 -1.73264 0.695438 0
M  V30 8650 C 823.586 -1.79679 -0.788023 0
M  V30 8651 O 822.711 -1.43905 -1.61618 0
M  V30 8652 C 823.306 -3.14671 1.2557 0
M  V30 8653 C 821.865 -3.62492 1.01373 0
M  V30 8654 C 821.012 -2.40551 1.37951 0
M  V30 8655 H 823.963 -1.08304 1.15999 0
M  V30 8656 H 823.984 -3.75226 0.631322 0
M  V30 8657 H 823.496 -3.0997 2.33539 0
M  V30 8658 H 821.597 -3.72567 -0.0495917 0
M  V30 8659 H 821.71 -4.48944 1.67289 0
M  V30 8660 H 820.074 -2.41875 0.798033 0
M  V30 8661 H 820.857 -2.38516 2.46911 0
M  V30 8662 N 823.302 -0.75937 -1.38099 0
M  V30 8663 C 824.548 -0.318584 -2.00282 0
M  V30 8664 C 824.881 1.09854 -1.60143 0
M  V30 8665 O 824.156 1.75344 -0.841702 0
M  V30 8666 C 824.439 -0.448047 -3.57302 0
M  V30 8667 C 824.292 -1.9067 -4.07388 0
M  V30 8668 C 825.611 0.155119 -4.39827 0
M  V30 8669 H 822.73 -0.117233 -0.727616 0
M  V30 8670 H 825.372 -0.960097 -1.63958 0
M  V30 8671 H 823.522 0.0981003 -3.88376 0
M  V30 8672 H 825.194 -2.5116 -3.86932 0
M  V30 8673 H 823.437 -2.41979 -3.6004 0
M  V30 8674 H 824.108 -1.94841 -5.1647 0
M  V30 8675 H 826.584 -0.31073 -4.14938 0
M  V30 8676 H 825.46 0.0343264 -5.48889 0
M  V30 8677 H 825.721 1.24407 -4.24235 0
M  V30 8678 N 824.78 1.49157 -0.508906 0
M  V30 8679 C 826.029 2.0167 0.0346854 0
M  V30 8680 C 826.342 1.39302 1.37311 0
M  V30 8681 O 827.548 1.83189 2.00385 0
M  V30 8682 C 826.004 3.59725 0.112261 0
M  V30 8683 C 825.612 4.31069 -1.21999 0
M  V30 8684 C 827.356 4.20155 0.605798 0
M  V30 8685 C 825.263 5.81001 -1.10415 0
M  V30 8686 H 824.193 0.753814 0.0167355 0
M  V30 8687 H 826.844 1.7162 -0.649518 0
M  V30 8688 H 825.226 3.86525 0.861087 0
M  V30 8689 H 826.4 4.15962 -1.98273 0
M  V30 8690 H 824.715 3.82418 -1.64759 0
M  V30 8691 H 827.312 5.29964 0.710102 0
M  V30 8692 H 827.655 3.84051 1.60656 0
M  V30 8693 H 828.188 3.97705 -0.0867239 0
M  V30 8694 H 824.927 6.21643 -2.07941 0
M  V30 8695 H 824.447 5.9858 -0.382428 0
M  V30 8696 H 826.126 6.42207 -0.786116 0
M  V30 8697 N 826.258 0.243083 1.55714 0
M  V30 8698 C 827.504 -0.383287 1.99145 0
M  V30 8699 C 827.837 -1.57868 1.13098 0
M  V30 8700 O 827.112 -1.93535 0.193509 0
M  V30 8701 C 827.395 -0.796879 3.51172 0
M  V30 8702 C 827.248 0.403642 4.47985 0
M  V30 8703 C 828.567 -1.64525 4.08191 0
M  V30 8704 H 825.686 -0.137843 0.723995 0
M  V30 8705 H 828.328 0.343631 1.86867 0
M  V30 8706 H 826.478 -1.41625 3.61766 0
M  V30 8707 H 828.15 1.04204 4.49376 0
M  V30 8708 H 826.393 1.04741 4.20965 0
M  V30 8709 H 827.064 0.0709794 5.51954 0
M  V30 8710 H 829.54 -1.12246 4.00674 0
M  V30 8711 H 828.416 -1.9035 5.14838 0
M  V30 8712 H 828.677 -2.61582 3.56409 0
M  V30 8713 N 827.736 -1.57571 -0.0300757 0
M  V30 8714 C 828.961 -1.93879 -0.736601 0
M  V30 8715 C 829.386 -0.842998 -1.68152 0
M  V30 8716 O 828.744 0.20135 -1.80178 0
M  V30 8717 C 828.792 -3.29247 -1.47066 0
M  V30 8718 O 827.896 -3.21426 -2.58378 0
M  V30 8719 H 827.237 -0.633735 -0.198181 0
M  V30 8720 H 829.767 -2.04595 0.0141485 0
M  V30 8721 H 829.777 -3.64113 -1.84081 0
M  V30 8722 H 828.452 -4.08565 -0.77764 0
M  V30 8723 H 827.029 -2.98189 -2.23914 0
M  V30 8724 N 829.214 0.302327 -1.54673 0
M  V30 8725 C 830.162 1.39286 -1.86285 0
M  V30 8726 C 831.156 1.52553 -0.736478 0
M  V30 8727 O 832.362 1.54686 -0.92045 0
M  V30 8728 H 828.737 0.465228 -0.590819 0
M  V30 8729 H 830.708 1.09859 -2.77441 0
M  V30 8730 C 829.457 2.75155 -2.12567 0
M  V30 8731 H 828.78 2.65728 -2.98712 0
M  V30 8732 H 830.22 3.50476 -2.38627 0
M  V30 8733 C 828.679 3.23987 -0.923813 0
M  V30 8734 O 829.209 4.01443 -0.143649 0
M  V30 8735 N 827.415 2.81293 -0.72956 0
M  V30 8736 H 826.962 2.18421 -1.36565 0
M  V30 8737 H 826.92 3.14315 0.0730351 0
M  V30 8738 N 830.692 1.47107 0.565454 0
M  V30 8739 C 831.939 1.53308 1.32299 0
M  V30 8740 C 832.267 0.1919 1.93551 0
M  V30 8741 O 831.522 -0.81435 1.77952 0
M  V30 8742 C 831.821 2.59309 2.45954 0
M  V30 8743 C 831.487 4.02827 2.02586 0
M  V30 8744 C 830.149 4.41897 1.90474 0
M  V30 8745 C 832.501 4.92913 1.6937 0
M  V30 8746 C 829.829 5.68898 1.4343 0
M  V30 8747 C 832.181 6.20368 1.238 0
M  V30 8748 C 830.845 6.58327 1.10278 0
M  V30 8749 H 830.115 0.560993 0.484116 0
M  V30 8750 H 832.762 1.80667 0.634965 0
M  V30 8751 H 831.067 2.25676 3.20277 0
M  V30 8752 H 832.764 2.61332 3.04149 0
M  V30 8753 H 829.354 3.71953 2.12952 0
M  V30 8754 H 833.538 4.63433 1.77605 0
M  V30 8755 H 828.794 5.97065 1.31618 0
M  V30 8756 H 832.968 6.89589 0.971586 0
M  V30 8757 H 830.595 7.56628 0.736027 0
M  V30 8758 N 832.17 -0.811516 1.35101 0
M  V30 8759 C 833.118 -1.94449 1.27642 0
M  V30 8760 C 834.112 -1.68522 0.172287 0
M  V30 8761 O 835.318 -1.76799 0.337967 0
M  V30 8762 H 831.693 -0.638776 0.396824 0
M  V30 8763 H 833.664 -1.97861 2.23369 0
M  V30 8764 C 832.413 -3.31139 1.06029 0
M  V30 8765 H 831.736 -3.51644 1.90227 0
M  V30 8766 H 833.176 -4.10831 1.0485 0
M  V30 8767 C 831.635 -3.36072 -0.236039 0
M  V30 8768 O 832.165 -3.82292 -1.23353 0
M  V30 8769 N 830.371 -2.89314 -0.273107 0
M  V30 8770 H 829.918 -2.51893 0.539211 0
M  V30 8771 H 829.876 -2.92996 -1.1402 0
M  V30 8772 N 833.648 -1.19017 -1.03309 0
M  V30 8773 C 834.878 -1.01387 -1.80012 0
M  V30 8774 C 835.286 0.440655 -1.83997 0
M  V30 8775 O 834.629 1.31786 -1.27977 0
M  V30 8776 C 834.691 -1.50171 -3.26633 0
M  V30 8777 C 834.355 -2.98213 -3.46292 0
M  V30 8778 C 835.352 -3.96009 -3.36857 0
M  V30 8779 C 833.037 -3.36812 -3.72643 0
M  V30 8780 C 835.031 -5.30399 -3.5349 0
M  V30 8781 C 832.718 -4.71363 -3.88922 0
M  V30 8782 C 833.716 -5.67966 -3.79347 0
M  V30 8783 O 833.404 -7.00079 -3.95151 0
M  V30 8784 H 833.136 -0.357899 -0.573484 0
M  V30 8785 H 835.69 -1.58171 -1.31039 0
M  V30 8786 H 833.92 -0.877586 -3.7661 0
M  V30 8787 H 835.609 -1.28814 -3.84918 0
M  V30 8788 H 836.375 -3.67534 -3.16455 0
M  V30 8789 H 832.254 -2.62175 -3.7919 0
M  V30 8790 H 835.798 -6.05786 -3.45933 0
M  V30 8791 H 831.695 -4.99536 -4.0882 0
M  V30 8792 H 832.463 -7.07092 -4.12266 0
M  V30 8793 N 835.127 1.22348 -0.993418 0
M  V30 8794 C 836.374 1.9111 -0.669568 0
M  V30 8795 C 836.702 1.77357 0.79843 0
M  V30 8796 O 835.957 1.13675 1.593 0
M  V30 8797 C 836.256 3.42477 -1.02197 0
M  V30 8798 C 835.922 3.7642 -2.48232 0
M  V30 8799 C 834.584 3.85395 -2.88139 0
M  V30 8800 C 836.936 3.9253 -3.42884 0
M  V30 8801 C 834.264 4.07918 -4.21687 0
M  V30 8802 C 836.616 4.16557 -4.76091 0
M  V30 8803 C 835.28 4.23757 -5.15739 0
M  V30 8804 H 834.55 0.699321 -0.245012 0
M  V30 8805 H 837.197 1.45102 -1.2497 0
M  V30 8806 H 835.502 3.90143 -0.359921 0
M  V30 8807 H 837.199 3.93935 -0.74942 0
M  V30 8808 H 833.789 3.70017 -2.16299 0
M  V30 8809 H 837.973 3.84974 -3.13224 0
M  V30 8810 H 833.229 4.11719 -4.51993 0
M  V30 8811 H 837.403 4.27966 -5.4938 0
M  V30 8812 H 835.03 4.40962 -6.19239 0
M  V30 8813 N 836.605 0.766683 1.37694 0
M  V30 8814 C 837.835 0.339446 2.03792 0
M  V30 8815 C 838.243 -1.04153 1.57952 0
M  V30 8816 O 837.586 -1.67521 0.753826 0
M  V30 8817 C 837.648 0.29822 3.58261 0
M  V30 8818 C 837.312 1.62293 4.27212 0
M  V30 8819 C 838.309 2.57447 4.51682 0
M  V30 8820 C 835.994 1.89597 4.65143 0
M  V30 8821 C 837.988 3.78117 5.13134 0
M  V30 8822 C 835.675 3.10538 5.26317 0
M  V30 8823 C 836.673 4.04617 5.50249 0
M  V30 8824 O 836.361 5.23429 6.10145 0
M  V30 8825 H 836.093 0.140952 0.661142 0
M  V30 8826 H 838.647 1.04022 1.77111 0
M  V30 8827 H 836.877 -0.458897 3.83967 0
M  V30 8828 H 838.566 -0.101263 4.05774 0
M  V30 8829 H 839.332 2.37633 4.22795 0
M  V30 8830 H 835.211 1.17199 4.45854 0
M  V30 8831 H 838.755 4.51563 5.3173 0
M  V30 8832 H 834.652 3.3024 5.54628 0
M  V30 8833 H 835.42 5.24187 6.28626 0
M  V30 8834 N 838.083 -1.48885 0.516809 0
M  V30 8835 C 839.033 -2.26363 -0.272704 0
M  V30 8836 C 840.017 -1.31891 -0.921604 0
M  V30 8837 O 841.209 -1.56514 -0.826589 0
M  V30 8838 C 838.338 -3.16614 -1.32705 0
M  V30 8839 C 837.424 -4.18554 -0.683598 0
M  V30 8840 N 837.815 -5.05308 0.223015 0
M  V30 8841 C 836.113 -4.35931 -0.942351 0
M  V30 8842 C 836.814 -5.7867 0.592918 0
M  V30 8843 N 835.79 -5.43583 -0.042912 0
M  V30 8844 H 839.592 -2.90811 0.424971 0
M  V30 8845 H 837.106 -1.5893 0.333941 0
M  V30 8846 H 839.103 -3.70766 -1.90625 0
M  V30 8847 H 837.763 -2.5372 -2.02624 0
M  V30 8848 H 838.774 -5.14473 0.594818 0
M  V30 8849 H 835.451 -3.84234 -1.6331 0
M  V30 8850 H 836.841 -6.58493 1.33556 0
M  V30 8851 N 839.561 -0.251338 -1.55583 0
M  V30 8852 C 840.977 0.103409 -1.59265 0
M  V30 8853 C 841.177 1.56559 -1.26852 0
M  V30 8854 O 840.233 2.31071 -1.01796 0
M  V30 8855 C 841.546 -0.249781 -2.99661 0
M  V30 8856 C 843.094 -0.194442 -3.12395 0
M  V30 8857 C 843.569 -0.521728 -4.55019 0
M  V30 8858 N 845.06 -0.472393 -4.60785 0
M  V30 8859 C 845.795 -0.698737 -5.69127 0
M  V30 8860 N 845.291 -0.988443 -6.85713 0
M  V30 8861 N 847.084 -0.629143 -5.58568 0
M  V30 8862 H 839.235 -1.20484 -1.74921 0
M  V30 8863 H 841.498 -0.485092 -0.814488 0
M  V30 8864 H 841.204 -1.26577 -3.28133 0
M  V30 8865 H 841.078 0.420973 -3.74844 0
M  V30 8866 H 843.465 0.812229 -2.83702 0
M  V30 8867 H 843.546 -0.899111 -2.39478 0
M  V30 8868 H 843.19 -1.52597 -4.84434 0
M  V30 8869 H 843.12 0.204468 -5.26203 0
M  V30 8870 H 845.611 -0.257386 -3.77022 0
M  V30 8871 H 845.924 -1.14846 -7.64219 0
M  V30 8872 H 844.269 -1.02596 -6.87386 0
M  V30 8873 H 847.46 -0.402826 -4.66364 0
M  V30 8874 H 847.633 -0.808935 -6.42931 0
M  V30 8875 N 841.039 1.57585 0.0217189 0
M  V30 8876 C 841.949 2.10444 1.03684 0
M  V30 8877 C 842.965 1.04472 1.39146 0
M  V30 8878 O 844.141 1.36249 1.48317 0
M  V30 8879 C 841.206 2.5794 2.31664 0
M  V30 8880 C 840.267 3.78425 2.02714 0
M  V30 8881 C 839.5 4.23646 3.24592 0
M  V30 8882 O 839.723 3.6834 4.35525 0
M  V30 8883 O 838.657 5.16013 3.09862 0
M  V30 8884 H 842.483 2.97354 0.617584 0
M  V30 8885 H 840.068 1.47473 0.239174 0
M  V30 8886 H 841.95 2.88785 3.06889 0
M  V30 8887 H 840.625 1.74138 2.7287 0
M  V30 8888 H 839.532 3.52587 1.25033 0
M  V30 8889 H 840.865 4.63234 1.66359 0
M  V30 8890 N 842.517 -0.29412 1.54831 0
M  V30 8891 C 843.745 -1.04724 1.78439 0
M  V30 8892 C 844.16 -1.80695 0.547239 0
M  V30 8893 O 843.517 -1.75989 -0.483141 0
M  V30 8894 C 843.568 -2.02242 2.99634 0
M  V30 8895 O 843.289 -1.29352 4.18568 0
M  V30 8896 C 844.79 -2.89537 3.35683 0
M  V30 8897 H 842.01 -0.310285 0.594949 0
M  V30 8898 H 844.554 -0.331306 2.01798 0
M  V30 8899 H 842.709 -2.69328 2.78462 0
M  V30 8900 H 843.123 -1.94901 4.86943 0
M  V30 8901 H 844.597 -3.538 4.23709 0
M  V30 8902 H 845.074 -3.58201 2.54143 0
M  V30 8903 H 845.68 -2.27973 3.59038 0
M  V30 8904 N 843.995 -1.47404 -0.557645 0
M  V30 8905 C 844.905 -1.62491 -1.69216 0
M  V30 8906 C 845.921 -0.507764 -1.66426 0
M  V30 8907 O 847.097 -0.775241 -1.85882 0
M  V30 8908 C 844.162 -1.63511 -3.05721 0
M  V30 8909 C 843.223 -2.86648 -3.1958 0
M  V30 8910 C 842.456 -2.87609 -4.49574 0
M  V30 8911 O 842.679 -1.97799 -5.35006 0
M  V30 8912 O 841.613 -3.79465 -4.67215 0
M  V30 8913 H 845.439 -2.58487 -1.59431 0
M  V30 8914 H 843.024 -1.30485 -0.7276 0
M  V30 8915 H 844.906 -1.66863 -3.86956 0
M  V30 8916 H 843.581 -0.706812 -3.15889 0
M  V30 8917 H 842.488 -2.8884 -2.37744 0
M  V30 8918 H 843.821 -3.7877 -3.14316 0
M  V30 8919 N 845.473 0.80434 -1.35529 0
M  V30 8920 C 846.421 1.93769 -1.28671 0
M  V30 8921 C 847.415 1.68428 -0.181222 0
M  V30 8922 O 848.621 1.76617 -0.347338 0
M  V30 8923 H 844.996 0.636663 -0.400206 0
M  V30 8924 H 846.967 1.96673 -2.24415 0
M  V30 8925 C 845.716 3.30572 -1.07784 0
M  V30 8926 H 845.039 3.5063 -1.9209 0
M  V30 8927 H 846.479 4.1027 -1.07027 0
M  V30 8928 C 844.938 3.36193 0.218213 0
M  V30 8929 O 845.468 3.82941 1.21323 0
M  V30 8930 N 843.674 2.89455 0.257761 0
M  V30 8931 H 843.221 2.51604 -0.552562 0
M  V30 8932 H 843.179 2.93597 1.12465 0
M  V30 8933 N 846.951 1.19563 1.02676 0
M  V30 8934 C 847.861 0.950691 2.14474 0
M  V30 8935 C 848.877 -0.0900219 1.73767 0
M  V30 8936 O 850.053 0.0951063 2.01175 0
M  V30 8937 C 847.118 0.494917 3.43149 0
M  V30 8938 C 846.179 1.60527 3.98158 0
M  V30 8939 C 845.412 1.17115 5.20692 0
M  V30 8940 O 845.635 0.0355937 5.70389 0
M  V30 8941 O 844.569 1.97454 5.68591 0
M  V30 8942 H 848.395 1.88651 2.38001 0
M  V30 8943 H 845.98 0.978635 1.12885 0
M  V30 8944 H 847.862 0.249492 4.20661 0
M  V30 8945 H 846.537 -0.412434 3.21062 0
M  V30 8946 H 845.444 1.90487 3.21971 0
M  V30 8947 H 846.777 2.48925 4.24614 0
M  V30 8948 N 848.429 -1.21819 0.999893 0
M  V30 8949 C 849.339 -2.27691 0.565159 0
M  V30 8950 C 850.355 -1.69587 -0.389398 0
M  V30 8951 O 851.531 -1.99786 -0.254499 0
M  V30 8952 C 848.596 -3.46537 -0.106432 0
M  V30 8953 C 847.657 -4.19932 0.891964 0
M  V30 8954 C 846.89 -5.33103 0.252327 0
M  V30 8955 O 847.113 -5.62398 -0.952103 0
M  V30 8956 O 846.047 -5.94184 0.960698 0
M  V30 8957 H 849.873 -2.67059 1.44613 0
M  V30 8958 H 847.458 -1.28119 0.768499 0
M  V30 8959 H 849.34 -4.18631 -0.482301 0
M  V30 8960 H 848.015 -3.09079 -0.961865 0
M  V30 8961 H 846.922 -3.5008 1.3189 0
M  V30 8962 H 848.255 -4.61287 1.71682 0
M  V30 8963 N 849.908 -0.773975 -1.37286 0
M  V30 8964 C 850.84 -0.119938 -2.28886 0
M  V30 8965 C 851.853 0.661822 -1.48741 0
M  V30 8966 O 853.042 0.499548 -1.71367 0
M  V30 8967 C 850.142 0.853703 -3.27971 0
M  V30 8968 C 849.315 0.125286 -4.37221 0
M  V30 8969 C 848.374 1.01261 -5.16365 0
M  V30 8970 O 847.4 0.475565 -5.6721 0
M  V30 8971 N 848.602 2.33864 -5.31308 0
M  V30 8972 H 851.367 -0.906702 -2.85655 0
M  V30 8973 H 848.928 -0.626519 -1.49286 0
M  V30 8974 H 850.92 1.4508 -3.77801 0
M  V30 8975 H 849.49 1.54142 -2.71954 0
M  V30 8976 H 848.71 -0.652742 -3.88758 0
M  V30 8977 H 849.998 -0.377959 -5.07394 0
M  V30 8978 H 849.396 2.79929 -4.91585 0
M  V30 8979 H 847.953 2.88575 -5.84438 0
M  V30 8980 N 851.386 1.48609 -0.524698 0
M  V30 8981 C 852.614 2.06899 0.00742946 0
M  V30 8982 C 853.029 1.38196 1.28637 0
M  V30 8983 O 852.386 0.467771 1.76403 0
M  V30 8984 C 852.437 3.60699 0.240548 0
M  V30 8985 O 852.158 4.26821 -0.987715 0
M  V30 8986 C 853.659 4.35769 0.813652 0
M  V30 8987 H 850.879 0.670278 -0.0311294 0
M  V30 8988 H 853.423 1.91071 -0.728832 0
M  V30 8989 H 851.578 3.76149 0.926845 0
M  V30 8990 H 851.992 5.18889 -0.765175 0
M  V30 8991 H 853.466 5.44174 0.926219 0
M  V30 8992 H 853.943 3.9984 1.81728 0
M  V30 8993 H 854.549 4.24983 0.164086 0
M  V30 8994 N 852.864 0.259585 1.55447 0
M  V30 8995 C 853.796 -0.667548 2.19263 0
M  V30 8996 C 854.809 -1.12925 1.17268 0
M  V30 8997 O 855.998 -1.05384 1.44071 0
M  V30 8998 C 853.098 -1.92066 2.7922 0
M  V30 8999 C 852.271 -1.60832 4.06758 0
M  V30 9000 C 851.33 -2.71231 4.50911 0
M  V30 9001 O 850.356 -2.38077 5.17019 0
M  V30 9002 N 851.558 -4.00984 4.19752 0
M  V30 9003 H 854.323 -0.121449 2.99454 0
M  V30 9004 H 851.884 0.0800519 1.61702 0
M  V30 9005 H 853.876 -2.65186 3.0571 0
M  V30 9006 H 852.446 -2.37621 2.03113 0
M  V30 9007 H 851.666 -0.711685 3.87722 0
M  V30 9008 H 852.954 -1.37445 4.89884 0
M  V30 9009 H 852.352 -4.30748 3.66706 0
M  V30 9010 H 850.909 -4.7053 4.51048 0
M  V30 9011 N 854.342 -1.57594 -0.0133615 0
M  V30 9012 C 855.272 -2.10611 -1.00823 0
M  V30 9013 C 856.253 -1.01217 -1.36708 0
M  V30 9014 O 857.438 -1.28827 -1.45318 0
M  V30 9015 C 854.568 -2.59844 -2.30431 0
M  V30 9016 C 853.522 -3.73644 -2.08745 0
M  V30 9017 C 852.848 -4.09141 -3.4425 0
M  V30 9018 C 854.148 -5.01454 -1.46086 0
M  V30 9019 H 855.842 -2.93985 -0.566849 0
M  V30 9020 H 853.388 -1.41423 -0.271219 0
M  V30 9021 H 855.341 -2.95557 -3.00373 0
M  V30 9022 H 854.065 -1.73573 -2.76658 0
M  V30 9023 H 852.724 -3.38303 -1.41232 0
M  V30 9024 H 852.372 -3.19914 -3.88155 0
M  V30 9025 H 852.072 -4.85802 -3.3056 0
M  V30 9026 H 853.596 -4.47402 -4.15528 0
M  V30 9027 H 855.01 -5.35024 -2.05966 0
M  V30 9028 H 853.407 -5.82832 -1.42924 0
M  V30 9029 H 854.477 -4.83003 -0.428471 0
M  V30 9030 N 855.82 0.285905 -1.54985 0
M  V30 9031 C 857.048 1.03776 -1.78992 0
M  V30 9032 C 857.463 1.80402 -0.556814 0
M  V30 9033 O 856.82 1.76242 0.473801 0
M  V30 9034 C 856.871 2.0065 -3.00702 0
M  V30 9035 O 856.592 1.27131 -4.19249 0
M  V30 9036 C 858.093 2.87753 -3.37214 0
M  V30 9037 H 855.313 0.307126 -0.596586 0
M  V30 9038 H 857.857 0.3206 -2.01971 0
M  V30 9039 H 856.012 2.67847 -2.79887 0
M  V30 9040 H 856.426 1.92316 -4.8797 0
M  V30 9041 H 857.9 3.51548 -4.2558 0
M  V30 9042 H 858.377 3.56848 -2.56039 0
M  V30 9043 H 858.983 2.26065 -3.60242 0
M  V30 9044 N 857.298 1.47698 0.54982 0
M  V30 9045 C 858.23 1.56806 1.67166 0
M  V30 9046 C 859.243 0.453709 1.5635 0
M  V30 9047 O 860.432 0.723663 1.63173 0
M  V30 9048 C 857.532 1.4632 3.05686 0
M  V30 9049 C 856.705 2.72452 3.42182 0
M  V30 9050 C 855.764 2.55698 4.59897 0
M  V30 9051 O 854.79 3.29534 4.64108 0
M  V30 9052 N 855.992 1.64009 5.56849 0
M  V30 9053 H 858.757 2.53545 1.59797 0
M  V30 9054 H 856.318 1.44171 0.736635 0
M  V30 9055 H 858.31 1.32835 3.82279 0
M  V30 9056 H 856.88 0.57634 3.07241 0
M  V30 9057 H 856.1 3.00644 2.54964 0
M  V30 9058 H 857.388 3.56172 3.63344 0
M  V30 9059 H 856.786 1.03186 5.5621 0
M  V30 9060 H 855.343 1.56473 6.3274 0
M  V30 9061 N 858.776 -0.797141 1.35954 0
M  V30 9062 C 859.724 -1.93084 1.29697 0
M  V30 9063 C 860.718 -1.68329 0.190152 0
M  V30 9064 O 861.924 -1.7643 0.3567 0
M  V30 9065 H 858.299 -0.634531 0.403577 0
M  V30 9066 H 860.27 -1.95481 2.25455 0
M  V30 9067 C 859.019 -3.29996 1.09536 0
M  V30 9068 H 858.342 -3.49607 1.93946 0
M  V30 9069 H 859.782 -4.09696 1.09202 0
M  V30 9070 C 858.241 -3.36304 -0.200381 0
M  V30 9071 O 858.771 -3.83579 -1.19291 0
M  V30 9072 N 856.977 -2.89587 -0.242406 0
M  V30 9073 H 856.524 -2.51307 0.565897 0
M  V30 9074 H 856.482 -2.94189 -1.10906 0
M  V30 9075 N 860.254 -1.20106 -1.0204 0
M  V30 9076 C 861.217 -0.948261 -2.08664 0
M  V30 9077 C 862.217 0.0746753 -1.60627 0
M  V30 9078 O 863.407 -0.160981 -1.73455 0
M  V30 9079 C 860.539 -0.426854 -3.38217 0
M  V30 9080 H 861.732 -1.894 -2.32524 0
M  V30 9081 H 859.285 -1.0159 -1.18782 0
M  V30 9082 H 860.02 0.524532 -3.2003 0
M  V30 9083 H 859.805 -1.16451 -3.74408 0
M  V30 9084 H 861.295 -0.269346 -4.1673 0
M  V30 9085 N 861.732 1.21287 -1.00634 0
M  V30 9086 C 862.978 1.90671 -0.690822 0
M  V30 9087 C 863.311 1.77996 0.776592 0
M  V30 9088 O 862.586 1.15748 1.5631 0
M  V30 9089 C 862.869 3.42426 -1.11428 0
M  V30 9090 C 862.722 3.64086 -2.64124 0
M  V30 9091 C 864.041 4.34851 -0.677686 0
M  V30 9092 H 861.16 0.692419 -0.252439 0
M  V30 9093 H 863.802 1.42893 -1.25226 0
M  V30 9094 H 861.952 3.83249 -0.636586 0
M  V30 9095 H 863.624 3.32582 -3.19667 0
M  V30 9096 H 861.867 3.07906 -3.05576 0
M  V30 9097 H 862.538 4.7042 -2.88806 0
M  V30 9098 H 865.014 4.01619 -1.0882 0
M  V30 9099 H 863.89 5.39675 -1.00213 0
M  V30 9100 H 864.151 4.4009 0.421125 0
M  V30 9101 N 863.21 0.781244 1.36873 0
M  V30 9102 C 864.435 0.360398 2.04245 0
M  V30 9103 C 864.86 -1.01242 1.58529 0
M  V30 9104 O 864.218 -1.65063 0.749936 0
M  V30 9105 C 864.266 0.42329 3.58107 0
M  V30 9106 O 863.37 -0.572796 4.08403 0
M  V30 9107 H 862.711 0.154386 0.645803 0
M  V30 9108 H 865.241 1.06008 1.74996 0
M  V30 9109 H 865.251 0.283967 4.07011 0
M  V30 9110 H 863.926 1.42477 3.90734 0
M  V30 9111 H 862.503 -0.395809 3.70793 0
M  V30 9112 N 864.689 -1.48329 0.532571 0
M  V30 9113 C 865.929 -2.044 0.00145618 0
M  V30 9114 C 866.293 -1.40053 -1.31336 0
M  V30 9115 O 867.494 -1.87026 -1.93066 0
M  V30 9116 C 865.765 -3.57214 -0.115376 0
M  V30 9117 S 867.324 -4.34731 -0.59618 0
M  V30 9118 H 864.142 -0.710876 0.0133038 0
M  V30 9119 H 866.744 -1.82006 0.71372 0
M  V30 9120 H 865.448 -4.01579 0.846335 0
M  V30 9121 H 864.979 -3.84065 -0.85194 0
M  V30 9122 H 866.994 -4.6001 -1.86025 0
M  V30 9123 N 866.167 -0.267825 -1.55308 0
M  V30 9124 C 867.578 0.231344 -1.85261 0
M  V30 9125 C 867.929 1.56006 -1.18982 0
M  V30 9126 O 867.054 2.1111 -0.475554 0
M  V30 9127 C 867.649 0.426537 -3.36104 0
M  V30 9128 C 866.208 0.869945 -3.66209 0
M  V30 9129 C 865.355 -0.0409522 -2.7727 0
M  V30 9130 H 868.306 -0.489821 -1.50952 0
M  V30 9131 H 868.327 1.26616 -3.58816 0
M  V30 9132 H 867.839 -0.540678 -3.84315 0
M  V30 9133 H 865.94 1.84889 -3.23492 0
M  V30 9134 H 866.053 0.712316 -4.73775 0
M  V30 9135 H 864.417 0.474097 -2.50249 0
M  V30 9136 H 865.2 -1.00392 -3.28293 0
M  V30 9137 N 867.645 1.57599 0.00500368 0
M  V30 9138 C 868.875 1.94344 0.700998 0
M  V30 9139 C 869.283 0.868011 1.68114 0
M  V30 9140 O 868.626 -0.16214 1.82983 0
M  V30 9141 C 868.688 3.27046 1.49268 0
M  V30 9142 C 868.352 4.51992 0.674684 0
M  V30 9143 C 869.349 5.19888 -0.0354833 0
M  V30 9144 C 867.034 4.98432 0.622129 0
M  V30 9145 C 869.028 6.3252 -0.787246 0
M  V30 9146 C 866.715 6.10954 -0.133362 0
M  V30 9147 C 867.713 6.77855 -0.836788 0
M  V30 9148 O 867.401 7.88221 -1.57996 0
M  V30 9149 H 867.133 0.645572 0.20053 0
M  V30 9150 H 869.687 2.0536 -0.040718 0
M  V30 9151 H 867.917 3.12424 2.27877 0
M  V30 9152 H 869.606 3.4894 2.07355 0
M  V30 9153 H 870.372 4.85 -0.00400159 0
M  V30 9154 H 866.251 4.46189 1.15917 0
M  V30 9155 H 869.795 6.84671 -1.33683 0
M  V30 9156 H 865.692 6.45285 -0.166682 0
M  V30 9157 H 866.46 8.0471 -1.49615 0
M  V30 9158 N 869.123 -0.277682 1.55134 0
M  V30 9159 C 870.053 -1.34742 1.90701 0
M  V30 9160 C 871.034 -1.51757 0.768354 0
M  V30 9161 O 872.219 -1.64879 1.02609 0
M  V30 9162 C 869.349 -2.70775 2.17481 0
M  V30 9163 C 868.303 -2.68497 3.33307 0
M  V30 9164 C 867.629 -4.08037 3.45557 0
M  V30 9165 C 868.929 -2.28178 4.69821 0
M  V30 9166 H 870.623 -1.05224 2.803 0
M  V30 9167 H 868.169 -0.504738 1.34864 0
M  V30 9168 H 870.122 -3.45719 2.40949 0
M  V30 9169 H 868.846 -3.01867 1.24676 0
M  V30 9170 H 867.505 -1.9601 3.09799 0
M  V30 9171 H 867.153 -4.36344 2.50226 0
M  V30 9172 H 866.853 -4.07409 4.23429 0
M  V30 9173 H 868.377 -4.84726 3.71312 0
M  V30 9174 H 869.791 -2.92843 4.92865 0
M  V30 9175 H 868.188 -2.3872 5.50575 0
M  V30 9176 H 869.258 -1.23308 4.6896 0
M  V30 9177 N 870.601 -1.47988 -0.541979 0
M  V30 9178 C 872.012 -1.49073 -1.12402 0
M  V30 9179 C 872.363 -0.253825 -1.94551 0
M  V30 9180 O 871.488 0.640056 -2.06718 0
M  V30 9181 C 872.083 -2.7011 -2.04514 0
M  V30 9182 C 870.642 -2.74105 -2.5796 0
M  V30 9183 C 869.789 -2.42409 -1.3466 0
M  V30 9184 H 872.74 -1.55277 -0.327818 0
M  V30 9185 H 872.761 -2.47946 -2.88623 0
M  V30 9186 H 872.273 -3.60117 -1.44697 0
M  V30 9187 H 870.374 -1.88276 -3.21532 0
M  V30 9188 H 870.487 -3.75213 -2.97913 0
M  V30 9189 H 868.851 -1.9331 -1.65841 0
M  V30 9190 H 869.634 -3.34642 -0.766133 0
M  V30 9191 N 872.079 0.78992 -1.36375 0
M  V30 9192 C 873.304 1.58389 -1.33895 0
M  V30 9193 C 873.729 1.8794 0.0774934 0
M  V30 9194 O 873.087 1.4785 1.0493 0
M  V30 9195 C 873.135 2.88201 -2.16732 0
M  V30 9196 O 872.239 3.81778 -1.55946 0
M  V30 9197 H 871.58 0.480471 -0.458305 0
M  V30 9198 H 874.11 0.979119 -1.79651 0
M  V30 9199 H 874.12 3.37475 -2.29292 0
M  V30 9200 H 872.795 2.66019 -3.19698 0
M  V30 9201 H 871.372 3.40371 -1.52323 0
M  V30 9202 N 873.557 1.20646 1.01402 0
M  V30 9203 C 874.505 0.954493 2.12114 0
M  V30 9204 C 875.499 -0.0950737 1.69133 0
M  V30 9205 O 876.705 0.0555153 1.79914 0
M  V30 9206 H 873.08 0.29135 0.693267 0
M  V30 9207 H 875.051 1.89447 2.30548 0
M  V30 9208 C 873.8 0.525944 3.43699 0
M  V30 9209 H 873.123 1.32516 3.772 0
M  V30 9210 H 874.563 0.388883 4.22213 0
M  V30 9211 C 873.022 -0.761997 3.28169 0
M  V30 9212 O 873.552 -1.81979 3.58115 0
M  V30 9213 N 871.758 -0.725017 2.8141 0
M  V30 9214 H 871.305 0.13607 2.5724 0
M  V30 9215 H 871.263 -1.5871 2.71401 0
M  V30 9216 N 875.035 -1.20752 1.01276 0
M  V30 9217 C 875.965 -2.25658 0.600064 0
M  V30 9218 C 876.946 -1.65733 -0.38298 0
M  V30 9219 O 878.131 -1.92324 -0.269256 0
M  V30 9220 C 875.261 -3.47237 -0.0663197 0
M  V30 9221 C 874.215 -4.1973 0.83731 0
M  V30 9222 C 873.541 -5.34687 0.0369102 0
M  V30 9223 C 874.841 -4.76286 2.14357 0
M  V30 9224 H 876.535 -2.60432 1.477 0
M  V30 9225 H 874.081 -1.25187 0.711634 0
M  V30 9226 H 876.034 -4.19803 -0.366563 0
M  V30 9227 H 874.758 -3.11615 -0.977944 0
M  V30 9228 H 873.417 -3.49024 1.1215 0
M  V30 9229 H 873.065 -4.95309 -0.876244 0
M  V30 9230 H 872.765 -5.84119 0.63865 0
M  V30 9231 H 874.289 -6.10059 -0.256968 0
M  V30 9232 H 875.703 -5.40691 1.90595 0
M  V30 9233 H 874.1 -5.36139 2.69583 0
M  V30 9234 H 875.17 -3.9524 2.80916 0
M  V30 9235 N 876.513 -0.788492 -1.36457 0
M  V30 9236 C 877.443 -0.200468 -2.32638 0
M  V30 9237 C 878.424 0.664031 -1.56603 0
M  V30 9238 O 879.609 0.598045 -1.84762 0
M  V30 9239 C 876.739 0.666274 -3.40849 0
M  V30 9240 C 875.693 -0.0982574 -4.27887 0
M  V30 9241 C 875.019 0.889018 -5.27258 0
M  V30 9242 C 876.319 -1.28692 -5.06197 0
M  V30 9243 H 878.013 -1.00399 -2.82065 0
M  V30 9244 H 875.559 -0.484237 -1.35614 0
M  V30 9245 H 877.512 1.08757 -4.07124 0
M  V30 9246 H 876.236 1.50249 -2.89987 0
M  V30 9247 H 874.895 -0.500525 -3.63167 0
M  V30 9248 H 874.543 1.72024 -4.7267 0
M  V30 9249 H 874.243 0.381909 -5.86358 0
M  V30 9250 H 875.767 1.30891 -5.96406 0
M  V30 9251 H 877.181 -0.941429 -5.65517 0
M  V30 9252 H 875.578 -1.72726 -5.74705 0
M  V30 9253 H 876.648 -2.08273 -4.37893 0
M  V30 9254 N 877.991 1.48044 -0.54043 0
M  V30 9255 C 878.938 2.29781 0.216597 0
M  V30 9256 C 879.908 1.38021 0.924094 0
M  V30 9257 O 881.093 1.66985 0.923078 0
M  V30 9258 C 878.233 3.21623 1.2511 0
M  V30 9259 C 877.346 4.28467 0.551384 0
M  V30 9260 C 876.481 5.07477 1.56972 0
M  V30 9261 C 875.52 6.06113 0.854048 0
M  V30 9262 N 874.657 6.78143 1.81842 0
M  V30 9263 H 879.497 2.94001 -0.486578 0
M  V30 9264 H 877.034 1.44929 -0.251789 0
M  V30 9265 H 878.992 3.73279 1.8633 0
M  V30 9266 H 877.622 2.59305 1.92252 0
M  V30 9267 H 876.674 3.79997 -0.174982 0
M  V30 9268 H 877.986 4.98799 -0.0100542 0
M  V30 9269 H 877.14 5.63199 2.25592 0
M  V30 9270 H 875.879 4.37008 2.16507 0
M  V30 9271 H 874.884 5.49585 0.153838 0
M  V30 9272 H 876.109 6.78584 0.264675 0
M  V30 9273 H 874.055 6.10417 2.40265 0
M  V30 9274 H 873.972 7.44587 1.3087 0
M  V30 9275 H 875.24 7.38448 2.49628 0
M  V30 9276 N 879.47 0.276058 1.55163 0
M  V30 9277 C 880.417 -0.611006 2.22565 0
M  V30 9278 C 881.387 -1.14902 1.19945 0
M  V30 9279 O 882.572 -1.19815 1.48489 0
M  V30 9280 C 879.712 -1.78885 2.95117 0
M  V30 9281 C 878.825 -1.2846 4.12458 0
M  V30 9282 C 877.96 -2.42432 4.72652 0
M  V30 9283 C 876.999 -1.89015 5.82185 0
M  V30 9284 N 876.136 -2.96463 6.36439 0
M  V30 9285 H 880.976 -0.0295849 2.97985 0
M  V30 9286 H 878.513 -0.00283607 1.471 0
M  V30 9287 H 880.471 -2.48121 3.35398 0
M  V30 9288 H 879.101 -2.34229 2.22119 0
M  V30 9289 H 878.153 -0.485312 3.77292 0
M  V30 9290 H 879.465 -0.853358 4.91446 0
M  V30 9291 H 878.619 -3.19659 5.15658 0
M  V30 9292 H 877.358 -2.88872 3.92943 0
M  V30 9293 H 876.363 -1.10267 5.38629 0
M  V30 9294 H 877.588 -1.43509 6.63763 0
M  V30 9295 H 875.534 -3.42283 5.59623 0
M  V30 9296 H 875.451 -2.57759 7.10701 0
M  V30 9297 H 876.719 -3.73663 6.84103 0
M  V30 9298 N 880.948 -1.576 0.00335426 0
M  V30 9299 C 882.195 -1.90713 -0.680791 0
M  V30 9300 C 882.523 -0.877263 -1.73592 0
M  V30 9301 O 881.778 0.117497 -1.95347 0
M  V30 9302 C 882.077 -3.3058 -1.35837 0
M  V30 9303 C 881.743 -4.48786 -0.436111 0
M  V30 9304 C 880.405 -4.80855 -0.182195 0
M  V30 9305 C 882.757 -5.20821 0.198677 0
M  V30 9306 C 880.085 -5.8233 0.714747 0
M  V30 9307 C 882.437 -6.23252 1.08351 0
M  V30 9308 C 881.101 -6.53776 1.34658 0
M  V30 9309 H 880.371 -0.697869 -0.249119 0
M  V30 9310 H 883.018 -1.91407 0.0596011 0
M  V30 9311 H 881.323 -3.26026 -2.17289 0
M  V30 9312 H 883.02 -3.53462 -1.89383 0
M  V30 9313 H 879.61 -4.23731 -0.644186 0
M  V30 9314 H 883.794 -4.96298 0.0155259 0
M  V30 9315 H 879.05 -6.04339 0.926529 0
M  V30 9316 H 883.224 -6.78199 1.58172 0
M  V30 9317 H 880.851 -7.32225 2.04328 0
M  V30 9318 N 882.426 0.269451 -1.5528 0
M  V30 9319 C 883.842 0.616827 -1.47199 0
M  V30 9320 C 884.042 1.89354 -0.68901 0
M  V30 9321 O 883.098 2.51631 -0.209287 0
M  V30 9322 C 884.411 0.740492 -2.9144 0
M  V30 9323 C 885.959 0.834312 -3.01676 0
M  V30 9324 C 886.434 0.989725 -4.47178 0
M  V30 9325 N 887.925 1.05516 -4.51022 0
M  V30 9326 C 888.66 1.19427 -5.60825 0
M  V30 9327 N 888.156 1.30035 -6.80487 0
M  V30 9328 N 889.949 1.22566 -5.48575 0
M  V30 9329 H 882.1 -0.568962 -2.04638 0
M  V30 9330 H 884.363 -0.193153 -0.928114 0
M  V30 9331 H 884.069 -0.127234 -3.5147 0
M  V30 9332 H 883.943 1.61965 -3.40657 0
M  V30 9333 H 886.33 1.6925 -2.4174 0
M  V30 9334 H 886.411 -0.0695298 -2.55705 0
M  V30 9335 H 886.055 0.136179 -5.07717 0
M  V30 9336 H 885.985 1.90827 -4.90808 0
M  V30 9337 H 888.476 0.985434 -3.64825 0
M  V30 9338 H 888.789 1.40494 -7.59922 0
M  V30 9339 H 887.134 1.27033 -6.83292 0
M  V30 9340 H 890.325 1.13911 -4.54029 0
M  V30 9341 H 890.498 1.33063 -6.34191 0
M  V30 9342 N 883.904 1.48273 0.534124 0
M  V30 9343 C 885.129 1.59988 1.31979 0
M  V30 9344 C 885.554 0.258824 1.86311 0
M  V30 9345 O 884.912 -0.768885 1.64188 0
M  V30 9346 C 884.96 2.64642 2.44943 0
M  V30 9347 O 884.064 2.21515 3.47858 0
M  V30 9348 H 883.405 0.536625 0.391063 0
M  V30 9349 H 885.935 1.94229 0.643135 0
M  V30 9350 H 885.945 2.85786 2.91187 0
M  V30 9351 H 884.62 3.62004 2.04758 0
M  V30 9352 H 883.197 2.10567 3.0776 0
M  V30 9353 N 885.382 -0.782676 1.36792 0
M  V30 9354 C 886.607 -1.57676 1.34733 0
M  V30 9355 C 887.032 -1.87979 -0.0675253 0
M  V30 9356 O 886.39 -1.48404 -1.04144 0
M  V30 9357 C 886.438 -2.87047 2.18257 0
M  V30 9358 O 885.542 -3.80946 1.57969 0
M  V30 9359 H 884.883 -0.478034 0.460846 0
M  V30 9360 H 887.413 -0.969578 1.80168 0
M  V30 9361 H 887.423 -3.36254 2.31079 0
M  V30 9362 H 886.098 -2.64319 3.21104 0
M  V30 9363 H 884.675 -3.39558 1.54126 0
M  V30 9364 N 886.86 -1.21182 -1.00761 0
M  V30 9365 C 888.088 -1.05335 -1.78079 0
M  V30 9366 C 888.503 0.396988 -1.84579 0
M  V30 9367 O 887.86 1.27548 -1.30529 0
M  V30 9368 C 887.911 -1.64089 -3.22113 0
M  V30 9369 O 887.632 -3.03448 -3.15992 0
M  V30 9370 C 889.133 -1.53318 -4.15943 0
M  V30 9371 H 886.353 -0.37005 -0.559736 0
M  V30 9372 H 888.897 -1.60463 -1.26775 0
M  V30 9373 H 887.052 -1.13059 -3.70535 0
M  V30 9374 H 887.466 -3.31492 -4.06465 0
M  V30 9375 H 888.94 -1.99174 -5.14814 0
M  V30 9376 H 889.417 -0.487166 -4.3649 0
M  V30 9377 H 890.023 -2.03582 -3.73409 0
M  V30 9378 N 888.338 1.20213 -1.01915 0
M  V30 9379 C 889.563 1.94163 -0.729076 0
M  V30 9380 C 889.988 1.74416 0.704323 0
M  V30 9381 O 889.346 1.0401 1.48498 0
M  V30 9382 C 889.394 3.44258 -1.07324 0
M  V30 9383 O 888.498 4.11979 -0.186367 0
M  V30 9384 H 887.839 0.606506 -0.270272 0
M  V30 9385 H 890.369 1.52571 -1.3632 0
M  V30 9386 H 890.379 3.94888 -1.02603 0
M  V30 9387 H 889.054 3.57954 -2.11759 0
M  V30 9388 H 887.631 3.7176 -0.291334 0
M  V30 9389 N 889.816 0.795718 1.36037 0
M  V30 9390 C 891.041 0.38204 2.03851 0
M  V30 9391 C 891.466 -0.995553 1.59594 0
M  V30 9392 O 890.824 -1.64258 0.767401 0
M  V30 9393 C 890.872 0.461248 3.57638 0
M  V30 9394 O 889.976 -0.529448 4.08987 0
M  V30 9395 H 889.317 0.161227 0.644129 0
M  V30 9396 H 891.847 1.07858 1.73861 0
M  V30 9397 H 891.857 0.32712 4.06687 0
M  V30 9398 H 890.532 1.46613 3.89201 0
M  V30 9399 H 889.109 -0.35646 3.71192 0
M  V30 9400 N 891.294 -1.47756 0.548274 0
M  V30 9401 C 892.519 -2.07387 0.023475 0
M  V30 9402 C 892.944 -1.39956 -1.25674 0
M  V30 9403 O 892.302 -0.471543 -1.7506 0
M  V30 9404 C 892.35 -3.60224 -0.164669 0
M  V30 9405 O 891.454 -3.93653 -1.22928 0
M  V30 9406 H 890.795 -0.662312 0.0473156 0
M  V30 9407 H 893.325 -1.89905 0.761409 0
M  V30 9408 H 893.335 -4.06211 -0.38166 0
M  V30 9409 H 892.01 -4.08702 0.770425 0
M  V30 9410 H 890.587 -3.59422 -0.993495 0
M  V30 9411 N 892.772 -0.284283 -1.55015 0
M  V30 9412 C 893.702 0.592663 -2.25853 0
M  V30 9413 C 894.683 1.15151 -1.25197 0
M  V30 9414 O 895.868 1.18395 -1.53936 0
M  V30 9415 C 892.998 1.77254 -2.98661 0
M  V30 9416 C 891.952 1.34482 -4.06323 0
M  V30 9417 C 891.278 2.60853 -4.66754 0
M  V30 9418 C 892.578 0.488288 -5.20013 0
M  V30 9419 H 894.272 0.00187041 -2.994 0
M  V30 9420 H 891.818 -0.000540402 -1.44 0
M  V30 9421 H 893.771 2.39199 -3.46932 0
M  V30 9422 H 892.495 2.38931 -2.22664 0
M  V30 9423 H 891.154 0.748519 -3.58877 0
M  V30 9424 H 890.802 3.20808 -3.87416 0
M  V30 9425 H 890.502 2.32942 -5.39455 0
M  V30 9426 H 892.026 3.23631 -5.1778 0
M  V30 9427 H 893.44 1.01298 -5.6428 0
M  V30 9428 H 891.837 0.303669 -5.99331 0
M  V30 9429 H 892.907 -0.490727 -4.8241 0
M  V30 9430 N 894.251 1.57596 -0.0117121 0
M  V30 9431 C 895.499 1.90694 0.669342 0
M  V30 9432 C 895.82 0.886999 1.73659 0
M  V30 9433 O 895.09 -0.0739779 1.9576 0
M  V30 9434 H 893.67 0.703846 0.250219 0
M  V30 9435 H 896.332 1.94821 -0.0554057 0
M  V30 9436 H 895.428 2.90802 1.13316 0
M  V30 9437 N 895.729 -0.261212 1.5542 0
M  V30 9438 C 897.006 -1.01321 1.67312 0
M  V30 9439 C 897.386 -2.0388 0.547356 0
M  V30 9440 O 896.734 -2.24003 -0.451083 0
M  V30 9441 C 896.944 -1.65943 3.07024 0
M  V30 9442 C 898.292 -2.16666 3.65159 0
M  V30 9443 O 899.316 -1.75909 3.09733 0
M  V30 9444 O 898.175 -2.91455 4.62294 0
M  V30 9445 H 895.269 -0.470714 0.679968 0
M  V30 9446 H 897.815 -0.256133 1.67756 0
M  V30 9447 H 896.587 -0.916868 3.80407 0
M  V30 9448 H 896.21 -2.48308 3.1053 0
M  V30 9449 N 897.207 -1.48554 -0.526253 0
M  V30 9450 C 898.154 -1.63354 -1.63046 0
M  V30 9451 C 899.124 -0.475509 -1.59148 0
M  V30 9452 O 900.309 -0.699453 -1.77517 0
M  V30 9453 C 897.449 -1.68271 -3.01295 0
M  V30 9454 C 896.562 -2.95207 -3.15399 0
M  V30 9455 C 895.697 -2.91262 -4.4423 0
M  V30 9456 C 894.736 -4.12886 -4.51876 0
M  V30 9457 N 893.873 -4.06996 -5.721 0
M  V30 9458 H 898.713 -2.57649 -1.49737 0
M  V30 9459 H 896.25 -1.27769 -0.728938 0
M  V30 9460 H 898.208 -1.69104 -3.81392 0
M  V30 9461 H 896.838 -0.774641 -3.13367 0
M  V30 9462 H 895.89 -3.04102 -2.2853 0
M  V30 9463 H 897.202 -3.85187 -3.1691 0
M  V30 9464 H 896.356 -2.90516 -5.32621 0
M  V30 9465 H 895.095 -1.99016 -4.45246 0
M  V30 9466 H 894.1 -4.13902 -3.61891 0
M  V30 9467 H 895.325 -5.06294 -4.52596 0
M  V30 9468 H 893.271 -3.17573 -5.74006 0
M  V30 9469 H 893.188 -4.90685 -5.75121 0
M  V30 9470 H 894.456 -4.10315 -6.62768 0
M  V30 9471 N 898.685 0.775411 -1.37205 0
M  V30 9472 C 899.91 1.5696 -1.35567 0
M  V30 9473 C 900.335 1.88012 0.0575554 0
M  V30 9474 O 899.693 1.48954 1.03355 0
M  V30 9475 C 899.741 2.85886 -2.19776 0
M  V30 9476 O 898.845 3.80103 -1.59987 0
M  V30 9477 H 898.186 0.475583 -0.463375 0
M  V30 9478 H 900.716 0.96001 -1.80679 0
M  V30 9479 H 900.726 3.35024 -2.32859 0
M  V30 9480 H 899.401 2.62613 -3.22502 0
M  V30 9481 H 897.978 3.38736 -1.55924 0
M  V30 9482 N 900.163 1.21714 1.00117 0
M  V30 9483 C 901.073 0.99597 2.12409 0
M  V30 9484 C 902.089 -0.0531431 1.73919 0
M  V30 9485 O 903.265 0.137757 2.00928 0
M  V30 9486 C 900.33 0.567593 3.42022 0
M  V30 9487 C 899.391 1.68936 3.94663 0
M  V30 9488 C 898.624 1.28133 5.1809 0
M  V30 9489 O 898.847 0.156574 5.70185 0
M  V30 9490 O 897.781 2.0947 5.64275 0
M  V30 9491 H 901.607 1.93657 2.33946 0
M  V30 9492 H 899.192 1.00236 1.10784 0
M  V30 9493 H 901.074 0.338664 4.20037 0
M  V30 9494 H 899.749 -0.34424 3.21864 0
M  V30 9495 H 898.656 1.97274 3.17858 0
M  V30 9496 H 899.989 2.57876 4.19238 0
M  V30 9497 N 901.641 -1.19671 1.02551 0
M  V30 9498 C 902.871 -1.92952 0.738441 0
M  V30 9499 C 903.279 -1.75528 -0.706155 0
M  V30 9500 O 902.622 -1.0723 -1.49156 0
M  V30 9501 C 902.684 -3.45149 1.00562 0
M  V30 9502 C 902.348 -3.86341 2.44109 0
M  V30 9503 C 903.345 -3.91374 3.42231 0
M  V30 9504 C 901.03 -4.18076 2.7842 0
M  V30 9505 C 903.024 -4.27568 4.7272 0
M  V30 9506 C 900.711 -4.53943 4.0912 0
M  V30 9507 C 901.709 -4.58663 5.06081 0
M  V30 9508 O 901.397 -4.93701 6.3444 0
M  V30 9509 H 901.129 -0.619836 0.269776 0
M  V30 9510 H 903.683 -1.52852 1.37206 0
M  V30 9511 H 901.913 -3.85416 0.314849 0
M  V30 9512 H 903.602 -3.99664 0.708742 0
M  V30 9513 H 904.368 -3.67011 3.17061 0
M  V30 9514 H 900.247 -4.13589 2.03631 0
M  V30 9515 H 903.791 -4.31166 5.48399 0
M  V30 9516 H 899.688 -4.77764 4.34064 0
M  V30 9517 H 900.456 -5.11662 6.38862 0
M  V30 9518 N 903.119 -0.802921 -1.35613 0
M  V30 9519 C 904.049 -0.225131 -2.32412 0
M  V30 9520 C 905.03 0.647383 -1.57299 0
M  V30 9521 O 906.215 0.578414 -1.85386 0
M  V30 9522 C 903.345 0.630085 -3.41537 0
M  V30 9523 C 902.299 -0.143635 -4.27759 0
M  V30 9524 C 901.625 0.833046 -5.28171 0
M  V30 9525 C 902.925 -1.34054 -5.04804 0
M  V30 9526 H 904.619 -1.03385 -2.80984 0
M  V30 9527 H 902.165 -0.498593 -1.35093 0
M  V30 9528 H 904.118 1.04433 -4.08254 0
M  V30 9529 H 902.842 1.47165 -2.91565 0
M  V30 9530 H 901.501 -0.539015 -3.62616 0
M  V30 9531 H 901.149 1.67001 -4.74468 0
M  V30 9532 H 900.849 0.319697 -5.8673 0
M  V30 9533 H 902.373 1.24558 -5.97761 0
M  V30 9534 H 903.787 -1.00136 -5.64487 0
M  V30 9535 H 902.184 -1.78812 -5.72841 0
M  V30 9536 H 903.254 -2.12906 -4.35659 0
M  V30 9537 N 904.597 1.47463 -0.556102 0
M  V30 9538 C 905.507 2.33785 0.195378 0
M  V30 9539 C 906.523 1.48123 0.913 0
M  V30 9540 O 907.699 1.81053 0.882141 0
M  V30 9541 C 904.764 3.24795 1.21282 0
M  V30 9542 C 903.825 4.26346 0.502747 0
M  V30 9543 C 903.058 5.13007 1.47172 0
M  V30 9544 O 903.281 5.02103 2.70646 0
M  V30 9545 O 902.215 5.93588 0.996814 0
M  V30 9546 H 906.041 2.99341 -0.512676 0
M  V30 9547 H 903.626 1.46004 -0.31673 0
M  V30 9548 H 905.508 3.81015 1.80016 0
M  V30 9549 H 904.183 2.61868 1.90282 0
M  V30 9550 H 903.09 3.73889 -0.125757 0
M  V30 9551 H 904.423 4.91984 -0.145779 0
M  V30 9552 N 906.075 0.2925 1.54862 0
M  V30 9553 C 907.008 -0.629155 2.19356 0
M  V30 9554 C 907.986 -1.13927 1.16014 0
M  V30 9555 O 909.17 -1.20904 1.44618 0
M  V30 9556 C 906.297 -1.8599 2.83064 0
M  V30 9557 C 905.343 -1.48376 3.99859 0
M  V30 9558 S 906.176 -0.546976 5.32699 0
M  V30 9559 C 907.332 -1.7857 5.99886 0
M  V30 9560 H 907.565 -0.0812166 2.97189 0
M  V30 9561 H 905.098 0.0766721 1.5421 0
M  V30 9562 H 907.056 -2.56623 3.20398 0
M  V30 9563 H 905.717 -2.37899 2.05092 0
M  V30 9564 H 904.91 -2.40002 4.43187 0
M  V30 9565 H 904.512 -0.857447 3.64038 0
M  V30 9566 H 906.804 -2.7274 6.20177 0
M  V30 9567 H 907.747 -1.39513 6.9422 0
M  V30 9568 H 908.155 -1.95856 5.29434 0
M  V30 9569 N 907.553 -1.57587 0.0200696 0
M  V30 9570 C 908.463 -2.13119 -0.980676 0
M  V30 9571 C 909.479 -1.08124 -1.36328 0
M  V30 9572 O 910.655 -1.40134 -1.44653 0
M  V30 9573 C 907.72 -2.63991 -2.24743 0
M  V30 9574 C 906.781 -3.83667 -1.9261 0
M  V30 9575 C 906.014 -4.32103 -3.13246 0
M  V30 9576 O 906.237 -3.79758 -4.25606 0
M  V30 9577 O 905.171 -5.24047 -2.96072 0
M  V30 9578 H 908.997 -2.98887 -0.538528 0
M  V30 9579 H 906.582 -1.48055 -0.19999 0
M  V30 9580 H 908.464 -2.9682 -2.99125 0
M  V30 9581 H 907.139 -1.81311 -2.68157 0
M  V30 9582 H 906.046 -3.55778 -1.15641 0
M  V30 9583 H 907.379 -4.67482 -1.54019 0
M  V30 9584 N 909.032 0.252966 -1.55557 0
M  V30 9585 C 909.942 1.33472 -1.92931 0
M  V30 9586 C 910.958 1.52983 -0.828985 0
M  V30 9587 O 912.134 1.66723 -1.12984 0
M  V30 9588 C 909.199 2.6704 -2.21112 0
M  V30 9589 C 908.26 2.56103 -3.44542 0
M  V30 9590 C 907.493 3.83302 -3.71369 0
M  V30 9591 O 907.716 4.84907 -3.00368 0
M  V30 9592 O 906.65 3.823 -4.64898 0
M  V30 9593 H 910.476 1.04768 -2.85057 0
M  V30 9594 H 908.061 0.453208 -1.4236 0
M  V30 9595 H 909.943 3.45981 -2.40572 0
M  V30 9596 H 908.618 2.95489 -1.32166 0
M  V30 9597 H 907.525 1.7547 -3.30396 0
M  V30 9598 H 908.858 2.32601 -4.33772 0
M  V30 9599 N 910.51 1.48831 0.518367 0
M  V30 9600 C 911.758 1.57128 1.27103 0
M  V30 9601 C 912.079 0.252098 1.93364 0
M  V30 9602 O 911.349 -0.727281 1.819 0
M  V30 9603 H 909.929 0.578891 0.472116 0
M  V30 9604 H 912.591 1.85361 0.602262 0
M  V30 9605 H 911.687 2.35838 2.04418 0
M  V30 9606 N 911.988 -0.768124 1.37614 0
M  V30 9607 C 913.234 -1.52907 1.33219 0
M  V30 9608 C 913.567 -1.94026 -0.0821218 0
M  V30 9609 O 912.842 -1.64345 -1.04023 0
M  V30 9610 C 913.125 -2.79164 2.27463 0
M  V30 9611 C 912.978 -2.44276 3.7769 0
M  V30 9612 C 914.297 -3.81115 2.20089 0
M  V30 9613 H 911.416 -0.554712 0.485246 0
M  V30 9614 H 914.058 -0.880911 1.68345 0
M  V30 9615 H 912.208 -3.34472 1.97639 0
M  V30 9616 H 913.88 -1.94855 4.18126 0
M  V30 9617 H 912.123 -1.76925 3.96081 0
M  V30 9618 H 912.794 -3.34544 4.39072 0
M  V30 9619 H 915.27 -3.35311 2.46386 0
M  V30 9620 H 914.146 -4.67174 2.88166 0
M  V30 9621 H 914.407 -4.25644 1.19498 0
M  V30 9622 N 913.466 -1.22244 -0.994698 0
M  V30 9623 C 914.413 -0.990906 -2.08446 0
M  V30 9624 C 915.383 0.086737 -1.65873 0
M  V30 9625 O 916.568 -0.0624882 -1.90698 0
M  V30 9626 C 913.708 -0.572813 -3.40313 0
M  V30 9627 C 912.821 -1.72103 -3.96238 0
M  V30 9628 C 911.956 -1.2511 -5.16257 0
M  V30 9629 C 910.995 -2.37098 -5.64315 0
M  V30 9630 N 910.132 -1.91164 -6.75574 0
M  V30 9631 H 914.972 -1.92377 -2.27585 0
M  V30 9632 H 912.509 -0.958576 -1.11578 0
M  V30 9633 H 914.467 -0.311594 -4.16035 0
M  V30 9634 H 913.097 0.323044 -3.21179 0
M  V30 9635 H 912.149 -2.09662 -3.17405 0
M  V30 9636 H 913.461 -2.56347 -4.27888 0
M  V30 9637 H 912.615 -0.947152 -5.99261 0
M  V30 9638 H 911.354 -0.378836 -4.86226 0
M  V30 9639 H 910.359 -2.68283 -4.799 0
M  V30 9640 H 911.584 -3.24837 -5.96371 0
M  V30 9641 H 909.53 -1.06298 -6.47331 0
M  V30 9642 H 909.447 -2.68975 -7.06533 0
M  V30 9643 H 910.715 -1.63833 -7.62088 0
M  V30 9644 N 914.944 1.19125 -1.03184 0
M  V30 9645 C 915.854 2.26112 -0.625329 0
M  V30 9646 C 916.87 1.7056 0.344298 0
M  V30 9647 O 918.046 2.0039 0.20144 0
M  V30 9648 C 915.111 3.46697 0.0145169 0
M  V30 9649 C 914.172 4.17419 -1.00299 0
M  V30 9650 C 913.405 5.32247 -0.393581 0
M  V30 9651 O 913.628 5.64724 0.802659 0
M  V30 9652 O 912.562 5.91428 -1.1179 0
M  V30 9653 H 916.388 2.63131 -1.51643 0
M  V30 9654 H 913.973 1.26036 -0.802197 0
M  V30 9655 H 915.855 4.19762 0.371139 0
M  V30 9656 H 914.53 3.11521 0.879581 0
M  V30 9657 H 913.437 3.4646 -1.41125 0
M  V30 9658 H 914.77 4.56573 -1.83852 0
M  V30 9659 N 916.422 0.810101 1.35185 0
M  V30 9660 C 917.647 0.40364 2.03434 0
M  V30 9661 C 918.072 -0.97857 1.60641 0
M  V30 9662 O 917.43 -1.63435 0.784779 0
M  V30 9663 C 917.478 0.499154 3.57129 0
M  V30 9664 O 916.582 -0.486039 4.09526 0
M  V30 9665 H 915.923 0.168049 0.642383 0
M  V30 9666 H 918.453 1.09696 1.72708 0
M  V30 9667 H 918.463 0.370236 4.06317 0
M  V30 9668 H 917.138 1.50733 3.87624 0
M  V30 9669 H 915.715 -0.31707 3.7155 0
M  V30 9670 N 917.9 -1.47166 0.563914 0
M  V30 9671 C 918.83 -2.32894 -0.168148 0
M  V30 9672 C 919.811 -1.44202 -0.902214 0
M  V30 9673 O 920.996 -1.73048 -0.881365 0
M  V30 9674 C 918.126 -3.26116 -1.19439 0
M  V30 9675 C 917.08 -4.24101 -0.576363 0
M  V30 9676 C 916.406 -5.06696 -1.70772 0
M  V30 9677 C 917.706 -5.20142 0.47425 0
M  V30 9678 H 919.4 -2.9435 0.547573 0
M  V30 9679 H 916.946 -1.41545 0.264778 0
M  V30 9680 H 918.899 -3.84935 -1.71474 0
M  V30 9681 H 917.623 -2.62728 -1.94014 0
M  V30 9682 H 916.282 -3.66519 -0.0772534 0
M  V30 9683 H 915.93 -4.39707 -2.44268 0
M  V30 9684 H 915.63 -5.7304 -1.29994 0
M  V30 9685 H 917.154 -5.68375 -2.2312 0
M  V30 9686 H 918.568 -5.73286 0.0397035 0
M  V30 9687 H 916.965 -5.94726 0.801287 0
M  V30 9688 H 918.035 -4.65214 1.36764 0
M  V30 9689 N 919.378 -0.300708 -1.54705 0
M  V30 9690 C 920.618 0.30953 -2.02043 0
M  V30 9691 C 920.982 1.51114 -1.18442 0
M  V30 9692 O 922.183 2.19273 -1.55477 0
M  V30 9693 C 920.454 0.657489 -3.513 0
M  V30 9694 S 922.013 1.25063 -4.206 0
M  V30 9695 H 918.831 0.0950019 -0.704624 0
M  V30 9696 H 921.433 -0.428512 -1.90746 0
M  V30 9697 H 920.137 -0.225532 -4.0978 0
M  V30 9698 H 919.668 1.42633 -3.66633 0
M  V30 9699 H 921.683 2.53844 -4.26354 0
M  V30 9700 N 920.856 1.57574 -0.0284266 0
M  V30 9701 C 921.819 2.09096 0.938691 0
M  V30 9702 C 922.819 1.00588 1.25454 0
M  V30 9703 O 924.009 1.2675 1.19499 0
M  V30 9704 C 921.141 2.55624 2.25542 0
M  V30 9705 H 922.334 2.95829 0.49248 0
M  V30 9706 H 919.887 1.5475 0.219594 0
M  V30 9707 H 920.622 1.72218 2.74793 0
M  V30 9708 H 920.407 3.34896 2.03929 0
M  V30 9709 H 921.897 2.95712 2.94863 0
M  V30 9710 N 922.334 -0.244713 1.55689 0
M  V30 9711 C 923.281 -1.30301 1.905 0
M  V30 9712 C 924.251 -1.4772 0.759478 0
M  V30 9713 O 925.436 -1.61667 1.01333 0
M  V30 9714 C 922.576 -2.653 2.20703 0
M  V30 9715 C 921.689 -2.55872 3.48071 0
M  V30 9716 C 920.824 -3.83238 3.67834 0
M  V30 9717 C 919.863 -3.68436 4.88796 0
M  V30 9718 N 919 -4.877 5.05068 0
M  V30 9719 H 923.84 -0.999143 2.80751 0
M  V30 9720 H 921.377 -0.482099 1.38976 0
M  V30 9721 H 923.335 -3.43884 2.36219 0
M  V30 9722 H 921.965 -2.93831 1.33653 0
M  V30 9723 H 921.017 -1.68846 3.40874 0
M  V30 9724 H 922.329 -2.40845 4.36801 0
M  V30 9725 H 921.483 -4.70266 3.83321 0
M  V30 9726 H 920.222 -4.01165 2.77341 0
M  V30 9727 H 919.227 -2.79793 4.73282 0
M  V30 9728 H 920.452 -3.52003 5.8075 0
M  V30 9729 H 918.398 -5.05983 4.17513 0
M  V30 9730 H 918.315 -4.75312 5.8789 0
M  V30 9731 H 919.583 -5.76219 5.24969 0
M  V30 9732 N 923.813 -1.49104 -0.510467 0
M  V30 9733 C 924.723 -1.67792 -1.6396 0
M  V30 9734 C 925.739 -0.560454 -1.64727 0
M  V30 9735 O 926.915 -0.833985 -1.83321 0
M  V30 9736 C 923.98 -1.73154 -3.00364 0
M  V30 9737 C 923.041 -2.9667 -3.10299 0
M  V30 9738 C 922.274 -3.01767 -4.40196 0
M  V30 9739 O 922.497 -2.1472 -5.28443 0
M  V30 9740 O 921.431 -3.94137 -4.54906 0
M  V30 9741 H 925.257 -2.63428 -1.51126 0
M  V30 9742 H 922.842 -1.32734 -0.685719 0
M  V30 9743 H 924.724 -1.79089 -3.81451 0
M  V30 9744 H 923.399 -0.806952 -3.1348 0
M  V30 9745 H 922.306 -2.96257 -2.28435 0
M  V30 9746 H 923.639 -3.88578 -3.02106 0
M  V30 9747 N 925.291 0.760815 -1.38019 0
M  V30 9748 C 926.201 1.90526 -1.36884 0
M  V30 9749 C 927.217 1.71941 -0.266908 0
M  V30 9750 O 928.393 1.94988 -0.50413 0
M  V30 9751 C 925.458 3.25799 -1.18558 0
M  V30 9752 C 924.519 3.56961 -2.3849 0
M  V30 9753 C 923.752 4.8578 -2.21029 0
M  V30 9754 O 923.975 5.57629 -1.20023 0
M  V30 9755 O 922.909 5.16254 -3.0946 0
M  V30 9756 H 926.735 1.94437 -2.33298 0
M  V30 9757 H 924.32 0.905091 -1.18863 0
M  V30 9758 H 926.202 4.0669 -1.1037 0
M  V30 9759 H 924.877 3.22716 -0.252241 0
M  V30 9760 H 923.784 2.7626 -2.52252 0
M  V30 9761 H 925.117 3.64798 -3.30429 0
M  V30 9762 N 926.769 1.22769 0.988202 0
M  V30 9763 C 927.716 1.00195 2.07917 0
M  V30 9764 C 928.686 -0.0779391 1.65917 0
M  V30 9765 O 929.871 0.0726005 1.90662 0
M  V30 9766 C 927.011 0.590853 3.40004 0
M  V30 9767 C 926.124 1.74202 3.9532 0
M  V30 9768 C 925.259 1.27846 5.15586 0
M  V30 9769 C 924.298 2.40087 5.63049 0
M  V30 9770 N 923.435 1.94744 6.74551 0
M  V30 9771 H 928.275 1.93581 2.26562 0
M  V30 9772 H 925.812 0.96448 1.11068 0
M  V30 9773 H 927.77 0.333653 4.15864 0
M  V30 9774 H 926.4 -0.306007 3.21346 0
M  V30 9775 H 925.452 2.11342 3.16289 0
M  V30 9776 H 926.764 2.58612 4.26522 0
M  V30 9777 H 925.918 0.978919 5.9875 0
M  V30 9778 H 924.657 0.404617 4.86019 0
M  V30 9779 H 923.662 2.70824 4.78471 0
M  V30 9780 H 924.887 3.27995 5.9464 0
M  V30 9781 H 922.833 1.09729 6.46758 0
M  V30 9782 H 922.75 2.72718 7.05096 0
M  V30 9783 H 924.018 1.67873 7.61209 0
M  V30 9784 N 928.247 -1.18576 1.03814 0
M  V30 9785 C 929.487 -1.90187 0.748882 0
M  V30 9786 C 929.851 -1.78383 -0.710177 0
M  V30 9787 O 931.052 -2.44678 -1.11293 0
M  V30 9788 C 929.323 -3.36688 1.19901 0
M  V30 9789 S 930.882 -4.26419 1.03501 0
M  V30 9790 H 927.7 -0.656765 0.272362 0
M  V30 9791 H 930.302 -1.43296 1.32991 0
M  V30 9792 H 929.006 -3.42808 2.25635 0
M  V30 9793 H 928.537 -3.88616 0.611669 0
M  V30 9794 H 930.552 -4.96176 -0.0490431 0
M  V30 9795 N 929.725 -0.817259 -1.34754 0
M  V30 9796 C 930.657 -0.192695 -2.28389 0
M  V30 9797 C 931.67 0.614167 -1.50771 0
M  V30 9798 O 932.859 0.444776 -1.7287 0
M  V30 9799 C 929.959 0.748929 -3.30521 0
M  V30 9800 C 929.132 -0.0138762 -4.37398 0
M  V30 9801 C 928.191 0.847825 -5.19325 0
M  V30 9802 O 927.217 0.29487 -5.68436 0
M  V30 9803 N 928.419 2.16843 -5.38479 0
M  V30 9804 H 931.184 -0.997122 -2.82626 0
M  V30 9805 H 928.745 -0.673696 -1.47217 0
M  V30 9806 H 930.737 1.32987 -3.82226 0
M  V30 9807 H 929.307 1.45412 -2.7672 0
M  V30 9808 H 928.527 -0.776093 -3.86485 0
M  V30 9809 H 929.815 -0.539191 -5.05935 0
M  V30 9810 H 929.213 2.64148 -5.00242 0
M  V30 9811 H 927.77 2.69835 -5.93323 0
M  V30 9812 N 931.203 1.46865 -0.571711 0
M  V30 9813 C 932.451 2.0203 -0.0530022 0
M  V30 9814 C 932.772 1.44687 1.30731 0
M  V30 9815 O 932.042 0.627429 1.85581 0
M  V30 9816 H 930.622 0.746815 -0.0166035 0
M  V30 9817 H 933.284 1.80099 -0.745003 0
M  V30 9818 H 932.38 3.12091 0.0242538 0
M  V30 9819 N 932.681 0.308908 1.54543 0
M  V30 9820 C 933.628 -0.563659 2.23811 0
M  V30 9821 C 934.598 -1.12332 1.22355 0
M  V30 9822 O 935.783 -1.16638 1.50997 0
M  V30 9823 C 932.923 -1.72585 2.98845 0
M  V30 9824 C 932.036 -1.19682 4.1509 0
M  V30 9825 C 931.171 -2.32351 4.77688 0
M  V30 9826 C 930.21 -1.76623 5.86064 0
M  V30 9827 N 929.347 -2.82896 6.42584 0
M  V30 9828 H 934.187 0.0336288 2.97981 0
M  V30 9829 H 931.724 0.0283666 1.47073 0
M  V30 9830 H 933.682 -2.40951 3.40586 0
M  V30 9831 H 932.312 -2.29464 2.27037 0
M  V30 9832 H 931.364 -0.405173 3.78236 0
M  V30 9833 H 932.676 -0.748923 4.93146 0
M  V30 9834 H 931.83 -3.0865 5.22322 0
M  V30 9835 H 930.569 -2.80472 3.98982 0
M  V30 9836 H 929.574 -0.988171 5.40847 0
M  V30 9837 H 930.799 -1.29398 6.66658 0
M  V30 9838 H 928.745 -3.30336 5.66758 0
M  V30 9839 H 928.662 -2.42626 7.16009 0
M  V30 9840 H 929.93 -3.59068 6.91875 0
M  V30 9841 N 934.159 -1.57557 0.0367827 0
M  V30 9842 C 935.407 -1.91735 -0.63892 0
M  V30 9843 C 935.728 -0.914515 -1.72226 0
M  V30 9844 O 934.998 0.0428248 -1.95853 0
M  V30 9845 H 933.578 -0.707738 -0.23899 0
M  V30 9846 H 936.24 -1.94708 0.0863931 0
M  V30 9847 H 935.336 -2.92568 -1.08676 0
M  V30 9848 N 935.637 0.236453 -1.55816 0
M  V30 9849 C 936.914 0.986463 -1.68903 0
M  V30 9850 C 937.294 2.02984 -0.579722 0
M  V30 9851 O 936.642 2.24693 0.415389 0
M  V30 9852 C 936.852 1.61038 -3.09625 0
M  V30 9853 C 938.2 2.10829 -3.6856 0
M  V30 9854 O 939.224 1.7096 -3.12492 0
M  V30 9855 O 938.083 2.84064 -4.66873 0
M  V30 9856 H 935.177 0.459837 -0.687371 0
M  V30 9857 H 937.723 0.229412 -1.68142 0
M  V30 9858 H 936.495 0.856232 -3.81817 0
M  V30 9859 H 936.118 2.43336 -3.14441 0
M  V30 9860 N 937.115 1.49373 0.502552 0
M  V30 9861 C 938.392 1.49282 1.26389 0
M  V30 9862 C 938.772 0.219674 2.09954 0
M  V30 9863 O 938.12 -0.797991 2.14113 0
M  V30 9864 C 938.33 2.77083 2.12194 0
M  V30 9865 C 939.678 3.26511 2.71433 0
M  V30 9866 O 940.702 2.78189 2.22462 0
M  V30 9867 O 939.561 4.10665 3.60578 0
M  V30 9868 H 936.655 0.597415 0.57186 0
M  V30 9869 H 939.201 1.61634 0.516951 0
M  V30 9870 H 937.973 3.61237 1.50411 0
M  V30 9871 H 937.596 2.67583 2.94084 0
M  V30 9872 N 938.594 -0.753485 1.38421 0
M  V30 9873 C 939.819 -1.54783 1.38047 0
M  V30 9874 C 940.244 -1.8808 -0.0276371 0
M  V30 9875 O 939.602 -1.5058 -1.00973 0
M  V30 9876 C 939.65 -2.82353 2.24297 0
M  V30 9877 O 938.754 -3.77509 1.66014 0
M  V30 9878 H 938.095 -0.468151 0.470883 0
M  V30 9879 H 940.625 -0.931144 1.82184 0
M  V30 9880 H 940.635 -3.31277 2.38159 0
M  V30 9881 H 939.31 -2.57449 3.26639 0
M  V30 9882 H 937.887 -3.36212 1.61294 0
M  V30 9883 N 940.072 -1.23292 -0.981677 0
M  V30 9884 C 940.982 -1.02964 -2.10798 0
M  V30 9885 C 941.998 0.0254674 -1.73981 0
M  V30 9886 O 943.174 -0.169706 -2.00684 0
M  V30 9887 C 940.239 -0.621934 -3.41076 0
M  V30 9888 C 939.3 -1.75194 -3.91926 0
M  V30 9889 C 938.533 -1.36359 -5.15986 0
M  V30 9890 O 938.756 -0.247265 -5.69864 0
M  V30 9891 O 937.69 -2.18421 -5.60871 0
M  V30 9892 H 941.516 -1.97354 -2.30836 0
M  V30 9893 H 939.101 -1.01986 -1.09175 0
M  V30 9894 H 940.983 -0.405446 -4.19445 0
M  V30 9895 H 939.658 0.29299 -3.22371 0
M  V30 9896 H 938.565 -2.02305 -3.1468 0
M  V30 9897 H 939.898 -2.64513 -4.15083 0
M  V30 9898 N 941.55 1.18024 -1.04442 0
M  V30 9899 C 942.778 1.92032 -0.770161 0
M  V30 9900 C 943.193 1.76391 0.673181 0
M  V30 9901 O 942.55 1.09604 1.45922 0
M  V30 9902 C 942.601 3.43328 -1.13173 0
M  V30 9903 O 942.322 3.5848 -2.51841 0
M  V30 9904 C 943.823 4.34427 -0.882523 0
M  V30 9905 H 941.043 0.609518 -0.280586 0
M  V30 9906 H 943.587 1.49711 -1.39308 0
M  V30 9907 H 941.742 3.83423 -0.553704 0
M  V30 9908 H 942.156 4.52166 -2.65794 0
M  V30 9909 H 943.63 5.39123 -1.18533 0
M  V30 9910 H 944.107 4.3882 0.18257 0
M  V30 9911 H 944.713 4.00035 -1.44403 0
M  V30 9912 N 943.028 0.824394 1.34319 0
M  V30 9913 C 944.305 0.335692 1.92698 0
M  V30 9914 C 944.685 -1.17715 1.75232 0
M  V30 9915 O 944.033 -1.98493 1.13194 0
M  V30 9916 C 944.243 0.766647 3.40475 0
M  V30 9917 C 945.591 0.766323 4.17627 0
M  V30 9918 O 946.615 0.709321 3.49066 0
M  V30 9919 O 945.474 0.840856 5.39992 0
M  V30 9920 H 942.568 0.0919996 0.821867 0
M  V30 9921 H 945.114 0.909282 1.43283 0
M  V30 9922 H 943.886 1.80859 3.46995 0
M  V30 9923 H 943.509 0.168833 3.97241 0
M  V30 9924 N 944.506 -1.46559 0.579492 0
M  V30 9925 C 945.453 -2.30275 -0.155598 0
M  V30 9926 C 946.423 -1.40422 -0.887175 0
M  V30 9927 O 947.608 -1.69373 -0.878481 0
M  V30 9928 C 944.748 -3.24827 -1.16539 0
M  V30 9929 C 943.861 -4.29778 -0.43759 0
M  V30 9930 C 942.996 -5.11461 -1.43462 0
M  V30 9931 C 942.035 -6.08164 -0.693048 0
M  V30 9932 N 941.172 -6.82726 -1.63799 0
M  V30 9933 H 946.012 -2.92607 0.564356 0
M  V30 9934 H 943.549 -1.44211 0.290126 0
M  V30 9935 H 945.507 -3.78088 -1.76368 0
M  V30 9936 H 944.137 -2.64311 -1.8531 0
M  V30 9937 H 943.189 -3.794 0.27567 0
M  V30 9938 H 944.501 -4.98597 0.142298 0
M  V30 9939 H 943.655 -5.68982 -2.1058 0
M  V30 9940 H 942.394 -4.42595 -2.04844 0
M  V30 9941 H 941.399 -5.49799 -0.00807093 0
M  V30 9942 H 942.624 -6.79047 -0.0846678 0
M  V30 9943 H 940.57 -6.16572 -2.23997 0
M  V30 9944 H 940.487 -7.47795 -1.11082 0
M  V30 9945 H 941.755 -7.44807 -2.29962 0
M  V30 9946 N 945.984 -0.3171 -1.54377 0
M  V30 9947 C 946.932 0.567371 -2.25574 0
M  V30 9948 C 947.926 1.12387 -1.2675 0
M  V30 9949 O 949.132 1.07266 -1.44548 0
M  V30 9950 H 945.507 0.201605 -0.724472 0
M  V30 9951 H 947.478 -0.0554644 -2.98348 0
M  V30 9952 C 946.227 1.71984 -3.02187 0
M  V30 9953 H 945.55 1.30086 -3.78044 0
M  V30 9954 H 946.99 2.31443 -3.5526 0
M  V30 9955 C 945.449 2.6336 -2.10103 0
M  V30 9956 O 945.979 3.64899 -1.67962 0
M  V30 9957 N 944.185 2.3145 -1.75725 0
M  V30 9958 H 943.732 1.48921 -2.10191 0
M  V30 9959 H 943.69 2.92852 -1.14391 0
M  V30 9960 N 947.462 1.57535 -0.0451378 0
M  V30 9961 C 948.41 2.12351 0.949205 0
M  V30 9962 C 949.404 1.05386 1.32628 0
M  V30 9963 O 950.61 1.23802 1.30664 0
M  V30 9964 H 946.985 0.678648 0.323945 0
M  V30 9965 H 948.956 2.94806 0.461718 0
M  V30 9966 C 947.705 2.67862 2.21687 0
M  V30 9967 H 947.028 3.49826 1.93551 0
M  V30 9968 H 948.468 3.09844 2.89435 0
M  V30 9969 C 946.927 1.61353 2.95748 0
M  V30 9970 O 947.457 1.02276 3.88462 0
M  V30 9971 N 945.663 1.33017 2.5837 0
M  V30 9972 H 945.21 1.81246 1.83051 0
M  V30 9973 H 945.168 0.619812 3.0823 0
M  V30 9974 N 948.94 -0.228186 1.55939 0
M  V30 9975 C 950.18 -0.960695 1.80416 0
M  V30 9976 C 950.544 -1.81795 0.617615 0
M  V30 9977 O 951.745 -2.58369 0.741545 0
M  V30 9978 C 950.016 -1.78298 3.09749 0
M  V30 9979 S 951.575 -2.57203 3.55517 0
M  V30 9980 H 948.393 -0.322825 0.633486 0
M  V30 9981 H 950.995 -0.226852 1.94179 0
M  V30 9982 H 949.699 -1.14323 3.94155 0
M  V30 9983 H 949.23 -2.55924 2.98775 0
M  V30 9984 H 951.245 -3.80632 3.1833 0
M  V30 9985 N 950.418 -1.49637 -0.494624 0
M  V30 9986 C 951.643 -1.63431 -1.27691 0
M  V30 9987 C 952.068 -0.30813 -1.85559 0
M  V30 9988 O 951.426 0.725083 -1.66169 0
M  V30 9989 C 951.474 -2.71043 -2.3784 0
M  V30 9990 O 950.578 -2.3066 -3.41862 0
M  V30 9991 H 949.919 -0.546804 -0.376698 0
M  V30 9992 H 952.449 -1.95866 -0.591413 0
M  V30 9993 H 952.459 -2.93406 -2.83508 0
M  V30 9994 H 951.134 -3.67306 -1.95088 0
M  V30 9995 H 949.711 -2.18652 -3.02069 0
M  V30 9996 N 951.896 0.746133 -1.38819 0
M  V30 9997 C 952.844 1.88137 -1.36774 0
M  V30 9998 C 953.838 1.67508 -0.252495 0
M  V30 9999 O 955.044 1.74985 -0.421935 0
M  V30 10000 H 951.419 0.619116 -0.426849 0
M  V30 10001 H 953.39 1.86978 -2.32555 0
M  V30 10002 C 952.139 3.25703 -1.21708 0
M  V30 10003 H 951.462 3.42168 -2.06788 0
M  V30 10004 H 952.902 4.05361 -1.24332 0
M  V30 10005 C 951.361 3.36816 0.0754257 0
M  V30 10006 O 951.891 3.87742 1.04972 0
M  V30 10007 N 950.097 2.90287 0.134761 0
M  V30 10008 H 949.644 2.49034 -0.658779 0
M  V30 10009 H 949.602 2.98103 0.999109 0
M  V30 10010 N 953.375 1.23811 0.975125 0
M  V30 10011 C 954.338 1.02505 2.05001 0
M  V30 10012 C 955.338 -0.0150084 1.60793 0
M  V30 10013 O 956.528 0.225246 1.72738 0
M  V30 10014 C 953.66 0.552087 3.364 0
M  V30 10015 H 954.853 1.979 2.25335 0
M  V30 10016 H 952.406 1.05929 1.1493 0
M  V30 10017 H 953.141 -0.405394 3.21756 0
M  V30 10018 H 952.926 1.30267 3.69828 0
M  V30 10019 H 954.416 0.423828 4.15444 0
M  V30 10020 N 954.853 -1.17469 1.05066 0
M  V30 10021 C 955.8 -2.21443 0.650512 0
M  V30 10022 C 956.77 -1.62441 -0.346702 0
M  V30 10023 O 957.955 -1.89305 -0.238404 0
M  V30 10024 C 955.095 -3.45087 0.0301014 0
M  V30 10025 C 954.208 -4.18385 1.07599 0
M  V30 10026 C 953.343 -5.29513 0.423038 0
M  V30 10027 C 952.382 -5.94596 1.45333 0
M  V30 10028 N 951.519 -6.97241 0.824623 0
M  V30 10029 H 956.359 -2.55025 1.54163 0
M  V30 10030 H 953.896 -1.25274 0.771032 0
M  V30 10031 H 955.854 -4.15754 -0.347032 0
M  V30 10032 H 954.484 -3.12093 -0.824481 0
M  V30 10033 H 953.536 -3.46446 1.57097 0
M  V30 10034 H 954.848 -4.62899 1.85813 0
M  V30 10035 H 954.002 -6.067 -0.00774975 0
M  V30 10036 H 952.741 -4.86129 -0.391092 0
M  V30 10037 H 951.746 -5.16142 1.89415 0
M  V30 10038 H 952.971 -6.40061 2.26934 0
M  V30 10039 H 950.917 -6.55993 0.0309804 0
M  V30 10040 H 950.834 -7.40059 1.54432 0
M  V30 10041 H 952.102 -7.78375 0.418567 0
M  V30 10042 N 956.331 -0.831506 -1.3388 0
M  V30 10043 C 957.294 -0.264773 -2.27666 0
M  V30 10044 C 958.294 0.562273 -1.50649 0
M  V30 10045 O 959.484 0.377131 -1.70069 0
M  V30 10046 C 956.616 0.627814 -3.35069 0
M  V30 10047 H 957.809 -1.09225 -2.79303 0
M  V30 10048 H 955.362 -0.604021 -1.44157 0
M  V30 10049 H 956.097 1.47802 -2.88661 0
M  V30 10050 H 955.882 0.0361552 -3.92083 0
M  V30 10051 H 957.372 1.01786 -4.05005 0
M  V30 10052 N 957.809 1.4625 -0.587256 0
M  V30 10053 C 959.055 2.02662 -0.0746851 0
M  V30 10054 C 959.388 1.45723 1.28368 0
M  V30 10055 O 958.663 0.624062 1.84216 0
M  V30 10056 C 958.946 3.60097 -0.0138109 0
M  V30 10057 C 958.799 4.27412 -1.4014 0
M  V30 10058 C 960.118 4.34744 0.684491 0
M  V30 10059 H 957.237 0.736444 -0.0286144 0
M  V30 10060 H 959.879 1.74341 -0.755328 0
M  V30 10061 H 958.029 3.84357 0.56583 0
M  V30 10062 H 959.701 4.14401 -2.02656 0
M  V30 10063 H 957.944 3.86598 -1.96785 0
M  V30 10064 H 958.615 5.362 -1.31124 0
M  V30 10065 H 961.091 4.15657 0.192023 0
M  V30 10066 H 959.967 5.44468 0.696127 0
M  V30 10067 H 960.228 4.06132 1.74669 0
M  V30 10068 N 959.287 0.325282 1.54207 0
M  V30 10069 C 960.197 -0.548778 2.28091 0
M  V30 10070 C 961.213 -1.12772 1.32508 0
M  V30 10071 O 962.389 -1.14732 1.65525 0
M  V30 10072 C 959.454 -1.69284 3.02562 0
M  V30 10073 C 958.515 -1.14553 4.13734 0
M  V30 10074 C 957.748 -2.23506 4.84645 0
M  V30 10075 O 957.971 -3.43884 4.55082 0
M  V30 10076 O 956.905 -1.88828 5.71513 0
M  V30 10077 H 960.731 0.0512974 3.03657 0
M  V30 10078 H 958.316 0.0909159 1.49123 0
M  V30 10079 H 960.198 -2.35887 3.49192 0
M  V30 10080 H 958.873 -2.27906 2.2987 0
M  V30 10081 H 957.78 -0.444532 3.71449 0
M  V30 10082 H 959.113 -0.60441 4.88475 0
M  V30 10083 N 960.765 -1.57509 0.0534917 0
M  V30 10084 C 961.993 -1.97098 -0.629298 0
M  V30 10085 C 962.408 -0.931128 -1.64242 0
M  V30 10086 O 961.765 0.0843866 -1.82305 0
M  V30 10087 C 961.816 -3.36767 -1.31415 0
M  V30 10088 O 961.537 -4.36766 -0.341599 0
M  V30 10089 C 963.038 -3.91127 -2.08649 0
M  V30 10090 H 960.258 -0.648611 -0.171886 0
M  V30 10091 H 962.802 -2.04145 0.120479 0
M  V30 10092 H 960.957 -3.30863 -2.01515 0
M  V30 10093 H 961.371 -5.1788 -0.830715 0
M  V30 10094 H 962.845 -4.91129 -2.51985 0
M  V30 10095 H 963.322 -3.26679 -2.9356 0
M  V30 10096 H 963.928 -4.00376 -1.43456 0
M  V30 10097 N 962.243 0.219913 -1.56058 0
M  V30 10098 C 963.52 0.968493 -1.6994 0
M  V30 10099 C 963.9 2.02358 -0.601219 0
M  V30 10100 O 963.248 2.25121 0.391534 0
M  V30 10101 C 963.458 1.57745 -3.11316 0
M  V30 10102 C 964.806 2.06908 -3.70775 0
M  V30 10103 O 965.83 1.67636 -3.14288 0
M  V30 10104 O 964.689 2.79096 -4.69859 0
M  V30 10105 H 961.783 0.452521 -0.692209 0
M  V30 10106 H 964.329 0.211566 -1.68376 0
M  V30 10107 H 963.101 0.815687 -3.82704 0
M  V30 10108 H 962.724 2.39987 -3.17005 0
M  V30 10109 N 963.721 1.49897 0.486681 0
M  V30 10110 C 964.967 1.60342 1.2417 0
M  V30 10111 C 965.3 0.295694 1.91936 0
M  V30 10112 O 964.575 -0.701788 1.81398 0
M  V30 10113 C 964.858 2.77281 2.29755 0
M  V30 10114 C 964.711 4.1789 1.66397 0
M  V30 10115 C 966.03 2.89817 3.31201 0
M  V30 10116 H 963.149 0.583605 0.450083 0
M  V30 10117 H 965.791 1.82232 0.537734 0
M  V30 10118 H 963.941 2.58748 2.89796 0
M  V30 10119 H 965.613 4.47975 1.10073 0
M  V30 10120 H 963.856 4.22872 0.967579 0
M  V30 10121 H 964.527 4.95612 2.43049 0
M  V30 10122 H 967.003 3.06732 2.81167 0
M  V30 10123 H 965.879 3.7329 4.02425 0
M  V30 10124 H 966.14 1.9977 3.94391 0
M  V30 10125 O 965.238 -0.632097 1.48616 0
M  V30 10126 H 965.929 -1.28615 1.44837 0
M  V30 END ATOM
M  V30 BEGIN BOND
M  V30 END BOND
M  V30 END CTAB
M  END
$$$$
