drugbank_target|P03951 Coagulation factor XI (DB00100; DB06404; DB07022; DB07023; DB07071; DB07074; DB07077; DB07212; DB07299; DB07887; DB09228; DB11300; DB11571; DB13152; DB14533; DB14548)
 OpenBabel12092119453D

  0  0  0     0  0            999 V3000
M  V30 BEGIN CTAB
M  V30 COUNTS 9753 9869 0 0 0
M  V30 BEGIN ATOM
M  V30 1 H -0.908 1.98254 -0.117106 0
M  V30 2 N 0 1.576 0 0
M  V30 3 C 0.933 2.03868 1.02534 0
M  V30 4 C 1.911 0.928543 1.3348 0
M  V30 5 O 3.095 1.19667 1.45644 0
M  V30 6 C 0.222 2.43627 2.35294 0
M  V30 7 C -0.732 3.65373 2.2001 0
M  V30 8 S 0.101 5.13292 1.52614 0
M  V30 9 C 1.257 5.56322 2.86805 0
M  V30 10 H 1.49 2.90518 0.631377 0
M  V30 11 H -0.977 1.52953 0.210867 0
M  V30 12 H 0.981 2.67203 3.11629 0
M  V30 13 H -0.358 1.57376 2.7183 0
M  V30 14 H -1.165 3.90944 3.18086 0
M  V30 15 H -1.563 3.418 1.51819 0
M  V30 16 H 0.729 5.58782 3.83104 0
M  V30 17 H 1.672 6.56266 2.65933 0
M  V30 18 H 2.08 4.83886 2.90714 0
M  V30 19 N 1.4781 -0.272755 1.55222 0
M  V30 20 C 2.7271 -1.00211 1.75045 0
M  V30 21 C 3.0401 -1.87441 0.559046 0
M  V30 22 O 4.2461 -2.63856 0.639698 0
M  V30 23 C 2.7021 -1.83165 3.09804 0
M  V30 24 C 2.3101 -1.008 4.36513 0
M  V30 25 C 4.0541 -2.55529 3.38977 0
M  V30 26 C 1.9611 -1.83194 5.62311 0
M  V30 27 H 0.8911 -0.377878 0.652476 0
M  V30 28 H 3.5421 -0.257776 1.8168 0
M  V30 29 H 1.9241 -2.61694 2.97207 0
M  V30 30 H 3.0981 -0.266855 4.60027 0
M  V30 31 H 1.4131 -0.398897 4.14485 0
M  V30 32 H 4.0101 -3.17578 4.30172 0
M  V30 33 H 4.3531 -3.25825 2.59121 0
M  V30 34 H 4.8861 -1.84029 3.52673 0
M  V30 35 H 1.6251 -1.17318 6.44916 0
M  V30 36 H 1.1451 -2.54905 5.4294 0
M  V30 37 H 2.8241 -2.40552 6.00619 0
M  V30 38 N 2.9562 -1.48159 -0.537278 0
M  V30 39 C 4.2032 -1.55804 -1.29349 0
M  V30 40 C 4.5312 -0.228802 -1.9315 0
M  V30 41 O 3.7862 0.780242 -1.79473 0
M  V30 42 C 4.0852 -2.63956 -2.40961 0
M  V30 43 C 3.7512 -4.0662 -1.94861 0
M  V30 44 C 2.4132 -4.45452 -1.82006 0
M  V30 45 C 4.7652 -4.96055 -1.59933 0
M  V30 46 C 2.0932 -5.71531 -1.32547 0
M  V30 47 C 4.4452 -6.22617 -1.11939 0
M  V30 48 C 3.1092 -6.60312 -0.976951 0
M  V30 49 H 2.3792 -0.570129 -0.473322 0
M  V30 50 H 5.0262 -1.81845 -0.600372 0
M  V30 51 H 3.3312 -2.31747 -3.15912 0
M  V30 52 H 5.0282 -2.67089 -2.99107 0
M  V30 53 H 1.6182 -3.75949 -2.05815 0
M  V30 54 H 5.8022 -4.66738 -1.68728 0
M  V30 55 H 1.0582 -5.99468 -1.202 0
M  V30 56 H 5.2322 -6.91318 -0.839811 0
M  V30 57 H 2.8592 -7.57895 -0.591501 0
M  V30 58 N 4.4343 0.785586 -1.36625 0
M  V30 59 C 5.3643 1.91259 -1.33949 0
M  V30 60 C 6.3453 1.68795 -0.210325 0
M  V30 61 O 7.5303 1.89854 -0.408561 0
M  V30 62 C 4.6603 3.28339 -1.13186 0
M  V30 63 C 3.6143 3.65335 -2.22967 0
M  V30 64 C 2.9403 5.00806 -1.87342 0
M  V30 65 C 4.2403 3.7352 -3.65075 0
M  V30 66 H 5.9343 1.93755 -2.28253 0
M  V30 67 H 3.4803 0.930788 -1.09874 0
M  V30 68 H 5.4333 4.06804 -1.09948 0
M  V30 69 H 4.1573 3.2624 -0.153332 0
M  V30 70 H 2.8163 2.89169 -2.25337 0
M  V30 71 H 2.4643 4.95233 -0.880545 0
M  V30 72 H 2.1643 5.26529 -2.60846 0
M  V30 73 H 3.6883 5.81687 -1.85667 0
M  V30 74 H 5.1023 4.42168 -3.64911 0
M  V30 75 H 3.4993 4.10731 -4.37516 0
M  V30 76 H 4.5693 2.74527 -3.99703 0
M  V30 77 N 5.9124 1.20967 1.01018 0
M  V30 78 C 7.1424 1.04803 1.78044 0
M  V30 79 C 7.5504 -0.405462 1.84804 0
M  V30 80 O 6.8934 -1.2932 1.30468 0
M  V30 81 C 6.9554 1.56377 3.23707 0
M  V30 82 C 6.6194 3.04767 3.40538 0
M  V30 83 C 7.6164 4.02366 3.29239 0
M  V30 84 C 5.3014 3.43862 3.66147 0
M  V30 85 C 7.2954 5.37049 3.43304 0
M  V30 86 C 4.9824 4.78699 3.79855 0
M  V30 87 C 5.9804 5.75101 3.68439 0
M  V30 88 O 5.6684 7.07493 3.81719 0
M  V30 89 H 5.4004 0.368778 0.56655 0
M  V30 90 H 7.9544 1.60642 1.27997 0
M  V30 91 H 6.1844 0.949297 3.74867 0
M  V30 92 H 7.8734 1.36136 3.8239 0
M  V30 93 H 8.6394 3.73506 3.09384 0
M  V30 94 H 4.5184 2.69364 3.74118 0
M  V30 95 H 8.0624 6.12277 3.34309 0
M  V30 96 H 3.9594 5.07247 3.99213 0
M  V30 97 H 4.7274 7.1483 3.98697 0
M  V30 98 N 7.3905 -1.2043 1.01659 0
M  V30 99 C 8.3225 -2.22626 0.544988 0
M  V30 100 C 9.3355 -1.58479 -0.372609 0
M  V30 101 O 10.5245 -1.77679 -0.170958 0
M  V30 102 C 7.6245 -3.38141 -0.22663 0
M  V30 103 C 6.7975 -4.31877 0.692876 0
M  V30 104 C 5.8565 -5.26191 -0.0311616 0
M  V30 105 O 4.8825 -5.6612 0.591343 0
M  V30 106 N 6.0845 -5.65618 -1.30601 0
M  V30 107 H 8.8495 -2.63716 1.42388 0
M  V30 108 H 6.4105 -1.34971 0.894116 0
M  V30 109 H 8.4025 -3.98239 -0.72024 0
M  V30 110 H 6.9725 -2.95943 -1.00681 0
M  V30 111 H 6.1925 -3.69746 1.36679 0
M  V30 112 H 7.4805 -4.91426 1.31824 0
M  V30 113 H 6.8785 -5.3519 -1.83269 0
M  V30 114 H 5.4355 -6.28025 -1.74435 0
M  V30 115 N 8.8686 -0.792821 -1.36206 0
M  V30 116 C 10.1146 -0.36733 -1.99446 0
M  V30 117 C 10.4476 1.05917 -1.62774 0
M  V30 118 O 9.7226 1.7324 -0.88421 0
M  V30 119 C 10.0056 -0.535044 -3.56103 0
M  V30 120 C 9.8586 -2.00548 -4.02617 0
M  V30 121 C 11.1776 0.0478191 -4.40074 0
M  V30 122 H 8.2966 -0.134941 -0.724541 0
M  V30 123 H 10.9386 -0.999794 -1.61568 0
M  V30 124 H 9.0886 0.00336329 -3.885 0
M  V30 125 H 10.7606 -2.60521 -3.80692 0
M  V30 126 H 9.0036 -2.50686 -3.54032 0
M  V30 127 H 9.6746 -2.07377 -5.11565 0
M  V30 128 H 12.1506 -0.411822 -4.14057 0
M  V30 129 H 11.0266 -0.0995336 -5.4881 0
M  V30 130 H 11.2876 1.14025 -4.27142 0
M  V30 131 N 10.3467 1.47872 -0.545128 0
M  V30 132 C 11.5927 2.02793 -0.0166104 0
M  V30 133 C 11.9257 1.41987 1.32489 0
M  V30 134 O 11.2007 0.571045 1.85928 0
M  V30 135 C 11.4837 3.59989 0.0893294 0
M  V30 136 C 11.3367 4.3125 -1.27841 0
M  V30 137 C 12.6557 4.32606 0.808724 0
M  V30 138 H 9.7747 0.736962 -0.00751035 0
M  V30 139 H 12.4167 1.76433 -0.705085 0
M  V30 140 H 10.5667 3.82579 0.675681 0
M  V30 141 H 12.2387 4.20035 -1.90704 0
M  V30 142 H 10.4817 3.92076 -1.85632 0
M  V30 143 H 11.1527 5.39736 -1.15713 0
M  V30 144 H 13.6287 4.14936 0.310992 0
M  V30 145 H 12.5047 5.42251 0.851782 0
M  V30 146 H 12.7657 4.00963 1.86229 0
M  V30 147 N 11.8248 0.280983 1.55075 0
M  V30 148 C 12.7748 -0.618585 2.19448 0
M  V30 149 C 13.7588 -1.11401 1.16098 0
M  V30 150 O 14.9508 -1.0581 1.41891 0
M  V30 151 C 12.0798 -1.79951 2.92357 0
M  V30 152 C 11.1658 -1.321 4.03002 0
M  V30 153 N 11.5568 -0.559044 5.02701 0
M  V30 154 C 9.8548 -1.60346 4.16179 0
M  V30 155 C 10.5558 -0.306722 5.80891 0
M  V30 156 N 9.5318 -0.880825 5.36416 0
M  V30 157 H 13.3338 -0.0286638 2.93886 0
M  V30 158 H 10.8478 0.0848104 1.62178 0
M  V30 159 H 12.8448 -2.45531 3.36927 0
M  V30 160 H 11.5048 -2.39333 2.19431 0
M  V30 161 H 12.5158 -0.205827 5.17491 0
M  V30 162 H 9.1928 -2.20621 3.54447 0
M  V30 163 H 10.5828 0.30391 6.71212 0
M  V30 164 N 13.3029 -1.57598 0.00835791 0
M  V30 165 C 14.5499 -1.90928 -0.674732 0
M  V30 166 C 14.8779 -0.88277 -1.73313 0
M  V30 167 O 14.1329 0.111294 -1.95383 0
M  V30 168 C 14.4319 -3.3101 -1.34787 0
M  V30 169 C 14.0979 -4.48922 -0.421861 0
M  V30 170 C 12.7599 -4.8091 -0.166927 0
M  V30 171 C 15.1119 -5.20755 0.215211 0
M  V30 172 C 12.4399 -5.821 0.733232 0
M  V30 173 C 14.7919 -6.22905 1.1033 0
M  V30 174 C 13.4559 -6.53346 1.36733 0
M  V30 175 H 12.7259 -0.698656 -0.246902 0
M  V30 176 H 15.3729 -1.91387 0.0656779 0
M  V30 177 H 13.6779 -3.26714 -2.16253 0
M  V30 178 H 15.3749 -3.54061 -1.8826 0
M  V30 179 H 11.9649 -4.23934 -0.630729 0
M  V30 180 H 16.1489 -4.9629 0.0312829 0
M  V30 181 H 11.4049 -6.04042 0.945712 0
M  V30 182 H 15.5789 -6.77694 1.60325 0
M  V30 183 H 13.2059 -7.31573 2.06652 0
M  V30 184 N 14.781 0.264519 -1.55364 0
M  V30 185 C 16.03 0.992812 -1.75574 0
M  V30 186 C 16.343 1.87142 -0.568979 0
M  V30 187 O 17.549 2.63513 -0.653682 0
M  V30 188 C 16.005 1.81519 -3.10771 0
M  V30 189 C 15.613 0.984839 -4.37041 0
M  V30 190 C 17.357 2.53727 -3.40327 0
M  V30 191 C 15.264 1.80209 -5.63275 0
M  V30 192 H 14.194 0.374412 -0.65447 0
M  V30 193 H 16.845 0.248138 -1.81815 0
M  V30 194 H 15.227 2.60115 -2.98591 0
M  V30 195 H 16.401 0.242455 -4.60162 0
M  V30 196 H 14.716 0.37691 -4.14691 0
M  V30 197 H 17.313 3.15292 -4.3185 0
M  V30 198 H 17.656 3.24447 -2.60845 0
M  V30 199 H 18.189 1.82156 -3.53644 0
M  V30 200 H 14.928 1.13896 -6.45529 0
M  V30 201 H 14.448 2.52022 -5.44284 0
M  V30 202 H 16.127 2.37364 -6.01887 0
M  V30 203 N 16.2591 1.48442 0.529413 0
M  V30 204 C 17.1891 1.65902 1.64313 0
M  V30 205 C 18.1701 0.507897 1.6234 0
M  V30 206 O 19.3551 0.740503 1.79528 0
M  V30 207 C 16.4851 1.69911 3.02898 0
M  V30 208 C 15.4391 2.8453 3.19729 0
M  V30 209 C 14.7651 2.73629 4.59381 0
M  V30 210 C 16.0651 4.25821 3.02447 0
M  V30 211 H 17.7591 2.5914 1.49955 0
M  V30 212 H 15.3051 1.24709 0.719982 0
M  V30 213 H 17.2581 1.80715 3.80684 0
M  V30 214 H 15.9821 0.732524 3.18279 0
M  V30 215 H 14.6411 2.73283 2.44361 0
M  V30 216 H 14.2891 1.74938 4.71599 0
M  V30 217 H 13.9891 3.50541 4.71588 0
M  V30 218 H 15.5131 2.86401 5.39265 0
M  V30 219 H 16.9271 4.37898 3.70024 0
M  V30 220 H 15.3241 5.03735 3.26146 0
M  V30 221 H 16.3941 4.42244 1.98867 0
M  V30 222 N 17.7372 -0.778329 1.37039 0
M  V30 223 C 18.9842 -1.53665 1.31884 0
M  V30 224 C 19.3122 -1.9425 -0.0986303 0
M  V30 225 O 18.5672 -1.63832 -1.07041 0
M  V30 226 C 18.8662 -2.81845 2.19768 0
M  V30 227 C 18.5322 -2.60345 3.68146 0
M  V30 228 C 17.1942 -2.5419 4.08584 0
M  V30 229 C 19.5462 -2.40923 4.62175 0
M  V30 230 C 16.8742 -2.26594 5.41177 0
M  V30 231 C 19.2262 -2.14852 5.94997 0
M  V30 232 C 17.8902 -2.07137 6.34547 0
M  V30 233 H 17.1602 -0.562299 0.482598 0
M  V30 234 H 19.8072 -0.897069 1.69189 0
M  V30 235 H 18.1122 -3.50328 1.75436 0
M  V30 236 H 19.8092 -3.39692 2.13097 0
M  V30 237 H 16.3992 -2.65996 3.36072 0
M  V30 238 H 20.5832 -2.44673 4.31797 0
M  V30 239 H 15.8392 -2.19111 5.70789 0
M  V30 240 H 20.0132 -1.98822 6.67415 0
M  V30 241 H 17.6402 -1.85518 7.37216 0
M  V30 242 N 19.2153 -1.21501 -1.00376 0
M  V30 243 C 20.4433 -1.059 -1.77744 0
M  V30 244 C 20.8583 0.391125 -1.84704 0
M  V30 245 O 20.2153 1.27133 -1.30933 0
M  V30 246 C 20.2663 -1.65111 -3.21591 0
M  V30 247 O 19.9873 -3.0445 -3.15027 0
M  V30 248 C 21.4883 -1.54637 -4.15454 0
M  V30 249 H 18.7083 -0.371825 -0.558558 0
M  V30 250 H 21.2523 -1.60865 -1.26264 0
M  V30 251 H 19.4073 -1.14235 -3.70175 0
M  V30 252 H 19.8213 -3.3278 -4.0541 0
M  V30 253 H 21.2953 -2.00808 -5.14179 0
M  V30 254 H 21.7723 -0.501022 -4.36333 0
M  V30 255 H 22.3783 -2.04767 -3.72761 0
M  V30 256 N 20.6934 1.19889 -1.02296 0
M  V30 257 C 21.9184 1.9393 -0.735237 0
M  V30 258 C 22.3434 1.74639 0.698782 0
M  V30 259 O 21.7014 1.04481 1.48167 0
M  V30 260 C 21.7494 3.43916 -1.08417 0
M  V30 261 O 20.8534 4.11917 -0.199446 0
M  V30 262 H 20.1944 0.605645 -0.272196 0
M  V30 263 H 22.7244 1.52137 -1.36804 0
M  V30 264 H 22.7344 3.9456 -1.03856 0
M  V30 265 H 21.4094 3.5728 -2.12894 0
M  V30 266 H 19.9864 3.71666 -0.303136 0
M  V30 267 N 22.1715 0.800033 1.35784 0
M  V30 268 C 23.4175 0.377901 1.99248 0
M  V30 269 C 23.7505 -1.05052 1.63333 0
M  V30 270 O 23.0255 -1.72768 0.893385 0
M  V30 271 C 23.3085 0.553922 3.55814 0
M  V30 272 C 23.1615 2.0268 4.01548 0
M  V30 273 C 24.4805 -0.0244802 4.40093 0
M  V30 274 H 21.5995 0.138782 0.723815 0
M  V30 275 H 24.2415 1.00835 1.61035 0
M  V30 276 H 22.3915 0.0172398 3.88496 0
M  V30 277 H 24.0635 2.62536 3.79305 0
M  V30 278 H 22.3065 2.5256 3.52698 0
M  V30 279 H 22.9775 2.10087 5.10458 0
M  V30 280 H 25.4535 0.433775 4.13833 0
M  V30 281 H 24.3295 0.128637 5.48749 0
M  V30 282 H 24.5905 -1.11758 4.27741 0
M  V30 283 N 23.6496 -1.47581 0.552962 0
M  V30 284 C 24.8746 -2.07378 0.0300593 0
M  V30 285 C 25.2996 -1.40355 -1.25229 0
M  V30 286 O 24.6576 -0.477099 -1.7491 0
M  V30 287 C 24.7056 -3.60274 -0.153231 0
M  V30 288 O 23.8096 -3.94041 -1.21678 0
M  V30 289 H 23.1506 -0.662158 0.0494182 0
M  V30 290 H 25.6806 -1.89662 0.767434 0
M  V30 291 H 25.6906 -4.0633 -0.368761 0
M  V30 292 H 24.3656 -4.08455 0.783397 0
M  V30 293 H 22.9426 -3.59735 -0.982079 0
M  V30 294 N 25.1277 -0.289203 -1.54924 0
M  V30 295 C 26.3757 0.322879 -1.99504 0
M  V30 296 C 26.6967 1.55313 -1.1791 0
M  V30 297 O 25.9667 1.94001 -0.272097 0
M  V30 298 H 24.5467 0.122291 -0.736922 0
M  V30 299 H 27.2087 -0.397802 -1.90797 0
M  V30 300 H 26.3047 0.603061 -3.06218 0
M  V30 301 N 26.6058 1.57591 -0.0167156 0
M  V30 302 C 27.5158 2.1291 0.98521 0
M  V30 303 C 28.5318 1.07834 1.36557 0
M  V30 304 O 29.7078 1.39826 1.44951 0
M  V30 305 C 26.7728 2.63512 2.25305 0
M  V30 306 C 25.8338 3.83256 1.93426 0
M  V30 307 C 25.0668 4.31435 3.14165 0
M  V30 308 O 25.2898 3.78851 4.26413 0
M  V30 309 O 24.2238 5.23416 2.97186 0
M  V30 310 H 28.0498 2.98772 0.544888 0
M  V30 311 H 25.6348 1.48012 0.203141 0
M  V30 312 H 27.5168 2.96183 2.99756 0
M  V30 313 H 26.1918 1.8074 2.68542 0
M  V30 314 H 25.0988 3.55531 1.16398 0
M  V30 315 H 26.4318 4.67153 1.55013 0
M  V30 316 N 28.0839 -0.256276 1.55502 0
M  V30 317 C 29.3239 -0.993081 1.78654 0
M  V30 318 C 29.6879 -1.8288 0.584724 0
M  V30 319 O 30.8889 -2.59665 0.694822 0
M  V30 320 C 29.1599 -1.83856 3.06483 0
M  V30 321 S 30.7189 -2.63573 3.5082 0
M  V30 322 H 27.5369 -0.334199 0.62756 0
M  V30 323 H 30.1389 -0.26184 1.93739 0
M  V30 324 H 28.8429 -1.21414 3.92029 0
M  V30 325 H 28.3739 -2.61271 2.94111 0
M  V30 326 H 30.3889 -3.86312 3.11412 0
M  V30 327 N 29.562 -1.4872 -0.521534 0
M  V30 328 C 30.808 -1.574 -1.27879 0
M  V30 329 C 31.141 -0.250817 -1.92573 0
M  V30 330 O 30.416 0.743934 -1.79711 0
M  V30 331 C 30.699 -2.71843 -2.36164 0
M  V30 332 C 30.552 -4.13893 -1.76105 0
M  V30 333 C 31.871 -2.82008 -3.37875 0
M  V30 334 H 28.99 -0.572941 -0.463581 0
M  V30 335 H 31.632 -1.80927 -0.580119 0
M  V30 336 H 29.782 -2.51914 -2.95756 0
M  V30 337 H 31.454 -4.45284 -1.20499 0
M  V30 338 H 29.697 -4.20498 -1.06601 0
M  V30 339 H 30.368 -4.89804 -2.5455 0
M  V30 340 H 32.844 -3.00086 -2.88249 0
M  V30 341 H 31.72 -3.63796 -4.11028 0
M  V30 342 H 31.981 -1.90511 -3.98946 0
M  V30 343 N 31.0401 0.771051 -1.3745 0
M  V30 344 C 32.2681 1.56015 -1.35893 0
M  V30 345 C 32.6831 1.88718 0.0555523 0
M  V30 346 O 32.0401 1.51502 1.01752 0
M  V30 347 C 32.0911 2.87001 -2.19801 0
M  V30 348 O 31.8121 2.557 -3.55738 0
M  V30 349 C 33.3131 3.81228 -2.26231 0
M  V30 350 H 30.5331 0.483317 -0.465453 0
M  V30 351 H 33.0771 0.955611 -1.80799 0
M  V30 352 H 31.2321 3.43877 -1.78402 0
M  V30 353 H 31.6461 3.39584 -3.99729 0
M  V30 354 H 33.1201 4.70139 -2.89263 0
M  V30 355 H 33.5971 4.20409 -1.27093 0
M  V30 356 H 34.2031 3.30281 -2.67945 0
M  V30 357 N 32.5182 1.22032 0.997298 0
M  V30 358 C 33.4502 0.944263 2.08845 0
M  V30 359 C 34.4632 -0.0754663 1.62625 0
M  V30 360 O 35.6522 0.157994 1.77799 0
M  V30 361 C 32.7522 0.397723 3.36558 0
M  V30 362 C 31.9252 1.47362 4.11829 0
M  V30 363 C 30.9842 0.934951 5.17827 0
M  V30 364 O 30.0102 1.62016 5.45655 0
M  V30 365 N 31.2122 -0.245895 5.79979 0
M  V30 366 H 33.9772 1.88363 2.33109 0
M  V30 367 H 31.5382 1.12661 1.16272 0
M  V30 368 H 33.5302 0.0227771 4.04694 0
M  V30 369 H 32.1002 -0.446646 3.09393 0
M  V30 370 H 31.3202 2.02208 3.38386 0
M  V30 371 H 32.6082 2.19764 4.58891 0
M  V30 372 H 32.0062 -0.819475 5.59733 0
M  V30 373 H 30.5632 -0.562272 6.4937 0
M  V30 374 N 33.9963 -1.19345 1.0293 0
M  V30 375 C 34.9263 -2.2481 0.631105 0
M  V30 376 C 35.9073 -1.66245 -0.360104 0
M  V30 377 O 37.0923 -1.92677 -0.242726 0
M  V30 378 C 34.2223 -3.47295 -0.0184607 0
M  V30 379 C 33.1763 -4.18536 0.895073 0
M  V30 380 C 32.5023 -5.34586 0.110592 0
M  V30 381 C 33.8023 -4.73287 2.209 0
M  V30 382 H 35.4963 -2.58372 1.51275 0
M  V30 383 H 33.0423 -1.24194 0.728818 0
M  V30 384 H 34.9953 -4.20268 -0.308675 0
M  V30 385 H 33.7193 -3.12933 -0.934907 0
M  V30 386 H 32.3783 -3.47446 1.16949 0
M  V30 387 H 32.0263 -4.96469 -0.807902 0
M  V30 388 H 31.7263 -5.83183 0.719087 0
M  V30 389 H 33.2503 -6.10355 -0.172871 0
M  V30 390 H 34.6643 -5.38013 1.98028 0
M  V30 391 H 33.0613 -5.32373 2.76946 0
M  V30 392 H 34.1313 -3.91331 2.86336 0
M  V30 393 N 35.4744 -0.807222 -1.35358 0
M  V30 394 C 36.4044 -0.232509 -2.3234 0
M  V30 395 C 37.3854 0.642386 -1.57504 0
M  V30 396 O 38.5704 0.572526 -1.85569 0
M  V30 397 C 35.7004 0.619238 -3.41735 0
M  V30 398 C 34.6544 -0.157215 -4.27711 0
M  V30 399 C 33.9804 0.816273 -5.28433 0
M  V30 400 C 35.2804 -1.35656 -5.04376 0
M  V30 401 H 36.9744 -1.04276 -2.80654 0
M  V30 402 H 34.5204 -0.50288 -1.34934 0
M  V30 403 H 36.4734 1.03137 -4.08584 0
M  V30 404 H 35.1974 1.46239 -2.92031 0
M  V30 405 H 33.8564 -0.550525 -3.62443 0
M  V30 406 H 33.5044 1.65494 -4.74996 0
M  V30 407 H 33.2044 0.301067 -5.86828 0
M  V30 408 H 34.7284 1.22659 -5.98153 0
M  V30 409 H 36.1424 -1.01927 -5.64166 0
M  V30 410 H 34.5394 -1.8063 -5.7227 0
M  V30 411 H 35.6094 -2.14288 -4.34981 0
M  V30 412 N 36.9525 1.47285 -0.560781 0
M  V30 413 C 37.8995 2.30058 0.18491 0
M  V30 414 C 38.8695 1.39281 0.904986 0
M  V30 415 O 40.0545 1.68241 0.899979 0
M  V30 416 C 37.1945 3.23317 1.20666 0
M  V30 417 C 36.3075 4.29186 0.492285 0
M  V30 418 C 35.4425 5.09592 1.49964 0
M  V30 419 C 34.4815 6.07232 0.770439 0
M  V30 420 N 33.6185 6.80584 1.72479 0
M  V30 421 H 38.4585 2.93302 -0.527048 0
M  V30 422 H 35.9955 1.44568 -0.271738 0
M  V30 423 H 37.9535 3.75811 1.81168 0
M  V30 424 H 36.5835 2.61929 1.88661 0
M  V30 425 H 35.6355 3.7972 -0.227333 0
M  V30 426 H 36.9475 4.98738 -0.0787929 0
M  V30 427 H 36.1015 5.66254 2.17809 0
M  V30 428 H 34.8405 4.3995 2.10464 0
M  V30 429 H 33.8455 5.49745 0.0780846 0
M  V30 430 H 35.0705 6.78884 0.171134 0
M  V30 431 H 33.0165 6.1367 2.3183 0
M  V30 432 H 32.9335 7.46319 1.20596 0
M  V30 433 H 34.2015 7.41818 2.39428 0
M  V30 434 N 38.4306 0.297415 1.54768 0
M  V30 435 C 39.7076 -0.365847 1.92148 0
M  V30 436 C 40.0876 -1.71975 1.22424 0
M  V30 437 O 39.4356 -2.25666 0.358739 0
M  V30 438 C 39.6456 -0.484056 3.45627 0
M  V30 439 C 40.9936 -0.756594 4.17805 0
M  V30 440 O 42.0176 -0.568007 3.51642 0
M  V30 441 O 40.8766 -1.11863 5.34929 0
M  V30 442 H 37.9706 -0.203919 0.801465 0
M  V30 443 H 40.5166 0.34521 1.66152 0
M  V30 444 H 39.2886 0.467865 3.88493 0
M  V30 445 H 38.9116 -1.24372 3.77647 0
M  V30 446 N 39.9087 -1.5758 0.0250728 0
M  V30 447 C 41.1367 -1.9593 -0.664747 0
M  V30 448 C 41.5517 -0.901352 -1.65895 0
M  V30 449 O 40.9087 0.117255 -1.82123 0
M  V30 450 C 40.9597 -3.34342 -1.37468 0
M  V30 451 O 40.6807 -4.36079 -0.420324 0
M  V30 452 C 42.1817 -3.873 -2.1567 0
M  V30 453 H 39.4017 -0.645405 -0.183557 0
M  V30 454 H 41.9457 -2.04329 0.0836372 0
M  V30 455 H 40.1007 -3.27175 -2.0745 0
M  V30 456 H 40.5147 -5.16297 -0.923991 0
M  V30 457 H 41.9887 -4.86504 -2.60803 0
M  V30 458 H 42.4657 -3.21331 -2.99405 0
M  V30 459 H 43.0717 -3.97723 -1.50654 0
M  V30 460 N 41.3868 0.248026 -1.55636 0
M  V30 461 C 42.6268 0.983592 -1.79178 0
M  V30 462 C 42.9908 1.82567 -0.594414 0
M  V30 463 O 44.1918 2.59292 -0.708583 0
M  V30 464 C 42.4628 1.82228 -3.07454 0
M  V30 465 S 44.0218 2.61709 -3.52213 0
M  V30 466 H 40.8398 0.330866 -0.629324 0
M  V30 467 H 43.4418 0.251562 -1.93875 0
M  V30 468 H 42.1458 1.19333 -3.92668 0
M  V30 469 H 41.6768 2.59708 -2.95492 0
M  V30 470 H 43.6918 3.84655 -3.13457 0
M  V30 471 N 42.8649 1.48995 0.513639 0
M  V30 472 C 44.1119 1.57843 1.26854 0
M  V30 473 C 44.4399 0.259501 1.92761 0
M  V30 474 O 43.6949 -0.75159 1.80692 0
M  V30 475 C 43.9939 2.67756 2.36731 0
M  V30 476 C 43.6599 4.09669 1.88368 0
M  V30 477 C 42.3219 4.48291 1.74896 0
M  V30 478 C 44.6739 4.98537 1.52021 0
M  V30 479 C 42.0019 5.73568 1.23438 0
M  V30 480 C 44.3539 6.24319 1.0202 0
M  V30 481 C 43.0179 6.61783 0.871778 0
M  V30 482 H 42.2879 0.577587 0.464192 0
M  V30 483 H 44.9349 1.82778 0.571366 0
M  V30 484 H 43.2399 2.36743 3.12185 0
M  V30 485 H 44.9369 2.71813 2.9482 0
M  V30 486 H 41.5269 3.79176 1.99808 0
M  V30 487 H 45.7109 4.69363 1.61281 0
M  V30 488 H 40.9669 6.01304 1.10648 0
M  V30 489 H 45.1409 6.92566 0.729722 0
M  V30 490 H 42.7679 7.5874 0.470852 0
M  V30 491 N 44.343 -0.763751 1.37857 0
M  V30 492 C 45.253 -1.90817 1.36478 0
M  V30 493 C 46.269 -1.71997 0.263248 0
M  V30 494 O 47.445 -1.95095 0.499979 0
M  V30 495 C 44.51 -3.2605 1.17864 0
M  V30 496 C 43.571 -3.57467 2.3773 0
M  V30 497 C 42.804 -4.86249 2.19995 0
M  V30 498 O 43.027 -5.57884 1.18836 0
M  V30 499 O 41.961 -5.16911 3.08361 0
M  V30 500 H 45.787 -1.94933 2.32884 0
M  V30 501 H 43.372 -0.907619 1.1867 0
M  V30 502 H 45.254 -4.06924 1.09504 0
M  V30 503 H 43.929 -3.22769 0.245372 0
M  V30 504 H 42.836 -2.76796 2.51664 0
M  V30 505 H 44.169 -3.655 3.29652 0
M  V30 506 N 45.8211 -1.22559 -0.990812 0
M  V30 507 C 47.0691 -1.04933 -1.72724 0
M  V30 508 C 47.3901 0.416158 -1.90508 0
M  V30 509 O 46.6601 1.29918 -1.46622 0
M  V30 510 H 45.2401 -0.385296 -0.639965 0
M  V30 511 H 47.9021 -1.54105 -1.19322 0
M  V30 512 H 46.9981 -1.52886 -2.72089 0
M  V30 513 N 47.2992 1.18797 -1.03562 0
M  V30 514 C 48.5472 1.88278 -0.734569 0
M  V30 515 C 48.8682 1.8043 0.739586 0
M  V30 516 O 48.1382 1.21925 1.53333 0
M  V30 517 H 46.7182 0.696991 -0.268725 0
M  V30 518 H 49.3802 1.44192 -1.31129 0
M  V30 519 H 48.4762 2.94443 -1.03489 0
M  V30 520 N 48.7773 0.814389 1.34928 0
M  V30 521 C 50.0543 0.321363 1.92942 0
M  V30 522 C 50.4343 -1.19014 1.74353 0
M  V30 523 O 49.7823 -1.99328 1.11716 0
M  V30 524 C 49.9923 0.741323 3.41036 0
M  V30 525 C 51.3403 0.735266 4.18185 0
M  V30 526 O 52.3643 0.68336 3.49584 0
M  V30 527 O 51.2233 0.800703 5.40602 0
M  V30 528 H 48.3173 0.0858893 0.822528 0
M  V30 529 H 50.8633 0.898609 1.43955 0
M  V30 530 H 49.6353 1.78276 3.4833 0
M  V30 531 H 49.2583 0.139307 3.97356 0
M  V30 532 N 50.2554 -1.46986 0.568584 0
M  V30 533 C 51.5044 -2.01646 0.0465894 0
M  V30 534 C 51.8174 -1.44721 -1.31587 0
M  V30 535 O 53.0234 -1.91113 -1.92842 0
M  V30 536 C 51.4794 -3.59885 0.032752 0
M  V30 537 C 51.0874 -4.25804 1.39266 0
M  V30 538 C 52.8314 -4.22255 -0.436038 0
M  V30 539 C 50.7384 -5.76081 1.33732 0
M  V30 540 H 49.6684 -0.753876 0.013647 0
M  V30 541 H 52.3194 -1.68864 0.718131 0
M  V30 542 H 50.7014 -3.8968 -0.704669 0
M  V30 543 H 51.8754 -4.07637 2.1487 0
M  V30 544 H 50.1904 -3.7547 1.80032 0
M  V30 545 H 52.7874 -5.32394 -0.49602 0
M  V30 546 H 53.1304 -3.90212 -1.45053 0
M  V30 547 H 53.6634 -3.97033 0.246877 0
M  V30 548 H 50.4024 -6.12761 2.32817 0
M  V30 549 H 49.9224 -5.96553 0.623267 0
M  V30 550 H 51.6014 -6.38518 1.0442 0
M  V30 551 N 51.7335 -0.305618 -1.54608 0
M  V30 552 C 52.9615 0.304775 -2.04643 0
M  V30 553 C 53.3765 1.47167 -1.18268 0
M  V30 554 O 52.7335 1.81296 -0.209328 0
M  V30 555 C 52.7845 0.756564 -3.53495 0
M  V30 556 O 52.5055 -0.36389 -4.36586 0
M  V30 557 C 54.0065 1.43163 -4.19546 0
M  V30 558 H 51.2265 0.0655481 -0.667791 0
M  V30 559 H 53.7705 -0.446592 -1.99564 0
M  V30 560 H 51.9255 1.45794 -3.58919 0
M  V30 561 H 52.3395 -0.0113121 -5.24499 0
M  V30 562 H 53.8135 1.69886 -5.25207 0
M  V30 563 H 54.2905 2.37318 -3.69563 0
M  V30 564 H 54.8965 0.773307 -4.18211 0
M  V30 565 N 53.2116 1.57565 -0.0334293 0
M  V30 566 C 54.4396 1.9628 0.654347 0
M  V30 567 C 54.8546 0.910138 1.65414 0
M  V30 568 O 54.2116 -0.107595 1.82183 0
M  V30 569 C 54.2626 3.35067 1.35693 0
M  V30 570 O 53.9836 4.36296 0.397191 0
M  V30 571 C 55.4846 3.88439 2.13613 0
M  V30 572 H 52.7046 0.646369 0.180132 0
M  V30 573 H 55.2486 2.04282 -0.0944721 0
M  V30 574 H 53.4036 3.2827 2.05712 0
M  V30 575 H 53.8176 5.1678 0.896597 0
M  V30 576 H 55.2916 4.8788 2.58219 0
M  V30 577 H 55.7686 3.22914 2.97696 0
M  V30 578 H 56.3746 3.98516 1.48543 0
M  V30 579 N 54.6897 -0.239769 1.55765 0
M  V30 580 C 55.9357 -0.968234 1.78194 0
M  V30 581 C 56.2687 -1.84701 0.599938 0
M  V30 582 O 55.5437 -1.9031 -0.401524 0
M  V30 583 C 55.8267 -1.8227 3.10564 0
M  V30 584 C 55.6797 -0.971633 4.3918 0
M  V30 585 C 56.9987 -2.80388 3.39221 0
M  V30 586 H 54.1177 -0.350572 0.648281 0
M  V30 587 H 56.7597 -0.238259 1.885 0
M  V30 588 H 54.9097 -2.44507 3.01908 0
M  V30 589 H 56.5817 -0.367408 4.59835 0
M  V30 590 H 54.8247 -0.276276 4.32919 0
M  V30 591 H 55.4957 -1.60346 5.28198 0
M  V30 592 H 57.9717 -2.28287 3.47885 0
M  V30 593 H 56.8477 -3.3729 4.33044 0
M  V30 594 H 57.1087 -3.57212 2.60484 0
M  V30 595 N 56.1678 -1.49265 -0.50573 0
M  V30 596 C 57.4148 -1.58513 -1.26015 0
M  V30 597 C 57.7428 -0.26972 -1.92621 0
M  V30 598 O 56.9978 0.741997 -1.81088 0
M  V30 599 C 57.2968 -2.69008 -2.35308 0
M  V30 600 C 56.9628 -4.10662 -1.86192 0
M  V30 601 C 55.6248 -4.49212 -1.72516 0
M  V30 602 C 57.9768 -4.99336 -1.49375 0
M  V30 603 C 55.3048 -5.74214 -1.20394 0
M  V30 604 C 57.6568 -6.24852 -0.987072 0
M  V30 605 C 56.3208 -6.62236 -0.836669 0
M  V30 606 H 55.5908 -0.580041 -0.461122 0
M  V30 607 H 58.2378 -1.83078 -0.561665 0
M  V30 608 H 56.5428 -2.38396 -3.10926 0
M  V30 609 H 58.2398 -2.73373 -2.93374 0
M  V30 610 H 54.8298 -3.8023 -1.97795 0
M  V30 611 H 59.0138 -4.70212 -1.5879 0
M  V30 612 H 54.2698 -6.01883 -1.07458 0
M  V30 613 H 58.4438 -6.92944 -0.692983 0
M  V30 614 H 56.0708 -7.58979 -0.430607 0
M  V30 615 N 57.6459 0.756429 -1.3826 0
M  V30 616 C 58.8739 1.54565 -1.3754 0
M  V30 617 C 59.2889 1.88767 0.0355331 0
M  V30 618 O 58.6459 1.52572 1.0014 0
M  V30 619 C 58.6969 2.84654 -2.22833 0
M  V30 620 O 58.4179 2.51912 -3.5843 0
M  V30 621 C 59.9189 3.78807 -2.30261 0
M  V30 622 H 57.1389 0.478353 -0.470553 0
M  V30 623 H 59.6829 0.936381 -1.81803 0
M  V30 624 H 57.8379 3.41965 -1.8204 0
M  V30 625 H 58.2519 3.35325 -4.03308 0
M  V30 626 H 59.7259 4.67045 -2.94233 0
M  V30 627 H 60.2029 4.19038 -1.31545 0
M  V30 628 H 60.8089 3.2742 -2.71433 0
M  V30 629 N 59.124 1.23083 0.984299 0
M  V30 630 C 60.535 1.05609 1.5396 0
M  V30 631 C 60.886 -0.377793 1.92528 0
M  V30 632 O 60.011 -1.26398 1.75649 0
M  V30 633 C 60.606 1.91087 2.7977 0
M  V30 634 C 59.165 1.77885 3.31713 0
M  V30 635 C 58.312 1.87028 2.04733 0
M  V30 636 H 61.263 1.36802 0.804419 0
M  V30 637 H 61.284 1.43336 3.5247 0
M  V30 638 H 60.796 2.9544 2.51668 0
M  V30 639 H 58.897 0.762995 3.64704 0
M  V30 640 H 59.01 2.61047 4.01735 0
M  V30 641 H 57.374 1.30565 2.18689 0
M  V30 642 H 58.157 2.92929 1.79017 0
M  V30 643 N 60.6021 -1.18246 1.0419 0
M  V30 644 C 61.8271 -1.92736 0.765996 0
M  V30 645 C 62.2521 -1.75728 -0.67091 0
M  V30 646 O 61.6101 -1.06825 -1.46486 0
M  V30 647 C 61.6581 -3.42148 1.13875 0
M  V30 648 O 60.7621 -4.11548 0.264954 0
M  V30 649 H 60.1031 -0.601238 0.281797 0
M  V30 650 H 62.6331 -1.49942 1.39207 0
M  V30 651 H 62.6431 -3.92858 1.1012 0
M  V30 652 H 61.3181 -3.53848 2.18551 0
M  V30 653 H 59.8951 -3.71137 0.362226 0
M  V30 654 N 62.0802 -0.821533 -1.34494 0
M  V30 655 C 63.0432 -0.247847 -2.27856 0
M  V30 656 C 64.0432 0.573453 -1.50227 0
M  V30 657 O 65.2332 0.389759 -1.69784 0
M  V30 658 C 62.3652 0.652698 -3.34593 0
M  V30 659 H 63.5582 -1.07146 -2.80107 0
M  V30 660 H 61.1112 -0.593291 -1.44602 0
M  V30 661 H 61.8462 1.49943 -2.87555 0
M  V30 662 H 61.6312 0.065292 -3.92046 0
M  V30 663 H 63.1212 1.04793 -4.04238 0
M  V30 664 N 63.5583 1.46682 -0.576371 0
M  V30 665 C 64.5053 2.30241 0.160499 0
M  V30 666 C 65.4753 1.40233 0.890162 0
M  V30 667 O 66.6603 1.69186 0.882084 0
M  V30 668 C 63.8003 3.24578 1.1723 0
M  V30 669 C 62.9133 4.29684 0.446736 0
M  V30 670 C 62.0483 5.11154 1.44551 0
M  V30 671 C 61.0873 6.08015 0.70599 0
M  V30 672 N 60.2243 6.82376 1.65251 0
M  V30 673 H 65.0643 2.92727 -0.558127 0
M  V30 674 H 62.6013 1.44272 -0.287056 0
M  V30 675 H 64.5593 3.77711 1.77172 0
M  V30 676 H 63.1893 2.63916 1.85872 0
M  V30 677 H 62.2413 3.79458 -0.267594 0
M  V30 678 H 63.5533 4.98626 -0.131686 0
M  V30 679 H 62.7073 5.68533 2.11791 0
M  V30 680 H 61.4463 4.42158 2.05786 0
M  V30 681 H 60.4513 5.49796 0.0197725 0
M  V30 682 H 61.6763 6.79028 0.09912 0
M  V30 683 H 59.6223 6.16094 2.25308 0
M  V30 684 H 59.5393 7.47556 1.12673 0
M  V30 685 H 60.8073 7.44316 2.31546 0
M  V30 686 N 65.0364 0.313813 1.54444 0
M  V30 687 C 66.2664 -0.293491 2.04505 0
M  V30 688 C 66.6744 -1.47086 1.19005 0
M  V30 689 O 66.0174 -1.82481 0.211257 0
M  V30 690 C 66.0794 -0.800455 3.50475 0
M  V30 691 C 65.7434 0.253322 4.56297 0
M  V30 692 C 66.7404 1.08612 5.08428 0
M  V30 693 C 64.4254 0.398708 5.00715 0
M  V30 694 C 66.4194 2.05013 6.0353 0
M  V30 695 C 64.1064 1.36614 5.95634 0
M  V30 696 C 65.1044 2.19033 6.46926 0
M  V30 697 O 64.7924 3.14134 7.39983 0
M  V30 698 H 64.5244 -0.0658325 0.672787 0
M  V30 699 H 67.0784 0.455177 2.00293 0
M  V30 700 H 65.3084 -1.59987 3.52053 0
M  V30 701 H 66.9974 -1.32504 3.83663 0
M  V30 702 H 67.7634 0.984736 4.74898 0
M  V30 703 H 63.6424 -0.23289 4.60411 0
M  V30 704 H 67.1864 2.69382 6.4349 0
M  V30 705 H 63.0834 1.4682 6.28581 0
M  V30 706 H 63.8514 3.0926 7.57826 0
M  V30 707 N 66.5145 -1.57545 0.0417849 0
M  V30 708 C 67.7545 -1.94185 -0.63809 0
M  V30 709 C 68.1185 -0.919339 -1.68559 0
M  V30 710 O 69.3195 -1.17236 -2.41886 0
M  V30 711 C 67.5905 -3.35672 -1.22714 0
M  V30 712 S 69.1495 -3.94256 -1.92633 0
M  V30 713 H 65.9675 -0.679353 -0.209764 0
M  V30 714 H 68.5695 -1.95199 0.108479 0
M  V30 715 H 67.2735 -4.07898 -0.452503 0
M  V30 716 H 66.8045 -3.38132 -2.01073 0
M  V30 717 H 68.8195 -3.7872 -3.20602 0
M  V30 718 N 67.9926 0.231505 -1.5589 0
M  V30 719 C 68.9246 1.31006 -1.8807 0
M  V30 720 C 69.9376 1.43539 -0.768145 0
M  V30 721 O 71.1266 1.44614 -1.04638 0
M  V30 722 C 68.2266 2.68688 -2.06543 0
M  V30 723 C 67.3996 2.78228 -3.37502 0
M  V30 724 C 66.4586 3.96857 -3.4553 0
M  V30 725 O 65.4846 3.85662 -4.18633 0
M  V30 726 N 66.6866 5.1072 -2.75944 0
M  V30 727 H 69.4516 1.03731 -2.81176 0
M  V30 728 H 67.0126 0.421573 -1.56315 0
M  V30 729 H 69.0046 3.46412 -2.09239 0
M  V30 730 H 67.5746 2.88605 -1.20109 0
M  V30 731 H 66.7946 1.87059 -3.46991 0
M  V30 732 H 68.0826 2.81564 -4.23791 0
M  V30 733 H 67.4806 5.2271 -2.16311 0
M  V30 734 H 66.0376 5.86523 -2.84314 0
M  V30 735 N 69.4707 1.49531 0.497807 0
M  V30 736 C 70.7167 1.59415 1.25358 0
M  V30 737 C 71.0497 0.281422 1.9215 0
M  V30 738 O 70.3247 -0.715249 1.80871 0
M  V30 739 C 70.6077 2.75566 2.3181 0
M  V30 740 C 70.4607 4.16642 1.69498 0
M  V30 741 C 71.7797 2.87347 3.33346 0
M  V30 742 H 68.8987 0.580244 0.454408 0
M  V30 743 H 71.5407 1.81827 0.551262 0
M  V30 744 H 69.6907 2.56587 2.91711 0
M  V30 745 H 71.3627 4.47145 1.13399 0
M  V30 746 H 69.6057 4.22141 0.998978 0
M  V30 747 H 70.2767 4.93792 2.46725 0
M  V30 748 H 72.7527 3.04634 2.83438 0
M  V30 749 H 71.6287 3.70289 4.05188 0
M  V30 750 H 71.8897 1.96834 3.95865 0
M  V30 751 N 70.9488 -0.749086 1.3866 0
M  V30 752 C 72.1948 -1.51056 1.35314 0
M  V30 753 C 72.5278 -1.94121 -0.0553751 0
M  V30 754 O 71.8028 -1.65763 -1.01749 0
M  V30 755 C 72.0858 -2.76003 2.31288 0
M  V30 756 C 71.9388 -2.39047 3.8102 0
M  V30 757 C 73.2578 -3.78046 2.2532 0
M  V30 758 H 70.3768 -0.547972 0.492844 0
M  V30 759 H 73.0188 -0.857628 1.69543 0
M  V30 760 H 71.1688 -3.31716 2.02229 0
M  V30 761 H 72.8408 -1.89074 4.20771 0
M  V30 762 H 71.0838 -1.71449 3.98482 0
M  V30 763 H 71.7548 -3.28462 4.4364 0
M  V30 764 H 74.2308 -3.31884 2.50983 0
M  V30 765 H 73.1068 -4.63159 2.94576 0
M  V30 766 H 73.3678 -4.23957 1.25352 0
M  V30 767 N 72.4269 -1.23603 -0.977757 0
M  V30 768 C 73.6669 -1.08148 -1.73446 0
M  V30 769 C 74.0309 0.374785 -1.88307 0
M  V30 770 O 75.2319 0.650588 -2.60808 0
M  V30 771 C 73.5029 -1.78991 -3.0935 0
M  V30 772 S 75.0619 -1.79141 -4.00567 0
M  V30 773 H 71.8799 -0.386987 -0.596458 0
M  V30 774 H 74.4819 -1.5678 -1.16792 0
M  V30 775 H 73.1859 -2.8408 -2.96187 0
M  V30 776 H 72.7169 -1.30651 -3.71071 0
M  V30 777 H 74.7319 -0.851892 -4.88833 0
M  V30 778 N 73.905 1.17692 -1.04816 0
M  V30 779 C 75.133 1.91786 -0.776254 0
M  V30 780 C 75.548 1.76604 0.667577 0
M  V30 781 O 74.905 1.10067 1.45573 0
M  V30 782 C 74.956 3.42967 -1.14263 0
M  V30 783 O 74.677 3.57678 -2.52978 0
M  V30 784 C 76.178 4.34144 -0.896311 0
M  V30 785 H 73.398 0.608624 -0.282519 0
M  V30 786 H 75.942 1.49268 -1.39783 0
M  V30 787 H 74.097 3.83245 -0.565874 0
M  V30 788 H 74.511 4.51319 -2.67229 0
M  V30 789 H 75.985 5.38744 -1.20244 0
M  V30 790 H 76.462 4.38876 0.168636 0
M  V30 791 H 77.068 3.99574 -1.45672 0
M  V30 792 N 75.3831 0.828654 1.34056 0
M  V30 793 C 76.6131 0.431993 2.02033 0
M  V30 794 C 77.0211 -0.96844 1.62536 0
M  V30 795 O 76.3641 -1.6391 0.829408 0
M  V30 796 C 76.4261 0.461224 3.56529 0
M  V30 797 C 76.0901 1.81599 4.1937 0
M  V30 798 C 77.0871 2.7777 4.39477 0
M  V30 799 C 74.7721 2.10604 4.56017 0
M  V30 800 C 76.7661 4.01115 4.95364 0
M  V30 801 C 74.4531 3.34207 5.11614 0
M  V30 802 C 75.4511 4.2928 5.31232 0
M  V30 803 O 75.1391 5.50699 5.8565 0
M  V30 804 H 74.8711 0.170943 0.654029 0
M  V30 805 H 77.4251 1.11988 1.72185 0
M  V30 806 H 75.6551 -0.283388 3.8566 0
M  V30 807 H 77.3441 0.0838149 4.05813 0
M  V30 808 H 78.1101 2.56659 4.11523 0
M  V30 809 H 73.9891 1.37402 4.40047 0
M  V30 810 H 77.5331 4.75333 5.10592 0
M  V30 811 H 73.4301 3.55179 5.38997 0
M  V30 812 H 74.1981 5.52298 6.04077 0
M  V30 813 N 76.8612 -1.46375 0.584142 0
M  V30 814 C 77.8112 -2.27371 -0.169232 0
M  V30 815 C 78.7952 -1.35955 -0.860523 0
M  V30 816 O 79.9872 -1.60119 -0.754382 0
M  V30 817 C 77.1162 -3.22334 -1.18134 0
M  V30 818 C 76.2022 -4.21235 -0.492088 0
M  V30 819 N 76.5932 -5.03766 0.453129 0
M  V30 820 C 74.8912 -4.39773 -0.742652 0
M  V30 821 C 75.5922 -5.75366 0.85609 0
M  V30 822 N 74.5682 -5.43214 0.204926 0
M  V30 823 H 78.3702 -2.88572 0.557097 0
M  V30 824 H 75.8842 -1.57242 0.406042 0
M  V30 825 H 77.8812 -3.79071 -1.73525 0
M  V30 826 H 76.5412 -2.62693 -1.90847 0
M  V30 827 H 77.5522 -5.11227 0.828723 0
M  V30 828 H 74.2292 -3.91279 -1.45625 0
M  V30 829 H 75.6192 -6.5172 1.63434 0
M  V30 830 N 78.3393 -0.321999 -1.54275 0
M  V30 831 C 79.7503 0.166384 -1.85957 0
M  V30 832 C 80.1013 1.51747 -1.24367 0
M  V30 833 O 79.2263 2.09317 -0.549124 0
M  V30 834 C 79.8213 0.308681 -3.37391 0
M  V30 835 C 78.3803 0.741286 -3.69028 0
M  V30 836 C 77.5273 -0.137937 -2.76957 0
M  V30 837 H 80.4783 -0.542335 -1.49146 0
M  V30 838 H 80.4993 1.13984 -3.63026 0
M  V30 839 H 80.0113 -0.674809 -3.82188 0
M  V30 840 H 78.1123 1.73458 -3.29762 0
M  V30 841 H 78.2253 0.546118 -4.75977 0
M  V30 842 H 76.5893 0.386251 -2.51754 0
M  V30 843 H 77.3723 -1.11816 -3.2458 0
M  V30 844 N 79.8174 1.5752 -0.0501392 0
M  V30 845 C 81.2334 1.56631 0.306402 0
M  V30 846 C 81.4334 1.0577 1.71508 0
M  V30 847 O 80.4894 0.713837 2.422 0
M  V30 848 C 81.8024 3.00393 0.135811 0
M  V30 849 C 83.3504 3.12315 0.206993 0
M  V30 850 C 83.8254 4.57954 0.064944 0
M  V30 851 N 85.3164 4.63041 0.121254 0
M  V30 852 C 86.0514 5.73389 0.0354381 0
M  V30 853 N 85.5474 6.92724 -0.102666 0
M  V30 854 N 87.3404 5.62026 0.090946 0
M  V30 855 H 79.4914 1.88903 -0.971046 0
M  V30 856 H 81.7544 0.869876 -0.376855 0
M  V30 857 H 81.4604 3.41635 -0.835384 0
M  V30 858 H 81.3344 3.66373 0.897275 0
M  V30 859 H 83.7214 2.70973 1.16866 0
M  V30 860 H 83.8024 2.49016 -0.585208 0
M  V30 861 H 83.4464 4.99981 -0.893394 0
M  V30 862 H 83.3764 5.19258 0.876277 0
M  V30 863 H 85.8674 3.77216 0.227284 0
M  V30 864 H 86.1804 7.72633 -0.160882 0
M  V30 865 H 84.5254 6.94864 -0.137737 0
M  V30 866 H 87.7164 4.67684 0.197388 0
M  V30 867 H 87.8894 6.47997 0.0206089 0
M  V30 868 N 81.2955 -0.223234 1.56011 0
M  V30 869 C 82.5355 -0.954962 1.8072 0
M  V30 870 C 82.8995 -1.81598 0.623384 0
M  V30 871 O 84.1005 -2.58132 0.749745 0
M  V30 872 C 82.3715 -1.77313 3.10314 0
M  V30 873 S 83.9305 -2.56073 3.56332 0
M  V30 874 H 80.7485 -0.320812 0.634508 0
M  V30 875 H 83.3505 -0.220686 1.9425 0
M  V30 876 H 82.0545 -1.13071 3.94516 0
M  V30 877 H 81.5855 -2.54974 2.99586 0
M  V30 878 H 83.6005 -3.79619 3.19536 0
M  V30 879 N 82.7736 -1.49793 -0.48987 0
M  V30 880 C 83.7036 -1.70201 -1.59856 0
M  V30 881 C 84.6846 -0.55076 -1.60937 0
M  V30 882 O 85.8696 -0.787841 -1.77501 0
M  V30 883 C 82.9996 -1.77882 -2.98287 0
M  V30 884 C 81.9536 -2.92907 -3.12073 0
M  V30 885 C 81.2796 -2.85712 -4.51965 0
M  V30 886 C 82.5796 -4.3369 -2.91051 0
M  V30 887 H 84.2736 -2.63025 -1.43032 0
M  V30 888 H 81.8196 -1.26574 -0.686664 0
M  V30 889 H 83.7726 -1.90744 -3.75759 0
M  V30 890 H 82.4966 -0.816653 -3.16225 0
M  V30 891 H 81.1556 -2.79665 -2.37029 0
M  V30 892 H 80.8036 -1.8738 -4.66795 0
M  V30 893 H 80.5036 -3.62921 -4.62128 0
M  V30 894 H 82.0276 -3.00598 -5.31482 0
M  V30 895 H 83.4416 -4.47555 -3.58284 0
M  V30 896 H 81.8386 -5.12205 -3.12675 0
M  V30 897 H 82.9086 -4.47362 -1.87071 0
M  V30 898 N 84.2517 0.741722 -1.39055 0
M  V30 899 C 85.1817 1.869 -1.39966 0
M  V30 900 C 86.1627 1.6804 -0.26392 0
M  V30 901 O 87.3477 1.88458 -0.468755 0
M  V30 902 C 84.4777 3.24572 -1.23574 0
M  V30 903 C 83.4317 3.58056 -2.34477 0
M  V30 904 C 82.7577 4.94593 -2.0318 0
M  V30 905 C 84.0577 3.61716 -3.76774 0
M  V30 906 H 85.7517 1.86395 -2.34302 0
M  V30 907 H 83.2977 0.895361 -1.1278 0
M  V30 908 H 85.2507 4.031 -1.22834 0
M  V30 909 H 83.9747 3.25587 -0.257045 0
M  V30 910 H 82.6337 2.81854 -2.34423 0
M  V30 911 H 82.2817 4.92181 -1.03765 0
M  V30 912 H 81.9817 5.17964 -2.77465 0
M  V30 913 H 83.5057 5.75486 -2.04079 0
M  V30 914 H 84.9197 4.30335 -3.78794 0
M  V30 915 H 83.3167 3.96603 -4.50362 0
M  V30 916 H 84.3867 2.61672 -4.08235 0
M  V30 917 N 85.7298 1.2412 0.971189 0
M  V30 918 C 86.9768 1.07881 1.71371 0
M  V30 919 C 87.3048 -0.382901 1.90694 0
M  V30 920 O 86.5598 -1.29945 1.46331 0
M  V30 921 C 86.8588 1.75983 3.11071 0
M  V30 922 C 86.5248 3.25909 3.11599 0
M  V30 923 C 85.1868 3.66813 3.11451 0
M  V30 924 C 87.5388 4.21771 3.062 0
M  V30 925 C 84.8668 5.02021 3.03631 0
M  V30 926 C 87.2188 5.56982 2.99923 0
M  V30 927 C 85.8828 5.97237 2.98102 0
M  V30 928 H 85.1528 0.394764 0.62709 0
M  V30 929 H 87.7998 1.54176 1.13587 0
M  V30 930 H 86.1048 1.22072 3.72298 0
M  V30 931 H 87.8018 1.60887 3.6731 0
M  V30 932 H 84.3918 2.93353 3.12477 0
M  V30 933 H 88.5758 3.91172 3.05447 0
M  V30 934 H 83.8318 5.32411 3.0058 0
M  V30 935 H 88.0058 6.30969 2.94704 0
M  V30 936 H 85.6328 7.01967 2.91798 0
M  V30 937 N 87.2079 -1.17134 1.05439 0
M  V30 938 C 88.4359 -1.91372 0.786414 0
M  V30 939 C 88.8509 -1.76955 -0.658202 0
M  V30 940 O 88.2079 -1.10838 -1.44987 0
M  V30 941 C 88.2589 -3.42356 1.1608 0
M  V30 942 O 87.9799 -3.56332 2.54871 0
M  V30 943 C 89.4809 -4.33663 0.919322 0
M  V30 944 H 86.7009 -0.607118 0.285743 0
M  V30 945 H 89.2449 -1.48525 1.40572 0
M  V30 946 H 87.3999 -3.82939 0.586191 0
M  V30 947 H 87.8139 -4.49896 2.69618 0
M  V30 948 H 89.2879 -5.38099 1.231 0
M  V30 949 H 89.7649 -4.38959 -0.145359 0
M  V30 950 H 90.3709 -3.98796 1.47789 0
M  V30 951 N 88.686 -0.835752 -1.33615 0
M  V30 952 C 89.933 -0.429959 -1.97883 0
M  V30 953 C 90.261 1.01006 -1.66217 0
M  V30 954 O 89.516 1.72047 -0.93265 0
M  V30 955 C 89.815 -0.593925 -3.52431 0
M  V30 956 C 89.481 -2.00158 -4.04039 0
M  V30 957 C 88.143 -2.38662 -4.17844 0
M  V30 958 C 90.495 -2.92117 -4.31644 0
M  V30 959 C 87.823 -3.68435 -4.56588 0
M  V30 960 C 90.175 -4.21368 -4.71838 0
M  V30 961 C 88.839 -4.59833 -4.83849 0
M  V30 962 H 88.109 -0.157333 -0.724104 0
M  V30 963 H 90.756 -1.06217 -1.59343 0
M  V30 964 H 89.061 0.121619 -3.91611 0
M  V30 965 H 90.758 -0.260282 -4.00154 0
M  V30 966 H 87.348 -1.69252 -3.93766 0
M  V30 967 H 91.532 -2.63608 -4.20505 0
M  V30 968 H 86.788 -3.98046 -4.64079 0
M  V30 969 H 90.962 -4.92703 -4.92155 0
M  V30 970 H 88.589 -5.60438 -5.13627 0
M  V30 971 N 90.1641 1.46063 -0.591896 0
M  V30 972 C 91.3921 2.06717 -0.0868936 0
M  V30 973 C 91.8071 1.43916 1.22203 0
M  V30 974 O 91.1641 0.547698 1.74088 0
M  V30 975 C 91.2151 3.6142 0.0758725 0
M  V30 976 O 90.9361 4.21874 -1.18126 0
M  V30 977 C 92.4371 4.39025 0.61416 0
M  V30 978 H 89.6571 0.668162 -0.0616518 0
M  V30 979 H 92.2011 1.8755 -0.815175 0
M  V30 980 H 90.3561 3.79983 0.754413 0
M  V30 981 H 90.7701 5.14861 -1.00092 0
M  V30 982 H 92.2441 5.4783 0.677193 0
M  V30 983 H 92.7211 4.07708 1.63312 0
M  V30 984 H 93.3271 4.2529 -0.0298142 0
M  V30 985 N 91.6422 0.330177 1.54103 0
M  V30 986 C 92.6052 -0.520144 2.2322 0
M  V30 987 C 93.6052 -1.03828 1.22786 0
M  V30 988 O 94.7952 -0.929652 1.4732 0
M  V30 989 C 91.9272 -1.72317 2.94142 0
M  V30 990 H 93.1202 0.0841605 2.99782 0
M  V30 991 H 90.6732 0.0813433 1.56088 0
M  V30 992 H 91.4082 -2.36653 2.21734 0
M  V30 993 H 91.1932 -1.35898 3.67796 0
M  V30 994 H 92.6832 -2.3266 3.46784 0
M  V30 995 N 93.1203 -1.57491 0.0584922 0
M  V30 996 C 94.0303 -2.15448 -0.928414 0
M  V30 997 C 95.0463 -1.11416 -1.3365 0
M  V30 998 O 96.2223 -1.4362 -1.41193 0
M  V30 999 C 93.2873 -2.69393 -2.18239 0
M  V30 1000 C 92.3483 -3.88249 -1.83196 0
M  V30 1001 C 91.5813 -4.39613 -3.02616 0
M  V30 1002 O 91.8043 -3.90023 -4.16219 0
M  V30 1003 O 90.7383 -5.31111 -2.83204 0
M  V30 1004 H 94.5643 -3.00112 -0.465483 0
M  V30 1005 H 92.1493 -1.48499 -0.163826 0
M  V30 1006 H 94.0313 -3.04026 -2.91798 0
M  V30 1007 H 92.7063 -1.87796 -2.63656 0
M  V30 1008 H 91.6133 -3.58492 -1.06931 0
M  V30 1009 H 92.9463 -4.71098 -1.42573 0
M  V30 1010 N 94.5984 0.214957 -1.56127 0
M  V30 1011 C 95.8234 0.95924 -1.83884 0
M  V30 1012 C 96.2484 1.7689 -0.639644 0
M  V30 1013 O 95.6064 1.76566 0.411601 0
M  V30 1014 C 95.6544 1.84723 -3.09693 0
M  V30 1015 O 94.7584 2.94346 -2.8885 0
M  V30 1016 H 94.0994 0.27125 -0.606069 0
M  V30 1017 H 96.6294 0.226276 -2.03345 0
M  V30 1018 H 96.6394 2.25576 -3.39969 0
M  V30 1019 H 95.3144 1.25218 -3.96602 0
M  V30 1020 H 93.8914 2.57391 -2.69823 0
M  V30 1021 N 96.0765 1.50051 0.48192 0
M  V30 1022 C 97.4875 1.5348 1.06305 0
M  V30 1023 C 97.8385 0.331997 1.93371 0
M  V30 1024 O 96.9635 -0.556256 2.09129 0
M  V30 1025 C 97.5585 2.7813 1.93466 0
M  V30 1026 C 96.1175 2.84275 2.46707 0
M  V30 1027 C 95.2645 2.47637 1.24785 0
M  V30 1028 H 98.2155 1.56472 0.264995 0
M  V30 1029 H 98.2365 2.59372 2.78399 0
M  V30 1030 H 97.7485 3.65654 1.30072 0
M  V30 1031 H 95.8495 2.01077 3.13686 0
M  V30 1032 H 95.9625 3.8691 2.82555 0
M  V30 1033 H 94.3265 1.99835 1.57918 0
M  V30 1034 H 95.1095 3.37457 0.630694 0
M  V30 1035 N 97.5546 -0.734337 1.39446 0
M  V30 1036 C 98.7796 -1.52866 1.40167 0
M  V30 1037 C 99.2046 -1.881 -0.00171513 0
M  V30 1038 O 98.5626 -1.51957 -0.988879 0
M  V30 1039 C 98.6106 -2.79235 2.28167 0
M  V30 1040 O 97.7146 -3.75185 1.71201 0
M  V30 1041 H 97.0556 -0.461618 0.477289 0
M  V30 1042 H 99.5856 -0.905949 1.8345 0
M  V30 1043 H 99.5956 -3.27963 2.42702 0
M  V30 1044 H 98.2706 -2.52923 3.30156 0
M  V30 1045 H 96.8476 -3.33958 1.65912 0
M  V30 1046 N 99.0327 -1.24633 -0.964593 0
M  V30 1047 C 99.9427 -1.05859 -2.09359 0
M  V30 1048 C 100.959 0.00148855 -1.74 0
M  V30 1049 O 102.135 -0.197346 -2.00431 0
M  V30 1050 C 99.1997 -0.668879 -3.40187 0
M  V30 1051 C 98.2607 -1.80578 -3.89474 0
M  V30 1052 C 97.4937 -1.43457 -5.14058 0
M  V30 1053 O 97.7167 -0.325775 -5.69469 0
M  V30 1054 O 96.6507 -2.2613 -5.57807 0
M  V30 1055 H 100.477 -2.00516 -2.28094 0
M  V30 1056 H 98.0617 -1.03481 -1.0776 0
M  V30 1057 H 99.9437 -0.463211 -4.18846 0
M  V30 1058 H 98.6187 0.248536 -3.22744 0
M  V30 1059 H 97.5257 -2.06623 -3.11862 0
M  V30 1060 H 98.8587 -2.70208 -4.11398 0
M  V30 1061 N 100.511 1.16574 -1.06058 0
M  V30 1062 C 101.788 1.83048 -0.689416 0
M  V30 1063 C 102.168 1.94122 0.829443 0
M  V30 1064 O 101.516 1.48249 1.7388 0
M  V30 1065 C 101.726 3.20186 -1.38859 0
M  V30 1066 C 103.074 3.95989 -1.53226 0
M  V30 1067 O 104.098 3.29696 -1.3483 0
M  V30 1068 O 102.957 5.14813 -1.83384 0
M  V30 1069 H 100.051 0.790258 -0.243764 0
M  V30 1070 H 102.597 1.23797 -1.16071 0
M  V30 1071 H 101.369 3.07146 -2.4244 0
M  V30 1072 H 100.992 3.87112 -0.907216 0
M  V30 1073 N 101.989 0.842826 1.3317 0
M  V30 1074 C 103.4 0.496651 1.79973 0
M  V30 1075 C 103.751 -0.984641 1.69703 0
M  V30 1076 O 102.876 -1.76743 1.24863 0
M  V30 1077 C 103.471 0.894727 3.26772 0
M  V30 1078 C 102.03 0.600629 3.71577 0
M  V30 1079 C 101.177 1.10091 2.5451 0
M  V30 1080 H 104.128 1.03116 1.20635 0
M  V30 1081 H 104.149 0.206347 3.7994 0
M  V30 1082 H 103.661 1.97287 3.34215 0
M  V30 1083 H 101.762 -0.467284 3.69658 0
M  V30 1084 H 101.875 1.15863 4.64879 0
M  V30 1085 H 100.239 0.52162 2.49301 0
M  V30 1086 H 101.022 2.18591 2.64713 0
M  V30 1087 N 103.467 -1.45747 0.599634 0
M  V30 1088 C 104.695 -2.06668 0.0978551 0
M  V30 1089 C 105.11 -1.44562 -1.21439 0
M  V30 1090 O 104.467 -0.556923 -1.73795 0
M  V30 1091 C 104.518 -3.61456 -0.0567044 0
M  V30 1092 O 104.239 -4.21242 1.20361 0
M  V30 1093 C 105.74 -4.39345 -0.590869 0
M  V30 1094 H 102.96 -0.667825 0.0651943 0
M  V30 1095 H 105.504 -1.87115 0.82511 0
M  V30 1096 H 103.659 -3.80378 -0.734251 0
M  V30 1097 H 104.073 -5.14323 1.02821 0
M  V30 1098 H 105.547 -5.48182 -0.648131 0
M  V30 1099 H 106.024 -4.08568 -1.61147 0
M  V30 1100 H 106.63 -4.25268 0.0523679 0
M  V30 1101 N 104.945 -0.338344 -1.53925 0
M  V30 1102 C 106.361 0.0137736 -1.59594 0
M  V30 1103 C 106.561 1.49186 -1.35447 0
M  V30 1104 O 105.617 2.24987 -1.14616 0
M  V30 1105 C 106.93 -0.41773 -2.97784 0
M  V30 1106 C 108.478 -0.369633 -3.1081 0
M  V30 1107 C 108.953 -0.776524 -4.51369 0
M  V30 1108 N 110.444 -0.730506 -4.57403 0
M  V30 1109 C 111.179 -1.01736 -5.64303 0
M  V30 1110 N 110.675 -1.3721 -6.79077 0
M  V30 1111 N 112.468 -0.941942 -5.54151 0
M  V30 1112 H 104.619 -1.3012 -1.67876 0
M  V30 1113 H 106.882 -0.530082 -0.78595 0
M  V30 1114 H 106.588 -1.44811 -3.20504 0
M  V30 1115 H 106.462 0.209729 -3.76616 0
M  V30 1116 H 108.849 0.651568 -2.87817 0
M  V30 1117 H 108.93 -1.03223 -2.34049 0
M  V30 1118 H 108.574 -1.79571 -4.75096 0
M  V30 1119 H 108.504 -0.0914649 -5.26521 0
M  V30 1120 H 110.995 -0.468783 -3.74981 0
M  V30 1121 H 111.308 -1.57597 -7.5656 0
M  V30 1122 H 109.653 -1.4105 -6.80536 0
M  V30 1123 H 112.844 -0.664184 -4.63364 0
M  V30 1124 H 113.017 -1.16884 -6.37371 0
M  V30 1125 N 106.423 1.57458 -0.0668435 0
M  V30 1126 C 107.669 1.94401 0.598316 0
M  V30 1127 C 108.024 0.946335 1.67518 0
M  V30 1128 O 107.317 -0.0321442 1.91573 0
M  V30 1129 C 107.511 3.35784 1.22409 0
M  V30 1130 C 107.34 4.49212 0.209367 0
M  V30 1131 C 106.11 5.04887 -0.204218 0
M  V30 1132 C 108.308 5.11335 -0.551431 0
M  V30 1133 N 106.29 6.01854 -1.21016 0
M  V30 1134 C 107.661 6.03754 -1.41 0
M  V30 1135 C 109.716 4.94173 -0.608038 0
M  V30 1136 C 108.419 6.80854 -2.32013 0
M  V30 1137 C 110.445 5.71912 -1.50566 0
M  V30 1138 C 109.807 6.63976 -2.35191 0
M  V30 1139 H 105.906 0.758538 0.190114 0
M  V30 1140 H 108.49 1.94175 -0.142832 0
M  V30 1141 H 106.661 3.36757 1.93518 0
M  V30 1142 H 108.393 3.59976 1.84931 0
M  V30 1143 H 105.148 4.73266 0.177908 0
M  V30 1144 H 105.572 6.55035 -1.71049 0
M  V30 1145 H 110.214 4.22788 0.032022 0
M  V30 1146 H 107.932 7.5152 -2.97057 0
M  V30 1147 H 111.518 5.60656 -1.55423 0
M  V30 1148 H 110.398 7.2308 -3.03522 0
M  V30 1149 N 107.901 -0.206675 1.56239 0
M  V30 1150 C 109.148 -0.928842 1.79941 0
M  V30 1151 C 109.476 -1.83734 0.638131 0
M  V30 1152 O 108.731 -1.92039 -0.376746 0
M  V30 1153 C 109.03 -1.78675 3.09532 0
M  V30 1154 C 108.696 -1.03022 4.38973 0
M  V30 1155 C 107.358 -0.821302 4.74139 0
M  V30 1156 C 109.71 -0.497081 5.18824 0
M  V30 1157 C 107.038 -0.0675719 5.86661 0
M  V30 1158 C 109.39 0.24338 6.32132 0
M  V30 1159 C 108.054 0.463422 6.65889 0
M  V30 1160 H 107.324 -0.339887 0.658451 0
M  V30 1161 H 109.971 -0.195977 1.90495 0
M  V30 1162 H 108.276 -2.58794 2.94165 0
M  V30 1163 H 109.973 -2.34792 3.25075 0
M  V30 1164 H 106.563 -1.20306 4.11369 0
M  V30 1165 H 110.747 -0.645921 4.92079 0
M  V30 1166 H 106.003 0.112995 6.11296 0
M  V30 1167 H 110.177 0.66393 6.93228 0
M  V30 1168 H 107.804 1.04938 7.52922 0
M  V30 1169 N 109.379 -1.50304 -0.473955 0
M  V30 1170 C 110.607 -1.64902 -1.24959 0
M  V30 1171 C 111.022 -0.331198 -1.85872 0
M  V30 1172 O 110.379 0.68652 -1.69095 0
M  V30 1173 C 110.43 -2.73803 -2.36038 0
M  V30 1174 O 110.151 -4.00477 -1.77624 0
M  V30 1175 C 111.652 -2.99349 -3.26964 0
M  V30 1176 H 108.872 -0.554383 -0.378022 0
M  V30 1177 H 111.416 -1.9651 -0.566054 0
M  V30 1178 H 109.571 -2.44898 -3.00173 0
M  V30 1179 H 109.985 -4.60678 -2.5075 0
M  V30 1180 H 111.459 -3.79217 -4.01121 0
M  V30 1181 H 111.936 -2.10307 -3.85574 0
M  V30 1182 H 112.542 -3.29774 -2.68569 0
M  V30 1183 N 110.857 0.726932 -1.39834 0
M  V30 1184 C 112.097 1.4992 -1.38936 0
M  V30 1185 C 112.461 1.91996 0.0126883 0
M  V30 1186 O 113.662 2.68399 0.146715 0
M  V30 1187 C 111.933 2.70013 -2.34153 0
M  V30 1188 S 113.492 3.59563 -2.51515 0
M  V30 1189 H 110.31 0.51271 -0.492595 0
M  V30 1190 H 112.912 0.85107 -1.76003 0
M  V30 1191 H 111.616 2.37254 -3.34871 0
M  V30 1192 H 111.147 3.39748 -1.98331 0
M  V30 1193 H 113.162 4.63973 -1.75909 0
M  V30 1194 N 112.336 1.25143 0.95797 0
M  V30 1195 C 113.582 1.09855 1.70469 0
M  V30 1196 C 113.915 -0.360187 1.90831 0
M  V30 1197 O 113.19 -1.26568 1.47685 0
M  V30 1198 C 113.473 1.8497 3.08963 0
M  V30 1199 C 113.326 3.38652 2.96032 0
M  V30 1200 C 114.645 1.63016 4.08795 0
M  V30 1201 H 111.764 0.400465 0.618706 0
M  V30 1202 H 114.406 1.53933 1.11376 0
M  V30 1203 H 112.556 1.47505 3.59409 0
M  V30 1204 H 114.228 3.85772 2.52938 0
M  V30 1205 H 112.471 3.66534 2.32025 0
M  V30 1206 H 113.142 3.8642 3.94187 0
M  V30 1207 H 115.618 1.95625 3.67247 0
M  V30 1208 H 114.494 2.18015 5.03747 0
M  V30 1209 H 114.755 0.570692 4.38401 0
M  V30 1210 N 113.814 -1.1601 1.06675 0
M  V30 1211 C 114.744 -2.22688 0.702307 0
M  V30 1212 C 115.725 -1.67306 -0.307032 0
M  V30 1213 O 116.91 -1.93352 -0.181305 0
M  V30 1214 C 114.04 -3.47178 0.092038 0
M  V30 1215 C 112.994 -4.15477 1.02777 0
M  V30 1216 C 112.32 -5.33963 0.28061 0
M  V30 1217 C 113.62 -4.66019 2.35846 0
M  V30 1218 H 115.314 -2.53429 1.59419 0
M  V30 1219 H 112.86 -1.21813 0.767961 0
M  V30 1220 H 114.813 -4.21037 -0.174814 0
M  V30 1221 H 113.537 -3.15749 -0.834877 0
M  V30 1222 H 112.196 -3.43549 1.27944 0
M  V30 1223 H 111.844 -4.98788 -0.649545 0
M  V30 1224 H 111.544 -5.806 0.904258 0
M  V30 1225 H 113.068 -6.10596 0.021396 0
M  V30 1226 H 114.482 -5.3144 2.15045 0
M  V30 1227 H 112.879 -5.23293 2.93743 0
M  V30 1228 H 113.949 -3.82023 2.98641 0
M  V30 1229 N 115.292 -0.849877 -1.32721 0
M  V30 1230 C 116.239 -0.289033 -2.28983 0
M  V30 1231 C 117.209 0.601324 -1.54833 0
M  V30 1232 O 118.394 0.537253 -1.8308 0
M  V30 1233 C 115.534 0.520623 -3.4115 0
M  V30 1234 C 114.647 -0.394989 -4.3019 0
M  V30 1235 C 113.782 0.426834 -5.29482 0
M  V30 1236 C 112.821 -0.486476 -6.10164 0
M  V30 1237 N 111.958 0.297879 -7.01468 0
M  V30 1238 H 116.798 -1.11519 -2.76347 0
M  V30 1239 H 114.335 -0.56138 -1.35967 0
M  V30 1240 H 116.293 1.00563 -4.04899 0
M  V30 1241 H 114.923 1.31165 -2.9495 0
M  V30 1242 H 113.975 -0.99836 -3.67065 0
M  V30 1243 H 115.287 -1.09612 -4.86607 0
M  V30 1244 H 114.441 0.975205 -5.98811 0
M  V30 1245 H 113.18 1.16136 -4.73671 0
M  V30 1246 H 112.185 -1.04677 -5.39743 0
M  V30 1247 H 113.41 -1.21953 -6.6806 0
M  V30 1248 H 111.356 1.01558 -6.48091 0
M  V30 1249 H 111.273 -0.344318 -7.55216 0
M  V30 1250 H 112.541 0.828131 -7.75089 0
M  V30 1251 N 116.77 1.45427 -0.607355 0
M  V30 1252 C 118.047 1.9557 -0.0344566 0
M  V30 1253 C 118.427 1.54979 1.43334 0
M  V30 1254 O 117.775 0.812241 2.13576 0
M  V30 1255 C 117.985 3.48226 -0.232321 0
M  V30 1256 C 119.333 4.2445 -0.113001 0
M  V30 1257 O 120.357 3.55829 -0.162431 0
M  V30 1258 O 119.216 5.465 0.00209442 0
M  V30 1259 H 116.31 0.826222 0.0358667 0
M  V30 1260 H 118.856 1.55594 -0.6774 0
M  V30 1261 H 117.628 3.70739 -1.25174 0
M  V30 1262 H 117.251 3.95092 0.445896 0
M  V30 1263 N 118.248 0.346503 1.53744 0
M  V30 1264 C 119.473 -0.253074 2.0585 0
M  V30 1265 C 119.898 -1.43202 1.21962 0
M  V30 1266 O 119.256 -1.79783 0.234073 0
M  V30 1267 C 119.304 -0.643193 3.54817 0
M  V30 1268 O 118.408 -1.74286 3.73762 0
M  V30 1269 H 117.749 -0.0413583 0.662711 0
M  V30 1270 H 120.279 0.501574 1.98357 0
M  V30 1271 H 120.289 -0.919526 3.97503 0
M  V30 1272 H 118.964 0.218966 4.15323 0
M  V30 1273 H 117.541 -1.46356 3.42979 0
M  V30 1274 N 119.726 -1.57421 0.075193 0
M  V30 1275 C 120.972 -1.93905 -0.594025 0
M  V30 1276 C 121.305 -0.955701 -1.69056 0
M  V30 1277 O 120.58 0.0145373 -1.94495 0
M  V30 1278 C 120.863 -3.40638 -1.1678 0
M  V30 1279 C 120.716 -4.49733 -0.0776792 0
M  V30 1280 C 122.035 -3.88259 -2.07228 0
M  V30 1281 H 119.154 -0.705105 -0.214466 0
M  V30 1282 H 121.796 -1.8947 0.141854 0
M  V30 1283 H 119.946 -3.44549 -1.79494 0
M  V30 1284 H 121.618 -4.57942 0.555573 0
M  V30 1285 H 119.861 -4.29751 0.591286 0
M  V30 1286 H 120.532 -5.49549 -0.519603 0
M  V30 1287 H 123.008 -3.86376 -1.54445 0
M  V30 1288 H 121.884 -4.91533 -2.44308 0
M  V30 1289 H 122.145 -3.26396 -2.98191 0
M  V30 1290 N 121.204 0.198386 -1.56346 0
M  V30 1291 C 122.432 0.935572 -1.84539 0
M  V30 1292 C 122.847 1.76989 -0.657281 0
M  V30 1293 O 122.204 1.78626 0.374043 0
M  V30 1294 C 122.255 1.8344 -3.11499 0
M  V30 1295 O 121.976 1.03377 -4.25728 0
M  V30 1296 C 123.477 2.68355 -3.52846 0
M  V30 1297 H 120.697 0.273126 -0.612897 0
M  V30 1298 H 123.241 0.20663 -2.03453 0
M  V30 1299 H 121.396 2.51701 -2.94492 0
M  V30 1300 H 121.81 1.64599 -4.98003 0
M  V30 1301 H 123.284 3.27085 -4.44657 0
M  V30 1302 H 123.761 3.41901 -2.75681 0
M  V30 1303 H 124.367 2.05471 -3.72373 0
M  V30 1304 N 122.682 1.50554 0.465978 0
M  V30 1305 C 123.592 1.72585 1.58907 0
M  V30 1306 C 124.608 0.60911 1.6299 0
M  V30 1307 O 125.784 0.88804 1.80765 0
M  V30 1308 C 122.849 1.81995 2.95091 0
M  V30 1309 C 121.91 3.05751 3.01355 0
M  V30 1310 C 121.143 3.14702 4.31043 0
M  V30 1311 O 121.366 2.30313 5.21835 0
M  V30 1312 O 120.3 4.07468 4.43005 0
M  V30 1313 H 124.126 2.67799 1.43239 0
M  V30 1314 H 121.711 1.34711 0.646013 0
M  V30 1315 H 123.593 1.90335 3.75966 0
M  V30 1316 H 122.268 0.899659 3.10947 0
M  V30 1317 H 121.175 3.02908 2.19539 0
M  V30 1318 H 122.508 3.97375 2.90437 0
M  V30 1319 N 124.16 -0.719506 1.40217 0
M  V30 1320 C 125.388 -1.50864 1.41589 0
M  V30 1321 C 125.803 -1.88794 0.0145275 0
M  V30 1322 O 125.16 -1.55174 -0.960594 0
M  V30 1323 C 125.211 -2.78646 2.30302 0
M  V30 1324 O 124.932 -2.42321 3.64983 0
M  V30 1325 C 126.433 -3.72569 2.40224 0
M  V30 1326 H 123.653 -0.465709 0.48307 0
M  V30 1327 H 126.197 -0.88785 1.84221 0
M  V30 1328 H 124.352 -3.37019 1.91042 0
M  V30 1329 H 124.766 -3.24514 4.12057 0
M  V30 1330 H 126.24 -4.5908 3.06512 0
M  V30 1331 H 126.717 -4.15403 1.42608 0
M  V30 1332 H 127.323 -3.20109 2.80019 0
M  V30 1333 N 125.638 -1.25649 -0.95132 0
M  V30 1334 C 126.568 -1.08808 -2.06599 0
M  V30 1335 C 127.549 0.00382547 -1.701 0
M  V30 1336 O 128.734 -0.166325 -1.93486 0
M  V30 1337 C 125.864 -0.709542 -3.39975 0
M  V30 1338 C 124.818 -1.75206 -3.90496 0
M  V30 1339 C 124.144 -1.22811 -5.20405 0
M  V30 1340 C 125.444 -3.15153 -4.16504 0
M  V30 1341 H 127.138 -2.02048 -2.20946 0
M  V30 1342 H 124.684 -0.972835 -1.06169 0
M  V30 1343 H 126.637 -0.578649 -4.17408 0
M  V30 1344 H 125.361 0.258556 -3.25575 0
M  V30 1345 H 124.02 -1.87145 -3.15234 0
M  V30 1346 H 123.668 -0.250145 -5.02378 0
M  V30 1347 H 123.368 -1.92492 -5.55176 0
M  V30 1348 H 124.892 -1.10968 -6.00432 0
M  V30 1349 H 126.306 -3.06349 -4.84586 0
M  V30 1350 H 124.703 -3.82333 -4.62538 0
M  V30 1351 H 125.773 -3.61966 -3.22658 0
M  V30 1352 N 127.117 1.15442 -1.07289 0
M  V30 1353 C 128.528 1.67803 -0.818475 0
M  V30 1354 C 128.879 1.8489 0.656507 0
M  V30 1355 O 128.004 1.55176 1.50829 0
M  V30 1356 C 128.599 3.04805 -1.47917 0
M  V30 1357 C 127.158 3.54245 -1.27229 0
M  V30 1358 C 126.305 2.29986 -1.54925 0
M  V30 1359 H 129.256 0.996646 -1.23502 0
M  V30 1360 H 129.277 3.69702 -0.90005 0
M  V30 1361 H 128.789 2.92336 -2.55267 0
M  V30 1362 H 126.89 3.71956 -0.21899 0
M  V30 1363 H 127.003 4.35723 -1.99203 0
M  V30 1364 H 125.367 2.35496 -0.970242 0
M  V30 1365 H 126.15 2.20105 -2.63455 0
M  V30 1366 N 128.595 0.856903 1.32268 0
M  V30 1367 C 130.011 0.547061 1.49931 0
M  V30 1368 C 130.211 -0.921781 1.7918 0
M  V30 1369 O 129.267 -1.70469 1.8627 0
M  V30 1370 C 130.58 1.43599 2.64196 0
M  V30 1371 C 132.128 1.43665 2.78081 0
M  V30 1372 C 132.603 2.31085 3.95428 0
M  V30 1373 N 134.094 2.28893 4.02694 0
M  V30 1374 C 134.829 2.93262 4.92732 0
M  V30 1375 N 134.325 3.66751 5.87763 0
M  V30 1376 N 136.118 2.82638 4.85873 0
M  V30 1377 H 128.269 1.8075 1.11549 0
M  V30 1378 H 130.532 0.772144 0.549997 0
M  V30 1379 H 130.238 2.48058 2.49319 0
M  V30 1380 H 130.112 1.12502 3.60032 0
M  V30 1381 H 132.499 0.399701 2.92381 0
M  V30 1382 H 132.58 1.7878 1.82952 0
M  V30 1383 H 132.224 3.34849 3.81888 0
M  V30 1384 H 132.154 1.93302 4.89839 0
M  V30 1385 H 134.645 1.75466 3.34694 0
M  V30 1386 H 134.958 4.13027 6.53168 0
M  V30 1387 H 133.303 3.70859 5.87783 0
M  V30 1388 H 136.494 2.24774 4.10602 0
M  V30 1389 H 136.667 3.33084 5.55841 0
M  V30 1390 N 130.073 -1.45103 0.615059 0
M  V30 1391 C 131.319 -2.02483 0.113347 0
M  V30 1392 C 131.652 -1.48146 -1.25564 0
M  V30 1393 O 130.927 -0.659104 -1.82992 0
M  V30 1394 C 131.21 -3.60005 0.0825278 0
M  V30 1395 C 131.063 -4.2466 1.48271 0
M  V30 1396 C 132.382 -4.35972 -0.601401 0
M  V30 1397 H 129.501 -0.735764 0.0426632 0
M  V30 1398 H 132.143 -1.72868 0.788461 0
M  V30 1399 H 130.293 -3.85367 -0.492378 0
M  V30 1400 H 131.965 -4.10458 2.10527 0
M  V30 1401 H 130.208 -3.82772 2.04127 0
M  V30 1402 H 130.879 -5.336 1.41332 0
M  V30 1403 H 133.355 -4.15947 -0.112666 0
M  V30 1404 H 132.231 -5.45697 -0.592097 0
M  V30 1405 H 132.492 -4.09391 -1.66887 0
M  V30 1406 N 131.551 -0.354651 -1.53558 0
M  V30 1407 C 132.499 0.512195 -2.26891 0
M  V30 1408 C 133.493 1.09263 -1.29452 0
M  V30 1409 O 134.699 1.03709 -1.47121 0
M  V30 1410 H 131.074 0.183878 -0.729173 0
M  V30 1411 H 133.045 -0.128202 -2.98124 0
M  V30 1412 C 131.794 1.64563 -3.06291 0
M  V30 1413 H 131.117 1.20829 -3.81104 0
M  V30 1414 H 132.557 2.22711 -3.60799 0
M  V30 1415 C 131.016 2.58158 -2.16462 0
M  V30 1416 O 131.546 3.60695 -1.76811 0
M  V30 1417 N 129.752 2.27096 -1.81317 0
M  V30 1418 H 129.299 1.43751 -2.1376 0
M  V30 1419 H 129.257 2.89975 -1.21498 0
M  V30 1420 N 133.029 1.57378 -0.0835403 0
M  V30 1421 C 134.445 1.57246 0.273109 0
M  V30 1422 C 134.645 1.09385 1.69225 0
M  V30 1423 O 133.701 0.765051 2.40631 0
M  V30 1424 C 135.014 3.00614 0.0720628 0
M  V30 1425 C 136.562 3.12684 0.1407 0
M  V30 1426 C 137.037 4.57989 -0.0322094 0
M  V30 1427 N 138.528 4.63194 0.0230085 0
M  V30 1428 C 139.263 5.73335 -0.0861941 0
M  V30 1429 N 138.759 6.9235 -0.24958 0
M  V30 1430 N 140.552 5.62093 -0.0282886 0
M  V30 1431 H 132.703 1.86801 -1.0109 0
M  V30 1432 H 134.966 0.861687 -0.395222 0
M  V30 1433 H 134.672 3.39786 -0.907662 0
M  V30 1434 H 134.546 3.68193 0.81936 0
M  V30 1435 H 136.933 2.73391 1.11092 0
M  V30 1436 H 137.014 2.47719 -0.637896 0
M  V30 1437 H 136.658 4.97973 -0.999247 0
M  V30 1438 H 136.588 5.21 0.765937 0
M  V30 1439 H 139.079 3.77613 0.14722 0
M  V30 1440 H 139.392 7.72117 -0.324733 0
M  V30 1441 H 137.737 6.94415 -0.285097 0
M  V30 1442 H 140.928 4.67997 0.0981408 0
M  V30 1443 H 141.101 6.47895 -0.116845 0
M  V30 1444 N 134.507 -0.190092 1.56449 0
M  V30 1445 C 135.735 -0.925772 1.85033 0
M  V30 1446 C 136.15 -1.76638 0.666658 0
M  V30 1447 O 135.507 -1.78822 -0.364565 0
M  V30 1448 C 135.558 -1.81786 3.12468 0
M  V30 1449 O 135.279 -1.01118 4.26271 0
M  V30 1450 C 136.78 -2.6648 3.54265 0
M  V30 1451 H 134 -0.269872 0.614337 0
M  V30 1452 H 136.544 -0.195837 2.0356 0
M  V30 1453 H 134.699 -2.50136 2.95822 0
M  V30 1454 H 135.113 -1.61956 4.98869 0
M  V30 1455 H 136.587 -3.24722 4.46385 0
M  V30 1456 H 137.064 -3.40434 2.77491 0
M  V30 1457 H 137.67 -2.03493 3.73458 0
M  V30 1458 N 135.985 -1.50799 -0.457987 0
M  V30 1459 C 136.948 -1.7005 -1.53674 0
M  V30 1460 C 137.948 -0.570881 -1.50325 0
M  V30 1461 O 139.138 -0.838126 -1.52712 0
M  V30 1462 C 136.27 -1.73788 -2.93276 0
M  V30 1463 H 137.463 -2.66306 -1.37917 0
M  V30 1464 H 135.016 -1.40477 -0.685271 0
M  V30 1465 H 135.751 -0.792717 -3.14462 0
M  V30 1466 H 135.536 -2.55864 -2.97113 0
M  V30 1467 H 137.026 -1.90591 -3.71571 0
M  V30 1468 N 137.463 0.71206 -1.40597 0
M  V30 1469 C 138.426 1.80785 -1.40888 0
M  V30 1470 C 139.426 1.57937 -0.302103 0
M  V30 1471 O 140.616 1.64913 -0.561182 0
M  V30 1472 C 137.748 3.18927 -1.20409 0
M  V30 1473 H 138.941 1.81924 -2.38419 0
M  V30 1474 H 136.494 0.91805 -1.26497 0
M  V30 1475 H 137.229 3.23436 -0.236522 0
M  V30 1476 H 137.014 3.36911 -2.00582 0
M  V30 1477 H 138.504 3.98949 -1.23408 0
M  V30 1478 N 138.941 1.26152 0.944643 0
M  V30 1479 C 140.19 1.10883 1.68487 0
M  V30 1480 C 140.503 -0.348153 1.92477 0
M  V30 1481 O 141.709 -0.621459 2.64292 0
M  V30 1482 C 140.165 1.93624 3.03377 0
M  V30 1483 C 139.773 3.43875 2.87148 0
M  V30 1484 C 141.517 1.86954 3.81115 0
M  V30 1485 C 139.424 4.18875 4.1749 0
M  V30 1486 H 138.354 0.41135 0.631907 0
M  V30 1487 H 141.005 1.50433 1.05082 0
M  V30 1488 H 139.387 1.46904 3.67743 0
M  V30 1489 H 140.561 3.98338 2.31653 0
M  V30 1490 H 138.876 3.51744 2.22856 0
M  V30 1491 H 141.473 2.40275 4.77673 0
M  V30 1492 H 141.816 0.839518 4.07747 0
M  V30 1493 H 142.349 2.31477 3.23517 0
M  V30 1494 H 139.088 5.22332 3.96043 0
M  V30 1495 H 138.608 3.69193 4.72712 0
M  V30 1496 H 140.287 4.27134 4.85968 0
M  V30 1497 N 140.419 -1.14872 1.07899 0
M  V30 1498 C 141.644 -1.90202 0.826926 0
M  V30 1499 C 142.069 -1.77774 -0.614664 0
M  V30 1500 O 141.427 -1.11431 -1.43013 0
M  V30 1501 C 141.475 -3.38352 1.24702 0
M  V30 1502 O 140.579 -4.10497 0.39575 0
M  V30 1503 H 139.92 -0.591968 0.300782 0
M  V30 1504 H 142.45 -1.45437 1.43907 0
M  V30 1505 H 142.46 -3.89156 1.22563 0
M  V30 1506 H 141.135 -3.46715 2.29698 0
M  V30 1507 H 139.712 -3.69796 0.480117 0
M  V30 1508 N 141.898 -0.863906 -1.31812 0
M  V30 1509 C 143.146 -0.470904 -1.96537 0
M  V30 1510 C 143.467 0.978771 -1.68657 0
M  V30 1511 O 142.737 1.6853 -0.998717 0
M  V30 1512 H 141.317 -0.171148 -0.72713 0
M  V30 1513 H 143.979 -1.10236 -1.60729 0
M  V30 1514 H 143.075 -0.623616 -3.05806 0
M  V30 1515 N 143.376 1.44774 -0.622745 0
M  V30 1516 C 144.606 2.06187 -0.130532 0
M  V30 1517 C 145.014 1.46547 1.19669 0
M  V30 1518 O 144.357 0.579636 1.74316 0
M  V30 1519 C 144.419 3.59437 0.0674983 0
M  V30 1520 C 144.083 4.41496 -1.18026 0
M  V30 1521 C 145.08 4.75512 -2.102 0
M  V30 1522 C 142.765 4.82007 -1.41333 0
M  V30 1523 C 144.759 5.48912 -3.23998 0
M  V30 1524 C 142.446 5.55157 -2.55429 0
M  V30 1525 C 143.444 5.88528 -3.46589 0
M  V30 1526 O 143.132 6.60191 -4.58697 0
M  V30 1527 H 142.864 0.672045 -0.0730162 0
M  V30 1528 H 145.418 1.86768 -0.854802 0
M  V30 1529 H 143.648 3.77314 0.846825 0
M  V30 1530 H 145.337 4.02642 0.513209 0
M  V30 1531 H 146.103 4.4476 -1.93425 0
M  V30 1532 H 141.982 4.55457 -0.712709 0
M  V30 1533 H 145.526 5.74877 -3.95174 0
M  V30 1534 H 141.423 5.85324 -2.72151 0
M  V30 1535 H 142.191 6.78654 -4.57571 0
M  V30 1536 N 144.854 0.36279 1.53368 0
M  V30 1537 C 146.079 -0.231226 2.06107 0
M  V30 1538 C 146.504 -1.419 1.23474 0
M  V30 1539 O 145.862 -1.79524 0.253128 0
M  V30 1540 C 145.91 -0.605523 3.5548 0
M  V30 1541 O 145.014 -1.70312 3.7559 0
M  V30 1542 H 144.355 -0.034327 0.663112 0
M  V30 1543 H 146.885 0.522584 1.97814 0
M  V30 1544 H 146.895 -0.877314 3.98456 0
M  V30 1545 H 145.57 0.263004 4.15068 0
M  V30 1546 H 144.147 -1.4271 3.44512 0
M  V30 1547 N 146.332 -1.57332 0.0918853 0
M  V30 1548 C 147.579 -1.94236 -0.572577 0
M  V30 1549 C 147.907 -0.973398 -1.6839 0
M  V30 1550 O 147.162 0.00756912 -1.95699 0
M  V30 1551 C 147.461 -3.37689 -1.17051 0
M  V30 1552 C 147.127 -4.50527 -0.183304 0
M  V30 1553 C 145.789 -4.81119 0.0882276 0
M  V30 1554 C 148.141 -5.18883 0.49095 0
M  V30 1555 C 145.469 -5.77395 1.04076 0
M  V30 1556 C 147.821 -6.1618 1.43193 0
M  V30 1557 C 146.485 -6.45179 1.71173 0
M  V30 1558 H 145.755 -0.710762 -0.209521 0
M  V30 1559 H 148.402 -1.9077 0.167036 0
M  V30 1560 H 146.707 -3.37718 -1.9863 0
M  V30 1561 H 148.404 -3.63543 -1.69227 0
M  V30 1562 H 144.994 -4.26681 -0.405124 0
M  V30 1563 H 149.178 -4.95427 0.294312 0
M  V30 1564 H 144.434 -5.98179 1.26457 0
M  V30 1565 H 148.608 -6.68243 1.96023 0
M  V30 1566 H 146.235 -7.1959 2.4514 0
M  V30 1567 N 147.81 0.181792 -1.56548 0
M  V30 1568 C 148.757 1.22521 -1.95595 0
M  V30 1569 C 149.727 1.4454 -0.818373 0
M  V30 1570 O 150.912 1.57454 -1.07763 0
M  V30 1571 C 148.052 2.56193 -2.31212 0
M  V30 1572 C 147.165 2.41641 -3.58097 0
M  V30 1573 C 146.3 3.68108 -3.82975 0
M  V30 1574 C 145.339 3.48445 -5.03242 0
M  V30 1575 N 144.476 4.66956 -5.24306 0
M  V30 1576 H 149.316 0.885226 -2.84548 0
M  V30 1577 H 146.853 0.425718 -1.40805 0
M  V30 1578 H 148.811 3.34088 -2.49882 0
M  V30 1579 H 147.441 2.88208 -1.45382 0
M  V30 1580 H 146.493 1.54976 -3.474 0
M  V30 1581 H 147.805 2.23052 -4.46149 0
M  V30 1582 H 146.959 4.54441 -4.01956 0
M  V30 1583 H 145.698 3.89666 -2.93278 0
M  V30 1584 H 144.703 2.60499 -4.8417 0
M  V30 1585 H 145.928 3.2832 -5.9446 0
M  V30 1586 H 143.874 4.88752 -4.37559 0
M  V30 1587 H 143.791 4.51242 -6.06561 0
M  V30 1588 H 145.059 5.54602 -5.47756 0
M  V30 1589 N 149.288 1.51039 0.449983 0
M  V30 1590 C 150.22 1.67617 1.56324 0
M  V30 1591 C 151.233 0.557083 1.52972 0
M  V30 1592 O 152.422 0.830989 1.57977 0
M  V30 1593 C 149.522 1.66402 2.95235 0
M  V30 1594 C 148.695 2.9469 3.23229 0
M  V30 1595 C 147.754 2.85832 4.41799 0
M  V30 1596 O 146.78 3.59785 4.41071 0
M  V30 1597 N 147.982 2.00821 5.44657 0
M  V30 1598 H 150.747 2.63648 1.42512 0
M  V30 1599 H 148.308 1.48767 0.638737 0
M  V30 1600 H 150.3 1.58062 3.72557 0
M  V30 1601 H 148.87 0.780182 3.02708 0
M  V30 1602 H 148.09 3.16996 2.34323 0
M  V30 1603 H 149.378 3.79636 3.38754 0
M  V30 1604 H 148.776 1.40091 5.48079 0
M  V30 1605 H 147.333 1.98368 6.20881 0
M  V30 1606 N 150.766 -0.704594 1.40972 0
M  V30 1607 C 152.006 -1.47691 1.41304 0
M  V30 1608 C 152.37 -1.91992 0.0178582 0
M  V30 1609 O 153.571 -2.68599 -0.103996 0
M  V30 1610 C 151.842 -2.66254 2.38419 0
M  V30 1611 S 153.401 -3.55516 2.57204 0
M  V30 1612 H 150.219 -0.504808 0.500689 0
M  V30 1613 H 152.821 -0.822962 1.77335 0
M  V30 1614 H 151.525 -2.31897 3.38603 0
M  V30 1615 H 151.056 -3.3655 2.03711 0
M  V30 1616 H 153.071 -4.61115 1.83268 0
M  V30 1617 N 152.244 -1.26651 -0.937939 0
M  V30 1618 C 153.469 -1.15279 -1.72411 0
M  V30 1619 C 153.894 0.287866 -1.85884 0
M  V30 1620 O 153.252 1.20855 -1.35143 0
M  V30 1621 C 153.3 -1.83028 -3.10698 0
M  V30 1622 O 152.404 -1.12128 -3.96864 0
M  V30 1623 H 151.745 -0.401504 -0.528858 0
M  V30 1624 H 154.275 -1.67531 -1.1745 0
M  V30 1625 H 154.285 -1.89981 -3.6107 0
M  V30 1626 H 152.96 -2.87833 -3.00208 0
M  V30 1627 H 151.537 -1.13173 -3.55312 0
M  V30 1628 N 153.722 1.14298 -1.08507 0
M  V30 1629 C 154.672 2.17449 -0.685569 0
M  V30 1630 C 155.656 1.58167 0.295315 0
M  V30 1631 O 156.848 1.76675 0.107172 0
M  V30 1632 C 153.977 3.43161 -0.0975318 0
M  V30 1633 C 153.063 4.09471 -1.10426 0
M  V30 1634 N 153.454 4.51089 -2.28806 0
M  V30 1635 C 151.752 4.35976 -0.940258 0
M  V30 1636 C 152.453 5.02654 -2.9277 0
M  V30 1637 N 151.429 4.96927 -2.20374 0
M  V30 1638 H 155.231 2.47369 -1.587 0
M  V30 1639 H 152.745 1.30992 -0.959936 0
M  V30 1640 H 154.742 4.16388 0.20664 0
M  V30 1641 H 153.402 3.14719 0.798872 0
M  V30 1642 H 154.413 4.44097 -2.66455 0
M  V30 1643 H 151.09 4.17386 -0.0977441 0
M  V30 1644 H 152.48 5.44723 -3.93352 0
M  V30 1645 N 155.201 0.870884 1.31352 0
M  V30 1646 C 156.133 0.28455 2.27427 0
M  V30 1647 C 157.146 -0.552927 1.53123 0
M  V30 1648 O 158.335 -0.374771 1.74521 0
M  V30 1649 C 155.435 -0.615164 3.3327 0
M  V30 1650 C 154.608 0.190079 4.36987 0
M  V30 1651 C 153.667 -0.637917 5.22319 0
M  V30 1652 O 152.693 -0.065626 5.69162 0
M  V30 1653 N 153.895 -1.94973 5.46778 0
M  V30 1654 H 156.66 1.11017 2.7838 0
M  V30 1655 H 154.221 0.732458 1.44384 0
M  V30 1656 H 156.213 -1.1748 3.87273 0
M  V30 1657 H 154.783 -1.34146 2.82354 0
M  V30 1658 H 154.003 0.931165 3.83044 0
M  V30 1659 H 155.291 0.742579 5.03352 0
M  V30 1660 H 154.689 -2.4378 5.10478 0
M  V30 1661 H 153.246 -2.45713 6.03712 0
M  V30 1662 N 156.679 -1.44442 0.630414 0
M  V30 1663 C 157.928 -2.01267 0.132073 0
M  V30 1664 C 158.241 -1.50172 -1.25331 0
M  V30 1665 O 159.447 -1.9912 -1.84562 0
M  V30 1666 C 157.903 -3.59422 0.185362 0
M  V30 1667 C 157.511 -4.19514 1.57201 0
M  V30 1668 C 159.255 -4.23724 -0.256553 0
M  V30 1669 C 157.162 -5.69891 1.58045 0
M  V30 1670 H 156.092 -0.752619 0.0456092 0
M  V30 1671 H 158.743 -1.65666 0.789106 0
M  V30 1672 H 157.125 -3.92318 -0.538759 0
M  V30 1673 H 158.299 -3.98156 2.31966 0
M  V30 1674 H 156.614 -3.67496 1.95795 0
M  V30 1675 H 159.211 -5.34019 -0.269767 0
M  V30 1676 H 159.554 -3.96013 -1.28372 0
M  V30 1677 H 160.087 -3.95629 0.41505 0
M  V30 1678 H 156.826 -6.02336 2.58597 0
M  V30 1679 H 156.346 -5.93373 0.875725 0
M  V30 1680 H 158.025 -6.33515 1.31408 0
M  V30 1681 N 158.157 -0.370918 -1.53173 0
M  V30 1682 C 159.382 0.220293 -2.06227 0
M  V30 1683 C 159.807 1.41243 -1.24225 0
M  V30 1684 O 159.165 1.79387 -0.262645 0
M  V30 1685 C 159.213 0.586663 -3.55796 0
M  V30 1686 O 158.317 1.68317 -3.76488 0
M  V30 1687 H 157.658 0.0308099 -0.663285 0
M  V30 1688 H 160.188 -0.533068 -1.97534 0
M  V30 1689 H 160.198 0.85617 -3.98916 0
M  V30 1690 H 158.873 -0.285013 -4.14922 0
M  V30 1691 H 157.45 1.40881 -3.45264 0
M  V30 1692 N 159.635 1.57281 -0.100228 0
M  V30 1693 C 160.598 2.13158 0.842398 0
M  V30 1694 C 161.598 1.06202 1.20738 0
M  V30 1695 O 162.788 1.32066 1.13597 0
M  V30 1696 C 159.92 2.65639 2.13655 0
M  V30 1697 H 161.113 2.97766 0.357114 0
M  V30 1698 H 158.666 1.5559 0.148823 0
M  V30 1699 H 159.401 1.84566 2.66657 0
M  V30 1700 H 159.186 3.43844 1.88451 0
M  V30 1701 H 160.676 3.08846 2.81077 0
M  V30 1702 N 161.113 -0.173488 1.56642 0
M  V30 1703 C 162.353 -0.896984 1.83667 0
M  V30 1704 C 162.717 -1.79523 0.680842 0
M  V30 1705 O 163.918 -2.55616 0.831488 0
M  V30 1706 C 162.189 -1.67351 3.15798 0
M  V30 1707 S 163.748 -2.44607 3.64298 0
M  V30 1708 H 160.566 -0.300464 0.644393 0
M  V30 1709 H 163.168 -0.158775 1.94854 0
M  V30 1710 H 161.872 -1.00462 3.97914 0
M  V30 1711 H 161.403 -2.45313 3.07546 0
M  V30 1712 H 163.418 -3.69261 3.31452 0
M  V30 1713 N 162.591 -1.51276 -0.441967 0
M  V30 1714 C 163.539 -1.72823 -1.55676 0
M  V30 1715 C 164.533 -0.59445 -1.58627 0
M  V30 1716 O 165.739 -0.775715 -1.62427 0
M  V30 1717 H 162.114 -0.545983 -0.517113 0
M  V30 1718 H 164.085 -2.6628 -1.34675 0
M  V30 1719 C 162.834 -1.86619 -2.93375 0
M  V30 1720 H 162.157 -2.73264 -2.91834 0
M  V30 1721 H 163.597 -2.05709 -3.70756 0
M  V30 1722 C 162.056 -0.624842 -3.31055 0
M  V30 1723 O 162.586 0.222636 -4.01083 0
M  V30 1724 N 160.792 -0.470288 -2.86769 0
M  V30 1725 H 160.339 -1.161 -2.29953 0
M  V30 1726 H 160.297 0.359051 -3.12343 0
M  V30 1727 N 164.069 0.697108 -1.41344 0
M  V30 1728 C 165.016 1.81106 -1.43071 0
M  V30 1729 C 165.986 1.63632 -0.285275 0
M  V30 1730 O 167.171 1.84504 -0.486091 0
M  V30 1731 C 164.311 3.18975 -1.31715 0
M  V30 1732 C 163.424 3.47892 -2.56115 0
M  V30 1733 C 162.559 4.75367 -2.37064 0
M  V30 1734 C 161.598 4.97247 -3.56948 0
M  V30 1735 N 160.735 6.15947 -3.36977 0
M  V30 1736 H 165.575 1.78965 -2.38276 0
M  V30 1737 H 163.112 0.873975 -1.18322 0
M  V30 1738 H 165.07 3.98615 -1.23133 0
M  V30 1739 H 163.7 3.20297 -0.401183 0
M  V30 1740 H 162.752 2.62669 -2.75153 0
M  V30 1741 H 164.064 3.59962 -3.45295 0
M  V30 1742 H 163.218 5.63059 -2.25941 0
M  V30 1743 H 161.957 4.65541 -1.45338 0
M  V30 1744 H 160.962 4.08004 -3.68527 0
M  V30 1745 H 162.187 5.08934 -4.49626 0
M  V30 1746 H 160.133 6.07336 -2.47949 0
M  V30 1747 H 160.05 6.28777 -4.19732 0
M  V30 1748 H 161.318 7.06377 -3.29623 0
M  V30 1749 N 165.547 1.27147 0.931209 0
M  V30 1750 C 166.824 1.0401 1.65654 0
M  V30 1751 C 167.204 -0.426297 2.06751 0
M  V30 1752 O 166.552 -1.40879 1.79904 0
M  V30 1753 C 166.762 1.99834 2.86125 0
M  V30 1754 C 168.11 2.29007 3.57549 0
M  V30 1755 O 169.134 1.97779 2.96246 0
M  V30 1756 O 167.993 2.82222 4.67989 0
M  V30 1757 H 165.087 0.396239 0.725895 0
M  V30 1758 H 167.633 1.38397 0.982056 0
M  V30 1759 H 166.405 2.98744 2.52721 0
M  V30 1760 H 166.028 1.65987 3.61295 0
M  V30 1761 N 167.025 -1.13721 1.09112 0
M  V30 1762 C 168.274 -1.84275 0.82009 0
M  V30 1763 C 168.587 -1.84253 -0.656509 0
M  V30 1764 O 169.793 -2.50668 -1.04296 0
M  V30 1765 C 168.249 -3.30825 1.41714 0
M  V30 1766 C 167.857 -3.39244 2.92605 0
M  V30 1767 C 169.601 -4.06443 1.22492 0
M  V30 1768 C 167.508 -4.80047 3.45411 0
M  V30 1769 H 166.438 -0.690387 0.30312 0
M  V30 1770 H 169.089 -1.28146 1.31343 0
M  V30 1771 H 167.471 -3.86737 0.851498 0
M  V30 1772 H 168.645 -2.93344 3.55367 0
M  V30 1773 H 166.96 -2.77088 3.10823 0
M  V30 1774 H 169.557 -5.10387 1.59402 0
M  V30 1775 H 169.9 -4.15972 0.165299 0
M  V30 1776 H 170.433 -3.56852 1.75788 0
M  V30 1777 H 167.172 -4.75709 4.50978 0
M  V30 1778 H 166.692 -5.26455 2.87411 0
M  V30 1779 H 168.371 -5.48957 3.42425 0
M  V30 1780 N 168.503 -0.877838 -1.30888 0
M  V30 1781 C 169.733 -0.506678 -2.00291 0
M  V30 1782 C 170.141 0.907449 -1.66018 0
M  V30 1783 O 169.484 1.60719 -0.88967 0
M  V30 1784 C 169.546 -0.59323 -3.54572 0
M  V30 1785 C 169.21 -1.97038 -4.12341 0
M  V30 1786 C 170.207 -2.93889 -4.28865 0
M  V30 1787 C 167.892 -2.27383 -4.47886 0
M  V30 1788 C 169.886 -4.19224 -4.80136 0
M  V30 1789 C 167.573 -3.52965 -4.98857 0
M  V30 1790 C 168.571 -4.48701 -5.14934 0
M  V30 1791 O 168.259 -5.72056 -5.64808 0
M  V30 1792 H 167.991 -0.1951 -0.647234 0
M  V30 1793 H 170.545 -1.18301 -1.6791 0
M  V30 1794 H 168.775 0.140057 -3.86446 0
M  V30 1795 H 170.464 -0.234372 -4.05223 0
M  V30 1796 H 171.23 -2.71756 -4.01714 0
M  V30 1797 H 167.109 -1.53639 -4.34645 0
M  V30 1798 H 170.653 -4.93956 -4.92599 0
M  V30 1799 H 166.55 -3.74939 -5.25443 0
M  V30 1800 H 167.318 -5.74337 -5.83163 0
M  V30 1801 N 169.982 1.44106 -0.638065 0
M  V30 1802 C 171.228 2.02277 -0.145546 0
M  V30 1803 C 171.561 1.50125 1.23191 0
M  V30 1804 O 170.836 0.688133 1.8192 0
M  V30 1805 C 171.119 3.59829 -0.139791 0
M  V30 1806 C 170.972 4.22247 -1.55008 0
M  V30 1807 C 172.291 4.36873 0.531966 0
M  V30 1808 H 169.41 0.734992 -0.0543632 0
M  V30 1809 H 172.052 1.71592 -0.815863 0
M  V30 1810 H 170.202 3.86102 0.431007 0
M  V30 1811 H 171.874 4.07057 -2.1703 0
M  V30 1812 H 170.117 3.79476 -2.10191 0
M  V30 1813 H 170.788 5.31284 -1.49804 0
M  V30 1814 H 173.264 4.16074 0.0464781 0
M  V30 1815 H 172.14 5.4657 0.505206 0
M  V30 1816 H 172.401 4.11995 1.60352 0
M  V30 1817 N 171.46 0.379036 1.52974 0
M  V30 1818 C 172.737 -0.263479 1.93817 0
M  V30 1819 C 173.117 -1.65244 1.31368 0
M  V30 1820 O 172.465 -2.23448 0.477856 0
M  V30 1821 C 172.675 -0.300166 3.47707 0
M  V30 1822 C 174.023 -0.534061 4.21228 0
M  V30 1823 O 175.047 -0.38081 3.54159 0
M  V30 1824 O 173.906 -0.833501 5.40106 0
M  V30 1825 H 171 -0.161149 0.811147 0
M  V30 1826 H 173.546 0.432798 1.64088 0
M  V30 1827 H 172.318 0.673138 3.85467 0
M  V30 1828 H 171.941 -1.04179 3.83709 0
M  V30 1829 N 172.938 -1.57226 0.108567 0
M  V30 1830 C 173.868 -2.17778 -0.84232 0
M  V30 1831 C 174.849 -1.11487 -1.2847 0
M  V30 1832 O 176.034 -1.39681 -1.34918 0
M  V30 1833 C 173.164 -2.76888 -2.09644 0
M  V30 1834 C 172.118 -3.88669 -1.79221 0
M  V30 1835 C 171.444 -4.34541 -3.11574 0
M  V30 1836 C 172.744 -5.11251 -1.06864 0
M  V30 1837 H 174.438 -2.97489 -0.337774 0
M  V30 1838 H 171.984 -1.43097 -0.161025 0
M  V30 1839 H 173.937 -3.17904 -2.76614 0
M  V30 1840 H 172.661 -1.94451 -2.62405 0
M  V30 1841 H 171.32 -3.48213 -1.14644 0
M  V30 1842 H 170.968 -3.48977 -3.62249 0
M  V30 1843 H 170.668 -5.09914 -2.91996 0
M  V30 1844 H 172.192 -4.782 -3.7968 0
M  V30 1845 H 173.606 -5.49352 -1.63968 0
M  V30 1846 H 172.003 -5.9214 -0.974178 0
M  V30 1847 H 173.073 -4.8487 -0.0536168 0
M  V30 1848 N 174.416 0.165178 -1.56732 0
M  V30 1849 C 175.693 0.908443 -1.73224 0
M  V30 1850 C 176.073 2.0013 -0.67165 0
M  V30 1851 O 175.421 2.26353 0.31253 0
M  V30 1852 C 175.631 1.46756 -3.16644 0
M  V30 1853 C 176.979 1.93809 -3.77787 0
M  V30 1854 O 178.003 1.56537 -3.1996 0
M  V30 1855 O 176.862 2.62486 -4.79336 0
M  V30 1856 H 173.956 0.428025 -0.707618 0
M  V30 1857 H 176.502 0.152526 -1.69013 0
M  V30 1858 H 175.274 0.68129 -3.85323 0
M  V30 1859 H 174.897 2.28749 -3.25207 0
M  V30 1860 N 175.894 1.51508 0.433938 0
M  V30 1861 C 176.827 1.67756 1.54704 0
M  V30 1862 C 177.805 0.525127 1.53887 0
M  V30 1863 O 178.989 0.749393 1.72963 0
M  V30 1864 C 176.116 1.69424 2.9328 0
M  V30 1865 C 175.162 2.90673 3.12108 0
M  V30 1866 S 175.995 4.51431 2.88046 0
M  V30 1867 C 177.151 4.55849 4.28897 0
M  V30 1868 H 177.384 2.61904 1.40689 0
M  V30 1869 H 174.917 1.41235 0.62386 0
M  V30 1870 H 176.875 1.7107 3.73156 0
M  V30 1871 H 175.536 0.764464 3.04655 0
M  V30 1872 H 174.729 2.88251 4.13434 0
M  V30 1873 H 174.331 2.86786 2.40062 0
M  V30 1874 H 176.623 4.31699 5.22152 0
M  V30 1875 H 177.566 5.57676 4.36351 0
M  V30 1876 H 177.974 3.85137 4.12711 0
M  V30 1877 N 177.372 -0.689602 1.41712 0
M  V30 1878 C 178.319 -1.80345 1.44029 0
M  V30 1879 C 179.289 -1.63478 0.293948 0
M  V30 1880 O 180.474 -1.84244 0.495869 0
M  V30 1881 C 177.614 -3.18272 1.33405 0
M  V30 1882 C 176.727 -3.46529 2.57956 0
M  V30 1883 C 175.862 -4.74103 2.39582 0
M  V30 1884 C 174.901 -4.95347 3.5958 0
M  V30 1885 N 174.038 -6.14151 3.40239 0
M  V30 1886 H 178.878 -1.77698 2.39222 0
M  V30 1887 H 176.415 -0.867688 1.18784 0
M  V30 1888 H 178.373 -3.97956 1.25246 0
M  V30 1889 H 177.003 -3.2008 0.418164 0
M  V30 1890 H 176.055 -2.61207 2.76542 0
M  V30 1891 H 177.367 -3.58126 3.47199 0
M  V30 1892 H 176.521 -5.61853 2.28924 0
M  V30 1893 H 175.26 -4.64763 1.47805 0
M  V30 1894 H 174.265 -4.06044 3.70686 0
M  V30 1895 H 175.49 -5.06542 4.52318 0
M  V30 1896 H 173.436 -6.06013 2.51167 0
M  V30 1897 H 173.353 -6.26543 4.23061 0
M  V30 1898 H 174.621 -7.04619 3.33365 0
M  V30 1899 N 178.85 -1.27639 -0.924453 0
M  V30 1900 C 180.098 -1.13941 -1.66918 0
M  V30 1901 C 180.419 0.314589 -1.92446 0
M  V30 1902 O 179.689 1.21964 -1.53303 0
M  V30 1903 H 178.269 -0.418678 -0.618642 0
M  V30 1904 H 180.931 -1.60213 -1.10985 0
M  V30 1905 H 180.027 -1.67094 -2.63602 0
M  V30 1906 N 180.328 1.1314 -1.09713 0
M  V30 1907 C 181.577 1.83838 -0.829851 0
M  V30 1908 C 181.89 1.84599 0.646728 0
M  V30 1909 O 183.096 2.51218 1.02965 0
M  V30 1910 C 181.552 3.30069 -1.43466 0
M  V30 1911 C 181.16 3.37688 -2.94399 0
M  V30 1912 C 182.904 4.05788 -1.24645 0
M  V30 1913 C 180.811 4.78209 -3.47952 0
M  V30 1914 H 179.741 0.68877 -0.306777 0
M  V30 1915 H 182.392 1.27448 -1.3202 0
M  V30 1916 H 180.774 3.8628 -0.871996 0
M  V30 1917 H 181.948 2.91456 -3.56918 0
M  V30 1918 H 180.263 2.75436 -3.12289 0
M  V30 1919 H 182.86 5.09535 -1.62107 0
M  V30 1920 H 183.203 4.15878 -0.187357 0
M  V30 1921 H 183.736 3.55915 -1.77678 0
M  V30 1922 H 180.475 4.73311 -4.53495 0
M  V30 1923 H 179.995 5.24924 -2.90198 0
M  V30 1924 H 181.674 5.47133 -3.45332 0
M  V30 1925 N 181.806 0.884767 1.30421 0
M  V30 1926 C 182.754 0.340869 2.30089 0
M  V30 1927 C 183.748 -0.55201 1.60154 0
M  V30 1928 O 184.954 -0.436467 1.74628 0
M  V30 1929 H 181.329 0.0915739 0.746404 0
M  V30 1930 H 183.3 1.19513 2.73421 0
M  V30 1931 C 182.049 -0.429779 3.45034 0
M  V30 1932 H 181.372 0.248024 3.9903 0
M  V30 1933 H 182.812 -0.775445 4.16849 0
M  V30 1934 C 181.271 -1.62677 2.95022 0
M  V30 1935 O 181.801 -2.72614 2.95033 0
M  V30 1936 N 180.007 -1.46387 2.51036 0
M  V30 1937 H 179.554 -0.569506 2.51226 0
M  V30 1938 H 179.512 -2.26612 2.17932 0
M  V30 1939 N 183.284 -1.43765 0.645699 0
M  V30 1940 C 184.514 -2.05953 0.163318 0
M  V30 1941 C 184.922 -1.48432 -1.17322 0
M  V30 1942 O 184.265 -0.607295 -1.73371 0
M  V30 1943 C 184.327 -3.59499 -0.0103065 0
M  V30 1944 C 183.991 -4.39563 1.25035 0
M  V30 1945 C 184.988 -4.72108 2.17739 0
M  V30 1946 C 182.673 -4.79697 1.48983 0
M  V30 1947 C 184.667 -5.43688 3.3269 0
M  V30 1948 C 182.354 -5.51023 2.64229 0
M  V30 1949 C 183.352 -5.8294 3.55908 0
M  V30 1950 O 183.04 -6.5281 4.69142 0
M  V30 1951 H 182.772 -0.670798 0.0836986 0
M  V30 1952 H 185.326 -1.85384 0.884407 0
M  V30 1953 H 183.556 -3.78613 -0.78669 0
M  V30 1954 H 185.245 -4.03408 -0.449087 0
M  V30 1955 H 186.011 -4.41627 2.00476 0
M  V30 1956 H 181.89 -4.54266 0.785078 0
M  V30 1957 H 185.434 -5.68517 4.04269 0
M  V30 1958 H 181.331 -5.8092 2.81429 0
M  V30 1959 H 182.099 -6.71288 4.6831 0
M  V30 1960 N 184.763 -0.387143 -1.52771 0
M  V30 1961 C 185.711 0.463953 -2.27926 0
M  V30 1962 C 186.705 1.06493 -1.31741 0
M  V30 1963 O 187.911 1.00565 -1.49287 0
M  V30 1964 H 184.286 0.16837 -0.732909 0
M  V30 1965 H 186.257 -0.19141 -2.97785 0
M  V30 1966 C 185.006 1.5803 -3.09713 0
M  V30 1967 H 184.329 1.12718 -3.83581 0
M  V30 1968 H 185.769 2.15008 -3.65442 0
M  V30 1969 C 184.228 2.53509 -2.2189 0
M  V30 1970 O 184.758 3.56863 -1.84422 0
M  V30 1971 N 182.964 2.23199 -1.86093 0
M  V30 1972 H 182.511 1.39185 -2.16761 0
M  V30 1973 H 182.469 2.87333 -1.27621 0
M  V30 1974 N 186.241 1.57166 -0.116904 0
M  V30 1975 C 187.466 1.999 0.55271 0
M  V30 1976 C 187.891 0.996039 1.59564 0
M  V30 1977 O 187.249 -0.032556 1.81271 0
M  V30 1978 C 187.297 3.4152 1.15742 0
M  V30 1979 O 186.401 3.44106 2.27299 0
M  V30 1980 H 185.742 0.649447 0.138258 0
M  V30 1981 H 188.272 2.03573 -0.204759 0
M  V30 1982 H 188.282 3.79684 1.49346 0
M  V30 1983 H 186.957 4.14034 0.393493 0
M  V30 1984 H 185.534 3.17759 1.9515 0
M  V30 1985 N 187.719 -0.156864 1.56817 0
M  V30 1986 C 188.944 -0.890331 1.87318 0
M  V30 1987 C 189.369 -1.74394 0.704855 0
M  V30 1988 O 188.727 -1.77972 -0.345786 0
M  V30 1989 C 188.775 -1.73102 3.16336 0
M  V30 1990 O 187.879 -2.83422 2.99576 0
M  V30 1991 H 187.22 -0.24857 0.615718 0
M  V30 1992 H 189.75 -0.150649 2.04045 0
M  V30 1993 H 189.76 -2.12803 3.48107 0
M  V30 1994 H 188.435 -1.10412 4.00976 0
M  V30 1995 H 187.012 -2.47199 2.7919 0
M  V30 1996 N 189.197 -1.51736 -0.425897 0
M  V30 1997 C 190.443 -1.65214 -1.1761 0
M  V30 1998 C 190.776 -0.372778 -1.90589 0
M  V30 1999 O 190.051 0.628139 -1.84078 0
M  V30 2000 C 190.334 -2.86312 -2.18398 0
M  V30 2001 C 190.187 -4.24254 -1.49426 0
M  V30 2002 C 191.506 -3.02925 -3.19256 0
M  V30 2003 H 188.625 -0.601263 -0.426206 0
M  V30 2004 H 191.267 -1.8425 -0.463882 0
M  V30 2005 H 189.417 -2.70213 -2.79137 0
M  V30 2006 H 191.089 -4.52046 -0.919362 0
M  V30 2007 H 189.332 -4.26426 -0.796432 0
M  V30 2008 H 190.003 -5.05001 -2.22885 0
M  V30 2009 H 192.479 -3.1781 -2.68581 0
M  V30 2010 H 191.355 -3.89199 -3.8706 0
M  V30 2011 H 191.616 -2.15497 -3.86023 0
M  V30 2012 N 190.675 0.682077 -1.42076 0
M  V30 2013 C 191.638 1.77756 -1.44691 0
M  V30 2014 C 192.638 1.5726 -0.335535 0
M  V30 2015 O 193.828 1.63686 -0.596037 0
M  V30 2016 C 190.96 3.16301 -1.27146 0
M  V30 2017 H 192.153 1.76826 -2.42224 0
M  V30 2018 H 189.706 0.891012 -1.28416 0
M  V30 2019 H 190.441 3.22862 -0.305075 0
M  V30 2020 H 190.226 3.32581 -2.07683 0
M  V30 2021 H 191.716 3.96241 -1.31843 0
M  V30 2022 N 192.153 1.28127 0.917671 0
M  V30 2023 C 193.1 1.11717 2.0196 0
M  V30 2024 C 194.07 0.0153929 1.66093 0
M  V30 2025 O 195.255 0.179596 1.89953 0
M  V30 2026 C 192.395 0.780927 3.36148 0
M  V30 2027 C 191.508 1.96135 3.84909 0
M  V30 2028 C 190.643 1.56609 5.0759 0
M  V30 2029 C 189.682 2.71339 5.48673 0
M  V30 2030 N 188.819 2.32332 6.62545 0
M  V30 2031 H 193.659 2.06003 2.15329 0
M  V30 2032 H 191.196 1.02535 1.05475 0
M  V30 2033 H 193.154 0.56675 4.13333 0
M  V30 2034 H 191.784 -0.124998 3.22558 0
M  V30 2035 H 190.836 2.28777 3.03916 0
M  V30 2036 H 192.148 2.82165 4.1132 0
M  V30 2037 H 191.302 1.31374 5.92305 0
M  V30 2038 H 190.041 0.677014 4.82978 0
M  V30 2039 H 189.046 2.97276 4.62501 0
M  V30 2040 H 190.271 3.60882 5.75274 0
M  V30 2041 H 188.217 1.45889 6.39572 0
M  V30 2042 H 188.134 3.11899 6.88662 0
M  V30 2043 H 189.402 2.10371 7.50576 0
M  V30 2044 N 193.631 -1.12557 1.10312 0
M  V30 2045 C 194.856 -1.88405 0.867085 0
M  V30 2046 C 195.281 -1.79038 -0.576817 0
M  V30 2047 O 194.639 -1.14439 -1.40618 0
M  V30 2048 C 194.687 -3.3563 1.31851 0
M  V30 2049 O 193.791 -4.09565 0.482734 0
M  V30 2050 H 193.132 -0.585455 0.313271 0
M  V30 2051 H 195.662 -1.42352 1.4696 0
M  V30 2052 H 195.672 -3.86469 1.3079 0
M  V30 2053 H 194.347 -3.41765 2.37001 0
M  V30 2054 H 192.924 -3.68695 0.558448 0
M  V30 2055 N 195.109 -0.891671 -1.2995 0
M  V30 2056 C 196.072 -0.36828 -2.26222 0
M  V30 2057 C 197.072 0.493014 -1.53056 0
M  V30 2058 O 198.262 0.299213 -1.71611 0
M  V30 2059 C 195.394 0.47442 -3.37583 0
M  V30 2060 H 196.587 -1.21844 -2.74033 0
M  V30 2061 H 194.14 -0.669107 -1.41254 0
M  V30 2062 H 194.875 1.34489 -2.95099 0
M  V30 2063 H 194.66 -0.142615 -3.91841 0
M  V30 2064 H 196.15 0.83218 -4.09224 0
M  V30 2065 N 196.587 1.43421 -0.653314 0
M  V30 2066 C 197.519 2.29071 0.0769134 0
M  V30 2067 C 198.532 1.42513 0.787017 0
M  V30 2068 O 199.721 1.66449 0.644757 0
M  V30 2069 C 196.821 3.19436 1.13199 0
M  V30 2070 C 195.994 4.34533 0.500006 0
M  V30 2071 C 195.053 5.05771 1.45198 0
M  V30 2072 O 194.079 5.61037 0.960538 0
M  V30 2073 N 195.281 5.0928 2.78594 0
M  V30 2074 H 198.046 2.92382 -0.658235 0
M  V30 2075 H 195.607 1.54112 -0.496104 0
M  V30 2076 H 197.599 3.63958 1.76964 0
M  V30 2077 H 196.169 2.57724 1.7691 0
M  V30 2078 H 195.389 3.92925 -0.316738 0
M  V30 2079 H 196.677 5.08766 0.0588345 0
M  V30 2080 H 196.075 4.65751 3.2108 0
M  V30 2081 H 194.632 5.57519 3.37662 0
M  V30 2082 N 198.065 0.39524 1.52563 0
M  V30 2083 C 198.975 -0.444232 2.30356 0
M  V30 2084 C 199.991 -1.06615 1.37511 0
M  V30 2085 O 201.167 -1.07067 1.70583 0
M  V30 2086 C 198.232 -1.55315 3.09964 0
M  V30 2087 C 197.293 -0.955734 4.18526 0
M  V30 2088 C 196.526 -2.01181 4.9433 0
M  V30 2089 O 196.749 -3.22781 4.70285 0
M  V30 2090 O 195.683 -1.62579 5.79527 0
M  V30 2091 H 199.509 0.189667 3.03107 0
M  V30 2092 H 197.094 0.1588 1.48554 0
M  V30 2093 H 198.976 -2.19724 3.59582 0
M  V30 2094 H 197.651 -2.17191 2.4002 0
M  V30 2095 H 196.558 -0.274743 3.7309 0
M  V30 2096 H 197.891 -0.381109 4.90722 0
M  V30 2097 N 199.544 -1.57102 0.125237 0
M  V30 2098 C 200.784 -1.97294 -0.534259 0
M  V30 2099 C 201.148 -1.0074 -1.63449 0
M  V30 2100 O 202.349 -1.29893 -2.35332 0
M  V30 2101 C 200.62 -3.41705 -1.04748 0
M  V30 2102 S 202.179 -4.03913 -1.71463 0
M  V30 2103 H 198.997 -0.689517 -0.173458 0
M  V30 2104 H 201.599 -1.94349 0.211797 0
M  V30 2105 H 200.303 -4.09723 -0.235649 0
M  V30 2106 H 199.834 -3.48315 -1.82867 0
M  V30 2107 H 201.849 -3.95182 -3.00077 0
M  V30 2108 N 201.022 0.148545 -1.56898 0
M  V30 2109 C 201.954 1.20852 -1.9475 0
M  V30 2110 C 202.967 1.39265 -0.843152 0
M  V30 2111 O 204.156 1.38864 -1.12156 0
M  V30 2112 C 201.256 2.57362 -2.20495 0
M  V30 2113 C 200.429 2.59947 -3.51776 0
M  V30 2114 C 199.488 3.77984 -3.6608 0
M  V30 2115 O 198.514 3.62929 -4.38487 0
M  V30 2116 N 199.716 4.95375 -3.02629 0
M  V30 2117 H 202.481 0.886804 -2.86279 0
M  V30 2118 H 200.042 0.338121 -1.5833 0
M  V30 2119 H 202.034 3.34833 -2.27307 0
M  V30 2120 H 200.604 2.81832 -1.35238 0
M  V30 2121 H 199.824 1.68403 -3.56419 0
M  V30 2122 H 201.112 2.58704 -4.38121 0
M  V30 2123 H 200.51 5.10509 -2.43715 0
M  V30 2124 H 199.067 5.70627 -3.15004 0
M  V30 2125 N 202.5 1.5196 0.417844 0
M  V30 2126 C 203.41 1.77554 1.53336 0
M  V30 2127 C 204.426 0.660655 1.6097 0
M  V30 2128 O 205.602 0.945099 1.77848 0
M  V30 2129 C 202.667 1.91291 2.89152 0
M  V30 2130 C 201.728 3.15183 2.91475 0
M  V30 2131 C 200.961 3.28256 4.20813 0
M  V30 2132 O 201.184 2.46798 5.14244 0
M  V30 2133 O 200.118 4.21356 4.29817 0
M  V30 2134 H 203.944 2.7222 1.34647 0
M  V30 2135 H 201.529 1.36698 0.602828 0
M  V30 2136 H 203.411 2.02199 3.69721 0
M  V30 2137 H 202.086 0.998129 3.07927 0
M  V30 2138 H 200.993 3.09739 2.09791 0
M  V30 2139 H 202.326 4.06414 2.77648 0
M  V30 2140 N 203.978 -0.674533 1.42435 0
M  V30 2141 C 205.394 -0.98769 1.25367 0
M  V30 2142 C 205.594 -2.00879 0.158044 0
M  V30 2143 O 204.65 -2.48075 -0.470633 0
M  V30 2144 C 205.963 -1.49224 2.6106 0
M  V30 2145 C 207.511 -1.61 2.68417 0
M  V30 2146 C 207.986 -2.14852 4.04478 0
M  V30 2147 N 209.477 -2.22185 4.06434 0
M  V30 2148 C 210.212 -2.64928 5.08528 0
M  V30 2149 N 209.708 -3.07121 6.21006 0
M  V30 2150 N 211.501 -2.64679 4.95885 0
M  V30 2151 H 203.652 0.00152503 2.124 0
M  V30 2152 H 205.915 -0.0618434 0.945981 0
M  V30 2153 H 205.621 -0.816453 3.42092 0
M  V30 2154 H 205.495 -2.47094 2.84999 0
M  V30 2155 H 207.882 -2.27686 1.87732 0
M  V30 2156 H 207.963 -0.616195 2.48267 0
M  V30 2157 H 207.607 -1.48775 4.85622 0
M  V30 2158 H 207.537 -3.15024 4.2198 0
M  V30 2159 H 210.028 -1.92435 3.25234 0
M  V30 2160 H 210.341 -3.38423 6.94759 0
M  V30 2161 H 208.686 -3.04978 6.24511 0
M  V30 2162 H 211.877 -2.31078 4.07088 0
M  V30 2163 H 212.05 -2.9767 5.75584 0
M  V30 2164 N 205.456 -1.28612 -0.910864 0
M  V30 2165 C 206.696 -1.1719 -1.67469 0
M  V30 2166 C 207.06 0.274441 -1.90028 0
M  V30 2167 O 208.261 0.511425 -2.6389 0
M  V30 2168 C 206.532 -1.95137 -2.99427 0
M  V30 2169 S 208.091 -2.00122 -3.90508 0
M  V30 2170 H 204.909 -0.41806 -0.575106 0
M  V30 2171 H 207.511 -1.6275 -1.08317 0
M  V30 2172 H 206.215 -2.99381 -2.80712 0
M  V30 2173 H 205.746 -1.50137 -3.63624 0
M  V30 2174 H 207.761 -1.10981 -4.8363 0
M  V30 2175 N 206.934 1.1197 -1.10907 0
M  V30 2176 C 208.162 1.87402 -0.876824 0
M  V30 2177 C 208.577 1.79894 0.573025 0
M  V30 2178 O 207.934 1.17629 1.39534 0
M  V30 2179 C 207.985 3.36428 -1.32282 0
M  V30 2180 O 207.706 3.43765 -2.71582 0
M  V30 2181 C 209.207 4.28783 -1.12518 0
M  V30 2182 H 206.427 0.592793 -0.314384 0
M  V30 2183 H 208.971 1.41649 -1.47499 0
M  V30 2184 H 207.126 3.79706 -0.768229 0
M  V30 2185 H 207.54 4.3652 -2.90776 0
M  V30 2186 H 209.014 5.31613 -1.48633 0
M  V30 2187 H 209.491 4.39153 -0.0642394 0
M  V30 2188 H 210.097 3.91291 -1.66648 0
M  V30 2189 N 208.412 0.89855 1.29475 0
M  V30 2190 C 209.689 0.443416 1.90508 0
M  V30 2191 C 210.069 -1.07685 1.81569 0
M  V30 2192 O 209.417 -1.9182 1.24166 0
M  V30 2193 C 209.627 0.956708 3.35631 0
M  V30 2194 C 210.975 0.999728 4.12663 0
M  V30 2195 O 211.999 0.904299 3.4453 0
M  V30 2196 O 210.858 1.14289 5.34416 0
M  V30 2197 H 207.952 0.138025 0.815401 0
M  V30 2198 H 210.498 0.98834 1.37949 0
M  V30 2199 H 209.27 2.00067 3.36287 0
M  V30 2200 H 208.893 0.391728 3.95666 0
M  V30 2201 N 209.89 -1.43072 0.660911 0
M  V30 2202 C 211.167 -1.95307 0.107017 0
M  V30 2203 C 211.547 -1.60192 -1.37484 0
M  V30 2204 O 210.895 -0.890949 -2.10415 0
M  V30 2205 C 211.105 -3.47124 0.361402 0
M  V30 2206 C 212.453 -4.23738 0.270455 0
M  V30 2207 O 213.477 -3.54981 0.294382 0
M  V30 2208 O 212.336 -5.46131 0.200737 0
M  V30 2209 H 209.43 -0.826984 -0.00517729 0
M  V30 2210 H 211.976 -1.52972 0.734681 0
M  V30 2211 H 210.748 -3.65837 1.38848 0
M  V30 2212 H 210.371 -3.96475 -0.298953 0
M  V30 2213 N 211.368 -0.403325 -1.52352 0
M  V30 2214 C 212.614 0.174605 -2.02047 0
M  V30 2215 C 212.947 1.45282 -1.28867 0
M  V30 2216 O 212.222 1.90483 -0.393257 0
M  V30 2217 C 212.505 0.428238 -3.57545 0
M  V30 2218 C 212.358 -0.866248 -4.4138 0
M  V30 2219 C 213.677 1.21287 -4.23057 0
M  V30 2220 H 210.796 0.0619851 -0.734389 0
M  V30 2221 H 213.438 -0.53565 -1.82293 0
M  V30 2222 H 211.588 1.03327 -3.74507 0
M  V30 2223 H 213.26 -1.50265 -4.3614 0
M  V30 2224 H 211.503 -1.47851 -4.07827 0
M  V30 2225 H 212.174 -0.643249 -5.48239 0
M  V30 2226 H 214.65 0.700703 -4.10158 0
M  V30 2227 H 213.526 1.35909 -5.31808 0
M  V30 2228 H 213.787 2.23193 -3.81625 0
M  V30 2229 N 212.846 1.57033 -0.133567 0
M  V30 2230 C 213.796 2.12641 0.822671 0
M  V30 2231 C 214.78 1.05081 1.21847 0
M  V30 2232 O 215.972 1.31287 1.18713 0
M  V30 2233 C 213.101 2.74094 2.06706 0
M  V30 2234 C 212.187 3.88757 1.69497 0
M  V30 2235 N 212.578 4.95194 1.03037 0
M  V30 2236 C 210.876 3.99213 1.98859 0
M  V30 2237 C 211.577 5.75414 0.852873 0
M  V30 2238 N 210.553 5.25726 1.3825 0
M  V30 2239 H 214.355 2.92308 0.305537 0
M  V30 2240 H 211.869 1.62256 0.0684276 0
M  V30 2241 H 213.866 3.12285 2.76195 0
M  V30 2242 H 212.526 1.95896 2.5895 0
M  V30 2243 H 213.537 5.13247 0.692669 0
M  V30 2244 H 210.214 3.32075 2.53047 0
M  V30 2245 H 211.604 6.71089 0.330091 0
M  V30 2246 N 214.325 -0.140222 1.56975 0
M  V30 2247 C 215.565 -0.857823 1.85528 0
M  V30 2248 C 215.929 -1.78039 0.718768 0
M  V30 2249 O 217.13 -2.53795 0.885521 0
M  V30 2250 C 215.401 -1.60615 3.19277 0
M  V30 2251 S 216.96 -2.36824 3.69405 0
M  V30 2252 H 213.778 -0.286727 0.650622 0
M  V30 2253 H 216.38 -0.117408 1.95147 0
M  V30 2254 H 215.084 -0.919994 3.99955 0
M  V30 2255 H 214.615 -2.38735 3.12681 0
M  V30 2256 H 216.63 -3.62148 3.3921 0
M  V30 2257 N 215.803 -1.52179 -0.40978 0
M  V30 2258 C 216.753 -1.71857 -1.49831 0
M  V30 2259 C 217.737 -0.572469 -1.50372 0
M  V30 2260 O 218.929 -0.829509 -1.56359 0
M  V30 2261 C 216.058 -1.87206 -2.87765 0
M  V30 2262 C 215.144 -3.07685 -2.91875 0
M  V30 2263 N 215.535 -4.30403 -2.65683 0
M  V30 2264 C 213.833 -3.07505 -3.23043 0
M  V30 2265 C 214.534 -5.11868 -2.76344 0
M  V30 2266 N 213.51 -4.47101 -3.09195 0
M  V30 2267 H 217.312 -2.64381 -1.28375 0
M  V30 2268 H 214.826 -1.50203 -0.617479 0
M  V30 2269 H 216.823 -1.99419 -3.66111 0
M  V30 2270 H 215.483 -0.958814 -3.10221 0
M  V30 2271 H 216.494 -4.58887 -2.4009 0
M  V30 2272 H 213.171 -2.25915 -3.51096 0
M  V30 2273 H 214.561 -6.19634 -2.59814 0
M  V30 2274 N 217.281 0.66697 -1.42791 0
M  V30 2275 C 218.528 1.42699 -1.43678 0
M  V30 2276 C 218.856 1.94419 -0.0560425 0
M  V30 2277 O 218.111 1.7182 0.936831 0
M  V30 2278 C 218.41 2.6349 -2.4147 0
M  V30 2279 C 218.076 2.30267 -3.8767 0
M  V30 2280 C 216.738 2.20918 -4.27491 0
M  V30 2281 C 219.09 2.03435 -4.79858 0
M  V30 2282 C 216.418 1.82873 -5.57471 0
M  V30 2283 C 218.77 1.66892 -6.10188 0
M  V30 2284 C 217.434 1.56058 -6.49001 0
M  V30 2285 H 216.704 0.522171 -0.525755 0
M  V30 2286 H 219.351 0.759785 -1.75783 0
M  V30 2287 H 217.656 3.35279 -2.0272 0
M  V30 2288 H 219.353 3.21684 -2.39417 0
M  V30 2289 H 215.943 2.38449 -3.56146 0
M  V30 2290 H 220.127 2.09586 -4.49875 0
M  V30 2291 H 215.383 1.7306 -5.86396 0
M  V30 2292 H 219.557 1.45157 -6.81104 0
M  V30 2293 H 217.184 1.26348 -7.49627 0
M  V30 2294 N 218.759 1.29093 0.90403 0
M  V30 2295 C 220.006 1.16813 1.65411 0
M  V30 2296 C 220.334 -0.28128 1.92455 0
M  V30 2297 O 219.589 -1.22006 1.53013 0
M  V30 2298 C 219.888 1.92224 3.01305 0
M  V30 2299 C 219.554 3.41968 2.93885 0
M  V30 2300 C 218.216 3.82807 2.91569 0
M  V30 2301 C 220.568 4.37409 2.83413 0
M  V30 2302 C 217.896 5.1741 2.76594 0
M  V30 2303 C 220.248 5.72097 2.69977 0
M  V30 2304 C 218.912 6.12199 2.66024 0
M  V30 2305 H 218.182 0.42745 0.605283 0
M  V30 2306 H 220.829 1.59981 1.05254 0
M  V30 2307 H 219.134 1.41635 3.65304 0
M  V30 2308 H 220.831 1.80131 3.58265 0
M  V30 2309 H 217.421 3.09504 2.96488 0
M  V30 2310 H 221.605 4.06813 2.84283 0
M  V30 2311 H 216.861 5.47596 2.71935 0
M  V30 2312 H 221.035 6.45704 2.60844 0
M  V30 2313 H 218.662 7.16448 2.54178 0
M  V30 2314 N 220.237 -1.11381 1.11499 0
M  V30 2315 C 221.465 -1.86934 0.88675 0
M  V30 2316 C 221.88 -1.80195 -0.563476 0
M  V30 2317 O 221.237 -1.18367 -1.38908 0
M  V30 2318 C 221.288 -3.35722 1.34064 0
M  V30 2319 O 221.009 -3.4232 2.73401 0
M  V30 2320 C 222.51 -4.2818 1.14791 0
M  V30 2321 H 219.73 -0.591117 0.317523 0
M  V30 2322 H 222.274 -1.40865 1.48248 0
M  V30 2323 H 220.429 -3.79294 0.788355 0
M  V30 2324 H 220.843 -4.34971 2.93087 0
M  V30 2325 H 222.317 -5.30817 1.5145 0
M  V30 2326 H 222.794 -4.39113 0.0875279 0
M  V30 2327 H 223.4 -3.90402 1.68721 0
M  V30 2328 N 221.715 -0.905404 -1.28997 0
M  V30 2329 C 222.945 -0.549049 -1.99171 0
M  V30 2330 C 223.353 0.87203 -1.67906 0
M  V30 2331 O 222.696 1.58796 -0.923561 0
M  V30 2332 C 222.758 -0.668306 -3.53234 0
M  V30 2333 C 222.422 -2.0574 -4.08069 0
M  V30 2334 C 223.419 -3.0292 -4.22534 0
M  V30 2335 C 221.104 -2.36833 -4.42962 0
M  V30 2336 C 223.098 -4.29314 -4.71135 0
M  V30 2337 C 220.785 -3.63467 -4.91258 0
M  V30 2338 C 221.783 -4.59522 -5.053 0
M  V30 2339 O 221.471 -5.83907 -5.52546 0
M  V30 2340 H 221.203 -0.208784 -0.64295 0
M  V30 2341 H 223.757 -1.21836 -1.65363 0
M  V30 2342 H 221.987 0.0580547 -3.86656 0
M  V30 2343 H 223.676 -0.320273 -4.04634 0
M  V30 2344 H 224.442 -2.80216 -3.95859 0
M  V30 2345 H 220.321 -1.62824 -4.31288 0
M  V30 2346 H 223.865 -5.04293 -4.8201 0
M  V30 2347 H 219.762 -3.86 -5.17372 0
M  V30 2348 H 220.53 -5.86578 -5.70849 0
M  V30 2349 N 223.193 1.4272 -0.668489 0
M  V30 2350 C 224.156 2.292 0.00448567 0
M  V30 2351 C 225.156 1.43001 0.735339 0
M  V30 2352 O 226.346 1.64461 0.57429 0
M  V30 2353 C 223.478 3.25375 1.01705 0
M  V30 2354 H 224.671 2.90199 -0.756608 0
M  V30 2355 H 222.224 1.50254 -0.430506 0
M  V30 2356 H 222.959 2.69301 1.80686 0
M  V30 2357 H 222.744 3.88944 0.496463 0
M  V30 2358 H 224.234 3.90245 1.48655 0
M  V30 2359 N 224.671 0.411399 1.52136 0
M  V30 2360 C 225.899 -0.163076 2.06256 0
M  V30 2361 C 226.314 -1.3867 1.28125 0
M  V30 2362 O 225.671 -1.79423 0.333721 0
M  V30 2363 C 225.722 -0.511252 3.57867 0
M  V30 2364 O 225.443 0.66378 4.33042 0
M  V30 2365 C 226.944 -1.13921 4.28412 0
M  V30 2366 H 224.164 -0.0193897 0.67072 0
M  V30 2367 H 226.708 0.583007 1.96013 0
M  V30 2368 H 224.863 -1.20723 3.6811 0
M  V30 2369 H 225.277 0.372601 5.23175 0
M  V30 2370 H 226.751 -1.33302 5.35663 0
M  V30 2371 H 227.228 -2.11296 3.85033 0
M  V30 2372 H 227.834 -0.483373 4.22544 0
M  V30 2373 N 226.149 -1.5696 0.141893 0
M  V30 2374 C 227.565 -1.58151 -0.21456 0
M  V30 2375 C 227.765 -1.1559 -1.65049 0
M  V30 2376 O 226.821 -0.853832 -2.37626 0
M  V30 2377 C 228.134 -3.00674 0.0395576 0
M  V30 2378 C 229.682 -3.1299 -0.0245529 0
M  V30 2379 C 230.157 -4.57554 0.202167 0
M  V30 2380 N 231.648 -4.62961 0.148919 0
M  V30 2381 C 232.383 -5.7262 0.298924 0
M  V30 2382 N 231.879 -6.90947 0.50637 0
M  V30 2383 N 233.672 -5.61601 0.236886 0
M  V30 2384 H 225.823 -1.8292 1.07953 0
M  V30 2385 H 228.086 -0.846425 0.42693 0
M  V30 2386 H 227.792 -3.36183 1.03315 0
M  V30 2387 H 227.666 -3.70981 -0.682143 0
M  V30 2388 H 230.053 -2.77326 -1.00869 0
M  V30 2389 H 230.134 -2.4518 0.729396 0
M  V30 2390 H 229.778 -4.93922 1.18338 0
M  V30 2391 H 229.708 -5.23484 -0.572044 0
M  V30 2392 H 232.199 -3.77899 -0.00697015 0
M  V30 2393 H 232.512 -7.7038 0.611076 0
M  V30 2394 H 230.857 -6.92878 0.542628 0
M  V30 2395 H 234.048 -4.68039 0.0756209 0
M  V30 2396 H 234.221 -6.47015 0.357227 0
M  V30 2397 N 227.627 0.131896 -1.57047 0
M  V30 2398 C 228.559 1.1878 -1.9602 0
M  V30 2399 C 229.572 1.38363 -0.857875 0
M  V30 2400 O 230.761 1.37666 -1.13623 0
M  V30 2401 C 227.861 2.55008 -2.23213 0
M  V30 2402 C 227.034 2.56201 -3.54513 0
M  V30 2403 C 226.093 3.7408 -3.70069 0
M  V30 2404 O 225.119 3.58258 -4.42312 0
M  V30 2405 N 226.321 4.92137 -3.07866 0
M  V30 2406 H 229.086 0.85639 -2.87204 0
M  V30 2407 H 226.647 0.321309 -1.5868 0
M  V30 2408 H 228.639 3.32404 -2.30846 0
M  V30 2409 H 227.209 2.80382 -1.3822 0
M  V30 2410 H 226.429 1.64613 -3.58185 0
M  V30 2411 H 227.717 2.54043 -4.4084 0
M  V30 2412 H 227.115 5.07895 -2.49116 0
M  V30 2413 H 225.672 5.67254 -3.21039 0
M  V30 2414 N 229.106 1.52395 0.401703 0
M  V30 2415 C 230.353 1.66817 1.14796 0
M  V30 2416 C 230.681 0.401772 1.90305 0
M  V30 2417 O 229.936 -0.615487 1.85769 0
M  V30 2418 C 230.235 2.84578 2.16217 0
M  V30 2419 C 229.901 4.22513 1.5746 0
M  V30 2420 C 228.563 4.60029 1.41161 0
M  V30 2421 C 230.915 5.0844 1.14622 0
M  V30 2422 C 228.243 5.81144 0.80552 0
M  V30 2423 C 230.595 6.30167 0.55428 0
M  V30 2424 C 229.259 6.66426 0.378482 0
M  V30 2425 H 228.529 0.610428 0.420069 0
M  V30 2426 H 231.176 1.86512 0.434212 0
M  V30 2427 H 229.481 2.59248 2.93764 0
M  V30 2428 H 231.178 2.92933 2.73845 0
M  V30 2429 H 227.768 3.92953 1.71132 0
M  V30 2430 H 231.952 4.80034 1.26021 0
M  V30 2431 H 227.208 6.07855 0.657399 0
M  V30 2432 H 231.382 6.96071 0.213983 0
M  V30 2433 H 229.009 7.60143 -0.0932606 0
M  V30 2434 N 230.584 -0.659388 1.43143 0
M  V30 2435 C 231.995 -1.24041 1.39537 0
M  V30 2436 C 232.346 -1.95963 0.0963364 0
M  V30 2437 O 231.471 -2.00892 -0.804438 0
M  V30 2438 C 232.066 -2.25601 2.52764 0
M  V30 2439 C 230.625 -2.79195 2.52443 0
M  V30 2440 C 229.772 -1.53743 2.30778 0
M  V30 2441 H 232.723 -0.451792 1.52133 0
M  V30 2442 H 232.744 -3.07651 2.23899 0
M  V30 2443 H 232.256 -1.73226 3.47296 0
M  V30 2444 H 230.357 -3.35649 1.61773 0
M  V30 2445 H 230.47 -3.2716 3.50004 0
M  V30 2446 H 228.834 -1.80869 1.79328 0
M  V30 2447 H 229.617 -1.03312 3.27386 0
M  V30 2448 N 232.062 -1.29571 -0.897171 0
M  V30 2449 C 233.287 -1.20705 -1.68656 0
M  V30 2450 C 233.712 0.228582 -1.86706 0
M  V30 2451 O 233.07 1.16494 -1.3892 0
M  V30 2452 C 233.118 -1.9282 -3.04717 0
M  V30 2453 O 232.222 -1.24697 -3.93096 0
M  V30 2454 H 231.563 -0.418126 -0.515816 0
M  V30 2455 H 234.093 -1.71183 -1.12061 0
M  V30 2456 H 234.103 -2.01372 -3.54843 0
M  V30 2457 H 232.778 -2.97239 -2.90899 0
M  V30 2458 H 231.355 -1.2442 -3.51531 0
M  V30 2459 N 233.54 1.10788 -1.12088 0
M  V30 2460 C 234.47 2.19083 -0.807755 0
M  V30 2461 C 235.451 1.6858 0.226859 0
M  V30 2462 O 236.636 1.93997 0.0888475 0
M  V30 2463 C 233.766 3.46344 -0.257576 0
M  V30 2464 C 232.72 4.101 -1.22483 0
M  V30 2465 C 232.046 5.32016 -0.535052 0
M  V30 2466 C 233.346 4.54236 -2.57811 0
M  V30 2467 H 235.04 2.45534 -1.71328 0
M  V30 2468 H 232.586 1.1801 -0.825205 0
M  V30 2469 H 234.539 4.21392 -0.0262679 0
M  V30 2470 H 233.263 3.19373 0.683278 0
M  V30 2471 H 231.922 3.37054 -1.44189 0
M  V30 2472 H 231.57 5.01319 0.410827 0
M  V30 2473 H 231.27 5.75625 -1.18024 0
M  V30 2474 H 232.794 6.09799 -0.312695 0
M  V30 2475 H 234.208 5.20575 -2.40155 0
M  V30 2476 H 232.605 5.08682 -3.18375 0
M  V30 2477 H 233.675 3.6734 -3.16528 0
M  V30 2478 N 235.018 0.912232 1.28515 0
M  V30 2479 C 235.928 0.404506 2.31086 0
M  V30 2480 C 236.944 -0.50707 1.66448 0
M  V30 2481 O 238.12 -0.393624 1.97516 0
M  V30 2482 C 235.185 -0.348572 3.44943 0
M  V30 2483 C 234.246 0.59604 4.25142 0
M  V30 2484 C 233.479 -0.121194 5.33562 0
M  V30 2485 O 233.702 -1.34317 5.5436 0
M  V30 2486 O 232.636 0.542716 5.99448 0
M  V30 2487 H 236.462 1.25579 2.76521 0
M  V30 2488 H 234.047 0.676998 1.33181 0
M  V30 2489 H 235.929 -0.77395 4.14232 0
M  V30 2490 H 234.604 -1.17571 3.01594 0
M  V30 2491 H 233.511 1.07079 3.58448 0
M  V30 2492 H 234.844 1.38995 4.72167 0
M  V30 2493 N 236.496 -1.42363 0.676048 0
M  V30 2494 C 237.446 -2.27987 -0.0242903 0
M  V30 2495 C 238.43 -1.41153 -0.772319 0
M  V30 2496 O 239.622 -1.64592 -0.651025 0
M  V30 2497 C 236.751 -3.29195 -0.973953 0
M  V30 2498 C 235.837 -4.23512 -0.223202 0
M  V30 2499 N 236.228 -4.99865 0.772589 0
M  V30 2500 C 234.526 -4.43606 -0.461469 0
M  V30 2501 C 235.227 -5.68757 1.22027 0
M  V30 2502 N 234.203 -5.40811 0.549975 0
M  V30 2503 H 238.005 -2.84445 0.73949 0
M  V30 2504 H 235.519 -1.54341 0.50522 0
M  V30 2505 H 237.516 -3.89339 -1.49067 0
M  V30 2506 H 236.176 -2.74298 -1.73755 0
M  V30 2507 H 237.187 -5.04921 1.15217 0
M  V30 2508 H 233.864 -3.99749 -1.20446 0
M  V30 2509 H 235.254 -6.40007 2.0455 0
M  V30 2510 N 237.974 -0.419461 -1.51915 0
M  V30 2511 C 239.39 -0.0708431 -1.59443 0
M  V30 2512 C 239.59 1.41796 -1.43164 0
M  V30 2513 O 238.646 2.18596 -1.26381 0
M  V30 2514 C 239.959 -0.574991 -2.95151 0
M  V30 2515 C 241.507 -0.533867 -3.08413 0
M  V30 2516 C 241.982 -1.01469 -4.46618 0
M  V30 2517 N 243.473 -0.971939 -4.52888 0
M  V30 2518 C 244.208 -1.31505 -5.58116 0
M  V30 2519 N 243.704 -1.73014 -6.70849 0
M  V30 2520 N 245.497 -1.23436 -5.48379 0
M  V30 2521 H 237.648 -1.38836 -1.60743 0
M  V30 2522 H 239.911 -0.570998 -0.756747 0
M  V30 2523 H 239.617 -1.61597 -3.12377 0
M  V30 2524 H 239.491 0.00979777 -3.77199 0
M  V30 2525 H 241.878 0.498086 -2.90866 0
M  V30 2526 H 241.959 -1.15484 -2.28248 0
M  V30 2527 H 241.603 -2.04502 -4.6491 0
M  V30 2528 H 241.533 -0.370433 -5.25295 0
M  V30 2529 H 244.024 -0.666893 -3.71969 0
M  V30 2530 H 244.337 -1.97479 -7.47143 0
M  V30 2531 H 242.682 -1.76926 -6.72103 0
M  V30 2532 H 245.873 -0.908869 -4.59192 0
M  V30 2533 H 246.046 -1.50506 -6.30279 0
M  V30 2534 N 239.452 1.56882 -0.150215 0
M  V30 2535 C 240.4 2.18214 0.805313 0
M  V30 2536 C 241.394 1.14006 1.25296 0
M  V30 2537 O 242.6 1.3225 1.22107 0
M  V30 2538 H 238.975 0.698762 0.277913 0
M  V30 2539 H 240.946 2.97231 0.263862 0
M  V30 2540 C 239.695 2.82065 2.03309 0
M  V30 2541 H 239.018 3.61968 1.69763 0
M  V30 2542 H 240.458 3.28477 2.68103 0
M  V30 2543 C 238.917 1.80739 2.84315 0
M  V30 2544 O 239.447 1.27983 3.80767 0
M  V30 2545 N 237.653 1.4997 2.48913 0
M  V30 2546 H 237.2 1.93062 1.70542 0
M  V30 2547 H 237.158 0.824217 3.03404 0
M  V30 2548 N 240.93 -0.123565 1.57115 0
M  V30 2549 C 242.179 -0.830704 1.83799 0
M  V30 2550 C 242.492 -1.81259 0.735158 0
M  V30 2551 O 243.698 -2.56558 0.888278 0
M  V30 2552 C 242.154 -1.52802 3.25852 0
M  V30 2553 C 241.762 -0.587356 4.44133 0
M  V30 2554 C 243.506 -2.22056 3.61789 0
M  V30 2555 C 241.413 -1.28764 5.77212 0
M  V30 2556 H 240.343 -0.313967 0.685522 0
M  V30 2557 H 242.994 -0.0834359 1.8331 0
M  V30 2558 H 241.376 -2.32175 3.20797 0
M  V30 2559 H 242.55 0.172829 4.60476 0
M  V30 2560 H 240.865 -0.00201892 4.164 0
M  V30 2561 H 243.462 -2.75131 4.58483 0
M  V30 2562 H 243.805 -2.99644 2.88997 0
M  V30 2563 H 244.338 -1.49576 3.68608 0
M  V30 2564 H 241.077 -0.55314 6.53162 0
M  V30 2565 H 240.597 -2.01995 5.64764 0
M  V30 2566 H 242.276 -1.8221 6.20813 0
M  V30 2567 N 242.408 -1.52605 -0.393616 0
M  V30 2568 C 243.648 -1.6911 -1.1481 0
M  V30 2569 C 244.012 -0.41969 -1.87357 0
M  V30 2570 O 245.213 -0.461034 -2.64817 0
M  V30 2571 C 243.484 -2.88909 -2.10395 0
M  V30 2572 S 245.043 -3.25977 -2.93742 0
M  V30 2573 H 241.861 -0.595337 -0.38871 0
M  V30 2574 H 244.463 -1.90641 -0.433178 0
M  V30 2575 H 243.167 -3.79672 -1.55812 0
M  V30 2576 H 242.698 -2.69698 -2.86403 0
M  V30 2577 H 244.713 -2.75806 -4.12487 0
M  V30 2578 N 243.887 0.651787 -1.4349 0
M  V30 2579 C 244.817 1.77621 -1.51569 0
M  V30 2580 C 245.798 1.66022 -0.370253 0
M  V30 2581 O 246.983 1.85095 -0.587658 0
M  V30 2582 C 244.113 3.16056 -1.43966 0
M  V30 2583 C 243.067 3.4242 -2.56774 0
M  V30 2584 C 242.393 4.8067 -2.34223 0
M  V30 2585 C 243.693 3.37023 -3.99015 0
M  V30 2586 H 245.387 1.71117 -2.45681 0
M  V30 2587 H 242.933 0.821825 -1.18246 0
M  V30 2588 H 244.886 3.94472 -1.48221 0
M  V30 2589 H 243.61 3.23293 -0.463586 0
M  V30 2590 H 242.269 2.66375 -2.51873 0
M  V30 2591 H 241.917 4.84585 -1.34856 0
M  V30 2592 H 241.617 4.9927 -3.09844 0
M  V30 2593 H 243.141 5.61342 -2.40265 0
M  V30 2594 H 244.555 4.05374 -4.05395 0
M  V30 2595 H 242.952 3.67159 -4.74673 0
M  V30 2596 H 244.022 2.3518 -4.2405 0
M  V30 2597 N 245.365 1.30045 0.890287 0
M  V30 2598 C 246.295 1.18541 2.01172 0
M  V30 2599 C 247.276 0.0773356 1.69924 0
M  V30 2600 O 248.461 0.25845 1.92473 0
M  V30 2601 C 245.591 0.870941 3.36202 0
M  V30 2602 C 244.545 1.93637 3.81692 0
M  V30 2603 C 243.871 1.475 5.13953 0
M  V30 2604 C 245.171 3.34666 4.00994 0
M  V30 2605 H 246.865 2.12359 2.11054 0
M  V30 2606 H 244.411 1.02238 1.01407 0
M  V30 2607 H 246.364 0.777141 4.14172 0
M  V30 2608 H 245.088 -0.102926 3.26438 0
M  V30 2609 H 243.747 2.01972 3.05946 0
M  V30 2610 H 243.395 0.489551 5.00612 0
M  V30 2611 H 243.095 2.1876 5.4536 0
M  V30 2612 H 244.619 1.39489 5.94454 0
M  V30 2613 H 246.033 3.2912 4.69417 0
M  V30 2614 H 244.43 4.03966 4.43769 0
M  V30 2615 H 245.5 3.76949 3.05021 0
M  V30 2616 N 246.843 -1.10192 1.12674 0
M  V30 2617 C 247.79 -2.16606 0.796906 0
M  V30 2618 C 248.76 -1.64394 -0.237476 0
M  V30 2619 O 249.945 -1.90474 -0.111484 0
M  V30 2620 C 247.085 -3.44116 0.26043 0
M  V30 2621 C 246.198 -4.10268 1.35293 0
M  V30 2622 C 245.333 -5.25507 0.775621 0
M  V30 2623 C 244.372 -5.83567 1.84706 0
M  V30 2624 N 243.509 -6.90179 1.28829 0
M  V30 2625 H 248.349 -2.44163 1.70846 0
M  V30 2626 H 245.886 -1.19846 0.85295 0
M  V30 2627 H 247.844 -4.17143 -0.0686814 0
M  V30 2628 H 246.474 -3.16901 -0.614274 0
M  V30 2629 H 245.526 -3.35184 1.79877 0
M  V30 2630 H 246.838 -4.4946 2.16303 0
M  V30 2631 H 245.992 -6.05398 0.397327 0
M  V30 2632 H 244.731 -4.87656 -0.0656581 0
M  V30 2633 H 243.736 -5.02344 2.23452 0
M  V30 2634 H 244.961 -6.23482 2.69161 0
M  V30 2635 H 242.907 -6.54322 0.468881 0
M  V30 2636 H 242.824 -7.28097 2.03497 0
M  V30 2637 H 244.092 -7.73844 0.937311 0
M  V30 2638 N 248.321 -0.919034 -1.28029 0
M  V30 2639 C 249.271 -0.382574 -2.24767 0
M  V30 2640 C 250.255 0.508286 -1.52661 0
M  V30 2641 O 251.447 0.347145 -1.73562 0
M  V30 2642 C 248.576 0.371432 -3.41285 0
M  V30 2643 C 247.662 -0.535449 -4.20706 0
M  V30 2644 N 248.053 -1.65141 -4.78082 0
M  V30 2645 C 246.351 -0.336824 -4.44726 0
M  V30 2646 C 247.052 -2.21475 -5.37888 0
M  V30 2647 N 246.028 -1.50537 -5.22341 0
M  V30 2648 H 249.83 -1.23477 -2.66703 0
M  V30 2649 H 247.344 -0.772299 -1.42861 0
M  V30 2650 H 249.341 0.772638 -4.09678 0
M  V30 2651 H 248.001 1.22066 -3.00882 0
M  V30 2652 H 249.012 -2.03392 -4.7629 0
M  V30 2653 H 245.689 0.47246 -4.14818 0
M  V30 2654 H 247.079 -3.15379 -5.93284 0
M  V30 2655 N 249.799 1.42003 -0.683588 0
M  V30 2656 C 251.027 2.05746 -0.218182 0
M  V30 2657 C 251.442 1.51396 1.12804 0
M  V30 2658 O 250.799 0.657303 1.70252 0
M  V30 2659 C 250.85 3.61171 -0.154131 0
M  V30 2660 O 250.571 4.13508 -1.44716 0
M  V30 2661 C 252.072 4.42042 0.333713 0
M  V30 2662 H 249.292 0.662888 -0.10402 0
M  V30 2663 H 251.836 1.81987 -0.9328 0
M  V30 2664 H 249.991 3.84012 0.511231 0
M  V30 2665 H 250.405 5.07453 -1.32632 0
M  V30 2666 H 251.879 5.51028 0.327423 0
M  V30 2667 H 252.356 4.17269 1.37053 0
M  V30 2668 H 252.962 4.24239 -0.300222 0
M  V30 2669 N 251.277 0.427512 1.51691 0
M  V30 2670 C 252.209 -0.424521 2.25234 0
M  V30 2671 C 253.222 -0.994671 1.2888 0
M  V30 2672 O 254.411 -0.890483 1.54702 0
M  V30 2673 C 251.511 -1.60479 2.98496 0
M  V30 2674 C 250.684 -1.15527 4.21868 0
M  V30 2675 C 249.743 -2.20454 4.77793 0
M  V30 2676 O 248.769 -1.8029 5.39893 0
M  V30 2677 N 249.971 -3.52831 4.60967 0
M  V30 2678 H 252.736 0.205749 2.98993 0
M  V30 2679 H 250.297 0.255867 1.59865 0
M  V30 2680 H 252.289 -2.30276 3.32799 0
M  V30 2681 H 250.859 -2.14061 2.27809 0
M  V30 2682 H 250.079 -0.284736 3.9317 0
M  V30 2683 H 251.367 -0.832173 5.01949 0
M  V30 2684 H 250.765 -3.88201 4.11481 0
M  V30 2685 H 249.322 -4.18551 4.99658 0
M  V30 2686 N 252.755 -1.56801 0.158532 0
M  V30 2687 C 253.983 -2.00859 -0.496303 0
M  V30 2688 C 254.398 -1.03871 -1.57659 0
M  V30 2689 O 253.755 -0.0375165 -1.82461 0
M  V30 2690 C 253.806 -3.4479 -1.08638 0
M  V30 2691 O 253.527 -4.38072 -0.0492322 0
M  V30 2692 C 255.028 -4.04185 -1.8207 0
M  V30 2693 H 252.248 -0.65864 -0.128199 0
M  V30 2694 H 254.792 -2.02885 0.256506 0
M  V30 2695 H 252.947 -3.43579 -1.78975 0
M  V30 2696 H 253.361 -5.2227 -0.483102 0
M  V30 2697 H 254.835 -5.06857 -2.18633 0
M  V30 2698 H 255.312 -3.45549 -2.71095 0
M  V30 2699 H 255.918 -4.0906 -1.16405 0
M  V30 2700 N 254.233 0.115231 -1.57178 0
M  V30 2701 C 255.481 0.820727 -1.84685 0
M  V30 2702 C 255.802 1.80237 -0.744279 0
M  V30 2703 O 255.072 1.94529 0.231375 0
M  V30 2704 H 253.652 0.306084 -0.681411 0
M  V30 2705 H 256.314 0.101656 -1.94635 0
M  V30 2706 H 255.41 1.36366 -2.80733 0
M  V30 2707 N 255.711 1.52812 0.385517 0
M  V30 2708 C 256.939 1.71907 1.15133 0
M  V30 2709 C 257.354 0.439004 1.83625 0
M  V30 2710 O 256.711 -0.586765 1.7281 0
M  V30 2711 C 256.762 2.87099 2.19673 0
M  V30 2712 O 256.483 4.10151 1.53973 0
M  V30 2713 C 257.984 3.17902 3.08955 0
M  V30 2714 H 255.204 0.575479 0.345057 0
M  V30 2715 H 257.748 1.99476 0.45052 0
M  V30 2716 H 255.903 2.61982 2.85384 0
M  V30 2717 H 256.317 4.74514 2.23465 0
M  V30 2718 H 257.791 4.01959 3.7833 0
M  V30 2719 H 258.268 2.3243 3.72657 0
M  V30 2720 H 258.874 3.44871 2.48885 0
M  V30 2721 N 257.189 -0.644168 1.43834 0
M  V30 2722 C 258.6 -1.22554 1.40845 0
M  V30 2723 C 258.951 -1.9585 0.117115 0
M  V30 2724 O 258.076 -2.01734 -0.783086 0
M  V30 2725 C 258.671 -2.22907 2.55143 0
M  V30 2726 C 257.23 -2.76501 2.5539 0
M  V30 2727 C 256.377 -1.51287 2.32396 0
M  V30 2728 H 259.328 -0.43563 1.52604 0
M  V30 2729 H 259.349 -3.05259 2.2715 0
M  V30 2730 H 258.861 -1.69533 3.49114 0
M  V30 2731 H 256.962 -3.33914 1.65324 0
M  V30 2732 H 257.075 -3.23429 3.53455 0
M  V30 2733 H 255.439 -1.78957 1.81236 0
M  V30 2734 H 256.222 -0.998336 3.28463 0
M  V30 2735 N 258.668 -1.30515 -0.883378 0
M  V30 2736 C 259.896 -1.22359 -1.66841 0
M  V30 2737 C 260.311 0.213296 -1.87591 0
M  V30 2738 O 259.668 1.14075 -1.42454 0
M  V30 2739 C 259.719 -1.95011 -3.04389 0
M  V30 2740 O 259.44 -3.3309 -2.84575 0
M  V30 2741 C 260.941 -1.93532 -3.98824 0
M  V30 2742 H 258.161 -0.423371 -0.520575 0
M  V30 2743 H 260.705 -1.72167 -1.10357 0
M  V30 2744 H 258.86 -1.48997 -3.57601 0
M  V30 2745 H 259.274 -3.69907 -3.71846 0
M  V30 2746 H 260.748 -2.48902 -4.92699 0
M  V30 2747 H 261.225 -0.914627 -4.29571 0
M  V30 2748 H 261.831 -2.39364 -3.51547 0
M  V30 2749 N 260.146 1.09593 -1.13257 0
M  V30 2750 C 261.562 1.33775 -0.870423 0
M  V30 2751 C 261.762 1.95327 0.494926 0
M  V30 2752 O 260.818 2.19853 1.2418 0
M  V30 2753 C 262.131 2.25106 -1.99369 0
M  V30 2754 C 263.679 2.3862 -2.02558 0
M  V30 2755 C 264.154 3.33285 -3.14142 0
M  V30 2756 N 265.645 3.40857 -3.13641 0
M  V30 2757 C 266.38 4.14101 -3.96621 0
M  V30 2758 N 265.876 4.90157 -4.8961 0
M  V30 2759 N 267.669 4.09808 -3.84726 0
M  V30 2760 H 259.82 0.680136 -2.01216 0
M  V30 2761 H 262.083 0.362133 -0.876107 0
M  V30 2762 H 261.789 1.87103 -2.97801 0
M  V30 2763 H 261.663 3.25481 -1.90635 0
M  V30 2764 H 264.05 2.75887 -1.0474 0
M  V30 2765 H 264.131 1.38028 -2.15364 0
M  V30 2766 H 263.775 2.96741 -4.12198 0
M  V30 2767 H 263.705 4.33776 -2.98574 0
M  V30 2768 H 266.196 2.86624 -2.46282 0
M  V30 2769 H 266.509 5.4347 -5.49418 0
M  V30 2770 H 264.854 4.89251 -4.93617 0
M  V30 2771 H 268.045 3.4949 -3.11408 0
M  V30 2772 H 268.218 4.66629 -4.49623 0
M  V30 2773 N 261.624 0.925811 1.2754 0
M  V30 2774 C 262.873 0.561084 1.93739 0
M  V30 2775 C 263.186 -0.901685 1.73577 0
M  V30 2776 O 264.392 -1.37511 2.34101 0
M  V30 2777 C 262.848 0.952668 3.47062 0
M  V30 2778 C 262.456 2.43599 3.75983 0
M  V30 2779 C 264.2 0.659103 4.19352 0
M  V30 2780 C 262.107 2.76707 5.22673 0
M  V30 2781 H 261.037 0.206122 0.725279 0
M  V30 2782 H 263.688 1.12637 1.44863 0
M  V30 2783 H 262.07 0.316053 3.94737 0
M  V30 2784 H 263.244 3.12035 3.39073 0
M  V30 2785 H 261.559 2.70125 3.16893 0
M  V30 2786 H 264.156 0.882985 5.27359 0
M  V30 2787 H 264.499 -0.403607 4.14339 0
M  V30 2788 H 265.032 1.25473 3.77494 0
M  V30 2789 H 261.771 3.8188 5.32774 0
M  V30 2790 H 261.291 2.12919 5.60737 0
M  V30 2791 H 262.97 2.6435 5.90532 0
M  V30 2792 N 263.102 -1.41638 0.69111 0
M  V30 2793 C 264.33 -2.05628 0.22909 0
M  V30 2794 C 264.745 -1.51992 -1.11999 0
M  V30 2795 O 264.102 -0.666322 -1.69901 0
M  V30 2796 C 264.153 -3.61084 0.173283 0
M  V30 2797 O 263.874 -4.12735 1.46907 0
M  V30 2798 C 265.375 -4.42213 -0.310266 0
M  V30 2799 H 262.595 -0.662327 0.107534 0
M  V30 2800 H 265.139 -1.81489 0.942438 0
M  V30 2801 H 263.294 -3.84278 -0.490858 0
M  V30 2802 H 263.708 -5.06743 1.35322 0
M  V30 2803 H 265.182 -5.51194 -0.298196 0
M  V30 2804 H 265.659 -4.1799 -1.34838 0
M  V30 2805 H 266.265 -4.24074 0.322716 0
M  V30 2806 N 264.58 -0.43555 -1.51462 0
M  V30 2807 C 265.527 0.376797 -2.27703 0
M  V30 2808 C 266.497 1.01838 -1.31219 0
M  V30 2809 O 267.682 1.03762 -1.60119 0
M  V30 2810 C 264.822 1.47301 -3.12084 0
M  V30 2811 C 263.935 0.849744 -4.2356 0
M  V30 2812 C 263.07 1.92086 -4.95254 0
M  V30 2813 C 262.109 1.27593 -5.98654 0
M  V30 2814 N 261.246 2.28833 -6.63762 0
M  V30 2815 H 266.086 -0.279734 -2.96684 0
M  V30 2816 H 263.623 -0.149795 -1.46335 0
M  V30 2817 H 265.581 2.11984 -3.59331 0
M  V30 2818 H 264.211 2.0992 -2.45221 0
M  V30 2819 H 263.263 0.0912529 -3.80291 0
M  V30 2820 H 264.575 0.338878 -4.97648 0
M  V30 2821 H 263.729 2.64435 -5.46039 0
M  V30 2822 H 262.468 2.46545 -4.20793 0
M  V30 2823 H 261.473 0.537893 -5.47162 0
M  V30 2824 H 262.698 0.738693 -6.7507 0
M  V30 2825 H 260.644 2.82375 -5.92115 0
M  V30 2826 H 260.561 1.82632 -7.33608 0
M  V30 2827 H 261.829 3.00671 -7.19178 0
M  V30 2828 N 266.058 1.56714 -0.166846 0
M  V30 2829 C 266.988 2.20754 0.760913 0
M  V30 2830 C 267.969 1.16178 1.24244 0
M  V30 2831 O 269.154 1.44592 1.29641 0
M  V30 2832 C 266.284 2.84478 1.99223 0
M  V30 2833 C 265.238 3.95053 1.64672 0
M  V30 2834 C 264.564 4.45805 2.95232 0
M  V30 2835 C 265.864 5.14865 0.878155 0
M  V30 2836 H 267.558 2.98537 0.22713 0
M  V30 2837 H 265.104 1.43596 0.107805 0
M  V30 2838 H 267.057 3.27951 2.64624 0
M  V30 2839 H 265.781 2.04056 2.55007 0
M  V30 2840 H 264.44 3.52228 1.01641 0
M  V30 2841 H 264.088 3.62181 3.49047 0
M  V30 2842 H 263.788 5.204 2.7287 0
M  V30 2843 H 265.312 4.91962 3.6167 0
M  V30 2844 H 266.726 5.55059 1.43466 0
M  V30 2845 H 265.123 5.95348 0.753738 0
M  V30 2846 H 266.193 4.84735 -0.126377 0
M  V30 2847 N 267.536 -0.106894 1.57237 0
M  V30 2848 C 268.813 -0.843526 1.76477 0
M  V30 2849 C 269.193 -1.97499 0.745464 0
M  V30 2850 O 268.541 -2.27357 -0.228306 0
M  V30 2851 C 268.751 -1.34903 3.21873 0
M  V30 2852 C 270.099 -1.79654 3.8472 0
M  V30 2853 O 271.123 -1.44554 3.2555 0
M  V30 2854 O 269.982 -2.44515 4.88748 0
M  V30 2855 H 267.076 -0.401468 0.723016 0
M  V30 2856 H 269.622 -0.0896927 1.69463 0
M  V30 2857 H 268.394 -0.53781 3.87586 0
M  V30 2858 H 268.017 -2.16522 3.33473 0
M  V30 2859 N 269.014 -1.53014 -0.377408 0
M  V30 2860 C 269.961 -1.78616 -1.46168 0
M  V30 2861 C 270.931 -0.629917 -1.53692 0
M  V30 2862 O 272.116 -0.870861 -1.69766 0
M  V30 2863 C 269.256 -1.97123 -2.8326 0
M  V30 2864 C 268.369 -3.24831 -2.84796 0
M  V30 2865 C 267.504 -3.33591 -4.13389 0
M  V30 2866 C 266.543 -4.55377 -4.09021 0
M  V30 2867 N 265.68 -4.61355 -5.29241 0
M  V30 2868 H 270.52 -2.71142 -1.23637 0
M  V30 2869 H 268.057 -1.34326 -0.599577 0
M  V30 2870 H 270.015 -2.05839 -3.62886 0
M  V30 2871 H 268.645 -1.07946 -3.04216 0
M  V30 2872 H 267.697 -3.25128 -1.97474 0
M  V30 2873 H 269.009 -4.14523 -2.77439 0
M  V30 2874 H 268.163 -3.41554 -5.01424 0
M  V30 2875 H 266.902 -2.41894 -4.23484 0
M  V30 2876 H 265.907 -4.47527 -3.19373 0
M  V30 2877 H 267.132 -5.48402 -4.00539 0
M  V30 2878 H 265.078 -3.72554 -5.39944 0
M  V30 2879 H 264.995 -5.44935 -5.24006 0
M  V30 2880 H 266.263 -4.73586 -6.19141 0
M  V30 2881 N 270.492 0.636531 -1.44174 0
M  V30 2882 C 271.738 1.39826 -1.4689 0
M  V30 2883 C 272.071 1.93947 -0.0990585 0
M  V30 2884 O 271.346 1.73325 0.882544 0
M  V30 2885 C 271.629 2.56751 -2.5249 0
M  V30 2886 C 271.482 2.08014 -3.98811 0
M  V30 2887 C 272.801 3.58946 -2.54649 0
M  V30 2888 H 269.92 0.507075 -0.53483 0
M  V30 2889 H 272.562 0.720188 -1.75822 0
M  V30 2890 H 270.712 3.14597 -2.2795 0
M  V30 2891 H 272.384 1.5504 -4.34466 0
M  V30 2892 H 270.627 1.39242 -4.10846 0
M  V30 2893 H 271.298 2.92169 -4.68339 0
M  V30 2894 H 273.774 3.1089 -2.76563 0
M  V30 2895 H 272.65 4.38286 -3.3045 0
M  V30 2896 H 272.911 4.12655 -1.58646 0
M  V30 2897 N 271.97 1.30982 0.876444 0
M  V30 2898 C 273.216 1.20474 1.63138 0
M  V30 2899 C 273.549 -0.238096 1.92735 0
M  V30 2900 O 272.824 -1.1692 1.55435 0
M  V30 2901 C 273.107 2.04244 2.96574 0
M  V30 2902 C 272.96 3.56793 2.73896 0
M  V30 2903 C 274.279 1.88684 3.97601 0
M  V30 2904 H 271.398 0.439001 0.591985 0
M  V30 2905 H 274.04 1.60704 1.01361 0
M  V30 2906 H 272.19 1.70063 3.493 0
M  V30 2907 H 273.862 4.01077 2.27892 0
M  V30 2908 H 272.105 3.80548 2.08245 0
M  V30 2909 H 272.776 4.10706 3.68815 0
M  V30 2910 H 275.252 2.18584 3.54062 0
M  V30 2911 H 274.128 2.4961 4.88862 0
M  V30 2912 H 274.389 0.848343 4.33884 0
M  V30 2913 N 273.449 -1.08991 1.13837 0
M  V30 2914 C 274.674 -1.85551 0.926585 0
M  V30 2915 C 275.099 -1.80782 -0.519566 0
M  V30 2916 O 274.457 -1.18855 -1.36906 0
M  V30 2917 C 274.505 -3.31266 1.42462 0
M  V30 2918 O 273.609 -4.07822 0.612789 0
M  V30 2919 H 272.95 -0.575192 0.331738 0
M  V30 2920 H 275.48 -1.37604 1.51414 0
M  V30 2921 H 275.49 -3.82112 1.43019 0
M  V30 2922 H 274.165 -3.34052 2.47754 0
M  V30 2923 H 272.742 -3.66731 0.675463 0
M  V30 2924 N 274.927 -0.932562 -1.27047 0
M  V30 2925 C 276.175 -0.574422 -1.93765 0
M  V30 2926 C 276.496 0.887993 -1.73608 0
M  V30 2927 O 275.766 1.62999 -1.08665 0
M  V30 2928 H 274.346 -0.209451 -0.717035 0
M  V30 2929 H 277.008 -1.18601 -1.5466 0
M  V30 2930 H 276.104 -0.784841 -3.02071 0
M  V30 2931 N 276.405 1.4127 -0.698611 0
M  V30 2932 C 277.652 2.0118 -0.230865 0
M  V30 2933 C 277.98 1.55338 1.17049 0
M  V30 2934 O 277.235 0.756775 1.80475 0
M  V30 2935 C 277.534 3.56592 -0.240192 0
M  V30 2936 C 277.2 4.21955 -1.58948 0
M  V30 2937 C 275.862 4.39524 -1.95887 0
M  V30 2938 C 278.214 4.58576 -2.47704 0
M  V30 2939 C 275.542 4.90992 -3.2116 0
M  V30 2940 C 277.894 5.11435 -3.72313 0
M  V30 2941 C 276.558 5.27215 -4.0939 0
M  V30 2942 H 275.828 0.736169 -0.0844796 0
M  V30 2943 H 278.475 1.69124 -0.8983 0
M  V30 2944 H 276.78 3.88456 0.510797 0
M  V30 2945 H 278.477 4.00758 0.139296 0
M  V30 2946 H 275.067 4.08657 -1.29219 0
M  V30 2947 H 279.251 4.44654 -2.20445 0
M  V30 2948 H 274.507 5.01393 -3.49878 0
M  V30 2949 H 278.681 5.38752 -4.4127 0
M  V30 2950 H 276.308 5.66859 -5.06533 0
M  V30 2951 N 277.883 0.443576 1.51229 0
M  V30 2952 C 279.108 -0.121648 2.07043 0
M  V30 2953 C 279.533 -1.35156 1.30823 0
M  V30 2954 O 278.891 -1.7793 0.347934 0
M  V30 2955 C 278.939 -0.41624 3.5819 0
M  V30 2956 O 278.043 -1.50163 3.8409 0
M  V30 2957 H 277.384 0.000871367 0.663999 0
M  V30 2958 H 279.914 0.626706 1.94765 0
M  V30 2959 H 279.924 -0.664867 4.02546 0
M  V30 2960 H 278.599 0.482653 4.1309 0
M  V30 2961 H 277.176 -1.24248 3.51592 0
M  V30 2962 N 279.361 -1.56624 0.175154 0
M  V30 2963 C 280.291 -2.21155 -0.749195 0
M  V30 2964 C 281.272 -1.16836 -1.23626 0
M  V30 2965 O 282.457 -1.45277 -1.28873 0
M  V30 2966 C 279.587 -2.8553 -1.97711 0
M  V30 2967 C 278.541 -3.95921 -1.62575 0
M  V30 2968 C 277.867 -4.47365 -2.92864 0
M  V30 2969 C 279.167 -5.15323 -0.850838 0
M  V30 2970 H 280.861 -2.98653 -0.211295 0
M  V30 2971 H 278.407 -1.43651 -0.100188 0
M  V30 2972 H 280.36 -3.2935 -2.62881 0
M  V30 2973 H 279.084 -2.05406 -2.53921 0
M  V30 2974 H 277.743 -3.52762 -0.997719 0
M  V30 2975 H 277.391 -3.64027 -3.47122 0
M  V30 2976 H 277.091 -5.21839 -2.70106 0
M  V30 2977 H 278.615 -4.93873 -3.59056 0
M  V30 2978 H 280.029 -5.55812 -1.40521 0
M  V30 2979 H 278.426 -5.95739 -0.722154 0
M  V30 2980 H 279.496 -4.84661 0.152082 0
M  V30 2981 N 280.839 0.0985539 -1.57292 0
M  V30 2982 C 281.786 1.11981 -2.01814 0
M  V30 2983 C 282.756 1.39999 -0.89384 0
M  V30 2984 O 283.941 1.5152 -1.15958 0
M  V30 2985 C 281.081 2.43577 -2.44467 0
M  V30 2986 C 280.194 2.2232 -3.70402 0
M  V30 2987 C 279.329 3.4729 -4.01949 0
M  V30 2988 C 278.368 3.2128 -5.21005 0
M  V30 2989 N 277.505 4.38507 -5.48321 0
M  V30 2990 H 282.345 0.733149 -2.88841 0
M  V30 2991 H 279.882 0.350482 -1.42864 0
M  V30 2992 H 281.84 3.20373 -2.6724 0
M  V30 2993 H 280.47 2.80097 -1.60455 0
M  V30 2994 H 279.522 1.36343 -3.55126 0
M  V30 2995 H 280.834 1.99089 -4.57345 0
M  V30 2996 H 279.988 4.32495 -4.25479 0
M  V30 2997 H 278.727 3.73572 -3.13521 0
M  V30 2998 H 277.732 2.34468 -4.97298 0
M  V30 2999 H 278.957 2.96348 -6.11028 0
M  V30 3000 H 276.903 4.64871 -4.62851 0
M  V30 3001 H 276.82 4.18455 -6.29628 0
M  V30 3002 H 278.088 5.24787 -5.76385 0
M  V30 3003 N 282.317 1.53212 0.369288 0
M  V30 3004 C 283.542 1.73423 1.1375 0
M  V30 3005 C 283.967 0.460404 1.82378 0
M  V30 3006 O 283.325 -0.585298 1.71592 0
M  V30 3007 C 283.373 2.89769 2.1463 0
M  V30 3008 O 282.477 2.58119 3.21634 0
M  V30 3009 H 281.818 0.576061 0.330227 0
M  V30 3010 H 284.348 2.00083 0.427547 0
M  V30 3011 H 284.358 3.15829 2.58294 0
M  V30 3012 H 283.033 3.8217 1.64071 0
M  V30 3013 H 281.61 2.42864 2.82969 0
M  V30 3014 N 283.795 -0.628877 1.44509 0
M  V30 3015 C 285.035 -1.39993 1.48934 0
M  V30 3016 C 285.399 -1.91627 0.119604 0
M  V30 3017 O 286.6 -2.68772 0.0385283 0
M  V30 3018 C 284.871 -2.53241 2.52198 0
M  V30 3019 S 286.43 -3.41383 2.75687 0
M  V30 3020 H 283.248 -0.477558 0.526744 0
M  V30 3021 H 285.85 -0.727804 1.81448 0
M  V30 3022 H 284.554 -2.13622 3.50419 0
M  V30 3023 H 284.085 -3.25278 2.21264 0
M  V30 3024 H 286.1 -4.50752 2.07453 0
M  V30 3025 N 285.273 -1.31445 -0.869486 0
M  V30 3026 C 286.236 -1.19094 -1.9583 0
M  V30 3027 C 287.236 -0.117906 -1.60367 0
M  V30 3028 O 288.426 -0.367208 -1.70286 0
M  V30 3029 C 285.558 -0.828165 -3.30688 0
M  V30 3030 H 286.751 -2.15842 -2.08212 0
M  V30 3031 H 284.304 -1.15063 -1.05784 0
M  V30 3032 H 285.039 0.138142 -3.24006 0
M  V30 3033 H 284.824 -1.6038 -3.578 0
M  V30 3034 H 286.314 -0.765658 -4.10521 0
M  V30 3035 N 286.751 1.08385 -1.14413 0
M  V30 3036 C 287.681 2.17321 -0.854044 0
M  V30 3037 C 288.662 1.69024 0.191049 0
M  V30 3038 O 289.847 1.94141 0.0476779 0
M  V30 3039 C 286.977 3.45719 -0.330983 0
M  V30 3040 C 285.931 4.07409 -1.31155 0
M  V30 3041 C 285.257 5.30762 -0.64778 0
M  V30 3042 C 286.557 4.48665 -2.67388 0
M  V30 3043 H 288.251 2.41845 -1.76498 0
M  V30 3044 H 285.797 1.16233 -0.850051 0
M  V30 3045 H 287.75 4.21241 -0.115645 0
M  V30 3046 H 286.474 3.2075 0.615381 0
M  V30 3047 H 285.133 3.33919 -1.51306 0
M  V30 3048 H 284.781 5.02078 0.304398 0
M  V30 3049 H 284.481 5.72992 -1.30207 0
M  V30 3050 H 286.005 6.08998 -0.441972 0
M  V30 3051 H 287.419 5.15364 -2.51143 0
M  V30 3052 H 285.816 5.01814 -3.29093 0
M  V30 3053 H 286.886 3.60543 -3.24248 0
M  V30 3054 N 288.23 0.939286 1.26551 0
M  V30 3055 C 289.455 0.602008 1.98471 0
M  V30 3056 C 289.88 -0.815624 1.69497 0
M  V30 3057 O 289.238 -1.54912 0.941905 0
M  V30 3058 C 289.286 0.848407 3.50477 0
M  V30 3059 O 288.39 -0.0804009 4.12322 0
M  V30 3060 H 287.731 0.23049 0.622712 0
M  V30 3061 H 290.261 1.2617 1.61066 0
M  V30 3062 H 290.271 0.768553 4.00696 0
M  V30 3063 H 288.946 1.88171 3.70897 0
M  V30 3064 H 287.523 0.0503508 3.72866 0
M  V30 3065 N 289.708 -1.40897 0.706093 0
M  V30 3066 C 290.656 -2.32572 0.0361893 0
M  V30 3067 C 291.65 -1.51532 -0.757266 0
M  V30 3068 O 292.856 -1.67396 -0.661703 0
M  V30 3069 H 289.231 -0.751966 -0.00709935 0
M  V30 3070 H 291.202 -2.86733 0.826249 0
M  V30 3071 C 289.951 -3.36418 -0.87854 0
M  V30 3072 H 289.274 -3.98836 -0.277401 0
M  V30 3073 H 290.714 -4.0308 -1.3154 0
M  V30 3074 C 289.173 -2.71141 -1.99961 0
M  V30 3075 O 289.703 -2.56735 -3.0895 0
M  V30 3076 N 287.909 -2.29671 -1.78043 0
M  V30 3077 H 287.456 -2.41588 -0.894042 0
M  V30 3078 H 287.414 -1.86332 -2.53235 0
M  V30 3079 N 291.186 -0.45159 -1.50991 0
M  V30 3080 C 292.116 0.342898 -2.30969 0
M  V30 3081 C 293.097 1.00815 -1.37005 0
M  V30 3082 O 294.282 1.00907 -1.65926 0
M  V30 3083 C 291.412 1.43637 -3.16205 0
M  V30 3084 C 290.366 0.893818 -4.18563 0
M  V30 3085 C 289.692 2.08411 -4.92411 0
M  V30 3086 C 290.992 -0.0815568 -5.22236 0
M  V30 3087 H 292.686 -0.324556 -2.97636 0
M  V30 3088 H 290.232 -0.157531 -1.43136 0
M  V30 3089 H 292.185 1.9995 -3.70942 0
M  V30 3090 H 290.909 2.13232 -2.47386 0
M  V30 3091 H 289.568 0.352798 -3.64898 0
M  V30 3092 H 289.216 2.76658 -4.20082 0
M  V30 3093 H 288.916 1.72741 -5.61636 0
M  V30 3094 H 290.44 2.65251 -5.49976 0
M  V30 3095 H 291.854 0.391742 -5.7196 0
M  V30 3096 H 290.251 -0.351551 -5.99069 0
M  V30 3097 H 291.321 -1.01374 -4.74185 0
M  V30 3098 N 292.664 1.56529 -0.183458 0
M  V30 3099 C 293.627 2.17324 0.728223 0
M  V30 3100 C 294.627 1.12453 1.14939 0
M  V30 3101 O 295.817 1.37902 1.06437 0
M  V30 3102 C 292.949 2.76591 1.99274 0
M  V30 3103 H 294.142 2.99241 0.198772 0
M  V30 3104 H 291.695 1.5616 0.0661391 0
M  V30 3105 H 292.43 1.98441 2.56499 0
M  V30 3106 H 292.215 3.5335 1.69959 0
M  V30 3107 H 293.705 3.23311 2.6431 0
M  V30 3108 N 294.142 -0.090211 1.57342 0
M  V30 3109 C 295.382 -0.798365 1.88163 0
M  V30 3110 C 295.746 -1.75662 0.775046 0
M  V30 3111 O 296.947 -2.50849 0.965816 0
M  V30 3112 C 295.218 -1.50376 3.24225 0
M  V30 3113 S 296.777 -2.24952 3.76752 0
M  V30 3114 H 293.595 -0.265883 0.659414 0
M  V30 3115 H 296.197 -0.055264 1.95422 0
M  V30 3116 H 294.901 -0.792286 4.0268 0
M  V30 3117 H 294.432 -2.28666 3.20118 0
M  V30 3118 H 296.447 -3.51173 3.5056 0
M  V30 3119 N 295.62 -1.53406 -0.361157 0
M  V30 3120 C 296.869 -1.69022 -1.10066 0
M  V30 3121 C 297.182 -0.450838 -1.90333 0
M  V30 3122 O 298.388 -0.487617 -2.67085 0
M  V30 3123 C 296.844 -2.98812 -2.00598 0
M  V30 3124 C 296.452 -4.30027 -1.25621 0
M  V30 3125 C 298.196 -3.23795 -2.74513 0
M  V30 3126 C 296.103 -5.50903 -2.1508 0
M  V30 3127 H 295.033 -0.629776 -0.414606 0
M  V30 3128 H 297.684 -1.79907 -0.361348 0
M  V30 3129 H 296.066 -2.8174 -2.78278 0
M  V30 3130 H 297.24 -4.57745 -0.529739 0
M  V30 3131 H 295.555 -4.11522 -0.635496 0
M  V30 3132 H 298.152 -4.11289 -3.41681 0
M  V30 3133 H 298.495 -2.40045 -3.40123 0
M  V30 3134 H 299.028 -3.41561 -2.03914 0
M  V30 3135 H 295.767 -6.37143 -1.54041 0
M  V30 3136 H 295.287 -5.27459 -2.85565 0
M  V30 3137 H 296.966 -5.85865 -2.74538 0
M  V30 3138 N 297.098 0.621204 -1.44841 0
M  V30 3139 C 298.514 0.94048 -1.28946 0
M  V30 3140 C 298.714 2.00154 -0.23249 0
M  V30 3141 O 297.77 2.49651 0.378237 0
M  V30 3142 C 299.083 1.39433 -2.66419 0
M  V30 3143 C 300.631 1.50927 -2.74208 0
M  V30 3144 C 301.106 1.99692 -4.12174 0
M  V30 3145 N 302.597 2.06947 -4.144 0
M  V30 3146 C 303.332 2.45871 -5.1801 0
M  V30 3147 N 302.828 2.83862 -6.31977 0
M  V30 3148 N 304.621 2.46092 -5.05366 0
M  V30 3149 H 296.772 -0.0803548 -2.12248 0
M  V30 3150 H 299.035 0.0266913 -0.947624 0
M  V30 3151 H 298.741 0.688925 -3.44887 0
M  V30 3152 H 298.615 2.36347 -2.93973 0
M  V30 3153 H 301.002 2.20561 -1.96053 0
M  V30 3154 H 301.083 0.523627 -2.50383 0
M  V30 3155 H 300.727 1.30649 -4.90809 0
M  V30 3156 H 300.657 2.99146 -4.33381 0
M  V30 3157 H 303.148 1.80232 -3.32152 0
M  V30 3158 H 303.461 3.12405 -7.0684 0
M  V30 3159 H 301.806 2.8159 -6.35399 0
M  V30 3160 H 304.997 2.1581 -4.15384 0
M  V30 3161 H 305.17 2.76102 -5.86235 0
M  V30 3162 N 298.576 1.31904 0.862503 0
M  V30 3163 C 299.853 1.12644 1.59908 0
M  V30 3164 C 300.233 -0.316104 2.0872 0
M  V30 3165 O 299.581 -1.31145 1.87118 0
M  V30 3166 C 299.791 2.1472 2.7513 0
M  V30 3167 C 301.139 2.47637 3.44907 0
M  V30 3168 O 302.163 2.13205 2.85346 0
M  V30 3169 O 301.022 3.06632 4.52371 0
M  V30 3170 H 298.116 0.43416 0.703871 0
M  V30 3171 H 300.662 1.43408 0.907314 0
M  V30 3172 H 299.434 3.1172 2.3653 0
M  V30 3173 H 299.057 1.84905 3.51989 0
M  V30 3174 N 300.054 -1.07777 1.14986 0
M  V30 3175 C 301.303 -1.79669 0.916617 0
M  V30 3176 C 301.616 -1.87474 -0.557917 0
M  V30 3177 O 302.822 -2.55845 -0.908617 0
M  V30 3178 C 301.278 -3.22848 1.59051 0
M  V30 3179 C 300.886 -3.23257 3.10176 0
M  V30 3180 C 302.63 -3.99379 1.43864 0
M  V30 3181 C 300.537 -4.61063 3.70372 0
M  V30 3182 H 299.467 -0.673349 0.33929 0
M  V30 3183 H 302.118 -1.21003 1.37951 0
M  V30 3184 H 300.5 -3.8168 1.0553 0
M  V30 3185 H 301.674 -2.74095 3.70417 0
M  V30 3186 H 299.989 -2.60222 3.25074 0
M  V30 3187 H 302.586 -5.0122 1.86232 0
M  V30 3188 H 302.929 -4.14511 0.385564 0
M  V30 3189 H 303.462 -3.47032 1.94457 0
M  V30 3190 H 300.201 -4.51135 4.7556 0
M  V30 3191 H 299.721 -5.1048 3.14913 0
M  V30 3192 H 301.4 -5.30034 3.71043 0
M  V30 3193 N 301.532 -0.945985 -1.26051 0
M  V30 3194 C 302.779 -0.596118 -1.93527 0
M  V30 3195 C 303.107 0.865559 -1.74179 0
M  V30 3196 O 302.362 1.63524 -1.0751 0
M  V30 3197 C 302.661 -0.890475 -3.46129 0
M  V30 3198 C 302.327 -2.3368 -3.85622 0
M  V30 3199 C 300.989 -2.73216 -3.96114 0
M  V30 3200 C 303.341 -3.27648 -4.05334 0
M  V30 3201 C 300.669 -4.05806 -4.2372 0
M  V30 3202 C 303.021 -4.59841 -4.3443 0
M  V30 3203 C 301.685 -4.99185 -4.43137 0
M  V30 3204 H 300.955 -0.218135 -0.708165 0
M  V30 3205 H 303.602 -1.1934 -1.49768 0
M  V30 3206 H 301.907 -0.210711 -3.91233 0
M  V30 3207 H 303.604 -0.598478 -3.96509 0
M  V30 3208 H 300.194 -2.02015 -3.78005 0
M  V30 3209 H 304.378 -2.98298 -3.96651 0
M  V30 3210 H 299.634 -4.35945 -4.28675 0
M  V30 3211 H 303.808 -5.32641 -4.48628 0
M  V30 3212 H 301.435 -6.01952 -4.64282 0
M  V30 3213 N 303.011 1.40521 -0.713556 0
M  V30 3214 C 304.422 1.83853 -0.324807 0
M  V30 3215 C 304.773 1.59667 1.14021 0
M  V30 3216 O 303.898 1.07649 1.87725 0
M  V30 3217 C 304.493 3.33751 -0.582746 0
M  V30 3218 C 303.052 3.75584 -0.247727 0
M  V30 3219 C 302.199 2.63753 -0.856121 0
M  V30 3220 H 305.15 1.29817 -0.91286 0
M  V30 3221 H 305.171 3.80194 0.152682 0
M  V30 3222 H 304.683 3.51322 -1.64908 0
M  V30 3223 H 302.784 3.63608 0.813624 0
M  V30 3224 H 302.897 4.7373 -0.715307 0
M  V30 3225 H 301.261 2.53108 -0.28432 0
M  V30 3226 H 302.044 2.84137 -1.92668 0
M  V30 3227 N 304.489 0.459591 1.5075 0
M  V30 3228 C 305.437 -0.354678 2.2988 0
M  V30 3229 C 306.431 -1.00086 1.36672 0
M  V30 3230 O 307.637 -0.933277 1.53915 0
M  V30 3231 H 304.012 -0.13321 0.740107 0
M  V30 3232 H 305.983 0.333269 2.96533 0
M  V30 3233 C 304.732 -1.43073 3.169 0
M  V30 3234 H 304.055 -0.942882 3.88523 0
M  V30 3235 H 305.495 -1.97328 3.75284 0
M  V30 3236 C 303.954 -2.42633 2.33732 0
M  V30 3237 O 304.484 -3.47658 2.01238 0
M  V30 3238 N 302.69 -2.14066 1.9653 0
M  V30 3239 H 302.237 -1.28685 2.23155 0
M  V30 3240 H 302.195 -2.80917 1.41185 0
M  V30 3241 N 305.967 -1.56429 0.191757 0
M  V30 3242 C 307.195 -2.01867 -0.453586 0
M  V30 3243 C 307.61 -1.07191 -1.5542 0
M  V30 3244 O 306.967 -0.0762108 -1.82341 0
M  V30 3245 C 307.018 -3.47017 -1.013 0
M  V30 3246 O 306.739 -4.38078 0.0437005 0
M  V30 3247 C 308.24 -4.07956 -1.73456 0
M  V30 3248 H 305.46 -0.661211 -0.114199 0
M  V30 3249 H 308.004 -2.02295 0.299483 0
M  V30 3250 H 306.159 -3.47298 -1.71647 0
M  V30 3251 H 306.573 -5.23178 -0.372212 0
M  V30 3252 H 308.047 -5.1138 -2.07833 0
M  V30 3253 H 308.524 -3.51222 -2.63704 0
M  V30 3254 H 309.13 -4.11437 -1.07702 0
M  V30 3255 N 307.445 0.0818655 -1.57387 0
M  V30 3256 C 308.691 0.784074 -1.8703 0
M  V30 3257 C 309.024 1.77729 -0.782689 0
M  V30 3258 O 308.299 1.93384 0.208051 0
M  V30 3259 C 308.582 1.50105 -3.27323 0
M  V30 3260 C 308.435 0.524925 -4.46727 0
M  V30 3261 C 309.754 2.44843 -3.65705 0
M  V30 3262 H 306.873 0.283582 -0.680257 0
M  V30 3263 H 309.515 0.0474352 -1.89941 0
M  V30 3264 H 307.665 2.12897 -3.24972 0
M  V30 3265 H 309.337 -0.0970111 -4.61198 0
M  V30 3266 H 307.58 -0.160606 -4.33503 0
M  V30 3267 H 308.251 1.064 -5.41648 0
M  V30 3268 H 310.727 1.92135 -3.69085 0
M  V30 3269 H 309.603 2.92018 -4.64776 0
M  V30 3270 H 309.864 3.29197 -2.95096 0
M  V30 3271 N 308.923 1.53595 0.353017 0
M  V30 3272 C 310.17 1.70385 1.09431 0
M  V30 3273 C 310.498 0.462113 1.88931 0
M  V30 3274 O 309.753 -0.556074 1.87633 0
M  V30 3275 C 310.052 2.91313 2.07054 0
M  V30 3276 C 309.718 4.27308 1.43939 0
M  V30 3277 C 308.38 4.64287 1.26454 0
M  V30 3278 C 310.732 5.11829 0.983883 0
M  V30 3279 C 308.06 5.83412 0.620226 0
M  V30 3280 C 310.412 6.31611 0.353516 0
M  V30 3281 C 309.076 6.67293 0.166272 0
M  V30 3282 H 308.346 0.623484 0.400436 0
M  V30 3283 H 310.993 1.87799 0.374655 0
M  V30 3284 H 309.298 2.68463 2.85368 0
M  V30 3285 H 310.995 3.01497 2.64387 0
M  V30 3286 H 307.585 3.98198 1.58543 0
M  V30 3287 H 311.769 4.838 1.10685 0
M  V30 3288 H 307.025 6.09639 0.463681 0
M  V30 3289 H 311.199 6.964 -0.00757555 0
M  V30 3290 H 308.826 7.59461 -0.335047 0
M  V30 3291 N 310.401 -0.613514 1.45168 0
M  V30 3292 C 311.364 -1.7065 1.53007 0
M  V30 3293 C 312.364 -1.5548 0.410184 0
M  V30 3294 O 313.554 -1.60656 0.673455 0
M  V30 3295 C 310.686 -3.09875 1.42093 0
M  V30 3296 H 311.879 -1.65068 2.50385 0
M  V30 3297 H 309.432 -0.828728 1.32521 0
M  V30 3298 H 310.167 -3.21039 0.458769 0
M  V30 3299 H 309.952 -3.22293 2.23315 0
M  V30 3300 H 311.442 -3.895 1.50598 0
M  V30 3301 N 311.879 -1.3236 -0.855495 0
M  V30 3302 C 313.156 -1.13491 -1.59309 0
M  V30 3303 C 313.536 0.30503 -2.08885 0
M  V30 3304 O 312.884 1.30151 -1.87811 0
M  V30 3305 C 313.094 -2.16176 -2.73987 0
M  V30 3306 C 314.442 -2.49463 -3.43589 0
M  V30 3307 O 315.466 -2.14715 -2.84211 0
M  V30 3308 O 314.325 -3.09027 -4.50738 0
M  V30 3309 H 311.419 -0.437887 -0.701559 0
M  V30 3310 H 313.965 -1.43887 -0.899696 0
M  V30 3311 H 312.737 -3.1297 -2.34873 0
M  V30 3312 H 312.36 -1.86769 -3.51003 0
M  V30 3313 N 313.357 1.07166 -1.15556 0
M  V30 3314 C 314.582 1.84053 -0.955988 0
M  V30 3315 C 315.007 1.81586 0.490739 0
M  V30 3316 O 314.365 1.21018 1.34997 0
M  V30 3317 C 314.413 3.28957 -1.47714 0
M  V30 3318 O 313.517 4.06795 -0.677593 0
M  V30 3319 H 312.858 0.569842 -0.340847 0
M  V30 3320 H 315.388 1.35178 -1.53584 0
M  V30 3321 H 315.398 3.79788 -1.4908 0
M  V30 3322 H 314.073 3.30068 -2.53037 0
M  V30 3323 H 312.65 3.6561 -0.733721 0
M  V30 3324 N 314.835 0.952656 1.25548 0
M  V30 3325 C 315.783 0.462354 2.27958 0
M  V30 3326 C 316.777 -0.46634 1.62855 0
M  V30 3327 O 317.983 -0.343287 1.76696 0
M  V30 3328 H 314.358 0.13101 0.7405 0
M  V30 3329 H 316.329 1.33839 2.66702 0
M  V30 3330 C 315.078 -0.24628 3.46827 0
M  V30 3331 H 314.401 0.459192 3.97154 0
M  V30 3332 H 315.841 -0.553393 4.20373 0
M  V30 3333 C 314.3 -1.4681 3.0323 0
M  V30 3334 O 314.83 -2.56591 3.09069 0
M  V30 3335 N 313.036 -1.32874 2.58443 0
M  V30 3336 H 312.583 -0.435536 2.53891 0
M  V30 3337 H 312.541 -2.14742 2.29637 0
M  V30 3338 N 316.313 -1.40141 0.720998 0
M  V30 3339 C 317.562 -2.0002 0.259804 0
M  V30 3340 C 317.875 -1.57839 -1.15526 0
M  V30 3341 O 319.081 -2.10455 -1.71525 0
M  V30 3342 C 317.537 -3.57516 0.413566 0
M  V30 3343 C 317.145 -4.08667 1.83562 0
M  V30 3344 C 318.889 -4.24498 0.0134387 0
M  V30 3345 C 316.796 -5.58686 1.93968 0
M  V30 3346 H 315.726 -0.748195 0.0933806 0
M  V30 3347 H 318.377 -1.60313 0.892866 0
M  V30 3348 H 316.759 -3.9495 -0.288169 0
M  V30 3349 H 317.933 -3.82598 2.56817 0
M  V30 3350 H 316.248 -3.543 2.1877 0
M  V30 3351 H 318.845 -5.34654 0.0703954 0
M  V30 3352 H 319.188 -4.03375 -1.02927 0
M  V30 3353 H 319.721 -3.92188 0.665815 0
M  V30 3354 H 316.46 -5.8467 2.96379 0
M  V30 3355 H 315.98 -5.86602 1.25131 0
M  V30 3356 H 317.659 -6.23875 1.71431 0
M  V30 3357 N 317.792 -0.46758 -1.50504 0
M  V30 3358 C 319.069 0.15003 -1.95024 0
M  V30 3359 C 319.449 1.57304 -1.40779 0
M  V30 3360 O 318.797 2.20281 -0.607319 0
M  V30 3361 C 319.007 0.0969324 -3.48865 0
M  V30 3362 C 320.355 0.287565 -4.23625 0
M  V30 3363 O 321.379 0.173678 -3.55776 0
M  V30 3364 O 320.238 0.517186 -5.44047 0
M  V30 3365 H 317.332 0.113582 -0.819163 0
M  V30 3366 H 319.878 -0.52773 -1.61286 0
M  V30 3367 H 318.65 -0.896732 -3.80886 0
M  V30 3368 H 318.273 0.816303 -3.8913 0
M  V30 3369 N 319.27 1.56325 -0.20005 0
M  V30 3370 C 320.495 2.02548 0.44597 0
M  V30 3371 C 320.92 1.07922 1.5406 0
M  V30 3372 O 320.278 0.0635775 1.81188 0
M  V30 3373 C 320.326 3.47175 0.974761 0
M  V30 3374 O 319.43 3.55671 2.08739 0
M  V30 3375 H 318.771 0.655862 0.103638 0
M  V30 3376 H 321.301 2.02201 -0.312381 0
M  V30 3377 H 321.311 3.87067 1.2901 0
M  V30 3378 H 319.986 4.15538 0.17347 0
M  V30 3379 H 318.563 3.27657 1.78032 0
M  V30 3380 N 320.748 -0.0735177 1.57428 0
M  V30 3381 C 321.994 -0.774145 1.87443 0
M  V30 3382 C 322.327 -1.77311 0.792103 0
M  V30 3383 O 321.602 -1.93492 -0.197793 0
M  V30 3384 C 321.885 -1.48367 3.28115 0
M  V30 3385 C 321.738 -0.501227 4.46999 0
M  V30 3386 C 323.057 -2.429 3.66998 0
M  V30 3387 H 320.176 -0.279971 0.681752 0
M  V30 3388 H 322.818 -0.0373616 1.89963 0
M  V30 3389 H 320.968 -2.11171 3.26097 0
M  V30 3390 H 322.64 0.121468 4.6114 0
M  V30 3391 H 320.883 0.183593 4.33411 0
M  V30 3392 H 321.554 -1.03526 5.42205 0
M  V30 3393 H 324.03 -1.90175 3.70098 0
M  V30 3394 H 322.906 -2.89549 4.66318 0
M  V30 3395 H 323.167 -3.27628 2.96837 0
M  V30 3396 N 322.226 -1.5378 -0.344866 0
M  V30 3397 C 323.159 -1.7649 -1.4466 0
M  V30 3398 C 324.137 -0.613954 -1.50563 0
M  V30 3399 O 325.321 -0.84896 -1.683 0
M  V30 3400 C 322.448 -1.86235 -2.82903 0
M  V30 3401 C 321.494 -3.08375 -2.94631 0
M  V30 3402 S 322.327 -4.67457 -2.61236 0
M  V30 3403 C 323.483 -4.80079 -4.0159 0
M  V30 3404 H 323.716 -2.69661 -1.2518 0
M  V30 3405 H 321.249 -1.44632 -0.540455 0
M  V30 3406 H 323.207 -1.92535 -3.62547 0
M  V30 3407 H 321.868 -0.940786 -2.9968 0
M  V30 3408 H 321.061 -3.11865 -3.95925 0
M  V30 3409 H 320.663 -3.00294 -2.22934 0
M  V30 3410 H 322.955 -4.61407 -4.96094 0
M  V30 3411 H 323.898 -5.82168 -4.03095 0
M  V30 3412 H 324.306 -4.08544 -3.89554 0
M  V30 3413 N 323.704 0.605807 -1.45491 0
M  V30 3414 C 324.667 1.69836 -1.5391 0
M  V30 3415 C 325.667 1.55261 -0.418424 0
M  V30 3416 O 326.857 1.60296 -0.681965 0
M  V30 3417 C 323.989 3.09117 -1.43734 0
M  V30 3418 H 325.182 1.63738 -2.51257 0
M  V30 3419 H 322.735 0.821689 -1.32959 0
M  V30 3420 H 323.47 3.20791 -0.475788 0
M  V30 3421 H 323.255 3.21104 -2.25021 0
M  V30 3422 H 324.745 3.88696 -1.52661 0
M  V30 3423 N 325.182 1.32811 0.848464 0
M  V30 3424 C 326.593 1.21315 1.41914 0
M  V30 3425 C 326.944 -0.171847 1.95446 0
M  V30 3426 O 326.069 -1.07093 1.88043 0
M  V30 3427 C 326.664 2.19631 2.57968 0
M  V30 3428 C 325.223 2.12003 3.11017 0
M  V30 3429 C 324.37 2.07651 1.83783 0
M  V30 3430 H 327.321 1.44549 0.655071 0
M  V30 3431 H 327.342 1.79845 3.35315 0
M  V30 3432 H 326.854 3.20423 2.18976 0
M  V30 3433 H 324.955 1.14481 3.54577 0
M  V30 3434 H 325.068 3.02111 3.71841 0
M  V30 3435 H 323.432 1.52983 2.03638 0
M  V30 3436 H 324.215 3.10235 1.47 0
M  V30 3437 N 326.66 -1.06551 1.16123 0
M  V30 3438 C 327.937 -1.76097 0.85142 0
M  V30 3439 C 328.317 -2.00802 -0.6513 0
M  V30 3440 O 327.665 -1.63302 -1.59827 0
M  V30 3441 C 327.875 -3.06384 1.67122 0
M  V30 3442 C 329.223 -3.80585 1.88255 0
M  V30 3443 O 330.247 -3.16218 1.63966 0
M  V30 3444 O 329.106 -4.96212 2.2899 0
M  V30 3445 H 326.2 -0.765102 0.313923 0
M  V30 3446 H 328.746 -1.12844 1.26745 0
M  V30 3447 H 327.518 -2.84071 2.69108 0
M  V30 3448 H 327.141 -3.77371 1.25206 0
M  V30 3449 N 328.138 -0.959301 -1.25041 0
M  V30 3450 C 329.101 -0.487677 -2.23952 0
M  V30 3451 C 330.101 0.41119 -1.55454 0
M  V30 3452 O 331.291 0.207825 -1.72956 0
M  V30 3453 C 328.423 0.294807 -3.39623 0
M  V30 3454 H 329.616 -1.36198 -2.67189 0
M  V30 3455 H 327.169 -0.743042 -1.37508 0
M  V30 3456 H 327.904 1.18658 -3.01813 0
M  V30 3457 H 327.689 -0.35012 -3.90534 0
M  V30 3458 H 329.179 0.614089 -4.1306 0
M  V30 3459 N 329.616 1.39756 -0.72842 0
M  V30 3460 C 330.863 2.00645 -0.273487 0
M  V30 3461 C 331.191 1.57786 1.13727 0
M  V30 3462 O 330.446 0.794886 1.7883 0
M  V30 3463 C 330.745 3.56002 -0.315776 0
M  V30 3464 C 330.411 4.18489 -1.67863 0
M  V30 3465 C 329.073 4.3527 -2.05166 0
M  V30 3466 C 331.425 4.53219 -2.57375 0
M  V30 3467 C 328.753 4.84069 -3.31503 0
M  V30 3468 C 331.105 5.03423 -3.83077 0
M  V30 3469 C 329.769 5.18413 -4.20481 0
M  V30 3470 H 329.039 0.734211 -0.100076 0
M  V30 3471 H 331.686 1.6718 -0.933972 0
M  V30 3472 H 329.991 3.89452 0.428285 0
M  V30 3473 H 331.688 4.00963 0.0542575 0
M  V30 3474 H 328.278 4.05824 -1.37858 0
M  V30 3475 H 332.462 4.39878 -2.29827 0
M  V30 3476 H 327.718 4.93859 -3.60435 0
M  V30 3477 H 331.892 5.2927 -4.52599 0
M  V30 3478 H 329.519 5.55987 -5.18443 0
M  V30 3479 N 331.094 0.475555 1.50254 0
M  V30 3480 C 332.34 -0.0780073 2.0265 0
M  V30 3481 C 332.673 -1.38968 1.35652 0
M  V30 3482 O 331.948 -1.8839 0.483691 0
M  V30 3483 C 332.231 -0.257161 3.59181 0
M  V30 3484 C 332.084 1.07585 4.36744 0
M  V30 3485 C 333.403 -1.00965 4.28362 0
M  V30 3486 H 330.522 -0.0268758 0.73651 0
M  V30 3487 H 333.164 0.622015 1.7953 0
M  V30 3488 H 331.314 -0.853412 3.79011 0
M  V30 3489 H 332.986 1.70902 4.28474 0
M  V30 3490 H 331.229 1.6714 4.00308 0
M  V30 3491 H 331.9 0.904088 5.44546 0
M  V30 3492 H 334.376 -0.504214 4.13034 0
M  V30 3493 H 333.252 -1.10381 5.37687 0
M  V30 3494 H 333.513 -2.04731 3.91839 0
M  V30 3495 N 332.573 -1.56217 0.208337 0
M  V30 3496 C 333.813 -1.99849 -0.428927 0
M  V30 3497 C 334.177 -1.09262 -1.57879 0
M  V30 3498 O 335.378 -1.42185 -2.28116 0
M  V30 3499 C 333.649 -3.46777 -0.864879 0
M  V30 3500 S 335.208 -4.12434 -1.49811 0
M  V30 3501 H 332.026 -0.697742 -0.136665 0
M  V30 3502 H 334.628 -1.92953 0.314519 0
M  V30 3503 H 333.332 -4.10396 -0.0181326 0
M  V30 3504 H 332.863 -3.57518 -1.64147 0
M  V30 3505 H 334.878 -4.10532 -2.78707 0
M  V30 3506 N 334.051 0.0651679 -1.57465 0
M  V30 3507 C 335.299 0.761555 -1.87202 0
M  V30 3508 C 335.62 1.77778 -0.801243 0
M  V30 3509 O 334.89 1.95166 0.16937 0
M  V30 3510 H 333.47 0.284251 -0.690804 0
M  V30 3511 H 336.132 0.0396827 -1.9486 0
M  V30 3512 H 335.228 1.27365 -2.84929 0
M  V30 3513 N 335.529 1.53961 0.336706 0
M  V30 3514 C 336.945 1.44378 0.680241 0
M  V30 3515 C 337.145 0.606034 1.9217 0
M  V30 3516 O 336.201 0.099688 2.52303 0
M  V30 3517 C 337.514 2.87945 0.8665 0
M  V30 3518 C 339.062 2.97763 0.964682 0
M  V30 3519 C 339.537 4.42453 1.18321 0
M  V30 3520 N 341.028 4.46008 1.25025 0
M  V30 3521 C 341.763 5.55102 1.43697 0
M  V30 3522 N 341.259 6.7419 1.59498 0
M  V30 3523 N 343.052 5.42727 1.463 0
M  V30 3524 H 335.203 2.06918 -0.479455 0
M  V30 3525 H 337.466 0.935634 -0.152619 0
M  V30 3526 H 337.172 3.51691 0.0256937 0
M  V30 3527 H 337.046 3.33293 1.76623 0
M  V30 3528 H 339.433 2.34153 1.796 0
M  V30 3529 H 339.514 2.55766 0.041708 0
M  V30 3530 H 339.158 5.06645 0.356788 0
M  V30 3531 H 339.088 4.82048 2.11985 0
M  V30 3532 H 341.579 3.60196 1.14312 0
M  V30 3533 H 341.892 7.53095 1.734 0
M  V30 3534 H 340.237 6.77123 1.56621 0
M  V30 3535 H 343.428 4.48647 1.33543 0
M  V30 3536 H 343.601 6.27806 1.6051 0
M  V30 3537 N 337.007 -0.598083 1.45811 0
M  V30 3538 C 338.256 -1.35295 1.49594 0
M  V30 3539 C 338.569 -1.95057 0.145679 0
M  V30 3540 O 339.775 -2.71431 0.0612099 0
M  V30 3541 C 338.231 -2.45124 2.63519 0
M  V30 3542 C 337.839 -1.91732 4.04899 0
M  V30 3543 C 339.583 -3.2205 2.76558 0
M  V30 3544 C 337.49 -2.991 5.1019 0
M  V30 3545 H 336.42 -0.508552 0.556679 0
M  V30 3546 H 339.071 -0.639977 1.71978 0
M  V30 3547 H 337.453 -3.19149 2.34435 0
M  V30 3548 H 338.627 -1.24352 4.43704 0
M  V30 3549 H 336.942 -1.27522 3.96393 0
M  V30 3550 H 339.539 -4.0215 3.52391 0
M  V30 3551 H 339.882 -3.73663 1.83526 0
M  V30 3552 H 340.415 -2.55127 3.05213 0
M  V30 3553 H 337.154 -2.52393 6.04961 0
M  V30 3554 H 336.674 -3.65017 4.75944 0
M  V30 3555 H 338.353 -3.63318 5.35359 0
M  V30 3556 N 338.485 -1.33259 -0.841409 0
M  V30 3557 C 339.725 -1.25902 -1.61022 0
M  V30 3558 C 340.089 0.173325 -1.91216 0
M  V30 3559 O 341.29 0.370824 -2.6623 0
M  V30 3560 C 339.561 -2.10735 -2.88662 0
M  V30 3561 S 341.12 -2.20541 -3.79351 0
M  V30 3562 H 337.938 -0.447958 -0.552137 0
M  V30 3563 H 340.54 -1.68263 -0.995382 0
M  V30 3564 H 339.244 -3.1384 -2.64448 0
M  V30 3565 H 338.775 -1.69201 -3.55154 0
M  V30 3566 H 340.79 -1.36462 -4.77067 0
M  V30 3567 N 339.963 1.05934 -1.16686 0
M  V30 3568 C 341.191 1.8249 -0.974929 0
M  V30 3569 C 341.606 1.82679 0.476861 0
M  V30 3570 O 340.963 1.2486 1.33103 0
M  V30 3571 C 341.014 3.28943 -1.49929 0
M  V30 3572 O 340.735 3.28886 -2.89423 0
M  V30 3573 C 342.236 4.22215 -1.35089 0
M  V30 3574 H 339.456 0.575295 -0.345365 0
M  V30 3575 H 342 1.33631 -1.548 0
M  V30 3576 H 340.155 3.751 -0.968423 0
M  V30 3577 H 340.569 4.20493 -3.13506 0
M  V30 3578 H 342.043 5.22987 -1.76603 0
M  V30 3579 H 342.52 4.38195 -0.296935 0
M  V30 3580 H 343.126 3.81907 -1.87155 0
M  V30 3581 N 341.441 0.965919 1.2453 0
M  V30 3582 C 342.391 0.465731 2.23193 0
M  V30 3583 C 343.375 -0.451277 1.54442 0
M  V30 3584 O 344.567 -0.282489 1.74731 0
M  V30 3585 C 341.696 -0.244511 3.42428 0
M  V30 3586 C 340.782 0.691222 4.18429 0
M  V30 3587 N 341.173 1.82771 4.71623 0
M  V30 3588 C 339.471 0.501649 4.4317 0
M  V30 3589 C 340.172 2.41285 5.29298 0
M  V30 3590 N 339.148 1.69819 5.16394 0
M  V30 3591 H 342.95 1.33291 2.61937 0
M  V30 3592 H 340.464 0.824789 1.39896 0
M  V30 3593 H 342.461 -0.620056 4.12263 0
M  V30 3594 H 341.121 -1.10815 3.05205 0
M  V30 3595 H 342.132 2.20929 4.68413 0
M  V30 3596 H 338.809 -0.318177 4.16286 0
M  V30 3597 H 340.199 3.37181 5.8117 0
M  V30 3598 N 342.919 -1.39368 0.735821 0
M  V30 3599 C 343.869 -2.27885 0.0724287 0
M  V30 3600 C 344.853 -1.44301 -0.711756 0
M  V30 3601 O 346.045 -1.67206 -0.58063 0
M  V30 3602 C 343.174 -3.33029 -0.833454 0
M  V30 3603 C 342.26 -4.24078 -0.0433749 0
M  V30 3604 N 342.651 -4.96138 0.983903 0
M  V30 3605 C 340.949 -4.45164 -0.272905 0
M  V30 3606 C 341.65 -5.63069 1.4604 0
M  V30 3607 N 340.626 -5.37991 0.778857 0
M  V30 3608 H 344.428 -2.81052 0.859467 0
M  V30 3609 H 341.942 -1.5206 0.570227 0
M  V30 3610 H 343.939 -3.95311 -1.32419 0
M  V30 3611 H 342.599 -2.81421 -1.61964 0
M  V30 3612 H 343.61 -4.9958 1.36528 0
M  V30 3613 H 340.287 -4.04497 -1.03383 0
M  V30 3614 H 341.677 -6.30755 2.31511 0
M  V30 3615 N 344.397 -0.483516 -1.5 0
M  V30 3616 C 345.808 -0.0314176 -1.86674 0
M  V30 3617 C 346.159 1.37728 -1.39733 0
M  V30 3618 O 345.284 2.02327 -0.767635 0
M  V30 3619 C 345.879 -0.0502376 -3.38763 0
M  V30 3620 C 344.438 0.346442 -3.74802 0
M  V30 3621 C 343.585 -0.430366 -2.7394 0
M  V30 3622 H 346.536 -0.697182 -1.42566 0
M  V30 3623 H 346.557 0.749116 -3.73053 0
M  V30 3624 H 346.069 -1.07563 -3.72897 0
M  V30 3625 H 344.17 1.37572 -3.46273 0
M  V30 3626 H 344.283 0.0391486 -4.79084 0
M  V30 3627 H 342.647 0.117557 -2.54429 0
M  V30 3628 H 343.43 -1.4555 -3.10918 0
M  V30 3629 N 345.875 1.56104 -0.216619 0
M  V30 3630 C 347.123 1.97781 0.415593 0
M  V30 3631 C 347.444 1.10536 1.60645 0
M  V30 3632 O 346.714 0.181303 1.95059 0
M  V30 3633 H 345.294 0.730415 0.156534 0
M  V30 3634 H 347.956 1.92445 -0.308366 0
M  V30 3635 H 347.052 3.03072 0.74525 0
M  V30 3636 N 347.353 -0.0568162 1.57498 0
M  V30 3637 C 348.593 -0.758273 1.89815 0
M  V30 3638 C 348.957 -1.73978 0.812132 0
M  V30 3639 O 350.158 -2.48744 1.01881 0
M  V30 3640 C 348.429 -1.43465 3.27342 0
M  V30 3641 S 349.988 -2.1691 3.81439 0
M  V30 3642 H 346.806 -0.251836 0.664906 0
M  V30 3643 H 349.408 -0.0137997 1.95495 0
M  V30 3644 H 348.112 -0.706693 4.0427 0
M  V30 3645 H 347.643 -2.21825 3.24896 0
M  V30 3646 H 349.658 -3.43658 3.5793 0
M  V30 3647 N 348.832 -1.54138 -0.328536 0
M  V30 3648 C 349.762 -1.86167 -1.40939 0
M  V30 3649 C 350.743 -0.718044 -1.54202 0
M  V30 3650 O 351.928 -0.971328 -1.68163 0
M  V30 3651 C 349.058 -2.08461 -2.77779 0
M  V30 3652 C 348.012 -3.24299 -2.7931 0
M  V30 3653 C 347.338 -3.31955 -4.19178 0
M  V30 3654 C 348.638 -4.62065 -2.43502 0
M  V30 3655 H 350.332 -2.76689 -1.14383 0
M  V30 3656 H 347.878 -1.33132 -0.548806 0
M  V30 3657 H 349.831 -2.29453 -3.53454 0
M  V30 3658 H 348.555 -1.14684 -3.05802 0
M  V30 3659 H 347.214 -3.03187 -2.0609 0
M  V30 3660 H 346.862 -2.35745 -4.44335 0
M  V30 3661 H 346.562 -4.09805 -4.2111 0
M  V30 3662 H 348.086 -3.55175 -4.96672 0
M  V30 3663 H 349.5 -4.8297 -3.08889 0
M  V30 3664 H 347.897 -5.42429 -2.56693 0
M  V30 3665 H 348.967 -4.64652 -1.38659 0
M  V30 3666 N 350.31 0.590341 -1.46126 0
M  V30 3667 C 351.557 1.34882 -1.5104 0
M  V30 3668 C 351.885 1.93849 -0.159021 0
M  V30 3669 O 351.14 1.76544 0.844436 0
M  V30 3670 C 351.439 2.5032 -2.55097 0
M  V30 3671 C 351.105 2.09394 -3.99331 0
M  V30 3672 C 349.767 1.97947 -4.38601 0
M  V30 3673 C 352.119 1.77712 -4.89967 0
M  V30 3674 C 349.447 1.53065 -5.66381 0
M  V30 3675 C 351.799 1.34312 -6.18177 0
M  V30 3676 C 350.463 1.21436 -6.56361 0
M  V30 3677 H 349.733 0.493568 -0.552695 0
M  V30 3678 H 352.38 0.665539 -1.79563 0
M  V30 3679 H 350.685 3.24062 -2.20207 0
M  V30 3680 H 352.382 3.08541 -2.56132 0
M  V30 3681 H 348.972 2.19235 -3.68285 0
M  V30 3682 H 353.156 1.85445 -4.60352 0
M  V30 3683 H 348.412 1.41733 -5.94745 0
M  V30 3684 H 352.586 1.08849 -6.87841 0
M  V30 3685 H 350.213 0.864345 -7.5527 0
M  V30 3686 N 351.788 1.33704 0.83433 0
M  V30 3687 C 353.035 1.25417 1.58987 0
M  V30 3688 C 353.363 -0.178869 1.93676 0
M  V30 3689 O 352.618 -1.13723 1.59265 0
M  V30 3690 C 352.917 2.07926 2.90692 0
M  V30 3691 C 352.583 3.57066 2.75345 0
M  V30 3692 C 351.245 3.97724 2.70867 0
M  V30 3693 C 353.597 4.51817 2.59828 0
M  V30 3694 C 350.925 5.31344 2.48778 0
M  V30 3695 C 353.277 5.85604 2.39272 0
M  V30 3696 C 351.941 6.25439 2.33199 0
M  V30 3697 H 351.211 0.458934 0.581774 0
M  V30 3698 H 353.858 1.65335 0.966261 0
M  V30 3699 H 352.163 1.608 3.57282 0
M  V30 3700 H 353.86 1.98868 3.48213 0
M  V30 3701 H 350.45 3.24785 2.79665 0
M  V30 3702 H 354.634 4.21311 2.62319 0
M  V30 3703 H 349.89 5.61241 2.42526 0
M  V30 3704 H 354.064 6.58623 2.2625 0
M  V30 3705 H 351.691 7.28914 2.15843 0
M  V30 3706 N 353.266 -1.05314 1.17247 0
M  V30 3707 C 354.494 -1.81971 0.984593 0
M  V30 3708 C 354.909 -1.82929 -0.467166 0
M  V30 3709 O 354.266 -1.25564 -1.32438 0
M  V30 3710 C 354.317 -3.28143 1.51672 0
M  V30 3711 O 354.038 -3.27347 2.91163 0
M  V30 3712 C 355.539 -4.21493 1.37326 0
M  V30 3713 H 352.759 -0.573455 0.348411 0
M  V30 3714 H 355.303 -1.32808 1.55506 0
M  V30 3715 H 353.458 -3.74582 0.988302 0
M  V30 3716 H 353.872 -4.18824 3.15732 0
M  V30 3717 H 355.346 -5.22043 1.79375 0
M  V30 3718 H 355.823 -4.38031 0.320169 0
M  V30 3719 H 356.429 -3.80909 1.89178 0
M  V30 3720 N 354.744 -0.972509 -1.24016 0
M  V30 3721 C 355.991 -0.637034 -1.92219 0
M  V30 3722 C 356.319 0.828418 -1.75976 0
M  V30 3723 O 355.574 1.61206 -1.10955 0
M  V30 3724 C 355.873 -0.963694 -3.44162 0
M  V30 3725 C 355.539 -2.41807 -3.80579 0
M  V30 3726 C 354.201 -2.81556 -3.9023 0
M  V30 3727 C 356.553 -3.36172 -3.98293 0
M  V30 3728 C 353.881 -4.14702 -4.15017 0
M  V30 3729 C 356.233 -4.68952 -4.24578 0
M  V30 3730 C 354.897 -5.08472 -4.32449 0
M  V30 3731 H 354.167 -0.233107 -0.703379 0
M  V30 3732 H 356.814 -1.2249 -1.47202 0
M  V30 3733 H 355.119 -0.29365 -3.90698 0
M  V30 3734 H 356.816 -0.682449 -3.9515 0
M  V30 3735 H 353.406 -2.09988 -3.73635 0
M  V30 3736 H 357.59 -3.06644 -3.90234 0
M  V30 3737 H 352.846 -4.4494 -4.19331 0
M  V30 3738 H 357.02 -5.42037 -4.37229 0
M  V30 3739 H 354.647 -6.11665 -4.51409 0
M  V30 3740 N 356.222 1.38976 -0.743202 0
M  V30 3741 C 357.469 2.00343 -0.294752 0
M  V30 3742 C 357.797 1.58983 1.12047 0
M  V30 3743 O 357.052 0.813809 1.77977 0
M  V30 3744 C 357.351 3.55647 -0.353517 0
M  V30 3745 C 357.017 4.16685 -1.72292 0
M  V30 3746 C 355.679 4.3307 -2.09771 0
M  V30 3747 C 358.031 4.50464 -2.62168 0
M  V30 3748 C 355.359 4.80526 -3.36618 0
M  V30 3749 C 357.711 4.99332 -3.88395 0
M  V30 3750 C 356.375 5.13924 -4.25956 0
M  V30 3751 H 355.645 0.733108 -0.107857 0
M  V30 3752 H 358.292 1.6618 -0.951651 0
M  V30 3753 H 356.597 3.89884 0.386954 0
M  V30 3754 H 358.294 4.00998 0.0117269 0
M  V30 3755 H 354.884 4.04339 -1.42155 0
M  V30 3756 H 359.068 4.37416 -2.3448 0
M  V30 3757 H 354.324 4.90008 -3.65653 0
M  V30 3758 H 358.498 5.2444 -4.58187 0
M  V30 3759 H 356.125 5.50457 -5.2431 0
M  V30 3760 N 357.7 0.491464 1.49741 0
M  V30 3761 C 358.925 -0.0557177 2.07325 0
M  V30 3762 C 359.35 -1.30925 1.35056 0
M  V30 3763 O 358.708 -1.76733 0.404365 0
M  V30 3764 C 358.756 -0.302074 3.59333 0
M  V30 3765 O 357.86 -1.37868 3.88672 0
M  V30 3766 H 357.201 0.0219956 0.663636 0
M  V30 3767 H 359.731 0.688352 1.92673 0
M  V30 3768 H 359.741 -0.536464 4.04458 0
M  V30 3769 H 358.416 0.61383 4.11345 0
M  V30 3770 H 356.993 -1.12999 3.55367 0
M  V30 3771 N 359.178 -1.55987 0.224894 0
M  V30 3772 C 360.11 -2.17722 -0.716224 0
M  V30 3773 C 361.123 -1.14723 -1.15509 0
M  V30 3774 O 362.312 -1.41688 -1.08567 0
M  V30 3775 C 359.412 -2.74873 -1.98238 0
M  V30 3776 C 358.585 -4.03074 -1.69853 0
M  V30 3777 C 357.644 -4.44757 -2.81208 0
M  V30 3778 O 356.67 -5.11587 -2.49534 0
M  V30 3779 N 357.872 -4.10716 -4.10235 0
M  V30 3780 H 360.637 -2.99109 -0.188123 0
M  V30 3781 H 358.198 -1.6184 0.0440123 0
M  V30 3782 H 360.19 -2.99727 -2.7193 0
M  V30 3783 H 358.76 -1.9777 -2.42086 0
M  V30 3784 H 357.98 -3.86041 -0.797875 0
M  V30 3785 H 359.268 -4.86701 -1.48324 0
M  V30 3786 H 358.666 -3.57019 -4.38809 0
M  V30 3787 H 357.223 -4.40455 -4.80461 0
M  V30 3788 N 360.656 0.0484629 -1.57525 0
M  V30 3789 C 361.566 1.07241 -2.08654 0
M  V30 3790 C 362.582 1.409 -1.02095 0
M  V30 3791 O 363.758 1.50609 -1.33712 0
M  V30 3792 C 360.823 2.36008 -2.5397 0
M  V30 3793 C 359.884 2.09108 -3.7493 0
M  V30 3794 C 359.117 3.31736 -4.18075 0
M  V30 3795 O 359.34 4.41714 -3.60895 0
M  V30 3796 O 358.274 3.18576 -5.10679 0
M  V30 3797 H 362.1 0.667965 -2.96263 0
M  V30 3798 H 359.685 0.26417 -1.47046 0
M  V30 3799 H 361.567 3.11747 -2.83535 0
M  V30 3800 H 360.242 2.75786 -1.69481 0
M  V30 3801 H 359.149 1.31 -3.50414 0
M  V30 3802 H 360.482 1.74198 -4.60343 0
M  V30 3803 N 362.134 1.5431 0.320358 0
M  V30 3804 C 363.38 1.73859 1.05568 0
M  V30 3805 C 363.735 0.507807 1.85578 0
M  V30 3806 O 363.028 -0.499789 1.84967 0
M  V30 3807 C 363.222 2.95639 2.00828 0
M  V30 3808 C 363.051 4.30444 1.30186 0
M  V30 3809 C 361.821 4.94544 1.03703 0
M  V30 3810 C 364.019 5.0929 0.716138 0
M  V30 3811 N 362.001 6.13172 0.298846 0
M  V30 3812 C 363.372 6.19903 0.109729 0
M  V30 3813 C 365.427 4.94034 0.619269 0
M  V30 3814 C 364.13 7.16924 -0.584153 0
M  V30 3815 C 366.156 5.91369 -0.0609184 0
M  V30 3816 C 365.518 7.01336 -0.656258 0
M  V30 3817 H 361.617 0.688988 0.36989 0
M  V30 3818 H 364.201 1.9177 0.336494 0
M  V30 3819 H 362.372 2.79188 2.70016 0
M  V30 3820 H 364.104 3.03802 2.6737 0
M  V30 3821 H 360.859 4.54536 1.33019 0
M  V30 3822 H 361.283 6.76977 -0.0561964 0
M  V30 3823 H 365.925 4.0916 1.06526 0
M  V30 3824 H 363.643 8.01354 -1.04197 0
M  V30 3825 H 367.229 5.81642 -0.135552 0
M  V30 3826 H 366.109 7.75359 -1.17423 0
M  V30 3827 N 363.613 -0.582584 1.46437 0
M  V30 3828 C 365.024 -1.1647 1.45916 0
M  V30 3829 C 365.375 -1.95177 0.200077 0
M  V30 3830 O 364.5 -2.04874 -0.696819 0
M  V30 3831 C 365.095 -2.11885 2.64367 0
M  V30 3832 C 363.654 -2.65421 2.66887 0
M  V30 3833 C 362.801 -1.41294 2.38603 0
M  V30 3834 H 365.752 -0.370514 1.54314 0
M  V30 3835 H 365.773 -2.9535 2.39892 0
M  V30 3836 H 365.285 -1.54573 3.5599 0
M  V30 3837 H 363.386 -3.26602 1.79338 0
M  V30 3838 H 363.499 -3.08147 3.66854 0
M  V30 3839 H 361.863 -1.71109 1.88663 0
M  V30 3840 H 362.646 -0.858125 3.32402 0
M  V30 3841 N 365.091 -1.34144 -0.827227 0
M  V30 3842 C 366.038 -1.25364 -1.93785 0
M  V30 3843 C 367.008 -0.129774 -1.65592 0
M  V30 3844 O 368.193 -0.310024 -1.88264 0
M  V30 3845 C 365.333 -1.01064 -3.2997 0
M  V30 3846 C 364.446 -2.22185 -3.70484 0
M  V30 3847 C 363.581 -1.91203 -4.95595 0
M  V30 3848 C 362.62 -3.08491 -5.28677 0
M  V30 3849 N 361.757 -2.77421 -6.44967 0
M  V30 3850 H 366.597 -2.20347 -2.00627 0
M  V30 3851 H 364.134 -1.09558 -0.981608 0
M  V30 3852 H 366.092 -0.850139 -4.08446 0
M  V30 3853 H 364.722 -0.0975026 -3.22653 0
M  V30 3854 H 363.774 -2.4917 -2.87434 0
M  V30 3855 H 365.086 -3.0983 -3.90905 0
M  V30 3856 H 364.24 -1.71864 -5.81848 0
M  V30 3857 H 362.979 -1.00812 -4.77167 0
M  V30 3858 H 361.984 -3.28431 -4.40923 0
M  V30 3859 H 363.209 -3.99655 -5.49047 0
M  V30 3860 H 361.155 -1.89601 -6.28003 0
M  V30 3861 H 361.072 -3.58598 -6.6554 0
M  V30 3862 H 362.34 -2.61577 -7.34301 0
M  V30 3863 N 366.569 1.04691 -1.17803 0
M  V30 3864 C 367.479 2.16057 -0.914151 0
M  V30 3865 C 368.495 1.73589 0.119503 0
M  V30 3866 O 369.671 2.01308 -0.0609468 0
M  V30 3867 C 366.736 3.4394 -0.436603 0
M  V30 3868 C 365.797 4.00825 -1.53746 0
M  V30 3869 C 365.03 5.22604 -1.0826 0
M  V30 3870 O 365.253 5.70367 0.0612244 0
M  V30 3871 O 364.187 5.7186 -1.87775 0
M  V30 3872 H 368.013 2.41169 -1.84584 0
M  V30 3873 H 365.598 1.1453 -0.959334 0
M  V30 3874 H 367.48 4.21024 -0.178057 0
M  V30 3875 H 366.155 3.20316 0.466869 0
M  V30 3876 H 365.062 3.25158 -1.84995 0
M  V30 3877 H 366.395 4.28778 -2.41683 0
M  V30 3878 N 368.047 0.979072 1.23499 0
M  V30 3879 C 369.272 0.664845 1.96455 0
M  V30 3880 C 369.697 -0.761287 1.72006 0
M  V30 3881 O 369.055 -1.51837 0.990713 0
M  V30 3882 C 369.103 0.959479 3.47601 0
M  V30 3883 O 368.207 0.0508168 4.12369 0
M  V30 3884 H 367.548 0.250185 0.615064 0
M  V30 3885 H 370.078 1.31231 1.5697 0
M  V30 3886 H 370.088 0.895642 3.98048 0
M  V30 3887 H 368.763 1.99876 3.64723 0
M  V30 3888 H 367.34 0.16895 3.72517 0
M  V30 3889 N 369.525 -1.3858 0.750561 0
M  V30 3890 C 370.457 -2.29057 0.0810714 0
M  V30 3891 C 371.47 -1.47596 -0.686973 0
M  V30 3892 O 372.659 -1.70495 -0.528563 0
M  V30 3893 C 369.759 -3.26475 -0.909247 0
M  V30 3894 C 368.932 -4.36945 -0.199478 0
M  V30 3895 C 367.991 -5.14572 -1.10011 0
M  V30 3896 O 367.017 -5.66321 -0.57177 0
M  V30 3897 N 368.219 -5.27262 -2.42849 0
M  V30 3898 H 370.984 -2.87153 0.858087 0
M  V30 3899 H 368.545 -1.50328 0.60109 0
M  V30 3900 H 370.537 -3.75285 -1.51471 0
M  V30 3901 H 369.107 -2.69298 -1.58736 0
M  V30 3902 H 368.327 -3.8981 0.586664 0
M  V30 3903 H 369.615 -5.07963 0.291783 0
M  V30 3904 H 369.013 -4.86763 -2.88233 0
M  V30 3905 H 367.57 -5.79456 -2.98453 0
M  V30 3906 N 371.003 -0.499398 -1.49478 0
M  V30 3907 C 372.419 -0.155261 -1.58843 0
M  V30 3908 C 372.619 1.34008 -1.50479 0
M  V30 3909 O 371.675 2.11589 -1.37791 0
M  V30 3910 C 372.988 -0.730636 -2.91689 0
M  V30 3911 C 374.536 -0.696599 -3.0515 0
M  V30 3912 C 375.011 -1.25001 -4.40612 0
M  V30 3913 N 376.502 -1.21064 -4.47099 0
M  V30 3914 C 377.237 -1.60905 -5.50361 0
M  V30 3915 N 376.733 -2.08331 -6.60735 0
M  V30 3916 N 378.526 -1.52331 -5.41065 0
M  V30 3917 H 370.677 -1.47162 -1.53158 0
M  V30 3918 H 372.94 -0.610309 -0.725415 0
M  V30 3919 H 372.646 -1.77928 -3.03372 0
M  V30 3920 H 372.52 -0.190161 -3.7672 0
M  V30 3921 H 374.907 0.343204 -2.93097 0
M  V30 3922 H 374.988 -1.2742 -2.21806 0
M  V30 3923 H 374.632 -2.28859 -4.53416 0
M  V30 3924 H 374.562 -0.64836 -5.22593 0
M  V30 3925 H 377.053 -0.863128 -3.67911 0
M  V30 3926 H 377.366 -2.36805 -7.35624 0
M  V30 3927 H 375.711 -2.12304 -6.6178 0
M  V30 3928 H 378.902 -1.151 -4.53729 0
M  V30 3929 H 379.075 -1.83704 -6.21415 0
M  V30 3930 N 372.481 1.55866 -0.233164 0
M  V30 3931 C 373.429 2.22176 0.68851 0
M  V30 3932 C 374.423 1.20487 1.19076 0
M  V30 3933 O 375.629 1.38536 1.14925 0
M  V30 3934 H 372.004 0.712511 0.240483 0
M  V30 3935 H 373.975 2.98212 0.105935 0
M  V30 3936 C 372.724 2.92446 1.88071 0
M  V30 3937 H 372.047 3.70458 1.50337 0
M  V30 3938 H 373.487 3.42226 2.50314 0
M  V30 3939 C 371.946 1.95555 2.74335 0
M  V30 3940 O 372.476 1.47986 3.73447 0
M  V30 3941 N 370.682 1.62953 2.40613 0
M  V30 3942 H 370.229 2.01831 1.60069 0
M  V30 3943 H 370.187 0.983886 2.98609 0
M  V30 3944 N 373.959 -0.0401083 1.57549 0
M  V30 3945 C 374.889 -1.04384 2.08869 0
M  V30 3946 C 375.87 -1.38407 0.988817 0
M  V30 3947 O 377.055 -1.47483 1.26342 0
M  V30 3948 C 374.185 -2.34808 2.55895 0
M  V30 3949 C 373.139 -2.15057 3.70047 0
M  V30 3950 C 372.465 -3.51145 4.03239 0
M  V30 3951 C 373.765 -1.54576 4.98902 0
M  V30 3952 H 375.459 -0.616666 2.92981 0
M  V30 3953 H 373.005 -0.295184 1.40942 0
M  V30 3954 H 374.958 -3.05346 2.90417 0
M  V30 3955 H 373.682 -2.79565 1.68853 0
M  V30 3956 H 372.341 -1.46954 3.35857 0
M  V30 3957 H 371.989 -3.93529 3.13279 0
M  V30 3958 H 371.689 -3.38758 4.80122 0
M  V30 3959 H 373.213 -4.23062 4.40285 0
M  V30 3960 H 374.627 -2.15017 5.31451 0
M  V30 3961 H 373.024 -1.52796 5.80322 0
M  V30 3962 H 374.094 -0.51039 4.82206 0
M  V30 3963 N 375.437 -1.54477 -0.31217 0
M  V30 3964 C 376.677 -1.74958 -1.05684 0
M  V30 3965 C 377.041 -0.518414 -1.84869 0
M  V30 3966 O 378.242 -0.600759 -2.62001 0
M  V30 3967 C 376.513 -2.99656 -1.94785 0
M  V30 3968 S 378.072 -3.4109 -2.76049 0
M  V30 3969 H 374.89 -0.615104 -0.356606 0
M  V30 3970 H 377.492 -1.92669 -0.331514 0
M  V30 3971 H 376.196 -3.87397 -1.35468 0
M  V30 3972 H 375.727 -2.845 -2.71704 0
M  V30 3973 H 377.742 -2.97283 -3.97287 0
M  V30 3974 N 376.915 0.57481 -1.46744 0
M  V30 3975 C 377.845 1.69337 -1.60771 0
M  V30 3976 C 378.826 1.63825 -0.457736 0
M  V30 3977 O 380.011 1.8172 -0.684947 0
M  V30 3978 C 377.141 3.0798 -1.60517 0
M  V30 3979 C 376.095 3.28327 -2.74564 0
M  V30 3980 C 375.421 4.67578 -2.59373 0
M  V30 3981 C 376.721 3.15398 -4.16319 0
M  V30 3982 H 378.415 1.57853 -2.54407 0
M  V30 3983 H 375.961 0.75799 -1.22436 0
M  V30 3984 H 377.914 3.86061 -1.68923 0
M  V30 3985 H 376.638 3.20381 -0.634305 0
M  V30 3986 H 375.297 2.52649 -2.65639 0
M  V30 3987 H 374.945 4.76755 -1.60353 0
M  V30 3988 H 374.645 4.82144 -3.35873 0
M  V30 3989 H 376.169 5.47817 -2.69682 0
M  V30 3990 H 377.583 3.83315 -4.26313 0
M  V30 3991 H 375.98 3.41482 -4.93468 0
M  V30 3992 H 377.05 2.12372 -4.3592 0
M  V30 3993 N 378.394 1.34581 0.820102 0
M  V30 3994 C 379.324 1.29038 1.94606 0
M  V30 3995 C 380.305 0.1673 1.69275 0
M  V30 3996 O 381.49 0.360112 1.90832 0
M  V30 3997 C 378.62 1.04793 3.31113 0
M  V30 3998 C 377.574 2.13597 3.70891 0
M  V30 3999 C 376.9 1.74537 5.05412 0
M  V30 4000 C 378.2 3.55451 3.8269 0
M  V30 4001 H 379.894 2.23248 1.99501 0
M  V30 4002 H 377.44 1.0747 0.958449 0
M  V30 4003 H 379.393 0.995592 4.0947 0
M  V30 4004 H 378.117 0.0702565 3.26524 0
M  V30 4005 H 376.776 2.17905 2.9481 0
M  V30 4006 H 376.424 0.754226 4.97313 0
M  V30 4007 H 376.124 2.47361 5.32997 0
M  V30 4008 H 377.648 1.70803 5.86224 0
M  V30 4009 H 379.062 3.5354 4.51312 0
M  V30 4010 H 377.459 4.26922 4.21732 0
M  V30 4011 H 378.529 3.92587 2.84611 0
M  V30 4012 N 379.872 -1.04064 1.18357 0
M  V30 4013 C 380.819 -2.12077 0.910603 0
M  V30 4014 C 381.789 -1.65421 -0.15 0
M  V30 4015 O 382.974 -1.90797 -0.0103614 0
M  V30 4016 C 380.114 -3.42252 0.442472 0
M  V30 4017 C 379.227 -4.0252 1.5685 0
M  V30 4018 C 378.362 -5.20657 1.05309 0
M  V30 4019 C 377.401 -5.72955 2.1538 0
M  V30 4020 N 376.538 -6.8238 1.65233 0
M  V30 4021 H 381.378 -2.34764 1.83548 0
M  V30 4022 H 378.915 -1.15157 0.915279 0
M  V30 4023 H 380.873 -4.16921 0.152534 0
M  V30 4024 H 379.503 -3.19712 -0.445428 0
M  V30 4025 H 378.555 -3.25178 1.97391 0
M  V30 4026 H 379.867 -4.37362 2.39824 0
M  V30 4027 H 379.021 -6.0244 0.717677 0
M  V30 4028 H 377.76 -4.87318 0.19293 0
M  V30 4029 H 376.765 -4.89793 2.49766 0
M  V30 4030 H 377.99 -6.08337 3.01832 0
M  V30 4031 H 375.936 -6.50917 0.815064 0
M  V30 4032 H 375.853 -7.16286 2.41805 0
M  V30 4033 H 377.121 -7.67788 1.34619 0
M  V30 4034 N 381.35 -0.985608 -1.22978 0
M  V30 4035 C 382.578 -0.675582 -1.95559 0
M  V30 4036 C 382.993 0.758413 -1.72897 0
M  V30 4037 O 382.35 1.51094 -1.02357 0
M  V30 4038 C 382.401 -0.96293 -3.48439 0
M  V30 4039 O 382.122 -2.34057 -3.70336 0
M  V30 4040 C 383.623 -0.669585 -4.38214 0
M  V30 4041 H 380.843 -0.250523 -0.622478 0
M  V30 4042 H 383.387 -1.3184 -1.56328 0
M  V30 4043 H 381.542 -0.366033 -3.85667 0
M  V30 4044 H 381.956 -2.43424 -4.64591 0
M  V30 4045 H 383.43 -0.920967 -5.44263 0
M  V30 4046 H 383.907 0.396383 -4.37408 0
M  V30 4047 H 384.513 -1.2472 -4.06602 0
M  V30 4048 N 382.828 1.3818 -0.7579 0
M  V30 4049 C 384.053 2.04827 -0.325679 0
M  V30 4050 C 384.478 1.56788 1.03919 0
M  V30 4051 O 383.836 0.721811 1.66312 0
M  V30 4052 C 383.884 3.58774 -0.362447 0
M  V30 4053 O 382.988 4.07372 0.642033 0
M  V30 4054 H 382.329 0.64833 -0.143402 0
M  V30 4055 H 384.859 1.7677 -1.03023 0
M  V30 4056 H 384.869 4.07434 -0.214844 0
M  V30 4057 H 383.544 3.93096 -1.35824 0
M  V30 4058 H 382.121 3.70068 0.458688 0
M  V30 4059 N 384.306 0.507319 1.49211 0
M  V30 4060 C 385.216 -0.272136 2.33016 0
M  V30 4061 C 386.232 -0.961206 1.45041 0
M  V30 4062 O 387.408 -0.941191 1.78055 0
M  V30 4063 C 384.473 -1.31895 3.20631 0
M  V30 4064 C 383.534 -0.642648 4.24463 0
M  V30 4065 C 382.767 -1.63959 5.07891 0
M  V30 4066 O 382.99 -2.87007 4.92933 0
M  V30 4067 O 381.924 -1.19143 5.8999 0
M  V30 4068 H 385.75 0.413982 3.00865 0
M  V30 4069 H 383.335 0.268556 1.46966 0
M  V30 4070 H 385.217 -1.92446 3.7489 0
M  V30 4071 H 383.892 -1.98788 2.5547 0
M  V30 4072 H 382.799 0.00276252 3.741 0
M  V30 4073 H 384.132 -0.0160534 4.92197 0
M  V30 4074 N 385.784 -1.5574 0.241426 0
M  V30 4075 C 387.009 -2.0366 -0.392111 0
M  V30 4076 C 387.434 -1.11969 -1.51144 0
M  V30 4077 O 386.792 -0.111594 -1.80956 0
M  V30 4078 C 386.84 -3.49638 -0.882371 0
M  V30 4079 O 385.944 -3.6108 -1.99235 0
M  V30 4080 H 385.285 -0.658379 -0.0862122 0
M  V30 4081 H 387.815 -2.01302 0.365881 0
M  V30 4082 H 387.825 -3.90351 -1.18702 0
M  V30 4083 H 386.5 -4.15852 -0.0632361 0
M  V30 4084 H 385.077 -3.32262 -1.69282 0
M  V30 4085 N 387.262 0.0317525 -1.57568 0
M  V30 4086 C 388.51 0.721676 -1.88776 0
M  V30 4087 C 388.831 1.76039 -0.838772 0
M  V30 4088 O 388.101 1.95482 0.127935 0
M  V30 4089 H 386.681 0.269534 -0.696678 0
M  V30 4090 H 389.343 -0.00165879 -1.949 0
M  V30 4091 H 388.439 1.21293 -2.87566 0
M  V30 4092 N 388.74 1.54641 0.303973 0
M  V30 4093 C 389.67 1.88386 1.3796 0
M  V30 4094 C 390.651 0.742485 1.5304 0
M  V30 4095 O 391.836 0.997959 1.66597 0
M  V30 4096 C 388.966 2.12854 2.74427 0
M  V30 4097 C 387.92 3.28702 2.74115 0
M  V30 4098 C 387.246 3.38582 4.13844 0
M  V30 4099 C 388.546 4.65881 2.3612 0
M  V30 4100 H 390.24 2.78474 1.09966 0
M  V30 4101 H 387.786 1.33988 0.527556 0
M  V30 4102 H 389.739 2.35047 3.49758 0
M  V30 4103 H 388.463 1.19535 3.03939 0
M  V30 4104 H 387.122 3.06428 2.0124 0
M  V30 4105 H 386.77 2.42784 4.40528 0
M  V30 4106 H 386.47 4.16453 4.14537 0
M  V30 4107 H 387.994 3.63031 4.90959 0
M  V30 4108 H 389.408 4.87823 3.01167 0
M  V30 4109 H 387.805 5.46444 2.48031 0
M  V30 4110 H 388.875 4.66799 1.3125 0
M  V30 4111 N 390.218 -0.567019 1.47046 0
M  V30 4112 C 391.629 -1.14916 1.47143 0
M  V30 4113 C 391.98 -1.94954 0.220767 0
M  V30 4114 O 391.105 -2.05602 -0.67505 0
M  V30 4115 C 391.7 -2.09069 2.666 0
M  V30 4116 C 390.259 -2.62575 2.69687 0
M  V30 4117 C 389.406 -1.38755 2.40088 0
M  V30 4118 H 392.357 -0.354126 1.54699 0
M  V30 4119 H 392.378 -2.92789 2.43011 0
M  V30 4120 H 391.89 -1.50789 3.57609 0
M  V30 4121 H 389.991 -3.24681 1.82792 0
M  V30 4122 H 390.104 -3.04239 3.70102 0
M  V30 4123 H 388.468 -1.69098 1.90468 0
M  V30 4124 H 389.251 -0.822822 3.33293 0
M  V30 4125 N 391.696 -1.35014 -0.812953 0
M  V30 4126 C 392.921 -1.31187 -1.60639 0
M  V30 4127 C 393.346 0.109382 -1.87782 0
M  V30 4128 O 392.704 1.07424 -1.46047 0
M  V30 4129 C 392.752 -2.11809 -2.91838 0
M  V30 4130 O 391.856 -1.49444 -3.8437 0
M  V30 4131 H 391.197 -0.450084 -0.488181 0
M  V30 4132 H 393.727 -1.77963 -1.00947 0
M  V30 4133 H 393.737 -2.23531 -3.41318 0
M  V30 4134 H 392.412 -3.15137 -2.71407 0
M  V30 4135 H 390.989 -1.46524 -3.42907 0
M  V30 4136 N 393.175 1.03435 -1.18907 0
M  V30 4137 C 394.403 1.80381 -1.01342 0
M  V30 4138 C 394.818 1.83649 0.438005 0
M  V30 4139 O 394.175 1.27655 1.30424 0
M  V30 4140 C 394.226 3.25689 -1.56873 0
M  V30 4141 O 393.947 3.22673 -2.96334 0
M  V30 4142 C 395.448 4.19255 -1.44014 0
M  V30 4143 H 392.668 0.56784 -0.35749 0
M  V30 4144 H 395.212 1.30317 -1.576 0
M  V30 4145 H 393.367 3.72962 -1.04777 0
M  V30 4146 H 393.781 4.13748 -3.22355 0
M  V30 4147 H 395.255 5.19123 -1.87657 0
M  V30 4148 H 395.732 4.37467 -0.389815 0
M  V30 4149 H 396.338 3.77851 -1.95214 0
M  V30 4150 N 394.653 0.992116 1.22453 0
M  V30 4151 C 396.069 0.702713 1.43297 0
M  V30 4152 C 396.269 -0.726909 1.87932 0
M  V30 4153 O 395.325 -1.49792 2.0327 0
M  V30 4154 C 396.638 1.70762 2.47509 0
M  V30 4155 C 398.186 1.72298 2.61309 0
M  V30 4156 C 398.661 2.71649 3.68742 0
M  V30 4157 N 400.152 2.70239 3.76199 0
M  V30 4158 C 400.887 3.43778 4.58917 0
M  V30 4159 N 400.383 4.26914 5.45633 0
M  V30 4160 N 402.176 3.32487 4.5322 0
M  V30 4161 H 394.327 1.91543 0.917871 0
M  V30 4162 H 396.59 0.826031 0.465162 0
M  V30 4163 H 396.296 2.73059 2.21657 0
M  V30 4164 H 396.17 1.49985 3.46099 0
M  V30 4165 H 398.557 0.706989 2.86506 0
M  V30 4166 H 398.638 1.97143 1.62997 0
M  V30 4167 H 398.282 3.73397 3.44292 0
M  V30 4168 H 398.212 2.44074 4.66622 0
M  V30 4169 H 400.703 2.09912 3.14237 0
M  V30 4170 H 401.016 4.79855 6.05771 0
M  V30 4171 H 399.361 4.31002 5.45218 0
M  V30 4172 H 402.552 2.6698 3.84499 0
M  V30 4173 H 402.725 3.90058 5.17454 0
M  V30 4174 N 396.131 -1.37776 0.765217 0
M  V30 4175 C 397.38 -1.99092 0.323307 0
M  V30 4176 C 397.693 -1.61434 -1.10446 0
M  V30 4177 O 398.899 -2.15805 -1.64743 0
M  V30 4178 C 397.355 -3.56019 0.527098 0
M  V30 4179 C 396.963 -4.0262 1.96471 0
M  V30 4180 C 398.707 -4.2424 0.148483 0
M  V30 4181 C 396.614 -5.52233 2.11644 0
M  V30 4182 H 395.544 -0.744846 0.117137 0
M  V30 4183 H 398.195 -1.57391 0.943417 0
M  V30 4184 H 396.577 -3.95667 -0.162372 0
M  V30 4185 H 397.751 -3.74234 2.68859 0
M  V30 4186 H 396.066 -3.47161 2.29931 0
M  V30 4187 H 398.663 -5.34159 0.240456 0
M  V30 4188 H 399.006 -4.06446 -0.900422 0
M  V30 4189 H 399.539 -3.89872 0.79025 0
M  V30 4190 H 396.278 -5.74945 3.1483 0
M  V30 4191 H 395.798 -5.82324 1.4373 0
M  V30 4192 H 397.477 -6.18106 1.91193 0
M  V30 4193 N 397.609 -0.515225 -1.4894 0
M  V30 4194 C 398.556 0.255567 -2.29381 0
M  V30 4195 C 399.526 0.947387 -1.36432 0
M  V30 4196 O 400.711 0.951288 -1.65394 0
M  V30 4197 C 397.851 1.30551 -3.19453 0
M  V30 4198 C 396.964 0.624029 -4.27469 0
M  V30 4199 C 396.099 1.65563 -5.0474 0
M  V30 4200 C 395.138 0.956802 -6.04576 0
M  V30 4201 N 394.275 1.93326 -6.74959 0
M  V30 4202 H 399.115 -0.436607 -2.94784 0
M  V30 4203 H 396.652 -0.227154 -1.45336 0
M  V30 4204 H 398.61 1.92639 -3.70062 0
M  V30 4205 H 397.24 1.96626 -2.56004 0
M  V30 4206 H 396.292 -0.110459 -3.8024 0
M  V30 4207 H 397.604 0.0746092 -4.98744 0
M  V30 4208 H 396.758 2.35119 -5.59289 0
M  V30 4209 H 395.497 2.23893 -4.3327 0
M  V30 4210 H 394.502 0.247097 -5.49244 0
M  V30 4211 H 395.727 0.379814 -6.78037 0
M  V30 4212 H 393.673 2.50591 -6.06251 0
M  V30 4213 H 393.59 1.43489 -7.42258 0
M  V30 4214 H 394.858 2.62126 -7.34105 0
M  V30 4215 N 399.087 1.5561 -0.249682 0
M  V30 4216 C 400.034 2.21496 0.648694 0
M  V30 4217 C 401.004 1.17977 1.16921 0
M  V30 4218 O 402.189 1.46434 1.22318 0
M  V30 4219 C 399.329 2.92039 1.83868 0
M  V30 4220 C 398.442 4.10219 1.35442 0
M  V30 4221 C 397.577 4.6847 2.50419 0
M  V30 4222 C 396.616 5.78893 1.98869 0
M  V30 4223 N 395.753 6.31315 3.07223 0
M  V30 4224 H 400.593 2.97892 0.0801582 0
M  V30 4225 H 398.13 1.47074 0.0278031 0
M  V30 4226 H 400.088 3.31138 2.53778 0
M  V30 4227 H 398.718 2.18111 2.37965 0
M  V30 4228 H 397.77 3.76413 0.54928 0
M  V30 4229 H 399.082 4.89927 0.936649 0
M  V30 4230 H 398.236 5.10158 3.28366 0
M  V30 4231 H 396.975 3.87984 2.95499 0
M  V30 4232 H 395.98 5.3668 1.19393 0
M  V30 4233 H 397.205 6.61232 1.54755 0
M  V30 4234 H 395.151 5.53733 3.51732 0
M  V30 4235 H 395.068 7.06224 2.69784 0
M  V30 4236 H 396.336 6.77662 3.8522 0
M  V30 4237 N 400.565 -0.0233959 1.57583 0
M  V30 4238 C 401.79 -0.728376 1.94189 0
M  V30 4239 C 402.215 -1.67793 0.850119 0
M  V30 4240 O 401.573 -1.80262 -0.19371 0
M  V30 4241 C 401.621 -1.45669 3.29868 0
M  V30 4242 O 400.725 -2.57013 3.22518 0
M  V30 4243 H 400.066 -0.195493 0.63457 0
M  V30 4244 H 402.596 0.0228214 2.04587 0
M  V30 4245 H 402.606 -1.82535 3.6489 0
M  V30 4246 H 401.281 -0.760314 4.08891 0
M  V30 4247 H 399.858 -2.22648 2.99136 0
M  V30 4248 N 402.043 -1.548 -0.295768 0
M  V30 4249 C 402.99 -1.86113 -1.36494 0
M  V30 4250 C 403.96 -0.7105 -1.50137 0
M  V30 4251 O 405.145 -0.959626 -1.64912 0
M  V30 4252 C 402.285 -2.11861 -2.72413 0
M  V30 4253 C 401.398 -3.39471 -2.67177 0
M  V30 4254 C 400.533 -3.55035 -3.95125 0
M  V30 4255 C 399.572 -4.76418 -3.84308 0
M  V30 4256 N 398.709 -4.8876 -5.04042 0
M  V30 4257 H 403.549 -2.77314 -1.09091 0
M  V30 4258 H 401.086 -1.37315 -0.52753 0
M  V30 4259 H 403.044 -2.24786 -3.51464 0
M  V30 4260 H 401.674 -1.2392 -2.98066 0
M  V30 4261 H 400.726 -3.35139 -1.79962 0
M  V30 4262 H 402.038 -4.28646 -2.55076 0
M  V30 4263 H 401.192 -3.67653 -4.82614 0
M  V30 4264 H 399.931 -2.64002 -4.10066 0
M  V30 4265 H 398.936 -4.63827 -2.95202 0
M  V30 4266 H 400.161 -5.68863 -3.70906 0
M  V30 4267 H 398.107 -4.00652 -5.19436 0
M  V30 4268 H 398.024 -5.71945 -4.94384 0
M  V30 4269 H 399.292 -5.0574 -5.93167 0
M  V30 4270 N 403.521 0.559213 -1.47345 0
M  V30 4271 C 404.484 1.64854 -1.59235 0
M  V30 4272 C 405.484 1.53851 -0.467607 0
M  V30 4273 O 406.674 1.58045 -0.732617 0
M  V30 4274 C 403.806 3.04388 -1.53496 0
M  V30 4275 H 404.999 1.55662 -2.56339 0
M  V30 4276 H 402.552 0.778973 -1.35505 0
M  V30 4277 H 403.287 3.19115 -0.577604 0
M  V30 4278 H 403.072 3.13783 -2.35123 0
M  V30 4279 H 404.562 3.83642 -1.6495 0
M  V30 4280 N 404.999 1.35443 0.805782 0
M  V30 4281 C 405.929 1.31095 1.93226 0
M  V30 4282 C 406.91 0.185244 1.69088 0
M  V30 4283 O 408.095 0.380332 1.90439 0
M  V30 4284 C 405.225 1.08299 3.29983 0
M  V30 4285 C 404.179 2.17519 3.68605 0
M  V30 4286 C 403.505 1.79887 5.03532 0
M  V30 4287 C 404.805 3.5949 3.78898 0
M  V30 4288 H 406.499 2.25352 1.97122 0
M  V30 4289 H 404.045 1.0848 0.946996 0
M  V30 4290 H 405.998 1.03897 4.08391 0
M  V30 4291 H 404.722 0.104885 3.26432 0
M  V30 4292 H 403.381 2.2102 2.92482 0
M  V30 4293 H 403.029 0.80693 4.96485 0
M  V30 4294 H 402.729 2.53001 5.30344 0
M  V30 4295 H 404.253 1.77011 5.84379 0
M  V30 4296 H 405.667 3.58307 4.47536 0
M  V30 4297 H 404.064 4.31371 4.1718 0
M  V30 4298 H 405.134 3.95584 2.80431 0
M  V30 4299 N 406.477 -1.02803 1.19454 0
M  V30 4300 C 407.702 -1.80378 1.02364 0
M  V30 4301 C 408.127 -1.83282 -0.423007 0
M  V30 4302 O 407.485 -1.25945 -1.30413 0
M  V30 4303 C 407.533 -3.23248 1.59821 0
M  V30 4304 O 406.637 -4.04 0.828105 0
M  V30 4305 H 405.978 -0.556799 0.361761 0
M  V30 4306 H 408.508 -1.29385 1.58495 0
M  V30 4307 H 408.518 -3.73994 1.63073 0
M  V30 4308 H 407.193 -3.2045 2.65113 0
M  V30 4309 H 405.77 -3.62635 0.86891 0
M  V30 4310 N 407.956 -0.998596 -1.21925 0
M  V30 4311 C 409.204 -0.676325 -1.90448 0
M  V30 4312 C 409.525 0.794719 -1.78071 0
M  V30 4313 O 408.795 1.5701 -1.17152 0
M  V30 4314 H 407.375 -0.247165 -0.704925 0
M  V30 4315 H 410.037 -1.26633 -1.48156 0
M  V30 4316 H 409.133 -0.943858 -2.97486 0
M  V30 4317 N 409.434 1.37368 -0.772513 0
M  V30 4318 C 410.681 1.99673 -0.337182 0
M  V30 4319 C 411.009 1.61324 1.0865 0
M  V30 4320 O 410.264 0.851377 1.7621 0
M  V30 4321 C 410.563 3.54817 -0.428876 0
M  V30 4322 C 410.229 4.12936 -1.81092 0
M  V30 4323 C 408.891 4.28523 -2.1891 0
M  V30 4324 C 411.243 4.44801 -2.71664 0
M  V30 4325 C 408.571 4.73277 -3.46735 0
M  V30 4326 C 410.923 4.90981 -3.98899 0
M  V30 4327 C 409.587 5.04773 -4.36761 0
M  V30 4328 H 408.857 0.730656 -0.123384 0
M  V30 4329 H 411.504 1.64124 -0.986686 0
M  V30 4330 H 409.809 3.90618 0.304167 0
M  V30 4331 H 411.506 4.00933 -0.0733334 0
M  V30 4332 H 408.096 4.01233 -1.50699 0
M  V30 4333 H 412.28 4.32344 -2.43706 0
M  V30 4334 H 407.536 4.82142 -3.75964 0
M  V30 4335 H 411.71 5.14603 -4.69208 0
M  V30 4336 H 409.337 5.39211 -5.35868 0
M  V30 4337 N 410.912 0.523116 1.48665 0
M  V30 4338 C 412.137 -0.0117284 2.07397 0
M  V30 4339 C 412.562 -1.28031 1.37803 0
M  V30 4340 O 411.92 -1.75836 0.441762 0
M  V30 4341 C 411.968 -0.225786 3.59892 0
M  V30 4342 O 411.072 -1.29592 3.91509 0
M  V30 4343 H 410.413 0.0360673 0.66302 0
M  V30 4344 H 412.943 0.729066 1.9117 0
M  V30 4345 H 412.953 -0.450552 4.05505 0
M  V30 4346 H 411.628 0.700944 4.09951 0
M  V30 4347 H 410.205 -1.05436 3.57684 0
M  V30 4348 N 412.39 -1.55475 0.257931 0
M  V30 4349 C 413.32 -2.24815 -0.630912 0
M  V30 4350 C 414.301 -1.23224 -1.17259 0
M  V30 4351 O 415.486 -1.51904 -1.20991 0
M  V30 4352 C 412.616 -2.95609 -1.82298 0
M  V30 4353 C 411.57 -4.03982 -1.41359 0
M  V30 4354 C 410.896 -4.6226 -2.68738 0
M  V30 4355 C 412.196 -5.19109 -0.57648 0
M  V30 4356 H 413.89 -2.99354 -0.0526878 0
M  V30 4357 H 411.436 -1.4398 -0.023901 0
M  V30 4358 H 413.389 -3.42822 -2.45054 0
M  V30 4359 H 412.113 -2.18577 -2.42676 0
M  V30 4360 H 410.772 -3.57555 -0.809324 0
M  V30 4361 H 410.42 -3.81915 -3.27338 0
M  V30 4362 H 410.12 -5.35424 -2.42065 0
M  V30 4363 H 411.644 -5.12212 -3.32372 0
M  V30 4364 H 413.058 -5.62479 -1.10861 0
M  V30 4365 H 411.455 -5.98729 -0.405351 0
M  V30 4366 H 412.525 -4.83174 0.408776 0
M  V30 4367 N 413.868 0.0150385 -1.57593 0
M  V30 4368 C 414.8 1.03912 -2.04291 0
M  V30 4369 C 415.813 1.31618 -0.958146 0
M  V30 4370 O 417.002 1.28859 -1.23522 0
M  V30 4371 C 414.102 2.37749 -2.41514 0
M  V30 4372 C 413.275 2.29198 -3.72541 0
M  V30 4373 C 412.334 3.45598 -3.96797 0
M  V30 4374 O 411.36 3.24461 -4.67668 0
M  V30 4375 N 412.562 4.67945 -3.43523 0
M  V30 4376 H 415.327 0.64099 -2.92765 0
M  V30 4377 H 412.888 0.20272 -1.60626 0
M  V30 4378 H 414.88 3.14364 -2.54867 0
M  V30 4379 H 413.45 2.69357 -1.58637 0
M  V30 4380 H 412.67 1.3759 -3.69408 0
M  V30 4381 H 413.958 2.20642 -4.5847 0
M  V30 4382 H 413.356 4.88017 -2.86104 0
M  V30 4383 H 411.913 5.41878 -3.62232 0
M  V30 4384 N 415.346 1.54954 0.287554 0
M  V30 4385 C 416.571 1.79209 1.04397 0
M  V30 4386 C 416.996 0.556431 1.79682 0
M  V30 4387 O 416.354 -0.493518 1.74454 0
M  V30 4388 C 416.402 3.00739 1.98969 0
M  V30 4389 O 415.506 2.74805 3.075 0
M  V30 4390 H 414.847 0.592755 0.299227 0
M  V30 4391 H 417.377 2.02068 0.320886 0
M  V30 4392 H 417.387 3.29077 2.4119 0
M  V30 4393 H 416.062 3.90329 1.43582 0
M  V30 4394 H 414.639 2.57523 2.69697 0
M  V30 4395 N 416.824 -0.551391 1.4764 0
M  V30 4396 C 418.064 -1.31901 1.56145 0
M  V30 4397 C 418.428 -1.90724 0.221013 0
M  V30 4398 O 419.629 -2.6819 0.180945 0
M  V30 4399 C 417.9 -2.39517 2.65267 0
M  V30 4400 S 419.459 -3.26289 2.93395 0
M  V30 4401 H 416.277 -0.448965 0.551318 0
M  V30 4402 H 418.879 -0.630599 1.85051 0
M  V30 4403 H 417.583 -1.94747 3.6125 0
M  V30 4404 H 417.114 -3.13092 2.38195 0
M  V30 4405 H 419.129 -4.39122 2.31055 0
M  V30 4406 N 418.302 -1.35869 -0.798587 0
M  V30 4407 C 419.718 -1.16082 -1.09532 0
M  V30 4408 C 419.918 0.0213124 -2.01489 0
M  V30 4409 O 418.974 0.689488 -2.42904 0
M  V30 4410 C 420.287 -2.46748 -1.7186 0
M  V30 4411 C 421.835 -2.53028 -1.84244 0
M  V30 4412 C 422.31 -3.83758 -2.49988 0
M  V30 4413 N 423.801 -3.85053 -2.57465 0
M  V30 4414 C 424.536 -4.8294 -3.09122 0
M  V30 4415 N 424.032 -5.91217 -3.61157 0
M  V30 4416 N 425.825 -4.70369 -3.0775 0
M  V30 4417 H 417.976 -2.11571 -0.187461 0
M  V30 4418 H 420.239 -0.936726 -0.145765 0
M  V30 4419 H 419.945 -3.33471 -1.11759 0
M  V30 4420 H 419.819 -2.61883 -2.71472 0
M  V30 4421 H 422.206 -1.66729 -2.43486 0
M  V30 4422 H 422.287 -2.418 -0.834643 0
M  V30 4423 H 421.931 -4.70459 -1.91393 0
M  V30 4424 H 421.861 -3.92278 -3.5132 0
M  V30 4425 H 424.352 -3.06822 -2.20609 0
M  V30 4426 H 424.665 -6.61892 -3.98896 0
M  V30 4427 H 423.01 -5.94899 -3.59333 0
M  V30 4428 H 426.201 -3.84914 -2.66381 0
M  V30 4429 H 426.374 -5.46816 -3.47701 0
M  V30 4430 N 419.78 1.02168 -1.19998 0
M  V30 4431 C 420.73 2.08969 -0.911921 0
M  V30 4432 C 421.714 1.60404 0.12621 0
M  V30 4433 O 422.906 1.76817 -0.0804706 0
M  V30 4434 C 420.035 3.402 -0.460277 0
M  V30 4435 C 419.121 3.9548 -1.53155 0
M  V30 4436 N 419.512 4.24332 -2.75275 0
M  V30 4437 C 417.81 4.23572 -1.39653 0
M  V30 4438 C 418.511 4.68834 -3.44339 0
M  V30 4439 N 417.487 4.70804 -2.71744 0
M  V30 4440 H 421.289 2.29178 -1.83997 0
M  V30 4441 H 418.803 1.20094 -1.09322 0
M  V30 4442 H 420.8 4.16235 -0.235337 0
M  V30 4443 H 419.46 3.21408 0.4612 0
M  V30 4444 H 420.471 4.13393 -3.11973 0
M  V30 4445 H 417.148 4.14005 -0.539067 0
M  V30 4446 H 418.538 5.00019 -4.4881 0
M  V30 4447 N 421.258 1.00505 1.21394 0
M  V30 4448 C 422.483 0.706367 1.95001 0
M  V30 4449 C 422.908 -0.72463 1.73582 0
M  V30 4450 O 422.266 -1.49702 1.0227 0
M  V30 4451 C 422.314 1.03299 3.45487 0
M  V30 4452 O 421.418 0.138275 4.12168 0
M  V30 4453 H 420.759 0.263175 0.609619 0
M  V30 4454 H 423.289 1.34531 1.54151 0
M  V30 4455 H 423.299 0.979872 3.96059 0
M  V30 4456 H 421.974 2.07567 3.60401 0
M  V30 4457 H 420.551 0.247928 3.72075 0
M  V30 4458 N 422.737 -1.36956 0.779787 0
M  V30 4459 C 423.986 -1.98738 0.344405 0
M  V30 4460 C 424.299 -1.62596 -1.08728 0
M  V30 4461 O 425.505 -2.1754 -1.62445 0
M  V30 4462 C 423.961 -3.5544 0.564829 0
M  V30 4463 C 423.569 -4.00514 2.0073 0
M  V30 4464 C 425.313 -4.24059 0.193471 0
M  V30 4465 C 423.22 -5.49957 2.17489 0
M  V30 4466 H 422.15 -0.743561 0.12503 0
M  V30 4467 H 424.801 -1.56381 0.960057 0
M  V30 4468 H 423.183 -3.95817 -0.120397 0
M  V30 4469 H 424.357 -3.71362 2.72814 0
M  V30 4470 H 422.672 -3.44703 2.336 0
M  V30 4471 H 425.269 -5.33874 0.297097 0
M  V30 4472 H 425.612 -4.07378 -0.857263 0
M  V30 4473 H 426.145 -3.89012 0.831556 0
M  V30 4474 H 422.884 -5.71574 3.2091 0
M  V30 4475 H 422.404 -5.80767 1.49899 0
M  V30 4476 H 424.083 -6.16043 1.97738 0
M  V30 4477 N 424.215 -0.530993 -1.48385 0
M  V30 4478 C 425.626 -0.0907905 -1.86479 0
M  V30 4479 C 425.977 1.33213 -1.44044 0
M  V30 4480 O 425.102 1.99783 -0.831615 0
M  V30 4481 C 425.697 -0.157987 -3.38431 0
M  V30 4482 C 424.256 0.227026 -3.75715 0
M  V30 4483 C 423.403 -0.5173 -2.72432 0
M  V30 4484 H 426.354 -0.742186 -1.40276 0
M  V30 4485 H 426.375 0.630053 -3.75247 0
M  V30 4486 H 425.887 -1.19372 -3.69286 0
M  V30 4487 H 423.988 1.26486 -3.50474 0
M  V30 4488 H 424.101 -0.113288 -4.78966 0
M  V30 4489 H 422.465 0.0365527 -2.54674 0
M  V30 4490 H 423.248 -1.55368 -3.0613 0
M  V30 4491 N 425.693 1.55336 -0.266172 0
M  V30 4492 C 426.939 1.99692 0.353681 0
M  V30 4493 C 427.272 1.1543 1.56172 0
M  V30 4494 O 426.547 0.222218 1.93226 0
M  V30 4495 C 426.83 3.52316 0.74466 0
M  V30 4496 C 426.683 4.47337 -0.470101 0
M  V30 4497 C 428.002 4.10588 1.58447 0
M  V30 4498 H 425.121 0.725961 0.12708 0
M  V30 4499 H 427.763 1.86336 -0.371333 0
M  V30 4500 H 425.913 3.63829 1.36239 0
M  V30 4501 H 427.585 4.4778 -1.10864 0
M  V30 4502 H 425.828 4.19364 -1.10978 0
M  V30 4503 H 426.499 5.51788 -0.15291 0
M  V30 4504 H 428.975 4.02297 1.06286 0
M  V30 4505 H 427.851 5.17607 1.82686 0
M  V30 4506 H 428.112 3.60253 2.56262 0
M  V30 4507 N 427.171 -0.0066808 1.57599 0
M  V30 4508 C 428.418 -0.69292 1.90276 0
M  V30 4509 C 428.746 -1.74148 0.866192 0
M  V30 4510 O 428.001 -1.95268 -0.129933 0
M  V30 4511 C 428.3 -1.37939 3.29708 0
M  V30 4512 C 427.966 -0.464679 4.48499 0
M  V30 4513 C 426.628 -0.212809 4.80729 0
M  V30 4514 C 428.98 0.16551 5.20937 0
M  V30 4515 C 426.308 0.677653 5.82773 0
M  V30 4516 C 428.66 1.04381 6.23929 0
M  V30 4517 C 427.324 1.30492 6.54621 0
M  V30 4518 H 426.594 -0.253558 0.696268 0
M  V30 4519 H 429.241 0.0474123 1.91441 0
M  V30 4520 H 427.546 -2.1936 3.24636 0
M  V30 4521 H 429.243 -1.9163 3.52249 0
M  V30 4522 H 425.833 -0.671153 4.23313 0
M  V30 4523 H 430.017 -0.0160756 4.96297 0
M  V30 4524 H 425.273 0.88803 6.04917 0
M  V30 4525 H 429.447 1.53851 6.79193 0
M  V30 4526 H 427.074 1.99662 7.33512 0
M  V30 4527 N 428.649 -1.55105 -0.279332 0
M  V30 4528 C 429.889 -1.7716 -1.01949 0
M  V30 4529 C 430.253 -0.557511 -1.83728 0
M  V30 4530 O 431.454 -0.656198 -2.60667 0
M  V30 4531 C 429.725 -3.0372 -1.88385 0
M  V30 4532 S 431.284 -3.46868 -2.68752 0
M  V30 4533 H 428.102 -0.62253 -0.343478 0
M  V30 4534 H 430.704 -1.93329 -0.290572 0
M  V30 4535 H 429.408 -3.90184 -1.2722 0
M  V30 4536 H 428.939 -2.902 -2.65608 0
M  V30 4537 H 430.954 -3.05643 -3.90892 0
M  V30 4538 N 430.127 0.543554 -1.4793 0
M  V30 4539 C 431.077 1.64527 -1.57844 0
M  V30 4540 C 432.061 1.54869 -0.436408 0
M  V30 4541 O 433.253 1.63119 -0.687101 0
M  V30 4542 C 430.382 3.03281 -1.6086 0
M  V30 4543 C 429.468 3.18093 -2.80495 0
M  V30 4544 N 429.859 3.02923 -4.05057 0
M  V30 4545 C 428.157 3.49121 -2.77543 0
M  V30 4546 C 428.858 3.20791 -4.85251 0
M  V30 4547 N 427.834 3.47749 -4.17818 0
M  V30 4548 H 431.636 1.51388 -2.5191 0
M  V30 4549 H 429.15 0.748671 -1.44113 0
M  V30 4550 H 431.147 3.82403 -1.66054 0
M  V30 4551 H 429.807 3.17521 -0.678996 0
M  V30 4552 H 430.818 2.79966 -4.35705 0
M  V30 4553 H 427.495 3.69804 -1.93781 0
M  V30 4554 H 428.885 3.13915 -5.9406 0
M  V30 4555 N 431.605 1.3629 0.791371 0
M  V30 4556 C 432.83 1.33726 1.58531 0
M  V30 4557 C 433.255 -0.0794933 1.87932 0
M  V30 4558 O 432.613 -1.05087 1.47738 0
M  V30 4559 C 432.661 2.16425 2.88431 0
M  V30 4560 O 431.765 1.5554 3.81944 0
M  V30 4561 H 431.106 0.457793 0.480959 0
M  V30 4562 H 433.636 1.79547 0.981031 0
M  V30 4563 H 433.646 2.28933 3.37718 0
M  V30 4564 H 432.321 3.19415 2.66359 0
M  V30 4565 H 430.898 1.51961 3.40532 0
M  V30 4566 N 433.083 -1.0153 1.20538 0
M  V30 4567 C 434.308 -1.79283 1.04271 0
M  V30 4568 C 434.733 -1.8372 -0.403544 0
M  V30 4569 O 434.091 -1.27321 -1.2907 0
M  V30 4570 C 434.139 -3.21535 1.63241 0
M  V30 4571 O 433.243 -4.03099 0.870908 0
M  V30 4572 H 432.584 -0.55293 0.367647 0
M  V30 4573 H 435.114 -1.27696 1.59859 0
M  V30 4574 H 435.124 -3.72243 1.6703 0
M  V30 4575 H 433.799 -3.1762 2.68497 0
M  V30 4576 H 432.376 -3.61693 0.907323 0
M  V30 4577 N 434.561 -1.01147 -1.20859 0
M  V30 4578 C 435.808 -0.697865 -1.90095 0
M  V30 4579 C 436.136 0.772014 -1.78522 0
M  V30 4580 O 435.391 1.57595 -1.16027 0
M  V30 4581 C 435.69 -1.0727 -3.40922 0
M  V30 4582 C 435.356 -2.53792 -3.72693 0
M  V30 4583 C 434.018 -2.93829 -3.81075 0
M  V30 4584 C 436.37 -3.48674 -3.87397 0
M  V30 4585 C 433.698 -4.27696 -4.01613 0
M  V30 4586 C 436.05 -4.82223 -4.09444 0
M  V30 4587 C 434.714 -5.21973 -4.16054 0
M  V30 4588 H 433.984 -0.255367 -0.695607 0
M  V30 4589 H 436.631 -1.27111 -1.43231 0
M  V30 4590 H 434.936 -0.417799 -3.89566 0
M  V30 4591 H 436.633 -0.807818 -3.92779 0
M  V30 4592 H 433.223 -2.21768 -3.66765 0
M  V30 4593 H 437.407 -3.18904 -3.80281 0
M  V30 4594 H 432.663 -4.58055 -4.04964 0
M  V30 4595 H 436.837 -5.55672 -4.19763 0
M  V30 4596 H 434.464 -6.25717 -4.31721 0
M  V30 4597 N 436.039 1.36541 -0.78704 0
M  V30 4598 C 437.269 2.03266 -0.369662 0
M  V30 4599 C 437.677 1.59481 1.01796 0
M  V30 4600 O 437.02 0.778612 1.66383 0
M  V30 4601 C 437.082 3.57779 -0.351371 0
M  V30 4602 C 436.746 4.24756 -1.68617 0
M  V30 4603 C 437.743 4.47811 -2.64124 0
M  V30 4604 C 435.428 4.62277 -1.96481 0
M  V30 4605 C 437.422 5.07464 -3.85693 0
M  V30 4606 C 435.109 5.21649 -3.18317 0
M  V30 4607 C 436.107 5.44182 -4.12741 0
M  V30 4608 O 435.795 6.02307 -5.32429 0
M  V30 4609 H 435.527 0.658977 -0.150751 0
M  V30 4610 H 438.081 1.75548 -1.0664 0
M  V30 4611 H 436.311 3.84606 0.401847 0
M  V30 4612 H 438 4.05879 0.0410147 0
M  V30 4613 H 438.766 4.19221 -2.43883 0
M  V30 4614 H 434.645 4.44065 -1.23805 0
M  V30 4615 H 438.189 5.24968 -4.59407 0
M  V30 4616 H 434.086 5.49664 -3.38437 0
M  V30 4617 H 434.854 6.20775 -5.33461 0
M  V30 4618 N 437.518 0.538854 1.48102 0
M  V30 4619 C 438.468 -0.23907 2.26743 0
M  V30 4620 C 439.452 -0.901923 1.33245 0
M  V30 4621 O 440.644 -0.803263 1.57723 0
M  V30 4622 C 437.773 -1.2799 3.18549 0
M  V30 4623 C 436.859 -0.621388 4.19523 0
M  V30 4624 N 437.25 0.298004 5.04921 0
M  V30 4625 C 435.548 -0.877533 4.37282 0
M  V30 4626 C 436.249 0.678757 5.77726 0
M  V30 4627 N 435.225 0.0377881 5.43587 0
M  V30 4628 H 439.027 0.468096 2.90148 0
M  V30 4629 H 436.541 0.357497 1.58416 0
M  V30 4630 H 438.538 -1.851 3.73555 0
M  V30 4631 H 437.198 -1.98835 2.567 0
M  V30 4632 H 438.209 0.671126 5.13533 0
M  V30 4633 H 434.886 -1.57588 3.86616 0
M  V30 4634 H 436.276 1.43316 6.56437 0
M  V30 4635 N 438.996 -1.55193 0.274407 0
M  V30 4636 C 440.273 -1.91584 -0.394331 0
M  V30 4637 C 440.653 -1.19858 -1.73774 0
M  V30 4638 O 440.001 -0.3252 -2.26174 0
M  V30 4639 C 440.211 -3.4487 -0.535311 0
M  V30 4640 C 441.559 -4.16636 -0.818534 0
M  V30 4641 O 442.583 -3.5076 -0.620146 0
M  V30 4642 O 441.442 -5.33209 -1.19792 0
M  V30 4643 H 438.536 -0.798349 -0.215794 0
M  V30 4644 H 441.082 -1.66646 0.320507 0
M  V30 4645 H 439.854 -3.89145 0.410141 0
M  V30 4646 H 439.477 -3.75759 -1.29964 0
M  V30 4647 N 440.474 -0.00167713 -1.576 0
M  V30 4648 C 441.702 0.693759 -1.94922 0
M  V30 4649 C 442.117 1.67215 -0.876626 0
M  V30 4650 O 441.474 1.81929 0.144279 0
M  V30 4651 C 441.525 1.42416 -3.32265 0
M  V30 4652 O 441.246 0.485014 -4.35407 0
M  V30 4653 C 442.747 2.21395 -3.84056 0
M  V30 4654 H 439.967 0.193118 -0.642609 0
M  V30 4655 H 442.511 -0.0532952 -2.04431 0
M  V30 4656 H 440.666 2.12284 -3.24059 0
M  V30 4657 H 441.08 1.00053 -5.14868 0
M  V30 4658 H 442.554 2.67996 -4.82578 0
M  V30 4659 H 443.031 3.04142 -3.16851 0
M  V30 4660 H 443.637 1.56542 -3.95443 0
M  V30 4661 N 441.952 1.55251 0.271103 0
M  V30 4662 C 443.229 1.66664 1.02384 0
M  V30 4663 C 443.609 0.534363 2.04225 0
M  V30 4664 O 442.957 -0.465337 2.23712 0
M  V30 4665 C 443.167 3.05961 1.67895 0
M  V30 4666 C 444.515 3.63772 2.18986 0
M  V30 4667 O 445.539 3.08606 1.77878 0
M  V30 4668 O 444.398 4.60429 2.94393 0
M  V30 4669 H 441.492 0.676957 0.475035 0
M  V30 4670 H 444.038 1.67589 0.26681 0
M  V30 4671 H 442.81 3.79815 0.941071 0
M  V30 4672 H 442.433 3.08943 2.5028 0
M  V30 4673 N 443.43 -0.535701 1.48216 0
M  V30 4674 C 444.677 -1.29183 1.55942 0
M  V30 4675 C 445.005 -1.93125 0.230857 0
M  V30 4676 O 444.26 -1.79556 -0.778331 0
M  V30 4677 C 444.559 -2.4068 2.64212 0
M  V30 4678 C 444.225 -1.94428 4.06827 0
M  V30 4679 C 442.887 -1.81532 4.45645 0
M  V30 4680 C 445.239 -1.59405 4.96225 0
M  V30 4681 C 442.567 -1.31939 5.71672 0
M  V30 4682 C 444.919 -1.11276 6.22736 0
M  V30 4683 C 443.583 -0.969924 6.60416 0
M  V30 4684 H 442.853 -0.472715 0.570632 0
M  V30 4685 H 445.5 -0.598437 1.81909 0
M  V30 4686 H 443.805 -3.15666 2.32083 0
M  V30 4687 H 445.502 -2.98822 2.67407 0
M  V30 4688 H 442.092 -2.05415 3.76168 0
M  V30 4689 H 446.276 -1.68231 4.66917 0
M  V30 4690 H 441.532 -1.19562 5.99596 0
M  V30 4691 H 445.706 -0.832453 6.91407 0
M  V30 4692 H 443.333 -0.583436 7.57958 0
M  V30 4693 N 444.908 -1.36708 -0.784132 0
M  V30 4694 C 445.838 -1.34153 -1.91116 0
M  V30 4695 C 446.819 -0.212121 -1.68772 0
M  V30 4696 O 448.004 -0.410581 -1.8981 0
M  V30 4697 C 445.134 -1.13535 -3.28218 0
M  V30 4698 C 444.088 -2.23356 -3.65097 0
M  V30 4699 C 443.414 -1.87875 -5.00607 0
M  V30 4700 C 444.714 -3.65473 -3.73131 0
M  V30 4701 H 446.408 -2.28459 -1.93512 0
M  V30 4702 H 443.954 -1.09973 -0.929618 0
M  V30 4703 H 445.907 -1.10381 -4.06687 0
M  V30 4704 H 444.631 -0.156804 -3.26223 0
M  V30 4705 H 443.29 -2.25645 -2.88929 0
M  V30 4706 H 442.938 -0.885814 -4.95139 0
M  V30 4707 H 442.638 -2.61406 -5.26252 0
M  V30 4708 H 444.162 -1.86286 -5.81489 0
M  V30 4709 H 445.576 -3.65382 -4.41779 0
M  V30 4710 H 443.973 -4.37953 -4.10265 0
M  V30 4711 H 445.043 -3.99995 -2.74102 0
M  V30 4712 N 446.386 1.0089 -1.21074 0
M  V30 4713 C 447.634 1.74262 -1.02358 0
M  V30 4714 C 447.955 1.89869 0.444393 0
M  V30 4715 O 447.225 1.44677 1.32081 0
M  V30 4716 H 445.805 0.645615 -0.375754 0
M  V30 4717 H 448.467 1.21596 -1.52317 0
M  V30 4718 H 447.563 2.74328 -1.4883 0
M  V30 4719 N 447.864 1.01787 1.20321 0
M  V30 4720 C 448.774 0.598898 2.26827 0
M  V30 4721 C 449.79 -0.36418 1.70146 0
M  V30 4722 O 450.966 -0.224812 2.00141 0
M  V30 4723 C 448.031 -0.0549769 3.46656 0
M  V30 4724 C 447.092 0.954205 4.18561 0
M  V30 4725 C 446.325 0.331439 5.3267 0
M  V30 4726 O 446.548 -0.86851 5.63749 0
M  V30 4727 O 445.482 1.0488 5.92692 0
M  V30 4728 H 449.308 1.48562 2.64883 0
M  V30 4729 H 446.893 0.787434 1.26964 0
M  V30 4730 H 448.775 -0.420102 4.19301 0
M  V30 4731 H 447.45 -0.915876 3.10473 0
M  V30 4732 H 446.357 1.37072 3.48083 0
M  V30 4733 H 447.69 1.78511 4.58688 0
M  V30 4734 N 449.342 -1.36122 0.79427 0
M  V30 4735 C 450.252 -2.33769 0.197296 0
M  V30 4736 C 451.268 -1.61276 -0.653153 0
M  V30 4737 O 452.444 -1.9323 -0.5678 0
M  V30 4738 C 449.509 -3.40474 -0.654098 0
M  V30 4739 C 448.57 -4.28759 0.215411 0
M  V30 4740 C 447.803 -5.30368 -0.595443 0
M  V30 4741 O 448.026 -5.40211 -1.83107 0
M  V30 4742 O 446.96 -6.019 0.00721351 0
M  V30 4743 H 450.786 -2.86597 1.00478 0
M  V30 4744 H 448.371 -1.38676 0.555818 0
M  V30 4745 H 450.253 -4.05703 -1.13944 0
M  V30 4746 H 448.928 -2.89937 -1.43938 0
M  V30 4747 H 447.835 -3.66554 0.747615 0
M  V30 4748 H 449.168 -4.82661 0.964332 0
M  V30 4749 N 450.82 -0.546701 -1.47814 0
M  V30 4750 C 451.75 0.195317 -2.32682 0
M  V30 4751 C 452.731 0.918981 -1.43139 0
M  V30 4752 O 453.916 0.901501 -1.72008 0
M  V30 4753 C 451.046 1.23237 -3.247 0
M  V30 4754 C 450 0.625818 -4.234 0
M  V30 4755 C 449.326 1.76674 -5.04669 0
M  V30 4756 C 450.626 -0.413515 -5.2066 0
M  V30 4757 H 452.32 -0.513184 -2.94969 0
M  V30 4758 H 449.866 -0.248241 -1.41844 0
M  V30 4759 H 451.819 1.75955 -3.82907 0
M  V30 4760 H 450.543 1.97067 -2.60446 0
M  V30 4761 H 449.202 0.120023 -3.66403 0
M  V30 4762 H 448.85 2.49383 -4.36826 0
M  V30 4763 H 448.55 1.36673 -5.71484 0
M  V30 4764 H 450.074 2.29738 -5.65732 0
M  V30 4765 H 451.488 0.0272042 -5.73294 0
M  V30 4766 H 449.885 -0.731825 -5.95621 0
M  V30 4767 H 450.955 -1.31325 -4.66778 0
M  V30 4768 N 452.299 1.55045 -0.282633 0
M  V30 4769 C 453.576 1.9179 0.384166 0
M  V30 4770 C 453.956 1.20778 1.73136 0
M  V30 4771 O 453.304 0.33719 2.25998 0
M  V30 4772 C 453.514 3.45149 0.517014 0
M  V30 4773 C 454.862 4.17064 0.796427 0
M  V30 4774 O 455.886 3.51084 0.601535 0
M  V30 4775 O 454.745 5.33837 1.16962 0
M  V30 4776 H 451.839 0.799483 0.211558 0
M  V30 4777 H 454.385 1.66474 -0.32934 0
M  V30 4778 H 453.157 3.88922 -0.430772 0
M  V30 4779 H 452.78 3.76443 1.2797 0
M  V30 4780 N 453.777 0.010035 1.57597 0
M  V30 4781 C 455.026 -0.671945 1.90178 0
M  V30 4782 C 455.339 -1.74376 0.886131 0
M  V30 4783 O 456.545 -2.48107 1.10252 0
M  V30 4784 C 455.001 -1.24636 3.3763 0
M  V30 4785 C 454.609 -0.208838 4.47513 0
M  V30 4786 C 456.353 -1.90595 3.79307 0
M  V30 4787 C 454.26 -0.793814 5.86048 0
M  V30 4788 H 453.19 -0.25474 0.709665 0
M  V30 4789 H 455.841 0.0722206 1.83358 0
M  V30 4790 H 454.223 -2.04152 3.3932 0
M  V30 4791 H 455.397 0.562463 4.57354 0
M  V30 4792 H 453.712 0.350889 4.14919 0
M  V30 4793 H 456.309 -2.35284 4.80151 0
M  V30 4794 H 456.652 -2.74074 3.13352 0
M  V30 4795 H 457.185 -1.17798 3.79958 0
M  V30 4796 H 453.924 0.00240855 6.555 0
M  V30 4797 H 453.444 -1.53404 5.79851 0
M  V30 4798 H 455.123 -1.2894 6.34022 0
M  V30 4799 N 455.255 -1.55392 -0.262866 0
M  V30 4800 C 456.501 -1.76737 -0.99458 0
M  V30 4801 C 456.834 -0.572453 -1.85571 0
M  V30 4802 O 456.109 0.429732 -1.89693 0
M  V30 4803 C 456.392 -3.07824 -1.8686 0
M  V30 4804 C 456.245 -4.3769 -1.03672 0
M  V30 4805 C 457.564 -3.35021 -2.85393 0
M  V30 4806 H 454.683 -0.643005 -0.360157 0
M  V30 4807 H 457.325 -1.88126 -0.266216 0
M  V30 4808 H 455.475 -2.98245 -2.48962 0
M  V30 4809 H 457.147 -4.59238 -0.43563 0
M  V30 4810 H 455.39 -4.32461 -0.340513 0
M  V30 4811 H 456.061 -5.25759 -1.6817 0
M  V30 4812 H 458.537 -3.44458 -2.33426 0
M  V30 4813 H 457.413 -4.27989 -3.43681 0
M  V30 4814 H 457.674 -2.55153 -3.61039 0
M  V30 4815 N 456.733 0.527833 -1.48498 0
M  V30 4816 C 457.696 1.61439 -1.62696 0
M  V30 4817 C 458.696 1.52824 -0.500136 0
M  V30 4818 O 459.886 1.56456 -0.765976 0
M  V30 4819 C 457.018 3.01063 -1.59918 0
M  V30 4820 H 458.211 1.50189 -2.59583 0
M  V30 4821 H 455.764 0.750055 -1.37127 0
M  V30 4822 H 456.499 3.17818 -0.645163 0
M  V30 4823 H 456.284 3.08725 -2.41726 0
M  V30 4824 H 457.774 3.80057 -1.73051 0
M  V30 4825 N 458.211 1.37122 0.776871 0
M  V30 4826 C 459.174 1.32301 1.8716 0
M  V30 4827 C 460.174 0.228099 1.59174 0
M  V30 4828 O 461.364 0.483642 1.67352 0
M  V30 4829 C 458.496 1.054 3.24197 0
M  V30 4830 H 459.689 2.29673 1.92848 0
M  V30 4831 H 457.242 1.22077 0.97606 0
M  V30 4832 H 457.977 0.0853872 3.24188 0
M  V30 4833 H 457.762 1.84648 3.45901 0
M  V30 4834 H 459.252 1.04664 4.04271 0
M  V30 4835 N 459.689 -1.00246 1.21608 0
M  V30 4836 C 460.636 -2.09073 0.977613 0
M  V30 4837 C 461.606 -1.65815 -0.097297 0
M  V30 4838 O 462.791 -1.90734 0.0503445 0
M  V30 4839 C 459.931 -3.40671 0.551133 0
M  V30 4840 C 459.044 -3.97326 1.69576 0
M  V30 4841 C 458.179 -5.17043 1.2182 0
M  V30 4842 C 457.218 -5.65813 2.335 0
M  V30 4843 N 456.355 -6.76778 1.86859 0
M  V30 4844 H 461.195 -2.28806 1.90924 0
M  V30 4845 H 458.732 -1.12186 0.951452 0
M  V30 4846 H 460.69 -4.16225 0.285097 0
M  V30 4847 H 459.32 -3.20967 -0.343489 0
M  V30 4848 H 458.372 -3.18734 2.07637 0
M  V30 4849 H 459.684 -4.29511 2.53617 0
M  V30 4850 H 458.838 -5.99852 0.908975 0
M  V30 4851 H 457.577 -4.86458 0.347869 0
M  V30 4852 H 456.582 -4.81599 2.65222 0
M  V30 4853 H 457.807 -5.98427 3.21033 0
M  V30 4854 H 455.753 -6.47994 1.02174 0
M  V30 4855 H 455.67 -7.08231 2.64471 0
M  V30 4856 H 456.938 -7.63116 1.58978 0
M  V30 4857 N 461.167 -1.02423 -1.1978 0
M  V30 4858 C 462.392 -0.7373 -1.93852 0
M  V30 4859 C 462.817 0.696923 -1.74713 0
M  V30 4860 O 462.175 1.48056 -1.04638 0
M  V30 4861 C 462.223 -1.08783 -3.438 0
M  V30 4862 O 461.327 -0.20383 -4.11896 0
M  V30 4863 H 460.668 -0.27284 -0.605355 0
M  V30 4864 H 463.198 -1.36966 -1.51992 0
M  V30 4865 H 463.208 -1.04276 -3.9445 0
M  V30 4866 H 461.883 -2.13274 -3.57053 0
M  V30 4867 H 460.46 -0.307091 -3.71633 0
M  V30 4868 N 462.645 1.35699 -0.801477 0
M  V30 4869 C 463.595 2.2728 -0.181073 0
M  V30 4870 C 464.579 1.47533 0.642098 0
M  V30 4871 O 465.771 1.69785 0.500193 0
M  V30 4872 C 462.9 3.36626 0.673612 0
M  V30 4873 C 461.986 4.23802 -0.159008 0
M  V30 4874 N 462.377 4.90879 -1.2195 0
M  V30 4875 C 460.675 4.45959 0.0602005 0
M  V30 4876 C 461.376 5.5546 -1.72738 0
M  V30 4877 N 460.352 5.33663 -1.03465 0
M  V30 4878 H 464.154 2.76632 -0.992582 0
M  V30 4879 H 461.668 1.49166 -0.642127 0
M  V30 4880 H 463.665 4.01179 1.13408 0
M  V30 4881 H 462.325 2.88828 1.48353 0
M  V30 4882 H 463.336 4.92497 -1.60209 0
M  V30 4883 H 460.013 4.08969 0.839664 0
M  V30 4884 H 461.403 6.18991 -2.61342 0
M  V30 4885 N 464.123 0.554532 1.47522 0
M  V30 4886 C 465.033 -0.197865 2.33764 0
M  V30 4887 C 466.049 -0.914576 1.48025 0
M  V30 4888 O 467.225 -0.884067 1.80959 0
M  V30 4889 C 464.29 -1.21628 3.24665 0
M  V30 4890 C 463.351 -0.507283 4.26292 0
M  V30 4891 C 462.584 -1.47718 5.1285 0
M  V30 4892 O 462.807 -2.7118 5.01814 0
M  V30 4893 O 461.741 -1.00313 5.93482 0
M  V30 4894 H 465.567 0.50949 2.99396 0
M  V30 4895 H 463.152 0.315176 1.46038 0
M  V30 4896 H 465.034 -1.80421 3.80823 0
M  V30 4897 H 463.709 -1.9056 2.61665 0
M  V30 4898 H 462.616 0.121778 3.73902 0
M  V30 4899 H 463.949 0.140544 4.91999 0
M  V30 4900 N 465.601 -1.54893 0.290851 0
M  V30 4901 C 466.564 -2.21824 -0.576784 0
M  V30 4902 C 467.564 -1.20104 -1.06919 0
M  V30 4903 O 468.754 -1.44906 -0.966843 0
M  V30 4904 C 465.886 -2.89662 -1.79747 0
M  V30 4905 H 467.079 -2.99899 0.00784051 0
M  V30 4906 H 464.632 -1.56245 0.0415934 0
M  V30 4907 H 465.367 -2.15639 -2.42219 0
M  V30 4908 H 465.152 -3.64219 -1.45214 0
M  V30 4909 H 466.642 -3.4075 -2.4141 0
M  V30 4910 N 467.08 -0.0183926 -1.57589 0
M  V30 4911 C 468.32 0.666846 -1.93216 0
M  V30 4912 C 468.684 1.69905 -0.894215 0
M  V30 4913 O 469.885 2.436 -1.13633 0
M  V30 4914 C 468.156 1.27684 -3.33814 0
M  V30 4915 S 469.715 1.98464 -3.91353 0
M  V30 4916 H 466.533 0.219826 -0.676164 0
M  V30 4917 H 469.135 -0.0794893 -1.95338 0
M  V30 4918 H 467.839 0.513006 -4.07181 0
M  V30 4919 H 467.37 2.06071 -3.3511 0
M  V30 4920 H 469.385 3.26189 -3.73918 0
M  V30 4921 N 468.558 1.5553 0.254621 0
M  V30 4922 C 469.49 1.86104 1.33783 0
M  V30 4923 C 470.503 0.746752 1.44663 0
M  V30 4924 O 471.692 1.0248 1.46151 0
M  V30 4925 C 468.792 2.02532 2.71724 0
M  V30 4926 C 467.965 3.33335 2.83208 0
M  V30 4927 C 467.024 3.396 4.01943 0
M  V30 4928 O 466.05 4.12862 3.91834 0
M  V30 4929 N 467.252 2.68332 5.1476 0
M  V30 4930 H 470.017 2.79605 1.07893 0
M  V30 4931 H 467.578 1.55672 0.444732 0
M  V30 4932 H 469.57 2.04074 3.4948 0
M  V30 4933 H 468.14 1.15811 2.90356 0
M  V30 4934 H 467.36 3.44176 1.92189 0
M  V30 4935 H 468.648 4.19565 2.87824 0
M  V30 4936 H 468.046 2.08528 5.25864 0
M  V30 4937 H 466.603 2.75575 5.90679 0
M  V30 4938 N 470.036 -0.519951 1.48776 0
M  V30 4939 C 470.983 -1.62352 1.64044 0
M  V30 4940 C 471.953 -1.58945 0.482251 0
M  V30 4941 O 473.138 -1.77219 0.706971 0
M  V30 4942 C 470.278 -3.00579 1.69547 0
M  V30 4943 C 469.391 -3.14145 2.96541 0
M  V30 4944 C 468.526 -4.42991 2.93142 0
M  V30 4945 C 467.565 -4.50122 4.14797 0
M  V30 4946 N 466.702 -5.7037 4.09418 0
M  V30 4947 H 471.542 -1.48643 2.58281 0
M  V30 4948 H 469.079 -0.723516 1.28077 0
M  V30 4949 H 471.037 -3.80671 1.70719 0
M  V30 4950 H 469.667 -3.13036 0.787918 0
M  V30 4951 H 468.719 -2.27239 3.05068 0
M  V30 4952 H 470.031 -3.15275 3.86527 0
M  V30 4953 H 469.185 -5.31385 2.92772 0
M  V30 4954 H 467.924 -4.44398 2.00902 0
M  V30 4955 H 466.929 -3.60133 4.15433 0
M  V30 4956 H 468.154 -4.50445 5.08208 0
M  V30 4957 H 466.1 -5.72655 3.20004 0
M  V30 4958 H 466.017 -5.73036 4.93119 0
M  V30 4959 H 467.285 -6.61023 4.13121 0
M  V30 4960 N 471.514 -1.37532 -0.769588 0
M  V30 4961 C 472.444 -1.36172 -1.89682 0
M  V30 4962 C 473.425 -0.23001 -1.68538 0
M  V30 4963 O 474.61 -0.43069 -1.89364 0
M  V30 4964 C 471.74 -1.1701 -3.26995 0
M  V30 4965 C 470.694 -2.27216 -3.62708 0
M  V30 4966 C 470.02 -1.93174 -4.98586 0
M  V30 4967 C 471.32 -3.6941 -3.69234 0
M  V30 4968 H 473.014 -2.30499 -1.91078 0
M  V30 4969 H 470.56 -1.10953 -0.917902 0
M  V30 4970 H 472.513 -1.14688 -4.05493 0
M  V30 4971 H 471.237 -0.191395 -3.26039 0
M  V30 4972 H 469.896 -2.28697 -2.86519 0
M  V30 4973 H 469.544 -0.938281 -4.94171 0
M  V30 4974 H 469.244 -2.66973 -5.23449 0
M  V30 4975 H 470.768 -1.92443 -5.79481 0
M  V30 4976 H 472.182 -3.70047 -4.37879 0
M  V30 4977 H 470.579 -4.4228 -4.05597 0
M  V30 4978 H 471.649 -4.0288 -2.69844 0
M  V30 4979 N 472.992 0.995999 -1.22138 0
M  V30 4980 C 474.232 1.75032 -1.05561 0
M  V30 4981 C 474.596 1.87729 0.402698 0
M  V30 4982 O 475.797 2.59813 0.689234 0
M  V30 4983 C 474.068 3.11973 -1.74379 0
M  V30 4984 S 475.627 4.03182 -1.73175 0
M  V30 4985 H 472.445 0.602137 -0.37809 0
M  V30 4986 H 475.047 1.19107 -1.55028 0
M  V30 4987 H 473.751 3.00371 -2.79652 0
M  V30 4988 H 473.282 3.7297 -1.25128 0
M  V30 4989 H 475.297 4.90043 -0.77923 0
M  V30 4990 N 474.47 1.03057 1.19235 0
M  V30 4991 C 475.698 0.747697 1.92917 0
M  V30 4992 C 476.113 -0.69372 1.75593 0
M  V30 4993 O 475.47 -1.47191 1.07894 0
M  V30 4994 C 475.521 1.09159 3.44625 0
M  V30 4995 O 475.242 2.47641 3.61394 0
M  V30 4996 C 476.743 0.831763 4.35427 0
M  V30 4997 H 473.963 0.273453 0.612751 0
M  V30 4998 H 476.507 1.37552 1.51327 0
M  V30 4999 H 474.662 0.508919 3.84043 0
M  V30 5000 H 475.076 2.60499 4.55237 0
M  V30 5001 H 476.55 1.12233 5.4047 0
M  V30 5002 H 477.027 -0.233769 4.38577 0
M  V30 5003 H 477.633 1.39725 4.01693 0
M  V30 5004 N 475.948 -1.35272 0.808662 0
M  V30 5005 C 476.896 -2.31663 0.208606 0
M  V30 5006 C 477.89 -1.56731 -0.642778 0
M  V30 5007 O 479.096 -1.71843 -0.53571 0
M  V30 5008 H 475.471 -0.750421 0.0486993 0
M  V30 5009 H 477.442 -2.79814 1.03666 0
M  V30 5010 C 476.191 -3.42008 -0.626573 0
M  V30 5011 H 475.514 -3.99795 0.0192103 0
M  V30 5012 H 476.954 -4.11727 -1.01278 0
M  V30 5013 C 475.413 -2.85226 -1.79298 0
M  V30 5014 O 475.943 -2.78945 -2.89055 0
M  V30 5015 N 474.149 -2.42245 -1.60516 0
M  V30 5016 H 473.696 -2.47554 -0.712375 0
M  V30 5017 H 473.654 -2.04603 -2.38715 0
M  V30 5018 N 477.426 -0.562348 -1.47226 0
M  V30 5019 C 478.389 0.172056 -2.28553 0
M  V30 5020 C 479.389 0.837928 -1.37242 0
M  V30 5021 O 480.579 0.693001 -1.59822 0
M  V30 5022 C 477.711 1.25223 -3.17068 0
M  V30 5023 H 478.904 -0.542401 -2.94954 0
M  V30 5024 H 476.457 -0.319493 -1.53 0
M  V30 5025 H 477.192 1.99892 -2.55369 0
M  V30 5026 H 476.977 0.779515 -3.84273 0
M  V30 5027 H 478.467 1.76791 -3.78332 0
M  V30 5028 N 478.904 1.54736 -0.299062 0
M  V30 5029 C 480.15 2.00397 0.311244 0
M  V30 5030 C 480.483 1.18716 1.53688 0
M  V30 5031 O 479.758 0.263154 1.92712 0
M  V30 5032 C 480.041 3.53817 0.669761 0
M  V30 5033 C 479.894 4.46239 -0.564882 0
M  V30 5034 C 481.213 4.13856 1.49702 0
M  V30 5035 H 478.332 0.728493 0.111653 0
M  V30 5036 H 480.974 1.85506 -0.410774 0
M  V30 5037 H 479.124 3.66637 1.28491 0
M  V30 5038 H 480.796 4.45328 -1.20337 0
M  V30 5039 H 479.039 4.16916 -1.19849 0
M  V30 5040 H 479.71 5.5134 -0.269918 0
M  V30 5041 H 482.186 4.04461 0.977284 0
M  V30 5042 H 481.062 5.21365 1.71666 0
M  V30 5043 H 481.323 3.65608 2.48563 0
M  V30 5044 N 480.382 0.0267497 1.57577 0
M  V30 5045 C 481.798 -0.32962 1.56159 0
M  V30 5046 C 481.998 -1.73059 1.03213 0
M  V30 5047 O 481.054 -2.43233 0.677804 0
M  V30 5048 C 482.367 -0.18039 3.00158 0
M  V30 5049 C 483.915 -0.253334 3.11973 0
M  V30 5050 C 484.39 -0.132921 4.57807 0
M  V30 5051 N 485.881 -0.189979 4.6281 0
M  V30 5052 C 486.616 -0.120554 5.73273 0
M  V30 5053 N 486.112 -0.000180315 6.928 0
M  V30 5054 N 487.905 -0.174369 5.61829 0
M  V30 5055 H 480.056 0.942896 1.90324 0
M  V30 5056 H 482.319 0.3639 0.875375 0
M  V30 5057 H 482.025 0.784576 3.42837 0
M  V30 5058 H 481.899 -0.951565 3.65 0
M  V30 5059 H 484.286 -1.20876 2.69208 0
M  V30 5060 H 484.367 0.548177 2.49857 0
M  V30 5061 H 484.011 0.819073 5.01252 0
M  V30 5062 H 483.941 -0.953264 5.179 0
M  V30 5063 H 486.432 -0.283257 3.76837 0
M  V30 5064 H 486.745 0.0461666 7.72786 0
M  V30 5065 H 485.09 0.034569 6.94991 0
M  V30 5066 H 488.281 -0.266794 4.67339 0
M  V30 5067 H 488.454 -0.116802 6.47895 0
M  V30 5068 N 481.861 -1.55662 -0.24637 0
M  V30 5069 C 483.101 -1.79283 -0.981685 0
M  V30 5070 C 483.465 -0.596356 -1.82504 0
M  V30 5071 O 484.666 -0.711342 -2.59217 0
M  V30 5072 C 482.937 -3.07648 -1.819 0
M  V30 5073 S 484.496 -3.52491 -2.61334 0
M  V30 5074 H 481.314 -0.629676 -0.330196 0
M  V30 5075 H 483.916 -1.93901 -0.249498 0
M  V30 5076 H 482.62 -3.92794 -1.18915 0
M  V30 5077 H 482.151 -2.95768 -2.59393 0
M  V30 5078 H 484.166 -3.13866 -3.84321 0
M  V30 5079 N 483.339 0.512053 -1.4905 0
M  V30 5080 C 484.271 1.63121 -1.6101 0
M  V30 5081 C 485.284 1.55145 -0.493352 0
M  V30 5082 O 486.473 1.61278 -0.764955 0
M  V30 5083 C 483.573 3.01863 -1.54052 0
M  V30 5084 C 482.746 3.35138 -2.81072 0
M  V30 5085 C 481.805 4.5324 -2.67319 0
M  V30 5086 O 480.831 4.55571 -3.41238 0
M  V30 5087 N 482.033 5.52495 -1.78127 0
M  V30 5088 H 484.798 1.53292 -2.5753 0
M  V30 5089 H 482.359 0.699706 -1.45999 0
M  V30 5090 H 484.351 3.78774 -1.42521 0
M  V30 5091 H 482.921 3.05675 -0.654345 0
M  V30 5092 H 482.141 2.4723 -3.07036 0
M  V30 5093 H 483.429 3.54162 -3.65304 0
M  V30 5094 H 482.827 5.53403 -1.17308 0
M  V30 5095 H 481.384 6.28553 -1.72525 0
M  V30 5096 N 484.817 1.37938 0.762283 0
M  V30 5097 C 486.064 1.33668 1.52115 0
M  V30 5098 C 486.392 -0.0759538 1.94352 0
M  V30 5099 O 485.647 -1.05121 1.6507 0
M  V30 5100 C 485.946 2.23042 2.79261 0
M  V30 5101 C 485.612 3.71159 2.56031 0
M  V30 5102 C 484.274 4.11523 2.49404 0
M  V30 5103 C 486.626 4.64955 2.35513 0
M  V30 5104 C 483.954 5.43784 2.20263 0
M  V30 5105 C 486.306 5.97464 2.07894 0
M  V30 5106 C 484.97 6.36922 1.99718 0
M  V30 5107 H 484.24 0.489127 0.556629 0
M  V30 5108 H 486.887 1.70224 0.877262 0
M  V30 5109 H 485.192 1.79512 3.48256 0
M  V30 5110 H 486.889 2.17047 3.37182 0
M  V30 5111 H 483.479 3.39153 2.62056 0
M  V30 5112 H 487.663 4.34623 2.39617 0
M  V30 5113 H 482.919 5.73307 2.12435 0
M  V30 5114 H 487.093 6.6969 1.91019 0
M  V30 5115 H 484.72 7.39331 1.76902 0
M  V30 5116 N 486.295 -0.989507 1.22664 0
M  V30 5117 C 487.542 -1.72953 1.05325 0
M  V30 5118 C 487.87 -1.90104 -0.411168 0
M  V30 5119 O 487.125 -1.44386 -1.32103 0
M  V30 5120 C 487.424 -3.13649 1.71345 0
M  V30 5121 C 487.09 -3.16403 3.21248 0
M  V30 5122 C 485.752 -3.16862 3.62149 0
M  V30 5123 C 488.104 -3.12428 4.17179 0
M  V30 5124 C 485.432 -3.11051 4.97458 0
M  V30 5125 C 487.784 -3.08159 5.52468 0
M  V30 5126 C 486.448 -3.06935 5.92746 0
M  V30 5127 H 485.718 -0.632881 0.385412 0
M  V30 5128 H 488.365 -1.15863 1.52473 0
M  V30 5129 H 486.67 -3.74069 1.16532 0
M  V30 5130 H 488.367 -3.69658 1.55416 0
M  V30 5131 H 484.957 -3.16798 2.88682 0
M  V30 5132 H 489.141 -3.11221 3.86595 0
M  V30 5133 H 484.397 -3.0845 5.27891 0
M  V30 5134 H 488.571 -3.04039 6.26525 0
M  V30 5135 H 486.198 -3.02186 6.97558 0
M  V30 5136 N 487.773 -1.03688 -1.18687 0
M  V30 5137 C 489.001 -0.757918 -1.92518 0
M  V30 5138 C 489.416 0.684398 -1.75959 0
M  V30 5139 O 488.773 1.46617 -1.08673 0
M  V30 5140 C 488.824 -1.10985 -3.44042 0
M  V30 5141 O 488.545 -2.49554 -3.60076 0
M  V30 5142 C 490.046 -0.854844 -4.3498 0
M  V30 5143 H 487.266 -0.276699 -0.611293 0
M  V30 5144 H 489.81 -1.38352 -1.50595 0
M  V30 5145 H 487.965 -0.529279 -3.83767 0
M  V30 5146 H 488.379 -2.6291 -4.53849 0
M  V30 5147 H 489.853 -1.15098 -5.39867 0
M  V30 5148 H 490.33 0.210507 -4.38695 0
M  V30 5149 H 490.936 -1.41853 -4.00946 0
M  V30 5150 N 489.251 1.34841 -0.815825 0
M  V30 5151 C 490.481 2.02436 -0.412695 0
M  V30 5152 C 490.889 1.61604 0.983906 0
M  V30 5153 O 490.232 0.813729 1.64694 0
M  V30 5154 C 490.294 3.56953 -0.427182 0
M  V30 5155 C 489.958 4.21083 -1.77589 0
M  V30 5156 C 490.955 4.42107 -2.73564 0
M  V30 5157 C 488.64 4.58006 -2.06243 0
M  V30 5158 C 490.634 4.99169 -3.9637 0
M  V30 5159 C 488.321 5.1478 -3.2931 0
M  V30 5160 C 489.319 5.35304 -4.24191 0
M  V30 5161 O 489.007 5.90878 -5.45086 0
M  V30 5162 H 488.739 0.655631 -0.164695 0
M  V30 5163 H 491.293 1.73246 -1.1034 0
M  V30 5164 H 489.523 3.85372 0.320175 0
M  V30 5165 H 491.212 4.05875 -0.0450875 0
M  V30 5166 H 491.978 4.13953 -2.52721 0
M  V30 5167 H 487.857 4.41339 -1.33196 0
M  V30 5168 H 491.401 5.15105 -4.70439 0
M  V30 5169 H 487.298 5.42362 -3.5002 0
M  V30 5170 H 488.066 6.0932 -5.46508 0
M  V30 5171 N 490.729 0.570148 1.46925 0
M  V30 5172 C 491.957 0.0561966 2.06824 0
M  V30 5173 C 492.372 -1.24326 1.42086 0
M  V30 5174 O 491.729 -1.74882 0.521794 0
M  V30 5175 C 491.78 -0.129517 3.61268 0
M  V30 5176 O 491.501 1.1185 4.23581 0
M  V30 5177 C 493.002 -0.679266 4.38065 0
M  V30 5178 H 490.222 0.0517261 0.669003 0
M  V30 5179 H 492.766 0.787243 1.8874 0
M  V30 5180 H 490.921 -0.810739 3.78822 0
M  V30 5181 H 491.335 0.924375 5.1629 0
M  V30 5182 H 492.809 -0.758445 5.46765 0
M  V30 5183 H 493.286 -1.69346 4.05239 0
M  V30 5184 H 493.892 -0.0333237 4.25287 0
M  V30 5185 N 492.207 -1.54576 0.307264 0
M  V30 5186 C 493.618 -1.8579 -0.184121 0
M  V30 5187 C 493.969 -1.22914 -1.52927 0
M  V30 5188 O 493.094 -0.529126 -2.09831 0
M  V30 5189 C 493.689 -3.37081 -0.340862 0
M  V30 5190 C 492.248 -3.68304 -0.776465 0
M  V30 5191 C 491.395 -2.77076 0.111503 0
M  V30 5192 H 494.346 -1.49656 0.528078 0
M  V30 5193 H 494.367 -3.61922 -1.17443 0
M  V30 5194 H 493.879 -3.82815 0.638309 0
M  V30 5195 H 491.98 -3.28092 -1.76596 0
M  V30 5196 H 492.093 -4.75434 -0.591512 0
M  V30 5197 H 490.457 -2.51374 -0.410256 0
M  V30 5198 H 491.24 -3.25632 1.08714 0
M  V30 5199 N 493.685 -0.035106 -1.57561 0
M  V30 5200 C 494.648 0.929819 -2.09492 0
M  V30 5201 C 495.648 1.25026 -1.01119 0
M  V30 5202 O 496.838 1.18961 -1.27255 0
M  V30 5203 C 493.97 2.24457 -2.56577 0
M  V30 5204 H 495.163 0.479935 -2.96035 0
M  V30 5205 H 492.716 0.213033 -1.54841 0
M  V30 5206 H 493.451 2.74061 -1.73382 0
M  V30 5207 H 493.236 2.02508 -3.35757 0
M  V30 5208 H 494.726 2.93607 -2.96959 0
M  V30 5209 N 495.163 1.55791 0.238111 0
M  V30 5210 C 496.095 1.87513 1.31802 0
M  V30 5211 C 497.108 0.762053 1.43863 0
M  V30 5212 O 498.297 1.04024 1.45056 0
M  V30 5213 C 495.397 2.05402 2.69561 0
M  V30 5214 C 494.57 3.3632 2.79656 0
M  V30 5215 C 493.629 3.43844 3.98319 0
M  V30 5216 O 492.655 4.16994 3.87433 0
M  V30 5217 N 493.857 2.73777 5.11885 0
M  V30 5218 H 496.622 2.80734 1.04922 0
M  V30 5219 H 494.183 1.56135 0.428196 0
M  V30 5220 H 496.175 2.07769 3.47296 0
M  V30 5221 H 494.745 1.18884 2.89111 0
M  V30 5222 H 493.965 3.46195 1.88528 0
M  V30 5223 H 495.253 4.22594 2.83358 0
M  V30 5224 H 494.651 2.14094 5.23622 0
M  V30 5225 H 493.208 2.81825 5.87723 0
M  V30 5226 N 496.642 -0.504142 1.49319 0
M  V30 5227 C 497.605 -1.5883 1.65244 0
M  V30 5228 C 498.605 -1.52009 0.524386 0
M  V30 5229 O 499.795 -1.55218 0.79077 0
M  V30 5230 C 496.927 -2.98481 1.64687 0
M  V30 5231 H 498.12 -1.4604 2.61939 0
M  V30 5232 H 495.673 -0.728144 1.38303 0
M  V30 5233 H 496.408 -3.16751 0.695644 0
M  V30 5234 H 496.193 -3.0484 2.46607 0
M  V30 5235 H 497.683 -3.77256 1.79075 0
M  V30 5236 N 498.12 -1.38341 -0.754957 0
M  V30 5237 C 499.345 -1.37882 -1.5493 0
M  V30 5238 C 499.77 0.0296385 -1.88077 0
M  V30 5239 O 499.128 1.01133 -1.50472 0
M  V30 5240 C 499.176 -2.23996 -2.82592 0
M  V30 5241 O 498.28 -1.65612 -3.77686 0
M  V30 5242 H 497.621 -0.470384 -0.468652 0
M  V30 5243 H 500.151 -1.82084 -0.933082 0
M  V30 5244 H 500.161 -2.37806 -3.3153 0
M  V30 5245 H 498.836 -3.26365 -2.57796 0
M  V30 5246 H 497.413 -1.60936 -3.36384 0
M  V30 5247 N 499.598 0.982988 -1.23187 0
M  V30 5248 C 500.838 1.73903 -1.07412 0
M  V30 5249 C 501.202 1.88146 0.382764 0
M  V30 5250 O 502.403 2.6053 0.661638 0
M  V30 5251 C 500.674 3.10105 -1.77678 0
M  V30 5252 S 502.233 4.01323 -1.77441 0
M  V30 5253 H 499.051 0.598093 -0.384456 0
M  V30 5254 H 501.653 1.17456 -1.56283 0
M  V30 5255 H 500.357 2.97388 -2.82822 0
M  V30 5256 H 499.888 3.71622 -1.29077 0
M  V30 5257 H 501.903 4.89189 -0.831162 0
M  V30 5258 N 501.076 1.04316 1.18135 0
M  V30 5259 C 502.024 0.630175 2.23901 0
M  V30 5260 C 503.018 -0.344254 1.65865 0
M  V30 5261 O 504.224 -0.211273 1.78756 0
M  V30 5262 H 500.599 0.185578 0.728742 0
M  V30 5263 H 502.57 1.53253 2.56039 0
M  V30 5264 C 501.319 0.011666 3.47698 0
M  V30 5265 H 500.642 0.752526 3.92654 0
M  V30 5266 H 502.082 -0.240046 4.2332 0
M  V30 5267 C 500.541 -1.23913 3.13285 0
M  V30 5268 O 501.071 -2.32959 3.27251 0
M  V30 5269 N 499.277 -1.13338 2.67587 0
M  V30 5270 H 498.824 -0.246006 2.56423 0
M  V30 5271 H 498.782 -1.97116 2.44934 0
M  V30 5272 N 502.554 -1.34406 0.822964 0
M  V30 5273 C 503.464 -2.33298 0.246838 0
M  V30 5274 C 504.48 -1.62625 -0.618797 0
M  V30 5275 O 505.656 -1.94391 -0.526685 0
M  V30 5276 C 502.721 -3.41785 -0.581731 0
M  V30 5277 C 501.782 -4.28206 0.306309 0
M  V30 5278 C 501.015 -5.31512 -0.48281 0
M  V30 5279 O 501.238 -5.43973 -1.71607 0
M  V30 5280 O 500.172 -6.01749 0.134884 0
M  V30 5281 H 503.998 -2.84401 1.06534 0
M  V30 5282 H 501.583 -1.37466 0.585108 0
M  V30 5283 H 503.465 -4.08028 -1.05313 0
M  V30 5284 H 502.14 -2.92925 -1.37756 0
M  V30 5285 H 501.047 -3.64885 0.825199 0
M  V30 5286 H 502.38 -4.80507 1.06649 0
M  V30 5287 N 504.032 -0.577932 -1.46621 0
M  V30 5288 C 505.28 -0.061566 -2.02006 0
M  V30 5289 C 505.601 1.30117 -1.4524 0
M  V30 5290 O 504.871 1.85313 -0.63529 0
M  V30 5291 H 503.451 -0.0197692 -0.746738 0
M  V30 5292 H 506.113 -0.752631 -1.79782 0
M  V30 5293 H 505.209 0.0110238 -3.12098 0
M  V30 5294 N 505.51 1.54411 -0.315457 0
M  V30 5295 C 506.457 2.24048 0.554166 0
M  V30 5296 C 507.427 1.2283 1.11812 0
M  V30 5297 O 508.612 1.51491 1.15997 0
M  V30 5298 C 505.752 2.99574 1.71316 0
M  V30 5299 C 504.865 4.15594 1.17922 0
M  V30 5300 C 504 4.78669 2.30324 0
M  V30 5301 C 503.039 5.86807 1.74137 0
M  V30 5302 N 502.176 6.43777 2.8017 0
M  V30 5303 H 507.016 2.97964 -0.0462602 0
M  V30 5304 H 504.553 1.47059 -0.0346009 0
M  V30 5305 H 506.511 3.41604 2.39505 0
M  V30 5306 H 505.141 2.28008 2.285 0
M  V30 5307 H 504.193 3.78404 0.389136 0
M  V30 5308 H 505.505 4.93459 0.728012 0
M  V30 5309 H 504.659 5.23626 3.06433 0
M  V30 5310 H 503.398 4.00168 2.78778 0
M  V30 5311 H 502.403 5.41261 0.965236 0
M  V30 5312 H 503.628 6.67201 1.2657 0
M  V30 5313 H 501.574 5.68153 3.2793 0
M  V30 5314 H 501.491 7.17031 2.39588 0
M  V30 5315 H 502.759 6.9339 3.56132 0
M  V30 5316 N 506.988 0.0434614 1.5754 0
M  V30 5317 C 508.236 -0.630786 1.92004 0
M  V30 5318 C 508.557 -1.71836 0.921807 0
M  V30 5319 O 507.827 -1.9587 -0.034522 0
M  V30 5320 H 506.407 -0.235988 0.708745 0
M  V30 5321 H 509.069 0.0946462 1.9467 0
M  V30 5322 H 508.165 -1.07434 2.93026 0
M  V30 5323 N 508.466 -1.55915 -0.229846 0
M  V30 5324 C 509.413 -1.91734 -1.28478 0
M  V30 5325 C 510.383 -0.773539 -1.46988 0
M  V30 5326 O 511.568 -1.02871 -1.60693 0
M  V30 5327 C 508.708 -2.23224 -2.63182 0
M  V30 5328 C 507.821 -3.50497 -2.52539 0
M  V30 5329 C 506.956 -3.71474 -3.79711 0
M  V30 5330 C 505.995 -4.92289 -3.63755 0
M  V30 5331 N 505.132 -5.09698 -4.82858 0
M  V30 5332 H 509.972 -2.81692 -0.972308 0
M  V30 5333 H 507.509 -1.39429 -0.468815 0
M  V30 5334 H 509.467 -2.3949 -3.41614 0
M  V30 5335 H 508.097 -1.36451 -2.92542 0
M  V30 5336 H 507.149 -3.4247 -1.65585 0
M  V30 5337 H 508.461 -4.39079 -2.36666 0
M  V30 5338 H 507.615 -3.87791 -4.66586 0
M  V30 5339 H 506.354 -2.81157 -3.985 0
M  V30 5340 H 505.359 -4.7593 -2.75264 0
M  V30 5341 H 506.584 -5.84083 -3.46445 0
M  V30 5342 H 504.53 -4.22322 -5.01976 0
M  V30 5343 H 504.447 -5.92399 -4.69681 0
M  V30 5344 H 505.715 -5.30443 -5.71183 0
M  V30 5345 N 509.944 0.496216 -1.49584 0
M  V30 5346 C 511.184 1.26015 -1.60933 0
M  V30 5347 C 511.548 1.89772 -0.291646 0
M  V30 5348 O 512.749 2.67334 -0.280357 0
M  V30 5349 C 511.02 2.29506 -2.73974 0
M  V30 5350 S 512.579 3.15175 -3.05303 0
M  V30 5351 H 509.397 0.428194 -0.567601 0
M  V30 5352 H 511.999 0.561484 -1.87263 0
M  V30 5353 H 510.703 1.81205 -3.68229 0
M  V30 5354 H 510.234 3.04036 -2.49651 0
M  V30 5355 H 512.249 4.30244 -2.47193 0
M  V30 5356 N 511.423 1.38739 0.74761 0
M  V30 5357 C 512.653 1.3832 1.53464 0
M  V30 5358 C 513.061 -0.0273464 1.8918 0
M  V30 5359 O 512.404 -1.00588 1.53713 0
M  V30 5360 C 512.466 2.18007 2.85855 0
M  V30 5361 C 512.13 3.66762 2.72644 0
M  V30 5362 C 513.127 4.60124 2.42037 0
M  V30 5363 C 510.812 4.10193 2.89909 0
M  V30 5364 C 512.806 5.94897 2.28859 0
M  V30 5365 C 510.493 5.45045 2.7635 0
M  V30 5366 C 511.491 6.37211 2.45869 0
M  V30 5367 O 511.179 7.69581 2.3238 0
M  V30 5368 H 510.911 0.474718 0.481268 0
M  V30 5369 H 513.465 1.83012 0.932518 0
M  V30 5370 H 511.695 1.68043 3.48279 0
M  V30 5371 H 513.384 2.09921 3.47402 0
M  V30 5372 H 514.15 4.27874 2.28361 0
M  V30 5373 H 510.029 3.38797 3.1263 0
M  V30 5374 H 513.573 6.66802 2.04989 0
M  V30 5375 H 509.47 5.76889 2.89601 0
M  V30 5376 H 510.238 7.80169 2.47546 0
M  V30 5377 N 512.901 -0.976442 1.23707 0
M  V30 5378 C 513.831 -2.08749 1.04624 0
M  V30 5379 C 514.812 -1.70057 -0.0380956 0
M  V30 5380 O 515.997 -1.93782 0.127308 0
M  V30 5381 C 513.127 -3.41335 0.640902 0
M  V30 5382 C 512.081 -3.93947 1.67302 0
M  V30 5383 C 511.407 -5.22774 1.12301 0
M  V30 5384 C 512.707 -4.22769 3.06697 0
M  V30 5385 H 514.401 -2.24972 1.97555 0
M  V30 5386 H 511.947 -1.08108 0.951247 0
M  V30 5387 H 513.9 -4.18489 0.494434 0
M  V30 5388 H 512.624 -3.24988 -0.324099 0
M  V30 5389 H 511.283 -3.18941 1.80755 0
M  V30 5390 H 510.931 -5.0278 0.148877 0
M  V30 5391 H 510.631 -5.58942 1.81267 0
M  V30 5392 H 512.155 -6.02546 0.988479 0
M  V30 5393 H 513.569 -4.90659 2.96524 0
M  V30 5394 H 511.966 -4.70147 3.72937 0
M  V30 5395 H 513.036 -3.29885 3.55392 0
M  V30 5396 N 514.379 -1.04941 -1.1758 0
M  V30 5397 C 515.326 -0.648155 -2.21512 0
M  V30 5398 C 516.296 0.348431 -1.62404 0
M  V30 5399 O 517.481 0.240419 -1.89279 0
M  V30 5400 C 514.621 -0.0264291 -3.4509 0
M  V30 5401 C 513.734 -1.07154 -4.185 0
M  V30 5402 C 512.869 -0.417403 -5.29558 0
M  V30 5403 C 511.908 -1.447 -5.94751 0
M  V30 5404 N 511.045 -0.817203 -6.97328 0
M  V30 5405 H 515.885 -1.53891 -2.55189 0
M  V30 5406 H 513.422 -0.769699 -1.25356 0
M  V30 5407 H 515.38 0.351456 -4.15717 0
M  V30 5408 H 514.01 0.827802 -3.12005 0
M  V30 5409 H 513.062 -1.56728 -3.46613 0
M  V30 5410 H 514.374 -1.8532 -4.63096 0
M  V30 5411 H 513.528 0.0142061 -6.06698 0
M  V30 5412 H 512.267 0.396265 -4.86087 0
M  V30 5413 H 511.272 -1.88865 -5.16343 0
M  V30 5414 H 512.497 -2.26252 -6.40302 0
M  V30 5415 H 510.443 -0.0239995 -6.55996 0
M  V30 5416 H 510.36 -1.53644 -7.40223 0
M  V30 5417 H 511.628 -0.410283 -7.7842 0
M  V30 5418 N 515.857 1.33968 -0.830081 0
M  V30 5419 C 516.787 2.31911 -0.271911 0
M  V30 5420 C 517.768 1.58571 0.61556 0
M  V30 5421 O 518.953 1.86514 0.540946 0
M  V30 5422 C 516.083 3.42737 0.561146 0
M  V30 5423 C 515.037 4.27383 -0.229789 0
M  V30 5424 C 514.363 5.29742 0.726463 0
M  V30 5425 C 515.663 5.02 -1.44197 0
M  V30 5426 H 517.357 2.78844 -1.09025 0
M  V30 5427 H 514.903 1.34061 -0.52571 0
M  V30 5428 H 516.856 4.10276 0.961867 0
M  V30 5429 H 515.58 2.94471 1.41261 0
M  V30 5430 H 514.239 3.61456 -0.611964 0
M  V30 5431 H 513.887 4.77736 1.57408 0
M  V30 5432 H 513.587 5.87255 0.20142 0
M  V30 5433 H 515.111 6.00149 1.12489 0
M  V30 5434 H 516.525 5.62355 -1.11488 0
M  V30 5435 H 514.922 5.69122 -1.90317 0
M  V30 5436 H 515.992 4.31281 -2.2164 0
M  V30 5437 N 517.335 0.585699 1.46312 0
M  V30 5438 C 518.56 0.0762461 2.0726 0
M  V30 5439 C 518.985 -1.22071 1.43109 0
M  V30 5440 O 518.343 -1.73804 0.515942 0
M  V30 5441 C 518.391 -0.0729404 3.60526 0
M  V30 5442 O 517.495 -1.1287 3.96654 0
M  V30 5443 H 516.836 0.0641558 0.660893 0
M  V30 5444 H 519.366 0.809492 1.87905 0
M  V30 5445 H 519.376 -0.278158 4.07051 0
M  V30 5446 H 518.051 0.874188 4.06609 0
M  V30 5447 H 516.628 -0.901703 3.61834 0
M  V30 5448 N 518.813 -1.54241 0.323641 0
M  V30 5449 C 520.038 -2.05452 -0.283605 0
M  V30 5450 C 520.463 -1.19823 -1.44997 0
M  V30 5451 O 519.821 -0.207358 -1.8011 0
M  V30 5452 C 519.869 -3.53823 -0.695795 0
M  V30 5453 O 518.973 -3.71134 -1.79815 0
M  V30 5454 H 518.314 -0.662024 -0.0511917 0
M  V30 5455 H 520.844 -1.99079 0.472073 0
M  V30 5456 H 520.854 -3.96094 -0.978434 0
M  V30 5457 H 519.529 -4.15602 0.157287 0
M  V30 5458 H 518.106 -3.40768 -1.51431 0
M  V30 5459 N 520.291 -0.0518155 -1.57515 0
M  V30 5460 C 521.239 0.940195 -2.12751 0
M  V30 5461 C 522.233 1.3218 -1.05948 0
M  V30 5462 O 523.439 1.30138 -1.24355 0
M  V30 5463 H 519.814 0.321066 -0.680015 0
M  V30 5464 H 521.785 0.449217 -2.94999 0
M  V30 5465 C 520.534 2.2055 -2.68799 0
M  V30 5466 H 519.857 1.92066 -3.50643 0
M  V30 5467 H 521.297 2.88119 -3.11068 0
M  V30 5468 C 519.756 2.95061 -1.62605 0
M  V30 5469 O 520.286 3.88025 -1.03921 0
M  V30 5470 N 518.492 2.57804 -1.34111 0
M  V30 5471 H 518.039 1.82281 -1.8202 0
M  V30 5472 H 517.997 3.07964 -0.632872 0
M  V30 5473 N 521.769 1.56035 0.221574 0
M  V30 5474 C 523.017 1.78693 0.944102 0
M  V30 5475 C 523.338 0.620317 1.8487 0
M  V30 5476 O 522.608 -0.362784 1.92512 0
M  V30 5477 H 521.188 0.659082 0.351597 0
M  V30 5478 H 523.85 1.93497 0.233435 0
M  V30 5479 H 522.946 2.70837 1.55093 0
M  V30 5480 N 523.247 -0.488276 1.49845 0
M  V30 5481 C 524.472 -1.26997 1.63971 0
M  V30 5482 C 524.897 -1.85427 0.315994 0
M  V30 5483 O 524.255 -1.66475 -0.718032 0
M  V30 5484 C 524.303 -2.36689 2.72049 0
M  V30 5485 O 523.407 -3.40882 2.32107 0
M  V30 5486 H 522.748 -0.374376 0.548396 0
M  V30 5487 H 525.278 -0.583104 1.96115 0
M  V30 5488 H 525.288 -2.82262 2.94605 0
M  V30 5489 H 523.963 -1.93529 3.68129 0
M  V30 5490 H 522.54 -3.01139 2.19931 0
M  V30 5491 N 524.725 -1.39134 -0.740242 0
M  V30 5492 C 526.136 -1.32208 -1.31825 0
M  V30 5493 C 526.487 0.0159919 -1.96193 0
M  V30 5494 O 525.612 0.918111 -1.95958 0
M  V30 5495 C 526.207 -2.39436 -2.39699 0
M  V30 5496 C 524.766 -2.36048 -2.93187 0
M  V30 5497 C 523.913 -2.21599 -1.66701 0
M  V30 5498 H 526.864 -1.49298 -0.538133 0
M  V30 5499 H 526.885 -2.05922 -3.19963 0
M  V30 5500 H 526.397 -3.36811 -1.92821 0
M  V30 5501 H 524.498 -1.42295 -3.44359 0
M  V30 5502 H 524.611 -3.30704 -3.46658 0
M  V30 5503 H 522.975 -1.68681 -1.90837 0
M  V30 5504 H 523.758 -3.20936 -1.21882 0
M  V30 5505 N 526.204 0.969867 -1.24223 0
M  V30 5506 C 527.432 1.74756 -1.10761 0
M  V30 5507 C 527.847 1.85713 0.340041 0
M  V30 5508 O 527.204 1.34389 1.23474 0
M  V30 5509 C 527.255 3.16915 -1.73917 0
M  V30 5510 O 526.976 3.06511 -3.13021 0
M  V30 5511 C 528.477 4.11032 -1.66036 0
M  V30 5512 H 525.697 0.548092 -0.387087 0
M  V30 5513 H 528.241 1.2178 -1.64286 0
M  V30 5514 H 526.396 3.66884 -1.244 0
M  V30 5515 H 526.81 3.96079 -3.43834 0
M  V30 5516 H 528.284 5.08446 -2.14911 0
M  V30 5517 H 528.761 4.34785 -0.621159 0
M  V30 5518 H 529.367 3.66972 -2.14969 0
M  V30 5519 N 527.682 1.05563 1.17022 0
M  V30 5520 C 528.629 0.659893 2.21165 0
M  V30 5521 C 529.599 -0.339813 1.62587 0
M  V30 5522 O 530.784 -0.230378 1.89404 0
M  V30 5523 C 527.924 0.0447297 3.45071 0
M  V30 5524 C 527.037 1.09372 4.17926 0
M  V30 5525 C 526.172 0.445481 5.29329 0
M  V30 5526 C 525.211 1.47852 5.93975 0
M  V30 5527 N 524.348 0.854172 6.96885 0
M  V30 5528 H 529.188 1.55243 2.54369 0
M  V30 5529 H 526.725 0.776336 1.24946 0
M  V30 5530 H 528.683 -0.329404 4.15898 0
M  V30 5531 H 527.313 -0.811244 3.1244 0
M  V30 5532 H 526.365 1.58564 3.45777 0
M  V30 5533 H 527.677 1.87773 4.62107 0
M  V30 5534 H 526.831 0.0179688 6.06697 0
M  V30 5535 H 525.57 -0.370481 4.86291 0
M  V30 5536 H 524.575 1.91601 5.15334 0
M  V30 5537 H 525.8 2.29645 6.39093 0
M  V30 5538 H 523.746 0.0587882 6.55974 0
M  V30 5539 H 523.663 1.57567 7.39397 0
M  V30 5540 H 524.931 0.451559 7.78191 0
M  V30 5541 N 529.16 -1.33526 0.837174 0
M  V30 5542 C 530.409 -1.97098 0.428387 0
M  V30 5543 C 530.722 -1.67062 -1.01734 0
M  V30 5544 O 531.928 -2.24235 -1.53072 0
M  V30 5545 C 530.384 -3.52725 0.715075 0
M  V30 5546 C 529.992 -3.9164 2.17537 0
M  V30 5547 C 531.736 -4.22857 0.373154 0
M  V30 5548 C 529.643 -5.40237 2.40619 0
M  V30 5549 H 528.573 -0.737589 0.156455 0
M  V30 5550 H 531.224 -1.52169 1.02552 0
M  V30 5551 H 529.606 -3.95971 0.0475904 0
M  V30 5552 H 530.78 -3.59456 2.88319 0
M  V30 5553 H 529.095 -3.34485 2.4801 0
M  V30 5554 H 531.692 -5.32133 0.523264 0
M  V30 5555 H 532.035 -4.10647 -0.683708 0
M  V30 5556 H 532.568 -3.85135 0.995801 0
M  V30 5557 H 529.307 -5.57449 3.44864 0
M  V30 5558 H 528.827 -5.73887 1.74396 0
M  V30 5559 H 530.506 -6.07102 2.23688 0
M  V30 5560 N 530.638 -0.59345 -1.46 0
M  V30 5561 C 531.568 0.121192 -2.33185 0
M  V30 5562 C 532.549 0.872977 -1.4599 0
M  V30 5563 O 533.734 0.846321 -1.74789 0
M  V30 5564 C 530.864 1.12844 -3.28456 0
M  V30 5565 C 529.818 0.4908 -4.25177 0
M  V30 5566 C 529.144 1.60529 -5.10034 0
M  V30 5567 C 530.444 -0.578949 -5.19081 0
M  V30 5568 H 532.138 -0.606767 -2.93187 0
M  V30 5569 H 529.684 -0.293242 -1.40983 0
M  V30 5570 H 531.637 1.63684 -3.88311 0
M  V30 5571 H 530.361 1.88681 -2.66584 0
M  V30 5572 H 529.02 0.00339328 -3.666 0
M  V30 5573 H 528.668 2.35359 -4.44539 0
M  V30 5574 H 528.368 1.18422 -5.75543 0
M  V30 5575 H 529.892 2.11623 -5.72755 0
M  V30 5576 H 531.306 -0.155199 -5.7309 0
M  V30 5577 H 529.703 -0.920947 -5.92991 0
M  V30 5578 H 530.773 -1.46109 -4.62364 0
M  V30 5579 N 532.116 1.54067 -0.331816 0
M  V30 5580 C 533.066 2.21363 0.546101 0
M  V30 5581 C 534.05 1.19698 1.07523 0
M  V30 5582 O 535.242 1.45293 1.01088 0
M  V30 5583 C 532.371 2.98115 1.70242 0
M  V30 5584 C 531.457 4.07127 1.18779 0
M  V30 5585 N 531.848 5.04267 0.393465 0
M  V30 5586 C 530.146 4.21226 1.46576 0
M  V30 5587 C 530.847 5.81585 0.115572 0
M  V30 5588 N 529.823 5.39022 0.703987 0
M  V30 5589 H 533.625 2.93821 -0.0679751 0
M  V30 5590 H 531.139 1.61812 -0.138085 0
M  V30 5591 H 533.136 3.44818 2.34321 0
M  V30 5592 H 531.796 2.27181 2.31989 0
M  V30 5593 H 532.807 5.17888 0.0355757 0
M  V30 5594 H 529.484 3.61509 2.08848 0
M  V30 5595 H 530.874 6.6985 -0.524426 0
M  V30 5596 N 533.594 0.0601682 1.57485 0
M  V30 5597 C 534.842 -0.610386 1.92662 0
M  V30 5598 C 535.163 -1.70849 0.939981 0
M  V30 5599 O 534.433 -1.95895 -0.0137455 0
M  V30 5600 H 533.013 -0.228457 0.711208 0
M  V30 5601 H 535.675 0.115288 1.94559 0
M  V30 5602 H 534.771 -1.0432 2.94149 0
M  V30 5603 N 535.072 -1.5615 -0.213296 0
M  V30 5604 C 536.488 -1.49327 -0.56336 0
M  V30 5605 C 536.688 -0.756826 -1.86747 0
M  V30 5606 O 535.744 -0.299866 -2.50713 0
M  V30 5607 C 537.057 -2.9392 -0.634944 0
M  V30 5608 C 538.605 -3.04487 -0.725013 0
M  V30 5609 C 539.08 -4.50456 -0.82787 0
M  V30 5610 N 540.571 -4.54533 -0.891876 0
M  V30 5611 C 541.306 -5.64766 -0.991315 0
M  V30 5612 N 540.802 -6.84733 -1.05419 0
M  V30 5613 N 542.595 -5.52637 -1.02709 0
M  V30 5614 H 534.746 -2.02453 0.642366 0
M  V30 5615 H 537.009 -0.920548 0.226487 0
M  V30 5616 H 536.715 -3.50783 0.253859 0
M  V30 5617 H 536.589 -3.46274 -1.49579 0
M  V30 5618 H 538.976 -2.47685 -1.60425 0
M  V30 5619 H 539.057 -2.55289 0.161669 0
M  V30 5620 H 538.701 -5.07878 0.0469464 0
M  V30 5621 H 538.631 -4.97369 -1.73009 0
M  V30 5622 H 541.122 -3.68141 -0.85327 0
M  V30 5623 H 541.435 -7.64493 -1.13007 0
M  V30 5624 H 539.78 -6.87427 -1.02318 0
M  V30 5625 H 542.971 -4.5784 -0.974687 0
M  V30 5626 H 543.144 -6.38576 -1.10113 0
M  V30 5627 N 536.55 0.480323 -1.50102 0
M  V30 5628 C 537.798 1.23063 -1.60312 0
M  V30 5629 C 538.119 1.92659 -0.301226 0
M  V30 5630 O 537.389 1.83691 0.680753 0
M  V30 5631 H 535.969 0.457231 -0.590719 0
M  V30 5632 H 538.631 0.554893 -1.86834 0
M  V30 5633 H 537.727 1.9835 -2.40964 0
M  V30 5634 N 538.028 1.39524 0.732853 0
M  V30 5635 C 539.276 1.36594 1.48951 0
M  V30 5636 C 539.597 -0.0367507 1.94965 0
M  V30 5637 O 538.867 -0.988391 1.69138 0
M  V30 5638 H 537.447 0.502673 0.552566 0
M  V30 5639 H 540.109 1.74411 0.869869 0
M  V30 5640 H 539.205 2.03 2.3706 0
M  V30 5641 N 539.506 -0.963266 1.24736 0
M  V30 5642 C 540.755 -1.70115 1.08369 0
M  V30 5643 C 541.068 -1.91939 -0.376688 0
M  V30 5644 O 542.274 -2.6334 -0.660624 0
M  V30 5645 C 540.73 -3.06218 1.89099 0
M  V30 5646 C 540.338 -2.92221 3.39574 0
M  V30 5647 C 542.082 -3.83848 1.81275 0
M  V30 5648 C 539.989 -4.23662 4.12631 0
M  V30 5649 H 538.919 -0.637944 0.401924 0
M  V30 5650 H 541.57 -1.07304 1.48856 0
M  V30 5651 H 539.952 -3.69884 1.41429 0
M  V30 5652 H 541.126 -2.37541 3.94856 0
M  V30 5653 H 539.441 -2.28054 3.48397 0
M  V30 5654 H 542.038 -4.81188 2.33158 0
M  V30 5655 H 542.381 -4.08949 0.778895 0
M  V30 5656 H 542.914 -3.26918 2.26649 0
M  V30 5657 H 539.653 -4.03753 5.16395 0
M  V30 5658 H 539.173 -4.78141 3.62135 0
M  V30 5659 H 540.852 -4.92256 4.19873 0
M  V30 5660 N 540.985 -1.06182 -1.16461 0
M  V30 5661 C 542.21 -0.798599 -1.91408 0
M  V30 5662 C 542.635 0.640987 -1.76842 0
M  V30 5663 O 541.993 1.44652 -1.09296 0
M  V30 5664 C 542.041 -1.19665 -3.40165 0
M  V30 5665 O 541.145 -0.334768 -4.11039 0
M  V30 5666 H 540.486 -0.291961 -0.596368 0
M  V30 5667 H 543.016 -1.41732 -1.47557 0
M  V30 5668 H 543.026 -1.16772 -3.90933 0
M  V30 5669 H 541.701 -2.24526 -3.50087 0
M  V30 5670 H 540.278 -0.425168 -3.70468 0
M  V30 5671 N 542.463 1.3308 -0.844243 0
M  V30 5672 C 543.711 1.97215 -0.441676 0
M  V30 5673 C 544.032 1.67185 1.0037 0
M  V30 5674 O 543.302 0.973588 1.69994 0
M  V30 5675 H 541.882 0.72959 -0.160335 0
M  V30 5676 H 544.544 1.62348 -1.07838 0
M  V30 5677 H 543.64 3.06698 -0.57815 0
M  V30 5678 N 543.941 0.601185 1.45683 0
M  V30 5679 C 545.171 0.0999093 2.06358 0
M  V30 5680 C 545.579 -1.21831 1.44754 0
M  V30 5681 O 544.922 -1.75157 0.553695 0
M  V30 5682 C 544.984 -0.12085 3.59297 0
M  V30 5683 C 544.648 1.11459 4.432 0
M  V30 5684 C 545.645 2.03118 4.7858 0
M  V30 5685 C 543.33 1.34162 4.84051 0
M  V30 5686 C 545.324 3.15814 5.53661 0
M  V30 5687 C 543.011 2.4716 5.58888 0
M  V30 5688 C 544.009 3.37814 5.93608 0
M  V30 5689 O 543.697 4.48846 6.66928 0
M  V30 5690 H 543.429 0.0630316 0.673055 0
M  V30 5691 H 545.983 0.826982 1.88016 0
M  V30 5692 H 544.213 -0.902744 3.76015 0
M  V30 5693 H 545.902 -0.572925 4.01836 0
M  V30 5694 H 546.668 1.86801 4.47583 0
M  V30 5695 H 542.547 0.645018 4.56465 0
M  V30 5696 H 546.091 3.86596 5.8068 0
M  V30 5697 H 541.988 2.63432 5.89299 0
M  V30 5698 H 542.756 4.47446 6.85371 0
M  V30 5699 N 545.419 -1.53889 0.339982 0
M  V30 5700 C 546.647 -2.05271 -0.259114 0
M  V30 5701 C 547.062 -1.21517 -1.44496 0
M  V30 5702 O 546.419 -0.24966 -1.80784 0
M  V30 5703 C 546.47 -3.55092 -0.677634 0
M  V30 5704 O 546.191 -4.35667 0.461051 0
M  V30 5705 C 547.692 -4.22631 -1.33782 0
M  V30 5706 H 544.912 -0.669085 -0.0506566 0
M  V30 5707 H 547.456 -1.9852 0.490935 0
M  V30 5708 H 545.611 -3.62077 -1.37763 0
M  V30 5709 H 546.025 -5.24343 0.128144 0
M  V30 5710 H 547.499 -5.28861 -1.58145 0
M  V30 5711 H 547.976 -3.74758 -2.29027 0
M  V30 5712 H 548.582 -4.19829 -0.679957 0
M  V30 5713 N 546.897 -0.0685191 -1.57451 0
M  V30 5714 C 547.827 0.89747 -2.15564 0
M  V30 5715 C 548.808 1.31266 -1.08181 0
M  V30 5716 O 549.993 1.38429 -1.36202 0
M  V30 5717 C 547.123 2.16623 -2.71463 0
M  V30 5718 C 546.077 1.89054 -3.83982 0
M  V30 5719 C 545.403 3.22532 -4.26471 0
M  V30 5720 C 546.703 1.1984 -5.08366 0
M  V30 5721 H 548.397 0.413373 -2.96533 0
M  V30 5722 H 545.943 0.197391 -1.42641 0
M  V30 5723 H 547.896 2.84614 -3.10761 0
M  V30 5724 H 546.62 2.67269 -1.8771 0
M  V30 5725 H 545.279 1.23469 -3.45183 0
M  V30 5726 H 544.927 3.71013 -3.39644 0
M  V30 5727 H 544.627 3.04879 -5.02317 0
M  V30 5728 H 546.151 3.91727 -4.68383 0
M  V30 5729 H 547.565 1.77896 -5.45001 0
M  V30 5730 H 545.962 1.12456 -5.89469 0
M  V30 5731 H 547.032 0.176996 -4.84577 0
M  V30 5732 N 548.375 1.56261 0.205012 0
M  V30 5733 C 549.791 1.49623 0.555433 0
M  V30 5734 C 549.991 0.766719 1.86343 0
M  V30 5735 O 549.047 0.313158 2.50551 0
M  V30 5736 C 550.36 2.94253 0.619347 0
M  V30 5737 C 551.908 3.04868 0.708855 0
M  V30 5738 C 552.383 4.50888 0.803969 0
M  V30 5739 N 553.874 4.54999 0.867758 0
M  V30 5740 C 554.609 5.65284 0.96135 0
M  V30 5741 N 554.105 6.85282 1.01786 0
M  V30 5742 N 555.898 5.53174 0.997771 0
M  V30 5743 H 548.049 2.0211 -0.653094 0
M  V30 5744 H 550.312 0.919333 -0.231366 0
M  V30 5745 H 550.018 3.50643 -0.272458 0
M  V30 5746 H 549.892 3.47063 1.47741 0
M  V30 5747 H 552.279 2.48532 1.5911 0
M  V30 5748 H 552.36 2.55199 -0.175205 0
M  V30 5749 H 552.004 5.07846 -0.0738798 0
M  V30 5750 H 551.934 4.98279 1.70369 0
M  V30 5751 H 554.425 3.68588 0.833735 0
M  V30 5752 H 554.738 7.65081 1.08951 0
M  V30 5753 H 553.083 6.8796 0.986706 0
M  V30 5754 H 556.274 4.5835 0.950392 0
M  V30 5755 H 556.447 6.39151 1.06725 0
M  V30 5756 N 549.853 -0.472356 1.50355 0
M  V30 5757 C 550.783 -1.57859 1.72055 0
M  V30 5758 C 551.764 -1.60283 0.569505 0
M  V30 5759 O 552.949 -1.7657 0.808503 0
M  V30 5760 C 550.079 -2.96191 1.81351 0
M  V30 5761 C 549.033 -3.08633 2.96529 0
M  V30 5762 C 548.359 -4.486 2.90968 0
M  V30 5763 C 549.659 -2.85969 4.37057 0
M  V30 5764 H 551.353 -1.39953 2.64676 0
M  V30 5765 H 548.899 -0.671846 1.27367 0
M  V30 5766 H 550.852 -3.73507 1.95117 0
M  V30 5767 H 549.576 -3.15251 0.853502 0
M  V30 5768 H 548.235 -2.33749 2.82413 0
M  V30 5769 H 547.883 -4.64577 1.92815 0
M  V30 5770 H 547.583 -4.57861 3.68289 0
M  V30 5771 H 549.107 -5.27938 3.0678 0
M  V30 5772 H 550.521 -3.53036 4.51706 0
M  V30 5773 H 548.918 -3.06677 5.15819 0
M  V30 5774 H 549.988 -1.81838 4.49514 0
M  V30 5775 N 551.331 -1.39911 -0.725443 0
M  V30 5776 C 552.571 -1.39096 -1.49772 0
M  V30 5777 C 552.935 0.0106452 -1.91997 0
M  V30 5778 O 554.136 0.143859 -2.68415 0
M  V30 5779 C 552.407 -2.34441 -2.69764 0
M  V30 5780 S 553.966 -2.51898 -3.59295 0
M  V30 5781 H 550.784 -0.49314 -0.512186 0
M  V30 5782 H 553.386 -1.76093 -0.849197 0
M  V30 5783 H 552.09 -3.35123 -2.36898 0
M  V30 5784 H 551.621 -1.98692 -3.39537 0
M  V30 5785 H 553.636 -1.76402 -4.63785 0
M  V30 5786 N 552.809 0.956637 -1.25245 0
M  V30 5787 C 553.756 2.053 -1.05454 0
M  V30 5788 C 554.726 1.66062 0.0356889 0
M  V30 5789 O 555.911 1.90415 -0.121099 0
M  V30 5790 C 553.051 3.38391 -0.677191 0
M  V30 5791 C 552.164 3.90758 -1.84206 0
M  V30 5792 C 551.299 5.12165 -1.40926 0
M  V30 5793 C 550.338 5.56757 -2.54338 0
M  V30 5794 N 549.475 6.69376 -2.11848 0
M  V30 5795 H 554.315 2.21562 -1.99284 0
M  V30 5796 H 551.852 1.08578 -0.992434 0
M  V30 5797 H 553.81 4.1488 -0.43938 0
M  V30 5798 H 552.44 3.22021 0.224127 0
M  V30 5799 H 551.492 3.10808 -2.19323 0
M  V30 5800 H 552.804 4.19802 -2.69383 0
M  V30 5801 H 551.958 5.96065 -1.13098 0
M  V30 5802 H 550.697 4.84832 -0.528175 0
M  V30 5803 H 549.702 4.71423 -2.82913 0
M  V30 5804 H 550.927 5.861 -3.43022 0
M  V30 5805 H 548.873 6.43756 -1.26153 0
M  V30 5806 H 548.79 6.97927 -2.90574 0
M  V30 5807 H 550.058 7.5669 -1.87191 0
M  V30 5808 N 554.287 1.06798 1.15896 0
M  V30 5809 C 555.22 0.627503 2.19403 0
M  V30 5810 C 556.198 -0.352352 1.58736 0
M  V30 5811 O 557.382 -0.260111 1.86697 0
M  V30 5812 C 554.509 -0.079356 3.38607 0
M  V30 5813 C 553.555 0.858057 4.17779 0
M  V30 5814 S 554.388 2.35605 4.80885 0
M  V30 5815 C 555.544 1.66083 6.03463 0
M  V30 5816 H 555.777 1.50441 2.56427 0
M  V30 5817 H 553.31 0.881427 1.26768 0
M  V30 5818 H 555.268 -0.48095 4.07673 0
M  V30 5819 H 553.929 -0.932524 2.99938 0
M  V30 5820 H 553.122 0.310108 5.03045 0
M  V30 5821 H 552.724 1.19977 3.54234 0
M  V30 5822 H 555.016 0.969337 6.7053 0
M  V30 5823 H 555.959 2.49159 6.62816 0
M  V30 5824 H 556.367 1.14122 5.52844 0
M  V30 5825 N 555.766 -1.3263 0.851289 0
M  V30 5826 C 557.043 -1.91982 0.374448 0
M  V30 5827 C 557.423 -1.77568 -1.14161 0
M  V30 5828 O 556.771 -1.1717 -1.96172 0
M  V30 5829 C 556.981 -3.38862 0.835088 0
M  V30 5830 C 558.329 -4.15999 0.850309 0
M  V30 5831 O 559.353 -3.47566 0.779505 0
M  V30 5832 O 558.212 -5.38189 0.949481 0
M  V30 5833 H 555.306 -0.819846 0.10854 0
M  V30 5834 H 557.852 -1.41422 0.937966 0
M  V30 5835 H 556.624 -3.43281 1.87814 0
M  V30 5836 H 556.247 -3.96821 0.248833 0
M  V30 5837 N 557.244 -0.608902 -1.45362 0
M  V30 5838 C 558.192 0.121639 -2.32282 0
M  V30 5839 C 559.186 0.858301 -1.46046 0
M  V30 5840 O 560.392 0.773718 -1.62523 0
M  V30 5841 H 556.767 0.058086 -0.749753 0
M  V30 5842 H 558.738 -0.629866 -2.91677 0
M  V30 5843 C 557.487 1.1047 -3.29684 0
M  V30 5844 H 556.81 0.547278 -3.96036 0
M  V30 5845 H 558.25 1.58576 -3.9323 0
M  V30 5846 C 556.709 2.17891 -2.56954 0
M  V30 5847 O 557.239 3.25652 -2.35189 0
M  V30 5848 N 555.445 1.93211 -2.17066 0
M  V30 5849 H 554.992 1.05584 -2.34967 0
M  V30 5850 H 554.95 2.6529 -1.68727 0
M  V30 5851 N 558.722 1.53707 -0.348139 0
M  V30 5852 C 559.632 2.28881 0.514857 0
M  V30 5853 C 560.648 1.34168 1.10793 0
M  V30 5854 O 561.824 1.6721 1.12262 0
M  V30 5855 C 558.889 3.05042 1.64774 0
M  V30 5856 C 557.95 4.15389 1.08398 0
M  V30 5857 C 557.183 4.87909 2.16287 0
M  V30 5858 O 557.406 4.60137 3.3709 0
M  V30 5859 O 556.34 5.74254 1.80323 0
M  V30 5860 H 560.166 3.03547 -0.0963699 0
M  V30 5861 H 557.751 1.48972 -0.113043 0
M  V30 5862 H 559.633 3.52656 2.30677 0
M  V30 5863 H 558.308 2.33228 2.24469 0
M  V30 5864 H 557.215 3.72068 0.389341 0
M  V30 5865 H 558.548 4.89318 0.531829 0
M  V30 5866 N 560.2 0.0768682 1.57412 0
M  V30 5867 C 561.44 -0.594676 1.95558 0
M  V30 5868 C 561.804 -1.66469 0.956658 0
M  V30 5869 O 563.005 -2.39215 1.22595 0
M  V30 5870 C 561.276 -1.15206 3.38323 0
M  V30 5871 S 562.835 -1.83803 3.9845 0
M  V30 5872 H 559.653 -0.194579 0.683857 0
M  V30 5873 H 562.255 0.151933 1.94909 0
M  V30 5874 H 560.959 -0.36153 4.08805 0
M  V30 5875 H 560.49 -1.93491 3.42527 0
M  V30 5876 H 562.505 -3.12087 3.85767 0
M  V30 5877 N 561.678 -1.56367 -0.196722 0
M  V30 5878 C 562.906 -1.84639 -0.933608 0
M  V30 5879 C 563.321 -0.659164 -1.76919 0
M  V30 5880 O 562.678 0.372142 -1.78665 0
M  V30 5881 C 562.729 -3.11694 -1.83109 0
M  V30 5882 O 562.45 -4.25838 -1.02924 0
M  V30 5883 C 563.951 -3.53132 -2.67979 0
M  V30 5884 H 561.171 -0.613188 -0.272473 0
M  V30 5885 H 563.715 -2.03475 -0.204465 0
M  V30 5886 H 561.87 -2.94759 -2.51387 0
M  V30 5887 H 562.284 -4.98178 -1.64069 0
M  V30 5888 H 563.758 -4.45005 -3.26611 0
M  V30 5889 H 564.235 -2.76045 -3.41608 0
M  V30 5890 H 564.841 -3.72592 -2.05074 0
M  V30 5891 N 563.156 0.464375 -1.50603 0
M  V30 5892 C 564.384 1.23907 -1.65695 0
M  V30 5893 C 564.799 1.85658 -0.343027 0
M  V30 5894 O 564.156 1.69529 0.675739 0
M  V30 5895 C 564.207 2.3429 -2.75301 0
M  V30 5896 O 563.928 1.7507 -4.01599 0
M  V30 5897 C 565.429 3.25051 -3.01424 0
M  V30 5898 H 562.649 0.374485 -0.556778 0
M  V30 5899 H 565.193 0.55353 -1.96866 0
M  V30 5900 H 563.348 2.98607 -2.46804 0
M  V30 5901 H 563.762 2.47812 -4.62266 0
M  V30 5902 H 565.236 3.98699 -3.81763 0
M  V30 5903 H 565.713 3.84227 -2.12758 0
M  V30 5904 H 566.319 2.66463 -3.31477 0
M  V30 5905 N 564.634 1.40294 0.718013 0
M  V30 5906 C 565.581 1.40367 1.8321 0
M  V30 5907 C 566.551 0.260952 1.64037 0
M  V30 5908 O 567.736 0.458648 1.85205 0
M  V30 5909 C 564.876 1.26965 3.20895 0
M  V30 5910 C 563.989 2.50922 3.51656 0
M  V30 5911 C 563.124 2.29981 4.78834 0
M  V30 5912 C 562.163 3.49527 5.02491 0
M  V30 5913 N 561.3 3.27796 6.20882 0
M  V30 5914 H 566.14 2.35593 1.82482 0
M  V30 5915 H 563.677 1.17012 0.891444 0
M  V30 5916 H 565.635 1.17202 4.00399 0
M  V30 5917 H 564.265 0.353591 3.20858 0
M  V30 5918 H 563.317 2.71223 2.66725 0
M  V30 5919 H 564.629 3.39913 3.65048 0
M  V30 5920 H 563.783 2.17558 5.66351 0
M  V30 5921 H 562.522 1.38411 4.67647 0
M  V30 5922 H 561.527 3.6243 4.1343 0
M  V30 5923 H 562.752 4.42021 5.15553 0
M  V30 5924 H 560.698 2.38906 6.1095 0
M  V30 5925 H 560.615 4.10351 6.34939 0
M  V30 5926 H 561.883 3.19101 7.11193 0
M  V30 5927 N 566.112 -0.949982 1.2575 0
M  V30 5928 C 567.361 -1.68956 1.10168 0
M  V30 5929 C 567.674 -1.92327 -0.356309 0
M  V30 5930 O 568.88 -2.64026 -0.632657 0
M  V30 5931 C 567.336 -3.04196 1.92336 0
M  V30 5932 C 566.944 -2.88603 3.42655 0
M  V30 5933 C 568.688 -3.81904 1.85336 0
M  V30 5934 C 566.595 -4.19262 4.17101 0
M  V30 5935 H 565.525 -0.633645 0.408668 0
M  V30 5936 H 568.176 -1.05719 1.49986 0
M  V30 5937 H 566.558 -3.68363 1.45344 0
M  V30 5938 H 567.732 -2.3334 3.97353 0
M  V30 5939 H 566.047 -2.24345 3.50796 0
M  V30 5940 H 568.644 -4.78688 2.38248 0
M  V30 5941 H 568.987 -4.08099 0.822226 0
M  V30 5942 H 569.52 -3.24495 2.30104 0
M  V30 5943 H 566.259 -3.98254 5.20648 0
M  V30 5944 H 565.779 -4.74273 3.67186 0
M  V30 5945 H 567.458 -4.87775 4.25071 0
M  V30 5946 N 567.59 -1.07411 -1.15328 0
M  V30 5947 C 568.537 -0.694995 -2.20087 0
M  V30 5948 C 569.507 0.313904 -1.63107 0
M  V30 5949 O 570.692 0.200216 -1.89747 0
M  V30 5950 C 567.832 -0.0996218 -3.44956 0
M  V30 5951 C 566.945 -1.16007 -4.16133 0
M  V30 5952 C 566.08 -0.529636 -5.28553 0
M  V30 5953 C 565.119 -1.57283 -5.91548 0
M  V30 5954 N 564.256 -0.964932 -6.95438 0
M  V30 5955 H 569.096 -1.5927 -2.51867 0
M  V30 5956 H 566.633 -0.796115 -1.23695 0
M  V30 5957 H 568.591 0.263197 -4.16369 0
M  V30 5958 H 567.221 0.761435 -3.13691 0
M  V30 5959 H 566.273 -1.64045 -3.4321 0
M  V30 5960 H 567.585 -1.95101 -4.59061 0
M  V30 5961 H 566.739 -0.114487 -6.06592 0
M  V30 5962 H 565.478 0.29307 -4.86819 0
M  V30 5963 H 564.483 -1.99775 -5.12221 0
M  V30 5964 H 565.708 -2.39783 -6.35359 0
M  V30 5965 H 563.654 -0.16314 -6.55797 0
M  V30 5966 H 563.571 -1.69311 -7.36797 0
M  V30 5967 H 564.839 -0.575305 -7.77374 0
M  V30 5968 N 569.068 1.32177 -0.85831 0
M  V30 5969 C 570.479 1.79381 -0.517621 0
M  V30 5970 C 570.83 1.70841 0.964769 0
M  V30 5971 O 569.955 1.26917 1.75274 0
M  V30 5972 C 570.55 3.25706 -0.932801 0
M  V30 5973 C 569.109 3.70851 -0.643953 0
M  V30 5974 C 568.256 2.53208 -1.13054 0
M  V30 5975 H 571.207 1.19424 -1.04516 0
M  V30 5976 H 571.228 3.79673 -0.250674 0
M  V30 5977 H 570.74 3.31889 -2.01174 0
M  V30 5978 H 568.841 3.70178 0.424112 0
M  V30 5979 H 568.954 4.63495 -1.21281 0
M  V30 5980 H 567.318 2.48676 -0.550679 0
M  V30 5981 H 568.101 2.62143 -2.21666 0
M  V30 5982 N 570.547 0.616602 1.45037 0
M  V30 5983 C 571.963 0.280994 1.57107 0
M  V30 5984 C 572.163 -1.21627 1.60653 0
M  V30 5985 O 571.219 -1.9997 1.54169 0
M  V30 5986 C 572.532 0.960116 2.8496 0
M  V30 5987 C 574.08 0.936884 2.98649 0
M  V30 5988 C 574.555 1.59619 4.29285 0
M  V30 5989 N 576.046 1.5621 4.36065 0
M  V30 5990 C 576.781 2.04131 5.35834 0
M  V30 5991 N 576.277 2.60177 6.4209 0
M  V30 5992 N 578.07 1.94845 5.27249 0
M  V30 5993 H 570.221 1.58867 1.40979 0
M  V30 5994 H 572.484 0.666024 0.674623 0
M  V30 5995 H 572.19 2.01473 2.88273 0
M  V30 5996 H 572.064 0.488921 3.74018 0
M  V30 5997 H 574.451 -0.109209 2.94898 0
M  V30 5998 H 574.532 1.44643 2.10979 0
M  V30 5999 H 574.176 2.64166 4.33796 0
M  V30 6000 H 574.106 1.06159 5.15789 0
M  V30 6001 H 576.597 1.15276 3.59889 0
M  V30 6002 H 576.91 2.94513 7.1448 0
M  V30 6003 H 575.255 2.64221 6.42816 0
M  V30 6004 H 578.446 1.50792 4.43147 0
M  V30 6005 H 578.619 2.32504 6.04852 0
M  V30 6006 N 572.025 -1.5352 0.356285 0
M  V30 6007 C 573.274 -2.00298 -0.237373 0
M  V30 6008 C 573.587 -1.24784 -1.50627 0
M  V30 6009 O 574.793 -1.62103 -2.17795 0
M  V30 6010 C 573.249 -3.56771 -0.473545 0
M  V30 6011 C 572.857 -4.41154 0.780183 0
M  V30 6012 C 574.601 -4.1193 -1.02537 0
M  V30 6013 C 572.508 -5.89161 0.514108 0
M  V30 6014 H 571.438 -0.748307 -0.092478 0
M  V30 6015 H 574.089 -1.77283 0.473588 0
M  V30 6016 H 572.471 -3.75902 -1.24553 0
M  V30 6017 H 573.645 -4.33797 1.55425 0
M  V30 6018 H 571.96 -3.97052 1.25455 0
M  V30 6019 H 574.557 -5.20133 -1.2396 0
M  V30 6020 H 574.9 -3.65943 -1.98473 0
M  V30 6021 H 575.433 -3.96561 -0.313775 0
M  V30 6022 H 572.172 -6.39408 1.44355 0
M  V30 6023 H 571.692 -5.9939 -0.221632 0
M  V30 6024 H 573.371 -6.46857 0.136122 0
M  V30 6025 N 573.503 -0.0852151 -1.57369 0
M  V30 6026 C 574.749 0.581666 -1.94279 0
M  V30 6027 C 575.082 1.68444 -0.966446 0
M  V30 6028 O 574.357 1.945 0.00215277 0
M  V30 6029 C 574.64 1.14609 -3.41375 0
M  V30 6030 C 574.493 0.0490414 -4.49773 0
M  V30 6031 C 575.812 2.04751 -3.8957 0
M  V30 6032 H 572.931 0.209972 -0.706456 0
M  V30 6033 H 575.573 -0.153915 -1.89376 0
M  V30 6034 H 573.723 1.77297 -3.45685 0
M  V30 6035 H 575.395 -0.584721 -4.57579 0
M  V30 6036 H 573.638 -0.618638 -4.29366 0
M  V30 6037 H 574.309 0.484601 -5.49869 0
M  V30 6038 H 576.785 1.51981 -3.87351 0
M  V30 6039 H 575.661 2.41173 -4.93079 0
M  V30 6040 H 575.922 2.96107 -3.28288 0
M  V30 6041 N 574.981 1.5647 0.188427 0
M  V30 6042 C 576.229 1.80655 0.905986 0
M  V30 6043 C 576.55 0.659391 1.83513 0
M  V30 6044 O 575.82 -0.321868 1.93238 0
M  V30 6045 H 574.4 0.666391 0.337538 0
M  V30 6046 H 577.062 1.93949 0.192339 0
M  V30 6047 H 576.158 2.74066 1.49313 0
M  V30 6048 N 576.459 -0.456382 1.50847 0
M  V30 6049 C 577.707 -1.20497 1.62249 0
M  V30 6050 C 578.028 -1.92156 0.331839 0
M  V30 6051 O 577.298 -1.84751 -0.651443 0
M  V30 6052 H 575.878 -0.447775 0.597918 0
M  V30 6053 H 578.54 -0.525099 1.87693 0
M  V30 6054 H 577.636 -1.94492 2.44089 0
M  V30 6055 N 577.937 -1.40673 -0.710563 0
M  V30 6056 C 579.165 -1.42547 -1.4996 0
M  V30 6057 C 579.58 -0.0265485 -1.88781 0
M  V30 6058 O 578.937 0.950694 -1.55782 0
M  V30 6059 C 578.988 -2.32071 -2.77173 0
M  V30 6060 O 578.709 -3.66518 -2.39992 0
M  V30 6061 C 580.21 -2.42591 -3.71032 0
M  V30 6062 H 577.43 -0.486025 -0.462623 0
M  V30 6063 H 579.974 -1.84783 -0.876102 0
M  V30 6064 H 578.129 -1.93184 -3.35795 0
M  V30 6065 H 578.543 -4.14115 -3.21884 0
M  V30 6066 H 580.017 -3.09429 -4.57119 0
M  V30 6067 H 580.494 -1.4525 -4.14486 0
M  V30 6068 H 581.1 -2.82051 -3.18319 0
M  V30 6069 N 579.415 0.9433 -1.26252 0
M  V30 6070 C 580.378 2.02326 -1.07689 0
M  V30 6071 C 581.378 1.60779 -0.0259174 0
M  V30 6072 O 582.568 1.72108 -0.269134 0
M  V30 6073 C 579.7 3.34886 -0.63752 0
M  V30 6074 H 580.893 2.20225 -2.0357 0
M  V30 6075 H 578.446 1.12197 -1.08819 0
M  V30 6076 H 579.181 3.22684 0.323377 0
M  V30 6077 H 578.966 3.66393 -1.39637 0
M  V30 6078 H 580.456 4.14231 -0.529418 0
M  V30 6079 N 580.893 1.08022 1.14757 0
M  V30 6080 C 582.118 0.82895 1.90114 0
M  V30 6081 C 582.543 -0.612772 1.77839 0
M  V30 6082 O 581.901 -1.42895 1.11583 0
M  V30 6083 C 581.949 1.25062 3.38219 0
M  V30 6084 O 581.053 0.400119 4.10454 0
M  V30 6085 H 580.394 0.301412 0.591648 0
M  V30 6086 H 582.924 1.44062 1.45284 0
M  V30 6087 H 582.934 1.22977 3.89025 0
M  V30 6088 H 581.609 2.30067 3.46471 0
M  V30 6089 H 580.186 0.484052 3.69745 0
M  V30 6090 N 582.371 -1.3172 0.865308 0
M  V30 6091 C 583.617 -1.97168 0.474633 0
M  V30 6092 C 583.95 -1.68263 -0.969604 0
M  V30 6093 O 583.225 -0.976588 -1.68205 0
M  V30 6094 C 583.508 -3.52689 0.726808 0
M  V30 6095 C 583.361 -3.91185 2.22024 0
M  V30 6096 C 584.68 -4.39689 0.190201 0
M  V30 6097 H 581.799 -0.716185 0.17392 0
M  V30 6098 H 584.441 -1.55925 1.08569 0
M  V30 6099 H 582.591 -3.8795 0.206705 0
M  V30 6100 H 584.263 -3.66049 2.80724 0
M  V30 6101 H 582.506 -3.3996 2.69462 0
M  V30 6102 H 583.177 -4.99604 2.34735 0
M  V30 6103 H 585.653 -4.11225 0.635103 0
M  V30 6104 H 584.529 -5.47469 0.396132 0
M  V30 6105 H 584.79 -4.32683 -0.907625 0
M  V30 6106 N 583.85 -0.624285 -1.44708 0
M  V30 6107 C 585.266 -0.289322 -1.56956 0
M  V30 6108 C 585.466 1.20773 -1.61295 0
M  V30 6109 O 584.522 1.9915 -1.55227 0
M  V30 6110 C 585.835 -0.975215 -2.84447 0
M  V30 6111 C 587.383 -0.952709 -2.98148 0
M  V30 6112 C 587.858 -1.61893 -4.28433 0
M  V30 6113 N 589.349 -1.5852 -4.35231 0
M  V30 6114 C 590.084 -2.06969 -5.34744 0
M  V30 6115 N 589.58 -2.63579 -6.40701 0
M  V30 6116 N 591.373 -1.97638 -5.26209 0
M  V30 6117 H 583.524 -1.59612 -1.40135 0
M  V30 6118 H 585.787 -0.669592 -0.671081 0
M  V30 6119 H 585.493 -2.02999 -2.87201 0
M  V30 6120 H 585.367 -0.508749 -3.73753 0
M  V30 6121 H 587.754 0.093568 -2.94952 0
M  V30 6122 H 587.835 -1.4576 -2.10209 0
M  V30 6123 H 587.479 -2.66463 -4.32389 0
M  V30 6124 H 587.409 -1.08893 -5.15218 0
M  V30 6125 H 589.899 -1.17183 -3.59272 0
M  V30 6126 H 590.213 -2.98298 -7.12908 0
M  V30 6127 H 588.558 -2.67626 -6.41406 0
M  V30 6128 H 591.749 -1.5314 -4.42341 0
M  V30 6129 H 591.922 -2.35708 -6.03611 0
M  V30 6130 N 585.328 1.53329 -0.364422 0
M  V30 6131 C 586.576 2.00842 0.225189 0
M  V30 6132 C 586.897 1.25345 1.49378 0
M  V30 6133 O 586.167 0.366396 1.92443 0
M  V30 6134 H 584.747 0.742009 0.0862027 0
M  V30 6135 H 587.409 1.8863 -0.490389 0
M  V30 6136 H 586.505 3.08795 0.452987 0
M  V30 6137 N 586.806 0.0935595 1.57322 0
M  V30 6138 C 587.716 -0.880192 2.17462 0
M  V30 6139 C 588.732 -1.31135 1.14366 0
M  V30 6140 O 589.908 -1.37958 1.46729 0
M  V30 6141 C 586.973 -2.12184 2.74188 0
M  V30 6142 C 586.034 -1.74503 3.92234 0
M  V30 6143 C 585.267 -2.92748 4.46245 0
M  V30 6144 O 585.49 -4.07427 3.99198 0
M  V30 6145 O 584.424 -2.71303 5.37288 0
M  V30 6146 H 588.25 -0.398516 3.01074 0
M  V30 6147 H 585.835 -0.130707 1.48827 0
M  V30 6148 H 587.717 -2.84953 3.10451 0
M  V30 6149 H 586.392 -2.59407 1.93623 0
M  V30 6150 H 585.299 -0.989186 3.60785 0
M  V30 6151 H 586.632 -1.32044 4.74157 0
M  V30 6152 N 588.284 -1.56567 -0.180126 0
M  V30 6153 C 589.53 -1.82658 -0.894859 0
M  V30 6154 C 589.885 -0.672826 -1.80252 0
M  V30 6155 O 589.178 0.331227 -1.88715 0
M  V30 6156 C 589.372 -3.1252 -1.73395 0
M  V30 6157 C 589.201 -4.40417 -0.909028 0
M  V30 6158 C 587.971 -5.01872 -0.587562 0
M  V30 6159 C 590.169 -5.13669 -0.254698 0
M  V30 6160 N 588.151 -6.13373 0.254428 0
M  V30 6161 C 589.522 -6.18373 0.448837 0
M  V30 6162 C 591.577 -4.97603 -0.171958 0
M  V30 6163 C 590.28 -7.08753 1.22725 0
M  V30 6164 C 592.306 -5.88418 0.593101 0
M  V30 6165 C 591.668 -6.92579 1.28503 0
M  V30 6166 H 587.767 -0.719493 -0.306356 0
M  V30 6167 H 590.351 -1.94021 -0.16247 0
M  V30 6168 H 588.522 -3.02365 -2.43783 0
M  V30 6169 H 590.254 -3.2664 -2.38931 0
M  V30 6170 H 587.009 -4.64666 -0.915557 0
M  V30 6171 H 587.433 -6.73721 0.665474 0
M  V30 6172 H 592.075 -4.17089 -0.692555 0
M  V30 6173 H 589.793 -7.88718 1.75923 0
M  V30 6174 H 593.379 -5.78059 0.658674 0
M  V30 6175 H 592.259 -7.61638 1.86754 0
M  V30 6176 N 589.762 0.448376 -1.51087 0
M  V30 6177 C 591.173 1.0286 -1.5581 0
M  V30 6178 C 591.524 1.92583 -0.374989 0
M  V30 6179 O 590.649 2.10316 0.509533 0
M  V30 6180 C 591.244 1.87223 -2.8237 0
M  V30 6181 C 589.803 2.40314 -2.897 0
M  V30 6182 C 588.95 1.19238 -2.50355 0
M  V30 6183 H 591.901 0.230075 -1.57023 0
M  V30 6184 H 591.922 2.72553 -2.6551 0
M  V30 6185 H 591.434 1.21894 -3.68461 0
M  V30 6186 H 589.535 3.09129 -2.08014 0
M  V30 6187 H 589.648 2.73866 -3.93108 0
M  V30 6188 H 588.012 1.53428 -2.03303 0
M  V30 6189 H 588.795 0.555367 -3.38778 0
M  V30 6190 N 591.24 1.41047 0.703093 0
M  V30 6191 C 592.486 1.41209 1.46396 0
M  V30 6192 C 592.841 0.0180188 1.92392 0
M  V30 6193 O 592.134 -0.954739 1.66118 0
M  V30 6194 C 592.328 2.34686 2.6955 0
M  V30 6195 C 592.157 3.83044 2.35601 0
M  V30 6196 C 590.927 4.51777 2.26331 0
M  V30 6197 C 593.125 4.74215 1.9906 0
M  V30 6198 N 591.107 5.85302 1.85188 0
M  V30 6199 C 592.478 5.96631 1.68616 0
M  V30 6200 C 594.533 4.61932 1.85805 0
M  V30 6201 C 593.236 7.08134 1.26249 0
M  V30 6202 C 595.262 5.73389 1.44842 0
M  V30 6203 C 594.624 6.94899 1.15304 0
M  V30 6204 H 590.723 0.571951 0.533288 0
M  V30 6205 H 593.307 1.76859 0.814179 0
M  V30 6206 H 591.478 2.01143 3.32259 0
M  V30 6207 H 593.21 2.25618 3.35974 0
M  V30 6208 H 589.965 4.05618 2.44482 0
M  V30 6209 H 590.389 6.56049 1.67119 0
M  V30 6210 H 595.031 3.68494 2.07298 0
M  V30 6211 H 592.749 8.01445 1.035 0
M  V30 6212 H 596.335 5.65886 1.35146 0
M  V30 6213 H 595.215 7.79679 0.840854 0
M  V30 6214 N 592.718 -0.936591 1.26751 0
M  V30 6215 C 593.65 -2.03991 1.045 0
M  V30 6216 C 594.663 -1.628 0.00394261 0
M  V30 6217 O 595.852 -1.76817 0.244526 0
M  V30 6218 C 592.952 -3.34218 0.561403 0
M  V30 6219 C 592.125 -4.04151 1.67274 0
M  V30 6220 C 591.184 -5.12651 1.1864 0
M  V30 6221 O 590.21 -5.37104 1.88437 0
M  V30 6222 N 591.412 -5.80488 0.037278 0
M  V30 6223 H 594.177 -2.23644 1.99508 0
M  V30 6224 H 591.738 -1.10638 1.18198 0
M  V30 6225 H 593.73 -4.04101 0.220136 0
M  V30 6226 H 592.3 -3.11203 -0.295211 0
M  V30 6227 H 591.52 -3.28121 2.18472 0
M  V30 6228 H 592.808 -4.47626 2.41885 0
M  V30 6229 H 592.206 -5.63064 -0.545494 0
M  V30 6230 H 590.763 -6.5134 -0.244877 0
M  V30 6231 N 594.196 -1.08629 -1.14182 0
M  V30 6232 C 595.442 -0.818556 -1.85546 0
M  V30 6233 C 595.775 0.654076 -1.82854 0
M  V30 6234 O 595.05 1.48099 -1.26083 0
M  V30 6235 C 595.333 -1.34397 -3.3408 0
M  V30 6236 C 595.186 -2.8821 -3.45333 0
M  V30 6237 C 596.505 -0.971069 -4.29253 0
M  V30 6238 H 593.624 -0.298821 -0.673702 0
M  V30 6239 H 596.266 -1.34629 -1.34071 0
M  V30 6240 H 594.416 -0.895064 -3.78049 0
M  V30 6241 H 596.088 -3.41488 -3.10134 0
M  V30 6242 H 594.331 -3.25756 -2.86471 0
M  V30 6243 H 595.002 -3.20047 -4.49749 0
M  V30 6244 H 597.478 -1.35809 -3.93313 0
M  V30 6245 H 596.354 -1.36586 -5.31635 0
M  V30 6246 H 596.615 0.121659 -4.41933 0
M  V30 6247 N 595.674 1.31259 -0.872281 0
M  V30 6248 C 596.902 2.00795 -0.498907 0
M  V30 6249 C 597.317 1.65464 0.909238 0
M  V30 6250 O 596.674 0.885073 1.59602 0
M  V30 6251 C 596.725 3.55625 -0.649092 0
M  V30 6252 O 596.446 3.89692 -2.00179 0
M  V30 6253 C 597.947 4.42434 -0.277034 0
M  V30 6254 H 595.167 0.642299 -0.194145 0
M  V30 6255 H 597.711 1.67438 -1.17408 0
M  V30 6256 H 595.866 3.87394 -0.0214402 0
M  V30 6257 H 596.28 4.84407 -2.01122 0
M  V30 6258 H 597.754 5.50299 -0.433064 0
M  V30 6259 H 598.231 4.32146 0.783989 0
M  V30 6260 H 598.837 4.16086 -0.880483 0
M  V30 6261 N 597.152 0.631951 1.44375 0
M  V30 6262 C 598.082 -0.0593243 2.33425 0
M  V30 6263 C 599.063 -0.833964 1.48253 0
M  V30 6264 O 600.248 -0.799682 1.76971 0
M  V30 6265 C 597.378 -1.04096 3.31333 0
M  V30 6266 C 596.332 -0.377899 4.26328 0
M  V30 6267 C 595.658 -1.4695 5.14111 0
M  V30 6268 C 596.958 0.716371 5.17364 0
M  V30 6269 H 598.652 0.684287 2.91475 0
M  V30 6270 H 596.198 0.330518 1.40156 0
M  V30 6271 H 598.151 -1.53331 3.92514 0
M  V30 6272 H 596.875 -1.81547 2.71493 0
M  V30 6273 H 595.534 0.0938054 3.6648 0
M  V30 6274 H 595.182 -2.2349 4.50623 0
M  V30 6275 H 594.882 -1.03121 5.78481 0
M  V30 6276 H 596.406 -1.96363 5.78164 0
M  V30 6277 H 597.82 0.307089 5.72477 0
M  V30 6278 H 596.217 1.07784 5.90341 0
M  V30 6279 H 597.287 1.58316 4.58327 0
M  V30 6280 N 598.631 -1.53133 0.372548 0
M  V30 6281 C 599.581 -2.22733 -0.487218 0
M  V30 6282 C 600.565 -1.22506 -1.04312 0
M  V30 6283 O 601.757 -1.47923 -0.972005 0
M  V30 6284 C 598.886 -3.02524 -1.62278 0
M  V30 6285 C 597.972 -4.10133 -1.07943 0
M  V30 6286 N 598.363 -5.05133 -0.259629 0
M  V30 6287 C 596.661 -4.24964 -1.35356 0
M  V30 6288 C 597.362 -5.81687 0.0386656 0
M  V30 6289 N 596.338 -5.40699 -0.560827 0
M  V30 6290 H 600.14 -2.93538 0.145853 0
M  V30 6291 H 597.654 -1.61389 0.180938 0
M  V30 6292 H 599.651 -3.50909 -2.25096 0
M  V30 6293 H 598.311 -2.33252 -2.25884 0
M  V30 6294 H 599.322 -5.178 0.101746 0
M  V30 6295 H 595.999 -3.66919 -1.9919 0
M  V30 6296 H 597.389 -6.68224 0.701841 0
M  V30 6297 N 600.109 -0.101901 -1.5727 0
M  V30 6298 C 601.337 0.568392 -1.98939 0
M  V30 6299 C 601.752 1.61301 -0.981194 0
M  V30 6300 O 601.109 1.82478 0.0282869 0
M  V30 6301 C 601.16 1.20997 -3.40649 0
M  V30 6302 O 600.881 0.207129 -4.3761 0
M  V30 6303 C 602.382 1.96523 -3.97358 0
M  V30 6304 H 599.602 0.15186 -0.65359 0
M  V30 6305 H 602.146 -0.183198 -2.03678 0
M  V30 6306 H 600.301 1.91245 -3.36904 0
M  V30 6307 H 600.715 0.671071 -5.20189 0
M  V30 6308 H 602.189 2.36764 -4.98645 0
M  V30 6309 H 602.666 2.83376 -3.35552 0
M  V30 6310 H 603.272 1.31076 -4.04598 0
M  V30 6311 N 601.587 1.56661 0.17182 0
M  V30 6312 C 602.815 1.861 0.904115 0
M  V30 6313 C 603.23 0.687227 1.75848 0
M  V30 6314 O 602.587 -0.343671 1.79235 0
M  V30 6315 C 602.638 3.14568 1.78127 0
M  V30 6316 O 602.359 4.27422 0.961366 0
M  V30 6317 C 603.86 3.5735 2.62327 0
M  V30 6318 H 601.08 0.617445 0.262684 0
M  V30 6319 H 603.624 2.03775 0.172068 0
M  V30 6320 H 601.779 2.98721 2.46666 0
M  V30 6321 H 602.193 5.00725 1.56123 0
M  V30 6322 H 603.667 4.50144 3.1949 0
M  V30 6323 H 604.144 2.81445 3.37173 0
M  V30 6324 H 604.75 3.75807 1.99121 0
M  V30 6325 N 603.065 -0.440357 1.51323 0
M  V30 6326 C 604.29 -1.21716 1.67928 0
M  V30 6327 C 604.715 -1.84328 0.374826 0
M  V30 6328 O 604.073 -1.68675 -0.664706 0
M  V30 6329 C 604.121 -2.27914 2.79442 0
M  V30 6330 O 603.225 -3.33325 2.42834 0
M  V30 6331 H 602.566 -0.35674 0.560029 0
M  V30 6332 H 605.096 -0.520417 1.97871 0
M  V30 6333 H 605.106 -2.72746 3.03436 0
M  V30 6334 H 603.781 -1.8172 3.741 0
M  V30 6335 H 602.358 -2.9399 2.294 0
M  V30 6336 N 604.543 -1.41418 -0.695603 0
M  V30 6337 C 605.954 -1.36335 -1.27552 0
M  V30 6338 C 606.305 -0.0464336 -1.96145 0
M  V30 6339 O 605.43 0.855304 -1.9878 0
M  V30 6340 C 606.025 -2.46941 -2.3196 0
M  V30 6341 C 604.584 -2.45256 -2.85529 0
M  V30 6342 C 603.731 -2.2679 -1.59566 0
M  V30 6343 H 606.682 -1.50934 -0.490362 0
M  V30 6344 H 606.703 -2.15997 -3.1325 0
M  V30 6345 H 606.215 -3.42775 -1.82008 0
M  V30 6346 H 604.316 -1.53179 -3.39657 0
M  V30 6347 H 604.429 -3.41565 -3.35961 0
M  V30 6348 H 602.793 -1.74667 -1.85374 0
M  V30 6349 H 603.576 -3.24651 -1.1161 0
M  V30 6350 N 606.021 0.929856 -1.27246 0
M  V30 6351 C 607.249 1.71144 -1.16265 0
M  V30 6352 C 607.664 1.867 0.280786 0
M  V30 6353 O 607.021 1.38249 1.19136 0
M  V30 6354 C 607.072 3.11222 -1.83911 0
M  V30 6355 O 606.793 2.96398 -3.22614 0
M  V30 6356 C 608.294 4.05541 -1.79028 0
M  V30 6357 H 605.514 0.535499 -0.404328 0
M  V30 6358 H 608.058 1.16492 -1.68077 0
M  V30 6359 H 606.213 3.6274 -1.36009 0
M  V30 6360 H 606.627 3.8494 -3.56261 0
M  V30 6361 H 608.101 5.01351 -2.30978 0
M  V30 6362 H 608.578 4.32589 -0.759168 0
M  V30 6363 H 609.184 3.59947 -2.26535 0
M  V30 6364 N 607.499 1.09233 1.13605 0
M  V30 6365 C 608.431 0.687794 2.18637 0
M  V30 6366 C 609.444 -0.26936 1.60556 0
M  V30 6367 O 610.633 -0.0557162 1.78413 0
M  V30 6368 C 607.733 -0.00751901 3.38899 0
M  V30 6369 C 606.906 0.97067 4.26494 0
M  V30 6370 C 605.965 0.309129 5.25291 0
M  V30 6371 O 604.991 0.956149 5.61112 0
M  V30 6372 N 606.193 -0.937555 5.72879 0
M  V30 6373 H 608.958 1.59141 2.53957 0
M  V30 6374 H 606.519 0.979515 1.28907 0
M  V30 6375 H 608.511 -0.461238 4.02063 0
M  V30 6376 H 607.081 -0.813353 3.01833 0
M  V30 6377 H 606.301 1.603 3.60135 0
M  V30 6378 H 607.589 1.63323 4.81875 0
M  V30 6379 H 606.987 -1.48281 5.4592 0
M  V30 6380 H 605.544 -1.33463 6.3799 0
M  V30 6381 N 608.977 -1.30795 0.87923 0
M  V30 6382 C 610.393 -1.48981 0.57243 0
M  V30 6383 C 610.593 -1.80719 -0.891236 0
M  V30 6384 O 609.649 -1.89136 -1.67283 0
M  V30 6385 C 610.962 -2.61721 1.48063 0
M  V30 6386 C 612.51 -2.75603 1.48365 0
M  V30 6387 C 612.985 -3.91449 2.37763 0
M  V30 6388 N 614.476 -3.98751 2.35695 0
M  V30 6389 C 615.211 -4.87684 3.01583 0
M  V30 6390 N 614.707 -5.81454 3.76674 0
M  V30 6391 N 616.5 -4.81005 2.90844 0
M  V30 6392 H 608.651 -1.08465 1.82617 0
M  V30 6393 H 610.914 -0.536813 0.781368 0
M  V30 6394 H 610.62 -2.45073 2.52254 0
M  V30 6395 H 610.494 -3.58071 1.18596 0
M  V30 6396 H 612.881 -2.9166 0.44927 0
M  V30 6397 H 612.962 -1.79891 1.81859 0
M  V30 6398 H 612.606 -3.76149 3.41283 0
M  V30 6399 H 612.536 -4.86487 2.01589 0
M  V30 6400 H 615.027 -3.31668 1.81121 0
M  V30 6401 H 615.34 -6.46063 4.24054 0
M  V30 6402 H 613.685 -5.81403 3.80782 0
M  V30 6403 H 616.876 -4.06728 2.31711 0
M  V30 6404 H 617.049 -5.50107 3.42471 0
M  V30 6405 N 610.455 -0.639598 -1.44038 0
M  V30 6406 C 611.405 0.0823038 -2.27851 0
M  V30 6407 C 612.389 0.807991 -1.39141 0
M  V30 6408 O 613.581 0.692702 -1.62882 0
M  V30 6409 C 610.71 1.05742 -3.26609 0
M  V30 6410 C 609.796 0.330911 -4.22807 0
M  V30 6411 N 610.187 -0.645126 -5.01669 0
M  V30 6412 C 608.485 0.574214 -4.42288 0
M  V30 6413 C 609.186 -1.07513 -5.71678 0
M  V30 6414 N 608.162 -0.412164 -5.42035 0
M  V30 6415 H 611.964 -0.666861 -2.86234 0
M  V30 6416 H 609.478 -0.465777 -1.55577 0
M  V30 6417 H 611.475 1.58927 -3.85419 0
M  V30 6418 H 610.135 1.80679 -2.69787 0
M  V30 6419 H 611.146 -1.02329 -5.0769 0
M  V30 6420 H 607.823 1.30581 -3.96554 0
M  V30 6421 H 609.213 -1.88196 -6.45005 0
M  V30 6422 N 611.933 1.52934 -0.380664 0
M  V30 6423 C 612.863 2.29118 0.450268 0
M  V30 6424 C 613.844 1.32153 1.07096 0
M  V30 6425 O 615.029 1.61038 1.08537 0
M  V30 6426 C 612.159 3.09161 1.58231 0
M  V30 6427 C 611.113 4.13938 1.0881 0
M  V30 6428 C 610.439 4.82153 2.31155 0
M  V30 6429 C 611.739 5.22048 0.162146 0
M  V30 6430 H 613.433 2.98826 -0.185361 0
M  V30 6431 H 610.979 1.43715 -0.0905886 0
M  V30 6432 H 612.932 3.61211 2.17036 0
M  V30 6433 H 611.656 2.3717 2.2454 0
M  V30 6434 H 610.315 3.62855 0.522633 0
M  V30 6435 H 609.963 4.06719 2.95953 0
M  V30 6436 H 609.663 5.52966 1.98752 0
M  V30 6437 H 611.187 5.37004 2.90618 0
M  V30 6438 H 612.601 5.6951 0.658126 0
M  V30 6439 H 610.998 6.00057 -0.0717122 0
M  V30 6440 H 612.068 4.78398 -0.791438 0
M  V30 6441 N 613.412 0.11024 1.57214 0
M  V30 6442 C 614.652 -0.553061 1.96775 0
M  V30 6443 C 615.016 -1.64403 0.991753 0
M  V30 6444 O 616.217 -2.36561 1.27642 0
M  V30 6445 C 614.488 -1.08004 3.4069 0
M  V30 6446 S 616.047 -1.75309 4.02259 0
M  V30 6447 H 612.865 -0.18003 0.68783 0
M  V30 6448 H 615.467 0.193242 1.94543 0
M  V30 6449 H 614.171 -0.274735 4.09479 0
M  V30 6450 H 613.702 -1.86182 3.46554 0
M  V30 6451 H 615.717 -3.03834 3.923 0
M  V30 6452 N 614.89 -1.56749 -0.16351 0
M  V30 6453 C 616.138 -1.82074 -0.87713 0
M  V30 6454 C 616.459 -0.688503 -1.82441 0
M  V30 6455 O 615.729 0.291085 -1.93725 0
M  V30 6456 H 614.309 -0.671677 -0.326893 0
M  V30 6457 H 616.971 -1.9423 -0.161459 0
M  V30 6458 H 616.067 -2.76407 -1.44934 0
M  V30 6459 N 616.368 0.432326 -1.51554 0
M  V30 6460 C 617.616 1.17901 -1.64146 0
M  V30 6461 C 617.937 1.91604 -0.362367 0
M  V30 6462 O 617.207 1.85764 0.621968 0
M  V30 6463 H 615.787 0.438206 -0.604966 0
M  V30 6464 H 618.449 0.495172 -1.88505 0
M  V30 6465 H 617.545 1.90584 -2.47152 0
M  V30 6466 N 617.846 1.41785 0.688094 0
M  V30 6467 C 619.071 1.45117 1.48175 0
M  V30 6468 C 619.496 0.060129 1.88004 0
M  V30 6469 O 618.854 -0.938385 1.55126 0
M  V30 6470 C 618.902 2.37224 2.71583 0
M  V30 6471 O 618.006 1.83443 3.69354 0
M  V30 6472 H 617.347 0.492208 0.445676 0
M  V30 6473 H 619.877 1.86329 0.845145 0
M  V30 6474 H 619.887 2.53353 3.19806 0
M  V30 6475 H 618.562 3.38293 2.41931 0
M  V30 6476 H 617.139 1.76802 3.28322 0
M  V30 6477 N 619.324 -0.923095 1.27737 0
M  V30 6478 C 620.573 -1.66581 1.13727 0
M  V30 6479 C 620.886 -1.9304 -0.315433 0
M  V30 6480 O 622.092 -2.65309 -0.57651 0
M  V30 6481 C 620.548 -3.00047 1.98745 0
M  V30 6482 C 620.156 -2.8127 3.48699 0
M  V30 6483 C 621.9 -3.77887 1.93395 0
M  V30 6484 C 619.807 -4.1032 4.25901 0
M  V30 6485 H 618.737 -0.624834 0.422017 0
M  V30 6486 H 621.388 -1.02514 1.52194 0
M  V30 6487 H 619.77 -3.65197 1.53125 0
M  V30 6488 H 620.944 -2.24859 4.02213 0
M  V30 6489 H 619.259 -2.16854 3.55476 0
M  V30 6490 H 621.856 -4.73526 2.48348 0
M  V30 6491 H 622.199 -4.06264 0.908605 0
M  V30 6492 H 622.732 -3.19541 2.36935 0
M  V30 6493 H 619.471 -3.8712 5.28978 0
M  V30 6494 H 618.991 -4.66377 3.77163 0
M  V30 6495 H 620.67 -4.78648 4.35321 0
M  V30 6496 N 620.802 -1.09834 -1.13024 0
M  V30 6497 C 622.051 -0.831806 -1.83749 0
M  V30 6498 C 622.364 0.644763 -1.84668 0
M  V30 6499 O 623.57 1.02697 -2.51327 0
M  V30 6500 C 622.026 -1.43817 -3.29916 0
M  V30 6501 C 621.634 -2.94759 -3.37374 0
M  V30 6502 C 623.378 -1.25077 -4.05655 0
M  V30 6503 C 621.285 -3.48461 -4.77838 0
M  V30 6504 H 620.215 -0.30751 -0.688443 0
M  V30 6505 H 622.866 -1.32156 -1.27307 0
M  V30 6506 H 621.248 -0.876106 -3.86187 0
M  V30 6507 H 622.422 -3.57228 -2.91076 0
M  V30 6508 H 620.737 -3.12581 -2.75103 0
M  V30 6509 H 623.334 -1.62649 -5.09362 0
M  V30 6510 H 623.677 -0.191782 -4.15858 0
M  V30 6511 H 624.21 -1.78057 -3.55725 0
M  V30 6512 H 620.949 -4.53998 -4.72828 0
M  V30 6513 H 620.469 -2.90757 -5.24615 0
M  V30 6514 H 622.148 -3.45914 -5.46766 0
M  V30 6515 N 622.28 1.30327 -0.886154 0
M  V30 6516 C 623.528 1.9571 -0.504195 0
M  V30 6517 C 623.849 1.70294 0.950003 0
M  V30 6518 O 623.119 1.02718 1.66811 0
M  V30 6519 H 621.699 0.72412 -0.183465 0
M  V30 6520 H 624.361 1.58835 -1.12949 0
M  V30 6521 H 623.457 3.04704 -0.675431 0
M  V30 6522 N 623.758 0.647228 1.43697 0
M  V30 6523 C 624.706 -0.0600105 2.32523 0
M  V30 6524 C 625.7 -0.819277 1.48271 0
M  V30 6525 O 626.906 -0.730356 1.64517 0
M  V30 6526 H 623.281 -0.0381872 0.75103 0
M  V30 6527 H 625.252 0.706978 2.89904 0
M  V30 6528 C 624.001 -1.0169 3.32497 0
M  V30 6529 H 623.324 -0.442083 3.97348 0
M  V30 6530 H 624.764 -1.48095 3.97296 0
M  V30 6531 C 623.223 -2.11002 2.6264 0
M  V30 6532 O 623.753 -3.19302 2.4374 0
M  V30 6533 N 621.959 -1.87388 2.22113 0
M  V30 6534 H 621.506 -0.993174 2.37684 0
M  V30 6535 H 621.464 -2.60723 1.75701 0
M  V30 6536 N 625.236 -1.5273 0.388769 0
M  V30 6537 C 626.168 -2.24081 -0.481704 0
M  V30 6538 C 627.181 -1.26307 -1.02715 0
M  V30 6539 O 628.37 -1.52386 -0.929565 0
M  V30 6540 C 625.47 -2.94315 -1.68024 0
M  V30 6541 C 624.643 -4.18791 -1.26226 0
M  V30 6542 C 623.702 -4.72028 -2.32542 0
M  V30 6543 O 622.728 -5.35129 -1.93972 0
M  V30 6544 N 623.93 -4.51838 -3.64448 0
M  V30 6545 H 626.695 -2.9942 0.129591 0
M  V30 6546 H 624.256 -1.60465 0.2151 0
M  V30 6547 H 626.248 -3.26831 -2.38671 0
M  V30 6548 H 624.818 -2.22287 -2.19789 0
M  V30 6549 H 624.038 -3.92318 -0.384703 0
M  V30 6550 H 625.326 -4.99668 -0.959647 0
M  V30 6551 H 624.724 -4.01468 -3.98547 0
M  V30 6552 H 623.281 -4.88845 -4.31131 0
M  V30 6553 N 626.714 -0.118576 -1.57153 0
M  V30 6554 C 627.96 0.534078 -1.96263 0
M  V30 6555 C 628.315 1.64316 -1.0009 0
M  V30 6556 O 627.608 1.91575 -0.0308582 0
M  V30 6557 C 627.802 1.11303 -3.39627 0
M  V30 6558 C 627.631 0.0615624 -4.49658 0
M  V30 6559 C 626.401 -0.370103 -5.03943 0
M  V30 6560 C 628.599 -0.719249 -5.09246 0
M  V30 6561 N 626.581 -1.40738 -5.9755 0
M  V30 6562 C 627.952 -1.60774 -5.98792 0
M  V30 6563 C 630.007 -0.770183 -4.91907 0
M  V30 6564 C 628.71 -2.54272 -6.72858 0
M  V30 6565 C 630.736 -1.69288 -5.66653 0
M  V30 6566 C 630.098 -2.56894 -6.55885 0
M  V30 6567 H 626.197 0.165072 -0.764379 0
M  V30 6568 H 628.781 -0.206596 -1.93601 0
M  V30 6569 H 626.952 1.82342 -3.42937 0
M  V30 6570 H 628.684 1.72996 -3.65861 0
M  V30 6571 H 625.439 0.0222121 -4.73595 0
M  V30 6572 H 625.863 -1.92493 -6.49057 0
M  V30 6573 H 630.505 -0.106999 -4.22665 0
M  V30 6574 H 628.223 -3.21605 -7.41347 0
M  V30 6575 H 631.809 -1.73772 -5.55243 0
M  V30 6576 H 630.689 -3.27131 -7.1271 0
M  V30 6577 N 628.193 1.56834 0.155195 0
M  V30 6578 C 629.442 1.82088 0.867567 0
M  V30 6579 C 629.755 0.69849 1.82703 0
M  V30 6580 O 630.961 0.836407 2.58295 0
M  V30 6581 C 629.417 3.22707 1.59336 0
M  V30 6582 C 629.025 4.42859 0.676719 0
M  V30 6583 C 630.769 3.57242 2.293 0
M  V30 6584 C 628.676 5.74501 1.40367 0
M  V30 6585 H 627.606 0.679057 0.327715 0
M  V30 6586 H 630.257 1.83105 0.120351 0
M  V30 6587 H 628.639 3.16054 2.38591 0
M  V30 6588 H 629.813 4.60731 -0.0800196 0
M  V30 6589 H 628.128 4.16311 0.0859129 0
M  V30 6590 H 630.725 4.52847 2.84312 0
M  V30 6591 H 631.068 2.82901 3.05406 0
M  V30 6592 H 631.601 3.6552 1.56972 0
M  V30 6593 H 628.34 6.51915 0.684623 0
M  V30 6594 H 627.86 5.60579 2.13332 0
M  V30 6595 H 629.539 6.17016 1.94681 0
M  V30 6596 N 629.671 -0.424282 1.51781 0
M  V30 6597 C 630.601 -1.52305 1.7699 0
M  V30 6598 C 631.582 -1.5839 0.620209 0
M  V30 6599 O 632.767 -1.73908 0.864268 0
M  V30 6600 C 629.897 -2.90271 1.90683 0
M  V30 6601 C 628.851 -2.99043 3.06198 0
M  V30 6602 C 628.177 -4.39116 3.05092 0
M  V30 6603 C 629.477 -2.7192 4.45934 0
M  V30 6604 H 631.171 -1.31461 2.68995 0
M  V30 6605 H 628.717 -0.630985 1.29439 0
M  V30 6606 H 630.67 -3.6711 2.06901 0
M  V30 6607 H 629.394 -3.12376 0.953365 0
M  V30 6608 H 628.053 -2.24646 2.89706 0
M  V30 6609 H 627.701 -4.58207 2.07498 0
M  V30 6610 H 627.401 -4.45912 3.82669 0
M  V30 6611 H 628.925 -5.17911 3.2342 0
M  V30 6612 H 630.339 -3.38487 4.62709 0
M  V30 6613 H 628.736 -2.90111 5.25315 0
M  V30 6614 H 629.806 -1.67445 4.55072 0
M  V30 6615 N 631.149 -1.42148 -0.680565 0
M  V30 6616 C 632.377 -1.45696 -1.46902 0
M  V30 6617 C 632.792 -0.0665858 -1.88683 0
M  V30 6618 O 632.149 0.917436 -1.57764 0
M  V30 6619 C 632.2 -2.37898 -2.72188 0
M  V30 6620 O 631.921 -3.71526 -2.32163 0
M  V30 6621 C 633.422 -2.50407 -3.65802 0
M  V30 6622 H 630.642 -0.495729 -0.45221 0
M  V30 6623 H 633.186 -1.866 -0.836709 0
M  V30 6624 H 631.341 -2.00263 -3.31622 0
M  V30 6625 H 631.755 -4.20849 -3.13027 0
M  V30 6626 H 633.229 -3.19056 -4.50452 0
M  V30 6627 H 633.706 -1.5401 -4.11312 0
M  V30 6628 H 634.312 -2.8874 -3.12265 0
M  V30 6629 N 632.627 0.916307 -1.28225 0
M  V30 6630 C 633.59 1.99996 -1.11957 0
M  V30 6631 C 634.59 1.60688 -0.0600152 0
M  V30 6632 O 635.78 1.71499 -0.30558 0
M  V30 6633 C 632.912 3.33458 -0.708411 0
M  V30 6634 H 634.105 2.15858 -2.08196 0
M  V30 6635 H 631.658 1.09863 -1.11175 0
M  V30 6636 H 632.393 3.23297 0.254859 0
M  V30 6637 H 632.178 3.63349 -1.47377 0
M  V30 6638 H 633.668 4.13014 -0.617164 0
M  V30 6639 N 634.105 1.10431 1.1244 0
M  V30 6640 C 635.068 0.756542 2.16354 0
M  V30 6641 C 636.068 -0.21899 1.59302 0
M  V30 6642 O 637.258 0.00415969 1.742 0
M  V30 6643 C 634.39 0.120612 3.40687 0
M  V30 6644 H 635.583 1.67696 2.48632 0
M  V30 6645 H 633.136 0.904832 1.27446 0
M  V30 6646 H 633.871 -0.810536 3.14008 0
M  V30 6647 H 633.656 0.822693 3.83372 0
M  V30 6648 H 635.146 -0.106945 4.17463 0
M  V30 6649 N 635.583 -1.29855 0.893053 0
M  V30 6650 C 636.533 -2.25493 0.337211 0
M  V30 6651 C 637.517 -1.51606 -0.53894 0
M  V30 6652 O 638.709 -1.72828 -0.382043 0
M  V30 6653 C 635.838 -3.40467 -0.440117 0
M  V30 6654 C 634.924 -4.217 0.450578 0
M  V30 6655 N 635.315 -4.81312 1.55476 0
M  V30 6656 C 633.613 -4.45315 0.247154 0
M  V30 6657 C 634.314 -5.42241 2.10593 0
M  V30 6658 N 633.29 -5.25267 1.39982 0
M  V30 6659 H 637.092 -2.69137 1.18079 0
M  V30 6660 H 634.606 -1.44388 0.743359 0
M  V30 6661 H 636.603 -4.08038 -0.855021 0
M  V30 6662 H 635.263 -2.98361 -1.28104 0
M  V30 6663 H 636.274 -4.80291 1.93755 0
M  V30 6664 H 632.951 -4.13782 -0.555939 0
M  V30 6665 H 634.341 -5.99517 3.03362 0
M  V30 6666 N 637.061 -0.65484 -1.43351 0
M  V30 6667 C 638.301 -0.172514 -2.03671 0
M  V30 6668 C 638.665 1.19154 -1.50553 0
M  V30 6669 O 639.866 1.76737 -2.02528 0
M  V30 6670 C 638.137 -0.183982 -3.56926 0
M  V30 6671 S 639.696 0.230262 -4.38195 0
M  V30 6672 H 636.514 -0.0727503 -0.707268 0
M  V30 6673 H 639.116 -0.863537 -1.75395 0
M  V30 6674 H 637.82 -1.17945 -3.93087 0
M  V30 6675 H 637.351 0.527527 -3.89847 0
M  V30 6676 H 639.366 1.46874 -4.73965 0
M  V30 6677 N 638.539 1.52521 -0.396863 0
M  V30 6678 C 639.786 2.01672 0.182898 0
M  V30 6679 C 640.114 1.28302 1.46181 0
M  V30 6680 O 639.369 0.374118 1.92091 0
M  V30 6681 C 639.668 3.5403 0.489677 0
M  V30 6682 C 639.334 4.45456 -0.698581 0
M  V30 6683 C 637.996 4.70166 -1.02454 0
M  V30 6684 C 640.348 4.99354 -1.49316 0
M  V30 6685 C 637.676 5.46024 -2.1465 0
M  V30 6686 C 640.028 5.76439 -2.60579 0
M  V30 6687 C 638.692 5.99426 -2.93675 0
M  V30 6688 H 637.962 0.737971 0.066927 0
M  V30 6689 H 640.609 1.83853 -0.535764 0
M  V30 6690 H 638.914 3.69963 1.28976 0
M  V30 6691 H 640.611 3.8956 0.951018 0
M  V30 6692 H 637.201 4.26392 -0.434525 0
M  V30 6693 H 641.385 4.80182 -1.25457 0
M  V30 6694 H 636.641 5.62046 -2.40654 0
M  V30 6695 H 640.815 6.17202 -3.22544 0
M  V30 6696 H 638.442 6.57988 -3.80731 0
M  V30 6697 N 640.017 0.126909 1.57088 0
M  V30 6698 C 641.247 -0.535892 1.99529 0
M  V30 6699 C 641.655 -1.60259 1.00566 0
M  V30 6700 O 640.998 -1.83698 -0.00843269 0
M  V30 6701 C 641.06 -1.21374 3.38391 0
M  V30 6702 C 640.724 -0.294044 4.56053 0
M  V30 6703 C 641.721 0.470454 5.17767 0
M  V30 6704 C 639.406 -0.202808 5.0189 0
M  V30 6705 C 641.4 1.31384 6.23712 0
M  V30 6706 C 639.087 0.644203 6.07695 0
M  V30 6707 C 640.085 1.40115 6.68473 0
M  V30 6708 O 639.773 2.23408 7.72233 0
M  V30 6709 H 639.505 -0.145799 0.66009 0
M  V30 6710 H 642.059 0.212441 2.04298 0
M  V30 6711 H 640.289 -2.00931 3.30399 0
M  V30 6712 H 641.978 -1.77424 3.65069 0
M  V30 6713 H 642.744 0.409884 4.83265 0
M  V30 6714 H 638.623 -0.781688 4.54324 0
M  V30 6715 H 642.167 1.90514 6.71081 0
M  V30 6716 H 638.064 0.706137 6.41626 0
M  V30 6717 H 638.832 2.16436 7.89365 0
M  V30 6718 N 641.495 -1.56914 -0.146875 0
M  V30 6719 C 642.743 -1.82994 -0.85777 0
M  V30 6720 C 643.064 -0.707814 -1.817 0
M  V30 6721 O 642.334 0.270521 -1.94023 0
M  V30 6722 H 640.914 -0.675106 -0.319751 0
M  V30 6723 H 643.576 -1.9439 -0.140849 0
M  V30 6724 H 642.672 -2.77928 -1.41994 0
M  V30 6725 N 642.974 0.416227 -1.52004 0
M  V30 6726 C 644.22 1.16555 -1.6596 0
M  V30 6727 C 644.553 1.90347 -0.384906 0
M  V30 6728 O 643.828 1.84474 0.616405 0
M  V30 6729 C 644.111 2.1657 -2.87696 0
M  V30 6730 C 643.964 1.46722 -4.25197 0
M  V30 6731 C 645.283 3.17321 -3.04951 0
M  V30 6732 H 642.402 0.422369 -0.603965 0
M  V30 6733 H 645.044 0.452141 -1.84542 0
M  V30 6734 H 643.194 2.77411 -2.71985 0
M  V30 6735 H 644.866 0.89056 -4.52622 0
M  V30 6736 H 643.109 0.769263 -4.26925 0
M  V30 6737 H 643.78 2.19665 -5.0641 0
M  V30 6738 H 646.256 2.66552 -3.19514 0
M  V30 6739 H 645.132 3.84573 -3.91656 0
M  V30 6740 H 645.393 3.84643 -2.17951 0
M  V30 6741 N 644.452 1.42507 0.673017 0
M  V30 6742 C 645.362 1.4853 1.81593 0
M  V30 6743 C 646.378 0.373907 1.69935 0
M  V30 6744 O 647.554 0.625078 1.91454 0
M  V30 6745 C 644.619 1.387 3.17747 0
M  V30 6746 C 643.68 2.60346 3.41348 0
M  V30 6747 C 642.913 2.50975 4.71007 0
M  V30 6748 O 643.136 1.54659 5.49033 0
M  V30 6749 O 642.07 3.41138 4.95892 0
M  V30 6750 H 645.896 2.45001 1.79467 0
M  V30 6751 H 643.481 1.2429 0.82899 0
M  V30 6752 H 645.363 1.35586 3.98992 0
M  V30 6753 H 644.038 0.453555 3.20507 0
M  V30 6754 H 642.945 2.69034 2.59945 0
M  V30 6755 H 644.278 3.52595 3.43421 0
M  V30 6756 N 645.93 -0.909495 1.28709 0
M  V30 6757 C 647.155 -1.69801 1.1909 0
M  V30 6758 C 647.58 -1.86479 -0.246388 0
M  V30 6759 O 646.938 -1.37802 -1.17815 0
M  V30 6760 C 646.986 -3.06543 1.89904 0
M  V30 6761 O 646.09 -3.94268 1.2094 0
M  V30 6762 H 645.431 -0.519783 0.413185 0
M  V30 6763 H 647.961 -1.13689 1.70106 0
M  V30 6764 H 647.971 -3.56748 1.97977 0
M  V30 6765 H 646.646 -2.93722 2.94449 0
M  V30 6766 H 645.223 -3.52702 1.2106 0
M  V30 6767 N 647.408 -1.11026 -1.11852 0
M  V30 6768 C 648.819 -0.873203 -1.65021 0
M  V30 6769 C 649.17 0.595364 -1.86949 0
M  V30 6770 O 648.295 1.45645 -1.60051 0
M  V30 6771 C 648.89 -1.57859 -2.99777 0
M  V30 6772 C 647.449 -1.38807 -3.49871 0
M  V30 6773 C 646.596 -1.62403 -2.24768 0
M  V30 6774 H 649.547 -1.26712 -0.955503 0
M  V30 6775 H 649.568 -1.02111 -3.66543 0
M  V30 6776 H 649.08 -2.6474 -2.83786 0
M  V30 6777 H 647.181 -0.341163 -3.71035 0
M  V30 6778 H 647.294 -2.13421 -4.28938 0
M  V30 6779 H 645.658 -1.04714 -2.32179 0
M  V30 6780 H 646.441 -2.70549 -2.11324 0
M  V30 6781 N 648.886 1.2938 -0.899927 0
M  V30 6782 C 649.833 2.27713 -0.376243 0
M  V30 6783 C 650.803 1.57016 0.541774 0
M  V30 6784 O 651.988 1.84997 0.466966 0
M  V30 6785 C 649.128 3.42889 0.39 0
M  V30 6786 C 648.241 4.28369 -0.558938 0
M  V30 6787 C 647.376 5.30726 0.224379 0
M  V30 6788 C 646.415 6.07862 -0.719068 0
M  V30 6789 N 645.552 7.02094 0.0298569 0
M  V30 6790 H 650.392 2.71888 -1.21988 0
M  V30 6791 H 647.929 1.33724 -0.612879 0
M  V30 6792 H 649.887 4.08443 0.850314 0
M  V30 6793 H 648.517 2.99743 1.19809 0
M  V30 6794 H 647.569 3.62986 -1.13777 0
M  V30 6795 H 648.881 4.82068 -1.2811 0
M  V30 6796 H 648.035 6.02098 0.745881 0
M  V30 6797 H 646.774 4.77759 0.979674 0
M  V30 6798 H 645.779 5.35353 -1.25207 0
M  V30 6799 H 647.004 6.62917 -1.4737 0
M  V30 6800 H 644.95 6.51496 0.767415 0
M  V30 6801 H 644.867 7.5335 -0.632391 0
M  V30 6802 H 646.135 7.77685 0.531615 0
M  V30 6803 N 650.364 0.662433 1.43002 0
M  V30 6804 C 651.613 0.176873 2.00923 0
M  V30 6805 C 651.926 -1.21954 1.52927 0
M  V30 6806 O 653.132 -1.80081 2.03182 0
M  V30 6807 C 651.588 0.265379 3.5892 0
M  V30 6808 C 651.196 1.66507 4.15908 0
M  V30 6809 C 652.94 -0.162103 4.2419 0
M  V30 6810 C 650.847 1.707 5.66229 0
M  V30 6811 H 649.777 0.0623627 0.751417 0
M  V30 6812 H 652.428 0.825813 1.63868 0
M  V30 6813 H 650.81 -0.451235 3.93421 0
M  V30 6814 H 651.984 2.40777 3.92891 0
M  V30 6815 H 650.299 2.03932 3.63044 0
M  V30 6816 H 652.896 -0.150745 5.34487 0
M  V30 6817 H 653.239 -1.19519 3.98774 0
M  V30 6818 H 653.772 0.503075 3.94606 0
M  V30 6819 H 650.511 2.7195 5.96426 0
M  V30 6820 H 650.031 1.00768 5.91275 0
M  V30 6821 H 651.71 1.45487 6.3043 0
M  V30 6822 N 651.842 -1.52309 0.404946 0
M  V30 6823 C 652.772 -2.29805 -0.41376 0
M  V30 6824 C 653.753 -1.3384 -1.0498 0
M  V30 6825 O 654.938 -1.62745 -1.05961 0
M  V30 6826 C 652.068 -3.11639 -1.53292 0
M  V30 6827 C 651.022 -4.15616 -1.02211 0
M  V30 6828 C 650.348 -4.8577 -2.23455 0
M  V30 6829 C 651.648 -5.2224 -0.0790725 0
M  V30 6830 H 653.342 -2.98493 0.232878 0
M  V30 6831 H 650.888 -1.43552 0.113441 0
M  V30 6832 H 652.841 -3.64618 -2.11262 0
M  V30 6833 H 651.565 -2.40712 -2.20738 0
M  V30 6834 H 650.224 -3.63641 -0.46484 0
M  V30 6835 H 649.872 -4.11376 -2.89445 0
M  V30 6836 H 649.572 -5.56058 -1.89929 0
M  V30 6837 H 651.096 -5.4156 -2.82038 0
M  V30 6838 H 652.51 -5.70485 -0.567438 0
M  V30 6839 H 650.907 -5.99867 0.167167 0
M  V30 6840 H 651.977 -4.77078 0.867447 0
M  V30 6841 N 653.32 -0.135238 -1.57019 0
M  V30 6842 C 654.736 0.221262 -1.58059 0
M  V30 6843 C 654.936 1.65538 -1.14889 0
M  V30 6844 O 653.992 2.37985 -0.843751 0
M  V30 6845 C 655.305 -0.0268114 -3.00688 0
M  V30 6846 C 656.853 0.0378206 -3.12977 0
M  V30 6847 C 657.328 -0.182769 -4.57635 0
M  V30 6848 N 658.819 -0.129292 -4.6302 0
M  V30 6849 C 659.554 -0.274648 -5.72742 0
M  V30 6850 N 659.05 -0.477075 -6.91155 0
M  V30 6851 N 660.843 -0.213077 -5.61696 0
M  V30 6852 H 652.994 -1.07177 -1.83376 0
M  V30 6853 H 655.257 -0.423338 -0.848227 0
M  V30 6854 H 654.963 -1.01889 -3.36618 0
M  V30 6855 H 654.837 0.697863 -3.70688 0
M  V30 6856 H 657.224 1.02043 -2.76896 0
M  V30 6857 H 657.305 -0.718996 -2.45487 0
M  V30 6858 H 656.949 -1.16243 -4.94419 0
M  V30 6859 H 656.879 0.59423 -5.23237 0
M  V30 6860 H 659.37 0.0229896 -3.77893 0
M  V30 6861 H 659.683 -0.578413 -7.70632 0
M  V30 6862 H 658.028 -0.513252 -6.93102 0
M  V30 6863 H 661.219 -0.0557796 -4.68067 0
M  V30 6864 H 661.392 -0.329796 -6.4716 0
M  V30 6865 N 654.798 1.5699 0.138552 0
M  V30 6866 C 656.044 1.84081 0.85099 0
M  V30 6867 C 656.377 0.718107 1.80435 0
M  V30 6868 O 655.652 -0.277633 1.92508 0
M  V30 6869 C 655.935 3.21699 1.61808 0
M  V30 6870 C 655.788 4.44544 0.685633 0
M  V30 6871 C 657.107 3.5664 2.57868 0
M  V30 6872 H 654.226 0.669592 0.307922 0
M  V30 6873 H 656.868 1.89646 0.11588 0
M  V30 6874 H 655.018 3.17086 2.24474 0
M  V30 6875 H 656.69 4.61248 0.0693179 0
M  V30 6876 H 654.933 4.338 -0.00421993 0
M  V30 6877 H 655.604 5.3746 1.25858 0
M  V30 6878 H 658.08 3.61918 2.05316 0
M  V30 6879 H 656.956 4.53946 3.08584 0
M  V30 6880 H 657.217 2.83036 3.39622 0
M  V30 6881 N 656.276 -0.40816 1.52223 0
M  V30 6882 C 657.506 -1.17501 1.69932 0
M  V30 6883 C 657.914 -1.84729 0.408874 0
M  V30 6884 O 657.257 -1.7274 -0.625025 0
M  V30 6885 C 657.319 -2.27994 2.77955 0
M  V30 6886 C 656.983 -1.80894 4.19674 0
M  V30 6887 C 657.98 -1.29618 5.03483 0
M  V30 6888 C 655.665 -1.87698 4.65913 0
M  V30 6889 C 657.659 -0.857695 6.31603 0
M  V30 6890 C 655.346 -1.43461 5.94022 0
M  V30 6891 C 656.344 -0.925822 6.76696 0
M  V30 6892 O 656.032 -0.489841 8.02406 0
M  V30 6893 H 655.764 -0.359065 0.572755 0
M  V30 6894 H 658.318 -0.486188 1.99563 0
M  V30 6895 H 656.548 -3.00243 2.43703 0
M  V30 6896 H 658.237 -2.89749 2.84254 0
M  V30 6897 H 659.003 -1.23733 4.68951 0
M  V30 6898 H 654.882 -2.26244 4.01665 0
M  V30 6899 H 658.426 -0.459879 6.96083 0
M  V30 6900 H 654.323 -1.49026 6.28062 0
M  V30 6901 H 655.091 -0.613062 8.16201 0
M  V30 6902 N 657.755 -1.42862 -0.66545 0
M  V30 6903 C 658.98 -1.47456 -1.45848 0
M  V30 6904 C 659.405 -0.0900312 -1.87884 0
M  V30 6905 O 658.763 0.913587 -1.56599 0
M  V30 6906 C 658.811 -2.41514 -2.67774 0
M  V30 6907 O 657.915 -1.89296 -3.66389 0
M  V30 6908 H 657.256 -0.499236 -0.437789 0
M  V30 6909 H 659.786 -1.8765 -0.815394 0
M  V30 6910 H 659.796 -2.58409 -3.15735 0
M  V30 6911 H 658.471 -3.42099 -2.36519 0
M  V30 6912 H 657.048 -1.82003 -3.25468 0
M  V30 6913 N 659.233 0.902656 -1.29189 0
M  V30 6914 C 660.481 1.6496 -1.16758 0
M  V30 6915 C 660.802 1.92952 0.28188 0
M  V30 6916 O 660.072 1.55351 1.19344 0
M  V30 6917 H 658.652 0.611447 -0.429118 0
M  V30 6918 H 661.314 1.0825 -1.62074 0
M  V30 6919 H 660.41 2.60728 -1.71544 0
M  V30 6920 N 660.711 1.11618 1.11262 0
M  V30 6921 C 661.96 0.860934 1.82403 0
M  V30 6922 C 662.273 -0.615303 1.8567 0
M  V30 6923 O 663.479 -0.986861 2.52929 0
M  V30 6924 C 661.935 1.49048 3.27586 0
M  V30 6925 C 661.543 3.00089 3.32642 0
M  V30 6926 C 663.287 1.31515 4.03614 0
M  V30 6927 C 661.194 3.56019 4.72234 0
M  V30 6928 H 660.124 0.318423 0.683464 0
M  V30 6929 H 662.775 1.34165 1.25188 0
M  V30 6930 H 661.157 0.937434 3.84744 0
M  V30 6931 H 662.331 3.61813 2.85356 0
M  V30 6932 H 660.646 3.16919 2.70096 0
M  V30 6933 H 663.243 1.70732 5.0671 0
M  V30 6934 H 663.586 0.257917 4.155 0
M  V30 6935 H 664.119 1.83694 3.52848 0
M  V30 6936 H 660.858 4.61463 4.65545 0
M  V30 6937 H 660.378 2.99066 5.19923 0
M  V30 6938 H 662.057 3.54568 5.41193 0
M  V30 6939 N 662.189 -1.289 0.906776 0
M  V30 6940 C 663.119 -2.29932 0.406659 0
M  V30 6941 C 664.1 -1.6189 -0.522061 0
M  V30 6942 O 665.285 -1.8935 -0.431283 0
M  V30 6943 C 662.415 -3.45425 -0.360366 0
M  V30 6944 C 661.369 -4.25316 0.478574 0
M  V30 6945 C 660.695 -5.33076 -0.416373 0
M  V30 6946 C 661.995 -4.92739 1.7322 0
M  V30 6947 H 663.689 -2.72013 1.25097 0
M  V30 6948 H 661.235 -1.30768 0.602977 0
M  V30 6949 H 663.188 -4.15186 -0.721029 0
M  V30 6950 H 661.912 -3.02206 -1.23852 0
M  V30 6951 H 660.571 -3.57273 0.821662 0
M  V30 6952 H 660.219 -4.86101 -1.29287 0
M  V30 6953 H 659.919 -5.8743 0.141309 0
M  V30 6954 H 661.443 -6.05686 -0.773072 0
M  V30 6955 H 662.857 -5.54898 1.44086 0
M  V30 6956 H 661.254 -5.57057 2.23175 0
M  V30 6957 H 662.324 -4.17625 2.46408 0
M  V30 6958 N 663.667 -0.670007 -1.42649 0
M  V30 6959 C 664.615 0.0230106 -2.32589 0
M  V30 6960 C 665.609 0.795585 -1.49555 0
M  V30 6961 O 666.815 0.70409 -1.65658 0
M  V30 6962 H 663.19 0.0262342 -0.751542 0
M  V30 6963 H 665.161 -0.753009 -2.88743 0
M  V30 6964 C 663.91 0.963872 -3.34073 0
M  V30 6965 H 663.233 0.378813 -3.98001 0
M  V30 6966 H 664.673 1.41755 -3.99602 0
M  V30 6967 C 663.132 2.06797 -2.65964 0
M  V30 6968 O 663.662 3.15383 -2.48789 0
M  V30 6969 N 661.868 1.83831 -2.25066 0
M  V30 6970 H 661.415 0.955235 -2.39234 0
M  V30 6971 H 661.373 2.57895 -1.79827 0
M  V30 6972 N 665.145 1.52092 -0.413018 0
M  V30 6973 C 666.077 2.24819 0.445994 0
M  V30 6974 C 667.09 1.27925 1.00692 0
M  V30 6975 O 668.279 1.53845 0.905204 0
M  V30 6976 C 665.379 2.96951 1.6332 0
M  V30 6977 C 664.552 4.20746 1.19548 0
M  V30 6978 C 663.611 4.75668 2.25003 0
M  V30 6979 O 662.637 5.38148 1.85434 0
M  V30 6980 N 663.839 4.57579 3.57214 0
M  V30 6981 H 666.604 2.99176 -0.177209 0
M  V30 6982 H 664.165 1.60102 -0.240601 0
M  V30 6983 H 666.157 3.30586 2.33441 0
M  V30 6984 H 664.727 2.25756 2.16225 0
M  V30 6985 H 663.947 3.92881 0.32224 0
M  V30 6986 H 665.235 5.01132 0.880033 0
M  V30 6987 H 664.633 4.07758 3.92109 0
M  V30 6988 H 663.19 4.95642 4.23299 0
M  V30 6989 N 666.623 0.143563 1.56945 0
M  V30 6990 C 667.848 -0.518701 2.00809 0
M  V30 6991 C 668.273 -1.5785 1.02298 0
M  V30 6992 O 667.631 -1.813 -0.0017839 0
M  V30 6993 C 667.679 -1.09929 3.43436 0
M  V30 6994 O 666.783 -2.21425 3.47915 0
M  V30 6995 H 666.124 -0.127215 0.6517 0
M  V30 6996 H 668.654 0.239283 2.03196 0
M  V30 6997 H 668.664 -1.4288 3.82164 0
M  V30 6998 H 667.339 -0.323162 4.14643 0
M  V30 6999 H 665.916 -1.89728 3.21026 0
M  V30 7000 N 668.101 -1.57061 -0.130224 0
M  V30 7001 C 669.011 -2.02802 -1.17934 0
M  V30 7002 C 670.027 -0.946378 -1.46013 0
M  V30 7003 O 671.203 -1.25708 -1.57351 0
M  V30 7004 C 668.268 -2.41368 -2.48882 0
M  V30 7005 C 667.329 -3.63561 -2.28301 0
M  V30 7006 C 666.562 -4.00279 -3.53005 0
M  V30 7007 O 666.785 -3.37463 -4.59864 0
M  V30 7008 O 665.719 -4.93441 -3.44673 0
M  V30 7009 H 669.545 -2.92394 -0.820958 0
M  V30 7010 H 667.13 -1.45475 -0.340197 0
M  V30 7011 H 669.012 -2.66958 -3.26054 0
M  V30 7012 H 667.687 -1.54926 -2.84217 0
M  V30 7013 H 666.594 -3.43136 -1.49025 0
M  V30 7014 H 667.927 -4.50673 -1.97875 0
M  V30 7015 N 669.579 0.400081 -1.52437 0
M  V30 7016 C 670.828 1.14332 -1.66166 0
M  V30 7017 C 671.141 1.91419 -0.402253 0
M  V30 7018 O 672.347 2.6824 -0.419487 0
M  V30 7019 C 670.803 2.08137 -2.9361 0
M  V30 7020 C 670.411 1.36524 -4.26691 0
M  V30 7021 C 672.155 2.82664 -3.16703 0
M  V30 7022 C 670.062 2.29031 -5.45251 0
M  V30 7023 H 668.992 0.430499 -0.61902 0
M  V30 7024 H 671.643 0.407017 -1.78929 0
M  V30 7025 H 670.025 2.85358 -2.74567 0
M  V30 7026 H 671.199 0.646061 -4.56249 0
M  V30 7027 H 669.514 0.74002 -4.09771 0
M  V30 7028 H 672.111 3.52037 -4.0246 0
M  V30 7029 H 672.454 3.46122 -2.31312 0
M  V30 7030 H 672.987 2.12541 -3.36261 0
M  V30 7031 H 669.726 1.70206 -6.33017 0
M  V30 7032 H 669.246 2.98896 -5.2002 0
M  V30 7033 H 670.925 2.89359 -5.78689 0
M  V30 7034 N 671.057 1.43213 0.657864 0
M  V30 7035 C 672.004 1.48011 1.77092 0
M  V30 7036 C 672.974 0.330291 1.62783 0
M  V30 7037 O 674.159 0.536787 1.83094 0
M  V30 7038 C 671.299 1.40461 3.15222 0
M  V30 7039 C 670.412 2.65612 3.40697 0
M  V30 7040 C 669.547 2.50083 4.68649 0
M  V30 7041 C 668.586 3.70525 4.87214 0
M  V30 7042 N 667.723 3.53835 6.0642 0
M  V30 7043 H 672.563 2.43121 1.72326 0
M  V30 7044 H 670.1 1.20687 0.841013 0
M  V30 7045 H 672.058 1.34079 3.95068 0
M  V30 7046 H 670.688 0.489359 3.19069 0
M  V30 7047 H 669.74 2.82292 2.54982 0
M  V30 7048 H 671.052 3.5509 3.50303 0
M  V30 7049 H 670.206 2.41383 5.56614 0
M  V30 7050 H 668.945 1.58121 4.61356 0
M  V30 7051 H 667.95 3.79639 3.97686 0
M  V30 7052 H 669.175 4.63489 4.96341 0
M  V30 7053 H 667.121 2.64604 6.00267 0
M  V30 7054 H 667.038 4.36912 6.16963 0
M  V30 7055 H 668.306 3.48978 6.97019 0
M  V30 7056 N 672.536 -0.895792 1.29666 0
M  V30 7057 C 673.446 -2.03329 1.17024 0
M  V30 7058 C 674.462 -1.73753 0.0925962 0
M  V30 7059 O 675.638 -1.99071 0.305431 0
M  V30 7060 C 672.703 -3.36072 0.851841 0
M  V30 7061 C 671.764 -3.7914 2.01373 0
M  V30 7062 C 670.997 -5.05549 1.71043 0
M  V30 7063 O 671.22 -5.66874 0.633213 0
M  V30 7064 O 670.154 -5.44764 2.5596 0
M  V30 7065 H 673.98 -2.16918 2.12556 0
M  V30 7066 H 671.565 -1.02007 1.09156 0
M  V30 7067 H 673.447 -4.15729 0.689006 0
M  V30 7068 H 672.122 -3.23616 -0.0736634 0
M  V30 7069 H 671.029 -3.00233 2.23183 0
M  V30 7070 H 672.362 -3.96186 2.92058 0
M  V30 7071 N 674.014 -1.12206 -1.10668 0
M  V30 7072 C 675.291 -0.787382 -1.79052 0
M  V30 7073 C 675.671 0.723267 -1.98323 0
M  V30 7074 O 675.019 1.6561 -1.57434 0
M  V30 7075 C 675.229 -1.55968 -3.1221 0
M  V30 7076 C 676.577 -1.74413 -3.87125 0
M  V30 7077 O 677.601 -1.5246 -3.21923 0
M  V30 7078 O 676.46 -2.10952 -5.04144 0
M  V30 7079 H 673.554 -0.286137 -0.775922 0
M  V30 7080 H 676.1 -1.22595 -1.1734 0
M  V30 7081 H 674.872 -2.58692 -2.93588 0
M  V30 7082 H 674.495 -1.1152 -3.8164 0
M  V30 7083 N 675.492 1.28418 -0.913599 0
M  V30 7084 C 676.72 1.99106 -0.562536 0
M  V30 7085 C 677.135 1.68273 0.856137 0
M  V30 7086 O 676.492 0.935401 1.56705 0
M  V30 7087 C 676.543 3.5338 -0.761903 0
M  V30 7088 O 676.264 3.83127 -2.12475 0
M  V30 7089 C 677.765 4.41328 -0.417651 0
M  V30 7090 H 674.985 0.635798 -0.214481 0
M  V30 7091 H 677.529 1.63618 -1.22676 0
M  V30 7092 H 675.684 3.8713 -0.144676 0
M  V30 7093 H 676.098 4.77763 -2.16431 0
M  V30 7094 H 677.572 5.48642 -0.607919 0
M  V30 7095 H 678.049 4.34422 0.646108 0
M  V30 7096 H 678.655 4.13074 -1.01241 0
M  V30 7097 N 676.97 0.677563 1.42291 0
M  V30 7098 C 678.195 0.207901 2.06355 0
M  V30 7099 C 678.62 -1.12723 1.50583 0
M  V30 7100 O 677.978 -1.70171 0.62543 0
M  V30 7101 C 678.026 0.156489 3.6026 0
M  V30 7102 O 677.13 -0.874162 4.03029 0
M  V30 7103 H 676.471 0.106056 0.655475 0
M  V30 7104 H 679.001 0.927354 1.82377 0
M  V30 7105 H 679.011 -0.0187258 4.07996 0
M  V30 7106 H 677.686 1.13101 4.00226 0
M  V30 7107 H 676.263 -0.669764 3.66836 0
M  V30 7108 N 678.448 -1.51871 0.421078 0
M  V30 7109 C 679.695 -2.01938 -0.15079 0
M  V30 7110 C 680.023 -1.30611 -1.44121 0
M  V30 7111 O 679.278 -0.404631 -1.91471 0
M  V30 7112 C 679.577 -3.54764 -0.433292 0
M  V30 7113 C 679.243 -4.44288 0.76936 0
M  V30 7114 C 677.905 -4.68477 1.09921 0
M  V30 7115 C 680.257 -4.96915 1.57242 0
M  V30 7116 C 677.585 -5.4254 2.2331 0
M  V30 7117 C 679.937 -5.7222 2.69716 0
M  V30 7118 C 678.601 -5.94678 3.03174 0
M  V30 7119 H 677.871 -0.738943 -0.0551781 0
M  V30 7120 H 680.518 -1.82977 0.564945 0
M  V30 7121 H 678.823 -3.71968 -1.23074 0
M  V30 7122 H 680.52 -3.91023 -0.888922 0
M  V30 7123 H 677.11 -4.25646 0.502305 0
M  V30 7124 H 681.294 -4.78125 1.3308 0
M  V30 7125 H 676.55 -5.58146 2.49565 0
M  V30 7126 H 680.724 -6.11992 3.32323 0
M  V30 7127 H 678.351 -6.51848 3.9115 0
M  V30 7128 N 679.926 -0.151884 -1.56866 0
M  V30 7129 C 681.173 0.498004 -1.96281 0
M  V30 7130 C 681.501 1.64551 -1.03698 0
M  V30 7131 O 680.756 1.95585 -0.0671497 0
M  V30 7132 C 681.055 1.04074 -3.41911 0
M  V30 7133 C 680.721 0.0111688 -4.50899 0
M  V30 7134 C 679.383 -0.271844 -4.80432 0
M  V30 7135 C 681.735 -0.68869 -5.1663 0
M  V30 7136 C 679.063 -1.26044 -5.73001 0
M  V30 7137 C 681.415 -1.66613 -6.10264 0
M  V30 7138 C 680.079 -1.9568 -6.38174 0
M  V30 7139 H 679.349 0.182233 -0.718242 0
M  V30 7140 H 681.996 -0.239746 -1.89993 0
M  V30 7141 H 680.301 1.85592 -3.45055 0
M  V30 7142 H 681.998 1.55224 -3.69738 0
M  V30 7143 H 678.588 0.241932 -4.27917 0
M  V30 7144 H 682.772 -0.48324 -4.93942 0
M  V30 7145 H 678.028 -1.49202 -5.92915 0
M  V30 7146 H 682.202 -2.21392 -6.60272 0
M  V30 7147 H 679.829 -2.72434 -7.09707 0
M  V30 7148 N 681.404 1.57128 0.121893 0
M  V30 7149 C 682.652 1.84335 0.828548 0
M  V30 7150 C 682.973 0.736632 1.80551 0
M  V30 7151 O 682.243 -0.23962 1.94429 0
M  V30 7152 H 680.823 0.680108 0.30897 0
M  V30 7153 H 683.485 1.9459 0.109906 0
M  V30 7154 H 682.581 2.80152 1.37554 0
M  V30 7155 N 682.882 -0.391992 1.52647 0
M  V30 7156 C 684.128 -1.139 1.67793 0
M  V30 7157 C 684.461 -1.89711 0.41514 0
M  V30 7158 O 683.736 -1.85431 -0.586979 0
M  V30 7159 C 684.019 -2.11966 2.91105 0
M  V30 7160 C 683.872 -1.39939 4.27478 0
M  V30 7161 C 685.191 -3.1243 3.09961 0
M  V30 7162 H 682.31 -0.412707 0.610608 0
M  V30 7163 H 684.952 -0.422725 1.85238 0
M  V30 7164 H 683.102 -2.73048 2.76364 0
M  V30 7165 H 684.774 -0.818439 4.53982 0
M  V30 7166 H 683.017 -0.701246 4.28095 0
M  V30 7167 H 683.688 -2.1158 5.09841 0
M  V30 7168 H 686.164 -2.61435 3.23714 0
M  V30 7169 H 685.04 -3.78294 3.97725 0
M  V30 7170 H 685.301 -3.81127 2.24042 0
M  V30 7171 N 684.36 -1.4356 -0.65026 0
M  V30 7172 C 685.292 -1.44918 -1.77571 0
M  V30 7173 C 686.305 -0.344925 -1.59104 0
M  V30 7174 O 687.494 -0.609537 -1.6777 0
M  V30 7175 C 684.594 -1.24914 -3.15039 0
M  V30 7176 C 683.767 -2.48232 -3.60138 0
M  V30 7177 C 682.826 -2.23409 -4.76419 0
M  V30 7178 O 681.852 -2.9678 -4.85706 0
M  V30 7179 N 683.054 -1.25259 -5.66825 0
M  V30 7180 H 685.819 -2.41935 -1.76883 0
M  V30 7181 H 683.38 -1.38754 -0.834202 0
M  V30 7182 H 685.372 -1.06185 -3.90521 0
M  V30 7183 H 683.942 -0.363319 -3.10481 0
M  V30 7184 H 683.162 -2.82366 -2.75069 0
M  V30 7185 H 684.45 -3.30296 -3.87017 0
M  V30 7186 H 683.848 -0.646246 -5.61997 0
M  V30 7187 H 682.405 -1.12513 -6.42016 0
M  V30 7188 N 685.838 0.888903 -1.30139 0
M  V30 7189 C 686.748 2.02705 -1.18101 0
M  V30 7190 C 687.764 1.73702 -0.101809 0
M  V30 7191 O 688.94 1.98906 -0.315984 0
M  V30 7192 C 686.005 3.35616 -0.869651 0
M  V30 7193 C 685.066 3.78067 -2.03381 0
M  V30 7194 C 684.299 5.04635 -1.73721 0
M  V30 7195 O 684.522 5.66531 -0.663267 0
M  V30 7196 O 683.456 5.43399 -2.58845 0
M  V30 7197 H 687.282 2.15788 -2.13704 0
M  V30 7198 H 684.867 1.01426 -1.09695 0
M  V30 7199 H 686.749 4.15358 -0.711043 0
M  V30 7200 H 685.424 3.23651 0.0565002 0
M  V30 7201 H 684.331 2.99046 -2.24772 0
M  V30 7202 H 685.664 3.94631 -2.94155 0
M  V30 7203 N 687.317 1.12792 1.10072 0
M  V30 7204 C 688.566 0.880232 1.81479 0
M  V30 7205 C 688.879 -0.595575 1.86312 0
M  V30 7206 O 690.085 -0.959979 2.53962 0
M  V30 7207 C 688.541 1.52514 3.25987 0
M  V30 7208 C 688.149 3.036 3.29441 0
M  V30 7209 C 689.893 1.35788 4.02196 0
M  V30 7210 C 687.8 3.61007 4.68431 0
M  V30 7211 H 686.73 0.325654 0.680048 0
M  V30 7212 H 689.381 1.35485 1.23758 0
M  V30 7213 H 687.763 0.978188 3.83728 0
M  V30 7214 H 688.937 3.64819 2.81502 0
M  V30 7215 H 687.252 3.19765 2.66719 0
M  V30 7216 H 689.849 1.76096 5.0487 0
M  V30 7217 H 690.192 0.301972 4.15203 0
M  V30 7218 H 690.725 1.87426 3.50879 0
M  V30 7219 H 687.464 4.66375 4.60625 0
M  V30 7220 H 686.984 3.04564 5.16721 0
M  V30 7221 H 688.663 3.60289 5.37402 0
M  V30 7222 N 688.795 -1.27931 0.920396 0
M  V30 7223 C 690.044 -1.93975 0.552867 0
M  V30 7224 C 690.357 -1.73193 -0.909035 0
M  V30 7225 O 691.563 -2.33515 -1.38502 0
M  V30 7226 C 690.019 -3.47463 0.937947 0
M  V30 7227 C 689.627 -3.77013 2.42003 0
M  V30 7228 C 691.371 -4.19628 0.64132 0
M  V30 7229 C 689.278 -5.23841 2.74489 0
M  V30 7230 H 688.208 -0.726146 0.203046 0
M  V30 7231 H 690.859 -1.45339 1.12022 0
M  V30 7232 H 689.241 -3.94867 0.299317 0
M  V30 7233 H 690.415 -3.40393 3.10595 0
M  V30 7234 H 688.73 -3.18035 2.6878 0
M  V30 7235 H 691.327 -5.27729 0.860622 0
M  V30 7236 H 691.67 -4.14164 -0.421168 0
M  V30 7237 H 692.203 -3.78022 1.23872 0
M  V30 7238 H 688.942 -5.34388 3.79618 0
M  V30 7239 H 688.462 -5.61634 2.1054 0
M  V30 7240 H 690.141 -5.91647 2.61845 0
M  V30 7241 N 690.273 -0.685099 -1.4193 0
M  V30 7242 C 691.522 -0.208816 -2.00616 0
M  V30 7243 C 691.835 1.19506 -1.54847 0
M  V30 7244 O 693.041 1.76826 -2.06021 0
M  V30 7245 C 691.497 -0.322446 -3.58453 0
M  V30 7246 C 691.105 -1.73102 -4.13206 0
M  V30 7247 C 692.849 0.0945979 -4.24395 0
M  V30 7248 C 690.756 -1.79687 -5.63442 0
M  V30 7249 H 689.686 -0.0743092 -0.750329 0
M  V30 7250 H 692.337 -0.851778 -1.62533 0
M  V30 7251 H 690.719 0.388588 -3.94089 0
M  V30 7252 H 691.893 -2.46997 -3.8901 0
M  V30 7253 H 690.208 -2.09682 -3.59753 0
M  V30 7254 H 692.805 0.0656937 -5.3466 0
M  V30 7255 H 693.148 1.1316 -4.00625 0
M  V30 7256 H 693.681 -0.56579 -3.93756 0
M  V30 7257 H 690.42 -2.81404 -5.92024 0
M  V30 7258 H 689.94 -1.10162 -5.89597 0
M  V30 7259 H 691.619 -1.55498 -6.28036 0
M  V30 7260 N 691.751 1.51645 -0.429126 0
M  V30 7261 C 692.701 2.24388 0.404217 0
M  V30 7262 C 693.685 1.26294 0.996933 0
M  V30 7263 O 694.877 1.51428 0.916434 0
M  V30 7264 C 692.006 3.08338 1.50938 0
M  V30 7265 C 691.092 4.13857 0.926464 0
M  V30 7266 N 691.483 5.05749 0.0719732 0
M  V30 7267 C 689.781 4.29695 1.19491 0
M  V30 7268 C 690.482 5.81143 -0.254528 0
M  V30 7269 N 689.458 5.42408 0.359763 0
M  V30 7270 H 693.26 2.92794 -0.254697 0
M  V30 7271 H 690.774 1.60606 -0.240712 0
M  V30 7272 H 692.771 3.59022 2.11918 0
M  V30 7273 H 691.431 2.41475 2.17072 0
M  V30 7274 H 692.442 5.17066 -0.293854 0
M  V30 7275 H 689.119 3.74059 1.85434 0
M  V30 7276 H 690.509 6.65159 -0.949365 0
M  V30 7277 N 693.229 0.160201 1.56784 0
M  V30 7278 C 694.506 -0.533355 1.88188 0
M  V30 7279 C 694.886 -1.82072 1.06831 0
M  V30 7280 O 694.234 -2.27946 0.158959 0
M  V30 7281 C 694.444 -0.786034 3.40033 0
M  V30 7282 C 695.792 -1.12097 4.09536 0
M  V30 7283 O 696.816 -0.874949 3.45287 0
M  V30 7284 O 695.675 -1.58457 5.23023 0
M  V30 7285 H 692.769 -0.273589 0.780434 0
M  V30 7286 H 695.315 0.197803 1.68543 0
M  V30 7287 H 694.087 0.124515 3.91102 0
M  V30 7288 H 693.71 -1.57091 3.65251 0
M  V30 7289 N 694.707 -1.5719 -0.113559 0
M  V30 7290 C 695.639 -1.97393 -1.16484 0
M  V30 7291 C 696.652 -0.873964 -1.37352 0
M  V30 7292 O 697.841 -1.15222 -1.36331 0
M  V30 7293 C 694.941 -2.26174 -2.52386 0
M  V30 7294 C 694.114 -3.57479 -2.52046 0
M  V30 7295 C 693.173 -3.74409 -3.69735 0
M  V30 7296 O 692.199 -4.46463 -3.53071 0
M  V30 7297 N 693.401 -3.13588 -4.88511 0
M  V30 7298 H 696.166 -2.88184 -0.822814 0
M  V30 7299 H 693.727 -1.59044 -0.302769 0
M  V30 7300 H 695.719 -2.3471 -3.29687 0
M  V30 7301 H 694.289 -1.41483 -2.7875 0
M  V30 7302 H 693.509 -3.60081 -1.60421 0
M  V30 7303 H 694.797 -4.43775 -2.48881 0
M  V30 7304 H 694.195 -2.55026 -5.04953 0
M  V30 7305 H 692.752 -3.27637 -5.63469 0
M  V30 7306 N 696.185 0.383891 -1.52853 0
M  V30 7307 C 697.415 1.14783 -1.7178 0
M  V30 7308 C 697.823 1.84055 -0.438211 0
M  V30 7309 O 697.166 1.73713 0.597465 0
M  V30 7310 C 697.228 2.23543 -2.81547 0
M  V30 7311 C 696.892 1.74195 -4.22499 0
M  V30 7312 C 697.889 1.21591 -5.05481 0
M  V30 7313 C 695.574 1.80262 -4.6884 0
M  V30 7314 C 697.568 0.757104 -6.32888 0
M  V30 7315 C 695.255 1.33993 -5.96229 0
M  V30 7316 C 696.253 0.818049 -6.78083 0
M  V30 7317 O 695.941 0.362123 -8.03084 0
M  V30 7318 H 695.673 0.349908 -0.578395 0
M  V30 7319 H 698.227 0.454377 -2.00311 0
M  V30 7320 H 696.457 2.96328 -2.48449 0
M  V30 7321 H 698.146 2.8519 -2.88828 0
M  V30 7322 H 698.912 1.16257 -4.7086 0
M  V30 7323 H 694.791 2.19825 -4.05213 0
M  V30 7324 H 698.335 0.34908 -6.96726 0
M  V30 7325 H 694.232 1.39015 -6.30353 0
M  V30 7326 H 695 0.483134 -8.17073 0
M  V30 7327 N 697.663 1.43903 0.642637 0
M  V30 7328 C 698.61 1.49881 1.75512 0
M  V30 7329 C 699.58 0.347538 1.62423 0
M  V30 7330 O 700.765 0.556177 1.82514 0
M  V30 7331 C 697.905 1.43797 3.13714 0
M  V30 7332 C 697.018 2.6921 3.37861 0
M  V30 7333 C 696.153 2.5504 4.6597 0
M  V30 7334 C 695.192 3.75671 4.83257 0
M  V30 7335 N 694.329 3.60247 6.02633 0
M  V30 7336 H 699.169 2.44935 1.69737 0
M  V30 7337 H 696.706 1.21572 0.828165 0
M  V30 7338 H 698.664 1.38262 3.93624 0
M  V30 7339 H 697.294 0.523173 3.18532 0
M  V30 7340 H 696.346 2.8498 2.51973 0
M  V30 7341 H 697.658 3.58786 3.46517 0
M  V30 7342 H 696.812 2.47273 5.54023 0
M  V30 7343 H 695.551 1.63006 4.59653 0
M  V30 7344 H 694.556 3.83836 3.93637 0
M  V30 7345 H 695.781 4.68728 4.91397 0
M  V30 7346 H 693.727 2.70955 5.97427 0
M  V30 7347 H 693.644 4.43431 6.12295 0
M  V30 7348 H 694.912 3.56351 6.93278 0
M  V30 7349 N 699.141 -0.881989 1.30609 0
M  V30 7350 C 700.074 -1.99066 1.11571 0
M  V30 7351 C 701.052 -1.62584 0.022516 0
M  V30 7352 O 702.236 -1.87671 0.176644 0
M  V30 7353 C 699.363 -3.3134 0.702237 0
M  V30 7354 C 698.409 -3.86807 1.79673 0
M  V30 7355 S 699.242 -4.13735 3.39976 0
M  V30 7356 C 700.398 -5.49024 3.00538 0
M  V30 7357 H 700.631 -2.1491 2.05429 0
M  V30 7358 H 698.164 -1.03074 1.14957 0
M  V30 7359 H 700.122 -4.07796 0.470415 0
M  V30 7360 H 698.783 -3.13349 -0.217034 0
M  V30 7361 H 697.976 -4.82397 1.45977 0
M  V30 7362 H 697.578 -3.17102 1.98298 0
M  V30 7363 H 699.87 -6.30208 2.48684 0
M  V30 7364 H 700.813 -5.8766 3.95046 0
M  V30 7365 H 701.221 -5.11726 2.3832 0
M  V30 7366 N 700.619 -1.13374 -1.09472 0
M  V30 7367 C 701.582 -0.813639 -2.14272 0
M  V30 7368 C 702.582 0.176677 -1.59826 0
M  V30 7369 O 703.772 -0.0503441 -1.74127 0
M  V30 7370 C 700.904 -0.210897 -3.40247 0
M  V30 7371 H 702.097 -1.74229 -2.44099 0
M  V30 7372 H 699.65 -0.938304 -1.25002 0
M  V30 7373 H 700.385 0.726998 -3.16046 0
M  V30 7374 H 700.17 -0.924048 -3.81056 0
M  V30 7375 H 701.66 -0.00377603 -4.176 0
M  V30 7376 N 702.098 1.27442 -0.927168 0
M  V30 7377 C 703.008 2.30599 -0.431448 0
M  V30 7378 C 704.024 1.67028 0.48761 0
M  V30 7379 O 705.2 1.97962 0.370546 0
M  V30 7380 C 702.265 3.45327 0.308292 0
M  V30 7381 C 701.326 4.24418 -0.645615 0
M  V30 7382 C 700.559 5.33667 0.0589164 0
M  V30 7383 O 700.782 5.5589 1.27838 0
M  V30 7384 O 699.716 5.98774 -0.612638 0
M  V30 7385 H 703.542 2.75036 -1.28797 0
M  V30 7386 H 701.127 1.32382 -0.692495 0
M  V30 7387 H 703.009 4.15107 0.725555 0
M  V30 7388 H 701.684 3.02945 1.14043 0
M  V30 7389 H 700.591 3.57174 -1.11255 0
M  V30 7390 H 701.924 4.70512 -1.44496 0
M  V30 7391 N 703.576 0.692616 1.41565 0
M  V30 7392 C 704.801 0.229776 2.06123 0
M  V30 7393 C 705.226 -1.11119 1.5177 0
M  V30 7394 O 704.584 -1.69498 0.643444 0
M  V30 7395 C 704.632 0.19469 3.60074 0
M  V30 7396 O 703.736 -0.831366 4.03933 0
M  V30 7397 H 703.077 0.113002 0.654314 0
M  V30 7398 H 705.607 0.946645 1.81383 0
M  V30 7399 H 705.617 0.0245487 4.07993 0
M  V30 7400 H 704.292 1.17339 3.99004 0
M  V30 7401 H 702.869 -0.630819 3.67526 0
M  V30 7402 N 705.054 -1.51416 0.437162 0
M  V30 7403 C 706.302 -2.01687 -0.129108 0
M  V30 7404 C 706.623 -1.32329 -1.43227 0
M  V30 7405 O 705.893 -0.457796 -1.90476 0
M  V30 7406 H 704.473 -0.745277 -0.0507023 0
M  V30 7407 H 707.135 -1.86075 0.579828 0
M  V30 7408 H 706.231 -3.10605 -0.305141 0
M  V30 7409 N 706.532 -0.168513 -1.56696 0
M  V30 7410 C 707.762 0.482802 -2.0088 0
M  V30 7411 C 708.17 1.57537 -1.0478 0
M  V30 7412 O 707.513 1.83656 -0.0402746 0
M  V30 7413 C 707.575 1.1236 -3.4149 0
M  V30 7414 C 707.239 0.173027 -4.56672 0
M  V30 7415 C 708.236 -0.607565 -5.16338 0
M  V30 7416 C 705.921 0.0696691 -5.02252 0
M  V30 7417 C 707.915 -1.47874 -6.2001 0
M  V30 7418 C 705.602 -0.805096 -6.05773 0
M  V30 7419 C 706.6 -1.57789 -6.64524 0
M  V30 7420 O 706.288 -2.43804 -7.66038 0
M  V30 7421 H 706.02 0.128246 -0.663723 0
M  V30 7422 H 708.574 -0.266532 -2.03663 0
M  V30 7423 H 706.804 1.921 -3.35611 0
M  V30 7424 H 708.493 1.67683 -3.69645 0
M  V30 7425 H 709.259 -0.53787 -4.82008 0
M  V30 7426 H 705.138 0.660957 -4.56237 0
M  V30 7427 H 708.682 -2.0824 -6.65794 0
M  V30 7428 H 704.579 -0.876005 -6.39528 0
M  V30 7429 H 705.347 -2.37289 -7.83349 0
M  V30 7430 N 708.01 1.57248 0.105221 0
M  V30 7431 C 709.287 1.76566 0.841647 0
M  V30 7432 C 709.667 0.747566 1.9742 0
M  V30 7433 O 709.015 -0.225886 2.27381 0
M  V30 7434 C 709.225 3.22016 1.3456 0
M  V30 7435 C 710.573 3.84911 1.79244 0
M  V30 7436 O 711.597 3.25703 1.44207 0
M  V30 7437 O 710.456 4.89008 2.43995 0
M  V30 7438 H 707.55 0.723443 0.400698 0
M  V30 7439 H 710.096 1.69472 0.0878893 0
M  V30 7440 H 708.868 3.87644 0.533685 0
M  V30 7441 H 708.491 3.33703 2.16167 0
M  V30 7442 N 709.488 -0.375779 1.53054 0
M  V30 7443 C 710.737 -1.11674 1.67964 0
M  V30 7444 C 711.05 -1.90755 0.432655 0
M  V30 7445 O 712.256 -2.67538 0.462109 0
M  V30 7446 C 710.712 -2.0344 2.96884 0
M  V30 7447 C 710.32 -1.29719 4.28809 0
M  V30 7448 C 712.064 -2.7759 3.2116 0
M  V30 7449 C 709.971 -2.20327 5.48826 0
M  V30 7450 H 708.901 -0.420597 0.625791 0
M  V30 7451 H 711.552 -0.378499 1.79554 0
M  V30 7452 H 709.934 -2.80953 2.79072 0
M  V30 7453 H 711.108 -0.573394 4.57219 0
M  V30 7454 H 709.423 -0.674735 4.10897 0
M  V30 7455 H 712.02 -3.4559 4.0801 0
M  V30 7456 H 712.363 -3.42399 2.36789 0
M  V30 7457 H 712.896 -2.07164 3.396 0
M  V30 7458 H 709.635 -1.60113 6.35645 0
M  V30 7459 H 709.155 -2.90585 5.2471 0
M  V30 7460 H 710.834 -2.80116 5.83219 0
M  V30 7461 N 710.966 -1.44241 -0.634997 0
M  V30 7462 C 711.929 -1.50457 -1.72903 0
M  V30 7463 C 712.929 -0.387058 -1.56072 0
M  V30 7464 O 714.119 -0.649531 -1.61638 0
M  V30 7465 C 711.251 -1.37477 -3.1195 0
M  V30 7466 H 712.444 -2.47907 -1.68767 0
M  V30 7467 H 709.997 -1.31276 -0.84831 0
M  V30 7468 H 710.732 -0.41106 -3.21684 0
M  V30 7469 H 710.517 -2.18506 -3.25573 0
M  V30 7470 H 712.007 -1.44799 -3.91692 0
M  V30 7471 N 712.444 0.87505 -1.31075 0
M  V30 7472 C 713.374 1.99775 -1.20881 0
M  V30 7473 C 714.355 1.69822 -0.0971612 0
M  V30 7474 O 715.54 1.92158 -0.280895 0
M  V30 7475 C 712.67 3.35163 -0.910118 0
M  V30 7476 C 711.624 3.79406 -1.98078 0
M  V30 7477 C 710.95 5.12197 -1.53488 0
M  V30 7478 C 712.25 3.97061 -3.39323 0
M  V30 7479 H 713.944 2.08562 -2.14808 0
M  V30 7480 H 711.49 1.00207 -1.03415 0
M  V30 7481 H 713.443 4.13237 -0.825423 0
M  V30 7482 H 712.167 3.26536 0.064822 0
M  V30 7483 H 710.826 3.03568 -2.05528 0
M  V30 7484 H 710.474 5.00007 -0.547941 0
M  V30 7485 H 710.174 5.4277 -2.2511 0
M  V30 7486 H 711.698 5.92785 -1.46417 0
M  V30 7487 H 713.112 4.65545 -3.34576 0
M  V30 7488 H 711.509 4.39025 -4.09118 0
M  V30 7489 H 712.579 3.00601 -3.80483 0
M  V30 7490 N 713.922 1.13953 1.08869 0
M  V30 7491 C 714.852 0.844824 2.17681 0
M  V30 7492 C 715.833 -0.198213 1.68941 0
M  V30 7493 O 717.018 -0.0559073 1.9412 0
M  V30 7494 C 714.148 0.316325 3.45856 0
M  V30 7495 C 713.102 1.29426 4.07962 0
M  V30 7496 C 712.428 0.625275 5.31031 0
M  V30 7497 C 713.728 2.65484 4.49795 0
M  V30 7498 H 715.422 1.75471 2.42591 0
M  V30 7499 H 712.968 0.845116 1.16592 0
M  V30 7500 H 714.921 0.0977876 4.21287 0
M  V30 7501 H 713.645 -0.628972 3.20486 0
M  V30 7502 H 712.304 1.49889 3.34558 0
M  V30 7503 H 711.952 -0.325678 5.01945 0
M  V30 7504 H 711.652 1.27777 5.73539 0
M  V30 7505 H 713.176 0.416152 6.0918 0
M  V30 7506 H 714.59 2.48957 5.16424 0
M  V30 7507 H 712.987 3.26963 5.03205 0
M  V30 7508 H 714.057 3.22717 3.61914 0
M  V30 7509 N 715.4 -1.26948 0.933913 0
M  V30 7510 C 716.347 -2.26635 0.436484 0
M  V30 7511 C 717.317 -1.58397 -0.499953 0
M  V30 7512 O 718.502 -1.86171 -0.417753 0
M  V30 7513 C 715.642 -3.43803 -0.298951 0
M  V30 7514 C 714.755 -4.26736 0.672316 0
M  V30 7515 C 713.89 -5.31134 -0.0835872 0
M  V30 7516 C 712.929 -6.05742 0.879979 0
M  V30 7517 N 712.066 -7.01926 0.156301 0
M  V30 7518 H 716.906 -2.68558 1.29154 0
M  V30 7519 H 714.443 -1.32052 0.648118 0
M  V30 7520 H 716.401 -4.10554 -0.741723 0
M  V30 7521 H 715.031 -3.02814 -1.1182 0
M  V30 7522 H 714.083 -3.59842 1.23361 0
M  V30 7523 H 715.395 -4.78502 1.40846 0
M  V30 7524 H 714.549 -6.03863 -0.585984 0
M  V30 7525 H 713.288 -4.80188 -0.852661 0
M  V30 7526 H 712.293 -5.31846 1.39357 0
M  V30 7527 H 713.518 -6.58777 1.64894 0
M  V30 7528 H 711.464 -6.53301 -0.594413 0
M  V30 7529 H 711.381 -7.51409 0.831906 0
M  V30 7530 H 712.649 -7.78821 -0.325239 0
M  V30 7531 N 716.879 -0.700114 -1.41195 0
M  V30 7532 C 717.809 -0.0521132 -2.33442 0
M  V30 7533 C 718.79 0.76228 -1.52063 0
M  V30 7534 O 719.975 0.714336 -1.80585 0
M  V30 7535 C 717.105 0.881693 -3.35922 0
M  V30 7536 C 716.059 0.174062 -4.27646 0
M  V30 7537 C 715.385 1.22254 -5.20536 0
M  V30 7538 C 716.685 -0.962396 -5.13357 0
M  V30 7539 H 718.379 -0.822574 -2.87879 0
M  V30 7540 H 715.925 -0.397011 -1.38419 0
M  V30 7541 H 717.878 1.34429 -3.99383 0
M  V30 7542 H 716.602 1.68387 -2.79845 0
M  V30 7543 H 715.261 -0.268551 -3.65615 0
M  V30 7544 H 714.909 2.01736 -4.60773 0
M  V30 7545 H 714.609 0.754038 -5.82742 0
M  V30 7546 H 716.133 1.68555 -5.86874 0
M  V30 7547 H 717.547 -0.579875 -5.7036 0
M  V30 7548 H 715.944 -1.35828 -5.84526 0
M  V30 7549 H 717.014 -1.80003 -4.50252 0
M  V30 7550 N 718.357 1.51182 -0.445186 0
M  V30 7551 C 719.267 2.31692 0.368255 0
M  V30 7552 C 720.283 1.40942 1.02036 0
M  V30 7553 O 721.459 1.74011 1.01401 0
M  V30 7554 C 718.524 3.14903 1.45041 0
M  V30 7555 C 717.585 4.21442 0.817615 0
M  V30 7556 C 716.818 5.00677 1.8482 0
M  V30 7557 O 717.041 4.80644 3.07145 0
M  V30 7558 O 715.975 5.84559 1.43438 0
M  V30 7559 H 719.801 3.0232 -0.289219 0
M  V30 7560 H 717.386 1.47951 -0.207555 0
M  V30 7561 H 719.268 3.66612 2.07783 0
M  V30 7562 H 717.943 2.47031 2.09182 0
M  V30 7563 H 716.85 3.73791 0.151931 0
M  V30 7564 H 718.183 4.9171 0.219564 0
M  V30 7565 N 719.835 0.176821 1.56605 0
M  V30 7566 C 721.063 -0.472828 2.01425 0
M  V30 7567 C 721.478 -1.56436 1.05703 0
M  V30 7568 O 720.835 -1.82405 0.058808 0
M  V30 7569 C 720.886 -1.04607 3.46034 0
M  V30 7570 O 720.607 0.00189608 4.381 0
M  V30 7571 C 722.108 -1.7734 4.06282 0
M  V30 7572 H 719.328 -0.120503 0.660091 0
M  V30 7573 H 721.872 0.280166 2.02572 0
M  V30 7574 H 720.027 -1.74953 3.45645 0
M  V30 7575 H 720.441 -0.422118 5.22799 0
M  V30 7576 H 721.915 -2.12703 5.09374 0
M  V30 7577 H 722.392 -2.67043 3.4869 0
M  V30 7578 H 722.998 -1.11623 4.10391 0
M  V30 7579 N 721.313 -1.57302 -0.09688 0
M  V30 7580 C 722.541 -1.90202 -0.814295 0
M  V30 7581 C 722.956 -0.770344 -1.72369 0
M  V30 7582 O 722.313 0.257764 -1.8067 0
M  V30 7583 C 722.364 -3.22708 -1.62916 0
M  V30 7584 O 722.085 -4.31522 -0.756343 0
M  V30 7585 C 723.586 -3.69459 -2.44979 0
M  V30 7586 H 720.806 -0.629275 -0.232925 0
M  V30 7587 H 723.35 -2.04364 -0.0746482 0
M  V30 7588 H 721.505 -3.1015 -2.32133 0
M  V30 7589 H 721.919 -5.07604 -1.32054 0
M  V30 7590 H 723.393 -4.64875 -2.9765 0
M  V30 7591 H 723.87 -2.97211 -3.23361 0
M  V30 7592 H 724.476 -3.84879 -1.80964 0
M  V30 7593 N 722.791 0.367657 -1.53252 0
M  V30 7594 C 724.037 1.11216 -1.69584 0
M  V30 7595 C 724.37 1.89026 -0.445269 0
M  V30 7596 O 723.645 1.86342 0.557404 0
M  V30 7597 C 723.928 2.07308 -2.94441 0
M  V30 7598 C 723.781 1.3312 -4.2965 0
M  V30 7599 C 725.1 3.07459 -3.14892 0
M  V30 7600 H 722.219 0.40294 -0.617096 0
M  V30 7601 H 724.861 0.393201 -1.85887 0
M  V30 7602 H 723.011 2.68617 -2.80673 0
M  V30 7603 H 724.683 0.746111 -4.55226 0
M  V30 7604 H 722.926 0.633051 -4.29156 0
M  V30 7605 H 723.597 2.03443 -5.13142 0
M  V30 7606 H 726.073 2.56252 -3.27832 0
M  V30 7607 H 724.949 3.71919 -4.03693 0
M  V30 7608 H 725.21 3.77514 -2.30077 0
M  V30 7609 N 724.269 1.44576 0.627338 0
M  V30 7610 C 725.217 1.52039 1.76031 0
M  V30 7611 C 726.211 0.391796 1.64807 0
M  V30 7612 O 727.417 0.5669 1.7084 0
M  V30 7613 H 723.792 0.477165 0.581221 0
M  V30 7614 H 725.763 2.47387 1.6686 0
M  V30 7615 C 724.512 1.48539 3.14375 0
M  V30 7616 H 723.835 2.34699 3.23661 0
M  V30 7617 H 725.275 1.57821 3.93534 0
M  V30 7618 C 723.734 0.20672 3.36265 0
M  V30 7619 O 724.264 -0.72154 3.95167 0
M  V30 7620 N 722.47 0.108654 2.90397 0
M  V30 7621 H 722.017 0.864884 2.42647 0
M  V30 7622 H 721.975 -0.746121 3.05418 0
M  V30 7623 N 725.747 -0.868086 1.31537 0
M  V30 7624 C 726.977 -1.65162 1.24118 0
M  V30 7625 C 727.385 -1.88187 -0.195558 0
M  V30 7626 O 726.728 -1.44154 -1.13866 0
M  V30 7627 C 726.79 -3.04119 1.91708 0
M  V30 7628 C 726.454 -3.04194 3.4105 0
M  V30 7629 C 727.451 -2.82016 4.36764 0
M  V30 7630 C 725.136 -3.25256 3.82772 0
M  V30 7631 C 727.13 -2.80881 5.72175 0
M  V30 7632 C 724.817 -3.23749 5.18295 0
M  V30 7633 C 725.815 -3.01589 6.12808 0
M  V30 7634 O 725.503 -2.9993 7.45853 0
M  V30 7635 H 725.235 -0.521597 0.430015 0
M  V30 7636 H 727.789 -1.09165 1.73989 0
M  V30 7637 H 726.019 -3.61849 1.36389 0
M  V30 7638 H 727.708 -3.64701 1.78179 0
M  V30 7639 H 728.474 -2.65525 4.05859 0
M  V30 7640 H 724.353 -3.41534 3.09638 0
M  V30 7641 H 727.897 -2.63503 6.45919 0
M  V30 7642 H 723.794 -3.39781 5.48834 0
M  V30 7643 H 724.562 -3.15979 7.55049 0
M  V30 7644 N 727.225 -1.14528 -1.08264 0
M  V30 7645 C 728.453 -0.937964 -1.84418 0
M  V30 7646 C 728.868 0.51357 -1.81681 0
M  V30 7647 O 728.225 1.35591 -1.22153 0
M  V30 7648 C 728.276 -1.43272 -3.31897 0
M  V30 7649 O 727.997 -2.82738 -3.34651 0
M  V30 7650 C 729.498 -1.26555 -4.24851 0
M  V30 7651 H 726.718 -0.333704 -0.582136 0
M  V30 7652 H 729.262 -1.52076 -1.36723 0
M  V30 7653 H 727.417 -0.892653 -3.76975 0
M  V30 7654 H 727.831 -3.04971 -4.26724 0
M  V30 7655 H 729.305 -1.66031 -5.26439 0
M  V30 7656 H 729.782 -0.208589 -4.38704 0
M  V30 7657 H 730.388 -1.79423 -3.856 0
M  V30 7658 N 728.703 1.26451 -0.940633 0
M  V30 7659 C 729.98 1.88947 -0.505811 0
M  V30 7660 C 730.36 1.85011 1.01657 0
M  V30 7661 O 729.708 1.30406 1.87634 0
M  V30 7662 C 729.918 3.32304 -1.06654 0
M  V30 7663 C 731.266 4.09153 -1.13486 0
M  V30 7664 O 732.29 3.41371 -1.01708 0
M  V30 7665 O 731.149 5.30369 -1.31797 0
M  V30 7666 H 728.243 0.810422 -0.164759 0
M  V30 7667 H 730.789 1.34625 -1.03316 0
M  V30 7668 H 729.561 3.29527 -2.11015 0
M  V30 7669 H 729.184 3.94164 -0.521603 0
M  V30 7670 N 730.181 0.707592 1.40822 0
M  V30 7671 C 731.406 0.251626 2.05868 0
M  V30 7672 C 731.831 -1.09503 1.5294 0
M  V30 7673 O 731.189 -1.68806 0.661385 0
M  V30 7674 C 731.237 0.23287 3.59847 0
M  V30 7675 O 730.341 -0.788477 4.04792 0
M  V30 7676 H 729.682 0.119936 0.653078 0
M  V30 7677 H 732.212 0.96583 1.80369 0
M  V30 7678 H 732.222 0.0678204 4.07944 0
M  V30 7679 H 730.897 1.21565 3.97737 0
M  V30 7680 H 729.474 -0.591802 3.68174 0
M  V30 7681 N 731.66 -1.50943 0.453197 0
M  V30 7682 C 732.592 -2.25922 -0.38623 0
M  V30 7683 C 733.605 -1.3055 -0.972652 0
M  V30 7684 O 734.794 -1.56191 -0.864097 0
M  V30 7685 C 731.894 -3.01176 -1.5539 0
M  V30 7686 C 731.067 -4.23768 -1.0835 0
M  V30 7687 C 730.126 -4.81466 -2.12313 0
M  V30 7688 O 729.152 -5.42875 -1.71101 0
M  V30 7689 N 730.354 -4.66889 -3.44956 0
M  V30 7690 H 733.119 -2.98601 0.256468 0
M  V30 7691 H 730.68 -1.59408 0.282965 0
M  V30 7692 H 732.672 -3.36659 -2.24594 0
M  V30 7693 H 731.242 -2.31409 -2.10163 0
M  V30 7694 H 730.462 -3.93597 -0.217961 0
M  V30 7695 H 731.75 -5.03289 -0.746857 0
M  V30 7696 H 731.148 -4.18011 -3.81161 0
M  V30 7697 H 729.705 -5.06691 -4.1001 0
M  V30 7698 N 733.138 -0.185124 -1.56509 0
M  V30 7699 C 734.554 0.170865 -1.58683 0
M  V30 7700 C 734.754 1.61799 -1.20098 0
M  V30 7701 O 733.81 2.35181 -0.919038 0
M  V30 7702 C 735.123 -0.122459 -3.00451 0
M  V30 7703 C 736.671 -0.0617699 -3.12939 0
M  V30 7704 C 737.146 -0.328269 -4.56822 0
M  V30 7705 N 738.637 -0.276533 -4.62374 0
M  V30 7706 C 739.372 -0.456722 -5.71578 0
M  V30 7707 N 738.868 -0.69672 -6.89288 0
M  V30 7708 N 740.661 -0.391669 -5.60734 0
M  V30 7709 H 732.812 -1.12956 -1.79874 0
M  V30 7710 H 735.075 -0.45011 -0.834329 0
M  V30 7711 H 734.781 -1.12546 -3.33206 0
M  V30 7712 H 734.655 0.579578 -3.72721 0
M  V30 7713 H 737.042 0.931826 -2.80002 0
M  V30 7714 H 737.123 -0.796732 -2.43076 0
M  V30 7715 H 736.767 -1.31914 -4.9047 0
M  V30 7716 H 736.697 0.427465 -5.24862 0
M  V30 7717 H 739.188 -0.0972458 -3.77775 0
M  V30 7718 H 739.501 -0.823291 -7.68402 0
M  V30 7719 H 737.846 -0.733497 -6.91119 0
M  V30 7720 H 741.037 -0.204663 -4.67652 0
M  V30 7721 H 741.21 -0.535518 -6.45783 0
M  V30 7722 N 734.616 1.57351 0.0885366 0
M  V30 7723 C 736.027 1.75303 0.642308 0
M  V30 7724 C 736.378 0.808238 1.78779 0
M  V30 7725 O 735.503 -0.01171 2.16397 0
M  V30 7726 C 736.098 3.17885 1.17194 0
M  V30 7727 C 734.657 3.37239 1.67172 0
M  V30 7728 C 733.804 2.7108 0.584045 0
M  V30 7729 H 736.755 1.58103 -0.137567 0
M  V30 7730 H 736.776 3.2112 2.04114 0
M  V30 7731 H 736.288 3.86625 0.338024 0
M  V30 7732 H 734.389 2.73588 2.52943 0
M  V30 7733 H 734.502 4.45594 1.76019 0
M  V30 7734 H 732.866 2.33161 1.02508 0
M  V30 7735 H 733.649 3.42464 -0.239403 0
M  V30 7736 N 736.094 -0.359525 1.53444 0
M  V30 7737 C 737.343 -1.09886 1.69139 0
M  V30 7738 C 737.656 -1.90285 0.452863 0
M  V30 7739 O 738.862 -2.67033 0.490459 0
M  V30 7740 C 737.318 -2.0028 2.99025 0
M  V30 7741 C 736.926 -1.25164 4.30161 0
M  V30 7742 C 738.67 -2.74168 3.24086 0
M  V30 7743 C 736.577 -2.14494 5.51132 0
M  V30 7744 H 735.507 -0.413936 0.630217 0
M  V30 7745 H 738.158 -0.359434 1.79945 0
M  V30 7746 H 736.54 -2.77978 2.82036 0
M  V30 7747 H 737.714 -0.524867 4.57801 0
M  V30 7748 H 736.029 -0.631116 4.11589 0
M  V30 7749 H 738.626 -3.41243 4.11652 0
M  V30 7750 H 738.969 -3.39868 2.40407 0
M  V30 7751 H 739.502 -2.0355 3.41778 0
M  V30 7752 H 736.241 -1.53362 6.37307 0
M  V30 7753 H 735.761 -2.85004 5.27762 0
M  V30 7754 H 737.44 -2.73914 5.86157 0
M  V30 7755 N 737.572 -1.44907 -0.619662 0
M  V30 7756 C 738.812 -1.49822 -1.39042 0
M  V30 7757 C 739.176 -0.131803 -1.91547 0
M  V30 7758 O 740.377 -0.0556413 -2.68742 0
M  V30 7759 C 738.648 -2.53805 -2.5163 0
M  V30 7760 S 740.207 -2.77855 -3.3962 0
M  V30 7761 H 737.025 -0.529774 -0.474195 0
M  V30 7762 H 739.627 -1.81907 -0.716236 0
M  V30 7763 H 738.331 -3.51772 -2.11387 0
M  V30 7764 H 737.862 -2.23331 -3.23863 0
M  V30 7765 H 739.877 -2.10319 -4.49422 0
M  V30 7766 N 739.05 0.861098 -1.31996 0
M  V30 7767 C 739.98 1.98482 -1.22993 0
M  V30 7768 C 740.961 1.6971 -0.115168 0
M  V30 7769 O 742.146 1.91849 -0.30126 0
M  V30 7770 C 739.276 3.34179 -0.945615 0
M  V30 7771 C 738.23 3.77284 -2.02091 0
M  V30 7772 C 737.556 5.1054 -1.58912 0
M  V30 7773 C 738.856 3.93439 -3.43515 0
M  V30 7774 H 740.55 2.06271 -2.17008 0
M  V30 7775 H 738.096 0.991043 -1.04472 0
M  V30 7776 H 740.049 4.12338 -0.869206 0
M  V30 7777 H 738.773 3.26586 0.0301849 0
M  V30 7778 H 737.432 3.01371 -2.08737 0
M  V30 7779 H 737.08 4.99397 -0.600942 0
M  V30 7780 H 736.78 5.40352 -2.30854 0
M  V30 7781 H 738.304 5.91199 -1.52696 0
M  V30 7782 H 739.718 4.6197 -3.39495 0
M  V30 7783 H 738.115 4.34661 -4.13751 0
M  V30 7784 H 739.185 2.96548 -3.8365 0
M  V30 7785 N 740.528 1.15101 1.07655 0
M  V30 7786 C 741.939 0.933848 1.61667 0
M  V30 7787 C 742.29 -0.525569 1.8903 0
M  V30 7788 O 741.415 -1.39605 1.65346 0
M  V30 7789 C 742.01 1.68876 2.93711 0
M  V30 7790 C 740.569 1.51697 3.44478 0
M  V30 7791 C 739.716 1.70633 2.18586 0
M  V30 7792 H 742.667 1.30171 0.907816 0
M  V30 7793 H 742.688 1.15645 3.625 0
M  V30 7794 H 742.2 2.7509 2.73764 0
M  V30 7795 H 740.301 0.478635 3.69513 0
M  V30 7796 H 740.414 2.29194 4.20722 0
M  V30 7797 H 738.778 1.13259 2.28132 0
M  V30 7798 H 739.561 2.78206 2.01137 0
M  V30 7799 N 742.006 -1.2595 0.947325 0
M  V30 7800 C 743.231 -1.98083 0.614633 0
M  V30 7801 C 743.656 -1.70013 -0.804815 0
M  V30 7802 O 743.014 -0.95175 -1.54309 0
M  V30 7803 C 743.062 -3.4993 0.870706 0
M  V30 7804 O 742.166 -4.12364 -0.0541451 0
M  V30 7805 H 741.507 -0.621232 0.234451 0
M  V30 7806 H 744.037 -1.60259 1.27193 0
M  V30 7807 H 744.047 -4.00198 0.794051 0
M  V30 7808 H 742.722 -3.69691 1.90529 0
M  V30 7809 H 741.299 -3.72826 0.0740917 0
M  V30 7810 N 743.484 -0.715051 -1.40445 0
M  V30 7811 C 744.431 -0.0621393 -2.30716 0
M  V30 7812 C 745.401 0.750871 -1.48159 0
M  V30 7813 O 746.586 0.714928 -1.76899 0
M  V30 7814 C 743.726 0.854036 -3.34365 0
M  V30 7815 C 742.839 0.0305565 -4.31989 0
M  V30 7816 C 741.974 0.946162 -5.22706 0
M  V30 7817 C 741.013 0.116741 -6.11989 0
M  V30 7818 N 740.15 0.987194 -6.95125 0
M  V30 7819 H 744.99 -0.83764 -2.85985 0
M  V30 7820 H 742.527 -0.424759 -1.40834 0
M  V30 7821 H 744.485 1.39946 -3.93028 0
M  V30 7822 H 743.115 1.59572 -2.806 0
M  V30 7823 H 742.167 -0.632044 -3.75112 0
M  V30 7824 H 743.479 -0.611615 -4.95036 0
M  V30 7825 H 742.633 1.56014 -5.86297 0
M  V30 7826 H 741.372 1.62216 -4.59932 0
M  V30 7827 H 740.377 -0.510176 -5.47428 0
M  V30 7828 H 741.602 -0.555742 -6.76822 0
M  V30 7829 H 739.548 1.64885 -6.3494 0
M  V30 7830 H 739.465 0.401046 -7.54936 0
M  V30 7831 H 740.733 1.58737 -7.63166 0
M  V30 7832 N 744.962 1.50701 -0.461195 0
M  V30 7833 C 746.21 2.01867 0.0970051 0
M  V30 7834 C 746.531 1.34591 1.41104 0
M  V30 7835 O 745.801 0.488041 1.89723 0
M  V30 7836 H 744.381 0.74599 0.0388392 0
M  V30 7837 H 747.043 1.85129 -0.609357 0
M  V30 7838 H 746.139 3.11051 0.255688 0
M  V30 7839 N 746.441 0.193421 1.56409 0
M  V30 7840 C 747.718 -0.493318 1.89277 0
M  V30 7841 C 748.098 -1.79765 1.10669 0
M  V30 7842 O 747.446 -2.27558 0.207274 0
M  V30 7843 C 747.656 -0.713732 3.41624 0
M  V30 7844 C 749.004 -1.03385 4.11821 0
M  V30 7845 O 750.028 -0.801511 3.47065 0
M  V30 7846 O 748.887 -1.47327 5.26267 0
M  V30 7847 H 745.981 -0.256973 0.786062 0
M  V30 7848 H 748.527 0.23351 1.68086 0
M  V30 7849 H 747.299 0.207446 3.9075 0
M  V30 7850 H 746.922 -1.49308 3.68501 0
M  V30 7851 N 747.919 -1.57396 -0.0801906 0
M  V30 7852 C 749.335 -1.53564 -0.434778 0
M  V30 7853 C 749.535 -0.912372 -1.79661 0
M  V30 7854 O 748.591 -0.511268 -2.4727 0
M  V30 7855 C 749.904 -2.98244 -0.383561 0
M  V30 7856 C 751.452 -3.09536 -0.46435 0
M  V30 7857 C 751.927 -4.55851 -0.443128 0
M  V30 7858 N 753.418 -4.60456 -0.503448 0
M  V30 7859 C 754.153 -5.71135 -0.509106 0
M  V30 7860 N 753.649 -6.91203 -0.47008 0
M  V30 7861 N 755.442 -5.59353 -0.555035 0
M  V30 7862 H 747.593 -1.96281 0.811635 0
M  V30 7863 H 749.856 -0.898041 0.303689 0
M  V30 7864 H 749.562 -3.47369 0.550236 0
M  V30 7865 H 749.436 -3.57705 -1.19694 0
M  V30 7866 H 751.823 -2.6039 -1.38857 0
M  V30 7867 H 751.904 -2.53 0.377445 0
M  V30 7868 H 751.548 -5.05653 0.477207 0
M  V30 7869 H 751.478 -5.10242 -1.30234 0
M  V30 7870 H 753.969 -3.74048 -0.538199 0
M  V30 7871 H 754.282 -7.7132 -0.478091 0
M  V30 7872 H 752.627 -6.93625 -0.436897 0
M  V30 7873 H 755.818 -4.64453 -0.583158 0
M  V30 7874 H 755.991 -6.4561 -0.555976 0
M  V30 7875 N 749.397 0.351382 -1.53633 0
M  V30 7876 C 750.345 1.45142 -1.8176 0
M  V30 7877 C 751.339 1.54819 -0.687571 0
M  V30 7878 O 752.545 1.57536 -0.870772 0
M  V30 7879 H 748.92 0.483789 -0.575719 0
M  V30 7880 H 750.891 1.1863 -2.73806 0
M  V30 7881 C 749.64 2.81779 -2.03706 0
M  V30 7882 H 748.963 2.75097 -2.90107 0
M  V30 7883 H 750.403 3.5789 -2.27356 0
M  V30 7884 C 748.862 3.26762 -0.820271 0
M  V30 7885 O 749.392 4.01697 -0.0158603 0
M  V30 7886 N 747.598 2.83472 -0.639699 0
M  V30 7887 H 747.145 2.22655 -1.29547 0
M  V30 7888 H 747.103 3.13924 0.172995 0
M  V30 7889 N 750.875 1.45233 0.611969 0
M  V30 7890 C 752.121 1.49242 1.37312 0
M  V30 7891 C 752.454 0.131963 1.93751 0
M  V30 7892 O 751.729 -0.852999 1.74798 0
M  V30 7893 C 752.012 2.56811 2.52428 0
M  V30 7894 C 751.865 4.02284 2.01215 0
M  V30 7895 C 753.184 2.60705 3.54572 0
M  V30 7896 H 750.303 0.54336 0.497925 0
M  V30 7897 H 752.945 1.77019 0.690242 0
M  V30 7898 H 751.095 2.33256 3.10683 0
M  V30 7899 H 752.767 4.37035 1.47643 0
M  V30 7900 H 751.01 4.1315 1.32248 0
M  V30 7901 H 751.681 4.7323 2.84178 0
M  V30 7902 H 754.157 2.81799 3.06151 0
M  V30 7903 H 753.033 3.37841 4.32614 0
M  V30 7904 H 753.294 1.65627 4.09903 0
M  V30 7905 N 752.353 -0.854086 1.3245 0
M  V30 7906 C 753.602 -1.60318 1.22397 0
M  V30 7907 C 753.915 -1.9444 -0.212664 0
M  V30 7908 O 755.121 -2.67991 -0.435066 0
M  V30 7909 C 753.577 -2.8909 2.1437 0
M  V30 7910 C 753.185 -2.62391 3.63119 0
M  V30 7911 C 754.929 -3.67104 2.13155 0
M  V30 7912 C 752.836 -3.87167 4.47052 0
M  V30 7913 H 751.766 -0.601586 0.454544 0
M  V30 7914 H 754.417 -0.943023 1.57415 0
M  V30 7915 H 752.799 -3.56567 1.72268 0
M  V30 7916 H 753.973 -2.03222 4.13567 0
M  V30 7917 H 752.288 -1.97706 3.66471 0
M  V30 7918 H 754.885 -4.59696 2.731 0
M  V30 7919 H 755.228 -4.00876 1.12268 0
M  V30 7920 H 755.761 -3.06533 2.5354 0
M  V30 7921 H 752.5 -3.58536 5.48755 0
M  V30 7922 H 752.02 -4.45729 4.01355 0
M  V30 7923 H 753.699 -4.549 4.60081 0
M  V30 7924 N 753.831 -1.1567 -1.07043 0
M  V30 7925 C 755.061 -0.956083 -1.83146 0
M  V30 7926 C 755.469 0.498969 -1.82502 0
M  V30 7927 O 754.812 1.35791 -1.23719 0
M  V30 7928 C 754.874 -1.39704 -3.31245 0
M  V30 7929 C 754.538 -2.87045 -3.55604 0
M  V30 7930 C 755.535 -3.85092 -3.49285 0
M  V30 7931 C 753.22 -3.24787 -3.8317 0
M  V30 7932 C 755.214 -5.18885 -3.70185 0
M  V30 7933 C 752.901 -4.58751 -4.03721 0
M  V30 7934 C 753.899 -5.55609 -3.97224 0
M  V30 7935 O 753.587 -6.87154 -4.17223 0
M  V30 7936 H 753.319 -0.339473 -0.58458 0
M  V30 7937 H 755.873 -1.53922 -1.36005 0
M  V30 7938 H 754.103 -0.757326 -3.79212 0
M  V30 7939 H 755.792 -1.16503 -3.88821 0
M  V30 7940 H 756.558 -3.5728 -3.27988 0
M  V30 7941 H 752.437 -2.49979 -3.87339 0
M  V30 7942 H 755.981 -5.94473 -3.6503 0
M  V30 7943 H 751.878 -4.86277 -4.24505 0
M  V30 7944 H 752.646 -6.93618 -4.34553 0
M  V30 7945 N 755.309 1.25446 -0.953992 0
M  V30 7946 C 756.537 1.97215 -0.625595 0
M  V30 7947 C 756.952 1.70911 0.802168 0
M  V30 7948 O 756.309 0.984782 1.5365 0
M  V30 7949 C 756.36 3.50777 -0.873943 0
M  V30 7950 O 756.081 3.76173 -2.24556 0
M  V30 7951 C 757.582 4.39776 -0.557845 0
M  V30 7952 H 754.802 0.628652 -0.2346 0
M  V30 7953 H 757.346 1.59632 -1.27819 0
M  V30 7954 H 755.501 3.86474 -0.267765 0
M  V30 7955 H 755.915 4.70636 -2.31522 0
M  V30 7956 H 757.389 5.46431 -0.782157 0
M  V30 7957 H 757.866 4.36257 0.507573 0
M  V30 7958 H 758.472 4.09644 -1.14332 0
M  V30 7959 N 756.787 0.722489 1.40064 0
M  V30 7960 C 758.064 0.191829 1.94657 0
M  V30 7961 C 758.444 -1.30389 1.66018 0
M  V30 7962 O 757.792 -2.06342 0.981588 0
M  V30 7963 C 758.002 0.511978 3.45224 0
M  V30 7964 C 759.35 0.454426 4.22161 0
M  V30 7965 O 760.374 0.448438 3.53366 0
M  V30 7966 O 759.233 0.437986 5.44742 0
M  V30 7967 H 756.327 0.0307821 0.826427 0
M  V30 7968 H 758.873 0.800493 1.49634 0
M  V30 7969 H 757.645 1.54622 3.59455 0
M  V30 7970 H 757.268 -0.126296 3.97399 0
M  V30 7971 N 758.265 -1.50454 0.469181 0
M  V30 7972 C 759.505 -2.04222 -0.0852381 0
M  V30 7973 C 759.869 -1.34357 -1.37158 0
M  V30 7974 O 761.07 -1.78669 -2.00825 0
M  V30 7975 C 759.341 -3.56403 -0.266778 0
M  V30 7976 S 760.9 -4.31811 -0.780028 0
M  V30 7977 H 757.718 -0.7108 -0.0168589 0
M  V30 7978 H 760.32 -1.8487 0.635883 0
M  V30 7979 H 759.024 -4.04807 0.67525 0
M  V30 7980 H 758.555 -3.80106 -1.01407 0
M  V30 7981 H 760.57 -4.51706 -2.05368 0
M  V30 7982 N 759.743 -0.201713 -1.56304 0
M  V30 7983 C 760.989 0.429292 -1.98818 0
M  V30 7984 C 761.344 1.58779 -1.08659 0
M  V30 7985 O 760.637 1.91142 -0.132365 0
M  V30 7986 C 760.831 0.931432 -3.45049 0
M  V30 7987 C 760.66 -0.176878 -4.49352 0
M  V30 7988 C 759.43 -0.636712 -5.01272 0
M  V30 7989 C 761.628 -0.988177 -5.04717 0
M  V30 7990 N 759.61 -1.72215 -5.8925 0
M  V30 7991 C 760.981 -1.92288 -5.89428 0
M  V30 7992 C 763.036 -1.02985 -4.87133 0
M  V30 7993 C 761.739 -2.89582 -6.58434 0
M  V30 7994 C 763.765 -1.99087 -5.56883 0
M  V30 7995 C 763.127 -2.913 -6.41345 0
M  V30 7996 H 759.226 0.124322 -0.772054 0
M  V30 7997 H 761.81 -0.308929 -1.92234 0
M  V30 7998 H 759.981 1.63907 -3.52121 0
M  V30 7999 H 761.713 1.5336 -3.74517 0
M  V30 8000 H 758.468 -0.228861 -4.73047 0
M  V30 8001 H 758.892 -2.26627 -6.37941 0
M  V30 8002 H 763.534 -0.330894 -4.21503 0
M  V30 8003 H 761.252 -3.6045 -7.23258 0
M  V30 8004 H 764.838 -2.0296 -5.45251 0
M  V30 8005 H 763.718 -3.6445 -6.94367 0
M  V30 8006 N 761.222 1.57436 0.0718424 0
M  V30 8007 C 762.468 1.87525 0.772149 0
M  V30 8008 C 762.801 0.79399 1.77227 0
M  V30 8009 O 762.076 -0.195733 1.93513 0
M  V30 8010 C 762.359 3.28272 1.48018 0
M  V30 8011 C 762.212 4.47052 0.49647 0
M  V30 8012 C 763.531 3.67256 2.42509 0
M  V30 8013 H 760.65 0.682049 0.279245 0
M  V30 8014 H 763.292 1.89967 0.03534 0
M  V30 8015 H 761.442 3.26321 2.10824 0
M  V30 8016 H 763.114 4.61127 -0.126375 0
M  V30 8017 H 761.357 4.33392 -0.188205 0
M  V30 8018 H 762.028 5.42315 1.02949 0
M  V30 8019 H 764.504 3.70301 1.89781 0
M  V30 8020 H 763.38 4.66626 2.89053 0
M  V30 8021 H 763.641 2.97186 3.27312 0
M  V30 8022 N 762.7 -0.34323 1.53817 0
M  V30 8023 C 763.928 -1.10348 1.75017 0
M  V30 8024 C 764.343 -1.82345 0.489475 0
M  V30 8025 O 763.7 -1.74362 -0.538886 0
M  V30 8026 C 763.751 -2.11672 2.93048 0
M  V30 8027 O 763.472 -1.42603 4.14241 0
M  V30 8028 C 764.973 -3.0007 3.26301 0
M  V30 8029 H 762.193 -0.329056 0.584776 0
M  V30 8030 H 764.737 -0.395339 2.00642 0
M  V30 8031 H 762.892 -2.78051 2.69753 0
M  V30 8032 H 763.306 -2.10294 4.80496 0
M  V30 8033 H 764.78 -3.67101 4.12239 0
M  V30 8034 H 765.257 -3.66105 2.42618 0
M  V30 8035 H 765.863 -2.3928 3.51604 0
M  V30 8036 N 764.178 -1.45556 -0.604258 0
M  V30 8037 C 765.426 -1.4945 -1.36048 0
M  V30 8038 C 765.747 -0.138933 -1.94504 0
M  V30 8039 O 765.017 0.832097 -1.7735 0
M  V30 8040 H 763.597 -0.550381 -0.505064 0
M  V30 8041 H 766.259 -1.81535 -0.709308 0
M  V30 8042 H 765.355 -2.23519 -2.17821 0
M  V30 8043 N 765.656 0.84705 -1.32902 0
M  V30 8044 C 766.902 1.60389 -1.25088 0
M  V30 8045 C 767.257 1.91521 0.183723 0
M  V30 8046 O 766.55 1.55197 1.12359 0
M  V30 8047 C 766.744 2.92663 -2.05142 0
M  V30 8048 C 766.573 2.74449 -3.56241 0
M  V30 8049 C 765.343 2.72434 -4.25567 0
M  V30 8050 C 767.541 2.47666 -4.5074 0
M  V30 8051 N 765.523 2.45512 -5.62669 0
M  V30 8052 C 766.894 2.30219 -5.75673 0
M  V30 8053 C 768.949 2.33196 -4.39914 0
M  V30 8054 C 767.652 1.99772 -6.91002 0
M  V30 8055 C 769.678 2.0414 -5.5505 0
M  V30 8056 C 769.04 1.875 -6.78987 0
M  V30 8057 H 765.139 0.590296 -0.512908 0
M  V30 8058 H 767.723 0.995058 -1.67352 0
M  V30 8059 H 765.894 3.51511 -1.65211 0
M  V30 8060 H 767.626 3.5777 -1.89163 0
M  V30 8061 H 764.381 2.85647 -3.7776 0
M  V30 8062 H 764.805 2.34958 -6.3492 0
M  V30 8063 H 769.447 2.44777 -3.44738 0
M  V30 8064 H 767.165 1.86928 -7.86183 0
M  V30 8065 H 770.751 1.93711 -5.48605 0
M  V30 8066 H 769.631 1.65339 -7.66572 0
M  V30 8067 N 767.134 1.16236 1.06428 0
M  V30 8068 C 768.382 0.941171 1.78847 0
M  V30 8069 C 768.703 -0.53248 1.87589 0
M  V30 8070 O 767.973 -1.38686 1.38358 0
M  V30 8071 H 766.553 0.345228 0.66244 0
M  V30 8072 H 769.215 1.46479 1.28569 0
M  V30 8073 H 768.311 1.35871 2.80972 0
M  V30 8074 N 768.612 -1.24939 0.960631 0
M  V30 8075 C 769.842 -1.96595 0.635123 0
M  V30 8076 C 770.25 -1.71538 -0.798206 0
M  V30 8077 O 769.593 -0.991727 -1.5463 0
M  V30 8078 C 769.655 -3.49994 0.821248 0
M  V30 8079 C 769.319 -3.98738 2.23287 0
M  V30 8080 C 770.316 -4.08965 3.21004 0
M  V30 8081 C 768.001 -4.32247 2.55867 0
M  V30 8082 C 769.995 -4.52025 4.49391 0
M  V30 8083 C 767.682 -4.74991 3.84482 0
M  V30 8084 C 768.68 -4.84844 4.81056 0
M  V30 8085 O 768.368 -5.26638 6.07378 0
M  V30 8086 H 768.1 -0.633265 0.23654 0
M  V30 8087 H 770.654 -1.5991 1.28911 0
M  V30 8088 H 768.884 -3.86543 0.110105 0
M  V30 8089 H 770.573 -4.02859 0.495892 0
M  V30 8090 H 771.339 -3.83302 2.97161 0
M  V30 8091 H 767.218 -4.23801 1.81421 0
M  V30 8092 H 770.762 -4.5963 5.24773 0
M  V30 8093 H 766.659 -5.00101 4.08129 0
M  V30 8094 H 767.427 -5.44807 6.10842 0
M  V30 8095 N 770.09 -0.729906 -1.39679 0
M  V30 8096 C 771.506 -0.404951 -1.54377 0
M  V30 8097 C 771.706 1.08476 -1.6981 0
M  V30 8098 O 770.762 1.87087 -1.69572 0
M  V30 8099 C 772.075 -1.18352 -2.76429 0
M  V30 8100 C 773.623 -1.17124 -2.9026 0
M  V30 8101 C 774.098 -1.93227 -4.15244 0
M  V30 8102 N 775.589 -1.90368 -4.22273 0
M  V30 8103 C 776.324 -2.46065 -5.17918 0
M  V30 8104 N 775.82 -3.10378 -6.19385 0
M  V30 8105 N 777.613 -2.36127 -5.10099 0
M  V30 8106 H 769.764 -1.69567 -1.27909 0
M  V30 8107 H 772.027 -0.717527 -0.619564 0
M  V30 8108 H 771.733 -2.23743 -2.71352 0
M  V30 8109 H 771.607 -0.784589 -3.6895 0
M  V30 8110 H 773.994 -0.125478 -2.94833 0
M  V30 8111 H 774.075 -1.60951 -1.98817 0
M  V30 8112 H 773.719 -2.97802 -4.11432 0
M  V30 8113 H 773.649 -1.4681 -5.05722 0
M  V30 8114 H 776.14 -1.4351 -3.4959 0
M  V30 8115 H 776.453 -3.50358 -6.88817 0
M  V30 8116 H 774.798 -3.14467 -6.19787 0
M  V30 8117 H 777.989 -1.85529 -4.29763 0
M  V30 8118 H 778.162 -2.79833 -5.84463 0
M  V30 8119 N 771.568 1.50203 -0.477153 0
M  V30 8120 C 772.515 2.28656 0.31386 0
M  V30 8121 C 773.485 1.33977 0.981802 0
M  V30 8122 O 774.67 1.62919 0.993072 0
M  V30 8123 C 771.81 3.16027 1.38639 0
M  V30 8124 C 770.923 4.25743 0.732615 0
M  V30 8125 C 770.058 5.00363 1.78355 0
M  V30 8126 C 769.097 6.01945 1.11035 0
M  V30 8127 N 768.234 6.6982 2.10441 0
M  V30 8128 H 773.074 2.958 -0.361445 0
M  V30 8129 H 770.611 1.45867 -0.190093 0
M  V30 8130 H 772.569 3.6504 2.01994 0
M  V30 8131 H 771.199 2.50917 2.03077 0
M  V30 8132 H 770.251 3.80398 -0.0136546 0
M  V30 8133 H 771.563 4.98393 0.201513 0
M  V30 8134 H 770.717 5.53124 2.49276 0
M  V30 8135 H 769.456 4.27432 2.34847 0
M  V30 8136 H 768.461 5.48438 0.386797 0
M  V30 8137 H 769.686 6.76851 0.552248 0
M  V30 8138 H 767.632 5.99677 2.65939 0
M  V30 8139 H 767.549 7.38366 1.62332 0
M  V30 8140 H 768.817 7.27196 2.80724 0
M  V30 8141 N 773.046 0.209999 1.56195 0
M  V30 8142 C 773.976 -0.699746 2.22769 0
M  V30 8143 C 774.957 -1.20993 1.1956 0
M  V30 8144 O 776.142 -1.25605 1.48112 0
M  V30 8145 C 773.272 -1.91302 2.89863 0
M  V30 8146 C 772.226 -1.53715 3.99444 0
M  V30 8147 C 771.552 -2.82826 4.53777 0
M  V30 8148 C 772.852 -0.735836 5.17091 0
M  V30 8149 H 774.546 -0.144716 2.9905 0
M  V30 8150 H 772.092 -0.0681645 1.43839 0
M  V30 8151 H 774.045 -2.5548 3.35124 0
M  V30 8152 H 772.769 -2.49283 2.11011 0
M  V30 8153 H 771.428 -0.918892 3.54897 0
M  V30 8154 H 771.076 -3.38927 3.71669 0
M  V30 8155 H 770.776 -2.58415 5.27727 0
M  V30 8156 H 772.3 -3.47966 5.01749 0
M  V30 8157 H 773.714 -1.28105 5.58804 0
M  V30 8158 H 772.111 -0.589272 5.972 0
M  V30 8159 H 773.181 0.260004 4.84202 0
M  V30 8160 N 774.524 -1.57472 -0.0634922 0
M  V30 8161 C 775.94 -1.54016 -0.418466 0
M  V30 8162 C 776.14 -0.931376 -1.78683 0
M  V30 8163 O 775.196 -0.537465 -2.46714 0
M  V30 8164 C 776.509 -2.98634 -0.351906 0
M  V30 8165 C 778.057 -3.10012 -0.431494 0
M  V30 8166 C 778.532 -4.56296 -0.394754 0
M  V30 8167 N 780.023 -4.60964 -0.454583 0
M  V30 8168 C 780.758 -5.71643 -0.448501 0
M  V30 8169 N 780.254 -6.91663 -0.396742 0
M  V30 8170 N 782.047 -5.5991 -0.495677 0
M  V30 8171 H 774.198 -1.95409 0.832408 0
M  V30 8172 H 776.461 -0.894769 0.313197 0
M  V30 8173 H 776.167 -3.46766 0.587048 0
M  V30 8174 H 776.041 -3.58955 -1.15893 0
M  V30 8175 H 778.428 -2.61848 -1.36087 0
M  V30 8176 H 778.509 -2.52585 0.404258 0
M  V30 8177 H 778.153 -5.05119 0.530811 0
M  V30 8178 H 778.083 -5.11594 -1.24815 0
M  V30 8179 H 780.574 -3.74598 -0.498496 0
M  V30 8180 H 780.887 -7.71783 -0.396256 0
M  V30 8181 H 779.232 -6.9405 -0.363304 0
M  V30 8182 H 782.423 -4.65046 -0.533864 0
M  V30 8183 H 782.596 -6.46164 -0.487469 0
M  V30 8184 N 776.003 0.335068 -1.53997 0
M  V30 8185 C 777.28 1.09188 -1.62288 0
M  V30 8186 C 777.66 2.0626 -0.449458 0
M  V30 8187 O 777.008 2.21596 0.557444 0
M  V30 8188 C 777.218 1.80403 -2.98757 0
M  V30 8189 C 778.566 2.33841 -3.54406 0
M  V30 8190 O 779.59 1.90487 -3.00987 0
M  V30 8191 O 778.449 3.1318 -4.47862 0
M  V30 8192 H 775.543 0.502621 -0.656736 0
M  V30 8193 H 778.089 0.33588 -1.66343 0
M  V30 8194 H 776.861 1.09732 -3.75599 0
M  V30 8195 H 776.484 2.62841 -2.9833 0
M  V30 8196 N 777.481 1.45874 0.596531 0
M  V30 8197 C 778.428 1.55389 1.70655 0
M  V30 8198 C 779.398 0.399036 1.61236 0
M  V30 8199 O 780.583 0.61396 1.80652 0
M  V30 8200 C 777.723 1.53705 3.0898 0
M  V30 8201 C 776.836 2.79823 3.29125 0
M  V30 8202 C 775.971 2.69735 4.5762 0
M  V30 8203 C 775.01 3.90856 4.71061 0
M  V30 8204 N 774.147 3.79237 5.90867 0
M  V30 8205 H 778.987 2.50211 1.61859 0
M  V30 8206 H 776.524 1.24146 0.789069 0
M  V30 8207 H 778.482 1.50715 3.89026 0
M  V30 8208 H 777.112 0.624247 3.16706 0
M  V30 8209 H 776.164 2.92852 2.42779 0
M  V30 8210 H 777.476 3.69628 3.34927 0
M  V30 8211 H 776.63 2.64773 5.45875 0
M  V30 8212 H 775.369 1.77547 4.54234 0
M  V30 8213 H 774.374 3.96164 3.81227 0
M  V30 8214 H 775.599 4.84124 4.76236 0
M  V30 8215 H 773.545 2.89825 5.88504 0
M  V30 8216 H 773.462 4.62686 5.97877 0
M  V30 8217 H 774.73 3.78227 6.8159 0
M  V30 8218 N 778.959 -0.83999 1.33349 0
M  V30 8219 C 780.208 -1.59011 1.2409 0
M  V30 8220 C 780.521 -1.94655 -0.192029 0
M  V30 8221 O 781.727 -2.68438 -0.406617 0
M  V30 8222 C 780.183 -2.86801 2.17425 0
M  V30 8223 C 779.791 -2.58525 3.65881 0
M  V30 8224 C 781.535 -3.64823 2.17036 0
M  V30 8225 C 779.442 -3.82404 4.51133 0
M  V30 8226 H 778.372 -0.596731 0.460899 0
M  V30 8227 H 781.023 -0.926274 1.58406 0
M  V30 8228 H 779.405 -3.54719 1.7604 0
M  V30 8229 H 780.579 -1.98824 4.15699 0
M  V30 8230 H 778.894 -1.93808 3.68548 0
M  V30 8231 H 781.491 -4.56774 2.7796 0
M  V30 8232 H 781.834 -3.99663 1.16513 0
M  V30 8233 H 782.367 -3.03826 2.56777 0
M  V30 8234 H 779.106 -3.52696 5.52527 0
M  V30 8235 H 778.626 -4.41447 4.0606 0
M  V30 8236 H 780.305 -4.49995 4.6488 0
M  V30 8237 N 780.437 -1.16799 -1.0581 0
M  V30 8238 C 781.369 -0.836774 -2.13379 0
M  V30 8239 C 782.382 0.158116 -1.6203 0
M  V30 8240 O 783.571 -0.0673211 -1.78373 0
M  V30 8241 C 780.671 -0.225959 -3.38146 0
M  V30 8242 C 779.844 -1.26217 -4.18794 0
M  V30 8243 C 778.903 -0.670257 -5.21914 0
M  V30 8244 O 777.929 -1.34042 -5.53192 0
M  V30 8245 N 779.131 0.540683 -5.77977 0
M  V30 8246 H 781.896 -1.76257 -2.42391 0
M  V30 8247 H 779.457 -1.06599 -1.21853 0
M  V30 8248 H 781.449 0.18317 -4.04285 0
M  V30 8249 H 780.019 0.603494 -3.06719 0
M  V30 8250 H 779.239 -1.84729 -3.48237 0
M  V30 8251 H 780.527 -1.9613 -4.69479 0
M  V30 8252 H 779.925 1.10322 -5.54838 0
M  V30 8253 H 778.482 0.891958 -6.45668 0
M  V30 8254 N 781.915 1.24427 -0.967243 0
M  V30 8255 C 782.863 2.27403 -0.488927 0
M  V30 8256 C 783.857 1.63388 0.447302 0
M  V30 8257 O 785.063 1.77085 0.322643 0
M  V30 8258 H 781.438 0.738921 -0.139643 0
M  V30 8259 H 783.409 2.65122 -1.36942 0
M  V30 8260 C 782.158 3.4709 0.205787 0
M  V30 8261 H 781.481 3.96591 -0.50551 0
M  V30 8262 H 782.921 4.2099 0.504296 0
M  V30 8263 C 781.38 3.04923 1.43261 0
M  V30 8264 O 781.91 3.12043 2.52967 0
M  V30 8265 N 780.116 2.59976 1.29849 0
M  V30 8266 H 779.663 2.54382 0.405876 0
M  V30 8267 H 779.621 2.32128 2.12047 0
M  V30 8268 N 783.393 0.737304 1.3929 0
M  V30 8269 C 784.621 0.296573 2.04763 0
M  V30 8270 C 785.036 -1.06941 1.55592 0
M  V30 8271 O 784.393 -1.67619 0.721822 0
M  V30 8272 C 784.444 0.291906 3.6032 0
M  V30 8273 O 784.165 1.60397 4.07682 0
M  V30 8274 C 785.666 -0.164708 4.42994 0
M  V30 8275 H 782.886 0.129251 0.658434 0
M  V30 8276 H 785.43 1.0016 1.78293 0
M  V30 8277 H 783.585 -0.364251 3.85684 0
M  V30 8278 H 783.999 1.51909 5.0202 0
M  V30 8279 H 785.473 -0.116814 5.51876 0
M  V30 8280 H 785.95 -1.21022 4.22197 0
M  V30 8281 H 786.556 0.461968 4.22784 0
M  V30 8282 N 784.871 -1.49948 0.485112 0
M  V30 8283 C 785.801 -2.31675 -0.291364 0
M  V30 8284 C 786.782 -1.39216 -0.977383 0
M  V30 8285 O 787.967 -1.68133 -0.971855 0
M  V30 8286 C 785.097 -3.19326 -1.36558 0
M  V30 8287 C 784.051 -4.2045 -0.800359 0
M  V30 8288 C 783.377 -4.96931 -1.97391 0
M  V30 8289 C 784.677 -5.21925 0.197867 0
M  V30 8290 H 786.371 -2.96839 0.390775 0
M  V30 8291 H 783.917 -1.42749 0.189375 0
M  V30 8292 H 785.87 -3.75304 -1.91638 0
M  V30 8293 H 784.594 -2.52074 -2.07668 0
M  V30 8294 H 783.253 -3.65594 -0.271428 0
M  V30 8295 H 782.901 -4.26141 -2.67232 0
M  V30 8296 H 782.601 -5.65344 -1.60187 0
M  V30 8297 H 784.125 -5.55749 -2.52935 0
M  V30 8298 H 785.539 -5.72691 -0.264239 0
M  V30 8299 H 783.936 -5.98138 0.484908 0
M  V30 8300 H 785.006 -4.71809 1.11912 0
M  V30 8301 N 786.349 -0.21828 -1.56081 0
M  V30 8302 C 787.281 0.725447 -2.17416 0
M  V30 8303 C 788.294 1.15995 -1.14233 0
M  V30 8304 O 789.483 1.09166 -1.41227 0
M  V30 8305 C 786.583 1.99401 -2.7403 0
M  V30 8306 C 785.756 1.7156 -4.02351 0
M  V30 8307 C 784.815 2.8309 -4.43561 0
M  V30 8308 O 783.841 2.51701 -5.10525 0
M  V30 8309 N 785.043 4.11972 -4.08973 0
M  V30 8310 H 787.808 0.200801 -2.99027 0
M  V30 8311 H 785.369 -0.0371514 -1.61857 0
M  V30 8312 H 787.361 2.73198 -2.98571 0
M  V30 8313 H 785.931 2.42923 -1.96742 0
M  V30 8314 H 785.151 0.814233 -3.85699 0
M  V30 8315 H 786.439 1.50385 -4.86068 0
M  V30 8316 H 785.837 4.40319 -3.55156 0
M  V30 8317 H 784.394 4.82323 -4.38415 0
M  V30 8318 N 787.827 1.57504 0.0551401 0
M  V30 8319 C 788.774 2.04825 1.06373 0
M  V30 8320 C 789.744 0.932108 1.37481 0
M  V30 8321 O 790.929 1.20093 1.48265 0
M  V30 8322 C 788.069 2.51091 2.36743 0
M  V30 8323 C 787.182 3.76392 2.12021 0
M  V30 8324 C 786.317 4.11373 3.36074 0
M  V30 8325 C 785.356 5.29666 3.0679 0
M  V30 8326 N 784.493 5.60205 4.2322 0
M  V30 8327 H 789.333 2.90753 0.653216 0
M  V30 8328 H 786.87 1.43776 0.310951 0
M  V30 8329 H 788.828 2.75973 3.12881 0
M  V30 8330 H 787.458 1.68118 2.75565 0
M  V30 8331 H 786.51 3.58751 1.26498 0
M  V30 8332 H 787.822 4.62662 1.86401 0
M  V30 8333 H 786.976 4.37245 4.20597 0
M  V30 8334 H 785.715 3.23704 3.64784 0
M  V30 8335 H 784.72 5.03574 2.20664 0
M  V30 8336 H 785.945 6.18968 2.79385 0
M  V30 8337 H 783.891 4.75495 4.5193 0
M  V30 8338 H 783.808 6.40928 4.00933 0
M  V30 8339 H 785.076 5.90637 5.08692 0
M  V30 8340 N 789.305 -0.326896 1.54172 0
M  V30 8341 C 790.268 -1.38515 1.8261 0
M  V30 8342 C 791.268 -1.44872 0.697771 0
M  V30 8343 O 792.458 -1.44957 0.966078 0
M  V30 8344 C 789.59 -2.77281 1.98313 0
M  V30 8345 H 790.783 -1.14556 2.77159 0
M  V30 8346 H 788.336 -0.562199 1.45839 0
M  V30 8347 H 789.071 -3.065 1.05964 0
M  V30 8348 H 788.856 -2.74061 2.80416 0
M  V30 8349 H 790.346 -3.53845 2.21773 0
M  V30 8350 N 790.784 -1.46188 -0.588786 0
M  V30 8351 C 791.731 -1.56292 -1.69828 0
M  V30 8352 C 792.701 -0.407581 -1.61022 0
M  V30 8353 O 793.886 -0.623532 -1.80324 0
M  V30 8354 C 791.026 -1.55341 -3.08161 0
M  V30 8355 C 790.139 -2.81564 -3.27636 0
M  V30 8356 C 789.274 -2.72158 -4.56183 0
M  V30 8357 C 788.313 -3.93348 -4.68981 0
M  V30 8358 N 787.45 -3.82365 -5.88848 0
M  V30 8359 H 792.29 -2.51066 -1.6053 0
M  V30 8360 H 789.827 -1.24562 -0.782474 0
M  V30 8361 H 791.785 -1.52776 -3.88221 0
M  V30 8362 H 790.415 -0.641034 -3.16371 0
M  V30 8363 H 789.467 -2.94136 -2.41223 0
M  V30 8364 H 790.779 -3.714 -3.32962 0
M  V30 8365 H 789.933 -2.67665 -5.44464 0
M  V30 8366 H 788.672 -1.79953 -4.53286 0
M  V30 8367 H 787.677 -3.98181 -3.7912 0
M  V30 8368 H 788.902 -4.86643 -4.73662 0
M  V30 8369 H 786.848 -2.92942 -5.86959 0
M  V30 8370 H 786.765 -4.65851 -5.95415 0
M  V30 8371 H 788.033 -3.81836 -6.79575 0
M  V30 8372 N 792.262 0.832906 -1.33792 0
M  V30 8373 C 793.511 1.58351 -1.24932 0
M  V30 8374 C 793.824 1.94754 0.181703 0
M  V30 8375 O 795.03 2.6865 0.392375 0
M  V30 8376 C 793.486 2.85643 -2.18943 0
M  V30 8377 C 793.094 2.56581 -3.67247 0
M  V30 8378 C 794.838 3.63667 -2.18968 0
M  V30 8379 C 792.745 3.80006 -4.53155 0
M  V30 8380 H 791.675 0.594278 -0.464058 0
M  V30 8381 H 794.326 0.91786 -1.58895 0
M  V30 8382 H 792.708 3.53781 -1.77919 0
M  V30 8383 H 793.882 1.96617 -4.16747 0
M  V30 8384 H 792.197 1.91851 -3.6957 0
M  V30 8385 H 794.794 4.55293 -2.80379 0
M  V30 8386 H 795.137 3.99039 -1.18631 0
M  V30 8387 H 795.67 3.0246 -2.58384 0
M  V30 8388 H 792.409 3.4976 -5.5439 0
M  V30 8389 H 791.929 4.39288 -4.08395 0
M  V30 8390 H 793.608 4.47523 -4.6726 0
M  V30 8391 N 793.74 1.17359 1.05189 0
M  V30 8392 C 795.151 0.96793 1.5965 0
M  V30 8393 C 795.502 -0.485355 1.90102 0
M  V30 8394 O 794.627 -1.36066 1.6827 0
M  V30 8395 C 795.222 1.75068 2.90063 0
M  V30 8396 C 793.781 1.58969 3.41183 0
M  V30 8397 C 792.928 1.75231 2.14917 0
M  V30 8398 H 795.879 1.32067 0.880001 0
M  V30 8399 H 795.9 1.23308 3.59966 0
M  V30 8400 H 795.412 2.80835 2.67868 0
M  V30 8401 H 793.513 0.556906 3.68415 0
M  V30 8402 H 793.626 2.38067 4.15766 0
M  V30 8403 H 791.99 1.18073 2.25679 0
M  V30 8404 H 792.773 2.8241 1.95191 0
M  V30 8405 N 795.218 -1.23913 0.973828 0
M  V30 8406 C 796.148 -2.27453 0.527969 0
M  V30 8407 C 797.129 -1.6443 -0.435513 0
M  V30 8408 O 798.314 -1.9137 -0.330306 0
M  V30 8409 C 795.444 -3.4685 -0.176757 0
M  V30 8410 C 794.398 -4.22181 0.703352 0
M  V30 8411 C 793.724 -5.34534 -0.133215 0
M  V30 8412 C 795.024 -4.82865 1.99096 0
M  V30 8413 H 796.718 -2.65 1.3934 0
M  V30 8414 H 794.264 -1.27388 0.671446 0
M  V30 8415 H 796.217 -4.18424 -0.499934 0
M  V30 8416 H 794.941 -3.08346 -1.07659 0
M  V30 8417 H 793.6 -3.52416 1.00989 0
M  V30 8418 H 793.248 -4.92271 -1.03338 0
M  V30 8419 H 792.948 -5.85855 0.452494 0
M  V30 8420 H 794.472 -6.08933 -0.450924 0
M  V30 8421 H 795.886 -5.46481 1.73297 0
M  V30 8422 H 794.283 -5.44444 2.52389 0
M  V30 8423 H 795.353 -4.03977 2.68199 0
M  V30 8424 N 796.696 -0.74468 -1.38897 0
M  V30 8425 C 797.942 -0.297324 -2.00609 0
M  V30 8426 C 798.275 1.11547 -1.58968 0
M  V30 8427 O 797.55 1.76227 -0.823057 0
M  V30 8428 C 797.833 -0.410125 -3.57757 0
M  V30 8429 C 797.686 -1.86338 -4.09387 0
M  V30 8430 C 799.005 0.20176 -4.39637 0
M  V30 8431 H 796.124 -0.109509 -0.728819 0
M  V30 8432 H 798.766 -0.942653 -1.64967 0
M  V30 8433 H 796.916 0.139287 -3.8825 0
M  V30 8434 H 798.588 -2.47042 -3.89574 0
M  V30 8435 H 796.831 -2.38146 -3.62586 0
M  V30 8436 H 797.502 -1.89352 -5.18507 0
M  V30 8437 H 799.978 -0.266703 -4.15244 0
M  V30 8438 H 798.854 0.0925415 -5.48822 0
M  V30 8439 H 799.115 1.289 -4.22891 0
M  V30 8440 N 798.174 1.49689 -0.493057 0
M  V30 8441 C 799.402 2.06836 0.0513141 0
M  V30 8442 C 799.817 1.35436 1.31539 0
M  V30 8443 O 799.174 0.430248 1.77356 0
M  V30 8444 C 799.225 3.60107 0.317003 0
M  V30 8445 O 798.946 4.2882 -0.896957 0
M  V30 8446 C 800.447 4.33945 0.905902 0
M  V30 8447 H 797.667 0.670787 -0.0169048 0
M  V30 8448 H 800.211 1.92574 -0.688139 0
M  V30 8449 H 798.366 3.74099 1.00642 0
M  V30 8450 H 798.78 5.20395 -0.654939 0
M  V30 8451 H 800.254 5.42087 1.04144 0
M  V30 8452 H 800.731 3.95895 1.90168 0
M  V30 8453 H 801.337 4.2454 0.254195 0
M  V30 8454 N 799.652 0.226554 1.55963 0
M  V30 8455 C 800.6 -0.697922 2.21882 0
M  V30 8456 C 801.594 -1.19586 1.19981 0
M  V30 8457 O 802.8 -1.15511 1.38048 0
M  V30 8458 H 799.175 -0.243501 0.711485 0
M  V30 8459 H 801.146 -0.118576 2.98164 0
M  V30 8460 C 799.895 -1.89309 2.91646 0
M  V30 8461 H 799.218 -1.51906 3.69817 0
M  V30 8462 H 800.658 -2.51762 3.41162 0
M  V30 8463 C 799.117 -2.75162 1.94391 0
M  V30 8464 O 799.647 -3.74071 1.46402 0
M  V30 8465 N 797.853 -2.41302 1.61932 0
M  V30 8466 H 797.4 -1.60923 2.01151 0
M  V30 8467 H 797.358 -2.99023 0.971219 0
M  V30 8468 N 801.13 -1.57531 -0.0467866 0
M  V30 8469 C 802.04 -2.08768 -1.07018 0
M  V30 8470 C 803.056 -1.02245 -1.40791 0
M  V30 8471 O 804.232 -1.33873 -1.50466 0
M  V30 8472 C 801.297 -2.54221 -2.35738 0
M  V30 8473 C 800.358 -3.75152 -2.08709 0
M  V30 8474 C 799.591 -4.18428 -3.31291 0
M  V30 8475 O 799.814 -3.61365 -4.4133 0
M  V30 8476 O 798.748 -5.11018 -3.18032 0
M  V30 8477 H 802.574 -2.96334 -0.664812 0
M  V30 8478 H 800.159 -1.47074 -0.262605 0
M  V30 8479 H 802.041 -2.83866 -3.11445 0
M  V30 8480 H 800.716 -1.69774 -2.75605 0
M  V30 8481 H 799.623 -3.50553 -1.30627 0
M  V30 8482 H 800.956 -4.60528 -1.73708 0
M  V30 8483 N 802.608 0.318715 -1.54344 0
M  V30 8484 C 803.518 1.41535 -1.87097 0
M  V30 8485 C 804.534 1.56361 -0.763353 0
M  V30 8486 O 805.71 1.71365 -1.05811 0
M  V30 8487 C 802.775 2.76178 -2.09587 0
M  V30 8488 C 801.836 2.70486 -3.3337 0
M  V30 8489 C 801.069 3.98708 -3.54778 0
M  V30 8490 O 801.292 4.9721 -2.79532 0
M  V30 8491 O 800.226 4.01674 -4.48266 0
M  V30 8492 H 804.052 1.16764 -2.80357 0
M  V30 8493 H 801.637 0.51318 -1.4031 0
M  V30 8494 H 803.519 3.55873 -2.25682 0
M  V30 8495 H 802.194 3.00829 -1.19514 0
M  V30 8496 H 801.101 1.89325 -3.22656 0
M  V30 8497 H 802.434 2.50789 -4.23516 0
M  V30 8498 N 804.086 1.46499 0.581025 0
M  V30 8499 C 805.326 1.53456 1.35021 0
M  V30 8500 C 805.69 0.182542 1.9113 0
M  V30 8501 O 806.891 0.126874 2.685 0
M  V30 8502 C 805.162 2.60387 2.44812 0
M  V30 8503 S 806.721 2.86762 3.32134 0
M  V30 8504 H 803.539 0.54216 0.459982 0
M  V30 8505 H 806.141 1.83742 0.667754 0
M  V30 8506 H 804.845 3.57253 2.01986 0
M  V30 8507 H 804.376 2.31839 3.17828 0
M  V30 8508 H 806.391 2.2216 4.43688 0
M  V30 8509 N 805.565 -0.825799 1.34232 0
M  V30 8510 C 806.497 -1.94401 1.21413 0
M  V30 8511 C 807.51 -1.6218 0.141902 0
M  V30 8512 O 808.699 -1.74109 0.3935 0
M  V30 8513 C 805.799 -3.28257 0.842635 0
M  V30 8514 C 804.972 -3.88521 2.00924 0
M  V30 8515 C 804.031 -5.00752 1.61661 0
M  V30 8516 O 803.057 -5.19201 2.33279 0
M  V30 8517 N 804.259 -5.78084 0.52911 0
M  V30 8518 H 807.024 -2.05931 2.17744 0
M  V30 8519 H 804.585 -1.00223 1.27149 0
M  V30 8520 H 806.577 -4.00781 0.561822 0
M  V30 8521 H 805.147 -3.12585 -0.0304029 0
M  V30 8522 H 804.367 -3.08425 2.45495 0
M  V30 8523 H 805.655 -4.25516 2.78951 0
M  V30 8524 H 805.053 -5.65661 -0.0663322 0
M  V30 8525 H 803.61 -6.51072 0.308017 0
M  V30 8526 N 807.043 -1.17915 -1.04565 0
M  V30 8527 C 807.99 -0.901605 -2.12461 0
M  V30 8528 C 808.96 0.157011 -1.65356 0
M  V30 8529 O 810.145 0.0184494 -1.90791 0
M  V30 8530 C 807.285 -0.42796 -3.42436 0
M  V30 8531 C 806.398 -1.55142 -4.03181 0
M  V30 8532 C 805.533 -1.03101 -5.21098 0
M  V30 8533 C 804.572 -2.1295 -5.73863 0
M  V30 8534 N 803.709 -1.62339 -6.83074 0
M  V30 8535 H 808.549 -1.82551 -2.3554 0
M  V30 8536 H 806.086 -0.910389 -1.15544 0
M  V30 8537 H 808.044 -0.134859 -4.16982 0
M  V30 8538 H 806.674 0.458977 -3.1952 0
M  V30 8539 H 805.726 -1.96011 -3.26012 0
M  V30 8540 H 807.038 -2.37968 -4.38375 0
M  V30 8541 H 806.192 -0.692132 -6.02739 0
M  V30 8542 H 804.931 -0.17227 -4.87396 0
M  V30 8543 H 803.936 -2.47687 -4.90847 0
M  V30 8544 H 805.161 -2.9925 -6.09611 0
M  V30 8545 H 803.107 -0.787464 -6.51256 0
M  V30 8546 H 803.024 -2.38767 -7.17305 0
M  V30 8547 H 804.292 -1.31363 -7.68351 0
M  V30 8548 N 808.521 1.23394 -0.980386 0
M  V30 8549 C 809.937 1.43961 -0.689008 0
M  V30 8550 C 810.137 1.87229 0.744809 0
M  V30 8551 O 809.193 2.01831 1.51725 0
M  V30 8552 C 810.506 2.49128 -1.68392 0
M  V30 8553 C 812.054 2.62941 -1.69796 0
M  V30 8554 C 812.529 3.71317 -2.68118 0
M  V30 8555 N 814.02 3.7876 -2.66636 0
M  V30 8556 C 814.755 4.62176 -3.39383 0
M  V30 8557 N 814.251 5.49682 -4.21688 0
M  V30 8558 N 816.044 4.56372 -3.28147 0
M  V30 8559 H 808.195 0.936106 -1.90659 0
M  V30 8560 H 810.458 0.473023 -0.821555 0
M  V30 8561 H 810.164 2.24252 -2.70931 0
M  V30 8562 H 810.038 3.47514 -1.46675 0
M  V30 8563 H 812.425 2.87168 -0.679617 0
M  V30 8564 H 812.506 1.64871 -1.95579 0
M  V30 8565 H 812.15 3.4784 -3.70095 0
M  V30 8566 H 812.08 4.68929 -2.3961 0
M  V30 8567 H 814.571 3.16226 -2.06904 0
M  V30 8568 H 814.884 6.10323 -4.74053 0
M  V30 8569 H 813.229 5.49306 -4.25779 0
M  V30 8570 H 816.42 3.87029 -2.63299 0
M  V30 8571 H 816.593 5.21153 -3.85102 0
M  V30 8572 N 809.999 0.752036 1.385 0
M  V30 8573 C 811.229 0.317812 2.04141 0
M  V30 8574 C 811.637 -1.05822 1.56839 0
M  V30 8575 O 810.98 -1.68311 0.736016 0
M  V30 8576 C 811.042 0.260205 3.58557 0
M  V30 8577 C 810.706 1.57753 4.28909 0
M  V30 8578 C 811.703 2.52642 4.54387 0
M  V30 8579 C 809.388 1.84653 4.67128 0
M  V30 8580 C 811.382 3.72653 5.17116 0
M  V30 8581 C 809.069 3.04938 5.29581 0
M  V30 8582 C 810.067 3.98759 5.54509 0
M  V30 8583 O 809.755 5.16929 6.15662 0
M  V30 8584 H 809.487 0.133931 0.6626 0
M  V30 8585 H 812.041 1.02138 1.78205 0
M  V30 8586 H 810.271 -0.499596 3.83459 0
M  V30 8587 H 811.96 -0.144295 4.05643 0
M  V30 8588 H 812.726 2.33135 4.25292 0
M  V30 8589 H 808.605 1.12464 4.47071 0
M  V30 8590 H 812.149 4.45898 5.36489 0
M  V30 8591 H 808.046 3.24339 5.58099 0
M  V30 8592 H 808.814 5.1749 6.3415 0
M  V30 8593 N 811.477 -1.49425 0.500989 0
M  V30 8594 C 812.893 -1.58826 0.156951 0
M  V30 8595 C 813.093 -1.50622 -1.33848 0
M  V30 8596 O 812.149 -1.38016 -2.11442 0
M  V30 8597 C 813.462 -2.91611 0.73374 0
M  V30 8598 C 815.01 -3.05076 0.699846 0
M  V30 8599 C 815.485 -4.40479 1.2547 0
M  V30 8600 N 816.976 -4.4697 1.2154 0
M  V30 8601 C 817.711 -5.50189 1.6149 0
M  V30 8602 N 817.207 -6.60512 2.09034 0
M  V30 8603 N 819 -5.40903 1.52907 0
M  V30 8604 H 811.151 -1.53001 1.47324 0
M  V30 8605 H 813.414 -0.724765 0.61108 0
M  V30 8606 H 813.12 -3.03182 1.78251 0
M  V30 8607 H 812.994 -3.767 0.19417 0
M  V30 8608 H 815.381 -2.93134 -0.340085 0
M  V30 8609 H 815.462 -2.2167 1.27656 0
M  V30 8610 H 815.106 -4.53172 2.29341 0
M  V30 8611 H 815.036 -5.22524 0.653921 0
M  V30 8612 H 817.527 -3.67819 0.867043 0
M  V30 8613 H 817.84 -7.35372 2.37588 0
M  V30 8614 H 816.185 -6.61553 2.13008 0
M  V30 8615 H 819.376 -4.53606 1.15583 0
M  V30 8616 H 819.549 -6.21219 1.84365 0
M  V30 8617 N 812.955 -0.234822 -1.55841 0
M  V30 8618 C 814.203 0.392483 -1.98252 0
M  V30 8619 C 814.524 1.59344 -1.12404 0
M  V30 8620 O 813.794 1.94834 -0.204055 0
M  V30 8621 H 812.374 0.147999 -0.732192 0
M  V30 8622 H 815.036 -0.330804 -1.92072 0
M  V30 8623 H 814.132 0.709829 -3.03921 0
M  V30 8624 N 814.433 1.57553 0.0384317 0
M  V30 8625 C 815.383 2.02404 1.0496 0
M  V30 8626 C 816.367 0.911705 1.32577 0
M  V30 8627 O 817.559 1.17561 1.32319 0
M  V30 8628 C 814.688 2.49924 2.35357 0
M  V30 8629 C 813.774 3.6796 2.1087 0
M  V30 8630 N 814.165 4.81009 1.56411 0
M  V30 8631 C 812.463 3.75153 2.41197 0
M  V30 8632 C 813.164 5.62686 1.47512 0
M  V30 8633 N 812.14 5.0752 1.94742 0
M  V30 8634 H 815.942 2.87234 0.622399 0
M  V30 8635 H 813.456 1.60543 0.244916 0
M  V30 8636 H 815.453 2.80312 3.08595 0
M  V30 8637 H 814.113 1.66496 2.78763 0
M  V30 8638 H 815.124 5.02636 1.2481 0
M  V30 8639 H 811.801 3.02507 2.87742 0
M  V30 8640 H 813.191 6.6349 1.05976 0
M  V30 8641 N 815.911 -0.310526 1.54511 0
M  V30 8642 C 816.858 -1.38264 1.84802 0
M  V30 8643 C 817.828 -1.50808 0.696141 0
M  V30 8644 O 819.013 -1.6582 0.943846 0
M  V30 8645 C 816.153 -2.74422 2.09252 0
M  V30 8646 C 815.266 -2.70405 3.36906 0
M  V30 8647 C 814.401 -3.98495 3.51248 0
M  V30 8648 C 813.44 -3.88836 4.72729 0
M  V30 8649 N 812.577 -5.08683 4.83928 0
M  V30 8650 H 817.417 -1.11732 2.76261 0
M  V30 8651 H 814.954 -0.540609 1.36806 0
M  V30 8652 H 816.912 -3.53593 2.21422 0
M  V30 8653 H 815.542 -2.99235 1.2107 0
M  V30 8654 H 814.594 -1.83151 3.33406 0
M  V30 8655 H 815.906 -2.59155 4.26193 0
M  V30 8656 H 815.06 -4.861 3.63031 0
M  V30 8657 H 813.799 -4.12567 2.60077 0
M  V30 8658 H 812.804 -2.99615 4.60989 0
M  V30 8659 H 814.029 -3.76318 5.65298 0
M  V30 8660 H 811.975 -5.23236 3.95677 0
M  V30 8661 H 811.892 -4.99819 5.67201 0
M  V30 8662 H 813.16 -5.97966 5.00057 0
M  V30 8663 N 817.389 -1.46805 -0.573248 0
M  V30 8664 C 818.638 -1.51868 -1.32736 0
M  V30 8665 C 818.951 -0.178765 -1.94781 0
M  V30 8666 O 820.157 -0.107272 -2.71288 0
M  V30 8667 C 818.613 -2.67641 -2.40616 0
M  V30 8668 C 818.221 -4.08094 -1.84832 0
M  V30 8669 C 819.965 -2.81984 -3.17309 0
M  V30 8670 C 817.872 -5.15193 -2.90397 0
M  V30 8671 H 816.802 -0.56523 -0.49903 0
M  V30 8672 H 819.453 -1.7304 -0.610695 0
M  V30 8673 H 817.835 -2.39818 -3.15124 0
M  V30 8674 H 819.009 -4.45751 -1.16803 0
M  V30 8675 H 817.324 -3.985 -1.20775 0
M  V30 8676 H 819.921 -3.59166 -3.96111 0
M  V30 8677 H 820.264 -1.89842 -3.70494 0
M  V30 8678 H 820.797 -3.095 -2.4991 0
M  V30 8679 H 817.536 -6.09158 -2.42088 0
M  V30 8680 H 817.056 -4.82071 -3.56886 0
M  V30 8681 H 818.735 -5.41448 -3.54179 0
M  V30 8682 N 818.867 0.818669 -1.34668 0
M  V30 8683 C 820.095 1.60674 -1.30351 0
M  V30 8684 C 820.51 1.88408 0.121546 0
M  V30 8685 O 819.867 1.47849 1.06991 0
M  V30 8686 C 819.918 2.94516 -2.09625 0
M  V30 8687 O 819.639 2.6799 -3.46573 0
M  V30 8688 C 821.14 3.8891 -2.12754 0
M  V30 8689 H 818.36 0.499306 -0.448258 0
M  V30 8690 H 820.904 1.01828 -1.77345 0
M  V30 8691 H 819.059 3.49908 -1.66262 0
M  V30 8692 H 819.473 3.53361 -3.87603 0
M  V30 8693 H 820.947 4.79972 -2.72637 0
M  V30 8694 H 821.424 4.24599 -1.12306 0
M  V30 8695 H 822.03 3.39453 -2.56225 0
M  V30 8696 N 820.346 1.18468 1.03938 0
M  V30 8697 C 821.296 0.880799 2.103 0
M  V30 8698 C 822.28 -0.150008 1.60199 0
M  V30 8699 O 823.472 0.054213 1.76917 0
M  V30 8700 C 820.601 0.409723 3.40846 0
M  V30 8701 C 819.687 1.47267 3.9771 0
M  V30 8702 N 820.078 2.68945 4.28371 0
M  V30 8703 C 818.376 1.33349 4.25598 0
M  V30 8704 C 819.077 3.37341 4.73894 0
M  V30 8705 N 818.053 2.64725 4.74786 0
M  V30 8706 H 821.855 1.80574 2.31884 0
M  V30 8707 H 819.369 1.07527 1.21703 0
M  V30 8708 H 821.366 0.17352 4.16539 0
M  V30 8709 H 820.026 -0.508862 3.20688 0
M  V30 8710 H 821.037 3.05801 4.17978 0
M  V30 8711 H 817.714 0.477548 4.1476 0
M  V30 8712 H 819.104 4.41338 5.06627 0
M  V30 8713 N 821.824 -1.22873 0.986916 0
M  V30 8714 C 822.771 -2.2458 0.532215 0
M  V30 8715 C 823.741 -1.60375 -0.432322 0
M  V30 8716 O 824.926 -1.87775 -0.338416 0
M  V30 8717 C 822.066 -3.44761 -0.152864 0
M  V30 8718 C 821.179 -4.23501 0.852704 0
M  V30 8719 C 820.314 -5.31011 0.14176 0
M  V30 8720 C 819.353 -6.01464 1.1361 0
M  V30 8721 N 818.49 -7.00631 0.453871 0
M  V30 8722 H 823.33 -2.62838 1.40428 0
M  V30 8723 H 820.867 -1.29185 0.703543 0
M  V30 8724 H 822.825 -4.1333 -0.566926 0
M  V30 8725 H 821.455 -3.07284 -0.988756 0
M  V30 8726 H 820.507 -3.54286 1.38512 0
M  V30 8727 H 821.819 -4.72097 1.61014 0
M  V30 8728 H 820.973 -6.05805 -0.329337 0
M  V30 8729 H 819.712 -4.83373 -0.648229 0
M  V30 8730 H 818.717 -5.25456 1.61789 0
M  V30 8731 H 819.942 -6.5119 1.92686 0
M  V30 8732 H 817.888 -6.55235 -0.316791 0
M  V30 8733 H 817.805 -7.47204 1.14986 0
M  V30 8734 H 819.073 -7.795 0.00537823 0
M  V30 8735 N 823.302 -0.75937 -1.38099 0
M  V30 8736 C 824.235 -0.0838362 -2.28046 0
M  V30 8737 C 825.213 0.722229 -1.4568 0
M  V30 8738 O 826.397 0.699629 -1.75036 0
M  V30 8739 C 823.524 0.887916 -3.26854 0
M  V30 8740 C 822.57 0.167374 -4.26171 0
M  V30 8741 S 823.403 -1.13592 -5.23314 0
M  V30 8742 C 824.559 -0.167385 -6.25676 0
M  V30 8743 H 824.792 -0.846564 -2.84992 0
M  V30 8744 H 822.325 -0.552206 -1.44188 0
M  V30 8745 H 824.283 1.44322 -3.84293 0
M  V30 8746 H 822.944 1.62366 -2.68879 0
M  V30 8747 H 822.137 0.903567 -4.95834 0
M  V30 8748 H 821.739 -0.316572 -3.72658 0
M  V30 8749 H 824.031 0.664598 -6.74232 0
M  V30 8750 H 824.974 -0.831836 -7.03197 0
M  V30 8751 H 825.382 0.21589 -5.64087 0
M  V30 8752 N 824.78 1.49157 -0.508906 0
M  V30 8753 C 826.029 2.0167 0.0346854 0
M  V30 8754 C 826.342 1.39302 1.37311 0
M  V30 8755 O 827.548 1.83189 2.00385 0
M  V30 8756 C 826.004 3.59725 0.112261 0
M  V30 8757 C 825.612 4.31069 -1.21999 0
M  V30 8758 C 827.356 4.20155 0.605798 0
M  V30 8759 C 825.263 5.81001 -1.10415 0
M  V30 8760 H 824.193 0.753814 0.0167355 0
M  V30 8761 H 826.844 1.7162 -0.649518 0
M  V30 8762 H 825.226 3.86525 0.861087 0
M  V30 8763 H 826.4 4.15962 -1.98273 0
M  V30 8764 H 824.715 3.82418 -1.64759 0
M  V30 8765 H 827.312 5.29964 0.710102 0
M  V30 8766 H 827.655 3.84051 1.60656 0
M  V30 8767 H 828.188 3.97705 -0.0867239 0
M  V30 8768 H 824.927 6.21643 -2.07941 0
M  V30 8769 H 824.447 5.9858 -0.382428 0
M  V30 8770 H 826.126 6.42207 -0.786116 0
M  V30 8771 N 826.258 0.243083 1.55714 0
M  V30 8772 C 827.498 -0.384303 2.00755 0
M  V30 8773 C 827.862 -1.55406 1.12752 0
M  V30 8774 O 829.063 -2.24892 1.47231 0
M  V30 8775 C 827.334 -0.787419 3.48618 0
M  V30 8776 S 828.893 -1.40587 4.15669 0
M  V30 8777 H 825.711 -0.121088 0.700613 0
M  V30 8778 H 828.313 0.357423 1.92205 0
M  V30 8779 H 827.017 0.0732892 4.10335 0
M  V30 8780 H 826.548 -1.56142 3.61086 0
M  V30 8781 H 828.563 -2.69493 4.16639 0
M  V30 8782 N 827.736 -1.57571 -0.0300757 0
M  V30 8783 C 828.699 -2.05468 -1.01565 0
M  V30 8784 C 829.699 -0.958628 -1.29101 0
M  V30 8785 O 830.889 -1.22228 -1.24121 0
M  V30 8786 C 828.021 -2.47077 -2.34874 0
M  V30 8787 H 829.214 -2.93797 -0.601936 0
M  V30 8788 H 826.767 -1.53828 -0.276878 0
M  V30 8789 H 827.502 -1.61901 -2.80996 0
M  V30 8790 H 827.287 -3.27097 -2.16218 0
M  V30 8791 H 828.777 -2.84564 -3.05635 0
M  V30 8792 N 829.214 0.302327 -1.54673 0
M  V30 8793 C 830.462 1.03565 -1.73547 0
M  V30 8794 C 830.783 1.87843 -0.523448 0
M  V30 8795 O 830.053 1.90367 0.462295 0
M  V30 8796 H 828.633 0.385358 -0.639928 0
M  V30 8797 H 831.295 0.333632 -1.92023 0
M  V30 8798 H 830.391 1.68952 -2.62415 0
M  V30 8799 N 830.692 1.47107 0.565454 0
M  V30 8800 C 831.922 1.56681 1.34664 0
M  V30 8801 C 832.33 0.213011 1.87997 0
M  V30 8802 O 831.673 -0.802629 1.65238 0
M  V30 8803 C 831.735 2.52528 2.55871 0
M  V30 8804 C 831.399 3.98403 2.23883 0
M  V30 8805 C 832.396 4.87125 1.81673 0
M  V30 8806 C 830.081 4.43674 2.35496 0
M  V30 8807 C 832.075 6.19135 1.51494 0
M  V30 8808 C 829.762 5.75714 2.0493 0
M  V30 8809 C 830.76 6.63266 1.62996 0
M  V30 8810 O 830.448 7.92853 1.32813 0
M  V30 8811 H 830.18 0.531967 0.417117 0
M  V30 8812 H 832.734 1.93368 0.692669 0
M  V30 8813 H 830.964 2.10893 3.24131 0
M  V30 8814 H 832.653 2.5232 3.17945 0
M  V30 8815 H 833.419 4.534 1.72201 0
M  V30 8816 H 829.298 3.7574 2.67096 0
M  V30 8817 H 832.842 6.87429 1.1869 0
M  V30 8818 H 828.739 6.08983 2.14031 0
M  V30 8819 H 829.507 8.0528 1.46513 0
M  V30 8820 N 832.17 -0.811516 1.35101 0
M  V30 8821 C 833.586 -1.10634 1.15031 0
M  V30 8822 C 833.786 -2.01459 -0.0405379 0
M  V30 8823 O 832.842 -2.42235 -0.712635 0
M  V30 8824 C 834.155 -1.74207 2.45097 0
M  V30 8825 C 835.703 -1.8665 2.51258 0
M  V30 8826 C 836.178 -2.53638 3.81355 0
M  V30 8827 N 837.669 -2.61128 3.82579 0
M  V30 8828 C 838.404 -3.13717 4.79968 0
M  V30 8829 N 837.9 -3.66782 5.87744 0
M  V30 8830 N 839.693 -3.12224 4.67411 0
M  V30 8831 H 831.844 -0.207641 2.11383 0
M  V30 8832 H 834.107 -0.154697 0.935293 0
M  V30 8833 H 833.813 -1.14936 3.32389 0
M  V30 8834 H 833.687 -2.73958 2.59281 0
M  V30 8835 H 836.074 -2.45066 1.64398 0
M  V30 8836 H 836.155 -0.857678 2.40993 0
M  V30 8837 H 835.799 -1.95873 4.68611 0
M  V30 8838 H 835.729 -3.55047 3.88907 0
M  V30 8839 H 838.22 -2.23527 3.04703 0
M  V30 8840 H 838.533 -4.05194 6.58056 0
M  V30 8841 H 836.878 -3.64994 5.91443 0
M  V30 8842 H 840.069 -2.70042 3.82354 0
M  V30 8843 H 840.242 -3.52903 5.43474 0
M  V30 8844 N 833.648 -1.19017 -1.03309 0
M  V30 8845 C 834.558 -0.939303 -2.14975 0
M  V30 8846 C 835.574 0.0992359 -1.73717 0
M  V30 8847 O 836.75 -0.0844362 -2.01223 0
M  V30 8848 C 833.815 -0.476712 -3.43407 0
M  V30 8849 C 832.876 -1.58413 -3.99003 0
M  V30 8850 C 832.109 -1.14352 -5.21305 0
M  V30 8851 O 832.332 -0.00534408 -5.704 0
M  V30 8852 O 831.266 -1.94436 -5.6963 0
M  V30 8853 H 835.092 -1.87386 -2.38998 0
M  V30 8854 H 832.677 -0.972635 -1.13403 0
M  V30 8855 H 834.559 -0.22718 -4.20787 0
M  V30 8856 H 833.234 0.429455 -3.20839 0
M  V30 8857 H 832.141 -1.88777 -3.22977 0
M  V30 8858 H 833.474 -2.4667 -4.25928 0
M  V30 8859 N 835.127 1.22348 -0.993418 0
M  V30 8860 C 836.375 1.90733 -0.668246 0
M  V30 8861 C 836.696 1.77732 0.802261 0
M  V30 8862 O 835.966 1.16486 1.57505 0
M  V30 8863 H 834.546 0.705966 -0.244174 0
M  V30 8864 H 837.208 1.48691 -1.26004 0
M  V30 8865 H 836.304 2.97883 -0.931239 0
M  V30 8866 N 836.605 0.766683 1.37694 0
M  V30 8867 C 837.853 0.328065 1.9942 0
M  V30 8868 C 838.174 -1.09775 1.61166 0
M  V30 8869 O 837.444 -1.75288 0.874686 0
M  V30 8870 H 836.024 0.11831 0.737572 0
M  V30 8871 H 838.686 0.983686 1.68255 0
M  V30 8872 H 837.782 0.401647 3.09505 0
M  V30 8873 N 838.083 -1.48885 0.516809 0
M  V30 8874 C 839.03 -2.29408 -0.253125 0
M  V30 8875 C 840 -1.36533 -0.945935 0
M  V30 8876 O 841.185 -1.65495 -0.949527 0
M  V30 8877 C 838.325 -3.19592 -1.30211 0
M  V30 8878 C 837.438 -4.27535 -0.61948 0
M  V30 8879 C 836.573 -5.04916 -1.65026 0
M  V30 8880 C 835.612 -6.04677 -0.950368 0
M  V30 8881 N 834.749 -6.75164 -1.92608 0
M  V30 8882 H 839.589 -2.94738 0.439744 0
M  V30 8883 H 837.126 -1.45311 0.2287 0
M  V30 8884 H 839.084 -3.70267 -1.92245 0
M  V30 8885 H 837.714 -2.56213 -1.96353 0
M  V30 8886 H 836.766 -3.80228 0.114505 0
M  V30 8887 H 838.078 -4.98752 -0.0693016 0
M  V30 8888 H 837.232 -5.59539 -2.34523 0
M  V30 8889 H 835.971 -4.33508 -2.23432 0
M  V30 8890 H 834.976 -5.4927 -0.241252 0
M  V30 8891 H 836.201 -6.78077 -0.372599 0
M  V30 8892 H 834.147 -6.06517 -2.49946 0
M  V30 8893 H 834.064 -7.4241 -1.42699 0
M  V30 8894 H 835.332 -7.34384 -2.61345 0
M  V30 8895 N 839.561 -0.251338 -1.55583 0
M  V30 8896 C 840.838 0.422729 -1.90977 0
M  V30 8897 C 841.218 1.75534 -1.17265 0
M  V30 8898 O 840.566 2.26632 -0.291588 0
M  V30 8899 C 840.776 0.586448 -3.44037 0
M  V30 8900 C 842.124 0.880294 -4.15375 0
M  V30 8901 O 843.148 0.672148 -3.49801 0
M  V30 8902 O 842.007 1.27694 -5.31372 0
M  V30 8903 H 839.101 0.227622 -0.795058 0
M  V30 8904 H 841.647 -0.295733 -1.67103 0
M  V30 8905 H 840.419 -0.352327 -3.89711 0
M  V30 8906 H 840.042 1.35528 -3.73789 0
M  V30 8907 N 841.039 1.57585 0.0217189 0
M  V30 8908 C 842.002 2.06004 1.00474 0
M  V30 8909 C 843.002 0.965461 1.2859 0
M  V30 8910 O 844.192 1.22884 1.23471 0
M  V30 8911 C 841.324 2.48319 2.33561 0
M  V30 8912 H 842.517 2.94112 0.586346 0
M  V30 8913 H 840.07 1.53973 0.268716 0
M  V30 8914 H 840.805 1.63389 2.80133 0
M  V30 8915 H 840.59 3.28239 2.1448 0
M  V30 8916 H 842.08 2.86181 3.04122 0
M  V30 8917 N 842.517 -0.29412 1.54831 0
M  V30 8918 C 843.757 -1.03635 1.76179 0
M  V30 8919 C 844.121 -1.84251 0.539953 0
M  V30 8920 O 845.322 -2.61282 0.631295 0
M  V30 8921 C 843.593 -1.91275 3.01909 0
M  V30 8922 S 845.152 -2.7205 3.44288 0
M  V30 8923 H 841.97 -0.349403 0.619224 0
M  V30 8924 H 844.572 -0.309006 1.93042 0
M  V30 8925 H 843.276 -1.30937 3.88952 0
M  V30 8926 H 842.807 -2.68365 2.87652 0
M  V30 8927 H 844.822 -3.93791 3.01899 0
M  V30 8928 N 843.995 -1.47404 -0.557645 0
M  V30 8929 C 844.942 -1.59859 -1.66475 0
M  V30 8930 C 845.912 -0.441644 -1.60121 0
M  V30 8931 O 847.097 -0.661641 -1.78961 0
M  V30 8932 C 844.237 -1.61843 -3.04797 0
M  V30 8933 C 843.35 -2.8845 -3.2159 0
M  V30 8934 C 842.485 -2.81773 -4.50308 0
M  V30 8935 C 841.524 -4.03208 -4.60532 0
M  V30 8936 N 840.661 -3.94769 -5.80604 0
M  V30 8937 H 845.501 -2.54415 -1.55168 0
M  V30 8938 H 843.038 -1.26194 -0.755876 0
M  V30 8939 H 844.996 -1.60976 -3.84893 0
M  V30 8940 H 843.626 -0.707997 -3.1494 0
M  V30 8941 H 842.678 -2.99186 -2.34929 0
M  V30 8942 H 843.99 -3.78379 -3.25009 0
M  V30 8943 H 843.144 -2.79153 -5.38663 0
M  V30 8944 H 841.883 -1.89527 -4.49367 0
M  V30 8945 H 840.888 -4.06133 -3.70589 0
M  V30 8946 H 842.113 -4.9658 -4.63233 0
M  V30 8947 H 840.059 -3.05326 -5.80613 0
M  V30 8948 H 839.976 -4.78375 -5.854 0
M  V30 8949 H 841.244 -3.96165 -6.71322 0
M  V30 8950 N 845.473 0.80434 -1.35529 0
M  V30 8951 C 846.721 1.55845 -1.28673 0
M  V30 8952 C 847.042 1.94511 0.137976 0
M  V30 8953 O 846.312 1.63775 1.07492 0
M  V30 8954 H 844.892 0.577931 -0.473291 0
M  V30 8955 H 847.554 0.959293 -1.69657 0
M  V30 8956 H 846.65 2.47285 -1.90411 0
M  V30 8957 N 846.951 1.19563 1.02676 0
M  V30 8958 C 848.228 0.908857 1.73203 0
M  V30 8959 C 848.608 -0.584928 2.02834 0
M  V30 8960 O 847.956 -1.54372 1.68469 0
M  V30 8961 C 848.166 1.77105 3.00724 0
M  V30 8962 C 849.514 2.00667 3.7419 0
M  V30 8963 O 850.538 1.74274 3.10656 0
M  V30 8964 O 849.397 2.4518 4.88415 0
M  V30 8965 H 846.491 0.338909 0.754367 0
M  V30 8966 H 849.037 1.30387 1.08616 0
M  V30 8967 H 847.809 2.78303 2.7507 0
M  V30 8968 H 847.432 1.37546 3.73051 0
M  V30 8969 N 848.429 -1.21819 0.999893 0
M  V30 8970 C 849.654 -1.95298 0.698094 0
M  V30 8971 C 850.079 -1.73273 -0.731982 0
M  V30 8972 O 849.437 -1.01634 -1.50134 0
M  V30 8973 C 849.485 -3.45922 1.01834 0
M  V30 8974 O 848.589 -4.12223 0.120801 0
M  V30 8975 H 847.93 -0.610729 0.260588 0
M  V30 8976 H 850.46 -1.5472 1.33876 0
M  V30 8977 H 850.47 -3.96471 0.963074 0
M  V30 8978 H 849.145 -3.61278 2.06037 0
M  V30 8979 H 847.722 -3.72177 0.232153 0
M  V30 8980 N 849.908 -0.773975 -1.37286 0
M  V30 8981 C 851.156 -0.338636 -1.99243 0
M  V30 8982 C 851.477 1.08919 -1.61746 0
M  V30 8983 O 850.747 1.74822 -0.88397 0
M  V30 8984 H 849.327 -0.12222 -0.736934 0
M  V30 8985 H 851.989 -0.992595 -1.67731 0
M  V30 8986 H 851.085 -0.418055 -3.09287 0
M  V30 8987 N 851.386 1.48609 -0.524698 0
M  V30 8988 C 852.634 2.02097 0.0112991 0
M  V30 8989 C 852.955 1.40455 1.35268 0
M  V30 8990 O 852.225 0.56807 1.87483 0
M  V30 8991 H 850.805 0.746966 0.00716426 0
M  V30 8992 H 853.467 1.82378 -0.687329 0
M  V30 8993 H 852.563 3.11855 0.123531 0
M  V30 8994 N 852.864 0.259585 1.55447 0
M  V30 8995 C 854.275 -0.241165 1.85136 0
M  V30 8996 C 854.626 -1.56634 1.18153 0
M  V30 8997 O 853.751 -2.11359 0.464351 0
M  V30 8998 C 854.346 -0.444355 3.35873 0
M  V30 8999 C 852.905 -0.889354 3.65742 0
M  V30 9000 C 852.052 0.0262474 2.77288 0
M  V30 9001 H 855.003 0.481808 1.51209 0
M  V30 9002 H 855.024 -1.28517 3.58139 0
M  V30 9003 H 854.536 0.520289 3.84597 0
M  V30 9004 H 852.637 -1.86602 3.22507 0
M  V30 9005 H 852.75 -0.737432 4.73391 0
M  V30 9006 H 851.114 -0.487361 2.49994 0
M  V30 9007 H 851.897 0.986494 3.28821 0
M  V30 9008 N 854.342 -1.57594 -0.0133615 0
M  V30 9009 C 855.272 -2.10611 -1.00823 0
M  V30 9010 C 856.253 -1.01217 -1.36708 0
M  V30 9011 O 857.438 -1.28827 -1.45318 0
M  V30 9012 C 854.568 -2.59844 -2.30431 0
M  V30 9013 C 853.522 -3.73644 -2.08745 0
M  V30 9014 C 852.848 -4.09141 -3.4425 0
M  V30 9015 C 854.148 -5.01454 -1.46086 0
M  V30 9016 H 855.842 -2.93985 -0.566849 0
M  V30 9017 H 853.388 -1.41423 -0.271219 0
M  V30 9018 H 855.341 -2.95557 -3.00373 0
M  V30 9019 H 854.065 -1.73573 -2.76658 0
M  V30 9020 H 852.724 -3.38303 -1.41232 0
M  V30 9021 H 852.372 -3.19914 -3.88155 0
M  V30 9022 H 852.072 -4.85802 -3.3056 0
M  V30 9023 H 853.596 -4.47402 -4.15528 0
M  V30 9024 H 855.01 -5.35024 -2.05966 0
M  V30 9025 H 853.407 -5.82832 -1.42924 0
M  V30 9026 H 854.477 -4.83003 -0.428471 0
M  V30 9027 N 855.82 0.285905 -1.54985 0
M  V30 9028 C 857.045 1.04207 -1.7932 0
M  V30 9029 C 857.47 1.79622 -0.558343 0
M  V30 9030 O 856.828 1.74506 0.491661 0
M  V30 9031 C 856.876 1.98648 -3.0095 0
M  V30 9032 O 855.98 3.07207 -2.75132 0
M  V30 9033 H 855.321 0.298596 -0.593074 0
M  V30 9034 H 857.851 0.318736 -2.02102 0
M  V30 9035 H 857.861 2.4084 -3.29333 0
M  V30 9036 H 856.536 1.43167 -3.90482 0
M  V30 9037 H 855.113 2.69423 -2.57809 0
M  V30 9038 N 857.298 1.47698 0.54982 0
M  V30 9039 C 858.538 1.56286 1.31735 0
M  V30 9040 C 858.902 0.223042 1.907 0
M  V30 9041 O 860.103 0.183798 2.68171 0
M  V30 9042 C 858.374 2.65522 2.39234 0
M  V30 9043 S 859.933 2.93742 3.25977 0
M  V30 9044 H 856.751 0.551795 0.448378 0
M  V30 9045 H 859.353 1.85118 0.628629 0
M  V30 9046 H 858.057 3.61457 1.94362 0
M  V30 9047 H 857.588 2.38528 3.12838 0
M  V30 9048 H 859.603 2.31522 4.38876 0
M  V30 9049 N 858.776 -0.797141 1.35954 0
M  V30 9050 C 859.723 -1.90944 1.2965 0
M  V30 9051 C 860.693 -1.65262 0.166628 0
M  V30 9052 O 861.878 -1.87527 0.351883 0
M  V30 9053 C 859.018 -3.27637 1.08389 0
M  V30 9054 C 858.131 -3.65442 2.30382 0
M  V30 9055 C 857.266 -4.91213 2.02195 0
M  V30 9056 C 856.305 -5.21674 3.20191 0
M  V30 9057 N 855.442 -6.38627 2.91719 0
M  V30 9058 H 860.282 -1.95668 2.24762 0
M  V30 9059 H 857.819 -0.95696 1.11717 0
M  V30 9060 H 859.777 -4.06451 0.940912 0
M  V30 9061 H 858.407 -3.22355 0.169351 0
M  V30 9062 H 857.459 -2.81813 2.55511 0
M  V30 9063 H 858.771 -3.83907 3.18461 0
M  V30 9064 H 857.925 -5.77876 1.84783 0
M  V30 9065 H 856.664 -4.74803 1.11416 0
M  V30 9066 H 855.669 -4.33498 3.38171 0
M  V30 9067 H 856.894 -5.40009 4.11786 0
M  V30 9068 H 854.84 -6.23623 2.03543 0
M  V30 9069 H 854.757 -6.57387 3.73334 0
M  V30 9070 H 856.025 -7.28292 2.77868 0
M  V30 9071 N 860.254 -1.20106 -1.0204 0
M  V30 9072 C 861.204 -0.914145 -2.08872 0
M  V30 9073 C 862.188 0.124503 -1.60418 0
M  V30 9074 O 863.38 -0.0823521 -1.76808 0
M  V30 9075 C 860.509 -0.463897 -3.40151 0
M  V30 9076 C 859.595 -1.53576 -3.95317 0
M  V30 9077 N 859.986 -2.75726 -4.24038 0
M  V30 9078 C 858.284 -1.40103 -4.23423 0
M  V30 9079 C 858.985 -3.44838 -4.68468 0
M  V30 9080 N 857.961 -2.72245 -4.70514 0
M  V30 9081 H 861.763 -1.8424 -2.28982 0
M  V30 9082 H 859.277 -1.0945 -1.19977 0
M  V30 9083 H 861.274 -0.239766 -4.1621 0
M  V30 9084 H 859.934 0.457779 -3.21457 0
M  V30 9085 H 860.945 -3.12412 -4.13061 0
M  V30 9086 H 857.622 -0.543472 -4.13948 0
M  V30 9087 H 859.012 -4.49342 -4.99541 0
M  V30 9088 N 861.732 1.21287 -1.00634 0
M  V30 9089 C 862.68 2.25733 -0.561026 0
M  V30 9090 C 863.674 1.64728 0.395095 0
M  V30 9091 O 864.88 1.78022 0.266141 0
M  V30 9092 H 861.255 0.734104 -0.163081 0
M  V30 9093 H 863.226 2.60631 -1.45307 0
M  V30 9094 C 861.975 3.47569 0.0952587 0
M  V30 9095 H 861.298 3.94782 -0.631427 0
M  V30 9096 H 862.738 4.22382 0.370105 0
M  V30 9097 C 861.197 3.09326 1.33488 0
M  V30 9098 O 861.727 3.19933 2.42912 0
M  V30 9099 N 859.933 2.63976 1.21512 0
M  V30 9100 H 859.48 2.55545 0.324741 0
M  V30 9101 H 859.438 2.38757 2.04555 0
M  V30 9102 N 863.21 0.781244 1.36873 0
M  V30 9103 C 864.12 0.174981 2.33947 0
M  V30 9104 C 865.136 -0.668512 1.60645 0
M  V30 9105 O 866.312 -0.586213 1.9268 0
M  V30 9106 C 863.377 -0.686557 3.39834 0
M  V30 9107 C 862.438 0.174489 4.28945 0
M  V30 9108 C 861.671 -0.646024 5.29776 0
M  V30 9109 O 861.894 -1.88254 5.38439 0
M  V30 9110 O 860.828 -0.0502214 6.01879 0
M  V30 9111 H 864.654 0.977382 2.87543 0
M  V30 9112 H 862.239 0.542559 1.392 0
M  V30 9113 H 864.121 -1.1781 4.04597 0
M  V30 9114 H 862.796 -1.46699 2.8855 0
M  V30 9115 H 861.703 0.712604 3.6725 0
M  V30 9116 H 863.036 0.918232 4.83559 0
M  V30 9117 N 864.689 -1.48329 0.532571 0
M  V30 9118 C 865.935 -2.028 -0.000583219 0
M  V30 9119 C 866.268 -1.40858 -1.33688 0
M  V30 9120 O 865.543 -0.555261 -1.86406 0
M  V30 9121 C 865.826 -3.59901 -0.119846 0
M  V30 9122 C 865.679 -4.32318 1.2418 0
M  V30 9123 C 866.998 -4.31904 -0.845372 0
M  V30 9124 H 864.117 -0.736999 0.00126205 0
M  V30 9125 H 866.759 -1.77024 0.690102 0
M  V30 9126 H 864.909 -3.81993 -0.708092 0
M  V30 9127 H 866.581 -4.21637 1.87136 0
M  V30 9128 H 864.824 -3.93635 1.82301 0
M  V30 9129 H 865.495 -5.40697 1.11132 0
M  V30 9130 H 867.971 -4.14658 -0.346159 0
M  V30 9131 H 866.847 -5.41509 -0.897723 0
M  V30 9132 H 867.108 -3.99369 -1.89622 0
M  V30 9133 N 866.167 -0.267825 -1.55308 0
M  V30 9134 C 867.413 0.34458 -2.0046 0
M  V30 9135 C 867.768 1.54028 -1.15296 0
M  V30 9136 O 867.061 1.90409 -0.213316 0
M  V30 9137 C 867.255 0.784247 -3.48689 0
M  V30 9138 C 867.084 -0.367304 -4.48197 0
M  V30 9139 C 865.854 -0.848746 -4.98121 0
M  V30 9140 C 868.052 -1.20136 -5.00072 0
M  V30 9141 N 866.034 -1.97052 -5.81415 0
M  V30 9142 C 867.405 -2.17115 -5.80742 0
M  V30 9143 C 869.46 -1.23553 -4.82327 0
M  V30 9144 C 868.163 -3.17248 -6.45559 0
M  V30 9145 C 870.189 -2.22527 -5.47938 0
M  V30 9146 C 869.551 -3.1824 -6.28413 0
M  V30 9147 H 865.65 0.091465 -0.776633 0
M  V30 9148 H 868.234 -0.390184 -1.9075 0
M  V30 9149 H 866.405 1.48825 -3.58756 0
M  V30 9150 H 868.137 1.37337 -3.80684 0
M  V30 9151 H 864.892 -0.429291 -4.7165 0
M  V30 9152 H 865.316 -2.53481 -6.27755 0
M  V30 9153 H 869.958 -0.50937 -4.1972 0
M  V30 9154 H 867.676 -3.90801 -7.07319 0
M  V30 9155 H 871.262 -2.25904 -5.36152 0
M  V30 9156 H 870.142 -3.93573 -6.78285 0
M  V30 9157 N 867.645 1.57599 0.00500368 0
M  V30 9158 C 868.595 2.04585 1.00643 0
M  V30 9159 C 869.579 0.939622 1.30614 0
M  V30 9160 O 870.771 1.20342 1.29796 0
M  V30 9161 C 867.9 2.5486 2.30002 0
M  V30 9162 C 866.986 3.7235 2.03017 0
M  V30 9163 N 867.377 4.84218 1.46173 0
M  V30 9164 C 865.675 3.80185 2.33185 0
M  V30 9165 C 866.376 5.65688 1.35544 0
M  V30 9166 N 865.352 5.11536 1.83933 0
M  V30 9167 H 869.154 2.8849 0.561332 0
M  V30 9168 H 866.668 1.61026 0.210808 0
M  V30 9169 H 868.665 2.86794 3.0258 0
M  V30 9170 H 867.325 1.72372 2.75169 0
M  V30 9171 H 868.336 5.0517 1.1412 0
M  V30 9172 H 865.013 3.08543 2.81261 0
M  V30 9173 H 866.403 6.65588 0.918791 0
M  V30 9174 N 869.123 -0.277682 1.55134 0
M  V30 9175 C 870.053 -1.34742 1.90701 0
M  V30 9176 C 871.034 -1.51757 0.768354 0
M  V30 9177 O 872.219 -1.64879 1.02609 0
M  V30 9178 C 869.349 -2.70775 2.17481 0
M  V30 9179 C 868.303 -2.68497 3.33307 0
M  V30 9180 C 867.629 -4.08037 3.45557 0
M  V30 9181 C 868.929 -2.28178 4.69821 0
M  V30 9182 H 870.623 -1.05224 2.803 0
M  V30 9183 H 868.169 -0.504738 1.34864 0
M  V30 9184 H 870.122 -3.45719 2.40949 0
M  V30 9185 H 868.846 -3.01867 1.24676 0
M  V30 9186 H 867.505 -1.9601 3.09799 0
M  V30 9187 H 867.153 -4.36344 2.50226 0
M  V30 9188 H 866.853 -4.07409 4.23429 0
M  V30 9189 H 868.377 -4.84726 3.71312 0
M  V30 9190 H 869.791 -2.92843 4.92865 0
M  V30 9191 H 868.188 -2.3872 5.50575 0
M  V30 9192 H 869.258 -1.23308 4.6896 0
M  V30 9193 N 870.601 -1.47988 -0.541979 0
M  V30 9194 C 871.847 -1.55623 -1.30036 0
M  V30 9195 C 872.18 -0.224254 -1.92901 0
M  V30 9196 O 871.455 0.768629 -1.78668 0
M  V30 9197 C 871.738 -2.68562 -2.39888 0
M  V30 9198 C 871.591 -4.11426 -1.81792 0
M  V30 9199 C 872.91 -2.77325 -3.41729 0
M  V30 9200 H 870.029 -0.566498 -0.471433 0
M  V30 9201 H 872.671 -1.8011 -0.604998 0
M  V30 9202 H 870.821 -2.47814 -2.992 0
M  V30 9203 H 872.493 -4.43581 -1.26624 0
M  V30 9204 H 870.736 -4.18989 -1.12386 0
M  V30 9205 H 871.407 -4.8625 -2.61276 0
M  V30 9206 H 873.883 -2.96085 -2.92357 0
M  V30 9207 H 872.759 -3.58097 -4.16002 0
M  V30 9208 H 873.02 -1.84995 -4.01534 0
M  V30 9209 N 872.079 0.78992 -1.36375 0
M  V30 9210 C 873.327 1.54472 -1.30319 0
M  V30 9211 C 873.648 1.94647 0.117338 0
M  V30 9212 O 872.918 1.64906 1.05748 0
M  V30 9213 H 871.498 0.572879 -0.479394 0
M  V30 9214 H 874.16 0.941245 -1.70665 0
M  V30 9215 H 873.256 2.45252 -1.93024 0
M  V30 9216 N 873.557 1.20646 1.01402 0
M  V30 9217 C 874.806 1.01242 1.7445 0
M  V30 9218 C 875.119 -0.455732 1.90217 0
M  V30 9219 O 876.325 -0.768951 2.60383 0
M  V30 9220 C 874.781 1.76275 3.13776 0
M  V30 9221 C 874.389 3.27201 3.06013 0
M  V30 9222 C 876.133 1.65248 3.91016 0
M  V30 9223 C 874.04 3.9476 4.40362 0
M  V30 9224 H 872.97 0.375202 0.654018 0
M  V30 9225 H 875.621 1.44292 1.13367 0
M  V30 9226 H 874.003 1.26013 3.75415 0
M  V30 9227 H 875.177 3.84695 2.53665 0
M  V30 9228 H 873.492 3.38669 2.42265 0
M  V30 9229 H 876.089 2.13061 4.90417 0
M  V30 9230 H 876.432 0.609128 4.1182 0
M  V30 9231 H 876.965 2.12937 3.3601 0
M  V30 9232 H 873.704 4.99258 4.24761 0
M  V30 9233 H 873.224 3.42054 4.92706 0
M  V30 9234 H 874.903 3.99159 5.09196 0
M  V30 9235 N 875.035 -1.20752 1.01276 0
M  V30 9236 C 876.263 -1.94006 0.718976 0
M  V30 9237 C 876.678 -1.74544 -0.719711 0
M  V30 9238 O 876.035 -1.05697 -1.48776 0
M  V30 9239 C 876.086 -3.46208 1.04031 0
M  V30 9240 O 875.807 -3.65031 2.42248 0
M  V30 9241 C 877.308 -4.36614 0.767032 0
M  V30 9242 H 874.528 -0.616743 0.264327 0
M  V30 9243 H 877.072 -1.53352 1.3529 0
M  V30 9244 H 875.227 -3.84756 0.451852 0
M  V30 9245 H 875.641 -4.59054 2.53712 0
M  V30 9246 H 877.115 -5.42076 1.04198 0
M  V30 9247 H 877.592 -4.38182 -0.298851 0
M  V30 9248 H 878.198 -4.03723 1.33746 0
M  V30 9249 N 876.513 -0.788492 -1.36457 0
M  V30 9250 C 877.738 -0.371224 -2.04051 0
M  V30 9251 C 878.163 1.004 -1.59064 0
M  V30 9252 O 877.521 1.64663 -0.758679 0
M  V30 9253 C 877.569 -0.442275 -3.57877 0
M  V30 9254 O 876.673 0.55113 -4.08701 0
M  V30 9255 H 876.014 -0.157808 -0.644975 0
M  V30 9256 H 878.544 -1.06935 -1.74431 0
M  V30 9257 H 878.554 -0.305548 -4.06854 0
M  V30 9258 H 877.229 -1.44547 -3.89973 0
M  V30 9259 H 875.806 0.37614 -3.70998 0
M  V30 9260 N 877.991 1.48044 -0.54043 0
M  V30 9261 C 879.237 2.03392 -0.0183377 0
M  V30 9262 C 879.592 1.4091 1.31004 0
M  V30 9263 O 878.885 0.549375 1.83555 0
M  V30 9264 C 879.079 3.57085 0.150008 0
M  V30 9265 C 878.908 4.34468 -1.1605 0
M  V30 9266 C 877.678 4.75008 -1.72324 0
M  V30 9267 C 879.876 4.70641 -2.07368 0
M  V30 9268 N 877.858 5.36968 -2.97555 0
M  V30 9269 C 879.229 5.32728 -3.17176 0
M  V30 9270 C 881.284 4.52571 -2.07567 0
M  V30 9271 C 879.987 5.78654 -4.27261 0
M  V30 9272 C 882.013 4.99485 -3.16653 0
M  V30 9273 C 881.375 5.61606 -4.2518 0
M  V30 9274 H 877.474 0.780497 -0.0484652 0
M  V30 9275 H 880.058 1.80738 -0.724018 0
M  V30 9276 H 878.229 3.79542 0.824787 0
M  V30 9277 H 879.961 3.99071 0.672649 0
M  V30 9278 H 876.716 4.5644 -1.26331 0
M  V30 9279 H 877.14 5.72505 -3.61341 0
M  V30 9280 H 881.782 4.03914 -1.24952 0
M  V30 9281 H 879.5 6.26311 -5.10647 0
M  V30 9282 H 883.086 4.87286 -3.17874 0
M  V30 9283 H 881.966 5.97248 -5.08197 0
M  V30 9284 N 879.47 0.276058 1.55163 0
M  V30 9285 C 880.718 -0.339782 1.99223 0
M  V30 9286 C 881.039 -1.56307 1.16589 0
M  V30 9287 O 880.309 -1.94225 0.25564 0
M  V30 9288 H 878.889 -0.128534 0.735859 0
M  V30 9289 H 881.551 0.381612 1.91128 0
M  V30 9290 H 880.647 -0.629 3.05696 0
M  V30 9291 N 880.948 -1.576 0.00335426 0
M  V30 9292 C 881.858 -2.12067 -1.00322 0
M  V30 9293 C 882.874 -1.06672 -1.37467 0
M  V30 9294 O 884.05 -1.38592 -1.46131 0
M  V30 9295 C 881.115 -2.61593 -2.27531 0
M  V30 9296 C 880.176 -3.81602 -1.96668 0
M  V30 9297 C 879.409 -4.28756 -3.17811 0
M  V30 9298 O 879.632 -3.75222 -4.2961 0
M  V30 9299 O 878.566 -5.20877 -3.01613 0
M  V30 9300 H 882.392 -2.98299 -0.570199 0
M  V30 9301 H 879.977 -1.47835 -0.215682 0
M  V30 9302 H 881.859 -2.93631 -3.02256 0
M  V30 9303 H 880.534 -1.78457 -2.70065 0
M  V30 9304 H 879.441 -3.54531 -1.19408 0
M  V30 9305 H 880.774 -4.65822 -1.58968 0
M  V30 9306 N 882.426 0.269451 -1.5528 0
M  V30 9307 C 883.674 0.998604 -1.75705 0
M  V30 9308 C 883.995 1.86691 -0.563175 0
M  V30 9309 O 883.265 1.91305 0.421811 0
M  V30 9310 H 881.845 0.371698 -0.647958 0
M  V30 9311 H 884.507 0.292826 -1.92688 0
M  V30 9312 H 883.603 1.63348 -2.6594 0
M  V30 9313 N 883.904 1.48273 0.534124 0
M  V30 9314 C 885.144 1.57674 1.3007 0
M  V30 9315 C 885.508 0.243256 1.90453 0
M  V30 9316 O 886.709 0.212231 2.67961 0
M  V30 9317 C 884.98 2.68044 2.36405 0
M  V30 9318 S 886.539 2.97183 3.22843 0
M  V30 9319 H 883.357 0.55652 0.442501 0
M  V30 9320 H 885.959 1.85774 0.60896 0
M  V30 9321 H 884.663 3.63498 1.90518 0
M  V30 9322 H 884.194 2.41833 3.10291 0
M  V30 9323 H 886.209 2.36164 4.36396 0
M  V30 9324 N 885.382 -0.782676 1.36792 0
M  V30 9325 C 886.345 -1.8772 1.31507 0
M  V30 9326 C 887.345 -1.59269 0.221349 0
M  V30 9327 O 888.535 -1.67555 0.476544 0
M  V30 9328 C 885.667 -3.24641 1.04025 0
M  V30 9329 H 886.86 -1.9382 2.28853 0
M  V30 9330 H 884.413 -0.981226 1.21662 0
M  V30 9331 H 885.148 -3.24221 0.0716439 0
M  V30 9332 H 884.933 -3.46681 1.8318 0
M  V30 9333 H 886.423 -4.04711 1.02949 0
M  V30 9334 N 886.86 -1.21182 -1.00761 0
M  V30 9335 C 887.792 -0.926523 -2.09638 0
M  V30 9336 C 888.805 0.0892511 -1.62555 0
M  V30 9337 O 889.994 -0.142915 -1.77927 0
M  V30 9338 C 887.094 -0.369175 -3.36883 0
M  V30 9339 C 886.267 -1.43866 -4.13063 0
M  V30 9340 C 885.326 -0.891015 -5.18601 0
M  V30 9341 O 884.352 -1.57384 -5.47009 0
M  V30 9342 N 885.554 0.295057 -5.7975 0
M  V30 9343 H 888.319 -1.8638 -2.34697 0
M  V30 9344 H 885.88 -1.11671 -1.17223 0
M  V30 9345 H 887.872 0.011534 -4.04698 0
M  V30 9346 H 886.442 0.472861 -3.09003 0
M  V30 9347 H 885.662 -1.99332 -3.40089 0
M  V30 9348 H 886.95 -2.15866 -4.60738 0
M  V30 9349 H 886.348 0.8669 -5.59018 0
M  V30 9350 H 884.905 0.617306 -6.4887 0
M  V30 9351 N 888.338 1.20213 -1.01915 0
M  V30 9352 C 889.754 1.41696 -0.734459 0
M  V30 9353 C 889.954 1.89504 0.684867 0
M  V30 9354 O 889.01 2.06556 1.45227 0
M  V30 9355 C 890.323 2.43644 -1.76233 0
M  V30 9356 C 891.871 2.57406 -1.78076 0
M  V30 9357 C 892.346 3.626 -2.79796 0
M  V30 9358 N 893.837 3.70086 -2.78551 0
M  V30 9359 C 894.572 4.51145 -3.53915 0
M  V30 9360 N 894.068 5.35988 -4.38963 0
M  V30 9361 N 895.861 4.45702 -3.425 0
M  V30 9362 H 888.012 0.874976 -1.93541 0
M  V30 9363 H 890.275 0.446647 -0.836188 0
M  V30 9364 H 889.981 2.15519 -2.77929 0
M  V30 9365 H 889.855 3.42672 -1.57657 0
M  V30 9366 H 892.242 2.8486 -0.770634 0
M  V30 9367 H 892.323 1.58565 -2.00725 0
M  V30 9368 H 891.967 3.35889 -3.80973 0
M  V30 9369 H 891.897 4.61069 -2.54407 0
M  V30 9370 H 894.388 3.09484 -2.1686 0
M  V30 9371 H 894.701 5.94932 -4.9323 0
M  V30 9372 H 893.046 5.35482 -4.4304 0
M  V30 9373 H 896.237 3.78456 -2.75478 0
M  V30 9374 H 896.41 5.08637 -4.01487 0
M  V30 9375 N 889.816 0.795718 1.36037 0
M  V30 9376 C 890.726 0.199784 2.33748 0
M  V30 9377 C 891.742 -0.651436 1.61345 0
M  V30 9378 O 892.918 -0.565743 1.93291 0
M  V30 9379 C 889.983 -0.650475 3.40543 0
M  V30 9380 C 889.044 0.219974 4.28736 0
M  V30 9381 C 888.277 -0.589798 5.30431 0
M  V30 9382 O 888.5 -1.82532 5.40406 0
M  V30 9383 O 887.434 0.0136187 6.01898 0
M  V30 9384 H 891.26 1.00782 2.8649 0
M  V30 9385 H 888.845 0.557293 1.38617 0
M  V30 9386 H 890.727 -1.13512 4.05824 0
M  V30 9387 H 889.402 -1.4363 2.9009 0
M  V30 9388 H 888.309 0.751516 3.66474 0
M  V30 9389 H 889.642 0.969468 4.82558 0
M  V30 9390 N 891.294 -1.47756 0.548274 0
M  V30 9391 C 892.71 -1.58247 0.207401 0
M  V30 9392 C 892.91 -1.54804 -1.28988 0
M  V30 9393 O 891.966 -1.44673 -2.06944 0
M  V30 9394 C 893.279 -2.89129 0.826142 0
M  V30 9395 C 894.827 -3.02695 0.79655 0
M  V30 9396 C 895.302 -4.36264 1.3942 0
M  V30 9397 N 896.793 -4.42877 1.35698 0
M  V30 9398 C 897.528 -5.44773 1.78913 0
M  V30 9399 N 897.024 -6.53528 2.29942 0
M  V30 9400 N 898.817 -5.35765 1.70038 0
M  V30 9401 H 890.968 -1.48236 1.52117 0
M  V30 9402 H 893.231 -0.704957 0.633829 0
M  V30 9403 H 892.937 -2.97358 1.87806 0
M  V30 9404 H 892.811 -3.75891 0.313916 0
M  V30 9405 H 895.198 -2.94067 -0.246655 0
M  V30 9406 H 895.279 -2.17496 1.34644 0
M  V30 9407 H 894.923 -4.45646 2.43642 0
M  V30 9408 H 894.853 -5.20179 0.819827 0
M  V30 9409 H 897.344 -3.64874 0.983623 0
M  V30 9410 H 897.657 -7.27441 2.60863 0
M  V30 9411 H 896.002 -6.54442 2.33947 0
M  V30 9412 H 899.193 -4.49699 1.29955 0
M  V30 9413 H 899.366 -6.1504 2.04035 0
M  V30 9414 N 892.772 -0.284283 -1.55015 0
M  V30 9415 C 894.183 0.211681 -1.85496 0
M  V30 9416 C 894.534 1.54735 -1.2063 0
M  V30 9417 O 893.659 2.10594 -0.497918 0
M  V30 9418 C 894.254 0.390864 -3.36538 0
M  V30 9419 C 892.813 0.831055 -3.67111 0
M  V30 9420 C 891.96 -0.0703581 -2.77211 0
M  V30 9421 H 894.911 -0.505803 -1.50424 0
M  V30 9422 H 894.932 1.22803 -3.60138 0
M  V30 9423 H 894.444 -0.581409 -3.8372 0
M  V30 9424 H 892.545 1.81447 -3.25434 0
M  V30 9425 H 892.658 0.662026 -4.74504 0
M  V30 9426 H 891.022 0.447528 -2.50737 0
M  V30 9427 H 891.805 -1.03868 -3.2721 0
M  V30 9428 N 894.251 1.57596 -0.0117121 0
M  V30 9429 C 895.499 1.90694 0.669342 0
M  V30 9430 C 895.82 0.886999 1.73659 0
M  V30 9431 O 895.09 -0.0739779 1.9576 0
M  V30 9432 H 893.67 0.703846 0.250219 0
M  V30 9433 H 896.332 1.94821 -0.0554057 0
M  V30 9434 H 895.428 2.90802 1.13316 0
M  V30 9435 N 895.729 -0.261212 1.5542 0
M  V30 9436 C 896.975 -0.992699 1.76843 0
M  V30 9437 C 897.308 -1.8551 0.574428 0
M  V30 9438 O 896.583 -1.89739 -0.427713 0
M  V30 9439 C 896.866 -1.86532 3.08022 0
M  V30 9440 C 896.719 -1.03206 4.378 0
M  V30 9441 C 898.038 -2.85036 3.35324 0
M  V30 9442 H 895.157 -0.359473 0.643388 0
M  V30 9443 H 897.799 -0.264214 1.88154 0
M  V30 9444 H 895.949 -2.48644 2.9851 0
M  V30 9445 H 897.621 -0.430743 4.59285 0
M  V30 9446 H 895.864 -0.335911 4.32497 0
M  V30 9447 H 896.535 -1.6761 5.25938 0
M  V30 9448 H 899.011 -2.3306 3.44706 0
M  V30 9449 H 897.887 -3.43226 4.28354 0
M  V30 9450 H 898.148 -3.60768 2.55537 0
M  V30 9451 N 897.207 -1.48554 -0.526253 0
M  V30 9452 C 898.437 -1.60197 -1.30463 0
M  V30 9453 C 898.845 -0.26278 -1.87366 0
M  V30 9454 O 898.188 0.758537 -1.67308 0
M  V30 9455 C 898.25 -2.59223 -2.49085 0
M  V30 9456 C 897.914 -4.04199 -2.13241 0
M  V30 9457 C 898.911 -4.91771 -1.68694 0
M  V30 9458 C 896.596 -4.49762 -2.2365 0
M  V30 9459 C 898.59 -6.22934 -1.35026 0
M  V30 9460 C 896.277 -5.80945 -1.89594 0
M  V30 9461 C 897.275 -6.67354 -1.45353 0
M  V30 9462 O 896.963 -7.96096 -1.11745 0
M  V30 9463 H 896.695 -0.54284 -0.402866 0
M  V30 9464 H 899.249 -1.95137 -0.641157 0
M  V30 9465 H 897.479 -2.19412 -3.18426 0
M  V30 9466 H 899.168 -2.60661 -3.11144 0
M  V30 9467 H 899.934 -4.57806 -1.6012 0
M  V30 9468 H 895.813 -3.8269 -2.5704 0
M  V30 9469 H 899.357 -6.90334 -1.00422 0
M  V30 9470 H 895.254 -6.14444 -1.9781 0
M  V30 9471 H 896.022 -8.08882 -1.25111 0
M  V30 9472 N 898.685 0.775411 -1.37205 0
M  V30 9473 C 899.913 1.56446 -1.35397 0
M  V30 9474 C 900.328 1.887 0.0615437 0
M  V30 9475 O 899.685 1.51178 1.02233 0
M  V30 9476 C 899.736 2.87697 -2.18889 0
M  V30 9477 O 899.457 2.56828 -3.54924 0
M  V30 9478 C 900.958 3.81944 -2.25019 0
M  V30 9479 H 898.178 0.484792 -0.463916 0
M  V30 9480 H 900.722 0.961346 -1.80495 0
M  V30 9481 H 898.877 3.44442 -1.7731 0
M  V30 9482 H 899.291 3.40851 -3.98649 0
M  V30 9483 H 900.765 4.71055 -2.87769 0
M  V30 9484 H 901.242 4.20811 -1.25757 0
M  V30 9485 H 901.848 3.3113 -2.66895 0
M  V30 9486 N 900.163 1.21714 1.00117 0
M  V30 9487 C 901.111 0.976937 2.11089 0
M  V30 9488 C 902.105 -0.0771295 1.69224 0
M  V30 9489 O 903.311 0.0745945 1.79845 0
M  V30 9490 H 899.686 0.298687 0.690138 0
M  V30 9491 H 901.657 1.91881 2.28526 0
M  V30 9492 C 900.406 0.562369 3.43122 0
M  V30 9493 H 899.729 1.36509 3.75773 0
M  V30 9494 H 901.169 0.433642 4.21777 0
M  V30 9495 C 899.628 -0.727148 3.28959 0
M  V30 9496 O 900.158 -1.78171 3.60025 0
M  V30 9497 N 898.364 -0.695129 2.82164 0
M  V30 9498 H 897.911 0.163346 2.57082 0
M  V30 9499 H 897.869 -1.55822 2.73069 0
M  V30 9500 N 901.641 -1.19671 1.02551 0
M  V30 9501 C 902.887 -1.89548 0.721069 0
M  V30 9502 C 903.22 -1.79209 -0.748176 0
M  V30 9503 O 902.495 -1.1822 -1.54448 0
M  V30 9504 C 902.778 -3.4061 1.16861 0
M  V30 9505 C 902.631 -3.59838 2.69883 0
M  V30 9506 C 903.95 -4.33718 0.746782 0
M  V30 9507 H 901.069 -0.688315 0.263422 0
M  V30 9508 H 903.711 -1.40883 1.27483 0
M  V30 9509 H 901.861 -3.82188 0.697477 0
M  V30 9510 H 903.533 -3.27454 3.24917 0
M  V30 9511 H 901.776 -3.03005 3.10435 0
M  V30 9512 H 902.447 -4.65766 2.96253 0
M  V30 9513 H 904.923 -3.99837 1.15195 0
M  V30 9514 H 903.799 -5.38012 1.08786 0
M  V30 9515 H 904.06 -4.40704 -0.351057 0
M  V30 9516 N 903.119 -0.802921 -1.35613 0
M  V30 9517 C 904.365 -0.382141 -1.99167 0
M  V30 9518 C 904.698 1.04704 -1.63556 0
M  V30 9519 O 903.973 1.72578 -0.89706 0
M  V30 9520 C 904.256 -0.561493 -3.55695 0
M  V30 9521 C 904.109 -2.03534 -4.01116 0
M  V30 9522 C 905.428 0.0151135 -4.40097 0
M  V30 9523 H 902.547 -0.140322 -0.723518 0
M  V30 9524 H 905.189 -1.01177 -1.6082 0
M  V30 9525 H 903.339 -0.0255083 -3.88492 0
M  V30 9526 H 905.011 -2.63343 -3.78746 0
M  V30 9527 H 903.254 -2.5331 -3.52159 0
M  V30 9528 H 903.925 -2.11173 -5.1001 0
M  V30 9529 H 906.401 -0.442582 -4.1374 0
M  V30 9530 H 905.277 -0.140316 -5.48721 0
M  V30 9531 H 905.538 1.10848 -4.27978 0
M  V30 9532 N 904.597 1.47463 -0.556102 0
M  V30 9533 C 905.507 2.33785 0.195378 0
M  V30 9534 C 906.523 1.48123 0.913 0
M  V30 9535 O 907.699 1.81053 0.882141 0
M  V30 9536 C 904.764 3.24795 1.21282 0
M  V30 9537 C 903.825 4.26346 0.502747 0
M  V30 9538 C 903.058 5.13007 1.47172 0
M  V30 9539 O 903.281 5.02103 2.70646 0
M  V30 9540 O 902.215 5.93588 0.996814 0
M  V30 9541 H 906.041 2.99341 -0.512676 0
M  V30 9542 H 903.626 1.46004 -0.31673 0
M  V30 9543 H 905.508 3.81015 1.80016 0
M  V30 9544 H 904.183 2.61868 1.90282 0
M  V30 9545 H 903.09 3.73889 -0.125757 0
M  V30 9546 H 904.423 4.91984 -0.145779 0
M  V30 9547 N 906.075 0.2925 1.54862 0
M  V30 9548 C 907.305 -0.321646 2.04081 0
M  V30 9549 C 907.713 -1.48712 1.16967 0
M  V30 9550 O 907.056 -1.82755 0.18609 0
M  V30 9551 C 907.118 -0.848678 3.49339 0
M  V30 9552 C 906.782 0.190416 4.56603 0
M  V30 9553 C 907.779 1.01595 5.09877 0
M  V30 9554 C 905.464 0.329666 5.01217 0
M  V30 9555 C 907.458 1.96676 6.06298 0
M  V30 9556 C 905.145 1.28393 5.9746 0
M  V30 9557 C 906.143 2.10097 6.49883 0
M  V30 9558 O 905.831 3.03907 7.44242 0
M  V30 9559 H 905.563 -0.075098 0.671816 0
M  V30 9560 H 908.117 0.427531 2.00901 0
M  V30 9561 H 906.347 -1.64823 3.49815 0
M  V30 9562 H 908.036 -1.37779 3.81801 0
M  V30 9563 H 908.802 0.919197 4.7621 0
M  V30 9564 H 904.681 -0.296317 4.60047 0
M  V30 9565 H 908.225 2.60488 6.47141 0
M  V30 9566 H 904.122 1.38144 6.30545 0
M  V30 9567 H 904.89 2.98787 7.62016 0
M  V30 9568 N 907.553 -1.57587 0.0200696 0
M  V30 9569 C 908.799 -1.91708 -0.661503 0
M  V30 9570 C 909.132 -0.895968 -1.72296 0
M  V30 9571 O 908.407 0.082577 -1.94325 0
M  V30 9572 C 908.69 -3.36344 -1.28627 0
M  V30 9573 C 908.543 -4.49186 -0.234982 0
M  V30 9574 C 909.862 -3.80771 -2.20685 0
M  V30 9575 H 906.981 -0.69717 -0.239005 0
M  V30 9576 H 909.623 -1.8985 0.0754764 0
M  V30 9577 H 907.773 -3.38058 -1.91439 0
M  V30 9578 H 909.445 -4.59606 0.395011 0
M  V30 9579 H 907.688 -4.31557 0.440565 0
M  V30 9580 H 908.359 -5.47395 -0.711558 0
M  V30 9581 H 910.835 -3.80735 -1.67868 0
M  V30 9582 H 909.711 -4.82685 -2.61356 0
M  V30 9583 H 909.972 -3.15764 -3.09428 0
M  V30 9584 N 909.032 0.252966 -1.55557 0
M  V30 9585 C 910.309 1.00432 -1.67847 0
M  V30 9586 C 910.689 2.03587 -0.55816 0
M  V30 9587 O 910.037 2.24239 0.439197 0
M  V30 9588 C 910.247 1.64313 -3.079 0
M  V30 9589 C 911.595 2.14726 -3.66303 0
M  V30 9590 O 912.619 1.74264 -3.10661 0
M  V30 9591 O 911.478 2.89 -4.63833 0
M  V30 9592 H 908.572 0.467102 -0.682455 0
M  V30 9593 H 911.118 0.247233 -1.67889 0
M  V30 9594 H 909.89 0.896681 -3.80888 0
M  V30 9595 H 909.513 2.46657 -3.11843 0
M  V30 9596 N 910.51 1.48831 0.518367 0
M  V30 9597 C 911.756 1.58649 1.27287 0
M  V30 9598 C 912.111 0.262085 1.90607 0
M  V30 9599 O 911.404 -0.736154 1.76894 0
M  V30 9600 C 911.598 2.67003 2.3758 0
M  V30 9601 C 911.427 4.09851 1.85073 0
M  V30 9602 C 910.197 4.76852 1.67154 0
M  V30 9603 C 912.395 4.95646 1.37256 0
M  V30 9604 N 910.377 6.04075 1.09394 0
M  V30 9605 C 911.748 6.13208 0.915189 0
M  V30 9606 C 913.803 4.8178 1.25666 0
M  V30 9607 C 912.506 7.18431 0.353411 0
M  V30 9608 C 914.532 5.87136 0.708873 0
M  V30 9609 C 913.894 7.03914 0.261642 0
M  V30 9610 H 909.993 0.635017 0.456374 0
M  V30 9611 H 912.577 1.85763 0.583097 0
M  V30 9612 H 910.748 2.41691 3.04039 0
M  V30 9613 H 912.48 2.6644 3.04617 0
M  V30 9614 H 909.235 4.3337 1.91017 0
M  V30 9615 H 909.659 6.71955 0.824917 0
M  V30 9616 H 914.301 3.91826 1.58846 0
M  V30 9617 H 912.019 8.08099 0.00931313 0
M  V30 9618 H 915.605 5.78463 0.622221 0
M  V30 9619 H 914.485 7.84046 -0.155634 0
M  V30 9620 N 911.988 -0.768124 1.37614 0
M  V30 9621 C 913.237 -1.5221 1.32345 0
M  V30 9622 C 913.55 -1.95399 -0.0885761 0
M  V30 9623 O 914.756 -2.70216 -0.263752 0
M  V30 9624 C 913.212 -2.74872 2.32322 0
M  V30 9625 C 912.82 -2.38767 3.79071 0
M  V30 9626 C 914.564 -3.52805 2.36069 0
M  V30 9627 C 912.471 -3.57953 4.7077 0
M  V30 9628 H 911.401 -0.571461 0.491883 0
M  V30 9629 H 914.052 -0.841004 1.63093 0
M  V30 9630 H 912.434 -3.44889 1.94596 0
M  V30 9631 H 913.608 -1.7651 4.25654 0
M  V30 9632 H 911.923 -1.74 3.78303 0
M  V30 9633 H 914.52 -4.41397 3.01782 0
M  V30 9634 H 914.863 -3.92925 1.37535 0
M  V30 9635 H 915.396 -2.89788 2.72521 0
M  V30 9636 H 912.135 -3.22911 5.70446 0
M  V30 9637 H 911.655 -4.19302 4.28889 0
M  V30 9638 H 913.334 -4.2472 4.8808 0
M  V30 9639 N 913.466 -1.22244 -0.994698 0
M  V30 9640 C 914.396 -1.01513 -2.10279 0
M  V30 9641 C 915.377 0.0633365 -1.69982 0
M  V30 9642 O 916.562 -0.0985268 -1.9395 0
M  V30 9643 C 913.692 -0.59016 -3.42249 0
M  V30 9644 C 912.646 -1.61436 -3.96387 0
M  V30 9645 C 911.972 -1.04528 -5.24383 0
M  V30 9646 C 913.272 -3.00388 -4.27276 0
M  V30 9647 H 914.966 -1.94194 -2.2788 0
M  V30 9648 H 912.512 -0.935094 -1.09508 0
M  V30 9649 H 914.465 -0.432254 -4.19177 0
M  V30 9650 H 913.189 0.372308 -3.24471 0
M  V30 9651 H 911.848 -1.76001 -3.21589 0
M  V30 9652 H 911.496 -0.0742225 -5.02945 0
M  V30 9653 H 911.196 -1.72949 -5.61571 0
M  V30 9654 H 912.72 -0.898922 -6.03947 0
M  V30 9655 H 914.134 -2.89207 -4.95007 0
M  V30 9656 H 912.531 -3.65916 -4.75631 0
M  V30 9657 H 913.601 -3.50456 -3.35125 0
M  V30 9658 N 914.944 1.19125 -1.03184 0
M  V30 9659 C 915.854 2.26112 -0.625329 0
M  V30 9660 C 916.87 1.7056 0.344298 0
M  V30 9661 O 918.046 2.0039 0.20144 0
M  V30 9662 C 915.111 3.46697 0.0145169 0
M  V30 9663 C 914.172 4.17419 -1.00299 0
M  V30 9664 C 913.405 5.32247 -0.393581 0
M  V30 9665 O 913.628 5.64724 0.802659 0
M  V30 9666 O 912.562 5.91428 -1.1179 0
M  V30 9667 H 916.388 2.63131 -1.51643 0
M  V30 9668 H 913.973 1.26036 -0.802197 0
M  V30 9669 H 915.855 4.19762 0.371139 0
M  V30 9670 H 914.53 3.11521 0.879581 0
M  V30 9671 H 913.437 3.4646 -1.41125 0
M  V30 9672 H 914.77 4.56573 -1.83852 0
M  V30 9673 N 916.422 0.810101 1.35185 0
M  V30 9674 C 917.369 0.220927 2.2974 0
M  V30 9675 C 918.339 -0.647024 1.5298 0
M  V30 9676 O 919.524 -0.591367 1.81404 0
M  V30 9677 C 916.664 -0.62167 3.39454 0
M  V30 9678 C 915.777 0.267104 4.31173 0
M  V30 9679 C 914.912 -0.583833 5.27982 0
M  V30 9680 C 913.951 0.305123 6.11339 0
M  V30 9681 N 913.088 -0.505992 7.00274 0
M  V30 9682 H 917.928 1.03266 2.79536 0
M  V30 9683 H 915.465 0.520768 1.37573 0
M  V30 9684 H 917.423 -1.12539 4.01735 0
M  V30 9685 H 916.053 -1.39863 2.90926 0
M  V30 9686 H 915.105 0.88895 3.69867 0
M  V30 9687 H 916.417 0.951182 4.89647 0
M  V30 9688 H 915.571 -1.15254 5.95652 0
M  V30 9689 H 914.31 -1.30146 4.70014 0
M  V30 9690 H 913.315 0.886075 5.42613 0
M  V30 9691 H 914.54 1.02067 6.71386 0
M  V30 9692 H 912.486 -1.20753 6.4479 0
M  V30 9693 H 912.403 0.119966 7.55905 0
M  V30 9694 H 913.671 -1.05787 7.72288 0
M  V30 9695 N 917.9 -1.47166 0.563914 0
M  V30 9696 C 919.128 -2.06846 0.0474287 0
M  V30 9697 C 919.543 -1.41557 -1.24928 0
M  V30 9698 O 918.9 -0.514376 -1.75101 0
M  V30 9699 C 918.951 -3.6121 -0.144831 0
M  V30 9700 O 918.672 -4.24052 1.10053 0
M  V30 9701 C 920.173 -4.37773 -0.69783 0
M  V30 9702 H 917.393 -0.669217 0.0488896 0
M  V30 9703 H 919.937 -1.89072 0.779235 0
M  V30 9704 H 918.092 -3.78474 -0.82679 0
M  V30 9705 H 918.506 -5.16677 0.902481 0
M  V30 9706 H 919.98 -5.46438 -0.781616 0
M  V30 9707 H 920.457 -4.04517 -1.71063 0
M  V30 9708 H 921.063 -4.25269 -0.0513516 0
M  V30 9709 N 919.378 -0.300708 -1.54705 0
M  V30 9710 C 920.31 0.609179 -2.20956 0
M  V30 9711 C 921.323 1.09776 -1.20221 0
M  V30 9712 O 922.512 1.01527 -1.46815 0
M  V30 9713 C 919.612 1.84595 -2.84214 0
M  V30 9714 C 918.785 1.49991 -4.10879 0
M  V30 9715 C 917.844 2.5918 -4.57943 0
M  V30 9716 O 916.87 2.24285 -5.23149 0
M  V30 9717 N 918.072 3.89714 -4.30236 0
M  V30 9718 H 920.837 0.0420111 -2.99671 0
M  V30 9719 H 918.398 -0.122896 -1.61433 0
M  V30 9720 H 920.39 2.56988 -3.12633 0
M  V30 9721 H 918.96 2.32152 -2.09342 0
M  V30 9722 H 918.18 0.608637 -3.89473 0
M  V30 9723 H 919.468 1.24409 -4.93356 0
M  V30 9724 H 918.866 4.20874 -3.77997 0
M  V30 9725 H 917.423 4.58406 -4.63365 0
M  V30 9726 N 920.856 1.57574 -0.0284266 0
M  V30 9727 C 921.819 2.09096 0.938691 0
M  V30 9728 C 922.819 1.00588 1.25454 0
M  V30 9729 O 924.009 1.2675 1.19499 0
M  V30 9730 C 921.141 2.55624 2.25542 0
M  V30 9731 H 922.334 2.95829 0.49248 0
M  V30 9732 H 919.887 1.5475 0.219594 0
M  V30 9733 H 920.622 1.72218 2.74793 0
M  V30 9734 H 920.407 3.34896 2.03929 0
M  V30 9735 H 921.897 2.95712 2.94863 0
M  V30 9736 N 922.334 -0.244713 1.55689 0
M  V30 9737 C 923.58 -0.973886 1.77886 0
M  V30 9738 C 923.913 -1.8489 0.594071 0
M  V30 9739 O 923.188 -1.90182 -0.407564 0
M  V30 9740 C 923.471 -1.83255 3.09983 0
M  V30 9741 C 923.324 -0.985571 4.3887 0
M  V30 9742 C 924.643 -2.81464 3.38329 0
M  V30 9743 H 921.762 -0.352629 0.647165 0
M  V30 9744 H 924.404 -0.244243 1.88424 0
M  V30 9745 H 922.554 -2.45464 3.01131 0
M  V30 9746 H 924.226 -0.382005 4.59716 0
M  V30 9747 H 922.469 -0.29002 4.32829 0
M  V30 9748 H 923.14 -1.62022 5.27686 0
M  V30 9749 H 925.616 -2.2939 3.47159 0
M  V30 9750 H 924.492 -3.38663 4.31971 0
M  V30 9751 H 924.753 -3.58037 2.59349 0
M  V30 9752 O 923.851 -1.56712 -0.390333 0
M  V30 9753 H 924.542 -1.63274 -1.04218 0
M  V30 END ATOM
M  V30 BEGIN BOND
M  V30 END BOND
M  V30 END CTAB
M  END
$$$$
