drugbank_drug|DB09109 >Heavy chain<<<
 OpenBabel12092119113D

  0  0  0     0  0            999 V3000
M  V30 BEGIN CTAB
M  V30 COUNTS 12124 12294 0 0 0
M  V30 BEGIN ATOM
M  V30 1 H -0.908 1.98254 -0.117106 0
M  V30 2 N 0 1.576 0 0
M  V30 3 C 0.963 2.07369 0.976253 0
M  V30 4 C 1.963 0.98309 1.27248 0
M  V30 5 O 3.153 1.24574 1.21766 0
M  V30 6 C 0.285 2.51514 2.30116 0
M  V30 7 H 1.478 2.94892 0.545759 0
M  V30 8 H -0.969 1.54328 0.247471 0
M  V30 9 H -0.234 1.67234 2.77855 0
M  V30 10 H -0.449 3.31163 2.09937 0
M  V30 11 H 1.041 2.90345 3.00149 0
M  V30 12 N 1.4781 -0.272755 1.55222 0
M  V30 13 C 2.7061 -1.02255 1.79865 0
M  V30 14 C 3.1211 -1.79924 0.572088 0
M  V30 15 O 2.4781 -1.76638 -0.458842 0
M  V30 16 C 2.5291 -1.98094 3.02392 0
M  V30 17 O 2.2501 -1.23572 4.20311 0
M  V30 18 C 3.7511 -2.84884 3.39641 0
M  V30 19 H 0.9711 -0.302057 0.599168 0
M  V30 20 H 3.5151 -0.303465 2.02236 0
M  V30 21 H 1.6701 -2.65465 2.82147 0
M  V30 22 H 2.0841 -1.88172 4.89583 0
M  V30 23 H 3.5581 -3.47927 4.28545 0
M  V30 24 H 4.0351 -3.54665 2.59055 0
M  V30 25 H 4.6411 -2.23003 3.62146 0
M  V30 26 N 2.9562 -1.48159 -0.537278 0
M  V30 27 C 4.3722 -1.34118 -0.865129 0
M  V30 28 C 4.5722 -0.346678 -1.98495 0
M  V30 29 O 3.6282 0.234715 -2.51407 0
M  V30 30 C 4.9412 -2.73963 -1.23954 0
M  V30 31 C 6.4892 -2.82397 -1.34984 0
M  V30 32 C 6.9642 -4.22928 -1.75772 0
M  V30 33 N 8.4552 -4.25566 -1.82887 0
M  V30 34 C 9.1902 -5.31235 -2.15817 0
M  V30 35 N 8.6862 -6.47189 -2.47222 0
M  V30 36 N 10.4792 -5.18624 -2.16761 0
M  V30 37 H 2.6302 -2.1144 0.201715 0
M  V30 38 H 4.8932 -0.947598 0.0275949 0
M  V30 39 H 4.5992 -3.48264 -0.490381 0
M  V30 40 H 4.4732 -3.0702 -2.19132 0
M  V30 41 H 6.8602 -2.08356 -2.08978 0
M  V30 42 H 6.9412 -2.5297 -0.379448 0
M  V30 43 H 6.5852 -4.97482 -1.02341 0
M  V30 44 H 6.5152 -4.49794 -2.73848 0
M  V30 45 H 9.0062 -3.41924 -1.60924 0
M  V30 46 H 9.3192 -7.23564 -2.71433 0
M  V30 47 H 7.6642 -6.50476 -2.44757 0
M  V30 48 H 10.8552 -4.27056 -1.91679 0
M  V30 49 H 11.0282 -6.01078 -2.42093 0
M  V30 50 N 4.4343 0.785586 -1.36625 0
M  V30 51 C 5.8503 1.08419 -1.17122 0
M  V30 52 C 6.0503 2.015 0.00208491 0
M  V30 53 O 5.1063 2.43551 0.666278 0
M  V30 54 C 6.4193 1.69498 -2.48377 0
M  V30 55 C 7.9673 1.81821 -2.54775 0
M  V30 56 C 8.4423 2.46315 -3.86126 0
M  V30 57 N 9.9333 2.53779 -3.87492 0
M  V30 58 C 10.6683 3.045 -4.85868 0
M  V30 59 N 10.1643 3.55499 -5.94637 0
M  V30 60 N 11.9573 3.03247 -4.73284 0
M  V30 61 H 4.1083 0.167264 -2.1174 0
M  V30 62 H 6.3713 0.13682 -0.938075 0
M  V30 63 H 6.0773 1.08571 -3.34522 0
M  V30 64 H 5.9513 2.6896 -2.64462 0
M  V30 65 H 8.3383 2.41884 -1.69045 0
M  V30 66 H 8.4193 0.811532 -2.42586 0
M  V30 67 H 8.0633 1.86895 -4.72263 0
M  V30 68 H 7.9933 3.47561 -3.95612 0
M  V30 69 H 10.4843 2.17672 -3.08913 0
M  V30 70 H 10.7973 3.92562 -6.65669 0
M  V30 71 H 9.1423 3.5364 -5.98301 0
M  V30 72 H 12.3333 2.62696 -3.87438 0
M  V30 73 H 12.5063 3.42467 -5.50109 0
M  V30 74 N 5.9124 1.20967 1.01018 0
M  V30 75 C 7.1424 1.04803 1.78044 0
M  V30 76 C 7.5504 -0.405462 1.84804 0
M  V30 77 O 6.8934 -1.2932 1.30468 0
M  V30 78 C 6.9554 1.56377 3.23707 0
M  V30 79 C 6.6194 3.04767 3.40538 0
M  V30 80 C 7.6164 4.02366 3.29239 0
M  V30 81 C 5.3014 3.43862 3.66147 0
M  V30 82 C 7.2954 5.37049 3.43304 0
M  V30 83 C 4.9824 4.78699 3.79855 0
M  V30 84 C 5.9804 5.75101 3.68439 0
M  V30 85 O 5.6684 7.07493 3.81719 0
M  V30 86 H 5.4004 0.368778 0.56655 0
M  V30 87 H 7.9544 1.60642 1.27997 0
M  V30 88 H 6.1844 0.949297 3.74867 0
M  V30 89 H 7.8734 1.36136 3.8239 0
M  V30 90 H 8.6394 3.73506 3.09384 0
M  V30 91 H 4.5184 2.69364 3.74118 0
M  V30 92 H 8.0624 6.12277 3.34309 0
M  V30 93 H 3.9594 5.07247 3.99213 0
M  V30 94 H 4.7274 7.1483 3.98697 0
M  V30 95 N 7.3905 -1.2043 1.01659 0
M  V30 96 C 8.6205 -1.93496 0.724081 0
M  V30 97 C 9.0285 -1.74998 -0.71918 0
M  V30 98 O 8.3715 -1.06118 -1.49949 0
M  V30 99 C 8.4335 -3.45886 0.97994 0
M  V30 100 C 8.0975 -3.88145 2.41232 0
M  V30 101 C 9.0945 -3.93907 3.39313 0
M  V30 102 C 6.7795 -4.20134 2.75305 0
M  V30 103 C 8.7735 -4.31069 4.6953 0
M  V30 104 C 6.4605 -4.56971 4.05735 0
M  V30 105 C 7.4585 -4.62411 5.02658 0
M  V30 106 O 7.1465 -4.98403 6.30754 0
M  V30 107 H 6.8785 -0.621824 0.265162 0
M  V30 108 H 9.4325 -1.53867 1.36066 0
M  V30 109 H 7.6625 -3.85639 0.286198 0
M  V30 110 H 9.3515 -4.0018 0.679021 0
M  V30 111 H 10.1175 -3.69357 3.14325 0
M  V30 112 H 5.9965 -4.1509 2.00551 0
M  V30 113 H 9.5405 -4.3523 5.45179 0
M  V30 114 H 5.4375 -4.80977 4.30502 0
M  V30 115 H 6.2055 -5.16395 6.35042 0
M  V30 116 N 8.8686 -0.792821 -1.36206 0
M  V30 117 C 9.7986 -0.207853 -2.32573 0
M  V30 118 C 10.7796 0.659055 -1.56813 0
M  V30 119 O 11.9646 0.592176 -1.84951 0
M  V30 120 C 9.0946 0.655449 -3.41059 0
M  V30 121 C 8.0486 -0.111842 -4.27854 0
M  V30 122 C 7.3746 0.872274 -5.27537 0
M  V30 123 C 8.6746 -1.30299 -5.05786 0
M  V30 124 H 10.3686 -1.01294 -2.81744 0
M  V30 125 H 7.9146 -0.48854 -1.3546 0
M  V30 126 H 9.8676 1.07464 -4.07467 0
M  V30 127 H 8.5916 1.49328 -2.90463 0
M  V30 128 H 7.2506 -0.512053 -3.63006 0
M  V30 129 H 6.8986 1.70523 -4.73214 0
M  V30 130 H 6.5986 0.363291 -5.86476 0
M  V30 131 H 8.1226 1.28996 -5.96818 0
M  V30 132 H 9.5366 -0.959379 -5.65216 0
M  V30 133 H 7.9336 -1.7455 -5.74154 0
M  V30 134 H 9.0036 -2.09663 -4.37229 0
M  V30 135 N 10.3467 1.47872 -0.545128 0
M  V30 136 C 11.5947 2.02093 -0.016553 0
M  V30 137 C 11.9157 1.42305 1.3332 0
M  V30 138 O 11.1857 0.593853 1.86682 0
M  V30 139 H 9.7657 0.746993 -0.00313038 0
M  V30 140 H 12.4277 1.81414 -0.712397 0
M  V30 141 H 11.5237 3.11996 0.0805422 0
M  V30 142 N 11.8248 0.280983 1.55075 0
M  V30 143 C 12.7878 -0.590896 2.21452 0
M  V30 144 C 13.7878 -1.07682 1.19421 0
M  V30 145 O 14.9778 -0.97605 1.44288 0
M  V30 146 C 12.1098 -1.81587 2.88511 0
M  V30 147 H 13.3028 -0.0112554 2.99898 0
M  V30 148 H 10.8558 0.0316438 1.56268 0
M  V30 149 H 11.5908 -2.43587 2.14093 0
M  V30 150 H 11.3758 -1.4753 3.63287 0
M  V30 151 H 12.8658 -2.43575 3.39206 0
M  V30 152 N 13.3029 -1.57598 0.00835791 0
M  V30 153 C 14.5489 -1.91211 -0.675732 0
M  V30 154 C 14.8819 -0.883139 -1.72958 0
M  V30 155 O 14.1569 0.097016 -1.94258 0
M  V30 156 C 14.4399 -3.35379 -1.31123 0
M  V30 157 C 14.2929 -4.48999 -0.268356 0
M  V30 158 C 15.6119 -3.7912 -2.23508 0
M  V30 159 H 12.7309 -0.695374 -0.244179 0
M  V30 160 H 15.3729 -1.89901 0.0613655 0
M  V30 161 H 13.5229 -3.36626 -1.93946 0
M  V30 162 H 15.1949 -4.59887 0.360844 0
M  V30 163 H 13.4379 -4.31873 0.408482 0
M  V30 164 H 14.1089 -5.46851 -0.752218 0
M  V30 165 H 16.5849 -3.79477 -1.70693 0
M  V30 166 H 15.4609 -4.80729 -2.64936 0
M  V30 167 H 15.7219 -3.13455 -3.11766 0
M  V30 168 N 14.781 0.264519 -1.55364 0
M  V30 169 C 15.691 1.34902 -1.91934 0
M  V30 170 C 16.707 1.53595 -0.817593 0
M  V30 171 O 17.883 1.67558 -1.11742 0
M  V30 172 C 14.948 2.68676 -2.19121 0
M  V30 173 C 14.009 2.58657 -3.4263 0
M  V30 174 C 13.242 3.86051 -3.68511 0
M  V30 175 O 13.465 4.87126 -2.96757 0
M  V30 176 O 12.399 3.85744 -4.62045 0
M  V30 177 H 16.225 1.06883 -2.8427 0
M  V30 178 H 13.81 0.463775 -1.42019 0
M  V30 179 H 15.692 3.47759 -2.37995 0
M  V30 180 H 14.367 2.96463 -1.29966 0
M  V30 181 H 13.274 1.7792 -3.29082 0
M  V30 182 H 14.607 2.35818 -4.32031 0
M  V30 183 N 16.2591 1.48442 0.529413 0
M  V30 184 C 17.1891 1.65902 1.64313 0
M  V30 185 C 18.1701 0.507897 1.6234 0
M  V30 186 O 19.3551 0.740503 1.79528 0
M  V30 187 C 16.4851 1.69911 3.02898 0
M  V30 188 C 15.4391 2.8453 3.19729 0
M  V30 189 C 14.7651 2.73629 4.59381 0
M  V30 190 C 16.0651 4.25821 3.02447 0
M  V30 191 H 17.7591 2.5914 1.49955 0
M  V30 192 H 15.3051 1.24709 0.719982 0
M  V30 193 H 17.2581 1.80715 3.80684 0
M  V30 194 H 15.9821 0.732524 3.18279 0
M  V30 195 H 14.6411 2.73283 2.44361 0
M  V30 196 H 14.2891 1.74938 4.71599 0
M  V30 197 H 13.9891 3.50541 4.71588 0
M  V30 198 H 15.5131 2.86401 5.39265 0
M  V30 199 H 16.9271 4.37898 3.70024 0
M  V30 200 H 15.3241 5.03735 3.26146 0
M  V30 201 H 16.3941 4.42244 1.98867 0
M  V30 202 N 17.7372 -0.778329 1.37039 0
M  V30 203 C 18.9622 -1.57248 1.35233 0
M  V30 204 C 19.3872 -1.87999 -0.0615568 0
M  V30 205 O 18.7452 -1.48734 -1.03672 0
M  V30 206 C 18.7932 -2.86353 2.19167 0
M  V30 207 O 17.8972 -3.80442 1.59178 0
M  V30 208 H 17.2382 -0.476569 0.462362 0
M  V30 209 H 19.7682 -0.963853 1.80474 0
M  V30 210 H 19.7782 -3.35519 2.32145 0
M  V30 211 H 18.4532 -2.63299 3.21942 0
M  V30 212 H 17.0302 -3.39067 1.55203 0
M  V30 213 N 19.2153 -1.21501 -1.00376 0
M  V30 214 C 20.4613 -1.04457 -1.74529 0
M  V30 215 C 20.8163 0.417386 -1.87818 0
M  V30 216 O 20.1093 1.30556 -1.40234 0
M  V30 217 C 20.3033 -1.67673 -3.15627 0
M  V30 218 C 20.1323 -3.19865 -3.16096 0
M  V30 219 C 18.9023 -3.88915 -3.22604 0
M  V30 220 C 21.1003 -4.16936 -3.01112 0
M  V30 221 N 19.0823 -5.28284 -3.12712 0
M  V30 222 C 20.4533 -5.43066 -2.99131 0
M  V30 223 C 22.5083 -4.07968 -2.85423 0
M  V30 224 C 21.2113 -6.6126 -2.83068 0
M  V30 225 C 23.2373 -5.258 -2.70718 0
M  V30 226 C 22.5993 -6.50842 -2.69414 0
M  V30 227 H 18.6983 -0.436584 -0.648782 0
M  V30 228 H 21.2823 -1.53875 -1.19293 0
M  V30 229 H 19.4533 -1.20822 -3.6913 0
M  V30 230 H 21.1853 -1.43824 -3.78281 0
M  V30 231 H 17.9403 -3.39847 -3.2985 0
M  V30 232 H 18.3643 -6.01284 -3.11105 0
M  V30 233 H 23.0063 -3.1209 -2.85236 0
M  V30 234 H 20.7243 -7.57298 -2.82002 0
M  V30 235 H 24.3103 -5.20683 -2.59577 0
M  V30 236 H 23.1903 -7.40485 -2.5817 0
M  V30 237 N 20.6934 1.19889 -1.02296 0
M  V30 238 C 21.9704 1.85148 -0.630832 0
M  V30 239 C 22.3504 1.91385 0.890782 0
M  V30 240 O 21.6984 1.42642 1.78509 0
M  V30 241 C 21.9084 3.24442 -1.28602 0
M  V30 242 C 23.2564 4.00663 -1.4055 0
M  V30 243 O 24.2804 3.33818 -1.24273 0
M  V30 244 O 23.1394 5.20387 -1.66913 0
M  V30 245 H 20.2334 0.797613 -0.218499 0
M  V30 246 H 22.7794 1.27427 -1.12074 0
M  V30 247 H 21.5514 3.14704 -2.32545 0
M  V30 248 H 21.1744 3.89802 -0.7836 0
M  V30 249 N 22.1715 0.800033 1.35784 0
M  V30 250 C 23.4015 0.389041 2.02904 0
M  V30 251 C 23.8095 -1.0027 1.60445 0
M  V30 252 O 23.1525 -1.65633 0.794453 0
M  V30 253 C 23.2145 0.385495 3.57427 0
M  V30 254 C 22.8785 1.72662 4.23127 0
M  V30 255 C 23.8755 2.68385 4.4527 0
M  V30 256 C 21.5605 2.00883 4.60381 0
M  V30 257 C 23.5545 3.90517 5.03761 0
M  V30 258 C 21.2415 3.2328 5.18588 0
M  V30 259 C 22.2395 4.17915 5.40218 0
M  V30 260 O 21.9275 5.38153 5.97199 0
M  V30 261 H 21.6595 0.157032 0.657508 0
M  V30 262 H 24.2135 1.08311 1.74522 0
M  V30 263 H 22.4435 -0.365128 3.84972 0
M  V30 264 H 24.1325 -0.00228296 4.059 0
M  V30 265 H 24.8985 2.47872 4.16874 0
M  V30 266 H 20.7775 1.28037 4.42863 0
M  V30 267 H 24.3215 4.64395 5.2056 0
M  V30 268 H 20.2185 3.43667 5.4641 0
M  V30 269 H 20.9865 5.3936 6.15656 0
M  V30 270 N 23.6496 -1.47581 0.552962 0
M  V30 271 C 24.5826 -2.26883 -0.244857 0
M  V30 272 C 25.5606 -1.33784 -0.924147 0
M  V30 273 O 26.7446 -1.6316 -0.943981 0
M  V30 274 C 23.8716 -3.10695 -1.34856 0
M  V30 275 C 22.9176 -4.19339 -0.778268 0
M  V30 276 S 23.7506 -5.34207 0.37184 0
M  V30 277 C 24.9066 -6.21584 -0.733779 0
M  V30 278 H 25.1396 -2.94202 0.428087 0
M  V30 279 H 22.6726 -1.50628 0.339197 0
M  V30 280 H 24.6306 -3.59555 -1.98066 0
M  V30 281 H 23.2916 -2.42746 -1.99332 0
M  V30 282 H 22.4846 -4.77695 -1.60696 0
M  V30 283 H 22.0866 -3.73338 -0.222422 0
M  V30 284 H 24.3786 -6.57676 -1.62692 0
M  V30 285 H 25.3216 -7.07851 -0.187668 0
M  V30 286 H 25.7296 -5.55125 -1.02454 0
M  V30 287 N 25.1277 -0.289203 -1.54924 0
M  V30 288 C 26.0597 0.625583 -2.20497 0
M  V30 289 C 27.0727 1.10667 -1.19402 0
M  V30 290 O 28.2617 1.02615 -1.46056 0
M  V30 291 C 25.3617 1.86702 -2.82835 0
M  V30 292 C 24.5347 1.5304 -4.09753 0
M  V30 293 C 23.5937 2.62576 -4.56005 0
M  V30 294 O 22.6197 2.28167 -5.21468 0
M  V30 295 N 23.8217 3.92901 -4.27328 0
M  V30 296 H 26.5867 0.0642801 -2.99631 0
M  V30 297 H 24.1477 -0.110896 -1.6152 0
M  V30 298 H 26.1397 2.59304 -3.10715 0
M  V30 299 H 24.7097 2.33702 -2.07611 0
M  V30 300 H 23.9297 0.637564 -3.8901 0
M  V30 301 H 25.2177 1.28072 -4.92418 0
M  V30 302 H 24.6157 4.23671 -3.74859 0
M  V30 303 H 23.1727 4.61837 -4.59946 0
M  V30 304 N 26.6058 1.57591 -0.0167156 0
M  V30 305 C 27.8308 1.9598 0.67872 0
M  V30 306 C 28.2558 0.892546 1.65575 0
M  V30 307 O 27.6138 -0.147772 1.80697 0
M  V30 308 C 27.6618 3.33468 1.37227 0
M  V30 309 O 26.7658 3.28954 2.48722 0
M  V30 310 H 26.1068 0.639339 0.17928 0
M  V30 311 H 28.6368 2.04463 -0.0748802 0
M  V30 312 H 28.6468 3.69417 1.7319 0
M  V30 313 H 27.3218 4.10694 0.656007 0
M  V30 314 H 25.8988 3.04705 2.14963 0
M  V30 315 N 28.0839 -0.256276 1.55502 0
M  V30 316 C 29.3609 -1.00789 1.67633 0
M  V30 317 C 29.7409 -2.03706 0.553826 0
M  V30 318 O 29.0889 -2.24145 -0.443969 0
M  V30 319 C 29.2989 -1.64968 3.07549 0
M  V30 320 C 30.6469 -2.15505 3.65845 0
M  V30 321 O 31.6709 -1.74925 3.1029 0
M  V30 322 O 30.5299 -2.89986 4.63217 0
M  V30 323 H 27.6239 -0.468553 0.681459 0
M  V30 324 H 30.1699 -0.250806 1.67836 0
M  V30 325 H 28.9419 -0.904785 3.80696 0
M  V30 326 H 28.5649 -2.47321 3.11317 0
M  V30 327 N 29.562 -1.4872 -0.521534 0
M  V30 328 C 30.492 -1.66771 -1.63431 0
M  V30 329 C 31.473 -0.516499 -1.62069 0
M  V30 330 O 32.658 -0.750013 -1.79132 0
M  V30 331 C 29.788 -1.71515 -3.01993 0
M  V30 332 C 28.742 -2.86222 -3.18216 0
M  V30 333 C 28.068 -2.76061 -4.57924 0
M  V30 334 C 29.368 -4.27419 -3.00184 0
M  V30 335 H 31.062 -2.59932 -1.48579 0
M  V30 336 H 28.608 -1.25089 -0.713358 0
M  V30 337 H 30.561 -1.82731 -3.7972 0
M  V30 338 H 29.285 -0.749393 -3.17886 0
M  V30 339 H 27.944 -2.74575 -2.42908 0
M  V30 340 H 27.592 -1.77437 -4.70665 0
M  V30 341 H 27.292 -3.53037 -4.69722 0
M  V30 342 H 28.816 -2.89256 -5.37739 0
M  V30 343 H 30.23 -4.39855 -3.67697 0
M  V30 344 H 28.627 -5.05458 -3.2347 0
M  V30 345 H 29.697 -4.43293 -1.96518 0
M  V30 346 N 31.0401 0.771051 -1.3745 0
M  V30 347 C 32.2881 1.52661 -1.32435 0
M  V30 348 C 32.6091 1.9479 0.0905024 0
M  V30 349 O 31.8791 1.66348 1.03466 0
M  V30 350 H 30.4591 0.566218 -0.487244 0
M  V30 351 H 33.1211 0.917636 -1.71946 0
M  V30 352 H 32.2171 2.42568 -1.96385 0
M  V30 353 N 32.5182 1.22032 0.997298 0
M  V30 354 C 33.4282 1.00271 2.12092 0
M  V30 355 C 34.4442 -0.047621 1.73935 0
M  V30 356 O 35.6202 0.144136 2.00884 0
M  V30 357 C 32.6852 0.578449 3.4184 0
M  V30 358 C 31.7462 1.70189 3.94125 0
M  V30 359 C 30.9792 1.29778 5.17681 0
M  V30 360 O 31.2022 0.174676 5.70132 0
M  V30 361 O 30.1362 2.11261 5.63607 0
M  V30 362 H 33.9622 1.94398 2.3333 0
M  V30 363 H 31.5472 1.00587 1.10465 0
M  V30 364 H 33.4292 0.351998 4.19927 0
M  V30 365 H 32.1042 -0.334019 3.21972 0
M  V30 366 H 31.0112 1.98282 3.1723 0
M  V30 367 H 32.3442 2.59206 4.18417 0
M  V30 368 N 33.9963 -1.19345 1.0293 0
M  V30 369 C 34.9263 -2.2481 0.631105 0
M  V30 370 C 35.9073 -1.66245 -0.360104 0
M  V30 371 O 37.0923 -1.92677 -0.242726 0
M  V30 372 C 34.2223 -3.47295 -0.0184607 0
M  V30 373 C 33.1763 -4.18536 0.895073 0
M  V30 374 C 32.5023 -5.34586 0.110592 0
M  V30 375 C 33.8023 -4.73287 2.209 0
M  V30 376 H 35.4963 -2.58372 1.51275 0
M  V30 377 H 33.0423 -1.24194 0.728818 0
M  V30 378 H 34.9953 -4.20268 -0.308675 0
M  V30 379 H 33.7193 -3.12933 -0.934907 0
M  V30 380 H 32.3783 -3.47446 1.16949 0
M  V30 381 H 32.0263 -4.96469 -0.807902 0
M  V30 382 H 31.7263 -5.83183 0.719087 0
M  V30 383 H 33.2503 -6.10355 -0.172871 0
M  V30 384 H 34.6643 -5.38013 1.98028 0
M  V30 385 H 33.0613 -5.32373 2.76946 0
M  V30 386 H 34.1313 -3.91331 2.86336 0
M  V30 387 N 35.4744 -0.807222 -1.35358 0
M  V30 388 C 36.8854 -0.44876 -1.81226 0
M  V30 389 C 37.2364 1.02929 -1.67033 0
M  V30 390 O 36.3614 1.79991 -1.20133 0
M  V30 391 C 36.9564 -0.807774 -3.2903 0
M  V30 392 C 35.5154 -0.501901 -3.73039 0
M  V30 393 C 34.6624 -1.03304 -2.57339 0
M  V30 394 H 37.6134 -0.998808 -1.23327 0
M  V30 395 H 37.6344 -0.10554 -3.80354 0
M  V30 396 H 37.1464 -1.88357 -3.39328 0
M  V30 397 H 35.2474 0.565128 -3.68289 0
M  V30 398 H 35.3604 -1.03497 -4.67787 0
M  V30 399 H 33.7244 -0.455339 -2.50597 0
M  V30 400 H 34.5074 -2.11496 -2.70415 0
M  V30 401 N 36.9525 1.47285 -0.560781 0
M  V30 402 C 38.1985 2.02764 -0.0381184 0
M  V30 403 C 38.5315 1.43384 1.30976 0
M  V30 404 O 37.8065 0.590733 1.85312 0
M  V30 405 C 38.0895 3.60064 0.0511427 0
M  V30 406 C 37.9425 4.2987 -1.32408 0
M  V30 407 C 39.2615 4.33439 0.762795 0
M  V30 408 H 36.3805 0.736841 -0.0153264 0
M  V30 409 H 39.0225 1.75675 -0.723759 0
M  V30 410 H 37.1725 3.83274 0.635065 0
M  V30 411 H 38.8445 4.17989 -1.95148 0
M  V30 412 H 37.0875 3.90085 -1.8978 0
M  V30 413 H 37.7585 5.38478 -1.21431 0
M  V30 414 H 40.2345 4.15243 0.266965 0
M  V30 415 H 39.1105 5.43124 0.794221 0
M  V30 416 H 39.3715 4.02915 1.81966 0
M  V30 417 N 38.4306 0.297415 1.54768 0
M  V30 418 C 39.7076 -0.365847 1.92148 0
M  V30 419 C 40.0876 -1.71975 1.22424 0
M  V30 420 O 39.4356 -2.25666 0.358739 0
M  V30 421 C 39.6456 -0.484056 3.45627 0
M  V30 422 C 40.9936 -0.756594 4.17805 0
M  V30 423 O 42.0176 -0.568007 3.51642 0
M  V30 424 O 40.8766 -1.11863 5.34929 0
M  V30 425 H 37.9706 -0.203919 0.801465 0
M  V30 426 H 40.5166 0.34521 1.66152 0
M  V30 427 H 39.2886 0.467865 3.88493 0
M  V30 428 H 38.9116 -1.24372 3.77647 0
M  V30 429 N 39.9087 -1.5758 0.0250728 0
M  V30 430 C 40.8717 -2.08896 -0.943139 0
M  V30 431 C 41.8717 -1.00321 -1.25668 0
M  V30 432 O 43.0617 -1.26495 -1.19769 0
M  V30 433 C 40.1937 -2.55143 -2.26086 0
M  V30 434 H 41.3867 -2.95723 -0.498775 0
M  V30 435 H 38.9397 -1.54703 -0.222888 0
M  V30 436 H 39.6747 -1.71633 -2.75159 0
M  V30 437 H 39.4597 -3.34461 -2.04641 0
M  V30 438 H 40.9497 -2.95083 -2.95492 0
M  V30 439 N 41.3868 0.248026 -1.55636 0
M  V30 440 C 42.8028 0.596483 -1.48035 0
M  V30 441 C 43.0028 1.88386 -0.715039 0
M  V30 442 O 42.0588 2.51319 -0.243944 0
M  V30 443 C 43.3718 0.700258 -2.92433 0
M  V30 444 C 44.9198 0.792659 -3.02797 0
M  V30 445 C 45.3948 0.928005 -4.485 0
M  V30 446 N 46.8858 0.992903 -4.52433 0
M  V30 447 C 47.6208 1.11687 -5.62418 0
M  V30 448 N 47.1168 1.20645 -6.82214 0
M  V30 449 N 48.9098 1.14994 -5.50212 0
M  V30 450 H 41.0608 -0.597109 -2.03834 0
M  V30 451 H 43.3238 -0.205925 -0.925364 0
M  V30 452 H 43.0298 -0.175658 -3.51261 0
M  V30 453 H 42.9038 1.57255 -3.42857 0
M  V30 454 H 45.2908 1.65903 -2.4405 0
M  V30 455 H 45.3718 -0.104762 -2.55585 0
M  V30 456 H 45.0158 0.0661971 -5.07857 0
M  V30 457 H 44.9458 1.84045 -4.93391 0
M  V30 458 H 47.4368 0.935064 -3.66149 0
M  V30 459 H 47.7498 1.30008 -7.61786 0
M  V30 460 H 46.0948 1.17605 -6.84977 0
M  V30 461 H 49.2858 1.07643 -4.55555 0
M  V30 462 H 49.4588 1.24311 -6.35965 0
M  V30 463 N 42.8649 1.48995 0.513639 0
M  V30 464 C 44.1119 1.57843 1.26854 0
M  V30 465 C 44.4399 0.259501 1.92761 0
M  V30 466 O 43.6949 -0.75159 1.80692 0
M  V30 467 C 43.9939 2.67756 2.36731 0
M  V30 468 C 43.6599 4.09669 1.88368 0
M  V30 469 C 42.3219 4.48291 1.74896 0
M  V30 470 C 44.6739 4.98537 1.52021 0
M  V30 471 C 42.0019 5.73568 1.23438 0
M  V30 472 C 44.3539 6.24319 1.0202 0
M  V30 473 C 43.0179 6.61783 0.871778 0
M  V30 474 H 42.2879 0.577587 0.464192 0
M  V30 475 H 44.9349 1.82778 0.571366 0
M  V30 476 H 43.2399 2.36743 3.12185 0
M  V30 477 H 44.9369 2.71813 2.9482 0
M  V30 478 H 41.5269 3.79176 1.99808 0
M  V30 479 H 45.7109 4.69363 1.61281 0
M  V30 480 H 40.9669 6.01304 1.10648 0
M  V30 481 H 45.1409 6.92566 0.729722 0
M  V30 482 H 42.7679 7.5874 0.470852 0
M  V30 483 N 44.343 -0.763751 1.37857 0
M  V30 484 C 45.754 -1.3405 1.29952 0
M  V30 485 C 46.105 -1.96138 -0.0492898 0
M  V30 486 O 45.23 -1.94372 -0.951239 0
M  V30 487 C 45.825 -2.43729 2.35333 0
M  V30 488 C 44.384 -2.97151 2.31037 0
M  V30 489 C 43.531 -1.70438 2.18738 0
M  V30 490 H 46.482 -0.563396 1.48363 0
M  V30 491 H 46.503 -3.23412 2.00462 0
M  V30 492 H 46.015 -1.9851 3.33489 0
M  V30 493 H 44.116 -3.46724 1.3643 0
M  V30 494 H 44.229 -3.52221 3.24772 0
M  V30 495 H 42.593 -1.93673 1.65418 0
M  V30 496 H 43.376 -1.27312 3.18821 0
M  V30 497 N 45.8211 -1.22559 -0.990812 0
M  V30 498 C 47.2321 -1.04791 -1.54518 0
M  V30 499 C 47.5831 0.387998 -1.92325 0
M  V30 500 O 46.7081 1.27328 -1.74976 0
M  V30 501 C 47.3031 -1.896 -2.80779 0
M  V30 502 C 45.8621 -1.76124 -3.32652 0
M  V30 503 C 45.0091 -1.8594 -2.05722 0
M  V30 504 H 47.9601 -1.36374 -0.811662 0
M  V30 505 H 47.9811 -1.41464 -3.53225 0
M  V30 506 H 47.4931 -2.94101 -2.53231 0
M  V30 507 H 45.5941 -0.743643 -3.65104 0
M  V30 508 H 45.7071 -2.58913 -4.03114 0
M  V30 509 H 44.0711 -1.29403 -2.19379 0
M  V30 510 H 44.8541 -2.91976 -1.80568 0
M  V30 511 N 47.2992 1.18797 -1.03562 0
M  V30 512 C 48.7152 1.40671 -0.753917 0
M  V30 513 C 48.9152 1.9043 0.658686 0
M  V30 514 O 47.9712 2.08538 1.42366 0
M  V30 515 C 49.2842 2.41192 -1.79574 0
M  V30 516 C 50.8322 2.54928 -1.81606 0
M  V30 517 C 51.3072 3.58709 -2.84766 0
M  V30 518 N 52.7982 3.66212 -2.83625 0
M  V30 519 C 53.5332 4.46225 -3.60098 0
M  V30 520 N 53.0292 5.29888 -4.46308 0
M  V30 521 N 54.8222 4.40939 -3.4861 0
M  V30 522 H 46.9732 0.848221 -1.94728 0
M  V30 523 H 49.2362 0.435081 -0.842264 0
M  V30 524 H 48.9422 2.11669 -2.80872 0
M  V30 525 H 48.8162 3.40467 -1.62365 0
M  V30 526 H 51.2032 2.83771 -0.809817 0
M  V30 527 H 51.2842 1.55784 -2.02891 0
M  V30 528 H 50.9282 3.30607 -3.85566 0
M  V30 529 H 50.8582 4.57519 -2.60737 0
M  V30 530 H 53.3492 3.06466 -2.21105 0
M  V30 531 H 53.6622 5.88078 -5.01382 0
M  V30 532 H 52.0072 5.29326 -4.50377 0
M  V30 533 H 55.1982 3.74624 -2.80668 0
M  V30 534 H 55.3712 5.03056 -4.08459 0
M  V30 535 N 48.7773 0.814389 1.34928 0
M  V30 536 C 50.0233 0.399013 1.98836 0
M  V30 537 C 50.3563 -1.03314 1.64438 0
M  V30 538 O 49.6313 -1.71811 0.911659 0
M  V30 539 C 49.9143 0.591629 3.55207 0
M  V30 540 C 49.7673 2.06928 3.99376 0
M  V30 541 C 51.0863 0.022199 4.40094 0
M  V30 542 H 48.2053 0.146451 0.722303 0
M  V30 543 H 50.8473 1.02537 1.59957 0
M  V30 544 H 48.9973 0.0584441 3.88456 0
M  V30 545 H 50.6693 2.66544 3.76499 0
M  V30 546 H 48.9123 2.56287 3.49999 0
M  V30 547 H 49.5833 2.1549 5.08201 0
M  V30 548 H 52.0593 0.477643 4.13349 0
M  V30 549 H 50.9353 0.186832 5.48582 0
M  V30 550 H 51.1963 -1.07215 4.28902 0
M  V30 551 N 50.2554 -1.46986 0.568584 0
M  V30 552 C 51.6664 -1.86188 0.138219 0
M  V30 553 C 52.0174 -1.47388 -1.29504 0
M  V30 554 O 51.1424 -0.88219 -1.97602 0
M  V30 555 C 51.7374 -3.3792 0.244065 0
M  V30 556 C 50.2964 -3.76171 -0.131335 0
M  V30 557 C 49.4434 -2.71027 0.586465 0
M  V30 558 H 52.3944 -1.38342 0.777645 0
M  V30 559 H 52.4154 -3.76729 -0.534351 0
M  V30 560 H 51.9274 -3.66128 1.28731 0
M  V30 561 H 50.0284 -3.5358 -1.17526 0
M  V30 562 H 50.1414 -4.78523 0.235146 0
M  V30 563 H 48.5054 -2.54684 0.0282722 0
M  V30 564 H 49.2884 -3.02077 1.63109 0
M  V30 565 N 51.7335 -0.305618 -1.54608 0
M  V30 566 C 52.6805 0.568421 -2.23691 0
M  V30 567 C 53.6505 1.12592 -1.22116 0
M  V30 568 O 54.8355 1.16959 -1.50749 0
M  V30 569 C 51.9755 1.7322 -2.98477 0
M  V30 570 C 51.0885 1.20566 -4.14835 0
M  V30 571 C 50.2235 2.33368 -4.77193 0
M  V30 572 C 49.2625 1.7787 -5.85686 0
M  V30 573 N 48.3995 2.84263 -6.4198 0
M  V30 574 H 53.2395 -0.0272867 -2.97988 0
M  V30 575 H 50.7765 -0.0252363 -1.47078 0
M  V30 576 H 52.7345 2.41675 -3.40072 0
M  V30 577 H 51.3645 2.29947 -2.26548 0
M  V30 578 H 50.4165 0.413223 -3.78149 0
M  V30 579 H 51.7285 0.759417 -4.92985 0
M  V30 580 H 50.8825 3.09761 -5.21664 0
M  V30 581 H 49.6215 2.8132 -3.98385 0
M  V30 582 H 48.6265 0.99968 -5.40635 0
M  V30 583 H 49.8515 1.30816 -6.66381 0
M  V30 584 H 47.7975 3.31541 -5.66053 0
M  V30 585 H 47.7145 2.44149 -7.15491 0
M  V30 586 H 48.9825 3.6054 -6.91109 0
M  V30 587 N 53.2116 1.57565 -0.0334293 0
M  V30 588 C 54.4366 1.96689 0.657895 0
M  V30 589 C 54.8616 0.910057 1.64619 0
M  V30 590 O 54.2196 -0.128598 1.80843 0
M  V30 591 C 54.2676 3.34905 1.33683 0
M  V30 592 O 53.3716 3.31574 2.45219 0
M  V30 593 H 52.7126 0.641205 0.172489 0
M  V30 594 H 55.2426 2.04372 -0.0965621 0
M  V30 595 H 55.2526 3.71234 1.69262 0
M  V30 596 H 53.9276 4.11366 0.612411 0
M  V30 597 H 52.5046 3.06968 2.11719 0
M  V30 598 N 54.6897 -0.239769 1.55765 0
M  V30 599 C 55.9367 -0.966801 1.7793 0
M  V30 600 C 56.2647 -1.85046 0.599015 0
M  V30 601 O 55.5197 -1.91197 -0.417395 0
M  V30 602 C 55.8187 -1.852 3.05672 0
M  V30 603 C 55.4847 -1.1231 4.36689 0
M  V30 604 C 54.1467 -0.921689 4.72291 0
M  V30 605 C 56.4987 -0.607019 5.17653 0
M  V30 606 C 53.8267 -0.191996 5.86386 0
M  V30 607 C 56.1787 0.109241 6.32506 0
M  V30 608 C 54.8427 0.322073 6.66723 0
M  V30 609 H 54.1127 -0.353778 0.651093 0
M  V30 610 H 56.7597 -0.23634 1.90036 0
M  V30 611 H 55.0647 -2.64975 2.8861 0
M  V30 612 H 56.7617 -2.41635 3.20021 0
M  V30 613 H 53.3517 -1.29004 4.08725 0
M  V30 614 H 57.5357 -0.750153 4.90598 0
M  V30 615 H 52.7917 -0.0166949 6.11398 0
M  V30 616 H 56.9657 0.516737 6.9448 0
M  V30 617 H 54.5927 0.88944 7.54979 0
M  V30 618 N 56.1678 -1.49265 -0.50573 0
M  V30 619 C 57.5788 -1.51769 -1.08734 0
M  V30 620 C 57.9298 -0.301192 -1.93874 0
M  V30 621 O 57.0548 0.589456 -2.08217 0
M  V30 622 C 57.6498 -2.75017 -1.97867 0
M  V30 623 C 56.2088 -2.80314 -2.51199 0
M  V30 624 C 55.3558 -2.4562 -1.28709 0
M  V30 625 H 58.3068 -1.56031 -0.289855 0
M  V30 626 H 58.3278 -2.5491 -2.82491 0
M  V30 627 H 57.8398 -3.63539 -1.35873 0
M  V30 628 H 55.9408 -1.96061 -3.16845 0
M  V30 629 H 56.0538 -3.82366 -2.88675 0
M  V30 630 H 54.4178 -1.97297 -1.61078 0
M  V30 631 H 55.2008 -3.36411 -0.6843 0
M  V30 632 N 57.6459 0.756429 -1.3826 0
M  V30 633 C 58.8929 1.51547 -1.34312 0
M  V30 634 C 59.2209 1.94382 0.0677144 0
M  V30 635 O 58.4759 1.65514 1.04421 0
M  V30 636 C 58.7749 2.78313 -2.24224 0
M  V30 637 C 58.4409 2.54455 -3.72241 0
M  V30 638 C 57.1029 2.47657 -4.12576 0
M  V30 639 C 59.4549 2.3354 -4.65949 0
M  V30 640 C 56.7829 2.17956 -5.44713 0
M  V30 641 C 59.1349 2.05359 -5.9834 0
M  V30 642 C 57.7989 1.97016 -6.37762 0
M  V30 643 H 57.0689 0.55455 -0.491482 0
M  V30 644 H 59.7159 0.870039 -1.70595 0
M  V30 645 H 58.0209 3.47492 -1.80987 0
M  V30 646 H 59.7179 3.36259 -2.18474 0
M  V30 647 H 56.3079 2.60616 -3.40261 0
M  V30 648 H 60.4919 2.37772 -4.35635 0
M  V30 649 H 55.7479 2.10003 -5.74203 0
M  V30 650 H 59.9219 1.88179 -6.70494 0
M  V30 651 H 57.5489 1.73766 -7.40074 0
M  V30 652 N 59.124 1.23083 0.984299 0
M  V30 653 C 60.072 1.00593 2.09723 0
M  V30 654 C 61.066 -0.0538014 1.69315 0
M  V30 655 O 62.272 0.0993719 1.79725 0
M  V30 656 H 58.647 0.30817 0.685956 0
M  V30 657 H 60.618 1.95012 2.2586 0
M  V30 658 C 59.367 0.609601 3.42314 0
M  V30 659 H 58.69 1.41675 3.73856 0
M  V30 660 H 60.13 0.491726 4.21139 0
M  V30 661 C 58.589 -0.681745 3.2993 0
M  V30 662 O 59.119 -1.73192 3.62446 0
M  V30 663 N 57.325 -0.656178 2.83095 0
M  V30 664 H 56.872 0.198759 2.56832 0
M  V30 665 H 56.83 -1.52044 2.75191 0
M  V30 666 N 60.6021 -1.18246 1.0419 0
M  V30 667 C 61.8301 -1.92195 0.766072 0
M  V30 668 C 62.2451 -1.76247 -0.676933 0
M  V30 669 O 61.6021 -1.09293 -1.46155 0
M  V30 670 C 61.6531 -3.43568 1.12442 0
M  V30 671 O 61.3741 -3.59015 2.51078 0
M  V30 672 C 62.8751 -4.34613 0.873275 0
M  V30 673 H 60.0951 -0.610114 0.279288 0
M  V30 674 H 62.6391 -1.50007 1.38989 0
M  V30 675 H 60.7941 -3.8354 0.545542 0
M  V30 676 H 61.2081 -4.5273 2.64831 0
M  V30 677 H 62.6821 -5.39374 1.17385 0
M  V30 678 H 63.1591 -4.38781 -0.191909 0
M  V30 679 H 63.7651 -4.00341 1.43551 0
M  V30 680 N 62.0802 -0.821533 -1.34494 0
M  V30 681 C 63.3052 -0.420873 -2.03085 0
M  V30 682 C 63.7302 0.964915 -1.61465 0
M  V30 683 O 63.0882 1.62763 -0.798607 0
M  V30 684 C 63.1362 -0.529414 -3.56693 0
M  V30 685 O 62.2402 0.451302 -4.09923 0
M  V30 686 H 61.5812 -0.173489 -0.640935 0
M  V30 687 H 64.1112 -1.11157 -1.71771 0
M  V30 688 H 64.1212 -0.404671 -4.05988 0
M  V30 689 H 62.7962 -1.54014 -3.86332 0
M  V30 690 H 61.3732 0.285558 -3.71805 0
M  V30 691 N 63.5583 1.46682 -0.576371 0
M  V30 692 C 64.8043 2.02712 -0.0596221 0
M  V30 693 C 65.1373 1.44765 1.29448 0
M  V30 694 O 64.4123 0.610355 1.84675 0
M  V30 695 C 64.6953 3.60098 0.0129503 0
M  V30 696 C 64.5483 4.28441 -1.3696 0
M  V30 697 C 65.8673 4.34224 0.71678 0
M  V30 698 H 62.9863 0.736637 -0.0231407 0
M  V30 699 H 65.6283 1.74898 -0.742351 0
M  V30 700 H 63.7783 3.83926 0.594378 0
M  V30 701 H 65.4503 4.15896 -1.9957 0
M  V30 702 H 63.6933 3.8805 -1.93907 0
M  V30 703 H 64.3643 5.3716 -1.27135 0
M  V30 704 H 66.8403 4.15503 0.222908 0
M  V30 705 H 65.7163 5.43936 0.73657 0
M  V30 706 H 65.9773 4.04823 1.77682 0
M  V30 707 N 65.0364 0.313813 1.54444 0
M  V30 708 C 66.2824 -0.292108 2.00685 0
M  V30 709 C 66.6154 -1.52548 1.20177 0
M  V30 710 O 65.8904 -1.92452 0.281531 0
M  V30 711 C 66.1734 -0.635968 3.5444 0
M  V30 712 C 66.0264 0.607437 4.4568 0
M  V30 713 C 67.3454 -1.45747 4.15266 0
M  V30 714 H 64.4644 -0.104697 0.729526 0
M  V30 715 H 67.1064 0.428457 1.85106 0
M  V30 716 H 65.2564 -1.24986 3.67846 0
M  V30 717 H 66.9284 1.24581 4.44159 0
M  V30 718 H 65.1714 1.23822 4.15753 0
M  V30 719 H 65.8424 0.322515 5.51057 0
M  V30 720 H 68.3184 -0.938645 4.05375 0
M  V30 721 H 67.1944 -1.66683 5.2298 0
M  V30 722 H 67.4554 -2.45063 3.67963 0
M  V30 723 N 66.5145 -1.57545 0.0417849 0
M  V30 724 C 67.7445 -1.96339 -0.642995 0
M  V30 725 C 68.1525 -0.917536 -1.65463 0
M  V30 726 O 67.4955 0.107747 -1.83384 0
M  V30 727 C 67.5575 -3.31333 -1.39494 0
M  V30 728 C 67.2215 -4.53796 -0.540204 0
M  V30 729 C 68.2185 -5.19553 0.189806 0
M  V30 730 C 65.9035 -5.0006 -0.473886 0
M  V30 731 C 67.8975 -6.29904 0.974674 0
M  V30 732 C 65.5845 -6.10289 0.314677 0
M  V30 733 C 66.5825 -6.75072 1.03765 0
M  V30 734 O 66.2705 -7.83183 1.81327 0
M  V30 735 H 66.0025 -0.651241 -0.181277 0
M  V30 736 H 68.5565 -2.05148 0.101665 0
M  V30 737 H 66.7865 -3.19052 -2.18502 0
M  V30 738 H 68.4755 -3.54942 -1.96904 0
M  V30 739 H 69.2415 -4.84774 0.147981 0
M  V30 740 H 65.1205 -4.49433 -1.0262 0
M  V30 741 H 68.6645 -6.80401 1.5395 0
M  V30 742 H 64.5615 -6.44506 0.358174 0
M  V30 743 H 65.3295 -7.99913 1.73438 0
M  V30 744 N 67.9926 0.231505 -1.5589 0
M  V30 745 C 68.9396 1.28682 -1.91598 0
M  V30 746 C 69.9096 1.47071 -0.771974 0
M  V30 747 O 71.0946 1.60802 -1.027 0
M  V30 748 C 68.2346 2.6342 -2.22944 0
M  V30 749 C 67.3476 2.52912 -3.50228 0
M  V30 750 C 66.4826 3.80106 -3.7107 0
M  V30 751 C 65.5216 3.64279 -4.91902 0
M  V30 752 N 64.6586 4.834 -5.09184 0
M  V30 753 H 69.4986 0.975305 -2.81588 0
M  V30 754 H 67.0356 0.470299 -1.39379 0
M  V30 755 H 68.9936 3.41869 -2.39126 0
M  V30 756 H 67.6236 2.92687 -1.36139 0
M  V30 757 H 66.6756 1.6595 -3.42294 0
M  V30 758 H 67.9876 2.37133 -4.38827 0
M  V30 759 H 67.1416 4.66999 -3.87295 0
M  V30 760 H 65.8806 3.98799 -2.80733 0
M  V30 761 H 64.8856 2.7577 -4.75637 0
M  V30 762 H 66.1106 3.47067 -5.83714 0
M  V30 763 H 64.0566 5.02425 -4.21788 0
M  V30 764 H 63.9736 4.70311 -5.91898 0
M  V30 765 H 65.2416 5.71747 -5.29835 0
M  V30 766 N 69.4707 1.49531 0.497807 0
M  V30 767 C 70.4177 1.66436 1.59899 0
M  V30 768 C 71.3877 0.505793 1.58212 0
M  V30 769 O 72.5727 0.733202 1.7615 0
M  V30 770 C 69.7127 1.7399 2.98029 0
M  V30 771 C 68.8257 3.01172 3.09708 0
M  V30 772 C 67.9607 2.99686 4.38591 0
M  V30 773 C 66.9997 4.21434 4.43914 0
M  V30 774 N 66.1367 4.1784 5.64229 0
M  V30 775 H 70.9767 2.60459 1.44793 0
M  V30 776 H 68.5137 1.29137 0.704423 0
M  V30 777 H 70.4717 1.76352 3.78095 0
M  V30 778 H 69.1017 0.834301 3.11832 0
M  V30 779 H 68.1537 3.08408 2.22685 0
M  V30 780 H 69.4657 3.91165 3.09502 0
M  V30 781 H 68.6197 3.00628 5.2698 0
M  V30 782 H 67.3587 2.07477 4.41367 0
M  V30 783 H 66.3637 4.20733 3.53926 0
M  V30 784 H 67.5887 5.14839 4.42851 0
M  V30 785 H 65.5347 3.28469 5.67841 0
M  V30 786 H 65.4517 5.01571 5.65652 0
M  V30 787 H 66.7197 4.22889 6.54817 0
M  V30 788 N 70.9488 -0.749086 1.3866 0
M  V30 789 C 72.1768 -1.53834 1.38358 0
M  V30 790 C 72.5918 -1.88783 -0.0255219 0
M  V30 791 O 71.9488 -1.53101 -0.993292 0
M  V30 792 C 71.9998 -2.83468 2.2434 0
M  V30 793 O 71.7208 -2.50008 3.5976 0
M  V30 794 C 73.2218 -3.7758 2.32267 0
M  V30 795 H 70.4418 -0.47585 0.473083 0
M  V30 796 H 72.9858 -0.926726 1.82297 0
M  V30 797 H 71.1408 -3.40995 1.83851 0
M  V30 798 H 71.5548 -3.33182 4.05081 0
M  V30 799 H 73.0288 -4.65478 2.96706 0
M  V30 800 H 73.5058 -4.18334 1.33765 0
M  V30 801 H 74.1118 -3.25976 2.73166 0
M  V30 802 N 72.4269 -1.23603 -0.977757 0
M  V30 803 C 73.3569 -1.04401 -2.0886 0
M  V30 804 C 74.3379 0.0399052 -1.70053 0
M  V30 805 O 75.5229 -0.125246 -1.93796 0
M  V30 806 C 72.6529 -0.637269 -3.41403 0
M  V30 807 C 71.6069 -1.66883 -3.94124 0
M  V30 808 C 70.9329 -1.11745 -5.22893 0
M  V30 809 C 72.2329 -3.06247 -4.23096 0
M  V30 810 H 73.9269 -1.97316 -2.25182 0
M  V30 811 H 71.4729 -0.950096 -1.08209 0
M  V30 812 H 73.4259 -0.48998 -4.18542 0
M  V30 813 H 72.1499 0.327557 -3.24953 0
M  V30 814 H 70.8089 -1.80416 -3.19133 0
M  V30 815 H 70.4569 -0.143527 -5.02795 0
M  V30 816 H 70.1569 -1.80672 -5.59134 0
M  V30 817 H 71.6809 -0.982067 -6.02651 0
M  V30 818 H 73.0949 -2.96001 -4.90975 0
M  V30 819 H 71.4919 -3.72436 -4.70544 0
M  V30 820 H 72.5619 -3.55041 -3.30263 0
M  V30 821 N 73.905 1.17692 -1.04816 0
M  V30 822 C 75.152 1.87859 -0.75599 0
M  V30 823 C 75.48 1.80812 0.716752 0
M  V30 824 O 74.735 1.20819 1.53952 0
M  V30 825 C 75.034 3.37462 -1.17703 0
M  V30 826 C 74.7 3.64713 -2.65133 0
M  V30 827 C 73.362 3.71859 -3.05408 0
M  V30 828 C 75.714 3.76492 -3.60421 0
M  V30 829 C 73.042 3.88271 -4.39843 0
M  V30 830 C 75.394 3.94421 -4.94585 0
M  V30 831 C 74.058 3.99806 -5.3452 0
M  V30 832 H 73.328 0.687425 -0.276636 0
M  V30 833 H 75.975 1.39255 -1.31455 0
M  V30 834 H 74.28 3.88097 -0.537395 0
M  V30 835 H 75.977 3.90109 -0.928218 0
M  V30 836 H 72.567 3.59772 -2.32942 0
M  V30 837 H 76.751 3.70295 -3.30447 0
M  V30 838 H 72.007 3.90687 -4.70291 0
M  V30 839 H 76.181 4.02477 -5.68318 0
M  V30 840 H 73.808 4.12276 -6.38696 0
M  V30 841 N 75.3831 0.828654 1.34056 0
M  V30 842 C 76.6291 0.42008 1.98402 0
M  V30 843 C 76.9621 -1.01564 1.65525 0
M  V30 844 O 76.2371 -1.70834 0.929831 0
M  V30 845 C 76.5201 0.62927 3.54559 0
M  V30 846 C 76.3731 2.11152 3.97159 0
M  V30 847 C 77.6921 0.0688756 4.40046 0
M  V30 848 H 74.8111 0.154104 0.720709 0
M  V30 849 H 77.4531 1.04228 1.5886 0
M  V30 850 H 75.6031 0.0996418 3.88372 0
M  V30 851 H 77.2751 2.70522 3.73651 0
M  V30 852 H 75.5181 2.59985 3.47261 0
M  V30 853 H 76.1891 2.20868 5.05887 0
M  V30 854 H 78.6651 0.521458 4.1282 0
M  V30 855 H 77.5411 0.245006 5.48353 0
M  V30 856 H 77.8021 -1.0266 4.30015 0
M  V30 857 N 76.8612 -1.46375 0.584142 0
M  V30 858 C 77.7712 -2.34115 -0.150728 0
M  V30 859 C 78.7872 -1.49838 -0.884567 0
M  V30 860 O 79.9632 -1.82704 -0.847429 0
M  V30 861 C 77.0282 -3.2705 -1.15062 0
M  V30 862 C 76.0892 -4.27228 -0.421293 0
M  V30 863 C 75.3222 -5.15722 -1.37355 0
M  V30 864 O 75.5452 -5.07176 -2.61014 0
M  V30 865 O 74.4792 -5.95383 -0.883355 0
M  V30 866 H 78.3052 -2.98309 0.569708 0
M  V30 867 H 75.8902 -1.45373 0.344535 0
M  V30 868 H 77.7722 -3.84381 -1.72712 0
M  V30 869 H 76.4472 -2.65451 -1.8525 0
M  V30 870 H 75.3542 -3.7358 0.197085 0
M  V30 871 H 76.6872 -4.91616 0.239641 0
M  V30 872 N 78.3393 -0.321999 -1.54275 0
M  V30 873 C 79.5863 0.281044 -2.0054 0
M  V30 874 C 79.9143 1.52265 -1.21019 0
M  V30 875 O 79.1693 1.93687 -0.279982 0
M  V30 876 C 79.4683 0.661769 -3.5122 0
M  V30 877 C 79.1343 -0.480482 -4.48333 0
M  V30 878 C 77.7963 -0.794005 -4.74604 0
M  V30 879 C 80.1483 -1.24783 -5.06042 0
M  V30 880 C 77.4763 -1.87763 -5.55844 0
M  V30 881 C 79.8283 -2.32153 -5.88462 0
M  V30 882 C 78.4923 -2.64089 -6.13036 0
M  V30 883 H 77.7623 0.102841 -0.733829 0
M  V30 884 H 80.4093 -0.445453 -1.86247 0
M  V30 885 H 78.7143 1.46867 -3.63232 0
M  V30 886 H 80.4113 1.13989 -3.84457 0
M  V30 887 H 77.0013 -0.226039 -4.28004 0
M  V30 888 H 81.1853 -1.01887 -4.85729 0
M  V30 889 H 76.4413 -2.12954 -5.73115 0
M  V30 890 H 80.6153 -2.92057 -6.32199 0
M  V30 891 H 78.2423 -3.48185 -6.75775 0
M  V30 892 N 79.8174 1.5752 -0.0501392 0
M  V30 893 C 81.0454 1.96963 0.633492 0
M  V30 894 C 81.4604 0.927631 1.6444 0
M  V30 895 O 80.8174 -0.0882665 1.82286 0
M  V30 896 C 80.8684 3.36487 1.32132 0
M  V30 897 O 80.5894 4.36693 0.350894 0
M  V30 898 C 82.0904 3.90682 2.09481 0
M  V30 899 H 79.3104 0.648244 0.173266 0
M  V30 900 H 81.8544 2.0417 -0.116134 0
M  V30 901 H 80.0094 3.30434 2.02218 0
M  V30 902 H 80.4234 5.17702 0.841735 0
M  V30 903 H 81.8974 4.90591 2.5303 0
M  V30 904 H 82.3744 3.26053 2.94255 0
M  V30 905 H 82.9804 4.00069 1.44307 0
M  V30 906 N 81.2955 -0.223234 1.56011 0
M  V30 907 C 82.5725 -0.972108 1.69733 0
M  V30 908 C 82.9525 -2.02485 0.59691 0
M  V30 909 O 82.3005 -2.25037 -0.396324 0
M  V30 910 C 82.5105 -1.58407 3.10979 0
M  V30 911 C 83.8585 -2.07696 3.70334 0
M  V30 912 O 84.8825 -1.68304 3.1393 0
M  V30 913 O 83.7415 -2.80096 4.69264 0
M  V30 914 H 80.8355 -0.453993 0.691245 0
M  V30 915 H 83.3815 -0.215149 1.68331 0
M  V30 916 H 82.1535 -0.823831 3.82529 0
M  V30 917 H 81.7765 -2.40661 3.16493 0
M  V30 918 N 82.7736 -1.49793 -0.48987 0
M  V30 919 C 83.7236 -1.63673 -1.5873 0
M  V30 920 C 84.7076 -0.491956 -1.53195 0
M  V30 921 O 85.8996 -0.745461 -1.60536 0
M  V30 922 C 83.0286 -1.71689 -2.97284 0
M  V30 923 C 82.1146 -2.91781 -3.07774 0
M  V30 924 N 82.5056 -4.15714 -2.88124 0
M  V30 925 C 80.8036 -2.89949 -3.38889 0
M  V30 926 C 81.5046 -4.965 -3.03088 0
M  V30 927 N 80.4806 -4.30083 -3.3246 0
M  V30 928 H 84.2826 -2.57204 -1.42208 0
M  V30 929 H 81.7966 -1.46719 -0.69623 0
M  V30 930 H 83.7936 -1.79732 -3.76168 0
M  V30 931 H 82.4536 -0.793024 -3.14867 0
M  V30 932 H 83.4646 -4.45515 -2.64077 0
M  V30 933 H 80.1416 -2.06987 -3.62578 0
M  V30 934 H 81.5316 -6.04991 -2.92294 0
M  V30 935 N 84.2517 0.741722 -1.39055 0
M  V30 936 C 85.1817 1.869 -1.39966 0
M  V30 937 C 86.1627 1.6804 -0.26392 0
M  V30 938 O 87.3477 1.88458 -0.468755 0
M  V30 939 C 84.4777 3.24572 -1.23574 0
M  V30 940 C 83.4317 3.58056 -2.34477 0
M  V30 941 C 82.7577 4.94593 -2.0318 0
M  V30 942 C 84.0577 3.61716 -3.76774 0
M  V30 943 H 85.7517 1.86395 -2.34302 0
M  V30 944 H 83.2977 0.895361 -1.1278 0
M  V30 945 H 85.2507 4.031 -1.22834 0
M  V30 946 H 83.9747 3.25587 -0.257045 0
M  V30 947 H 82.6337 2.81854 -2.34423 0
M  V30 948 H 82.2817 4.92181 -1.03765 0
M  V30 949 H 81.9817 5.17964 -2.77465 0
M  V30 950 H 83.5057 5.75486 -2.04079 0
M  V30 951 H 84.9197 4.30335 -3.78794 0
M  V30 952 H 83.3167 3.96603 -4.50362 0
M  V30 953 H 84.3867 2.61672 -4.08235 0
M  V30 954 N 85.7298 1.2412 0.971189 0
M  V30 955 C 86.9768 1.07881 1.71371 0
M  V30 956 C 87.3048 -0.382901 1.90694 0
M  V30 957 O 86.5598 -1.29945 1.46331 0
M  V30 958 C 86.8588 1.75983 3.11071 0
M  V30 959 C 86.5248 3.25909 3.11599 0
M  V30 960 C 85.1868 3.66813 3.11451 0
M  V30 961 C 87.5388 4.21771 3.062 0
M  V30 962 C 84.8668 5.02021 3.03631 0
M  V30 963 C 87.2188 5.56982 2.99923 0
M  V30 964 C 85.8828 5.97237 2.98102 0
M  V30 965 H 85.1528 0.394764 0.62709 0
M  V30 966 H 87.7998 1.54176 1.13587 0
M  V30 967 H 86.1048 1.22072 3.72298 0
M  V30 968 H 87.8018 1.60887 3.6731 0
M  V30 969 H 84.3918 2.93353 3.12477 0
M  V30 970 H 88.5758 3.91172 3.05447 0
M  V30 971 H 83.8318 5.32411 3.0058 0
M  V30 972 H 88.0058 6.30969 2.94704 0
M  V30 973 H 85.6328 7.01967 2.91798 0
M  V30 974 N 87.2079 -1.17134 1.05439 0
M  V30 975 C 88.1559 -2.23289 0.651511 0
M  V30 976 C 89.1499 -1.66186 -0.328411 0
M  V30 977 O 90.3559 -1.78949 -0.194206 0
M  V30 978 H 86.7309 -0.726938 0.192523 0
M  V30 979 H 88.7019 -2.54565 1.55689 0
M  V30 980 C 87.4509 -3.47671 0.0448436 0
M  V30 981 H 86.7739 -3.91918 0.78996 0
M  V30 982 H 88.2139 -4.2353 -0.19964 0
M  V30 983 C 86.6729 -3.14453 -1.20918 0
M  V30 984 O 87.2029 -3.29459 -2.29825 0
M  V30 985 N 85.4089 -2.68657 -1.10779 0
M  V30 986 H 84.9559 -2.56646 -0.221526 0
M  V30 987 H 84.9139 -2.46804 -1.9477 0
M  V30 988 N 88.686 -0.835752 -1.33615 0
M  V30 989 C 89.935 -0.426289 -1.97144 0
M  V30 990 C 90.248 1.01912 -1.66953 0
M  V30 991 O 91.454 1.53311 -2.24072 0
M  V30 992 C 89.91 -0.711321 -3.52801 0
M  V30 993 C 89.518 -2.1712 -3.91871 0
M  V30 994 C 91.262 -0.368654 -4.22896 0
M  V30 995 C 89.169 -2.40044 -5.40493 0
M  V30 996 H 88.099 -0.15567 -0.737755 0
M  V30 997 H 90.75 -1.0239 -1.52278 0
M  V30 998 H 89.132 -0.0433766 -3.95976 0
M  V30 999 H 90.306 -2.87936 -3.59763 0
M  V30 1000 H 88.621 -2.47654 -3.34749 0
M  V30 1001 H 91.218 -0.517601 -5.32189 0
M  V30 1002 H 91.561 0.688078 -4.10574 0
M  V30 1003 H 92.094 -0.991702 -3.8524 0
M  V30 1004 H 88.833 -3.44271 -5.57815 0
M  V30 1005 H 88.353 -1.73785 -5.74072 0
M  V30 1006 H 90.032 -2.23042 -6.0734 0
M  V30 1007 N 90.1641 1.46063 -0.591896 0
M  V30 1008 C 91.1271 2.28854 0.125973 0
M  V30 1009 C 92.1271 1.38903 0.810107 0
M  V30 1010 O 93.3171 1.61186 0.66066 0
M  V30 1011 C 90.4491 3.19526 1.1881 0
M  V30 1012 H 91.6421 2.93802 -0.601717 0
M  V30 1013 H 89.1951 1.52325 -0.350254 0
M  V30 1014 H 89.9301 2.59345 1.94707 0
M  V30 1015 H 89.7151 3.85766 0.701936 0
M  V30 1016 H 91.2051 3.81817 1.69132 0
M  V30 1017 N 91.6422 0.330177 1.54103 0
M  V30 1018 C 92.5892 -0.532762 2.24567 0
M  V30 1019 C 93.5592 -1.10635 1.23892 0
M  V30 1020 O 94.7442 -1.14546 1.5259 0
M  V30 1021 C 91.8842 -1.6845 3.01195 0
M  V30 1022 C 90.9972 -1.13951 4.167 0
M  V30 1023 C 90.1322 -2.25746 4.80845 0
M  V30 1024 C 89.1712 -1.6853 5.88442 0
M  V30 1025 N 88.3082 -2.74014 6.46421 0
M  V30 1026 H 93.1482 0.0746905 2.97906 0
M  V30 1027 H 90.6852 0.048632 1.4702 0
M  V30 1028 H 92.6432 -2.36234 3.43874 0
M  V30 1029 H 91.2732 -2.26314 2.30178 0
M  V30 1030 H 90.3252 -0.35301 3.78758 0
M  V30 1031 H 91.6372 -0.680892 4.94131 0
M  V30 1032 H 90.7912 -3.01422 5.26526 0
M  V30 1033 H 89.5302 -2.74947 4.0281 0
M  V30 1034 H 88.5352 -0.913543 5.42157 0
M  V30 1035 H 89.7602 -1.20198 6.68378 0
M  V30 1036 H 87.7062 -3.22494 5.71256 0
M  V30 1037 H 87.6232 -2.32735 7.19285 0
M  V30 1038 H 88.8912 -3.49499 6.96757 0
M  V30 1039 N 93.1203 -1.57491 0.0584922 0
M  V30 1040 C 94.5313 -1.80526 -0.476138 0
M  V30 1041 C 94.8823 -0.971334 -1.70469 0
M  V30 1042 O 94.0073 -0.190012 -2.15564 0
M  V30 1043 C 94.6023 -3.27424 -0.870587 0
M  V30 1044 C 93.1613 -3.51351 -1.35015 0
M  V30 1045 C 92.3083 -2.75343 -0.32887 0
M  V30 1046 H 95.2593 -1.56133 0.284312 0
M  V30 1047 H 95.2803 -3.38745 -1.73299 0
M  V30 1048 H 94.7923 -3.88093 0.0237627 0
M  V30 1049 H 92.8933 -2.95971 -2.26345 0
M  V30 1050 H 93.0063 -4.60059 -1.33726 0
M  V30 1051 H 91.3703 -2.417 -0.803321 0
M  V30 1052 H 92.1533 -3.38743 0.557521 0
M  V30 1053 N 94.5984 0.214957 -1.56127 0
M  V30 1054 C 96.0144 0.564948 -1.49267 0
M  V30 1055 C 96.2144 1.86827 -0.754838 0
M  V30 1056 O 95.2704 2.50745 -0.297198 0
M  V30 1057 C 96.5834 0.638071 -2.93852 0
M  V30 1058 C 98.1314 0.728253 -3.0441 0
M  V30 1059 C 98.6064 0.832663 -4.50367 0
M  V30 1060 N 100.097 0.896712 -4.54437 0
M  V30 1061 C 100.832 0.997324 -5.6466 0
M  V30 1062 N 100.328 1.06147 -6.8462 0
M  V30 1063 N 102.121 1.03297 -5.52527 0
M  V30 1064 H 94.2724 -0.640211 -2.02522 0
M  V30 1065 H 96.5354 -0.225507 -0.920788 0
M  V30 1066 H 96.2414 -0.250126 -3.50809 0
M  V30 1067 H 96.1154 1.49947 -3.46115 0
M  V30 1068 H 98.5024 1.60689 -2.47514 0
M  V30 1069 H 98.5834 -0.158952 -2.55306 0
M  V30 1070 H 98.2274 -0.0415417 -5.07883 0
M  V30 1071 H 98.1574 1.73538 -4.97184 0
M  V30 1072 H 100.648 0.857188 -3.6805 0
M  V30 1073 H 100.961 1.1382 -7.64372 0
M  V30 1074 H 99.3064 1.03049 -6.87318 0
M  V30 1075 H 102.497 0.979558 -4.57736 0
M  V30 1076 H 102.67 1.10793 -6.38458 0
M  V30 1077 N 96.0765 1.50051 0.48192 0
M  V30 1078 C 97.4875 1.5348 1.06305 0
M  V30 1079 C 97.8385 0.331997 1.93371 0
M  V30 1080 O 96.9635 -0.556256 2.09129 0
M  V30 1081 C 97.5585 2.7813 1.93466 0
M  V30 1082 C 96.1175 2.84275 2.46707 0
M  V30 1083 C 95.2645 2.47637 1.24785 0
M  V30 1084 H 98.2155 1.56472 0.264995 0
M  V30 1085 H 98.2365 2.59372 2.78399 0
M  V30 1086 H 97.7485 3.65654 1.30072 0
M  V30 1087 H 95.8495 2.01077 3.13686 0
M  V30 1088 H 95.9625 3.8691 2.82555 0
M  V30 1089 H 94.3265 1.99835 1.57918 0
M  V30 1090 H 95.1095 3.37457 0.630694 0
M  V30 1091 N 97.5546 -0.734337 1.39446 0
M  V30 1092 C 98.9656 -1.31264 1.32766 0
M  V30 1093 C 99.3166 -1.96198 -0.00767497 0
M  V30 1094 O 98.4416 -1.96346 -0.909796 0
M  V30 1095 C 99.0366 -2.38682 2.4045 0
M  V30 1096 C 97.5956 -2.92184 2.37288 0
M  V30 1097 C 96.7426 -1.6576 2.22304 0
M  V30 1098 H 99.6936 -0.531799 1.49525 0
M  V30 1099 H 99.7146 -3.19087 2.07276 0
M  V30 1100 H 99.2266 -1.91392 3.37625 0
M  V30 1101 H 97.3276 -3.43752 1.43754 0
M  V30 1102 H 97.4406 -3.45253 3.3217 0
M  V30 1103 H 95.8046 -1.9012 1.69489 0
M  V30 1104 H 96.5876 -1.20521 3.21449 0
M  V30 1105 N 99.0327 -1.24633 -0.964593 0
M  V30 1106 C 100.279 -1.09957 -1.71117 0
M  V30 1107 C 100.634 0.357422 -1.89051 0
M  V30 1108 O 99.9267 1.26029 -1.44317 0
M  V30 1109 C 100.121 -1.7763 -3.10133 0
M  V30 1110 C 99.9497 -3.29759 -3.05759 0
M  V30 1111 C 98.7197 -3.98981 -3.10068 0
M  V30 1112 C 100.918 -4.26305 -2.87695 0
M  V30 1113 N 98.8997 -5.37966 -2.95747 0
M  V30 1114 C 100.271 -5.52308 -2.81702 0
M  V30 1115 C 102.326 -4.16842 -2.72299 0
M  V30 1116 C 101.029 -6.69931 -2.61887 0
M  V30 1117 C 103.055 -5.34147 -2.53853 0
M  V30 1118 C 102.417 -6.59084 -2.48572 0
M  V30 1119 H 98.5157 -0.457003 -0.634564 0
M  V30 1120 H 101.1 -1.57592 -1.14337 0
M  V30 1121 H 99.2707 -1.32504 -3.65099 0
M  V30 1122 H 101.003 -1.55786 -3.73514 0
M  V30 1123 H 97.7577 -3.50169 -3.18871 0
M  V30 1124 H 98.1817 -6.10877 -2.91818 0
M  V30 1125 H 102.824 -3.21007 -2.75163 0
M  V30 1126 H 100.542 -7.65886 -2.57767 0
M  V30 1127 H 104.128 -5.28678 -2.4288 0
M  V30 1128 H 103.008 -7.48324 -2.34481 0
M  V30 1129 N 100.511 1.16574 -1.06058 0
M  V30 1130 C 101.444 2.19798 -0.61352 0
M  V30 1131 C 102.422 1.58509 0.362453 0
M  V30 1132 O 103.606 1.86527 0.271994 0
M  V30 1133 C 100.733 3.3855 0.100915 0
M  V30 1134 C 99.7788 4.18317 -0.831438 0
M  V30 1135 S 100.612 4.82375 -2.32539 0
M  V30 1136 C 101.768 6.04508 -1.62238 0
M  V30 1137 H 102.001 2.5738 -1.48805 0
M  V30 1138 H 99.5338 1.27327 -0.873338 0
M  V30 1139 H 101.492 4.07358 0.506898 0
M  V30 1140 H 100.153 2.99338 0.951604 0
M  V30 1141 H 99.3458 5.03232 -0.278071 0
M  V30 1142 H 98.9478 3.5499 -1.17719 0
M  V30 1143 H 101.24 6.71133 -0.926622 0
M  V30 1144 H 102.183 6.64389 -2.44934 0
M  V30 1145 H 102.591 5.53559 -1.106 0
M  V30 1146 N 101.989 0.842826 1.3317 0
M  V30 1147 C 103.237 0.439577 1.97262 0
M  V30 1148 C 103.558 -1.00548 1.67078 0
M  V30 1149 O 102.828 -1.70098 0.971779 0
M  V30 1150 H 101.408 0.159558 0.72976 0
M  V30 1151 H 104.07 1.07665 1.62463 0
M  V30 1152 H 103.166 0.574886 3.0676 0
M  V30 1153 N 103.467 -1.45747 0.599634 0
M  V30 1154 C 104.397 -2.33235 -0.111306 0
M  V30 1155 C 105.378 -1.46359 -0.866781 0
M  V30 1156 O 106.563 -1.75146 -0.838904 0
M  V30 1157 C 103.693 -3.28932 -1.11451 0
M  V30 1158 C 102.647 -4.25381 -0.472772 0
M  V30 1159 C 101.973 -5.1071 -1.58365 0
M  V30 1160 C 103.273 -5.18831 0.600948 0
M  V30 1161 H 104.967 -2.92927 0.61919 0
M  V30 1162 H 102.513 -1.40857 0.299215 0
M  V30 1163 H 104.466 -3.89002 -1.62036 0
M  V30 1164 H 103.19 -2.67381 -1.8755 0
M  V30 1165 H 101.849 -3.66598 0.0121472 0
M  V30 1166 H 101.497 -4.45533 -2.33473 0
M  V30 1167 H 101.197 -5.7604 -1.15982 0
M  V30 1168 H 102.721 -5.73647 -2.09194 0
M  V30 1169 H 104.135 -5.73019 0.179491 0
M  V30 1170 H 102.532 -5.92595 0.946076 0
M  V30 1171 H 103.602 -4.6174 1.48068 0
M  V30 1172 N 104.945 -0.338344 -1.53925 0
M  V30 1173 C 105.875 0.51328 -2.27789 0
M  V30 1174 C 106.856 1.107 -1.29149 0
M  V30 1175 O 108.041 1.12937 -1.57984 0
M  V30 1176 C 105.171 1.66697 -3.04679 0
M  V30 1177 C 104.125 1.20183 -4.1078 0
M  V30 1178 C 103.451 2.44363 -4.75595 0
M  V30 1179 C 104.751 0.30605 -5.21403 0
M  V30 1180 H 106.445 -0.102883 -2.99223 0
M  V30 1181 H 103.991 -0.0509219 -1.4391 0
M  V30 1182 H 105.944 2.26915 -3.55088 0
M  V30 1183 H 104.668 2.30995 -2.30887 0
M  V30 1184 H 103.327 0.622499 -3.61276 0
M  V30 1185 H 102.975 3.07057 -3.98403 0
M  V30 1186 H 102.675 2.13925 -5.47275 0
M  V30 1187 H 104.199 3.05317 -5.28786 0
M  V30 1188 H 105.613 0.814929 -5.67478 0
M  V30 1189 H 104.01 0.0937929 -6.00027 0
M  V30 1190 H 105.08 -0.65921 -4.80398 0
M  V30 1191 N 106.423 1.57458 -0.0668435 0
M  V30 1192 C 107.671 1.92919 0.602214 0
M  V30 1193 C 107.992 0.947215 1.70449 0
M  V30 1194 O 107.262 -0.00544117 1.95899 0
M  V30 1195 H 105.842 0.71217 0.22544 0
M  V30 1196 H 108.504 1.94508 -0.123535 0
M  V30 1197 H 107.6 2.94589 1.03073 0
M  V30 1198 N 107.901 -0.206675 1.56239 0
M  V30 1199 C 109.312 -0.772383 1.69974 0
M  V30 1200 C 109.663 -1.84353 0.671436 0
M  V30 1201 O 108.788 -2.15695 -0.174491 0
M  V30 1202 C 109.383 -1.40779 3.08167 0
M  V30 1203 C 107.942 -1.92072 3.23706 0
M  V30 1204 C 107.089 -0.786347 2.65917 0
M  V30 1205 H 110.04 0.0182223 1.5869 0
M  V30 1206 H 110.061 -2.27696 3.04852 0
M  V30 1207 H 109.573 -0.627958 3.82986 0
M  V30 1208 H 107.674 -2.7281 2.53782 0
M  V30 1209 H 107.787 -2.09046 4.31087 0
M  V30 1210 H 106.151 -1.1976 2.24788 0
M  V30 1211 H 106.934 -0.0189416 3.43295 0
M  V30 1212 N 109.379 -1.50304 -0.473955 0
M  V30 1213 C 110.607 -1.64902 -1.24959 0
M  V30 1214 C 111.022 -0.331198 -1.85872 0
M  V30 1215 O 110.379 0.68652 -1.69095 0
M  V30 1216 C 110.43 -2.73803 -2.36038 0
M  V30 1217 O 110.151 -4.00477 -1.77624 0
M  V30 1218 C 111.652 -2.99349 -3.26964 0
M  V30 1219 H 108.872 -0.554383 -0.378022 0
M  V30 1220 H 111.416 -1.9651 -0.566054 0
M  V30 1221 H 109.571 -2.44898 -3.00173 0
M  V30 1222 H 109.985 -4.60678 -2.5075 0
M  V30 1223 H 111.459 -3.79217 -4.01121 0
M  V30 1224 H 111.936 -2.10307 -3.85574 0
M  V30 1225 H 112.542 -3.29774 -2.68569 0
M  V30 1226 N 110.857 0.726932 -1.39834 0
M  V30 1227 C 112.106 1.48214 -1.36805 0
M  V30 1228 C 112.419 1.95576 0.0305291 0
M  V30 1229 O 113.625 2.7088 0.183417 0
M  V30 1230 C 112.081 2.67854 -2.40379 0
M  V30 1231 C 111.689 2.27408 -3.85992 0
M  V30 1232 C 113.433 3.45641 -2.46439 0
M  V30 1233 C 111.34 3.43819 -4.81189 0
M  V30 1234 H 110.27 0.556606 -0.508631 0
M  V30 1235 H 112.921 0.792216 -1.65518 0
M  V30 1236 H 111.303 3.3896 -2.04749 0
M  V30 1237 H 112.477 1.63795 -4.30706 0
M  V30 1238 H 110.792 1.62692 -3.83302 0
M  V30 1239 H 113.389 4.32244 -3.14753 0
M  V30 1240 H 113.732 3.88669 -1.49139 0
M  V30 1241 H 114.265 2.8157 -2.81004 0
M  V30 1242 H 111.004 3.05834 -5.79781 0
M  V30 1243 H 110.524 4.06385 -4.41148 0
M  V30 1244 H 112.203 4.10043 -5.00474 0
M  V30 1245 N 112.336 1.25143 0.95797 0
M  V30 1246 C 113.268 1.01023 2.05735 0
M  V30 1247 C 114.281 -0.0236902 1.62783 0
M  V30 1248 O 115.47 0.21448 1.77207 0
M  V30 1249 C 112.57 0.504595 3.35122 0
M  V30 1250 C 111.743 1.6039 4.06932 0
M  V30 1251 C 110.802 1.09922 5.14591 0
M  V30 1252 O 109.828 1.79293 5.40225 0
M  V30 1253 N 111.03 -0.0612545 5.80468 0
M  V30 1254 H 113.795 1.95683 2.26998 0
M  V30 1255 H 111.356 1.16303 1.12629 0
M  V30 1256 H 113.348 0.151516 4.04416 0
M  V30 1257 H 111.918 -0.347989 3.10657 0
M  V30 1258 H 111.138 2.12872 3.31782 0
M  V30 1259 H 112.426 2.34252 4.51667 0
M  V30 1260 H 111.824 -0.640985 5.62057 0
M  V30 1261 H 110.381 -0.355395 6.5083 0
M  V30 1262 N 113.814 -1.1601 1.06675 0
M  V30 1263 C 114.777 -2.18724 0.685001 0
M  V30 1264 C 115.777 -1.58496 -0.271246 0
M  V30 1265 O 116.967 -1.74119 -0.0531156 0
M  V30 1266 C 114.099 -3.40899 0.00853648 0
M  V30 1267 H 115.292 -2.54011 1.59431 0
M  V30 1268 H 112.845 -1.30352 0.862441 0
M  V30 1269 H 113.58 -3.11173 -0.913337 0
M  V30 1270 H 113.365 -3.8587 0.696204 0
M  V30 1271 H 114.855 -4.16886 -0.24414 0
M  V30 1272 N 115.292 -0.849877 -1.32721 0
M  V30 1273 C 116.202 -0.293791 -2.32753 0
M  V30 1274 C 117.218 0.585906 -1.63839 0
M  V30 1275 O 118.394 0.487413 -1.95413 0
M  V30 1276 C 115.459 0.512752 -3.42887 0
M  V30 1277 C 114.52 -0.39252 -4.27502 0
M  V30 1278 C 113.753 0.375625 -5.32377 0
M  V30 1279 O 113.976 1.60613 -5.4732 0
M  V30 1280 O 112.91 -0.256094 -6.01355 0
M  V30 1281 H 116.736 -1.12242 -2.82197 0
M  V30 1282 H 114.321 -0.612685 -1.36259 0
M  V30 1283 H 116.203 0.970704 -4.10067 0
M  V30 1284 H 114.878 1.31826 -2.95641 0
M  V30 1285 H 113.785 -0.898547 -3.63149 0
M  V30 1286 H 115.118 -1.16309 -4.7826 0
M  V30 1287 N 116.77 1.45427 -0.607355 0
M  V30 1288 C 118.016 2.0254 -0.102607 0
M  V30 1289 C 118.349 1.47478 1.26348 0
M  V30 1290 O 117.624 0.64939 1.83339 0
M  V30 1291 C 117.907 3.60044 -0.0634347 0
M  V30 1292 C 117.76 4.2544 -1.46017 0
M  V30 1293 C 119.079 4.35646 0.624514 0
M  V30 1294 H 116.198 0.73598 -0.0387607 0
M  V30 1295 H 118.84 1.73284 -0.779282 0
M  V30 1296 H 116.99 3.85101 0.512808 0
M  V30 1297 H 118.662 4.11569 -2.08347 0
M  V30 1298 H 116.905 3.83849 -2.02094 0
M  V30 1299 H 117.576 5.34342 -1.385 0
M  V30 1300 H 120.052 4.15882 0.134723 0
M  V30 1301 H 118.928 5.45376 0.621028 0
M  V30 1302 H 119.189 4.08501 1.69055 0
M  V30 1303 N 118.248 0.346503 1.53744 0
M  V30 1304 C 119.478 -0.250047 2.05081 0
M  V30 1305 C 119.886 -1.44529 1.22098 0
M  V30 1306 O 119.229 -1.81992 0.249917 0
M  V30 1307 C 119.291 -0.725934 3.52094 0
M  V30 1308 C 118.955 0.350053 4.55657 0
M  V30 1309 C 119.952 1.19372 5.0601 0
M  V30 1310 C 117.637 0.504827 4.99757 0
M  V30 1311 C 119.631 2.17768 5.99046 0
M  V30 1312 C 117.318 1.49218 5.92602 0
M  V30 1313 C 118.316 2.32706 6.42135 0
M  V30 1314 O 118.004 3.2976 7.33153 0
M  V30 1315 H 117.736 -0.0515469 0.674032 0
M  V30 1316 H 120.29 0.497559 1.99282 0
M  V30 1317 H 118.52 -1.52483 3.55367 0
M  V30 1318 H 120.209 -1.24336 3.86388 0
M  V30 1319 H 120.975 1.08525 4.72702 0
M  V30 1320 H 116.854 -0.135178 4.60802 0
M  V30 1321 H 120.398 2.82971 6.37631 0
M  V30 1322 H 116.295 1.6012 6.25325 0
M  V30 1323 H 117.063 3.25265 7.51096 0
M  V30 1324 N 119.726 -1.57421 0.075193 0
M  V30 1325 C 121.003 -1.85029 -0.634329 0
M  V30 1326 C 121.383 -0.968305 -1.87582 0
M  V30 1327 O 120.731 -0.0354749 -2.28472 0
M  V30 1328 C 120.941 -3.35286 -0.968742 0
M  V30 1329 C 122.289 -4.02875 -1.34077 0
M  V30 1330 O 123.313 -3.40051 -1.06037 0
M  V30 1331 O 122.172 -5.13691 -1.86506 0
M  V30 1332 H 119.266 -0.7645 -0.315387 0
M  V30 1333 H 121.812 -1.69366 0.106382 0
M  V30 1334 H 120.584 -3.91203 -0.0871376 0
M  V30 1335 H 120.207 -3.56223 -1.7661 0
M  V30 1336 N 121.204 0.198386 -1.56346 0
M  V30 1337 C 122.432 0.935572 -1.84539 0
M  V30 1338 C 122.847 1.76989 -0.657281 0
M  V30 1339 O 122.204 1.78626 0.374043 0
M  V30 1340 C 122.255 1.8344 -3.11499 0
M  V30 1341 O 121.976 1.03377 -4.25728 0
M  V30 1342 C 123.477 2.68355 -3.52846 0
M  V30 1343 H 120.697 0.273126 -0.612897 0
M  V30 1344 H 123.241 0.20663 -2.03453 0
M  V30 1345 H 121.396 2.51701 -2.94492 0
M  V30 1346 H 121.81 1.64599 -4.98003 0
M  V30 1347 H 123.284 3.27085 -4.44657 0
M  V30 1348 H 123.761 3.41901 -2.75681 0
M  V30 1349 H 124.367 2.05471 -3.72373 0
M  V30 1350 N 122.682 1.50554 0.465978 0
M  V30 1351 C 123.928 1.62038 1.21949 0
M  V30 1352 C 124.261 0.322116 1.9151 0
M  V30 1353 O 123.536 -0.676723 1.82348 0
M  V30 1354 C 123.819 2.80421 2.25912 0
M  V30 1355 C 123.672 4.20144 1.60622 0
M  V30 1356 C 124.991 2.94354 3.27176 0
M  V30 1357 H 122.11 0.589752 0.441998 0
M  V30 1358 H 124.752 1.82956 0.51257 0
M  V30 1359 H 122.902 2.62717 2.86203 0
M  V30 1360 H 124.574 4.49449 1.03889 0
M  V30 1361 H 122.817 4.24165 0.909211 0
M  V30 1362 H 123.488 4.98914 2.36196 0
M  V30 1363 H 125.964 3.10578 2.76913 0
M  V30 1364 H 124.84 3.788 3.97242 0
M  V30 1365 H 125.101 2.05186 3.916 0
M  V30 1366 N 124.16 -0.719506 1.40217 0
M  V30 1367 C 125.406 -1.48152 1.38488 0
M  V30 1368 C 125.739 -1.94195 -0.0141867 0
M  V30 1369 O 125.014 -1.67884 -0.982096 0
M  V30 1370 C 125.297 -2.71035 2.37091 0
M  V30 1371 C 125.15 -2.30912 3.86005 0
M  V30 1372 C 126.469 -3.73182 2.33288 0
M  V30 1373 H 123.588 -0.537395 0.504357 0
M  V30 1374 H 126.23 -0.821472 1.71324 0
M  V30 1375 H 124.38 -3.27352 2.0922 0
M  V30 1376 H 126.052 -1.80107 4.24687 0
M  V30 1377 H 124.295 -1.62958 4.02029 0
M  V30 1378 H 124.966 -3.18978 4.50508 0
M  V30 1379 H 127.442 -3.26485 2.57966 0
M  V30 1380 H 126.318 -4.56806 3.04334 0
M  V30 1381 H 126.579 -4.21202 1.34317 0
M  V30 1382 N 125.638 -1.25649 -0.95132 0
M  V30 1383 C 126.887 -1.09988 -1.69073 0
M  V30 1384 C 127.2 0.358355 -1.92289 0
M  V30 1385 O 128.406 0.635466 -2.63958 0
M  V30 1386 C 126.862 -1.92012 -3.044 0
M  V30 1387 C 126.47 -3.42347 -2.88968 0
M  V30 1388 C 128.214 -1.8493 -3.82101 0
M  V30 1389 C 126.121 -4.16655 -4.19705 0
M  V30 1390 H 125.051 -0.407993 -0.63408 0
M  V30 1391 H 127.702 -1.49873 -1.05879 0
M  V30 1392 H 126.084 -1.44952 -3.68517 0
M  V30 1393 H 127.258 -3.97104 -2.33762 0
M  V30 1394 H 125.573 -3.50557 -2.24719 0
M  V30 1395 H 128.17 -2.37739 -4.78941 0
M  V30 1396 H 128.513 -0.817883 -4.08187 0
M  V30 1397 H 129.046 -2.29758 -3.2474 0
M  V30 1398 H 125.785 -5.20224 -3.98807 0
M  V30 1399 H 125.305 -3.66681 -4.74663 0
M  V30 1400 H 126.984 -4.24551 -4.88227 0
M  V30 1401 N 127.117 1.15442 -1.07289 0
M  V30 1402 C 128.345 1.90096 -0.81676 0
M  V30 1403 C 128.76 1.7798 0.629966 0
M  V30 1404 O 128.117 1.1313 1.43206 0
M  V30 1405 C 128.168 3.40466 -1.21512 0
M  V30 1406 O 127.889 3.52232 -2.60508 0
M  V30 1407 C 129.39 4.32145 -0.988198 0
M  V30 1408 H 126.61 0.602495 -0.295366 0
M  V30 1409 H 129.154 1.4627 -1.42918 0
M  V30 1410 H 127.309 3.81958 -0.647039 0
M  V30 1411 H 127.723 4.45549 -2.76742 0
M  V30 1412 H 129.197 5.36072 -1.31645 0
M  V30 1413 H 129.674 4.39135 0.0755063 0
M  V30 1414 H 130.28 3.96395 -1.54115 0
M  V30 1415 N 128.595 0.856903 1.32268 0
M  V30 1416 C 129.525 0.31858 2.31316 0
M  V30 1417 C 130.506 -0.583487 1.59779 0
M  V30 1418 O 131.691 -0.503259 1.87566 0
M  V30 1419 C 128.821 -0.491979 3.43798 0
M  V30 1420 C 127.775 0.315849 4.26833 0
M  V30 1421 C 127.101 -0.619586 5.31098 0
M  V30 1422 C 128.401 1.54282 4.98993 0
M  V30 1423 H 130.095 1.14621 2.76591 0
M  V30 1424 H 127.641 0.552613 1.32974 0
M  V30 1425 H 129.594 -0.879012 4.1213 0
M  V30 1426 H 128.318 -1.35299 2.97257 0
M  V30 1427 H 126.977 0.684664 3.6015 0
M  V30 1428 H 126.625 -1.47751 4.8081 0
M  V30 1429 H 126.325 -0.0830621 5.87541 0
M  V30 1430 H 127.849 -1.00375 6.02293 0
M  V30 1431 H 129.263 1.22796 5.59995 0
M  V30 1432 H 127.66 2.01745 5.65172 0
M  V30 1433 H 128.73 2.30285 4.26728 0
M  V30 1434 N 130.073 -1.45103 0.615059 0
M  V30 1435 C 131.02 -2.30586 -0.0993978 0
M  V30 1436 C 131.99 -1.42544 -0.852669 0
M  V30 1437 O 133.175 -1.71465 -0.836917 0
M  V30 1438 C 130.315 -3.27572 -1.08583 0
M  V30 1439 C 129.428 -4.30717 -0.332656 0
M  V30 1440 C 128.563 -5.14807 -1.30947 0
M  V30 1441 C 127.602 -6.09673 -0.544538 0
M  V30 1442 N 126.739 -6.86517 -1.47101 0
M  V30 1443 H 131.579 -2.91144 0.635542 0
M  V30 1444 H 129.116 -1.4346 0.325206 0
M  V30 1445 H 131.074 -3.82276 -1.67095 0
M  V30 1446 H 129.704 -2.68751 -1.78809 0
M  V30 1447 H 128.756 -3.78615 0.368107 0
M  V30 1448 H 130.068 -4.98102 0.263842 0
M  V30 1449 H 129.222 -5.73948 -1.96643 0
M  V30 1450 H 127.961 -4.47458 -1.9399 0
M  V30 1451 H 126.966 -5.49656 0.126003 0
M  V30 1452 H 128.191 -6.79052 0.080947 0
M  V30 1453 H 126.137 -6.21851 -2.08895 0
M  V30 1454 H 126.054 -7.50281 -0.928137 0
M  V30 1455 H 127.322 -7.50194 -2.11731 0
M  V30 1456 N 131.551 -0.354651 -1.53558 0
M  V30 1457 C 132.499 0.512195 -2.26891 0
M  V30 1458 C 133.493 1.09263 -1.29452 0
M  V30 1459 O 134.699 1.03709 -1.47121 0
M  V30 1460 H 131.074 0.183878 -0.729173 0
M  V30 1461 H 133.045 -0.128202 -2.98124 0
M  V30 1462 C 131.794 1.64563 -3.06291 0
M  V30 1463 H 131.117 1.20829 -3.81104 0
M  V30 1464 H 132.557 2.22711 -3.60799 0
M  V30 1465 C 131.016 2.58158 -2.16462 0
M  V30 1466 O 131.546 3.60695 -1.76811 0
M  V30 1467 N 129.752 2.27096 -1.81317 0
M  V30 1468 H 129.299 1.43751 -2.1376 0
M  V30 1469 H 129.257 2.89975 -1.21498 0
M  V30 1470 N 133.029 1.57378 -0.0835403 0
M  V30 1471 C 133.962 2.09016 0.915833 0
M  V30 1472 C 134.94 0.997993 1.2837 0
M  V30 1473 O 136.124 1.27219 1.39096 0
M  V30 1474 C 133.251 2.55757 2.22049 0
M  V30 1475 C 132.297 3.76522 2.00333 0
M  V30 1476 S 133.13 5.20661 1.25191 0
M  V30 1477 C 134.286 5.70743 2.56912 0
M  V30 1478 H 134.519 2.93457 0.476492 0
M  V30 1479 H 132.052 1.53856 0.129493 0
M  V30 1480 H 134.01 2.83346 2.97027 0
M  V30 1481 H 132.671 1.71564 2.63106 0
M  V30 1482 H 131.864 4.07256 2.96916 0
M  V30 1483 H 131.466 3.49367 1.33488 0
M  V30 1484 H 133.758 5.78304 3.52946 0
M  V30 1485 H 134.701 6.6944 2.30772 0
M  V30 1486 H 135.109 4.98616 2.64655 0
M  V30 1487 N 134.507 -0.190092 1.56449 0
M  V30 1488 C 135.47 -1.21925 1.9408 0
M  V30 1489 C 136.47 -1.38176 0.822431 0
M  V30 1490 O 137.66 -1.35903 1.08977 0
M  V30 1491 C 134.792 -2.58773 2.21922 0
M  V30 1492 H 135.985 -0.897464 2.86157 0
M  V30 1493 H 133.538 -0.43181 1.50217 0
M  V30 1494 H 134.273 -2.95998 1.32499 0
M  V30 1495 H 134.058 -2.48348 3.03424 0
M  V30 1496 H 135.548 -3.32978 2.52022 0
M  V30 1497 N 135.985 -1.50799 -0.457987 0
M  V30 1498 C 137.21 -1.66496 -1.23668 0
M  V30 1499 C 137.635 -0.353288 -1.84752 0
M  V30 1500 O 136.993 0.684346 -1.67888 0
M  V30 1501 C 137.041 -2.76763 -2.3116 0
M  V30 1502 O 136.145 -2.38928 -3.36136 0
M  V30 1503 H 135.486 -0.555828 -0.363252 0
M  V30 1504 H 138.016 -1.9725 -0.543474 0
M  V30 1505 H 138.026 -3.00232 -2.76269 0
M  V30 1506 H 136.701 -3.71954 -1.86073 0
M  V30 1507 H 135.278 -2.25953 -2.96647 0
M  V30 1508 N 137.463 0.71206 -1.40597 0
M  V30 1509 C 138.413 1.81783 -1.37619 0
M  V30 1510 C 139.397 1.58896 -0.253162 0
M  V30 1511 O 140.589 1.70009 -0.492547 0
M  V30 1512 C 137.718 3.19944 -1.24462 0
M  V30 1513 C 136.804 3.48582 -2.4156 0
M  V30 1514 N 137.195 3.48016 -3.67041 0
M  V30 1515 C 135.493 3.79056 -2.35016 0
M  V30 1516 C 136.194 3.75096 -4.44609 0
M  V30 1517 N 135.17 3.94022 -3.74497 0
M  V30 1518 H 138.972 1.79683 -2.32575 0
M  V30 1519 H 136.486 0.91134 -1.34419 0
M  V30 1520 H 138.483 3.99133 -1.20411 0
M  V30 1521 H 137.143 3.23267 -0.304762 0
M  V30 1522 H 138.154 3.28782 -4.00153 0
M  V30 1523 H 134.831 3.89848 -1.49415 0
M  V30 1524 H 136.221 3.80934 -5.53479 0
M  V30 1525 N 138.941 1.26152 0.944643 0
M  V30 1526 C 140.352 1.10454 1.50522 0
M  V30 1527 C 140.703 -0.31635 1.93633 0
M  V30 1528 O 139.828 -1.20746 1.79581 0
M  V30 1529 C 140.423 1.99891 2.73549 0
M  V30 1530 C 138.982 1.88348 3.25886 0
M  V30 1531 C 138.129 1.93447 1.9868 0
M  V30 1532 H 141.08 1.39292 0.760489 0
M  V30 1533 H 141.101 1.54477 3.47732 0
M  V30 1534 H 140.613 3.03297 2.42141 0
M  V30 1535 H 138.714 0.878636 3.62092 0
M  V30 1536 H 138.827 2.73696 3.93227 0
M  V30 1537 H 137.191 1.37456 2.14425 0
M  V30 1538 H 137.974 2.98476 1.69607 0
M  V30 1539 N 140.419 -1.14872 1.07899 0
M  V30 1540 C 141.665 -1.86064 0.806725 0
M  V30 1541 C 141.998 -1.82434 -0.665706 0
M  V30 1542 O 141.273 -1.25138 -1.48899 0
M  V30 1543 C 141.556 -3.34929 1.32267 0
M  V30 1544 C 141.409 -3.47161 2.86006 0
M  V30 1545 C 142.728 -4.29863 0.943717 0
M  V30 1546 H 139.847 -0.675591 0.294526 0
M  V30 1547 H 142.489 -1.34925 1.33773 0
M  V30 1548 H 140.639 -3.78611 0.870974 0
M  V30 1549 H 142.311 -3.12302 3.39507 0
M  V30 1550 H 140.554 -2.88539 3.23925 0
M  V30 1551 H 141.225 -4.51777 3.17177 0
M  V30 1552 H 143.701 -3.9417 1.33302 0
M  V30 1553 H 142.577 -5.32494 1.33198 0
M  V30 1554 H 142.838 -4.41846 -0.149796 0
M  V30 1555 N 141.898 -0.863906 -1.31812 0
M  V30 1556 C 143.123 -0.48527 -2.01643 0
M  V30 1557 C 143.548 0.913058 -1.64453 0
M  V30 1558 O 142.906 1.6014 -0.849985 0
M  V30 1559 C 142.954 -0.642625 -3.54828 0
M  V30 1560 O 142.058 0.320659 -4.11151 0
M  V30 1561 H 141.399 -0.193793 -0.635091 0
M  V30 1562 H 143.929 -1.16565 -1.68148 0
M  V30 1563 H 143.939 -0.533628 -4.04495 0
M  V30 1564 H 142.614 -1.66227 -3.81237 0
M  V30 1565 H 141.191 0.167126 -3.72525 0
M  V30 1566 N 143.376 1.44774 -0.622745 0
M  V30 1567 C 144.306 2.33382 0.0741861 0
M  V30 1568 C 145.287 1.47719 0.843387 0
M  V30 1569 O 146.472 1.76458 0.810934 0
M  V30 1570 C 143.602 3.30663 1.06204 0
M  V30 1571 C 142.556 4.26079 0.405037 0
M  V30 1572 C 141.882 5.13165 1.5022 0
M  V30 1573 C 143.182 5.1781 -0.683414 0
M  V30 1574 H 144.876 2.91905 -0.665713 0
M  V30 1575 H 142.422 1.40363 -0.321587 0
M  V30 1576 H 144.375 3.9153 1.55827 0
M  V30 1577 H 143.099 2.70331 1.83272 0
M  V30 1578 H 141.758 3.66532 -0.0704683 0
M  V30 1579 H 141.406 4.49191 2.26355 0
M  V30 1580 H 141.106 5.77812 1.06803 0
M  V30 1581 H 142.63 5.76902 2.00041 0
M  V30 1582 H 144.044 5.72661 -0.270631 0
M  V30 1583 H 142.441 5.91015 -1.04023 0
M  V30 1584 H 143.511 4.59326 -1.55395 0
M  V30 1585 N 144.854 0.36279 1.53368 0
M  V30 1586 C 145.804 -0.501391 2.22419 0
M  V30 1587 C 146.788 -1.0509 1.2184 0
M  V30 1588 O 147.98 -0.981404 1.47301 0
M  V30 1589 C 145.109 -1.64201 3.01484 0
M  V30 1590 C 144.195 -1.10552 4.09438 0
M  V30 1591 N 144.586 -0.291788 5.04958 0
M  V30 1592 C 142.884 -1.3806 4.24094 0
M  V30 1593 C 143.585 0.00162655 5.817 0
M  V30 1594 N 142.561 -0.595244 5.40331 0
M  V30 1595 H 146.363 0.127159 2.93625 0
M  V30 1596 H 143.877 0.170658 1.61501 0
M  V30 1597 H 145.874 -2.27326 3.49469 0
M  V30 1598 H 144.534 -2.27365 2.31809 0
M  V30 1599 H 145.545 0.0687731 5.17854 0
M  V30 1600 H 142.222 -2.01522 3.65644 0
M  V30 1601 H 143.612 0.659278 6.68658 0
M  V30 1602 N 146.332 -1.57332 0.0918853 0
M  V30 1603 C 147.295 -2.12708 -0.85369 0
M  V30 1604 C 148.295 -1.05561 -1.213 0
M  V30 1605 O 149.485 -1.31461 -1.14296 0
M  V30 1606 C 146.617 -2.64503 -2.15061 0
M  V30 1607 H 147.81 -2.97573 -0.3729 0
M  V30 1608 H 145.363 -1.55509 -0.157072 0
M  V30 1609 H 146.098 -1.83149 -2.67632 0
M  V30 1610 H 145.883 -3.4284 -1.90272 0
M  V30 1611 H 147.373 -3.07351 -2.82711 0
M  V30 1612 N 147.81 0.181792 -1.56548 0
M  V30 1613 C 149.056 0.901431 -1.81665 0
M  V30 1614 C 149.389 1.82347 -0.668075 0
M  V30 1615 O 148.664 1.91669 0.330615 0
M  V30 1616 C 148.947 1.70618 -3.17115 0
M  V30 1617 C 148.8 0.807964 -4.42484 0
M  V30 1618 C 150.119 2.67605 -3.49393 0
M  V30 1619 H 147.238 0.32627 -0.660846 0
M  V30 1620 H 149.88 0.168134 -1.89255 0
M  V30 1621 H 148.03 2.33133 -3.10775 0
M  V30 1622 H 149.702 0.19649 -4.60881 0
M  V30 1623 H 147.945 0.115411 -4.33646 0
M  V30 1624 H 148.616 1.40632 -5.33785 0
M  V30 1625 H 151.092 2.15218 -3.56118 0
M  V30 1626 H 149.968 3.20985 -4.45264 0
M  V30 1627 H 150.229 3.47298 -2.73563 0
M  V30 1628 N 149.288 1.51039 0.449983 0
M  V30 1629 C 150.536 1.62759 1.19808 0
M  V30 1630 C 150.857 0.339981 1.92013 0
M  V30 1631 O 150.127 -0.643606 1.85026 0
M  V30 1632 H 148.707 0.599811 0.445237 0
M  V30 1633 H 151.369 1.87914 0.517138 0
M  V30 1634 H 150.465 2.44911 1.93455 0
M  V30 1635 N 150.766 -0.704594 1.40972 0
M  V30 1636 C 152.012 -1.46675 1.40051 0
M  V30 1637 C 152.345 -1.94199 0.00641102 0
M  V30 1638 O 151.62 -1.68916 -0.964235 0
M  V30 1639 C 151.903 -2.68505 2.39952 0
M  V30 1640 C 151.756 -2.26805 3.88432 0
M  V30 1641 C 153.075 -3.70686 2.37233 0
M  V30 1642 H 150.194 -0.532015 0.510028 0
M  V30 1643 H 152.836 -0.803255 1.72185 0
M  V30 1644 H 150.986 -3.25114 2.1268 0
M  V30 1645 H 152.658 -1.75592 4.26574 0
M  V30 1646 H 150.901 -1.58685 4.03734 0
M  V30 1647 H 151.572 -3.14181 4.53866 0
M  V30 1648 H 154.048 -3.23731 2.61415 0
M  V30 1649 H 152.924 -4.53553 3.09162 0
M  V30 1650 H 153.185 -4.19754 1.38777 0
M  V30 1651 N 152.244 -1.26651 -0.937939 0
M  V30 1652 C 153.469 -1.15279 -1.72411 0
M  V30 1653 C 153.894 0.287866 -1.85884 0
M  V30 1654 O 153.252 1.20855 -1.35143 0
M  V30 1655 C 153.3 -1.83028 -3.10698 0
M  V30 1656 O 152.404 -1.12128 -3.96864 0
M  V30 1657 H 151.745 -0.401504 -0.528858 0
M  V30 1658 H 154.275 -1.67531 -1.1745 0
M  V30 1659 H 154.285 -1.89981 -3.6107 0
M  V30 1660 H 152.96 -2.87833 -3.00208 0
M  V30 1661 H 151.537 -1.13173 -3.55312 0
M  V30 1662 N 153.722 1.14298 -1.08507 0
M  V30 1663 C 154.952 1.88945 -0.835663 0
M  V30 1664 C 155.36 1.78894 0.615928 0
M  V30 1665 O 154.703 1.1468 1.43506 0
M  V30 1666 C 154.765 3.39585 -1.17994 0
M  V30 1667 C 154.429 3.7342 -2.63451 0
M  V30 1668 C 155.426 3.73454 -3.61702 0
M  V30 1669 C 153.111 4.03368 -2.99332 0
M  V30 1670 C 155.105 4.02961 -4.93864 0
M  V30 1671 C 152.792 4.32538 -4.31687 0
M  V30 1672 C 153.79 4.32318 -5.28763 0
M  V30 1673 O 153.478 4.6078 -6.58739 0
M  V30 1674 H 153.21 0.605307 -0.300965 0
M  V30 1675 H 155.764 1.45673 -1.44806 0
M  V30 1676 H 153.994 3.83315 -0.51055 0
M  V30 1677 H 155.683 3.9554 -0.911182 0
M  V30 1678 H 156.449 3.50403 -3.35325 0
M  V30 1679 H 152.328 4.02692 -2.24411 0
M  V30 1680 H 155.872 4.02704 -5.69627 0
M  V30 1681 H 151.769 4.55059 -4.57812 0
M  V30 1682 H 152.537 4.78492 -6.64069 0
M  V30 1683 N 155.201 0.870884 1.31352 0
M  V30 1684 C 156.447 0.492314 1.97352 0
M  V30 1685 C 156.802 -0.945174 1.67583 0
M  V30 1686 O 156.095 -1.65674 0.962423 0
M  V30 1687 C 156.289 0.687157 3.50732 0
M  V30 1688 C 156.118 2.14203 3.95407 0
M  V30 1689 C 154.888 2.78382 4.21701 0
M  V30 1690 C 157.086 3.1144 4.09279 0
M  V30 1691 N 155.068 4.14611 4.52737 0
M  V30 1692 C 156.439 4.32702 4.44037 0
M  V30 1693 C 158.494 3.07418 3.91661 0
M  V30 1694 C 157.197 5.50463 4.63015 0
M  V30 1695 C 159.223 4.24438 4.11833 0
M  V30 1696 C 158.585 5.44463 4.46923 0
M  V30 1697 H 154.684 0.229206 0.747655 0
M  V30 1698 H 157.268 1.12568 1.5886 0
M  V30 1699 H 155.439 0.083384 3.8831 0
M  V30 1700 H 157.171 0.276883 4.03752 0
M  V30 1701 H 153.926 2.29326 4.14375 0
M  V30 1702 H 154.35 4.84928 4.72413 0
M  V30 1703 H 158.992 2.15732 3.6362 0
M  V30 1704 H 156.71 6.42666 4.89904 0
M  V30 1705 H 160.296 4.2278 3.99685 0
M  V30 1706 H 159.176 6.33504 4.62214 0
M  V30 1707 N 156.679 -1.44442 0.630414 0
M  V30 1708 C 157.626 -2.30678 -0.0749355 0
M  V30 1709 C 158.596 -1.4344 -0.837502 0
M  V30 1710 O 159.781 -1.72343 -0.818684 0
M  V30 1711 C 156.921 -3.28706 -1.05103 0
M  V30 1712 C 156.034 -4.31046 -0.286954 0
M  V30 1713 C 155.169 -5.16167 -1.2548 0
M  V30 1714 C 154.208 -6.10216 -0.479843 0
M  V30 1715 N 153.345 -6.88039 -1.39811 0
M  V30 1716 H 158.185 -2.90454 0.666386 0
M  V30 1717 H 155.722 -1.43107 0.340404 0
M  V30 1718 H 157.68 -3.84027 -1.63031 0
M  V30 1719 H 156.31 -2.70632 -1.75949 0
M  V30 1720 H 155.362 -3.78203 0.408243 0
M  V30 1721 H 156.674 -4.97794 0.316657 0
M  V30 1722 H 155.828 -5.76002 -1.90544 0
M  V30 1723 H 154.567 -4.49491 -1.89233 0
M  V30 1724 H 153.572 -5.49491 0.184295 0
M  V30 1725 H 154.797 -6.78928 0.152965 0
M  V30 1726 H 152.743 -6.24032 -2.02287 0
M  V30 1727 H 152.66 -7.51223 -0.848508 0
M  V30 1728 H 153.928 -7.52397 -2.03762 0
M  V30 1729 N 158.157 -0.370918 -1.53173 0
M  V30 1730 C 159.12 0.460778 -2.24521 0
M  V30 1731 C 160.12 1.00536 -1.25496 0
M  V30 1732 O 161.31 0.890266 -1.49733 0
M  V30 1733 C 158.442 1.64457 -2.98608 0
M  V30 1734 H 159.635 -0.163613 -2.99453 0
M  V30 1735 H 157.188 -0.122699 -1.55818 0
M  V30 1736 H 157.923 2.30691 -2.2793 0
M  V30 1737 H 157.708 1.26099 -3.7127 0
M  V30 1738 H 159.198 2.23384 -3.5283 0
M  V30 1739 N 159.635 1.57281 -0.100228 0
M  V30 1740 C 160.86 1.99302 0.573881 0
M  V30 1741 C 161.285 0.979059 1.60611 0
M  V30 1742 O 160.643 -0.0517803 1.81226 0
M  V30 1743 C 160.691 3.40274 1.19358 0
M  V30 1744 O 159.795 3.41676 2.30935 0
M  V30 1745 H 159.136 0.647944 0.145138 0
M  V30 1746 H 161.666 2.03779 -0.183156 0
M  V30 1747 H 161.676 3.78078 1.53365 0
M  V30 1748 H 160.351 4.13594 0.437385 0
M  V30 1749 H 158.928 3.15672 1.98509 0
M  V30 1750 N 161.113 -0.173488 1.56642 0
M  V30 1751 C 162.023 -1.23482 1.99473 0
M  V30 1752 C 163.039 -1.48567 0.905752 0
M  V30 1753 O 164.215 -1.60758 1.21321 0
M  V30 1754 C 161.28 -2.55444 2.34413 0
M  V30 1755 C 160.341 -2.38241 3.57127 0
M  V30 1756 C 159.574 -3.63909 3.90392 0
M  V30 1757 O 159.797 -4.68996 3.24653 0
M  V30 1758 O 158.731 -3.58149 4.83749 0
M  V30 1759 H 162.557 -0.901279 2.90018 0
M  V30 1760 H 160.142 -0.380185 1.44482 0
M  V30 1761 H 162.024 -3.33292 2.57865 0
M  V30 1762 H 160.699 -2.88382 1.4703 0
M  V30 1763 H 159.606 -1.58431 3.38896 0
M  V30 1764 H 160.939 -2.10228 4.45045 0
M  V30 1765 N 162.591 -1.51276 -0.441967 0
M  V30 1766 C 163.839 -1.63392 -1.18943 0
M  V30 1767 C 164.16 -0.350159 -1.9183 0
M  V30 1768 O 163.43 0.633784 -1.85364 0
M  V30 1769 H 162.01 -0.602164 -0.442049 0
M  V30 1770 H 164.672 -1.88186 -0.507165 0
M  V30 1771 H 163.768 -2.45934 -1.92154 0
M  V30 1772 N 164.069 0.697108 -1.41344 0
M  V30 1773 C 165.032 1.79281 -1.42797 0
M  V30 1774 C 166.032 1.57607 -0.318837 0
M  V30 1775 O 167.222 1.64309 -0.578642 0
M  V30 1776 C 164.354 3.17632 -1.23785 0
M  V30 1777 H 165.547 1.79385 -2.40335 0
M  V30 1778 H 163.1 0.904582 -1.27464 0
M  V30 1779 H 163.835 3.23167 -0.270814 0
M  V30 1780 H 163.62 3.34765 -2.04144 0
M  V30 1781 H 165.11 3.97617 -1.27633 0
M  V30 1782 N 165.547 1.27147 0.931209 0
M  V30 1783 C 166.457 1.11372 2.06478 0
M  V30 1784 C 167.473 0.044645 1.73943 0
M  V30 1785 O 168.649 0.250417 1.99837 0
M  V30 1786 C 165.714 0.758838 3.38294 0
M  V30 1787 C 164.775 1.90841 3.84549 0
M  V30 1788 C 164.008 1.57036 5.10074 0
M  V30 1789 O 164.231 0.476645 5.68405 0
M  V30 1790 O 163.165 2.40839 5.51616 0
M  V30 1791 H 166.991 2.06493 2.22698 0
M  V30 1792 H 164.576 1.06301 1.04978 0
M  V30 1793 H 166.458 0.574098 4.17471 0
M  V30 1794 H 165.133 -0.162879 3.2329 0
M  V30 1795 H 164.04 2.14819 3.06274 0
M  V30 1796 H 165.373 2.81021 4.04089 0
M  V30 1797 N 167.025 -1.13721 1.09112 0
M  V30 1798 C 168.255 -1.88499 0.845671 0
M  V30 1799 C 168.663 -1.79218 -0.606432 0
M  V30 1800 O 168.006 -1.1544 -1.42896 0
M  V30 1801 C 168.068 -3.38954 1.19793 0
M  V30 1802 C 167.732 -3.72018 2.65428 0
M  V30 1803 C 168.729 -3.7153 3.63677 0
M  V30 1804 C 166.414 -4.01775 3.01467 0
M  V30 1805 C 168.408 -4.00336 4.95994 0
M  V30 1806 C 166.095 -4.30243 4.33975 0
M  V30 1807 C 167.093 -4.29508 5.31048 0
M  V30 1808 O 166.781 -4.5728 6.61173 0
M  V30 1809 H 166.513 -0.603702 0.304171 0
M  V30 1810 H 169.067 -1.44903 1.45576 0
M  V30 1811 H 167.297 -3.83039 0.530871 0
M  V30 1812 H 168.986 -3.95052 0.932146 0
M  V30 1813 H 169.752 -3.4862 3.37179 0
M  V30 1814 H 165.631 -4.01496 2.26544 0
M  V30 1815 H 169.175 -3.99678 5.71755 0
M  V30 1816 H 165.072 -4.52625 4.60219 0
M  V30 1817 H 165.84 -4.74964 6.66597 0
M  V30 1818 N 168.503 -0.877838 -1.30888 0
M  V30 1819 C 169.78 -0.413052 -1.91189 0
M  V30 1820 C 170.16 1.1056 -1.79832 0
M  V30 1821 O 169.508 1.93771 -1.21099 0
M  V30 1822 C 169.718 -0.903191 -3.3711 0
M  V30 1823 C 171.066 -0.93395 -4.14201 0
M  V30 1824 O 172.09 -0.849373 -3.45925 0
M  V30 1825 O 170.949 -1.05772 -5.36167 0
M  V30 1826 H 168.043 -0.125035 -0.817493 0
M  V30 1827 H 170.589 -0.966269 -1.39504 0
M  V30 1828 H 169.361 -1.94692 -3.39427 0
M  V30 1829 H 168.984 -0.328732 -3.96239 0
M  V30 1830 N 169.982 1.44106 -0.638065 0
M  V30 1831 C 171.259 1.95453 -0.0759321 0
M  V30 1832 C 171.639 1.57984 1.40015 0
M  V30 1833 O 170.987 0.857361 2.11806 0
M  V30 1834 C 171.197 3.47655 -0.306132 0
M  V30 1835 C 172.545 4.24114 -0.203008 0
M  V30 1836 O 173.569 3.55405 -0.237871 0
M  V30 1837 O 172.428 5.46381 -0.113827 0
M  V30 1838 H 169.522 0.826797 0.0183332 0
M  V30 1839 H 172.068 1.54122 -0.710251 0
M  V30 1840 H 170.84 3.68 -1.3301 0
M  V30 1841 H 170.463 3.95949 0.361991 0
M  V30 1842 N 171.46 0.379036 1.52974 0
M  V30 1843 C 172.392 -0.495963 2.2377 0
M  V30 1844 C 173.405 -1.03517 1.25651 0
M  V30 1845 O 174.594 -0.939249 1.51791 0
M  V30 1846 C 171.694 -1.69894 2.93239 0
M  V30 1847 C 170.867 -1.2889 4.17979 0
M  V30 1848 C 169.926 -2.35543 4.70538 0
M  V30 1849 O 168.952 -1.97375 5.33883 0
M  V30 1850 N 170.154 -3.67318 4.49508 0
M  V30 1851 H 172.919 0.110523 2.99496 0
M  V30 1852 H 170.48 0.204878 1.60598 0
M  V30 1853 H 172.472 -2.40747 3.25304 0
M  V30 1854 H 171.042 -2.212 2.20883 0
M  V30 1855 H 170.262 -0.409676 3.92065 0
M  V30 1856 H 171.55 -0.991443 4.99047 0
M  V30 1857 H 170.948 -4.01095 3.98923 0
M  V30 1858 H 169.505 -4.34235 4.8609 0
M  V30 1859 N 172.938 -1.57226 0.108567 0
M  V30 1860 C 174.166 -1.99179 -0.559954 0
M  V30 1861 C 174.581 -0.988022 -1.60884 0
M  V30 1862 O 173.938 0.0205512 -1.82488 0
M  V30 1863 C 173.989 -3.41159 -1.19552 0
M  V30 1864 O 173.71 -4.37694 -0.188577 0
M  V30 1865 C 175.211 -3.98188 -1.94837 0
M  V30 1866 H 172.431 -0.654228 -0.149088 0
M  V30 1867 H 174.975 -2.03598 0.19183 0
M  V30 1868 H 173.13 -3.37711 -1.89815 0
M  V30 1869 H 173.544 -5.20469 -0.649014 0
M  V30 1870 H 175.018 -4.99644 -2.34648 0
M  V30 1871 H 175.495 -3.3675 -2.81951 0
M  V30 1872 H 176.101 -4.0515 -1.2936 0
M  V30 1873 N 174.416 0.165178 -1.56732 0
M  V30 1874 C 175.641 0.900253 -1.86843 0
M  V30 1875 C 176.066 1.74766 -0.695596 0
M  V30 1876 O 175.424 1.77786 0.35522 0
M  V30 1877 C 175.472 1.74777 -3.15413 0
M  V30 1878 O 174.576 2.85007 -2.98068 0
M  V30 1879 H 173.917 0.251832 -0.614391 0
M  V30 1880 H 176.447 0.161468 -2.03962 0
M  V30 1881 H 176.457 2.14646 -3.46974 0
M  V30 1882 H 175.132 1.12537 -4.00385 0
M  V30 1883 H 173.709 2.48676 -2.77875 0
M  V30 1884 N 175.894 1.51508 0.433938 0
M  V30 1885 C 176.826 1.69266 1.54537 0
M  V30 1886 C 177.839 0.573276 1.52373 0
M  V30 1887 O 179.028 0.847698 1.57087 0
M  V30 1888 C 176.128 1.69524 2.93453 0
M  V30 1889 C 175.301 2.98101 3.20085 0
M  V30 1890 C 174.36 2.90502 4.38742 0
M  V30 1891 O 173.386 3.64442 4.3723 0
M  V30 1892 N 174.588 2.06586 5.42496 0
M  V30 1893 H 177.353 2.65145 1.39708 0
M  V30 1894 H 174.914 1.49437 0.622922 0
M  V30 1895 H 176.906 1.62004 3.70859 0
M  V30 1896 H 175.476 0.812245 3.01863 0
M  V30 1897 H 174.696 3.19464 2.30947 0
M  V30 1898 H 175.984 3.83207 3.34708 0
M  V30 1899 H 175.382 1.45896 5.46563 0
M  V30 1900 H 173.939 2.04943 6.18742 0
M  V30 1901 N 177.372 -0.689602 1.41712 0
M  V30 1902 C 178.788 -1.00093 1.24312 0
M  V30 1903 C 178.988 -2.01036 0.136729 0
M  V30 1904 O 178.044 -2.47562 -0.496918 0
M  V30 1905 C 179.357 -1.51985 2.59463 0
M  V30 1906 C 180.905 -1.63838 2.66695 0
M  V30 1907 C 181.38 -2.1913 4.02177 0
M  V30 1908 N 182.871 -2.26483 4.04054 0
M  V30 1909 C 183.606 -2.70306 5.0569 0
M  V30 1910 N 183.102 -3.13691 6.17713 0
M  V30 1911 N 184.895 -2.69923 4.9305 0
M  V30 1912 H 177.046 -0.0210029 2.1239 0
M  V30 1913 H 179.309 -0.0718733 0.945272 0
M  V30 1914 H 179.015 -0.85269 3.41207 0
M  V30 1915 H 178.889 -2.50103 2.82362 0
M  V30 1916 H 181.276 -2.29664 1.85306 0
M  V30 1917 H 181.357 -0.642492 2.476 0
M  V30 1918 H 181.001 -1.53918 4.84016 0
M  V30 1919 H 180.931 -3.19482 4.18615 0
M  V30 1920 H 183.422 -1.95874 3.23174 0
M  V30 1921 H 183.735 -3.45773 6.9113 0
M  V30 1922 H 182.08 -3.11585 6.21241 0
M  V30 1923 H 185.271 -2.35382 4.04614 0
M  V30 1924 H 185.444 -3.03758 5.72394 0
M  V30 1925 N 178.85 -1.27639 -0.924453 0
M  V30 1926 C 179.76 -1.12466 -2.05885 0
M  V30 1927 C 180.776 -0.053869 -1.73917 0
M  V30 1928 O 181.952 -0.261012 -1.99702 0
M  V30 1929 C 179.017 -0.776768 -3.37886 0
M  V30 1930 C 178.078 -1.92878 -3.83532 0
M  V30 1931 C 177.311 -1.59739 -5.09234 0
M  V30 1932 O 177.534 -0.506782 -5.68144 0
M  V30 1933 O 176.468 -2.43761 -5.50331 0
M  V30 1934 H 180.294 -2.07671 -2.21599 0
M  V30 1935 H 177.879 -1.06857 -1.04413 0
M  V30 1936 H 179.761 -0.596229 -4.17161 0
M  V30 1937 H 178.436 0.145732 -3.23372 0
M  V30 1938 H 177.343 -2.1644 -3.0513 0
M  V30 1939 H 178.676 -2.8316 -4.02593 0
M  V30 1940 N 180.328 1.1314 -1.09713 0
M  V30 1941 C 181.275 2.18642 -0.739196 0
M  V30 1942 C 182.245 1.63706 0.280978 0
M  V30 1943 O 183.43 1.90111 0.161946 0
M  V30 1944 C 180.57 3.44685 -0.169102 0
M  V30 1945 C 179.683 4.13711 -1.24367 0
M  V30 1946 C 178.818 5.27379 -0.636019 0
M  V30 1947 C 177.857 5.88259 -1.69169 0
M  V30 1948 N 176.994 6.93352 -1.10485 0
M  V30 1949 H 181.834 2.48607 -1.64312 0
M  V30 1950 H 179.371 1.22066 -0.820875 0
M  V30 1951 H 181.329 4.16815 0.179256 0
M  V30 1952 H 179.959 3.15161 0.698079 0
M  V30 1953 H 179.011 3.39835 -1.70927 0
M  V30 1954 H 180.323 4.55037 -2.04311 0
M  V30 1955 H 179.477 6.06238 -0.236677 0
M  V30 1956 H 178.216 4.8731 0.194928 0
M  V30 1957 H 177.221 5.08092 -2.10055 0
M  V30 1958 H 178.446 6.30399 -2.52536 0
M  V30 1959 H 176.392 6.55335 -0.295234 0
M  V30 1960 H 176.309 7.33236 -1.84121 0
M  V30 1961 H 177.577 7.76057 -0.73181 0
M  V30 1962 N 181.806 0.884767 1.30421 0
M  V30 1963 C 182.716 0.355398 2.31892 0
M  V30 1964 C 183.732 -0.542261 1.65335 0
M  V30 1965 O 184.908 -0.435432 1.96637 0
M  V30 1966 C 181.973 -0.421661 3.44126 0
M  V30 1967 C 181.034 0.505727 4.26311 0
M  V30 1968 C 180.267 -0.234343 5.33185 0
M  V30 1969 O 180.49 -1.46045 5.51386 0
M  V30 1970 O 179.424 0.415443 6.00465 0
M  V30 1971 H 183.25 1.19685 2.79122 0
M  V30 1972 H 180.835 0.648596 1.34587 0
M  V30 1973 H 182.717 -0.861641 4.12497 0
M  V30 1974 H 181.392 -1.23942 2.99032 0
M  V30 1975 H 180.299 0.994513 3.60639 0
M  V30 1976 H 181.632 1.28948 4.75009 0
M  V30 1977 N 183.284 -1.43765 0.645699 0
M  V30 1978 C 184.561 -1.9541 0.0862963 0
M  V30 1979 C 184.941 -1.58725 -1.39175 0
M  V30 1980 O 184.289 -0.868581 -2.11348 0
M  V30 1981 C 184.499 -3.47488 0.324565 0
M  V30 1982 C 185.847 -4.24001 0.225497 0
M  V30 1983 O 186.871 -3.55274 0.256715 0
M  V30 1984 O 185.73 -5.46313 0.142801 0
M  V30 1985 H 182.824 -0.826882 -0.0139483 0
M  V30 1986 H 185.37 -1.53743 0.718415 0
M  V30 1987 H 184.142 -3.67289 1.3496 0
M  V30 1988 H 183.765 -3.96135 -0.340987 0
M  V30 1989 N 184.763 -0.387143 -1.52771 0
M  V30 1990 C 186.04 0.253197 -1.93954 0
M  V30 1991 C 186.42 1.64545 -1.32243 0
M  V30 1992 O 185.768 2.23191 -0.489699 0
M  V30 1993 C 185.978 0.281722 -3.47861 0
M  V30 1994 C 187.326 0.511715 -4.21505 0
M  V30 1995 O 188.35 0.362023 -3.54356 0
M  V30 1996 O 187.209 0.804847 -5.40541 0
M  V30 1997 H 184.303 0.156845 -0.811991 0
M  V30 1998 H 186.849 -0.441494 -1.63856 0
M  V30 1999 H 185.621 -0.693571 -3.85104 0
M  V30 2000 H 185.244 1.02142 -3.84256 0
M  V30 2001 N 186.241 1.57166 -0.116904 0
M  V30 2002 C 187.188 2.15202 0.83408 0
M  V30 2003 C 188.158 1.07644 1.26499 0
M  V30 2004 O 189.343 1.35541 1.34288 0
M  V30 2005 C 186.483 2.75405 2.07957 0
M  V30 2006 C 185.596 3.97264 1.69721 0
M  V30 2007 C 184.731 4.45561 2.89221 0
M  V30 2008 C 183.77 5.59956 2.47215 0
M  V30 2009 N 182.907 6.03006 3.59622 0
M  V30 2010 H 187.747 2.96141 0.332335 0
M  V30 2011 H 185.284 1.46309 0.152349 0
M  V30 2012 H 187.242 3.08439 2.80929 0
M  V30 2013 H 185.872 1.97159 2.55594 0
M  V30 2014 H 184.924 3.70404 0.866316 0
M  V30 2015 H 186.236 4.80226 1.34849 0
M  V30 2016 H 185.39 4.80493 3.7042 0
M  V30 2017 H 184.129 3.61544 3.27318 0
M  V30 2018 H 183.134 5.2463 1.64448 0
M  V30 2019 H 184.359 6.45738 2.10238 0
M  V30 2020 H 182.305 5.21931 3.97396 0
M  V30 2021 H 182.222 6.80819 3.28667 0
M  V30 2022 H 183.49 6.42576 4.41267 0
M  V30 2023 N 187.719 -0.156864 1.56817 0
M  V30 2024 C 188.965 -0.872416 1.83076 0
M  V30 2025 C 189.298 -1.81261 0.697001 0
M  V30 2026 O 188.573 -1.92171 -0.30008 0
M  V30 2027 C 188.856 -1.65551 3.19789 0
M  V30 2028 C 188.709 -0.737467 4.43713 0
M  V30 2029 C 190.028 -2.62012 3.53606 0
M  V30 2030 H 187.147 -0.315715 0.665953 0
M  V30 2031 H 189.789 -0.138004 1.89498 0
M  V30 2032 H 187.939 -2.28159 3.14445 0
M  V30 2033 H 189.611 -0.123143 4.61136 0
M  V30 2034 H 187.854 -0.0464067 4.33775 0
M  V30 2035 H 188.525 -1.32122 5.35955 0
M  V30 2036 H 191.001 -2.09525 3.59497 0
M  V30 2037 H 189.877 -3.13861 4.50314 0
M  V30 2038 H 190.138 -3.42902 2.79053 0
M  V30 2039 N 189.197 -1.51736 -0.425897 0
M  V30 2040 C 190.444 -1.6497 -1.17436 0
M  V30 2041 C 190.772 -0.371445 -1.9092 0
M  V30 2042 O 190.027 0.644963 -1.84767 0
M  V30 2043 C 190.326 -2.81103 -2.20717 0
M  V30 2044 C 189.992 -4.19954 -1.64162 0
M  V30 2045 C 188.654 -4.57725 -1.48462 0
M  V30 2046 C 191.006 -5.06552 -1.22696 0
M  V30 2047 C 188.334 -5.79789 -0.897873 0
M  V30 2048 C 190.686 -6.29205 -0.654464 0
M  V30 2049 C 189.35 -6.6574 -0.484456 0
M  V30 2050 H 188.62 -0.603668 -0.429727 0
M  V30 2051 H 191.267 -1.85798 -0.463829 0
M  V30 2052 H 189.572 -2.54542 -2.97852 0
M  V30 2053 H 191.269 -2.8854 -2.78471 0
M  V30 2054 H 187.859 -3.90181 -1.77361 0
M  V30 2055 H 192.043 -4.77968 -1.33642 0
M  V30 2056 H 187.299 -6.06733 -0.75402 0
M  V30 2057 H 191.473 -6.95643 -0.324694 0
M  V30 2058 H 189.1 -7.60195 -0.0276833 0
M  V30 2059 N 190.675 0.682077 -1.42076 0
M  V30 2060 C 192.086 1.26246 -1.37546 0
M  V30 2061 C 192.437 1.96092 -0.0651481 0
M  V30 2062 O 191.562 1.99587 0.836297 0
M  V30 2063 C 192.157 2.29594 -2.49143 0
M  V30 2064 C 190.716 2.83175 -2.47969 0
M  V30 2065 C 189.863 1.57395 -2.28303 0
M  V30 2066 H 192.814 0.475937 -1.51395 0
M  V30 2067 H 192.835 3.11175 -2.18976 0
M  V30 2068 H 192.347 1.78729 -3.44496 0
M  V30 2069 H 190.448 3.3818 -1.56413 0
M  V30 2070 H 190.561 3.32687 -3.44755 0
M  V30 2071 H 188.925 1.83699 -1.76428 0
M  V30 2072 H 189.708 1.08507 -3.25701 0
M  V30 2073 N 192.153 1.28127 0.917671 0
M  V30 2074 C 193.401 1.14825 1.66312 0
M  V30 2075 C 193.722 -0.304379 1.9261 0
M  V30 2076 O 192.992 -1.21149 1.53947 0
M  V30 2077 H 191.572 0.421953 0.616413 0
M  V30 2078 H 194.234 1.608 1.10134 0
M  V30 2079 H 193.33 1.68489 2.62712 0
M  V30 2080 N 193.631 -1.12557 1.10312 0
M  V30 2081 C 194.879 -1.83675 0.843091 0
M  V30 2082 C 195.2 -1.84435 -0.633131 0
M  V30 2083 O 194.47 -1.30657 -1.45964 0
M  V30 2084 H 193.05 -0.680138 0.308904 0
M  V30 2085 H 195.712 -1.36301 1.39313 0
M  V30 2086 H 194.808 -2.87908 1.2048 0
M  V30 2087 N 195.109 -0.891671 -1.2995 0
M  V30 2088 C 196.334 -0.527932 -2.00568 0
M  V30 2089 C 196.759 0.877969 -1.66353 0
M  V30 2090 O 196.117 1.58301 -0.883762 0
M  V30 2091 C 196.165 -0.717745 -3.53385 0
M  V30 2092 O 195.269 0.233376 -4.11739 0
M  V30 2093 H 194.61 -0.20722 -0.630837 0
M  V30 2094 H 197.14 -1.20105 -1.65638 0
M  V30 2095 H 197.15 -0.619307 -4.03272 0
M  V30 2096 H 195.825 -1.74276 -3.77625 0
M  V30 2097 H 194.402 0.0880706 -3.72796 0
M  V30 2098 N 196.587 1.43421 -0.653314 0
M  V30 2099 C 197.537 2.2792 0.060558 0
M  V30 2100 C 198.521 1.39906 0.794677 0
M  V30 2101 O 199.713 1.63536 0.677128 0
M  V30 2102 C 196.842 3.27603 1.0262 0
M  V30 2103 C 195.928 4.23104 0.290551 0
M  V30 2104 N 196.319 5.01031 -0.692967 0
M  V30 2105 C 194.617 4.42816 0.531984 0
M  V30 2106 C 195.318 5.70626 -1.12963 0
M  V30 2107 N 194.294 5.41617 -0.463867 0
M  V30 2108 H 198.096 2.85585 -0.694143 0
M  V30 2109 H 195.61 1.55126 -0.480602 0
M  V30 2110 H 197.607 3.86918 1.55242 0
M  V30 2111 H 196.267 2.71499 1.78096 0
M  V30 2112 H 197.278 5.0669 -1.07169 0
M  V30 2113 H 193.955 3.97782 1.26791 0
M  V30 2114 H 195.345 6.4318 -1.94343 0
M  V30 2115 N 198.065 0.39524 1.52563 0
M  V30 2116 C 199.293 -0.184943 2.06072 0
M  V30 2117 C 199.708 -1.40021 1.26647 0
M  V30 2118 O 199.065 -1.79767 0.314672 0
M  V30 2119 C 199.116 -0.549179 3.57304 0
M  V30 2120 O 198.837 0.617813 4.33722 0
M  V30 2121 C 200.338 -1.18459 4.2718 0
M  V30 2122 H 197.558 -0.0265025 0.670476 0
M  V30 2123 H 200.102 0.562184 1.96621 0
M  V30 2124 H 198.257 -1.2462 3.66809 0
M  V30 2125 H 198.671 0.317091 5.23541 0
M  V30 2126 H 200.145 -1.38976 5.34219 0
M  V30 2127 H 200.622 -2.15368 3.82771 0
M  V30 2128 H 201.228 -0.528163 4.22008 0
M  V30 2129 N 199.544 -1.57102 0.125237 0
M  V30 2130 C 200.774 -1.99472 -0.538015 0
M  V30 2131 C 201.182 -1.00395 -1.60366 0
M  V30 2132 O 200.525 0.0103875 -1.83697 0
M  V30 2133 C 200.587 -3.38262 -1.21734 0
M  V30 2134 C 200.251 -4.56021 -0.298897 0
M  V30 2135 C 201.248 -5.17817 0.464943 0
M  V30 2136 C 198.933 -5.01869 -0.208149 0
M  V30 2137 C 200.927 -6.23852 1.3072 0
M  V30 2138 C 198.614 -6.07763 0.637736 0
M  V30 2139 C 199.612 -6.68622 1.39403 0
M  V30 2140 O 199.3 -7.7247 2.22586 0
M  V30 2141 H 199.032 -0.659934 -0.146501 0
M  V30 2142 H 201.586 -2.04321 0.210267 0
M  V30 2143 H 199.816 -3.30185 -2.01282 0
M  V30 2144 H 201.505 -3.6488 -1.77813 0
M  V30 2145 H 202.271 -4.83308 0.404741 0
M  V30 2146 H 198.15 -4.54241 -0.786522 0
M  V30 2147 H 201.694 -6.71284 1.898 0
M  V30 2148 H 197.591 -6.41701 0.699309 0
M  V30 2149 H 198.359 -7.89595 2.15596 0
M  V30 2150 N 201.022 0.148545 -1.56898 0
M  V30 2151 C 202.268 0.862694 -1.83536 0
M  V30 2152 C 202.601 1.80889 -0.706604 0
M  V30 2153 O 201.876 1.92328 0.289885 0
M  V30 2154 C 202.159 1.63853 -3.20662 0
M  V30 2155 C 202.012 0.713925 -4.44098 0
M  V30 2156 C 203.331 2.60133 -3.54991 0
M  V30 2157 H 200.45 0.312179 -0.667618 0
M  V30 2158 H 203.092 0.127953 -1.89569 0
M  V30 2159 H 201.242 2.26489 -3.1565 0
M  V30 2160 H 202.914 0.098686 -4.61194 0
M  V30 2161 H 201.157 0.0234019 -4.33794 0
M  V30 2162 H 201.828 1.29278 -5.36648 0
M  V30 2163 H 204.304 2.07616 -3.60603 0
M  V30 2164 H 203.18 3.11468 -4.51972 0
M  V30 2165 H 203.441 3.41417 -2.80868 0
M  V30 2166 N 202.5 1.5196 0.417844 0
M  V30 2167 C 203.746 1.66793 1.16411 0
M  V30 2168 C 204.101 0.388758 1.88432 0
M  V30 2169 O 203.394 -0.616409 1.81414 0
M  V30 2170 C 203.588 2.82269 2.19223 0
M  V30 2171 C 203.417 4.21293 1.57297 0
M  V30 2172 C 202.187 4.86948 1.34944 0
M  V30 2173 C 204.385 5.03704 1.03858 0
M  V30 2174 N 202.367 6.1003 0.688195 0
M  V30 2175 C 203.738 6.1795 0.503742 0
M  V30 2176 C 205.793 4.89095 0.932203 0
M  V30 2177 C 204.496 7.19188 -0.127034 0
M  V30 2178 C 206.522 5.90559 0.315293 0
M  V30 2179 C 205.884 7.0409 -0.208906 0
M  V30 2180 H 201.983 0.66407 0.412959 0
M  V30 2181 H 204.567 1.89242 0.457772 0
M  V30 2182 H 202.738 2.61451 2.87225 0
M  V30 2183 H 204.47 2.86183 2.86149 0
M  V30 2184 H 201.225 4.45156 1.61657 0
M  V30 2185 H 201.649 6.75964 0.374449 0
M  V30 2186 H 206.291 4.01557 1.32332 0
M  V30 2187 H 204.009 8.06359 -0.530231 0
M  V30 2188 H 207.595 5.81327 0.234625 0
M  V30 2189 H 206.475 7.81257 -0.67875 0
M  V30 2190 N 203.978 -0.674533 1.42435 0
M  V30 2191 C 204.91 -1.80005 1.41883 0
M  V30 2192 C 205.923 -1.59667 0.31787 0
M  V30 2193 O 207.112 -1.68781 0.580973 0
M  V30 2194 C 204.212 -3.17114 1.19549 0
M  V30 2195 C 203.385 -3.64299 2.42084 0
M  V30 2196 C 202.444 -4.80142 2.15291 0
M  V30 2197 O 201.47 -4.90673 2.88493 0
M  V30 2198 N 202.672 -5.68869 1.1562 0
M  V30 2199 H 205.437 -1.80964 2.38898 0
M  V30 2200 H 202.998 -0.857633 1.37318 0
M  V30 2201 H 204.99 -3.92267 0.995417 0
M  V30 2202 H 203.56 -3.11053 0.310569 0
M  V30 2203 H 202.78 -2.79822 2.77657 0
M  V30 2204 H 204.068 -3.92567 3.23679 0
M  V30 2205 H 203.466 -5.63012 0.550765 0
M  V30 2206 H 202.023 -6.43833 1.016 0
M  V30 2207 N 205.456 -1.28612 -0.910864 0
M  V30 2208 C 206.702 -1.16106 -1.66274 0
M  V30 2209 C 207.035 0.289113 -1.92036 0
M  V30 2210 O 206.31 1.21 -1.52281 0
M  V30 2211 C 206.593 -1.96309 -3.01885 0
M  V30 2212 C 206.446 -3.49405 -2.8326 0
M  V30 2213 C 207.765 -1.78076 -4.02463 0
M  V30 2214 H 204.884 -0.423152 -0.603417 0
M  V30 2215 H 207.526 -1.57961 -1.05586 0
M  V30 2216 H 205.676 -1.60742 -3.53687 0
M  V30 2217 H 207.348 -3.94894 -2.38446 0
M  V30 2218 H 205.591 -3.74893 -2.18261 0
M  V30 2219 H 206.262 -4.00784 -3.79574 0
M  V30 2220 H 208.738 -2.0912 -3.59733 0
M  V30 2221 H 207.614 -2.36561 -4.95308 0
M  V30 2222 H 207.875 -0.733008 -4.35981 0
M  V30 2223 N 206.934 1.1197 -1.10907 0
M  V30 2224 C 207.864 2.19928 -0.784473 0
M  V30 2225 C 208.845 1.6833 0.244726 0
M  V30 2226 O 210.03 1.93892 0.109418 0
M  V30 2227 C 207.16 3.46597 -0.220827 0
M  V30 2228 C 206.114 4.11376 -1.18127 0
M  V30 2229 C 205.44 5.32554 -0.478594 0
M  V30 2230 C 206.74 4.56945 -2.52979 0
M  V30 2231 H 208.434 2.47337 -1.68715 0
M  V30 2232 H 205.98 1.18879 -0.812642 0
M  V30 2233 H 207.933 4.21396 0.0184278 0
M  V30 2234 H 206.657 3.1863 0.717113 0
M  V30 2235 H 205.316 3.38564 -1.40606 0
M  V30 2236 H 204.964 5.00856 0.463976 0
M  V30 2237 H 204.664 5.76844 -1.11912 0
M  V30 2238 H 206.188 6.10096 -0.248 0
M  V30 2239 H 207.602 5.23093 -2.3462 0
M  V30 2240 H 205.999 5.1203 -3.12962 0
M  V30 2241 H 207.069 3.70676 -3.12614 0
M  V30 2242 N 208.412 0.89855 1.29475 0
M  V30 2243 C 209.359 0.373819 2.27753 0
M  V30 2244 C 210.329 -0.543444 1.56958 0
M  V30 2245 O 211.514 -0.468934 1.84948 0
M  V30 2246 C 208.654 -0.393648 3.42848 0
M  V30 2247 C 207.767 0.554379 4.28428 0
M  V30 2248 C 206.902 -0.230026 5.30702 0
M  V30 2249 C 205.941 0.712599 6.07938 0
M  V30 2250 N 205.078 -0.0373283 7.0209 0
M  V30 2251 H 209.918 1.21699 2.72017 0
M  V30 2252 H 207.455 0.611456 1.33789 0
M  V30 2253 H 209.413 -0.85466 4.08352 0
M  V30 2254 H 208.043 -1.20128 2.99615 0
M  V30 2255 H 207.095 1.13391 3.63107 0
M  V30 2256 H 208.407 1.27597 4.82204 0
M  V30 2257 H 207.561 -0.752288 6.02018 0
M  V30 2258 H 206.3 -0.984758 4.77654 0
M  V30 2259 H 205.305 1.24637 5.35486 0
M  V30 2260 H 206.53 1.46664 6.63074 0
M  V30 2261 H 204.476 -0.774348 6.51414 0
M  V30 2262 H 204.393 0.624374 7.53417 0
M  V30 2263 H 205.661 -0.539891 7.77628 0
M  V30 2264 N 209.89 -1.43072 0.660911 0
M  V30 2265 C 210.8 -2.34585 -0.0264163 0
M  V30 2266 C 211.816 -1.54316 -0.803898 0
M  V30 2267 O 212.992 -1.86939 -0.749391 0
M  V30 2268 C 210.057 -3.32689 -0.975639 0
M  V30 2269 C 209.118 -4.2886 -0.194236 0
M  V30 2270 C 208.351 -5.22278 -1.09825 0
M  V30 2271 O 208.574 -5.20299 -2.33763 0
M  V30 2272 O 207.508 -5.99228 -0.566513 0
M  V30 2273 H 211.334 -2.94869 0.727034 0
M  V30 2274 H 208.919 -1.43342 0.42111 0
M  V30 2275 H 210.801 -3.92995 -1.52094 0
M  V30 2276 H 209.476 -2.74898 -1.70918 0
M  V30 2277 H 208.383 -3.72011 0.394835 0
M  V30 2278 H 209.716 -4.89655 0.499899 0
M  V30 2279 N 211.368 -0.403325 -1.52352 0
M  V30 2280 C 212.316 0.439752 -2.28405 0
M  V30 2281 C 213.31 1.05089 -1.32863 0
M  V30 2282 O 214.516 0.989759 -1.50345 0
M  V30 2283 H 210.891 0.160587 -0.734653 0
M  V30 2284 H 212.862 -0.222983 -2.97566 0
M  V30 2285 C 211.611 1.54736 -3.11371 0
M  V30 2286 H 210.934 1.08643 -3.84755 0
M  V30 2287 H 212.374 2.1112 -3.67701 0
M  V30 2288 C 210.833 2.51141 -2.24566 0
M  V30 2289 O 211.363 3.54887 -1.88196 0
M  V30 2290 N 209.569 2.21213 -1.8845 0
M  V30 2291 H 209.116 1.36878 -2.18225 0
M  V30 2292 H 209.074 2.85963 -1.30662 0
M  V30 2293 N 212.846 1.57033 -0.133567 0
M  V30 2294 C 214.094 1.953 0.519848 0
M  V30 2295 C 214.415 1.01866 1.66278 0
M  V30 2296 O 213.685 0.0776513 1.95746 0
M  V30 2297 H 212.265 0.721091 0.195032 0
M  V30 2298 H 214.927 1.93809 -0.205921 0
M  V30 2299 H 214.023 2.98695 0.904854 0
M  V30 2300 N 214.325 -0.140222 1.56975 0
M  V30 2301 C 215.736 -0.699596 1.73097 0
M  V30 2302 C 216.087 -1.8134 0.749022 0
M  V30 2303 O 215.212 -2.16241 -0.0828503 0
M  V30 2304 C 215.807 -1.27582 3.1386 0
M  V30 2305 C 214.366 -1.78169 3.31561 0
M  V30 2306 C 213.513 -0.672855 2.69013 0
M  V30 2307 H 216.464 0.0855115 1.58469 0
M  V30 2308 H 216.485 -2.14561 3.14235 0
M  V30 2309 H 215.997 -0.464955 3.85305 0
M  V30 2310 H 214.098 -2.61801 2.65124 0
M  V30 2311 H 214.211 -1.90574 4.39566 0
M  V30 2312 H 212.575 -1.10118 2.29665 0
M  V30 2313 H 213.358 0.126679 3.43066 0
M  V30 2314 N 215.803 -1.52179 -0.40978 0
M  V30 2315 C 216.736 -1.70196 -1.52015 0
M  V30 2316 C 217.714 -0.549542 -1.53032 0
M  V30 2317 O 218.898 -0.776815 -1.71749 0
M  V30 2318 C 216.025 -1.74069 -2.90547 0
M  V30 2319 C 215.071 -2.95601 -3.07445 0
M  V30 2320 S 215.904 -4.55956 -2.80827 0
M  V30 2321 C 217.06 -4.62614 -4.21591 0
M  V30 2322 H 217.293 -2.64109 -1.36504 0
M  V30 2323 H 214.826 -1.4221 -0.601312 0
M  V30 2324 H 216.784 -1.76985 -3.70387 0
M  V30 2325 H 215.445 -0.812835 -3.034 0
M  V30 2326 H 214.638 -2.94791 -4.08796 0
M  V30 2327 H 214.24 -2.90569 -2.35469 0
M  V30 2328 H 216.532 -4.39951 -5.15218 0
M  V30 2329 H 217.475 -5.64548 -4.27424 0
M  V30 2330 H 217.883 -3.91654 -4.06531 0
M  V30 2331 N 217.281 0.66697 -1.42791 0
M  V30 2332 C 218.244 1.76211 -1.46568 0
M  V30 2333 C 219.244 1.56896 -0.352196 0
M  V30 2334 O 220.434 1.63044 -0.613364 0
M  V30 2335 C 217.566 3.14935 -1.30494 0
M  V30 2336 H 218.759 1.74247 -2.44086 0
M  V30 2337 H 216.312 0.877342 -1.29354 0
M  V30 2338 H 217.047 3.2252 -0.339301 0
M  V30 2339 H 216.832 3.30359 -2.11199 0
M  V30 2340 H 218.322 3.94821 -1.36038 0
M  V30 2341 N 218.759 1.29093 0.90403 0
M  V30 2342 C 219.984 1.19809 1.69294 0
M  V30 2343 C 220.409 -0.238481 1.86582 0
M  V30 2344 O 219.767 -1.1723 1.383 0
M  V30 2345 C 219.815 1.91202 3.05736 0
M  V30 2346 O 218.919 1.22611 3.93752 0
M  V30 2347 H 218.26 0.415385 0.518027 0
M  V30 2348 H 220.79 1.70586 1.12967 0
M  V30 2349 H 220.8 1.99487 3.55906 0
M  V30 2350 H 219.475 2.95692 2.92471 0
M  V30 2351 H 218.052 1.22554 3.52186 0
M  V30 2352 N 220.237 -1.11381 1.11499 0
M  V30 2353 C 221.514 -1.7955 0.775965 0
M  V30 2354 C 221.894 -1.97859 -0.73588 0
M  V30 2355 O 221.242 -1.56376 -1.66609 0
M  V30 2356 C 221.452 -3.13196 1.53977 0
M  V30 2357 C 222.8 -3.88227 1.71944 0
M  V30 2358 O 223.824 -3.22887 1.50407 0
M  V30 2359 O 222.683 -5.05477 2.07738 0
M  V30 2360 H 219.777 -0.777728 0.28119 0
M  V30 2361 H 222.323 -1.18118 1.21845 0
M  V30 2362 H 221.095 -2.95229 2.56818 0
M  V30 2363 H 220.718 -3.82342 1.09088 0
M  V30 2364 N 221.715 -0.905404 -1.28997 0
M  V30 2365 C 223.126 -0.581953 -1.77398 0
M  V30 2366 C 223.477 0.902552 -1.74208 0
M  V30 2367 O 222.602 1.70584 -1.33154 0
M  V30 2368 C 223.197 -1.04961 -3.22131 0
M  V30 2369 C 221.756 -0.777229 -3.68288 0
M  V30 2370 C 220.903 -1.22109 -2.48967 0
M  V30 2371 H 223.854 -1.08754 -1.15578 0
M  V30 2372 H 223.875 -0.387387 -3.78523 0
M  V30 2373 H 223.387 -2.13008 -3.24421 0
M  V30 2374 H 221.488 0.290383 -3.71467 0
M  V30 2375 H 221.601 -1.37911 -4.58822 0
M  V30 2376 H 219.965 -0.639971 -2.46529 0
M  V30 2377 H 220.748 -2.30972 -2.53982 0
M  V30 2378 N 223.193 1.4272 -0.668489 0
M  V30 2379 C 224.123 2.335 -0.000100175 0
M  V30 2380 C 225.104 1.50328 0.795964 0
M  V30 2381 O 226.289 1.78949 0.754385 0
M  V30 2382 C 223.419 3.33874 0.956302 0
M  V30 2383 C 222.373 4.27152 0.269278 0
M  V30 2384 C 221.699 5.17684 1.33818 0
M  V30 2385 C 222.999 5.15373 -0.847805 0
M  V30 2386 H 224.693 2.89639 -0.758244 0
M  V30 2387 H 222.239 1.39269 -0.366079 0
M  V30 2388 H 224.192 3.9629 1.43292 0
M  V30 2389 H 222.916 2.76025 1.74579 0
M  V30 2390 H 221.575 3.66123 -0.187042 0
M  V30 2391 H 221.223 4.56165 2.1195 0
M  V30 2392 H 220.923 5.80918 0.883659 0
M  V30 2393 H 222.447 5.82974 1.81586 0
M  V30 2394 H 223.861 5.7151 -0.452681 0
M  V30 2395 H 222.258 5.87407 -1.22773 0
M  V30 2396 H 223.328 4.5415 -1.69929 0
M  V30 2397 N 224.671 0.411399 1.52136 0
M  V30 2398 C 225.911 -0.163143 2.03748 0
M  V30 2399 C 226.275 -1.42187 1.29022 0
M  V30 2400 O 227.476 -2.075 1.70872 0
M  V30 2401 C 225.747 -0.402651 3.55125 0
M  V30 2402 S 227.306 -0.944315 4.28519 0
M  V30 2403 H 224.124 -0.0439833 0.709638 0
M  V30 2404 H 226.726 0.56484 1.87163 0
M  V30 2405 H 225.43 0.520212 4.0709 0
M  V30 2406 H 224.961 -1.15844 3.75957 0
M  V30 2407 H 226.976 -2.22463 4.43536 0
M  V30 2408 N 226.149 -1.5696 0.141893 0
M  V30 2409 C 227.079 -2.19516 -0.795936 0
M  V30 2410 C 228.06 -1.14187 -1.26077 0
M  V30 2411 O 229.245 -1.42511 -1.31925 0
M  V30 2412 C 226.375 -2.81272 -2.03723 0
M  V30 2413 C 225.329 -3.92384 -1.70936 0
M  V30 2414 C 224.655 -4.41052 -3.02287 0
M  V30 2415 C 225.955 -5.13403 -0.959954 0
M  V30 2416 H 227.649 -2.98138 -0.274596 0
M  V30 2417 H 225.195 -1.43406 -0.130636 0
M  V30 2418 H 227.148 -3.237 -2.69808 0
M  V30 2419 H 225.872 -1.99973 -2.58221 0
M  V30 2420 H 224.531 -3.50566 -1.07232 0
M  V30 2421 H 224.179 -3.56582 -3.54765 0
M  V30 2422 H 223.879 -5.15993 -2.81114 0
M  V30 2423 H 225.403 -4.86146 -3.69451 0
M  V30 2424 H 226.817 -5.52706 -1.52279 0
M  V30 2425 H 225.214 -5.94073 -0.848357 0
M  V30 2426 H 226.284 -4.84875 0.0492434 0
M  V30 2427 N 227.627 0.131896 -1.57047 0
M  V30 2428 C 228.855 0.856461 -1.88341 0
M  V30 2429 C 229.27 1.74042 -0.731757 0
M  V30 2430 O 228.627 1.80051 0.297945 0
M  V30 2431 C 228.678 1.70064 -3.18999 0
M  V30 2432 O 228.399 0.852278 -4.2973 0
M  V30 2433 C 229.9 2.53148 -3.63911 0
M  V30 2434 H 227.12 0.246885 -0.62393 0
M  V30 2435 H 229.664 0.120152 -2.04147 0
M  V30 2436 H 227.819 2.38984 -3.04902 0
M  V30 2437 H 228.233 1.43329 -5.04537 0
M  V30 2438 H 229.707 3.07931 -4.58129 0
M  V30 2439 H 230.184 3.29901 -2.89935 0
M  V30 2440 H 230.79 1.89492 -3.80753 0
M  V30 2441 N 229.106 1.52395 0.401703 0
M  V30 2442 C 230.336 1.70429 1.1678 0
M  V30 2443 C 230.744 0.416702 1.84554 0
M  V30 2444 O 230.087 -0.617697 1.73003 0
M  V30 2445 C 230.149 2.78919 2.26814 0
M  V30 2446 C 229.813 4.20437 1.79113 0
M  V30 2447 C 230.81 5.04028 1.27482 0
M  V30 2448 C 228.495 4.66704 1.85722 0
M  V30 2449 C 230.489 6.31961 0.830913 0
M  V30 2450 C 228.176 5.94625 1.40942 0
M  V30 2451 C 229.174 6.77082 0.897128 0
M  V30 2452 O 228.862 8.02607 0.455822 0
M  V30 2453 H 228.594 0.574272 0.356634 0
M  V30 2454 H 231.148 1.99767 0.477724 0
M  V30 2455 H 229.378 2.44973 2.99207 0
M  V30 2456 H 231.067 2.8548 2.88541 0
M  V30 2457 H 231.833 4.69471 1.21744 0
M  V30 2458 H 227.712 4.0262 2.24539 0
M  V30 2459 H 231.256 6.96271 0.430368 0
M  V30 2460 H 227.153 6.28688 1.46362 0
M  V30 2461 H 227.921 8.16453 0.578457 0
M  V30 2462 N 230.584 -0.659388 1.43143 0
M  V30 2463 C 231.809 -1.45221 1.48073 0
M  V30 2464 C 232.234 -1.87845 0.097995 0
M  V30 2465 O 231.592 -1.56985 -0.90694 0
M  V30 2466 C 231.64 -2.66748 2.42647 0
M  V30 2467 O 230.744 -3.65583 1.90848 0
M  V30 2468 H 230.085 -0.435669 0.501088 0
M  V30 2469 H 232.615 -0.807432 1.87994 0
M  V30 2470 H 232.625 -3.14637 2.59745 0
M  V30 2471 H 231.3 -2.35067 3.43098 0
M  V30 2472 H 229.877 -3.24693 1.83381 0
M  V30 2473 N 232.062 -1.29571 -0.897171 0
M  V30 2474 C 233.292 -1.20408 -1.67886 0
M  V30 2475 C 233.7 0.237429 -1.87704 0
M  V30 2476 O 233.043 1.17048 -1.41582 0
M  V30 2477 C 233.105 -1.84887 -3.08314 0
M  V30 2478 C 232.769 -3.34189 -3.11716 0
M  V30 2479 C 233.766 -4.30374 -2.91675 0
M  V30 2480 C 231.451 -3.75431 -3.33701 0
M  V30 2481 C 233.445 -5.65776 -2.93557 0
M  V30 2482 C 231.132 -5.10955 -3.35214 0
M  V30 2483 C 232.13 -6.05938 -3.15164 0
M  V30 2484 O 231.818 -7.38987 -3.1647 0
M  V30 2485 H 231.55 -0.418289 -0.531046 0
M  V30 2486 H 234.104 -1.71514 -1.13014 0
M  V30 2487 H 232.334 -1.28295 -3.64798 0
M  V30 2488 H 234.023 -1.70011 -3.6858 0
M  V30 2489 H 234.789 -3.99844 -2.74499 0
M  V30 2490 H 230.668 -3.01953 -3.48347 0
M  V30 2491 H 234.212 -6.39889 -2.77826 0
M  V30 2492 H 230.109 -5.4113 -3.51922 0
M  V30 2493 H 230.877 -7.47823 -3.3272 0
M  V30 2494 N 233.54 1.10788 -1.12088 0
M  V30 2495 C 234.47 2.19083 -0.807755 0
M  V30 2496 C 235.451 1.6858 0.226859 0
M  V30 2497 O 236.636 1.93997 0.0888475 0
M  V30 2498 C 233.766 3.46344 -0.257576 0
M  V30 2499 C 232.72 4.101 -1.22483 0
M  V30 2500 C 232.046 5.32016 -0.535052 0
M  V30 2501 C 233.346 4.54236 -2.57811 0
M  V30 2502 H 235.04 2.45534 -1.71328 0
M  V30 2503 H 232.586 1.1801 -0.825205 0
M  V30 2504 H 234.539 4.21392 -0.0262679 0
M  V30 2505 H 233.263 3.19373 0.683278 0
M  V30 2506 H 231.922 3.37054 -1.44189 0
M  V30 2507 H 231.57 5.01319 0.410827 0
M  V30 2508 H 231.27 5.75625 -1.18024 0
M  V30 2509 H 232.794 6.09799 -0.312695 0
M  V30 2510 H 234.208 5.20575 -2.40155 0
M  V30 2511 H 232.605 5.08682 -3.18375 0
M  V30 2512 H 233.675 3.6734 -3.16528 0
M  V30 2513 N 235.018 0.912232 1.28515 0
M  V30 2514 C 236.243 0.559774 1.99703 0
M  V30 2515 C 236.668 -0.851393 1.67729 0
M  V30 2516 O 236.026 -1.56875 0.908834 0
M  V30 2517 C 236.074 0.773874 3.52198 0
M  V30 2518 O 235.178 -0.167842 4.12058 0
M  V30 2519 H 234.519 0.21723 0.627461 0
M  V30 2520 H 237.049 1.22725 1.63706 0
M  V30 2521 H 237.059 0.683386 4.02236 0
M  V30 2522 H 235.734 1.80261 3.74805 0
M  V30 2523 H 234.311 -0.0287509 3.72889 0
M  V30 2524 N 236.496 -1.42363 0.676048 0
M  V30 2525 C 237.446 -2.27987 -0.0242903 0
M  V30 2526 C 238.43 -1.41153 -0.772319 0
M  V30 2527 O 239.622 -1.64592 -0.651025 0
M  V30 2528 C 236.751 -3.29195 -0.973953 0
M  V30 2529 C 235.837 -4.23512 -0.223202 0
M  V30 2530 N 236.228 -4.99865 0.772589 0
M  V30 2531 C 234.526 -4.43606 -0.461469 0
M  V30 2532 C 235.227 -5.68757 1.22027 0
M  V30 2533 N 234.203 -5.40811 0.549975 0
M  V30 2534 H 238.005 -2.84445 0.73949 0
M  V30 2535 H 235.519 -1.54341 0.50522 0
M  V30 2536 H 237.516 -3.89339 -1.49067 0
M  V30 2537 H 236.176 -2.74298 -1.73755 0
M  V30 2538 H 237.187 -5.04921 1.15217 0
M  V30 2539 H 233.864 -3.99749 -1.20446 0
M  V30 2540 H 235.254 -6.40007 2.0455 0
M  V30 2541 N 237.974 -0.419461 -1.51915 0
M  V30 2542 C 239.22 0.153166 -2.02221 0
M  V30 2543 C 239.553 1.43907 -1.30401 0
M  V30 2544 O 238.828 1.90055 -0.413438 0
M  V30 2545 C 239.111 0.390291 -3.57979 0
M  V30 2546 C 238.964 -0.913014 -4.40436 0
M  V30 2547 C 240.283 1.16794 -4.2432 0
M  V30 2548 H 237.402 0.0541924 -0.735005 0
M  V30 2549 H 240.044 -0.554955 -1.81715 0
M  V30 2550 H 238.194 0.993491 -3.75582 0
M  V30 2551 H 239.866 -1.54882 -4.34522 0
M  V30 2552 H 238.109 -1.52168 -4.06236 0
M  V30 2553 H 238.78 -0.701361 -5.47526 0
M  V30 2554 H 241.256 0.657161 -4.10878 0
M  V30 2555 H 240.132 1.3026 -5.3322 0
M  V30 2556 H 240.393 2.19132 -3.83971 0
M  V30 2557 N 239.452 1.56882 -0.150215 0
M  V30 2558 C 240.729 1.87844 0.545327 0
M  V30 2559 C 241.109 1.0567 1.82749 0
M  V30 2560 O 240.457 0.144442 2.28043 0
M  V30 2561 C 240.667 3.39526 0.80767 0
M  V30 2562 C 242.015 4.08814 1.14703 0
M  V30 2563 O 243.039 3.44723 0.896917 0
M  V30 2564 O 241.898 5.22004 1.61784 0
M  V30 2565 H 238.992 0.778677 0.278553 0
M  V30 2566 H 241.538 1.68666 -0.187068 0
M  V30 2567 H 240.31 3.91173 -0.0996096 0
M  V30 2568 H 239.933 3.64243 1.59413 0
M  V30 2569 N 240.93 -0.123565 1.57115 0
M  V30 2570 C 241.86 -1.15309 2.03042 0
M  V30 2571 C 242.841 -1.43454 0.914061 0
M  V30 2572 O 244.026 -1.53973 1.18347 0
M  V30 2573 C 241.156 -2.48043 2.43089 0
M  V30 2574 C 240.11 -2.3437 3.58127 0
M  V30 2575 C 239.436 -3.72026 3.84059 0
M  V30 2576 C 240.736 -1.80804 4.90007 0
M  V30 2577 H 242.43 -0.771102 2.893 0
M  V30 2578 H 239.976 -0.369479 1.39179 0
M  V30 2579 H 241.929 -3.20311 2.73823 0
M  V30 2580 H 240.653 -2.88122 1.53796 0
M  V30 2581 H 239.312 -1.64551 3.27595 0
M  V30 2582 H 238.96 -4.09582 2.91979 0
M  V30 2583 H 238.66 -3.63732 4.6149 0
M  V30 2584 H 240.184 -4.45806 4.1724 0
M  V30 2585 H 241.598 -2.42886 5.19307 0
M  V30 2586 H 239.995 -1.83343 5.71407 0
M  V30 2587 H 241.065 -0.76528 4.78823 0
M  V30 2588 N 242.408 -1.52605 -0.393616 0
M  V30 2589 C 243.654 -1.67672 -1.14079 0
M  V30 2590 C 243.987 -0.413121 -1.89755 0
M  V30 2591 O 243.262 0.588952 -1.85369 0
M  V30 2592 C 243.545 -2.9088 -2.12276 0
M  V30 2593 C 243.398 -4.27329 -1.40394 0
M  V30 2594 C 244.717 -3.09628 -3.12759 0
M  V30 2595 H 241.836 -0.610168 -0.413356 0
M  V30 2596 H 244.478 -1.85193 -0.424696 0
M  V30 2597 H 242.628 -2.76073 -2.73342 0
M  V30 2598 H 244.3 -4.53894 -0.82327 0
M  V30 2599 H 242.543 -4.2802 -0.705801 0
M  V30 2600 H 243.214 -5.09615 -2.12123 0
M  V30 2601 H 245.69 -3.23436 -2.61779 0
M  V30 2602 H 244.566 -3.97322 -3.78717 0
M  V30 2603 H 244.827 -2.23637 -3.81365 0
M  V30 2604 N 243.887 0.651787 -1.4349 0
M  V30 2605 C 244.834 1.76462 -1.4876 0
M  V30 2606 C 245.804 1.62641 -0.337189 0
M  V30 2607 O 246.989 1.82864 -0.544544 0
M  V30 2608 C 244.129 3.14623 -1.41796 0
M  V30 2609 C 243.242 3.39568 -2.67053 0
M  V30 2610 C 242.377 4.67585 -2.52068 0
M  V30 2611 C 241.416 4.85639 -3.72587 0
M  V30 2612 N 240.553 6.04915 -3.56402 0
M  V30 2613 H 245.393 1.71293 -2.43849 0
M  V30 2614 H 242.93 0.835889 -1.21043 0
M  V30 2615 H 244.888 3.94496 -1.35753 0
M  V30 2616 H 243.518 3.18859 -0.50288 0
M  V30 2617 H 242.57 2.53783 -2.8337 0
M  V30 2618 H 243.882 3.48795 -3.56572 0
M  V30 2619 H 243.036 5.55586 -2.4374 0
M  V30 2620 H 241.775 4.60681 -1.60075 0
M  V30 2621 H 240.78 3.96073 -3.81321 0
M  V30 2622 H 242.005 4.94372 -4.65589 0
M  V30 2623 H 239.951 5.9914 -2.67146 0
M  V30 2624 H 239.868 6.15106 -4.39524 0
M  V30 2625 H 241.136 6.95533 -3.51929 0
M  V30 2626 N 245.365 1.30045 0.890287 0
M  V30 2627 C 246.642 1.09227 1.62262 0
M  V30 2628 C 247.022 -0.360305 2.08002 0
M  V30 2629 O 246.37 -1.35084 1.84295 0
M  V30 2630 C 246.58 2.08835 2.79623 0
M  V30 2631 C 247.928 2.40266 3.50082 0
M  V30 2632 O 248.952 2.07104 2.89804 0
M  V30 2633 O 247.811 2.96967 4.58773 0
M  V30 2634 H 244.905 0.419132 0.712922 0
M  V30 2635 H 247.451 1.41451 0.937529 0
M  V30 2636 H 246.223 3.06633 2.43089 0
M  V30 2637 H 245.846 1.77397 3.55832 0
M  V30 2638 N 246.843 -1.10192 1.12674 0
M  V30 2639 C 247.773 -2.18652 0.819362 0
M  V30 2640 C 248.754 -1.68698 -0.217915 0
M  V30 2641 O 249.939 -1.94041 -0.0785581 0
M  V30 2642 C 247.069 -3.46202 0.27594 0
M  V30 2643 C 246.023 -4.09444 1.24656 0
M  V30 2644 C 245.349 -5.31725 0.563258 0
M  V30 2645 C 246.649 -4.52863 2.60217 0
M  V30 2646 H 248.343 -2.44622 1.72628 0
M  V30 2647 H 245.889 -1.17571 0.831451 0
M  V30 2648 H 247.842 -4.21372 0.0486149 0
M  V30 2649 H 246.566 -3.1973 -0.666331 0
M  V30 2650 H 245.225 -3.36284 1.45974 0
M  V30 2651 H 244.873 -5.0153 -0.384235 0
M  V30 2652 H 244.573 -5.74991 1.21075 0
M  V30 2653 H 246.097 -6.09624 0.34503 0
M  V30 2654 H 247.511 -5.19294 2.42913 0
M  V30 2655 H 245.908 -5.06986 3.21068 0
M  V30 2656 H 246.978 -3.65656 3.18471 0
M  V30 2657 N 248.321 -0.919034 -1.28029 0
M  V30 2658 C 249.269 -0.401753 -2.29104 0
M  V30 2659 C 250.263 0.509354 -1.61561 0
M  V30 2660 O 251.469 0.390014 -1.75724 0
M  V30 2661 H 247.844 -0.111331 -0.743713 0
M  V30 2662 H 249.815 -1.2672 -2.70156 0
M  V30 2663 C 248.564 0.338148 -3.46052 0
M  V30 2664 H 247.887 -0.353732 -3.98232 0
M  V30 2665 H 249.327 0.664653 -4.18758 0
M  V30 2666 C 247.786 1.54798 -2.99231 0
M  V30 2667 O 248.316 2.64696 -3.02157 0
M  V30 2668 N 246.522 1.3968 -2.54829 0
M  V30 2669 H 246.069 0.502698 -2.52647 0
M  V30 2670 H 246.027 2.20755 -2.23863 0
M  V30 2671 N 249.799 1.42003 -0.683588 0
M  V30 2672 C 251.024 2.06265 -0.216647 0
M  V30 2673 C 251.449 1.51059 1.12083 0
M  V30 2674 O 250.807 0.632638 1.69904 0
M  V30 2675 C 250.855 3.60191 -0.171759 0
M  V30 2676 O 249.959 4.03396 0.857069 0
M  V30 2677 H 249.3 0.65502 -0.108834 0
M  V30 2678 H 251.83 1.81982 -0.935077 0
M  V30 2679 H 251.84 4.08 0.0014303 0
M  V30 2680 H 250.515 3.99743 -1.14796 0
M  V30 2681 H 249.092 3.67117 0.654208 0
M  V30 2682 N 251.277 0.427512 1.51691 0
M  V30 2683 C 252.525 -0.141948 2.01601 0
M  V30 2684 C 252.846 -1.44067 1.31414 0
M  V30 2685 O 252.116 -1.90763 0.445658 0
M  V30 2686 H 250.696 -0.0554468 0.744939 0
M  V30 2687 H 253.358 0.567968 1.86441 0
M  V30 2688 H 252.454 -0.324913 3.10404 0
M  V30 2689 N 252.755 -1.56801 0.158532 0
M  V30 2690 C 253.685 -2.20347 -0.772609 0
M  V30 2691 C 254.666 -1.15518 -1.24859 0
M  V30 2692 O 255.851 -1.43902 -1.30406 0
M  V30 2693 C 252.981 -2.83417 -2.00729 0
M  V30 2694 C 251.935 -3.94174 -1.66765 0
M  V30 2695 C 251.261 -4.44233 -2.97592 0
M  V30 2696 C 252.561 -5.14392 -0.905447 0
M  V30 2697 H 254.255 -2.98413 -0.242959 0
M  V30 2698 H 251.801 -1.43537 -0.115419 0
M  V30 2699 H 253.754 -3.26543 -2.6636 0
M  V30 2700 H 252.478 -2.02701 -2.56086 0
M  V30 2701 H 251.137 -3.51684 -1.03508 0
M  V30 2702 H 250.785 -3.60325 -3.50963 0
M  V30 2703 H 250.485 -5.18945 -2.75626 0
M  V30 2704 H 252.009 -4.90037 -3.64274 0
M  V30 2705 H 253.423 -5.5429 -1.46408 0
M  V30 2706 H 251.82 -5.9494 -0.7853 0
M  V30 2707 H 252.89 -4.84795 0.100668 0
M  V30 2708 N 254.233 0.115231 -1.57178 0
M  V30 2709 C 255.482 0.820945 -1.84237 0
M  V30 2710 C 255.795 1.80866 -0.744761 0
M  V30 2711 O 257.001 2.56083 -0.901871 0
M  V30 2712 C 255.457 1.51072 -3.26658 0
M  V30 2713 C 255.065 0.563795 -4.44438 0
M  V30 2714 C 256.809 2.20134 -3.62962 0
M  V30 2715 C 254.716 1.25701 -5.77887 0
M  V30 2716 H 253.646 0.310328 -0.687177 0
M  V30 2717 H 256.297 0.0737134 -1.83352 0
M  V30 2718 H 254.679 2.30471 -3.22024 0
M  V30 2719 H 255.853 -0.197247 -4.60378 0
M  V30 2720 H 254.168 -0.0200638 -4.16395 0
M  V30 2721 H 256.765 2.72696 -4.59936 0
M  V30 2722 H 257.108 2.98107 -2.90582 0
M  V30 2723 H 257.641 1.47619 -3.69396 0
M  V30 2724 H 254.38 0.518493 -6.53446 0
M  V30 2725 H 253.9 1.98997 -5.65827 0
M  V30 2726 H 255.579 1.78915 -6.2177 0
M  V30 2727 N 255.711 1.52812 0.385517 0
M  V30 2728 C 256.959 1.67694 1.12797 0
M  V30 2729 C 257.28 0.421115 1.90399 0
M  V30 2730 O 256.55 -0.564551 1.87589 0
M  V30 2731 H 255.13 0.618155 0.419396 0
M  V30 2732 H 257.792 1.89938 0.436972 0
M  V30 2733 H 256.888 2.52896 1.82894 0
M  V30 2734 N 257.189 -0.644168 1.43834 0
M  V30 2735 C 258.152 -1.73857 1.49353 0
M  V30 2736 C 259.152 -1.56315 0.377112 0
M  V30 2737 O 260.342 -1.62048 0.639226 0
M  V30 2738 C 257.474 -3.12819 1.35488 0
M  V30 2739 H 258.667 -1.70342 2.46827 0
M  V30 2740 H 256.22 -0.856652 1.30733 0
M  V30 2741 H 256.955 -3.2194 0.390569 0
M  V30 2742 H 256.74 -3.26958 2.16428 0
M  V30 2743 H 258.23 -3.92606 1.42302 0
M  V30 2744 N 258.668 -1.30515 -0.883378 0
M  V30 2745 C 259.598 -1.19607 -2.00541 0
M  V30 2746 C 260.579 -0.086346 -1.69881 0
M  V30 2747 O 261.764 -0.268654 -1.92333 0
M  V30 2748 C 258.894 -0.888758 -3.35736 0
M  V30 2749 C 257.848 -1.95659 -3.8066 0
M  V30 2750 C 257.174 -1.50224 -5.13164 0
M  V30 2751 C 258.474 -3.36788 -3.99213 0
M  V30 2752 H 260.168 -2.13476 -2.09925 0
M  V30 2753 H 257.714 -1.02775 -1.00863 0
M  V30 2754 H 259.667 -0.799094 -4.13754 0
M  V30 2755 H 258.391 0.0856125 -3.26488 0
M  V30 2756 H 257.05 -2.03591 -3.04871 0
M  V30 2757 H 256.698 -0.516092 -5.00345 0
M  V30 2758 H 256.398 -2.2165 -5.44192 0
M  V30 2759 H 257.922 -1.42639 -5.93706 0
M  V30 2760 H 259.336 -3.31605 -4.67665 0
M  V30 2761 H 257.733 -4.06314 -4.41621 0
M  V30 2762 H 258.803 -3.78561 -3.03017 0
M  V30 2763 N 260.146 1.09593 -1.13257 0
M  V30 2764 C 261.076 2.18214 -0.830946 0
M  V30 2765 C 262.057 1.68812 0.208966 0
M  V30 2766 O 263.242 1.9408 0.0682666 0
M  V30 2767 C 260.372 3.46051 -0.294296 0
M  V30 2768 C 259.326 4.08778 -1.26826 0
M  V30 2769 C 258.652 5.31419 -0.591449 0
M  V30 2770 C 259.952 4.51476 -2.62615 0
M  V30 2771 H 261.646 2.43703 -1.73923 0
M  V30 2772 H 259.192 1.17128 -0.837675 0
M  V30 2773 H 261.145 4.2134 -0.0709606 0
M  V30 2774 H 259.869 3.20079 0.649366 0
M  V30 2775 H 258.528 3.35505 -1.47756 0
M  V30 2776 H 258.176 5.01727 0.357633 0
M  V30 2777 H 257.876 5.74341 -1.24123 0
M  V30 2778 H 259.4 6.09433 -0.377355 0
M  V30 2779 H 260.814 5.17999 -2.45663 0
M  V30 2780 H 259.211 5.05277 -3.23752 0
M  V30 2781 H 260.281 3.63962 -3.20406 0
M  V30 2782 N 261.624 0.925811 1.2754 0
M  V30 2783 C 262.87 0.566092 1.94739 0
M  V30 2784 C 263.203 -0.890057 1.72603 0
M  V30 2785 O 262.478 -1.63467 1.05399 0
M  V30 2786 C 262.761 0.89054 3.48915 0
M  V30 2787 C 262.614 2.4003 3.80402 0
M  V30 2788 C 263.933 0.395101 4.38323 0
M  V30 2789 H 261.052 0.20714 0.707292 0
M  V30 2790 H 263.694 1.15725 1.50691 0
M  V30 2791 H 261.844 0.387452 3.86563 0
M  V30 2792 H 263.516 2.97494 3.52555 0
M  V30 2793 H 261.759 2.85028 3.2702 0
M  V30 2794 H 262.43 2.57785 4.8811 0
M  V30 2795 H 264.906 0.826241 4.07814 0
M  V30 2796 H 263.782 0.651086 5.45025 0
M  V30 2797 H 264.043 -0.704798 4.36446 0
M  V30 2798 N 263.102 -1.41638 0.69111 0
M  V30 2799 C 264.342 -2.03166 0.224291 0
M  V30 2800 C 264.706 -1.53537 -1.15284 0
M  V30 2801 O 265.907 -2.0696 -1.71525 0
M  V30 2802 C 264.178 -3.56342 0.274758 0
M  V30 2803 S 265.737 -4.3864 -0.118669 0
M  V30 2804 H 262.555 -0.705188 0.0907263 0
M  V30 2805 H 265.157 -1.7314 0.907895 0
M  V30 2806 H 263.861 -3.89958 1.2791 0
M  V30 2807 H 263.392 -3.91063 -0.428142 0
M  V30 2808 H 265.407 -4.77549 -1.34764 0
M  V30 2809 N 264.58 -0.43555 -1.51462 0
M  V30 2810 C 265.996 -0.0877501 -1.59359 0
M  V30 2811 C 266.196 1.4027 -1.4466 0
M  V30 2812 O 265.252 2.17243 -1.28693 0
M  V30 2813 C 266.565 -0.606264 -2.94525 0
M  V30 2814 C 268.113 -0.566548 -3.0783 0
M  V30 2815 C 268.588 -1.06201 -4.45517 0
M  V30 2816 N 270.079 -1.01992 -4.51832 0
M  V30 2817 C 270.814 -1.37417 -5.5669 0
M  V30 2818 N 270.31 -1.80119 -6.68976 0
M  V30 2819 N 272.103 -1.29245 -5.47039 0
M  V30 2820 H 264.254 -1.40533 -1.59261 0
M  V30 2821 H 266.517 -0.578992 -0.750648 0
M  V30 2822 H 266.223 -1.64901 -3.10645 0
M  V30 2823 H 266.097 -0.0302097 -3.77188 0
M  V30 2824 H 268.484 0.467208 -2.91378 0
M  V30 2825 H 268.565 -1.17898 -2.2701 0
M  V30 2826 H 268.209 -2.09422 -4.62715 0
M  V30 2827 H 268.139 -0.426127 -5.24873 0
M  V30 2828 H 270.63 -0.706308 -3.71241 0
M  V30 2829 H 270.943 -2.05392 -7.45006 0
M  V30 2830 H 269.288 -1.84044 -6.70189 0
M  V30 2831 H 272.479 -0.957522 -4.58202 0
M  V30 2832 H 272.652 -1.57182 -6.28648 0
M  V30 2833 N 266.058 1.56714 -0.166846 0
M  V30 2834 C 266.968 2.21331 0.777791 0
M  V30 2835 C 267.984 1.20358 1.25658 0
M  V30 2836 O 269.16 1.53005 1.30964 0
M  V30 2837 C 266.225 2.83787 1.99163 0
M  V30 2838 C 265.286 3.99947 1.56016 0
M  V30 2839 C 264.519 4.59415 2.71613 0
M  V30 2840 O 264.742 4.17769 3.88362 0
M  V30 2841 O 263.676 5.49359 2.45945 0
M  V30 2842 H 267.502 3.02605 0.257636 0
M  V30 2843 H 265.087 1.49275 0.0611393 0
M  V30 2844 H 266.969 3.23405 2.70161 0
M  V30 2845 H 265.644 2.05513 2.50092 0
M  V30 2846 H 264.551 3.65007 0.819809 0
M  V30 2847 H 265.884 4.79801 1.09782 0
M  V30 2848 N 267.536 -0.106894 1.57237 0
M  V30 2849 C 268.784 -0.810921 1.85117 0
M  V30 2850 C 269.105 -1.7984 0.753827 0
M  V30 2851 O 268.375 -1.94649 -0.221056 0
M  V30 2852 H 266.955 -0.302466 0.683025 0
M  V30 2853 H 269.617 -0.0913324 1.94686 0
M  V30 2854 H 268.713 -1.34875 2.81452 0
M  V30 2855 N 269.014 -1.53014 -0.377408 0
M  V30 2856 C 270.239 -1.72818 -1.14668 0
M  V30 2857 C 270.664 -0.450725 -1.8262 0
M  V30 2858 O 270.022 0.59439 -1.7128 0
M  V30 2859 C 270.07 -2.88627 -2.16164 0
M  V30 2860 O 269.174 -2.56409 -3.22998 0
M  V30 2861 H 268.515 -0.574301 -0.333278 0
M  V30 2862 H 271.045 -1.99853 -0.438152 0
M  V30 2863 H 271.055 -3.14455 -2.59966 0
M  V30 2864 H 269.73 -3.81294 -1.66095 0
M  V30 2865 H 268.307 -2.4136 -2.84253 0
M  V30 2866 N 270.492 0.636531 -1.44174 0
M  V30 2867 C 271.422 1.76003 -1.53444 0
M  V30 2868 C 272.403 1.65619 -0.387841 0
M  V30 2869 O 273.588 1.84461 -0.607257 0
M  V30 2870 C 270.718 3.14511 -1.4731 0
M  V30 2871 C 269.672 3.39677 -2.60391 0
M  V30 2872 C 268.998 4.78159 -2.39308 0
M  V30 2873 C 270.298 3.32772 -4.02567 0
M  V30 2874 H 271.992 1.68501 -2.47483 0
M  V30 2875 H 269.538 0.809237 -1.19111 0
M  V30 2876 H 271.491 3.92878 -1.52397 0
M  V30 2877 H 270.215 3.22783 -0.49785 0
M  V30 2878 H 268.874 2.63688 -2.54684 0
M  V30 2879 H 268.522 4.83128 -1.39988 0
M  V30 2880 H 268.222 4.95956 -3.15122 0
M  V30 2881 H 269.746 5.58762 -2.46205 0
M  V30 2882 H 271.16 4.01051 -4.09672 0
M  V30 2883 H 269.557 3.62104 -4.7854 0
M  V30 2884 H 270.627 2.30669 -4.2652 0
M  V30 2885 N 271.97 1.30982 0.876444 0
M  V30 2886 C 272.933 1.18054 1.96459 0
M  V30 2887 C 273.933 0.109399 1.60427 0
M  V30 2888 O 275.123 0.358173 1.70478 0
M  V30 2889 C 272.255 0.810616 3.31122 0
M  V30 2890 H 273.448 2.14735 2.09354 0
M  V30 2891 H 271.001 1.145 1.06392 0
M  V30 2892 H 271.736 -0.155322 3.23928 0
M  V30 2893 H 271.521 1.58481 3.58645 0
M  V30 2894 H 273.011 0.743876 4.10921 0
M  V30 2895 N 273.449 -1.08991 1.13837 0
M  V30 2896 C 274.396 -2.15748 0.819835 0
M  V30 2897 C 275.366 -1.64636 -0.220026 0
M  V30 2898 O 276.551 -1.90582 -0.0912757 0
M  V30 2899 C 273.691 -3.4382 0.296913 0
M  V30 2900 C 272.804 -4.0881 1.39636 0
M  V30 2901 C 271.939 -5.24655 0.831314 0
M  V30 2902 C 270.978 -5.81575 1.90886 0
M  V30 2903 N 270.115 -6.88774 1.36142 0
M  V30 2904 H 274.955 -2.42338 1.73426 0
M  V30 2905 H 272.492 -1.18935 0.865613 0
M  V30 2906 H 274.45 -4.17193 -0.0244339 0
M  V30 2907 H 273.08 -3.17535 -0.580628 0
M  V30 2908 H 272.132 -3.33258 1.83422 0
M  V30 2909 H 273.444 -4.47141 2.21058 0
M  V30 2910 H 272.598 -6.04942 0.461515 0
M  V30 2911 H 271.337 -4.87698 -0.013932 0
M  V30 2912 H 270.342 -4.99946 2.28767 0
M  V30 2913 H 271.567 -6.20592 2.75758 0
M  V30 2914 H 269.513 -6.53788 0.538254 0
M  V30 2915 H 269.43 -7.25898 2.11208 0
M  V30 2916 H 270.698 -7.72806 1.01933 0
M  V30 2917 N 274.927 -0.932562 -1.27047 0
M  V30 2918 C 275.837 -0.441219 -2.30414 0
M  V30 2919 C 276.853 0.480525 -1.67233 0
M  V30 2920 O 278.029 0.362151 -1.98117 0
M  V30 2921 C 275.094 0.293651 -3.45454 0
M  V30 2922 C 274.155 -0.663601 -4.2414 0
M  V30 2923 C 273.388 0.0362932 -5.33688 0
M  V30 2924 O 273.611 1.2548 -5.56427 0
M  V30 2925 O 272.545 -0.638015 -5.98509 0
M  V30 2926 H 276.371 -1.29962 -2.74488 0
M  V30 2927 H 273.956 -0.6981 -1.32087 0
M  V30 2928 H 275.838 0.707951 -4.15411 0
M  V30 2929 H 274.513 1.12758 -3.03426 0
M  V30 2930 H 273.42 -1.12768 -3.56699 0
M  V30 2931 H 274.753 -1.46489 -4.69896 0
M  V30 2932 N 276.405 1.4127 -0.698611 0
M  V30 2933 C 277.352 2.30773 -0.0352094 0
M  V30 2934 C 278.322 1.47273 0.768111 0
M  V30 2935 O 279.507 1.76053 0.735524 0
M  V30 2936 C 276.647 3.33346 0.893 0
M  V30 2937 C 275.76 4.31924 0.0809695 0
M  V30 2938 C 274.895 5.21566 1.0071 0
M  V30 2939 C 273.934 6.11811 0.188155 0
M  V30 2940 N 273.071 6.93926 1.06825 0
M  V30 2941 H 277.911 2.86943 -0.804207 0
M  V30 2942 H 275.448 1.4132 -0.408294 0
M  V30 2943 H 277.406 3.91368 1.44523 0
M  V30 2944 H 276.036 2.78719 1.62836 0
M  V30 2945 H 275.088 3.75825 -0.588224 0
M  V30 2946 H 276.4 4.95716 -0.553801 0
M  V30 2947 H 275.554 5.84437 1.62845 0
M  V30 2948 H 274.293 4.58008 1.67572 0
M  V30 2949 H 273.298 5.47986 -0.446254 0
M  V30 2950 H 274.523 6.77425 -0.476716 0
M  V30 2951 H 272.469 6.32973 1.72283 0
M  V30 2952 H 272.386 7.54416 0.489123 0
M  V30 2953 H 273.654 7.61262 1.67632 0
M  V30 2954 N 277.883 0.443576 1.51229 0
M  V30 2955 C 279.111 -0.11929 2.06556 0
M  V30 2956 C 279.526 -1.35921 1.31038 0
M  V30 2957 O 278.883 -1.78675 0.371704 0
M  V30 2958 C 278.934 -0.435228 3.5887 0
M  V30 2959 O 278.655 0.755486 4.31537 0
M  V30 2960 C 280.156 -1.04808 4.30732 0
M  V30 2961 H 277.376 -0.0051584 0.67098 0
M  V30 2962 H 279.92 0.624453 1.94733 0
M  V30 2963 H 278.075 -1.12887 3.70588 0
M  V30 2964 H 278.489 0.483491 5.22267 0
M  V30 2965 H 279.963 -1.2191 5.3837 0
M  V30 2966 H 280.44 -2.03081 3.89429 0
M  V30 2967 H 281.046 -0.393637 4.23474 0
M  V30 2968 N 279.361 -1.56624 0.175154 0
M  V30 2969 C 280.293 -2.15333 -0.785128 0
M  V30 2970 C 281.306 -1.1099 -1.19101 0
M  V30 2971 O 282.495 -1.38162 -1.13019 0
M  V30 2972 C 279.595 -2.68427 -2.06882 0
M  V30 2973 C 278.768 -3.97466 -1.8259 0
M  V30 2974 C 277.827 -4.35585 -2.95215 0
M  V30 2975 O 276.853 -5.03389 -2.65684 0
M  V30 2976 N 278.055 -3.97457 -4.23094 0
M  V30 2977 H 280.82 -2.98359 -0.283187 0
M  V30 2978 H 278.381 -1.61898 -0.00749817 0
M  V30 2979 H 280.373 -2.90924 -2.81328 0
M  V30 2980 H 278.943 -1.89968 -2.48256 0
M  V30 2981 H 278.163 -3.83307 -0.920287 0
M  V30 2982 H 279.451 -4.81736 -1.63733 0
M  V30 2983 H 278.849 -3.42878 -4.49945 0
M  V30 2984 H 277.406 -4.24947 -4.9423 0
M  V30 2985 N 280.839 0.0985539 -1.57292 0
M  V30 2986 C 282.067 0.816318 -1.90115 0
M  V30 2987 C 282.482 1.72451 -0.768509 0
M  V30 2988 O 281.839 1.80643 0.259687 0
M  V30 2989 C 281.89 1.63259 -3.22535 0
M  V30 2990 O 281.611 0.760934 -4.31441 0
M  V30 2991 C 283.112 2.45372 -3.69199 0
M  V30 2992 H 280.332 0.233595 -0.629027 0
M  V30 2993 H 282.876 0.0768229 -2.04356 0
M  V30 2994 H 281.031 2.32463 -3.09903 0
M  V30 2995 H 281.445 1.32595 -5.07463 0
M  V30 2996 H 282.919 2.98144 -4.64558 0
M  V30 2997 H 283.396 3.23677 -2.96867 0
M  V30 2998 H 284.002 1.81373 -3.84687 0
M  V30 2999 N 282.317 1.53212 0.369288 0
M  V30 3000 C 283.247 1.82365 1.45826 0
M  V30 3001 C 284.228 0.676907 1.56051 0
M  V30 3002 O 285.413 0.926401 1.70679 0
M  V30 3003 C 282.543 2.01023 2.83208 0
M  V30 3004 C 281.497 3.1678 2.8781 0
M  V30 3005 C 280.823 3.20724 4.27832 0
M  V30 3006 C 282.123 4.55447 2.55667 0
M  V30 3007 H 283.817 2.73559 1.21678 0
M  V30 3008 H 281.363 1.3163 0.583911 0
M  V30 3009 H 283.316 2.20001 3.59413 0
M  V30 3010 H 282.04 1.06536 3.08736 0
M  V30 3011 H 280.699 2.97616 2.14056 0
M  V30 3012 H 280.347 2.23882 4.50429 0
M  V30 3013 H 280.047 3.98496 4.31827 0
M  V30 3014 H 281.571 3.41881 5.05915 0
M  V30 3015 H 282.985 4.74611 3.21586 0
M  V30 3016 H 281.382 5.35432 2.70984 0
M  V30 3017 H 282.452 4.60812 1.5093 0
M  V30 3018 N 283.795 -0.628877 1.44509 0
M  V30 3019 C 284.745 -1.7345 1.47983 0
M  V30 3020 C 285.729 -1.5715 0.345373 0
M  V30 3021 O 286.921 -1.66848 0.590829 0
M  V30 3022 C 284.05 -3.12143 1.42904 0
M  V30 3023 C 283.136 -3.33906 2.61472 0
M  V30 3024 N 283.527 -3.26024 3.86706 0
M  V30 3025 C 281.825 -3.64709 2.56716 0
M  V30 3026 C 282.526 -3.48536 4.65722 0
M  V30 3027 N 281.502 -3.71517 3.96832 0
M  V30 3028 H 285.304 -1.65818 2.42655 0
M  V30 3029 H 282.818 -0.831419 1.39503 0
M  V30 3030 H 284.815 -3.91433 1.43476 0
M  V30 3031 H 283.475 -3.2094 0.492717 0
M  V30 3032 H 284.486 -3.04893 4.18641 0
M  V30 3033 H 281.163 -3.80473 1.71891 0
M  V30 3034 H 282.553 -3.48016 5.74747 0
M  V30 3035 N 285.273 -1.31445 -0.869486 0
M  V30 3036 C 286.22 -1.19135 -1.97675 0
M  V30 3037 C 287.19 -0.0770266 -1.65921 0
M  V30 3038 O 288.375 -0.249972 -1.89155 0
M  V30 3039 C 285.515 -0.905149 -3.33018 0
M  V30 3040 C 284.628 -2.10285 -3.77365 0
M  V30 3041 C 283.763 -1.75339 -5.01427 0
M  V30 3042 C 282.802 -2.91515 -5.38224 0
M  V30 3043 N 281.939 -2.56762 -6.53466 0
M  V30 3044 H 286.779 -2.13853 -2.07535 0
M  V30 3045 H 284.316 -1.06379 -1.01597 0
M  V30 3046 H 286.274 -0.719765 -4.10944 0
M  V30 3047 H 284.904 0.00519624 -3.228 0
M  V30 3048 H 283.956 -2.39899 -2.95216 0
M  V30 3049 H 285.268 -2.97237 -4.00564 0
M  V30 3050 H 284.422 -1.53266 -5.87022 0
M  V30 3051 H 283.161 -0.855801 -4.80133 0
M  V30 3052 H 282.166 -3.14237 -4.51149 0
M  V30 3053 H 283.391 -3.81985 -5.61484 0
M  V30 3054 H 281.337 -1.69526 -6.33717 0
M  V30 3055 H 281.254 -3.37243 -6.76612 0
M  V30 3056 H 282.522 -2.38083 -7.42251 0
M  V30 3057 N 286.751 1.08385 -1.14413 0
M  V30 3058 C 287.998 1.80776 -0.912482 0
M  V30 3059 C 288.326 1.86236 0.560934 0
M  V30 3060 O 287.581 1.33431 1.43159 0
M  V30 3061 C 287.88 3.26273 -1.45879 0
M  V30 3062 C 287.546 3.4093 -2.95089 0
M  V30 3063 C 286.208 3.44638 -3.35824 0
M  V30 3064 C 288.56 3.44591 -3.91033 0
M  V30 3065 C 285.888 3.49597 -4.71167 0
M  V30 3066 C 288.24 3.51086 -5.26233 0
M  V30 3067 C 286.904 3.53067 -5.6648 0
M  V30 3068 H 286.174 0.661507 -0.333901 0
M  V30 3069 H 288.821 1.27613 -1.42784 0
M  V30 3070 H 287.126 3.82146 -0.864376 0
M  V30 3071 H 288.823 3.80839 -1.2555 0
M  V30 3072 H 285.413 3.38736 -2.62594 0
M  V30 3073 H 289.597 3.40957 -3.60641 0
M  V30 3074 H 284.853 3.49424 -5.0171 0
M  V30 3075 H 289.027 3.52864 -6.00383 0
M  V30 3076 H 286.654 3.56662 -6.71339 0
M  V30 3077 N 288.23 0.939286 1.26551 0
M  V30 3078 C 289.479 0.581601 1.93133 0
M  V30 3079 C 289.792 -0.883224 1.74524 0
M  V30 3080 O 290.998 -1.3502 2.35546 0
M  V30 3081 C 289.454 0.989425 3.46032 0
M  V30 3082 C 289.062 2.47573 3.73379 0
M  V30 3083 C 290.806 0.703544 4.18629 0
M  V30 3084 C 288.713 2.82235 5.19709 0
M  V30 3085 H 287.643 0.213803 0.723052 0
M  V30 3086 H 290.294 1.14167 1.4366 0
M  V30 3087 H 288.676 0.357902 3.94379 0
M  V30 3088 H 289.85 3.15614 3.35744 0
M  V30 3089 H 288.165 2.73471 3.1401 0
M  V30 3090 H 290.762 0.938869 5.26393 0
M  V30 3091 H 291.105 -0.359639 4.14744 0
M  V30 3092 H 291.638 1.2947 3.76141 0
M  V30 3093 H 288.377 3.87509 5.28694 0
M  V30 3094 H 287.897 2.18854 5.58447 0
M  V30 3095 H 289.576 2.70599 5.87695 0
M  V30 3096 N 289.708 -1.40897 0.706093 0
M  V30 3097 C 290.638 -2.33418 0.0620085 0
M  V30 3098 C 291.619 -1.52385 -0.755827 0
M  V30 3099 O 292.804 -1.80886 -0.706674 0
M  V30 3100 C 289.934 -3.36293 -0.867445 0
M  V30 3101 C 288.888 -4.27716 -0.155932 0
M  V30 3102 C 288.214 -5.2105 -1.20046 0
M  V30 3103 C 289.514 -5.12944 0.984149 0
M  V30 3104 H 291.208 -2.87527 0.83477 0
M  V30 3105 H 288.754 -1.38249 0.402875 0
M  V30 3106 H 290.707 -3.99949 -1.32735 0
M  V30 3107 H 289.431 -2.80556 -1.67199 0
M  V30 3108 H 288.09 -3.65498 0.284047 0
M  V30 3109 H 287.738 -4.61624 -1.99781 0
M  V30 3110 H 287.438 -5.83056 -0.729328 0
M  V30 3111 H 288.962 -5.87584 -1.66066 0
M  V30 3112 H 290.376 -5.70109 0.604048 0
M  V30 3113 H 288.773 -5.83945 1.38304 0
M  V30 3114 H 289.843 -4.49485 1.81911 0
M  V30 3115 N 291.186 -0.45159 -1.50991 0
M  V30 3116 C 292.116 0.342898 -2.30969 0
M  V30 3117 C 293.097 1.00815 -1.37005 0
M  V30 3118 O 294.282 1.00907 -1.65926 0
M  V30 3119 C 291.412 1.43637 -3.16205 0
M  V30 3120 C 290.366 0.893818 -4.18563 0
M  V30 3121 C 289.692 2.08411 -4.92411 0
M  V30 3122 C 290.992 -0.0815568 -5.22236 0
M  V30 3123 H 292.686 -0.324556 -2.97636 0
M  V30 3124 H 290.232 -0.157531 -1.43136 0
M  V30 3125 H 292.185 1.9995 -3.70942 0
M  V30 3126 H 290.909 2.13232 -2.47386 0
M  V30 3127 H 289.568 0.352798 -3.64898 0
M  V30 3128 H 289.216 2.76658 -4.20082 0
M  V30 3129 H 288.916 1.72741 -5.61636 0
M  V30 3130 H 290.44 2.65251 -5.49976 0
M  V30 3131 H 291.854 0.391742 -5.7196 0
M  V30 3132 H 290.251 -0.351551 -5.99069 0
M  V30 3133 H 291.321 -1.01374 -4.74185 0
M  V30 3134 N 292.664 1.56529 -0.183458 0
M  V30 3135 C 293.911 1.97244 0.458357 0
M  V30 3136 C 294.239 1.06992 1.62428 0
M  V30 3137 O 293.494 0.106542 1.9541 0
M  V30 3138 C 293.793 3.43939 0.971637 0
M  V30 3139 C 293.459 4.5083 -0.0796784 0
M  V30 3140 C 292.121 4.79786 -0.368584 0
M  V30 3141 C 294.473 5.15138 -0.792638 0
M  V30 3142 C 291.801 5.70345 -1.37563 0
M  V30 3143 C 294.153 6.06784 -1.78875 0
M  V30 3144 C 292.817 6.34102 -2.08497 0
M  V30 3145 H 292.087 0.721768 0.167725 0
M  V30 3146 H 294.734 1.89472 -0.277976 0
M  V30 3147 H 293.039 3.48724 1.78602 0
M  V30 3148 H 294.736 3.72791 1.47744 0
M  V30 3149 H 291.326 4.28317 0.155668 0
M  V30 3150 H 295.51 4.92868 -0.582659 0
M  V30 3151 H 290.766 5.89789 -1.61118 0
M  V30 3152 H 294.94 6.55677 -2.3465 0
M  V30 3153 H 292.567 7.04074 -2.86678 0
M  V30 3154 N 294.142 -0.090211 1.57342 0
M  V30 3155 C 295.105 -1.09335 2.01441 0
M  V30 3156 C 296.105 -1.32666 0.908641 0
M  V30 3157 O 297.295 -1.28697 1.174 0
M  V30 3158 C 294.427 -2.44136 2.3793 0
M  V30 3159 H 295.62 -0.713662 2.91285 0
M  V30 3160 H 293.173 -0.335404 1.52659 0
M  V30 3161 H 293.908 -2.86972 1.51055 0
M  V30 3162 H 293.693 -2.28548 3.18603 0
M  V30 3163 H 295.183 -3.16277 2.72688 0
M  V30 3164 N 295.62 -1.53406 -0.361157 0
M  V30 3165 C 296.866 -1.70054 -1.10496 0
M  V30 3166 C 297.199 -0.453278 -1.88836 0
M  V30 3167 O 296.474 0.5495 -1.86576 0
M  V30 3168 C 296.757 -2.95317 -2.06058 0
M  V30 3169 C 296.61 -4.3021 -1.31298 0
M  V30 3170 C 297.929 -3.16193 -3.06121 0
M  V30 3171 H 295.048 -0.618799 -0.400321 0
M  V30 3172 H 297.69 -1.86052 -0.385318 0
M  V30 3173 H 295.84 -2.81809 -2.67425 0
M  V30 3174 H 297.512 -4.55538 -0.726807 0
M  V30 3175 H 295.755 -4.29421 -0.614853 0
M  V30 3176 H 296.426 -5.14 -2.01265 0
M  V30 3177 H 298.902 -3.28916 -2.5486 0
M  V30 3178 H 297.778 -4.05266 -3.70204 0
M  V30 3179 H 298.039 -2.31676 -3.76535 0
M  V30 3180 N 297.098 0.621204 -1.44841 0
M  V30 3181 C 298.345 1.38055 -1.48145 0
M  V30 3182 C 298.673 1.94143 -0.117867 0
M  V30 3183 O 297.928 1.74713 0.881694 0
M  V30 3184 C 298.227 2.55675 -2.4973 0
M  V30 3185 C 297.893 2.17817 -3.94799 0
M  V30 3186 C 296.555 2.07205 -4.34303 0
M  V30 3187 C 298.907 1.88065 -4.86087 0
M  V30 3188 C 296.235 1.65045 -5.63007 0
M  V30 3189 C 298.587 1.47394 -6.15189 0
M  V30 3190 C 297.251 1.35331 -6.53637 0
M  V30 3191 H 296.521 0.505181 -0.542101 0
M  V30 3192 H 299.168 0.703477 -1.78111 0
M  V30 3193 H 297.473 3.2866 -2.13284 0
M  V30 3194 H 299.17 3.13904 -2.4953 0
M  V30 3195 H 295.76 2.26998 -3.63552 0
M  V30 3196 H 299.944 1.95168 -4.56315 0
M  V30 3197 H 295.2 1.54317 -5.91605 0
M  V30 3198 H 299.374 1.23415 -6.85377 0
M  V30 3199 H 297.001 1.02435 -7.53267 0
M  V30 3200 N 298.576 1.31904 0.862503 0
M  V30 3201 C 299.853 1.12644 1.59908 0
M  V30 3202 C 300.233 -0.316104 2.0872 0
M  V30 3203 O 299.581 -1.31145 1.87118 0
M  V30 3204 C 299.791 2.1472 2.7513 0
M  V30 3205 C 301.139 2.47637 3.44907 0
M  V30 3206 O 302.163 2.13205 2.85346 0
M  V30 3207 O 301.022 3.06632 4.52371 0
M  V30 3208 H 298.116 0.43416 0.703871 0
M  V30 3209 H 300.662 1.43408 0.907314 0
M  V30 3210 H 299.434 3.1172 2.3653 0
M  V30 3211 H 299.057 1.84905 3.51989 0
M  V30 3212 N 300.054 -1.07777 1.14986 0
M  V30 3213 C 300.964 -2.18404 0.856546 0
M  V30 3214 C 301.98 -1.73211 -0.165485 0
M  V30 3215 O 303.156 -2.01399 0.00755219 0
M  V30 3216 C 300.221 -3.44977 0.34526 0
M  V30 3217 C 299.282 -4.0476 1.43065 0
M  V30 3218 C 298.515 -5.25291 0.943663 0
M  V30 3219 O 298.738 -5.70004 -0.212426 0
M  V30 3220 O 297.672 -5.76638 1.72547 0
M  V30 3221 H 301.498 -2.45978 1.78125 0
M  V30 3222 H 299.083 -1.17033 0.928631 0
M  V30 3223 H 300.965 -4.21348 0.0663671 0
M  V30 3224 H 299.64 -3.18965 -0.551631 0
M  V30 3225 H 298.547 -3.29949 1.76309 0
M  V30 3226 H 299.88 -4.35035 2.30229 0
M  V30 3227 N 301.532 -0.945985 -1.26051 0
M  V30 3228 C 302.78 -0.594941 -1.93145 0
M  V30 3229 C 303.101 0.86953 -1.7454 0
M  V30 3230 O 302.371 1.61838 -1.10387 0
M  V30 3231 H 300.951 -0.217044 -0.714773 0
M  V30 3232 H 303.613 -1.20235 -1.53393 0
M  V30 3233 H 302.709 -0.816835 -3.01221 0
M  V30 3234 N 303.011 1.40521 -0.713556 0
M  V30 3235 C 303.958 2.30723 -0.059684 0
M  V30 3236 C 304.928 1.48079 0.752448 0
M  V30 3237 O 306.113 1.76823 0.71681 0
M  V30 3238 C 303.253 3.34274 0.857594 0
M  V30 3239 C 302.366 4.31986 0.0351536 0
M  V30 3240 C 301.501 5.22605 0.951724 0
M  V30 3241 C 300.54 6.11976 0.123253 0
M  V30 3242 N 299.677 6.9502 0.99459 0
M  V30 3243 H 304.517 2.86074 -0.834596 0
M  V30 3244 H 302.054 1.40879 -0.42326 0
M  V30 3245 H 304.012 3.92879 1.40364 0
M  V30 3246 H 302.642 2.8043 1.59871 0
M  V30 3247 H 301.694 3.7518 -0.628052 0
M  V30 3248 H 303.006 4.95101 -0.606347 0
M  V30 3249 H 302.16 5.86131 1.56638 0
M  V30 3250 H 300.899 4.59759 1.62705 0
M  V30 3251 H 299.904 5.47482 -0.50435 0
M  V30 3252 H 301.129 6.76881 -0.548539 0
M  V30 3253 H 299.075 6.34764 1.6556 0
M  V30 3254 H 298.992 7.54892 0.40908 0
M  V30 3255 H 300.26 7.62997 1.59549 0
M  V30 3256 N 304.489 0.459591 1.5075 0
M  V30 3257 C 305.714 -0.0996819 2.0716 0
M  V30 3258 C 306.139 -1.33761 1.32249 0
M  V30 3259 O 305.497 -1.77551 0.366786 0
M  V30 3260 C 305.545 -0.378226 3.58611 0
M  V30 3261 O 304.649 -1.46081 3.85661 0
M  V30 3262 H 303.99 0.00791392 0.663953 0
M  V30 3263 H 306.52 0.647329 1.9409 0
M  V30 3264 H 306.53 -0.622135 4.03229 0
M  V30 3265 H 305.205 0.526439 4.12555 0
M  V30 3266 H 303.782 -1.20511 3.5289 0
M  V30 3267 N 305.967 -1.56429 0.191757 0
M  V30 3268 C 307.213 -1.98541 -0.441943 0
M  V30 3269 C 307.568 -1.07646 -1.59468 0
M  V30 3270 O 306.861 -0.120191 -1.91223 0
M  V30 3271 C 307.055 -3.44449 -0.953384 0
M  V30 3272 C 306.884 -4.49456 0.148262 0
M  V30 3273 C 305.654 -5.01668 0.604781 0
M  V30 3274 C 307.852 -5.05336 0.95602 0
M  V30 3275 N 305.834 -5.90334 1.6846 0
M  V30 3276 C 307.205 -5.9064 1.88531 0
M  V30 3277 C 309.26 -4.87779 0.998811 0
M  V30 3278 C 307.963 -6.60264 2.85383 0
M  V30 3279 C 309.989 -5.58139 1.95537 0
M  V30 3280 C 309.351 -6.43187 2.8721 0
M  V30 3281 H 305.45 -0.771247 -0.129236 0
M  V30 3282 H 308.034 -1.92426 0.296682 0
M  V30 3283 H 306.205 -3.5107 -1.66146 0
M  V30 3284 H 307.937 -3.73533 -1.55741 0
M  V30 3285 H 304.692 -4.73183 0.198736 0
M  V30 3286 H 305.116 -6.39371 2.22561 0
M  V30 3287 H 309.758 -4.21705 0.304048 0
M  V30 3288 H 307.476 -7.25538 3.55837 0
M  V30 3289 H 311.062 -5.46532 1.99484 0
M  V30 3290 H 309.942 -6.96674 3.60022 0
M  V30 3291 N 307.445 0.0818655 -1.57387 0
M  V30 3292 C 308.395 1.10501 -1.99433 0
M  V30 3293 C 309.379 1.35041 -0.874798 0
M  V30 3294 O 310.571 1.35511 -1.13868 0
M  V30 3295 C 307.7 2.42159 -2.43339 0
M  V30 3296 C 306.786 2.20937 -3.62005 0
M  V30 3297 N 307.177 1.69616 -4.76512 0
M  V30 3298 C 305.475 2.51451 -3.68359 0
M  V30 3299 C 306.176 1.62973 -5.58404 0
M  V30 3300 N 305.152 2.08664 -5.01956 0
M  V30 3301 H 308.954 0.701373 -2.85408 0
M  V30 3302 H 306.468 0.289096 -1.59806 0
M  V30 3303 H 308.465 3.16208 -2.71695 0
M  V30 3304 H 307.125 2.83249 -1.58746 0
M  V30 3305 H 308.136 1.38624 -4.99003 0
M  V30 3306 H 304.813 2.95975 -2.94457 0
M  V30 3307 H 306.203 1.24233 -6.60315 0
M  V30 3308 N 308.923 1.53595 0.353017 0
M  V30 3309 C 310.148 1.7462 1.11904 0
M  V30 3310 C 310.573 0.479721 1.8188 0
M  V30 3311 O 309.931 -0.567066 1.72204 0
M  V30 3312 C 309.979 2.92029 2.11545 0
M  V30 3313 O 309.083 2.61516 3.18878 0
M  V30 3314 H 308.424 0.579531 0.324099 0
M  V30 3315 H 310.954 2.00525 0.406301 0
M  V30 3316 H 310.964 3.18551 2.5493 0
M  V30 3317 H 309.639 3.83888 1.60008 0
M  V30 3318 H 308.216 2.45852 2.80377 0
M  V30 3319 N 310.401 -0.613514 1.45168 0
M  V30 3320 C 311.311 -1.75296 1.55912 0
M  V30 3321 C 312.327 -1.68244 0.443856 0
M  V30 3322 O 313.503 -1.88706 0.70371 0
M  V30 3323 C 310.568 -3.1174 1.5172 0
M  V30 3324 C 309.629 -3.30291 2.74238 0
M  V30 3325 C 308.862 -4.60226 2.70236 0
M  V30 3326 O 309.085 -5.42168 1.77229 0
M  V30 3327 O 308.019 -4.81361 3.61352 0
M  V30 3328 H 311.845 -1.69183 2.52212 0
M  V30 3329 H 309.43 -0.776886 1.27612 0
M  V30 3330 H 311.312 -3.93044 1.51968 0
M  V30 3331 H 309.987 -3.18357 0.585697 0
M  V30 3332 H 308.894 -2.48598 2.79553 0
M  V30 3333 H 310.227 -3.28547 3.66494 0
M  V30 3334 N 311.879 -1.3236 -0.855495 0
M  V30 3335 C 313.107 -1.2587 -1.64208 0
M  V30 3336 C 313.522 0.173457 -1.88002 0
M  V30 3337 O 312.879 1.11027 -1.44842 0
M  V30 3338 C 312.93 -2.01424 -3.00184 0
M  V30 3339 O 312.651 -3.39051 -2.77445 0
M  V30 3340 C 314.152 -2.01948 -3.94629 0
M  V30 3341 H 311.372 -0.434318 -0.511477 0
M  V30 3342 H 313.916 -1.74469 -1.0668 0
M  V30 3343 H 312.071 -1.56549 -3.5436 0
M  V30 3344 H 312.485 -3.77711 -3.63916 0
M  V30 3345 H 313.959 -2.59297 -4.87308 0
M  V30 3346 H 314.436 -1.00554 -4.27534 0
M  V30 3347 H 315.042 -2.46767 -3.4639 0
M  V30 3348 N 313.357 1.07166 -1.15556 0
M  V30 3349 C 314.304 2.14417 -0.854055 0
M  V30 3350 C 315.274 1.64965 0.193806 0
M  V30 3351 O 316.459 1.90703 0.0609443 0
M  V30 3352 C 313.599 3.43304 -0.351574 0
M  V30 3353 C 312.712 4.06537 -1.46123 0
M  V30 3354 C 311.847 5.23266 -0.914677 0
M  V30 3355 C 310.886 5.78464 -2.00114 0
M  V30 3356 N 310.023 6.86521 -1.47083 0
M  V30 3357 H 314.863 2.39548 -1.77259 0
M  V30 3358 H 312.4 1.17543 -0.884425 0
M  V30 3359 H 314.358 4.17179 -0.0419409 0
M  V30 3360 H 312.988 3.18419 0.530037 0
M  V30 3361 H 312.04 3.30297 -1.88701 0
M  V30 3362 H 313.352 4.43567 -2.28144 0
M  V30 3363 H 312.506 6.04131 -0.557698 0
M  V30 3364 H 311.245 4.87658 -0.0636583 0
M  V30 3365 H 310.25 4.96243 -2.36692 0
M  V30 3366 H 311.475 6.16126 -2.85597 0
M  V30 3367 H 309.421 6.52849 -0.642198 0
M  V30 3368 H 309.338 7.22446 -2.22729 0
M  V30 3369 H 310.606 7.71087 -1.14215 0
M  V30 3370 N 314.835 0.952656 1.25548 0
M  V30 3371 C 315.783 0.462354 2.27958 0
M  V30 3372 C 316.777 -0.46634 1.62855 0
M  V30 3373 O 317.983 -0.343287 1.76696 0
M  V30 3374 H 314.358 0.13101 0.7405 0
M  V30 3375 H 316.329 1.33839 2.66702 0
M  V30 3376 C 315.078 -0.24628 3.46827 0
M  V30 3377 H 314.401 0.459192 3.97154 0
M  V30 3378 H 315.841 -0.553393 4.20373 0
M  V30 3379 C 314.3 -1.4681 3.0323 0
M  V30 3380 O 314.83 -2.56591 3.09069 0
M  V30 3381 N 313.036 -1.32874 2.58443 0
M  V30 3382 H 312.583 -0.435536 2.53891 0
M  V30 3383 H 312.541 -2.14742 2.29637 0
M  V30 3384 N 316.313 -1.40141 0.720998 0
M  V30 3385 C 317.538 -2.05618 0.271258 0
M  V30 3386 C 317.963 -1.53978 -1.08039 0
M  V30 3387 O 317.321 -0.677463 -1.68167 0
M  V30 3388 C 317.369 -3.59609 0.267197 0
M  V30 3389 O 316.473 -4.05526 -0.749814 0
M  V30 3390 H 315.814 -0.651904 0.126162 0
M  V30 3391 H 318.344 -1.79439 0.982997 0
M  V30 3392 H 318.354 -4.0786 0.106744 0
M  V30 3393 H 317.029 -3.96559 1.25354 0
M  V30 3394 H 315.606 -3.68722 -0.556644 0
M  V30 3395 N 317.792 -0.46758 -1.50504 0
M  V30 3396 C 318.722 0.318381 -2.31319 0
M  V30 3397 C 319.703 0.993564 -1.38066 0
M  V30 3398 O 320.888 0.991411 -1.66987 0
M  V30 3399 C 318.018 1.40275 -3.17711 0
M  V30 3400 C 316.972 0.849373 -4.19487 0
M  V30 3401 C 316.298 2.03177 -4.94594 0
M  V30 3402 C 317.598 -0.136942 -5.2212 0
M  V30 3403 H 319.292 -0.356106 -2.97275 0
M  V30 3404 H 316.838 -0.172703 -1.42961 0
M  V30 3405 H 318.791 1.96004 -3.73042 0
M  V30 3406 H 317.515 2.10596 -2.49634 0
M  V30 3407 H 316.174 0.314076 -3.65252 0
M  V30 3408 H 315.822 2.72187 -4.22993 0
M  V30 3409 H 315.522 1.66774 -5.63436 0
M  V30 3410 H 317.046 2.59403 -5.52759 0
M  V30 3411 H 318.46 0.331056 -5.72343 0
M  V30 3412 H 316.857 -0.41507 -5.98663 0
M  V30 3413 H 317.927 -1.06398 -4.73083 0
M  V30 3414 N 319.27 1.56325 -0.20005 0
M  V30 3415 C 320.203 2.15234 0.758267 0
M  V30 3416 C 321.181 1.09046 1.20614 0
M  V30 3417 O 322.365 1.37186 1.29276 0
M  V30 3418 C 319.492 2.71524 2.02466 0
M  V30 3419 C 318.538 3.90345 1.71852 0
M  V30 3420 S 319.371 5.28513 0.862249 0
M  V30 3421 C 320.527 5.88227 2.13868 0
M  V30 3422 H 320.76 2.96183 0.2575 0
M  V30 3423 H 318.293 1.54393 0.0150099 0
M  V30 3424 H 320.251 3.04598 2.75191 0
M  V30 3425 H 318.912 1.90607 2.49655 0
M  V30 3426 H 318.105 4.28158 2.65888 0
M  V30 3427 H 317.707 3.58306 1.07205 0
M  V30 3428 H 319.999 6.02891 3.09076 0
M  V30 3429 H 320.942 6.84714 1.80479 0
M  V30 3430 H 321.35 5.16874 2.2694 0
M  V30 3431 N 320.748 -0.0735177 1.57428 0
M  V30 3432 C 321.68 -1.11423 2.00294 0
M  V30 3433 C 322.693 -1.35084 0.908637 0
M  V30 3434 O 323.882 -1.33355 1.18654 0
M  V30 3435 C 320.982 -2.46548 2.32523 0
M  V30 3436 C 320.155 -2.42867 3.63778 0
M  V30 3437 C 319.214 -3.60087 3.83697 0
M  V30 3438 O 318.24 -3.41595 4.55304 0
M  V30 3439 N 319.442 -4.80372 3.25919 0
M  V30 3440 H 322.207 -0.749206 2.90184 0
M  V30 3441 H 319.768 -0.262195 1.59763 0
M  V30 3442 H 321.76 -3.23607 2.43024 0
M  V30 3443 H 320.33 -2.75059 1.48531 0
M  V30 3444 H 319.55 -1.51206 3.64047 0
M  V30 3445 H 320.838 -2.37506 4.49965 0
M  V30 3446 H 320.236 -4.983 2.67795 0
M  V30 3447 H 318.793 -5.54948 3.41871 0
M  V30 3448 N 322.226 -1.5378 -0.344866 0
M  V30 3449 C 323.503 -1.61589 -1.10219 0
M  V30 3450 C 323.883 -0.436316 -2.06542 0
M  V30 3451 O 323.231 0.571543 -2.21237 0
M  V30 3452 C 323.441 -2.97602 -1.82301 0
M  V30 3453 C 324.789 -3.5291 -2.36093 0
M  V30 3454 O 325.813 -2.99768 -1.924 0
M  V30 3455 O 324.672 -4.45859 -3.16026 0
M  V30 3456 H 321.766 -0.653522 -0.506792 0
M  V30 3457 H 324.312 -1.66126 -0.346465 0
M  V30 3458 H 323.084 -3.74893 -1.12121 0
M  V30 3459 H 322.707 -2.9665 -2.64735 0
M  V30 3460 N 323.704 0.605807 -1.45491 0
M  V30 3461 C 325.12 0.926751 -1.29936 0
M  V30 3462 C 325.32 1.99896 -0.253706 0
M  V30 3463 O 324.376 2.50038 0.351737 0
M  V30 3464 C 325.689 1.36599 -2.67883 0
M  V30 3465 C 327.237 1.4801 -2.75793 0
M  V30 3466 C 327.712 1.95309 -4.14268 0
M  V30 3467 N 329.203 2.0254 -4.16571 0
M  V30 3468 C 329.938 2.40363 -5.20589 0
M  V30 3469 N 329.434 2.77143 -6.34952 0
M  V30 3470 N 331.227 2.40718 -5.07948 0
M  V30 3471 H 323.378 -0.102862 -2.12151 0
M  V30 3472 H 325.641 0.016639 -0.947854 0
M  V30 3473 H 325.347 0.652306 -3.45598 0
M  V30 3474 H 325.221 2.33215 -2.96463 0
M  V30 3475 H 327.608 2.1847 -1.98381 0
M  V30 3476 H 327.689 0.497041 -2.50925 0
M  V30 3477 H 327.333 1.25436 -4.92167 0
M  V30 3478 H 327.263 2.94532 -4.3653 0
M  V30 3479 H 329.754 1.76699 -3.34045 0
M  V30 3480 H 330.067 3.0489 -7.10114 0
M  V30 3481 H 328.412 2.74834 -6.3835 0
M  V30 3482 H 331.603 2.11392 -4.1765 0
M  V30 3483 H 331.776 2.69869 -5.89131 0
M  V30 3484 N 325.182 1.32811 0.848464 0
M  V30 3485 C 326.459 1.14334 1.58704 0
M  V30 3486 C 326.839 -0.293948 2.09043 0
M  V30 3487 O 326.187 -1.29153 1.88499 0
M  V30 3488 C 326.397 2.17626 2.72837 0
M  V30 3489 C 327.745 2.51282 3.42261 0
M  V30 3490 O 328.769 2.16219 2.83068 0
M  V30 3491 O 327.628 3.11413 4.49093 0
M  V30 3492 H 324.722 0.441601 0.699226 0
M  V30 3493 H 327.268 1.44362 0.892053 0
M  V30 3494 H 326.04 3.14211 2.3321 0
M  V30 3495 H 325.663 1.88628 3.50008 0
M  V30 3496 N 326.66 -1.06551 1.16123 0
M  V30 3497 C 327.623 -2.12132 0.867906 0
M  V30 3498 C 328.623 -1.60224 -0.135944 0
M  V30 3499 O 329.813 -1.73943 0.0946422 0
M  V30 3500 C 326.945 -3.396 0.297419 0
M  V30 3501 H 328.138 -2.39586 1.80385 0
M  V30 3502 H 325.691 -1.22574 0.969812 0
M  V30 3503 H 326.426 -3.17794 -0.64633 0
M  V30 3504 H 326.211 -3.78581 1.02073 0
M  V30 3505 H 327.701 -4.17455 0.110052 0
M  V30 3506 N 328.138 -0.959301 -1.25041 0
M  V30 3507 C 329.101 -0.487677 -2.23952 0
M  V30 3508 C 330.101 0.41119 -1.55454 0
M  V30 3509 O 331.291 0.207825 -1.72956 0
M  V30 3510 C 328.423 0.294807 -3.39623 0
M  V30 3511 H 329.616 -1.36198 -2.67189 0
M  V30 3512 H 327.169 -0.743042 -1.37508 0
M  V30 3513 H 327.904 1.18658 -3.01813 0
M  V30 3514 H 327.689 -0.35012 -3.90534 0
M  V30 3515 H 329.179 0.614089 -4.1306 0
M  V30 3516 N 329.616 1.39756 -0.72842 0
M  V30 3517 C 330.841 2.05472 -0.282159 0
M  V30 3518 C 331.266 1.54549 1.07221 0
M  V30 3519 O 330.624 0.686372 1.67805 0
M  V30 3520 C 330.672 3.59462 -0.286264 0
M  V30 3521 O 329.776 4.05918 0.728298 0
M  V30 3522 H 329.117 0.651226 -0.129618 0
M  V30 3523 H 331.647 1.78915 -0.992499 0
M  V30 3524 H 331.657 4.07798 -0.128373 0
M  V30 3525 H 330.332 3.95889 -1.27456 0
M  V30 3526 H 328.909 3.69012 0.537081 0
M  V30 3527 N 331.094 0.475555 1.50254 0
M  V30 3528 C 332.057 -0.305016 2.27161 0
M  V30 3529 C 333.057 -0.916519 1.32123 0
M  V30 3530 O 334.247 -0.785003 1.5551 0
M  V30 3531 C 331.379 -1.43496 3.09227 0
M  V30 3532 H 332.572 0.369511 2.97615 0
M  V30 3533 H 330.125 0.229747 1.54602 0
M  V30 3534 H 330.86 -2.14441 2.43281 0
M  V30 3535 H 330.645 -1.00223 3.79075 0
M  V30 3536 H 332.135 -1.98548 3.67381 0
M  V30 3537 N 332.573 -1.56217 0.208337 0
M  V30 3538 C 333.989 -1.58919 -0.14729 0
M  V30 3539 C 334.189 -1.22486 -1.59998 0
M  V30 3540 O 333.245 -0.953849 -2.3379 0
M  V30 3541 C 334.558 -3.00236 0.167048 0
M  V30 3542 C 336.106 -3.12813 0.108219 0
M  V30 3543 C 336.581 -4.56284 0.396049 0
M  V30 3544 N 338.072 -4.61912 0.345142 0
M  V30 3545 C 338.807 -5.70837 0.541523 0
M  V30 3546 N 338.303 -6.88178 0.798968 0
M  V30 3547 N 340.096 -5.60091 0.474867 0
M  V30 3548 H 332.247 -1.78177 1.15614 0
M  V30 3549 H 334.51 -0.827555 0.462446 0
M  V30 3550 H 334.216 -3.31499 1.1748 0
M  V30 3551 H 334.09 -3.7354 -0.524184 0
M  V30 3552 H 336.477 -2.81354 -0.890157 0
M  V30 3553 H 336.558 -2.41866 0.832729 0
M  V30 3554 H 336.202 -4.88458 1.3918 0
M  V30 3555 H 336.132 -5.25439 -0.349502 0
M  V30 3556 H 338.623 -3.77589 0.153316 0
M  V30 3557 H 338.936 -7.67095 0.93727 0
M  V30 3558 H 337.281 -6.89953 0.836013 0
M  V30 3559 H 340.472 -4.67297 0.274064 0
M  V30 3560 H 340.645 -6.44917 0.631326 0
M  V30 3561 N 334.051 0.0651679 -1.57465 0
M  V30 3562 C 335.014 1.06117 -2.03155 0
M  V30 3563 C 336.014 1.31204 -0.929632 0
M  V30 3564 O 337.204 1.26813 -1.19432 0
M  V30 3565 C 334.336 2.4032 -2.41783 0
M  V30 3566 H 335.529 0.667231 -2.92383 0
M  V30 3567 H 333.082 0.311075 -1.53173 0
M  V30 3568 H 333.817 2.84532 -1.55601 0
M  V30 3569 H 333.602 2.23451 -3.22199 0
M  V30 3570 H 335.092 3.11898 -2.77685 0
M  V30 3571 N 335.529 1.53961 0.336706 0
M  V30 3572 C 336.775 1.7273 1.07406 0
M  V30 3573 C 337.13 0.488095 1.86106 0
M  V30 3574 O 336.423 -0.519379 1.84426 0
M  V30 3575 C 336.617 2.93493 2.03953 0
M  V30 3576 C 336.446 4.29039 1.34744 0
M  V30 3577 C 335.216 4.93416 1.08942 0
M  V30 3578 C 337.414 5.08501 0.770115 0
M  V30 3579 N 335.396 6.12821 0.363864 0
M  V30 3580 C 336.767 6.19752 0.175472 0
M  V30 3581 C 338.822 4.93349 0.671633 0
M  V30 3582 C 337.525 7.17503 -0.508081 0
M  V30 3583 C 339.551 5.914 0.0018076 0
M  V30 3584 C 338.913 7.01993 -0.581835 0
M  V30 3585 H 335.012 0.685026 0.377177 0
M  V30 3586 H 337.596 1.91403 0.356815 0
M  V30 3587 H 335.767 2.76308 2.72962 0
M  V30 3588 H 337.499 3.00949 2.70577 0
M  V30 3589 H 334.254 4.53099 1.37833 0
M  V30 3590 H 334.678 6.76998 0.0156092 0
M  V30 3591 H 339.32 4.08007 1.1086 0
M  V30 3592 H 337.038 8.02414 -0.956918 0
M  V30 3593 H 340.624 5.81753 -0.0738538 0
M  V30 3594 H 339.504 7.76561 -1.09192 0
M  V30 3595 N 337.007 -0.598083 1.45811 0
M  V30 3596 C 338.418 -1.18011 1.44673 0
M  V30 3597 C 338.769 -1.95378 0.179364 0
M  V30 3598 O 337.894 -2.04124 -0.718509 0
M  V30 3599 C 338.489 -2.14677 2.62105 0
M  V30 3600 C 337.048 -2.68236 2.64057 0
M  V30 3601 C 336.195 -1.43816 2.37091 0
M  V30 3602 H 339.146 -0.38686 1.53913 0
M  V30 3603 H 339.167 -2.97878 2.36746 0
M  V30 3604 H 338.679 -1.5834 3.5433 0
M  V30 3605 H 336.78 -3.28486 1.75864 0
M  V30 3606 H 336.893 -3.12021 3.63566 0
M  V30 3607 H 335.257 -1.731 1.86838 0
M  V30 3608 H 336.04 -0.893333 3.31473 0
M  V30 3609 N 338.485 -1.33259 -0.841409 0
M  V30 3610 C 339.432 -1.23302 -1.95103 0
M  V30 3611 C 340.402 -0.112204 -1.65721 0
M  V30 3612 O 341.587 -0.290038 -1.88583 0
M  V30 3613 C 338.727 -0.975583 -3.31023 0
M  V30 3614 C 337.84 -2.18243 -3.72819 0
M  V30 3615 C 336.975 -1.85936 -4.97595 0
M  V30 3616 C 336.014 -3.02866 -5.3192 0
M  V30 3617 N 335.151 -2.70565 -6.47873 0
M  V30 3618 H 339.991 -2.18207 -2.02952 0
M  V30 3619 H 337.528 -1.0851 -0.993173 0
M  V30 3620 H 339.486 -0.80677 -4.09325 0
M  V30 3621 H 338.116 -0.0632755 -3.22738 0
M  V30 3622 H 337.168 -2.46107 -2.90061 0
M  V30 3623 H 338.48 -3.05666 -3.94169 0
M  V30 3624 H 337.634 -1.65684 -5.83638 0
M  V30 3625 H 336.373 -0.957452 -4.78209 0
M  V30 3626 H 335.378 -3.23736 -4.44382 0
M  V30 3627 H 336.603 -3.93809 -5.53255 0
M  V30 3628 H 334.549 -1.8293 -6.29978 0
M  V30 3629 H 334.466 -3.51519 -6.69306 0
M  V30 3630 H 335.734 -2.53774 -7.37034 0
M  V30 3631 N 339.963 1.05934 -1.16686 0
M  V30 3632 C 340.896 2.1295 -0.820225 0
M  V30 3633 C 341.874 1.61242 0.209722 0
M  V30 3634 O 343.058 1.88271 0.0929688 0
M  V30 3635 C 340.185 3.3797 -0.22223 0
M  V30 3636 C 339.231 4.08488 -1.22637 0
M  V30 3637 S 340.064 4.58015 -2.77457 0
M  V30 3638 C 341.22 5.86292 -2.19117 0
M  V30 3639 H 341.453 2.42025 -1.72659 0
M  V30 3640 H 338.986 1.18423 -0.990722 0
M  V30 3641 H 340.944 4.10335 0.116322 0
M  V30 3642 H 339.605 3.07045 0.66196 0
M  V30 3643 H 338.798 4.98291 -0.756455 0
M  V30 3644 H 338.4 3.42154 -1.51019 0
M  V30 3645 H 340.692 6.59246 -1.56209 0
M  V30 3646 H 341.635 6.38019 -3.07144 0
M  V30 3647 H 342.043 5.40497 -1.62858 0
M  V30 3648 N 341.441 0.965919 1.2453 0
M  V30 3649 C 342.391 0.465731 2.23193 0
M  V30 3650 C 343.375 -0.451277 1.54442 0
M  V30 3651 O 344.567 -0.282489 1.74731 0
M  V30 3652 C 341.696 -0.244511 3.42428 0
M  V30 3653 C 340.782 0.691222 4.18429 0
M  V30 3654 N 341.173 1.82771 4.71623 0
M  V30 3655 C 339.471 0.501649 4.4317 0
M  V30 3656 C 340.172 2.41285 5.29298 0
M  V30 3657 N 339.148 1.69819 5.16394 0
M  V30 3658 H 342.95 1.33291 2.61937 0
M  V30 3659 H 340.464 0.824789 1.39896 0
M  V30 3660 H 342.461 -0.620056 4.12263 0
M  V30 3661 H 341.121 -1.10815 3.05205 0
M  V30 3662 H 342.132 2.20929 4.68413 0
M  V30 3663 H 338.809 -0.318177 4.16286 0
M  V30 3664 H 340.199 3.37181 5.8117 0
M  V30 3665 N 342.919 -1.39368 0.735821 0
M  V30 3666 C 344.147 -2.04795 0.294393 0
M  V30 3667 C 344.562 -1.55478 -1.07107 0
M  V30 3668 O 343.919 -0.720038 -1.67695 0
M  V30 3669 C 343.97 -3.6035 0.288071 0
M  V30 3670 O 343.691 -4.07852 1.59963 0
M  V30 3671 C 345.192 -4.42976 -0.169422 0
M  V30 3672 H 342.412 -0.658571 0.128551 0
M  V30 3673 H 344.956 -1.78399 0.999701 0
M  V30 3674 H 343.111 -3.85645 -0.368355 0
M  V30 3675 H 343.525 -5.02181 1.51375 0
M  V30 3676 H 344.999 -5.51864 -0.122687 0
M  V30 3677 H 345.476 -4.22068 -1.21472 0
M  V30 3678 H 346.082 -4.22832 0.457469 0
M  V30 3679 N 344.397 -0.483516 -1.5 0
M  V30 3680 C 345.643 0.0672592 -2.02688 0
M  V30 3681 C 345.976 1.38247 -1.36387 0
M  V30 3682 O 345.251 1.88131 -0.493675 0
M  V30 3683 C 345.534 0.238109 -3.59312 0
M  V30 3684 C 345.387 -1.099 -4.36168 0
M  V30 3685 C 346.706 0.986916 -4.28892 0
M  V30 3686 H 343.825 0.0229696 -0.736642 0
M  V30 3687 H 346.467 -0.631527 -1.79197 0
M  V30 3688 H 344.617 0.8333 -3.79458 0
M  V30 3689 H 346.289 -1.73172 -4.27562 0
M  V30 3690 H 344.532 -1.69261 -3.99416 0
M  V30 3691 H 345.203 -0.932954 -5.44059 0
M  V30 3692 H 347.679 0.482302 -4.13295 0
M  V30 3693 H 346.555 1.07527 -5.38265 0
M  V30 3694 H 346.816 2.0265 -3.92919 0
M  V30 3695 N 345.875 1.56104 -0.216619 0
M  V30 3696 C 346.823 2.21434 0.712036 0
M  V30 3697 C 347.817 1.19218 1.20348 0
M  V30 3698 O 349.023 1.3731 1.16387 0
M  V30 3699 H 345.398 0.70992 0.248026 0
M  V30 3700 H 347.369 2.98083 0.137558 0
M  V30 3701 C 346.118 2.90434 1.91163 0
M  V30 3702 H 345.441 3.68842 1.54258 0
M  V30 3703 H 346.881 3.39552 2.5393 0
M  V30 3704 C 345.34 1.92635 2.76394 0
M  V30 3705 O 345.87 1.44017 3.74996 0
M  V30 3706 N 344.076 1.60392 2.42328 0
M  V30 3707 H 343.623 2.00122 1.622 0
M  V30 3708 H 343.581 0.952159 2.99635 0
M  V30 3709 N 347.353 -0.0568162 1.57498 0
M  V30 3710 C 348.601 -0.751617 1.87604 0
M  V30 3711 C 348.922 -1.77351 0.81066 0
M  V30 3712 O 348.192 -1.95254 -0.159018 0
M  V30 3713 H 346.772 -0.280583 0.692302 0
M  V30 3714 H 349.434 -0.0293483 1.94878 0
M  V30 3715 H 348.53 -1.25852 2.856 0
M  V30 3716 N 348.832 -1.54138 -0.328536 0
M  V30 3717 C 350.062 -1.75807 -1.08516 0
M  V30 3718 C 350.47 -0.50428 -1.82356 0
M  V30 3719 O 349.813 0.534451 -1.75754 0
M  V30 3720 C 349.875 -2.89423 -2.13248 0
M  V30 3721 C 349.539 -4.28504 -1.5885 0
M  V30 3722 C 350.536 -5.09536 -1.03289 0
M  V30 3723 C 348.221 -4.75034 -1.63243 0
M  V30 3724 C 350.215 -6.35206 -0.52845 0
M  V30 3725 C 347.902 -6.00672 -1.12411 0
M  V30 3726 C 348.9 -6.80592 -0.573062 0
M  V30 3727 O 348.588 -8.03867 -0.0723692 0
M  V30 3728 H 348.32 -0.590633 -0.328829 0
M  V30 3729 H 350.874 -2.01819 -0.381868 0
M  V30 3730 H 349.104 -2.5897 -2.87178 0
M  V30 3731 H 350.793 -2.98921 -2.74592 0
M  V30 3732 H 351.559 -4.74745 -0.99206 0
M  V30 3733 H 347.438 -4.12875 -2.05074 0
M  V30 3734 H 350.982 -6.97532 -0.0976774 0
M  V30 3735 H 346.879 -6.34955 -1.162 0
M  V30 3736 H 347.647 -8.18283 -0.188258 0
M  V30 3737 N 350.31 0.590341 -1.46126 0
M  V30 3738 C 351.556 1.35082 -1.51264 0
M  V30 3739 C 351.889 1.93534 -0.160711 0
M  V30 3740 O 351.164 1.76045 0.826956 0
M  V30 3741 C 351.447 2.48588 -2.6053 0
M  V30 3742 C 351.3 1.95221 -4.05227 0
M  V30 3743 C 352.619 3.50662 -2.6594 0
M  V30 3744 H 349.738 0.489803 -0.550692 0
M  V30 3745 H 352.38 0.663887 -1.78024 0
M  V30 3746 H 350.53 3.07186 -2.37843 0
M  V30 3747 H 352.202 1.41139 -4.39178 0
M  V30 3748 H 350.445 1.26101 -4.15068 0
M  V30 3749 H 351.116 2.77121 -4.77397 0
M  V30 3750 H 353.592 3.01934 -2.86313 0
M  V30 3751 H 352.468 4.27551 -3.44226 0
M  V30 3752 H 352.729 4.07399 -1.71694 0
M  V30 3753 N 351.788 1.33704 0.83433 0
M  V30 3754 C 352.736 1.24323 1.96587 0
M  V30 3755 C 353.73 0.143659 1.6879 0
M  V30 3756 O 354.936 0.30791 1.77347 0
M  V30 3757 H 351.311 0.385925 0.645419 0
M  V30 3758 H 353.282 2.19978 2.01624 0
M  V30 3759 C 352.031 1.00394 3.32891 0
M  V30 3760 H 351.354 1.84231 3.54822 0
M  V30 3761 H 352.794 0.97862 4.12552 0
M  V30 3762 C 351.253 -0.293047 3.35623 0
M  V30 3763 O 351.783 -1.29823 3.80143 0
M  V30 3764 N 349.989 -0.322174 2.88809 0
M  V30 3765 H 349.536 0.496379 2.52772 0
M  V30 3766 H 349.494 -1.18977 2.91019 0
M  V30 3767 N 353.266 -1.05314 1.17247 0
M  V30 3768 C 354.682 -1.30452 0.919473 0
M  V30 3769 C 354.882 -1.9703 -0.42209 0
M  V30 3770 O 353.938 -2.24311 -1.15935 0
M  V30 3771 C 355.251 -2.17551 2.07586 0
M  V30 3772 C 356.799 -2.30937 2.11275 0
M  V30 3773 C 357.274 -3.21396 3.26296 0
M  V30 3774 N 358.765 -3.28981 3.26076 0
M  V30 3775 C 359.5 -3.99095 4.11716 0
M  V30 3776 N 358.996 -4.71648 5.07465 0
M  V30 3777 N 360.789 -3.95247 3.9967 0
M  V30 3778 H 352.94 -0.604988 2.03602 0
M  V30 3779 H 355.203 -0.329368 0.888944 0
M  V30 3780 H 354.909 -1.75921 3.0454 0
M  V30 3781 H 354.783 -3.18182 2.02584 0
M  V30 3782 H 357.17 -2.71809 1.14907 0
M  V30 3783 H 357.251 -1.2994 2.20339 0
M  V30 3784 H 356.895 -2.81238 4.22927 0
M  V30 3785 H 356.825 -4.22395 3.14467 0
M  V30 3786 H 359.316 -2.77286 2.5675 0
M  V30 3787 H 359.629 -5.22705 5.6921 0
M  V30 3788 H 357.974 -4.70594 5.11435 0
M  V30 3789 H 361.165 -3.37691 3.24164 0
M  V30 3790 H 361.338 -4.4962 4.66632 0
M  V30 3791 N 354.744 -0.972509 -1.24016 0
M  V30 3792 C 355.969 -0.654417 -1.96805 0
M  V30 3793 C 356.394 0.770398 -1.716 0
M  V30 3794 O 355.752 1.52361 -0.982647 0
M  V30 3795 C 355.8 -0.941031 -3.48105 0
M  V30 3796 O 354.904 -0.0289472 -4.1239 0
M  V30 3797 H 354.245 -0.24692 -0.616382 0
M  V30 3798 H 356.775 -1.30396 -1.57664 0
M  V30 3799 H 356.785 -0.87452 -3.98517 0
M  V30 3800 H 355.46 -1.97939 -3.65777 0
M  V30 3801 H 354.037 -0.149192 -3.72601 0
M  V30 3802 N 356.222 1.38976 -0.743202 0
M  V30 3803 C 357.152 2.33171 -0.123873 0
M  V30 3804 C 358.133 1.54336 0.71516 0
M  V30 3805 O 359.318 1.82696 0.658467 0
M  V30 3806 C 356.448 3.38474 0.777978 0
M  V30 3807 C 355.402 4.27979 0.0424758 0
M  V30 3808 C 354.728 5.2405 1.06189 0
M  V30 3809 C 356.028 5.10155 -1.1198 0
M  V30 3810 H 357.722 2.85213 -0.910709 0
M  V30 3811 H 355.268 1.37133 -0.439388 0
M  V30 3812 H 357.221 4.03328 1.22084 0
M  V30 3813 H 355.945 2.84891 1.59702 0
M  V30 3814 H 354.604 3.64616 -0.380853 0
M  V30 3815 H 354.252 4.66758 1.87472 0
M  V30 3816 H 353.952 5.84785 0.574485 0
M  V30 3817 H 355.476 5.9178 1.50428 0
M  V30 3818 H 356.89 5.68307 -0.75499 0
M  V30 3819 H 355.287 5.80073 -1.53738 0
M  V30 3820 H 356.357 4.44504 -1.93764 0
M  V30 3821 N 357.7 0.491464 1.49741 0
M  V30 3822 C 359.111 0.0413169 1.86654 0
M  V30 3823 C 359.462 -1.36985 1.40462 0
M  V30 3824 O 358.587 -2.01917 0.778354 0
M  V30 3825 C 359.182 0.0682023 3.38731 0
M  V30 3826 C 357.741 -0.32656 3.74981 0
M  V30 3827 C 356.888 0.444888 2.73708 0
M  V30 3828 H 359.839 0.704733 1.42194 0
M  V30 3829 H 359.86 -0.729322 3.73445 0
M  V30 3830 H 359.372 1.09539 3.72321 0
M  V30 3831 H 357.473 -1.35734 3.46997 0
M  V30 3832 H 357.586 -0.013741 4.79098 0
M  V30 3833 H 355.95 -0.104062 2.54487 0
M  V30 3834 H 356.733 1.47197 3.10142 0
M  V30 3835 N 359.178 -1.55987 0.224894 0
M  V30 3836 C 360.426 -1.97998 -0.405099 0
M  V30 3837 C 360.747 -1.11387 -1.60056 0
M  V30 3838 O 360.017 -0.191645 -1.9496 0
M  V30 3839 H 358.597 -0.731235 -0.152658 0
M  V30 3840 H 361.259 -1.92279 0.318567 0
M  V30 3841 H 360.355 -3.03463 -0.729167 0
M  V30 3842 N 360.656 0.0484629 -1.57525 0
M  V30 3843 C 361.586 1.0549 -2.08313 0
M  V30 3844 C 362.567 1.38929 -0.981463 0
M  V30 3845 O 363.752 1.48151 -1.25558 0
M  V30 3846 C 360.882 2.36162 -2.54646 0
M  V30 3847 C 359.836 2.17016 -3.68901 0
M  V30 3848 C 359.162 3.53278 -4.01371 0
M  V30 3849 C 360.462 1.57219 -4.98076 0
M  V30 3850 H 362.156 0.632195 -2.92649 0
M  V30 3851 H 359.702 0.302654 -1.40784 0
M  V30 3852 H 361.655 3.06882 -2.88793 0
M  V30 3853 H 360.379 2.80456 -1.67368 0
M  V30 3854 H 359.038 1.48733 -3.35073 0
M  V30 3855 H 358.686 3.95185 -3.11188 0
M  V30 3856 H 358.386 3.41299 -4.78318 0
M  V30 3857 H 359.91 4.25391 -4.38035 0
M  V30 3858 H 361.324 2.17832 -5.30304 0
M  V30 3859 H 359.721 1.55871 -5.79503 0
M  V30 3860 H 360.791 0.535956 -4.81929 0
M  V30 3861 N 362.134 1.5431 0.320358 0
M  V30 3862 C 363.383 1.7188 1.05546 0
M  V30 3863 C 363.696 0.501143 1.89071 0
M  V30 3864 O 364.902 0.558258 2.65699 0
M  V30 3865 C 363.358 3.04025 1.92605 0
M  V30 3866 C 362.966 4.33207 1.14176 0
M  V30 3867 C 364.71 3.30959 2.65832 0
M  V30 3868 C 362.617 5.56412 2.00399 0
M  V30 3869 H 361.547 0.640547 0.397763 0
M  V30 3870 H 364.198 1.80802 0.313522 0
M  V30 3871 H 362.58 2.89019 2.7071 0
M  V30 3872 H 363.754 4.58989 0.40819 0
M  V30 3873 H 362.069 4.13062 0.526165 0
M  V30 3874 H 364.666 4.20203 3.30656 0
M  V30 3875 H 365.009 2.48979 3.33639 0
M  V30 3876 H 365.542 3.46847 1.94787 0
M  V30 3877 H 362.281 6.41004 1.37094 0
M  V30 3878 H 361.801 5.34844 2.7148 0
M  V30 3879 H 363.48 5.92938 2.58908 0
M  V30 3880 N 363.613 -0.582584 1.46437 0
M  V30 3881 C 364.861 -1.33814 1.51453 0
M  V30 3882 C 365.182 -1.94277 0.167792 0
M  V30 3883 O 364.452 -1.78566 -0.805677 0
M  V30 3884 H 363.032 -0.496838 0.557818 0
M  V30 3885 H 365.694 -0.682281 1.82568 0
M  V30 3886 H 364.79 -2.14479 2.26728 0
M  V30 3887 N 365.091 -1.34144 -0.827227 0
M  V30 3888 C 366.331 -1.27603 -1.59677 0
M  V30 3889 C 366.695 0.153035 -1.91389 0
M  V30 3890 O 367.896 0.342566 -2.66608 0
M  V30 3891 C 366.167 -2.13784 -2.86411 0
M  V30 3892 S 367.726 -2.24552 -3.76991 0
M  V30 3893 H 364.544 -0.453789 -0.547354 0
M  V30 3894 H 367.146 -1.69309 -0.977479 0
M  V30 3895 H 365.85 -3.16627 -2.61104 0
M  V30 3896 H 365.381 -1.72959 -3.5334 0
M  V30 3897 H 367.396 -1.41514 -4.75593 0
M  V30 3898 N 366.569 1.04691 -1.17803 0
M  V30 3899 C 367.519 2.10856 -0.867391 0
M  V30 3900 C 368.503 1.601 0.160206 0
M  V30 3901 O 369.695 1.76948 -0.042947 0
M  V30 3902 C 366.824 3.411 -0.388012 0
M  V30 3903 C 365.91 3.9864 -1.44732 0
M  V30 3904 N 366.301 4.30075 -2.66212 0
M  V30 3905 C 364.599 4.26439 -1.30637 0
M  V30 3906 C 365.3 4.76033 -3.34317 0
M  V30 3907 N 364.276 4.76462 -2.61696 0
M  V30 3908 H 368.078 2.33029 -1.79094 0
M  V30 3909 H 365.592 1.22386 -1.0675 0
M  V30 3910 H 367.589 4.16641 -0.146994 0
M  V30 3911 H 366.249 3.20357 0.529271 0
M  V30 3912 H 367.26 4.19917 -3.03134 0
M  V30 3913 H 363.937 4.15056 -0.451129 0
M  V30 3914 H 365.327 5.09427 -4.38103 0
M  V30 3915 N 368.047 0.979072 1.23499 0
M  V30 3916 C 369.463 0.687475 1.44034 0
M  V30 3917 C 369.663 -0.746801 1.8715 0
M  V30 3918 O 368.719 -1.51939 2.0167 0
M  V30 3919 C 370.032 1.68127 2.49307 0
M  V30 3920 C 371.58 1.69516 2.63122 0
M  V30 3921 C 372.055 2.67723 3.71603 0
M  V30 3922 N 373.546 2.66233 3.79044 0
M  V30 3923 C 374.281 3.38891 4.62537 0
M  V30 3924 N 373.777 4.21103 5.50131 0
M  V30 3925 N 375.57 3.27661 4.56721 0
M  V30 3926 H 367.721 1.90559 0.938135 0
M  V30 3927 H 369.984 0.821051 0.473897 0
M  V30 3928 H 369.69 2.70693 2.2454 0
M  V30 3929 H 369.564 1.46306 3.4767 0
M  V30 3930 H 371.951 0.676561 2.8724 0
M  V30 3931 H 372.032 1.95404 1.65079 0
M  V30 3932 H 371.676 3.69724 3.48233 0
M  V30 3933 H 371.606 2.39111 4.69184 0
M  V30 3934 H 374.097 2.06568 3.16446 0
M  V30 3935 H 374.41 4.73403 6.10827 0
M  V30 3936 H 372.755 4.25195 5.49759 0
M  V30 3937 H 375.946 2.62887 3.87309 0
M  V30 3938 H 376.119 3.84547 5.21562 0
M  V30 3939 N 369.525 -1.3858 0.750561 0
M  V30 3940 C 370.472 -2.30483 0.120835 0
M  V30 3941 C 371.442 -1.50022 -0.712923 0
M  V30 3942 O 372.627 -1.78662 -0.669676 0
M  V30 3943 C 369.767 -3.36431 -0.768666 0
M  V30 3944 C 368.88 -4.31927 0.0793922 0
M  V30 3945 C 368.015 -5.24944 -0.81283 0
M  V30 3946 C 367.054 -6.12088 0.0390447 0
M  V30 3947 N 366.191 -6.97412 -0.809969 0
M  V30 3948 H 371.031 -2.83761 0.91015 0
M  V30 3949 H 368.568 -1.39707 0.460463 0
M  V30 3950 H 370.526 -3.96462 -1.29898 0
M  V30 3951 H 369.156 -2.8457 -1.5238 0
M  V30 3952 H 368.208 -3.73382 0.727303 0
M  V30 3953 H 369.52 -4.93319 0.737401 0
M  V30 3954 H 368.674 -5.90078 -1.41042 0
M  V30 3955 H 367.413 -4.63911 -1.50458 0
M  V30 3956 H 366.418 -5.45952 0.649328 0
M  V30 3957 H 367.643 -6.75189 0.727809 0
M  V30 3958 H 365.589 -6.38931 -1.48672 0
M  V30 3959 H 365.506 -7.55712 -0.208789 0
M  V30 3960 H 366.774 -7.66959 -1.39263 0
M  V30 3961 N 371.003 -0.499398 -1.49478 0
M  V30 3962 C 372.228 0.044722 -2.07352 0
M  V30 3963 C 372.653 1.30207 -1.35749 0
M  V30 3964 O 372.011 1.76516 -0.413732 0
M  V30 3965 C 372.059 0.283013 -3.59488 0
M  V30 3966 O 371.163 1.35804 -3.89398 0
M  V30 3967 H 370.504 -0.0255147 -0.66351 0
M  V30 3968 H 373.034 -0.698561 -1.92305 0
M  V30 3969 H 373.044 0.515007 -4.04737 0
M  V30 3970 H 371.719 -0.635636 -4.11014 0
M  V30 3971 H 370.296 1.11113 -3.55961 0
M  V30 3972 N 372.481 1.55866 -0.233164 0
M  V30 3973 C 373.727 1.98897 0.395959 0
M  V30 3974 C 374.06 1.12091 1.58585 0
M  V30 3975 O 373.335 0.181182 1.93654 0
M  V30 3976 C 373.618 3.50658 0.819224 0
M  V30 3977 C 373.471 4.48233 -0.375109 0
M  V30 3978 C 374.79 4.07135 1.67121 0
M  V30 3979 H 371.909 0.723102 0.142451 0
M  V30 3980 H 374.551 1.87082 -0.331725 0
M  V30 3981 H 372.701 3.60857 1.43925 0
M  V30 3982 H 374.373 4.50031 -1.01341 0
M  V30 3983 H 372.616 4.21624 -1.02058 0
M  V30 3984 H 373.287 5.51988 -0.0358328 0
M  V30 3985 H 375.763 3.99952 1.14795 0
M  V30 3986 H 374.639 5.13615 1.93625 0
M  V30 3987 H 374.9 3.54736 2.63846 0
M  V30 3988 N 373.959 -0.0401083 1.57549 0
M  V30 3989 C 375.189 -0.744115 1.92734 0
M  V30 3990 C 375.597 -1.70005 0.830348 0
M  V30 3991 O 374.94 -1.82576 -0.20286 0
M  V30 3992 C 375.002 -1.56516 3.2364 0
M  V30 3993 C 374.666 -0.7752 4.50377 0
M  V30 3994 C 375.663 -0.0803326 5.19838 0
M  V30 3995 C 373.348 -0.733002 4.96923 0
M  V30 3996 C 375.342 0.646154 6.34116 0
M  V30 3997 C 373.029 -0.00276321 6.111 0
M  V30 3998 C 374.027 0.685585 6.7955 0
M  V30 3999 O 373.715 1.40399 7.91545 0
M  V30 4000 H 373.447 -0.214861 0.640945 0
M  V30 4001 H 376.001 -0.00503675 2.05399 0
M  V30 4002 H 374.231 -2.3478 3.07271 0
M  V30 4003 H 375.92 -2.15076 3.44234 0
M  V30 4004 H 376.686 -0.104035 4.84888 0
M  V30 4005 H 372.565 -1.25827 4.43496 0
M  V30 4006 H 376.109 1.18398 6.87479 0
M  V30 4007 H 372.006 0.0229012 6.45496 0
M  V30 4008 H 372.774 1.31653 8.07843 0
M  V30 4009 N 375.437 -1.54477 -0.31217 0
M  V30 4010 C 376.683 -1.74417 -1.04644 0
M  V30 4011 C 377.038 -0.517641 -1.85306 0
M  V30 4012 O 376.331 0.489973 -1.85229 0
M  V30 4013 C 376.525 -2.967 -1.99258 0
M  V30 4014 C 376.354 -4.31128 -1.27901 0
M  V30 4015 C 375.124 -4.95087 -1.01079 0
M  V30 4016 C 377.322 -5.09662 -0.689119 0
M  V30 4017 N 375.304 -6.13322 -0.266323 0
M  V30 4018 C 376.675 -6.19952 -0.0768523 0
M  V30 4019 C 378.73 -4.94355 -0.593061 0
M  V30 4020 C 377.433 -7.16604 0.622165 0
M  V30 4021 C 379.459 -5.91328 0.0922792 0
M  V30 4022 C 378.821 -7.00978 0.693443 0
M  V30 4023 H 374.92 -0.69094 -0.366231 0
M  V30 4024 H 377.504 -1.91946 -0.326319 0
M  V30 4025 H 375.675 -2.80616 -2.68532 0
M  V30 4026 H 377.407 -3.05216 -2.65755 0
M  V30 4027 H 374.162 -4.55235 -1.30607 0
M  V30 4028 H 374.586 -6.76937 0.0920973 0
M  V30 4029 H 379.228 -4.09719 -1.04355 0
M  V30 4030 H 376.946 -8.0079 1.08445 0
M  V30 4031 H 380.532 -5.81562 0.166396 0
M  V30 4032 H 379.412 -7.74725 1.21533 0
M  V30 4033 N 376.915 0.57481 -1.46744 0
M  V30 4034 C 377.865 1.67838 -1.54319 0
M  V30 4035 C 378.849 1.55759 -0.40346 0
M  V30 4036 O 380.041 1.6454 -0.652347 0
M  V30 4037 C 377.17 3.06624 -1.5439 0
M  V30 4038 C 376.256 3.23971 -2.73685 0
M  V30 4039 N 376.647 3.11447 -3.9854 0
M  V30 4040 C 374.945 3.5493 -2.70075 0
M  V30 4041 C 375.646 3.31011 -4.78337 0
M  V30 4042 N 374.622 3.56533 -4.10348 0
M  V30 4043 H 378.424 1.56698 -2.48642 0
M  V30 4044 H 375.938 0.779071 -1.42493 0
M  V30 4045 H 377.935 3.85839 -1.57905 0
M  V30 4046 H 376.595 3.1889 -0.611493 0
M  V30 4047 H 377.606 2.89145 -4.29669 0
M  V30 4048 H 374.283 3.73832 -1.85893 0
M  V30 4049 H 375.673 3.26445 -5.87268 0
M  V30 4050 N 378.394 1.34581 0.820102 0
M  V30 4051 C 379.64 1.27285 1.57881 0
M  V30 4052 C 379.973 -0.156137 1.93571 0
M  V30 4053 O 379.248 -1.10222 1.60254 0
M  V30 4054 C 379.531 2.16639 2.87645 0
M  V30 4055 C 379.384 3.68088 2.58517 0
M  V30 4056 C 380.703 2.05378 3.8924 0
M  V30 4057 H 377.822 0.463714 0.572833 0
M  V30 4058 H 380.464 1.64859 0.944539 0
M  V30 4059 H 378.614 1.84725 3.41773 0
M  V30 4060 H 380.286 4.10382 2.10676 0
M  V30 4061 H 378.529 3.89038 1.91917 0
M  V30 4062 H 379.2 4.2598 3.51063 0
M  V30 4063 H 381.676 2.33404 3.44473 0
M  V30 4064 H 380.552 2.7012 4.77835 0
M  V30 4065 H 380.813 1.0316 4.29896 0
M  V30 4066 N 379.872 -1.04064 1.18357 0
M  V30 4067 C 381.121 -1.76662 0.973313 0
M  V30 4068 C 381.434 -1.89154 -0.497991 0
M  V30 4069 O 382.64 -2.58606 -0.826762 0
M  V30 4070 C 381.096 -3.17624 1.69242 0
M  V30 4071 C 380.704 -3.13225 3.20303 0
M  V30 4072 C 382.448 -3.946 1.56497 0
M  V30 4073 C 380.355 -4.49046 3.84853 0
M  V30 4074 H 379.285 -0.662214 0.36054 0
M  V30 4075 H 381.936 -1.16553 1.41731 0
M  V30 4076 H 380.318 -3.78129 1.1762 0
M  V30 4077 H 381.492 -2.62172 3.78949 0
M  V30 4078 H 379.807 -2.49749 3.33189 0
M  V30 4079 H 382.404 -4.95042 2.02084 0
M  V30 4080 H 382.747 -4.13074 0.517243 0
M  V30 4081 H 383.28 -3.4067 2.05399 0
M  V30 4082 H 380.019 -4.35777 4.89672 0
M  V30 4083 H 379.539 -5.00203 3.30994 0
M  V30 4084 H 381.218 -5.17961 3.87718 0
M  V30 4085 N 381.35 -0.985608 -1.22978 0
M  V30 4086 C 382.598 -0.656087 -1.91154 0
M  V30 4087 C 382.919 0.813561 -1.77218 0
M  V30 4088 O 382.189 1.58244 -1.1548 0
M  V30 4089 H 380.769 -0.239674 -0.707506 0
M  V30 4090 H 383.431 -1.25054 -1.49491 0
M  V30 4091 H 382.527 -0.912253 -2.9847 0
M  V30 4092 N 382.828 1.3818 -0.7579 0
M  V30 4093 C 383.761 2.28055 -0.0814093 0
M  V30 4094 C 384.739 1.45603 0.723779 0
M  V30 4095 O 385.923 1.74961 0.701491 0
M  V30 4096 C 383.05 3.2676 0.891394 0
M  V30 4097 C 382.096 4.26153 0.171909 0
M  V30 4098 S 382.929 5.23434 -1.13035 0
M  V30 4099 C 384.085 6.25694 -0.160727 0
M  V30 4100 H 384.318 2.85082 -0.84353 0
M  V30 4101 H 381.851 1.44246 -0.550671 0
M  V30 4102 H 383.809 3.8414 1.44731 0
M  V30 4103 H 382.47 2.68706 1.62652 0
M  V30 4104 H 381.663 4.95738 0.908843 0
M  V30 4105 H 381.265 3.72691 -0.312606 0
M  V30 4106 H 383.557 6.74161 0.671773 0
M  V30 4107 H 384.5 7.03285 -0.824353 0
M  V30 4108 H 384.908 5.64064 0.221892 0
M  V30 4109 N 384.306 0.507319 1.49211 0
M  V30 4110 C 385.554 -0.0348839 2.0207 0
M  V30 4111 C 385.875 -1.36898 1.38866 0
M  V30 4112 O 385.145 -1.88133 0.546151 0
M  V30 4113 H 383.725 -0.0158812 0.746831 0
M  V30 4114 H 386.387 0.665998 1.83168 0
M  V30 4115 H 385.483 -0.159917 3.1169 0
M  V30 4116 N 385.784 -1.5574 0.241426 0
M  V30 4117 C 387.012 -2.03208 -0.389134 0
M  V30 4118 C 387.427 -1.12082 -1.51931 0
M  V30 4119 O 386.784 -0.134183 -1.82006 0
M  V30 4120 C 386.835 -3.50064 -0.902087 0
M  V30 4121 O 386.556 -4.37717 0.18305 0
M  V30 4122 C 388.057 -4.13268 -1.60389 0
M  V30 4123 H 385.277 -0.664509 -0.0931053 0
M  V30 4124 H 387.821 -2.0124 0.36369 0
M  V30 4125 H 385.976 -3.52583 -1.60511 0
M  V30 4126 H 386.39 -5.24097 -0.205579 0
M  V30 4127 H 387.864 -5.17733 -1.91458 0
M  V30 4128 H 388.341 -3.59434 -2.52397 0
M  V30 4129 H 388.947 -4.14655 -0.945576 0
M  V30 4130 N 387.262 0.0317525 -1.57568 0
M  V30 4131 C 388.49 0.734949 -1.93407 0
M  V30 4132 C 388.905 1.69036 -0.84096 0
M  V30 4133 O 388.262 1.81582 0.182836 0
M  V30 4134 C 388.313 1.49432 -3.29169 0
M  V30 4135 O 388.034 0.577261 -4.3428 0
M  V30 4136 C 389.535 2.29492 -3.79273 0
M  V30 4137 H 386.755 0.206706 -0.638368 0
M  V30 4138 H 389.299 -0.00992046 -2.04498 0
M  V30 4139 H 387.454 2.1911 -3.19483 0
M  V30 4140 H 387.868 1.10952 -5.1263 0
M  V30 4141 H 389.342 2.78172 -4.76785 0
M  V30 4142 H 389.819 3.10794 -3.10328 0
M  V30 4143 H 390.425 1.64894 -3.92033 0
M  V30 4144 N 388.74 1.54641 0.303973 0
M  V30 4145 C 390.151 1.64811 0.877163 0
M  V30 4146 C 390.502 0.554838 1.88191 0
M  V30 4147 O 389.627 -0.309033 2.14182 0
M  V30 4148 C 390.222 2.9876 1.59775 0
M  V30 4149 C 388.781 3.11061 2.11938 0
M  V30 4150 C 387.928 2.60479 0.951097 0
M  V30 4151 H 390.879 1.58493 0.0810486 0
M  V30 4152 H 390.9 2.90017 2.46314 0
M  V30 4153 H 390.412 3.7831 0.866226 0
M  V30 4154 H 388.513 2.36225 2.88146 0
M  V30 4155 H 388.626 4.17171 2.35595 0
M  V30 4156 H 386.99 2.16859 1.33583 0
M  V30 4157 H 387.773 3.42504 0.233581 0
M  V30 4158 N 390.218 -0.567019 1.47046 0
M  V30 4159 C 391.128 -1.70247 1.6141 0
M  V30 4160 C 392.144 -1.66746 0.497157 0
M  V30 4161 O 393.32 -1.86371 0.763389 0
M  V30 4162 C 390.385 -3.06756 1.61561 0
M  V30 4163 C 389.446 -3.21399 2.84607 0
M  V30 4164 C 388.679 -4.51396 2.84741 0
M  V30 4165 O 388.902 -5.36255 1.94388 0
M  V30 4166 O 387.836 -4.69621 3.76483 0
M  V30 4167 H 391.662 -1.61073 2.57467 0
M  V30 4168 H 389.247 -0.735894 1.30019 0
M  V30 4169 H 391.129 -3.8801 1.64396 0
M  V30 4170 H 389.804 -3.16333 0.686684 0
M  V30 4171 H 388.711 -2.39579 2.8732 0
M  V30 4172 H 390.044 -3.16721 3.76761 0
M  V30 4173 N 391.696 -1.35014 -0.812953 0
M  V30 4174 C 392.942 -1.2812 -1.57204 0
M  V30 4175 C 393.275 0.145869 -1.93651 0
M  V30 4176 O 392.55 1.0937 -1.60836 0
M  V30 4177 C 392.833 -2.18162 -2.86492 0
M  V30 4178 C 392.686 -3.69454 -2.56561 0
M  V30 4179 C 394.005 -2.07439 -3.88145 0
M  V30 4180 H 391.124 -0.466746 -0.570366 0
M  V30 4181 H 393.766 -1.65357 -0.935783 0
M  V30 4182 H 391.916 -1.86535 -3.40789 0
M  V30 4183 H 393.588 -4.11493 -2.08497 0
M  V30 4184 H 391.831 -3.9005 -1.89851 0
M  V30 4185 H 392.502 -4.27835 -3.48799 0
M  V30 4186 H 394.978 -2.35228 -3.4323 0
M  V30 4187 H 393.854 -2.7265 -4.76396 0
M  V30 4188 H 394.115 -1.05439 -4.29343 0
M  V30 4189 N 393.175 1.03435 -1.18907 0
M  V30 4190 C 394.125 2.09924 -0.889706 0
M  V30 4191 C 395.109 1.60261 0.143216 0
M  V30 4192 O 396.301 1.76892 -0.0617122 0
M  V30 4193 C 393.43 3.40669 -0.424168 0
M  V30 4194 C 392.516 3.97082 -1.48952 0
M  V30 4195 N 392.907 4.27227 -2.70759 0
M  V30 4196 C 391.205 4.25029 -1.35152 0
M  V30 4197 C 391.906 4.7246 -3.39347 0
M  V30 4198 N 390.882 4.7366 -2.66735 0
M  V30 4199 H 394.684 2.31116 -1.81555 0
M  V30 4200 H 392.198 1.21246 -1.08042 0
M  V30 4201 H 394.195 4.16461 -0.191176 0
M  V30 4202 H 392.855 3.20901 0.495263 0
M  V30 4203 H 393.866 4.16678 -3.0757 0
M  V30 4204 H 390.543 4.14554 -0.495126 0
M  V30 4205 H 391.933 5.04751 -4.43481 0
M  V30 4206 N 394.653 0.992116 1.22453 0
M  V30 4207 C 395.878 0.685644 1.95739 0
M  V30 4208 C 396.303 -0.743 1.72804 0
M  V30 4209 O 395.661 -1.50778 1.00676 0
M  V30 4210 C 395.709 0.996293 3.46564 0
M  V30 4211 O 394.813 0.0945512 4.12292 0
M  V30 4212 H 394.154 0.256694 0.612376 0
M  V30 4213 H 396.684 1.32888 1.5557 0
M  V30 4214 H 396.694 0.93781 3.97076 0
M  V30 4215 H 395.369 2.03733 3.62582 0
M  V30 4216 H 393.946 0.208451 3.72317 0
M  V30 4217 N 396.131 -1.37776 0.765217 0
M  V30 4218 C 397.38 -1.99092 0.323307 0
M  V30 4219 C 397.693 -1.61434 -1.10446 0
M  V30 4220 O 398.899 -2.15805 -1.64743 0
M  V30 4221 C 397.355 -3.56019 0.527098 0
M  V30 4222 C 396.963 -4.0262 1.96471 0
M  V30 4223 C 398.707 -4.2424 0.148483 0
M  V30 4224 C 396.614 -5.52233 2.11644 0
M  V30 4225 H 395.544 -0.744846 0.117137 0
M  V30 4226 H 398.195 -1.57391 0.943417 0
M  V30 4227 H 396.577 -3.95667 -0.162372 0
M  V30 4228 H 397.751 -3.74234 2.68859 0
M  V30 4229 H 396.066 -3.47161 2.29931 0
M  V30 4230 H 398.663 -5.34159 0.240456 0
M  V30 4231 H 399.006 -4.06446 -0.900422 0
M  V30 4232 H 399.539 -3.89872 0.79025 0
M  V30 4233 H 396.278 -5.74945 3.1483 0
M  V30 4234 H 395.798 -5.82324 1.4373 0
M  V30 4235 H 397.477 -6.18106 1.91193 0
M  V30 4236 N 397.609 -0.515225 -1.4894 0
M  V30 4237 C 398.856 0.024215 -2.02486 0
M  V30 4238 C 399.184 1.35671 -1.39368 0
M  V30 4239 O 398.439 1.88566 -0.523574 0
M  V30 4240 C 398.738 0.210595 -3.56779 0
M  V30 4241 C 398.404 -1.04569 -4.38607 0
M  V30 4242 C 397.066 -1.39002 -4.60686 0
M  V30 4243 C 399.418 -1.88008 -4.86109 0
M  V30 4244 C 396.746 -2.568 -5.27514 0
M  V30 4245 C 399.098 -3.04972 -5.54234 0
M  V30 4246 C 397.762 -3.39768 -5.74555 0
M  V30 4247 H 397.032 0.00886088 -0.740947 0
M  V30 4248 H 399.679 -0.678263 -1.79086 0
M  V30 4249 H 397.984 0.99572 -3.78936 0
M  V30 4250 H 399.681 0.642659 -3.95817 0
M  V30 4251 H 396.271 -0.767497 -4.21672 0
M  V30 4252 H 400.455 -1.62719 -4.68867 0
M  V30 4253 H 395.711 -2.8398 -5.41447 0
M  V30 4254 H 399.885 -3.69943 -5.90013 0
M  V30 4255 H 397.512 -4.31148 -6.26112 0
M  V30 4256 N 399.087 1.5561 -0.249682 0
M  V30 4257 C 400.017 2.24477 0.642826 0
M  V30 4258 C 400.998 1.22601 1.17911 0
M  V30 4259 O 402.183 1.5126 1.21795 0
M  V30 4260 C 399.313 2.94638 1.83863 0
M  V30 4261 C 398.267 4.03227 1.435 0
M  V30 4262 C 397.593 4.60828 2.71186 0
M  V30 4263 C 398.893 5.18796 0.604002 0
M  V30 4264 H 400.587 2.99321 0.0685625 0
M  V30 4265 H 398.133 1.43965 0.0315363 0
M  V30 4266 H 400.086 3.41517 2.46868 0
M  V30 4267 H 398.81 2.17287 2.43832 0
M  V30 4268 H 397.469 3.57121 0.828275 0
M  V30 4269 H 397.117 3.80174 3.29358 0
M  V30 4270 H 396.817 5.34132 2.44901 0
M  V30 4271 H 398.341 5.10442 3.35084 0
M  V30 4272 H 399.755 5.61883 1.13842 0
M  V30 4273 H 398.152 5.98506 0.437097 0
M  V30 4274 H 399.222 4.83384 -0.383147 0
M  V30 4275 N 400.565 -0.0233959 1.57583 0
M  V30 4276 C 401.475 -1.03907 2.10334 0
M  V30 4277 C 402.491 -1.39257 1.04323 0
M  V30 4278 O 403.667 -1.48462 1.36091 0
M  V30 4279 C 400.732 -2.31938 2.57693 0
M  V30 4280 C 399.793 -2.03117 3.78209 0
M  V30 4281 C 399.026 -3.25043 4.233 0
M  V30 4282 O 399.249 -4.35916 3.67876 0
M  V30 4283 O 398.183 -3.10411 5.15683 0
M  V30 4284 H 402.009 -0.620748 2.97288 0
M  V30 4285 H 399.594 -0.240743 1.47448 0
M  V30 4286 H 401.476 -3.07196 2.88458 0
M  V30 4287 H 400.151 -2.73055 1.73847 0
M  V30 4288 H 399.058 -1.25408 3.52454 0
M  V30 4289 H 400.391 -1.66852 4.63056 0
M  V30 4290 N 402.043 -1.548 -0.295768 0
M  V30 4291 C 403.291 -1.73985 -1.02828 0
M  V30 4292 C 403.612 -0.531406 -1.87619 0
M  V30 4293 O 402.882 0.454221 -1.90561 0
M  V30 4294 H 401.462 -0.641556 -0.382642 0
M  V30 4295 H 404.124 -1.92163 -0.325489 0
M  V30 4296 H 403.22 -2.63129 -1.67838 0
M  V30 4297 N 403.521 0.559213 -1.47345 0
M  V30 4298 C 404.471 1.66192 -1.5609 0
M  V30 4299 C 405.455 1.55323 -0.419957 0
M  V30 4300 O 406.647 1.63839 -0.669762 0
M  V30 4301 C 403.776 3.0497 -1.57634 0
M  V30 4302 C 402.862 3.2105 -2.77106 0
M  V30 4303 N 403.253 3.07203 -4.01821 0
M  V30 4304 C 401.551 3.52046 -2.73825 0
M  V30 4305 C 402.252 3.25919 -4.81821 0
M  V30 4306 N 401.228 3.52161 -4.14106 0
M  V30 4307 H 405.03 1.54052 -2.5029 0
M  V30 4308 H 402.544 0.763914 -1.43311 0
M  V30 4309 H 404.541 3.84142 -1.61989 0
M  V30 4310 H 403.201 3.18224 -0.645281 0
M  V30 4311 H 404.212 2.84572 -4.32711 0
M  V30 4312 H 400.889 3.71839 -1.89848 0
M  V30 4313 H 402.279 3.20198 -5.90697 0
M  V30 4314 N 404.999 1.35443 0.805782 0
M  V30 4315 C 406.227 1.31878 1.59423 0
M  V30 4316 C 406.642 -0.103562 1.88516 0
M  V30 4317 O 405.999 -1.05575 1.48863 0
M  V30 4318 C 406.05 2.12426 2.92502 0
M  V30 4319 O 405.771 3.49115 2.6467 0
M  V30 4320 C 407.272 2.16455 3.86862 0
M  V30 4321 H 404.492 0.453002 0.495005 0
M  V30 4322 H 407.036 1.78309 1.00131 0
M  V30 4323 H 405.191 1.69593 3.48306 0
M  V30 4324 H 405.605 3.90957 3.49647 0
M  V30 4325 H 407.079 2.77204 4.77349 0
M  V30 4326 H 407.556 1.16352 4.23508 0
M  V30 4327 H 408.162 2.59453 3.36993 0
M  V30 4328 N 406.477 -1.02803 1.19454 0
M  V30 4329 C 407.724 -1.76217 0.997693 0
M  V30 4330 C 408.052 -1.887 -0.47144 0
M  V30 4331 O 407.307 -1.4011 -1.3663 0
M  V30 4332 C 407.606 -3.18941 1.6128 0
M  V30 4333 C 407.272 -3.26463 3.11019 0
M  V30 4334 C 405.934 -3.28223 3.51885 0
M  V30 4335 C 408.286 -3.25542 4.07028 0
M  V30 4336 C 405.614 -3.26719 4.8731 0
M  V30 4337 C 407.966 -3.25579 5.42385 0
M  V30 4338 C 406.63 -3.25637 5.82681 0
M  V30 4339 H 405.9 -0.644823 0.365082 0
M  V30 4340 H 408.547 -1.20655 1.4871 0
M  V30 4341 H 406.852 -3.77587 1.04572 0
M  V30 4342 H 408.549 -3.74415 1.43577 0
M  V30 4343 H 405.139 -3.25822 2.78457 0
M  V30 4344 H 409.323 -3.23362 3.76498 0
M  V30 4345 H 404.579 -3.25089 5.1781 0
M  V30 4346 H 408.753 -3.23817 6.16535 0
M  V30 4347 H 406.38 -3.24226 6.87591 0
M  V30 4348 N 407.956 -0.998596 -1.21925 0
M  V30 4349 C 408.886 -0.573688 -2.26343 0
M  V30 4350 C 409.867 0.402296 -1.65274 0
M  V30 4351 O 411.052 0.291683 -1.91997 0
M  V30 4352 C 408.182 0.106839 -3.47136 0
M  V30 4353 C 407.136 -0.788269 -4.20678 0
M  V30 4354 C 406.462 0.0254927 -5.34694 0
M  V30 4355 C 407.762 -2.08784 -4.78755 0
M  V30 4356 H 409.456 -1.44651 -2.62138 0
M  V30 4357 H 407.002 -0.696975 -1.26009 0
M  V30 4358 H 408.955 0.415531 -4.19346 0
M  V30 4359 H 407.679 1.01424 -3.10452 0
M  V30 4360 H 406.338 -1.08069 -3.50309 0
M  V30 4361 H 405.986 0.933989 -4.94253 0
M  V30 4362 H 405.686 -0.570437 -5.84825 0
M  V30 4363 H 407.21 0.328147 -6.09718 0
M  V30 4364 H 408.624 -1.84272 -5.42878 0
M  V30 4365 H 407.021 -2.63307 -5.39249 0
M  V30 4366 H 408.091 -2.76284 -3.98491 0
M  V30 4367 N 409.434 1.37368 -0.772513 0
M  V30 4368 C 410.68 1.99969 -0.337681 0
M  V30 4369 C 411.013 1.61184 1.08321 0
M  V30 4370 O 410.288 0.858395 1.74533 0
M  V30 4371 C 410.571 3.56858 -0.482121 0
M  V30 4372 C 410.424 4.0555 -1.94549 0
M  V30 4373 C 411.743 4.39955 0.113143 0
M  V30 4374 H 408.862 0.726464 -0.124171 0
M  V30 4375 H 411.504 1.63034 -0.975699 0
M  V30 4376 H 409.654 3.88452 0.0610361 0
M  V30 4377 H 411.326 3.84518 -2.54841 0
M  V30 4378 H 409.569 3.57715 -2.45403 0
M  V30 4379 H 410.24 5.14587 -1.9976 0
M  V30 4380 H 412.716 4.14623 -0.35031 0
M  V30 4381 H 411.592 5.48897 -0.0180514 0
M  V30 4382 H 411.853 4.25403 1.20354 0
M  V30 4383 N 410.912 0.523116 1.48665 0
M  V30 4384 C 412.328 0.180511 1.58576 0
M  V30 4385 C 412.528 -1.31597 1.52592 0
M  V30 4386 O 411.584 -2.0937 1.4114 0
M  V30 4387 C 412.897 0.776949 2.90489 0
M  V30 4388 C 414.445 0.745058 3.04003 0
M  V30 4389 C 414.92 1.31995 4.38567 0
M  V30 4390 N 416.411 1.28162 4.45117 0
M  V30 4391 C 417.146 1.6964 5.47731 0
M  V30 4392 N 416.642 2.18816 6.57337 0
M  V30 4393 N 418.435 1.6092 5.38573 0
M  V30 4394 H 410.586 1.4958 1.50797 0
M  V30 4395 H 412.849 0.621772 0.715614 0
M  V30 4396 H 412.555 1.82732 3.00503 0
M  V30 4397 H 412.429 0.25007 3.7637 0
M  V30 4398 H 414.816 -0.296532 2.93606 0
M  V30 4399 H 414.897 1.30933 2.1975 0
M  V30 4400 H 414.541 2.36043 4.49718 0
M  V30 4401 H 414.471 0.731418 5.21496 0
M  V30 4402 H 416.962 0.92155 3.66491 0
M  V30 4403 H 417.275 2.48478 7.31764 0
M  V30 4404 H 415.62 2.22805 6.58318 0
M  V30 4405 H 418.811 1.22304 4.5184 0
M  V30 4406 H 418.984 1.93567 6.18414 0
M  V30 4407 N 412.39 -1.55475 0.257931 0
M  V30 4408 C 413.338 -2.23244 -0.653076 0
M  V30 4409 C 414.332 -1.22366 -1.17144 0
M  V30 4410 O 415.538 -1.40347 -1.12706 0
M  V30 4411 H 411.913 -0.716247 -0.229117 0
M  V30 4412 H 413.884 -2.98343 -0.0584788 0
M  V30 4413 C 412.633 -2.95401 -1.83395 0
M  V30 4414 H 411.956 -3.72802 -1.44424 0
M  V30 4415 H 413.396 -3.46165 -2.44838 0
M  V30 4416 C 411.855 -1.99895 -2.71189 0
M  V30 4417 O 412.385 -1.53909 -3.71046 0
M  V30 4418 N 410.591 -1.6676 -2.3799 0
M  V30 4419 H 410.138 -2.04352 -1.56837 0
M  V30 4420 H 410.096 -1.03127 -2.97005 0
M  V30 4421 N 413.868 0.0150385 -1.57593 0
M  V30 4422 C 414.818 1.01943 -2.0394 0
M  V30 4423 C 415.802 1.31209 -0.931286 0
M  V30 4424 O 416.994 1.30559 -1.19513 0
M  V30 4425 C 414.123 2.31621 -2.53391 0
M  V30 4426 C 413.209 2.05384 -3.7105 0
M  V30 4427 N 413.6 1.49253 -4.83278 0
M  V30 4428 C 411.898 2.35601 -3.78693 0
M  V30 4429 C 412.599 1.39143 -5.64813 0
M  V30 4430 N 411.575 1.87187 -5.10355 0
M  V30 4431 H 415.377 0.57969 -2.88126 0
M  V30 4432 H 412.891 0.221056 -1.60888 0
M  V30 4433 H 414.888 3.044 -2.84862 0
M  V30 4434 H 413.548 2.76261 -1.70616 0
M  V30 4435 H 414.559 1.17334 -5.04433 0
M  V30 4436 H 411.236 2.8322 -3.06746 0
M  V30 4437 H 412.626 0.961153 -6.6499 0
M  V30 4438 N 415.346 1.54954 0.287554 0
M  V30 4439 C 416.762 1.46469 0.633964 0
M  V30 4440 C 416.962 0.666865 1.90145 0
M  V30 4441 O 416.018 0.179906 2.51858 0
M  V30 4442 C 417.331 2.90556 0.774454 0
M  V30 4443 C 418.879 3.00681 0.869462 0
M  V30 4444 C 419.354 4.45993 1.04184 0
M  V30 4445 N 420.845 4.4976 1.10772 0
M  V30 4446 C 421.58 5.59393 1.25964 0
M  V30 4447 N 421.076 6.78923 1.37968 0
M  V30 4448 N 422.869 5.47107 1.28959 0
M  V30 4449 H 415.02 2.05288 -0.545041 0
M  V30 4450 H 417.283 0.930305 -0.182308 0
M  V30 4451 H 416.989 3.51594 -0.086207 0
M  V30 4452 H 416.863 3.38743 1.6593 0
M  V30 4453 H 419.25 2.39749 1.7206 0
M  V30 4454 H 419.331 2.55769 -0.0396831 0
M  V30 4455 H 418.975 5.07524 0.195422 0
M  V30 4456 H 418.905 4.88548 1.96542 0
M  V30 4457 H 421.396 3.63651 1.02794 0
M  V30 4458 H 421.709 7.58231 1.49353 0
M  V30 4459 H 420.054 6.81763 1.34999 0
M  V30 4460 H 423.245 4.52668 1.19202 0
M  V30 4461 H 423.418 6.32595 1.40455 0
M  V30 4462 N 416.824 -0.551391 1.4764 0
M  V30 4463 C 417.756 -1.67333 1.56628 0
M  V30 4464 C 418.769 -1.56398 0.452045 0
M  V30 4465 O 419.958 -1.6325 0.721926 0
M  V30 4466 C 417.058 -3.05841 1.45994 0
M  V30 4467 C 416.231 -3.42472 2.72088 0
M  V30 4468 C 415.29 -4.60168 2.55209 0
M  V30 4469 O 414.316 -4.64458 3.2904 0
M  V30 4470 N 415.518 -5.57024 1.63416 0
M  V30 4471 H 418.283 -1.60066 2.53375 0
M  V30 4472 H 415.844 -0.738169 1.44093 0
M  V30 4473 H 417.836 -3.8242 1.32428 0
M  V30 4474 H 416.406 -3.07302 0.573071 0
M  V30 4475 H 415.626 -2.55284 3.00373 0
M  V30 4476 H 416.914 -3.63723 3.55785 0
M  V30 4477 H 416.312 -5.56319 1.02594 0
M  V30 4478 H 414.869 -6.32906 1.558 0
M  V30 4479 N 418.302 -1.35869 -0.798587 0
M  V30 4480 C 419.265 -1.29307 -1.89242 0
M  V30 4481 C 420.265 -0.202747 -1.59517 0
M  V30 4482 O 421.455 -0.456957 -1.681 0
M  V30 4483 C 418.587 -1.00229 -3.25833 0
M  V30 4484 H 419.78 -2.26576 -1.96478 0
M  V30 4485 H 417.333 -1.20509 -0.995358 0
M  V30 4486 H 418.068 -0.033801 -3.24282 0
M  V30 4487 H 417.853 -1.79121 -3.48795 0
M  V30 4488 H 419.343 -0.98219 -4.05885 0
M  V30 4489 N 419.78 1.02168 -1.19998 0
M  V30 4490 C 421.005 1.79833 -1.03319 0
M  V30 4491 C 421.43 1.83504 0.413281 0
M  V30 4492 O 420.788 1.26635 1.29743 0
M  V30 4493 C 420.836 3.22396 -1.61533 0
M  V30 4494 O 419.94 4.03555 -0.849519 0
M  V30 4495 H 419.281 0.554872 -0.364709 0
M  V30 4496 H 421.811 1.28542 -1.59179 0
M  V30 4497 H 421.821 3.73124 -1.65054 0
M  V30 4498 H 420.496 3.19039 -2.66809 0
M  V30 4499 H 419.073 3.62169 -0.888129 0
M  V30 4500 N 421.258 1.00505 1.21394 0
M  V30 4501 C 422.188 0.585684 2.26035 0
M  V30 4502 C 423.169 -0.393525 1.65485 0
M  V30 4503 O 424.354 -0.281497 1.92149 0
M  V30 4504 C 421.484 -0.0884283 3.47187 0
M  V30 4505 C 420.438 0.810567 4.20254 0
M  V30 4506 C 419.764 0.00286382 5.347 0
M  V30 4507 C 421.064 2.1132 4.77641 0
M  V30 4508 H 422.758 1.46039 2.61368 0
M  V30 4509 H 420.304 0.703648 1.25638 0
M  V30 4510 H 422.257 -0.393286 4.19561 0
M  V30 4511 H 420.981 -0.997766 3.10986 0
M  V30 4512 H 419.64 1.09925 3.49731 0
M  V30 4513 H 419.288 -0.907765 4.94741 0
M  V30 4514 H 418.988 0.601444 5.84514 0
M  V30 4515 H 420.512 -0.295808 6.09883 0
M  V30 4516 H 421.926 1.87148 5.41893 0
M  V30 4517 H 420.323 2.66164 5.37845 0
M  V30 4518 H 421.393 2.78393 3.9702 0
M  V30 4519 N 422.737 -1.36956 0.779787 0
M  V30 4520 C 423.647 -2.33965 0.172491 0
M  V30 4521 C 424.663 -1.60574 -0.670222 0
M  V30 4522 O 425.839 -1.92617 -0.588263 0
M  V30 4523 C 422.904 -3.39761 -0.690173 0
M  V30 4524 C 421.965 -4.28964 0.169924 0
M  V30 4525 C 421.198 -5.29707 -0.651662 0
M  V30 4526 O 421.421 -5.38238 -1.88827 0
M  V30 4527 O 420.355 -6.01873 -0.0566264 0
M  V30 4528 H 424.181 -2.87647 0.974321 0
M  V30 4529 H 421.766 -1.39258 0.541078 0
M  V30 4530 H 423.648 -4.04471 -1.1824 0
M  V30 4531 H 422.323 -2.88394 -1.47006 0
M  V30 4532 H 421.23 -3.67326 0.708696 0
M  V30 4533 H 422.563 -4.83656 0.913085 0
M  V30 4534 N 424.215 -0.530993 -1.48385 0
M  V30 4535 C 425.464 0.00474348 -2.01699 0
M  V30 4536 C 425.777 1.35227 -1.41325 0
M  V30 4537 O 426.983 1.97643 -1.86144 0
M  V30 4538 C 425.439 0.0588473 -3.59852 0
M  V30 4539 C 425.047 -1.28385 -4.2921 0
M  V30 4540 C 426.791 0.543358 -4.21008 0
M  V30 4541 C 424.698 -1.19028 -5.79298 0
M  V30 4542 H 423.628 0.00554317 -0.75398 0
M  V30 4543 H 426.279 -0.674924 -1.70637 0
M  V30 4544 H 424.661 0.803612 -3.8776 0
M  V30 4545 H 425.835 -2.04426 -4.12973 0
M  V30 4546 H 424.15 -1.70418 -3.7993 0
M  V30 4547 H 426.747 0.631351 -5.3096 0
M  V30 4548 H 427.09 1.54937 -3.86394 0
M  V30 4549 H 427.623 -0.145754 -3.97533 0
M  V30 4550 H 424.362 -2.17147 -6.18488 0
M  V30 4551 H 423.882 -0.471246 -5.97946 0
M  V30 4552 H 425.561 -0.881365 -6.40969 0
M  V30 4553 N 425.693 1.55336 -0.266172 0
M  V30 4554 C 426.918 2.04258 0.359661 0
M  V30 4555 C 427.343 1.14359 1.49344 0
M  V30 4556 O 426.701 0.140369 1.80756 0
M  V30 4557 C 426.749 3.50997 0.826635 0
M  V30 4558 O 425.853 3.64204 1.93466 0
M  V30 4559 H 425.194 0.659668 0.075727 0
M  V30 4560 H 427.724 2.00694 -0.39786 0
M  V30 4561 H 427.734 3.9219 1.12477 0
M  V30 4562 H 426.409 4.159 -0.00293032 0
M  V30 4563 H 424.986 3.34913 1.63974 0
M  V30 4564 N 427.171 -0.0066808 1.57599 0
M  V30 4565 C 428.582 -0.550379 1.78403 0
M  V30 4566 C 428.933 -1.74339 0.900014 0
M  V30 4567 O 428.058 -2.16166 0.100713 0
M  V30 4568 C 428.653 -1.00523 3.23544 0
M  V30 4569 C 427.212 -1.49428 3.45468 0
M  V30 4570 C 426.359 -0.442444 2.73748 0
M  V30 4571 H 429.31 0.219508 1.57175 0
M  V30 4572 H 429.331 -1.87157 3.31289 0
M  V30 4573 H 428.843 -0.136735 3.87859 0
M  V30 4574 H 426.944 -2.3839 2.86358 0
M  V30 4575 H 427.057 -1.52635 4.54136 0
M  V30 4576 H 425.421 -0.902578 2.38171 0
M  V30 4577 H 426.204 0.416973 3.40758 0
M  V30 4578 N 428.649 -1.55105 -0.279332 0
M  V30 4579 C 429.898 -1.74618 -1.00952 0
M  V30 4580 C 430.211 -0.551096 -1.87676 0
M  V30 4581 O 431.417 -0.628507 -2.64125 0
M  V30 4582 C 429.873 -3.09025 -1.84476 0
M  V30 4583 C 429.481 -4.36081 -1.0265 0
M  V30 4584 C 431.225 -3.37891 -2.56963 0
M  V30 4585 C 429.132 -5.6153 -1.85576 0
M  V30 4586 H 428.062 -0.650868 -0.38064 0
M  V30 4587 H 430.713 -1.81569 -0.265475 0
M  V30 4588 H 429.095 -2.96095 -2.62952 0
M  V30 4589 H 430.269 -4.59909 -0.286354 0
M  V30 4590 H 428.584 -4.14312 -0.416464 0
M  V30 4591 H 431.181 -4.28822 -3.19399 0
M  V30 4592 H 431.524 -2.57737 -3.26921 0
M  V30 4593 H 432.057 -3.5189 -1.85522 0
M  V30 4594 H 428.796 -6.44413 -1.2005 0
M  V30 4595 H 428.316 -5.41854 -2.57204 0
M  V30 4596 H 429.995 -5.99594 -2.43096 0
M  V30 4597 N 430.127 0.543554 -1.4793 0
M  V30 4598 C 431.355 1.32516 -1.58894 0
M  V30 4599 C 431.77 1.87215 -0.244131 0
M  V30 4600 O 431.127 1.65709 0.764652 0
M  V30 4601 C 431.178 2.48554 -2.62494 0
M  V30 4602 O 430.899 1.96112 -3.91755 0
M  V30 4603 C 432.4 3.40572 -2.8377 0
M  V30 4604 H 429.62 0.403472 -0.536145 0
M  V30 4605 H 432.164 0.657106 -1.93655 0
M  V30 4606 H 430.319 3.1127 -2.30629 0
M  V30 4607 H 430.733 2.71967 -4.4848 0
M  V30 4608 H 432.207 4.18375 -3.60093 0
M  V30 4609 H 432.684 3.94965 -1.92092 0
M  V30 4610 H 433.29 2.8366 -3.16887 0
M  V30 4611 N 431.605 1.3629 0.791371 0
M  V30 4612 C 432.852 1.30412 1.54916 0
M  V30 4613 C 433.18 -0.117162 1.94147 0
M  V30 4614 O 432.435 -1.08599 1.62803 0
M  V30 4615 C 432.734 2.17068 2.8393 0
M  V30 4616 C 432.4 3.65645 2.63846 0
M  V30 4617 C 431.062 4.0614 2.58077 0
M  V30 4618 C 433.414 4.59855 2.45322 0
M  V30 4619 C 430.742 5.3899 2.31748 0
M  V30 4620 C 433.094 5.9292 2.2052 0
M  V30 4621 C 431.758 6.32542 2.13183 0
M  V30 4622 H 431.028 0.47721 0.566879 0
M  V30 4623 H 433.675 1.68325 0.913172 0
M  V30 4624 H 431.98 1.72085 3.51986 0
M  V30 4625 H 433.677 2.09846 3.4171 0
M  V30 4626 H 430.267 3.33518 2.69191 0
M  V30 4627 H 434.451 4.29443 2.48782 0
M  V30 4628 H 429.707 5.68672 2.24548 0
M  V30 4629 H 433.881 6.65487 2.05182 0
M  V30 4630 H 431.508 7.35412 1.92544 0
M  V30 4631 N 433.083 -1.0153 1.20538 0
M  V30 4632 C 434.013 -2.11972 0.979295 0
M  V30 4633 C 434.994 -1.6985 -0.0921787 0
M  V30 4634 O 436.179 -1.94089 0.0655932 0
M  V30 4635 C 433.309 -3.43201 0.531984 0
M  V30 4636 C 432.263 -3.9907 1.54685 0
M  V30 4637 C 431.589 -5.26082 0.956127 0
M  V30 4638 C 432.889 -4.32313 2.93092 0
M  V30 4639 H 434.583 -2.31143 1.90298 0
M  V30 4640 H 432.129 -1.11079 0.916372 0
M  V30 4641 H 434.082 -4.1985 0.361044 0
M  V30 4642 H 432.806 -3.23792 -0.427327 0
M  V30 4643 H 431.465 -3.2453 1.70517 0
M  V30 4644 H 431.113 -5.02999 -0.0111538 0
M  V30 4645 H 430.813 -5.64426 1.63393 0
M  V30 4646 H 432.337 -6.05386 0.796284 0
M  V30 4647 H 433.751 -4.99845 2.80763 0
M  V30 4648 H 432.148 -4.81774 3.57791 0
M  V30 4649 H 433.218 -3.41025 3.44717 0
M  V30 4650 N 434.561 -1.01147 -1.20859 0
M  V30 4651 C 435.789 -0.716911 -1.94082 0
M  V30 4652 C 436.204 0.721568 -1.74467 0
M  V30 4653 O 435.561 1.48889 -1.05539 0
M  V30 4654 C 435.612 -1.03662 -3.46318 0
M  V30 4655 O 435.333 -2.4186 -3.65288 0
M  V30 4656 C 436.834 -0.762386 -4.36695 0
M  V30 4657 H 434.054 -0.26367 -0.617024 0
M  V30 4658 H 436.598 -1.35127 -1.53496 0
M  V30 4659 H 434.753 -0.447757 -3.84804 0
M  V30 4660 H 435.167 -2.53224 -4.59323 0
M  V30 4661 H 436.641 -1.03621 -5.42187 0
M  V30 4662 H 437.118 0.303514 -4.3815 0
M  V30 4663 H 437.724 -1.33316 -4.03865 0
M  V30 4664 N 436.039 1.36541 -0.78704 0
M  V30 4665 C 437.002 2.28413 -0.189778 0
M  V30 4666 C 438.002 1.48719 0.611499 0
M  V30 4667 O 439.192 1.68737 0.432842 0
M  V30 4668 C 436.324 3.32824 0.737638 0
M  V30 4669 H 437.517 2.82743 -0.999831 0
M  V30 4670 H 435.07 1.46065 -0.556298 0
M  V30 4671 H 435.805 2.83646 1.57212 0
M  V30 4672 H 435.59 3.91752 0.165044 0
M  V30 4673 H 437.08 4.0144 1.15047 0
M  V30 4674 N 437.518 0.538854 1.48102 0
M  V30 4675 C 438.45 -0.256278 2.27763 0
M  V30 4676 C 439.463 -0.89633 1.35904 0
M  V30 4677 O 440.652 -0.773275 1.60881 0
M  V30 4678 C 437.752 -1.37896 3.09577 0
M  V30 4679 C 436.925 -0.839159 4.29275 0
M  V30 4680 C 435.984 -1.84405 4.9283 0
M  V30 4681 O 435.01 -1.39746 5.51779 0
M  V30 4682 N 436.212 -3.17666 4.85869 0
M  V30 4683 H 438.977 0.426968 2.96643 0
M  V30 4684 H 436.538 0.373747 1.57527 0
M  V30 4685 H 438.53 -2.04955 3.48963 0
M  V30 4686 H 437.1 -1.96572 2.4306 0
M  V30 4687 H 436.32 0.00769287 3.94199 0
M  V30 4688 H 437.608 -0.457548 5.06739 0
M  V30 4689 H 437.006 -3.56609 4.39143 0
M  V30 4690 H 435.563 -3.80334 5.29329 0
M  V30 4691 N 438.996 -1.55193 0.274407 0
M  V30 4692 C 440.224 -2.03987 -0.345943 0
M  V30 4693 C 440.639 -1.15279 -1.4952 0
M  V30 4694 O 439.996 -0.172759 -1.8168 0
M  V30 4695 C 440.047 -3.51898 -0.827631 0
M  V30 4696 O 439.768 -4.37231 0.275855 0
M  V30 4697 C 441.269 -4.16577 -1.51587 0
M  V30 4698 H 438.489 -0.666335 -0.0789892 0
M  V30 4699 H 441.033 -2.00423 0.406294 0
M  V30 4700 H 439.188 -3.55909 -1.52996 0
M  V30 4701 H 439.602 -5.24415 -0.0943638 0
M  V30 4702 H 441.076 -5.21678 -1.80433 0
M  V30 4703 H 441.553 -3.64707 -2.44716 0
M  V30 4704 H 442.159 -4.16568 -0.857409 0
M  V30 4705 N 440.474 -0.00167713 -1.576 0
M  V30 4706 C 441.404 0.988091 -2.11563 0
M  V30 4707 C 442.385 1.35736 -1.02517 0
M  V30 4708 O 443.57 1.44082 -1.30208 0
M  V30 4709 C 440.7 2.27941 -2.62031 0
M  V30 4710 C 439.654 2.0517 -3.75619 0
M  V30 4711 C 438.98 3.4033 -4.12407 0
M  V30 4712 C 440.28 1.41294 -5.02825 0
M  V30 4713 H 441.974 0.538771 -2.94513 0
M  V30 4714 H 439.52 0.257712 -1.41675 0
M  V30 4715 H 441.473 2.97539 -2.9841 0
M  V30 4716 H 440.197 2.74989 -1.76205 0
M  V30 4717 H 438.856 1.37998 -3.39635 0
M  V30 4718 H 438.504 3.85085 -3.23603 0
M  V30 4719 H 438.204 3.25909 -4.88935 0
M  V30 4720 H 439.728 4.1124 -4.51347 0
M  V30 4721 H 441.142 2.00851 -5.36965 0
M  V30 4722 H 439.539 1.37356 -5.84169 0
M  V30 4723 H 440.609 0.382362 -4.8339 0
M  V30 4724 N 441.952 1.55251 0.271103 0
M  V30 4725 C 442.882 1.9127 1.33933 0
M  V30 4726 C 443.863 0.77478 1.5143 0
M  V30 4727 O 445.048 1.03307 1.64442 0
M  V30 4728 C 442.178 2.18627 2.69851 0
M  V30 4729 C 441.132 3.34442 2.67081 0
M  V30 4730 C 440.458 3.47284 4.06569 0
M  V30 4731 C 441.758 4.70784 2.26185 0
M  V30 4732 H 443.452 2.80744 1.04035 0
M  V30 4733 H 440.998 1.35077 0.499017 0
M  V30 4734 H 442.951 2.42413 3.44694 0
M  V30 4735 H 441.675 1.25955 3.01335 0
M  V30 4736 H 440.334 3.10627 1.94695 0
M  V30 4737 H 439.982 2.52074 4.35279 0
M  V30 4738 H 439.682 4.25152 4.0561 0
M  V30 4739 H 441.206 3.73363 4.83148 0
M  V30 4740 H 442.62 4.94102 2.90751 0
M  V30 4741 H 441.017 5.51582 2.36384 0
M  V30 4742 H 442.087 4.69478 1.21319 0
M  V30 4743 N 443.43 -0.535701 1.48216 0
M  V30 4744 C 444.363 -1.65726 1.56876 0
M  V30 4745 C 445.341 -1.57094 0.419542 0
M  V30 4746 O 446.525 -1.77648 0.630352 0
M  V30 4747 C 443.652 -3.04096 1.49142 0
M  V30 4748 C 442.698 -3.31105 2.68834 0
M  V30 4749 S 443.531 -3.18001 4.30854 0
M  V30 4750 C 444.687 -4.58828 4.25709 0
M  V30 4751 H 444.92 -1.58129 2.51759 0
M  V30 4752 H 442.453 -0.718218 1.36678 0
M  V30 4753 H 444.411 -3.839 1.45366 0
M  V30 4754 H 443.072 -3.09139 0.556067 0
M  V30 4755 H 442.265 -4.32033 2.59545 0
M  V30 4756 H 441.867 -2.58961 2.69843 0
M  V30 4757 H 444.159 -5.5023 3.95289 0
M  V30 4758 H 445.102 -4.73172 5.26796 0
M  V30 4759 H 445.51 -4.37883 3.56257 0
M  V30 4760 N 444.908 -1.36708 -0.784132 0
M  V30 4761 C 446.185 -1.21776 -1.53069 0
M  V30 4762 C 446.565 0.193876 -2.10208 0
M  V30 4763 O 445.913 1.20012 -1.94446 0
M  V30 4764 C 446.123 -2.30395 -2.62143 0
M  V30 4765 C 447.471 -2.67325 -3.29882 0
M  V30 4766 O 448.495 -2.29478 -2.7243 0
M  V30 4767 O 447.354 -3.32485 -4.33724 0
M  V30 4768 H 444.448 -0.474459 -0.677361 0
M  V30 4769 H 446.994 -1.48454 -0.82216 0
M  V30 4770 H 445.766 -3.2498 -2.17953 0
M  V30 4771 H 445.389 -2.05112 -3.40609 0
M  V30 4772 N 446.386 1.0089 -1.21074 0
M  V30 4773 C 447.316 2.1145 -0.990523 0
M  V30 4774 C 448.297 1.69897 0.0831699 0
M  V30 4775 O 449.482 1.94052 -0.0758853 0
M  V30 4776 C 446.612 3.42914 -0.550177 0
M  V30 4777 C 445.566 3.98244 -1.56799 0
M  V30 4778 C 444.892 5.25568 -0.984013 0
M  V30 4779 C 446.192 4.30752 -2.95381 0
M  V30 4780 H 447.886 2.3013 -1.91521 0
M  V30 4781 H 445.432 1.10592 -0.92225 0
M  V30 4782 H 447.385 4.19653 -0.383305 0
M  V30 4783 H 446.109 3.24014 0.41015 0
M  V30 4784 H 444.768 3.23621 -1.72236 0
M  V30 4785 H 444.416 5.02998 -0.0155216 0
M  V30 4786 H 444.116 5.63551 -1.66384 0
M  V30 4787 H 445.64 6.04955 -0.828378 0
M  V30 4788 H 447.054 4.98349 -2.8341 0
M  V30 4789 H 445.451 4.79869 -3.60341 0
M  V30 4790 H 446.521 3.39192 -3.46521 0
M  V30 4791 N 447.864 1.01787 1.20321 0
M  V30 4792 C 449.112 0.706538 1.89347 0
M  V30 4793 C 449.433 -0.766289 1.79313 0
M  V30 4794 O 448.703 -1.55126 1.19635 0
M  V30 4795 H 447.283 0.258348 0.700903 0
M  V30 4796 H 449.945 1.28974 1.46122 0
M  V30 4797 H 449.041 0.991066 2.95946 0
M  V30 4798 N 449.342 -1.36122 0.79427 0
M  V30 4799 C 450.274 -2.28683 0.153903 0
M  V30 4800 C 451.287 -1.49707 -0.639669 0
M  V30 4801 O 452.476 -1.7209 -0.474054 0
M  V30 4802 C 449.576 -3.29202 -0.804921 0
M  V30 4803 C 448.749 -4.37358 -0.060366 0
M  V30 4804 C 447.808 -5.17811 -0.935849 0
M  V30 4805 O 446.834 -5.67853 -0.391309 0
M  V30 4806 N 448.036 -5.34721 -2.25951 0
M  V30 4807 H 450.801 -2.84278 0.949008 0
M  V30 4808 H 448.362 -1.4834 0.648611 0
M  V30 4809 H 450.354 -3.79914 -1.39455 0
M  V30 4810 H 448.924 -2.74212 -1.50088 0
M  V30 4811 H 448.144 -3.87746 0.710382 0
M  V30 4812 H 449.432 -5.06777 0.45324 0
M  V30 4813 H 448.83 -4.95687 -2.72601 0
M  V30 4814 H 447.387 -5.88657 -2.79867 0
M  V30 4815 N 450.82 -0.546701 -1.47814 0
M  V30 4816 C 452.067 -0.0187407 -2.02491 0
M  V30 4817 C 452.395 1.32685 -1.42215 0
M  V30 4818 O 451.65 1.87413 -0.563454 0
M  V30 4819 C 451.949 0.134869 -3.57145 0
M  V30 4820 C 451.615 -1.13849 -4.3629 0
M  V30 4821 C 450.277 -1.48743 -4.57634 0
M  V30 4822 C 452.629 -1.98277 -4.82012 0
M  V30 4823 C 449.957 -2.67932 -5.21948 0
M  V30 4824 C 452.309 -3.16659 -5.4764 0
M  V30 4825 C 450.973 -3.51879 -5.67219 0
M  V30 4826 H 450.243 -0.0068577 -0.740968 0
M  V30 4827 H 452.89 -0.716097 -1.77607 0
M  V30 4828 H 451.195 0.915118 -3.80963 0
M  V30 4829 H 452.892 0.558556 -3.97091 0
M  V30 4830 H 449.482 -0.856767 -4.19949 0
M  V30 4831 H 453.666 -1.72628 -4.6531 0
M  V30 4832 H 448.922 -2.95401 -5.35302 0
M  V30 4833 H 453.096 -3.82374 -5.82033 0
M  V30 4834 H 450.723 -4.44331 -6.16825 0
M  V30 4835 N 452.299 1.55045 -0.282633 0
M  V30 4836 C 453.229 2.2579 0.595066 0
M  V30 4837 C 454.21 1.25074 1.15284 0
M  V30 4838 O 455.395 1.5381 1.18559 0
M  V30 4839 C 452.525 2.98472 1.77572 0
M  V30 4840 C 451.479 4.0618 1.34914 0
M  V30 4841 C 450.805 4.66477 2.6135 0
M  V30 4842 C 452.105 5.1996 0.493821 0
M  V30 4843 H 453.799 2.994 0.00505653 0
M  V30 4844 H 451.345 1.44 0.000992001 0
M  V30 4845 H 453.298 3.46677 2.39568 0
M  V30 4846 H 452.022 2.2241 2.39168 0
M  V30 4847 H 450.681 3.58797 0.752338 0
M  V30 4848 H 450.329 3.87074 3.2122 0
M  V30 4849 H 450.029 5.39207 2.33516 0
M  V30 4850 H 451.553 5.17435 3.24181 0
M  V30 4851 H 452.967 5.64172 1.01898 0
M  V30 4852 H 451.364 5.99299 0.310047 0
M  V30 4853 H 452.434 4.82462 -0.485593 0
M  V30 4854 N 453.777 0.010035 1.57597 0
M  V30 4855 C 454.707 -0.976857 2.12084 0
M  V30 4856 C 455.688 -1.35191 1.03235 0
M  V30 4857 O 456.873 -1.43389 1.3097 0
M  V30 4858 C 454.003 -2.26548 2.63236 0
M  V30 4859 C 452.957 -2.03175 3.76701 0
M  V30 4860 C 452.283 -3.38138 4.14206 0
M  V30 4861 C 453.583 -1.38625 5.03568 0
M  V30 4862 H 455.277 -0.523145 2.94794 0
M  V30 4863 H 452.823 -0.250195 1.4181 0
M  V30 4864 H 454.776 -2.95952 2.99984 0
M  V30 4865 H 453.5 -2.74051 1.77661 0
M  V30 4866 H 452.159 -1.36195 3.40362 0
M  V30 4867 H 451.807 -3.83363 3.25641 0
M  V30 4868 H 451.507 -3.23312 4.90656 0
M  V30 4869 H 453.031 -4.08841 4.53521 0
M  V30 4870 H 454.445 -1.98 5.38023 0
M  V30 4871 H 452.842 -1.34256 5.84889 0
M  V30 4872 H 453.912 -0.356722 4.83586 0
M  V30 4873 N 455.255 -1.55392 -0.262866 0
M  V30 4874 C 456.502 -1.76476 -0.993109 0
M  V30 4875 C 456.83 -0.571479 -1.85915 0
M  V30 4876 O 456.085 0.445733 -1.90556 0
M  V30 4877 C 456.384 -3.02889 -1.89718 0
M  V30 4878 C 456.05 -4.34974 -1.18781 0
M  V30 4879 C 454.712 -4.7087 -0.991699 0
M  V30 4880 C 457.064 -5.16695 -0.683798 0
M  V30 4881 C 454.392 -5.86036 -0.279024 0
M  V30 4882 C 456.744 -6.32598 0.0153327 0
M  V30 4883 C 455.408 -6.67127 0.223062 0
M  V30 4884 H 454.678 -0.64577 -0.363404 0
M  V30 4885 H 457.325 -1.89664 -0.264525 0
M  V30 4886 H 455.63 -2.84644 -2.6923 0
M  V30 4887 H 457.327 -3.16399 -2.46359 0
M  V30 4888 H 453.917 -4.06765 -1.35058 0
M  V30 4889 H 458.101 -4.8943 -0.8229 0
M  V30 4890 H 453.357 -6.11306 -0.107456 0
M  V30 4891 H 457.531 -6.95171 0.413584 0
M  V30 4892 H 455.158 -7.56216 0.777265 0
M  V30 4893 N 456.733 0.527833 -1.48498 0
M  V30 4894 C 457.973 1.29401 -1.58224 0
M  V30 4895 C 458.337 1.90348 -0.251327 0
M  V30 4896 O 459.538 2.67868 -0.223588 0
M  V30 4897 C 457.809 2.35266 -2.69044 0
M  V30 4898 S 459.368 3.2158 -2.98549 0
M  V30 4899 H 456.186 0.440138 -0.558391 0
M  V30 4900 H 458.788 0.601079 -1.8603 0
M  V30 4901 H 457.492 1.88975 -3.64303 0
M  V30 4902 H 457.023 3.09263 -2.43146 0
M  V30 4903 H 459.038 4.35391 -2.38011 0
M  V30 4904 N 458.211 1.37122 0.776871 0
M  V30 4905 C 459.161 1.28989 1.88005 0
M  V30 4906 C 460.145 0.178765 1.59904 0
M  V30 4907 O 461.337 0.412705 1.72121 0
M  V30 4908 C 458.466 1.09402 3.25402 0
M  V30 4909 C 457.552 2.25036 3.59471 0
M  V30 4910 N 457.943 3.50407 3.64759 0
M  V30 4911 C 456.241 2.17078 3.89607 0
M  V30 4912 C 456.942 4.26628 3.95428 0
M  V30 4913 N 455.918 3.55709 4.11062 0
M  V30 4914 H 459.72 2.2394 1.90337 0
M  V30 4915 H 457.234 1.30021 0.973052 0
M  V30 4916 H 459.231 1.01661 4.04315 0
M  V30 4917 H 457.891 0.153632 3.24336 0
M  V30 4918 H 458.902 3.8438 3.47091 0
M  V30 4919 H 455.579 1.31067 3.96393 0
M  V30 4920 H 456.969 5.35107 4.06338 0
M  V30 4921 N 459.689 -1.00246 1.21608 0
M  V30 4922 C 460.938 -1.73476 1.02902 0
M  V30 4923 C 461.251 -1.90643 -0.437561 0
M  V30 4924 O 462.457 -2.61105 -0.74407 0
M  V30 4925 C 460.913 -3.12079 1.79261 0
M  V30 4926 C 460.521 -3.02877 3.30106 0
M  V30 4927 C 462.265 -3.89421 1.68972 0
M  V30 4928 C 460.172 -4.36575 3.98944 0
M  V30 4929 H 459.102 -0.650408 0.381425 0
M  V30 4930 H 461.753 -1.11985 1.45367 0
M  V30 4931 H 460.135 -3.74196 1.2959 0
M  V30 4932 H 461.309 -2.49983 3.87098 0
M  V30 4933 H 459.624 -2.39022 3.40965 0
M  V30 4934 H 462.221 -4.88362 2.17731 0
M  V30 4935 H 462.564 -4.1122 0.648397 0
M  V30 4936 H 463.097 -3.33963 2.16133 0
M  V30 4937 H 459.836 -4.19978 5.03288 0
M  V30 4938 H 459.356 -4.8942 3.4674 0
M  V30 4939 H 461.035 -5.05364 4.04 0
M  V30 4940 N 461.167 -1.02423 -1.1978 0
M  V30 4941 C 462.392 -0.7373 -1.93852 0
M  V30 4942 C 462.817 0.696923 -1.74713 0
M  V30 4943 O 462.175 1.48056 -1.04638 0
M  V30 4944 C 462.223 -1.08783 -3.438 0
M  V30 4945 O 461.327 -0.20383 -4.11896 0
M  V30 4946 H 460.668 -0.27284 -0.605355 0
M  V30 4947 H 463.198 -1.36966 -1.51992 0
M  V30 4948 H 463.208 -1.04276 -3.9445 0
M  V30 4949 H 461.883 -2.13274 -3.57053 0
M  V30 4950 H 460.46 -0.307091 -3.71633 0
M  V30 4951 N 462.645 1.35699 -0.801477 0
M  V30 4952 C 463.87 2.03687 -0.390678 0
M  V30 4953 C 464.295 1.60015 0.988778 0
M  V30 4954 O 463.653 0.774357 1.63931 0
M  V30 4955 C 463.701 3.57439 -0.476404 0
M  V30 4956 O 462.805 4.09208 0.512106 0
M  V30 4957 H 462.146 0.64344 -0.163956 0
M  V30 4958 H 464.676 1.73403 -1.08594 0
M  V30 4959 H 464.686 4.06544 -0.344357 0
M  V30 4960 H 463.361 3.88576 -1.48262 0
M  V30 4961 H 461.938 3.7134 0.340721 0
M  V30 4962 N 464.123 0.554532 1.47522 0
M  V30 4963 C 465.073 -0.215008 2.26984 0
M  V30 4964 C 466.057 -0.88774 1.34194 0
M  V30 4965 O 467.249 -0.786489 1.58567 0
M  V30 4966 C 464.378 -1.24604 3.19889 0
M  V30 4967 C 463.464 -0.576857 4.20159 0
M  V30 4968 N 463.855 0.351541 5.04577 0
M  V30 4969 C 462.153 -0.831104 4.38188 0
M  V30 4970 C 462.854 0.739995 5.76974 0
M  V30 4971 N 461.83 0.0954407 5.43516 0
M  V30 4972 H 465.632 0.498843 2.89636 0
M  V30 4973 H 463.146 0.374279 1.58028 0
M  V30 4974 H 465.143 -1.81128 3.75498 0
M  V30 4975 H 463.803 -1.96101 2.58794 0
M  V30 4976 H 464.814 0.725556 5.12792 0
M  V30 4977 H 461.491 -1.53479 3.88266 0
M  V30 4978 H 462.881 1.50271 6.5488 0
M  V30 4979 N 465.601 -1.54893 0.290851 0
M  V30 4980 C 466.533 -2.20564 -0.623236 0
M  V30 4981 C 467.546 -1.19519 -1.1054 0
M  V30 4982 O 468.735 -1.46165 -1.02459 0
M  V30 4983 C 465.835 -2.83033 -1.86401 0
M  V30 4984 C 465.008 -4.09916 -1.52604 0
M  V30 4985 C 464.067 -4.56284 -2.62091 0
M  V30 4986 O 463.093 -5.2171 -2.27612 0
M  V30 4987 N 464.295 -4.27746 -3.92446 0
M  V30 4988 H 467.06 -2.99638 -0.0610915 0
M  V30 4989 H 464.621 -1.61508 0.112615 0
M  V30 4990 H 466.613 -3.1099 -2.58973 0
M  V30 4991 H 465.183 -2.0786 -2.33481 0
M  V30 4992 H 464.403 -3.89078 -0.633424 0
M  V30 4993 H 465.691 -4.92554 -1.27547 0
M  V30 4994 H 465.089 -3.7531 -4.23272 0
M  V30 4995 H 463.646 -4.60437 -4.61347 0
M  V30 4996 N 467.08 -0.0183926 -1.57589 0
M  V30 4997 C 468.03 0.975944 -2.06057 0
M  V30 4998 C 469.014 1.29204 -0.958908 0
M  V30 4999 O 470.206 1.27995 -1.22255 0
M  V30 5000 C 467.335 2.26194 -2.58247 0
M  V30 5001 C 466.421 1.97467 -3.75323 0
M  V30 5002 N 466.812 1.38968 -4.86335 0
M  V30 5003 C 465.11 2.27515 -3.83605 0
M  V30 5004 C 465.811 1.27131 -5.67638 0
M  V30 5005 N 464.787 1.76319 -5.14211 0
M  V30 5006 H 468.589 0.518444 -2.89291 0
M  V30 5007 H 466.103 0.18688 -1.61321 0
M  V30 5008 H 468.1 2.98289 -2.91255 0
M  V30 5009 H 466.76 2.7258 -1.76438 0
M  V30 5010 H 467.771 1.06608 -5.06809 0
M  V30 5011 H 464.448 2.76649 -3.12684 0
M  V30 5012 H 465.838 0.819882 -6.66879 0
M  V30 5013 N 468.558 1.5553 0.254621 0
M  V30 5014 C 469.835 1.6774 1.00611 0
M  V30 5015 C 470.215 0.555993 2.03647 0
M  V30 5016 O 469.563 -0.441583 2.24193 0
M  V30 5017 C 469.773 3.07725 1.6464 0
M  V30 5018 C 471.121 3.66074 2.15116 0
M  V30 5019 O 472.145 3.10476 1.74595 0
M  V30 5020 O 471.004 4.63526 2.89493 0
M  V30 5021 H 468.098 0.681958 0.467828 0
M  V30 5022 H 470.644 1.67863 0.24902 0
M  V30 5023 H 469.416 3.80792 0.900734 0
M  V30 5024 H 469.039 3.1158 2.46989 0
M  V30 5025 N 470.036 -0.519951 1.48776 0
M  V30 5026 C 471.284 -1.2727 1.56993 0
M  V30 5027 C 471.605 -1.9339 0.25004 0
M  V30 5028 O 470.875 -1.81822 -0.729216 0
M  V30 5029 H 469.455 -0.472732 0.578389 0
M  V30 5030 H 472.117 -0.604234 1.85297 0
M  V30 5031 H 471.213 -2.04669 2.3562 0
M  V30 5032 N 471.514 -1.37532 -0.769588 0
M  V30 5033 C 472.447 -1.27839 -1.8903 0
M  V30 5034 C 473.425 -0.158504 -1.61826 0
M  V30 5035 O 474.609 -0.333086 -1.85534 0
M  V30 5036 C 471.736 -0.977072 -3.24301 0
M  V30 5037 C 470.782 -2.11414 -3.70414 0
M  V30 5038 S 471.615 -3.73409 -3.83831 0
M  V30 5039 C 472.771 -3.45432 -5.21946 0
M  V30 5040 H 473.004 -2.22694 -1.96963 0
M  V30 5041 H 470.537 -1.2318 -0.930914 0
M  V30 5042 H 472.495 -0.810049 -4.02428 0
M  V30 5043 H 471.156 -0.0459701 -3.14066 0
M  V30 5044 H 470.349 -1.85837 -4.68488 0
M  V30 5045 H 469.951 -2.24141 -2.99394 0
M  V30 5046 H 472.243 -3.00554 -6.07185 0
M  V30 5047 H 473.186 -4.42841 -5.52537 0
M  V30 5048 H 473.594 -2.80311 -4.89986 0
M  V30 5049 N 472.992 0.995999 -1.22138 0
M  V30 5050 C 473.902 2.11985 -1.00496 0
M  V30 5051 C 474.918 1.7394 0.0457701 0
M  V30 5052 O 476.094 2.00868 -0.146273 0
M  V30 5053 C 473.159 3.41779 -0.582086 0
M  V30 5054 C 472.22 3.93943 -1.70608 0
M  V30 5055 C 471.453 5.17542 -1.30328 0
M  V30 5056 O 471.676 5.70114 -0.180743 0
M  V30 5057 O 470.61 5.63382 -2.11861 0
M  V30 5058 H 474.436 2.33123 -1.94647 0
M  V30 5059 H 472.021 1.10358 -1.00705 0
M  V30 5060 H 473.903 4.1989 -0.356467 0
M  V30 5061 H 472.578 3.22007 0.330592 0
M  V30 5062 H 471.485 3.17019 -1.98619 0
M  V30 5063 H 472.818 4.18141 -2.59651 0
M  V30 5064 N 474.47 1.03057 1.19235 0
M  V30 5065 C 475.433 0.617418 2.20727 0
M  V30 5066 C 476.433 -0.319856 1.57587 0
M  V30 5067 O 477.623 -0.106633 1.73873 0
M  V30 5068 C 474.755 -0.096296 3.40764 0
M  V30 5069 H 475.948 1.51544 2.58794 0
M  V30 5070 H 473.501 0.821949 1.32942 0
M  V30 5071 H 474.236 -1.00859 3.08217 0
M  V30 5072 H 474.021 0.577217 3.87828 0
M  V30 5073 H 475.511 -0.372219 4.15938 0
M  V30 5074 N 475.948 -1.35272 0.808662 0
M  V30 5075 C 477.178 -2.02652 0.401953 0
M  V30 5076 C 477.586 -1.6108 -0.992462 0
M  V30 5077 O 476.929 -0.804984 -1.65123 0
M  V30 5078 C 476.991 -3.57174 0.408246 0
M  V30 5079 C 476.655 -4.22019 1.75353 0
M  V30 5080 C 477.652 -4.43552 2.71215 0
M  V30 5081 C 475.337 -4.59093 2.03811 0
M  V30 5082 C 477.331 -5.01264 3.93717 0
M  V30 5083 C 475.018 -5.16519 3.26576 0
M  V30 5084 C 476.016 -5.37546 4.21347 0
M  V30 5085 O 475.704 -5.93761 5.41944 0
M  V30 5086 H 475.436 -0.656495 0.161216 0
M  V30 5087 H 477.99 -1.73829 1.0942 0
M  V30 5088 H 476.22 -3.85197 -0.340608 0
M  V30 5089 H 477.909 -4.05893 0.0235623 0
M  V30 5090 H 478.675 -4.15288 2.50522 0
M  V30 5091 H 474.554 -4.42039 1.30854 0
M  V30 5092 H 478.098 -5.17592 4.67701 0
M  V30 5093 H 473.995 -5.4421 3.47139 0
M  V30 5094 H 474.763 -6.1221 5.43269 0
M  V30 5095 N 477.426 -0.562348 -1.47226 0
M  V30 5096 C 478.672 -0.0402761 -2.0276 0
M  V30 5097 C 479.005 1.30823 -1.43523 0
M  V30 5098 O 478.28 1.85249 -0.592705 0
M  V30 5099 C 478.563 0.047311 -3.60069 0
M  V30 5100 C 478.416 -1.32865 -4.29729 0
M  V30 5101 C 479.735 0.758182 -4.3352 0
M  V30 5102 H 476.854 -0.0161105 -0.736824 0
M  V30 5103 H 479.496 -0.725628 -1.75598 0
M  V30 5104 H 477.646 0.630986 -3.83342 0
M  V30 5105 H 479.318 -1.95593 -4.17781 0
M  V30 5106 H 477.561 -1.90195 -3.89882 0
M  V30 5107 H 478.232 -1.22004 -5.38349 0
M  V30 5108 H 480.708 0.262546 -4.15271 0
M  V30 5109 H 479.584 0.78844 -5.43208 0
M  V30 5110 H 479.845 1.81537 -4.03109 0
M  V30 5111 N 478.904 1.54736 -0.299062 0
M  V30 5112 C 479.851 2.23448 0.577899 0
M  V30 5113 C 480.821 1.21637 1.13109 0
M  V30 5114 O 482.006 1.50252 1.17597 0
M  V30 5115 C 479.146 2.9774 1.74484 0
M  V30 5116 C 478.259 4.1432 1.22323 0
M  V30 5117 C 477.394 4.76199 2.35388 0
M  V30 5118 C 476.433 5.84927 1.80351 0
M  V30 5119 N 475.57 6.4077 2.86982 0
M  V30 5120 H 480.41 2.97996 -0.0146545 0
M  V30 5121 H 477.947 1.47088 -0.0190013 0
M  V30 5122 H 479.905 3.39045 2.43114 0
M  V30 5123 H 478.535 2.25572 2.30905 0
M  V30 5124 H 477.587 3.7797 0.429249 0
M  V30 5125 H 478.899 4.92659 0.780309 0
M  V30 5126 H 478.053 5.20346 3.11969 0
M  V30 5127 H 476.792 3.97188 2.83006 0
M  V30 5128 H 475.797 5.40207 1.02259 0
M  V30 5129 H 477.022 6.65821 1.3364 0
M  V30 5130 H 474.968 5.64643 3.33938 0
M  V30 5131 H 474.885 7.1445 2.4718 0
M  V30 5132 H 476.153 6.89574 3.63466 0
M  V30 5133 N 480.382 0.0267497 1.57577 0
M  V30 5134 C 481.628 -0.653371 1.91987 0
M  V30 5135 C 481.961 -1.71915 0.903263 0
M  V30 5136 O 481.236 -1.94358 -0.0743387 0
M  V30 5137 C 481.519 -1.272 3.36886 0
M  V30 5138 C 481.372 -0.215938 4.49281 0
M  V30 5139 C 482.691 -2.19069 3.81703 0
M  V30 5140 H 479.81 -0.236047 0.698177 0
M  V30 5141 H 482.452 0.0835236 1.89816 0
M  V30 5142 H 480.602 -1.90005 3.38866 0
M  V30 5143 H 482.274 0.41449 4.59434 0
M  V30 5144 H 480.517 0.458855 4.31366 0
M  V30 5145 H 481.188 -0.688347 5.47691 0
M  V30 5146 H 483.664 -1.66253 3.81444 0
M  V30 5147 H 482.54 -2.59307 4.83788 0
M  V30 5148 H 482.801 -3.08087 3.17072 0
M  V30 5149 N 481.861 -1.55662 -0.24637 0
M  V30 5150 C 483.138 -1.68272 -0.997198 0
M  V30 5151 C 483.518 -0.566785 -2.03349 0
M  V30 5152 O 482.866 0.429688 -2.24424 0
M  V30 5153 C 483.076 -3.08594 -1.63006 0
M  V30 5154 C 484.424 -3.6721 -2.13171 0
M  V30 5155 O 485.448 -3.11397 -1.72946 0
M  V30 5156 O 484.307 -4.65054 -2.87031 0
M  V30 5157 H 481.401 -0.684429 -0.464205 0
M  V30 5158 H 483.947 -1.67993 -0.240114 0
M  V30 5159 H 482.719 -3.81264 -0.880527 0
M  V30 5160 H 482.342 -3.12886 -2.45333 0
M  V30 5161 N 483.339 0.512053 -1.4905 0
M  V30 5162 C 484.564 1.2959 -1.6193 0
M  V30 5163 C 484.989 1.85906 -0.286454 0
M  V30 5164 O 484.347 1.65312 0.744426 0
M  V30 5165 C 484.395 2.40987 -2.68249 0
M  V30 5166 O 483.499 3.44531 -2.26654 0
M  V30 5167 H 482.84 0.383053 -0.542371 0
M  V30 5168 H 485.37 0.614231 -1.95162 0
M  V30 5169 H 485.38 2.86913 -2.90078 0
M  V30 5170 H 484.055 1.99361 -3.65004 0
M  V30 5171 H 482.632 3.046 -2.15112 0
M  V30 5172 N 484.817 1.37938 0.762283 0
M  V30 5173 C 486.057 1.35076 1.53407 0
M  V30 5174 C 486.421 -0.061546 1.91901 0
M  V30 5175 O 487.622 -0.214973 2.67939 0
M  V30 5176 C 485.893 2.27206 2.75884 0
M  V30 5177 S 487.452 2.42283 3.65848 0
M  V30 5178 H 484.27 0.479387 0.52508 0
M  V30 5179 H 486.872 1.7378 0.895586 0
M  V30 5180 H 485.576 3.28724 2.457 0
M  V30 5181 H 485.107 1.8962 3.44685 0
M  V30 5182 H 487.122 1.64044 4.68299 0
M  V30 5183 N 486.295 -0.989507 1.22664 0
M  V30 5184 C 487.706 -1.54406 1.04955 0
M  V30 5185 C 488.057 -1.92366 -0.385951 0
M  V30 5186 O 487.182 -1.75111 -1.27142 0
M  V30 5187 C 487.777 -2.80578 1.89899 0
M  V30 5188 C 486.336 -3.32464 1.76478 0
M  V30 5189 C 485.483 -2.05524 1.86159 0
M  V30 5190 H 488.434 -0.810211 1.3646 0
M  V30 5191 H 488.455 -3.53075 1.4184 0
M  V30 5192 H 487.967 -2.52918 2.94371 0
M  V30 5193 H 486.068 -3.65024 0.747528 0
M  V30 5194 H 486.181 -4.02838 2.59342 0
M  V30 5195 H 484.545 -2.19241 1.29636 0
M  V30 5196 H 485.328 -1.80258 2.92168 0
M  V30 5197 N 487.773 -1.03688 -1.18687 0
M  V30 5198 C 488.683 -0.634908 -2.25845 0
M  V30 5199 C 489.699 0.337065 -1.70704 0
M  V30 5200 O 490.875 0.192943 -2.00474 0
M  V30 5201 C 487.94 -0.000180054 -3.467 0
M  V30 5202 C 487.001 -1.02067 -4.1699 0
M  V30 5203 C 486.234 -0.41614 -5.32075 0
M  V30 5204 O 486.457 0.778712 -5.65059 0
M  V30 5205 O 485.391 -1.14296 -5.90948 0
M  V30 5206 H 489.217 -1.52757 -2.62486 0
M  V30 5207 H 486.802 -0.807533 -1.25695 0
M  V30 5208 H 488.684 0.353342 -4.19916 0
M  V30 5209 H 487.359 0.866367 -3.11891 0
M  V30 5210 H 486.266 -1.42592 -3.45859 0
M  V30 5211 H 487.599 -1.85786 -4.5579 0
M  V30 5212 N 489.251 1.34841 -0.815825 0
M  V30 5213 C 490.161 2.33425 -0.234462 0
M  V30 5214 C 491.177 1.62295 0.627413 0
M  V30 5215 O 492.353 1.94109 0.536987 0
M  V30 5216 C 489.418 3.41471 0.599849 0
M  V30 5217 C 488.479 4.28362 -0.283596 0
M  V30 5218 C 487.712 5.31248 0.51099 0
M  V30 5219 O 487.935 5.43056 1.7449 0
M  V30 5220 O 486.869 6.01812 -0.10297 0
M  V30 5221 H 490.695 2.84962 -1.05024 0
M  V30 5222 H 488.28 1.37774 -0.577809 0
M  V30 5223 H 490.162 4.07464 1.07475 0
M  V30 5224 H 488.837 2.9219 1.39308 0
M  V30 5225 H 487.744 3.65318 -0.805836 0
M  V30 5226 H 489.077 4.81066 -1.041 0
M  V30 5227 N 490.729 0.570148 1.46925 0
M  V30 5228 C 492.14 0.1402 1.86173 0
M  V30 5229 C 492.491 -1.29347 1.47526 0
M  V30 5230 O 491.616 -1.97508 0.884292 0
M  V30 5231 C 492.211 0.247661 3.37894 0
M  V30 5232 C 490.77 -0.127332 3.76185 0
M  V30 5233 C 489.917 0.589349 2.70965 0
M  V30 5234 H 492.868 0.779117 1.38259 0
M  V30 5235 H 492.889 -0.530341 3.76786 0
M  V30 5236 H 492.401 1.29121 3.65991 0
M  V30 5237 H 490.502 -1.17149 3.53704 0
M  V30 5238 H 490.615 0.240238 4.78497 0
M  V30 5239 H 488.979 0.0309824 2.54681 0
M  V30 5240 H 489.762 1.6343 3.01903 0
M  V30 5241 N 492.207 -1.54576 0.307264 0
M  V30 5242 C 493.139 -2.21212 -0.599807 0
M  V30 5243 C 494.152 -1.20685 -1.09266 0
M  V30 5244 O 495.341 -1.47244 -1.00903 0
M  V30 5245 C 492.441 -2.84994 -1.83389 0
M  V30 5246 C 491.614 -4.11511 -1.48248 0
M  V30 5247 C 490.673 -4.59038 -2.57237 0
M  V30 5248 O 489.699 -5.24095 -2.22065 0
M  V30 5249 N 490.901 -4.31884 -3.87887 0
M  V30 5250 H 493.666 -2.99686 -0.0293075 0
M  V30 5251 H 491.227 -1.61379 0.129738 0
M  V30 5252 H 493.219 -3.1372 -2.5566 0
M  V30 5253 H 491.789 -2.10324 -2.31263 0
M  V30 5254 H 491.009 -3.89728 -0.592122 0
M  V30 5255 H 492.297 -4.93879 -1.22316 0
M  V30 5256 H 491.695 -3.79778 -4.19268 0
M  V30 5257 H 490.252 -4.65304 -4.56438 0
M  V30 5258 N 493.685 -0.035106 -1.57561 0
M  V30 5259 C 494.615 0.942993 -2.13612 0
M  V30 5260 C 495.596 1.33531 -1.05373 0
M  V30 5261 O 496.781 1.41287 -1.33235 0
M  V30 5262 C 493.911 2.22332 -2.66807 0
M  V30 5263 C 492.865 1.97156 -3.79886 0
M  V30 5264 C 492.191 3.31506 -4.19533 0
M  V30 5265 C 493.491 1.30596 -5.05709 0
M  V30 5266 H 495.185 0.476179 -2.95589 0
M  V30 5267 H 492.731 0.227602 -1.4219 0
M  V30 5268 H 494.684 2.91142 -3.04654 0
M  V30 5269 H 493.408 2.7119 -1.81999 0
M  V30 5270 H 492.067 1.30763 -3.42486 0
M  V30 5271 H 491.715 3.78134 -3.31698 0
M  V30 5272 H 491.415 3.15465 -4.95738 0
M  V30 5273 H 492.939 4.01574 -4.59968 0
M  V30 5274 H 494.353 1.89416 -5.41105 0
M  V30 5275 H 492.75 1.24934 -5.86951 0
M  V30 5276 H 493.82 0.279742 -4.84092 0
M  V30 5277 N 495.163 1.55791 0.238111 0
M  V30 5278 C 496.579 1.48411 0.587045 0
M  V30 5279 C 496.779 0.72702 1.87927 0
M  V30 5280 O 495.835 0.259942 2.51158 0
M  V30 5281 C 497.148 2.92873 0.681623 0
M  V30 5282 C 498.696 3.03295 0.773363 0
M  V30 5283 C 499.171 4.49082 0.899428 0
M  V30 5284 N 500.662 4.53056 0.964075 0
M  V30 5285 C 501.397 5.63117 1.08104 0
M  V30 5286 N 500.893 6.82969 1.16299 0
M  V30 5287 N 502.686 5.50933 1.11488 0
M  V30 5288 H 494.837 2.0345 -0.610076 0
M  V30 5289 H 497.1 0.924034 -0.211813 0
M  V30 5290 H 496.806 3.51142 -0.19802 0
M  V30 5291 H 496.68 3.43851 1.55069 0
M  V30 5292 H 499.067 2.45101 1.64346 0
M  V30 5293 H 499.148 2.55513 -0.121034 0
M  V30 5294 H 498.792 5.07889 0.0338586 0
M  V30 5295 H 498.722 4.94553 1.809 0
M  V30 5296 H 501.213 3.66737 0.91173 0
M  V30 5297 H 501.526 7.62598 1.25155 0
M  V30 5298 H 499.871 6.85712 1.13241 0
M  V30 5299 H 503.062 4.56231 1.0474 0
M  V30 5300 H 503.235 6.36743 1.20259 0
M  V30 5301 N 496.642 -0.504142 1.49319 0
M  V30 5302 C 497.575 -1.62361 1.60356 0
M  V30 5303 C 498.553 -1.56169 0.45277 0
M  V30 5304 O 499.737 -1.76271 0.667892 0
M  V30 5305 C 496.864 -3.00864 1.55559 0
M  V30 5306 C 495.91 -3.25328 2.75797 0
M  V30 5307 S 496.743 -3.08791 4.37503 0
M  V30 5308 C 497.899 -4.49695 4.35345 0
M  V30 5309 H 498.132 -1.52753 2.55056 0
M  V30 5310 H 495.665 -0.689065 1.38171 0
M  V30 5311 H 497.623 -3.8073 1.53477 0
M  V30 5312 H 496.284 -3.0789 0.621515 0
M  V30 5313 H 495.477 -4.2643 2.68651 0
M  V30 5314 H 495.079 -2.53179 2.75275 0
M  V30 5315 H 497.371 -5.41721 4.06871 0
M  V30 5316 H 498.314 -4.61891 5.36714 0
M  V30 5317 H 498.722 -4.30227 3.65465 0
M  V30 5318 N 498.12 -1.38341 -0.754957 0
M  V30 5319 C 499.067 -1.3546 -1.86867 0
M  V30 5320 C 500.037 -0.217369 -1.64672 0
M  V30 5321 O 501.222 -0.409383 -1.86356 0
M  V30 5322 C 498.362 -1.18413 -3.24149 0
M  V30 5323 C 497.475 -2.41511 -3.58185 0
M  V30 5324 C 496.61 -2.17205 -4.84763 0
M  V30 5325 C 495.649 -3.36081 -5.11582 0
M  V30 5326 N 494.786 -3.11219 -6.29354 0
M  V30 5327 H 499.626 -2.30672 -1.88664 0
M  V30 5328 H 497.163 -1.14607 -0.922154 0
M  V30 5329 H 499.121 -1.06545 -4.03366 0
M  V30 5330 H 497.751 -0.268397 -3.21682 0
M  V30 5331 H 496.803 -2.64056 -2.73822 0
M  V30 5332 H 498.115 -3.30115 -3.73932 0
M  V30 5333 H 497.269 -2.02465 -5.7192 0
M  V30 5334 H 496.008 -1.25964 -4.71152 0
M  V30 5335 H 495.013 -3.51341 -4.22894 0
M  V30 5336 H 496.238 -4.28196 -5.27091 0
M  V30 5337 H 494.184 -2.22624 -6.17069 0
M  V30 5338 H 494.101 -3.93373 -6.45596 0
M  V30 5339 H 495.369 -3.00132 -7.19403 0
M  V30 5340 N 499.598 0.982988 -1.23187 0
M  V30 5341 C 500.546 2.09616 -1.00817 0
M  V30 5342 C 501.54 1.6932 0.0519995 0
M  V30 5343 O 502.746 1.79715 -0.101284 0
M  V30 5344 H 499.121 0.685628 -0.308899 0
M  V30 5345 H 501.092 2.25652 -1.95253 0
M  V30 5346 C 499.841 3.42249 -0.613243 0
M  V30 5347 H 499.164 3.73705 -1.42073 0
M  V30 5348 H 500.604 4.21086 -0.496208 0
M  V30 5349 C 499.063 3.30002 0.678233 0
M  V30 5350 O 499.593 3.6263 1.72807 0
M  V30 5351 N 497.799 2.83164 0.653165 0
M  V30 5352 H 497.346 2.56811 -0.201492 0
M  V30 5353 H 497.304 2.75352 1.51752 0
M  V30 5354 N 501.076 1.04316 1.18135 0
M  V30 5355 C 502.024 0.630175 2.23901 0
M  V30 5356 C 503.018 -0.344254 1.65865 0
M  V30 5357 O 504.224 -0.211273 1.78756 0
M  V30 5358 H 500.599 0.185578 0.728742 0
M  V30 5359 H 502.57 1.53253 2.56039 0
M  V30 5360 C 501.319 0.011666 3.47698 0
M  V30 5361 H 500.642 0.752526 3.92654 0
M  V30 5362 H 502.082 -0.240046 4.2332 0
M  V30 5363 C 500.541 -1.23913 3.13285 0
M  V30 5364 O 501.071 -2.32959 3.27251 0
M  V30 5365 N 499.277 -1.13338 2.67587 0
M  V30 5366 H 498.824 -0.246006 2.56423 0
M  V30 5367 H 498.782 -1.97116 2.44934 0
M  V30 5368 N 502.554 -1.34406 0.822964 0
M  V30 5369 C 503.464 -2.33298 0.246838 0
M  V30 5370 C 504.48 -1.62625 -0.618797 0
M  V30 5371 O 505.656 -1.94391 -0.526685 0
M  V30 5372 C 502.721 -3.41785 -0.581731 0
M  V30 5373 C 501.782 -4.28206 0.306309 0
M  V30 5374 C 501.015 -5.31512 -0.48281 0
M  V30 5375 O 501.238 -5.43973 -1.71607 0
M  V30 5376 O 500.172 -6.01749 0.134884 0
M  V30 5377 H 503.998 -2.84401 1.06534 0
M  V30 5378 H 501.583 -1.37466 0.585108 0
M  V30 5379 H 503.465 -4.08028 -1.05313 0
M  V30 5380 H 502.14 -2.92925 -1.37756 0
M  V30 5381 H 501.047 -3.64885 0.825199 0
M  V30 5382 H 502.38 -4.80507 1.06649 0
M  V30 5383 N 504.032 -0.577932 -1.46621 0
M  V30 5384 C 504.942 0.160651 -2.34049 0
M  V30 5385 C 505.958 0.890911 -1.49462 0
M  V30 5386 O 507.134 0.855166 -1.82343 0
M  V30 5387 C 504.199 1.16447 -3.26559 0
M  V30 5388 C 503.26 0.4394 -4.27045 0
M  V30 5389 C 502.493 1.3954 -5.15135 0
M  V30 5390 O 502.716 2.63162 -5.06065 0
M  V30 5391 O 501.65 0.908585 -5.95003 0
M  V30 5392 H 505.476 -0.557057 -2.98547 0
M  V30 5393 H 503.061 -0.338369 -1.45518 0
M  V30 5394 H 504.943 1.7434 -3.83645 0
M  V30 5395 H 503.618 1.86373 -2.64663 0
M  V30 5396 H 502.525 -0.181247 -3.73661 0
M  V30 5397 H 503.858 -0.218799 -4.91713 0
M  V30 5398 N 505.51 1.54411 -0.315457 0
M  V30 5399 C 506.473 2.22713 0.54142 0
M  V30 5400 C 507.473 1.2179 1.04995 0
M  V30 5401 O 508.663 1.46426 0.943667 0
M  V30 5402 C 505.795 2.92485 1.75116 0
M  V30 5403 H 506.988 2.99849 -0.0555508 0
M  V30 5404 H 504.541 1.56159 -0.0664453 0
M  V30 5405 H 505.276 2.19466 2.38758 0
M  V30 5406 H 505.061 3.66483 1.39401 0
M  V30 5407 H 506.551 3.44548 2.35959 0
M  V30 5408 N 506.988 0.0434614 1.5754 0
M  V30 5409 C 507.898 -0.94893 2.14552 0
M  V30 5410 C 508.914 -1.34707 1.10136 0
M  V30 5411 O 510.09 -1.42557 1.42266 0
M  V30 5412 C 507.155 -2.208 2.67298 0
M  V30 5413 C 506.216 -1.86893 3.86484 0
M  V30 5414 C 505.449 -3.06797 4.36705 0
M  V30 5415 O 505.672 -4.19921 3.86034 0
M  V30 5416 O 504.606 -2.8826 5.28384 0
M  V30 5417 H 508.432 -0.494099 2.99654 0
M  V30 5418 H 506.017 -0.177989 1.48336 0
M  V30 5419 H 507.899 -2.94686 3.01228 0
M  V30 5420 H 506.574 -2.65436 1.85272 0
M  V30 5421 H 505.481 -1.10347 3.57455 0
M  V30 5422 H 506.814 -1.47062 4.69716 0
M  V30 5423 N 508.466 -1.55915 -0.229846 0
M  V30 5424 C 509.743 -1.6932 -0.979295 0
M  V30 5425 C 510.123 -0.588321 -2.02736 0
M  V30 5426 O 509.471 0.40586 -2.24867 0
M  V30 5427 C 509.681 -3.10305 -1.59724 0
M  V30 5428 C 511.029 -3.6945 -2.09264 0
M  V30 5429 O 512.053 -3.13214 -1.69633 0
M  V30 5430 O 510.912 -4.68072 -2.82082 0
M  V30 5431 H 508.006 -0.689314 -0.456919 0
M  V30 5432 H 510.552 -1.68238 -0.222283 0
M  V30 5433 H 509.324 -3.82177 -0.840039 0
M  V30 5434 H 508.947 -3.1547 -2.42001 0
M  V30 5435 N 509.944 0.496216 -1.49584 0
M  V30 5436 C 511.174 1.27209 -1.62793 0
M  V30 5437 C 511.582 1.86799 -0.300476 0
M  V30 5438 O 510.925 1.68802 0.724674 0
M  V30 5439 C 510.987 2.43812 -2.64189 0
M  V30 5440 C 510.651 2.05055 -4.08414 0
M  V30 5441 C 511.648 1.58752 -4.9507 0
M  V30 5442 C 509.333 2.14543 -4.54177 0
M  V30 5443 C 511.327 1.22448 -6.25528 0
M  V30 5444 C 509.014 1.77851 -5.84647 0
M  V30 5445 C 510.012 1.31878 -6.70147 0
M  V30 5446 O 509.7 0.956834 -7.98185 0
M  V30 5447 H 509.432 0.391848 -0.550846 0
M  V30 5448 H 511.986 0.601712 -1.96389 0
M  V30 5449 H 510.216 3.13941 -2.25783 0
M  V30 5450 H 511.905 3.05829 -2.66877 0
M  V30 5451 H 512.671 1.50863 -4.60939 0
M  V30 5452 H 508.55 2.49277 -3.87791 0
M  V30 5453 H 512.094 0.864933 -6.92217 0
M  V30 5454 H 507.991 1.8539 -6.18305 0
M  V30 5455 H 508.759 1.08789 -8.11238 0
M  V30 5456 N 511.423 1.38739 0.74761 0
M  V30 5457 C 512.7 1.25791 1.49786 0
M  V30 5458 C 513.08 -0.138075 2.10648 0
M  V30 5459 O 512.428 -1.14815 1.9756 0
M  V30 5460 C 512.638 2.37265 2.55942 0
M  V30 5461 C 513.986 2.75978 3.22679 0
M  V30 5462 O 515.01 2.36621 2.6625 0
M  V30 5463 O 513.869 3.43867 4.24756 0
M  V30 5464 H 510.963 0.492251 0.664543 0
M  V30 5465 H 513.509 1.50582 0.782511 0
M  V30 5466 H 512.281 3.30644 2.0926 0
M  V30 5467 H 511.904 2.14071 3.35051 0
M  V30 5468 N 512.901 -0.976442 1.23707 0
M  V30 5469 C 514.178 -1.69296 0.979699 0
M  V30 5470 C 514.558 -2.0508 -0.500555 0
M  V30 5471 O 513.906 -1.74708 -1.47273 0
M  V30 5472 C 514.116 -2.93143 1.89389 0
M  V30 5473 C 515.464 -3.65572 2.15968 0
M  V30 5474 O 516.488 -3.03184 1.86971 0
M  V30 5475 O 515.347 -4.77859 2.65167 0
M  V30 5476 H 512.441 -0.739708 0.369812 0
M  V30 5477 H 514.987 -1.03131 1.34767 0
M  V30 5478 H 513.759 -2.63327 2.89439 0
M  V30 5479 H 513.382 -3.67044 1.52854 0
M  V30 5480 N 514.379 -1.04941 -1.1758 0
M  V30 5481 C 515.656 -0.671918 -1.83697 0
M  V30 5482 C 516.036 0.847929 -1.93322 0
M  V30 5483 O 515.384 1.75287 -1.46583 0
M  V30 5484 C 515.594 -1.35797 -3.21497 0
M  V30 5485 C 516.942 -1.4944 -3.97433 0
M  V30 5486 O 517.966 -1.31678 -3.30967 0
M  V30 5487 O 516.825 -1.78463 -5.1654 0
M  V30 5488 H 513.919 -0.236212 -0.792548 0
M  V30 5489 H 516.465 -1.14884 -1.24899 0
M  V30 5490 H 515.237 -2.39498 -3.09446 0
M  V30 5491 H 514.86 -0.870236 -3.8796 0
M  V30 5492 N 515.857 1.33968 -0.830081 0
M  V30 5493 C 516.787 2.31911 -0.271911 0
M  V30 5494 C 517.768 1.58571 0.61556 0
M  V30 5495 O 518.953 1.86514 0.540946 0
M  V30 5496 C 516.083 3.42737 0.561146 0
M  V30 5497 C 515.037 4.27383 -0.229789 0
M  V30 5498 C 514.363 5.29742 0.726463 0
M  V30 5499 C 515.663 5.02 -1.44197 0
M  V30 5500 H 517.357 2.78844 -1.09025 0
M  V30 5501 H 514.903 1.34061 -0.52571 0
M  V30 5502 H 516.856 4.10276 0.961867 0
M  V30 5503 H 515.58 2.94471 1.41261 0
M  V30 5504 H 514.239 3.61456 -0.611964 0
M  V30 5505 H 513.887 4.77736 1.57408 0
M  V30 5506 H 513.587 5.87255 0.20142 0
M  V30 5507 H 515.111 6.00149 1.12489 0
M  V30 5508 H 516.525 5.62355 -1.11488 0
M  V30 5509 H 514.922 5.69122 -1.90317 0
M  V30 5510 H 515.992 4.31281 -2.2164 0
M  V30 5511 N 517.335 0.585699 1.46312 0
M  V30 5512 C 518.563 0.0781299 2.06752 0
M  V30 5513 C 518.978 -1.22812 1.43396 0
M  V30 5514 O 518.335 -1.74318 0.540314 0
M  V30 5515 C 518.386 -0.0911927 3.61385 0
M  V30 5516 O 518.107 1.16336 4.22371 0
M  V30 5517 C 519.608 -0.632765 4.38761 0
M  V30 5518 H 516.828 0.0588188 0.668417 0
M  V30 5519 H 519.372 0.807218 1.87894 0
M  V30 5520 H 517.527 -0.770514 3.7966 0
M  V30 5521 H 517.941 0.979082 5.15281 0
M  V30 5522 H 519.415 -0.70041 5.47538 0
M  V30 5523 H 519.892 -1.65039 4.07012 0
M  V30 5524 H 520.498 0.0117856 4.25298 0
M  V30 5525 N 518.813 -1.54241 0.323641 0
M  V30 5526 C 520.09 -1.92741 -0.333181 0
M  V30 5527 C 520.47 -1.25326 -1.69872 0
M  V30 5528 O 519.818 -0.396991 -2.25025 0
M  V30 5529 C 520.028 -3.46399 -0.425322 0
M  V30 5530 C 521.376 -4.19029 -0.68557 0
M  V30 5531 O 522.4 -3.52555 -0.50824 0
M  V30 5532 O 521.259 -5.36751 -1.02767 0
M  V30 5533 H 518.353 -0.804811 -0.190286 0
M  V30 5534 H 520.899 -1.65542 0.373361 0
M  V30 5535 H 519.671 -3.87643 0.533737 0
M  V30 5536 H 519.294 -3.79704 -1.17944 0
M  V30 5537 N 520.291 -0.0518155 -1.57515 0
M  V30 5538 C 521.516 0.634896 -1.97443 0
M  V30 5539 C 521.941 1.63546 -0.929207 0
M  V30 5540 O 521.299 1.80981 0.107484 0
M  V30 5541 C 521.347 1.29765 -3.36442 0
M  V30 5542 O 520.451 2.41333 -3.34413 0
M  V30 5543 H 519.792 0.164994 -0.643174 0
M  V30 5544 H 522.322 -0.120407 -2.04245 0
M  V30 5545 H 522.332 1.64918 -3.73184 0
M  V30 5546 H 521.007 0.564361 -4.12053 0
M  V30 5547 H 519.584 2.08122 -3.09418 0
M  V30 5548 N 521.769 1.56035 0.221574 0
M  V30 5549 C 522.679 1.95581 1.29558 0
M  V30 5550 C 523.695 0.859639 1.51282 0
M  V30 5551 O 524.871 1.16321 1.64413 0
M  V30 5552 C 521.936 2.26447 2.62531 0
M  V30 5553 C 520.997 3.49632 2.4911 0
M  V30 5554 C 520.23 3.79017 3.75742 0
M  V30 5555 O 520.453 3.10077 4.78757 0
M  V30 5556 O 519.387 4.72507 3.72855 0
M  V30 5557 H 523.213 2.8711 0.990035 0
M  V30 5558 H 520.798 1.43244 0.424434 0
M  V30 5559 H 522.68 2.47494 3.41064 0
M  V30 5560 H 521.355 1.38092 2.92766 0
M  V30 5561 H 520.262 3.33864 1.68777 0
M  V30 5562 H 521.595 4.3837 2.23814 0
M  V30 5563 N 523.247 -0.488276 1.49845 0
M  V30 5564 C 524.18 -1.60651 1.62069 0
M  V30 5565 C 525.158 -1.5568 0.469308 0
M  V30 5566 O 526.342 -1.75553 0.686551 0
M  V30 5567 C 523.469 -2.99197 1.58741 0
M  V30 5568 C 522.515 -3.22385 2.79232 0
M  V30 5569 S 523.348 -3.04133 4.40753 0
M  V30 5570 C 524.504 -4.45052 4.4009 0
M  V30 5571 H 524.737 -1.50039 2.56662 0
M  V30 5572 H 522.27 -0.674371 1.38894 0
M  V30 5573 H 524.228 -3.79081 1.57506 0
M  V30 5574 H 522.889 -3.07213 0.654136 0
M  V30 5575 H 522.082 -4.23557 2.73159 0
M  V30 5576 H 521.684 -2.50245 2.77945 0
M  V30 5577 H 523.976 -5.37375 4.12594 0
M  V30 5578 H 524.919 -4.56172 5.41583 0
M  V30 5579 H 525.327 -4.26327 3.70008 0
M  V30 5580 N 524.725 -1.39134 -0.740242 0
M  V30 5581 C 526.002 -1.26584 -1.49117 0
M  V30 5582 C 526.382 0.126902 -2.10718 0
M  V30 5583 O 525.73 1.13765 -1.98166 0
M  V30 5584 C 525.94 -2.38619 -2.54681 0
M  V30 5585 C 527.288 -2.77685 -3.21211 0
M  V30 5586 O 528.312 -2.38029 -2.64991 0
M  V30 5587 O 527.171 -3.46115 -4.22926 0
M  V30 5588 H 524.265 -0.495769 -0.661923 0
M  V30 5589 H 526.811 -1.50995 -0.774514 0
M  V30 5590 H 525.583 -3.3175 -2.07504 0
M  V30 5591 H 525.206 -2.15845 -3.33911 0
M  V30 5592 N 526.204 0.969867 -1.24223 0
M  V30 5593 C 527.45 1.7151 -1.08223 0
M  V30 5594 C 527.783 1.90478 0.37838 0
M  V30 5595 O 527.058 1.4647 1.27971 0
M  V30 5596 C 527.341 3.10714 -1.82013 0
M  V30 5597 C 527.194 2.9925 -3.35811 0
M  V30 5598 C 528.513 4.10332 -1.59108 0
M  V30 5599 H 525.632 0.622499 -0.394543 0
M  V30 5600 H 528.274 1.1284 -1.52863 0
M  V30 5601 H 526.424 3.608 -1.44068 0
M  V30 5602 H 528.096 2.56608 -3.83341 0
M  V30 5603 H 526.339 2.35512 -3.64303 0
M  V30 5604 H 527.01 3.97857 -3.82641 0
M  V30 5605 H 529.486 3.69097 -1.92111 0
M  V30 5606 H 528.362 5.05804 -2.13198 0
M  V30 5607 H 528.623 4.38926 -0.528832 0
M  V30 5608 N 527.682 1.05563 1.17022 0
M  V30 5609 C 528.928 0.769074 1.87652 0
M  V30 5610 C 529.261 -0.702326 1.81055 0
M  V30 5611 O 528.536 -1.5139 1.22112 0
M  V30 5612 C 528.819 1.25492 3.37526 0
M  V30 5613 C 528.672 2.78953 3.52853 0
M  V30 5614 C 529.991 0.856919 4.31677 0
M  V30 5615 H 527.11 0.280854 0.681388 0
M  V30 5616 H 529.752 1.31027 1.37593 0
M  V30 5617 H 527.902 0.794516 3.80289 0
M  V30 5618 H 529.574 3.33146 3.19079 0
M  V30 5619 H 527.817 3.18046 2.95007 0
M  V30 5620 H 528.488 3.08011 4.58076 0
M  V30 5621 H 530.964 1.25334 3.96775 0
M  V30 5622 H 529.84 1.22443 5.35069 0
M  V30 5623 H 530.101 -0.238787 4.41455 0
M  V30 5624 N 529.16 -1.33526 0.837174 0
M  V30 5625 C 530.576 -1.50727 0.524743 0
M  V30 5626 C 530.776 -1.77792 -0.948279 0
M  V30 5627 O 529.832 -1.83719 -1.73216 0
M  V30 5628 C 531.145 -2.66299 1.39661 0
M  V30 5629 C 532.693 -2.80183 1.39521 0
M  V30 5630 C 533.168 -3.98815 2.25189 0
M  V30 5631 N 534.659 -4.06047 2.2289 0
M  V30 5632 C 535.394 -4.97032 2.85915 0
M  V30 5633 N 534.89 -5.93143 3.57985 0
M  V30 5634 N 536.683 -4.90015 2.75394 0
M  V30 5635 H 528.834 -1.1422 1.79074 0
M  V30 5636 H 531.097 -0.561399 0.763894 0
M  V30 5637 H 530.803 -2.52974 2.4433 0
M  V30 5638 H 530.677 -3.61663 1.07145 0
M  V30 5639 H 533.064 -2.92942 0.356253 0
M  V30 5640 H 533.145 -1.85586 1.76044 0
M  V30 5641 H 532.789 -3.86817 3.29143 0
M  V30 5642 H 532.719 -4.92654 1.86009 0
M  V30 5643 H 535.21 -3.37262 1.70478 0
M  V30 5644 H 535.523 -6.59227 4.03286 0
M  V30 5645 H 533.868 -5.93223 3.62093 0
M  V30 5646 H 537.059 -4.13894 2.18654 0
M  V30 5647 H 537.232 -5.60724 3.24796 0
M  V30 5648 N 530.638 -0.59345 -1.46 0
M  V30 5649 C 531.885 -0.0831523 -2.02329 0
M  V30 5650 C 532.213 1.28093 -1.46364 0
M  V30 5651 O 531.468 1.85526 -0.622793 0
M  V30 5652 C 531.767 0.021178 -3.57394 0
M  V30 5653 C 531.433 -1.27671 -4.32448 0
M  V30 5654 C 530.095 -1.63227 -4.5267 0
M  V30 5655 C 532.447 -2.13511 -4.7546 0
M  V30 5656 C 529.775 -2.84401 -5.1316 0
M  V30 5657 C 532.127 -3.33922 -5.37289 0
M  V30 5658 C 530.791 -3.69747 -5.55737 0
M  V30 5659 H 530.061 -0.0304276 -0.740375 0
M  V30 5660 H 532.708 -0.772239 -1.75239 0
M  V30 5661 H 531.013 0.793454 -3.83682 0
M  V30 5662 H 532.71 0.431942 -3.98667 0
M  V30 5663 H 529.3 -0.989937 -4.17011 0
M  V30 5664 H 533.484 -1.87344 -4.59582 0
M  V30 5665 H 528.74 -3.12282 -5.25633 0
M  V30 5666 H 532.914 -4.00698 -5.69574 0
M  V30 5667 H 530.541 -4.6373 -6.02377 0
M  V30 5668 N 532.116 1.54067 -0.331816 0
M  V30 5669 C 533.393 1.92915 0.322955 0
M  V30 5670 C 533.773 1.26225 1.69205 0
M  V30 5671 O 533.121 0.408919 2.24811 0
M  V30 5672 C 533.331 3.46619 0.406946 0
M  V30 5673 C 534.679 4.19386 0.663339 0
M  V30 5674 O 535.703 3.5282 0.489536 0
M  V30 5675 O 534.562 5.37288 0.999193 0
M  V30 5676 H 531.656 0.805808 0.186016 0
M  V30 5677 H 534.202 1.65342 -0.382135 0
M  V30 5678 H 532.974 3.87354 -0.554287 0
M  V30 5679 H 532.597 3.80324 1.15929 0
M  V30 5680 N 533.594 0.0601682 1.57485 0
M  V30 5681 C 534.871 -0.651956 1.84415 0
M  V30 5682 C 535.251 -1.88498 0.950361 0
M  V30 5683 O 534.599 -2.28496 0.0136719 0
M  V30 5684 C 534.809 -1.00069 3.34346 0
M  V30 5685 C 536.157 -1.37915 4.01578 0
M  V30 5686 O 537.181 -1.09277 3.39024 0
M  V30 5687 O 536.04 -1.91399 5.11887 0
M  V30 5688 H 533.134 -0.322668 0.761455 0
M  V30 5689 H 535.68 0.0902159 1.6946 0
M  V30 5690 H 534.452 -0.124463 3.91102 0
M  V30 5691 H 534.075 -1.80001 3.54521 0
M  V30 5692 N 535.072 -1.5615 -0.213296 0
M  V30 5693 C 536.349 -1.70349 -0.961281 0
M  V30 5694 C 536.729 -0.609791 -2.02101 0
M  V30 5695 O 536.077 0.381987 -2.25285 0
M  V30 5696 C 536.287 -3.11982 -1.56424 0
M  V30 5697 C 537.635 -3.71649 -2.05334 0
M  V30 5698 O 538.659 -3.14995 -1.66302 0
M  V30 5699 O 537.518 -4.71038 -2.77102 0
M  V30 5700 H 534.612 -0.694121 -0.449582 0
M  V30 5701 H 537.158 -1.68464 -0.204426 0
M  V30 5702 H 535.93 -3.83046 -0.799457 0
M  V30 5703 H 535.553 -3.18019 -2.38641 0
M  V30 5704 N 536.55 0.480323 -1.50102 0
M  V30 5705 C 537.498 1.60024 -1.68805 0
M  V30 5706 C 538.492 1.60089 -0.553888 0
M  V30 5707 O 539.698 1.64349 -0.734127 0
M  V30 5708 H 536.073 0.530841 -0.532646 0
M  V30 5709 H 538.044 1.41408 -2.62767 0
M  V30 5710 C 536.793 2.98029 -1.79092 0
M  V30 5711 H 536.116 2.98694 -2.65748 0
M  V30 5712 H 537.556 3.75871 -1.96206 0
M  V30 5713 C 536.015 3.32538 -0.540388 0
M  V30 5714 O 536.545 4.00386 0.324637 0
M  V30 5715 N 534.751 2.87873 -0.397154 0
M  V30 5716 H 534.298 2.32834 -1.1021 0
M  V30 5717 H 534.256 3.11328 0.438425 0
M  V30 5718 N 538.028 1.39524 0.732853 0
M  V30 5719 C 539.253 1.40329 1.52717 0
M  V30 5720 C 539.678 0.000286574 1.881 0
M  V30 5721 O 539.036 -0.987262 1.52062 0
M  V30 5722 C 539.084 2.28464 2.78992 0
M  V30 5723 O 538.188 1.716 3.75003 0
M  V30 5724 H 537.529 0.47778 0.461109 0
M  V30 5725 H 540.059 1.83546 0.903996 0
M  V30 5726 H 540.069 2.43051 3.27705 0
M  V30 5727 H 538.744 3.30425 2.52572 0
M  V30 5728 H 537.321 1.66267 3.33781 0
M  V30 5729 N 539.506 -0.963266 1.24736 0
M  V30 5730 C 540.917 -1.52145 1.08207 0
M  V30 5731 C 541.268 -1.93142 -0.345061 0
M  V30 5732 O 540.393 -1.77769 -1.23399 0
M  V30 5733 C 540.988 -2.76486 1.95808 0
M  V30 5734 C 539.547 -3.28646 1.8349 0
M  V30 5735 C 538.694 -2.01529 1.90476 0
M  V30 5736 H 541.645 -0.781083 1.38148 0
M  V30 5737 H 541.666 -3.49986 1.49297 0
M  V30 5738 H 541.178 -2.46617 2.99669 0
M  V30 5739 H 539.279 -3.63357 0.824787 0
M  V30 5740 H 539.392 -3.97246 2.67829 0
M  V30 5741 H 537.756 -2.16442 1.34258 0
M  V30 5742 H 538.539 -1.7402 2.95926 0
M  V30 5743 N 540.985 -1.06182 -1.16461 0
M  V30 5744 C 542.21 -0.798599 -1.91408 0
M  V30 5745 C 542.635 0.640987 -1.76842 0
M  V30 5746 O 541.993 1.44652 -1.09296 0
M  V30 5747 C 542.041 -1.19665 -3.40165 0
M  V30 5748 O 541.145 -0.334768 -4.11039 0
M  V30 5749 H 540.486 -0.291961 -0.596368 0
M  V30 5750 H 543.016 -1.41732 -1.47557 0
M  V30 5751 H 543.026 -1.16772 -3.90933 0
M  V30 5752 H 541.701 -2.24526 -3.50087 0
M  V30 5753 H 540.278 -0.425168 -3.70468 0
M  V30 5754 N 542.463 1.3308 -0.844243 0
M  V30 5755 C 543.71 1.97605 -0.44255 0
M  V30 5756 C 544.038 1.66856 0.999458 0
M  V30 5757 O 543.293 0.943586 1.7145 0
M  V30 5758 C 543.592 3.52045 -0.616354 0
M  V30 5759 C 543.258 4.02757 -2.02726 0
M  V30 5760 C 541.92 4.16316 -2.41317 0
M  V30 5761 C 544.272 4.29776 -2.9486 0
M  V30 5762 C 541.6 4.54232 -3.71335 0
M  V30 5763 C 543.952 4.69146 -4.24364 0
M  V30 5764 C 542.616 4.80911 -4.62904 0
M  V30 5765 H 541.886 0.723088 -0.161941 0
M  V30 5766 H 544.533 1.58663 -1.0723 0
M  V30 5767 H 542.838 3.91681 0.0966812 0
M  V30 5768 H 544.535 3.99981 -0.285756 0
M  V30 5769 H 541.125 3.9268 -1.71756 0
M  V30 5770 H 545.309 4.18818 -2.6628 0
M  V30 5771 H 540.565 4.61535 -4.00993 0
M  V30 5772 H 544.739 4.89008 -4.95827 0
M  V30 5773 H 542.366 5.10048 -5.63698 0
M  V30 5774 N 543.941 0.601185 1.45683 0
M  V30 5775 C 545.19 0.0914953 2.01492 0
M  V30 5776 C 545.503 -1.28331 1.47616 0
M  V30 5777 O 546.709 -1.88537 1.95362 0
M  V30 5778 C 545.165 0.11291 3.59723 0
M  V30 5779 C 544.773 1.48717 4.22596 0
M  V30 5780 C 546.517 -0.341871 4.23121 0
M  V30 5781 C 544.424 1.46531 5.7296 0
M  V30 5782 H 543.354 0.0304365 0.753385 0
M  V30 5783 H 546.005 0.755568 1.67223 0
M  V30 5784 H 544.387 -0.617692 3.91153 0
M  V30 5785 H 545.561 2.23897 4.02749 0
M  V30 5786 H 543.876 1.88351 3.71366 0
M  V30 5787 H 546.473 -0.377304 5.33367 0
M  V30 5788 H 546.816 -1.36325 3.93346 0
M  V30 5789 H 547.349 0.335256 3.96385 0
M  V30 5790 H 544.088 2.46408 6.07423 0
M  V30 5791 H 543.608 0.755997 5.95017 0
M  V30 5792 H 545.287 1.18618 6.36034 0
M  V30 5793 N 545.419 -1.53889 0.339982 0
M  V30 5794 C 546.351 -2.22435 -0.55275 0
M  V30 5795 C 547.364 -1.22975 -1.06681 0
M  V30 5796 O 548.553 -1.49351 -0.977575 0
M  V30 5797 C 545.653 -2.8882 -1.77302 0
M  V30 5798 C 544.826 -4.14563 -1.39486 0
M  V30 5799 C 543.885 -4.64391 -2.47442 0
M  V30 5800 O 542.911 -5.28687 -2.10899 0
M  V30 5801 N 544.113 -4.40015 -3.78639 0
M  V30 5802 H 546.878 -2.9968 0.0342669 0
M  V30 5803 H 544.439 -1.61068 0.16394 0
M  V30 5804 H 546.431 -3.19072 -2.48948 0
M  V30 5805 H 545.001 -2.15182 -2.26749 0
M  V30 5806 H 544.221 -3.90896 -0.509321 0
M  V30 5807 H 545.509 -4.96362 -1.11813 0
M  V30 5808 H 544.907 -3.88586 -4.11118 0
M  V30 5809 H 543.464 -4.74881 -4.46465 0
M  V30 5810 N 546.897 -0.0685191 -1.57451 0
M  V30 5811 C 548.146 0.600898 -1.92541 0
M  V30 5812 C 548.459 1.70967 -0.950239 0
M  V30 5813 O 549.665 2.43844 -1.19384 0
M  V30 5814 C 548.121 1.12019 -3.42023 0
M  V30 5815 C 547.729 0.0426028 -4.4798 0
M  V30 5816 C 549.473 1.76386 -3.86119 0
M  V30 5817 C 547.38 0.575759 -5.88591 0
M  V30 5818 H 546.31 0.228225 -0.71863 0
M  V30 5819 H 548.961 -0.140223 -1.82963 0
M  V30 5820 H 547.343 1.91418 -3.46663 0
M  V30 5821 H 548.517 -0.73182 -4.54952 0
M  V30 5822 H 546.832 -0.504642 -4.13331 0
M  V30 5823 H 549.429 2.17302 -4.88553 0
M  V30 5824 H 549.772 2.62255 -3.23308 0
M  V30 5825 H 550.305 1.03615 -3.84069 0
M  V30 5826 H 547.044 -0.245691 -6.55039 0
M  V30 5827 H 546.564 1.31778 -5.85145 0
M  V30 5828 H 548.243 1.0532 -6.3837 0
M  V30 5829 N 548.375 1.56261 0.205012 0
M  V30 5830 C 549.791 1.49623 0.555433 0
M  V30 5831 C 549.991 0.766719 1.86343 0
M  V30 5832 O 549.047 0.313158 2.50551 0
M  V30 5833 C 550.36 2.94253 0.619347 0
M  V30 5834 C 551.908 3.04868 0.708855 0
M  V30 5835 C 552.383 4.50888 0.803969 0
M  V30 5836 N 553.874 4.54999 0.867758 0
M  V30 5837 C 554.609 5.65284 0.96135 0
M  V30 5838 N 554.105 6.85282 1.01786 0
M  V30 5839 N 555.898 5.53174 0.997771 0
M  V30 5840 H 548.049 2.0211 -0.653094 0
M  V30 5841 H 550.312 0.919333 -0.231366 0
M  V30 5842 H 550.018 3.50643 -0.272458 0
M  V30 5843 H 549.892 3.47063 1.47741 0
M  V30 5844 H 552.279 2.48532 1.5911 0
M  V30 5845 H 552.36 2.55199 -0.175205 0
M  V30 5846 H 552.004 5.07846 -0.0738798 0
M  V30 5847 H 551.934 4.98279 1.70369 0
M  V30 5848 H 554.425 3.68588 0.833735 0
M  V30 5849 H 554.738 7.65081 1.08951 0
M  V30 5850 H 553.083 6.8796 0.986706 0
M  V30 5851 H 556.274 4.5835 0.950392 0
M  V30 5852 H 556.447 6.39151 1.06725 0
M  V30 5853 N 549.853 -0.472356 1.50355 0
M  V30 5854 C 551.078 -1.25251 1.65309 0
M  V30 5855 C 551.503 -1.85081 0.335643 0
M  V30 5856 O 550.861 -1.67227 -0.700335 0
M  V30 5857 C 550.909 -2.3379 2.74544 0
M  V30 5858 O 550.013 -3.38401 2.35709 0
M  V30 5859 H 549.354 -0.368539 0.552336 0
M  V30 5860 H 551.884 -0.562271 1.96722 0
M  V30 5861 H 551.894 -2.79121 2.97583 0
M  V30 5862 H 550.569 -1.89614 3.70161 0
M  V30 5863 H 549.146 -2.9879 2.23112 0
M  V30 5864 N 551.331 -1.39911 -0.725443 0
M  V30 5865 C 552.577 -1.37858 -1.48738 0
M  V30 5866 C 552.91 0.0224187 -1.94187 0
M  V30 5867 O 552.185 0.989204 -1.67466 0
M  V30 5868 C 552.468 -2.3594 -2.72038 0
M  V30 5869 C 552.321 -3.85023 -2.32546 0
M  V30 5870 C 553.64 -2.31704 -3.74167 0
M  V30 5871 H 550.759 -0.502074 -0.539528 0
M  V30 5872 H 553.401 -1.70974 -0.828728 0
M  V30 5873 H 551.551 -2.0783 -3.28236 0
M  V30 5874 H 553.223 -4.2392 -1.81905 0
M  V30 5875 H 551.466 -4.01334 -1.64661 0
M  V30 5876 H 552.137 -4.49152 -3.20884 0
M  V30 5877 H 554.613 -2.5658 -3.27576 0
M  V30 5878 H 553.489 -3.02395 -4.58092 0
M  V30 5879 H 553.75 -1.3253 -4.21768 0
M  V30 5880 N 552.809 0.956637 -1.25245 0
M  V30 5881 C 553.772 2.03457 -1.05537 0
M  V30 5882 C 554.772 1.60798 -0.00886317 0
M  V30 5883 O 555.962 1.72384 -0.250865 0
M  V30 5884 C 553.094 3.35543 -0.601965 0
M  V30 5885 H 554.287 2.22372 -2.01223 0
M  V30 5886 H 551.84 1.13344 -1.07623 0
M  V30 5887 H 552.575 3.22323 0.357584 0
M  V30 5888 H 552.36 3.67854 -1.35743 0
M  V30 5889 H 553.85 4.14769 -0.485454 0
M  V30 5890 N 554.287 1.06798 1.15896 0
M  V30 5891 C 555.234 0.683314 2.20453 0
M  V30 5892 C 556.204 -0.32255 1.62938 0
M  V30 5893 O 557.389 -0.210276 1.89638 0
M  V30 5894 C 554.529 0.0813266 3.45004 0
M  V30 5895 C 553.642 1.13799 4.16742 0
M  V30 5896 C 552.777 0.501598 5.28826 0
M  V30 5897 C 551.816 1.54144 5.92373 0
M  V30 5898 N 550.953 0.928038 6.9594 0
M  V30 5899 H 555.793 1.57932 2.52708 0
M  V30 5900 H 553.33 0.789544 1.24115 0
M  V30 5901 H 555.288 -0.285274 4.16224 0
M  V30 5902 H 553.918 -0.77806 3.13283 0
M  V30 5903 H 552.97 1.62223 3.44075 0
M  V30 5904 H 554.282 1.92664 4.60089 0
M  V30 5905 H 553.436 0.0823162 6.06644 0
M  V30 5906 H 552.175 -0.318883 4.86656 0
M  V30 5907 H 551.18 1.97056 5.13273 0
M  V30 5908 H 552.405 2.3641 6.36621 0
M  V30 5909 H 550.351 0.12836 6.55874 0
M  V30 5910 H 550.268 1.65401 7.37685 0
M  V30 5911 H 551.536 0.534071 7.77668 0
M  V30 5912 N 555.766 -1.3263 0.851289 0
M  V30 5913 C 556.713 -2.28952 0.291469 0
M  V30 5914 C 557.683 -1.54897 -0.599676 0
M  V30 5915 O 558.868 -1.83137 -0.535305 0
M  V30 5916 C 556.008 -3.41206 -0.516992 0
M  V30 5917 C 555.121 -4.30148 0.399566 0
M  V30 5918 C 554.256 -5.29527 -0.4212 0
M  V30 5919 C 553.295 -6.10112 0.492969 0
M  V30 5920 N 552.432 -7.01499 -0.290414 0
M  V30 5921 H 557.272 -2.76228 1.11813 0
M  V30 5922 H 554.809 -1.35907 0.562826 0
M  V30 5923 H 556.767 -4.05005 -1.00132 0
M  V30 5924 H 555.397 -2.9509 -1.30851 0
M  V30 5925 H 554.449 -3.66959 1.00227 0
M  V30 5926 H 555.761 -4.8649 1.1013 0
M  V30 5927 H 554.915 -5.98914 -0.968832 0
M  V30 5928 H 553.654 -4.73794 -1.15632 0
M  V30 5929 H 552.659 -5.39632 1.05251 0
M  V30 5930 H 553.884 -6.6793 1.22664 0
M  V30 5931 H 551.83 -6.48199 -1.00868 0
M  V30 5932 H 551.747 -7.55178 0.352354 0
M  V30 5933 H 553.015 -7.75176 -0.819882 0
M  V30 5934 N 557.244 -0.608902 -1.45362 0
M  V30 5935 C 558.194 0.130616 -2.27626 0
M  V30 5936 C 559.178 0.837323 -1.37396 0
M  V30 5937 O 560.37 0.727096 -1.61376 0
M  V30 5938 C 557.499 1.12646 -3.24293 0
M  V30 5939 C 556.585 0.42052 -4.2201 0
M  V30 5940 N 556.976 -0.538569 -5.02925 0
M  V30 5941 C 555.274 0.667901 -4.40971 0
M  V30 5942 C 555.975 -0.953625 -5.7383 0
M  V30 5943 N 554.951 -0.297097 -5.42788 0
M  V30 5944 H 558.753 -0.605996 -2.87585 0
M  V30 5945 H 556.267 -0.432672 -1.5653 0
M  V30 5946 H 558.264 1.67066 -3.81961 0
M  V30 5947 H 556.924 1.86361 -2.65894 0
M  V30 5948 H 557.935 -0.915375 -5.09746 0
M  V30 5949 H 554.612 1.38963 -3.93695 0
M  V30 5950 H 556.002 -1.74473 -6.48852 0
M  V30 5951 N 558.722 1.53707 -0.348139 0
M  V30 5952 C 560.133 1.86213 0.134797 0
M  V30 5953 C 560.484 1.26925 1.49614 0
M  V30 5954 O 559.609 0.584573 2.08355 0
M  V30 5955 C 560.204 3.37866 0.251371 0
M  V30 5956 C 558.763 3.70233 0.678543 0
M  V30 5957 C 557.91 2.76683 -0.184925 0
M  V30 5958 H 560.861 1.48204 -0.567571 0
M  V30 5959 H 560.882 3.64908 1.07806 0
M  V30 5960 H 560.394 3.80988 -0.739581 0
M  V30 5961 H 558.495 3.32659 1.67835 0
M  V30 5962 H 558.608 4.76836 0.465251 0
M  V30 5963 H 556.972 2.52374 0.343465 0
M  V30 5964 H 557.755 3.22635 -1.1731 0
M  V30 5965 N 560.2 0.0768682 1.57412 0
M  V30 5966 C 561.147 -0.888577 2.13009 0
M  V30 5967 C 562.117 -1.29198 1.0439 0
M  V30 5968 O 563.302 -1.37694 1.3208 0
M  V30 5969 C 560.442 -2.14899 2.70023 0
M  V30 5970 C 559.555 -1.79777 3.92816 0
M  V30 5971 C 558.69 -3.00467 4.38056 0
M  V30 5972 C 557.729 -2.61385 5.53484 0
M  V30 5973 N 556.866 -3.74851 5.93659 0
M  V30 5974 H 561.706 -0.407593 2.95199 0
M  V30 5975 H 559.243 -0.189534 1.45874 0
M  V30 5976 H 561.201 -2.88688 3.0119 0
M  V30 5977 H 559.831 -2.60529 1.9059 0
M  V30 5978 H 558.883 -0.960301 3.68079 0
M  V30 5979 H 560.195 -1.47027 4.76639 0
M  V30 5980 H 559.349 -3.82529 4.7091 0
M  V30 5981 H 558.088 -3.36413 3.53097 0
M  V30 5982 H 557.093 -1.77746 5.20275 0
M  V30 5983 H 558.318 -2.26603 6.40178 0
M  V30 5984 H 556.264 -4.1055 5.11649 0
M  V30 5985 H 556.181 -3.45887 6.72234 0
M  V30 5986 H 557.449 -4.57477 6.31138 0
M  V30 5987 N 561.678 -1.56367 -0.196722 0
M  V30 5988 C 562.906 -1.84639 -0.933608 0
M  V30 5989 C 563.321 -0.659164 -1.76919 0
M  V30 5990 O 562.678 0.372142 -1.78665 0
M  V30 5991 C 562.729 -3.11694 -1.83109 0
M  V30 5992 O 562.45 -4.25838 -1.02924 0
M  V30 5993 C 563.951 -3.53132 -2.67979 0
M  V30 5994 H 561.171 -0.613188 -0.272473 0
M  V30 5995 H 563.715 -2.03475 -0.204465 0
M  V30 5996 H 561.87 -2.94759 -2.51387 0
M  V30 5997 H 562.284 -4.98178 -1.64069 0
M  V30 5998 H 563.758 -4.45005 -3.26611 0
M  V30 5999 H 564.235 -2.76045 -3.41608 0
M  V30 6000 H 564.841 -3.72592 -2.05074 0
M  V30 6001 N 563.156 0.464375 -1.50603 0
M  V30 6002 C 564.402 1.21485 -1.63135 0
M  V30 6003 C 564.757 1.89538 -0.33063 0
M  V30 6004 O 564.05 1.79432 0.671903 0
M  V30 6005 C 564.244 2.278 -2.75394 0
M  V30 6006 C 564.073 1.70178 -4.16257 0
M  V30 6007 C 562.843 1.49854 -4.82568 0
M  V30 6008 C 565.041 1.19298 -5.00272 0
M  V30 6009 N 563.023 0.875458 -6.07626 0
M  V30 6010 C 564.394 0.693527 -6.16109 0
M  V30 6011 C 566.449 1.08216 -4.85998 0
M  V30 6012 C 565.152 0.0941808 -7.19238 0
M  V30 6013 C 567.178 0.496745 -5.8931 0
M  V30 6014 C 566.54 0.00770448 -7.044 0
M  V30 6015 H 562.639 0.433184 -0.651057 0
M  V30 6016 H 565.223 0.515748 -1.87745 0
M  V30 6017 H 563.394 2.95129 -2.52495 0
M  V30 6018 H 565.126 2.94814 -2.77249 0
M  V30 6019 H 561.881 1.75269 -4.39975 0
M  V30 6020 H 562.305 0.582135 -6.74493 0
M  V30 6021 H 566.947 1.44617 -3.97298 0
M  V30 6022 H 564.665 -0.28202 -8.07608 0
M  V30 6023 H 568.251 0.413275 -5.8033 0
M  V30 6024 H 567.131 -0.438188 -7.82975 0
M  V30 6025 N 564.634 1.40294 0.718013 0
M  V30 6026 C 565.88 1.38645 1.48005 0
M  V30 6027 C 566.213 -0.0121202 1.94196 0
M  V30 6028 O 565.488 -0.980309 1.67989 0
M  V30 6029 C 565.771 2.37379 2.70782 0
M  V30 6030 C 565.624 3.8625 2.30501 0
M  V30 6031 C 566.943 2.33685 3.72933 0
M  V30 6032 H 564.062 0.504928 0.536858 0
M  V30 6033 H 566.704 1.71411 0.819649 0
M  V30 6034 H 564.854 2.09568 3.27129 0
M  V30 6035 H 566.526 4.24879 1.79655 0
M  V30 6036 H 564.769 4.02202 1.6253 0
M  V30 6037 H 565.44 4.50847 3.18498 0
M  V30 6038 H 567.916 2.58314 3.2621 0
M  V30 6039 H 566.792 3.0482 4.56482 0
M  V30 6040 H 567.053 1.34765 4.21059 0
M  V30 6041 N 566.112 -0.949982 1.2575 0
M  V30 6042 C 567.062 -2.03297 1.03221 0
M  V30 6043 C 568.046 -1.60867 -0.0324751 0
M  V30 6044 O 569.238 -1.76047 0.183423 0
M  V30 6045 C 566.367 -3.36938 0.657841 0
M  V30 6046 C 565.453 -3.85878 1.75952 0
M  V30 6047 N 565.844 -4.0756 2.99547 0
M  V30 6048 C 564.142 -4.14709 1.64111 0
M  V30 6049 C 564.843 -4.47961 3.71087 0
M  V30 6050 N 563.819 -4.5416 2.98731 0
M  V30 6051 H 567.621 -2.1806 1.97045 0
M  V30 6052 H 565.135 -1.13516 1.16138 0
M  V30 6053 H 567.132 -4.14155 0.477614 0
M  V30 6054 H 565.792 -3.2355 -0.273025 0
M  V30 6055 H 566.803 -3.94501 3.35544 0
M  V30 6056 H 563.48 -4.10158 0.779527 0
M  V30 6057 H 564.87 -4.73002 4.77199 0
M  V30 6058 N 567.59 -1.07411 -1.15328 0
M  V30 6059 C 568.82 -0.817595 -1.89734 0
M  V30 6060 C 569.228 0.63297 -1.78298 0
M  V30 6061 O 568.571 1.44594 -1.13306 0
M  V30 6062 C 568.633 -1.14748 -3.40695 0
M  V30 6063 C 568.297 -2.59876 -3.75917 0
M  V30 6064 C 569.294 -3.58122 -3.76888 0
M  V30 6065 C 566.979 -2.95469 -4.06206 0
M  V30 6066 C 568.973 -4.89996 -4.07655 0
M  V30 6067 C 566.66 -4.2754 -4.36638 0
M  V30 6068 C 567.658 -5.24614 -4.37344 0
M  V30 6069 O 567.346 -6.54312 -4.67045 0
M  V30 6070 H 567.078 -0.295175 -0.608151 0
M  V30 6071 H 569.632 -1.43409 -1.47048 0
M  V30 6072 H 567.862 -0.47395 -3.83785 0
M  V30 6073 H 569.551 -0.873397 -3.96392 0
M  V30 6074 H 570.317 -3.31966 -3.53587 0
M  V30 6075 H 566.196 -2.20558 -4.04815 0
M  V30 6076 H 569.74 -5.65759 -4.08121 0
M  V30 6077 H 565.637 -4.53449 -4.59407 0
M  V30 6078 H 566.405 -6.59473 -4.84807 0
M  V30 6079 N 569.068 1.32177 -0.85831 0
M  V30 6080 C 570.317 1.96392 -0.459689 0
M  V30 6081 C 570.63 1.68659 0.990632 0
M  V30 6082 O 571.836 2.26641 1.49485 0
M  V30 6083 C 570.292 3.51542 -0.7711 0
M  V30 6084 C 569.9 3.8813 -2.2374 0
M  V30 6085 C 571.644 4.2221 -0.44038 0
M  V30 6086 C 569.551 5.36341 -2.49183 0
M  V30 6087 H 568.481 0.735007 -0.168169 0
M  V30 6088 H 571.132 1.50518 -1.0496 0
M  V30 6089 H 569.514 3.95846 -0.11058 0
M  V30 6090 H 570.688 3.54824 -2.94001 0
M  V30 6091 H 569.003 3.30497 -2.533 0
M  V30 6092 H 571.6 5.31234 -0.607855 0
M  V30 6093 H 571.943 4.11683 0.618291 0
M  V30 6094 H 572.476 3.83502 -1.05695 0
M  V30 6095 H 569.215 5.51892 -3.53689 0
M  V30 6096 H 568.735 5.7104 -1.83504 0
M  V30 6097 H 570.414 6.03466 -2.33318 0
M  V30 6098 N 570.547 0.616602 1.45037 0
M  V30 6099 C 571.51 -0.0871112 2.29034 0
M  V30 6100 C 572.51 -0.786414 1.40258 0
M  V30 6101 O 573.7 -0.633207 1.62284 0
M  V30 6102 C 570.832 -1.13369 3.21497 0
M  V30 6103 H 572.025 0.651497 2.92738 0
M  V30 6104 H 569.578 0.376058 1.51709 0
M  V30 6105 H 570.313 -1.90277 2.62612 0
M  V30 6106 H 570.098 -0.636358 3.86902 0
M  V30 6107 H 571.588 -1.62627 3.84633 0
M  V30 6108 N 572.025 -1.5352 0.356285 0
M  V30 6109 C 572.988 -2.24071 -0.482182 0
M  V30 6110 C 573.988 -1.24531 -1.01729 0
M  V30 6111 O 575.178 -1.48876 -0.904513 0
M  V30 6112 C 572.31 -2.97025 -1.67299 0
M  V30 6113 H 573.503 -2.99596 0.135031 0
M  V30 6114 H 571.056 -1.55928 0.107825 0
M  V30 6115 H 571.791 -2.25719 -2.32855 0
M  V30 6116 H 571.576 -3.7005 -1.29636 0
M  V30 6117 H 573.066 -3.50683 -2.26741 0
M  V30 6118 N 573.503 -0.0852151 -1.57369 0
M  V30 6119 C 574.413 0.891712 -2.16992 0
M  V30 6120 C 575.429 1.3174 -1.13669 0
M  V30 6121 O 576.605 1.38735 -1.45995 0
M  V30 6122 C 573.67 2.13635 -2.73059 0
M  V30 6123 C 572.731 1.7658 -3.91303 0
M  V30 6124 C 571.964 2.95111 -4.44686 0
M  V30 6125 O 572.187 4.09539 -3.97032 0
M  V30 6126 O 571.121 2.74149 -5.35841 0
M  V30 6127 H 574.947 0.414477 -3.00858 0
M  V30 6128 H 572.532 0.138598 -1.48756 0
M  V30 6129 H 574.414 2.86595 -3.08935 0
M  V30 6130 H 573.089 2.6043 -1.92244 0
M  V30 6131 H 571.996 1.00831 -3.60255 0
M  V30 6132 H 573.329 1.34557 -4.7345 0
M  V30 6133 N 574.981 1.5647 0.188427 0
M  V30 6134 C 575.891 1.98285 1.2538 0
M  V30 6135 C 576.907 0.891535 1.49424 0
M  V30 6136 O 578.083 1.19782 1.61908 0
M  V30 6137 C 575.148 2.31965 2.57669 0
M  V30 6138 C 574.209 3.54838 2.41638 0
M  V30 6139 C 573.442 3.86901 3.67618 0
M  V30 6140 O 573.665 3.20163 4.72072 0
M  V30 6141 O 572.599 4.80309 3.62749 0
M  V30 6142 H 576.425 2.89145 0.928912 0
M  V30 6143 H 574.01 1.44112 0.393955 0
M  V30 6144 H 575.892 2.54673 3.35737 0
M  V30 6145 H 574.567 1.44271 2.89771 0
M  V30 6146 H 573.474 3.37369 1.61658 0
M  V30 6147 H 574.807 4.43019 2.14465 0
M  V30 6148 N 576.459 -0.456382 1.50847 0
M  V30 6149 C 577.369 -1.57805 1.73594 0
M  V30 6150 C 578.385 -1.62599 0.619476 0
M  V30 6151 O 579.561 -1.80195 0.899532 0
M  V30 6152 C 576.626 -2.93926 1.8387 0
M  V30 6153 C 575.687 -2.99402 3.07663 0
M  V30 6154 C 574.92 -4.29031 3.1744 0
M  V30 6155 O 575.143 -5.20358 2.33631 0
M  V30 6156 O 574.077 -4.40401 4.10281 0
M  V30 6157 H 577.903 -1.41531 2.68705 0
M  V30 6158 H 575.488 -0.637422 1.3512 0
M  V30 6159 H 577.37 -3.74747 1.92725 0
M  V30 6160 H 576.045 -3.10368 0.91944 0
M  V30 6161 H 574.952 -2.17606 3.043 0
M  V30 6162 H 576.285 -2.87901 3.99216 0
M  V30 6163 N 577.937 -1.40673 -0.710563 0
M  V30 6164 C 579.214 -1.29718 -1.46398 0
M  V30 6165 C 579.594 0.082177 -2.1094 0
M  V30 6166 O 578.942 1.09536 -2.00534 0
M  V30 6167 C 579.152 -2.43967 -2.49562 0
M  V30 6168 C 580.5 -2.84436 -3.15248 0
M  V30 6169 O 581.524 -2.43597 -2.59883 0
M  V30 6170 O 580.383 -3.55008 -4.1549 0
M  V30 6171 H 577.477 -0.509697 -0.651258 0
M  V30 6172 H 580.023 -1.52603 -0.742312 0
M  V30 6173 H 578.795 -3.36076 -2.0042 0
M  V30 6174 H 578.418 -2.22879 -3.29258 0
M  V30 6175 N 579.415 0.9433 -1.26252 0
M  V30 6176 C 580.661 1.69226 -1.12846 0
M  V30 6177 C 581.016 1.8963 0.325282 0
M  V30 6178 O 580.309 1.46435 1.23561 0
M  V30 6179 C 580.503 3.07073 -1.82868 0
M  V30 6180 C 580.332 3.00118 -3.34902 0
M  V30 6181 C 579.102 3.03251 -4.04186 0
M  V30 6182 C 581.3 2.80418 -4.31127 0
M  V30 6183 N 579.282 2.86573 -5.42908 0
M  V30 6184 C 580.653 2.72287 -5.5701 0
M  V30 6185 C 582.708 2.65185 -4.21404 0
M  V30 6186 C 581.411 2.50479 -6.74279 0
M  V30 6187 C 583.437 2.4475 -5.38378 0
M  V30 6188 C 582.799 2.37349 -6.63208 0
M  V30 6189 H 578.898 0.626716 -0.467708 0
M  V30 6190 H 581.482 1.11645 -1.5951 0
M  V30 6191 H 579.653 3.62797 -1.38682 0
M  V30 6192 H 581.385 3.70816 -1.62103 0
M  V30 6193 H 578.14 3.12882 -3.55531 0
M  V30 6194 H 578.564 2.81408 -6.15742 0
M  V30 6195 H 583.206 2.69675 -3.25631 0
M  V30 6196 H 580.924 2.4473 -7.70151 0
M  V30 6197 H 584.51 2.33872 -5.32724 0
M  V30 6198 H 583.39 2.21746 -7.52196 0
M  V30 6199 N 580.893 1.08022 1.14757 0
M  V30 6200 C 582.17 0.720386 1.81851 0
M  V30 6201 C 582.55 -0.796375 1.95502 0
M  V30 6202 O 581.898 -1.71339 1.51179 0
M  V30 6203 C 582.108 1.44273 3.17783 0
M  V30 6204 C 583.456 1.59925 3.93331 0
M  V30 6205 O 584.48 1.40407 3.2736 0
M  V30 6206 O 583.339 1.92096 5.11626 0
M  V30 6207 H 580.433 0.257142 0.786007 0
M  V30 6208 H 582.979 1.18155 1.21809 0
M  V30 6209 H 581.751 2.47618 3.02987 0
M  V30 6210 H 581.374 0.97279 3.85516 0
M  V30 6211 N 582.371 -1.3172 0.865308 0
M  V30 6212 C 583.601 -2.00765 0.487543 0
M  V30 6213 C 584.009 -1.65145 -0.92325 0
M  V30 6214 O 583.352 -0.874294 -1.61561 0
M  V30 6215 C 583.414 -3.55122 0.559369 0
M  V30 6216 C 583.078 -4.14202 1.93095 0
M  V30 6217 C 584.075 -4.3165 2.89784 0
M  V30 6218 C 581.76 -4.50036 2.23099 0
M  V30 6219 C 583.754 -4.84114 4.14623 0
M  V30 6220 C 581.441 -5.02203 3.48189 0
M  V30 6221 C 582.439 -5.19192 4.43767 0
M  V30 6222 O 582.127 -5.70241 5.6664 0
M  V30 6223 H 581.859 -0.649066 0.188915 0
M  V30 6224 H 584.413 -1.69032 1.16694 0
M  V30 6225 H 582.643 -3.86295 -0.176926 0
M  V30 6226 H 584.332 -4.05428 0.195694 0
M  V30 6227 H 585.098 -4.04288 2.6791 0
M  V30 6228 H 580.977 -4.36091 1.49485 0
M  V30 6229 H 584.521 -4.9729 4.89233 0
M  V30 6230 H 580.418 -5.28997 3.69908 0
M  V30 6231 H 581.186 -5.88617 5.68746 0
M  V30 6232 N 583.85 -0.624285 -1.44708 0
M  V30 6233 C 584.812 0.0749638 -2.29077 0
M  V30 6234 C 585.812 0.778965 -1.40673 0
M  V30 6235 O 587.003 0.624591 -1.62618 0
M  V30 6236 C 584.135 1.11663 -3.22094 0
M  V30 6237 H 585.327 -0.667013 -2.92388 0
M  V30 6238 H 582.88 -0.384098 -1.51507 0
M  V30 6239 H 583.615 1.88881 -2.63618 0
M  V30 6240 H 583.401 0.61583 -3.87234 0
M  V30 6241 H 584.891 1.60585 -3.8549 0
M  V30 6242 N 585.328 1.53329 -0.364422 0
M  V30 6243 C 586.739 1.86345 0.115039 0
M  V30 6244 C 587.09 1.28505 1.4826 0
M  V30 6245 O 586.215 0.606639 2.07723 0
M  V30 6246 C 586.81 3.38114 0.215522 0
M  V30 6247 C 585.369 3.70932 0.639237 0
M  V30 6248 C 584.516 2.76471 -0.214261 0
M  V30 6249 H 587.467 1.47593 -0.583258 0
M  V30 6250 H 587.488 3.66031 1.0393 0
M  V30 6251 H 587 3.80182 -0.779948 0
M  V30 6252 H 585.101 3.3442 1.64298 0
M  V30 6253 H 585.214 4.77302 0.41465 0
M  V30 6254 H 583.578 2.52724 0.316678 0
M  V30 6255 H 584.361 3.21373 -1.20725 0
M  V30 6256 N 586.806 0.0935595 1.57322 0
M  V30 6257 C 587.736 -0.863062 2.16964 0
M  V30 6258 C 588.717 -1.29528 1.10256 0
M  V30 6259 O 589.902 -1.36245 1.38387 0
M  V30 6260 C 587.032 -2.12276 2.74875 0
M  V30 6261 C 585.986 -1.82921 3.86942 0
M  V30 6262 C 585.312 -3.15707 4.31548 0
M  V30 6263 C 586.612 -1.11737 5.10208 0
M  V30 6264 H 588.306 -0.366145 2.97153 0
M  V30 6265 H 585.852 -0.174673 1.42937 0
M  V30 6266 H 587.805 -2.79634 3.1525 0
M  V30 6267 H 586.529 -2.64248 1.91938 0
M  V30 6268 H 585.188 -1.17961 3.47103 0
M  V30 6269 H 584.836 -3.65563 3.45504 0
M  V30 6270 H 584.536 -2.96849 5.07104 0
M  V30 6271 H 586.06 -3.84226 4.74555 0
M  V30 6272 H 587.474 -1.69203 5.47762 0
M  V30 6273 H 585.871 -1.03064 5.91183 0
M  V30 6274 H 586.941 -0.0998818 4.84797 0
M  V30 6275 N 588.284 -1.56567 -0.180126 0
M  V30 6276 C 589.53 -1.81761 -0.899497 0
M  V30 6277 C 589.863 -0.670015 -1.82276 0
M  V30 6278 O 589.138 0.328575 -1.91705 0
M  V30 6279 C 589.421 -3.17296 -1.7028 0
M  V30 6280 C 589.274 -4.4257 -0.803255 0
M  V30 6281 C 590.593 -3.49678 -2.67233 0
M  V30 6282 H 587.712 -0.661192 -0.325567 0
M  V30 6283 H 590.354 -1.89272 -0.16612 0
M  V30 6284 H 588.504 -3.11023 -2.32802 0
M  V30 6285 H 590.176 -4.60902 -0.191585 0
M  V30 6286 H 588.419 -4.33658 -0.110796 0
M  V30 6287 H 589.09 -5.33935 -1.40064 0
M  V30 6288 H 591.566 -3.56347 -2.14839 0
M  V30 6289 H 590.442 -4.45605 -3.20511 0
M  V30 6290 H 590.703 -2.73932 -3.47007 0
M  V30 6291 N 589.762 0.448376 -1.51087 0
M  V30 6292 C 590.692 1.55102 -1.74544 0
M  V30 6293 C 591.673 1.59357 -0.594932 0
M  V30 6294 O 592.858 1.75261 -0.836491 0
M  V30 6295 C 589.988 2.93268 -1.86041 0
M  V30 6296 C 588.942 3.03877 -3.01402 0
M  V30 6297 C 588.268 4.43914 -2.98068 0
M  V30 6298 C 589.568 2.7898 -4.41551 0
M  V30 6299 H 591.262 1.35724 -2.66869 0
M  V30 6300 H 588.808 0.651498 -1.28419 0
M  V30 6301 H 590.761 3.70356 -2.01034 0
M  V30 6302 H 589.485 3.13853 -0.903548 0
M  V30 6303 H 588.144 2.29227 -2.86096 0
M  V30 6304 H 587.792 4.6145 -2.00182 0
M  V30 6305 H 587.492 4.51944 -3.75527 0
M  V30 6306 H 589.016 5.22991 -3.1514 0
M  V30 6307 H 590.43 3.45805 -4.57265 0
M  V30 6308 H 588.827 2.98431 -5.20633 0
M  V30 6309 H 589.897 1.74663 -4.5235 0
M  V30 6310 N 591.24 1.41047 0.703093 0
M  V30 6311 C 592.203 1.42036 1.79884 0
M  V30 6312 C 593.203 0.312153 1.57741 0
M  V30 6313 O 594.393 0.571672 1.64553 0
M  V30 6314 C 591.525 1.22437 3.18154 0
M  V30 6315 H 592.718 2.39572 1.80403 0
M  V30 6316 H 590.271 1.27079 0.909977 0
M  V30 6317 H 591.006 0.257112 3.23279 0
M  V30 6318 H 590.791 2.02723 3.35627 0
M  V30 6319 H 592.281 1.25946 3.98155 0
M  V30 6320 N 592.718 -0.936591 1.26751 0
M  V30 6321 C 594.129 -1.49816 1.1141 0
M  V30 6322 C 594.48 -1.9383 -0.304015 0
M  V30 6323 O 593.605 -1.80346 -1.196 0
M  V30 6324 C 594.2 -2.72271 2.01629 0
M  V30 6325 C 592.759 -3.2468 1.9042 0
M  V30 6326 C 591.906 -1.97444 1.94708 0
M  V30 6327 H 594.857 -0.751604 1.39773 0
M  V30 6328 H 594.878 -3.46741 1.56688 0
M  V30 6329 H 594.39 -2.40205 3.04833 0
M  V30 6330 H 592.491 -3.61525 0.901674 0
M  V30 6331 H 592.604 -3.91476 2.76195 0
M  V30 6332 H 590.968 -2.13545 1.38818 0
M  V30 6333 H 591.751 -1.67703 2.9955 0
M  V30 6334 N 594.196 -1.08629 -1.14182 0
M  V30 6335 C 595.473 -0.73002 -1.81466 0
M  V30 6336 C 595.853 0.785996 -1.95922 0
M  V30 6337 O 595.201 1.70535 -1.52086 0
M  V30 6338 C 595.411 -1.45957 -3.17014 0
M  V30 6339 C 596.759 -1.62008 -3.92477 0
M  V30 6340 O 597.783 -1.42141 -3.26611 0
M  V30 6341 O 596.642 -1.94806 -5.106 0
M  V30 6342 H 593.736 -0.261307 -0.784632 0
M  V30 6343 H 596.282 -1.188 -1.2118 0
M  V30 6344 H 595.054 -2.49221 -3.01669 0
M  V30 6345 H 594.677 -0.993222 -3.84995 0
M  V30 6346 N 595.674 1.31259 -0.872281 0
M  V30 6347 C 596.951 1.91362 -0.404943 0
M  V30 6348 C 597.331 1.79362 1.11321 0
M  V30 6349 O 596.679 1.20277 1.94283 0
M  V30 6350 C 596.889 3.3749 -0.888893 0
M  V30 6351 C 598.237 4.14593 -0.916384 0
M  V30 6352 O 599.261 3.46282 -0.834701 0
M  V30 6353 O 598.12 5.3661 -1.03498 0
M  V30 6354 H 595.214 0.818016 -0.121569 0
M  V30 6355 H 597.76 1.39912 -0.960346 0
M  V30 6356 H 596.532 3.40249 -1.93251 0
M  V30 6357 H 596.155 3.96375 -0.311932 0
M  V30 6358 N 597.152 0.631951 1.44375 0
M  V30 6359 C 598.568 0.297642 1.568 0
M  V30 6360 C 598.768 -1.19916 1.61934 0
M  V30 6361 O 597.824 -1.98324 1.56281 0
M  V30 6362 C 599.137 0.990286 2.83926 0
M  V30 6363 C 600.685 0.968507 2.97639 0
M  V30 6364 C 601.16 1.64163 4.27568 0
M  V30 6365 N 602.651 1.60826 4.34384 0
M  V30 6366 C 603.386 2.09802 5.33639 0
M  V30 6367 N 602.882 2.66973 6.39294 0
M  V30 6368 N 604.675 2.00426 5.25153 0
M  V30 6369 H 596.826 1.60353 1.39286 0
M  V30 6370 H 599.089 0.673142 0.667521 0
M  V30 6371 H 598.795 2.04519 2.8612 0
M  V30 6372 H 598.669 0.528563 3.73478 0
M  V30 6373 H 601.056 -0.0779247 2.94997 0
M  V30 6374 H 601.137 1.46873 2.09433 0
M  V30 6375 H 600.781 2.68752 4.3097 0
M  V30 6376 H 600.711 1.11624 5.14634 0
M  V30 6377 H 603.202 1.19087 3.58646 0
M  V30 6378 H 603.515 3.02074 7.11316 0
M  V30 6379 H 601.86 2.71024 6.39977 0
M  V30 6380 H 605.051 1.55483 4.41523 0
M  V30 6381 H 605.224 2.38906 6.02352 0
M  V30 6382 N 598.631 -1.53133 0.372548 0
M  V30 6383 C 599.856 -2.0625 -0.218098 0
M  V30 6384 C 600.281 -1.24375 -1.41111 0
M  V30 6385 O 599.639 -0.264554 -1.79359 0
M  V30 6386 C 599.687 -3.55858 -0.582876 0
M  V30 6387 O 598.791 -3.76667 -1.67917 0
M  V30 6388 H 598.132 -0.663317 -0.030104 0
M  V30 6389 H 600.662 -1.97477 0.535169 0
M  V30 6390 H 600.672 -3.99007 -0.851925 0
M  V30 6391 H 599.347 -4.14892 0.289428 0
M  V30 6392 H 597.924 -3.45413 -1.40513 0
M  V30 6393 N 600.109 -0.101901 -1.5727 0
M  V30 6394 C 601.339 0.567568 -1.98651 0
M  V30 6395 C 601.747 1.61839 -0.980037 0
M  V30 6396 O 601.09 1.83661 0.0376564 0
M  V30 6397 C 601.152 1.26742 -3.36417 0
M  V30 6398 C 600.816 0.366561 -4.55528 0
M  V30 6399 C 601.813 -0.388022 -5.1845 0
M  V30 6400 C 599.498 0.282629 -5.01504 0
M  V30 6401 C 601.492 -1.21445 -6.25724 0
M  V30 6402 C 599.179 -0.547443 -6.08643 0
M  V30 6403 C 600.177 -1.29462 -6.70618 0
M  V30 6404 O 599.865 -2.11095 -7.7569 0
M  V30 6405 H 599.597 0.156282 -0.657687 0
M  V30 6406 H 602.151 -0.179912 -2.04611 0
M  V30 6407 H 600.381 2.06162 -3.27161 0
M  V30 6408 H 602.07 1.8321 -3.622 0
M  V30 6409 H 602.836 -0.332949 -4.83856 0
M  V30 6410 H 598.715 0.853868 -4.53023 0
M  V30 6411 H 602.259 -1.79814 -6.74027 0
M  V30 6412 H 598.156 -0.603971 -6.42668 0
M  V30 6413 H 598.924 -2.03851 -7.92709 0
M  V30 6414 N 601.587 1.56661 0.17182 0
M  V30 6415 C 602.534 1.96371 1.21273 0
M  V30 6416 C 603.504 0.82756 1.44016 0
M  V30 6417 O 604.689 1.08764 1.56764 0
M  V30 6418 C 601.829 2.32838 2.54716 0
M  V30 6419 C 600.942 3.59628 2.39356 0
M  V30 6420 C 600.077 3.85311 3.65662 0
M  V30 6421 C 599.116 5.0545 3.45234 0
M  V30 6422 N 598.253 5.27268 4.63608 0
M  V30 6423 H 603.093 2.85106 0.86709 0
M  V30 6424 H 600.63 1.41073 0.416744 0
M  V30 6425 H 602.588 2.52004 3.3249 0
M  V30 6426 H 601.218 1.47214 2.87277 0
M  V30 6427 H 600.27 3.4838 1.52761 0
M  V30 6428 H 601.582 4.4756 2.20207 0
M  V30 6429 H 600.736 4.04841 4.51872 0
M  V30 6430 H 599.475 2.95753 3.8779 0
M  V30 6431 H 598.48 4.85819 2.5741 0
M  V30 6432 H 599.705 5.96538 3.24529 0
M  V30 6433 H 597.651 4.40662 4.85956 0
M  V30 6434 H 597.568 6.09422 4.4737 0
M  V30 6435 H 598.836 5.51277 5.51103 0
M  V30 6436 N 603.065 -0.440357 1.51323 0
M  V30 6437 C 604.29 -1.21716 1.67928 0
M  V30 6438 C 604.715 -1.84328 0.374826 0
M  V30 6439 O 604.073 -1.68675 -0.664706 0
M  V30 6440 C 604.121 -2.27914 2.79442 0
M  V30 6441 O 603.225 -3.33325 2.42834 0
M  V30 6442 H 602.566 -0.35674 0.560029 0
M  V30 6443 H 605.096 -0.520417 1.97871 0
M  V30 6444 H 605.106 -2.72746 3.03436 0
M  V30 6445 H 603.781 -1.8172 3.741 0
M  V30 6446 H 602.358 -2.9399 2.294 0
M  V30 6447 N 604.543 -1.41418 -0.695603 0
M  V30 6448 C 605.475 -1.39195 -1.82092 0
M  V30 6449 C 606.488 -0.294132 -1.60121 0
M  V30 6450 O 607.677 -0.555854 -1.69625 0
M  V30 6451 C 604.777 -1.14828 -3.18854 0
M  V30 6452 C 603.95 -2.36649 -3.67853 0
M  V30 6453 C 603.009 -2.08139 -4.83285 0
M  V30 6454 O 602.035 -2.81177 -4.94902 0
M  V30 6455 N 603.237 -1.07162 -5.70523 0
M  V30 6456 H 606.002 -2.36185 -1.84491 0
M  V30 6457 H 603.563 -1.3603 -0.877923 0
M  V30 6458 H 605.555 -0.937075 -3.93702 0
M  V30 6459 H 604.125 -0.264358 -3.1148 0
M  V30 6460 H 603.345 -2.73472 -2.83913 0
M  V30 6461 H 604.633 -3.17816 -3.97329 0
M  V30 6462 H 604.031 -0.467124 -5.63768 0
M  V30 6463 H 602.588 -0.920311 -6.4527 0
M  V30 6464 N 606.021 0.929856 -1.27246 0
M  V30 6465 C 607.251 1.70895 -1.16096 0
M  V30 6466 C 607.659 1.87039 0.285122 0
M  V30 6467 O 607.002 1.38557 1.20614 0
M  V30 6468 C 607.064 3.12919 -1.7698 0
M  V30 6469 C 606.728 3.2012 -3.26148 0
M  V30 6470 C 607.725 3.02533 -4.22812 0
M  V30 6471 C 605.41 3.43148 -3.66817 0
M  V30 6472 C 607.404 3.07861 -5.58122 0
M  V30 6473 C 605.091 3.48109 -5.02258 0
M  V30 6474 C 606.089 3.30483 -5.97721 0
M  V30 6475 O 605.777 3.35175 -7.30694 0
M  V30 6476 H 605.509 0.54152 -0.404639 0
M  V30 6477 H 608.063 1.17342 -1.68582 0
M  V30 6478 H 606.293 3.67945 -1.18969 0
M  V30 6479 H 607.982 3.72787 -1.60576 0
M  V30 6480 H 608.748 2.84586 -3.92728 0
M  V30 6481 H 604.627 3.55918 -2.9299 0
M  V30 6482 H 608.171 2.94021 -6.32612 0
M  V30 6483 H 604.068 3.65579 -5.31998 0
M  V30 6484 H 604.836 3.51644 -7.39114 0
M  V30 6485 N 607.499 1.09233 1.13605 0
M  V30 6486 C 608.429 0.751738 2.21068 0
M  V30 6487 C 609.41 -0.269688 1.67948 0
M  V30 6488 O 610.595 -0.13819 1.93708 0
M  V30 6489 C 607.725 0.16935 3.46887 0
M  V30 6490 C 606.679 1.12007 4.13084 0
M  V30 6491 C 606.005 0.399483 5.33206 0
M  V30 6492 C 607.305 2.46168 4.6065 0
M  V30 6493 H 608.999 1.65024 2.49815 0
M  V30 6494 H 606.545 0.794905 1.20072 0
M  V30 6495 H 608.498 -0.0809824 4.21322 0
M  V30 6496 H 607.222 -0.764335 3.1753 0
M  V30 6497 H 605.881 1.35564 3.40614 0
M  V30 6498 H 605.529 -0.538277 5.00112 0
M  V30 6499 H 605.229 1.03337 5.78442 0
M  V30 6500 H 606.753 0.157403 6.10397 0
M  V30 6501 H 608.167 2.26829 5.26518 0
M  V30 6502 H 606.564 3.05326 5.1662 0
M  V30 6503 H 607.634 3.07076 3.75276 0
M  V30 6504 N 608.977 -1.30795 0.87923 0
M  V30 6505 C 609.925 -2.30231 0.331112 0
M  V30 6506 C 610.919 -1.59918 -0.558794 0
M  V30 6507 O 612.125 -1.74441 -0.443866 0
M  V30 6508 H 608.5 -0.746785 0.088409 0
M  V30 6509 H 610.471 -2.73925 1.18353 0
M  V30 6510 C 609.22 -3.44848 -0.444401 0
M  V30 6511 H 608.543 -3.99131 0.231106 0
M  V30 6512 H 609.983 -4.16516 -0.793109 0
M  V30 6513 C 608.442 -2.94329 -1.63926 0
M  V30 6514 O 608.972 -2.93875 -2.73862 0
M  V30 6515 N 607.178 -2.50413 -1.4745 0
M  V30 6516 H 606.725 -2.50982 -0.58015 0
M  V30 6517 H 606.683 -2.16969 -2.27534 0
M  V30 6518 N 610.455 -0.639598 -1.44038 0
M  V30 6519 C 611.403 0.0723409 -2.32487 0
M  V30 6520 C 612.397 0.827129 -1.47834 0
M  V30 6521 O 613.603 0.73907 -1.64127 0
M  V30 6522 H 609.978 0.0421696 -0.750817 0
M  V30 6523 H 611.949 -0.691593 -2.90275 0
M  V30 6524 C 610.698 1.03452 -3.31953 0
M  V30 6525 H 610.021 0.46315 -3.97108 0
M  V30 6526 H 611.461 1.502 -3.96505 0
M  V30 6527 C 609.92 2.12392 -2.61518 0
M  V30 6528 O 610.45 3.2059 -2.42044 0
M  V30 6529 N 608.656 1.88563 -2.21116 0
M  V30 6530 H 608.203 1.00577 -2.37154 0
M  V30 6531 H 608.161 2.61651 -1.74316 0
M  V30 6532 N 611.933 1.52934 -0.380664 0
M  V30 6533 C 613.181 2.01069 0.203874 0
M  V30 6534 C 613.502 1.26922 1.4804 0
M  V30 6535 O 612.772 0.386787 1.92044 0
M  V30 6536 H 611.352 0.742882 0.0783279 0
M  V30 6537 H 614.014 1.88099 -0.510368 0
M  V30 6538 H 613.11 3.09258 0.42021 0
M  V30 6539 N 613.412 0.11024 1.57214 0
M  V30 6540 C 614.823 -0.416527 1.81994 0
M  V30 6541 C 615.174 -1.67183 1.02686 0
M  V30 6542 O 614.299 -2.14823 0.260782 0
M  V30 6543 C 614.894 -0.762466 3.30109 0
M  V30 6544 C 613.453 -1.23391 3.556 0
M  V30 6545 C 612.6 -0.238166 2.76275 0
M  V30 6546 H 615.551 0.335491 1.55113 0
M  V30 6547 H 615.572 -1.62068 3.44259 0
M  V30 6548 H 615.084 0.151346 3.87805 0
M  V30 6549 H 613.185 -2.16492 3.03253 0
M  V30 6550 H 613.298 -1.18528 4.64207 0
M  V30 6551 H 611.662 -0.723421 2.4421 0
M  V30 6552 H 612.445 0.668591 3.36727 0
M  V30 6553 N 614.89 -1.56749 -0.16351 0
M  V30 6554 C 615.822 -1.93587 -1.22705 0
M  V30 6555 C 616.835 -0.829824 -1.40063 0
M  V30 6556 O 618.024 -1.10826 -1.39928 0
M  V30 6557 C 615.124 -2.1803 -2.59454 0
M  V30 6558 C 614.297 -3.4928 -2.63292 0
M  V30 6559 C 613.356 -3.62457 -3.8146 0
M  V30 6560 O 612.382 -4.35004 -3.67096 0
M  V30 6561 N 613.584 -2.97888 -4.9824 0
M  V30 6562 H 616.349 -2.8542 -0.914081 0
M  V30 6563 H 613.91 -1.58 -0.353214 0
M  V30 6564 H 615.902 -2.24102 -3.36987 0
M  V30 6565 H 614.472 -1.32543 -2.8311 0
M  V30 6566 H 613.692 -3.54795 -1.71796 0
M  V30 6567 H 614.98 -4.35632 -2.62873 0
M  V30 6568 H 614.378 -2.38833 -5.12811 0
M  V30 6569 H 612.935 -3.09545 -5.73607 0
M  V30 6570 N 616.368 0.432326 -1.51554 0
M  V30 6571 C 617.784 0.769195 -1.39841 0
M  V30 6572 C 617.984 1.95584 -0.484675 0
M  V30 6573 O 617.04 2.52433 0.0582829 0
M  V30 6574 C 618.353 1.04487 -2.81963 0
M  V30 6575 C 619.901 1.149 -2.91148 0
M  V30 6576 C 620.376 1.45758 -4.34187 0
M  V30 6577 N 621.867 1.52671 -4.37317 0
M  V30 6578 C 622.602 1.78129 -5.4503 0
M  V30 6579 N 622.098 2.01345 -6.62897 0
M  V30 6580 N 623.891 1.79953 -5.32516 0
M  V30 6581 H 616.042 -0.349122 -2.09511 0
M  V30 6582 H 618.305 -0.0938113 -0.943347 0
M  V30 6583 H 618.011 0.24557 -3.50842 0
M  V30 6584 H 617.885 1.97119 -3.21596 0
M  V30 6585 H 620.272 1.93891 -2.22464 0
M  V30 6586 H 620.353 0.201568 -2.55005 0
M  V30 6587 H 619.997 0.672917 -5.03423 0
M  V30 6588 H 619.927 2.41715 -4.67848 0
M  V30 6589 H 622.418 1.36612 -3.52343 0
M  V30 6590 H 622.731 2.20155 -7.40778 0
M  V30 6591 H 621.076 1.98657 -6.66003 0
M  V30 6592 H 624.267 1.61337 -4.39418 0
M  V30 6593 H 624.44 1.99455 -6.1654 0
M  V30 6594 N 617.846 1.41785 0.688094 0
M  V30 6595 C 619.095 1.4084 1.44385 0
M  V30 6596 C 619.408 0.0234166 1.95586 0
M  V30 6597 O 620.614 -0.108647 2.71283 0
M  V30 6598 C 619.07 2.47675 2.61123 0
M  V30 6599 C 618.678 3.92116 2.16677 0
M  V30 6600 C 620.422 2.55877 3.38714 0
M  V30 6601 C 618.329 4.90487 3.30419 0
M  V30 6602 H 617.259 0.523787 0.542368 0
M  V30 6603 H 619.91 1.6764 0.74627 0
M  V30 6604 H 618.292 2.14018 3.33185 0
M  V30 6605 H 619.466 4.35059 1.51856 0
M  V30 6606 H 617.781 3.87642 1.5206 0
M  V30 6607 H 620.378 3.26553 4.234 0
M  V30 6608 H 620.721 1.59801 3.84408 0
M  V30 6609 H 621.254 2.88662 2.73714 0
M  V30 6610 H 617.993 5.87994 2.89729 0
M  V30 6611 H 617.513 4.52187 3.94065 0
M  V30 6612 H 619.192 5.11591 3.96085 0
M  V30 6613 N 619.324 -0.923095 1.27737 0
M  V30 6614 C 620.572 -1.66797 1.14119 0
M  V30 6615 C 620.893 -1.92479 -0.312541 0
M  V30 6616 O 620.163 -1.53432 -1.218 0
M  V30 6617 H 618.743 -0.618196 0.419336 0
M  V30 6618 H 621.405 -1.10815 1.60331 0
M  V30 6619 H 620.501 -2.63424 1.67374 0
M  V30 6620 N 620.802 -1.09834 -1.13024 0
M  V30 6621 C 622.218 -0.828875 -1.36388 0
M  V30 6622 C 622.418 0.554756 -1.93713 0
M  V30 6623 O 621.474 1.30882 -2.15931 0
M  V30 6624 C 622.787 -1.92352 -2.3113 0
M  V30 6625 C 624.335 -1.95124 -2.44735 0
M  V30 6626 C 624.81 -3.03745 -3.42787 0
M  V30 6627 N 626.301 -3.03012 -3.5034 0
M  V30 6628 C 627.036 -3.83699 -4.26101 0
M  V30 6629 N 626.532 -4.74306 -5.04981 0
M  V30 6630 N 628.325 -3.71942 -4.21445 0
M  V30 6631 H 620.476 -1.99029 -0.74169 0
M  V30 6632 H 622.739 -0.864557 -0.388903 0
M  V30 6633 H 622.445 -2.91906 -1.96172 0
M  V30 6634 H 622.319 -1.80536 -3.3119 0
M  V30 6635 H 624.706 -0.962069 -2.78977 0
M  V30 6636 H 624.787 -2.11018 -1.44586 0
M  V30 6637 H 624.431 -4.02878 -3.09276 0
M  V30 6638 H 624.361 -2.85094 -4.42752 0
M  V30 6639 H 626.852 -2.37352 -2.94062 0
M  V30 6640 H 627.165 -5.32446 -5.60108 0
M  V30 6641 H 625.51 -4.78339 -5.04199 0
M  V30 6642 H 628.701 -3.00513 -3.589 0
M  V30 6643 H 628.874 -4.35062 -4.80235 0
M  V30 6644 N 622.28 1.30327 -0.886154 0
M  V30 6645 C 623.227 2.28099 -0.352069 0
M  V30 6646 C 624.197 1.56433 0.558397 0
M  V30 6647 O 625.382 1.84492 0.486561 0
M  V30 6648 C 622.522 3.42456 0.426346 0
M  V30 6649 C 621.635 4.28938 -0.513472 0
M  V30 6650 C 620.77 5.30458 0.280657 0
M  V30 6651 C 619.809 6.0859 -0.654556 0
M  V30 6652 N 618.946 7.02022 0.104322 0
M  V30 6653 H 623.786 2.73166 -1.19097 0
M  V30 6654 H 621.323 1.34367 -0.598662 0
M  V30 6655 H 623.281 4.07518 0.893587 0
M  V30 6656 H 621.911 2.98455 1.22981 0
M  V30 6657 H 620.963 3.64173 -1.09921 0
M  V30 6658 H 622.275 4.83399 -1.2299 0
M  V30 6659 H 621.429 6.01273 0.8097 0
M  V30 6660 H 620.168 4.76693 1.03029 0
M  V30 6661 H 619.173 5.36651 -1.19522 0
M  V30 6662 H 620.398 6.64443 -1.4033 0
M  V30 6663 H 618.344 6.50645 0.836472 0
M  V30 6664 H 618.261 7.53979 -0.552453 0
M  V30 6665 H 619.529 7.77077 0.614069 0
M  V30 6666 N 623.758 0.647228 1.43697 0
M  V30 6667 C 624.988 0.16551 2.05936 0
M  V30 6668 C 625.396 -1.17164 1.48557 0
M  V30 6669 O 624.739 -1.73307 0.60914 0
M  V30 6670 C 624.801 -0.00648082 3.59499 0
M  V30 6671 C 624.465 1.25503 4.39429 0
M  V30 6672 C 625.462 2.18241 4.71876 0
M  V30 6673 C 623.147 1.49494 4.79538 0
M  V30 6674 C 625.141 3.33268 5.43333 0
M  V30 6675 C 622.828 2.64815 5.50742 0
M  V30 6676 C 623.826 3.56528 5.82561 0
M  V30 6677 O 623.514 4.69836 6.52311 0
M  V30 6678 H 623.246 0.0844124 0.670709 0
M  V30 6679 H 625.8 0.88638 1.8529 0
M  V30 6680 H 624.03 -0.782661 3.78697 0
M  V30 6681 H 625.719 -0.444794 4.03456 0
M  V30 6682 H 626.485 2.00946 4.41413 0
M  V30 6683 H 622.364 0.789912 4.54182 0
M  V30 6684 H 625.908 4.04874 5.68087 0
M  V30 6685 H 621.805 2.82047 5.8062 0
M  V30 6686 H 622.573 4.69024 6.70789 0
M  V30 6687 N 625.236 -1.5273 0.388769 0
M  V30 6688 C 626.183 -2.26437 -0.446639 0
M  V30 6689 C 627.153 -1.28025 -1.05824 0
M  V30 6690 O 628.338 -1.56852 -1.08637 0
M  V30 6691 C 625.478 -3.07407 -1.56828 0
M  V30 6692 C 624.591 -4.20747 -0.979589 0
M  V30 6693 C 623.726 -4.89113 -2.07224 0
M  V30 6694 C 622.765 -5.94447 -1.45942 0
M  V30 6695 N 621.902 -6.56411 -2.49135 0
M  V30 6696 H 626.742 -2.97404 0.18837 0
M  V30 6697 H 624.279 -1.46727 0.104725 0
M  V30 6698 H 626.237 -3.52642 -2.22934 0
M  V30 6699 H 624.867 -2.3865 -2.17361 0
M  V30 6700 H 623.919 -3.7983 -0.208151 0
M  V30 6701 H 625.231 -4.9637 -0.491747 0
M  V30 6702 H 624.385 -5.3765 -2.81101 0
M  V30 6703 H 623.124 -4.13013 -2.59368 0
M  V30 6704 H 622.129 -5.4525 -0.705894 0
M  V30 6705 H 623.354 -6.7248 -0.945932 0
M  V30 6706 H 621.3 -5.83152 -3.00449 0
M  V30 6707 H 621.217 -7.27645 -2.05105 0
M  V30 6708 H 622.485 -7.09592 -3.22644 0
M  V30 6709 N 626.714 -0.118576 -1.57153 0
M  V30 6710 C 627.661 0.831789 -2.1529 0
M  V30 6711 C 628.631 1.26385 -1.07778 0
M  V30 6712 O 629.816 1.34144 -1.35684 0
M  V30 6713 C 626.956 2.07664 -2.75626 0
M  V30 6714 C 626.069 1.69298 -3.97444 0
M  V30 6715 C 625.204 2.88747 -4.45868 0
M  V30 6716 C 624.243 2.46619 -5.60219 0
M  V30 6717 N 623.38 3.5898 -6.03389 0
M  V30 6718 H 628.22 0.329183 -2.96176 0
M  V30 6719 H 625.757 0.150792 -1.46325 0
M  V30 6720 H 627.715 2.80601 -3.08738 0
M  V30 6721 H 626.345 2.55384 -1.97431 0
M  V30 6722 H 625.397 0.862374 -3.70496 0
M  V30 6723 H 626.709 1.34338 -4.80369 0
M  V30 6724 H 625.863 3.69909 -4.80887 0
M  V30 6725 H 624.602 3.26933 -3.61892 0
M  V30 6726 H 623.607 1.63889 -5.24805 0
M  V30 6727 H 624.832 2.0955 -6.45961 0
M  V30 6728 H 622.778 3.9684 -5.22354 0
M  V30 6729 H 622.695 3.27942 -6.81168 0
M  V30 6730 H 623.963 4.40583 -6.43045 0
M  V30 6731 N 628.193 1.56834 0.155195 0
M  V30 6732 C 629.439 1.83169 0.870467 0
M  V30 6733 C 629.772 0.698929 1.81187 0
M  V30 6734 O 629.047 -0.298035 1.92203 0
M  V30 6735 C 629.33 3.19965 1.65211 0
M  V30 6736 C 629.183 4.43792 0.732744 0
M  V30 6737 C 630.502 3.53885 2.61636 0
M  V30 6738 H 627.621 0.666288 0.315006 0
M  V30 6739 H 630.263 1.89513 0.135988 0
M  V30 6740 H 628.413 3.14687 2.27825 0
M  V30 6741 H 630.085 4.61148 0.118236 0
M  V30 6742 H 628.328 4.3378 0.0417906 0
M  V30 6743 H 628.999 5.36095 1.31552 0
M  V30 6744 H 631.475 3.5972 2.09143 0
M  V30 6745 H 630.351 4.50648 3.13381 0
M  V30 6746 H 630.612 2.79418 3.42605 0
M  V30 6747 N 629.671 -0.424282 1.51781 0
M  V30 6748 C 631.087 -0.761768 1.40247 0
M  V30 6749 C 631.287 -1.95324 0.495041 0
M  V30 6750 O 630.343 -2.5246 -0.0448949 0
M  V30 6751 C 631.656 -1.0299 2.82513 0
M  V30 6752 C 633.204 -1.13354 2.91753 0
M  V30 6753 C 633.679 -1.43453 4.34954 0
M  V30 6754 N 635.17 -1.5035 4.3812 0
M  V30 6755 C 635.905 -1.75236 5.45967 0
M  V30 6756 N 635.401 -1.97827 6.63955 0
M  V30 6757 N 637.194 -1.77126 5.33463 0
M  V30 6758 H 629.345 0.360228 2.09323 0
M  V30 6759 H 631.608 0.0988128 0.942836 0
M  V30 6760 H 631.314 -0.226961 3.50967 0
M  V30 6761 H 631.188 -1.95411 3.22637 0
M  V30 6762 H 633.575 -1.92709 2.23489 0
M  V30 6763 H 633.656 -0.188041 2.55108 0
M  V30 6764 H 633.3 -0.646209 5.03772 0
M  V30 6765 H 633.23 -2.3923 4.69123 0
M  V30 6766 H 635.721 -1.34742 3.53062 0
M  V30 6767 H 636.034 -2.16223 7.41935 0
M  V30 6768 H 634.379 -1.95123 6.67047 0
M  V30 6769 H 637.57 -1.59005 4.40267 0
M  V30 6770 H 637.743 -1.96182 6.17589 0
M  V30 6771 N 631.149 -1.42148 -0.680565 0
M  V30 6772 C 632.396 -1.4231 -1.44063 0
M  V30 6773 C 632.724 -0.037488 -1.94464 0
M  V30 6774 O 631.979 0.953184 -1.70918 0
M  V30 6775 C 632.278 -2.38945 -2.65782 0
M  V30 6776 C 631.944 -3.85455 -2.33956 0
M  V30 6777 C 630.606 -4.25364 -2.24987 0
M  V30 6778 C 632.958 -4.77895 -2.08004 0
M  V30 6779 C 630.286 -5.55701 -1.88184 0
M  V30 6780 C 632.638 -6.08568 -1.72706 0
M  V30 6781 C 631.302 -6.47482 -1.62244 0
M  V30 6782 H 630.572 -0.520748 -0.527164 0
M  V30 6783 H 633.219 -1.7505 -0.776524 0
M  V30 6784 H 631.524 -1.99511 -3.37198 0
M  V30 6785 H 633.221 -2.36336 -3.23954 0
M  V30 6786 H 629.811 -3.53855 -2.41836 0
M  V30 6787 H 633.995 -4.47854 -2.1387 0
M  V30 6788 H 629.251 -5.84718 -1.78648 0
M  V30 6789 H 633.425 -6.79688 -1.5165 0
M  V30 6790 H 631.052 -7.48387 -1.33496 0
M  V30 6791 N 632.627 0.916307 -1.28225 0
M  V30 6792 C 633.56 2.01954 -1.06254 0
M  V30 6793 C 634.538 1.62587 0.0205983 0
M  V30 6794 O 635.722 1.88073 -0.126824 0
M  V30 6795 C 632.849 3.33086 -0.614141 0
M  V30 6796 C 631.895 3.91435 -1.69354 0
M  V30 6797 S 632.728 4.22603 -3.28887 0
M  V30 6798 C 633.884 5.568 -2.85876 0
M  V30 6799 H 634.117 2.20281 -1.99659 0
M  V30 6800 H 631.65 1.06085 -1.12184 0
M  V30 6801 H 633.608 4.089 -0.36213 0
M  V30 6802 H 632.269 3.12664 0.300036 0
M  V30 6803 H 631.462 4.86098 -1.33136 0
M  V30 6804 H 631.064 3.22248 -1.89821 0
M  V30 6805 H 633.356 6.3658 -2.31888 0
M  V30 6806 H 634.299 5.97927 -3.79326 0
M  V30 6807 H 634.707 5.17865 -2.24669 0
M  V30 6808 N 634.105 1.10431 1.1244 0
M  V30 6809 C 635.068 0.756542 2.16354 0
M  V30 6810 C 636.068 -0.21899 1.59302 0
M  V30 6811 O 637.258 0.00415969 1.742 0
M  V30 6812 C 634.39 0.120612 3.40687 0
M  V30 6813 H 635.583 1.67696 2.48632 0
M  V30 6814 H 633.136 0.904832 1.27446 0
M  V30 6815 H 633.871 -0.810536 3.14008 0
M  V30 6816 H 633.656 0.822693 3.83372 0
M  V30 6817 H 635.146 -0.106945 4.17463 0
M  V30 6818 N 635.583 -1.29855 0.893053 0
M  V30 6819 C 636.813 -1.99686 0.530019 0
M  V30 6820 C 637.221 -1.67066 -0.888012 0
M  V30 6821 O 636.564 -0.908366 -1.5967 0
M  V30 6822 C 636.626 -3.53855 0.63457 0
M  V30 6823 C 636.29 -4.10013 2.01837 0
M  V30 6824 C 637.287 -4.25406 2.98874 0
M  V30 6825 C 634.972 -4.45202 2.32595 0
M  V30 6826 C 636.966 -4.7521 4.24799 0
M  V30 6827 C 634.653 -4.94704 3.58763 0
M  V30 6828 C 635.651 -5.09662 4.5468 0
M  V30 6829 O 635.339 -5.58093 5.78608 0
M  V30 6830 H 635.071 -0.644913 0.20264 0
M  V30 6831 H 637.625 -1.66518 1.20253 0
M  V30 6832 H 635.855 -3.86583 -0.0949477 0
M  V30 6833 H 637.544 -4.04922 0.281648 0
M  V30 6834 H 638.31 -3.98515 2.76425 0
M  V30 6835 H 634.189 -4.32822 1.58701 0
M  V30 6836 H 637.733 -4.86801 4.99671 0
M  V30 6837 H 633.63 -5.21032 3.81046 0
M  V30 6838 H 634.398 -5.7642 5.81104 0
M  V30 6839 N 637.061 -0.65484 -1.43351 0
M  V30 6840 C 638.289 -0.176685 -2.06144 0
M  V30 6841 C 638.704 1.15831 -1.49093 0
M  V30 6842 O 638.061 1.71542 -0.622868 0
M  V30 6843 C 638.112 -0.0813326 -3.61408 0
M  V30 6844 O 637.833 -1.36355 -4.1634 0
M  V30 6845 C 639.334 0.422706 -4.4128 0
M  V30 6846 H 636.554 -0.0906429 -0.66485 0
M  V30 6847 H 639.098 -0.895945 -1.83829 0
M  V30 6848 H 637.253 0.588496 -3.82904 0
M  V30 6849 H 637.667 -1.22381 -5.10023 0
M  V30 6850 H 639.141 0.438375 -5.50257 0
M  V30 6851 H 639.618 1.45432 -4.14423 0
M  V30 6852 H 640.224 -0.214687 -4.24758 0
M  V30 6853 N 638.539 1.52521 -0.396863 0
M  V30 6854 C 639.816 1.94112 0.240842 0
M  V30 6855 C 640.196 1.33288 1.637 0
M  V30 6856 O 639.544 0.503901 2.22875 0
M  V30 6857 C 639.754 3.48033 0.259567 0
M  V30 6858 C 641.102 4.21822 0.484866 0
M  V30 6859 O 642.126 3.54579 0.339453 0
M  V30 6860 O 640.985 5.41042 0.770412 0
M  V30 6861 H 638.079 0.812973 0.151671 0
M  V30 6862 H 640.625 1.63572 -0.451918 0
M  V30 6863 H 639.397 3.84655 -0.718078 0
M  V30 6864 H 639.02 3.84899 0.996937 0
M  V30 6865 N 640.017 0.126909 1.57088 0
M  V30 6866 C 640.927 -0.833867 2.1928 0
M  V30 6867 C 641.943 -1.2868 1.17122 0
M  V30 6868 O 643.119 -1.34815 1.49622 0
M  V30 6869 C 640.184 -2.0632 2.78627 0
M  V30 6870 C 639.245 -1.66143 3.95847 0
M  V30 6871 C 638.478 -2.83217 4.52354 0
M  V30 6872 O 638.701 -3.98868 4.0775 0
M  V30 6873 O 637.635 -2.59846 5.42922 0
M  V30 6874 H 641.461 -0.334564 3.01852 0
M  V30 6875 H 639.046 -0.0991091 1.49071 0
M  V30 6876 H 640.928 -2.78304 3.16425 0
M  V30 6877 H 639.603 -2.55242 1.99082 0
M  V30 6878 H 638.51 -0.912435 3.62802 0
M  V30 6879 H 639.843 -1.21957 4.76852 0
M  V30 6880 N 641.495 -1.56914 -0.146875 0
M  V30 6881 C 642.723 -1.87515 -0.874394 0
M  V30 6882 C 643.138 -0.715116 -1.74733 0
M  V30 6883 O 642.495 0.315113 -1.79759 0
M  V30 6884 C 642.546 -3.17362 -1.731 0
M  V30 6885 O 642.267 -4.28897 -0.893245 0
M  V30 6886 C 643.768 -3.61479 -2.56609 0
M  V30 6887 H 640.988 -0.621546 -0.252827 0
M  V30 6888 H 643.532 -2.04023 -0.139627 0
M  V30 6889 H 641.687 -3.02608 -2.41883 0
M  V30 6890 H 642.101 -5.03146 -1.48137 0
M  V30 6891 H 643.575 -4.5517 -3.12289 0
M  V30 6892 H 644.052 -2.86773 -3.32653 0
M  V30 6893 H 644.658 -3.78927 -1.93117 0
M  V30 6894 N 642.974 0.416227 -1.52004 0
M  V30 6895 C 644.221 1.16383 -1.65714 0
M  V30 6896 C 644.549 1.9068 -0.383594 0
M  V30 6897 O 643.804 1.85174 0.633185 0
M  V30 6898 C 644.103 2.18923 -2.82502 0
M  V30 6899 C 643.769 1.61485 -4.20991 0
M  V30 6900 C 642.431 1.45545 -4.58661 0
M  V30 6901 C 644.783 1.19468 -5.07323 0
M  V30 6902 C 642.111 0.860937 -5.80349 0
M  V30 6903 C 644.463 0.614386 -6.29609 0
M  V30 6904 C 643.127 0.442056 -6.66035 0
M  V30 6905 H 642.397 0.425875 -0.606392 0
M  V30 6906 H 645.044 0.45199 -1.8609 0
M  V30 6907 H 643.349 2.96225 -2.56433 0
M  V30 6908 H 645.046 2.76628 -2.90307 0
M  V30 6909 H 641.636 1.74873 -3.91302 0
M  V30 6910 H 645.82 1.30596 -4.78809 0
M  V30 6911 H 641.076 0.715372 -6.072 0
M  V30 6912 H 645.25 0.280393 -6.95835 0
M  V30 6913 H 642.877 -0.0207218 -7.60197 0
M  V30 6914 N 644.452 1.42507 0.673017 0
M  V30 6915 C 645.399 1.46124 1.78651 0
M  V30 6916 C 646.369 0.313007 1.63124 0
M  V30 6917 O 647.554 0.517337 1.83653 0
M  V30 6918 C 644.694 1.3711 3.16694 0
M  V30 6919 C 643.807 2.61983 3.43495 0
M  V30 6920 C 642.942 2.45098 4.71275 0
M  V30 6921 C 641.981 3.65336 4.91117 0
M  V30 6922 N 641.118 3.47383 6.10139 0
M  V30 6923 H 645.958 2.4128 1.74895 0
M  V30 6924 H 643.495 1.19788 0.853766 0
M  V30 6925 H 645.453 1.29881 3.96468 0
M  V30 6926 H 644.083 0.45549 3.1957 0
M  V30 6927 H 643.135 2.79571 2.57961 0
M  V30 6928 H 644.447 3.51355 3.5405 0
M  V30 6929 H 643.601 2.35466 5.59143 0
M  V30 6930 H 642.34 1.53219 4.63007 0
M  V30 6931 H 641.345 3.754 4.0169 0
M  V30 6932 H 642.57 4.58199 5.01229 0
M  V30 6933 H 640.516 2.58222 6.0304 0
M  V30 6934 H 640.433 4.30344 6.21563 0
M  V30 6935 H 641.701 3.41565 7.00681 0
M  V30 6936 N 645.93 -0.909495 1.28709 0
M  V30 6937 C 647.158 -1.69272 1.18973 0
M  V30 6938 C 647.573 -1.87123 -0.251048 0
M  V30 6939 O 646.93 -1.40127 -1.16922 0
M  V30 6940 C 646.981 -3.08257 1.88839 0
M  V30 6941 O 646.702 -2.91228 3.27289 0
M  V30 6942 C 648.203 -4.02642 1.85457 0
M  V30 6943 H 645.423 -0.528999 0.412797 0
M  V30 6944 H 647.967 -1.13803 1.69909 0
M  V30 6945 H 646.122 -3.6053 1.41762 0
M  V30 6946 H 646.536 -3.79223 3.6234 0
M  V30 6947 H 648.01 -4.97613 2.38925 0
M  V30 6948 H 648.487 -4.31327 0.827893 0
M  V30 6949 H 649.093 -3.56298 2.32233 0
M  V30 6950 N 647.408 -1.11026 -1.11852 0
M  V30 6951 C 648.824 -0.843294 -1.35502 0
M  V30 6952 C 649.024 0.534179 -1.9429 0
M  V30 6953 O 648.08 1.28585 -2.17307 0
M  V30 6954 C 649.393 -1.94793 -2.29077 0
M  V30 6955 C 650.941 -1.97709 -2.42652 0
M  V30 6956 C 651.416 -3.07364 -3.39546 0
M  V30 6957 N 652.907 -3.0671 -3.47107 0
M  V30 6958 C 653.642 -3.88197 -4.22008 0
M  V30 6959 N 653.138 -4.79635 -4.99922 0
M  V30 6960 N 654.931 -3.76391 -4.17476 0
M  V30 6961 H 647.082 -1.99805 -0.720538 0
M  V30 6962 H 649.345 -0.868633 -0.379711 0
M  V30 6963 H 649.051 -2.93971 -1.93065 0
M  V30 6964 H 648.925 -1.84039 -3.29256 0
M  V30 6965 H 651.312 -0.991604 -2.77941 0
M  V30 6966 H 651.393 -2.1254 -1.4234 0
M  V30 6967 H 651.037 -4.06136 -3.04985 0
M  V30 6968 H 650.967 -2.89774 -4.39703 0
M  V30 6969 H 653.458 -2.40457 -2.91528 0
M  V30 6970 H 653.771 -5.38357 -5.54429 0
M  V30 6971 H 652.116 -4.8366 -4.99097 0
M  V30 6972 H 655.307 -3.04303 -3.55693 0
M  V30 6973 H 655.48 -4.40131 -4.75593 0
M  V30 6974 N 648.886 1.2938 -0.899927 0
M  V30 6975 C 649.796 2.31462 -0.382437 0
M  V30 6976 C 650.812 1.65956 0.522929 0
M  V30 6977 O 651.988 1.97131 0.412454 0
M  V30 6978 C 649.053 3.44595 0.381472 0
M  V30 6979 C 648.114 4.25692 -0.555444 0
M  V30 6980 C 647.347 5.33422 0.172102 0
M  V30 6981 O 647.57 5.53053 1.396 0
M  V30 6982 O 646.504 5.99939 -0.485491 0
M  V30 6983 H 650.33 2.77706 -1.22934 0
M  V30 6984 H 647.915 1.33821 -0.664259 0
M  V30 6985 H 649.797 4.13474 0.813442 0
M  V30 6986 H 648.472 3.00458 1.20443 0
M  V30 6987 H 647.379 3.59453 -1.03653 0
M  V30 6988 H 648.712 4.73471 -1.34483 0
M  V30 6989 N 650.364 0.662433 1.43002 0
M  V30 6990 C 651.327 -0.0142016 2.29196 0
M  V30 6991 C 652.327 -0.741394 1.42688 0
M  V30 6992 O 653.517 -0.581257 1.64216 0
M  V30 6993 C 650.649 -1.03084 3.24941 0
M  V30 6994 H 651.842 0.7443 2.90517 0
M  V30 6995 H 649.395 0.424133 1.50435 0
M  V30 6996 H 650.13 -1.81826 2.68533 0
M  V30 6997 H 649.915 -0.512946 3.8873 0
M  V30 6998 H 651.405 -1.50308 3.89612 0
M  V30 6999 N 651.842 -1.52309 0.404946 0
M  V30 7000 C 653.091 -2.00952 -0.173529 0
M  V30 7001 C 653.404 -1.29512 -1.46581 0
M  V30 7002 O 654.61 -1.6895 -2.12528 0
M  V30 7003 C 653.066 -3.58097 -0.359801 0
M  V30 7004 C 652.674 -4.38449 0.920138 0
M  V30 7005 C 654.418 -4.14984 -0.893794 0
M  V30 7006 C 652.325 -5.87227 0.701285 0
M  V30 7007 H 651.255 -0.750871 -0.0686244 0
M  V30 7008 H 653.906 -1.75687 0.529749 0
M  V30 7009 H 652.288 -3.79675 -1.12531 0
M  V30 7010 H 653.462 -4.28633 1.69147 0
M  V30 7011 H 651.777 -3.92859 1.38024 0
M  V30 7012 H 654.374 -5.23813 -1.0735 0
M  V30 7013 H 654.717 -3.72072 -1.8673 0
M  V30 7014 H 655.25 -3.97358 -0.187453 0
M  V30 7015 H 651.989 -6.34491 1.64624 0
M  V30 7016 H 651.509 -5.99792 -0.0308288 0
M  V30 7017 H 653.188 -6.46096 0.341846 0
M  V30 7018 N 653.32 -0.135238 -1.57019 0
M  V30 7019 C 654.252 0.839675 -2.13265 0
M  V30 7020 C 655.265 1.21887 -1.07923 0
M  V30 7021 O 656.454 1.16499 -1.35241 0
M  V30 7022 C 653.554 2.13647 -2.63075 0
M  V30 7023 C 652.727 1.92646 -3.92691 0
M  V30 7024 C 651.786 3.06205 -4.27931 0
M  V30 7025 O 650.812 2.78409 -4.96465 0
M  V30 7026 N 652.014 4.33072 -3.86561 0
M  V30 7027 H 654.779 0.359026 -2.97542 0
M  V30 7028 H 652.34 0.0486979 -1.61827 0
M  V30 7029 H 654.332 2.88641 -2.8367 0
M  V30 7030 H 652.902 2.5301 -1.83588 0
M  V30 7031 H 652.122 1.01754 -3.80841 0
M  V30 7032 H 653.41 1.75939 -4.77413 0
M  V30 7033 H 652.808 4.58526 -3.31316 0
M  V30 7034 H 651.365 5.04885 -4.12231 0
M  V30 7035 N 654.798 1.5699 0.138552 0
M  V30 7036 C 655.748 1.9532 1.17619 0
M  V30 7037 C 656.732 0.825545 1.38107 0
M  V30 7038 O 657.924 1.08908 1.39528 0
M  V30 7039 C 655.053 2.34451 2.50774 0
M  V30 7040 C 654.139 3.53805 2.33844 0
M  V30 7041 N 654.53 4.70088 1.86685 0
M  V30 7042 C 652.828 3.59055 2.64567 0
M  V30 7043 C 653.529 5.52165 1.82998 0
M  V30 7044 N 652.505 4.94108 2.26624 0
M  V30 7045 H 656.307 2.82694 0.803809 0
M  V30 7046 H 653.821 1.5866 0.346519 0
M  V30 7047 H 655.818 2.60119 3.25797 0
M  V30 7048 H 654.478 1.48431 2.88788 0
M  V30 7049 H 655.489 4.93681 1.56523 0
M  V30 7050 H 652.166 2.83596 3.06398 0
M  V30 7051 H 653.556 6.55407 1.47957 0
M  V30 7052 N 656.276 -0.40816 1.52223 0
M  V30 7053 C 657.186 -1.52202 1.78526 0
M  V30 7054 C 658.202 -1.60546 0.670892 0
M  V30 7055 O 659.378 -1.77242 0.956404 0
M  V30 7056 C 656.443 -2.87928 1.93128 0
M  V30 7057 C 655.504 -2.89463 3.17033 0
M  V30 7058 C 654.737 -4.18715 3.30929 0
M  V30 7059 O 654.96 -5.12662 2.50067 0
M  V30 7060 O 653.894 -4.27125 4.24084 0
M  V30 7061 H 657.72 -1.32911 2.73072 0
M  V30 7062 H 655.305 -0.594112 1.37079 0
M  V30 7063 H 657.187 -3.68426 2.04549 0
M  V30 7064 H 655.862 -3.07285 1.01772 0
M  V30 7065 H 654.769 -2.07815 3.11069 0
M  V30 7066 H 656.102 -2.75055 4.08174 0
M  V30 7067 N 657.755 -1.42862 -0.66545 0
M  V30 7068 C 658.98 -1.47456 -1.45848 0
M  V30 7069 C 659.405 -0.0900312 -1.87884 0
M  V30 7070 O 658.763 0.913587 -1.56599 0
M  V30 7071 C 658.811 -2.41514 -2.67774 0
M  V30 7072 O 657.915 -1.89296 -3.66389 0
M  V30 7073 H 657.256 -0.499236 -0.437789 0
M  V30 7074 H 659.786 -1.8765 -0.815394 0
M  V30 7075 H 659.796 -2.58409 -3.15735 0
M  V30 7076 H 658.471 -3.42099 -2.36519 0
M  V30 7077 H 657.048 -1.82003 -3.25468 0
M  V30 7078 N 659.233 0.902656 -1.29189 0
M  V30 7079 C 660.481 1.6496 -1.16758 0
M  V30 7080 C 660.802 1.92952 0.28188 0
M  V30 7081 O 660.072 1.55351 1.19344 0
M  V30 7082 H 658.652 0.611447 -0.429118 0
M  V30 7083 H 661.314 1.0825 -1.62074 0
M  V30 7084 H 660.41 2.60728 -1.71544 0
M  V30 7085 N 660.711 1.11618 1.11262 0
M  V30 7086 C 661.96 0.860934 1.82403 0
M  V30 7087 C 662.273 -0.615303 1.8567 0
M  V30 7088 O 663.479 -0.986861 2.52929 0
M  V30 7089 C 661.935 1.49048 3.27586 0
M  V30 7090 C 661.543 3.00089 3.32642 0
M  V30 7091 C 663.287 1.31515 4.03614 0
M  V30 7092 C 661.194 3.56019 4.72234 0
M  V30 7093 H 660.124 0.318423 0.683464 0
M  V30 7094 H 662.775 1.34165 1.25188 0
M  V30 7095 H 661.157 0.937434 3.84744 0
M  V30 7096 H 662.331 3.61813 2.85356 0
M  V30 7097 H 660.646 3.16919 2.70096 0
M  V30 7098 H 663.243 1.70732 5.0671 0
M  V30 7099 H 663.586 0.257917 4.155 0
M  V30 7100 H 664.119 1.83694 3.52848 0
M  V30 7101 H 660.858 4.61463 4.65545 0
M  V30 7102 H 660.378 2.99066 5.19923 0
M  V30 7103 H 662.057 3.54568 5.41193 0
M  V30 7104 N 662.189 -1.289 0.906776 0
M  V30 7105 C 663.119 -2.29932 0.406659 0
M  V30 7106 C 664.1 -1.6189 -0.522061 0
M  V30 7107 O 665.285 -1.8935 -0.431283 0
M  V30 7108 C 662.415 -3.45425 -0.360366 0
M  V30 7109 C 661.369 -4.25316 0.478574 0
M  V30 7110 C 660.695 -5.33076 -0.416373 0
M  V30 7111 C 661.995 -4.92739 1.7322 0
M  V30 7112 H 663.689 -2.72013 1.25097 0
M  V30 7113 H 661.235 -1.30768 0.602977 0
M  V30 7114 H 663.188 -4.15186 -0.721029 0
M  V30 7115 H 661.912 -3.02206 -1.23852 0
M  V30 7116 H 660.571 -3.57273 0.821662 0
M  V30 7117 H 660.219 -4.86101 -1.29287 0
M  V30 7118 H 659.919 -5.8743 0.141309 0
M  V30 7119 H 661.443 -6.05686 -0.773072 0
M  V30 7120 H 662.857 -5.54898 1.44086 0
M  V30 7121 H 661.254 -5.57057 2.23175 0
M  V30 7122 H 662.324 -4.17625 2.46408 0
M  V30 7123 N 663.667 -0.670007 -1.42649 0
M  V30 7124 C 664.915 -0.18991 -2.01206 0
M  V30 7125 C 665.236 1.20617 -1.53221 0
M  V30 7126 O 664.506 1.80898 -0.751856 0
M  V30 7127 H 663.086 -0.0672189 -0.743969 0
M  V30 7128 H 665.748 -0.865442 -1.74631 0
M  V30 7129 H 664.844 -0.187481 -3.11536 0
M  V30 7130 N 665.145 1.52092 -0.413018 0
M  V30 7131 C 666.556 1.86617 0.0556967 0
M  V30 7132 C 666.907 1.33156 1.44097 0
M  V30 7133 O 666.032 0.672417 2.05688 0
M  V30 7134 C 666.627 3.38628 0.107844 0
M  V30 7135 C 665.186 3.72778 0.520904 0
M  V30 7136 C 664.333 2.75649 -0.302109 0
M  V30 7137 H 667.284 1.45663 -0.629919 0
M  V30 7138 H 667.305 3.69152 0.922324 0
M  V30 7139 H 666.817 3.77508 -0.900506 0
M  V30 7140 H 664.918 3.39478 1.53575 0
M  V30 7141 H 665.031 4.7838 0.262591 0
M  V30 7142 H 663.395 2.53603 0.236115 0
M  V30 7143 H 664.178 3.17369 -1.30888 0
M  V30 7144 N 666.623 0.143563 1.56945 0
M  V30 7145 C 667.553 -0.7936 2.196 0
M  V30 7146 C 668.534 -1.25955 1.14321 0
M  V30 7147 O 669.719 -1.31773 1.42651 0
M  V30 7148 C 666.849 -2.03424 2.81489 0
M  V30 7149 C 665.803 -1.70519 3.92565 0
M  V30 7150 C 665.129 -3.01817 4.41373 0
M  V30 7151 C 666.429 -0.95449 5.13504 0
M  V30 7152 H 668.123 -0.271423 2.98167 0
M  V30 7153 H 665.669 -0.12911 1.4342 0
M  V30 7154 H 667.622 -2.69463 3.23987 0
M  V30 7155 H 666.346 -2.58008 2.00248 0
M  V30 7156 H 665.005 -1.06859 3.5068 0
M  V30 7157 H 664.653 -3.54386 3.56959 0
M  V30 7158 H 664.353 -2.80565 5.16292 0
M  V30 7159 H 665.877 -3.68934 4.86539 0
M  V30 7160 H 667.291 -1.5169 5.52868 0
M  V30 7161 H 665.688 -0.842035 5.94163 0
M  V30 7162 H 666.758 0.0544033 4.84869 0
M  V30 7163 N 668.101 -1.57061 -0.130224 0
M  V30 7164 C 669.031 -2.02552 -1.16168 0
M  V30 7165 C 670.012 -0.907971 -1.4384 0
M  V30 7166 O 671.197 -1.17693 -1.54473 0
M  V30 7167 C 668.327 -2.42035 -2.49071 0
M  V30 7168 C 667.281 -3.5713 -2.35886 0
M  V30 7169 C 666.607 -3.82478 -3.7365 0
M  V30 7170 C 667.907 -4.89236 -1.8288 0
M  V30 7171 H 669.601 -2.8897 -0.783359 0
M  V30 7172 H 667.147 -1.39021 -0.375376 0
M  V30 7173 H 669.1 -2.72462 -3.21469 0
M  V30 7174 H 667.824 -1.52573 -2.88771 0
M  V30 7175 H 666.483 -3.26895 -1.65938 0
M  V30 7176 H 666.131 -2.9024 -4.10816 0
M  V30 7177 H 665.831 -4.59944 -3.65685 0
M  V30 7178 H 667.355 -4.15347 -4.47571 0
M  V30 7179 H 668.769 -5.18272 -2.45085 0
M  V30 7180 H 667.166 -5.70624 -1.85763 0
M  V30 7181 H 668.236 -4.78494 -0.785571 0
M  V30 7182 N 669.579 0.400081 -1.52437 0
M  V30 7183 C 670.809 1.16598 -1.70553 0
M  V30 7184 C 671.217 1.8451 -0.418665 0
M  V30 7185 O 670.56 1.73069 0.615855 0
M  V30 7186 C 670.622 2.26517 -2.7916 0
M  V30 7187 C 670.286 1.78666 -4.20628 0
M  V30 7188 C 671.283 1.26946 -5.04163 0
M  V30 7189 C 668.968 1.85225 -4.66902 0
M  V30 7190 C 670.962 0.824187 -6.32049 0
M  V30 7191 C 668.649 1.40309 -5.94774 0
M  V30 7192 C 669.647 0.889922 -6.77178 0
M  V30 7193 O 669.335 0.447281 -8.02655 0
M  V30 7194 H 669.067 0.356023 -0.574651 0
M  V30 7195 H 671.621 0.475598 -1.99818 0
M  V30 7196 H 669.851 2.98946 -2.45292 0
M  V30 7197 H 671.54 2.88237 -2.85787 0
M  V30 7198 H 672.306 1.21244 -4.69601 0
M  V30 7199 H 668.185 2.24111 -4.02859 0
M  V30 7200 H 671.729 0.422958 -6.96317 0
M  V30 7201 H 667.626 1.45693 -6.28843 0
M  V30 7202 H 668.394 0.569768 -8.16514 0
M  V30 7203 N 671.057 1.43213 0.657864 0
M  V30 7204 C 672.305 1.44298 1.41501 0
M  V30 7205 C 672.626 0.0666478 1.94886 0
M  V30 7206 O 671.896 -0.897345 1.74139 0
M  V30 7207 H 670.476 0.531257 0.525143 0
M  V30 7208 H 673.138 1.78777 0.776195 0
M  V30 7209 H 672.234 2.1528 2.25966 0
M  V30 7210 N 672.536 -0.895792 1.29666 0
M  V30 7211 C 673.446 -2.03329 1.17024 0
M  V30 7212 C 674.462 -1.73753 0.0925962 0
M  V30 7213 O 675.638 -1.99071 0.305431 0
M  V30 7214 C 672.703 -3.36072 0.851841 0
M  V30 7215 C 671.764 -3.7914 2.01373 0
M  V30 7216 C 670.997 -5.05549 1.71043 0
M  V30 7217 O 671.22 -5.66874 0.633213 0
M  V30 7218 O 670.154 -5.44764 2.5596 0
M  V30 7219 H 673.98 -2.16918 2.12556 0
M  V30 7220 H 671.565 -1.02007 1.09156 0
M  V30 7221 H 673.447 -4.15729 0.689006 0
M  V30 7222 H 672.122 -3.23616 -0.0736634 0
M  V30 7223 H 671.029 -3.00233 2.23183 0
M  V30 7224 H 672.362 -3.96186 2.92058 0
M  V30 7225 N 674.014 -1.12206 -1.10668 0
M  V30 7226 C 675.26 -0.877172 -1.82848 0
M  V30 7227 C 675.593 0.595571 -1.84842 0
M  V30 7228 O 674.868 1.44013 -1.30731 0
M  V30 7229 C 675.151 -1.44957 -3.29635 0
M  V30 7230 C 675.004 -2.99051 -3.35989 0
M  V30 7231 C 676.323 -1.10714 -4.25946 0
M  V30 7232 H 673.442 -0.320103 -0.663854 0
M  V30 7233 H 676.084 -1.38827 -1.2972 0
M  V30 7234 H 674.234 -1.01488 -3.7501 0
M  V30 7235 H 675.906 -3.51182 -2.99113 0
M  V30 7236 H 674.149 -3.34705 -2.75962 0
M  V30 7237 H 674.82 -3.34194 -4.39339 0
M  V30 7238 H 677.296 -1.48254 -3.88793 0
M  V30 7239 H 676.172 -1.5343 -5.2702 0
M  V30 7240 H 676.433 -0.019 -4.42096 0
M  V30 7241 N 675.492 1.28418 -0.913599 0
M  V30 7242 C 676.74 1.94596 -0.545594 0
M  V30 7243 C 677.061 1.7227 0.913668 0
M  V30 7244 O 676.331 1.06233 1.64595 0
M  V30 7245 H 674.911 0.720065 -0.198783 0
M  V30 7246 H 677.573 1.56404 -1.16292 0
M  V30 7247 H 676.669 3.03202 -0.739911 0
M  V30 7248 N 676.97 0.677563 1.42291 0
M  V30 7249 C 678.247 0.129803 1.95169 0
M  V30 7250 C 678.627 -1.35605 1.61786 0
M  V30 7251 O 677.975 -2.09361 0.915444 0
M  V30 7252 C 678.185 0.401889 3.46678 0
M  V30 7253 C 679.533 0.319889 4.23393 0
M  V30 7254 O 680.557 0.33579 3.54614 0
M  V30 7255 O 679.416 0.264459 5.4586 0
M  V30 7256 H 676.51 0.00447433 0.826988 0
M  V30 7257 H 679.056 0.752483 1.52105 0
M  V30 7258 H 677.828 1.43108 3.64192 0
M  V30 7259 H 677.451 -0.252662 3.96796 0
M  V30 7260 N 678.448 -1.51871 0.421078 0
M  V30 7261 C 679.676 -2.06356 -0.14994 0
M  V30 7262 C 680.091 -1.29006 -1.37851 0
M  V30 7263 O 679.448 -0.345139 -1.79207 0
M  V30 7264 C 679.499 -3.58185 -0.488454 0
M  V30 7265 O 679.22 -4.32611 0.691341 0
M  V30 7266 C 680.721 -4.29129 -1.11191 0
M  V30 7267 H 677.941 -0.67083 -0.0151186 0
M  V30 7268 H 680.485 -1.95638 0.595476 0
M  V30 7269 H 678.64 -3.68871 -1.18376 0
M  V30 7270 H 679.054 -5.22927 0.405906 0
M  V30 7271 H 680.528 -5.36501 -1.29889 0
M  V30 7272 H 681.005 -3.86371 -2.0884 0
M  V30 7273 H 681.611 -4.22843 -0.456458 0
M  V30 7274 N 679.926 -0.151884 -1.56866 0
M  V30 7275 C 680.856 0.781943 -2.20018 0
M  V30 7276 C 681.837 1.25347 -1.14987 0
M  V30 7277 O 683.022 1.31015 -1.43348 0
M  V30 7278 C 680.152 2.01928 -2.82564 0
M  V30 7279 C 679.106 1.68434 -3.93464 0
M  V30 7280 C 678.432 2.99472 -4.42968 0
M  V30 7281 C 679.732 0.927244 -5.14003 0
M  V30 7282 H 681.426 0.255607 -2.98307 0
M  V30 7283 H 678.972 0.121502 -1.43486 0
M  V30 7284 H 680.925 2.67741 -3.25411 0
M  V30 7285 H 679.649 2.56943 -2.01614 0
M  V30 7286 H 678.308 1.04998 -3.51242 0
M  V30 7287 H 677.956 3.52488 -3.58834 0
M  V30 7288 H 677.656 2.77823 -5.17772 0
M  V30 7289 H 679.18 3.66348 -4.88489 0
M  V30 7290 H 680.594 1.48756 -5.53665 0
M  V30 7291 H 678.991 0.810513 -5.94601 0
M  V30 7292 H 680.061 -0.0801163 -4.84834 0
M  V30 7293 N 681.404 1.57128 0.121893 0
M  V30 7294 C 682.334 2.03165 1.15092 0
M  V30 7295 C 683.315 0.915587 1.43356 0
M  V30 7296 O 684.5 1.1851 1.53847 0
M  V30 7297 C 681.63 2.43352 2.47784 0
M  V30 7298 C 680.584 3.58376 2.33989 0
M  V30 7299 C 679.91 3.84454 3.71617 0
M  V30 7300 C 681.21 4.90199 1.80283 0
M  V30 7301 H 682.904 2.89382 0.768023 0
M  V30 7302 H 680.45 1.39218 0.367998 0
M  V30 7303 H 682.403 2.74163 3.20019 0
M  V30 7304 H 681.127 1.54103 2.87958 0
M  V30 7305 H 679.786 3.2777 1.64202 0
M  V30 7306 H 679.434 2.92414 4.09271 0
M  V30 7307 H 679.134 4.61877 3.6324 0
M  V30 7308 H 680.658 4.17714 4.45362 0
M  V30 7309 H 682.072 5.19565 2.42333 0
M  V30 7310 H 680.469 5.71601 1.82735 0
M  V30 7311 H 681.539 4.78904 0.760184 0
M  V30 7312 N 682.882 -0.391992 1.52647 0
M  V30 7313 C 684.131 -1.13449 1.6677 0
M  V30 7314 C 684.444 -1.91203 0.412399 0
M  V30 7315 O 685.65 -2.68013 0.433707 0
M  V30 7316 C 684.106 -2.06577 2.9471 0
M  V30 7317 C 683.714 -1.3426 4.27409 0
M  V30 7318 C 685.458 -2.80981 3.18198 0
M  V30 7319 C 683.365 -2.26136 5.46458 0
M  V30 7320 H 682.295 -0.427211 0.621295 0
M  V30 7321 H 684.946 -0.397522 1.79142 0
M  V30 7322 H 683.328 -2.83898 2.76076 0
M  V30 7323 H 684.502 -0.621856 4.56585 0
M  V30 7324 H 682.817 -0.718279 4.10158 0
M  V30 7325 H 685.414 -3.49898 4.04321 0
M  V30 7326 H 685.757 -3.44891 2.33144 0
M  V30 7327 H 686.29 -2.10754 3.37383 0
M  V30 7328 H 683.029 -1.66846 6.33911 0
M  V30 7329 H 682.549 -2.96134 5.21598 0
M  V30 7330 H 684.228 -2.86286 5.80215 0
M  V30 7331 N 684.36 -1.4356 -0.65026 0
M  V30 7332 C 685.609 -1.44619 -1.406 0
M  V30 7333 C 685.922 -0.0752645 -1.95455 0
M  V30 7334 O 687.128 0.0366832 -2.71475 0
M  V30 7335 C 685.584 -2.54511 -2.54465 0
M  V30 7336 C 685.192 -3.97723 -2.06204 0
M  V30 7337 C 686.936 -2.64768 -3.31811 0
M  V30 7338 C 684.843 -4.99075 -3.17298 0
M  V30 7339 H 683.773 -0.537983 -0.52829 0
M  V30 7340 H 686.424 -1.69559 -0.701561 0
M  V30 7341 H 684.806 -2.22777 -3.27393 0
M  V30 7342 H 685.98 -4.38932 -1.40267 0
M  V30 7343 H 684.295 -3.91538 -1.41729 0
M  V30 7344 H 686.892 -3.37664 -4.14593 0
M  V30 7345 H 687.235 -1.69936 -3.80036 0
M  V30 7346 H 687.768 -2.95817 -2.65964 0
M  V30 7347 H 684.507 -5.95469 -2.74038 0
M  V30 7348 H 684.027 -4.62476 -3.81937 0
M  V30 7349 H 685.706 -5.21913 -3.82382 0
M  V30 7350 N 685.838 0.888903 -1.30139 0
M  V30 7351 C 687.085 1.64037 -1.18736 0
M  V30 7352 C 687.413 1.92771 0.258801 0
M  V30 7353 O 686.668 1.54427 1.20212 0
M  V30 7354 C 686.967 2.99041 -1.95728 0
M  V30 7355 C 686.633 2.89874 -3.45375 0
M  V30 7356 C 685.295 2.87082 -3.86183 0
M  V30 7357 C 687.647 2.78289 -4.40687 0
M  V30 7358 C 684.975 2.70536 -5.20603 0
M  V30 7359 C 687.327 2.63282 -5.75209 0
M  V30 7360 C 685.991 2.58861 -6.15262 0
M  V30 7361 H 685.261 0.600253 -0.434485 0
M  V30 7362 H 687.908 1.0338 -1.61198 0
M  V30 7363 H 686.213 3.63626 -1.45888 0
M  V30 7364 H 687.91 3.56139 -1.843 0
M  V30 7365 H 684.5 2.92856 -3.12943 0
M  V30 7366 H 688.684 2.79516 -4.10103 0
M  V30 7367 H 683.94 2.65526 -5.50732 0
M  V30 7368 H 688.114 2.5329 -6.48704 0
M  V30 7369 H 685.741 2.45799 -7.19366 0
M  V30 7370 N 687.317 1.12792 1.10072 0
M  V30 7371 C 688.264 0.79921 2.16521 0
M  V30 7372 C 689.234 -0.235726 1.64419 0
M  V30 7373 O 690.419 -0.109457 1.90486 0
M  V30 7374 C 687.559 0.264091 3.44088 0
M  V30 7375 C 686.672 1.35729 4.10124 0
M  V30 7376 C 685.807 0.781212 5.25424 0
M  V30 7377 C 684.846 1.85327 5.8337 0
M  V30 7378 N 683.983 1.29564 6.90042 0
M  V30 7379 H 688.823 1.71105 2.43981 0
M  V30 7380 H 686.36 0.854225 1.19756 0
M  V30 7381 H 688.318 -0.0642423 4.17151 0
M  V30 7382 H 686.948 -0.610901 3.16967 0
M  V30 7383 H 686 1.80234 3.34993 0
M  V30 7384 H 687.312 2.16782 4.4923 0
M  V30 7385 H 686.466 0.403769 6.05355 0
M  V30 7386 H 685.205 -0.0604686 4.87663 0
M  V30 7387 H 684.21 2.23986 5.02106 0
M  V30 7388 H 685.435 2.69824 6.23195 0
M  V30 7389 H 683.381 0.475844 6.54272 0
M  V30 7390 H 683.298 2.04271 7.2788 0
M  V30 7391 H 684.566 0.945545 7.73744 0
M  V30 7392 N 688.795 -1.27931 0.920396 0
M  V30 7393 C 689.743 -2.29061 0.404191 0
M  V30 7394 C 690.737 -1.61615 -0.507634 0
M  V30 7395 O 691.943 -1.75765 -0.388144 0
M  V30 7396 H 688.318 -0.743594 0.112123 0
M  V30 7397 H 690.289 -2.70021 1.27008 0
M  V30 7398 C 689.038 -3.46088 -0.334466 0
M  V30 7399 H 688.361 -3.98194 0.35797 0
M  V30 7400 H 689.801 -4.18829 -0.660196 0
M  V30 7401 C 688.26 -2.99396 -1.54479 0
M  V30 7402 O 688.79 -3.02439 -2.64374 0
M  V30 7403 N 686.996 -2.54978 -1.39408 0
M  V30 7404 H 686.543 -2.52701 -0.500009 0
M  V30 7405 H 686.501 -2.24098 -2.20516 0
M  V30 7406 N 690.273 -0.685099 -1.4193 0
M  V30 7407 C 691.205 0.0258679 -2.29185 0
M  V30 7408 C 692.218 0.755076 -1.44231 0
M  V30 7409 O 693.407 0.60752 -1.67844 0
M  V30 7410 C 690.507 1.06055 -3.21878 0
M  V30 7411 C 689.68 0.403088 -4.35539 0
M  V30 7412 C 688.739 1.33895 -5.0888 0
M  V30 7413 O 687.765 0.835326 -5.63037 0
M  V30 7414 N 688.967 2.6718 -5.15359 0
M  V30 7415 H 691.732 -0.723201 -2.90843 0
M  V30 7416 H 689.293 -0.53031 -1.52968 0
M  V30 7417 H 691.285 1.68813 -3.6781 0
M  V30 7418 H 689.855 1.71126 -2.616 0
M  V30 7419 H 689.075 -0.404185 -3.92122 0
M  V30 7420 H 690.363 -0.0545098 -5.08771 0
M  V30 7421 H 689.761 3.10626 -4.72788 0
M  V30 7422 H 688.318 3.25159 -5.64903 0
M  V30 7423 N 691.751 1.51645 -0.429126 0
M  V30 7424 C 692.714 2.26116 0.374726 0
M  V30 7425 C 693.714 1.29242 0.956714 0
M  V30 7426 O 694.904 1.53022 0.832452 0
M  V30 7427 C 692.036 3.04669 1.52937 0
M  V30 7428 H 693.229 2.9861 -0.277818 0
M  V30 7429 H 690.782 1.55236 -0.182097 0
M  V30 7430 H 691.517 2.36571 2.21821 0
M  V30 7431 H 691.302 3.75814 1.11833 0
M  V30 7432 H 692.792 3.61102 2.09751 0
M  V30 7433 N 693.229 0.160201 1.56784 0
M  V30 7434 C 694.454 -0.497373 2.01348 0
M  V30 7435 C 694.879 -1.56757 1.03966 0
M  V30 7436 O 694.237 -1.81292 0.0174455 0
M  V30 7437 C 694.285 -1.0628 3.44582 0
M  V30 7438 O 693.389 -2.17723 3.50244 0
M  V30 7439 H 692.73 -0.120295 0.653012 0
M  V30 7440 H 695.26 0.260821 2.02931 0
M  V30 7441 H 695.27 -1.38819 3.83658 0
M  V30 7442 H 693.945 -0.279166 4.14962 0
M  V30 7443 H 692.522 -1.86313 3.2302 0
M  V30 7444 N 694.707 -1.5719 -0.113559 0
M  V30 7445 C 696.123 -1.52607 -0.467253 0
M  V30 7446 C 696.323 -0.874058 -1.81556 0
M  V30 7447 O 695.379 -0.458703 -2.48299 0
M  V30 7448 C 696.692 -2.97363 -0.446736 0
M  V30 7449 C 698.24 -3.08482 -0.529903 0
M  V30 7450 C 698.715 -4.54809 -0.539721 0
M  V30 7451 N 700.206 -4.59284 -0.601005 0
M  V30 7452 C 700.941 -5.69927 -0.630138 0
M  V30 7453 N 700.437 -6.90051 -0.616589 0
M  V30 7454 N 702.23 -5.5805 -0.673558 0
M  V30 7455 H 694.381 -1.97958 0.769819 0
M  V30 7456 H 696.644 -0.90428 0.284572 0
M  V30 7457 H 696.35 -3.48458 0.47643 0
M  V30 7458 H 696.224 -3.55086 -1.27254 0
M  V30 7459 H 698.611 -2.57386 -1.44349 0
M  V30 7460 H 698.692 -2.53744 0.323695 0
M  V30 7461 H 698.336 -5.06552 0.369843 0
M  V30 7462 H 698.266 -5.07364 -1.41028 0
M  V30 7463 H 700.757 -3.72822 -0.617419 0
M  V30 7464 H 701.07 -7.70132 -0.641592 0
M  V30 7465 H 699.415 -6.92543 -0.583927 0
M  V30 7466 H 702.606 -4.63112 -0.681544 0
M  V30 7467 H 702.779 -6.44286 -0.692794 0
M  V30 7468 N 696.185 0.383891 -1.52853 0
M  V30 7469 C 697.596 0.961591 -1.60032 0
M  V30 7470 C 697.947 1.90819 -0.456333 0
M  V30 7471 O 697.072 2.12288 0.419873 0
M  V30 7472 C 697.667 1.75078 -2.90057 0
M  V30 7473 C 696.226 2.2781 -2.99632 0
M  V30 7474 C 695.373 1.08512 -2.55187 0
M  V30 7475 H 698.324 0.163269 -1.57858 0
M  V30 7476 H 698.345 2.61046 -2.7683 0
M  V30 7477 H 697.857 1.06157 -3.73299 0
M  V30 7478 H 695.958 3.00028 -2.20939 0
M  V30 7479 H 696.071 2.56947 -4.0437 0
M  V30 7480 H 694.435 1.44667 -2.09627 0
M  V30 7481 H 695.218 0.41118 -3.40829 0
M  V30 7482 N 697.663 1.43903 0.642637 0
M  V30 7483 C 698.893 1.49323 1.4278 0
M  V30 7484 C 699.301 0.113058 1.88862 0
M  V30 7485 O 698.644 -0.889089 1.60751 0
M  V30 7486 C 698.706 2.3861 2.68897 0
M  V30 7487 C 698.37 3.85976 2.44687 0
M  V30 7488 C 699.367 4.7681 2.07239 0
M  V30 7489 C 697.052 4.30567 2.58683 0
M  V30 7490 C 699.046 6.10234 1.841 0
M  V30 7491 C 696.733 5.64042 2.35159 0
M  V30 7492 C 697.731 6.53693 1.97925 0
M  V30 7493 O 697.419 7.84698 1.74654 0
M  V30 7494 H 697.151 0.509109 0.444729 0
M  V30 7495 H 699.705 1.89425 0.794195 0
M  V30 7496 H 697.935 1.93415 3.34855 0
M  V30 7497 H 699.624 2.35112 3.30873 0
M  V30 7498 H 700.39 4.43635 1.95993 0
M  V30 7499 H 696.269 3.61054 2.86637 0
M  V30 7500 H 699.813 6.80171 1.54962 0
M  V30 7501 H 695.71 5.96782 2.46011 0
M  V30 7502 H 696.478 7.96382 1.88993 0
M  V30 7503 N 699.141 -0.881989 1.30609 0
M  V30 7504 C 700.089 -2.00942 1.17155 0
M  V30 7505 C 701.083 -1.69198 0.0827154 0
M  V30 7506 O 702.289 -1.78342 0.243775 0
M  V30 7507 H 698.664 -0.658913 0.362406 0
M  V30 7508 H 700.635 -2.09423 2.12567 0
M  V30 7509 C 699.384 -3.36294 0.883273 0
M  V30 7510 H 698.707 -3.61233 1.7132 0
M  V30 7511 H 700.147 -4.15812 0.829255 0
M  V30 7512 C 698.606 -3.34348 -0.413851 0
M  V30 7513 O 699.136 -3.75216 -1.43444 0
M  V30 7514 N 697.342 -2.87459 -0.426082 0
M  V30 7515 H 696.889 -2.54397 0.40493 0
M  V30 7516 H 696.847 -2.8654 -1.29391 0
M  V30 7517 N 700.619 -1.13374 -1.09472 0
M  V30 7518 C 701.868 -0.889844 -1.8101 0
M  V30 7519 C 702.181 0.585686 -1.86625 0
M  V30 7520 O 703.387 0.946497 -2.54467 0
M  V30 7521 C 701.843 -1.54241 -3.25174 0
M  V30 7522 C 701.451 -3.05343 -3.27826 0
M  V30 7523 C 703.195 -1.37919 -4.0147 0
M  V30 7524 C 701.102 -3.63486 -4.6651 0
M  V30 7525 H 700.032 -0.329256 -0.678311 0
M  V30 7526 H 702.683 -1.36139 -1.23038 0
M  V30 7527 H 701.065 -0.998525 -3.83204 0
M  V30 7528 H 702.239 -3.66307 -2.79563 0
M  V30 7529 H 700.554 -3.21175 -2.65019 0
M  V30 7530 H 703.151 -1.78771 -5.03929 0
M  V30 7531 H 703.494 -0.323987 -4.15037 0
M  V30 7532 H 704.027 -1.89284 -3.49881 0
M  V30 7533 H 700.766 -4.68811 -4.58145 0
M  V30 7534 H 700.286 -3.073 -5.15099 0
M  V30 7535 H 701.965 -3.63134 -5.35484 0
M  V30 7536 N 702.098 1.27442 -0.927168 0
M  V30 7537 C 703.328 1.9821 -0.582775 0
M  V30 7538 C 703.736 1.69361 0.843406 0
M  V30 7539 O 703.079 0.950381 1.57205 0
M  V30 7540 C 703.141 3.52048 -0.728165 0
M  V30 7541 C 702.805 4.04518 -2.12637 0
M  V30 7542 C 703.802 4.17332 -3.10048 0
M  V30 7543 C 701.487 4.38879 -2.44317 0
M  V30 7544 C 703.481 4.6378 -4.37249 0
M  V30 7545 C 701.168 4.85018 -3.71753 0
M  V30 7546 C 702.166 4.97428 -4.68033 0
M  V30 7547 O 701.854 5.42556 -5.93202 0
M  V30 7548 H 701.586 0.639314 -0.219667 0
M  V30 7549 H 704.14 1.63272 -1.24626 0
M  V30 7550 H 702.37 3.86699 -0.00758143 0
M  V30 7551 H 704.059 4.04033 -0.388906 0
M  V30 7552 H 704.825 3.91046 -2.86894 0
M  V30 7553 H 700.704 4.28462 -1.70121 0
M  V30 7554 H 704.248 4.73382 -5.12402 0
M  V30 7555 H 700.145 5.10746 -3.94726 0
M  V30 7556 H 700.913 5.60811 -5.96182 0
M  V30 7557 N 703.576 0.692616 1.41565 0
M  V30 7558 C 704.987 0.297478 1.84315 0
M  V30 7559 C 705.338 -1.16379 1.57957 0
M  V30 7560 O 704.463 -1.89303 1.0485 0
M  V30 7561 C 705.058 0.533136 3.34579 0
M  V30 7562 C 703.617 0.191944 3.7591 0
M  V30 7563 C 702.764 0.816873 2.64995 0
M  V30 7564 H 705.715 0.893488 1.31158 0
M  V30 7565 H 705.736 -0.209105 3.79925 0
M  V30 7566 H 705.248 1.59674 3.53731 0
M  V30 7567 H 703.349 -0.867512 3.6236 0
M  V30 7568 H 703.462 0.644902 4.7474 0
M  V30 7569 H 701.826 0.246715 2.53502 0
M  V30 7570 H 702.609 1.88429 2.86966 0
M  V30 7571 N 705.054 -1.51416 0.437162 0
M  V30 7572 C 706.004 -2.24599 -0.392311 0
M  V30 7573 C 706.988 -1.2682 -0.990221 0
M  V30 7574 O 708.18 -1.51912 -0.908391 0
M  V30 7575 C 705.309 -3.09134 -1.49301 0
M  V30 7576 C 704.395 -4.14342 -0.904503 0
M  V30 7577 N 704.786 -5.0578 -0.0451511 0
M  V30 7578 C 703.084 -4.30323 -1.1721 0
M  V30 7579 C 703.785 -5.81 0.285344 0
M  V30 7580 N 702.761 -5.42591 -0.330993 0
M  V30 7581 H 706.563 -2.92655 0.270221 0
M  V30 7582 H 704.077 -1.60476 0.249226 0
M  V30 7583 H 706.074 -3.6014 -2.10011 0
M  V30 7584 H 704.734 -2.42622 -2.15788 0
M  V30 7585 H 705.745 -5.16903 0.321271 0
M  V30 7586 H 702.422 -3.75037 -1.83448 0
M  V30 7587 H 703.812 -6.64646 0.984626 0
M  V30 7588 N 706.532 -0.168513 -1.56696 0
M  V30 7589 C 707.78 0.476216 -1.96409 0
M  V30 7590 C 708.101 1.63968 -1.05544 0
M  V30 7591 O 707.371 1.95525 -0.121235 0
M  V30 7592 H 705.951 0.178921 -0.725256 0
M  V30 7593 H 708.613 -0.249042 -1.93302 0
M  V30 7594 H 707.709 0.838094 -3.00637 0
M  V30 7595 N 708.01 1.57248 0.105221 0
M  V30 7596 C 709.259 1.84756 0.809198 0
M  V30 7597 C 709.572 0.756262 1.80389 0
M  V30 7598 O 710.778 0.918158 2.55504 0
M  V30 7599 C 709.234 3.27613 1.48989 0
M  V30 7600 C 708.842 4.44788 0.535484 0
M  V30 7601 C 710.586 3.64356 2.17819 0
M  V30 7602 C 708.493 5.78676 1.22019 0
M  V30 7603 H 707.423 0.689139 0.305946 0
M  V30 7604 H 710.074 1.83395 0.0620371 0
M  V30 7605 H 708.456 3.23485 2.28415 0
M  V30 7606 H 709.63 4.60243 -0.226557 0
M  V30 7607 H 707.945 4.16374 -0.0465769 0
M  V30 7608 H 710.542 4.61663 2.69761 0
M  V30 7609 H 710.885 2.92474 2.96251 0
M  V30 7610 H 711.418 3.70328 1.45264 0
M  V30 7611 H 708.157 6.53763 0.476875 0
M  V30 7612 H 707.677 5.67083 1.9539 0
M  V30 7613 H 709.356 6.22897 1.74952 0
M  V30 7614 N 709.488 -0.375779 1.53054 0
M  V30 7615 C 710.716 -1.14036 1.72637 0
M  V30 7616 C 711.131 -1.83342 0.450687 0
M  V30 7617 O 710.488 -1.7318 -0.575749 0
M  V30 7618 C 710.539 -2.17841 2.88492 0
M  V30 7619 O 710.26 -1.51358 4.11123 0
M  V30 7620 C 711.761 -3.06924 3.19863 0
M  V30 7621 H 708.981 -0.341386 0.577665 0
M  V30 7622 H 711.525 -0.437809 1.99759 0
M  V30 7623 H 709.68 -2.8371 2.63794 0
M  V30 7624 H 710.094 -2.20439 4.75928 0
M  V30 7625 H 711.568 -3.75763 4.04359 0
M  V30 7626 H 712.045 -3.71169 2.34798 0
M  V30 7627 H 712.651 -2.46684 3.46449 0
M  V30 7628 N 710.966 -1.44241 -0.634997 0
M  V30 7629 C 712.243 -1.37296 -1.39317 0
M  V30 7630 C 712.623 -0.0297532 -2.11079 0
M  V30 7631 O 711.971 0.987524 -2.06059 0
M  V30 7632 C 712.181 -2.56853 -2.36279 0
M  V30 7633 C 713.529 -3.00747 -2.99728 0
M  V30 7634 O 714.553 -2.5703 -2.46605 0
M  V30 7635 O 713.412 -3.76533 -3.96087 0
M  V30 7636 H 710.506 -0.543503 -0.623325 0
M  V30 7637 H 713.052 -1.56324 -0.660376 0
M  V30 7638 H 711.824 -3.46228 -1.82324 0
M  V30 7639 H 711.447 -2.40019 -3.16981 0
M  V30 7640 N 712.444 0.87505 -1.31075 0
M  V30 7641 C 713.69 1.63009 -1.20647 0
M  V30 7642 C 714.023 1.9276 0.236045 0
M  V30 7643 O 713.298 1.55559 1.16754 0
M  V30 7644 C 713.581 2.96357 -2.0456 0
M  V30 7645 C 713.434 2.73516 -3.57084 0
M  V30 7646 C 714.753 3.974 -1.89107 0
M  V30 7647 H 711.872 0.591518 -0.439631 0
M  V30 7648 H 714.514 1.0119 -1.60812 0
M  V30 7649 H 712.664 3.49119 -1.70435 0
M  V30 7650 H 714.336 2.27465 -4.01319 0
M  V30 7651 H 712.579 2.0784 -3.80769 0
M  V30 7652 H 713.25 3.68377 -4.11099 0
M  V30 7653 H 715.726 3.5383 -2.18961 0
M  V30 7654 H 714.602 4.88596 -2.5013 0
M  V30 7655 H 714.863 4.33794 -0.85296 0
M  V30 7656 N 713.922 1.13953 1.08869 0
M  V30 7657 C 715.338 0.878924 1.33218 0
M  V30 7658 C 715.538 -0.482478 1.95638 0
M  V30 7659 O 714.594 -1.22778 2.2064 0
M  V30 7660 C 715.907 2.00798 2.23832 0
M  V30 7661 C 717.455 2.04073 2.37325 0
M  V30 7662 C 717.93 3.16258 3.31278 0
M  V30 7663 N 719.421 3.15805 3.38853 0
M  V30 7664 C 720.156 3.99249 4.11567 0
M  V30 7665 N 719.652 4.92721 4.87029 0
M  V30 7666 N 721.445 3.87327 4.0735 0
M  V30 7667 H 713.596 2.01645 0.66731 0
M  V30 7668 H 715.859 0.878395 0.356547 0
M  V30 7669 H 715.565 2.98986 1.85203 0
M  V30 7670 H 715.439 1.92704 3.24261 0
M  V30 7671 H 717.826 1.06495 2.75214 0
M  V30 7672 H 717.907 2.16239 1.36654 0
M  V30 7673 H 717.551 4.14079 2.9411 0
M  V30 7674 H 717.481 3.0133 4.31866 0
M  V30 7675 H 719.972 2.48102 2.8505 0
M  V30 7676 H 720.285 5.52867 5.39961 0
M  V30 7677 H 718.63 4.96723 4.86098 0
M  V30 7678 H 721.821 3.13627 3.475 0
M  V30 7679 H 721.994 4.52585 4.63757 0
M  V30 7680 N 715.4 -1.26948 0.933913 0
M  V30 7681 C 716.811 -1.76058 0.621324 0
M  V30 7682 C 717.162 -1.76175 -0.863522 0
M  V30 7683 O 716.287 -1.36921 -1.67576 0
M  V30 7684 C 716.882 -3.19713 1.12111 0
M  V30 7685 C 715.441 -3.66465 0.859074 0
M  V30 7686 C 714.588 -2.46186 1.27624 0
M  V30 7687 H 717.539 -1.13127 1.11301 0
M  V30 7688 H 717.56 -3.77566 0.471608 0
M  V30 7689 H 717.072 -3.19596 2.20182 0
M  V30 7690 H 715.173 -3.72021 -0.207566 0
M  V30 7691 H 715.286 -4.55636 1.48098 0
M  V30 7692 H 713.65 -2.45042 0.694727 0
M  V30 7693 H 714.433 -2.48774 2.36572 0
M  V30 7694 N 716.879 -0.700114 -1.41195 0
M  V30 7695 C 717.809 -0.0521132 -2.33442 0
M  V30 7696 C 718.79 0.76228 -1.52063 0
M  V30 7697 O 719.975 0.714336 -1.80585 0
M  V30 7698 C 717.105 0.881693 -3.35922 0
M  V30 7699 C 716.059 0.174062 -4.27646 0
M  V30 7700 C 715.385 1.22254 -5.20536 0
M  V30 7701 C 716.685 -0.962396 -5.13357 0
M  V30 7702 H 718.379 -0.822574 -2.87879 0
M  V30 7703 H 715.925 -0.397011 -1.38419 0
M  V30 7704 H 717.878 1.34429 -3.99383 0
M  V30 7705 H 716.602 1.68387 -2.79845 0
M  V30 7706 H 715.261 -0.268551 -3.65615 0
M  V30 7707 H 714.909 2.01736 -4.60773 0
M  V30 7708 H 714.609 0.754038 -5.82742 0
M  V30 7709 H 716.133 1.68555 -5.86874 0
M  V30 7710 H 717.547 -0.579875 -5.7036 0
M  V30 7711 H 715.944 -1.35828 -5.84526 0
M  V30 7712 H 717.014 -1.80003 -4.50252 0
M  V30 7713 N 718.357 1.51182 -0.445186 0
M  V30 7714 C 719.587 2.06269 0.116922 0
M  V30 7715 C 719.995 1.31188 1.36332 0
M  V30 7716 O 719.338 0.367067 1.79995 0
M  V30 7717 C 719.4 3.56051 0.496757 0
M  V30 7718 C 719.064 4.52441 -0.64394 0
M  V30 7719 C 720.061 4.97233 -1.5184 0
M  V30 7720 C 717.746 4.95447 -0.826905 0
M  V30 7721 C 719.74 5.83712 -2.56046 0
M  V30 7722 C 717.427 5.81714 -1.87222 0
M  V30 7723 C 718.425 6.25745 -2.73738 0
M  V30 7724 O 718.113 7.10298 -3.76474 0
M  V30 7725 H 717.845 0.675954 0.00785733 0
M  V30 7726 H 720.399 1.95648 -0.625371 0
M  V30 7727 H 718.629 3.64483 1.29187 0
M  V30 7728 H 720.318 3.93618 0.990928 0
M  V30 7729 H 721.084 4.64696 -1.38862 0
M  V30 7730 H 716.963 4.60712 -0.163052 0
M  V30 7731 H 720.507 6.18 -3.23607 0
M  V30 7732 H 716.404 6.13664 -2.00218 0
M  V30 7733 H 717.172 7.28493 -3.73149 0
M  V30 7734 N 719.835 0.176821 1.56605 0
M  V30 7735 C 721.06 -0.47599 2.01864 0
M  V30 7736 C 721.485 -1.55645 1.05623 0
M  V30 7737 O 720.843 -1.81263 0.0366729 0
M  V30 7738 C 720.891 -1.02619 3.4569 0
M  V30 7739 O 719.995 -2.13996 3.52533 0
M  V30 7740 H 719.336 -0.113363 0.654251 0
M  V30 7741 H 721.866 0.28233 2.02643 0
M  V30 7742 H 721.876 -1.34742 3.85109 0
M  V30 7743 H 720.551 -0.235138 4.15235 0
M  V30 7744 H 719.128 -1.82876 3.24978 0
M  V30 7745 N 721.313 -1.57302 -0.09688 0
M  V30 7746 C 722.729 -1.53094 -0.451041 0
M  V30 7747 C 722.929 -0.893265 -1.80618 0
M  V30 7748 O 721.985 -0.485013 -2.47798 0
M  V30 7749 C 723.298 -2.9782 -0.415172 0
M  V30 7750 C 724.846 -3.09026 -0.497155 0
M  V30 7751 C 725.321 -4.55356 -0.491452 0
M  V30 7752 N 726.812 -4.59896 -0.552258 0
M  V30 7753 C 727.547 -5.70563 -0.569654 0
M  V30 7754 N 727.043 -6.90666 -0.543365 0
M  V30 7755 N 728.836 -5.58733 -0.614331 0
M  V30 7756 H 720.987 -1.97131 0.790771 0
M  V30 7757 H 723.25 -0.901211 0.294147 0
M  V30 7758 H 722.956 -3.47933 0.513362 0
M  V30 7759 H 722.83 -3.56416 -1.23481 0
M  V30 7760 H 725.217 -2.58902 -1.41611 0
M  V30 7761 H 725.298 -2.53386 0.35059 0
M  V30 7762 H 724.942 -5.06131 0.423549 0
M  V30 7763 H 724.872 -5.08832 -1.35639 0
M  V30 7764 H 727.363 -3.73456 -0.577842 0
M  V30 7765 H 727.676 -7.70769 -0.559873 0
M  V30 7766 H 726.021 -6.93123 -0.510441 0
M  V30 7767 H 729.212 -4.63809 -0.632387 0
M  V30 7768 H 729.385 -6.44984 -0.62442 0
M  V30 7769 N 722.791 0.367657 -1.53252 0
M  V30 7770 C 724.207 0.709191 -1.42978 0
M  V30 7771 C 724.407 1.93352 -0.567193 0
M  V30 7772 O 723.463 2.52453 -0.0488349 0
M  V30 7773 C 724.776 0.924338 -2.86141 0
M  V30 7774 C 726.324 1.02448 -2.95759 0
M  V30 7775 C 726.799 1.27211 -4.39979 0
M  V30 7776 N 728.29 1.33986 -4.43398 0
M  V30 7777 C 729.025 1.54852 -5.52095 0
M  V30 7778 N 728.521 1.73049 -6.7084 0
M  V30 7779 N 730.314 1.57205 -5.39669 0
M  V30 7780 H 722.465 -0.437669 -2.07842 0
M  V30 7781 H 724.728 -0.133737 -0.938519 0
M  V30 7782 H 724.434 0.0965455 -3.51567 0
M  V30 7783 H 724.308 1.83302 -3.29667 0
M  V30 7784 H 726.695 1.84282 -2.30487 0
M  V30 7785 H 726.776 0.0932301 -2.5563 0
M  V30 7786 H 726.42 0.458792 -5.05824 0
M  V30 7787 H 726.35 2.21654 -4.77679 0
M  V30 7788 H 728.841 1.21545 -3.5782 0
M  V30 7789 H 729.154 1.88538 -7.49449 0
M  V30 7790 H 727.499 1.70231 -6.7383 0
M  V30 7791 H 730.69 1.42555 -4.45865 0
M  V30 7792 H 730.863 1.73126 -6.24445 0
M  V30 7793 N 724.269 1.44576 0.627338 0
M  V30 7794 C 725.199 1.54562 1.75022 0
M  V30 7795 C 726.18 0.398378 1.65369 0
M  V30 7796 O 727.365 0.61899 1.84071 0
M  V30 7797 C 724.495 1.49309 3.13567 0
M  V30 7798 C 723.449 2.62549 3.38012 0
M  V30 7799 C 722.775 2.42348 4.76625 0
M  V30 7800 C 724.075 4.04678 3.30202 0
M  V30 7801 H 725.769 2.4855 1.66922 0
M  V30 7802 H 723.315 1.19624 0.801636 0
M  V30 7803 H 725.268 1.54895 3.919 0
M  V30 7804 H 723.992 0.518392 3.2246 0
M  V30 7805 H 722.651 2.56358 2.62061 0
M  V30 7806 H 722.299 1.43062 4.82226 0
M  V30 7807 H 721.999 3.18273 4.93939 0
M  V30 7808 H 723.523 2.49758 5.57183 0
M  V30 7809 H 724.937 4.12217 3.98435 0
M  V30 7810 H 723.334 4.80836 3.5905 0
M  V30 7811 H 724.404 4.2798 2.27949 0
M  V30 7812 N 725.747 -0.868086 1.31537 0
M  V30 7813 C 727.158 -1.437 1.19195 0
M  V30 7814 C 727.509 -1.95169 -0.200842 0
M  V30 7815 O 726.634 -1.86432 -1.09872 0
M  V30 7816 C 727.229 -2.612 2.15778 0
M  V30 7817 C 725.788 -3.1413 2.07363 0
M  V30 7818 C 724.935 -1.86845 2.049 0
M  V30 7819 H 727.886 -0.676457 1.43561 0
M  V30 7820 H 727.907 -3.37948 1.74847 0
M  V30 7821 H 727.419 -2.23709 3.17137 0
M  V30 7822 H 725.52 -3.56238 1.09204 0
M  V30 7823 H 725.633 -3.76285 2.96557 0
M  V30 7824 H 723.997 -2.05886 1.49943 0
M  V30 7825 H 724.78 -1.51589 3.08019 0
M  V30 7826 N 727.225 -1.14528 -1.08264 0
M  V30 7827 C 728.172 -0.833556 -2.15222 0
M  V30 7828 C 729.142 0.209539 -1.64773 0
M  V30 7829 O 730.327 0.0791388 -1.90636 0
M  V30 7830 C 727.467 -0.318799 -3.43624 0
M  V30 7831 C 726.58 -1.42237 -4.07913 0
M  V30 7832 C 725.715 -0.864704 -5.24115 0
M  V30 7833 C 724.754 -1.94585 -5.80347 0
M  V30 7834 N 723.891 -1.40525 -6.87893 0
M  V30 7835 H 728.731 -1.74965 -2.41228 0
M  V30 7836 H 726.268 -0.873169 -1.18381 0
M  V30 7837 H 728.226 -0.00213088 -4.172 0
M  V30 7838 H 726.856 0.560397 -3.17898 0
M  V30 7839 H 725.908 -1.8554 -3.32083 0
M  V30 7840 H 727.22 -2.23901 -4.45724 0
M  V30 7841 H 726.374 -0.500025 -6.04636 0
M  V30 7842 H 725.113 -0.0171219 -4.87697 0
M  V30 7843 H 724.118 -2.31946 -4.98479 0
M  V30 7844 H 725.343 -2.79704 -6.18823 0
M  V30 7845 H 723.289 -0.579873 -6.53432 0
M  V30 7846 H 723.206 -2.15825 -7.24538 0
M  V30 7847 H 724.474 -1.06852 -7.72142 0
M  V30 7848 N 728.703 1.26451 -0.940633 0
M  V30 7849 C 729.951 1.93395 -0.586748 0
M  V30 7850 C 730.272 1.7417 0.876921 0
M  V30 7851 O 729.542 1.097 1.62304 0
M  V30 7852 H 728.122 0.715687 -0.214012 0
M  V30 7853 H 730.784 1.53902 -1.19584 0
M  V30 7854 H 729.88 3.01565 -0.804059 0
M  V30 7855 N 730.181 0.707592 1.40822 0
M  V30 7856 C 731.427 0.244031 2.01326 0
M  V30 7857 C 731.76 -1.15722 1.55955 0
M  V30 7858 O 731.035 -1.78347 0.776044 0
M  V30 7859 C 731.318 0.315128 3.58718 0
M  V30 7860 C 731.171 1.75419 4.14184 0
M  V30 7861 C 732.49 -0.318251 4.38948 0
M  V30 7862 H 729.609 0.0901471 0.731466 0
M  V30 7863 H 732.251 0.898584 1.67408 0
M  V30 7864 H 730.401 -0.242176 3.87744 0
M  V30 7865 H 732.073 2.36626 3.95987 0
M  V30 7866 H 730.316 2.28449 3.68773 0
M  V30 7867 H 730.987 1.75538 5.23345 0
M  V30 7868 H 733.463 0.156514 4.15806 0
M  V30 7869 H 732.339 -0.238019 5.48384 0
M  V30 7870 H 732.6 -1.40067 4.19325 0
M  V30 7871 N 731.66 -1.50943 0.453197 0
M  V30 7872 C 732.607 -2.28128 -0.350197 0
M  V30 7873 C 733.577 -1.32398 -1.00299 0
M  V30 7874 O 734.762 -1.61319 -1.01887 0
M  V30 7875 C 731.902 -3.13782 -1.43649 0
M  V30 7876 C 731.015 -4.24523 -0.800255 0
M  V30 7877 C 730.15 -4.97462 -1.86293 0
M  V30 7878 C 729.189 -6.00102 -1.20598 0
M  V30 7879 N 728.326 -6.66387 -2.21071 0
M  V30 7880 H 733.166 -2.96337 0.31434 0
M  V30 7881 H 730.703 -1.46151 0.166863 0
M  V30 7882 H 732.661 -3.6178 -2.07776 0
M  V30 7883 H 731.291 -2.47655 -2.07044 0
M  V30 7884 H 730.343 -3.80371 -0.0468651 0
M  V30 7885 H 731.655 -4.98009 -0.280777 0
M  V30 7886 H 730.809 -5.49088 -2.58044 0
M  V30 7887 H 729.548 -4.23642 -2.41617 0
M  V30 7888 H 728.553 -5.47753 -0.474 0
M  V30 7889 H 729.778 -6.75887 -0.659859 0
M  V30 7890 H 727.724 -5.9537 -2.75446 0
M  V30 7891 H 727.641 -7.3569 -1.74058 0
M  V30 7892 H 728.909 -7.22638 -2.92257 0
M  V30 7893 N 733.138 -0.185124 -1.56509 0
M  V30 7894 C 734.088 0.752315 -2.15231 0
M  V30 7895 C 735.072 1.18327 -1.0903 0
M  V30 7896 O 736.264 1.14333 -1.35119 0
M  V30 7897 C 733.393 1.97583 -2.80742 0
M  V30 7898 C 732.479 1.56623 -3.94119 0
M  V30 7899 N 732.87 0.867008 -4.98314 0
M  V30 7900 C 731.168 1.85626 -4.05535 0
M  V30 7901 C 731.869 0.663228 -5.77907 0
M  V30 7902 N 730.845 1.20891 -5.29987 0
M  V30 7903 H 734.647 0.209267 -2.93154 0
M  V30 7904 H 732.161 0.0150444 -1.62393 0
M  V30 7905 H 734.158 2.65779 -3.21197 0
M  V30 7906 H 732.818 2.52369 -2.04303 0
M  V30 7907 H 733.829 0.52355 -5.15247 0
M  V30 7908 H 730.506 2.41992 -3.40215 0
M  V30 7909 H 731.896 0.109273 -6.71811 0
M  V30 7910 N 734.616 1.57351 0.0885366 0
M  V30 7911 C 735.546 2.05561 1.10757 0
M  V30 7912 C 736.527 0.945789 1.41382 0
M  V30 7913 O 737.712 1.21747 1.51299 0
M  V30 7914 C 734.842 2.48554 2.42566 0
M  V30 7915 C 733.796 3.63259 2.26334 0
M  V30 7916 C 733.122 3.9225 3.63378 0
M  V30 7917 C 734.422 4.93913 1.69844 0
M  V30 7918 H 736.116 2.90946 0.706468 0
M  V30 7919 H 733.662 1.39968 0.338385 0
M  V30 7920 H 735.615 2.8089 3.14132 0
M  V30 7921 H 734.339 1.60176 2.84625 0
M  V30 7922 H 732.998 3.31179 1.57213 0
M  V30 7923 H 732.646 3.0103 4.02976 0
M  V30 7924 H 732.346 4.69478 3.53362 0
M  V30 7925 H 733.87 4.27067 4.36401 0
M  V30 7926 H 735.284 5.24588 2.31258 0
M  V30 7927 H 733.681 5.75349 1.70569 0
M  V30 7928 H 734.751 4.80409 0.65843 0
M  V30 7929 N 736.094 -0.359525 1.53444 0
M  V30 7930 C 737.041 -1.44073 1.8031 0
M  V30 7931 C 738.011 -1.52946 0.647811 0
M  V30 7932 O 739.196 -1.68739 0.890614 0
M  V30 7933 C 736.336 -2.80941 2.00416 0
M  V30 7934 C 735.449 -2.80986 3.28132 0
M  V30 7935 C 734.584 -4.09468 3.38393 0
M  V30 7936 C 733.623 -4.03679 4.60119 0
M  V30 7937 N 732.76 -5.23821 4.675 0
M  V30 7938 H 737.6 -1.20464 2.72566 0
M  V30 7939 H 735.137 -0.583859 1.35017 0
M  V30 7940 H 737.095 -3.60459 2.1006 0
M  V30 7941 H 735.725 -3.02936 1.11489 0
M  V30 7942 H 734.777 -1.93666 3.27411 0
M  V30 7943 H 736.089 -2.72583 4.17732 0
M  V30 7944 H 735.243 -4.97404 3.47382 0
M  V30 7945 H 733.982 -4.20632 2.4682 0
M  V30 7946 H 732.987 -3.14129 4.51224 0
M  V30 7947 H 734.212 -3.94112 5.5304 0
M  V30 7948 H 732.158 -5.35559 3.7883 0
M  V30 7949 H 732.075 -5.17611 5.51013 0
M  V30 7950 H 733.343 -6.13572 4.8078 0
M  V30 7951 N 737.572 -1.44907 -0.619662 0
M  V30 7952 C 738.849 -1.38766 -1.37852 0
M  V30 7953 C 739.229 -0.0521393 -2.11036 0
M  V30 7954 O 738.577 0.965613 -2.07095 0
M  V30 7955 C 738.787 -2.59344 -2.33541 0
M  V30 7956 C 740.135 -3.03909 -2.96521 0
M  V30 7957 O 741.159 -2.59631 -2.43865 0
M  V30 7958 O 740.018 -3.80713 -3.92071 0
M  V30 7959 H 737.112 -0.550083 -0.617525 0
M  V30 7960 H 739.658 -1.57015 -0.643759 0
M  V30 7961 H 738.43 -3.48142 -1.78642 0
M  V30 7962 H 738.053 -2.43367 -3.14417 0
M  V30 7963 N 739.05 0.861098 -1.31996 0
M  V30 7964 C 740.297 1.61481 -1.22188 0
M  V30 7965 C 740.625 1.93276 0.217853 0
M  V30 7966 O 739.88 1.56942 1.16909 0
M  V30 7967 C 740.179 2.94822 -2.02027 0
M  V30 7968 C 739.845 2.82483 -3.51446 0
M  V30 7969 C 738.507 2.78825 -3.92186 0
M  V30 7970 C 740.859 2.68878 -4.46491 0
M  V30 7971 C 738.187 2.59433 -5.26224 0
M  V30 7972 C 740.539 2.51022 -5.80664 0
M  V30 7973 C 739.203 2.45753 -6.20614 0
M  V30 7974 H 738.473 0.590902 -0.447119 0
M  V30 7975 H 741.12 0.999376 -1.63355 0
M  V30 7976 H 739.425 3.6045 -1.53569 0
M  V30 7977 H 741.122 3.52149 -1.91812 0
M  V30 7978 H 737.712 2.86152 -3.19085 0
M  V30 7979 H 741.896 2.70754 -4.1594 0
M  V30 7980 H 737.152 2.53784 -5.5624 0
M  V30 7981 H 741.326 2.39473 -6.53931 0
M  V30 7982 H 738.953 2.30485 -7.24417 0
M  V30 7983 N 740.528 1.15101 1.07655 0
M  V30 7984 C 741.939 0.933848 1.61667 0
M  V30 7985 C 742.29 -0.525569 1.8903 0
M  V30 7986 O 741.415 -1.39605 1.65346 0
M  V30 7987 C 742.01 1.68876 2.93711 0
M  V30 7988 C 740.569 1.51697 3.44478 0
M  V30 7989 C 739.716 1.70633 2.18586 0
M  V30 7990 H 742.667 1.30171 0.907816 0
M  V30 7991 H 742.688 1.15645 3.625 0
M  V30 7992 H 742.2 2.7509 2.73764 0
M  V30 7993 H 740.301 0.478635 3.69513 0
M  V30 7994 H 740.414 2.29194 4.20722 0
M  V30 7995 H 738.778 1.13259 2.28132 0
M  V30 7996 H 739.561 2.78206 2.01137 0
M  V30 7997 N 742.006 -1.2595 0.947325 0
M  V30 7998 C 743.255 -1.92759 0.593887 0
M  V30 7999 C 743.568 -1.75083 -0.872093 0
M  V30 8000 O 744.774 -2.36401 -1.33518 0
M  V30 8001 C 743.23 -3.45395 1.01144 0
M  V30 8002 C 742.838 -3.71795 2.49946 0
M  V30 8003 C 744.582 -4.18173 0.730185 0
M  V30 8004 C 742.489 -5.17901 2.85539 0
M  V30 8005 H 741.419 -0.721676 0.218403 0
M  V30 8006 H 744.07 -1.4293 1.15079 0
M  V30 8007 H 742.452 -3.94143 0.383007 0
M  V30 8008 H 743.626 -3.33728 3.17746 0
M  V30 8009 H 741.941 -3.12263 2.75465 0
M  V30 8010 H 744.538 -5.25784 0.972367 0
M  V30 8011 H 744.881 -4.14964 -0.333223 0
M  V30 8012 H 745.414 -3.75309 1.31862 0
M  V30 8013 H 742.153 -5.26216 3.90867 0
M  V30 8014 H 741.673 -5.57042 2.22406 0
M  V30 8015 H 743.352 -5.8596 2.74336 0
M  V30 8016 N 743.484 -0.715051 -1.40445 0
M  V30 8017 C 744.414 -0.0768699 -2.33373 0
M  V30 8018 C 745.395 0.746109 -1.52863 0
M  V30 8019 O 746.58 0.695142 -1.81332 0
M  V30 8020 C 743.71 0.846014 -3.36838 0
M  V30 8021 C 742.664 0.128694 -4.27806 0
M  V30 8022 C 741.99 1.16726 -5.21804 0
M  V30 8023 C 743.29 -1.01679 -5.12307 0
M  V30 8024 H 744.984 -0.853061 -2.8699 0
M  V30 8025 H 742.53 -0.41167 -1.3799 0
M  V30 8026 H 744.483 1.30185 -4.00786 0
M  V30 8027 H 743.207 1.6541 -2.81615 0
M  V30 8028 H 741.866 -0.307314 -3.6531 0
M  V30 8029 H 741.514 1.96838 -4.62887 0
M  V30 8030 H 741.214 0.692188 -5.83509 0
M  V30 8031 H 742.738 1.62321 -5.88629 0
M  V30 8032 H 744.152 -0.640337 -5.69713 0
M  V30 8033 H 742.549 -1.4202 -5.83053 0
M  V30 8034 H 743.619 -1.84769 -4.48317 0
M  V30 8035 N 744.962 1.50701 -0.461195 0
M  V30 8036 C 746.373 1.867 -0.00370227 0
M  V30 8037 C 746.724 1.37673 1.39787 0
M  V30 8038 O 745.849 0.737515 2.03445 0
M  V30 8039 C 746.444 3.388 5.75786e-05 0
M  V30 8040 C 745.003 3.74247 0.402044 0
M  V30 8041 C 744.15 2.74549 -0.389652 0
M  V30 8042 H 747.101 1.43585 -0.675942 0
M  V30 8043 H 747.122 3.719 0.804414 0
M  V30 8044 H 746.634 3.74452 -1.02015 0
M  V30 8045 H 744.735 3.44192 1.42697 0
M  V30 8046 H 744.848 4.78973 0.110265 0
M  V30 8047 H 743.212 2.54226 0.155314 0
M  V30 8048 H 743.995 3.13044 -1.40919 0
M  V30 8049 N 746.441 0.193421 1.56409 0
M  V30 8050 C 747.689 -0.444908 1.97142 0
M  V30 8051 C 748.01 -1.62268 1.08139 0
M  V30 8052 O 747.28 -1.95307 0.152326 0
M  V30 8053 H 745.86 -0.16736 0.728011 0
M  V30 8054 H 748.522 0.279763 1.92882 0
M  V30 8055 H 747.618 -0.790159 3.01932 0
M  V30 8056 N 747.919 -1.57396 -0.0801906 0
M  V30 8057 C 748.829 -2.06451 -1.11423 0
M  V30 8058 C 749.845 -0.992352 -1.42928 0
M  V30 8059 O 751.021 -1.30651 -1.53272 0
M  V30 8060 C 748.086 -2.49164 -2.41077 0
M  V30 8061 C 747.147 -3.70641 -2.16619 0
M  V30 8062 C 746.38 -4.11307 -3.40092 0
M  V30 8063 O 746.603 -3.51922 -4.48895 0
M  V30 8064 O 745.537 -5.04157 -3.288 0
M  V30 8065 H 749.363 -2.94857 -0.727519 0
M  V30 8066 H 746.948 -1.46484 -0.293743 0
M  V30 8067 H 748.83 -2.77196 -3.17396 0
M  V30 8068 H 747.505 -1.6389 -2.79145 0
M  V30 8069 H 746.412 -3.47703 -1.38033 0
M  V30 8070 H 747.745 -4.5674 -1.83437 0
M  V30 8071 N 749.397 0.351382 -1.53633 0
M  V30 8072 C 750.646 1.08988 -1.69719 0
M  V30 8073 C 750.959 1.90043 -0.462948 0
M  V30 8074 O 752.165 2.66769 -0.504613 0
M  V30 8075 C 750.621 1.98691 -3.00083 0
M  V30 8076 C 750.229 1.22881 -4.30818 0
M  V30 8077 C 751.973 2.72446 -3.25536 0
M  V30 8078 C 749.88 2.11568 -5.52262 0
M  V30 8079 H 748.81 0.410588 -0.632403 0
M  V30 8080 H 751.461 0.349886 -1.80133 0
M  V30 8081 H 749.843 2.76478 -2.83506 0
M  V30 8082 H 751.017 0.500582 -4.58073 0
M  V30 8083 H 749.332 0.60928 -4.11918 0
M  V30 8084 H 751.929 3.39055 -4.13456 0
M  V30 8085 H 752.272 3.38588 -2.42206 0
M  V30 8086 H 752.805 2.01735 -3.42852 0
M  V30 8087 H 749.544 1.4998 -6.38111 0
M  V30 8088 H 749.064 2.82201 -5.29266 0
M  V30 8089 H 750.743 2.70802 -5.87601 0
M  V30 8090 N 750.875 1.45233 0.611969 0
M  V30 8091 C 752.122 1.49021 1.37109 0
M  V30 8092 C 752.45 0.130227 1.94064 0
M  V30 8093 O 751.705 -0.870551 1.75271 0
M  V30 8094 C 752.004 2.51353 2.54079 0
M  V30 8095 C 751.67 3.96178 2.15299 0
M  V30 8096 C 750.332 4.35614 2.04436 0
M  V30 8097 C 752.684 4.87275 1.84966 0
M  V30 8098 C 750.012 5.64047 1.61456 0
M  V30 8099 C 752.364 6.16115 1.43474 0
M  V30 8100 C 751.028 6.54486 1.31167 0
M  V30 8101 H 750.298 0.545307 0.501719 0
M  V30 8102 H 752.945 1.78555 0.692122 0
M  V30 8103 H 751.25 2.15372 3.27295 0
M  V30 8104 H 752.947 2.51523 3.12309 0
M  V30 8105 H 749.537 3.6499 2.24678 0
M  V30 8106 H 753.721 4.57548 1.92258 0
M  V30 8107 H 748.977 5.92575 1.50547 0
M  V30 8108 H 753.151 6.86149 1.19048 0
M  V30 8109 H 750.778 7.53904 0.97637 0
M  V30 8110 N 752.353 -0.854086 1.3245 0
M  V30 8111 C 753.3 -1.96271 1.21434 0
M  V30 8112 C 754.27 -1.6582 0.0963851 0
M  V30 8113 O 755.455 -1.88851 0.27203 0
M  V30 8114 C 752.595 -3.31939 0.943952 0
M  V30 8115 C 751.708 -3.74885 2.14675 0
M  V30 8116 C 750.843 -4.99347 1.81179 0
M  V30 8117 C 749.882 -5.34785 2.97777 0
M  V30 8118 N 749.019 -6.50425 2.6437 0
M  V30 8119 H 753.859 -2.05025 2.16261 0
M  V30 8120 H 751.396 -1.00348 1.07558 0
M  V30 8121 H 753.354 -4.10076 0.767675 0
M  V30 8122 H 751.984 -3.22784 0.0324763 0
M  V30 8123 H 751.036 -2.92396 2.43328 0
M  V30 8124 H 752.348 -3.97068 3.01891 0
M  V30 8125 H 751.502 -5.85193 1.60107 0
M  V30 8126 H 750.241 -4.79101 0.911777 0
M  V30 8127 H 749.246 -4.47451 3.1948 0
M  V30 8128 H 750.471 -5.56988 3.88511 0
M  V30 8129 H 748.417 -6.31695 1.7691 0
M  V30 8130 H 748.334 -6.7263 3.45116 0
M  V30 8131 H 749.602 -7.39422 2.46729 0
M  V30 8132 N 753.831 -1.1567 -1.07043 0
M  V30 8133 C 755.061 -0.956083 -1.83146 0
M  V30 8134 C 755.469 0.498969 -1.82502 0
M  V30 8135 O 754.812 1.35791 -1.23719 0
M  V30 8136 C 754.874 -1.39704 -3.31245 0
M  V30 8137 C 754.538 -2.87045 -3.55604 0
M  V30 8138 C 755.535 -3.85092 -3.49285 0
M  V30 8139 C 753.22 -3.24787 -3.8317 0
M  V30 8140 C 755.214 -5.18885 -3.70185 0
M  V30 8141 C 752.901 -4.58751 -4.03721 0
M  V30 8142 C 753.899 -5.55609 -3.97224 0
M  V30 8143 O 753.587 -6.87154 -4.17223 0
M  V30 8144 H 753.319 -0.339473 -0.58458 0
M  V30 8145 H 755.873 -1.53922 -1.36005 0
M  V30 8146 H 754.103 -0.757326 -3.79212 0
M  V30 8147 H 755.792 -1.16503 -3.88821 0
M  V30 8148 H 756.558 -3.5728 -3.27988 0
M  V30 8149 H 752.437 -2.49979 -3.87339 0
M  V30 8150 H 755.981 -5.94473 -3.6503 0
M  V30 8151 H 751.878 -4.86277 -4.24505 0
M  V30 8152 H 752.646 -6.93618 -4.34553 0
M  V30 8153 N 755.309 1.25446 -0.953992 0
M  V30 8154 C 756.256 2.25912 -0.472485 0
M  V30 8155 C 757.226 1.59173 0.47469 0
M  V30 8156 O 758.411 1.86812 0.388082 0
M  V30 8157 C 755.551 3.44235 0.244218 0
M  V30 8158 C 754.664 4.25613 -0.740121 0
M  V30 8159 C 753.799 5.312 -0.000922267 0
M  V30 8160 C 752.838 6.04265 -0.976236 0
M  V30 8161 N 751.975 7.01589 -0.267952 0
M  V30 8162 H 756.815 2.66469 -1.3341 0
M  V30 8163 H 754.352 1.31005 -0.669045 0
M  V30 8164 H 756.31 4.11682 0.676314 0
M  V30 8165 H 754.94 3.04554 1.06988 0
M  V30 8166 H 753.992 3.57834 -1.2907 0
M  V30 8167 H 755.304 4.762 -1.48441 0
M  V30 8168 H 754.458 6.04719 0.48984 0
M  V30 8169 H 753.197 4.81484 0.776159 0
M  V30 8170 H 752.202 5.29561 -1.478 0
M  V30 8171 H 753.427 6.5607 -1.75354 0
M  V30 8172 H 751.373 6.54164 0.490403 0
M  V30 8173 H 751.29 7.4999 -0.951344 0
M  V30 8174 H 752.558 7.7924 0.201294 0
M  V30 8175 N 756.787 0.722489 1.40064 0
M  V30 8176 C 758.033 0.27422 2.01543 0
M  V30 8177 C 758.388 -1.12224 1.5628 0
M  V30 8178 O 757.681 -1.75179 0.776063 0
M  V30 8179 C 757.875 0.300682 3.56133 0
M  V30 8180 C 757.704 1.69818 4.16404 0
M  V30 8181 C 756.474 2.30747 4.49537 0
M  V30 8182 C 758.672 2.64962 4.40794 0
M  V30 8183 N 756.654 3.62781 4.9524 0
M  V30 8184 C 758.025 3.81712 4.88565 0
M  V30 8185 C 760.08 2.62885 4.22842 0
M  V30 8186 C 758.783 4.96703 5.20268 0
M  V30 8187 C 760.809 3.77009 4.55652 0
M  V30 8188 C 760.171 4.92492 5.03618 0
M  V30 8189 H 756.27 0.146328 0.768188 0
M  V30 8190 H 758.854 0.94577 1.70186 0
M  V30 8191 H 757.025 -0.340461 3.86905 0
M  V30 8192 H 758.757 -0.164951 4.04364 0
M  V30 8193 H 755.512 1.82783 4.36907 0
M  V30 8194 H 755.936 4.30533 5.22465 0
M  V30 8195 H 760.578 1.74803 3.84972 0
M  V30 8196 H 758.296 5.85425 5.57049 0
M  V30 8197 H 761.882 3.76685 4.43396 0
M  V30 8198 H 760.762 5.79336 5.28525 0
M  V30 8199 N 758.265 -1.50454 0.469181 0
M  V30 8200 C 759.493 -2.06729 -0.0842134 0
M  V30 8201 C 759.908 -1.33326 -1.33677 0
M  V30 8202 O 759.265 -0.401977 -1.78018 0
M  V30 8203 C 759.316 -3.59557 -0.374253 0
M  V30 8204 O 759.037 -4.30192 0.828622 0
M  V30 8205 C 760.538 -4.32449 -0.974824 0
M  V30 8206 H 757.758 -0.670971 0.006231 0
M  V30 8207 H 760.302 -1.93645 0.657415 0
M  V30 8208 H 758.457 -3.7245 -1.06581 0
M  V30 8209 H 758.871 -5.21371 0.572066 0
M  V30 8210 H 760.345 -5.40361 -1.12755 0
M  V30 8211 H 760.822 -3.92819 -1.96442 0
M  V30 8212 H 761.428 -4.24082 -0.321703 0
M  V30 8213 N 759.743 -0.201713 -1.56304 0
M  V30 8214 C 760.989 0.435952 -1.98059 0
M  V30 8215 C 761.322 1.60811 -1.08873 0
M  V30 8216 O 760.597 1.9398 -0.142128 0
M  V30 8217 C 760.88 0.889706 -3.48936 0
M  V30 8218 C 760.733 -0.284725 -4.48898 0
M  V30 8219 C 762.052 1.7529 -4.03685 0
M  V30 8220 H 759.171 0.15699 -0.720085 0
M  V30 8221 H 761.813 -0.293965 -1.87712 0
M  V30 8222 H 759.963 1.51166 -3.57884 0
M  V30 8223 H 761.635 -0.922531 -4.51981 0
M  V30 8224 H 759.878 -0.935427 -4.23594 0
M  V30 8225 H 760.549 0.0753865 -5.51949 0
M  V30 8226 H 763.025 1.2283 -3.97558 0
M  V30 8227 H 761.901 2.03933 -5.0961 0
M  V30 8228 H 762.162 2.70939 -3.49348 0
M  V30 8229 N 761.222 1.57436 0.0718424 0
M  V30 8230 C 762.45 1.91474 0.783932 0
M  V30 8231 C 762.865 0.797669 1.71122 0
M  V30 8232 O 762.222 -0.228989 1.81058 0
M  V30 8233 C 762.273 3.25259 1.57761 0
M  V30 8234 O 761.994 4.3267 0.687596 0
M  V30 8235 C 763.495 3.7331 2.3907 0
M  V30 8236 H 760.715 0.632901 0.222885 0
M  V30 8237 H 763.259 2.04457 0.0421262 0
M  V30 8238 H 761.414 3.13804 2.27169 0
M  V30 8239 H 761.828 5.09641 1.23962 0
M  V30 8240 H 763.302 4.69551 2.90216 0
M  V30 8241 H 763.779 3.02318 3.18591 0
M  V30 8242 H 764.385 3.8771 1.74818 0
M  V30 8243 N 762.7 -0.34323 1.53817 0
M  V30 8244 C 763.946 -1.08504 1.71332 0
M  V30 8245 C 764.279 -1.88294 0.475285 0
M  V30 8246 O 763.554 -1.87205 -0.527688 0
M  V30 8247 C 763.837 -2.02597 2.97702 0
M  V30 8248 C 763.69 -1.26268 4.31713 0
M  V30 8249 C 765.009 -3.0241 3.19744 0
M  V30 8250 H 762.128 -0.393072 0.623429 0
M  V30 8251 H 764.77 -0.363579 1.86489 0
M  V30 8252 H 762.92 -2.64118 2.8491 0
M  V30 8253 H 764.592 -0.673594 4.56356 0
M  V30 8254 H 762.835 -0.564696 4.30109 0
M  V30 8255 H 763.506 -1.95253 5.16314 0
M  V30 8256 H 765.982 -2.51004 3.31868 0
M  V30 8257 H 764.858 -3.65449 4.09558 0
M  V30 8258 H 765.119 -3.73806 2.36054 0
M  V30 8259 N 764.178 -1.45556 -0.604258 0
M  V30 8260 C 765.088 -1.57025 -1.74299 0
M  V30 8261 C 766.104 -0.45456 -1.67958 0
M  V30 8262 O 767.28 -0.715711 -1.88254 0
M  V30 8263 C 764.345 -1.53702 -3.10768 0
M  V30 8264 C 763.406 -2.76335 -3.28538 0
M  V30 8265 C 762.639 -2.73161 -4.58496 0
M  V30 8266 O 762.862 -1.80678 -5.41028 0
M  V30 8267 O 761.796 -3.64409 -4.79051 0
M  V30 8268 H 765.622 -2.53284 -1.67573 0
M  V30 8269 H 763.207 -1.28104 -0.768745 0
M  V30 8270 H 765.089 -1.54468 -3.92068 0
M  V30 8271 H 763.764 -0.605957 -3.17978 0
M  V30 8272 H 762.671 -2.8113 -2.46813 0
M  V30 8273 H 764.004 -3.68578 -3.26207 0
M  V30 8274 N 765.656 0.84705 -1.32902 0
M  V30 8275 C 766.933 1.58583 -1.14503 0
M  V30 8276 C 767.313 2.09075 0.291724 0
M  V30 8277 O 766.661 1.88636 1.28952 0
M  V30 8278 C 766.871 2.72605 -2.17916 0
M  V30 8279 C 768.219 3.41993 -2.51646 0
M  V30 8280 O 769.243 2.82838 -2.1652 0
M  V30 8281 O 768.102 4.48761 -3.1189 0
M  V30 8282 H 765.196 0.698756 -0.442345 0
M  V30 8283 H 767.742 0.890516 -1.44457 0
M  V30 8284 H 766.514 2.32876 -3.14459 0
M  V30 8285 H 766.137 3.49807 -1.89 0
M  V30 8286 N 767.134 1.16236 1.06428 0
M  V30 8287 C 768.382 0.941171 1.78847 0
M  V30 8288 C 768.703 -0.53248 1.87589 0
M  V30 8289 O 767.973 -1.38686 1.38358 0
M  V30 8290 H 766.553 0.345228 0.66244 0
M  V30 8291 H 769.215 1.46479 1.28569 0
M  V30 8292 H 768.311 1.35871 2.80972 0
M  V30 8293 N 768.612 -1.24939 0.960631 0
M  V30 8294 C 770.023 -1.74701 0.658529 0
M  V30 8295 C 770.374 -1.77967 -0.825959 0
M  V30 8296 O 769.499 -1.40444 -1.64634 0
M  V30 8297 C 770.094 -3.17263 1.18867 0
M  V30 8298 C 768.653 -3.64561 0.936614 0
M  V30 8299 C 767.8 -2.43423 1.32817 0
M  V30 8300 H 770.751 -1.10741 1.13676 0
M  V30 8301 H 770.772 -3.76481 0.551589 0
M  V30 8302 H 770.284 -3.14854 2.26912 0
M  V30 8303 H 768.385 -3.72378 -0.128608 0
M  V30 8304 H 768.498 -4.52392 1.57729 0
M  V30 8305 H 766.862 -2.43513 0.746548 0
M  V30 8306 H 767.645 -2.437 2.41796 0
M  V30 8307 N 770.09 -0.729906 -1.39679 0
M  V30 8308 C 771.318 -0.285709 -2.04918 0
M  V30 8309 C 771.733 1.07765 -1.55023 0
M  V30 8310 O 771.09 1.67999 -0.712923 0
M  V30 8311 C 771.141 -0.272793 -3.60469 0
M  V30 8312 O 770.862 -1.58233 -4.08527 0
M  V30 8313 C 772.363 0.188199 -4.429 0
M  V30 8314 H 769.583 -0.125758 -0.65911 0
M  V30 8315 H 772.127 -0.992129 -1.78821 0
M  V30 8316 H 770.282 0.384699 -3.85485 0
M  V30 8317 H 770.696 -1.49245 -5.02818 0
M  V30 8318 H 772.17 0.14608 -5.51807 0
M  V30 8319 H 772.647 1.2326 -4.21549 0
M  V30 8320 H 773.253 -0.439541 -4.23023 0
M  V30 8321 N 771.568 1.50203 -0.477153 0
M  V30 8322 C 772.515 2.28656 0.31386 0
M  V30 8323 C 773.485 1.33977 0.981802 0
M  V30 8324 O 774.67 1.62919 0.993072 0
M  V30 8325 C 771.81 3.16027 1.38639 0
M  V30 8326 C 770.923 4.25743 0.732615 0
M  V30 8327 C 770.058 5.00363 1.78355 0
M  V30 8328 C 769.097 6.01945 1.11035 0
M  V30 8329 N 768.234 6.6982 2.10441 0
M  V30 8330 H 773.074 2.958 -0.361445 0
M  V30 8331 H 770.611 1.45867 -0.190093 0
M  V30 8332 H 772.569 3.6504 2.01994 0
M  V30 8333 H 771.199 2.50917 2.03077 0
M  V30 8334 H 770.251 3.80398 -0.0136546 0
M  V30 8335 H 771.563 4.98393 0.201513 0
M  V30 8336 H 770.717 5.53124 2.49276 0
M  V30 8337 H 769.456 4.27432 2.34847 0
M  V30 8338 H 768.461 5.48438 0.386797 0
M  V30 8339 H 769.686 6.76851 0.552248 0
M  V30 8340 H 767.632 5.99677 2.65939 0
M  V30 8341 H 767.549 7.38366 1.62332 0
M  V30 8342 H 768.817 7.27196 2.80724 0
M  V30 8343 N 773.046 0.209999 1.56195 0
M  V30 8344 C 774.271 -0.433064 2.02828 0
M  V30 8345 C 774.696 -1.5337 1.08901 0
M  V30 8346 O 774.054 -1.81144 0.0751132 0
M  V30 8347 C 774.102 -0.952635 3.47789 0
M  V30 8348 O 773.206 -2.0647 3.56993 0
M  V30 8349 H 772.547 -0.0994594 0.656509 0
M  V30 8350 H 775.077 0.32525 2.01998 0
M  V30 8351 H 775.087 -1.26542 3.8788 0
M  V30 8352 H 773.762 -0.147007 4.1564 0
M  V30 8353 H 772.339 -1.75942 3.28784 0
M  V30 8354 N 774.524 -1.57472 -0.0634922 0
M  V30 8355 C 775.801 -1.78736 -0.794538 0
M  V30 8356 C 776.181 -0.799645 -1.95369 0
M  V30 8357 O 775.529 0.165521 -2.279 0
M  V30 8358 C 775.739 -3.25471 -1.25975 0
M  V30 8359 C 777.087 -3.89528 -1.68976 0
M  V30 8360 O 778.111 -3.29412 -1.35521 0
M  V30 8361 O 776.97 -4.95305 -2.30944 0
M  V30 8362 H 774.064 -0.733813 -0.381376 0
M  V30 8363 H 776.61 -1.69646 -0.0429258 0
M  V30 8364 H 775.382 -3.88922 -0.430721 0
M  V30 8365 H 775.005 -3.39317 -2.07243 0
M  V30 8366 N 776.003 0.335068 -1.53997 0
M  V30 8367 C 777.414 0.910191 -1.6301 0
M  V30 8368 C 777.765 1.89271 -0.516809 0
M  V30 8369 O 776.89 2.13516 0.352123 0
M  V30 8370 C 777.485 1.65761 -2.9548 0
M  V30 8371 C 776.044 2.18163 -3.06728 0
M  V30 8372 C 775.191 1.00338 -2.5851 0
M  V30 8373 H 778.142 0.112965 -1.58297 0
M  V30 8374 H 778.163 2.52107 -2.84995 0
M  V30 8375 H 777.675 0.94227 -3.76488 0
M  V30 8376 H 775.776 2.92847 -2.30372 0
M  V30 8377 H 775.889 2.43952 -4.1234 0
M  V30 8378 H 774.253 1.37925 -2.14124 0
M  V30 8379 H 775.036 0.30254 -3.41964 0
M  V30 8380 N 777.481 1.45874 0.596531 0
M  V30 8381 C 778.897 1.30524 0.918459 0
M  V30 8382 C 779.097 0.266429 1.99731 0
M  V30 8383 O 778.153 -0.335809 2.50257 0
M  V30 8384 C 779.466 2.68747 1.3489 0
M  V30 8385 C 781.014 2.7673 1.46251 0
M  V30 8386 C 781.489 4.15504 1.92667 0
M  V30 8387 N 782.98 4.17853 1.99883 0
M  V30 8388 C 783.715 5.22109 2.37044 0
M  V30 8389 N 783.211 6.36704 2.73094 0
M  V30 8390 N 785.004 5.09471 2.37479 0
M  V30 8391 H 777.155 2.12081 -0.116368 0
M  V30 8392 H 779.418 0.947941 0.0106033 0
M  V30 8393 H 779.124 3.46006 0.630288 0
M  V30 8394 H 778.998 2.97942 2.31323 0
M  V30 8395 H 781.385 1.99768 2.17202 0
M  V30 8396 H 781.466 2.51236 0.481054 0
M  V30 8397 H 781.11 4.92956 1.223 0
M  V30 8398 H 781.04 4.38396 2.91747 0
M  V30 8399 H 783.531 3.35163 1.74568 0
M  V30 8400 H 783.844 7.12041 3.00362 0
M  V30 8401 H 782.189 6.40087 2.70764 0
M  V30 8402 H 785.38 4.18987 2.08728 0
M  V30 8403 H 785.553 5.90837 2.66112 0
M  V30 8404 N 778.959 -0.83999 1.33349 0
M  V30 8405 C 780.199 -1.60888 1.26073 0
M  V30 8406 C 780.563 -1.91234 -0.17129 0
M  V30 8407 O 781.764 -2.66269 -0.36799 0
M  V30 8408 C 780.035 -2.88438 2.11042 0
M  V30 8409 S 781.594 -3.79116 2.20944 0
M  V30 8410 H 778.412 -0.55166 0.448545 0
M  V30 8411 H 781.014 -0.99359 1.68369 0
M  V30 8412 H 779.718 -2.64113 3.14121 0
M  V30 8413 H 779.249 -3.54974 1.69579 0
M  V30 8414 H 781.264 -4.76921 1.36969 0
M  V30 8415 N 780.437 -1.16799 -1.0581 0
M  V30 8416 C 781.367 -0.902241 -2.15364 0
M  V30 8417 C 782.348 0.153351 -1.69407 0
M  V30 8418 O 783.533 0.00442032 -1.94199 0
M  V30 8419 C 780.663 -0.407911 -3.44896 0
M  V30 8420 C 779.617 -1.40197 -4.04387 0
M  V30 8421 C 778.943 -0.765848 -5.29187 0
M  V30 8422 C 780.243 -2.77316 -4.42598 0
M  V30 8423 H 781.937 -1.81841 -2.37853 0
M  V30 8424 H 779.483 -0.875731 -1.14311 0
M  V30 8425 H 781.436 -0.20945 -4.20879 0
M  V30 8426 H 780.16 0.54378 -3.22041 0
M  V30 8427 H 778.819 -1.58707 -3.30466 0
M  V30 8428 H 778.467 0.192482 -5.02632 0
M  V30 8429 H 778.167 -1.42939 -5.69949 0
M  V30 8430 H 779.691 -0.577519 -6.07863 0
M  V30 8431 H 781.105 -2.62561 -5.09642 0
M  V30 8432 H 779.502 -3.4019 -4.94359 0
M  V30 8433 H 780.572 -3.32199 -3.53231 0
M  V30 8434 N 781.915 1.24427 -0.967243 0
M  V30 8435 C 783.143 1.96541 -0.646477 0
M  V30 8436 C 783.558 1.71753 0.783996 0
M  V30 8437 O 782.915 1.00102 1.52597 0
M  V30 8438 C 782.966 3.4983 -0.911098 0
M  V30 8439 O 782.687 3.7377 -2.28534 0
M  V30 8440 C 784.188 4.3916 -0.604458 0
M  V30 8441 H 781.408 0.626129 -0.241255 0
M  V30 8442 H 783.952 1.58268 -1.29505 0
M  V30 8443 H 782.107 3.86168 -0.308741 0
M  V30 8444 H 782.521 4.68154 -2.365 0
M  V30 8445 H 783.995 5.4557 -0.840069 0
M  V30 8446 H 784.472 4.36771 0.461273 0
M  V30 8447 H 785.078 4.08409 -1.1867 0
M  V30 8448 N 783.393 0.737304 1.3929 0
M  V30 8449 C 784.809 0.413132 1.5416 0
M  V30 8450 C 785.009 -1.07574 1.70382 0
M  V30 8451 O 784.065 -1.86185 1.70562 0
M  V30 8452 C 785.378 1.19817 2.75798 0
M  V30 8453 C 786.926 1.18662 2.89635 0
M  V30 8454 C 787.401 1.95427 4.14213 0
M  V30 8455 N 788.892 1.92605 4.21257 0
M  V30 8456 C 789.627 2.48808 5.16606 0
M  V30 8457 N 789.123 3.13659 6.1773 0
M  V30 8458 N 790.916 2.38829 5.08839 0
M  V30 8459 H 783.067 1.70243 1.27008 0
M  V30 8460 H 785.33 0.720802 0.61575 0
M  V30 8461 H 785.036 2.25179 2.70161 0
M  V30 8462 H 784.91 0.804144 3.68529 0
M  V30 8463 H 787.297 0.141112 2.94762 0
M  V30 8464 H 787.378 1.62003 1.97961 0
M  V30 8465 H 787.022 2.9998 4.09847 0
M  V30 8466 H 786.952 1.4949 5.04936 0
M  V30 8467 H 789.443 1.45362 3.48824 0
M  V30 8468 H 789.756 3.54006 6.8695 0
M  V30 8469 H 788.101 3.17749 6.1811 0
M  V30 8470 H 791.292 1.87806 4.28773 0
M  V30 8471 H 791.465 2.82929 5.82971 0
M  V30 8472 N 784.871 -1.49948 0.485112 0
M  V30 8473 C 786.101 -2.06506 -0.0621921 0
M  V30 8474 C 786.509 -1.34756 -1.32806 0
M  V30 8475 O 785.852 -0.41466 -1.78959 0
M  V30 8476 C 785.914 -3.57243 -0.402182 0
M  V30 8477 C 785.578 -4.50574 0.763671 0
M  V30 8478 C 786.575 -4.93032 1.6497 0
M  V30 8479 C 784.26 -4.9308 0.957973 0
M  V30 8480 C 786.254 -5.76718 2.71432 0
M  V30 8481 C 783.941 -5.76546 2.0258 0
M  V30 8482 C 784.939 -6.18267 2.90232 0
M  V30 8483 O 784.627 -7.00066 3.95174 0
M  V30 8484 H 784.359 -0.675925 0.0100672 0
M  V30 8485 H 786.913 -1.93922 0.677023 0
M  V30 8486 H 785.143 -3.6778 -1.19478 0
M  V30 8487 H 786.832 -3.96107 -0.886219 0
M  V30 8488 H 787.598 -4.60851 1.51134 0
M  V30 8489 H 783.477 -4.60117 0.285144 0
M  V30 8490 H 787.021 -6.09203 3.39878 0
M  V30 8491 H 782.918 -6.0814 2.16417 0
M  V30 8492 H 783.686 -7.18343 3.92333 0
M  V30 8493 N 786.349 -0.21828 -1.56081 0
M  V30 8494 C 787.579 0.41865 -2.02314 0
M  V30 8495 C 787.987 1.54124 -1.09739 0
M  V30 8496 O 787.33 1.83435 -0.0986829 0
M  V30 8497 C 787.392 1.01439 -3.44892 0
M  V30 8498 C 787.056 0.0276523 -4.56992 0
M  V30 8499 C 788.053 -0.771526 -5.14143 0
M  V30 8500 C 785.738 -0.0901537 -5.02219 0
M  V30 8501 C 787.732 -1.67525 -6.14991 0
M  V30 8502 C 785.419 -0.997411 -6.02905 0
M  V30 8503 C 786.417 -1.78851 -6.59167 0
M  V30 8504 O 786.105 -2.68052 -7.57894 0
M  V30 8505 H 785.837 0.107066 -0.667468 0
M  V30 8506 H 788.391 -0.331191 -2.02712 0
M  V30 8507 H 786.621 1.81326 -3.41552 0
M  V30 8508 H 788.31 1.55838 -3.74792 0
M  V30 8509 H 789.076 -0.690945 -4.80053 0
M  V30 8510 H 784.955 0.515474 -4.58109 0
M  V30 8511 H 788.499 -2.29316 -6.58832 0
M  V30 8512 H 784.396 -1.07902 -6.36418 0
M  V30 8513 H 785.164 -2.6209 -7.75404 0
M  V30 8514 N 787.827 1.57504 0.0551401 0
M  V30 8515 C 789.052 1.92682 0.767352 0
M  V30 8516 C 789.477 0.81614 1.69472 0
M  V30 8517 O 788.835 -0.229989 1.79835 0
M  V30 8518 C 788.883 3.26866 1.52286 0
M  V30 8519 O 787.987 3.17274 2.63459 0
M  V30 8520 H 787.328 0.630502 0.208238 0
M  V30 8521 H 789.858 2.04592 0.0184026 0
M  V30 8522 H 789.868 3.61138 1.8985 0
M  V30 8523 H 788.543 4.07276 0.842541 0
M  V30 8524 H 787.12 2.94589 2.2863 0
M  V30 8525 N 789.305 -0.326896 1.54172 0
M  V30 8526 C 790.53 -1.08924 1.76494 0
M  V30 8527 C 790.955 -1.81039 0.510523 0
M  V30 8528 O 790.313 -1.73141 -0.537756 0
M  V30 8529 C 790.361 -2.06558 2.95578 0
M  V30 8530 O 789.465 -3.14394 2.6689 0
M  V30 8531 H 788.806 -0.314216 0.584948 0
M  V30 8532 H 791.336 -0.372207 2.01186 0
M  V30 8533 H 791.346 -2.49487 3.22832 0
M  V30 8534 H 790.021 -1.53469 3.86549 0
M  V30 8535 H 788.598 -2.76164 2.50576 0
M  V30 8536 N 790.784 -1.46188 -0.588786 0
M  V30 8537 C 792.031 -1.51184 -1.34721 0
M  V30 8538 C 792.359 -0.161084 -1.93832 0
M  V30 8539 O 791.614 0.842557 -1.76634 0
M  V30 8540 C 791.913 -2.55364 -2.50048 0
M  V30 8541 C 791.579 -3.99553 -2.08969 0
M  V30 8542 C 790.241 -4.38811 -1.9748 0
M  V30 8543 C 792.593 -4.90156 -1.77191 0
M  V30 8544 C 789.921 -5.66544 -1.52463 0
M  V30 8545 C 792.273 -6.1832 -1.33654 0
M  V30 8546 C 790.937 -6.5649 -1.20738 0
M  V30 8547 H 790.207 -0.55322 -0.49298 0
M  V30 8548 H 792.854 -1.79634 -0.663627 0
M  V30 8549 H 791.159 -2.20552 -3.23827 0
M  V30 8550 H 792.856 -2.5646 -3.08268 0
M  V30 8551 H 789.446 -3.68518 -2.18843 0
M  V30 8552 H 793.63 -4.60549 -1.84955 0
M  V30 8553 H 788.886 -5.94895 -1.411 0
M  V30 8554 H 793.06 -6.87956 -1.08117 0
M  V30 8555 H 790.687 -7.55362 -0.856307 0
M  V30 8556 N 792.262 0.832906 -1.33792 0
M  V30 8557 C 793.508 1.59089 -1.25772 0
M  V30 8558 C 793.841 1.93414 0.174601 0
M  V30 8559 O 793.116 1.59195 1.11746 0
M  V30 8560 C 793.399 2.89699 -2.13885 0
M  V30 8561 C 793.252 2.62017 -3.65605 0
M  V30 8562 C 794.571 3.91182 -2.01654 0
M  V30 8563 H 791.69 0.577232 -0.458227 0
M  V30 8564 H 794.332 0.960227 -1.6395 0
M  V30 8565 H 792.482 3.4352 -1.81456 0
M  V30 8566 H 794.154 2.14582 -4.08353 0
M  V30 8567 H 792.397 1.95621 -3.87189 0
M  V30 8568 H 793.068 3.55112 -4.2261 0
M  V30 8569 H 795.544 3.46684 -2.30107 0
M  V30 8570 H 794.42 4.80391 -2.65548 0
M  V30 8571 H 794.681 4.30861 -0.990536 0
M  V30 8572 N 793.74 1.17359 1.05189 0
M  V30 8573 C 794.688 0.886527 2.15043 0
M  V30 8574 C 795.682 -0.148834 1.68745 0
M  V30 8575 O 796.888 -0.00175123 1.8 0
M  V30 8576 H 793.263 0.269147 0.702185 0
M  V30 8577 H 795.234 1.82016 2.36459 0
M  V30 8578 C 793.983 0.416333 3.45198 0
M  V30 8579 H 793.306 1.20449 3.81225 0
M  V30 8580 H 794.746 0.254362 4.23236 0
M  V30 8581 C 793.205 -0.866016 3.25579 0
M  V30 8582 O 793.735 -1.9328 3.52144 0
M  V30 8583 N 791.941 -0.814179 2.78961 0
M  V30 8584 H 791.488 0.0541618 2.57543 0
M  V30 8585 H 791.446 -1.67264 2.66214 0
M  V30 8586 N 795.218 -1.23913 0.973828 0
M  V30 8587 C 796.151 -2.23647 0.45355 0
M  V30 8588 C 797.129 -1.55485 -0.475724 0
M  V30 8589 O 798.313 -1.84083 -0.405689 0
M  V30 8590 C 795.44 -3.36942 -0.344594 0
M  V30 8591 C 794.486 -4.23221 0.527859 0
M  V30 8592 S 795.319 -4.97877 1.97177 0
M  V30 8593 C 796.475 -6.14627 1.18258 0
M  V30 8594 H 796.708 -2.67433 1.29873 0
M  V30 8595 H 794.241 -1.33289 0.779322 0
M  V30 8596 H 796.199 -4.02647 -0.799103 0
M  V30 8597 H 794.86 -2.91703 -1.16482 0
M  V30 8598 H 794.053 -5.03928 -0.0852555 0
M  V30 8599 H 793.655 -3.6255 0.918344 0
M  V30 8600 H 795.947 -6.76066 0.440629 0
M  V30 8601 H 796.89 -6.80311 1.96425 0
M  V30 8602 H 797.298 -5.6009 0.704256 0
M  V30 8603 N 796.696 -0.74468 -1.38897 0
M  V30 8604 C 797.606 -0.112892 -2.34328 0
M  V30 8605 C 798.622 0.71087 -1.58816 0
M  V30 8606 O 799.798 0.637092 -1.91058 0
M  V30 8607 C 796.863 0.776417 -3.37894 0
M  V30 8608 C 795.924 -0.0606999 -4.29257 0
M  V30 8609 C 795.157 0.786258 -5.27877 0
M  V30 8610 O 795.38 2.02463 -5.33259 0
M  V30 8611 O 794.314 0.209781 -6.01534 0
M  V30 8612 H 798.14 -0.900801 -2.90033 0
M  V30 8613 H 795.725 -0.505462 -1.4059 0
M  V30 8614 H 797.607 1.28496 -4.01331 0
M  V30 8615 H 796.282 1.54297 -2.84559 0
M  V30 8616 H 795.189 -0.614984 -3.69011 0
M  V30 8617 H 796.522 -0.789702 -4.85824 0
M  V30 8618 N 798.174 1.49689 -0.493057 0
M  V30 8619 C 799.59 1.58907 -0.148526 0
M  V30 8620 C 799.79 1.4991 1.34645 0
M  V30 8621 O 798.846 1.36893 2.12171 0
M  V30 8622 C 800.159 2.91996 -0.718265 0
M  V30 8623 C 801.707 3.05443 -0.683658 0
M  V30 8624 C 802.182 4.41138 -1.23132 0
M  V30 8625 N 803.673 4.47608 -1.19167 0
M  V30 8626 C 804.408 5.51038 -1.5857 0
M  V30 8627 N 803.904 6.61612 -2.05528 0
M  V30 8628 N 805.697 5.41706 -1.50036 0
M  V30 8629 H 797.848 1.5378 -1.46511 0
M  V30 8630 H 800.111 0.727996 -0.607228 0
M  V30 8631 H 799.817 3.04123 -1.7664 0
M  V30 8632 H 799.691 3.76798 -0.17419 0
M  V30 8633 H 802.078 2.92949 0.355626 0
M  V30 8634 H 802.159 2.22344 -1.26479 0
M  V30 8635 H 801.803 4.54382 -2.26935 0
M  V30 8636 H 801.733 5.22864 -0.626201 0
M  V30 8637 H 804.224 3.68274 -0.847524 0
M  V30 8638 H 804.537 7.36622 -2.33685 0
M  V30 8639 H 802.882 6.62674 -2.09497 0
M  V30 8640 H 806.073 4.54212 -1.13176 0
M  V30 8641 H 806.246 6.22188 -1.81068 0
M  V30 8642 N 799.652 0.226554 1.55963 0
M  V30 8643 C 800.929 -0.453058 1.90281 0
M  V30 8644 C 801.309 -1.77377 1.14458 0
M  V30 8645 O 800.657 -2.27067 0.255496 0
M  V30 8646 C 800.867 -0.641108 3.43061 0
M  V30 8647 C 802.215 -0.946265 4.13921 0
M  V30 8648 O 803.239 -0.727713 3.48687 0
M  V30 8649 O 802.098 -1.36131 5.29274 0
M  V30 8650 H 799.192 -0.240242 0.791336 0
M  V30 8651 H 801.738 0.26911 1.67553 0
M  V30 8652 H 800.51 0.290283 3.90222 0
M  V30 8653 H 800.133 -1.41458 3.71585 0
M  V30 8654 N 801.13 -1.57531 -0.0467866 0
M  V30 8655 C 802.06 -2.08425 -1.05268 0
M  V30 8656 C 803.041 -0.982941 -1.38825 0
M  V30 8657 O 804.226 -1.25716 -1.48018 0
M  V30 8658 C 801.356 -2.54897 -2.35891 0
M  V30 8659 C 800.31 -3.69132 -2.16623 0
M  V30 8660 C 799.636 -4.01747 -3.52851 0
M  V30 8661 C 800.936 -4.98243 -1.56689 0
M  V30 8662 H 802.63 -2.92716 -0.62908 0
M  V30 8663 H 800.176 -1.40816 -0.301156 0
M  V30 8664 H 802.129 -2.8912 -3.06574 0
M  V30 8665 H 800.853 -1.67666 -2.80278 0
M  V30 8666 H 799.512 -3.35231 -1.48377 0
M  V30 8667 H 799.16 -3.11608 -3.94853 0
M  V30 8668 H 798.86 -4.78681 -3.4079 0
M  V30 8669 H 800.384 -4.38487 -4.24925 0
M  V30 8670 H 801.798 -5.30535 -2.17268 0
M  V30 8671 H 800.195 -5.79669 -1.55255 0
M  V30 8672 H 801.265 -4.81986 -0.530827 0
M  V30 8673 N 802.608 0.318715 -1.54344 0
M  V30 8674 C 803.571 1.37545 -1.83342 0
M  V30 8675 C 804.571 1.445 -0.705444 0
M  V30 8676 O 805.761 1.44443 -0.973752 0
M  V30 8677 C 802.893 2.76225 -1.99781 0
M  V30 8678 H 804.086 1.13084 -2.77762 0
M  V30 8679 H 801.639 0.554457 -1.46135 0
M  V30 8680 H 802.374 3.05934 -1.07588 0
M  V30 8681 H 802.159 2.7257 -2.81865 0
M  V30 8682 H 803.649 3.52664 -2.23647 0
M  V30 8683 N 804.086 1.46499 0.581025 0
M  V30 8684 C 805.311 1.55708 1.37002 0
M  V30 8685 C 805.736 0.19942 1.8704 0
M  V30 8686 O 805.094 -0.820731 1.61659 0
M  V30 8687 C 805.142 2.56716 2.53238 0
M  V30 8688 O 804.246 2.10336 3.54729 0
M  V30 8689 H 803.587 0.523912 0.407937 0
M  V30 8690 H 806.117 1.92085 0.704602 0
M  V30 8691 H 806.127 2.76378 3.00132 0
M  V30 8692 H 804.802 3.55307 2.16171 0
M  V30 8693 H 803.379 2.00669 3.14303 0
M  V30 8694 N 805.565 -0.825799 1.34232 0
M  V30 8695 C 806.813 -1.57873 1.26177 0
M  V30 8696 C 807.134 -1.94267 -0.168904 0
M  V30 8697 O 806.404 -1.62045 -1.10084 0
M  V30 8698 H 804.984 -0.585388 0.464037 0
M  V30 8699 H 807.646 -0.986163 1.6811 0
M  V30 8700 H 806.742 -2.50283 1.86453 0
M  V30 8701 N 807.043 -1.17915 -1.04565 0
M  V30 8702 C 807.973 -0.925033 -2.14395 0
M  V30 8703 C 808.954 0.135375 -1.6956 0
M  V30 8704 O 810.139 -0.0161774 -1.94193 0
M  V30 8705 C 807.269 -0.444469 -3.44444 0
M  V30 8706 C 806.223 -1.44478 -4.02877 0
M  V30 8707 C 805.549 -0.821933 -5.28345 0
M  V30 8708 C 806.849 -2.81995 -4.39632 0
M  V30 8709 H 808.543 -1.84354 -2.35911 0
M  V30 8710 H 806.089 -0.887806 -1.13375 0
M  V30 8711 H 808.042 -0.254078 -4.20633 0
M  V30 8712 H 806.766 0.509592 -3.226 0
M  V30 8713 H 805.425 -1.62203 -3.28764 0
M  V30 8714 H 805.073 0.139161 -5.02807 0
M  V30 8715 H 804.773 -1.48976 -5.68401 0
M  V30 8716 H 806.297 -0.641959 -6.07216 0
M  V30 8717 H 807.711 -2.67952 -5.06828 0
M  V30 8718 H 806.108 -3.45414 -4.90723 0
M  V30 8719 H 807.178 -3.35927 -3.49687 0
M  V30 8720 N 808.521 1.23394 -0.980386 0
M  V30 8721 C 809.77 1.91116 -0.644785 0
M  V30 8722 C 810.083 1.77333 0.825367 0
M  V30 8723 O 811.289 2.39858 1.27203 0
M  V30 8724 C 809.745 3.42592 -1.10266 0
M  V30 8725 C 809.353 3.65037 -2.59715 0
M  V30 8726 C 811.097 4.1609 -0.8408 0
M  V30 8727 C 809.004 5.10148 -2.9917 0
M  V30 8728 H 807.934 0.715632 -0.23746 0
M  V30 8729 H 810.585 1.39829 -1.18828 0
M  V30 8730 H 808.967 3.92989 -0.487372 0
M  V30 8731 H 810.141 3.25186 -3.26482 0
M  V30 8732 H 808.456 3.04849 -2.83647 0
M  V30 8733 H 811.053 5.23021 -1.11143 0
M  V30 8734 H 811.396 4.15702 0.223085 0
M  V30 8735 H 811.929 3.71681 -1.41767 0
M  V30 8736 H 808.668 5.15668 -4.04682 0
M  V30 8737 H 808.188 5.50949 -2.37097 0
M  V30 8738 H 809.867 5.7848 -2.89775 0
M  V30 8739 N 809.999 0.752036 1.385 0
M  V30 8740 C 811.247 0.306895 1.99756 0
M  V30 8741 C 811.568 -1.11478 1.59992 0
M  V30 8742 O 810.838 -1.76206 0.856045 0
M  V30 8743 H 809.418 0.11048 0.738785 0
M  V30 8744 H 812.08 0.965785 1.69289 0
M  V30 8745 H 811.176 0.368797 3.09913 0
M  V30 8746 N 811.477 -1.49425 0.500989 0
M  V30 8747 C 812.888 -1.86624 0.0532011 0
M  V30 8748 C 813.239 -1.41331 -1.36088 0
M  V30 8749 O 812.364 -0.791195 -2.01418 0
M  V30 8750 C 812.959 -3.38681 0.0897693 0
M  V30 8751 C 811.518 -3.75181 -0.302677 0
M  V30 8752 C 810.665 -2.73419 0.462307 0
M  V30 8753 H 813.616 -1.41743 0.713773 0
M  V30 8754 H 813.637 -3.73902 -0.705528 0
M  V30 8755 H 813.149 -3.71616 1.11907 0
M  V30 8756 H 811.25 -3.47855 -1.33521 0
M  V30 8757 H 811.363 -4.79097 0.0167653 0
M  V30 8758 H 809.727 -2.54548 -0.0878557 0
M  V30 8759 H 810.51 -3.09198 1.49169 0
M  V30 8760 N 812.955 -0.234822 -1.55841 0
M  V30 8761 C 813.885 0.664217 -2.23854 0
M  V30 8762 C 814.866 1.19076 -1.2147 0
M  V30 8763 O 816.051 1.23232 -1.50091 0
M  V30 8764 C 813.181 1.86666 -2.9287 0
M  V30 8765 C 812.135 1.47341 -4.01839 0
M  V30 8766 C 811.461 2.75571 -4.58219 0
M  V30 8767 C 812.761 0.653479 -5.18196 0
M  V30 8768 H 814.455 0.0971213 -2.99242 0
M  V30 8769 H 812.001 0.0452724 -1.43929 0
M  V30 8770 H 813.954 2.50116 -3.39146 0
M  V30 8771 H 812.678 2.45894 -2.1495 0
M  V30 8772 H 811.337 0.862314 -3.56314 0
M  V30 8773 H 810.985 3.32971 -3.77014 0
M  V30 8774 H 810.685 2.49987 -5.31771 0
M  V30 8775 H 812.209 3.39939 -5.07221 0
M  V30 8776 H 813.623 1.19198 -5.60771 0
M  V30 8777 H 812.02 0.494188 -5.98062 0
M  V30 8778 H 813.09 -0.337004 -4.83728 0
M  V30 8779 N 814.433 1.57553 0.0384317 0
M  V30 8780 C 815.363 2.0898 1.04161 0
M  V30 8781 C 816.344 0.99029 1.38301 0
M  V30 8782 O 817.529 1.26499 1.47349 0
M  V30 8783 C 814.659 2.56145 2.34536 0
M  V30 8784 C 813.613 3.70275 2.14663 0
M  V30 8785 C 812.939 4.03612 3.50715 0
M  V30 8786 C 814.239 4.99067 1.54045 0
M  V30 8787 H 815.933 2.93046 0.613548 0
M  V30 8788 H 813.479 1.40973 0.293684 0
M  V30 8789 H 815.432 2.90741 3.05037 0
M  V30 8790 H 814.156 1.6915 2.79385 0
M  V30 8791 H 812.815 3.36013 1.46597 0
M  V30 8792 H 812.463 3.13698 3.93195 0
M  V30 8793 H 812.163 4.80482 3.38247 0
M  V30 8794 H 813.687 4.40735 4.22593 0
M  V30 8795 H 815.101 5.3168 2.14451 0
M  V30 8796 H 813.498 5.80484 1.52178 0
M  V30 8797 H 814.568 4.8226 0.505259 0
M  V30 8798 N 815.911 -0.310526 1.54511 0
M  V30 8799 C 817.16 -1.0445 1.72549 0
M  V30 8800 C 817.473 -1.88748 0.513172 0
M  V30 8801 O 818.679 -2.65338 0.575165 0
M  V30 8802 C 817.135 -1.90665 3.05246 0
M  V30 8803 C 816.743 -1.11415 4.33925 0
M  V30 8804 C 818.487 -2.63719 3.32645 0
M  V30 8805 C 816.394 -1.96852 5.57677 0
M  V30 8806 H 815.324 -0.393676 0.643067 0
M  V30 8807 H 817.975 -0.302003 1.80998 0
M  V30 8808 H 816.357 -2.68864 2.90737 0
M  V30 8809 H 817.531 -0.378956 4.59239 0
M  V30 8810 H 815.846 -0.499853 4.13389 0
M  V30 8811 H 818.443 -3.27974 4.223 0
M  V30 8812 H 818.786 -3.32047 2.51098 0
M  V30 8813 H 819.319 -1.92574 3.48081 0
M  V30 8814 H 816.058 -1.33009 6.41864 0
M  V30 8815 H 815.578 -2.68069 5.36562 0
M  V30 8816 H 817.257 -2.55127 5.94575 0
M  V30 8817 N 817.389 -1.46805 -0.573248 0
M  V30 8818 C 818.629 -1.5417 -1.34205 0
M  V30 8819 C 818.993 -0.192675 -1.91031 0
M  V30 8820 O 820.194 -0.141111 -2.68429 0
M  V30 8821 C 818.465 -2.61682 -2.43428 0
M  V30 8822 S 820.024 -2.88519 -3.30609 0
M  V30 8823 H 816.842 -0.544592 -0.4571 0
M  V30 8824 H 819.444 -1.84094 -0.658001 0
M  V30 8825 H 818.148 -3.58319 -2.00088 0
M  V30 8826 H 817.679 -2.33521 -3.16594 0
M  V30 8827 H 819.694 -2.2451 -4.42504 0
M  V30 8828 N 818.867 0.818669 -1.34668 0
M  V30 8829 C 820.097 1.60441 -1.30162 0
M  V30 8830 C 820.505 1.88783 0.125579 0
M  V30 8831 O 819.848 1.48281 1.08437 0
M  V30 8832 C 819.91 2.96794 -2.02864 0
M  V30 8833 C 819.574 2.91327 -3.52105 0
M  V30 8834 C 820.571 2.65611 -4.4693 0
M  V30 8835 C 818.256 3.10825 -3.9458 0
M  V30 8836 C 820.25 2.59452 -5.82206 0
M  V30 8837 C 817.937 3.0429 -5.29954 0
M  V30 8838 C 818.935 2.78637 -6.23579 0
M  V30 8839 O 818.623 2.72042 -7.56471 0
M  V30 8840 H 818.355 0.505278 -0.449077 0
M  V30 8841 H 820.909 1.02632 -1.77921 0
M  V30 8842 H 819.139 3.56538 -1.49725 0
M  V30 8843 H 820.828 3.57837 -1.91592 0
M  V30 8844 H 821.594 2.50278 -4.15434 0
M  V30 8845 H 817.473 3.29807 -3.221 0
M  V30 8846 H 821.017 2.39349 -6.55254 0
M  V30 8847 H 816.914 3.19177 -5.61067 0
M  V30 8848 H 817.682 2.87738 -7.66257 0
M  V30 8849 N 820.346 1.18468 1.03938 0
M  V30 8850 C 821.293 0.912859 2.1198 0
M  V30 8851 C 822.263 -0.14824 1.65437 0
M  V30 8852 O 823.448 -0.008331 1.90798 0
M  V30 8853 C 820.588 0.446114 3.42204 0
M  V30 8854 C 819.701 1.57278 4.02353 0
M  V30 8855 C 818.836 1.05863 5.20544 0
M  V30 8856 C 817.875 2.1599 5.72726 0
M  V30 8857 N 817.012 1.65959 6.82204 0
M  V30 8858 H 821.852 1.83798 2.34569 0
M  V30 8859 H 819.389 0.916504 1.15059 0
M  V30 8860 H 821.347 0.15697 4.16905 0
M  V30 8861 H 819.977 -0.442025 3.19759 0
M  V30 8862 H 819.029 1.97737 3.24968 0
M  V30 8863 H 820.341 2.40289 4.37107 0
M  V30 8864 H 819.495 0.724087 6.02364 0
M  V30 8865 H 818.234 0.198116 4.87297 0
M  V30 8866 H 817.239 2.50287 4.89527 0
M  V30 8867 H 818.464 3.02479 6.08016 0
M  V30 8868 H 816.41 0.82199 6.5083 0
M  V30 8869 H 816.327 2.42567 7.16029 0
M  V30 8870 H 817.595 1.35436 7.67644 0
M  V30 8871 N 821.824 -1.22873 0.986916 0
M  V30 8872 C 822.734 -2.28277 0.540978 0
M  V30 8873 C 823.75 -1.69164 -0.407363 0
M  V30 8874 O 824.926 -1.99504 -0.275674 0
M  V30 8875 C 821.991 -3.46404 -0.143181 0
M  V30 8876 C 821.052 -4.20854 0.847375 0
M  V30 8877 C 820.285 -5.33341 0.19577 0
M  V30 8878 O 820.508 -5.61356 -1.0117 0
M  V30 8879 O 819.442 -5.95169 0.897623 0
M  V30 8880 H 823.268 -2.68578 1.41773 0
M  V30 8881 H 820.853 -1.28927 0.754867 0
M  V30 8882 H 822.735 -4.18096 -0.526676 0
M  V30 8883 H 821.41 -3.08041 -0.994593 0
M  V30 8884 H 820.317 -3.51459 1.28169 0
M  V30 8885 H 821.65 -4.63082 1.6678 0
M  V30 8886 N 823.302 -0.75937 -1.38099 0
M  V30 8887 C 824.527 -0.327859 -2.04792 0
M  V30 8888 C 824.952 1.03752 -1.56899 0
M  V30 8889 O 824.31 1.66235 -0.723581 0
M  V30 8890 C 824.358 -0.366264 -3.58735 0
M  V30 8891 O 823.462 0.637697 -4.0744 0
M  V30 8892 H 822.803 -0.144092 -0.648177 0
M  V30 8893 H 825.333 -1.03211 -1.7666 0
M  V30 8894 H 825.343 -0.219179 -4.07411 0
M  V30 8895 H 824.018 -1.36243 -3.92951 0
M  V30 8896 H 822.595 0.454749 -3.70117 0
M  V30 8897 N 824.78 1.49157 -0.508906 0
M  V30 8898 C 826.026 2.02773 0.0328469 0
M  V30 8899 C 826.359 1.38714 1.35912 0
M  V30 8900 O 825.634 0.525536 1.87266 0
M  V30 8901 C 825.917 3.59664 0.177088 0
M  V30 8902 C 825.77 4.34239 -1.17287 0
M  V30 8903 C 827.089 4.30505 0.913977 0
M  V30 8904 H 824.208 0.736926 0.0104631 0
M  V30 8905 H 826.85 1.781 -0.661851 0
M  V30 8906 H 825 3.80818 0.768774 0
M  V30 8907 H 826.672 4.24561 -1.80404 0
M  V30 8908 H 824.915 3.96486 -1.76016 0
M  V30 8909 H 825.586 5.42397 -1.02516 0
M  V30 8910 H 828.062 4.14054 0.412084 0
M  V30 8911 H 826.938 5.40012 0.983759 0
M  V30 8912 H 827.199 3.96302 1.95951 0
M  V30 8913 N 826.258 0.243083 1.55714 0
M  V30 8914 C 827.535 -0.432851 1.90751 0
M  V30 8915 C 827.915 -1.76153 1.16333 0
M  V30 8916 O 827.263 -2.26783 0.279565 0
M  V30 8917 C 827.473 -0.604685 3.43722 0
M  V30 8918 C 828.821 -0.90231 4.14902 0
M  V30 8919 O 829.845 -0.690689 3.49439 0
M  V30 8920 O 828.704 -1.3051 5.30688 0
M  V30 8921 H 825.798 -0.231835 0.79384 0
M  V30 8922 H 828.344 0.286867 1.67258 0
M  V30 8923 H 827.116 0.331655 3.89892 0
M  V30 8924 H 826.739 -1.37509 3.73065 0
M  V30 8925 N 827.736 -1.57571 -0.0300757 0
M  V30 8926 C 828.668 -2.0329 -1.05857 0
M  V30 8927 C 829.681 -0.945543 -1.32527 0
M  V30 8928 O 830.87 -1.22287 -1.30032 0
M  V30 8929 C 827.97 -2.39234 -2.40042 0
M  V30 8930 C 827.143 -3.70337 -2.32743 0
M  V30 8931 C 826.202 -3.93482 -3.49369 0
M  V30 8932 O 825.228 -4.64551 -3.28909 0
M  V30 8933 N 826.43 -3.39042 -4.71201 0
M  V30 8934 H 829.195 -2.9214 -0.668897 0
M  V30 8935 H 826.756 -1.60425 -0.218038 0
M  V30 8936 H 828.748 -2.51856 -3.16782 0
M  V30 8937 H 827.318 -1.5606 -2.70858 0
M  V30 8938 H 826.538 -3.68079 -1.41109 0
M  V30 8939 H 827.826 -4.56343 -2.25007 0
M  V30 8940 H 827.224 -2.81434 -4.90725 0
M  V30 8941 H 825.781 -3.57045 -5.45309 0
M  V30 8942 N 829.214 0.302327 -1.54673 0
M  V30 8943 C 830.63 0.647911 -1.45857 0
M  V30 8944 C 830.83 1.90773 -0.64869 0
M  V30 8945 O 829.886 2.52018 -0.155865 0
M  V30 8946 C 831.199 0.802144 -2.89804 0
M  V30 8947 C 832.747 0.898114 -2.99838 0
M  V30 8948 C 833.222 1.08436 -4.44978 0
M  V30 8949 N 834.713 1.15059 -4.48682 0
M  V30 8950 C 835.448 1.31296 -5.58166 0
M  V30 8951 N 834.944 1.4444 -6.77576 0
M  V30 8952 N 836.737 1.34174 -5.45851 0
M  V30 8953 H 828.888 -0.525428 -2.05798 0
M  V30 8954 H 831.151 -0.173423 -0.932002 0
M  V30 8955 H 830.857 -0.0526531 -3.51661 0
M  V30 8956 H 830.731 1.69155 -3.37145 0
M  V30 8957 H 833.118 1.7434 -2.38096 0
M  V30 8958 H 833.199 -0.0152752 -2.55795 0
M  V30 8959 H 832.843 0.243843 -5.07314 0
M  V30 8960 H 832.773 2.01195 -4.8665 0
M  V30 8961 H 835.264 1.0626 -3.62653 0
M  V30 8962 H 835.577 1.56582 -7.56771 0
M  V30 8963 H 833.922 1.41499 -6.80443 0
M  V30 8964 H 837.113 1.23516 -4.5151 0
M  V30 8965 H 837.286 1.46485 -6.31226 0
M  V30 8966 N 830.692 1.47107 0.565454 0
M  V30 8967 C 831.94 1.53005 1.32038 0
M  V30 8968 C 832.261 0.190453 1.94068 0
M  V30 8969 O 831.531 -0.784783 1.79494 0
M  V30 8970 H 830.111 0.563578 0.490294 0
M  V30 8971 H 832.773 1.83351 0.660928 0
M  V30 8972 H 831.869 2.29215 2.11818 0
M  V30 8973 N 832.17 -0.811516 1.35101 0
M  V30 8974 C 833.118 -1.94449 1.27642 0
M  V30 8975 C 834.112 -1.68522 0.172287 0
M  V30 8976 O 835.318 -1.76799 0.337967 0
M  V30 8977 H 831.693 -0.638776 0.396824 0
M  V30 8978 H 833.664 -1.97861 2.23369 0
M  V30 8979 C 832.413 -3.31139 1.06029 0
M  V30 8980 H 831.736 -3.51644 1.90227 0
M  V30 8981 H 833.176 -4.10831 1.0485 0
M  V30 8982 C 831.635 -3.36072 -0.236039 0
M  V30 8983 O 832.165 -3.82292 -1.23353 0
M  V30 8984 N 830.371 -2.89314 -0.273107 0
M  V30 8985 H 829.918 -2.51893 0.539211 0
M  V30 8986 H 829.876 -2.92996 -1.1402 0
M  V30 8987 N 833.648 -1.19017 -1.03309 0
M  V30 8988 C 834.58 -0.881847 -2.11556 0
M  V30 8989 C 835.593 0.123711 -1.62329 0
M  V30 8990 O 836.782 -0.105141 -1.7819 0
M  V30 8991 C 833.882 -0.297634 -3.37591 0
M  V30 8992 C 833.055 -1.35072 -4.16022 0
M  V30 8993 C 832.114 -0.780812 -5.20375 0
M  V30 8994 O 831.14 -1.45745 -5.50224 0
M  V30 8995 N 832.342 0.417964 -5.78993 0
M  V30 8996 H 835.107 -1.81359 -2.38598 0
M  V30 8997 H 832.668 -1.0916 -1.19565 0
M  V30 8998 H 834.66 0.097374 -4.04583 0
M  V30 8999 H 833.23 0.538299 -3.0793 0
M  V30 9000 H 832.45 -1.92074 -3.4424 0
M  V30 9001 H 833.738 -2.06044 -4.65213 0
M  V30 9002 H 833.136 0.985281 -5.57054 0
M  V30 9003 H 831.693 0.754802 -6.47415 0
M  V30 9004 N 835.127 1.22348 -0.993418 0
M  V30 9005 C 836.376 1.90422 -0.665019 0
M  V30 9006 C 836.689 1.78199 0.806512 0
M  V30 9007 O 837.895 2.41193 1.24652 0
M  V30 9008 C 836.351 3.41403 -1.13893 0
M  V30 9009 C 835.959 3.62262 -2.63572 0
M  V30 9010 C 837.703 4.15175 -0.884884 0
M  V30 9011 C 835.61 5.06947 -3.04564 0
M  V30 9012 H 834.54 0.713073 -0.245037 0
M  V30 9013 H 837.191 1.3856 -1.20305 0
M  V30 9014 H 835.573 3.9245 -0.529027 0
M  V30 9015 H 836.747 3.21705 -3.29913 0
M  V30 9016 H 835.062 3.01824 -2.86865 0
M  V30 9017 H 837.659 5.21813 -1.16684 0
M  V30 9018 H 838.002 4.15915 0.178982 0
M  V30 9019 H 838.535 3.70157 -1.45701 0
M  V30 9020 H 835.274 5.11346 -4.10128 0
M  V30 9021 H 834.794 5.48404 -2.42927 0
M  V30 9022 H 836.473 5.75374 -2.95894 0
M  V30 9023 N 836.605 0.766683 1.37694 0
M  V30 9024 C 837.538 0.0959288 2.27998 0
M  V30 9025 C 838.516 -0.714493 1.46061 0
M  V30 9026 O 839.7 -0.690337 1.75404 0
M  V30 9027 C 836.827 -0.87057 3.27321 0
M  V30 9028 C 835.873 -0.144771 4.26254 0
M  V30 9029 S 836.706 1.16365 5.22704 0
M  V30 9030 C 837.862 0.200564 6.25579 0
M  V30 9031 H 838.095 0.861666 2.84539 0
M  V30 9032 H 835.628 0.559845 1.43893 0
M  V30 9033 H 837.586 -1.42282 3.85053 0
M  V30 9034 H 836.247 -1.60938 2.69737 0
M  V30 9035 H 835.44 -0.877259 4.96307 0
M  V30 9036 H 835.042 0.33633 3.72485 0
M  V30 9037 H 837.334 -0.628833 6.74575 0
M  V30 9038 H 838.277 0.869117 7.02746 0
M  V30 9039 H 838.685 -0.185972 5.64194 0
M  V30 9040 N 838.083 -1.48885 0.516809 0
M  V30 9041 C 839.308 -2.0739 -0.0205201 0
M  V30 9042 C 839.733 -1.37259 -1.28614 0
M  V30 9043 O 839.091 -0.434304 -1.76021 0
M  V30 9044 C 839.139 -3.59793 -0.24104 0
M  V30 9045 O 838.243 -3.90957 -1.31251 0
M  V30 9046 H 837.584 -0.663167 0.0332564 0
M  V30 9047 H 840.114 -1.91477 0.720956 0
M  V30 9048 H 840.124 -4.0531 -0.467737 0
M  V30 9049 H 838.799 -4.10244 0.68356 0
M  V30 9050 H 837.376 -3.57234 -1.06951 0
M  V30 9051 N 839.561 -0.251338 -1.55583 0
M  V30 9052 C 840.838 0.422729 -1.90977 0
M  V30 9053 C 841.218 1.75534 -1.17265 0
M  V30 9054 O 840.566 2.26632 -0.291588 0
M  V30 9055 C 840.776 0.586448 -3.44037 0
M  V30 9056 C 842.124 0.880294 -4.15375 0
M  V30 9057 O 843.148 0.672148 -3.49801 0
M  V30 9058 O 842.007 1.27694 -5.31372 0
M  V30 9059 H 839.101 0.227622 -0.795058 0
M  V30 9060 H 841.647 -0.295733 -1.67103 0
M  V30 9061 H 840.419 -0.352327 -3.89711 0
M  V30 9062 H 840.042 1.35528 -3.73789 0
M  V30 9063 N 841.039 1.57585 0.0217189 0
M  V30 9064 C 841.986 2.07036 1.02004 0
M  V30 9065 C 842.956 0.96106 1.35473 0
M  V30 9066 O 844.141 1.23211 1.45684 0
M  V30 9067 C 841.281 2.56056 2.31364 0
M  V30 9068 C 840.394 3.80805 2.03989 0
M  V30 9069 C 839.529 4.18409 3.27272 0
M  V30 9070 C 838.568 5.36055 2.95486 0
M  V30 9071 N 837.705 5.69056 4.11242 0
M  V30 9072 H 842.545 2.92073 0.591396 0
M  V30 9073 H 840.082 1.44403 0.280384 0
M  V30 9074 H 842.04 2.82548 3.06957 0
M  V30 9075 H 840.67 1.73925 2.71937 0
M  V30 9076 H 839.722 3.61354 1.1886 0
M  V30 9077 H 841.034 4.66512 1.76546 0
M  V30 9078 H 840.188 4.46068 4.11228 0
M  V30 9079 H 838.927 3.31369 3.57835 0
M  V30 9080 H 837.932 5.08142 2.09933 0
M  V30 9081 H 839.157 6.24755 2.66193 0
M  V30 9082 H 837.103 4.84974 4.41742 0
M  V30 9083 H 837.02 6.49288 3.87247 0
M  V30 9084 H 838.288 6.01295 4.96049 0
M  V30 9085 N 842.517 -0.29412 1.54831 0
M  V30 9086 C 843.933 -0.640167 1.46199 0
M  V30 9087 C 844.133 -1.90426 0.658798 0
M  V30 9088 O 843.189 -2.51932 0.169228 0
M  V30 9089 C 844.502 -0.786763 2.90225 0
M  V30 9090 C 846.05 -0.882201 3.0031 0
M  V30 9091 C 846.525 -1.06074 4.45547 0
M  V30 9092 N 848.016 -1.12678 4.49286 0
M  V30 9093 C 848.751 -1.28334 5.58854 0
M  V30 9094 N 848.247 -1.40845 6.78332 0
M  V30 9095 N 850.04 -1.31277 5.46555 0
M  V30 9096 H 842.191 0.536334 2.05517 0
M  V30 9097 H 844.454 0.178363 0.93107 0
M  V30 9098 H 844.16 0.0713018 3.51628 0
M  V30 9099 H 844.034 -1.67364 3.38037 0
M  V30 9100 H 846.421 -1.73075 2.39017 0
M  V30 9101 H 846.502 0.0288405 2.55784 0
M  V30 9102 H 846.146 -0.216935 5.07437 0
M  V30 9103 H 846.076 -1.98611 4.8771 0
M  V30 9104 H 848.567 -1.04335 3.63212 0
M  V30 9105 H 848.88 -1.52566 7.57591 0
M  V30 9106 H 847.225 -1.37888 6.81184 0
M  V30 9107 H 850.416 -1.2112 4.52159 0
M  V30 9108 H 850.589 -1.43136 6.31994 0
M  V30 9109 N 843.995 -1.47404 -0.557645 0
M  V30 9110 C 844.943 -1.60265 -1.68576 0
M  V30 9111 C 845.937 -0.469982 -1.6275 0
M  V30 9112 O 847.143 -0.647764 -1.67941 0
M  V30 9113 H 843.518 -0.504353 -0.557792 0
M  V30 9114 H 845.489 -2.55066 -1.54867 0
M  V30 9115 C 844.238 -1.63369 -3.0693 0
M  V30 9116 H 843.561 -2.49874 -3.12095 0
M  V30 9117 H 845.001 -1.76417 -3.85556 0
M  V30 9118 C 843.46 -0.366921 -3.34896 0
M  V30 9119 O 843.99 0.53218 -3.98159 0
M  V30 9120 N 842.196 -0.247082 -2.89548 0
M  V30 9121 H 841.743 -0.979669 -2.38244 0
M  V30 9122 H 841.701 0.599552 -3.0863 0
M  V30 9123 N 845.473 0.80434 -1.35529 0
M  V30 9124 C 846.719 1.56385 -1.29118 0
M  V30 9125 C 847.052 1.9374 0.133536 0
M  V30 9126 O 846.327 1.6153 1.08344 0
M  V30 9127 C 846.61 2.85097 -2.19981 0
M  V30 9128 C 846.463 2.54204 -3.7108 0
M  V30 9129 C 847.782 3.86817 -2.09907 0
M  V30 9130 H 844.901 0.567382 -0.470368 0
M  V30 9131 H 847.543 0.925235 -1.6595 0
M  V30 9132 H 845.693 3.39594 -1.88701 0
M  V30 9133 H 847.365 2.05872 -4.12813 0
M  V30 9134 H 845.608 1.87364 -3.91251 0
M  V30 9135 H 846.279 3.46068 -4.30048 0
M  V30 9136 H 848.755 3.41725 -2.37409 0
M  V30 9137 H 847.631 4.7465 -2.75678 0
M  V30 9138 H 847.892 4.28663 -1.08171 0
M  V30 9139 N 846.951 1.19563 1.02676 0
M  V30 9140 C 848.2 0.993864 1.75514 0
M  V30 9141 C 848.513 -0.475882 1.89723 0
M  V30 9142 O 849.719 -0.796525 2.59553 0
M  V30 9143 C 848.175 1.72937 3.15628 0
M  V30 9144 C 847.783 3.23937 3.09466 0
M  V30 9145 C 849.527 1.61092 3.92746 0
M  V30 9146 C 847.434 3.90067 4.44524 0
M  V30 9147 H 846.364 0.368244 0.657961 0
M  V30 9148 H 849.015 1.43081 1.14891 0
M  V30 9149 H 847.397 1.22025 3.76731 0
M  V30 9150 H 848.571 3.81983 2.57731 0
M  V30 9151 H 846.886 3.3608 2.45843 0
M  V30 9152 H 849.483 2.07848 4.92649 0
M  V30 9153 H 849.826 0.565415 4.12442 0
M  V30 9154 H 850.359 2.09361 3.3825 0
M  V30 9155 H 847.098 4.94725 4.30032 0
M  V30 9156 H 846.618 3.36809 4.96306 0
M  V30 9157 H 848.297 3.93736 5.13401 0
M  V30 9158 N 848.429 -1.21819 0.999893 0
M  V30 9159 C 849.359 -2.26282 0.576096 0
M  V30 9160 C 850.34 -1.65317 -0.400537 0
M  V30 9161 O 851.525 -1.92028 -0.28964 0
M  V30 9162 C 848.655 -3.47147 -0.103145 0
M  V30 9163 C 847.609 -4.20594 0.792745 0
M  V30 9164 C 846.935 -5.34696 -0.0198026 0
M  V30 9165 C 848.235 -4.78533 2.09293 0
M  V30 9166 H 849.929 -2.61984 1.4493 0
M  V30 9167 H 847.475 -1.25935 0.698316 0
M  V30 9168 H 849.428 -4.1939 -0.411068 0
M  V30 9169 H 848.152 -3.1056 -1.01094 0
M  V30 9170 H 846.811 -3.50194 1.08442 0
M  V30 9171 H 846.459 -4.94352 -0.928729 0
M  V30 9172 H 846.159 -5.84764 0.576661 0
M  V30 9173 H 847.683 -6.09752 -0.321659 0
M  V30 9174 H 849.097 -5.42682 1.8485 0
M  V30 9175 H 847.494 -5.38968 2.63881 0
M  V30 9176 H 848.564 -3.98197 2.76708 0
M  V30 9177 N 849.908 -0.773975 -1.37286 0
M  V30 9178 C 851.155 -0.339306 -1.99637 0
M  V30 9179 C 851.483 1.08478 -1.61439 0
M  V30 9180 O 850.738 1.7612 -0.853252 0
M  V30 9181 C 851.037 -0.432651 -3.54772 0
M  V30 9182 C 850.703 -1.81531 -4.12744 0
M  V30 9183 C 849.365 -2.19366 -4.2829 0
M  V30 9184 C 851.717 -2.72137 -4.44512 0
M  V30 9185 C 849.045 -3.47239 -4.72908 0
M  V30 9186 C 851.397 -3.99421 -4.90556 0
M  V30 9187 C 850.061 -4.37298 -5.04308 0
M  V30 9188 H 849.331 -0.124161 -0.730524 0
M  V30 9189 H 851.978 -0.988432 -1.64019 0
M  V30 9190 H 850.283 0.30001 -3.9065 0
M  V30 9191 H 851.98 -0.0776 -4.00925 0
M  V30 9192 H 848.57 -1.51126 -4.01072 0
M  V30 9193 H 852.754 -2.44165 -4.32084 0
M  V30 9194 H 848.01 -3.76477 -4.81742 0
M  V30 9195 H 852.184 -4.69756 -5.14104 0
M  V30 9196 H 849.811 -5.36442 -5.38641 0
M  V30 9197 N 851.386 1.48609 -0.524698 0
M  V30 9198 C 852.611 2.07398 0.00952139 0
M  V30 9199 C 853.036 1.37939 1.27884 0
M  V30 9200 O 852.394 0.443633 1.75788 0
M  V30 9201 C 852.442 3.59916 0.221956 0
M  V30 9202 O 851.546 3.91647 1.29175 0
M  V30 9203 H 850.887 0.662981 -0.0367729 0
M  V30 9204 H 853.417 1.91092 -0.7311 0
M  V30 9205 H 853.427 4.05552 0.446236 0
M  V30 9206 H 852.102 4.09876 -0.705306 0
M  V30 9207 H 850.679 3.57796 1.05055 0
M  V30 9208 N 852.864 0.259585 1.55447 0
M  V30 9209 C 854.11 -0.362143 1.9954 0
M  V30 9210 C 854.443 -1.5666 1.14767 0
M  V30 9211 O 853.718 -1.93319 0.214025 0
M  V30 9212 C 854.001 -0.759588 3.51998 0
M  V30 9213 C 853.854 0.451134 4.47532 0
M  V30 9214 C 855.173 -1.60186 4.09913 0
M  V30 9215 H 852.292 -0.130157 0.725416 0
M  V30 9216 H 854.934 0.363431 1.86492 0
M  V30 9217 H 853.084 -1.3778 3.63248 0
M  V30 9218 H 854.756 1.08965 4.48246 0
M  V30 9219 H 852.999 1.092 4.19831 0
M  V30 9220 H 853.67 0.129518 5.51848 0
M  V30 9221 H 856.146 -1.0799 4.01842 0
M  V30 9222 H 855.022 -1.84879 5.16828 0
M  V30 9223 H 855.283 -2.57787 3.59163 0
M  V30 9224 N 854.342 -1.57594 -0.0133615 0
M  V30 9225 C 855.589 -1.8998 -0.70098 0
M  V30 9226 C 855.917 -0.858802 -1.74513 0
M  V30 9227 O 855.172 0.138209 -1.95211 0
M  V30 9228 C 855.471 -3.29121 -1.39336 0
M  V30 9229 C 855.137 -4.48298 -0.483687 0
M  V30 9230 C 853.799 -4.80635 -0.233186 0
M  V30 9231 C 856.151 -5.21003 0.143426 0
M  V30 9232 C 853.479 -5.83055 0.652943 0
M  V30 9233 C 855.831 -6.24366 1.01735 0
M  V30 9234 C 854.495 -6.55168 1.27716 0
M  V30 9235 H 853.765 -0.695187 -0.256507 0
M  V30 9236 H 856.412 -1.9146 0.0392965 0
M  V30 9237 H 854.717 -3.23703 -2.20735 0
M  V30 9238 H 856.414 -3.51433 -1.93121 0
M  V30 9239 H 853.004 -4.23024 -0.689092 0
M  V30 9240 H 857.188 -4.96286 -0.0371139 0
M  V30 9241 H 852.444 -6.05288 0.862379 0
M  V30 9242 H 856.618 -6.79839 1.5097 0
M  V30 9243 H 854.245 -7.34351 1.9655 0
M  V30 9244 N 855.82 0.285905 -1.54985 0
M  V30 9245 C 857.097 1.0397 -1.65679 0
M  V30 9246 C 857.477 2.04725 -0.514851 0
M  V30 9247 O 856.825 2.23257 0.486663 0
M  V30 9248 C 857.035 1.70807 -3.04345 0
M  V30 9249 C 858.383 2.22447 -3.61666 0
M  V30 9250 O 859.407 1.80815 -3.06895 0
M  V30 9251 O 858.266 2.98773 -4.57599 0
M  V30 9252 H 855.36 0.481473 -0.672394 0
M  V30 9253 H 857.906 0.282789 -1.67327 0
M  V30 9254 H 856.678 0.977271 -3.789 0
M  V30 9255 H 856.301 2.53217 -3.06541 0
M  V30 9256 N 857.298 1.47698 0.54982 0
M  V30 9257 C 858.208 1.63386 1.68351 0
M  V30 9258 C 859.224 0.516583 1.66155 0
M  V30 9259 O 860.4 0.785088 1.85468 0
M  V30 9260 C 857.465 1.6513 3.04849 0
M  V30 9261 C 856.526 2.88338 3.18056 0
M  V30 9262 C 855.759 2.8999 4.48042 0
M  V30 9263 O 855.982 2.00633 5.3395 0
M  V30 9264 O 854.916 3.81938 4.65196 0
M  V30 9265 H 858.742 2.59329 1.58057 0
M  V30 9266 H 856.327 1.30869 0.72067 0
M  V30 9267 H 858.209 1.68913 3.86065 0
M  V30 9268 H 856.884 0.723555 3.1551 0
M  V30 9269 H 855.791 2.90097 2.36209 0
M  V30 9270 H 857.124 3.80431 3.12302 0
M  V30 9271 N 858.776 -0.797141 1.35954 0
M  V30 9272 C 859.724 -1.93084 1.29697 0
M  V30 9273 C 860.718 -1.68329 0.190152 0
M  V30 9274 O 861.924 -1.7643 0.3567 0
M  V30 9275 H 858.299 -0.634531 0.403577 0
M  V30 9276 H 860.27 -1.95481 2.25455 0
M  V30 9277 C 859.019 -3.29996 1.09536 0
M  V30 9278 H 858.342 -3.49607 1.93946 0
M  V30 9279 H 859.782 -4.09696 1.09202 0
M  V30 9280 C 858.241 -3.36304 -0.200381 0
M  V30 9281 O 858.771 -3.83579 -1.19291 0
M  V30 9282 N 856.977 -2.89587 -0.242406 0
M  V30 9283 H 856.524 -2.51307 0.565897 0
M  V30 9284 H 856.482 -2.94189 -1.10906 0
M  V30 9285 N 860.254 -1.20106 -1.0204 0
M  V30 9286 C 861.67 -0.955099 -1.27867 0
M  V30 9287 C 861.87 0.367595 -1.98119 0
M  V30 9288 O 860.926 1.09705 -2.27423 0
M  V30 9289 C 862.239 -2.13507 -2.11744 0
M  V30 9290 C 863.787 -2.17563 -2.25023 0
M  V30 9291 C 864.262 -3.35035 -3.12275 0
M  V30 9292 N 865.753 -3.35024 -3.19864 0
M  V30 9293 C 866.488 -4.22566 -3.8759 0
M  V30 9294 N 865.984 -5.20278 -4.57474 0
M  V30 9295 N 867.777 -4.10418 -3.84075 0
M  V30 9296 H 859.928 -2.05193 -0.54861 0
M  V30 9297 H 862.191 -0.897689 -0.304728 0
M  V30 9298 H 861.897 -3.09275 -1.67456 0
M  V30 9299 H 861.771 -2.11281 -3.12474 0
M  V30 9300 H 864.158 -1.22359 -2.68537 0
M  V30 9301 H 864.239 -2.23838 -1.23815 0
M  V30 9302 H 863.883 -4.30522 -2.69468 0
M  V30 9303 H 863.813 -3.25996 -4.13563 0
M  V30 9304 H 866.304 -2.64299 -2.701 0
M  V30 9305 H 866.617 -5.83408 -5.06809 0
M  V30 9306 H 864.962 -5.24219 -4.56311 0
M  V30 9307 H 868.153 -3.33353 -3.28623 0
M  V30 9308 H 868.326 -4.78854 -4.36581 0
M  V30 9309 N 861.732 1.21287 -1.00634 0
M  V30 9310 C 862.957 1.94925 -0.708441 0
M  V30 9311 C 863.382 1.73659 0.722783 0
M  V30 9312 O 862.74 1.02429 1.49593 0
M  V30 9313 C 862.788 3.45377 -1.03667 0
M  V30 9314 O 861.892 4.12153 -0.142661 0
M  V30 9315 H 861.233 0.609338 -0.263824 0
M  V30 9316 H 863.763 1.54008 -1.34695 0
M  V30 9317 H 863.773 3.95954 -0.984086 0
M  V30 9318 H 862.448 3.6018 -2.0795 0
M  V30 9319 H 861.025 3.72048 -0.251888 0
M  V30 9320 N 863.21 0.781244 1.36873 0
M  V30 9321 C 864.456 0.359455 2.00199 0
M  V30 9322 C 864.811 -1.05495 1.60899 0
M  V30 9323 O 864.104 -1.7173 0.849664 0
M  V30 9324 C 864.298 0.45146 3.54537 0
M  V30 9325 C 864.127 1.87326 4.08826 0
M  V30 9326 C 862.897 2.49606 4.39346 0
M  V30 9327 C 865.095 2.8342 4.29159 0
M  V30 9328 N 863.077 3.8346 4.79408 0
M  V30 9329 C 864.448 4.02091 4.71935 0
M  V30 9330 C 866.503 2.80583 4.11312 0
M  V30 9331 C 865.206 5.18322 4.98733 0
M  V30 9332 C 867.232 3.95995 4.39251 0
M  V30 9333 C 866.594 5.13409 4.82276 0
M  V30 9334 H 862.693 0.178778 0.76129 0
M  V30 9335 H 865.277 1.0171 1.66022 0
M  V30 9336 H 863.448 -0.176055 3.88001 0
M  V30 9337 H 865.18 0.00670219 4.04699 0
M  V30 9338 H 861.935 2.01149 4.28761 0
M  V30 9339 H 862.359 4.52306 5.03735 0
M  V30 9340 H 867.001 1.90974 3.77212 0
M  V30 9341 H 864.719 6.08524 5.31718 0
M  V30 9342 H 868.305 3.95152 4.2702 0
M  V30 9343 H 867.185 6.01232 5.03478 0
M  V30 9344 N 864.689 -1.48329 0.532571 0
M  V30 9345 C 865.919 -2.066 0.00353785 0
M  V30 9346 C 866.327 -1.38913 -1.28451 0
M  V30 9347 O 865.67 -0.471385 -1.77549 0
M  V30 9348 C 865.732 -3.58342 -0.288324 0
M  V30 9349 C 865.396 -4.47917 0.906631 0
M  V30 9350 C 866.393 -4.87534 1.80572 0
M  V30 9351 C 864.078 -4.89783 1.11436 0
M  V30 9352 C 866.072 -5.6779 2.89642 0
M  V30 9353 C 863.759 -5.69809 2.20819 0
M  V30 9354 C 864.757 -6.08721 3.09755 0
M  V30 9355 O 864.445 -6.8714 4.17246 0
M  V30 9356 H 864.177 -0.675263 0.0315661 0
M  V30 9357 H 866.731 -1.91669 0.738375 0
M  V30 9358 H 864.961 -3.71395 -1.07717 0
M  V30 9359 H 866.65 -3.98726 -0.759752 0
M  V30 9360 H 867.416 -4.5581 1.65719 0
M  V30 9361 H 863.295 -4.58977 0.431382 0
M  V30 9362 H 866.839 -5.98082 3.59087 0
M  V30 9363 H 862.736 -6.00947 2.35655 0
M  V30 9364 H 863.504 -7.05498 4.14988 0
M  V30 9365 N 866.167 -0.267825 -1.55308 0
M  V30 9366 C 867.097 0.616585 -2.25212 0
M  V30 9367 C 868.078 1.16472 -1.23969 0
M  V30 9368 O 869.263 1.20021 -1.52672 0
M  V30 9369 C 866.393 1.80412 -2.96764 0
M  V30 9370 C 865.347 1.38784 -4.04874 0
M  V30 9371 C 864.673 2.65789 -4.63961 0
M  V30 9372 C 865.973 0.543415 -5.19465 0
M  V30 9373 H 867.667 0.0336257 -2.99381 0
M  V30 9374 H 865.213 0.0147328 -1.43992 0
M  V30 9375 H 867.166 2.42866 -3.44375 0
M  V30 9376 H 865.89 2.4128 -2.20118 0
M  V30 9377 H 864.549 0.786541 -3.58063 0
M  V30 9378 H 864.197 3.24899 -3.83992 0
M  V30 9379 H 863.897 2.38651 -5.36954 0
M  V30 9380 H 865.421 3.29104 -5.14318 0
M  V30 9381 H 866.835 1.07277 -5.63174 0
M  V30 9382 H 865.232 0.367219 -5.98975 0
M  V30 9383 H 866.302 -0.439534 -4.82904 0
M  V30 9384 N 867.645 1.57599 0.00500368 0
M  V30 9385 C 868.873 1.94626 0.702016 0
M  V30 9386 C 869.288 0.86953 1.67585 0
M  V30 9387 O 868.645 -0.15199 1.81866 0
M  V30 9388 C 868.696 3.31658 1.43824 0
M  V30 9389 O 868.417 4.35197 0.503467 0
M  V30 9390 C 869.918 3.83114 2.23021 0
M  V30 9391 H 867.138 0.641785 0.195841 0
M  V30 9392 H 869.682 2.04451 -0.0446287 0
M  V30 9393 H 867.837 3.23156 2.13655 0
M  V30 9394 H 868.251 5.1444 1.02235 0
M  V30 9395 H 869.725 4.81438 2.7004 0
M  V30 9396 H 870.202 3.15559 3.05482 0
M  V30 9397 H 870.808 3.94775 1.58216 0
M  V30 9398 N 869.123 -0.277682 1.55134 0
M  V30 9399 C 870.033 -1.36524 1.90783 0
M  V30 9400 C 871.049 -1.54283 0.804542 0
M  V30 9401 O 872.225 -1.68499 1.10318 0
M  V30 9402 C 869.29 -2.70524 2.16835 0
M  V30 9403 C 868.351 -2.61552 3.40424 0
M  V30 9404 C 867.584 -3.89162 3.65224 0
M  V30 9405 O 867.807 -4.89624 2.92616 0
M  V30 9406 O 866.741 -3.89647 4.58758 0
M  V30 9407 H 870.567 -1.0929 2.83354 0
M  V30 9408 H 868.152 -0.475799 1.41621 0
M  V30 9409 H 870.034 -3.49765 2.35038 0
M  V30 9410 H 868.709 -2.97555 1.27448 0
M  V30 9411 H 867.616 -1.80704 3.27562 0
M  V30 9412 H 868.949 -2.39472 4.30016 0
M  V30 9413 N 870.601 -1.47988 -0.541979 0
M  V30 9414 C 871.549 -1.62044 -1.66867 0
M  V30 9415 C 872.543 -0.487217 -1.62242 0
M  V30 9416 O 873.749 -0.66554 -1.67244 0
M  V30 9417 H 870.124 -0.51024 -0.552412 0
M  V30 9418 H 872.095 -2.56695 -1.52153 0
M  V30 9419 C 870.844 -1.66615 -3.0518 0
M  V30 9420 H 870.167 -2.5317 -3.09427 0
M  V30 9421 H 871.607 -1.80496 -3.83663 0
M  V30 9422 C 870.066 -0.402421 -3.34488 0
M  V30 9423 O 870.596 0.48992 -3.98701 0
M  V30 9424 N 868.802 -0.277778 -2.89269 0
M  V30 9425 H 868.349 -1.00488 -2.37192 0
M  V30 9426 H 868.307 0.566784 -3.09249 0
M  V30 9427 N 872.079 0.78992 -1.36375 0
M  V30 9428 C 873.328 1.54296 -1.29906 0
M  V30 9429 C 873.641 1.95234 0.119651 0
M  V30 9430 O 874.847 2.69762 0.306708 0
M  V30 9431 C 873.303 2.78533 -2.27919 0
M  V30 9432 C 872.911 2.44767 -3.75224 0
M  V30 9433 C 874.655 3.56516 -2.30427 0
M  V30 9434 C 872.562 3.65397 -4.65015 0
M  V30 9435 H 871.492 0.579214 -0.482729 0
M  V30 9436 H 874.143 0.866845 -1.61735 0
M  V30 9437 H 872.525 3.47941 -1.89084 0
M  V30 9438 H 873.699 1.83259 -4.22792 0
M  V30 9439 H 872.014 1.79996 -3.75487 0
M  V30 9440 H 874.611 4.46143 -2.94722 0
M  V30 9441 H 874.954 3.95063 -1.31266 0
M  V30 9442 H 875.487 2.94087 -2.67876 0
M  V30 9443 H 872.226 3.31946 -5.65236 0
M  V30 9444 H 871.746 4.26072 -4.22164 0
M  V30 9445 H 873.425 4.32431 -4.81261 0
M  V30 9446 N 873.557 1.20646 1.01402 0
M  V30 9447 C 874.489 0.915392 2.10127 0
M  V30 9448 C 875.502 -0.0978705 1.62506 0
M  V30 9449 O 876.691 0.133477 1.78 0
M  V30 9450 C 873.791 0.351304 3.37074 0
M  V30 9451 C 872.964 1.41673 4.13821 0
M  V30 9452 C 872.023 0.8635 5.19067 0
M  V30 9453 O 871.049 1.54481 5.47836 0
M  V30 9454 N 872.251 -0.325799 5.79585 0
M  V30 9455 H 875.016 1.85132 2.35682 0
M  V30 9456 H 872.577 1.11048 1.17813 0
M  V30 9457 H 874.569 -0.032996 4.04687 0
M  V30 9458 H 873.139 -0.489242 3.08748 0
M  V30 9459 H 872.359 1.97526 3.41141 0
M  V30 9460 H 873.647 2.1342 4.61876 0
M  V30 9461 H 873.045 -0.896534 5.58551 0
M  V30 9462 H 871.602 -0.651708 6.48534 0
M  V30 9463 N 875.035 -1.20752 1.01276 0
M  V30 9464 C 876.451 -1.42084 0.726934 0
M  V30 9465 C 876.651 -1.89138 -0.694907 0
M  V30 9466 O 875.707 -2.05783 -1.4632 0
M  V30 9467 C 877.02 -2.44575 1.74938 0
M  V30 9468 C 878.568 -2.58347 1.76708 0
M  V30 9469 C 879.043 -3.64078 2.77869 0
M  V30 9470 N 880.534 -3.71558 2.76585 0
M  V30 9471 C 881.269 -4.53016 3.51517 0
M  V30 9472 N 880.765 -5.38309 4.36114 0
M  V30 9473 N 882.558 -4.47512 3.40132 0
M  V30 9474 H 874.709 -0.885228 1.93074 0
M  V30 9475 H 876.972 -0.451075 0.833808 0
M  V30 9476 H 876.678 -2.1699 2.76782 0
M  V30 9477 H 876.552 -3.43503 1.55838 0
M  V30 9478 H 878.939 -2.85265 0.755516 0
M  V30 9479 H 879.02 -1.59628 1.99882 0
M  V30 9480 H 878.664 -3.37905 3.79187 0
M  V30 9481 H 878.594 -4.62412 2.51958 0
M  V30 9482 H 881.085 -3.10629 2.15216 0
M  V30 9483 H 881.398 -5.9754 4.90068 0
M  V30 9484 H 879.743 -5.37824 4.40194 0
M  V30 9485 H 882.934 -3.79912 2.73467 0
M  V30 9486 H 883.107 -5.10759 3.98784 0
M  V30 9487 N 876.513 -0.788492 -1.36457 0
M  V30 9488 C 877.76 -0.360461 -1.99266 0
M  V30 9489 C 878.088 1.0676 -1.62581 0
M  V30 9490 O 877.343 1.75205 -0.871884 0
M  V30 9491 C 877.642 -0.470255 -3.54293 0
M  V30 9492 C 877.308 -1.85899 -4.10795 0
M  V30 9493 C 875.97 -2.23896 -4.25939 0
M  V30 9494 C 878.322 -2.76836 -4.41601 0
M  V30 9495 C 875.65 -3.52235 -4.69199 0
M  V30 9496 C 878.002 -4.04602 -4.86292 0
M  V30 9497 C 876.666 -4.42623 -4.99641 0
M  V30 9498 H 875.936 -0.131902 -0.729166 0
M  V30 9499 H 878.583 -1.00577 -1.62962 0
M  V30 9500 H 876.888 0.258559 -3.90946 0
M  V30 9501 H 878.585 -0.120119 -4.0082 0
M  V30 9502 H 875.175 -1.55372 -3.99447 0
M  V30 9503 H 879.359 -2.48735 -4.2947 0
M  V30 9504 H 874.615 -3.81565 -4.77722 0
M  V30 9505 H 878.789 -4.75182 -5.09092 0
M  V30 9506 H 876.416 -5.42125 -5.32921 0
M  V30 9507 N 877.991 1.48044 -0.54043 0
M  V30 9508 C 878.921 2.32597 0.205178 0
M  V30 9509 C 879.902 1.42748 0.925041 0
M  V30 9510 O 881.087 1.71624 0.908784 0
M  V30 9511 C 878.217 3.24175 1.24612 0
M  V30 9512 C 877.171 4.23131 0.64376 0
M  V30 9513 C 876.497 5.03915 1.78812 0
M  V30 9514 C 877.797 5.20831 -0.39144 0
M  V30 9515 H 879.491 2.95184 -0.500676 0
M  V30 9516 H 877.037 1.41948 -0.242225 0
M  V30 9517 H 878.99 3.82158 1.77576 0
M  V30 9518 H 877.714 2.59608 1.98169 0
M  V30 9519 H 876.373 3.66349 0.135554 0
M  V30 9520 H 876.021 4.35765 2.51232 0
M  V30 9521 H 875.721 5.709 1.39094 0
M  V30 9522 H 877.245 5.64753 2.32134 0
M  V30 9523 H 878.659 5.73277 0.0515064 0
M  V30 9524 H 877.056 5.95926 -0.706569 0
M  V30 9525 H 878.126 4.6733 -1.29345 0
M  V30 9526 N 879.47 0.276058 1.55163 0
M  V30 9527 C 880.881 -0.221516 1.85381 0
M  V30 9528 C 881.232 -1.55372 1.19808 0
M  V30 9529 O 880.357 -2.10855 0.486742 0
M  V30 9530 C 880.952 -0.408706 3.36326 0
M  V30 9531 C 879.511 -0.850512 3.66665 0
M  V30 9532 C 878.658 0.055656 2.77244 0
M  V30 9533 H 881.609 0.497819 1.5069 0
M  V30 9534 H 881.63 -1.24711 3.59482 0
M  V30 9535 H 881.142 0.561052 3.84023 0
M  V30 9536 H 879.243 -1.83171 3.24468 0
M  V30 9537 H 879.356 -0.687181 4.74146 0
M  V30 9538 H 877.72 -0.460819 2.50497 0
M  V30 9539 H 878.503 1.02131 3.27756 0
M  V30 9540 N 880.948 -1.576 0.00335426 0
M  V30 9541 C 881.896 -2.09759 -1.00517 0
M  V30 9542 C 882.89 -1.01833 -1.35375 0
M  V30 9543 O 884.096 -1.20294 -1.339 0
M  V30 9544 H 880.471 -0.669821 -0.341825 0
M  V30 9545 H 882.442 -2.93478 -0.539718 0
M  V30 9546 C 881.191 -2.6189 -2.28711 0
M  V30 9547 H 880.514 -3.44571 -2.02758 0
M  V30 9548 H 881.954 -3.02061 -2.97548 0
M  V30 9549 C 880.413 -1.53455 -2.99922 0
M  V30 9550 O 880.943 -0.919402 -3.91037 0
M  V30 9551 N 879.149 -1.2612 -2.61806 0
M  V30 9552 H 878.696 -1.76329 -1.87792 0
M  V30 9553 H 878.654 -0.537872 -3.09765 0
M  V30 9554 N 882.426 0.269451 -1.5528 0
M  V30 9555 C 883.837 0.840233 -1.66724 0
M  V30 9556 C 884.188 1.86909 -0.596621 0
M  V30 9557 O 883.313 2.14817 0.261246 0
M  V30 9558 C 883.908 1.5308 -3.02245 0
M  V30 9559 C 882.467 2.04957 -3.15705 0
M  V30 9560 C 881.614 0.892838 -2.62533 0
M  V30 9561 H 884.565 0.0457236 -1.58634 0
M  V30 9562 H 884.586 2.39792 -2.95432 0
M  V30 9563 H 884.098 0.781741 -3.80145 0
M  V30 9564 H 882.199 2.82813 -2.42585 0
M  V30 9565 H 882.312 2.26244 -4.22316 0
M  V30 9566 H 880.676 1.28719 -2.19781 0
M  V30 9567 H 881.459 0.157229 -3.4294 0
M  V30 9568 N 883.904 1.48273 0.534124 0
M  V30 9569 C 884.867 1.6201 1.62127 0
M  V30 9570 C 885.867 0.493653 1.53035 0
M  V30 9571 O 887.057 0.759337 1.56779 0
M  V30 9572 C 884.189 1.5864 3.01739 0
M  V30 9573 H 885.382 2.58944 1.51288 0
M  V30 9574 H 882.935 1.36808 0.755861 0
M  V30 9575 H 883.67 0.631685 3.18088 0
M  V30 9576 H 883.455 2.40415 3.09747 0
M  V30 9577 H 884.945 1.71438 3.80787 0
M  V30 9578 N 885.382 -0.782676 1.36792 0
M  V30 9579 C 886.63 -1.53778 1.31136 0
M  V30 9580 C 886.951 -1.94706 -0.107014 0
M  V30 9581 O 886.221 -1.65465 -1.04872 0
M  V30 9582 H 884.801 -0.570328 0.482426 0
M  V30 9583 H 887.463 -0.932181 1.71162 0
M  V30 9584 H 886.559 -2.44224 1.94321 0
M  V30 9585 N 886.86 -1.21182 -1.00761 0
M  V30 9586 C 888.106 -1.02898 -1.74756 0
M  V30 9587 C 888.439 0.436774 -1.89225 0
M  V30 9588 O 887.714 1.32415 -1.42466 0
M  V30 9589 C 887.997 -1.72372 -3.16164 0
M  V30 9590 C 887.85 -3.2645 -3.09435 0
M  V30 9591 C 889.169 -1.46415 -4.15031 0
M  V30 9592 H 886.288 -0.375214 -0.634337 0
M  V30 9593 H 888.93 -1.49321 -1.17487 0
M  V30 9594 H 887.08 -1.32906 -3.65059 0
M  V30 9595 H 888.752 -3.75269 -2.68274 0
M  V30 9596 H 886.995 -3.56889 -2.46603 0
M  V30 9597 H 887.666 -3.70226 -4.09435 0
M  V30 9598 H 890.142 -1.80671 -3.7483 0
M  V30 9599 H 889.018 -1.97544 -5.12121 0
M  V30 9600 H 889.279 -0.39361 -4.40344 0
M  V30 9601 N 888.338 1.20213 -1.01915 0
M  V30 9602 C 889.27 2.2251 -0.549725 0
M  V30 9603 C 890.283 1.58558 0.369235 0
M  V30 9604 O 891.472 1.77715 0.167176 0
M  V30 9605 C 888.572 3.38189 0.219432 0
M  V30 9606 C 887.745 4.31729 -0.702066 0
M  V30 9607 C 886.804 5.26196 0.0199624 0
M  V30 9608 O 885.83 5.65993 -0.60339 0
M  V30 9609 N 887.032 5.65895 1.29397 0
M  V30 9610 H 889.797 2.63412 -1.42948 0
M  V30 9611 H 887.358 1.3478 -0.896987 0
M  V30 9612 H 889.35 3.98392 0.711763 0
M  V30 9613 H 887.92 2.96156 1.00051 0
M  V30 9614 H 887.14 3.69455 -1.37466 0
M  V30 9615 H 888.428 4.91145 -1.3287 0
M  V30 9616 H 887.826 5.35579 1.8213 0
M  V30 9617 H 886.383 6.28395 1.73098 0
M  V30 9618 N 889.816 0.795718 1.36037 0
M  V30 9619 C 890.746 0.212803 2.32528 0
M  V30 9620 C 891.727 -0.655716 1.56953 0
M  V30 9621 O 892.912 -0.588238 1.85077 0
M  V30 9622 C 890.042 -0.648189 3.41198 0
M  V30 9623 C 888.996 0.120948 4.27829 0
M  V30 9624 C 888.322 -0.861044 5.27722 0
M  V30 9625 C 889.622 1.31375 5.05508 0
M  V30 9626 H 891.316 1.01893 2.81528 0
M  V30 9627 H 888.862 0.491422 1.35355 0
M  V30 9628 H 890.815 -1.06597 4.07695 0
M  V30 9629 H 889.539 -1.48709 2.9078 0
M  V30 9630 H 888.198 0.519777 3.62897 0
M  V30 9631 H 887.846 -1.69515 4.73575 0
M  V30 9632 H 887.546 -0.350808 5.86552 0
M  V30 9633 H 889.07 -1.27726 5.97092 0
M  V30 9634 H 890.484 0.971406 5.6501 0
M  V30 9635 H 888.881 1.75772 5.73781 0
M  V30 9636 H 889.951 2.10593 4.36782 0
M  V30 9637 N 891.294 -1.47756 0.548274 0
M  V30 9638 C 892.204 -2.33678 -0.207773 0
M  V30 9639 C 893.22 -1.47636 -0.920843 0
M  V30 9640 O 894.396 -1.80583 -0.89173 0
M  V30 9641 C 891.461 -3.24147 -1.23003 0
M  V30 9642 C 890.522 -4.26073 -0.52535 0
M  V30 9643 C 889.755 -5.12219 -1.4989 0
M  V30 9644 O 889.978 -5.0066 -2.73305 0
M  V30 9645 O 888.912 -5.93051 -1.02828 0
M  V30 9646 H 892.738 -2.99609 0.496794 0
M  V30 9647 H 890.323 -1.4617 0.308982 0
M  V30 9648 H 892.205 -3.80055 -1.82034 0
M  V30 9649 H 890.88 -2.60855 -1.91668 0
M  V30 9650 H 889.787 -3.7395 0.105927 0
M  V30 9651 H 891.12 -4.92054 0.119686 0
M  V30 9652 N 892.772 -0.284283 -1.55015 0
M  V30 9653 C 894.049 0.382125 -1.91831 0
M  V30 9654 C 894.429 1.73007 -1.20962 0
M  V30 9655 O 893.777 2.25962 -0.339594 0
M  V30 9656 C 893.987 0.513341 -3.45204 0
M  V30 9657 C 895.335 0.791989 -4.17148 0
M  V30 9658 O 896.359 0.597799 -3.51148 0
M  V30 9659 O 895.218 1.16394 -5.33961 0
M  V30 9660 H 892.312 0.210707 -0.799707 0
M  V30 9661 H 894.858 -0.331111 -1.66438 0
M  V30 9662 H 893.63 -0.434911 -3.88876 0
M  V30 9663 H 893.253 1.27569 -3.76579 0
M  V30 9664 N 894.251 1.57596 -0.0117121 0
M  V30 9665 C 895.662 1.79033 0.529521 0
M  V30 9666 C 896.013 0.920299 1.73277 0
M  V30 9667 O 895.138 0.125934 2.16033 0
M  V30 9668 C 895.733 3.24695 0.967405 0
M  V30 9669 C 894.292 3.47188 1.45387 0
M  V30 9670 C 893.439 2.74245 0.410466 0
M  V30 9671 H 896.39 1.56908 -0.237836 0
M  V30 9672 H 896.411 3.33451 1.83278 0
M  V30 9673 H 895.923 3.87992 0.0914605 0
M  V30 9674 H 894.024 2.89121 2.35032 0
M  V30 9675 H 894.137 4.55886 1.47325 0
M  V30 9676 H 892.501 2.39209 0.874721 0
M  V30 9677 H 893.284 3.40248 -0.456713 0
M  V30 9678 N 895.729 -0.261212 1.5542 0
M  V30 9679 C 896.639 -1.34493 1.92221 0
M  V30 9680 C 897.655 -1.53421 0.82086 0
M  V30 9681 O 898.831 -1.6732 1.12099 0
M  V30 9682 C 895.896 -2.68209 2.19692 0
M  V30 9683 C 894.957 -2.57927 3.43179 0
M  V30 9684 C 894.19 -3.85266 3.69331 0
M  V30 9685 O 894.413 -4.86493 2.97793 0
M  V30 9686 O 893.347 -3.8476 4.62865 0
M  V30 9687 H 897.173 -1.06278 2.84497 0
M  V30 9688 H 894.758 -0.460752 1.42118 0
M  V30 9689 H 896.64 -3.47252 2.38734 0
M  V30 9690 H 895.315 -2.96186 1.30597 0
M  V30 9691 H 894.222 -1.77219 3.2946 0
M  V30 9692 H 895.555 -2.34898 4.32532 0
M  V30 9693 N 897.207 -1.48554 -0.526253 0
M  V30 9694 C 898.454 -1.56761 -1.28188 0
M  V30 9695 C 898.782 -0.24315 -1.92974 0
M  V30 9696 O 898.037 0.766883 -1.80048 0
M  V30 9697 C 898.336 -2.65739 -2.38993 0
M  V30 9698 C 898.002 -4.08057 -1.91834 0
M  V30 9699 C 896.664 -4.46792 -1.78691 0
M  V30 9700 C 899.016 -4.9723 -1.56242 0
M  V30 9701 C 896.344 -5.72501 -1.28296 0
M  V30 9702 C 898.696 -6.23432 -1.07309 0
M  V30 9703 C 897.36 -6.6102 -0.927853 0
M  V30 9704 H 896.63 -0.573631 -0.469072 0
M  V30 9705 H 899.277 -1.82287 -0.586842 0
M  V30 9706 H 897.582 -2.34088 -3.14181 0
M  V30 9707 H 899.279 -2.69304 -2.97113 0
M  V30 9708 H 895.869 -3.77469 -2.03016 0
M  V30 9709 H 900.053 -4.67979 -1.65255 0
M  V30 9710 H 895.309 -6.00345 -1.15742 0
M  V30 9711 H 899.483 -6.91923 -0.788412 0
M  V30 9712 H 897.11 -7.58314 -0.535162 0
M  V30 9713 N 898.685 0.775411 -1.37205 0
M  V30 9714 C 899.617 1.89761 -1.28544 0
M  V30 9715 C 900.63 1.61542 -0.201996 0
M  V30 9716 O 901.819 1.72528 -0.457848 0
M  V30 9717 C 898.919 3.24904 -0.963885 0
M  V30 9718 C 898.092 3.80796 -2.15205 0
M  V30 9719 C 897.151 4.94407 -1.80135 0
M  V30 9720 O 896.177 5.10185 -2.52388 0
M  V30 9721 N 897.379 5.75722 -0.743298 0
M  V30 9722 H 900.144 1.97708 -2.25237 0
M  V30 9723 H 897.705 0.954348 -1.30782 0
M  V30 9724 H 899.697 3.9842 -0.710182 0
M  V30 9725 H 898.267 3.12483 -0.085632 0
M  V30 9726 H 897.487 2.99101 -2.56773 0
M  V30 9727 H 898.775 4.1487 -2.94552 0
M  V30 9728 H 898.173 5.65518 -0.143655 0
M  V30 9729 H 896.73 6.4948 -0.549446 0
M  V30 9730 N 900.163 1.21714 1.00117 0
M  V30 9731 C 901.126 0.981338 2.07129 0
M  V30 9732 C 902.126 -0.0491116 1.60725 0
M  V30 9733 O 903.316 0.188555 1.73177 0
M  V30 9734 C 900.448 0.480608 3.37495 0
M  V30 9735 H 901.641 1.93075 2.29482 0
M  V30 9736 H 899.194 1.03467 1.17151 0
M  V30 9737 H 899.929 -0.473552 3.20824 0
M  V30 9738 H 899.714 1.22393 3.72508 0
M  V30 9739 H 901.204 0.33561 4.16249 0
M  V30 9740 N 901.641 -1.19671 1.02551 0
M  V30 9741 C 902.866 -1.93774 0.739363 0
M  V30 9742 C 903.291 -1.74787 -0.695064 0
M  V30 9743 O 902.649 -1.04796 -1.47944 0
M  V30 9744 C 902.697 -3.43684 1.09149 0
M  V30 9745 O 901.801 -4.11874 0.208213 0
M  V30 9746 H 901.142 -0.605064 0.273484 0
M  V30 9747 H 903.672 -1.51846 1.37128 0
M  V30 9748 H 903.682 -3.94339 1.04695 0
M  V30 9749 H 902.357 -3.56826 2.13654 0
M  V30 9750 H 900.934 -3.716 0.311045 0
M  V30 9751 N 903.119 -0.802921 -1.35613 0
M  V30 9752 C 904.067 -0.198783 -2.31749 0
M  V30 9753 C 905.061 0.649416 -1.56458 0
M  V30 9754 O 906.267 0.542989 -1.71615 0
M  V30 9755 H 902.642 -0.0455177 -0.750621 0
M  V30 9756 H 904.613 -1.02479 -2.80251 0
M  V30 9757 C 903.362 0.641066 -3.41739 0
M  V30 9758 H 902.685 -0.00226244 -3.998 0
M  V30 9759 H 904.125 1.03022 -4.11294 0
M  V30 9760 C 902.584 1.80505 -2.84464 0
M  V30 9761 O 903.114 2.90235 -2.77717 0
M  V30 9762 N 901.32 1.61542 -2.41563 0
M  V30 9763 H 900.867 0.722863 -2.4725 0
M  V30 9764 H 900.825 2.39581 -2.03589 0
M  V30 9765 N 904.597 1.47463 -0.556102 0
M  V30 9766 C 905.846 2.01678 -0.029492 0
M  V30 9767 C 906.159 1.436 1.32809 0
M  V30 9768 O 907.365 1.89472 1.94455 0
M  V30 9769 C 905.821 3.599 -0.00223937 0
M  V30 9770 C 905.429 4.26969 -1.35651 0
M  V30 9771 C 907.173 4.2187 0.471822 0
M  V30 9772 C 905.08 5.77194 -1.28843 0
M  V30 9773 H 904.01 0.753965 -0.00725504 0
M  V30 9774 H 906.661 1.69467 -0.703789 0
M  V30 9775 H 905.043 3.89068 0.737682 0
M  V30 9776 H 906.217 4.09444 -2.11406 0
M  V30 9777 H 904.532 3.76983 -1.76842 0
M  V30 9778 H 907.129 5.31955 0.541139 0
M  V30 9779 H 907.472 3.88968 1.48356 0
M  V30 9780 H 908.005 3.97228 -0.213207 0
M  V30 9781 H 904.744 6.14713 -2.27613 0
M  V30 9782 H 904.264 5.9706 -0.572668 0
M  V30 9783 H 905.943 6.3938 -0.990031 0
M  V30 9784 N 906.075 0.2925 1.54862 0
M  V30 9785 C 907.008 -0.629155 2.19356 0
M  V30 9786 C 907.986 -1.13927 1.16014 0
M  V30 9787 O 909.17 -1.20904 1.44618 0
M  V30 9788 C 906.297 -1.8599 2.83064 0
M  V30 9789 C 905.343 -1.48376 3.99859 0
M  V30 9790 S 906.176 -0.546976 5.32699 0
M  V30 9791 C 907.332 -1.7857 5.99886 0
M  V30 9792 H 907.565 -0.0812166 2.97189 0
M  V30 9793 H 905.098 0.0766721 1.5421 0
M  V30 9794 H 907.056 -2.56623 3.20398 0
M  V30 9795 H 905.717 -2.37899 2.05092 0
M  V30 9796 H 904.91 -2.40002 4.43187 0
M  V30 9797 H 904.512 -0.857447 3.64038 0
M  V30 9798 H 906.804 -2.7274 6.20177 0
M  V30 9799 H 907.747 -1.39513 6.9422 0
M  V30 9800 H 908.155 -1.95856 5.29434 0
M  V30 9801 N 907.553 -1.57587 0.0200696 0
M  V30 9802 C 908.503 -2.0616 -0.973751 0
M  V30 9803 C 909.487 -0.960282 -1.29102 0
M  V30 9804 O 910.679 -1.22391 -1.27865 0
M  V30 9805 C 907.808 -2.58487 -2.25919 0
M  V30 9806 C 906.894 -3.75533 -1.97068 0
M  V30 9807 N 907.285 -4.86482 -1.38451 0
M  V30 9808 C 905.583 -3.83847 -2.27107 0
M  V30 9809 C 906.284 -5.67773 -1.26527 0
M  V30 9810 N 905.26 -5.14398 -1.75772 0
M  V30 9811 H 909.062 -2.89346 -0.515365 0
M  V30 9812 H 906.576 -1.61341 -0.185163 0
M  V30 9813 H 908.573 -2.91572 -2.97979 0
M  V30 9814 H 907.233 -1.76728 -2.72392 0
M  V30 9815 H 908.244 -5.06922 -1.06069 0
M  V30 9816 H 904.921 -3.12978 -2.76316 0
M  V30 9817 H 906.311 -6.66966 -0.812785 0
M  V30 9818 N 909.032 0.252966 -1.55557 0
M  V30 9819 C 910.257 1.0038 -1.8149 0
M  V30 9820 C 910.682 1.78397 -0.596318 0
M  V30 9821 O 910.04 1.7551 0.454535 0
M  V30 9822 C 910.088 1.9222 -3.05096 0
M  V30 9823 O 909.192 3.01302 -2.81587 0
M  V30 9824 H 908.533 0.285949 -0.599274 0
M  V30 9825 H 911.063 0.275795 -2.02733 0
M  V30 9826 H 911.073 2.338 -3.34368 0
M  V30 9827 H 909.748 1.34852 -3.93431 0
M  V30 9828 H 908.325 2.63894 -2.63466 0
M  V30 9829 N 910.51 1.48831 0.518367 0
M  V30 9830 C 911.759 1.5669 1.27008 0
M  V30 9831 C 912.072 0.250934 1.93984 0
M  V30 9832 O 913.278 0.207884 2.70703 0
M  V30 9833 C 911.734 2.76387 2.30517 0
M  V30 9834 C 911.342 4.14673 1.69559 0
M  V30 9835 C 913.086 2.93566 3.06625 0
M  V30 9836 C 910.993 5.25616 2.71076 0
M  V30 9837 H 909.923 0.583362 0.477708 0
M  V30 9838 H 912.574 1.75187 0.546052 0
M  V30 9839 H 910.956 2.51348 3.06006 0
M  V30 9840 H 912.13 4.49779 1.00179 0
M  V30 9841 H 910.445 4.02708 1.05902 0
M  V30 9842 H 913.042 3.7362 3.82508 0
M  V30 9843 H 913.385 2.03462 3.63193 0
M  V30 9844 H 913.918 3.18562 2.38251 0
M  V30 9845 H 910.657 6.17723 2.19313 0
M  V30 9846 H 910.177 4.94985 3.38748 0
M  V30 9847 H 911.856 5.5422 3.3384 0
M  V30 9848 N 911.988 -0.768124 1.37614 0
M  V30 9849 C 912.936 -1.9029 1.33763 0
M  V30 9850 C 913.93 -1.67888 0.225814 0
M  V30 9851 O 915.136 -1.75634 0.394043 0
M  V30 9852 H 911.511 -0.625828 0.416945 0
M  V30 9853 H 913.482 -1.90654 2.29551 0
M  V30 9854 C 912.231 -3.27598 1.16511 0
M  V30 9855 H 911.554 -3.45414 2.01318 0
M  V30 9856 H 912.994 -4.07288 1.17867 0
M  V30 9857 C 911.453 -3.36653 -0.129001 0
M  V30 9858 O 911.983 -3.86023 -1.11128 0
M  V30 9859 N 910.189 -2.90036 -0.180926 0
M  V30 9860 H 909.736 -2.5005 0.619076 0
M  V30 9861 H 909.694 -2.96475 -1.04641 0
M  V30 9862 N 913.466 -1.22244 -0.994698 0
M  V30 9863 C 914.714 -1.04384 -1.73056 0
M  V30 9864 C 915.035 0.422204 -1.90374 0
M  V30 9865 O 914.305 1.30383 -1.46209 0
M  V30 9866 H 912.885 -0.383263 -0.641185 0
M  V30 9867 H 915.547 -1.53725 -1.1981 0
M  V30 9868 H 914.643 -1.52021 -2.72573 0
M  V30 9869 N 914.944 1.19125 -1.03184 0
M  V30 9870 C 916.174 1.92558 -0.748663 0
M  V30 9871 C 916.582 1.759 0.696837 0
M  V30 9872 O 915.925 1.08019 1.48585 0
M  V30 9873 C 915.987 3.4461 -1.02391 0
M  V30 9874 C 915.651 3.85041 -2.46155 0
M  V30 9875 C 916.648 3.89554 -3.44302 0
M  V30 9876 C 914.333 4.16594 -2.80633 0
M  V30 9877 C 916.327 4.25055 -4.74981 0
M  V30 9878 C 914.014 4.51767 -4.11521 0
M  V30 9879 C 915.012 4.55972 -5.08506 0
M  V30 9880 O 914.7 4.9033 -6.37049 0
M  V30 9881 H 914.432 0.618397 -0.273059 0
M  V30 9882 H 916.986 1.52122 -1.38015 0
M  V30 9883 H 915.216 3.85244 -0.335284 0
M  V30 9884 H 916.905 3.99283 -0.729927 0
M  V30 9885 H 917.671 3.65324 -3.19003 0
M  V30 9886 H 913.55 4.12503 -2.05821 0
M  V30 9887 H 917.094 4.28252 -5.50678 0
M  V30 9888 H 912.991 4.75455 -4.36592 0
M  V30 9889 H 913.759 5.08266 -6.41566 0
M  V30 9890 N 916.422 0.810101 1.35185 0
M  V30 9891 C 917.668 0.392698 1.98962 0
M  V30 9892 C 918.001 -1.03835 1.64109 0
M  V30 9893 O 917.276 -1.721 0.9062 0
M  V30 9894 C 917.559 0.580349 3.55393 0
M  V30 9895 C 917.412 2.05658 4.00031 0
M  V30 9896 C 918.731 0.00822618 4.40099 0
M  V30 9897 H 915.85 0.144157 0.722764 0
M  V30 9898 H 918.492 1.02029 1.60281 0
M  V30 9899 H 916.642 0.0461106 3.88473 0
M  V30 9900 H 918.314 2.65348 3.77344 0
M  V30 9901 H 916.557 2.55174 3.50811 0
M  V30 9902 H 917.228 2.13875 5.08883 0
M  V30 9903 H 919.704 0.464517 4.13499 0
M  V30 9904 H 918.58 0.169414 5.48638 0
M  V30 9905 H 918.841 -1.08576 4.2856 0
M  V30 9906 N 917.9 -1.47166 0.563914 0
M  V30 9907 C 919.147 -2.02456 0.042371 0
M  V30 9908 C 919.475 -1.43753 -1.31016 0
M  V30 9909 O 918.73 -0.585287 -1.86743 0
M  V30 9910 C 919.029 -3.57279 -0.0931797 0
M  V30 9911 C 918.695 -4.34932 1.18933 0
M  V30 9912 C 917.357 -4.55867 1.54073 0
M  V30 9913 C 919.709 -4.79665 2.03889 0
M  V30 9914 C 917.037 -5.18785 2.74005 0
M  V30 9915 C 919.389 -5.43907 3.23029 0
M  V30 9916 C 918.053 -5.63074 3.58475 0
M  V30 9917 H 917.323 -0.740838 0.0155047 0
M  V30 9918 H 919.97 -1.76759 0.736776 0
M  V30 9919 H 918.275 -3.82005 -0.870596 0
M  V30 9920 H 919.972 -3.97716 -0.512176 0
M  V30 9921 H 916.562 -4.18921 0.905718 0
M  V30 9922 H 920.746 -4.63264 1.78046 0
M  V30 9923 H 916.002 -5.31818 3.01628 0
M  V30 9924 H 920.176 -5.77531 3.89141 0
M  V30 9925 H 917.803 -6.11598 4.515 0
M  V30 9926 N 919.378 -0.300708 -1.54705 0
M  V30 9927 C 920.655 0.361757 -1.92226 0
M  V30 9928 C 921.035 1.71714 -1.2279 0
M  V30 9929 O 920.383 2.2559 -0.363542 0
M  V30 9930 C 920.593 0.476699 -3.45729 0
M  V30 9931 C 921.941 0.7477 -4.17965 0
M  V30 9932 O 922.965 0.560521 -3.51762 0
M  V30 9933 O 921.824 1.10724 -5.35166 0
M  V30 9934 H 918.918 0.202213 -0.801897 0
M  V30 9935 H 921.464 -0.348746 -1.66078 0
M  V30 9936 H 920.236 -0.476132 -3.88392 0
M  V30 9937 H 919.859 1.23568 -3.77911 0
M  V30 9938 N 920.856 1.57574 -0.0284266 0
M  V30 9939 C 922.081 1.96479 0.664137 0
M  V30 9940 C 922.506 0.904826 1.64908 0
M  V30 9941 O 921.864 -0.134339 1.80802 0
M  V30 9942 C 921.912 3.34479 1.34745 0
M  V30 9943 O 921.016 3.30794 2.46271 0
M  V30 9944 H 920.357 0.640654 0.174524 0
M  V30 9945 H 922.887 2.04402 -0.0900729 0
M  V30 9946 H 922.897 3.70694 1.7044 0
M  V30 9947 H 921.572 4.1117 0.625468 0
M  V30 9948 H 920.149 3.06294 2.12693 0
M  V30 9949 N 922.334 -0.244713 1.55689 0
M  V30 9950 C 923.264 -1.30667 1.93516 0
M  V30 9951 C 924.245 -1.50094 0.800371 0
M  V30 9952 O 925.43 -1.62665 1.06083 0
M  V30 9953 C 922.56 -2.66101 2.23176 0
M  V30 9954 C 921.514 -2.61366 3.38927 0
M  V30 9955 C 920.84 -4.00616 3.54134 0
M  V30 9956 C 922.14 -2.18161 4.74555 0
M  V30 9957 H 923.834 -0.992546 2.82469 0
M  V30 9958 H 921.38 -0.476018 1.35905 0
M  V30 9959 H 923.333 -3.4053 2.48228 0
M  V30 9960 H 922.057 -2.99154 1.31051 0
M  V30 9961 H 920.716 -1.89395 3.13887 0
M  V30 9962 H 920.364 -4.30938 2.59426 0
M  V30 9963 H 920.064 -3.98335 4.31975 0
M  V30 9964 H 921.588 -4.76741 3.8151 0
M  V30 9965 H 923.002 -2.82323 4.98965 0
M  V30 9966 H 921.399 -2.26988 5.55515 0
M  V30 9967 H 922.469 -1.13333 4.7147 0
M  V30 9968 N 923.813 -1.49104 -0.510467 0
M  V30 9969 C 924.745 -1.61183 -1.6295 0
M  V30 9970 C 925.758 -0.495003 -1.55092 0
M  V30 9971 O 926.947 -0.766671 -1.61197 0
M  V30 9972 C 924.047 -1.54373 -3.01699 0
M  V30 9973 C 923.22 -2.81428 -3.34838 0
M  V30 9974 C 922.279 -2.67802 -4.52956 0
M  V30 9975 O 921.305 -3.41723 -4.55208 0
M  V30 9976 N 922.507 -1.78715 -5.52305 0
M  V30 9977 H 925.272 -2.57693 -1.53018 0
M  V30 9978 H 922.833 -1.46073 -0.698152 0
M  V30 9979 H 924.825 -1.42924 -3.78622 0
M  V30 9980 H 923.395 -0.657597 -3.05605 0
M  V30 9981 H 922.615 -3.07299 -2.46903 0
M  V30 9982 H 923.903 -3.6568 -3.53773 0
M  V30 9983 H 923.301 -1.17897 -5.53278 0
M  V30 9984 H 921.858 -1.73194 -6.28369 0
M  V30 9985 N 925.291 0.760815 -1.38019 0
M  V30 9986 C 926.221 1.88811 -1.37377 0
M  V30 9987 C 927.202 1.68388 -0.240737 0
M  V30 9988 O 928.387 1.89086 -0.442739 0
M  V30 9989 C 925.517 3.26244 -1.1909 0
M  V30 9990 C 924.471 3.61254 -2.29521 0
M  V30 9991 C 923.797 4.97346 -1.96345 0
M  V30 9992 C 925.097 3.66874 -3.71753 0
M  V30 9993 H 926.791 1.89606 -2.31711 0
M  V30 9994 H 924.337 0.910818 -1.11535 0
M  V30 9995 H 926.29 4.04755 -1.17267 0
M  V30 9996 H 925.014 3.2591 -0.212152 0
M  V30 9997 H 923.673 2.85057 -2.30517 0
M  V30 9998 H 923.321 4.93564 -0.969728 0
M  V30 9999 H 923.021 5.21739 -2.703 0
M  V30 10000 H 924.545 5.78244 -1.96129 0
M  V30 10001 H 925.959 4.35514 -3.72828 0
M  V30 10002 H 924.356 4.02772 -4.44853 0
M  V30 10003 H 925.426 2.67273 -4.0459 0
M  V30 10004 N 926.769 1.22769 0.988202 0
M  V30 10005 C 927.994 1.08239 1.76915 0
M  V30 10006 C 928.419 -0.362519 1.84574 0
M  V30 10007 O 927.777 -1.26202 1.30165 0
M  V30 10008 C 927.825 1.70363 3.17819 0
M  V30 10009 O 926.929 0.960484 4.01059 0
M  V30 10010 H 926.27 0.379872 0.544604 0
M  V30 10011 H 928.8 1.62663 1.24104 0
M  V30 10012 H 928.81 1.7528 3.6843 0
M  V30 10013 H 927.485 2.75505 3.1156 0
M  V30 10014 H 926.062 0.987667 3.59582 0
M  V30 10015 N 928.247 -1.18576 1.03814 0
M  V30 10016 C 929.493 -1.88773 0.741132 0
M  V30 10017 C 929.826 -1.79993 -0.729127 0
M  V30 10018 O 929.101 -1.19851 -1.53186 0
M  V30 10019 C 929.384 -3.39352 1.20468 0
M  V30 10020 C 929.237 -3.56955 2.73684 0
M  V30 10021 C 930.556 -4.32901 0.792741 0
M  V30 10022 H 927.675 -0.685482 0.270708 0
M  V30 10023 H 930.317 -1.39523 1.2897 0
M  V30 10024 H 928.467 -3.81427 0.737974 0
M  V30 10025 H 930.139 -3.2399 3.28372 0
M  V30 10026 H 928.382 -2.99696 3.13632 0
M  V30 10027 H 929.053 -4.62598 3.01176 0
M  V30 10028 H 931.529 -3.98592 1.1943 0
M  V30 10029 H 930.405 -5.36828 1.14486 0
M  V30 10030 H 930.666 -4.41052 -0.304295 0
M  V30 10031 N 929.725 -0.817259 -1.34754 0
M  V30 10032 C 930.965 -0.408429 -2.00278 0
M  V30 10033 C 931.329 1.00818 -1.634 0
M  V30 10034 O 932.53 1.51959 -2.21725 0
M  V30 10035 C 930.801 -0.598219 -3.52358 0
M  V30 10036 S 932.36 -0.281395 -4.37897 0
M  V30 10037 H 929.178 -0.154587 -0.693991 0
M  V30 10038 H 931.78 -1.06184 -1.6415 0
M  V30 10039 H 930.484 -1.62901 -3.76685 0
M  V30 10040 H 930.015 0.0701299 -3.93337 0
M  V30 10041 H 932.03 0.907024 -4.8784 0
M  V30 10042 N 931.203 1.46865 -0.571711 0
M  V30 10043 C 932.133 2.3298 0.155795 0
M  V30 10044 C 933.114 1.44678 0.894553 0
M  V30 10045 O 934.299 1.73513 0.872176 0
M  V30 10046 C 931.429 3.26745 1.17708 0
M  V30 10047 C 930.383 4.24401 0.553863 0
M  V30 10048 C 929.709 5.07595 1.68083 0
M  V30 10049 C 931.009 5.19884 -0.501827 0
M  V30 10050 H 932.703 2.94056 -0.563176 0
M  V30 10051 H 930.249 1.41402 -0.27228 0
M  V30 10052 H 932.202 3.85838 1.6943 0
M  V30 10053 H 930.926 2.63753 1.92618 0
M  V30 10054 H 929.585 3.66554 0.057815 0
M  V30 10055 H 929.233 4.40996 2.41933 0
M  V30 10056 H 928.933 5.73722 1.26953 0
M  V30 10057 H 930.457 5.6955 2.20103 0
M  V30 10058 H 931.871 5.73257 -0.0701057 0
M  V30 10059 H 930.268 5.94293 -0.832815 0
M  V30 10060 H 931.338 4.64482 -1.39229 0
M  V30 10061 N 932.681 0.308908 1.54543 0
M  V30 10062 C 933.631 -0.578902 2.20528 0
M  V30 10063 C 934.615 -1.09288 1.18088 0
M  V30 10064 O 935.807 -1.03234 1.43777 0
M  V30 10065 C 932.936 -1.74649 2.95555 0
M  V30 10066 C 932.022 -1.24809 4.05319 0
M  V30 10067 N 932.413 -0.46828 5.03628 0
M  V30 10068 C 930.711 -1.52813 4.19004 0
M  V30 10069 C 931.412 -0.201896 5.8135 0
M  V30 10070 N 930.388 -0.783927 5.37918 0
M  V30 10071 H 934.19 0.0243496 2.9389 0
M  V30 10072 H 931.704 0.114049 1.61999 0
M  V30 10073 H 933.701 -2.39414 3.41301 0
M  V30 10074 H 932.361 -2.35336 2.23712 0
M  V30 10075 H 933.372 -0.112453 5.17778 0
M  V30 10076 H 930.049 -2.14191 3.58369 0
M  V30 10077 H 931.439 0.424929 6.70555 0
M  V30 10078 N 934.159 -1.57557 0.0367827 0
M  V30 10079 C 935.069 -2.14148 -0.958017 0
M  V30 10080 C 936.085 -1.09564 -1.35173 0
M  V30 10081 O 937.261 -1.4166 -1.43158 0
M  V30 10082 C 934.326 -2.6636 -2.21931 0
M  V30 10083 C 933.387 -3.85688 -1.8853 0
M  V30 10084 C 932.62 -4.35401 -3.08645 0
M  V30 10085 O 932.843 -3.8425 -4.21554 0
M  V30 10086 O 931.777 -5.27158 -2.90497 0
M  V30 10087 H 935.603 -2.99442 -0.506797 0
M  V30 10088 H 933.188 -1.48259 -0.184275 0
M  V30 10089 H 935.07 -2.99976 -2.9596 0
M  V30 10090 H 933.745 -1.84145 -2.66219 0
M  V30 10091 H 932.652 -3.56985 -1.11861 0
M  V30 10092 H 933.985 -4.69089 -1.49052 0
M  V30 10093 N 935.637 0.236453 -1.55816 0
M  V30 10094 C 936.883 0.964439 -1.784 0
M  V30 10095 C 937.216 1.84573 -0.603868 0
M  V30 10096 O 936.491 1.90395 0.397473 0
M  V30 10097 C 936.774 1.81608 -3.10951 0
M  V30 10098 C 936.627 0.962283 -4.39386 0
M  V30 10099 C 937.946 2.79665 -3.39817 0
M  V30 10100 H 935.065 0.349192 -0.649026 0
M  V30 10101 H 937.707 0.234247 -1.8855 0
M  V30 10102 H 935.857 2.43864 -3.02428 0
M  V30 10103 H 937.529 0.35762 -4.59912 0
M  V30 10104 H 935.772 0.267062 -4.32977 0
M  V30 10105 H 936.443 1.59222 -5.28538 0
M  V30 10106 H 938.919 2.27546 -3.4837 0
M  V30 10107 H 937.795 3.36367 -4.33761 0
M  V30 10108 H 938.056 3.56657 -2.61244 0
M  V30 10109 N 937.115 1.49373 0.502552 0
M  V30 10110 C 938.078 1.65413 1.58654 0
M  V30 10111 C 939.078 0.526003 1.51953 0
M  V30 10112 O 940.268 0.792421 1.55133 0
M  V30 10113 C 937.4 1.65005 2.98306 0
M  V30 10114 H 938.593 2.62095 1.45762 0
M  V30 10115 H 936.146 1.38381 0.726672 0
M  V30 10116 H 936.881 0.699014 3.16677 0
M  V30 10117 H 936.666 2.46931 3.04578 0
M  V30 10118 H 938.156 1.79477 3.77065 0
M  V30 10119 N 938.594 -0.753485 1.38421 0
M  V30 10120 C 939.824 -1.54049 1.37669 0
M  V30 10121 C 940.232 -1.89167 -0.0353656 0
M  V30 10122 O 939.575 -1.53285 -1.01239 0
M  V30 10123 C 939.637 -2.86777 2.16793 0
M  V30 10124 C 939.301 -2.74196 3.65603 0
M  V30 10125 C 940.298 -2.43985 4.59094 0
M  V30 10126 C 937.983 -2.91645 4.0896 0
M  V30 10127 C 939.977 -2.31379 5.93921 0
M  V30 10128 C 937.664 -2.78658 5.43868 0
M  V30 10129 C 938.662 -2.48568 6.36163 0
M  V30 10130 O 938.35 -2.3564 7.68589 0
M  V30 10131 H 938.082 -0.483276 0.472673 0
M  V30 10132 H 940.636 -0.940267 1.82615 0
M  V30 10133 H 938.866 -3.48988 1.66565 0
M  V30 10134 H 940.555 -3.48289 2.08446 0
M  V30 10135 H 941.321 -2.30172 4.26902 0
M  V30 10136 H 937.2 -3.14063 3.37469 0
M  V30 10137 H 940.744 -2.07813 6.65927 0
M  V30 10138 H 936.641 -2.92044 5.75656 0
M  V30 10139 H 937.409 -2.50851 7.79112 0
M  V30 10140 N 940.072 -1.23292 -0.981677 0
M  V30 10141 C 941.318 -1.07588 -1.72616 0
M  V30 10142 C 941.673 0.383441 -1.8854 0
M  V30 10143 O 940.966 1.28006 -1.42566 0
M  V30 10144 C 941.16 -1.73339 -3.12551 0
M  V30 10145 C 940.989 -3.25514 -3.10275 0
M  V30 10146 C 939.759 -3.9467 -3.15537 0
M  V30 10147 C 941.957 -4.223 -2.93543 0
M  V30 10148 N 939.939 -5.33839 -3.03133 0
M  V30 10149 C 941.31 -5.48373 -2.89287 0
M  V30 10150 C 943.365 -4.1305 -2.78018 0
M  V30 10151 C 942.068 -6.66258 -2.71095 0
M  V30 10152 C 944.094 -5.30598 -2.6119 0
M  V30 10153 C 943.456 -6.55596 -2.57631 0
M  V30 10154 H 939.555 -0.448215 -0.640802 0
M  V30 10155 H 942.139 -1.56001 -1.16498 0
M  V30 10156 H 940.31 -1.2746 -3.6689 0
M  V30 10157 H 942.042 -1.50624 -3.75626 0
M  V30 10158 H 938.797 -3.45741 -3.23666 0
M  V30 10159 H 939.221 -6.06798 -3.00209 0
M  V30 10160 H 943.863 -3.17184 -2.7956 0
M  V30 10161 H 941.581 -7.62261 -2.68297 0
M  V30 10162 H 945.167 -5.25281 -2.50143 0
M  V30 10163 H 944.047 -7.45021 -2.44772 0
M  V30 10164 N 941.55 1.18024 -1.04442 0
M  V30 10165 C 942.78 1.91753 -0.769044 0
M  V30 10166 C 943.188 1.76629 0.678141 0
M  V30 10167 O 942.531 1.09589 1.47431 0
M  V30 10168 C 942.593 3.43505 -1.0604 0
M  V30 10169 C 942.257 3.82409 -2.50225 0
M  V30 10170 C 943.254 3.8588 -3.48414 0
M  V30 10171 C 940.939 4.13594 -2.85036 0
M  V30 10172 C 942.933 4.19993 -4.79463 0
M  V30 10173 C 940.62 4.47377 -4.1629 0
M  V30 10174 C 941.618 4.50553 -5.13314 0
M  V30 10175 O 941.306 4.83546 -6.42214 0
M  V30 10176 H 941.038 0.615466 -0.279603 0
M  V30 10177 H 943.592 1.5065 -1.3962 0
M  V30 10178 H 941.822 3.84866 -0.376125 0
M  V30 10179 H 943.511 3.98486 -0.772235 0
M  V30 10180 H 944.277 3.6192 -3.2286 0
M  V30 10181 H 940.156 4.10297 -2.10185 0
M  V30 10182 H 943.7 4.22387 -5.55189 0
M  V30 10183 H 939.597 4.70798 -4.4161 0
M  V30 10184 H 940.365 5.01433 -6.46921 0
M  V30 10185 N 943.028 0.824394 1.34319 0
M  V30 10186 C 944.277 0.40956 1.97498 0
M  V30 10187 C 944.59 -1.03323 1.66083 0
M  V30 10188 O 945.796 -1.55205 2.22764 0
M  V30 10189 C 944.252 0.681384 3.53391 0
M  V30 10190 C 943.86 2.1379 3.93698 0
M  V30 10191 C 945.604 0.332788 4.23194 0
M  V30 10192 C 943.511 2.35453 5.42509 0
M  V30 10193 H 942.441 0.149409 0.739049 0
M  V30 10194 H 945.092 1.01095 1.5314 0
M  V30 10195 H 943.474 0.00980375 3.95999 0
M  V30 10196 H 944.648 2.84876 3.62191 0
M  V30 10197 H 942.963 2.44807 3.36836 0
M  V30 10198 H 945.56 0.472463 5.32609 0
M  V30 10199 H 945.903 -0.722862 4.09976 0
M  V30 10200 H 946.436 0.959005 3.86067 0
M  V30 10201 H 943.175 3.39529 5.60714 0
M  V30 10202 H 942.695 1.68912 5.75525 0
M  V30 10203 H 944.374 2.17885 6.09209 0
M  V30 10204 N 944.506 -1.46559 0.579492 0
M  V30 10205 C 945.436 -2.33059 -0.143437 0
M  V30 10206 C 946.417 -1.4515 -0.886868 0
M  V30 10207 O 947.602 -1.73973 -0.862961 0
M  V30 10208 C 944.732 -3.27364 -1.15973 0
M  V30 10209 C 943.686 -4.24689 -0.531348 0
M  V30 10210 C 943.012 -5.08479 -1.65388 0
M  V30 10211 C 944.312 -5.1961 0.529391 0
M  V30 10212 H 946.006 -2.93753 0.578762 0
M  V30 10213 H 943.552 -1.41256 0.279775 0
M  V30 10214 H 945.505 -3.86732 -1.67382 0
M  V30 10215 H 944.229 -2.64771 -1.91217 0
M  V30 10216 H 942.888 -3.6658 -0.0383749 0
M  V30 10217 H 942.536 -4.42273 -2.3959 0
M  V30 10218 H 942.236 -5.74387 -1.23909 0
M  V30 10219 H 943.76 -5.70709 -2.17079 0
M  V30 10220 H 945.174 -5.73212 0.100506 0
M  V30 10221 H 943.571 -5.93843 0.86432 0
M  V30 10222 H 944.641 -4.63737 1.4169 0
M  V30 10223 N 945.984 -0.3171 -1.54377 0
M  V30 10224 C 947.209 0.292311 -2.0533 0
M  V30 10225 C 947.634 1.45503 -1.19207 0
M  V30 10226 O 946.992 1.80197 -0.199721 0
M  V30 10227 C 947.04 0.710787 -3.53525 0
M  V30 10228 O 946.144 1.81387 -3.70368 0
M  V30 10229 H 945.485 0.0539976 -0.661801 0
M  V30 10230 H 948.015 -0.463629 -1.99278 0
M  V30 10231 H 948.025 0.995216 -3.95676 0
M  V30 10232 H 946.7 -0.139668 -4.15665 0
M  V30 10233 H 945.277 1.52875 -3.40123 0
M  V30 10234 N 947.462 1.57535 -0.0451378 0
M  V30 10235 C 948.711 1.91628 0.629415 0
M  V30 10236 C 949.024 0.924754 1.72359 0
M  V30 10237 O 950.23 1.15751 2.45589 0
M  V30 10238 C 948.686 3.40322 1.17084 0
M  V30 10239 C 948.294 4.47867 0.109101 0
M  V30 10240 C 950.038 3.83458 1.82099 0
M  V30 10241 C 947.945 5.87671 0.663072 0
M  V30 10242 H 946.875 0.715163 0.238868 0
M  V30 10243 H 949.526 1.83151 -0.113046 0
M  V30 10244 H 947.908 3.43783 1.96543 0
M  V30 10245 H 949.082 4.55988 -0.664201 0
M  V30 10246 H 947.397 4.14034 -0.443227 0
M  V30 10247 H 949.994 4.85273 2.2453 0
M  V30 10248 H 950.337 3.19379 2.67026 0
M  V30 10249 H 950.87 3.82488 1.09305 0
M  V30 10250 H 947.609 6.55332 -0.148423 0
M  V30 10251 H 947.129 5.83124 1.4045 0
M  V30 10252 H 948.808 6.36737 1.14785 0
M  V30 10253 N 948.94 -0.228186 1.55939 0
M  V30 10254 C 950.188 -0.951668 1.78291 0
M  V30 10255 C 950.509 -1.85132 0.612474 0
M  V30 10256 O 949.779 -1.92356 -0.370942 0
M  V30 10257 H 948.359 -0.354388 0.657585 0
M  V30 10258 H 951.021 -0.241635 1.93396 0
M  V30 10259 H 950.117 -1.56239 2.70177 0
M  V30 10260 N 950.418 -1.49637 -0.494624 0
M  V30 10261 C 951.381 -1.66252 -1.57775 0
M  V30 10262 C 952.381 -0.534054 -1.51672 0
M  V30 10263 O 953.571 -0.800637 -1.54711 0
M  V30 10264 C 950.703 -1.66584 -2.97426 0
M  V30 10265 H 951.896 -2.62864 -1.4437 0
M  V30 10266 H 949.449 -1.38764 -0.719323 0
M  V30 10267 H 950.184 -0.715798 -3.16302 0
M  V30 10268 H 949.969 -2.48543 -3.03264 0
M  V30 10269 H 951.459 -1.81474 -3.76108 0
M  V30 10270 N 951.896 0.746133 -1.38819 0
M  V30 10271 C 952.828 1.86991 -1.3254 0
M  V30 10272 C 953.841 1.61077 -0.236216 0
M  V30 10273 O 955.03 1.71518 -0.494341 0
M  V30 10274 C 952.13 3.22786 -1.03258 0
M  V30 10275 C 951.303 3.76145 -2.23234 0
M  V30 10276 C 950.362 4.90474 -1.90581 0
M  V30 10277 O 949.388 5.04717 -2.63153 0
M  V30 10278 N 950.59 5.74015 -0.86525 0
M  V30 10279 H 953.355 1.92885 -2.2938 0
M  V30 10280 H 950.916 0.926392 -1.32776 0
M  V30 10281 H 952.908 3.96824 -0.794533 0
M  V30 10282 H 951.478 3.12231 -0.151895 0
M  V30 10283 H 950.698 2.93587 -2.63059 0
M  V30 10284 H 951.986 4.08528 -3.03285 0
M  V30 10285 H 951.384 5.65086 -0.263577 0
M  V30 10286 H 949.941 6.48168 -0.687087 0
M  V30 10287 N 953.375 1.23811 0.975125 0
M  V30 10288 C 954.603 1.10019 1.75224 0
M  V30 10289 C 955.018 -0.34791 1.85567 0
M  V30 10290 O 954.375 -1.24043 1.33864 0
M  V30 10291 C 954.426 1.72572 3.1765 0
M  V30 10292 O 954.147 3.11719 3.07836 0
M  V30 10293 C 955.648 1.64292 4.11732 0
M  V30 10294 H 952.868 0.38476 0.549728 0
M  V30 10295 H 955.412 1.63768 1.22476 0
M  V30 10296 H 953.567 1.22843 3.67408 0
M  V30 10297 H 953.981 3.42152 3.97533 0
M  V30 10298 H 955.455 2.12754 5.09352 0
M  V30 10299 H 955.932 0.602722 4.35045 0
M  V30 10300 H 956.538 2.13411 3.6788 0
M  V30 10301 N 954.853 -1.17469 1.05066 0
M  V30 10302 C 956.13 -1.83625 0.673872 0
M  V30 10303 C 956.51 -1.93412 -0.845871 0
M  V30 10304 O 955.858 -1.4677 -1.75131 0
M  V30 10305 C 956.068 -3.21352 1.36139 0
M  V30 10306 C 957.416 -3.97274 1.49863 0
M  V30 10307 O 958.44 -3.30827 1.3203 0
M  V30 10308 O 957.299 -5.16349 1.79013 0
M  V30 10309 H 954.393 -0.792297 0.237055 0
M  V30 10310 H 956.939 -1.24776 1.15017 0
M  V30 10311 H 955.711 -3.0919 2.39827 0
M  V30 10312 H 955.334 -3.87867 0.874364 0
M  V30 10313 N 956.331 -0.831506 -1.3388 0
M  V30 10314 C 957.578 -0.423674 -1.98018 0
M  V30 10315 C 957.906 1.01533 -1.65895 0
M  V30 10316 O 957.161 1.72342 -0.927183 0
M  V30 10317 C 957.46 -0.582733 -3.52617 0
M  V30 10318 C 957.126 -1.98874 -4.04673 0
M  V30 10319 C 955.788 -2.37334 -4.186 0
M  V30 10320 C 958.14 -2.90745 -4.3257 0
M  V30 10321 C 955.468 -3.66984 -4.57755 0
M  V30 10322 C 957.82 -4.19868 -4.73174 0
M  V30 10323 C 956.484 -4.58294 -4.85307 0
M  V30 10324 H 955.754 -0.155033 -0.7246 0
M  V30 10325 H 958.401 -1.05711 -1.59679 0
M  V30 10326 H 956.706 0.134052 -3.91571 0
M  V30 10327 H 958.403 -0.247576 -4.00235 0
M  V30 10328 H 954.993 -1.68001 -3.94301 0
M  V30 10329 H 959.177 -2.62272 -4.2134 0
M  V30 10330 H 954.433 -3.9657 -4.65341 0
M  V30 10331 H 958.607 -4.91138 -4.93717 0
M  V30 10332 H 956.234 -5.58805 -5.15404 0
M  V30 10333 N 957.809 1.4625 -0.587256 0
M  V30 10334 C 958.739 2.33132 0.131076 0
M  V30 10335 C 959.72 1.45619 0.879158 0
M  V30 10336 O 960.905 1.74428 0.853723 0
M  V30 10337 C 958.035 3.27975 1.14236 0
M  V30 10338 C 956.989 4.24965 0.508819 0
M  V30 10339 C 956.315 5.09349 1.62689 0
M  V30 10340 C 957.615 5.19322 -0.55694 0
M  V30 10341 H 959.309 2.93442 -0.594333 0
M  V30 10342 H 956.855 1.41106 -0.287263 0
M  V30 10343 H 958.808 3.87614 1.65328 0
M  V30 10344 H 957.532 2.65781 1.8981 0
M  V30 10345 H 956.191 3.66595 0.0189337 0
M  V30 10346 H 955.839 4.43537 2.37242 0
M  V30 10347 H 955.539 5.75036 1.20861 0
M  V30 10348 H 957.063 5.71852 2.14049 0
M  V30 10349 H 958.477 5.73151 -0.130903 0
M  V30 10350 H 956.874 5.93376 -0.895801 0
M  V30 10351 H 957.944 4.62979 -1.44148 0
M  V30 10352 N 959.287 0.325282 1.54207 0
M  V30 10353 C 960.512 -0.281418 2.05482 0
M  V30 10354 C 960.937 -1.44869 1.19977 0
M  V30 10355 O 960.295 -1.80088 0.209275 0
M  V30 10356 C 960.343 -0.692029 3.53897 0
M  V30 10357 O 959.447 -1.7942 3.71325 0
M  V30 10358 H 958.788 -0.0504872 0.662078 0
M  V30 10359 H 961.318 0.474191 1.99029 0
M  V30 10360 H 961.328 -0.974219 3.96198 0
M  V30 10361 H 960.003 0.161709 4.15586 0
M  V30 10362 H 958.58 -1.51069 3.40929 0
M  V30 10363 N 960.765 -1.57509 0.0534917 0
M  V30 10364 C 962.011 -1.93068 -0.62069 0
M  V30 10365 C 962.344 -0.932313 -1.70357 0
M  V30 10366 O 961.619 0.0413393 -1.94456 0
M  V30 10367 C 961.902 -3.38997 -1.21463 0
M  V30 10368 C 961.755 -4.49583 -0.13965 0
M  V30 10369 C 963.074 -3.85366 -2.12558 0
M  V30 10370 H 960.193 -0.702083 -0.224163 0
M  V30 10371 H 962.835 -1.89647 0.115729 0
M  V30 10372 H 960.985 -3.42043 -1.84226 0
M  V30 10373 H 962.657 -4.58664 0.492411 0
M  V30 10374 H 960.9 -4.30525 0.532006 0
M  V30 10375 H 961.571 -5.48781 -0.595287 0
M  V30 10376 H 964.047 -3.8421 -1.59755 0
M  V30 10377 H 962.923 -4.8812 -2.51058 0
M  V30 10378 H 963.184 -3.22256 -3.02661 0
M  V30 10379 N 962.243 0.219913 -1.56058 0
M  V30 10380 C 963.49 0.944064 -1.79147 0
M  V30 10381 C 963.818 1.84268 -0.622531 0
M  V30 10382 O 963.073 1.91713 0.393013 0
M  V30 10383 C 963.372 1.81293 -3.08006 0
M  V30 10384 C 963.038 1.0674 -4.38084 0
M  V30 10385 C 961.7 0.86147 -4.73426 0
M  V30 10386 C 964.052 0.541049 -5.18384 0
M  V30 10387 C 961.38 0.117307 -5.86583 0
M  V30 10388 C 963.732 -0.189779 -6.32315 0
M  V30 10389 C 962.396 -0.406951 -6.66258 0
M  V30 10390 H 961.666 0.345458 -0.655546 0
M  V30 10391 H 964.313 0.212121 -1.90322 0
M  V30 10392 H 962.618 2.61278 -2.9196 0
M  V30 10393 H 964.315 2.3754 -3.23072 0
M  V30 10394 H 960.905 1.23789 -4.10334 0
M  V30 10395 H 965.089 0.687617 -4.91514 0
M  V30 10396 H 960.345 -0.0611651 -6.11369 0
M  V30 10397 H 964.519 -0.605134 -6.93766 0
M  V30 10398 H 962.146 -0.985511 -7.53785 0
M  V30 10399 N 963.721 1.49897 0.486681 0
M  V30 10400 C 964.968 1.60105 1.23986 0
M  V30 10401 C 965.296 0.294228 1.92262 0
M  V30 10402 O 964.551 -0.718876 1.82018 0
M  V30 10403 C 964.85 2.71982 2.31863 0
M  V30 10404 C 964.516 4.13 1.80948 0
M  V30 10405 C 963.178 4.51373 1.66782 0
M  V30 10406 C 965.53 5.01198 1.43004 0
M  V30 10407 C 962.858 5.75701 1.13072 0
M  V30 10408 C 965.21 6.26058 0.90742 0
M  V30 10409 C 963.874 6.63247 0.752269 0
M  V30 10410 H 963.144 0.585866 0.453698 0
M  V30 10411 H 965.791 1.83778 0.538305 0
M  V30 10412 H 964.096 2.42336 3.07865 0
M  V30 10413 H 965.793 2.77087 2.89869 0
M  V30 10414 H 962.383 3.82718 1.92937 0
M  V30 10415 H 966.567 4.72196 1.52789 0
M  V30 10416 H 961.823 6.03202 0.997842 0
M  V30 10417 H 965.997 6.9377 0.604684 0
M  V30 10418 H 963.624 7.59466 0.33392 0
M  V30 10419 N 965.199 -0.738761 1.39212 0
M  V30 10420 C 966.424 -1.5331 1.39681 0
M  V30 10421 C 966.849 -1.88098 -0.00768715 0
M  V30 10422 O 966.207 -1.51642 -0.993699 0
M  V30 10423 C 966.255 -2.79958 2.27279 0
M  V30 10424 O 965.359 -3.75727 1.70008 0
M  V30 10425 H 964.7 -0.463131 0.475821 0
M  V30 10426 H 967.23 -0.911768 1.83161 0
M  V30 10427 H 967.24 -3.28732 2.41659 0
M  V30 10428 H 965.915 -2.5397 3.29351 0
M  V30 10429 H 964.492 -3.34483 1.64851 0
M  V30 10430 N 966.677 -1.24326 -0.968545 0
M  V30 10431 C 967.925 -1.08032 -1.70803 0
M  V30 10432 C 968.246 0.381728 -1.91227 0
M  V30 10433 O 967.516 1.27253 -1.48942 0
M  V30 10434 H 966.096 -0.396777 -0.632912 0
M  V30 10435 H 968.758 -1.56232 -1.16523 0
M  V30 10436 H 967.854 -1.57769 -2.69287 0
M  V30 10437 N 968.156 1.1691 -1.05688 0
M  V30 10438 C 969.386 1.90927 -0.789339 0
M  V30 10439 C 969.794 1.77339 0.659369 0
M  V30 10440 O 969.137 1.11147 1.4626 0
M  V30 10441 C 969.199 3.42361 -1.09677 0
M  V30 10442 C 968.863 3.79733 -2.54267 0
M  V30 10443 C 969.86 3.82163 -3.52487 0
M  V30 10444 C 967.545 4.10547 -2.89406 0
M  V30 10445 C 969.539 4.14884 -4.8389 0
M  V30 10446 C 967.226 4.42936 -4.21011 0
M  V30 10447 C 968.224 4.45084 -5.18063 0
M  V30 10448 O 967.912 4.76707 -6.47307 0
M  V30 10449 H 967.644 0.612466 -0.286115 0
M  V30 10450 H 970.198 1.4916 -1.4121 0
M  V30 10451 H 968.428 3.84446 -0.416924 0
M  V30 10452 H 970.117 3.97645 -0.814456 0
M  V30 10453 H 970.883 3.58476 -3.26681 0
M  V30 10454 H 966.762 4.08044 -2.14525 0
M  V30 10455 H 970.306 4.16475 -5.59638 0
M  V30 10456 H 966.203 4.66088 -4.46579 0
M  V30 10457 H 966.971 4.94544 -6.52203 0
M  V30 10458 N 969.634 0.838594 1.33437 0
M  V30 10459 C 970.862 0.447644 2.01999 0
M  V30 10460 C 971.277 -0.951053 1.63096 0
M  V30 10461 O 970.634 -1.61802 0.844169 0
M  V30 10462 C 970.685 0.558378 3.57162 0
M  V30 10463 O 970.406 1.90196 3.94661 0
M  V30 10464 C 971.907 0.164348 4.42995 0
M  V30 10465 H 969.127 0.177736 0.647032 0
M  V30 10466 H 971.671 1.13109 1.70372 0
M  V30 10467 H 969.826 -0.0771563 3.87323 0
M  V30 10468 H 970.24 1.88729 4.89369 0
M  V30 10469 H 971.714 0.292876 5.51222 0
M  V30 10470 H 972.191 -0.893713 4.30011 0
M  V30 10471 H 972.797 0.774306 4.18192 0
M  V30 10472 N 971.112 -1.45937 0.595003 0
M  V30 10473 C 972.359 -2.0232 0.0853053 0
M  V30 10474 C 972.687 -1.465 -1.27937 0
M  V30 10475 O 971.942 -0.624767 -1.85459 0
M  V30 10476 C 972.241 -3.57396 -0.0173747 0
M  V30 10477 C 971.907 -4.32311 1.28131 0
M  V30 10478 C 970.569 -4.52496 1.63708 0
M  V30 10479 C 972.921 -4.75233 2.14017 0
M  V30 10480 C 970.249 -5.12857 2.84947 0
M  V30 10481 C 972.601 -5.36933 3.34493 0
M  V30 10482 C 971.265 -5.55343 3.70338 0
M  V30 10483 H 970.535 -0.740342 0.0312154 0
M  V30 10484 H 973.182 -1.75157 0.774103 0
M  V30 10485 H 971.487 -3.83766 -0.789371 0
M  V30 10486 H 973.184 -3.98713 -0.427699 0
M  V30 10487 H 969.774 -4.16905 0.994374 0
M  V30 10488 H 973.958 -4.59383 1.87833 0
M  V30 10489 H 969.214 -5.253 3.12841 0
M  V30 10490 H 973.388 -5.69147 4.01304 0
M  V30 10491 H 971.015 -6.01883 4.64371 0
M  V30 10492 N 972.59 -0.333456 -1.54032 0
M  V30 10493 C 973.537 0.527981 -2.2468 0
M  V30 10494 C 974.507 1.10371 -1.24127 0
M  V30 10495 O 975.692 1.14221 -1.52834 0
M  V30 10496 C 972.832 1.67808 -3.01553 0
M  V30 10497 C 971.945 1.13064 -4.16942 0
M  V30 10498 C 971.08 2.24722 -4.81325 0
M  V30 10499 C 970.119 1.67277 -5.88799 0
M  V30 10500 N 969.256 2.72638 -6.47003 0
M  V30 10501 H 974.096 -0.0810308 -2.9789 0
M  V30 10502 H 971.633 -0.051761 -1.47009 0
M  V30 10503 H 973.591 2.35502 -3.44376 0
M  V30 10504 H 972.221 2.25823 -2.30659 0
M  V30 10505 H 971.273 0.344948 -3.78833 0
M  V30 10506 H 972.585 0.670373 -4.94275 0
M  V30 10507 H 971.739 3.00301 -5.27166 0
M  V30 10508 H 970.478 2.74089 -4.03394 0
M  V30 10509 H 969.483 0.902002 -5.4235 0
M  V30 10510 H 970.708 1.18775 -6.68632 0
M  V30 10511 H 968.654 3.21277 -5.71941 0
M  V30 10512 H 968.571 2.31204 -7.19778 0
M  V30 10513 H 969.839 3.48015 -6.97499 0
M  V30 10514 N 974.068 1.57479 -0.061844 0
M  V30 10515 C 975.018 2.0867 0.918749 0
M  V30 10516 C 976.002 0.994174 1.26511 0
M  V30 10517 O 977.194 1.25738 1.24575 0
M  V30 10518 C 974.323 2.64386 2.18986 0
M  V30 10519 C 973.409 3.80626 1.87042 0
M  V30 10520 N 973.8 4.89982 1.25504 0
M  V30 10521 C 972.098 3.89733 2.1685 0
M  V30 10522 C 972.799 5.70928 1.11429 0
M  V30 10523 N 971.775 5.18877 1.62072 0
M  V30 10524 H 975.577 2.90611 0.438469 0
M  V30 10525 H 973.091 1.61775 0.142321 0
M  V30 10526 H 975.088 2.9937 2.90144 0
M  V30 10527 H 973.748 1.83888 2.67611 0
M  V30 10528 H 974.759 5.09556 0.925914 0
M  V30 10529 H 971.436 3.20194 2.67921 0
M  V30 10530 H 972.826 6.68886 0.635665 0
M  V30 10531 N 975.546 -0.211634 1.56173 0
M  V30 10532 C 976.493 -1.26231 1.93221 0
M  V30 10533 C 977.463 -1.46076 0.790641 0
M  V30 10534 O 978.648 -1.59482 1.04739 0
M  V30 10535 C 975.788 -2.60559 2.26281 0
M  V30 10536 C 974.901 -2.48431 3.5342 0
M  V30 10537 C 974.036 -3.7535 3.7588 0
M  V30 10538 C 973.075 -3.57985 4.96501 0
M  V30 10539 N 972.212 -4.76877 5.15299 0
M  V30 10540 H 977.052 -0.939367 2.82807 0
M  V30 10541 H 974.589 -0.452511 1.39967 0
M  V30 10542 H 976.547 -3.38796 2.43461 0
M  V30 10543 H 975.177 -2.9093 1.39855 0
M  V30 10544 H 974.229 -1.61577 3.44379 0
M  V30 10545 H 975.541 -2.31526 4.41811 0
M  V30 10546 H 974.695 -4.62029 3.9321 0
M  V30 10547 H 973.434 -3.95191 2.85788 0
M  V30 10548 H 972.439 -2.69691 4.79111 0
M  V30 10549 H 973.664 -3.39605 5.88086 0
M  V30 10550 H 971.61 -4.97013 4.28152 0
M  V30 10551 H 971.527 -4.62735 5.9784 0
M  V30 10552 H 972.795 -5.64954 5.37073 0
M  V30 10553 N 977.024 -1.50153 -0.478725 0
M  V30 10554 C 977.957 -1.63089 -1.59616 0
M  V30 10555 C 978.935 -0.479211 -1.55378 0
M  V30 10556 O 980.119 -0.697715 -1.75112 0
M  V30 10557 C 977.246 -1.60643 -2.9818 0
M  V30 10558 C 976.292 -2.81279 -3.206 0
M  V30 10559 S 977.125 -4.42681 -3.0132 0
M  V30 10560 C 978.281 -4.42915 -4.42241 0
M  V30 10561 H 978.514 -2.57612 -1.48402 0
M  V30 10562 H 976.047 -1.39321 -0.665513 0
M  V30 10563 H 978.005 -1.59917 -3.7807 0
M  V30 10564 H 976.666 -0.673684 -3.0679 0
M  V30 10565 H 975.859 -2.7585 -4.21809 0
M  V30 10566 H 975.461 -2.79533 -2.4847 0
M  V30 10567 H 977.753 -4.16007 -5.34737 0
M  V30 10568 H 978.696 -5.44477 -4.52715 0
M  V30 10569 H 979.104 -3.72715 -4.23962 0
M  V30 10570 N 978.502 0.731368 -1.39602 0
M  V30 10571 C 979.748 1.49321 -1.37227 0
M  V30 10572 C 980.081 1.94176 0.0306502 0
M  V30 10573 O 979.356 1.67046 0.996294 0
M  V30 10574 C 979.639 2.73035 -2.34784 0
M  V30 10575 C 979.492 2.34176 -3.84033 0
M  V30 10576 C 980.811 3.75146 -2.30116 0
M  V30 10577 H 977.93 0.541652 -0.499783 0
M  V30 10578 H 980.572 0.835968 -1.70621 0
M  V30 10579 H 978.722 3.29114 -2.06437 0
M  V30 10580 H 980.394 1.83701 -4.23145 0
M  V30 10581 H 978.637 1.66361 -4.00633 0
M  V30 10582 H 979.308 3.22786 -4.47787 0
M  V30 10583 H 981.784 3.28661 -2.55189 0
M  V30 10584 H 980.66 4.5937 -3.00451 0
M  V30 10585 H 980.921 4.22326 -1.30741 0
M  V30 10586 N 979.98 1.24838 0.961938 0
M  V30 10587 C 981.21 1.11709 1.73795 0
M  V30 10588 C 981.618 -0.33263 1.86253 0
M  V30 10589 O 980.961 -1.24101 1.35443 0
M  V30 10590 C 981.023 1.68959 3.17322 0
M  V30 10591 C 980.687 3.17895 3.28316 0
M  V30 10592 C 981.684 4.14975 3.13196 0
M  V30 10593 C 979.369 3.57966 3.52372 0
M  V30 10594 C 981.363 5.50107 3.21965 0
M  V30 10595 C 979.05 4.93237 3.60778 0
M  V30 10596 C 980.048 5.89116 3.45588 0
M  V30 10597 O 979.736 7.21927 3.53662 0
M  V30 10598 H 979.468 0.390726 0.551642 0
M  V30 10599 H 982.022 1.65541 1.21594 0
M  V30 10600 H 980.252 1.09567 3.70853 0
M  V30 10601 H 981.941 1.51036 3.76753 0
M  V30 10602 H 982.707 3.85359 2.94489 0
M  V30 10603 H 978.586 2.83837 3.63259 0
M  V30 10604 H 982.13 6.24924 3.10025 0
M  V30 10605 H 978.027 5.22522 3.79 0
M  V30 10606 H 978.795 7.29925 3.7034 0
M  V30 10607 N 981.458 -1.16348 1.06306 0
M  V30 10608 C 982.368 -2.24375 0.685059 0
M  V30 10609 C 983.384 -1.71413 -0.298956 0
M  V30 10610 O 984.56 -2.00854 -0.148239 0
M  V30 10611 C 981.625 -3.46614 0.0774088 0
M  V30 10612 C 980.686 -4.14613 1.11331 0
M  V30 10613 C 979.919 -5.31016 0.534559 0
M  V30 10614 O 980.142 -5.66654 -0.65265 0
M  V30 10615 O 979.076 -5.88256 1.27431 0
M  V30 10616 H 982.902 -2.59018 1.58566 0
M  V30 10617 H 980.487 -1.23865 0.835332 0
M  V30 10618 H 982.369 -4.20599 -0.259716 0
M  V30 10619 H 981.044 -3.13743 -0.796677 0
M  V30 10620 H 979.951 -3.42597 1.50261 0
M  V30 10621 H 981.284 -4.51538 1.95893 0
M  V30 10622 N 982.937 -0.845659 -1.3299 0
M  V30 10623 C 984.214 -0.366306 -1.92139 0
M  V30 10624 C 984.594 1.14912 -1.77083 0
M  V30 10625 O 983.942 1.96667 -1.16338 0
M  V30 10626 C 984.152 -0.820716 -3.39213 0
M  V30 10627 C 985.5 -0.832667 -4.16355 0
M  V30 10628 O 986.524 -0.764764 -3.47893 0
M  V30 10629 O 985.383 -0.926658 -5.38586 0
M  V30 10630 H 982.477 -0.105063 -0.820299 0
M  V30 10631 H 985.023 -0.931962 -1.41819 0
M  V30 10632 H 983.795 -1.86357 -3.44074 0
M  V30 10633 H 983.418 -0.232009 -3.96923 0
M  V30 10634 N 984.415 1.45619 -0.602734 0
M  V30 10635 C 985.643 2.06647 -0.102253 0
M  V30 10636 C 986.058 1.4482 1.21131 0
M  V30 10637 O 985.415 0.560621 1.73676 0
M  V30 10638 C 985.466 3.61467 0.0490113 0
M  V30 10639 O 985.187 4.20985 -1.21257 0
M  V30 10640 C 986.688 4.39469 0.581517 0
M  V30 10641 H 983.908 0.667685 -0.0666155 0
M  V30 10642 H 986.452 1.86939 -0.829091 0
M  V30 10643 H 984.607 3.80534 0.726153 0
M  V30 10644 H 985.021 5.14103 -1.03915 0
M  V30 10645 H 986.495 5.48318 0.636462 0
M  V30 10646 H 986.972 4.0891 1.60277 0
M  V30 10647 H 987.578 4.25256 -0.061419 0
M  V30 10648 N 985.893 0.34162 1.53853 0
M  V30 10649 C 986.823 -0.508431 2.27897 0
M  V30 10650 C 987.804 -1.10425 1.29384 0
M  V30 10651 O 988.989 -1.126 1.58224 0
M  V30 10652 C 986.119 -1.66048 3.05034 0
M  V30 10653 C 985.073 -1.19309 4.11035 0
M  V30 10654 C 984.399 -2.4335 4.76114 0
M  V30 10655 C 985.699 -0.294952 5.21467 0
M  V30 10656 H 987.393 0.109251 2.99201 0
M  V30 10657 H 984.939 0.0539847 1.43899 0
M  V30 10658 H 986.892 -2.26158 3.5557 0
M  V30 10659 H 985.616 -2.30503 2.31379 0
M  V30 10660 H 984.275 -0.614809 3.61408 0
M  V30 10661 H 983.923 -3.06208 3.99056 0
M  V30 10662 H 983.623 -2.1276 5.47729 0
M  V30 10663 H 985.147 -3.0419 5.29434 0
M  V30 10664 H 986.561 -0.80285 5.67651 0
M  V30 10665 H 984.958 -0.0810221 6.00045 0
M  V30 10666 H 986.028 0.669433 4.80257 0
M  V30 10667 N 987.371 -1.57444 0.0701946 0
M  V30 10668 C 988.599 -1.97754 -0.608358 0
M  V30 10669 C 989.014 -0.948496 -1.63245 0
M  V30 10670 O 988.371 0.065046 -1.82384 0
M  V30 10671 C 988.422 -3.38142 -1.27836 0
M  V30 10672 O 988.143 -4.37104 -0.295255 0
M  V30 10673 C 989.644 -3.93318 -2.04489 0
M  V30 10674 H 986.864 -0.650398 -0.164997 0
M  V30 10675 H 989.408 -2.04006 0.142124 0
M  V30 10676 H 987.563 -3.32982 -1.97994 0
M  V30 10677 H 987.977 -5.18732 -0.77574 0
M  V30 10678 H 989.451 -4.93774 -2.46762 0
M  V30 10679 H 989.928 -3.29774 -2.90079 0
M  V30 10680 H 990.534 -4.01875 -1.39201 0
M  V30 10681 N 988.849 0.203349 -1.56283 0
M  V30 10682 C 989.779 1.2549 -1.96912 0
M  V30 10683 C 990.76 1.47919 -0.839884 0
M  V30 10684 O 991.945 1.59795 -1.10359 0
M  V30 10685 C 989.075 2.6009 -2.30153 0
M  V30 10686 C 988.029 2.52289 -3.45738 0
M  V30 10687 C 987.355 3.91086 -3.64632 0
M  V30 10688 C 988.655 2.05503 -4.80173 0
M  V30 10689 H 990.349 0.917306 -2.85002 0
M  V30 10690 H 987.895 0.439818 -1.37119 0
M  V30 10691 H 989.848 3.33829 -2.5717 0
M  V30 10692 H 988.572 2.95574 -1.38937 0
M  V30 10693 H 987.231 1.81006 -3.18798 0
M  V30 10694 H 986.879 4.23908 -2.7076 0
M  V30 10695 H 986.579 3.86742 -4.42385 0
M  V30 10696 H 988.103 4.66459 -3.94016 0
M  V30 10697 H 989.517 2.68995 -5.06275 0
M  V30 10698 H 987.914 2.1218 -5.61337 0
M  V30 10699 H 988.984 1.00793 -4.74309 0
M  V30 10700 N 990.327 1.50405 0.470755 0
M  V30 10701 C 991.574 1.61411 1.22281 0
M  V30 10702 C 991.902 0.314603 1.91939 0
M  V30 10703 O 991.157 -0.699531 1.82771 0
M  V30 10704 C 991.456 2.74426 2.28965 0
M  V30 10705 C 991.122 4.14896 1.76557 0
M  V30 10706 C 989.784 4.53116 1.61985 0
M  V30 10707 C 992.136 5.02686 1.3768 0
M  V30 10708 C 989.464 5.76868 1.0696 0
M  V30 10709 C 991.816 6.26985 0.840967 0
M  V30 10710 C 990.48 6.64008 0.68188 0
M  V30 10711 H 989.75 0.590645 0.447459 0
M  V30 10712 H 992.397 1.84339 0.518783 0
M  V30 10713 H 990.702 2.45588 3.05277 0
M  V30 10714 H 992.399 2.80146 2.86914 0
M  V30 10715 H 988.989 3.84743 1.88867 0
M  V30 10716 H 993.173 4.7379 1.47772 0
M  V30 10717 H 988.429 6.04227 0.933808 0
M  V30 10718 H 992.603 6.94372 0.531066 0
M  V30 10719 H 990.23 7.59778 0.25335 0
M  V30 10720 N 991.805 -0.723954 1.39988 0
M  V30 10721 C 993.216 -1.30273 1.33738 0
M  V30 10722 C 993.567 -1.96199 0.00690581 0
M  V30 10723 O 992.692 -1.97016 -0.895179 0
M  V30 10724 C 993.287 -2.36889 2.42217 0
M  V30 10725 C 991.846 -2.90412 2.39453 0
M  V30 10726 C 990.993 -1.64103 2.2353 0
M  V30 10727 H 993.944 -0.520672 1.49916 0
M  V30 10728 H 993.965 -3.17538 2.09642 0
M  V30 10729 H 993.477 -1.88878 3.39038 0
M  V30 10730 H 991.578 -3.42674 1.46304 0
M  V30 10731 H 991.691 -3.42775 3.34727 0
M  V30 10732 H 990.055 -1.88855 1.70897 0
M  V30 10733 H 990.838 -1.18128 3.22336 0
M  V30 10734 N 993.283 -1.25346 -0.955304 0
M  V30 10735 C 994.53 -1.10055 -1.69983 0
M  V30 10736 C 994.858 0.358586 -1.91166 0
M  V30 10737 O 994.113 1.28071 -1.47974 0
M  V30 10738 C 994.412 -1.7993 -3.08804 0
M  V30 10739 C 994.078 -3.29851 -3.07424 0
M  V30 10740 C 992.74 -3.7075 -3.06754 0
M  V30 10741 C 995.092 -4.25636 -3.00805 0
M  V30 10742 C 992.42 -5.05847 -2.97214 0
M  V30 10743 C 994.772 -5.60756 -2.92806 0
M  V30 10744 C 993.436 -6.00984 -2.90472 0
M  V30 10745 H 992.706 -0.402718 -0.622012 0
M  V30 10746 H 995.353 -1.5561 -1.11614 0
M  V30 10747 H 993.658 -1.26803 -3.70713 0
M  V30 10748 H 995.355 -1.65551 -3.65231 0
M  V30 10749 H 991.945 -2.97308 -3.08716 0
M  V30 10750 H 996.129 -3.9503 -3.00441 0
M  V30 10751 H 991.385 -5.36196 -2.93775 0
M  V30 10752 H 995.559 -6.34671 -2.86645 0
M  V30 10753 H 993.186 -7.05626 -2.82835 0
M  V30 10754 N 994.761 1.15782 -1.06922 0
M  V30 10755 C 995.986 1.90896 -0.810771 0
M  V30 10756 C 996.411 1.77246 0.629714 0
M  V30 10757 O 995.769 1.10215 1.43953 0
M  V30 10758 C 995.817 3.39397 -1.21829 0
M  V30 10759 O 994.921 4.10818 -0.360934 0
M  V30 10760 H 994.262 0.594497 -0.295752 0
M  V30 10761 H 996.792 1.46652 -1.42669 0
M  V30 10762 H 996.802 3.90181 -1.19259 0
M  V30 10763 H 995.477 3.4865 -2.2675 0
M  V30 10764 H 994.054 3.7019 -0.448748 0
M  V30 10765 N 996.239 0.8527 1.3254 0
M  V30 10766 C 997.487 0.454224 1.96929 0
M  V30 10767 C 997.808 -0.993034 1.67821 0
M  V30 10768 O 997.078 -1.69371 0.984393 0
M  V30 10769 H 995.658 0.164977 0.728554 0
M  V30 10770 H 998.32 1.0887 1.61658 0
M  V30 10771 H 997.416 0.597667 3.06324 0
M  V30 10772 N 997.718 -1.45297 0.610449 0
M  V30 10773 C 998.628 -2.34349 -0.108475 0
M  V30 10774 C 999.644 -1.51409 -0.857397 0
M  V30 10775 O 1000.82 -1.84202 -0.814337 0
M  V30 10776 C 997.885 -3.29072 -1.09144 0
M  V30 10777 C 996.946 -4.27918 -0.344165 0
M  V30 10778 C 996.179 -5.18116 -1.28031 0
M  V30 10779 O 996.402 -5.11802 -2.51824 0
M  V30 10780 O 995.336 -5.96879 -0.775821 0
M  V30 10781 H 999.162 -2.97232 0.623421 0
M  V30 10782 H 996.747 -1.44728 0.3707 0
M  V30 10783 H 998.629 -3.87433 -1.65751 0
M  V30 10784 H 997.304 -2.68749 -1.80431 0
M  V30 10785 H 996.211 -3.73164 0.264437 0
M  V30 10786 H 997.544 -4.91104 0.328275 0
M  V30 10787 N 999.196 -0.349774 -1.5367 0
M  V30 10788 C 1000.42 0.246038 -2.05432 0
M  V30 10789 C 1000.84 1.43719 -1.22435 0
M  V30 10790 O 1000.2 1.80622 -0.261166 0
M  V30 10791 C 1000.25 0.65501 -3.55516 0
M  V30 10792 O 999.968 -0.488782 -4.35365 0
M  V30 10793 C 1001.47 1.31088 -4.23475 0
M  V30 10794 H 998.689 0.0463952 -0.669394 0
M  V30 10795 H 1001.23 -0.503566 -1.98203 0
M  V30 10796 H 999.388 1.35455 -3.62947 0
M  V30 10797 H 999.802 -0.161528 -5.24251 0
M  V30 10798 H 1001.28 1.54774 -5.29857 0
M  V30 10799 H 1001.75 2.26636 -3.76208 0
M  V30 10800 H 1002.36 0.653211 -4.20254 0
M  V30 10801 N 1000.67 1.57404 -0.0785433 0
M  V30 10802 C 1001.92 1.94031 0.589896 0
M  V30 10803 C 1002.25 0.959297 1.68852 0
M  V30 10804 O 1001.53 -0.0103978 1.94497 0
M  V30 10805 C 1001.81 3.40886 1.16055 0
M  V30 10806 C 1001.66 4.49748 0.0681072 0
M  V30 10807 C 1002.98 3.88699 2.06401 0
M  V30 10808 H 1000.1 0.70556 0.212965 0
M  V30 10809 H 1002.74 1.89439 -0.145886 0
M  V30 10810 H 1000.89 3.4493 1.78761 0
M  V30 10811 H 1002.57 4.57823 -0.565318 0
M  V30 10812 H 1000.81 4.29625 -0.600431 0
M  V30 10813 H 1001.48 5.49658 0.507906 0
M  V30 10814 H 1003.96 3.86703 1.53622 0
M  V30 10815 H 1002.83 4.92052 2.43261 0
M  V30 10816 H 1003.09 3.2703 2.97496 0
M  V30 10817 N 1002.15 -0.195058 1.56388 0
M  V30 10818 C 1003.4 -0.915444 1.80626 0
M  V30 10819 C 1003.73 -1.83255 0.651768 0
M  V30 10820 O 1002.98 -1.92314 -0.362464 0
M  V30 10821 C 1003.28 -1.7637 3.10851 0
M  V30 10822 C 1002.95 -0.997572 4.39726 0
M  V30 10823 C 1001.61 -0.786043 4.74737 0
M  V30 10824 C 1003.96 -0.45851 5.19179 0
M  V30 10825 C 1001.29 -0.023972 5.86695 0
M  V30 10826 C 1003.64 0.29035 6.31933 0
M  V30 10827 C 1002.3 0.512895 6.65527 0
M  V30 10828 H 1001.57 -0.334985 0.660959 0
M  V30 10829 H 1004.22 -0.181815 1.90635 0
M  V30 10830 H 1002.53 -2.566 2.9608 0
M  V30 10831 H 1004.22 -2.3237 3.26811 0
M  V30 10832 H 1000.81 -1.17245 4.12252 0
M  V30 10833 H 1005 -0.609334 4.92545 0
M  V30 10834 H 1000.25 0.158421 6.11195 0
M  V30 10835 H 1004.43 0.715429 6.92715 0
M  V30 10836 H 1002.05 1.10531 7.52122 0
M  V30 10837 N 1003.63 -1.50653 -0.462772 0
M  V30 10838 C 1004.56 -1.64773 -1.57877 0
M  V30 10839 C 1005.54 -0.495664 -1.54861 0
M  V30 10840 O 1006.72 -0.716248 -1.74362 0
M  V30 10841 C 1003.85 -1.63796 -2.9646 0
M  V30 10842 C 1002.9 -2.84663 -3.17599 0
M  V30 10843 S 1003.73 -4.45852 -2.96608 0
M  V30 10844 C 1004.89 -4.47581 -4.37518 0
M  V30 10845 H 1005.12 -2.59172 -1.45661 0
M  V30 10846 H 1002.65 -1.40019 -0.650699 0
M  V30 10847 H 1004.61 -1.63918 -3.76353 0
M  V30 10848 H 1003.27 -0.706185 -3.06059 0
M  V30 10849 H 1002.46 -2.80308 -4.1886 0
M  V30 10850 H 1002.07 -2.82152 -2.45492 0
M  V30 10851 H 1004.36 -4.21656 -5.30295 0
M  V30 10852 H 1005.3 -5.49248 -4.46914 0
M  V30 10853 H 1005.71 -3.7719 -4.19985 0
M  V30 10854 N 1005.11 0.71652 -1.4037 0
M  V30 10855 C 1006.33 1.51069 -1.42102 0
M  V30 10856 C 1006.76 1.88087 -0.0222387 0
M  V30 10857 O 1006.12 1.53204 0.969448 0
M  V30 10858 C 1006.16 2.76307 -2.31704 0
M  V30 10859 O 1005.27 3.72975 -1.75964 0
M  V30 10860 H 1004.61 0.455502 -0.483129 0
M  V30 10861 H 1007.14 0.882514 -1.84588 0
M  V30 10862 H 1007.15 3.24846 -2.46859 0
M  V30 10863 H 1005.82 2.48698 -3.3335 0
M  V30 10864 H 1004.4 3.31818 -1.70151 0
M  V30 10865 N 1006.59 1.25851 0.948643 0
M  V30 10866 C 1007.52 1.0108 2.04593 0
M  V30 10867 C 1008.5 -0.0619691 1.62482 0
M  V30 10868 O 1009.68 0.0789196 1.88335 0
M  V30 10869 C 1006.81 0.529174 3.34541 0
M  V30 10870 C 1005.85 1.59337 3.95618 0
M  V30 10871 S 1006.69 3.18026 4.30836 0
M  V30 10872 C 1007.84 2.71613 5.63895 0
M  V30 10873 H 1008.08 1.93988 2.2529 0
M  V30 10874 H 1005.61 1.09448 1.08906 0
M  V30 10875 H 1007.57 0.25795 4.09689 0
M  V30 10876 H 1006.23 -0.37951 3.11799 0
M  V30 10877 H 1005.42 1.20722 4.89328 0
M  V30 10878 H 1005.02 1.81559 3.26975 0
M  V30 10879 H 1007.32 2.15612 6.42275 0
M  V30 10880 H 1008.26 3.63986 6.07387 0
M  V30 10881 H 1008.67 2.11417 5.23415 0
M  V30 10882 N 1008.06 -1.15214 1.07534 0
M  V30 10883 C 1008.97 -2.23636 0.708818 0
M  V30 10884 C 1009.99 -1.7172 -0.280759 0
M  V30 10885 O 1011.17 -2.01 -0.126927 0
M  V30 10886 C 1008.23 -3.46512 0.114167 0
M  V30 10887 C 1007.29 -4.13409 1.15722 0
M  V30 10888 C 1006.53 -5.30419 0.59085 0
M  V30 10889 O 1006.75 -5.67314 -0.592512 0
M  V30 10890 O 1005.68 -5.86871 1.33663 0
M  V30 10891 H 1009.51 -2.57322 1.61305 0
M  V30 10892 H 1007.09 -1.22972 0.848422 0
M  V30 10893 H 1008.98 -4.20851 -0.215091 0
M  V30 10894 H 1007.65 -3.1457 -0.763356 0
M  V30 10895 H 1006.56 -3.40984 1.53886 0
M  V30 10896 H 1007.89 -4.49435 2.00671 0
M  V30 10897 N 1009.54 -0.859717 -1.32086 0
M  V30 10898 C 1010.49 -0.296897 -2.30697 0
M  V30 10899 C 1011.48 0.582473 -1.59071 0
M  V30 10900 O 1012.69 0.469713 -1.73763 0
M  V30 10901 H 1009.07 -0.0773132 -0.748015 0
M  V30 10902 H 1011.04 -1.14273 -2.75652 0
M  V30 10903 C 1009.79 0.495546 -3.44151 0
M  V30 10904 H 1009.11 -0.171829 -3.99431 0
M  V30 10905 H 1010.55 0.854854 -4.15293 0
M  V30 10906 C 1009.01 1.68278 -2.91863 0
M  V30 10907 O 1009.54 2.78194 -2.89777 0
M  V30 10908 N 1007.74 1.51151 -2.48197 0
M  V30 10909 H 1007.29 0.617345 -2.50093 0
M  V30 10910 H 1007.25 2.3073 -2.13567 0
M  V30 10911 N 1011.02 1.44971 -0.618145 0
M  V30 10912 C 1012.43 1.85611 -0.201334 0
M  V30 10913 C 1012.78 1.51698 1.24427 0
M  V30 10914 O 1011.91 0.94875 1.94493 0
M  V30 10915 C 1012.5 3.36897 -0.358619 0
M  V30 10916 C 1011.06 3.764 0.00358196 0
M  V30 10917 C 1010.21 2.68881 -0.678118 0
M  V30 10918 H 1013.16 1.35622 -0.824152 0
M  V30 10919 H 1013.18 3.78326 0.406176 0
M  V30 10920 H 1012.69 3.61548 -1.41084 0
M  V30 10921 H 1010.79 3.57365 1.05457 0
M  V30 10922 H 1010.91 4.77449 -0.397427 0
M  V30 10923 H 1009.27 2.54442 -0.114699 0
M  V30 10924 H 1010.05 2.96367 -1.73268 0
M  V30 10925 N 1012.5 0.357919 1.53482 0
M  V30 10926 C 1013.75 -0.2337 2.00744 0
M  V30 10927 C 1014.07 -1.49908 1.2471 0
M  V30 10928 O 1013.34 -1.92597 0.358235 0
M  V30 10929 H 1011.92 -0.0893474 0.741637 0
M  V30 10930 H 1014.58 0.482388 1.88836 0
M  V30 10931 H 1013.68 -0.466073 3.086 0
M  V30 10932 N 1013.98 -1.5736 0.0868897 0
M  V30 10933 C 1014.91 -2.16596 -0.872252 0
M  V30 10934 C 1015.89 -1.09706 -1.29995 0
M  V30 10935 O 1017.07 -1.37808 -1.36831 0
M  V30 10936 C 1014.2 -2.73972 -2.1344 0
M  V30 10937 C 1013.16 -3.86163 -1.8456 0
M  V30 10938 C 1012.48 -4.30206 -3.17533 0
M  V30 10939 C 1013.78 -5.0973 -1.13899 0
M  V30 10940 H 1015.48 -2.96995 -0.378738 0
M  V30 10941 H 1013.02 -1.42861 -0.18073 0
M  V30 10942 H 1014.98 -3.14062 -2.80968 0
M  V30 10943 H 1013.7 -1.90817 -2.6506 0
M  V30 10944 H 1012.36 -3.466 -1.19432 0
M  V30 10945 H 1012.01 -3.43951 -3.67024 0
M  V30 10946 H 1011.71 -5.05841 -2.98996 0
M  V30 10947 H 1013.23 -4.72922 -3.86234 0
M  V30 10948 H 1014.64 -5.4704 -1.71523 0
M  V30 10949 H 1013.04 -5.90741 -1.05569 0
M  V30 10950 H 1014.11 -4.8475 -0.120432 0
M  V30 10951 N 1015.45 0.186762 -1.56489 0
M  V30 10952 C 1016.7 0.902594 -1.82277 0
M  V30 10953 C 1017.06 1.80536 -0.665179 0
M  V30 10954 O 1016.35 1.88573 0.339224 0
M  V30 10955 C 1016.54 1.74719 -3.11782 0
M  V30 10956 C 1016.37 0.92769 -4.40027 0
M  V30 10957 C 1015.14 0.608832 -5.01619 0
M  V30 10958 C 1017.34 0.276471 -5.13556 0
M  V30 10959 N 1015.32 -0.228425 -6.13475 0
M  V30 10960 C 1016.69 -0.42262 -6.18558 0
M  V30 10961 C 1018.75 0.19305 -4.97526 0
M  V30 10962 C 1017.45 -1.1972 -7.09267 0
M  V30 10963 C 1019.48 -0.568152 -5.88665 0
M  V30 10964 C 1018.84 -1.25566 -6.93118 0
M  V30 10965 H 1014.94 0.309403 -0.718188 0
M  V30 10966 H 1017.52 0.170693 -1.9395 0
M  V30 10967 H 1015.69 2.45063 -3.01328 0
M  V30 10968 H 1017.42 2.40314 -3.25625 0
M  V30 10969 H 1014.18 0.935247 -4.64274 0
M  V30 10970 H 1014.6 -0.636908 -6.73997 0
M  V30 10971 H 1019.25 0.71023 -4.16792 0
M  V30 10972 H 1016.96 -1.72578 -7.89457 0
M  V30 10973 H 1020.55 -0.634164 -5.78333 0
M  V30 10974 H 1019.43 -1.83524 -7.62423 0
M  V30 10975 N 1016.93 1.50896 0.454776 0
M  V30 10976 C 1018.18 1.61936 1.20248 0
M  V30 10977 C 1018.49 0.332983 1.92745 0
M  V30 10978 O 1019.7 0.322512 2.69578 0
M  V30 10979 C 1018.16 2.85916 2.18587 0
M  V30 10980 C 1017.76 4.21492 1.51818 0
M  V30 10981 C 1019.51 3.06307 2.93898 0
M  V30 10982 C 1017.42 5.3664 2.48539 0
M  V30 10983 H 1016.35 0.603098 0.452536 0
M  V30 10984 H 1019 1.77345 0.471257 0
M  V30 10985 H 1017.38 2.64101 2.95071 0
M  V30 10986 H 1018.55 4.53623 0.810123 0
M  V30 10987 H 1016.87 4.06837 0.887265 0
M  V30 10988 H 1019.46 3.89507 3.66317 0
M  V30 10989 H 1019.81 2.18683 3.54236 0
M  V30 10990 H 1020.34 3.2838 2.24525 0
M  V30 10991 H 1017.08 6.26469 1.92916 0
M  V30 10992 H 1016.6 5.08907 3.17449 0
M  V30 10993 H 1018.28 5.67881 3.10033 0
M  V30 10994 N 1018.41 -0.709066 1.40748 0
M  V30 10995 C 1019.34 -1.83583 1.4429 0
M  V30 10996 C 1020.32 -1.67378 0.303067 0
M  V30 10997 O 1021.51 -1.87312 0.512612 0
M  V30 10998 C 1018.64 -3.21599 1.31116 0
M  V30 10999 C 1017.59 -3.52486 2.4277 0
M  V30 11000 C 1016.92 -4.89716 2.14668 0
M  V30 11001 C 1018.22 -3.52824 3.85113 0
M  V30 11002 H 1019.91 -1.80876 2.38588 0
M  V30 11003 H 1017.46 -0.868795 1.14839 0
M  V30 11004 H 1019.41 -4.00123 1.32209 0
M  V30 11005 H 1018.13 -3.24898 0.332965 0
M  V30 11006 H 1016.79 -2.76305 2.40937 0
M  V30 11007 H 1016.44 -4.89625 1.15224 0
M  V30 11008 H 1016.14 -5.11347 2.89478 0
M  V30 11009 H 1017.66 -5.70566 2.17455 0
M  V30 11010 H 1019.08 -4.21377 3.88734 0
M  V30 11011 H 1017.48 -3.85984 4.59496 0
M  V30 11012 H 1018.55 -2.52073 4.14231 0
M  V30 11013 N 1019.89 -1.26353 -0.941956 0
M  V30 11014 C 1021.14 -1.1163 -1.68473 0
M  V30 11015 C 1021.46 0.34108 -1.91994 0
M  V30 11016 O 1020.73 1.24065 -1.51607 0
M  V30 11017 H 1019.31 -0.410113 -0.624353 0
M  V30 11018 H 1021.97 -1.58669 -1.13182 0
M  V30 11019 H 1021.07 -1.63445 -2.6588 0
M  V30 11020 N 1021.37 1.14642 -1.08144 0
M  V30 11021 C 1022.61 1.87277 -0.818953 0
M  V30 11022 C 1022.97 1.80896 0.643482 0
M  V30 11023 O 1024.17 2.4864 1.02135 0
M  V30 11024 C 1022.44 3.32006 -1.32314 0
M  V30 11025 S 1024 4.22284 -1.19256 0
M  V30 11026 H 1020.82 0.646204 -0.29655 0
M  V30 11027 H 1023.42 1.38261 -1.38217 0
M  V30 11028 H 1022.13 3.34197 -2.38203 0
M  V30 11029 H 1021.66 3.86078 -0.75548 0
M  V30 11030 H 1023.67 4.96016 -0.135143 0
M  V30 11031 N 1022.85 0.866709 1.31628 0
M  V30 11032 C 1023.8 0.291712 2.26126 0
M  V30 11033 C 1024.78 -0.569375 1.50489 0
M  V30 11034 O 1025.97 -0.416786 1.72023 0
M  V30 11035 C 1023.1 -0.508624 3.39511 0
M  V30 11036 C 1022.19 0.365524 4.22522 0
M  V30 11037 N 1022.58 1.45747 4.84346 0
M  V30 11038 C 1020.88 0.157384 4.45722 0
M  V30 11039 C 1021.58 1.99625 5.46374 0
M  V30 11040 N 1020.55 1.29371 5.27981 0
M  V30 11041 H 1024.35 1.12633 2.71461 0
M  V30 11042 H 1021.87 0.714118 1.45857 0
M  V30 11043 H 1023.87 -0.937057 4.06233 0
M  V30 11044 H 1022.53 -1.34089 2.9572 0
M  V30 11045 H 1023.54 1.84039 4.84097 0
M  V30 11046 H 1020.21 -0.639193 4.12578 0
M  V30 11047 H 1021.6 2.91222 6.05508 0
M  V30 11048 N 1024.32 -1.44642 0.625825 0
M  V30 11049 C 1025.27 -2.32408 -0.0945221 0
M  V30 11050 C 1026.27 -1.47038 -0.841198 0
M  V30 11051 O 1027.47 -1.63415 -0.754698 0
M  V30 11052 H 1023.85 -0.75038 -0.0493321 0
M  V30 11053 H 1025.82 -2.90922 0.663863 0
M  V30 11054 C 1024.57 -3.30951 -1.06615 0
M  V30 11055 H 1023.89 -3.96648 -0.501021 0
M  V30 11056 H 1025.33 -3.95054 -1.53976 0
M  V30 11057 C 1023.79 -2.59479 -2.14877 0
M  V30 11058 O 1024.32 -2.38974 -3.22885 0
M  V30 11059 N 1022.52 -2.19307 -1.90665 0
M  V30 11060 H 1022.07 -2.36184 -1.02835 0
M  V30 11061 H 1022.03 -1.71811 -2.63303 0
M  V30 11062 N 1025.8 -0.366053 -1.5329 0
M  V30 11063 C 1027.03 0.226839 -2.06156 0
M  V30 11064 C 1027.45 1.41637 -1.23776 0
M  V30 11065 O 1026.81 1.7947 -0.256948 0
M  V30 11066 C 1026.86 0.597956 -3.55608 0
M  V30 11067 O 1025.96 1.69512 -3.75951 0
M  V30 11068 H 1025.3 0.0329156 -0.663184 0
M  V30 11069 H 1027.83 -0.526793 -1.97702 0
M  V30 11070 H 1027.84 0.868831 -3.98642 0
M  V30 11071 H 1026.52 -0.271838 -4.15011 0
M  V30 11072 H 1025.09 1.41976 -3.44815 0
M  V30 11073 N 1027.28 1.57312 -0.0952337 0
M  V30 11074 C 1028.56 1.85822 0.610715 0
M  V30 11075 C 1028.94 0.992114 1.86334 0
M  V30 11076 O 1028.28 0.0645669 2.28409 0
M  V30 11077 C 1028.49 3.36492 0.925967 0
M  V30 11078 C 1029.84 4.0455 1.28936 0
M  V30 11079 O 1030.87 3.41374 1.01698 0
M  V30 11080 O 1029.73 5.16024 1.79949 0
M  V30 11081 H 1026.82 0.768454 0.305626 0
M  V30 11082 H 1029.37 1.69217 -0.127941 0
M  V30 11083 H 1028.14 3.91282 0.0373127 0
M  V30 11084 H 1027.76 3.58443 1.7206 0
M  V30 11085 N 1028.76 -0.17846 1.56586 0
M  V30 11086 C 1030 -0.896235 1.81587 0
M  V30 11087 C 1030.33 -1.82553 0.671168 0
M  V30 11088 O 1029.59 -1.92688 -0.342046 0
M  V30 11089 C 1029.89 -1.73063 3.12704 0
M  V30 11090 C 1029.55 -0.950877 4.4076 0
M  V30 11091 C 1028.21 -0.735647 4.75544 0
M  V30 11092 C 1030.57 -0.403419 5.19636 0
M  V30 11093 C 1027.89 0.0382562 5.86688 0
M  V30 11094 C 1030.25 0.357359 6.3159 0
M  V30 11095 C 1028.91 0.583455 6.64945 0
M  V30 11096 H 1028.18 -0.327956 0.664474 0
M  V30 11097 H 1030.83 -0.161586 1.90817 0
M  V30 11098 H 1029.13 -2.53446 2.98785 0
M  V30 11099 H 1030.83 -2.28891 3.29257 0
M  V30 11100 H 1027.42 -1.12866 4.13472 0
M  V30 11101 H 1031.6 -0.557059 4.93164 0
M  V30 11102 H 1026.86 0.223237 6.10992 0
M  V30 11103 H 1031.03 0.788861 6.91918 0
M  V30 11104 H 1028.66 1.18502 7.50907 0
M  V30 11105 N 1030.24 -1.51135 -0.446768 0
M  V30 11106 C 1031.65 -1.39101 -0.782504 0
M  V30 11107 C 1031.85 -0.46599 -1.96038 0
M  V30 11108 O 1030.91 0.0823679 -2.52366 0
M  V30 11109 C 1032.22 -2.80953 -1.07173 0
M  V30 11110 C 1033.77 -2.90038 -1.17673 0
M  V30 11111 C 1034.24 -4.32777 -1.49894 0
M  V30 11112 N 1035.73 -4.3584 -1.56837 0
M  V30 11113 C 1036.47 -5.43305 -1.83322 0
M  V30 11114 N 1035.97 -6.60945 -2.07662 0
M  V30 11115 N 1037.76 -5.30775 -1.85026 0
M  V30 11116 H 1029.91 -2.09835 0.329114 0
M  V30 11117 H 1032.17 -0.944199 0.0848054 0
M  V30 11118 H 1031.88 -3.50591 -0.279037 0
M  V30 11119 H 1031.75 -3.197 -2.00179 0
M  V30 11120 H 1034.14 -2.20603 -1.96005 0
M  V30 11121 H 1034.22 -2.54801 -0.225892 0
M  V30 11122 H 1033.86 -5.02757 -0.720924 0
M  V30 11123 H 1033.79 -4.6552 -2.46168 0
M  V30 11124 H 1036.29 -3.51023 -1.39968 0
M  V30 11125 H 1036.6 -7.38643 -2.27214 0
M  V30 11126 H 1034.94 -6.64077 -2.05003 0
M  V30 11127 H 1038.13 -4.37858 -1.65523 0
M  V30 11128 H 1038.31 -6.14609 -2.05329 0
M  V30 11129 N 1031.71 0.701592 -1.41122 0
M  V30 11130 C 1032.66 1.83691 -1.4269 0
M  V30 11131 C 1033.66 1.6662 -0.305658 0
M  V30 11132 O 1034.86 1.73554 -0.477392 0
M  V30 11133 H 1031.24 0.605222 -0.44633 0
M  V30 11134 H 1033.21 1.79485 -2.38386 0
M  V30 11135 C 1031.96 3.21666 -1.32008 0
M  V30 11136 H 1031.28 3.35416 -2.17569 0
M  V30 11137 H 1032.72 4.012 -1.37165 0
M  V30 11138 C 1031.18 3.36885 -0.0317678 0
M  V30 11139 O 1031.71 3.90885 0.925836 0
M  V30 11140 N 1029.91 2.90569 0.0423401 0
M  V30 11141 H 1029.46 2.46812 -0.737673 0
M  V30 11142 H 1029.42 3.0113 0.903764 0
M  V30 11143 N 1033.19 1.2685 0.935242 0
M  V30 11144 C 1034.61 1.04091 1.20984 0
M  V30 11145 C 1034.81 -0.230242 2.0018 0
M  V30 11146 O 1033.86 -0.93778 2.3444 0
M  V30 11147 C 1035.18 2.27586 1.96533 0
M  V30 11148 C 1036.72 2.32547 2.09501 0
M  V30 11149 C 1037.2 3.55751 2.88454 0
M  V30 11150 N 1038.69 3.56263 2.96025 0
M  V30 11151 C 1039.43 4.48262 3.57559 0
M  V30 11152 N 1038.92 5.50557 4.20546 0
M  V30 11153 N 1040.71 4.35901 3.5489 0
M  V30 11154 H 1032.87 2.08484 0.405954 0
M  V30 11155 H 1035.13 0.916548 0.242164 0
M  V30 11156 H 1034.83 3.20076 1.45753 0
M  V30 11157 H 1034.71 2.32305 2.97177 0
M  V30 11158 H 1037.1 1.40568 2.5947 0
M  V30 11159 H 1037.18 2.31836 1.08101 0
M  V30 11160 H 1036.82 4.48063 2.3917 0
M  V30 11161 H 1036.75 3.53711 3.90123 0
M  V30 11162 H 1039.24 2.82278 2.51252 0
M  V30 11163 H 1039.55 6.16935 4.65415 0
M  V30 11164 H 1037.9 5.54407 4.19115 0
M  V30 11165 H 1041.09 3.552 3.04879 0
M  V30 11166 H 1041.26 5.07792 4.02557 0
M  V30 11167 N 1034.67 -1.14067 1.0875 0
M  V30 11168 C 1035.92 -1.84819 0.817698 0
M  V30 11169 C 1036.24 -1.83545 -0.658488 0
M  V30 11170 O 1035.51 -1.28633 -1.47751 0
M  V30 11171 H 1034.09 -0.68433 0.299502 0
M  V30 11172 H 1036.75 -1.38208 1.37421 0
M  V30 11173 H 1035.85 -2.89541 1.16501 0
M  V30 11174 N 1036.15 -0.873678 -1.31166 0
M  V30 11175 C 1037.08 -0.276805 -2.26515 0
M  V30 11176 C 1038.06 0.596166 -1.51277 0
M  V30 11177 O 1039.24 0.548769 -1.80335 0
M  V30 11178 C 1036.37 0.607711 -3.33203 0
M  V30 11179 C 1035.42 -0.194411 -4.26057 0
M  V30 11180 S 1036.25 -1.57534 -5.11804 0
M  V30 11181 C 1037.41 -0.697047 -6.22006 0
M  V30 11182 H 1037.64 -1.08505 -2.76792 0
M  V30 11183 H 1035.17 -0.672419 -1.38989 0
M  V30 11184 H 1037.13 1.11234 -3.95142 0
M  V30 11185 H 1035.79 1.38994 -2.81673 0
M  V30 11186 H 1034.98 0.480094 -5.01708 0
M  V30 11187 H 1034.59 -0.631262 -3.68634 0
M  V30 11188 H 1036.88 0.0907919 -6.77439 0
M  V30 11189 H 1037.82 -1.42481 -6.93617 0
M  V30 11190 H 1038.23 -0.262954 -5.63887 0
M  V30 11191 N 1037.63 1.44308 -0.633487 0
M  V30 11192 C 1038.85 2.06384 -0.146063 0
M  V30 11193 C 1039.27 1.47357 1.18031 0
M  V30 11194 O 1038.63 0.597334 1.72448 0
M  V30 11195 C 1038.68 3.61489 -0.0276722 0
M  V30 11196 O 1038.4 4.18318 -1.3016 0
M  V30 11197 C 1039.9 4.40604 0.488168 0
M  V30 11198 H 1037.12 0.666122 -0.0807632 0
M  V30 11199 H 1039.66 1.85139 -0.868557 0
M  V30 11200 H 1037.82 3.81988 0.645273 0
M  V30 11201 H 1038.23 5.11783 -1.14797 0
M  V30 11202 H 1039.71 5.49545 0.520013 0
M  V30 11203 H 1040.18 4.12218 1.51568 0
M  V30 11204 H 1040.79 4.2503 -0.151608 0
M  V30 11205 N 1039.1 0.374177 1.53094 0
M  V30 11206 C 1040.07 -0.455999 2.24618 0
M  V30 11207 C 1041.07 -1.00269 1.25709 0
M  V30 11208 O 1042.26 -0.887077 1.49922 0
M  V30 11209 C 1039.39 -1.63822 2.98957 0
M  V30 11210 H 1040.58 0.169986 2.99418 0
M  V30 11211 H 1038.14 0.126015 1.55791 0
M  V30 11212 H 1038.87 -2.30205 2.28421 0
M  V30 11213 H 1038.66 -1.25308 3.71538 0
M  V30 11214 H 1040.15 -2.22633 3.53305 0
M  V30 11215 N 1040.58 -1.57259 0.103575 0
M  V30 11216 C 1041.51 -2.17509 -0.84923 0
M  V30 11217 C 1042.49 -1.11079 -1.28824 0
M  V30 11218 O 1043.68 -1.39252 -1.35361 0
M  V30 11219 C 1040.81 -2.76221 -2.10522 0
M  V30 11220 C 1039.76 -3.88098 -1.80454 0
M  V30 11221 C 1039.09 -4.33549 -3.12952 0
M  V30 11222 C 1040.39 -5.10909 -1.08486 0
M  V30 11223 H 1042.08 -2.9738 -0.347217 0
M  V30 11224 H 1039.63 -1.43045 -0.165568 0
M  V30 11225 H 1041.58 -3.17024 -2.77621 0
M  V30 11226 H 1040.31 -1.93617 -2.63021 0
M  V30 11227 H 1038.96 -3.47847 -1.15749 0
M  V30 11228 H 1038.61 -3.47825 -3.63355 0
M  V30 11229 H 1038.31 -5.08984 -2.93614 0
M  V30 11230 H 1039.84 -4.76992 -3.81196 0
M  V30 11231 H 1041.25 -5.48828 -1.65711 0
M  V30 11232 H 1039.65 -5.91828 -0.992973 0
M  V30 11233 H 1040.72 -4.84851 -0.0690108 0
M  V30 11234 N 1042.06 0.170153 -1.56679 0
M  V30 11235 C 1042.99 1.21285 -1.9953 0
M  V30 11236 C 1043.97 1.46104 -0.871071 0
M  V30 11237 O 1045.16 1.57419 -1.13724 0
M  V30 11238 C 1042.29 2.5515 -2.35618 0
M  V30 11239 C 1041.24 2.44898 -3.51011 0
M  V30 11240 C 1040.57 3.83263 -3.72845 0
M  V30 11241 C 1041.87 1.95271 -4.84424 0
M  V30 11242 H 1043.56 0.856646 -2.86883 0
M  V30 11243 H 1041.11 0.410634 -1.38021 0
M  V30 11244 H 1043.06 3.28299 -2.64193 0
M  V30 11245 H 1041.78 2.92561 -1.45175 0
M  V30 11246 H 1040.44 1.74203 -3.22566 0
M  V30 11247 H 1040.09 4.18069 -2.79691 0
M  V30 11248 H 1039.79 3.77272 -4.50488 0
M  V30 11249 H 1041.31 4.57996 -4.03822 0
M  V30 11250 H 1042.73 2.58195 -5.11867 0
M  V30 11251 H 1041.13 2.00225 -5.65712 0
M  V30 11252 H 1042.2 0.90709 -4.7634 0
M  V30 11253 N 1043.54 1.5137 0.438746 0
M  V30 11254 C 1044.49 1.72582 1.53245 0
M  V30 11255 C 1045.46 0.567488 1.56105 0
M  V30 11256 O 1046.64 0.80176 1.73137 0
M  V30 11257 C 1043.78 1.85551 2.90972 0
M  V30 11258 C 1042.89 3.13094 2.97652 0
M  V30 11259 C 1042.03 3.16666 4.26493 0
M  V30 11260 C 1041.07 4.38529 4.27035 0
M  V30 11261 N 1040.2 4.39659 5.47398 0
M  V30 11262 H 1045.04 2.65941 1.3446 0
M  V30 11263 H 1042.58 1.31801 0.653206 0
M  V30 11264 H 1044.54 1.91053 3.70884 0
M  V30 11265 H 1043.17 0.956025 3.08318 0
M  V30 11266 H 1042.22 3.16909 2.10412 0
M  V30 11267 H 1043.53 4.03009 2.93914 0
M  V30 11268 H 1042.69 3.21075 5.14777 0
M  V30 11269 H 1041.43 2.24637 4.32885 0
M  V30 11270 H 1040.43 4.34297 3.37144 0
M  V30 11271 H 1041.66 5.31821 4.22307 0
M  V30 11272 H 1039.6 3.50499 5.54514 0
M  V30 11273 H 1039.52 5.23382 5.45534 0
M  V30 11274 H 1040.79 4.48259 6.37718 0
M  V30 11275 N 1045.02 -0.694098 1.41492 0
M  V30 11276 C 1046.26 -1.4563 1.41137 0
M  V30 11277 C 1046.6 -1.94189 0.0208428 0
M  V30 11278 O 1045.87 -1.69628 -0.951655 0
M  V30 11279 C 1046.15 -2.66714 2.41941 0
M  V30 11280 C 1046.01 -2.23912 3.90107 0
M  V30 11281 C 1047.33 -3.68913 2.39981 0
M  V30 11282 H 1044.44 -0.52821 0.513968 0
M  V30 11283 H 1047.09 -0.790437 1.72778 0
M  V30 11284 H 1045.24 -3.23525 2.1509 0
M  V30 11285 H 1046.91 -1.72417 4.27867 0
M  V30 11286 H 1045.15 -1.5568 4.04903 0
M  V30 11287 H 1045.82 -3.108 4.56188 0
M  V30 11288 H 1048.3 -3.21779 2.63813 0
M  V30 11289 H 1047.17 -4.51242 3.12524 0
M  V30 11290 H 1047.44 -4.18711 1.41892 0
M  V30 11291 N 1046.49 -1.27344 -0.928501 0
M  V30 11292 C 1047.72 -1.16557 -1.7155 0
M  V30 11293 C 1048.14 0.274044 -1.86093 0
M  V30 11294 O 1047.5 1.19847 -1.36038 0
M  V30 11295 C 1047.55 -1.85332 -3.09329 0
M  V30 11296 O 1046.65 -1.15074 -3.9602 0
M  V30 11297 H 1046 -0.405423 -0.525859 0
M  V30 11298 H 1048.53 -1.68399 -1.16202 0
M  V30 11299 H 1048.54 -1.92659 -3.59648 0
M  V30 11300 H 1047.21 -2.90056 -2.98061 0
M  V30 11301 H 1045.79 -1.1581 -3.54461 0
M  V30 11302 N 1047.97 1.13488 -1.09353 0
M  V30 11303 C 1049.2 1.89133 -0.85108 0
M  V30 11304 C 1049.62 1.78542 0.591976 0
M  V30 11305 O 1048.98 1.13243 1.41583 0
M  V30 11306 C 1049.03 3.36736 -1.29001 0
M  V30 11307 O 1048.13 4.09959 -0.447993 0
M  V30 11308 H 1047.47 0.58809 -0.308296 0
M  V30 11309 H 1050 1.43593 -1.45747 0
M  V30 11310 H 1050.01 3.87564 -1.27508 0
M  V30 11311 H 1048.69 3.43762 -2.34095 0
M  V30 11312 H 1047.27 3.69155 -0.52717 0
M  V30 11313 N 1049.45 0.880621 1.30701 0
M  V30 11314 C 1050.69 0.503519 1.98101 0
M  V30 11315 C 1051.06 -0.929075 1.68024 0
M  V30 11316 O 1052.26 -1.41208 2.28722 0
M  V30 11317 C 1050.53 0.765652 3.49102 0
M  V30 11318 S 1052.09 0.490001 4.36056 0
M  V30 11319 H 1048.9 0.187522 0.685825 0
M  V30 11320 H 1051.51 1.13895 1.58897 0
M  V30 11321 H 1050.21 1.80688 3.68484 0
M  V30 11322 H 1049.74 0.117616 3.93224 0
M  V30 11323 H 1051.76 -0.673236 4.91612 0
M  V30 11324 N 1050.93 -1.4397 0.641131 0
M  V30 11325 C 1052.21 -1.95436 0.0800918 0
M  V30 11326 C 1052.59 -1.58282 -1.39678 0
M  V30 11327 O 1051.93 -0.861867 -2.11623 0
M  V30 11328 C 1052.14 -3.47589 0.313531 0
M  V30 11329 C 1053.49 -4.2407 0.212034 0
M  V30 11330 O 1054.52 -3.55353 0.245434 0
M  V30 11331 O 1053.38 -5.46356 0.125455 0
M  V30 11332 H 1050.47 -0.826834 -0.0165735 0
M  V30 11333 H 1053.02 -1.5397 0.71353 0
M  V30 11334 H 1051.79 -3.67716 1.33793 0
M  V30 11335 H 1051.41 -3.96025 -0.353563 0
M  V30 11336 N 1052.41 -0.382291 -1.52893 0
M  V30 11337 C 1053.35 0.456234 -2.26246 0
M  V30 11338 C 1054.32 1.06366 -1.27575 0
M  V30 11339 O 1055.51 1.09301 -1.5639 0
M  V30 11340 C 1052.65 1.5813 -3.06739 0
M  V30 11341 C 1051.76 0.997416 -4.20328 0
M  V30 11342 C 1050.9 2.09296 -4.8823 0
M  V30 11343 C 1049.94 1.4846 -5.93823 0
M  V30 11344 N 1049.07 2.51916 -6.55349 0
M  V30 11345 H 1053.91 -0.175761 -2.97481 0
M  V30 11346 H 1051.45 -0.0985046 -1.4677 0
M  V30 11347 H 1053.41 2.24426 -3.51694 0
M  V30 11348 H 1052.04 2.18371 -2.37727 0
M  V30 11349 H 1051.09 0.224251 -3.79738 0
M  V30 11350 H 1052.4 0.512784 -4.96157 0
M  V30 11351 H 1051.56 2.83377 -5.36453 0
M  V30 11352 H 1050.3 2.61116 -4.1191 0
M  V30 11353 H 1049.3 0.729001 -5.44946 0
M  V30 11354 H 1050.53 0.97443 -6.72073 0
M  V30 11355 H 1048.47 3.02919 -5.81873 0
M  V30 11356 H 1048.39 2.08188 -7.26769 0
M  V30 11357 H 1049.66 3.25649 -7.08218 0
M  V30 11358 N 1053.89 1.57202 -0.111913 0
M  V30 11359 C 1054.83 2.16186 0.858286 0
M  V30 11360 C 1055.83 1.10917 1.28039 0
M  V30 11361 O 1057.03 1.29233 1.25295 0
M  V30 11362 H 1053.41 0.691777 0.29487 0
M  V30 11363 H 1055.38 2.96499 0.336265 0
M  V30 11364 C 1054.13 2.77024 2.10127 0
M  V30 11365 H 1053.45 3.5772 1.78539 0
M  V30 11366 H 1054.89 3.21841 2.76033 0
M  V30 11367 C 1053.35 1.73752 2.88638 0
M  V30 11368 O 1053.88 1.18659 3.83774 0
M  V30 11369 N 1052.09 1.43855 2.52496 0
M  V30 11370 H 1051.63 1.88846 1.75199 0
M  V30 11371 H 1051.59 0.749985 3.05324 0
M  V30 11372 N 1055.36 -0.161842 1.56767 0
M  V30 11373 C 1056.59 -0.892247 1.86672 0
M  V30 11374 C 1057.01 -1.75407 0.69841 0
M  V30 11375 O 1056.36 -1.7945 -0.332251 0
M  V30 11376 C 1056.41 -1.7612 3.15696 0
M  V30 11377 O 1056.14 -0.934131 4.28025 0
M  V30 11378 C 1057.64 -2.60046 3.59014 0
M  V30 11379 H 1054.86 -0.258747 0.619105 0
M  V30 11380 H 1057.4 -0.159089 2.0388 0
M  V30 11381 H 1055.56 -2.44759 3.00286 0
M  V30 11382 H 1055.97 -1.52931 5.01709 0
M  V30 11383 H 1057.44 -3.16618 4.5217 0
M  V30 11384 H 1057.92 -3.35374 2.83586 0
M  V30 11385 H 1058.53 -1.96724 3.77067 0
M  V30 11386 N 1056.84 -1.516 -0.430713 0
M  V30 11387 C 1058.09 -1.64271 -1.17726 0
M  V30 11388 C 1058.41 -0.364406 -1.91565 0
M  V30 11389 O 1057.68 0.619991 -1.8583 0
M  V30 11390 H 1056.26 -0.605432 -0.437562 0
M  V30 11391 H 1058.92 -1.88557 -0.493166 0
M  V30 11392 H 1058.02 -2.47355 -1.90321 0
M  V30 11393 N 1058.32 0.686584 -1.41858 0
M  V30 11394 C 1059.6 1.44176 -1.32185 0
M  V30 11395 C 1059.98 2.11049 0.046362 0
M  V30 11396 O 1059.32 2.02365 1.06117 0
M  V30 11397 C 1059.53 2.45385 -2.48168 0
M  V30 11398 C 1060.88 3.10375 -2.89746 0
M  V30 11399 O 1061.91 2.55711 -2.47973 0
M  V30 11400 O 1060.77 4.09404 -3.62009 0
M  V30 11401 H 1057.86 0.642513 -0.520678 0
M  V30 11402 H 1060.41 0.716303 -1.53841 0
M  V30 11403 H 1059.18 1.94687 -3.3943 0
M  V30 11404 H 1058.8 3.25428 -2.28435 0
M  V30 11405 N 1059.8 1.27835 0.921735 0
M  V30 11406 C 1061.03 1.17182 1.70153 0
M  V30 11407 C 1061.44 -0.273207 1.87217 0
M  V30 11408 O 1060.78 -1.19729 1.39322 0
M  V30 11409 C 1060.84 1.78969 3.11786 0
M  V30 11410 C 1060.5 3.28179 3.18037 0
M  V30 11411 C 1061.5 4.24729 2.99835 0
M  V30 11412 C 1059.19 3.68995 3.40805 0
M  V30 11413 C 1061.18 5.60071 3.04301 0
M  V30 11414 C 1058.87 5.04465 3.44904 0
M  V30 11415 C 1059.87 5.99813 3.2667 0
M  V30 11416 O 1059.55 7.32813 3.30515 0
M  V30 11417 H 1059.29 0.408079 0.538932 0
M  V30 11418 H 1061.84 1.69326 1.16266 0
M  V30 11419 H 1060.07 1.2131 3.6718 0
M  V30 11420 H 1061.76 1.62946 3.71757 0
M  V30 11421 H 1062.52 3.94533 2.8208 0
M  V30 11422 H 1058.4 2.9525 3.54045 0
M  V30 11423 H 1061.95 6.34471 2.89987 0
M  V30 11424 H 1057.84 5.34315 3.62185 0
M  V30 11425 H 1058.61 7.41338 3.4693 0
M  V30 11426 N 1061.28 -1.12907 1.09954 0
M  V30 11427 C 1062.51 -1.87866 0.859656 0
M  V30 11428 C 1062.91 -1.79664 -0.593096 0
M  V30 11429 O 1062.26 -1.16499 -1.42034 0
M  V30 11430 C 1062.32 -3.38055 1.22308 0
M  V30 11431 C 1061.98 -3.70035 2.68185 0
M  V30 11432 C 1062.98 -3.68817 3.66428 0
M  V30 11433 C 1060.66 -3.99523 3.04444 0
M  V30 11434 C 1062.66 -3.96639 4.98955 0
M  V30 11435 C 1060.35 -4.27006 4.37161 0
M  V30 11436 C 1061.34 -4.25549 5.34225 0
M  V30 11437 O 1061.03 -4.52354 6.64553 0
M  V30 11438 H 1060.76 -0.601425 0.308649 0
M  V30 11439 H 1063.32 -1.43817 1.46649 0
M  V30 11440 H 1061.55 -3.82634 0.559322 0
M  V30 11441 H 1063.24 -3.94348 0.961479 0
M  V30 11442 H 1064 -3.46104 3.3976 0
M  V30 11443 H 1059.88 -3.99801 2.29521 0
M  V30 11444 H 1063.43 -3.95418 5.74709 0
M  V30 11445 H 1059.32 -4.49192 4.6357 0
M  V30 11446 H 1060.09 -4.69997 6.70108 0
M  V30 11447 N 1062.75 -0.88754 -1.30232 0
M  V30 11448 C 1063.66 -0.360333 -2.31816 0
M  V30 11449 C 1064.68 0.538741 -1.6545 0
M  V30 11450 O 1065.86 0.431246 -1.96729 0
M  V30 11451 C 1062.92 0.414336 -3.44215 0
M  V30 11452 C 1061.98 -0.514799 -4.26202 0
M  V30 11453 C 1061.21 0.222994 -5.33234 0
M  V30 11454 O 1061.44 1.44871 -5.51696 0
M  V30 11455 O 1060.37 -0.428221 -6.00375 0
M  V30 11456 H 1064.2 -1.20279 -2.78867 0
M  V30 11457 H 1061.78 -0.651459 -1.34448 0
M  V30 11458 H 1063.66 0.852859 -4.12679 0
M  V30 11459 H 1062.34 1.23305 -2.99295 0
M  V30 11460 H 1061.25 -1.00219 -3.60426 0
M  V30 11461 H 1062.58 -1.29959 -4.74733 0
M  V30 11462 N 1064.23 1.43628 -0.648757 0
M  V30 11463 C 1065.51 1.95391 -0.0904551 0
M  V30 11464 C 1065.89 1.59021 1.38837 0
M  V30 11465 O 1065.24 0.873078 2.11163 0
M  V30 11466 C 1065.45 3.47418 -0.33196 0
M  V30 11467 C 1066.8 4.23952 -0.234521 0
M  V30 11468 O 1067.82 3.55218 -0.264276 0
M  V30 11469 O 1066.68 5.46282 -0.154428 0
M  V30 11470 H 1063.77 0.82691 0.0121884 0
M  V30 11471 H 1066.32 1.5359 -0.721685 0
M  V30 11472 H 1065.09 3.67001 -1.35741 0
M  V30 11473 H 1064.71 3.96207 0.332556 0
M  V30 11474 N 1065.71 0.390394 1.52688 0
M  V30 11475 C 1066.94 -0.194013 2.06491 0
M  V30 11476 C 1067.36 -1.3965 1.26014 0
M  V30 11477 O 1066.72 -1.79038 0.285468 0
M  V30 11478 C 1066.77 -0.541306 3.56514 0
M  V30 11479 O 1065.87 -1.63509 3.78601 0
M  V30 11480 H 1065.21 -0.0223608 0.663623 0
M  V30 11481 H 1067.74 0.558179 1.96839 0
M  V30 11482 H 1067.75 -0.805301 3.99974 0
M  V30 11483 H 1066.43 0.337828 4.14526 0
M  V30 11484 H 1065 -1.36473 3.4703 0
M  V30 11485 N 1067.19 -1.57141 0.120249 0
M  V30 11486 C 1068.42 -1.993 -0.544346 0
M  V30 11487 C 1068.83 -0.998858 -1.60684 0
M  V30 11488 O 1068.17 0.0162197 -1.83693 0
M  V30 11489 C 1068.23 -3.37874 -1.22808 0
M  V30 11490 C 1067.9 -4.55924 -0.313374 0
M  V30 11491 C 1068.89 -5.17962 0.448501 0
M  V30 11492 C 1066.58 -5.018 -0.224082 0
M  V30 11493 C 1068.57 -6.24264 1.28739 0
M  V30 11494 C 1066.26 -6.07963 0.618437 0
M  V30 11495 C 1067.26 -6.69061 1.3728 0
M  V30 11496 O 1066.94 -7.73173 2.20133 0
M  V30 11497 H 1066.68 -0.659466 -0.148596 0
M  V30 11498 H 1069.23 -2.04387 0.203779 0
M  V30 11499 H 1067.46 -3.29545 -2.02329 0
M  V30 11500 H 1069.15 -3.64314 -1.7897 0
M  V30 11501 H 1069.92 -4.83434 0.389395 0
M  V30 11502 H 1065.79 -4.53989 -0.80094 0
M  V30 11503 H 1069.34 -6.71883 1.87667 0
M  V30 11504 H 1065.24 -6.4192 0.678932 0
M  V30 11505 H 1066 -7.90276 2.13088 0
M  V30 11506 N 1068.67 0.153526 -1.5685 0
M  V30 11507 C 1069.58 1.20932 -2.01029 0
M  V30 11508 C 1070.59 1.47401 -0.924598 0
M  V30 11509 O 1071.77 1.592 -1.23359 0
M  V30 11510 C 1068.83 2.52438 -2.37647 0
M  V30 11511 C 1067.89 2.33673 -3.60132 0
M  V30 11512 C 1067.13 3.58909 -3.94994 0
M  V30 11513 O 1067.35 4.64823 -3.30599 0
M  V30 11514 O 1066.28 3.5196 -4.8827 0
M  V30 11515 H 1070.11 0.864273 -2.91143 0
M  V30 11516 H 1067.7 0.361755 -1.44954 0
M  V30 11517 H 1069.58 3.29981 -2.62088 0
M  V30 11518 H 1068.25 2.86486 -1.5069 0
M  V30 11519 H 1067.16 1.54102 -3.40886 0
M  V30 11520 H 1068.49 2.04544 -4.47686 0
M  V30 11521 N 1070.14 1.51827 0.422667 0
M  V30 11522 C 1071.42 1.55772 1.18299 0
M  V30 11523 C 1071.8 0.330657 2.08494 0
M  V30 11524 O 1071.15 -0.683373 2.18042 0
M  V30 11525 C 1071.36 2.87941 1.97208 0
M  V30 11526 C 1072.71 3.4044 2.53744 0
M  V30 11527 O 1073.73 2.8959 2.07403 0
M  V30 11528 O 1072.59 4.29201 3.38303 0
M  V30 11529 H 1069.68 0.626889 0.539388 0
M  V30 11530 H 1072.23 1.64147 0.430545 0
M  V30 11531 H 1071 3.68702 1.31052 0
M  V30 11532 H 1070.63 2.82795 2.79486 0
M  V30 11533 N 1071.62 -0.679052 1.4222 0
M  V30 11534 C 1072.87 -1.43485 1.41757 0
M  V30 11535 C 1073.18 -1.95567 0.0358698 0
M  V30 11536 O 1074.39 -2.71346 -0.0913713 0
M  V30 11537 C 1072.85 -2.59541 2.49332 0
M  V30 11538 C 1072.45 -2.14176 3.93488 0
M  V30 11539 C 1074.2 -3.37078 2.58029 0
M  V30 11540 C 1072.11 -3.27289 4.92581 0
M  V30 11541 H 1071.04 -0.539022 0.52723 0
M  V30 11542 H 1073.69 -0.735581 1.68111 0
M  V30 11543 H 1072.07 -3.31815 2.16135 0
M  V30 11544 H 1073.24 -1.49082 4.36017 0
M  V30 11545 H 1071.56 -1.49589 3.88603 0
M  V30 11546 H 1074.15 -4.21312 3.29242 0
M  V30 11547 H 1074.5 -3.83383 1.62245 0
M  V30 11548 H 1075.03 -2.7187 2.90399 0
M  V30 11549 H 1071.77 -2.8598 5.89827 0
M  V30 11550 H 1071.29 -3.91178 4.54687 0
M  V30 11551 H 1072.97 -3.9282 5.14103 0
M  V30 11552 N 1073.1 -1.28322 -0.914942 0
M  V30 11553 C 1074.33 -1.1837 -1.70304 0
M  V30 11554 C 1074.75 0.254291 -1.86373 0
M  V30 11555 O 1074.11 1.18398 -1.37301 0
M  V30 11556 C 1074.16 -1.88603 -3.07346 0
M  V30 11557 O 1073.26 -1.19268 -3.94777 0
M  V30 11558 H 1072.6 -0.410978 -0.52153 0
M  V30 11559 H 1075.13 -1.69622 -1.14409 0
M  V30 11560 H 1075.14 -1.96463 -3.57584 0
M  V30 11561 H 1073.82 -2.93201 -2.94967 0
M  V30 11562 H 1072.39 -1.19563 -3.53212 0
M  V30 11563 N 1074.58 1.12322 -1.10551 0
M  V30 11564 C 1075.54 2.16273 -0.758844 0
M  V30 11565 C 1076.54 1.59325 0.217294 0
M  V30 11566 O 1077.73 1.74199 -0.00601346 0
M  V30 11567 C 1074.86 3.40674 -0.124238 0
M  V30 11568 H 1076.06 2.48454 -1.6796 0
M  V30 11569 H 1073.61 1.2735 -0.906188 0
M  V30 11570 H 1074.34 3.14094 0.807194 0
M  V30 11571 H 1074.13 3.83284 -0.826772 0
M  V30 11572 H 1075.62 4.17474 0.102502 0
M  V30 11573 N 1076.06 0.894434 1.2976 0
M  V30 11574 C 1077.29 0.532143 1.99629 0
M  V30 11575 C 1077.69 -0.886234 1.6716 0
M  V30 11576 O 1077.04 -1.59573 0.910065 0
M  V30 11577 C 1077.1 0.638335 3.53787 0
M  V30 11578 C 1076.76 2.02273 4.09798 0
M  V30 11579 C 1077.76 2.99327 4.25087 0
M  V30 11580 C 1075.45 2.33069 4.44954 0
M  V30 11581 C 1077.44 4.25304 4.74758 0
M  V30 11582 C 1075.13 3.59289 4.94322 0
M  V30 11583 C 1076.12 4.55222 5.09178 0
M  V30 11584 O 1075.81 5.79202 5.57477 0
M  V30 11585 H 1075.54 0.203326 0.644697 0
M  V30 11586 H 1078.1 1.2043 1.6639 0
M  V30 11587 H 1076.33 -0.0908338 3.86593 0
M  V30 11588 H 1078.02 0.285956 4.04891 0
M  V30 11589 H 1078.78 2.76849 3.9822 0
M  V30 11590 H 1074.66 1.59162 4.32653 0
M  V30 11591 H 1078.21 5.00189 4.86269 0
M  V30 11592 H 1074.1 3.816 5.20626 0
M  V30 11593 H 1074.87 5.81717 5.75802 0
M  V30 11594 N 1077.53 -1.43282 0.656365 0
M  V30 11595 C 1078.46 -2.33492 -0.0196962 0
M  V30 11596 C 1079.45 -1.49647 -0.80868 0
M  V30 11597 O 1080.63 -1.78303 -0.769529 0
M  V30 11598 C 1077.76 -3.33052 -0.984574 0
M  V30 11599 C 1076.71 -4.26908 -0.305483 0
M  V30 11600 C 1076.04 -5.16531 -1.38202 0
M  V30 11601 C 1077.34 -5.16073 0.804081 0
M  V30 11602 H 1079.03 -2.90272 0.733661 0
M  V30 11603 H 1076.58 -1.39574 0.354259 0
M  V30 11604 H 1078.53 -3.9506 -1.46647 0
M  V30 11605 H 1077.26 -2.74535 -1.76913 0
M  V30 11606 H 1075.92 -3.66268 0.155995 0
M  V30 11607 H 1075.56 -4.54351 -2.1581 0
M  V30 11608 H 1075.26 -5.80148 -0.932878 0
M  V30 11609 H 1076.79 -5.81414 -1.86522 0
M  V30 11610 H 1078.2 -5.71873 0.404212 0
M  V30 11611 H 1076.6 -5.88427 1.17789 0
M  V30 11612 H 1077.67 -4.55574 1.66073 0
M  V30 11613 N 1079.01 -0.398486 -1.52479 0
M  V30 11614 C 1079.94 0.423498 -2.29627 0
M  V30 11615 C 1080.92 1.05547 -1.33394 0
M  V30 11616 O 1082.11 1.0665 -1.62294 0
M  V30 11617 C 1079.24 1.54612 -3.10986 0
M  V30 11618 C 1078.19 1.03971 -4.15179 0
M  V30 11619 C 1077.52 2.25512 -4.84818 0
M  V30 11620 C 1078.82 0.10121 -5.22202 0
M  V30 11621 H 1080.51 -0.220222 -2.98589 0
M  V30 11622 H 1078.06 -0.107355 -1.43599 0
M  V30 11623 H 1080.01 2.12806 -3.63719 0
M  V30 11624 H 1078.74 2.21756 -2.39774 0
M  V30 11625 H 1077.4 0.480251 -3.63441 0
M  V30 11626 H 1077.04 2.91187 -4.10145 0
M  V30 11627 H 1076.74 1.92285 -5.55248 0
M  V30 11628 H 1078.27 2.84331 -5.40359 0
M  V30 11629 H 1079.68 0.591617 -5.70239 0
M  V30 11630 H 1078.08 -0.141737 -5.99933 0
M  V30 11631 H 1079.15 -0.847216 -4.77441 0
M  V30 11632 N 1080.49 1.57075 -0.12858 0
M  V30 11633 C 1081.72 2.00305 0.537839 0
M  V30 11634 C 1082.14 1.00787 1.58819 0
M  V30 11635 O 1081.5 -0.0190839 1.8129 0
M  V30 11636 C 1081.55 3.42371 1.13201 0
M  V30 11637 O 1080.65 3.45786 2.24735 0
M  V30 11638 H 1079.99 0.650456 0.133428 0
M  V30 11639 H 1082.52 2.03415 -0.219882 0
M  V30 11640 H 1082.53 3.80783 1.4652 0
M  V30 11641 H 1081.21 4.14315 0.362713 0
M  V30 11642 H 1079.78 3.19201 1.92783 0
M  V30 11643 N 1081.97 -0.145205 1.5693 0
M  V30 11644 C 1082.92 -1.17923 1.98401 0
M  V30 11645 C 1083.89 -1.42591 0.851885 0
M  V30 11646 O 1085.07 -1.54896 1.11409 0
M  V30 11647 C 1082.21 -2.50727 2.37128 0
M  V30 11648 C 1081.32 -2.33218 3.63639 0
M  V30 11649 C 1080.46 -3.5907 3.91462 0
M  V30 11650 C 1079.5 -3.36605 5.11237 0
M  V30 11651 N 1078.64 -4.54592 5.35061 0
M  V30 11652 H 1083.48 -0.818573 2.86537 0
M  V30 11653 H 1081.01 -0.392739 1.4176 0
M  V30 11654 H 1082.97 -3.28165 2.57611 0
M  V30 11655 H 1081.6 -2.84736 1.52069 0
M  V30 11656 H 1080.65 -1.46826 3.50922 0
M  V30 11657 H 1081.96 -2.12579 4.51234 0
M  V30 11658 H 1081.12 -4.44936 4.12453 0
M  V30 11659 H 1079.86 -3.82715 3.02293 0
M  V30 11660 H 1078.86 -2.49127 4.90118 0
M  V30 11661 H 1080.09 -3.14357 6.01961 0
M  V30 11662 H 1078.03 -4.78406 4.48847 0
M  V30 11663 H 1077.95 -4.36962 6.16928 0
M  V30 11664 H 1079.22 -5.41666 5.60551 0
M  V30 11665 N 1083.45 -1.52049 -0.414609 0
M  V30 11666 C 1084.4 -1.75603 -1.52533 0
M  V30 11667 C 1085.39 -0.622965 -1.57529 0
M  V30 11668 O 1086.6 -0.804886 -1.61002 0
M  V30 11669 H 1082.97 -0.555222 -0.507181 0
M  V30 11670 H 1084.94 -2.68666 -1.2985 0
M  V30 11671 C 1083.69 -1.9188 -2.89961 0
M  V30 11672 H 1083.01 -2.78483 -2.86857 0
M  V30 11673 H 1084.45 -2.12363 -3.66985 0
M  V30 11674 C 1082.91 -0.684453 -3.29874 0
M  V30 11675 O 1083.44 0.150256 -4.01419 0
M  V30 11676 N 1081.65 -0.521936 -2.85874 0
M  V30 11677 H 1081.2 -1.20229 -2.27822 0
M  V30 11678 H 1081.15 0.302655 -3.1294 0
M  V30 11679 N 1084.93 0.6715 -1.42579 0
M  V30 11680 C 1085.87 1.80623 -1.46554 0
M  V30 11681 C 1086.87 1.65934 -0.340932 0
M  V30 11682 O 1088.07 1.72502 -0.514098 0
M  V30 11683 H 1084.45 0.595619 -0.459067 0
M  V30 11684 H 1086.42 1.74388 -2.42139 0
M  V30 11685 C 1085.17 3.18794 -1.38801 0
M  V30 11686 H 1084.49 3.30725 -2.24635 0
M  V30 11687 H 1085.93 3.98201 -1.45645 0
M  V30 11688 C 1084.39 3.36742 -0.103219 0
M  V30 11689 O 1084.92 3.92761 0.842715 0
M  V30 11690 N 1083.13 2.90594 -0.0193034 0
M  V30 11691 H 1082.67 2.45192 -0.78986 0
M  V30 11692 H 1082.63 3.0298 0.839686 0
M  V30 11693 N 1086.4 1.28806 0.908124 0
M  V30 11694 C 1087.37 1.13228 1.99279 0
M  V30 11695 C 1088.37 0.0702456 1.60646 0
M  V30 11696 O 1089.56 0.316494 1.71301 0
M  V30 11697 C 1086.69 0.729629 3.33 0
M  V30 11698 H 1087.88 2.09566 2.14528 0
M  V30 11699 H 1085.43 1.11872 1.09153 0
M  V30 11700 H 1086.17 -0.234268 3.23453 0
M  V30 11701 H 1085.95 1.49688 3.62403 0
M  V30 11702 H 1087.44 0.643449 4.12613 0
M  V30 11703 N 1087.88 -1.11734 1.11145 0
M  V30 11704 C 1089.13 -1.82766 0.853194 0
M  V30 11705 C 1089.44 -1.85408 -0.623168 0
M  V30 11706 O 1090.65 -2.52509 -0.997574 0
M  V30 11707 C 1089.11 -3.28215 1.47658 0
M  V30 11708 C 1088.71 -3.33911 2.98676 0
M  V30 11709 C 1090.46 -4.04168 1.29803 0
M  V30 11710 C 1088.36 -4.73739 3.54013 0
M  V30 11711 H 1087.29 -0.684807 0.315523 0
M  V30 11712 H 1089.95 -1.25756 1.33633 0
M  V30 11713 H 1088.33 -3.85138 0.921116 0
M  V30 11714 H 1089.5 -2.86887 3.606 0
M  V30 11715 H 1087.82 -2.71437 3.15771 0
M  V30 11716 H 1090.41 -5.07429 1.68582 0
M  V30 11717 H 1090.76 -4.15606 0.240302 0
M  V30 11718 H 1091.29 -3.53623 1.82196 0
M  V30 11719 H 1088.03 -4.67497 4.59485 0
M  V30 11720 H 1087.55 -5.21186 2.9686 0
M  V30 11721 H 1089.23 -5.42691 3.52271 0
M  V30 11722 N 1089.36 -0.901303 -1.29284 0
M  V30 11723 C 1090.27 -0.3849 -2.31421 0
M  V30 11724 C 1091.29 0.521163 -1.66012 0
M  V30 11725 O 1092.46 0.410356 -1.97175 0
M  V30 11726 C 1089.53 0.377804 -3.44635 0
M  V30 11727 C 1088.59 -0.559974 -4.25632 0
M  V30 11728 C 1087.82 0.166425 -5.3344 0
M  V30 11729 O 1088.04 1.39012 -5.53202 0
M  V30 11730 O 1086.98 -0.491875 -5.99887 0
M  V30 11731 H 1090.8 -1.2323 -2.77575 0
M  V30 11732 H 1088.39 -0.665683 -1.3375 0
M  V30 11733 H 1090.27 0.809041 -4.13561 0
M  V30 11734 H 1088.95 1.20124 -3.00586 0
M  V30 11735 H 1087.85 -1.04036 -3.59343 0
M  V30 11736 H 1089.19 -1.34987 -4.73328 0
M  V30 11737 N 1090.84 1.42931 -0.663954 0
M  V30 11738 C 1092.25 1.84877 -0.260283 0
M  V30 11739 C 1092.6 1.5558 1.19538 0
M  V30 11740 O 1091.72 1.01015 1.91377 0
M  V30 11741 C 1092.32 3.35585 -0.465618 0
M  V30 11742 C 1090.88 3.76221 -0.116169 0
M  V30 11743 C 1090.03 2.66587 -0.763317 0
M  V30 11744 H 1092.98 1.32932 -0.866882 0
M  V30 11745 H 1093 3.79427 0.285608 0
M  V30 11746 H 1092.51 3.56877 -1.52515 0
M  V30 11747 H 1090.61 3.60539 0.940342 0
M  V30 11748 H 1090.72 4.75943 -0.549123 0
M  V30 11749 H 1089.09 2.53948 -0.19559 0
M  V30 11750 H 1089.87 2.90704 -1.82609 0
M  V30 11751 N 1092.32 0.406567 1.52266 0
M  V30 11752 C 1093.73 0.0573228 1.59497 0
M  V30 11753 C 1093.93 -1.43005 1.41957 0
M  V30 11754 O 1092.99 -2.19659 1.24523 0
M  V30 11755 C 1094.3 0.549947 2.95628 0
M  V30 11756 C 1095.85 0.5077 3.08855 0
M  V30 11757 C 1096.32 0.976792 4.47463 0
M  V30 11758 N 1097.81 0.933508 4.53696 0
M  V30 11759 C 1098.55 1.26769 5.59211 0
M  V30 11760 N 1098.05 1.6732 6.72292 0
M  V30 11761 N 1099.84 1.18782 5.49406 0
M  V30 11762 H 1091.99 1.37468 1.61914 0
M  V30 11763 H 1094.25 0.564562 0.76156 0
M  V30 11764 H 1093.96 1.58943 3.13736 0
M  V30 11765 H 1093.83 -0.0417767 3.77177 0
M  V30 11766 H 1096.22 -0.522728 2.90433 0
M  V30 11767 H 1096.3 1.13545 2.29219 0
M  V30 11768 H 1095.94 2.00554 4.66627 0
M  V30 11769 H 1095.87 0.325885 5.25591 0
M  V30 11770 H 1098.37 0.635333 3.72521 0
M  V30 11771 H 1098.68 1.91137 7.4879 0
M  V30 11772 H 1097.02 1.71221 6.73579 0
M  V30 11773 H 1100.21 0.869906 4.59946 0
M  V30 11774 H 1100.39 1.45157 6.31533 0
M  V30 11775 N 1093.79 -1.57004 0.136909 0
M  V30 11776 C 1095.02 -2.00587 -0.527209 0
M  V30 11777 C 1095.44 -1.01628 -1.58283 0
M  V30 11778 O 1094.8 0.00946934 -1.81298 0
M  V30 11779 C 1094.85 -3.42967 -1.11384 0
M  V30 11780 O 1093.95 -3.46973 -2.22898 0
M  V30 11781 H 1093.3 -0.651155 -0.129976 0
M  V30 11782 H 1095.83 -2.03296 0.230667 0
M  V30 11783 H 1095.84 -3.81555 -1.44499 0
M  V30 11784 H 1094.51 -4.14502 -0.340736 0
M  V30 11785 H 1093.09 -3.20219 -1.91087 0
M  V30 11786 N 1095.27 0.136881 -1.57004 0
M  V30 11787 C 1096.52 0.847775 -1.83899 0
M  V30 11788 C 1096.85 1.80709 -0.719332 0
M  V30 11789 O 1096.1 1.93527 0.290838 0
M  V30 11790 C 1096.4 1.64711 -3.17183 0
M  V30 11791 C 1096.07 0.833683 -4.43126 0
M  V30 11792 C 1094.73 0.609306 -4.77327 0
M  V30 11793 C 1097.08 0.265504 -5.20523 0
M  V30 11794 C 1094.41 -0.193793 -5.8638 0
M  V30 11795 C 1096.76 -0.524688 -6.3042 0
M  V30 11796 C 1095.43 -0.759548 -6.63164 0
M  V30 11797 H 1094.7 0.310223 -0.672936 0
M  V30 11798 H 1097.34 0.110937 -1.91178 0
M  V30 11799 H 1095.65 2.45435 -3.054 0
M  V30 11800 H 1097.34 2.20081 -3.3521 0
M  V30 11801 H 1093.93 1.01864 -4.16319 0
M  V30 11802 H 1098.12 0.426109 -4.94467 0
M  V30 11803 H 1093.37 -0.385153 -6.10186 0
M  V30 11804 H 1097.55 -0.972033 -6.89583 0
M  V30 11805 H 1095.18 -1.38369 -7.47501 0
M  V30 11806 N 1096.75 1.52266 0.40654 0
M  V30 11807 C 1097.98 1.70598 1.17945 0
M  V30 11808 C 1098.4 0.415793 1.83447 0
M  V30 11809 O 1097.76 -0.626968 1.70114 0
M  V30 11810 C 1097.81 2.84449 2.21633 0
M  V30 11811 O 1096.91 2.50199 3.27833 0
M  V30 11812 H 1096.25 0.567837 0.344177 0
M  V30 11813 H 1098.78 1.98981 0.476211 0
M  V30 11814 H 1098.79 3.09436 2.65919 0
M  V30 11815 H 1097.47 3.78055 1.73341 0
M  V30 11816 H 1096.04 2.35892 2.88807 0
M  V30 11817 N 1098.23 -0.663929 1.42933 0
M  V30 11818 C 1099.16 -1.78946 1.43217 0
M  V30 11819 C 1100.17 -1.59426 0.329727 0
M  V30 11820 O 1101.36 -1.68344 0.5935 0
M  V30 11821 C 1098.46 -3.16217 1.21902 0
M  V30 11822 C 1097.64 -3.6249 2.44785 0
M  V30 11823 C 1096.69 -4.78529 2.18853 0
M  V30 11824 O 1095.72 -4.88516 2.92131 0
M  V30 11825 N 1096.92 -5.67994 1.19845 0
M  V30 11826 H 1099.69 -1.79184 2.40236 0
M  V30 11827 H 1097.25 -0.847404 1.37952 0
M  V30 11828 H 1099.24 -3.91517 1.02454 0
M  V30 11829 H 1097.81 -3.10814 0.333676 0
M  V30 11830 H 1097.03 -2.77751 2.79729 0
M  V30 11831 H 1098.32 -3.90151 3.26588 0
M  V30 11832 H 1097.72 -5.62588 0.59259 0
M  V30 11833 H 1096.27 -6.4306 1.06382 0
M  V30 11834 N 1099.71 -1.29285 -0.901281 0
M  V30 11835 C 1100.65 -1.14159 -2.02659 0
M  V30 11836 C 1101.65 -0.0575887 -1.69302 0
M  V30 11837 O 1102.85 -0.217273 -1.78684 0
M  V30 11838 H 1099.23 -0.352584 -0.66422 0
M  V30 11839 H 1101.2 -2.09434 -2.12555 0
M  V30 11840 C 1099.95 -0.833253 -3.37568 0
M  V30 11841 H 1099.27 -1.65939 -3.63737 0
M  V30 11842 H 1100.71 -0.767436 -4.16997 0
M  V30 11843 C 1099.17 0.46344 -3.33697 0
M  V30 11844 O 1099.7 1.48998 -3.73045 0
M  V30 11845 N 1097.91 0.468709 -2.86795 0
M  V30 11846 H 1097.45 -0.36712 -2.54971 0
M  V30 11847 H 1097.41 1.3363 -2.84588 0
M  V30 11848 N 1101.18 1.11143 -1.11736 0
M  V30 11849 C 1102.41 1.87285 -0.891007 0
M  V30 11850 C 1102.83 1.79758 0.553971 0
M  V30 11851 O 1102.19 1.16221 1.39149 0
M  V30 11852 C 1102.24 3.33924 -1.36114 0
M  V30 11853 O 1101.34 4.08917 -0.534851 0
M  V30 11854 H 1100.69 0.581418 -0.320701 0
M  V30 11855 H 1103.22 1.40469 -1.4876 0
M  V30 11856 H 1103.23 3.84772 -1.35701 0
M  V30 11857 H 1101.9 3.38719 -2.41334 0
M  V30 11858 H 1100.48 3.67954 -0.605355 0
M  V30 11859 N 1102.66 0.908147 1.28804 0
M  V30 11860 C 1104.08 0.605474 1.47669 0
M  V30 11861 C 1104.28 -0.850759 1.82659 0
M  V30 11862 O 1103.33 -1.63029 1.92816 0
M  V30 11863 C 1104.65 1.53856 2.58358 0
M  V30 11864 C 1106.2 1.54467 2.7223 0
M  V30 11865 C 1106.67 2.46424 3.86056 0
M  V30 11866 N 1108.16 2.44519 3.93402 0
M  V30 11867 C 1108.9 3.12371 4.80845 0
M  V30 11868 N 1108.39 3.89533 5.72919 0
M  V30 11869 N 1110.19 3.01486 4.74407 0
M  V30 11870 H 1102.34 1.84988 1.04371 0
M  V30 11871 H 1104.6 0.793132 0.519274 0
M  V30 11872 H 1104.31 2.57651 2.39393 0
M  V30 11873 H 1104.18 1.26543 3.5534 0
M  V30 11874 H 1106.57 0.514127 2.90587 0
M  V30 11875 H 1106.65 1.85821 1.75796 0
M  V30 11876 H 1106.29 3.49577 3.68454 0
M  V30 11877 H 1106.22 2.12375 4.81876 0
M  V30 11878 H 1108.71 1.88464 3.27551 0
M  V30 11879 H 1109.03 4.3834 6.36457 0
M  V30 11880 H 1107.37 3.93639 5.72777 0
M  V30 11881 H 1110.56 2.40713 4.01466 0
M  V30 11882 H 1110.73 3.5464 5.42342 0
M  V30 11883 N 1104.14 -1.42577 0.671525 0
M  V30 11884 C 1105.09 -2.27978 -0.0315286 0
M  V30 11885 C 1106.07 -1.40907 -0.776796 0
M  V30 11886 O 1107.27 -1.64385 -0.656248 0
M  V30 11887 C 1104.4 -3.28884 -0.9844 0
M  V30 11888 C 1103.48 -4.23439 -0.236647 0
M  V30 11889 N 1103.87 -5.00107 0.756714 0
M  V30 11890 C 1102.17 -4.43457 -0.475551 0
M  V30 11891 C 1102.87 -5.69141 1.20221 0
M  V30 11892 N 1101.85 -5.40983 0.532802 0
M  V30 11893 H 1105.65 -2.84678 0.730455 0
M  V30 11894 H 1103.16 -1.54501 0.500317 0
M  V30 11895 H 1105.16 -3.88864 -1.50302 0
M  V30 11896 H 1103.82 -2.73745 -1.74625 0
M  V30 11897 H 1104.83 -5.05285 1.13613 0
M  V30 11898 H 1101.51 -3.99364 -1.21715 0
M  V30 11899 H 1102.9 -6.40653 2.02517 0
M  V30 11900 N 1105.62 -0.414636 -1.52048 0
M  V30 11901 C 1107.03 0.0537107 -1.86623 0
M  V30 11902 C 1107.38 1.43955 -1.3331 0
M  V30 11903 O 1106.51 2.05616 -0.674606 0
M  V30 11904 C 1107.1 0.104241 -3.3864 0
M  V30 11905 C 1105.66 0.516936 -3.72833 0
M  V30 11906 C 1104.81 -0.305042 -2.75617 0
M  V30 11907 H 1107.76 -0.631469 -1.45596 0
M  V30 11908 H 1107.78 0.918395 -3.6925 0
M  V30 11909 H 1107.29 -0.904523 -3.77412 0
M  V30 11910 H 1105.39 1.53214 -3.39641 0
M  V30 11911 H 1105.5 0.2575 -4.78408 0
M  V30 11912 H 1103.87 0.233416 -2.53628 0
M  V30 11913 H 1104.65 -1.31226 -3.1723 0
M  V30 11914 N 1107.1 1.56929 -0.145233 0
M  V30 11915 C 1108.32 2.00864 0.516564 0
M  V30 11916 C 1108.75 1.02466 1.57741 0
M  V30 11917 O 1108.1 0.000145439 1.813 0
M  V30 11918 C 1108.15 3.43552 1.09563 0
M  V30 11919 O 1107.26 3.4815 2.21055 0
M  V30 11920 H 1106.6 0.651835 0.126521 0
M  V30 11921 H 1109.13 2.0317 -0.241445 0
M  V30 11922 H 1109.14 3.82316 1.42473 0
M  V30 11923 H 1107.81 4.14677 0.318749 0
M  V30 11924 H 1106.39 3.21228 1.89387 0
M  V30 11925 N 1108.58 -0.128553 1.57075 0
M  V30 11926 C 1109.51 -1.18362 1.96273 0
M  V30 11927 C 1110.52 -1.3818 0.860818 0
M  V30 11928 O 1111.71 -1.37424 1.13916 0
M  V30 11929 C 1108.81 -2.54533 2.23755 0
M  V30 11930 C 1107.98 -2.55446 3.55058 0
M  V30 11931 C 1107.04 -3.73291 3.70864 0
M  V30 11932 O 1106.07 -3.57315 4.43074 0
M  V30 11933 N 1107.27 -4.91481 3.08912 0
M  V30 11934 H 1110.03 -0.850276 2.87385 0
M  V30 11935 H 1107.6 -0.317931 1.58748 0
M  V30 11936 H 1109.59 -3.31912 2.31553 0
M  V30 11937 H 1108.16 -2.80087 1.38816 0
M  V30 11938 H 1107.38 -1.6385 3.58534 0
M  V30 11939 H 1108.67 -2.53104 4.4138 0
M  V30 11940 H 1108.06 -5.07364 2.50196 0
M  V30 11941 H 1106.62 -5.6657 3.22245 0
M  V30 11942 N 1110.05 -1.5248 -0.398459 0
M  V30 11943 C 1111 -1.77211 -1.50662 0
M  V30 11944 C 1112 -0.639638 -1.5686 0
M  V30 11945 O 1113.2 -0.821917 -1.60139 0
M  V30 11946 H 1109.58 -0.56057 -0.501264 0
M  V30 11947 H 1111.55 -2.70028 -1.26993 0
M  V30 11948 C 1110.3 -1.94944 -2.8791 0
M  V30 11949 H 1109.62 -2.8151 -2.83888 0
M  V30 11950 H 1111.06 -2.16243 -3.64712 0
M  V30 11951 C 1109.52 -0.719402 -3.29129 0
M  V30 11952 O 1110.05 0.107671 -4.01556 0
M  V30 11953 N 1108.25 -0.552228 -2.85305 0
M  V30 11954 H 1107.8 -1.22638 -2.26534 0
M  V30 11955 H 1107.76 0.269447 -3.13243 0
M  V30 11956 N 1111.53 0.65634 -1.43283 0
M  V30 11957 C 1112.94 1.23744 -1.39801 0
M  V30 11958 C 1113.29 1.95942 -0.100507 0
M  V30 11959 O 1112.42 2.01063 0.800161 0
M  V30 11960 C 1113.01 2.25062 -2.53244 0
M  V30 11961 C 1111.57 2.78657 -2.53036 0
M  V30 11962 C 1110.72 1.53251 -2.31105 0
M  V30 11963 H 1113.67 0.448553 -1.52229 0
M  V30 11964 H 1113.69 3.07174 -2.24553 0
M  V30 11965 H 1113.2 1.72487 -3.47664 0
M  V30 11966 H 1111.3 3.35304 -1.62487 0
M  V30 11967 H 1111.42 3.26414 -3.507 0
M  V30 11968 H 1109.78 1.80487 -1.79713 0
M  V30 11969 H 1110.56 1.02615 -3.27605 0
M  V30 11970 N 1113.01 1.29761 0.894412 0
M  V30 11971 C 1114.42 1.16275 1.46072 0
M  V30 11972 C 1114.77 -0.240123 1.94725 0
M  V30 11973 O 1113.9 -1.13606 1.84181 0
M  V30 11974 C 1114.49 2.10471 2.65494 0
M  V30 11975 C 1113.05 2.00992 3.18244 0
M  V30 11976 C 1112.2 2.01094 1.90936 0
M  V30 11977 H 1115.15 1.42169 0.705243 0
M  V30 11978 H 1115.17 1.68003 3.41402 0
M  V30 11979 H 1114.68 3.12566 2.30053 0
M  V30 11980 H 1112.78 1.02005 3.58365 0
M  V30 11981 H 1112.9 2.88916 3.82184 0
M  V30 11982 H 1111.26 1.45764 2.08866 0
M  V30 11983 H 1112.04 3.04902 1.57764 0
M  V30 11984 N 1114.49 -1.10549 1.12324 0
M  V30 11985 C 1115.73 -1.82755 0.879117 0
M  V30 11986 C 1116.07 -1.84905 -0.593604 0
M  V30 11987 O 1115.34 -1.30884 -1.43873 0
M  V30 11988 C 1115.62 -3.29481 1.45308 0
M  V30 11989 C 1115.48 -3.3567 2.99408 0
M  V30 11990 C 1116.8 -4.25828 1.11167 0
M  V30 11991 H 1113.92 -0.663513 0.32081 0
M  V30 11992 H 1116.56 -1.29572 1.38965 0
M  V30 11993 H 1114.71 -3.74902 1.01887 0
M  V30 11994 H 1116.38 -2.98739 3.515 0
M  V30 11995 H 1114.62 -2.75606 3.34998 0
M  V30 11996 H 1115.29 -4.38983 3.34661 0
M  V30 11997 H 1117.77 -3.88635 1.48667 0
M  V30 11998 H 1116.65 -5.26857 1.53991 0
M  V30 11999 H 1116.91 -4.42094 0.0237046 0
M  V30 12000 N 1115.97 -0.914965 -1.28321 0
M  V30 12001 C 1116.9 -0.421292 -2.29668 0
M  V30 12002 C 1117.88 0.511743 -1.6222 0
M  V30 12003 O 1119.06 0.419218 -1.89621 0
M  V30 12004 C 1116.19 0.338364 -3.45648 0
M  V30 12005 C 1115.15 -0.505646 -4.25003 0
M  V30 12006 C 1114.47 0.382421 -5.33331 0
M  V30 12007 C 1115.77 -1.76354 -4.91626 0
M  V30 12008 H 1117.47 -1.26826 -2.71211 0
M  V30 12009 H 1115.01 -0.611291 -1.30381 0
M  V30 12010 H 1116.96 0.694578 -4.15636 0
M  V30 12011 H 1115.69 1.21925 -3.02988 0
M  V30 12012 H 1114.35 -0.844395 -3.56743 0
M  V30 12013 H 1114 1.26189 -4.86914 0
M  V30 12014 H 1113.7 -0.17871 -5.87328 0
M  V30 12015 H 1115.22 0.73449 -6.06166 0
M  V30 12016 H 1116.63 -1.47616 -5.5397 0
M  V30 12017 H 1115.03 -2.26717 -5.55625 0
M  V30 12018 H 1116.1 -2.49063 -4.16048 0
M  V30 12019 N 1117.44 1.42219 -0.679077 0
M  V30 12020 C 1118.39 2.308 -0.00340316 0
M  V30 12021 C 1119.36 1.462 0.788334 0
M  V30 12022 O 1120.55 1.75023 0.759716 0
M  V30 12023 C 1117.69 3.32084 0.938854 0
M  V30 12024 C 1116.8 4.31772 0.140485 0
M  V30 12025 C 1115.93 5.20128 1.07888 0
M  V30 12026 C 1114.97 6.11493 0.27245 0
M  V30 12027 N 1114.11 6.92388 1.16378 0
M  V30 12028 H 1118.95 2.88024 -0.764587 0
M  V30 12029 H 1116.49 1.41869 -0.38878 0
M  V30 12030 H 1118.44 3.89339 1.49903 0
M  V30 12031 H 1117.07 2.76448 1.66662 0
M  V30 12032 H 1116.13 3.76599 -0.536376 0
M  V30 12033 H 1117.44 4.96432 -0.485433 0
M  V30 12034 H 1116.59 5.82137 1.70884 0
M  V30 12035 H 1115.33 4.55655 1.73868 0
M  V30 12036 H 1114.34 5.48549 -0.370693 0
M  V30 12037 H 1115.56 6.78017 -0.383315 0
M  V30 12038 H 1113.51 6.30538 1.8099 0
M  V30 12039 H 1113.42 7.5367 0.593043 0
M  V30 12040 H 1114.69 7.58879 1.78107 0
M  V30 12041 N 1118.92 0.422693 1.51826 0
M  V30 12042 C 1120.34 0.0742364 1.59427 0
M  V30 12043 C 1120.54 -1.41491 1.43466 0
M  V30 12044 O 1119.59 -2.18326 1.26846 0
M  V30 12045 C 1120.91 0.581272 2.95028 0
M  V30 12046 C 1122.45 0.54043 3.08299 0
M  V30 12047 C 1122.93 1.0242 4.46401 0
M  V30 12048 N 1124.42 0.981576 4.5268 0
M  V30 12049 C 1125.16 1.32693 5.57835 0
M  V30 12050 N 1124.65 1.74441 6.70479 0
M  V30 12051 N 1126.44 1.24603 5.48115 0
M  V30 12052 H 1118.6 1.39178 1.60447 0
M  V30 12053 H 1120.86 0.572607 0.75553 0
M  V30 12054 H 1120.56 1.62261 3.12032 0
M  V30 12055 H 1120.44 -0.00176969 3.772 0
M  V30 12056 H 1122.83 -0.491895 2.90971 0
M  V30 12057 H 1122.91 1.15969 2.28002 0
M  V30 12058 H 1122.55 2.05491 4.64474 0
M  V30 12059 H 1122.48 0.381613 5.25215 0
M  V30 12060 H 1124.97 0.674808 3.71826 0
M  V30 12061 H 1125.28 1.99068 7.46721 0
M  V30 12062 H 1123.63 1.78356 6.71725 0
M  V30 12063 H 1126.82 0.918641 4.58997 0
M  V30 12064 H 1126.99 1.51847 6.29958 0
M  V30 12065 N 1120.4 -1.5685 0.153553 0
M  V30 12066 C 1121.35 -2.13671 -0.795526 0
M  V30 12067 C 1122.33 -1.06624 -1.20499 0
M  V30 12068 O 1123.53 -1.32788 -1.17032 0
M  V30 12069 C 1120.65 -2.76704 -2.03199 0
M  V30 12070 C 1119.74 -3.90884 -1.64532 0
M  V30 12071 N 1120.13 -4.96466 -0.96723 0
M  V30 12072 C 1118.43 -4.01713 -1.93759 0
M  V30 12073 C 1119.13 -5.76453 -0.779527 0
M  V30 12074 N 1118.11 -5.27444 -1.31544 0
M  V30 12075 H 1121.91 -2.92673 -0.268288 0
M  V30 12076 H 1119.42 -1.6233 -0.0477596 0
M  V30 12077 H 1121.42 -3.15777 -2.72196 0
M  V30 12078 H 1120.08 -1.99177 -2.56434 0
M  V30 12079 H 1121.09 -5.14087 -0.627253 0
M  V30 12080 H 1117.77 -3.3527 -2.48797 0
M  V30 12081 H 1119.16 -6.71455 -0.244604 0
M  V30 12082 N 1121.88 0.120221 -1.57141 0
M  V30 12083 C 1122.81 1.1732 -1.96898 0
M  V30 12084 C 1123.82 1.37722 -0.868134 0
M  V30 12085 O 1125.01 1.36818 -1.14643 0
M  V30 12086 C 1122.11 2.53343 -2.25102 0
M  V30 12087 C 1121.28 2.53559 -3.56408 0
M  V30 12088 C 1120.34 3.71319 -3.72838 0
M  V30 12089 O 1119.37 3.54961 -4.44962 0
M  V30 12090 N 1120.57 4.89836 -3.11514 0
M  V30 12091 H 1123.34 0.835023 -2.87832 0
M  V30 12092 H 1120.9 0.309508 -1.58914 0
M  V30 12093 H 1122.89 3.30679 -2.3331 0
M  V30 12094 H 1121.46 2.79347 -1.403 0
M  V30 12095 H 1120.68 1.61946 -3.59398 0
M  V30 12096 H 1121.97 2.5076 -4.42716 0
M  V30 12097 H 1121.37 5.0603 -2.52884 0
M  V30 12098 H 1119.92 5.64853 -3.25246 0
M  V30 12099 N 1123.36 1.52689 0.390367 0
M  V30 12100 C 1124.77 1.41909 0.730338 0
M  V30 12101 C 1124.97 0.538427 1.94173 0
M  V30 12102 O 1124.03 0.0113527 2.52497 0
M  V30 12103 C 1125.34 2.84737 0.966714 0
M  V30 12104 C 1126.89 2.94206 1.06827 0
M  V30 12105 C 1127.36 4.38042 1.33728 0
M  V30 12106 N 1128.86 4.4136 1.40553 0
M  V30 12107 C 1129.59 5.49735 1.63031 0
M  V30 12108 N 1129.09 6.68197 1.82988 0
M  V30 12109 N 1130.88 5.37276 1.65199 0
M  V30 12110 H 1123.03 2.08469 -0.406766 0
M  V30 12111 H 1125.29 0.940401 -0.11979 0
M  V30 12112 H 1125 3.51385 0.148725 0
M  V30 12113 H 1124.87 3.26909 1.88176 0
M  V30 12114 H 1127.26 2.27726 1.87683 0
M  V30 12115 H 1127.34 2.55463 0.131168 0
M  V30 12116 H 1126.99 5.05087 0.533832 0
M  V30 12117 H 1126.92 4.74336 2.28721 0
M  V30 12118 H 1129.41 3.55976 1.26844 0
M  V30 12119 H 1129.72 7.46567 1.99643 0
M  V30 12120 H 1128.06 6.71228 1.80215 0
M  V30 12121 H 1131.26 4.437 1.49158 0
M  V30 12122 H 1131.43 6.21806 1.82377 0
M  V30 12123 O 1124.87 -0.536303 1.52335 0
M  V30 12124 H 1125.56 -1.19144 1.52724 0
M  V30 END ATOM
M  V30 BEGIN BOND
M  V30 END BOND
M  V30 END CTAB
M  END
$$$$
