drugbank_target|Q59675 Endo-beta-1,4-xylanase Xyn10C (DB03389)
 OpenBabel12092120273D

  0  0  0     0  0            999 V3000
M  V30 BEGIN CTAB
M  V30 COUNTS 8942 9030 0 0 0
M  V30 BEGIN ATOM
M  V30 1 H -0.908 1.98254 -0.117106 0
M  V30 2 N 0 1.576 0 0
M  V30 3 C 0.933 2.03868 1.02534 0
M  V30 4 C 1.911 0.928543 1.3348 0
M  V30 5 O 3.095 1.19667 1.45644 0
M  V30 6 C 0.222 2.43627 2.35294 0
M  V30 7 C -0.732 3.65373 2.2001 0
M  V30 8 S 0.101 5.13292 1.52614 0
M  V30 9 C 1.257 5.56322 2.86805 0
M  V30 10 H 1.49 2.90518 0.631377 0
M  V30 11 H -0.977 1.52953 0.210867 0
M  V30 12 H 0.981 2.67203 3.11629 0
M  V30 13 H -0.358 1.57376 2.7183 0
M  V30 14 H -1.165 3.90944 3.18086 0
M  V30 15 H -1.563 3.418 1.51819 0
M  V30 16 H 0.729 5.58782 3.83104 0
M  V30 17 H 1.672 6.56266 2.65933 0
M  V30 18 H 2.08 4.83886 2.90714 0
M  V30 19 N 1.4781 -0.272755 1.55222 0
M  V30 20 C 2.4251 -1.33716 1.88119 0
M  V30 21 C 3.3951 -1.49066 0.73271 0
M  V30 22 O 4.5801 -1.63469 0.984002 0
M  V30 23 C 1.7201 -2.69238 2.15882 0
M  V30 24 C 0.8331 -2.62108 3.43399 0
M  V30 25 C -0.0319 -3.89811 3.60861 0
M  V30 26 C -0.9929 -3.77193 4.8207 0
M  V30 27 N -1.8559 -4.9673 4.96189 0
M  V30 28 H 2.9841 -1.04962 2.78903 0
M  V30 29 H 0.5211 -0.507088 1.38083 0
M  V30 30 H 2.4791 -3.48089 2.29978 0
M  V30 31 H 1.1091 -2.96194 1.28331 0
M  V30 32 H 0.1611 -1.74967 3.37773 0
M  V30 33 H 1.4731 -2.48685 4.32386 0
M  V30 34 H 0.6271 -4.77103 3.74777 0
M  V30 35 H -0.6339 -4.06102 2.7006 0
M  V30 36 H -1.6289 -2.88284 4.68159 0
M  V30 37 H -0.4039 -3.62421 5.74307 0
M  V30 38 H -2.4579 -5.13431 4.08319 0
M  V30 39 H -2.5409 -4.85839 5.79221 0
M  V30 40 H -1.2729 -5.85594 5.1449 0
M  V30 41 N 2.9562 -1.48159 -0.537278 0
M  V30 42 C 3.9032 -1.62138 -1.64256 0
M  V30 43 C 4.8732 -0.463668 -1.59497 0
M  V30 44 O 6.0582 -0.686241 -1.78032 0
M  V30 45 C 3.1982 -1.66028 -3.02537 0
M  V30 46 C 2.3112 -2.92855 -3.17585 0
M  V30 47 C 1.4462 -2.87952 -4.46382 0
M  V30 48 C 0.4852 -4.09516 -4.54932 0
M  V30 49 N -0.3778 -4.02733 -5.75109 0
M  V30 50 H 4.4622 -2.56529 -1.51647 0
M  V30 51 H 1.9992 -1.27224 -0.738414 0
M  V30 52 H 3.9572 -1.66265 -3.82638 0
M  V30 53 H 2.5872 -0.751331 -3.13934 0
M  V30 54 H 1.6392 -3.02395 -2.30784 0
M  V30 55 H 2.9512 -3.82822 -3.19764 0
M  V30 56 H 2.1052 -2.8655 -5.34765 0
M  V30 57 H 0.8442 -1.95702 -4.46712 0
M  V30 58 H -0.1508 -4.11201 -3.64957 0
M  V30 59 H 1.0742 -5.02917 -4.56346 0
M  V30 60 H -0.9798 -3.13299 -5.76351 0
M  V30 61 H -1.0628 -4.86397 -5.78752 0
M  V30 62 H 0.2052 -4.05379 -6.65799 0
M  V30 63 N 4.4343 0.785586 -1.36625 0
M  V30 64 C 5.6833 1.53883 -1.30396 0
M  V30 65 C 5.9963 1.95271 0.113452 0
M  V30 66 O 7.2023 2.69858 0.298142 0
M  V30 67 C 5.6583 2.77808 -2.28802 0
M  V30 68 C 5.2663 2.43574 -3.75999 0
M  V30 69 C 7.0103 3.55783 -2.31558 0
M  V30 70 C 4.9173 3.63919 -4.66173 0
M  V30 71 H 3.8473 0.577678 -0.484566 0
M  V30 72 H 6.4983 0.861705 -1.62009 0
M  V30 73 H 4.8803 3.47339 -1.90188 0
M  V30 74 H 6.0543 1.81916 -4.23371 0
M  V30 75 H 4.3693 1.78803 -3.76056 0
M  V30 76 H 6.9663 4.45205 -2.96137 0
M  V30 77 H 7.3093 3.94644 -1.3252 0
M  V30 78 H 7.8423 2.93235 -2.68809 0
M  V30 79 H 4.5813 3.3015 -5.66287 0
M  V30 80 H 4.1013 4.2473 -4.23515 0
M  V30 81 H 5.7803 4.30901 -4.82632 0
M  V30 82 N 5.9124 1.20967 1.01018 0
M  V30 83 C 6.8444 0.922059 2.09835 0
M  V30 84 C 7.8574 -0.0927106 1.62536 0
M  V30 85 O 9.0464 0.139127 1.77957 0
M  V30 86 C 6.1464 0.362004 3.36961 0
M  V30 87 C 5.3194 1.42986 4.13369 0
M  V30 88 C 4.3784 0.879976 5.1879 0
M  V30 89 O 3.4044 1.56219 5.47343 0
M  V30 90 N 4.6064 -0.307396 5.79686 0
M  V30 91 H 7.3714 1.8588 2.35093 0
M  V30 92 H 4.9324 1.11422 1.1746 0
M  V30 93 H 6.9244 -0.0201474 4.04695 0
M  V30 94 H 5.4944 -0.479437 3.08902 0
M  V30 95 H 4.7144 1.98608 3.40512 0
M  V30 96 H 6.0024 2.14885 4.61196 0
M  V30 97 H 5.4004 -0.878796 5.58832 0
M  V30 98 H 3.9574 -0.631115 6.48737 0
M  V30 99 N 7.3905 -1.2043 1.01659 0
M  V30 100 C 8.3225 -2.22626 0.544988 0
M  V30 101 C 9.3355 -1.58479 -0.372609 0
M  V30 102 O 10.5245 -1.77679 -0.170958 0
M  V30 103 C 7.6245 -3.38141 -0.22663 0
M  V30 104 C 6.7975 -4.31877 0.692876 0
M  V30 105 C 5.8565 -5.26191 -0.0311616 0
M  V30 106 O 4.8825 -5.6612 0.591343 0
M  V30 107 N 6.0845 -5.65618 -1.30601 0
M  V30 108 H 8.8495 -2.63716 1.42388 0
M  V30 109 H 6.4105 -1.34971 0.894116 0
M  V30 110 H 8.4025 -3.98239 -0.72024 0
M  V30 111 H 6.9725 -2.95943 -1.00681 0
M  V30 112 H 6.1925 -3.69746 1.36679 0
M  V30 113 H 7.4805 -4.91426 1.31824 0
M  V30 114 H 6.8785 -5.3519 -1.83269 0
M  V30 115 H 5.4355 -6.28025 -1.74435 0
M  V30 116 N 8.8686 -0.792821 -1.36206 0
M  V30 117 C 9.7986 -0.207853 -2.32573 0
M  V30 118 C 10.7796 0.659055 -1.56813 0
M  V30 119 O 11.9646 0.592176 -1.84951 0
M  V30 120 C 9.0946 0.655449 -3.41059 0
M  V30 121 C 8.0486 -0.111842 -4.27854 0
M  V30 122 C 7.3746 0.872274 -5.27537 0
M  V30 123 C 8.6746 -1.30299 -5.05786 0
M  V30 124 H 10.3686 -1.01294 -2.81744 0
M  V30 125 H 7.9146 -0.48854 -1.3546 0
M  V30 126 H 9.8676 1.07464 -4.07467 0
M  V30 127 H 8.5916 1.49328 -2.90463 0
M  V30 128 H 7.2506 -0.512053 -3.63006 0
M  V30 129 H 6.8986 1.70523 -4.73214 0
M  V30 130 H 6.5986 0.363291 -5.86476 0
M  V30 131 H 8.1226 1.28996 -5.96818 0
M  V30 132 H 9.5366 -0.959379 -5.65216 0
M  V30 133 H 7.9336 -1.7455 -5.74154 0
M  V30 134 H 9.0036 -2.09663 -4.37229 0
M  V30 135 N 10.3467 1.47872 -0.545128 0
M  V30 136 C 11.2767 2.32661 0.197793 0
M  V30 137 C 12.2577 1.43041 0.920504 0
M  V30 138 O 13.4427 1.71912 0.90333 0
M  V30 139 C 10.5727 3.24569 1.23582 0
M  V30 140 C 9.5267 4.23333 0.630323 0
M  V30 141 C 8.8527 5.0448 1.77211 0
M  V30 142 C 10.1527 5.20704 -0.407974 0
M  V30 143 H 11.8467 2.95024 -0.510045 0
M  V30 144 H 9.3927 1.4187 -0.246731 0
M  V30 145 H 11.3457 3.8272 1.76362 0
M  V30 146 H 10.0697 2.60236 1.97344 0
M  V30 147 H 8.7287 3.6639 0.123922 0
M  V30 148 H 8.3767 4.36561 2.49847 0
M  V30 149 H 8.0767 5.71339 1.37281 0
M  V30 150 H 9.6007 5.65487 2.3034 0
M  V30 151 H 11.0147 5.7329 0.033305 0
M  V30 152 H 9.4117 5.95699 -0.725486 0
M  V30 153 H 10.4817 4.66917 -1.30828 0
M  V30 154 N 11.8248 0.280983 1.55075 0
M  V30 155 C 12.7578 -0.645439 2.18882 0
M  V30 156 C 13.7358 -1.14786 1.15165 0
M  V30 157 O 14.9198 -1.21975 1.43716 0
M  V30 158 C 12.0468 -1.88088 2.81674 0
M  V30 159 C 11.0928 -1.51343 3.98745 0
M  V30 160 S 11.9258 -0.586548 5.32278 0
M  V30 161 C 13.0818 -1.83024 5.98543 0
M  V30 162 H 13.3148 -0.1033 2.9712 0
M  V30 163 H 10.8478 0.0652099 1.54262 0
M  V30 164 H 12.8058 -2.58997 3.18482 0
M  V30 165 H 11.4668 -2.39417 2.03318 0
M  V30 166 H 10.6598 -2.43289 4.41392 0
M  V30 167 H 10.2618 -0.884477 3.63391 0
M  V30 168 H 12.5538 -2.77342 6.18133 0
M  V30 169 H 13.4968 -1.44668 6.93164 0
M  V30 170 H 13.9048 -1.99785 5.27964 0
M  V30 171 N 13.3029 -1.57598 0.00835791 0
M  V30 172 C 14.2329 -2.1198 -0.979113 0
M  V30 173 C 15.2139 -1.03091 -1.35301 0
M  V30 174 O 16.3989 -1.30818 -1.43528 0
M  V30 175 C 13.5289 -2.62995 -2.26828 0
M  V30 176 C 12.4829 -3.76485 -2.03576 0
M  V30 177 C 11.8089 -4.13846 -3.38579 0
M  V30 178 C 13.1089 -5.0342 -1.39161 0
M  V30 179 H 14.8029 -2.94738 -0.526281 0
M  V30 180 H 12.3489 -1.41783 -0.251704 0
M  V30 181 H 14.3019 -2.99669 -2.96271 0
M  V30 182 H 13.0259 -1.7737 -2.7424 0
M  V30 183 H 11.6849 -3.40217 -1.36557 0
M  V30 184 H 11.3329 -3.25232 -3.83709 0
M  V30 185 H 11.0329 -4.90312 -3.23834 0
M  V30 186 H 12.5569 -4.53086 -4.09323 0
M  V30 187 H 13.9709 -5.37812 -1.98573 0
M  V30 188 H 12.3679 -5.84746 -1.34878 0
M  V30 189 H 13.4379 -4.83548 -0.361868 0
M  V30 190 N 14.781 0.264519 -1.55364 0
M  V30 191 C 16.006 1.01726 -1.80739 0
M  V30 192 C 16.431 1.78836 -0.583044 0
M  V30 193 O 15.789 1.75167 0.467566 0
M  V30 194 C 15.837 1.94482 -3.03659 0
M  V30 195 O 14.941 3.03386 -2.7934 0
M  V30 196 H 14.282 0.290395 -0.597132 0
M  V30 197 H 16.812 0.290854 -2.02522 0
M  V30 198 H 16.822 2.36278 -3.32621 0
M  V30 199 H 15.497 1.37772 -3.92418 0
M  V30 200 H 14.074 2.65844 -2.61498 0
M  V30 201 N 16.2591 1.48442 0.529413 0
M  V30 202 C 17.1891 1.65902 1.64313 0
M  V30 203 C 18.1701 0.507897 1.6234 0
M  V30 204 O 19.3551 0.740503 1.79528 0
M  V30 205 C 16.4851 1.69911 3.02898 0
M  V30 206 C 15.4391 2.8453 3.19729 0
M  V30 207 C 14.7651 2.73629 4.59381 0
M  V30 208 C 16.0651 4.25821 3.02447 0
M  V30 209 H 17.7591 2.5914 1.49955 0
M  V30 210 H 15.3051 1.24709 0.719982 0
M  V30 211 H 17.2581 1.80715 3.80684 0
M  V30 212 H 15.9821 0.732524 3.18279 0
M  V30 213 H 14.6411 2.73283 2.44361 0
M  V30 214 H 14.2891 1.74938 4.71599 0
M  V30 215 H 13.9891 3.50541 4.71588 0
M  V30 216 H 15.5131 2.86401 5.39265 0
M  V30 217 H 16.9271 4.37898 3.70024 0
M  V30 218 H 15.3241 5.03735 3.26146 0
M  V30 219 H 16.3941 4.42244 1.98867 0
M  V30 220 N 17.7372 -0.778329 1.37039 0
M  V30 221 C 18.9862 -1.53189 1.3121 0
M  V30 222 C 19.2992 -1.95328 -0.103095 0
M  V30 223 O 20.5052 -2.70012 -0.283826 0
M  V30 224 C 18.9612 -2.76591 2.30272 0
M  V30 225 C 18.5692 -2.41577 3.77286 0
M  V30 226 C 20.3132 -3.5455 2.33441 0
M  V30 227 C 18.2202 -3.61441 4.68096 0
M  V30 228 H 17.1502 -0.5751 0.487622 0
M  V30 229 H 19.8012 -0.853101 1.62464 0
M  V30 230 H 18.1832 -3.46326 1.92027 0
M  V30 231 H 19.3572 -1.79668 4.2433 0
M  V30 232 H 17.6722 -1.76806 3.76999 0
M  V30 233 H 20.2692 -4.43628 2.98493 0
M  V30 234 H 20.6122 -3.93936 1.34611 0
M  V30 235 H 21.1452 -2.91805 2.7036 0
M  V30 236 H 17.8842 -3.27142 5.6803 0
M  V30 237 H 17.4042 -4.22478 4.25761 0
M  V30 238 H 19.0832 -4.28335 4.8491 0
M  V30 239 N 19.2153 -1.21501 -1.00376 0
M  V30 240 C 20.4403 -1.05977 -1.78279 0
M  V30 241 C 20.8653 0.385994 -1.84097 0
M  V30 242 O 20.2233 1.27849 -1.28547 0
M  V30 243 C 20.2713 -1.66302 -3.19963 0
M  V30 244 O 19.3753 -0.909333 -4.0225 0
M  V30 245 H 18.7163 -0.372906 -0.549397 0
M  V30 246 H 21.2463 -1.6107 -1.26165 0
M  V30 247 H 21.2563 -1.70574 -3.70632 0
M  V30 248 H 19.9313 -2.71515 -3.15043 0
M  V30 249 H 18.5083 -0.941795 -3.60811 0
M  V30 250 N 20.6934 1.19889 -1.02296 0
M  V30 251 C 21.9184 1.9393 -0.735237 0
M  V30 252 C 22.3434 1.74639 0.698782 0
M  V30 253 O 21.7014 1.04481 1.48167 0
M  V30 254 C 21.7494 3.43916 -1.08417 0
M  V30 255 O 20.8534 4.11917 -0.199446 0
M  V30 256 H 20.1944 0.605645 -0.272196 0
M  V30 257 H 22.7244 1.52137 -1.36804 0
M  V30 258 H 22.7344 3.9456 -1.03856 0
M  V30 259 H 21.4094 3.5728 -2.12894 0
M  V30 260 H 19.9864 3.71666 -0.303136 0
M  V30 261 N 22.1715 0.800033 1.35784 0
M  V30 262 C 23.3995 0.389606 2.03199 0
M  V30 263 C 23.8145 -0.997375 1.60306 0
M  V30 264 O 23.1715 -1.64154 0.797481 0
M  V30 265 C 23.2225 0.455855 3.58614 0
M  V30 266 O 22.9435 1.78815 3.99946 0
M  V30 267 C 24.4445 0.0374032 4.43284 0
M  V30 268 H 21.6645 0.159132 0.651857 0
M  V30 269 H 24.2085 1.08183 1.73541 0
M  V30 270 H 22.3635 -0.188057 3.86943 0
M  V30 271 H 22.7775 1.74636 4.94573 0
M  V30 272 H 24.2515 0.134882 5.51835 0
M  V30 273 H 24.7285 -1.01651 4.27275 0
M  V30 274 H 25.3345 0.654215 4.20238 0
M  V30 275 N 23.6496 -1.47581 0.552962 0
M  V30 276 C 24.5796 -2.32762 -0.185451 0
M  V30 277 C 25.5606 -1.43527 -0.912905 0
M  V30 278 O 26.7456 -1.72388 -0.894201 0
M  V30 279 C 23.8756 -3.25219 -1.21859 0
M  V30 280 C 22.8296 -4.23661 -0.607864 0
M  V30 281 C 22.1556 -5.05413 -1.74533 0
M  V30 282 C 23.4556 -5.20481 0.435582 0
M  V30 283 H 25.1496 -2.94749 0.525684 0
M  V30 284 H 22.6956 -1.41738 0.254251 0
M  V30 285 H 24.6486 -3.8365 -1.7433 0
M  V30 286 H 23.3726 -2.61279 -1.95961 0
M  V30 287 H 22.0316 -3.66451 -0.104489 0
M  V30 288 H 21.6796 -4.3788 -2.47529 0
M  V30 289 H 21.3796 -5.72059 -1.34249 0
M  V30 290 H 22.9036 -5.66701 -2.27338 0
M  V30 291 H 24.3176 -5.733 -0.00290157 0
M  V30 292 H 22.7146 -5.95305 0.757067 0
M  V30 293 H 23.7846 -4.66217 1.33303 0
M  V30 294 N 25.1277 -0.289203 -1.54924 0
M  V30 295 C 26.3767 0.324231 -1.99077 0
M  V30 296 C 26.6897 1.5591 -1.18117 0
M  V30 297 O 27.8957 2.24637 -1.52481 0
M  V30 298 C 26.3517 0.628209 -3.54375 0
M  V30 299 C 25.9597 -0.587647 -4.44129 0
M  V30 300 C 27.7037 1.20349 -4.07083 0
M  V30 301 C 25.6107 -0.257475 -5.90839 0
M  V30 302 H 24.5407 0.124924 -0.743579 0
M  V30 303 H 27.1917 -0.396063 -1.79175 0
M  V30 304 H 25.5737 1.40778 -3.70132 0
M  V30 305 H 26.7477 -1.36418 -4.40144 0
M  V30 306 H 25.0627 -1.08074 -4.0213 0
M  V30 307 H 27.6597 1.46456 -5.14252 0
M  V30 308 H 28.0027 2.14195 -3.56968 0
M  V30 309 H 28.5357 0.485889 -3.94821 0
M  V30 310 H 25.2747 -1.16419 -6.45079 0
M  V30 311 H 24.7947 0.482018 -5.9786 0
M  V30 312 H 26.4737 0.145238 -6.46837 0
M  V30 313 N 26.6058 1.57591 -0.0167156 0
M  V30 314 C 27.5688 2.08393 0.954204 0
M  V30 315 C 28.5688 0.996531 1.26198 0
M  V30 316 O 29.7588 1.25858 1.20438 0
M  V30 317 C 26.8908 2.5394 2.27436 0
M  V30 318 H 28.0838 2.95455 0.514451 0
M  V30 319 H 25.6368 1.54582 0.231089 0
M  V30 320 H 26.3718 1.70171 2.76066 0
M  V30 321 H 26.1568 3.33371 2.06412 0
M  V30 322 H 27.6468 2.93512 2.97053 0
M  V30 323 N 28.0839 -0.256276 1.55502 0
M  V30 324 C 29.3239 -0.993081 1.78654 0
M  V30 325 C 29.6879 -1.8288 0.584724 0
M  V30 326 O 30.8889 -2.59665 0.694822 0
M  V30 327 C 29.1599 -1.83856 3.06483 0
M  V30 328 S 30.7189 -2.63573 3.5082 0
M  V30 329 H 27.5369 -0.334199 0.62756 0
M  V30 330 H 30.1389 -0.26184 1.93739 0
M  V30 331 H 28.8429 -1.21414 3.92029 0
M  V30 332 H 28.3739 -2.61271 2.94111 0
M  V30 333 H 30.3889 -3.86312 3.11412 0
M  V30 334 N 29.562 -1.4872 -0.521534 0
M  V30 335 C 30.81 -1.56857 -1.27437 0
M  V30 336 C 31.131 -0.247982 -1.93417 0
M  V30 337 O 30.401 0.731151 -1.81744 0
M  V30 338 H 28.981 -0.577885 -0.473347 0
M  V30 339 H 31.643 -1.85233 -0.606205 0
M  V30 340 H 30.739 -2.35402 -2.0492 0
M  V30 341 N 31.0401 0.771051 -1.3745 0
M  V30 342 C 32.2881 1.52661 -1.32435 0
M  V30 343 C 32.6091 1.9479 0.0905024 0
M  V30 344 O 31.8791 1.66348 1.03466 0
M  V30 345 H 30.4591 0.566218 -0.487244 0
M  V30 346 H 33.1211 0.917636 -1.71946 0
M  V30 347 H 32.2171 2.42568 -1.96385 0
M  V30 348 N 32.5182 1.22032 0.997298 0
M  V30 349 C 33.7662 1.04016 1.73278 0
M  V30 350 C 34.0872 -0.426255 1.90284 0
M  V30 351 O 33.3572 -1.30694 1.45931 0
M  V30 352 H 31.9372 0.381897 0.642 0
M  V30 353 H 34.5992 1.5347 1.20137 0
M  V30 354 H 33.6952 1.51441 2.72896 0
M  V30 355 N 33.9963 -1.19345 1.0293 0
M  V30 356 C 35.2443 -1.88665 0.724574 0
M  V30 357 C 35.5653 -1.80036 -0.749144 0
M  V30 358 O 34.8353 -1.2111 -1.53978 0
M  V30 359 H 33.4153 -0.698406 0.265025 0
M  V30 360 H 36.0773 -1.44885 1.30362 0
M  V30 361 H 35.1733 -2.94987 1.01926 0
M  V30 362 N 35.4744 -0.807222 -1.35358 0
M  V30 363 C 36.7224 -0.387122 -1.98358 0
M  V30 364 C 37.0434 1.04942 -1.64354 0
M  V30 365 O 36.3134 1.72615 -0.926339 0
M  V30 366 H 34.8934 -0.140154 -0.733734 0
M  V30 367 H 37.5554 -1.0332 -1.6526 0
M  V30 368 H 36.6514 -0.493352 -3.08176 0
M  V30 369 N 36.9525 1.47285 -0.560781 0
M  V30 370 C 38.2005 2.02064 -0.0379868 0
M  V30 371 C 38.5215 1.43711 1.31803 0
M  V30 372 O 37.7915 0.61362 1.86042 0
M  V30 373 H 36.3715 0.746918 -0.0110531 0
M  V30 374 H 39.0335 1.80648 -0.731598 0
M  V30 375 H 38.1295 3.12064 0.0474463 0
M  V30 376 N 38.4306 0.297415 1.54768 0
M  V30 377 C 39.6786 -0.312295 1.99673 0
M  V30 378 C 39.9996 -1.54686 1.18732 0
M  V30 379 O 39.2696 -1.93854 0.282382 0
M  V30 380 H 37.8496 -0.118381 0.73756 0
M  V30 381 H 40.5116 0.407915 1.90583 0
M  V30 382 H 39.6076 -0.586813 3.06534 0
M  V30 383 N 39.9087 -1.5758 0.0250728 0
M  V30 384 C 41.1337 -1.96337 -0.668317 0
M  V30 385 C 41.5587 -0.901314 -1.651 0
M  V30 386 O 40.9167 0.138187 -1.80773 0
M  V30 387 C 40.9647 -3.34191 -1.35457 0
M  V30 388 O 40.0687 -3.30269 -2.46974 0
M  V30 389 H 39.4097 -0.640281 -0.175887 0
M  V30 390 H 41.9397 -2.0442 0.0857224 0
M  V30 391 H 41.9497 -3.70331 -1.71228 0
M  V30 392 H 40.6247 -4.11036 -0.634218 0
M  V30 393 H 39.2017 -3.05841 -2.13344 0
M  V30 394 N 41.3868 0.248026 -1.55636 0
M  V30 395 C 42.6148 0.993808 -1.81469 0
M  V30 396 C 43.0298 1.78991 -0.60064 0
M  V30 397 O 42.3868 1.77345 0.430682 0
M  V30 398 C 42.4378 1.93258 -3.05506 0
M  V30 399 O 42.1588 1.16869 -4.22224 0
M  V30 400 C 43.6598 2.79444 -3.4413 0
M  V30 401 H 40.8798 0.292486 -0.603898 0
M  V30 402 H 43.4238 0.271253 -2.02693 0
M  V30 403 H 41.5788 2.60943 -2.86335 0
M  V30 404 H 41.9928 1.80359 -4.92515 0
M  V30 405 H 43.4668 3.41066 -4.34026 0
M  V30 406 H 43.9438 3.50499 -2.64665 0
M  V30 407 H 44.5498 2.17214 -3.65648 0
M  V30 408 N 42.8649 1.48995 0.513639 0
M  V30 409 C 44.2759 1.5119 1.09537 0
M  V30 410 C 44.6269 0.290906 1.94031 0
M  V30 411 O 43.7519 -0.60049 2.07902 0
M  V30 412 C 44.3469 2.73964 1.99322 0
M  V30 413 C 42.9059 2.78978 2.52682 0
M  V30 414 C 42.0529 2.44934 1.30009 0
M  V30 415 H 45.0039 1.55875 0.298125 0
M  V30 416 H 45.0249 2.53409 2.83838 0
M  V30 417 H 44.5369 3.62813 1.37799 0
M  V30 418 H 42.6379 1.94378 3.1788 0
M  V30 419 H 42.7509 3.8083 2.90698 0
M  V30 420 H 41.1149 1.9644 1.62122 0
M  V30 421 H 41.8979 3.36043 0.702131 0
M  V30 422 N 44.343 -0.763751 1.37857 0
M  V30 423 C 45.571 -1.55293 1.36718 0
M  V30 424 C 45.986 -1.88745 -0.0455434 0
M  V30 425 O 45.343 -1.52039 -1.00947 0
M  V30 426 C 45.394 -2.85831 2.2132 0
M  V30 427 O 45.115 -2.5381 3.57089 0
M  V30 428 C 46.616 -3.80023 2.28249 0
M  V30 429 H 43.836 -0.480841 0.468009 0
M  V30 430 H 46.38 -0.946009 1.81303 0
M  V30 431 H 44.535 -3.42926 1.80223 0
M  V30 432 H 44.949 -3.37459 4.01524 0
M  V30 433 H 46.423 -4.68599 2.91752 0
M  V30 434 H 46.9 -4.1973 1.2932 0
M  V30 435 H 47.506 -3.28855 2.69693 0
M  V30 436 N 45.8211 -1.22559 -0.990812 0
M  V30 437 C 47.0491 -1.07779 -1.76611 0
M  V30 438 C 47.4641 0.371513 -1.85109 0
M  V30 439 O 46.8211 1.25737 -1.32274 0
M  V30 440 C 46.8721 -1.68512 -3.19822 0
M  V30 441 O 46.5931 -3.07774 -3.1178 0
M  V30 442 C 48.0941 -1.59035 -4.13791 0
M  V30 443 H 45.3141 -0.377729 -0.554583 0
M  V30 444 H 47.8581 -1.62195 -1.24551 0
M  V30 445 H 46.0131 -1.18154 -3.68942 0
M  V30 446 H 46.4271 -3.37062 -4.01858 0
M  V30 447 H 47.9011 -2.0625 -5.1202 0
M  V30 448 H 48.3781 -0.547273 -4.35777 0
M  V30 449 H 48.9841 -2.08709 -3.70568 0
M  V30 450 N 47.2992 1.18797 -1.03562 0
M  V30 451 C 48.5242 1.9314 -0.755764 0
M  V30 452 C 48.9492 1.7537 0.68022 0
M  V30 453 O 48.3072 1.06046 1.47051 0
M  V30 454 C 48.3552 3.42747 -1.12058 0
M  V30 455 O 47.4592 4.11683 -0.243124 0
M  V30 456 H 46.8002 0.602724 -0.278604 0
M  V30 457 H 49.3302 1.50678 -1.3841 0
M  V30 458 H 49.3402 3.93437 -1.08035 0
M  V30 459 H 48.0152 3.55002 -2.16672 0
M  V30 460 H 46.5922 3.71323 -0.342539 0
M  V30 461 N 48.7773 0.814389 1.34928 0
M  V30 462 C 50.0023 0.410097 2.03305 0
M  V30 463 C 50.4273 -0.973464 1.60951 0
M  V30 464 O 49.7853 -1.63185 0.789964 0
M  V30 465 C 49.8333 0.51049 3.56968 0
M  V30 466 O 48.9373 -0.473035 4.09678 0
M  V30 467 H 48.2783 0.170088 0.641846 0
M  V30 468 H 50.8083 1.10244 1.72358 0
M  V30 469 H 50.8183 0.383135 4.06197 0
M  V30 470 H 49.4933 1.51963 3.87144 0
M  V30 471 H 48.0703 -0.305272 3.71648 0
M  V30 472 N 50.2554 -1.46986 0.568584 0
M  V30 473 C 51.4804 -2.07335 0.0520528 0
M  V30 474 C 51.9054 -1.41675 -1.23733 0
M  V30 475 O 51.2634 -0.495623 -1.74394 0
M  V30 476 C 51.3114 -3.60417 -0.11501 0
M  V30 477 O 50.4154 -3.95309 -1.17492 0
M  V30 478 H 49.7564 -0.661597 0.0564385 0
M  V30 479 H 52.2864 -1.88837 0.787507 0
M  V30 480 H 52.2964 -4.06698 -0.325644 0
M  V30 481 H 50.9714 -4.07601 0.826675 0
M  V30 482 H 49.5484 -3.60757 -0.943869 0
M  V30 483 N 51.7335 -0.305618 -1.54608 0
M  V30 484 C 53.1445 0.186098 -1.8577 0
M  V30 485 C 53.4955 1.53058 -1.22751 0
M  V30 486 O 52.6205 2.09888 -0.526893 0
M  V30 487 C 53.2155 0.344449 -3.37044 0
M  V30 488 C 51.7745 0.780384 -3.68221 0
M  V30 489 C 50.9215 -0.108554 -2.77087 0
M  V30 490 H 53.8725 -0.526485 -1.49712 0
M  V30 491 H 53.8935 1.17828 -3.61796 0
M  V30 492 H 53.4055 -0.634235 -3.82883 0
M  V30 493 H 51.5065 1.76945 -3.27904 0
M  V30 494 H 51.6195 0.596572 -4.75371 0
M  V30 495 H 49.9835 0.412931 -2.5133 0
M  V30 496 H 50.7665 -1.08368 -3.25747 0
M  V30 497 N 53.2116 1.57565 -0.0334293 0
M  V30 498 C 54.1436 2.0739 0.975811 0
M  V30 499 C 55.1566 0.998166 1.2861 0
M  V30 500 O 56.3456 1.27426 1.25 0
M  V30 501 C 53.4456 2.4871 2.30209 0
M  V30 502 C 52.6186 3.79413 2.17634 0
M  V30 503 C 51.6776 4.07237 3.33233 0
M  V30 504 O 50.7036 4.77425 3.09927 0
M  V30 505 N 51.9056 3.5775 4.5716 0
M  V30 506 H 54.6706 2.94598 0.55066 0
M  V30 507 H 52.2316 1.61173 0.15323 0
M  V30 508 H 54.2236 2.64413 3.06378 0
M  V30 509 H 52.7936 1.66845 2.64351 0
M  V30 510 H 52.0136 3.73465 1.26165 0
M  V30 511 H 53.3016 4.65038 2.0644 0
M  V30 512 H 52.6996 3.00976 4.78989 0
M  V30 513 H 51.2566 3.78724 5.30482 0
M  V30 514 N 54.6897 -0.239769 1.55765 0
M  V30 515 C 55.9147 -0.988373 1.82335 0
M  V30 516 C 56.3397 -1.77886 0.611421 0
M  V30 517 O 55.6977 -1.75889 -0.439639 0
M  V30 518 C 55.7457 -1.89627 3.06715 0
M  V30 519 O 54.8497 -2.98904 2.84131 0
M  V30 520 H 54.1907 -0.280858 0.601677 0
M  V30 521 H 56.7207 -0.258597 2.02959 0
M  V30 522 H 56.7307 -2.30957 3.36338 0
M  V30 523 H 55.4057 -1.31511 3.9456 0
M  V30 524 H 53.9827 -2.61651 2.65694 0
M  V30 525 N 56.1678 -1.49265 -0.50573 0
M  V30 526 C 57.3928 -1.62478 -1.28902 0
M  V30 527 C 57.8178 -0.294332 -1.85783 0
M  V30 528 O 57.1758 0.737412 -1.65626 0
M  V30 529 C 57.2238 -2.69268 -2.39848 0
M  V30 530 O 56.3278 -2.28113 -3.43567 0
M  V30 531 H 55.6688 -0.54399 -0.380751 0
M  V30 532 H 58.1988 -1.95421 -0.605952 0
M  V30 533 H 58.2088 -2.91291 -2.85681 0
M  V30 534 H 56.8838 -3.65846 -1.97812 0
M  V30 535 H 55.4608 -2.16401 -3.03685 0
M  V30 536 N 57.6459 0.756429 -1.3826 0
M  V30 537 C 58.8709 1.55077 -1.37717 0
M  V30 538 C 59.2959 1.88073 0.03164 0
M  V30 539 O 58.6539 1.50364 1.01293 0
M  V30 540 C 58.7019 2.8283 -2.23695 0
M  V30 541 O 57.8059 3.77862 -1.6521 0
M  V30 542 H 57.1469 0.469152 -0.469885 0
M  V30 543 H 59.6769 0.935019 -1.81985 0
M  V30 544 H 59.6869 3.31783 -2.37453 0
M  V30 545 H 58.3619 2.58144 -3.2609 0
M  V30 546 H 56.9389 3.36555 -1.60578 0
M  V30 547 N 59.124 1.23083 0.984299 0
M  V30 548 C 60.535 1.05609 1.5396 0
M  V30 549 C 60.886 -0.377793 1.92528 0
M  V30 550 O 60.011 -1.26398 1.75649 0
M  V30 551 C 60.606 1.91087 2.7977 0
M  V30 552 C 59.165 1.77885 3.31713 0
M  V30 553 C 58.312 1.87028 2.04733 0
M  V30 554 H 61.263 1.36802 0.804419 0
M  V30 555 H 61.284 1.43336 3.5247 0
M  V30 556 H 60.796 2.9544 2.51668 0
M  V30 557 H 58.897 0.762995 3.64704 0
M  V30 558 H 59.01 2.61047 4.01735 0
M  V30 559 H 57.374 1.30565 2.18689 0
M  V30 560 H 58.157 2.92929 1.79017 0
M  V30 561 N 60.6021 -1.18246 1.0419 0
M  V30 562 C 61.5651 -2.20128 0.638452 0
M  V30 563 C 62.5651 -1.57885 -0.304805 0
M  V30 564 O 63.7551 -1.73967 -0.0900369 0
M  V30 565 C 60.8871 -3.4084 -0.0637751 0
M  V30 566 H 62.0801 -2.57336 1.54007 0
M  V30 567 H 59.6331 -1.32152 0.834598 0
M  V30 568 H 60.3681 -3.09166 -0.979136 0
M  V30 569 H 60.1531 -3.8726 0.614198 0
M  V30 570 H 61.6431 -4.16274 -0.332512 0
M  V30 571 N 62.0802 -0.821533 -1.34494 0
M  V30 572 C 63.3052 -0.420873 -2.03085 0
M  V30 573 C 63.7302 0.964915 -1.61465 0
M  V30 574 O 63.0882 1.62763 -0.798607 0
M  V30 575 C 63.1362 -0.529414 -3.56693 0
M  V30 576 O 62.2402 0.451302 -4.09923 0
M  V30 577 H 61.5812 -0.173489 -0.640935 0
M  V30 578 H 64.1112 -1.11157 -1.71771 0
M  V30 579 H 64.1212 -0.404671 -4.05988 0
M  V30 580 H 62.7962 -1.54014 -3.86332 0
M  V30 581 H 61.3732 0.285558 -3.71805 0
M  V30 582 N 63.5583 1.46682 -0.576371 0
M  V30 583 C 64.7863 2.06798 -0.0649635 0
M  V30 584 C 65.2013 1.42612 1.23723 0
M  V30 585 O 64.5583 0.529203 1.74659 0
M  V30 586 C 64.6093 3.6132 0.114202 0
M  V30 587 O 64.3303 4.23104 -1.13644 0
M  V30 588 C 65.8313 4.38349 0.66069 0
M  V30 589 H 63.0513 0.668778 -0.0545616 0
M  V30 590 H 65.5953 1.88404 -0.795237 0
M  V30 591 H 63.7503 3.79162 0.794673 0
M  V30 592 H 64.1643 5.15894 -0.946253 0
M  V30 593 H 65.6383 5.47081 0.73526 0
M  V30 594 H 66.1153 4.05953 1.67627 0
M  V30 595 H 66.7213 4.25297 0.0152951 0
M  V30 596 N 65.0364 0.313813 1.54444 0
M  V30 597 C 66.4474 -0.176243 1.85866 0
M  V30 598 C 66.7984 -1.52405 1.23561 0
M  V30 599 O 65.9234 -2.09605 0.538016 0
M  V30 600 C 66.5184 -0.32657 3.37222 0
M  V30 601 C 65.0774 -0.760846 3.6863 0
M  V30 602 C 64.2244 0.123247 2.77026 0
M  V30 603 H 67.1754 0.534418 1.49431 0
M  V30 604 H 67.1964 -1.15908 3.62416 0
M  V30 605 H 66.7084 0.654531 3.82541 0
M  V30 606 H 64.8094 -1.75204 3.28838 0
M  V30 607 H 64.9224 -0.571353 4.75681 0
M  V30 608 H 63.2864 -0.399597 2.51546 0
M  V30 609 H 64.0694 1.10094 3.25168 0
M  V30 610 N 66.5145 -1.57545 0.0417849 0
M  V30 611 C 67.7395 -1.97035 -0.647455 0
M  V30 612 C 68.1645 -0.918775 -1.64135 0
M  V30 613 O 67.5225 0.119006 -1.80909 0
M  V30 614 C 67.5705 -3.35609 -1.31905 0
M  V30 615 O 66.6745 -3.3287 -2.43457 0
M  V30 616 H 66.0155 -0.64211 -0.169086 0
M  V30 617 H 68.5455 -2.04318 0.107399 0
M  V30 618 H 68.5555 -3.72126 -1.67291 0
M  V30 619 H 67.2305 -4.11685 -0.590586 0
M  V30 620 H 65.8075 -3.08087 -2.10088 0
M  V30 621 N 67.9926 0.231505 -1.5589 0
M  V30 622 C 69.2176 0.978689 -1.82856 0
M  V30 623 C 69.6426 1.77559 -0.620846 0
M  V30 624 O 69.0006 1.76119 0.430305 0
M  V30 625 C 69.0486 1.87997 -3.07716 0
M  V30 626 O 68.1526 2.97393 -2.85712 0
M  V30 627 H 67.4936 0.277663 -0.603158 0
M  V30 628 H 70.0236 0.24783 -2.03093 0
M  V30 629 H 70.0336 2.2917 -3.37558 0
M  V30 630 H 68.7086 1.29417 -3.95252 0
M  V30 631 H 67.2856 2.60238 -2.67078 0
M  V30 632 N 69.4707 1.49531 0.497807 0
M  V30 633 C 70.4337 1.65916 1.58128 0
M  V30 634 C 71.4337 0.530825 1.51786 0
M  V30 635 O 72.6237 0.797342 1.54881 0
M  V30 636 C 69.7557 1.65951 2.9778 0
M  V30 637 H 70.9487 2.62556 1.44929 0
M  V30 638 H 68.5017 1.38611 0.722275 0
M  V30 639 H 69.2367 0.709065 3.16453 0
M  V30 640 H 69.0217 2.47897 3.03792 0
M  V30 641 H 70.5117 1.80673 3.76493 0
M  V30 642 N 70.9488 -0.749086 1.3866 0
M  V30 643 C 72.1738 -1.54344 1.38538 0
M  V30 644 C 72.5988 -1.88088 -0.0216655 0
M  V30 645 O 71.9568 -1.50899 -1.00494 0
M  V30 646 C 72.0048 -2.8164 2.25192 0
M  V30 647 O 71.1088 -3.7698 1.67212 0
M  V30 648 H 70.4498 -0.466654 0.472367 0
M  V30 649 H 72.9798 -0.925355 1.82478 0
M  V30 650 H 72.9898 -3.30519 2.3921 0
M  V30 651 H 71.6648 -2.56411 3.27454 0
M  V30 652 H 70.2418 -3.35699 1.6236 0
M  V30 653 N 72.4269 -1.23603 -0.977757 0
M  V30 654 C 73.6519 -1.09735 -1.75991 0
M  V30 655 C 74.0769 0.346858 -1.84874 0
M  V30 656 O 73.4349 1.25093 -1.3123 0
M  V30 657 C 73.4829 -1.73051 -3.16363 0
M  V30 658 O 72.5869 -0.994452 -4.0023 0
M  V30 659 H 71.9279 -0.384476 -0.541364 0
M  V30 660 H 74.4579 -1.6371 -1.2272 0
M  V30 661 H 74.4679 -1.78398 -3.66931 0
M  V30 662 H 73.1429 -2.78137 -3.09213 0
M  V30 663 H 71.7199 -1.01812 -3.58732 0
M  V30 664 N 73.905 1.17692 -1.04816 0
M  V30 665 C 75.13 1.92327 -0.776207 0
M  V30 666 C 75.555 1.76082 0.661581 0
M  V30 667 O 74.913 1.076 1.45917 0
M  V30 668 C 74.961 3.41539 -1.15687 0
M  V30 669 O 74.065 4.11402 -0.286775 0
M  V30 670 H 73.406 0.599735 -0.284981 0
M  V30 671 H 75.936 1.49201 -1.4 0
M  V30 672 H 75.946 3.92269 -1.12202 0
M  V30 673 H 74.621 3.52684 -2.20425 0
M  V30 674 H 73.198 3.70939 -0.381903 0
M  V30 675 N 75.3831 0.828654 1.34056 0
M  V30 676 C 76.6081 0.431637 2.02859 0
M  V30 677 C 77.0331 -0.956339 1.61975 0
M  V30 678 O 76.3911 -1.62338 0.807228 0
M  V30 679 C 76.4391 0.548323 3.56407 0
M  V30 680 O 75.5431 -0.429556 4.10157 0
M  V30 681 H 74.8841 0.176886 0.640006 0
M  V30 682 H 77.4141 1.12066 1.71179 0
M  V30 683 H 77.4241 0.426196 4.05768 0
M  V30 684 H 76.0991 1.5606 3.8551 0
M  V30 685 H 74.6761 -0.265836 3.71951 0
M  V30 686 N 76.8612 -1.46375 0.584142 0
M  V30 687 C 78.1102 -2.01585 0.0679741 0
M  V30 688 C 78.4232 -1.46109 -1.30045 0
M  V30 689 O 79.6292 -1.93148 -1.90804 0
M  V30 690 C 78.0852 -3.5983 0.0709207 0
M  V30 691 C 77.6932 -4.24303 1.43775 0
M  V30 692 C 79.4372 -4.22693 -0.391228 0
M  V30 693 C 77.3442 -5.74631 1.39834 0
M  V30 694 H 76.2742 -0.753689 0.0216421 0
M  V30 695 H 78.9252 -1.68093 0.736001 0
M  V30 696 H 77.3072 -3.90405 -0.663299 0
M  V30 697 H 78.4812 -4.05335 2.19181 0
M  V30 698 H 76.7962 -3.73539 1.84004 0
M  V30 699 H 79.3932 -5.3289 -0.439524 0
M  V30 700 H 79.7362 -3.91728 -1.40906 0
M  V30 701 H 80.2692 -3.96749 0.288974 0
M  V30 702 H 77.0082 -6.10258 2.39303 0
M  V30 703 H 76.5282 -5.95858 0.686505 0
M  V30 704 H 78.2072 -6.37375 1.11187 0
M  V30 705 N 78.3393 -0.321999 -1.54275 0
M  V30 706 C 79.5883 0.281931 -1.9972 0
M  V30 707 C 79.9013 1.53369 -1.21397 0
M  V30 708 O 81.1073 2.21352 -1.57211 0
M  V30 709 C 79.5633 0.5529 -3.55628 0
M  V30 710 C 79.1713 -0.681721 -4.42783 0
M  V30 711 C 80.9153 1.11687 -4.09544 0
M  V30 712 C 78.8223 -0.382742 -5.9016 0
M  V30 713 H 77.7523 0.109124 -0.746062 0
M  V30 714 H 80.4033 -0.43398 -1.78294 0
M  V30 715 H 78.7853 1.32896 -3.73035 0
M  V30 716 H 79.9593 -1.45723 -4.37151 0
M  V30 717 H 78.2743 -1.1658 -3.99748 0
M  V30 718 H 80.8713 1.35515 -5.17242 0
M  V30 719 H 81.2143 2.06575 -3.61431 0
M  V30 720 H 81.7473 0.402032 -3.95763 0
M  V30 721 H 78.4863 -1.30076 -6.42464 0
M  V30 722 H 78.0063 0.355094 -5.98748 0
M  V30 723 H 79.6853 0.00800157 -6.47 0
M  V30 724 N 79.8174 1.5752 -0.0501392 0
M  V30 725 C 81.0424 1.97376 0.636997 0
M  V30 726 C 81.4674 0.927466 1.63645 0
M  V30 727 O 80.8254 -0.10941 1.8097 0
M  V30 728 C 80.8734 3.36304 1.30123 0
M  V30 729 O 79.9774 3.34156 2.41689 0
M  V30 730 H 79.3184 0.642998 0.165679 0
M  V30 731 H 81.8484 2.04258 -0.118233 0
M  V30 732 H 81.8584 3.73008 1.65315 0
M  V30 733 H 80.5334 4.11993 0.568746 0
M  V30 734 H 79.1104 3.09196 2.08451 0
M  V30 735 N 81.2955 -0.223234 1.56011 0
M  V30 736 C 82.5205 -0.968978 1.83373 0
M  V30 737 C 82.9455 -1.77227 0.630254 0
M  V30 738 O 82.3035 -1.76345 -0.420959 0
M  V30 739 C 82.3515 -1.86363 3.08709 0
M  V30 740 O 81.4555 -2.95873 2.87285 0
M  V30 741 H 80.7965 -0.274461 0.604622 0
M  V30 742 H 83.3265 -0.237056 2.03222 0
M  V30 743 H 83.3365 -2.27376 3.38768 0
M  V30 744 H 82.0115 -1.27319 3.95933 0
M  V30 745 H 80.5885 -2.58818 2.68454 0
M  V30 746 N 82.7736 -1.49793 -0.48987 0
M  V30 747 C 83.9986 -1.63836 -1.27172 0
M  V30 748 C 84.4236 -0.31402 -1.8546 0
M  V30 749 O 83.7816 0.719803 -1.66399 0
M  V30 750 C 83.8296 -2.71797 -2.36978 0
M  V30 751 O 82.9336 -2.31744 -3.41128 0
M  V30 752 H 82.2746 -0.547997 -0.37496 0
M  V30 753 H 84.8046 -1.96053 -0.585191 0
M  V30 754 H 84.8146 -2.94305 -2.82575 0
M  V30 755 H 83.4896 -3.67923 -1.93921 0
M  V30 756 H 82.0666 -2.1961 -3.01373 0
M  V30 757 N 84.2517 0.741722 -1.39055 0
M  V30 758 C 85.4767 1.53607 -1.39354 0
M  V30 759 C 85.9017 1.88096 0.0116905 0
M  V30 760 O 85.2597 1.5143 0.996924 0
M  V30 761 C 85.3077 2.80441 -2.26682 0
M  V30 762 O 84.4117 3.76088 -1.69208 0
M  V30 763 H 83.7527 0.464142 -0.474835 0
M  V30 764 H 86.2827 0.915665 -1.82967 0
M  V30 765 H 86.2927 3.29246 -2.40959 0
M  V30 766 H 84.9677 2.5467 -3.2881 0
M  V30 767 H 83.5447 3.34833 -1.64138 0
M  V30 768 N 85.7298 1.2412 0.971189 0
M  V30 769 C 86.6598 1.05508 2.08304 0
M  V30 770 C 87.6408 -0.0308864 1.70072 0
M  V30 771 O 88.8258 0.135521 1.93727 0
M  V30 772 C 85.9558 0.655365 3.4106 0
M  V30 773 C 84.9098 1.68971 3.93234 0
M  V30 774 C 84.2358 1.14516 5.22293 0
M  V30 775 C 85.5358 3.08487 4.21465 0
M  V30 776 H 87.2298 1.98507 2.24132 0
M  V30 777 H 84.7758 0.955821 1.07704 0
M  V30 778 H 86.7288 0.51217 4.18276 0
M  V30 779 H 85.4528 -0.31032 3.25122 0
M  V30 780 H 84.1118 1.82106 3.18171 0
M  V30 781 H 83.7598 0.170189 5.02712 0
M  V30 782 H 83.4598 1.83635 5.58168 0
M  V30 783 H 84.9838 1.01401 6.02121 0
M  V30 784 H 86.3978 2.98601 4.89398 0
M  V30 785 H 84.7948 3.74926 4.68562 0
M  V30 786 H 85.8648 3.56787 3.28376 0
M  V30 787 N 87.2079 -1.17134 1.05439 0
M  V30 788 C 88.4329 -1.91913 0.786396 0
M  V30 789 C 88.8579 -1.7643 -0.652234 0
M  V30 790 O 88.2159 -1.08372 -1.45345 0
M  V30 791 C 88.2639 -3.40921 1.17497 0
M  V30 792 O 87.3679 -4.11244 0.308589 0
M  V30 793 H 86.7089 -0.598215 0.288158 0
M  V30 794 H 89.2389 -1.48457 1.4079 0
M  V30 795 H 89.2489 -3.91668 1.14281 0
M  V30 796 H 87.9239 -3.5151 2.22292 0
M  V30 797 H 86.5009 -3.70731 0.40157 0
M  V30 798 N 88.686 -0.835752 -1.33615 0
M  V30 799 C 89.911 -0.442389 -2.02627 0
M  V30 800 C 90.336 0.947735 -1.62479 0
M  V30 801 O 89.694 1.61907 -0.815826 0
M  V30 802 C 89.742 -0.567216 -3.56111 0
M  V30 803 O 88.846 0.407799 -4.10379 0
M  V30 804 H 88.187 -0.180278 -0.639059 0
M  V30 805 H 90.717 -1.12972 -1.70583 0
M  V30 806 H 90.727 -0.447708 -4.05536 0
M  V30 807 H 89.402 -1.58103 -3.84677 0
M  V30 808 H 87.979 0.246107 -3.72087 0
M  V30 809 N 90.1641 1.46063 -0.591896 0
M  V30 810 C 91.3891 2.07226 -0.0850314 0
M  V30 811 C 91.8141 1.43625 1.21463 0
M  V30 812 O 91.1721 0.523305 1.73583 0
M  V30 813 C 91.2201 3.60554 0.0576567 0
M  V30 814 O 90.3241 3.97128 1.11188 0
M  V30 815 H 89.6651 0.660615 -0.0669568 0
M  V30 816 H 92.1951 1.8756 -0.81745 0
M  V30 817 H 92.2051 4.07165 0.2609 0
M  V30 818 H 90.8801 4.06235 -0.891416 0
M  V30 819 H 89.4571 3.62213 0.886356 0
M  V30 820 N 91.6422 0.330177 1.54103 0
M  V30 821 C 92.5722 -0.525353 2.27513 0
M  V30 822 C 93.5532 -1.11383 1.2856 0
M  V30 823 O 94.7382 -1.13773 1.57383 0
M  V30 824 C 91.8682 -1.6831 3.03791 0
M  V30 825 C 90.8222 -1.2236 4.10137 0
M  V30 826 C 90.1482 -2.46882 4.74293 0
M  V30 827 C 91.4482 -0.333697 5.21233 0
M  V30 828 H 93.1422 0.087013 2.99274 0
M  V30 829 H 90.6882 0.0432893 1.43935 0
M  V30 830 H 92.6412 -2.28795 3.5388 0
M  V30 831 H 91.3652 -2.32216 2.29659 0
M  V30 832 H 90.0242 -0.64165 3.60941 0
M  V30 833 H 89.6722 -3.09165 3.96769 0
M  V30 834 H 89.3722 -2.16825 5.46133 0
M  V30 835 H 90.8962 -3.08117 5.27159 0
M  V30 836 H 92.3102 -0.845013 5.67038 0
M  V30 837 H 90.7072 -0.125612 5.99969 0
M  V30 838 H 91.7772 0.633724 4.80741 0
M  V30 839 N 93.1203 -1.57491 0.0584922 0
M  V30 840 C 94.3453 -1.97711 -0.62652 0
M  V30 841 C 94.7703 -0.936132 -1.63151 0
M  V30 842 O 94.1283 0.099811 -1.81025 0
M  V30 843 C 94.1763 -3.36989 -1.28338 0
M  V30 844 O 93.2803 -3.35433 -2.39913 0
M  V30 845 H 92.6213 -0.643868 -0.162266 0
M  V30 846 H 95.1513 -2.04193 0.129064 0
M  V30 847 H 95.1613 -3.73879 -1.63335 0
M  V30 848 H 93.8363 -4.12289 -0.546889 0
M  V30 849 H 92.4133 -3.10298 -2.06809 0
M  V30 850 N 94.5984 0.214957 -1.56127 0
M  V30 851 C 95.8234 0.95924 -1.83884 0
M  V30 852 C 96.2484 1.7689 -0.639644 0
M  V30 853 O 95.6064 1.76566 0.411601 0
M  V30 854 C 95.6544 1.84723 -3.09693 0
M  V30 855 O 94.7584 2.94346 -2.8885 0
M  V30 856 H 94.0994 0.27125 -0.606069 0
M  V30 857 H 96.6294 0.226276 -2.03345 0
M  V30 858 H 96.6394 2.25576 -3.39969 0
M  V30 859 H 95.3144 1.25218 -3.96602 0
M  V30 860 H 93.8914 2.57391 -2.69823 0
M  V30 861 N 96.0765 1.50051 0.48192 0
M  V30 862 C 97.3015 1.64508 1.26301 0
M  V30 863 C 97.7265 0.323851 1.85291 0
M  V30 864 O 97.0845 -0.710969 1.66778 0
M  V30 865 C 97.1325 2.7305 2.35533 0
M  V30 866 O 96.2365 2.3355 3.39895 0
M  V30 867 H 95.5775 0.549978 0.372048 0
M  V30 868 H 98.1075 1.9636 0.574786 0
M  V30 869 H 98.1175 2.95799 2.8101 0
M  V30 870 H 96.7925 3.68946 1.91967 0
M  V30 871 H 95.3695 2.21205 3.00204 0
M  V30 872 N 97.5546 -0.734337 1.39446 0
M  V30 873 C 98.7796 -1.52866 1.40167 0
M  V30 874 C 99.2046 -1.881 -0.00171513 0
M  V30 875 O 98.5626 -1.51957 -0.988879 0
M  V30 876 C 98.6106 -2.79235 2.28167 0
M  V30 877 O 97.7146 -3.75185 1.71201 0
M  V30 878 H 97.0556 -0.461618 0.477289 0
M  V30 879 H 99.5856 -0.905949 1.8345 0
M  V30 880 H 99.5956 -3.27963 2.42702 0
M  V30 881 H 98.2706 -2.52923 3.30156 0
M  V30 882 H 96.8476 -3.33958 1.65912 0
M  V30 883 N 99.0327 -1.24633 -0.964593 0
M  V30 884 C 99.9627 -1.06611 -2.07741 0
M  V30 885 C 100.944 0.0218666 -1.70086 0
M  V30 886 O 102.129 -0.145793 -1.93652 0
M  V30 887 C 99.2587 -0.673444 -3.40708 0
M  V30 888 C 98.2127 -1.71054 -3.92332 0
M  V30 889 C 97.5387 -1.17285 -5.21678 0
M  V30 890 C 98.8387 -3.10718 -4.19824 0
M  V30 891 H 100.533 -1.99693 -2.23076 0
M  V30 892 H 98.0787 -0.96152 -1.07195 0
M  V30 893 H 100.032 -0.534345 -4.17998 0
M  V30 894 H 98.7557 0.293073 -3.25282 0
M  V30 895 H 97.4147 -1.83791 -3.17201 0
M  V30 896 H 97.0627 -0.196847 -5.02615 0
M  V30 897 H 96.7627 -1.86592 -5.57187 0
M  V30 898 H 98.2867 -1.04593 -6.01575 0
M  V30 899 H 99.7007 -3.01192 -4.87808 0
M  V30 900 H 98.0977 -3.77406 -4.66567 0
M  V30 901 H 99.1677 -3.58524 -3.26479 0
M  V30 902 N 100.511 1.16574 -1.06058 0
M  V30 903 C 101.736 1.91493 -0.796562 0
M  V30 904 C 102.161 1.76773 0.642868 0
M  V30 905 O 101.519 1.09142 1.44768 0
M  V30 906 C 101.567 3.40293 -1.19303 0
M  V30 907 O 100.671 4.11074 -0.330394 0
M  V30 908 H 100.012 0.596678 -0.291326 0
M  V30 909 H 102.542 1.47708 -1.41575 0
M  V30 910 H 102.552 3.91057 -1.16356 0
M  V30 911 H 101.227 3.50326 -2.24153 0
M  V30 912 H 99.8038 3.70513 -0.421225 0
M  V30 913 N 101.989 0.842826 1.3317 0
M  V30 914 C 103.214 0.453129 2.02389 0
M  V30 915 C 103.639 -0.939105 1.6298 0
M  V30 916 O 102.997 -1.61472 0.8244 0
M  V30 917 C 103.045 0.586094 3.55805 0
M  V30 918 O 102.149 -0.386029 4.10589 0
M  V30 919 H 101.49 0.183664 0.638094 0
M  V30 920 H 104.02 1.13875 1.69981 0
M  V30 921 H 104.03 0.469209 4.05293 0
M  V30 922 H 102.705 1.6014 3.83833 0
M  V30 923 H 101.282 -0.226371 3.72212 0
M  V30 924 N 103.467 -1.45747 0.599634 0
M  V30 925 C 104.692 -2.07178 0.0960198 0
M  V30 926 C 105.117 -1.44268 -1.207 0
M  V30 927 O 104.475 -0.532503 -1.73303 0
M  V30 928 C 104.523 -3.60579 -0.0385348 0
M  V30 929 O 103.627 -3.97713 -1.0908 0
M  V30 930 H 102.968 -0.660251 0.0704593 0
M  V30 931 H 105.498 -1.87124 0.827385 0
M  V30 932 H 105.508 -4.07298 -0.239304 0
M  V30 933 H 104.183 -4.05756 0.912947 0
M  V30 934 H 102.76 -3.62678 -0.867135 0
M  V30 935 N 104.945 -0.338344 -1.53925 0
M  V30 936 C 106.17 0.263987 -2.05713 0
M  V30 937 C 106.595 1.43847 -1.21201 0
M  V30 938 O 105.953 1.79904 -0.224535 0
M  V30 939 C 106.001 0.662 -3.54471 0
M  V30 940 O 105.105 1.76265 -3.72833 0
M  V30 941 H 104.446 0.0448722 -0.662482 0
M  V30 942 H 106.976 -0.491048 -1.9862 0
M  V30 943 H 106.986 0.940594 -3.9701 0
M  V30 944 H 105.661 -0.196937 -4.15433 0
M  V30 945 H 104.238 1.48173 -3.42198 0
M  V30 946 N 106.423 1.57458 -0.0668435 0
M  V30 947 C 107.353 2.15468 0.899764 0
M  V30 948 C 108.334 1.08042 1.31381 0
M  V30 949 O 109.519 1.36054 1.38574 0
M  V30 950 C 106.649 2.71232 2.16911 0
M  V30 951 C 105.603 3.83781 1.89463 0
M  V30 952 C 104.929 4.26127 3.22986 0
M  V30 953 C 106.229 5.08238 1.20381 0
M  V30 954 H 107.923 2.96488 0.416529 0
M  V30 955 H 105.469 1.4262 0.198908 0
M  V30 956 H 107.422 3.10458 2.84945 0
M  V30 957 H 106.146 1.87426 2.67468 0
M  V30 958 H 104.805 3.45051 1.23836 0
M  V30 959 H 104.453 3.39249 3.71374 0
M  V30 960 H 104.153 5.01993 3.05413 0
M  V30 961 H 105.677 4.67966 3.92225 0
M  V30 962 H 107.091 5.44811 1.78475 0
M  V30 963 H 105.488 5.89349 1.13083 0
M  V30 964 H 106.558 4.84558 0.182153 0
M  V30 965 N 107.901 -0.206675 1.56239 0
M  V30 966 C 109.126 -0.949474 1.8439 0
M  V30 967 C 109.551 -1.76549 0.649016 0
M  V30 968 O 108.909 -1.76782 -0.402231 0
M  V30 969 C 108.957 -1.83078 3.10668 0
M  V30 970 O 108.061 -2.9281 2.90407 0
M  V30 971 H 107.402 -0.268033 0.607499 0
M  V30 972 H 109.932 -0.215488 2.03462 0
M  V30 973 H 109.942 -2.2377 3.41161 0
M  V30 974 H 108.617 -1.23112 3.97261 0
M  V30 975 H 107.194 -2.55956 2.71184 0
M  V30 976 N 109.379 -1.50304 -0.473955 0
M  V30 977 C 110.604 -1.65175 -1.25427 0
M  V30 978 C 111.029 -0.333673 -1.85117 0
M  V30 979 O 110.387 0.702114 -1.67153 0
M  V30 980 C 110.435 -2.74295 -2.34082 0
M  V30 981 O 109.539 -2.35349 -3.38651 0
M  V30 982 H 108.88 -0.551944 -0.369126 0
M  V30 983 H 111.41 -1.96662 -0.564364 0
M  V30 984 H 111.42 -2.97285 -2.79438 0
M  V30 985 H 110.095 -3.69959 -1.90008 0
M  V30 986 H 108.672 -2.22794 -2.99027 0
M  V30 987 N 110.857 0.726932 -1.39834 0
M  V30 988 C 112.082 1.52121 -1.40976 0
M  V30 989 C 112.507 1.88098 -0.00826029 0
M  V30 990 O 111.865 1.52479 0.980807 0
M  V30 991 C 111.913 2.78021 -2.29644 0
M  V30 992 O 111.017 3.74272 -1.73188 0
M  V30 993 H 110.358 0.45908 -0.479731 0
M  V30 994 H 112.888 0.896207 -1.83927 0
M  V30 995 H 112.898 3.26671 -2.44438 0
M  V30 996 H 111.573 2.51169 -3.31492 0
M  V30 997 H 110.15 3.33073 -1.6768 0
M  V30 998 N 112.336 1.25143 0.95797 0
M  V30 999 C 113.561 1.12521 1.74223 0
M  V30 1000 C 113.986 -0.317402 1.85403 0
M  V30 1001 O 113.344 -1.2299 1.33204 0
M  V30 1002 C 113.392 1.78062 3.1357 0
M  V30 1003 O 112.496 1.058 3.98598 0
M  V30 1004 H 111.837 0.39304 0.535178 0
M  V30 1005 H 114.367 1.65641 1.201 0
M  V30 1006 H 114.377 1.84213 3.64046 0
M  V30 1007 H 113.052 2.83021 3.04749 0
M  V30 1008 H 111.629 1.07506 3.57067 0
M  V30 1009 N 113.814 -1.1601 1.06675 0
M  V30 1010 C 114.777 -2.18724 0.685001 0
M  V30 1011 C 115.777 -1.58496 -0.271246 0
M  V30 1012 O 116.967 -1.74119 -0.0531156 0
M  V30 1013 C 114.099 -3.40899 0.00853648 0
M  V30 1014 H 115.292 -2.54011 1.59431 0
M  V30 1015 H 112.845 -1.30352 0.862441 0
M  V30 1016 H 113.58 -3.11173 -0.913337 0
M  V30 1017 H 113.365 -3.8587 0.696204 0
M  V30 1018 H 114.855 -4.16886 -0.24414 0
M  V30 1019 N 115.292 -0.849877 -1.32721 0
M  V30 1020 C 116.517 -0.463856 -2.02146 0
M  V30 1021 C 116.942 0.930449 -1.63476 0
M  V30 1022 O 116.3 1.61033 -0.832952 0
M  V30 1023 C 116.348 -0.604955 -3.55489 0
M  V30 1024 O 115.452 0.36425 -4.10788 0
M  V30 1025 H 114.793 -0.187046 -0.637111 0
M  V30 1026 H 117.323 -1.14775 -1.69375 0
M  V30 1027 H 117.333 -0.490696 -4.05038 0
M  V30 1028 H 116.008 -1.62174 -3.82978 0
M  V30 1029 H 114.585 0.206628 -3.72327 0
M  V30 1030 N 116.77 1.45427 -0.607355 0
M  V30 1031 C 117.995 2.07124 -0.107006 0
M  V30 1032 C 118.42 1.44906 1.19933 0
M  V30 1033 O 117.778 0.541687 1.73019 0
M  V30 1034 C 117.826 3.60595 0.0194119 0
M  V30 1035 O 116.93 3.98285 1.0697 0
M  V30 1036 H 116.271 0.659868 -0.0739597 0
M  V30 1037 H 118.801 1.86683 -0.837297 0
M  V30 1038 H 118.811 4.07419 0.2177 0
M  V30 1039 H 117.486 4.05266 -0.934453 0
M  V30 1040 H 116.063 3.63133 0.847889 0
M  V30 1041 N 118.248 0.346503 1.53744 0
M  V30 1042 C 119.494 -0.249473 2.0126 0
M  V30 1043 C 119.827 -1.49965 1.23386 0
M  V30 1044 O 119.102 -1.91811 0.32229 0
M  V30 1045 C 119.385 -0.560643 3.55709 0
M  V30 1046 C 119.238 0.701836 4.44291 0
M  V30 1047 C 120.557 -1.36905 4.18264 0
M  V30 1048 H 117.676 -0.0891987 0.731582 0
M  V30 1049 H 120.318 0.467624 1.84156 0
M  V30 1050 H 118.468 -1.17156 3.70414 0
M  V30 1051 H 120.14 1.33974 4.41417 0
M  V30 1052 H 118.383 1.32612 4.13033 0
M  V30 1053 H 119.054 0.43933 5.50249 0
M  V30 1054 H 121.53 -0.852448 4.07275 0
M  V30 1055 H 120.406 -1.55553 5.26398 0
M  V30 1056 H 120.667 -2.37203 3.73078 0
M  V30 1057 N 119.726 -1.57421 0.075193 0
M  V30 1058 C 120.951 -1.98364 -0.605515 0
M  V30 1059 C 121.376 -0.953383 -1.62149 0
M  V30 1060 O 120.734 0.0806053 -1.81121 0
M  V30 1061 C 120.782 -3.38332 -1.24756 0
M  V30 1062 O 119.886 -3.37959 -2.36342 0
M  V30 1063 H 119.227 -0.645553 -0.155428 0
M  V30 1064 H 121.757 -2.04044 0.150714 0
M  V30 1065 H 121.767 -3.75591 -1.5936 0
M  V30 1066 H 120.442 -4.12846 -0.503129 0
M  V30 1067 H 119.019 -3.12474 -2.03506 0
M  V30 1068 N 121.204 0.198386 -1.56346 0
M  V30 1069 C 122.429 0.939682 -1.84891 0
M  V30 1070 C 122.854 1.76202 -0.658369 0
M  V30 1071 O 122.212 1.76993 0.392851 0
M  V30 1072 C 122.26 1.81428 -3.11635 0
M  V30 1073 O 121.364 2.91265 -2.91956 0
M  V30 1074 H 120.705 0.264807 -0.608912 0
M  V30 1075 H 123.235 0.204695 -2.03573 0
M  V30 1076 H 123.245 2.21958 -3.42343 0
M  V30 1077 H 121.92 1.21004 -3.97908 0
M  V30 1078 H 120.497 2.54514 -2.72538 0
M  V30 1079 N 122.682 1.50554 0.465978 0
M  V30 1080 C 123.907 1.65838 1.24549 0
M  V30 1081 C 124.332 0.343486 1.84937 0
M  V30 1082 O 123.69 -0.69324 1.67523 0
M  V30 1083 C 123.738 2.75533 2.32624 0
M  V30 1084 O 122.842 2.37142 3.37398 0
M  V30 1085 H 122.183 0.553893 0.366194 0
M  V30 1086 H 124.713 1.96959 0.553927 0
M  V30 1087 H 124.723 2.98763 2.77857 0
M  V30 1088 H 123.398 3.70962 1.88043 0
M  V30 1089 H 121.975 2.24377 2.97841 0
M  V30 1090 N 124.16 -0.719506 1.40217 0
M  V30 1091 C 125.385 -1.51371 1.4178 0
M  V30 1092 C 125.81 -1.88091 0.0182355 0
M  V30 1093 O 125.168 -1.52997 -0.972707 0
M  V30 1094 C 125.216 -2.768 2.31115 0
M  V30 1095 O 124.32 -3.73349 1.7517 0
M  V30 1096 H 123.661 -0.456529 0.482159 0
M  V30 1097 H 126.191 -0.88644 1.844 0
M  V30 1098 H 126.201 -3.25371 2.46167 0
M  V30 1099 H 124.876 -2.49407 3.3282 0
M  V30 1100 H 123.453 -3.32179 1.69444 0
M  V30 1101 N 125.638 -1.25649 -0.95132 0
M  V30 1102 C 126.884 -1.10757 -1.69884 0
M  V30 1103 C 127.217 0.350061 -1.91019 0
M  V30 1104 O 126.492 1.25783 -1.48354 0
M  V30 1105 C 126.775 -1.86606 -3.07978 0
M  V30 1106 C 126.628 -3.40217 -2.94232 0
M  V30 1107 C 127.947 -1.65182 -4.07925 0
M  V30 1108 H 125.066 -0.40374 -0.616574 0
M  V30 1109 H 127.708 -1.54521 -1.10558 0
M  V30 1110 H 125.858 -1.49409 -3.58621 0
M  V30 1111 H 127.53 -3.87108 -2.50889 0
M  V30 1112 H 125.773 -3.67759 -2.30078 0
M  V30 1113 H 126.444 -3.88505 -3.92133 0
M  V30 1114 H 128.92 -1.9757 -3.66204 0
M  V30 1115 H 127.796 -2.20683 -5.02583 0
M  V30 1116 H 128.057 -0.593933 -4.38092 0
M  V30 1117 N 127.117 1.15442 -1.07289 0
M  V30 1118 C 128.08 2.18358 -0.696591 0
M  V30 1119 C 129.08 1.58637 0.262837 0
M  V30 1120 O 130.27 1.74145 0.0438809 0
M  V30 1121 C 127.402 3.4089 -0.0266151 0
M  V30 1122 H 128.595 2.53162 -1.60776 0
M  V30 1123 H 126.148 1.29893 -0.869342 0
M  V30 1124 H 126.883 3.11653 0.896822 0
M  V30 1125 H 126.668 3.85495 -0.716657 0
M  V30 1126 H 128.158 4.17009 0.222028 0
M  V30 1127 N 128.595 0.856903 1.32268 0
M  V30 1128 C 129.558 0.308171 2.27119 0
M  V30 1129 C 130.558 -0.533421 1.51695 0
M  V30 1130 O 131.748 -0.344607 1.70757 0
M  V30 1131 C 128.88 -0.563757 3.36206 0
M  V30 1132 H 130.073 1.14535 2.77167 0
M  V30 1133 H 127.626 0.631421 1.42978 0
M  V30 1134 H 128.361 -1.42266 2.91429 0
M  V30 1135 H 128.146 0.0386749 3.92081 0
M  V30 1136 H 129.636 -0.940386 4.06874 0
M  V30 1137 N 130.073 -1.45103 0.615059 0
M  V30 1138 C 131.298 -2.07064 0.117988 0
M  V30 1139 C 131.723 -1.4554 -1.19163 0
M  V30 1140 O 131.081 -0.550855 -1.72729 0
M  V30 1141 C 131.129 -3.606 -0.000288387 0
M  V30 1142 O 130.233 -3.98847 -1.04856 0
M  V30 1143 H 129.574 -0.659467 0.0774581 0
M  V30 1144 H 132.104 -1.86236 0.847186 0
M  V30 1145 H 132.114 -4.07529 -0.196091 0
M  V30 1146 H 130.789 -4.04765 0.955932 0
M  V30 1147 H 129.366 -3.63577 -0.828619 0
M  V30 1148 N 131.551 -0.354651 -1.53558 0
M  V30 1149 C 132.461 0.50515 -2.29097 0
M  V30 1150 C 133.477 1.10223 -1.34636 0
M  V30 1151 O 134.653 1.11553 -1.67684 0
M  V30 1152 C 131.718 1.63479 -3.05738 0
M  V30 1153 C 130.779 1.06636 -4.15845 0
M  V30 1154 C 130.012 2.14217 -4.88822 0
M  V30 1155 O 130.235 3.35137 -4.61562 0
M  V30 1156 O 129.169 1.77887 -5.75013 0
M  V30 1157 H 132.995 -0.109237 -3.03503 0
M  V30 1158 H 130.58 -0.119357 -1.48922 0
M  V30 1159 H 132.462 2.2918 -3.5363 0
M  V30 1160 H 131.137 2.23478 -2.34178 0
M  V30 1161 H 130.044 0.373565 -3.7223 0
M  V30 1162 H 131.377 0.511081 -4.89539 0
M  V30 1163 N 133.029 1.57378 -0.0835403 0
M  V30 1164 C 134.277 1.93547 0.581718 0
M  V30 1165 C 134.598 0.96524 1.69435 0
M  V30 1166 O 133.868 0.0153369 1.95894 0
M  V30 1167 H 132.448 0.714521 0.217874 0
M  V30 1168 H 135.11 1.94366 -0.144158 0
M  V30 1169 H 134.206 2.95665 0.999423 0
M  V30 1170 N 134.507 -0.190092 1.56449 0
M  V30 1171 C 135.455 -1.25501 1.95837 0
M  V30 1172 C 136.449 -1.4685 0.844485 0
M  V30 1173 O 137.655 -1.47651 1.02952 0
M  V30 1174 H 134.03 -0.421447 0.622805 0
M  V30 1175 H 136.001 -0.895821 2.84636 0
M  V30 1176 C 134.75 -2.59124 2.31841 0
M  V30 1177 H 134.073 -2.43514 3.17082 0
M  V30 1178 H 135.513 -3.32371 2.6326 0
M  V30 1179 C 133.972 -3.16488 1.15486 0
M  V30 1180 O 134.502 -3.99365 0.432535 0
M  V30 1181 N 132.708 -2.75305 0.930349 0
M  V30 1182 H 132.255 -2.08013 1.51948 0
M  V30 1183 H 132.213 -3.14024 0.153634 0
M  V30 1184 N 135.985 -1.50799 -0.457987 0
M  V30 1185 C 137.231 -1.62683 -1.21088 0
M  V30 1186 C 137.564 -0.332268 -1.91336 0
M  V30 1187 O 136.839 0.667043 -1.82704 0
M  V30 1188 C 137.122 -2.81615 -2.24422 0
M  V30 1189 C 136.975 -4.20989 -1.58392 0
M  V30 1190 C 138.294 -2.96085 -3.2561 0
M  V30 1191 H 135.413 -0.592087 -0.438864 0
M  V30 1192 H 138.055 -1.83225 -0.50286 0
M  V30 1193 H 136.205 -2.64231 -2.84806 0
M  V30 1194 H 137.877 -4.49994 -1.01504 0
M  V30 1195 H 136.12 -4.24641 -0.886704 0
M  V30 1196 H 136.791 -5.0016 -2.33547 0
M  V30 1197 H 139.267 -3.12042 -2.75262 0
M  V30 1198 H 138.143 -3.80902 -3.95228 0
M  V30 1199 H 138.404 -2.0726 -3.90507 0
M  V30 1200 N 137.463 0.71206 -1.40597 0
M  V30 1201 C 138.709 1.47416 -1.39271 0
M  V30 1202 C 139.042 1.942 0.00388791 0
M  V30 1203 O 138.317 1.68403 0.973179 0
M  V30 1204 C 138.6 2.69774 -2.38525 0
M  V30 1205 C 138.453 2.28861 -3.87224 0
M  V30 1206 C 139.772 3.71939 -2.35264 0
M  V30 1207 H 136.891 0.534713 -0.5072 0
M  V30 1208 H 139.533 0.812375 -1.71757 0
M  V30 1209 H 137.683 3.26238 -2.10953 0
M  V30 1210 H 139.355 1.77852 -4.25636 0
M  V30 1211 H 137.598 1.60824 -4.02887 0
M  V30 1212 H 138.269 3.16584 -4.52193 0
M  V30 1213 H 140.745 3.25113 -2.59694 0
M  V30 1214 H 139.621 4.55186 -3.06753 0
M  V30 1215 H 139.882 4.20484 -1.36549 0
M  V30 1216 N 138.941 1.26152 0.944643 0
M  V30 1217 C 140.19 1.10883 1.68487 0
M  V30 1218 C 140.503 -0.348153 1.92477 0
M  V30 1219 O 141.709 -0.621459 2.64292 0
M  V30 1220 C 140.165 1.93624 3.03377 0
M  V30 1221 C 139.773 3.43875 2.87148 0
M  V30 1222 C 141.517 1.86954 3.81115 0
M  V30 1223 C 139.424 4.18875 4.1749 0
M  V30 1224 H 138.354 0.41135 0.631907 0
M  V30 1225 H 141.005 1.50433 1.05082 0
M  V30 1226 H 139.387 1.46904 3.67743 0
M  V30 1227 H 140.561 3.98338 2.31653 0
M  V30 1228 H 138.876 3.51744 2.22856 0
M  V30 1229 H 141.473 2.40275 4.77673 0
M  V30 1230 H 141.816 0.839518 4.07747 0
M  V30 1231 H 142.349 2.31477 3.23517 0
M  V30 1232 H 139.088 5.22332 3.96043 0
M  V30 1233 H 138.608 3.69193 4.72712 0
M  V30 1234 H 140.287 4.27134 4.85968 0
M  V30 1235 N 140.419 -1.14872 1.07899 0
M  V30 1236 C 141.329 -2.2341 0.715915 0
M  V30 1237 C 142.345 -1.71808 -0.275306 0
M  V30 1238 O 143.521 -2.01039 -0.120545 0
M  V30 1239 C 140.586 -3.46474 0.125168 0
M  V30 1240 C 139.647 -4.13039 1.17034 0
M  V30 1241 C 138.88 -5.30229 0.607688 0
M  V30 1242 O 139.103 -5.675 -0.574497 0
M  V30 1243 O 138.037 -5.86444 1.35526 0
M  V30 1244 H 141.863 -2.56808 1.62121 0
M  V30 1245 H 139.448 -1.22702 0.852322 0
M  V30 1246 H 141.33 -4.20917 -0.201729 0
M  V30 1247 H 140.005 -3.14811 -0.753364 0
M  V30 1248 H 138.912 -3.40493 1.54968 0
M  V30 1249 H 140.245 -4.48796 2.02097 0
M  V30 1250 N 141.898 -0.863906 -1.31812 0
M  V30 1251 C 143.144 -0.472535 -1.97218 0
M  V30 1252 C 143.477 0.971394 -1.68159 0
M  V30 1253 O 142.752 1.68309 -0.974798 0
M  V30 1254 C 143.035 -0.723054 -3.52766 0
M  V30 1255 C 142.888 -2.21608 -3.91421 0
M  V30 1256 C 144.207 -0.185522 -4.39709 0
M  V30 1257 H 141.326 -0.173158 -0.71637 0
M  V30 1258 H 143.968 -1.08403 -1.56041 0
M  V30 1259 H 142.118 -0.202577 -3.87971 0
M  V30 1260 H 143.79 -2.80334 -3.66347 0
M  V30 1261 H 142.033 -2.691 -3.40246 0
M  V30 1262 H 142.704 -2.34203 -4.99853 0
M  V30 1263 H 145.18 -0.630726 -4.11292 0
M  V30 1264 H 144.056 -0.390306 -5.47511 0
M  V30 1265 H 144.317 0.912229 -4.32586 0
M  V30 1266 N 143.376 1.44774 -0.622745 0
M  V30 1267 C 144.653 1.95522 -0.0551974 0
M  V30 1268 C 145.033 1.5649 1.41683 0
M  V30 1269 O 144.381 0.834848 2.12703 0
M  V30 1270 C 144.591 3.4796 -0.269242 0
M  V30 1271 C 145.939 4.24306 -0.158014 0
M  V30 1272 O 146.963 3.55637 -0.200162 0
M  V30 1273 O 145.822 5.46471 -0.0558693 0
M  V30 1274 H 142.916 0.826556 0.0271015 0
M  V30 1275 H 145.462 1.54866 -0.693864 0
M  V30 1276 H 144.234 3.6939 -1.29099 0
M  V30 1277 H 143.857 3.95543 0.403966 0
M  V30 1278 N 144.854 0.36279 1.53368 0
M  V30 1279 C 145.787 -0.528507 2.21996 0
M  V30 1280 C 146.765 -1.0852 1.21087 0
M  V30 1281 O 147.949 -1.14186 1.4998 0
M  V30 1282 C 145.076 -1.72893 2.91249 0
M  V30 1283 C 144.122 -1.29994 4.06207 0
M  V30 1284 S 144.955 -0.303575 5.34639 0
M  V30 1285 C 146.111 -1.51039 6.07403 0
M  V30 1286 H 146.344 0.0543423 2.9725 0
M  V30 1287 H 143.877 0.146889 1.537 0
M  V30 1288 H 145.835 -2.41751 3.31763 0
M  V30 1289 H 144.496 -2.28303 2.15724 0
M  V30 1290 H 143.689 -2.19549 4.53667 0
M  V30 1291 H 143.291 -0.690608 3.67569 0
M  V30 1292 H 145.583 -2.44186 6.31965 0
M  V30 1293 H 146.526 -1.07721 6.99858 0
M  V30 1294 H 146.934 -1.71518 5.37812 0
M  V30 1295 N 146.332 -1.57332 0.0918853 0
M  V30 1296 C 147.295 -2.12708 -0.85369 0
M  V30 1297 C 148.295 -1.05561 -1.213 0
M  V30 1298 O 149.485 -1.31461 -1.14296 0
M  V30 1299 C 146.617 -2.64503 -2.15061 0
M  V30 1300 H 147.81 -2.97573 -0.3729 0
M  V30 1301 H 145.363 -1.55509 -0.157072 0
M  V30 1302 H 146.098 -1.83149 -2.67632 0
M  V30 1303 H 145.883 -3.4284 -1.90272 0
M  V30 1304 H 147.373 -3.07351 -2.82711 0
M  V30 1305 N 147.81 0.181792 -1.56548 0
M  V30 1306 C 148.758 1.24461 -1.965 0
M  V30 1307 C 149.752 1.464 -0.852261 0
M  V30 1308 O 150.958 1.47103 -1.03733 0
M  V30 1309 H 147.333 0.418138 -0.625031 0
M  V30 1310 H 149.304 0.880714 -2.85107 0
M  V30 1311 C 148.053 2.57891 -2.33212 0
M  V30 1312 H 147.376 2.41829 -3.18369 0
M  V30 1313 H 148.816 3.3097 -2.65019 0
M  V30 1314 C 147.275 3.15871 -1.17163 0
M  V30 1315 O 147.805 3.9913 -0.453708 0
M  V30 1316 N 146.011 2.74808 -0.944936 0
M  V30 1317 H 145.558 2.07205 -1.53049 0
M  V30 1318 H 145.516 3.13939 -0.170286 0
M  V30 1319 N 149.288 1.51039 0.449983 0
M  V30 1320 C 150.536 1.62759 1.19808 0
M  V30 1321 C 150.857 0.339981 1.92013 0
M  V30 1322 O 150.127 -0.643606 1.85026 0
M  V30 1323 H 148.707 0.599811 0.445237 0
M  V30 1324 H 151.369 1.87914 0.517138 0
M  V30 1325 H 150.465 2.44911 1.93455 0
M  V30 1326 N 150.766 -0.704594 1.40972 0
M  V30 1327 C 152.012 -1.46546 1.41053 0
M  V30 1328 C 152.367 -1.92393 0.0159714 0
M  V30 1329 O 151.66 -1.66017 -0.956506 0
M  V30 1330 C 151.854 -2.698 2.34399 0
M  V30 1331 C 151.683 -2.36008 3.82793 0
M  V30 1332 C 150.453 -2.26812 4.51536 0
M  V30 1333 C 152.651 -1.99565 4.74003 0
M  V30 1334 N 150.633 -1.8581 5.85105 0
M  V30 1335 C 152.004 -1.69251 5.96451 0
M  V30 1336 C 154.059 -1.86296 4.61734 0
M  V30 1337 C 152.762 -1.27003 7.07999 0
M  V30 1338 C 154.788 -1.45452 5.73234 0
M  V30 1339 C 154.15 -1.16043 6.94776 0
M  V30 1340 H 150.249 -0.533896 0.571383 0
M  V30 1341 H 152.833 -0.816061 1.76773 0
M  V30 1342 H 151.004 -3.32473 2.00789 0
M  V30 1343 H 152.736 -3.36214 2.25261 0
M  V30 1344 H 149.491 -2.44913 4.05357 0
M  V30 1345 H 149.915 -1.67817 6.55871 0
M  V30 1346 H 154.557 -2.0769 3.68273 0
M  V30 1347 H 152.275 -1.04353 8.01334 0
M  V30 1348 H 155.861 -1.35748 5.65742 0
M  V30 1349 H 154.741 -0.84915 7.79589 0
M  V30 1350 N 152.244 -1.26651 -0.937939 0
M  V30 1351 C 153.66 -1.03834 -1.21205 0
M  V30 1352 C 153.86 0.234502 -2.00131 0
M  V30 1353 O 152.916 0.942767 -2.3424 0
M  V30 1354 C 154.229 -2.27167 -1.97017 0
M  V30 1355 C 155.777 -2.32101 -2.09996 0
M  V30 1356 C 156.252 -3.55136 -2.8921 0
M  V30 1357 N 157.743 -3.55632 -2.96783 0
M  V30 1358 C 158.478 -4.475 -3.58512 0
M  V30 1359 N 157.974 -5.4966 -4.21717 0
M  V30 1360 N 159.767 -4.35145 -3.55816 0
M  V30 1361 H 151.918 -2.08398 -0.410391 0
M  V30 1362 H 154.181 -0.916031 -0.244114 0
M  V30 1363 H 153.887 -3.19765 -1.46434 0
M  V30 1364 H 153.761 -2.31672 -2.97671 0
M  V30 1365 H 156.148 -1.40015 -2.59769 0
M  V30 1366 H 156.229 -2.31605 -1.08594 0
M  V30 1367 H 155.873 -4.47553 -2.40123 0
M  V30 1368 H 155.803 -3.5288 -3.90875 0
M  V30 1369 H 158.294 -2.81743 -2.51852 0
M  V30 1370 H 158.607 -6.15943 -4.66727 0
M  V30 1371 H 156.952 -5.53514 -4.20294 0
M  V30 1372 H 160.143 -3.5455 -3.05634 0
M  V30 1373 H 160.316 -5.06934 -4.03636 0
M  V30 1374 N 153.722 1.14298 -1.08507 0
M  V30 1375 C 154.97 1.84993 -0.813763 0
M  V30 1376 C 155.291 1.83405 0.662393 0
M  V30 1377 O 154.561 1.28319 1.48024 0
M  V30 1378 H 153.141 0.684966 -0.298045 0
M  V30 1379 H 155.803 1.385 -1.37126 0
M  V30 1380 H 154.899 2.89788 -1.15884 0
M  V30 1381 N 155.201 0.870884 1.31352 0
M  V30 1382 C 156.149 0.316445 2.30437 0
M  V30 1383 C 157.143 -0.568965 1.59559 0
M  V30 1384 O 158.349 -0.454964 1.74155 0
M  V30 1385 H 154.724 0.0836521 0.747333 0
M  V30 1386 H 156.695 1.16606 2.74673 0
M  V30 1387 C 155.444 -0.46635 3.44558 0
M  V30 1388 H 154.767 0.205687 3.99271 0
M  V30 1389 H 156.207 -0.819614 4.16003 0
M  V30 1390 C 154.666 -1.65797 2.9328 0
M  V30 1391 O 155.196 -2.75728 2.92125 0
M  V30 1392 N 153.402 -1.49041 2.4947 0
M  V30 1393 H 152.949 -0.59612 2.50608 0
M  V30 1394 H 152.907 -2.28911 2.15516 0
M  V30 1395 N 156.679 -1.44442 0.630414 0
M  V30 1396 C 157.642 -2.29107 -0.0652523 0
M  V30 1397 C 158.642 -1.41002 -0.772995 0
M  V30 1398 O 159.832 -1.62881 -0.617692 0
M  V30 1399 C 156.964 -3.22564 -1.10296 0
M  V30 1400 H 158.157 -2.92103 0.679401 0
M  V30 1401 H 155.71 -1.51343 0.390517 0
M  V30 1402 H 156.445 -2.64416 -1.87762 0
M  V30 1403 H 156.23 -3.87491 -0.59941 0
M  V30 1404 H 157.72 -3.86167 -1.5895 0
M  V30 1405 N 158.157 -0.370918 -1.53173 0
M  V30 1406 C 159.382 0.220293 -2.06227 0
M  V30 1407 C 159.807 1.41243 -1.24225 0
M  V30 1408 O 159.165 1.79387 -0.262645 0
M  V30 1409 C 159.213 0.586663 -3.55796 0
M  V30 1410 O 158.317 1.68317 -3.76488 0
M  V30 1411 H 157.658 0.0308099 -0.663285 0
M  V30 1412 H 160.188 -0.533068 -1.97534 0
M  V30 1413 H 160.198 0.85617 -3.98916 0
M  V30 1414 H 158.873 -0.285013 -4.14922 0
M  V30 1415 H 157.45 1.40881 -3.45264 0
M  V30 1416 N 159.635 1.57281 -0.100228 0
M  V30 1417 C 160.883 1.94153 0.561157 0
M  V30 1418 C 161.204 0.983157 1.68401 0
M  V30 1419 O 160.474 0.0361132 1.95867 0
M  V30 1420 H 159.054 0.716791 0.210283 0
M  V30 1421 H 161.716 1.94202 -0.164765 0
M  V30 1422 H 160.812 2.96709 0.968008 0
M  V30 1423 N 161.113 -0.173488 1.56642 0
M  V30 1424 C 162.338 -0.910149 1.86363 0
M  V30 1425 C 162.763 -1.75132 0.686318 0
M  V30 1426 O 162.121 -1.77595 -0.364643 0
M  V30 1427 C 162.169 -1.76447 3.14482 0
M  V30 1428 O 161.273 -2.86584 2.96553 0
M  V30 1429 H 160.614 -0.255086 0.613047 0
M  V30 1430 H 163.144 -0.172283 2.03873 0
M  V30 1431 H 163.154 -2.16483 3.45831 0
M  V30 1432 H 161.829 -1.14658 3.99783 0
M  V30 1433 H 160.406 -2.50146 2.76553 0
M  V30 1434 N 162.591 -1.51276 -0.441967 0
M  V30 1435 C 163.819 -1.67516 -1.21434 0
M  V30 1436 C 164.234 -0.37055 -1.85128 0
M  V30 1437 O 163.591 0.650498 -1.70513 0
M  V30 1438 C 163.642 -2.78748 -2.30177 0
M  V30 1439 O 163.363 -4.04154 -1.69089 0
M  V30 1440 C 164.864 -3.06217 -3.20541 0
M  V30 1441 H 162.084 -0.562276 -0.366178 0
M  V30 1442 H 164.628 -1.97666 -0.524244 0
M  V30 1443 H 162.783 -2.5121 -2.94911 0
M  V30 1444 H 163.197 -4.65894 -2.40922 0
M  V30 1445 H 164.671 -3.8764 -3.92987 0
M  V30 1446 H 165.148 -2.18439 -3.81026 0
M  V30 1447 H 165.754 -3.35397 -2.61513 0
M  V30 1448 N 164.069 0.697108 -1.41344 0
M  V30 1449 C 165.294 1.49096 -1.44171 0
M  V30 1450 C 165.719 1.88038 -0.0481568 0
M  V30 1451 O 165.077 1.54525 0.948243 0
M  V30 1452 C 165.125 2.73088 -2.3549 0
M  V30 1453 O 164.229 3.70514 -1.81088 0
M  V30 1454 H 163.57 0.448801 -0.489361 0
M  V30 1455 H 166.1 0.856992 -1.85787 0
M  V30 1456 H 166.11 3.21413 -2.51312 0
M  V30 1457 H 164.785 2.44081 -3.36745 0
M  V30 1458 H 163.362 3.29441 -1.74708 0
M  V30 1459 N 165.547 1.27147 0.931209 0
M  V30 1460 C 166.497 1.06227 2.01742 0
M  V30 1461 C 167.481 -0.00859065 1.60898 0
M  V30 1462 O 168.673 0.209537 1.75755 0
M  V30 1463 C 165.802 0.707787 3.35924 0
M  V30 1464 C 164.888 1.81661 3.83223 0
M  V30 1465 N 165.279 3.05564 4.03069 0
M  V30 1466 C 163.577 1.70249 4.12227 0
M  V30 1467 C 164.278 3.77697 4.42403 0
M  V30 1468 N 163.254 3.0544 4.49675 0
M  V30 1469 H 167.056 2.00261 2.15111 0
M  V30 1470 H 164.57 1.1781 1.11779 0
M  V30 1471 H 166.567 0.539043 4.134 0
M  V30 1472 H 165.227 -0.224964 3.2392 0
M  V30 1473 H 166.238 3.41363 3.89476 0
M  V30 1474 H 162.915 0.840329 4.08956 0
M  V30 1475 H 164.305 4.84168 4.65866 0
M  V30 1476 N 167.025 -1.13721 1.09112 0
M  V30 1477 C 168.25 -1.89314 0.847053 0
M  V30 1478 C 168.675 -1.78416 -0.595774 0
M  V30 1479 O 168.033 -1.12942 -1.41823 0
M  V30 1480 C 168.081 -3.3701 1.28284 0
M  V30 1481 O 167.185 -4.10054 0.439267 0
M  V30 1482 H 166.526 -0.588745 0.307044 0
M  V30 1483 H 169.056 -1.43902 1.45442 0
M  V30 1484 H 169.066 -3.87834 1.26683 0
M  V30 1485 H 167.741 -3.4426 2.33363 0
M  V30 1486 H 166.318 -3.69266 0.519312 0
M  V30 1487 N 168.503 -0.877838 -1.30888 0
M  V30 1488 C 169.751 -0.491723 -1.96027 0
M  V30 1489 C 170.072 0.960827 -1.69685 0
M  V30 1490 O 169.342 1.67462 -1.01654 0
M  V30 1491 H 167.922 -0.17885 -0.725273 0
M  V30 1492 H 170.584 -1.11935 -1.59551 0
M  V30 1493 H 169.68 -0.656016 -3.05128 0
M  V30 1494 N 169.982 1.44106 -0.638065 0
M  V30 1495 C 171.231 2.01194 -0.142744 0
M  V30 1496 C 171.544 1.50835 1.24532 0
M  V30 1497 O 172.75 2.00096 1.83504 0
M  V30 1498 C 171.206 3.59319 -0.20442 0
M  V30 1499 C 170.814 4.18674 -1.59423 0
M  V30 1500 C 172.558 4.23854 0.234079 0
M  V30 1501 C 170.465 5.69045 -1.61065 0
M  V30 1502 H 169.395 0.752367 -0.0495998 0
M  V30 1503 H 172.046 1.65246 -0.797881 0
M  V30 1504 H 170.428 3.92598 0.517946 0
M  V30 1505 H 171.602 3.96921 -2.34074 0
M  V30 1506 H 169.917 3.66453 -1.97741 0
M  V30 1507 H 172.514 5.34155 0.241443 0
M  V30 1508 H 172.857 3.96688 1.2627 0
M  V30 1509 H 173.39 3.95403 -0.436025 0
M  V30 1510 H 170.129 6.00956 -2.61787 0
M  V30 1511 H 169.649 5.929 -0.90718 0
M  V30 1512 H 171.328 6.32809 -1.34766 0
M  V30 1513 N 171.46 0.379036 1.52974 0
M  V30 1514 C 172.688 -0.20679 2.05864 0
M  V30 1515 C 173.103 -1.41356 1.25155 0
M  V30 1516 O 172.46 -1.8009 0.295588 0
M  V30 1517 C 172.511 -0.587045 3.56702 0
M  V30 1518 O 172.232 0.571776 4.34353 0
M  V30 1519 C 173.733 -1.22983 4.25899 0
M  V30 1520 H 170.953 -0.0336123 0.670158 0
M  V30 1521 H 173.497 0.541298 1.97206 0
M  V30 1522 H 171.652 -1.28504 3.65466 0
M  V30 1523 H 172.066 0.261544 5.23847 0
M  V30 1524 H 173.54 -1.44635 5.32715 0
M  V30 1525 H 174.017 -2.19416 3.80465 0
M  V30 1526 H 174.623 -0.572892 4.21424 0
M  V30 1527 N 172.938 -1.57226 0.108567 0
M  V30 1528 C 174.168 -1.9889 -0.559142 0
M  V30 1529 C 174.576 -0.986889 -1.61422 0
M  V30 1530 O 173.919 0.0298705 -1.83676 0
M  V30 1531 C 173.981 -3.36952 -1.25315 0
M  V30 1532 C 173.645 -4.55679 -0.347248 0
M  V30 1533 C 174.642 -5.18281 0.409996 0
M  V30 1534 C 172.327 -5.0162 -0.261367 0
M  V30 1535 C 174.321 -6.25203 1.24096 0
M  V30 1536 C 172.008 -6.08405 0.573238 0
M  V30 1537 C 173.006 -6.70063 1.32304 0
M  V30 1538 O 172.694 -7.74788 2.14381 0
M  V30 1539 H 172.426 -0.658343 -0.153492 0
M  V30 1540 H 174.98 -2.04532 0.188584 0
M  V30 1541 H 173.21 -3.28032 -2.04773 0
M  V30 1542 H 174.899 -3.62974 -1.81673 0
M  V30 1543 H 175.665 -4.8371 0.353457 0
M  V30 1544 H 171.544 -4.53381 -0.834656 0
M  V30 1545 H 175.088 -6.73259 1.82669 0
M  V30 1546 H 170.985 -6.42406 0.631208 0
M  V30 1547 H 171.753 -7.91837 2.07209 0
M  V30 1548 N 174.416 0.165178 -1.56732 0
M  V30 1549 C 175.641 0.900253 -1.86843 0
M  V30 1550 C 176.066 1.74766 -0.695596 0
M  V30 1551 O 175.424 1.77786 0.35522 0
M  V30 1552 C 175.472 1.74777 -3.15413 0
M  V30 1553 O 174.576 2.85007 -2.98068 0
M  V30 1554 H 173.917 0.251832 -0.614391 0
M  V30 1555 H 176.447 0.161468 -2.03962 0
M  V30 1556 H 176.457 2.14646 -3.46974 0
M  V30 1557 H 175.132 1.12537 -4.00385 0
M  V30 1558 H 173.709 2.48676 -2.77875 0
M  V30 1559 N 175.894 1.51508 0.433938 0
M  V30 1560 C 176.857 1.72473 1.50949 0
M  V30 1561 C 177.857 0.594725 1.49398 0
M  V30 1562 O 179.047 0.862315 1.5136 0
M  V30 1563 C 176.179 1.78431 2.90474 0
M  V30 1564 H 177.372 2.68467 1.33662 0
M  V30 1565 H 174.925 1.41549 0.662836 0
M  V30 1566 H 175.66 0.842645 3.13161 0
M  V30 1567 H 175.445 2.60558 2.93005 0
M  V30 1568 H 176.935 1.96479 3.68491 0
M  V30 1569 N 177.372 -0.689602 1.41712 0
M  V30 1570 C 178.649 -1.44457 1.31877 0
M  V30 1571 C 179.029 -2.11039 -0.0508537 0
M  V30 1572 O 178.377 -2.02138 -1.06547 0
M  V30 1573 C 178.587 -2.45913 2.47645 0
M  V30 1574 C 179.935 -3.10991 2.89084 0
M  V30 1575 O 180.959 -2.56238 2.47428 0
M  V30 1576 O 179.818 -4.10174 3.61137 0
M  V30 1577 H 176.912 -0.64362 0.519309 0
M  V30 1578 H 179.458 -0.719576 1.53689 0
M  V30 1579 H 178.23 -1.95409 3.39015 0
M  V30 1580 H 177.853 -3.25913 2.27742 0
M  V30 1581 N 178.85 -1.27639 -0.924453 0
M  V30 1582 C 180.098 -1.13941 -1.66918 0
M  V30 1583 C 180.419 0.314589 -1.92446 0
M  V30 1584 O 179.689 1.21964 -1.53303 0
M  V30 1585 H 178.269 -0.418678 -0.618642 0
M  V30 1586 H 180.931 -1.60213 -1.10985 0
M  V30 1587 H 180.027 -1.67094 -2.63602 0
M  V30 1588 N 180.328 1.1314 -1.09713 0
M  V30 1589 C 181.574 1.84757 -0.836224 0
M  V30 1590 C 181.907 1.8347 0.636598 0
M  V30 1591 O 181.182 1.27491 1.46889 0
M  V30 1592 C 181.465 3.32782 -1.37578 0
M  V30 1593 C 181.318 3.42567 -2.91493 0
M  V30 1594 C 182.637 4.28307 -1.01198 0
M  V30 1595 H 179.756 0.67082 -0.305236 0
M  V30 1596 H 182.398 1.3278 -1.35903 0
M  V30 1597 H 180.548 3.77177 -0.931097 0
M  V30 1598 H 182.22 3.06862 -3.44432 0
M  V30 1599 H 180.463 2.83349 -3.28475 0
M  V30 1600 H 181.134 4.46674 -3.24324 0
M  V30 1601 H 183.61 3.91999 -1.39556 0
M  V30 1602 H 182.486 5.30307 -1.41653 0
M  V30 1603 H 182.747 4.42029 0.0794833 0
M  V30 1604 N 181.806 0.884767 1.30421 0
M  V30 1605 C 183.034 0.518044 2.0031 0
M  V30 1606 C 183.449 -0.893408 1.66324 0
M  V30 1607 O 182.806 -1.5875 0.900262 0
M  V30 1608 C 182.857 0.682997 3.54989 0
M  V30 1609 O 182.578 2.03888 3.87764 0
M  V30 1610 C 184.079 0.31924 4.42149 0
M  V30 1611 H 181.299 0.200265 0.640418 0
M  V30 1612 H 183.843 1.19001 1.6631 0
M  V30 1613 H 181.998 0.0584052 3.87356 0
M  V30 1614 H 182.412 2.05735 4.82466 0
M  V30 1615 H 183.886 0.485555 5.4986 0
M  V30 1616 H 184.363 -0.742717 4.32875 0
M  V30 1617 H 184.969 0.920147 4.15227 0
M  V30 1618 N 183.284 -1.43765 0.645699 0
M  V30 1619 C 184.531 -2.01898 0.15604 0
M  V30 1620 C 184.859 -1.50887 -1.22733 0
M  V30 1621 O 184.114 -0.689271 -1.8316 0
M  V30 1622 C 184.413 -3.57238 0.107679 0
M  V30 1623 C 184.079 -4.27564 1.43178 0
M  V30 1624 C 182.741 -4.46492 1.7944 0
M  V30 1625 C 185.093 -4.67454 2.30513 0
M  V30 1626 C 182.421 -5.02573 3.02716 0
M  V30 1627 C 184.773 -5.24901 3.53074 0
M  V30 1628 C 183.437 -5.42046 3.89541 0
M  V30 1629 H 182.707 -0.738797 0.057099 0
M  V30 1630 H 185.354 -1.72341 0.834912 0
M  V30 1631 H 183.659 -3.86293 -0.654618 0
M  V30 1632 H 185.356 -3.99965 -0.287938 0
M  V30 1633 H 181.946 -4.13171 1.13963 0
M  V30 1634 H 186.13 -4.5253 2.0379 0
M  V30 1635 H 181.386 -5.14033 3.31028 0
M  V30 1636 H 185.56 -5.54758 4.20971 0
M  V30 1637 H 183.187 -5.85268 4.85145 0
M  V30 1638 N 184.763 -0.387143 -1.52771 0
M  V30 1639 C 185.726 0.436939 -2.24997 0
M  V30 1640 C 186.726 0.991991 -1.26555 0
M  V30 1641 O 187.916 0.874335 -1.50669 0
M  V30 1642 C 185.048 1.61281 -3.00335 0
M  V30 1643 H 186.241 -0.195365 -2.99263 0
M  V30 1644 H 183.794 -0.139218 -1.55679 0
M  V30 1645 H 184.529 2.2826 -2.30364 0
M  V30 1646 H 184.314 1.22154 -3.72587 0
M  V30 1647 H 185.804 2.19629 -3.5518 0
M  V30 1648 N 186.241 1.57166 -0.116904 0
M  V30 1649 C 187.204 2.14039 0.819742 0
M  V30 1650 C 188.204 1.07477 1.19605 0
M  V30 1651 O 189.394 1.33263 1.1219 0
M  V30 1652 C 186.526 2.67891 2.10826 0
M  V30 1653 H 187.719 2.98128 0.325511 0
M  V30 1654 H 185.272 1.55739 0.132312 0
M  V30 1655 H 186.007 1.87384 2.64685 0
M  V30 1656 H 185.792 3.45823 1.84793 0
M  V30 1657 H 187.282 3.11809 2.77785 0
M  V30 1658 N 187.719 -0.156864 1.56817 0
M  V30 1659 C 188.649 -1.19589 2.00551 0
M  V30 1660 C 189.63 -1.4536 0.883426 0
M  V30 1661 O 190.815 -1.56449 1.15054 0
M  V30 1662 C 187.945 -2.53143 2.37773 0
M  V30 1663 C 186.899 -2.41913 3.53075 0
M  V30 1664 C 186.225 -3.80088 3.76081 0
M  V30 1665 C 187.525 -1.91157 4.86062 0
M  V30 1666 H 189.219 -0.832293 2.87599 0
M  V30 1667 H 186.765 -0.398918 1.38364 0
M  V30 1668 H 188.718 -3.26047 2.66967 0
M  V30 1669 H 187.442 -2.91319 1.4765 0
M  V30 1670 H 186.101 -1.71462 3.24031 0
M  V30 1671 H 185.749 -4.15683 2.83225 0
M  V30 1672 H 185.449 -3.73439 4.53671 0
M  V30 1673 H 186.973 -4.54556 4.0769 0
M  V30 1674 H 188.387 -2.53846 5.14038 0
M  V30 1675 H 186.784 -1.95422 5.67389 0
M  V30 1676 H 187.854 -0.866673 4.77092 0
M  V30 1677 N 189.197 -1.51736 -0.425897 0
M  V30 1678 C 190.445 -1.64644 -1.17204 0
M  V30 1679 C 190.766 -0.370486 -1.91448 0
M  V30 1680 O 190.036 0.614088 -1.86026 0
M  V30 1681 H 188.616 -0.606819 -0.435638 0
M  V30 1682 H 191.278 -1.88713 -0.487177 0
M  V30 1683 H 190.374 -2.47958 -1.89534 0
M  V30 1684 N 190.675 0.682077 -1.42076 0
M  V30 1685 C 191.952 1.43755 -1.32642 0
M  V30 1686 C 192.332 2.11063 0.0396611 0
M  V30 1687 O 191.68 2.02701 1.05474 0
M  V30 1688 C 191.89 2.44596 -2.48946 0
M  V30 1689 C 193.238 3.09454 -2.9073 0
M  V30 1690 O 194.262 2.54922 -2.48783 0
M  V30 1691 O 193.121 4.08253 -3.63307 0
M  V30 1692 H 190.215 0.640857 -0.522715 0
M  V30 1693 H 192.761 0.711415 -1.54068 0
M  V30 1694 H 191.533 1.93609 -3.40046 0
M  V30 1695 H 191.156 3.24701 -2.29467 0
M  V30 1696 N 192.153 1.28127 0.917671 0
M  V30 1697 C 193.401 1.14825 1.66312 0
M  V30 1698 C 193.722 -0.304379 1.9261 0
M  V30 1699 O 192.992 -1.21149 1.53947 0
M  V30 1700 H 191.572 0.421953 0.616413 0
M  V30 1701 H 194.234 1.608 1.10134 0
M  V30 1702 H 193.33 1.68489 2.62712 0
M  V30 1703 N 193.631 -1.12557 1.10312 0
M  V30 1704 C 194.877 -1.84311 0.846011 0
M  V30 1705 C 195.21 -1.83805 -0.626859 0
M  V30 1706 O 194.485 -1.28268 -1.46211 0
M  V30 1707 C 194.768 -3.32048 1.39341 0
M  V30 1708 C 194.621 -3.41016 2.93305 0
M  V30 1709 C 195.94 -4.27764 1.03468 0
M  V30 1710 H 193.059 -0.669192 0.30879 0
M  V30 1711 H 195.701 -1.32057 1.36605 0
M  V30 1712 H 193.851 -3.76678 0.951087 0
M  V30 1713 H 195.523 -3.05031 3.46055 0
M  V30 1714 H 193.766 -2.81603 3.29973 0
M  V30 1715 H 194.437 -4.44948 3.26689 0
M  V30 1716 H 196.913 -3.91253 1.41633 0
M  V30 1717 H 195.789 -5.29549 1.44463 0
M  V30 1718 H 196.05 -4.42064 -0.0560404 0
M  V30 1719 N 195.109 -0.891671 -1.2995 0
M  V30 1720 C 196.357 -0.512486 -1.95494 0
M  V30 1721 C 196.678 0.942776 -1.70695 0
M  V30 1722 O 195.948 1.66374 -1.03424 0
M  V30 1723 H 194.528 -0.186533 -0.723336 0
M  V30 1724 H 197.19 -1.13621 -1.58355 0
M  V30 1725 H 196.286 -0.688342 -3.04415 0
M  V30 1726 N 196.587 1.43421 -0.653314 0
M  V30 1727 C 197.55 2.29182 0.0287951 0
M  V30 1728 C 198.55 1.42213 0.750465 0
M  V30 1729 O 199.74 1.63843 0.591701 0
M  V30 1730 C 196.872 3.24278 1.05151 0
M  V30 1731 H 198.065 2.90985 -0.725786 0
M  V30 1732 H 195.618 1.50702 -0.414545 0
M  V30 1733 H 196.353 2.6737 1.83532 0
M  V30 1734 H 196.138 3.88396 0.537687 0
M  V30 1735 H 197.628 3.88647 1.52786 0
M  V30 1736 N 198.065 0.39524 1.52563 0
M  V30 1737 C 199.311 -0.185318 2.01952 0
M  V30 1738 C 199.644 -1.45964 1.28095 0
M  V30 1739 O 198.919 -1.90689 0.38315 0
M  V30 1740 C 199.202 -0.447193 3.57312 0
M  V30 1741 C 199.055 0.842828 4.41833 0
M  V30 1742 C 200.374 -1.23529 4.22408 0
M  V30 1743 H 197.493 -0.0658788 0.73405 0
M  V30 1744 H 200.135 0.525975 1.82575 0
M  V30 1745 H 198.285 -1.05312 3.73954 0
M  V30 1746 H 199.957 1.4795 4.36931 0
M  V30 1747 H 198.2 1.45686 4.08605 0
M  V30 1748 H 198.871 0.614165 5.48573 0
M  V30 1749 H 201.347 -0.722445 4.0978 0
M  V30 1750 H 200.223 -1.38727 5.3108 0
M  V30 1751 H 200.484 -2.25213 3.80436 0
M  V30 1752 N 199.544 -1.57102 0.125237 0
M  V30 1753 C 200.791 -1.95407 -0.531248 0
M  V30 1754 C 201.119 -1.0089 -1.66287 0
M  V30 1755 O 200.374 -0.0339431 -1.95671 0
M  V30 1756 C 200.673 -3.40096 -1.09862 0
M  V30 1757 C 200.339 -4.50815 -0.0876989 0
M  V30 1758 C 199.001 -4.80824 0.19026 0
M  V30 1759 C 201.353 -5.17724 0.600902 0
M  V30 1760 C 198.681 -5.75058 1.163 0
M  V30 1761 C 201.033 -6.13005 1.56231 0
M  V30 1762 C 199.697 -6.41403 1.8482 0
M  V30 1763 H 198.967 -0.715046 -0.194397 0
M  V30 1764 H 201.614 -1.90373 0.207463 0
M  V30 1765 H 199.919 -3.41855 -1.91422 0
M  V30 1766 H 201.616 -3.6705 -1.61478 0
M  V30 1767 H 198.206 -4.27444 -0.314528 0
M  V30 1768 H 202.39 -4.94691 0.399333 0
M  V30 1769 H 197.646 -5.95362 1.39117 0
M  V30 1770 H 201.82 -6.63934 2.10153 0
M  V30 1771 H 199.447 -7.14229 2.60349 0
M  V30 1772 N 201.022 0.148545 -1.56898 0
M  V30 1773 C 202.299 0.890019 -1.74178 0
M  V30 1774 C 202.679 1.99407 -0.692839 0
M  V30 1775 O 202.027 2.26671 0.288505 0
M  V30 1776 C 202.237 1.43389 -3.18183 0
M  V30 1777 C 203.585 1.89791 -3.79822 0
M  V30 1778 O 204.609 1.53134 -3.21603 0
M  V30 1779 O 203.468 2.57387 -4.82093 0
M  V30 1780 H 200.562 0.420496 -0.712118 0
M  V30 1781 H 203.108 0.134591 -1.69165 0
M  V30 1782 H 201.88 0.640383 -3.86024 0
M  V30 1783 H 201.503 2.25287 -3.27615 0
M  V30 1784 N 202.5 1.5196 0.417844 0
M  V30 1785 C 203.749 1.6482 1.16264 0
M  V30 1786 C 204.062 0.379886 1.91876 0
M  V30 1787 O 205.268 0.388154 2.68711 0
M  V30 1788 C 203.724 2.91161 2.1155 0
M  V30 1789 C 203.332 4.25068 1.41495 0
M  V30 1790 C 205.076 3.13383 2.86341 0
M  V30 1791 C 202.983 5.42541 2.35379 0
M  V30 1792 H 201.913 0.613954 0.437694 0
M  V30 1793 H 204.564 1.78442 0.427871 0
M  V30 1794 H 202.946 2.71218 2.88543 0
M  V30 1795 H 204.12 4.55463 0.699263 0
M  V30 1796 H 202.435 4.0888 0.787792 0
M  V30 1797 H 205.032 3.98324 3.5671 0
M  V30 1798 H 205.375 2.27256 3.48798 0
M  V30 1799 H 205.908 3.33757 2.1645 0
M  V30 1800 H 202.647 6.30987 1.77582 0
M  V30 1801 H 202.167 5.16497 3.04945 0
M  V30 1802 H 203.846 5.75272 2.96093 0
M  V30 1803 N 203.978 -0.674533 1.42435 0
M  V30 1804 C 204.941 -1.76986 1.45632 0
M  V30 1805 C 205.941 -1.5708 0.343871 0
M  V30 1806 O 207.131 -1.63367 0.604709 0
M  V30 1807 C 204.263 -3.15623 1.28822 0
M  V30 1808 H 205.456 -1.75539 2.43158 0
M  V30 1809 H 203.009 -0.884189 1.28887 0
M  V30 1810 H 203.744 -3.22696 0.322193 0
M  V30 1811 H 203.529 -3.31475 2.09444 0
M  V30 1812 H 205.019 -3.95537 1.33942 0
M  V30 1813 N 205.456 -1.28612 -0.910864 0
M  V30 1814 C 206.872 -1.06381 -1.18976 0
M  V30 1815 C 207.072 0.191998 -2.00583 0
M  V30 1816 O 206.128 0.892869 -2.36187 0
M  V30 1817 C 207.441 -2.31295 -1.92154 0
M  V30 1818 C 208.989 -2.36503 -2.05025 0
M  V30 1819 C 209.464 -3.61191 -2.81612 0
M  V30 1820 N 210.955 -3.61847 -2.89172 0
M  V30 1821 C 211.69 -4.55004 -3.4894 0
M  V30 1822 N 211.186 -5.58482 -4.09963 0
M  V30 1823 N 212.979 -4.42594 -3.46506 0
M  V30 1824 H 205.13 -2.09221 -0.366094 0
M  V30 1825 H 207.393 -0.921003 -0.224629 0
M  V30 1826 H 207.099 -3.228 -1.39618 0
M  V30 1827 H 206.973 -2.37934 -2.9269 0
M  V30 1828 H 209.36 -1.45494 -2.5674 0
M  V30 1829 H 209.441 -2.33857 -1.03657 0
M  V30 1830 H 209.085 -4.52545 -2.30576 0
M  V30 1831 H 209.015 -3.61092 -3.83302 0
M  V30 1832 H 211.506 -2.87022 -2.45819 0
M  V30 1833 H 211.819 -6.25704 -4.53557 0
M  V30 1834 H 210.164 -5.62305 -4.08459 0
M  V30 1835 H 213.355 -3.60953 -2.98045 0
M  V30 1836 H 213.528 -5.15381 -3.92793 0
M  V30 1837 N 206.934 1.1197 -1.10907 0
M  V30 1838 C 208.345 1.65114 -0.871446 0
M  V30 1839 C 208.696 1.86885 0.597353 0
M  V30 1840 O 207.821 1.59896 1.45816 0
M  V30 1841 C 208.416 2.99944 -1.5754 0
M  V30 1842 C 206.975 3.50018 -1.38435 0
M  V30 1843 C 206.122 2.24941 -1.62164 0
M  V30 1844 H 209.073 0.956851 -1.2661 0
M  V30 1845 H 209.094 3.66651 -1.01721 0
M  V30 1846 H 208.606 2.84067 -2.64438 0
M  V30 1847 H 206.707 3.71071 -0.337214 0
M  V30 1848 H 206.82 4.29165 -2.12965 0
M  V30 1849 H 205.184 2.3229 -1.04467 0
M  V30 1850 H 205.967 2.11612 -2.70324 0
M  V30 1851 N 208.412 0.89855 1.29475 0
M  V30 1852 C 209.64 0.539261 1.99749 0
M  V30 1853 C 210.055 -0.875716 1.67262 0
M  V30 1854 O 209.412 -1.57786 0.917049 0
M  V30 1855 C 209.463 0.72061 3.54245 0
M  V30 1856 O 209.184 2.07989 3.8558 0
M  V30 1857 C 210.685 0.366118 4.41786 0
M  V30 1858 H 207.905 0.207047 0.638258 0
M  V30 1859 H 210.449 1.20758 1.65039 0
M  V30 1860 H 208.604 0.0994862 3.87272 0
M  V30 1861 H 209.018 2.10841 4.80257 0
M  V30 1862 H 210.492 0.543848 5.49314 0
M  V30 1863 H 210.969 -0.696763 4.33638 0
M  V30 1864 H 211.575 0.964135 4.14228 0
M  V30 1865 N 209.89 -1.43072 0.660911 0
M  V30 1866 C 211.118 -2.06067 0.185422 0
M  V30 1867 C 211.533 -1.49582 -1.15198 0
M  V30 1868 O 210.89 -0.630134 -1.71276 0
M  V30 1869 C 210.941 -3.61371 0.0966523 0
M  V30 1870 O 210.662 -4.15758 1.38119 0
M  V30 1871 C 212.163 -4.41455 -0.403996 0
M  V30 1872 H 209.383 -0.664459 0.0934604 0
M  V30 1873 H 211.927 -1.83447 0.90373 0
M  V30 1874 H 210.082 -3.8315 -0.572259 0
M  V30 1875 H 210.496 -5.09499 1.24542 0
M  V30 1876 H 211.97 -5.50437 -0.415045 0
M  V30 1877 H 212.447 -4.15036 -1.43674 0
M  V30 1878 H 213.053 -4.24663 0.232691 0
M  V30 1879 N 211.368 -0.403325 -1.52352 0
M  V30 1880 C 212.298 0.416205 -2.29761 0
M  V30 1881 C 213.279 1.05123 -1.33728 0
M  V30 1882 O 214.464 1.06134 -1.62632 0
M  V30 1883 C 211.594 1.53624 -3.11475 0
M  V30 1884 C 210.548 1.02653 -4.15507 0
M  V30 1885 C 209.874 2.23971 -4.85532 0
M  V30 1886 C 211.174 0.08463 -5.22231 0
M  V30 1887 H 212.868 -0.229701 -2.98518 0
M  V30 1888 H 210.414 -0.111913 -1.43564 0
M  V30 1889 H 212.367 2.1165 -3.64393 0
M  V30 1890 H 211.091 2.20994 -2.40477 0
M  V30 1891 H 209.75 0.46871 -3.63591 0
M  V30 1892 H 209.398 2.89883 -4.11068 0
M  V30 1893 H 209.098 1.90521 -5.55856 0
M  V30 1894 H 210.622 2.82614 -5.41259 0
M  V30 1895 H 212.036 0.573509 -5.70424 0
M  V30 1896 H 210.433 -0.160783 -5.99885 0
M  V30 1897 H 211.503 -0.86237 -4.7717 0
M  V30 1898 N 212.846 1.57033 -0.133567 0
M  V30 1899 C 213.756 2.19632 0.824564 0
M  V30 1900 C 214.772 1.17666 1.28182 0
M  V30 1901 O 215.948 1.50193 1.3418 0
M  V30 1902 C 213.013 2.79499 2.05137 0
M  V30 1903 C 212.074 3.96548 1.64464 0
M  V30 1904 C 211.307 4.5355 2.81297 0
M  V30 1905 O 211.53 4.09438 3.97136 0
M  V30 1906 O 210.464 5.44018 2.57542 0
M  V30 1907 H 214.29 3.01991 0.321766 0
M  V30 1908 H 211.875 1.49112 0.0927889 0
M  V30 1909 H 213.757 3.17602 2.7696 0
M  V30 1910 H 212.432 2.00162 2.54395 0
M  V30 1911 H 211.339 3.63186 0.897048 0
M  V30 1912 H 212.672 4.77364 1.19934 0
M  V30 1913 N 214.325 -0.140222 1.56975 0
M  V30 1914 C 215.602 -0.880769 1.74648 0
M  V30 1915 C 215.982 -1.99036 0.703404 0
M  V30 1916 O 215.33 -2.26821 -0.27648 0
M  V30 1917 C 215.54 -1.417 3.18939 0
M  V30 1918 C 216.888 -1.87774 3.80823 0
M  V30 1919 O 217.912 -1.51427 3.2241 0
M  V30 1920 O 216.771 -2.54827 4.83452 0
M  V30 1921 H 213.865 -0.416713 0.714338 0
M  V30 1922 H 216.411 -0.125618 1.69234 0
M  V30 1923 H 215.183 -0.619902 3.86359 0
M  V30 1924 H 214.806 -2.23546 3.28805 0
M  V30 1925 N 215.803 -1.52179 -0.40978 0
M  V30 1926 C 216.766 -1.74853 -1.48186 0
M  V30 1927 C 217.766 -0.618417 -1.48433 0
M  V30 1928 O 218.956 -0.886286 -1.49969 0
M  V30 1929 C 216.088 -1.8303 -2.87598 0
M  V30 1930 H 217.281 -2.70559 -1.29374 0
M  V30 1931 H 214.834 -1.42586 -0.640233 0
M  V30 1932 H 215.569 -0.89236 -3.11781 0
M  V30 1933 H 215.354 -2.65187 -2.88822 0
M  V30 1934 H 216.844 -2.02316 -3.65319 0
M  V30 1935 N 217.281 0.66697 -1.42791 0
M  V30 1936 C 218.527 1.4291 -1.43891 0
M  V30 1937 C 218.86 1.94114 -0.0578972 0
M  V30 1938 O 218.135 1.71414 0.91911 0
M  V30 1939 C 218.418 2.62049 -2.46987 0
M  V30 1940 C 218.271 2.16426 -3.94309 0
M  V30 1941 C 219.59 3.64266 -2.46978 0
M  V30 1942 H 216.709 0.518306 -0.523954 0
M  V30 1943 H 219.351 0.757321 -1.74255 0
M  V30 1944 H 217.501 3.19361 -2.21225 0
M  V30 1945 H 219.173 1.64221 -4.31079 0
M  V30 1946 H 217.416 1.47925 -4.078 0
M  V30 1947 H 218.087 3.02038 -4.62036 0
M  V30 1948 H 220.563 3.16686 -2.69906 0
M  V30 1949 H 219.439 4.45196 -3.21079 0
M  V30 1950 H 219.7 4.15927 -1.49857 0
M  V30 1951 N 218.759 1.29093 0.90403 0
M  V30 1952 C 220.008 1.16187 1.64874 0
M  V30 1953 C 220.321 -0.286742 1.93487 0
M  V30 1954 O 221.527 -0.537062 2.66135 0
M  V30 1955 C 219.983 2.03177 2.97064 0
M  V30 1956 C 219.591 3.52836 2.76062 0
M  V30 1957 C 221.335 1.98984 3.74974 0
M  V30 1958 C 219.242 4.31945 4.03952 0
M  V30 1959 H 218.172 0.431246 0.618501 0
M  V30 1960 H 220.823 1.53699 1.00243 0
M  V30 1961 H 219.205 1.5853 3.62883 0
M  V30 1962 H 220.379 4.05507 2.18863 0
M  V30 1963 H 218.694 3.58656 2.11553 0
M  V30 1964 H 221.291 2.55351 4.69787 0
M  V30 1965 H 221.634 0.968815 4.0487 0
M  V30 1966 H 222.167 2.41652 3.15989 0
M  V30 1967 H 218.906 5.34667 3.79225 0
M  V30 1968 H 218.426 3.84045 4.60727 0
M  V30 1969 H 220.105 4.42379 4.72133 0
M  V30 1970 N 220.237 -1.11381 1.11499 0
M  V30 1971 C 221.2 -2.15622 0.777153 0
M  V30 1972 C 222.2 -1.59504 -0.203779 0
M  V30 1973 O 223.39 -1.74188 0.020782 0
M  V30 1974 C 220.522 -3.40556 0.153116 0
M  V30 1975 H 221.715 -2.47021 1.70061 0
M  V30 1976 H 219.268 -1.26577 0.916952 0
M  V30 1977 H 220.003 -3.14767 -0.780536 0
M  V30 1978 H 219.788 -3.8257 0.859238 0
M  V30 1979 H 221.278 -4.17546 -0.0671044 0
M  V30 1980 N 221.715 -0.905404 -1.28997 0
M  V30 1981 C 222.648 -0.331959 -2.25773 0
M  V30 1982 C 223.626 0.559099 -1.52685 0
M  V30 1983 O 224.81 0.50463 -1.8162 0
M  V30 1984 C 221.937 0.526276 -3.34586 0
M  V30 1985 C 220.983 -0.298249 -4.25456 0
M  V30 1986 S 221.816 -1.69968 -5.0781 0
M  V30 1987 C 222.972 -0.848519 -6.20122 0
M  V30 1988 H 223.205 -1.15222 -2.74064 0
M  V30 1989 H 220.738 -0.706112 -1.37308 0
M  V30 1990 H 222.696 1.01565 -3.97737 0
M  V30 1991 H 221.357 1.32084 -2.84978 0
M  V30 1992 H 220.55 0.357607 -5.0273 0
M  V30 1993 H 220.152 -0.720968 -3.66985 0
M  V30 1994 H 222.444 -0.0744325 -6.77459 0
M  V30 1995 H 223.387 -1.59353 -6.89937 0
M  V30 1996 H 223.795 -0.400383 -5.63078 0
M  V30 1997 N 223.193 1.4272 -0.668489 0
M  V30 1998 C 224.439 2.01923 -0.188419 0
M  V30 1999 C 224.772 1.52704 1.19979 0
M  V30 2000 O 224.047 0.726566 1.8042 0
M  V30 2001 C 224.33 3.59451 -0.216085 0
M  V30 2002 C 224.183 4.18864 -1.6393 0
M  V30 2003 C 225.502 4.37903 0.439179 0
M  V30 2004 H 222.621 0.733674 -0.0699412 0
M  V30 2005 H 225.263 1.69822 -0.852076 0
M  V30 2006 H 223.413 3.86929 0.349012 0
M  V30 2007 H 225.085 4.02362 -2.25616 0
M  V30 2008 H 223.328 3.74933 -2.18193 0
M  V30 2009 H 223.999 5.27987 -1.61039 0
M  V30 2010 H 226.475 4.16079 -0.0417878 0
M  V30 2011 H 225.351 5.47519 0.389157 0
M  V30 2012 H 225.612 4.15303 1.51577 0
M  V30 2013 N 224.671 0.411399 1.52136 0
M  V30 2014 C 225.917 -0.163888 2.02137 0
M  V30 2015 C 226.25 -1.44597 1.29636 0
M  V30 2016 O 225.525 -1.90272 0.403353 0
M  V30 2017 C 225.808 -0.40927 3.57767 0
M  V30 2018 C 225.661 0.889643 4.40914 0
M  V30 2019 C 226.98 -1.19042 4.23694 0
M  V30 2020 H 224.099 -0.0580896 0.734707 0
M  V30 2021 H 226.741 0.54531 1.82007 0
M  V30 2022 H 224.891 -1.0134 3.7505 0
M  V30 2023 H 226.563 1.52575 4.35337 0
M  V30 2024 H 224.806 1.50011 4.07037 0
M  V30 2025 H 225.477 0.672314 5.4789 0
M  V30 2026 H 227.953 -0.678942 4.10524 0
M  V30 2027 H 226.829 -1.33086 5.32522 0
M  V30 2028 H 227.09 -2.21166 3.82803 0
M  V30 2029 N 226.149 -1.5696 0.141893 0
M  V30 2030 C 227.097 -2.17784 -0.816874 0
M  V30 2031 C 228.091 -1.1334 -1.25899 0
M  V30 2032 O 229.297 -1.316 -1.22806 0
M  V30 2033 H 225.672 -0.697278 -0.281615 0
M  V30 2034 H 227.643 -2.97087 -0.279621 0
M  V30 2035 C 226.392 -2.80983 -2.04802 0
M  V30 2036 H 225.715 -3.61062 -1.7168 0
M  V30 2037 H 227.155 -3.2705 -2.69841 0
M  V30 2038 C 225.614 -1.79228 -2.8527 0
M  V30 2039 O 226.144 -1.25962 -3.8144 0
M  V30 2040 N 224.35 -1.48647 -2.49704 0
M  V30 2041 H 223.897 -1.92155 -1.71564 0
M  V30 2042 H 223.855 -0.808115 -3.03837 0
M  V30 2043 N 227.627 0.131896 -1.57047 0
M  V30 2044 C 228.873 0.843179 -1.84441 0
M  V30 2045 C 229.206 1.80129 -0.725749 0
M  V30 2046 O 228.481 1.92624 0.269469 0
M  V30 2047 C 228.764 1.60442 -3.22382 0
M  V30 2048 C 228.617 0.666782 -4.4483 0
M  V30 2049 C 229.936 2.56354 -3.5773 0
M  V30 2050 H 227.055 0.305081 -0.670891 0
M  V30 2051 H 229.697 0.107839 -1.89694 0
M  V30 2052 H 227.847 2.23128 -3.18035 0
M  V30 2053 H 229.519 0.0497646 -4.61273 0
M  V30 2054 H 227.762 -0.022609 -4.33794 0
M  V30 2055 H 228.433 1.23579 -5.37989 0
M  V30 2056 H 230.909 2.0378 -3.62785 0
M  V30 2057 H 229.785 3.06657 -4.5525 0
M  V30 2058 H 230.046 3.38419 -2.84473 0
M  V30 2059 N 229.106 1.52395 0.401703 0
M  V30 2060 C 230.331 1.70972 1.17403 0
M  V30 2061 C 230.756 0.421615 1.83314 0
M  V30 2062 O 230.114 -0.621564 1.70312 0
M  V30 2063 C 230.162 2.85151 2.20728 0
M  V30 2064 O 229.266 2.51238 3.27037 0
M  V30 2065 H 228.607 0.568927 0.342372 0
M  V30 2066 H 231.137 1.99131 0.469891 0
M  V30 2067 H 231.147 3.10279 2.64936 0
M  V30 2068 H 229.822 3.78603 1.7214 0
M  V30 2069 H 228.399 2.36808 2.88057 0
M  V30 2070 N 230.584 -0.659388 1.43143 0
M  V30 2071 C 231.547 -1.75432 1.47501 0
M  V30 2072 C 232.547 -1.56707 0.360512 0
M  V30 2073 O 233.737 -1.62717 0.622002 0
M  V30 2074 C 230.869 -3.14239 1.32162 0
M  V30 2075 H 232.062 -1.7295 2.45006 0
M  V30 2076 H 229.615 -0.870469 1.29817 0
M  V30 2077 H 230.35 -3.22336 0.356401 0
M  V30 2078 H 230.135 -3.29235 2.12948 0
M  V30 2079 H 231.625 -3.94094 1.3813 0
M  V30 2080 N 232.062 -1.29571 -0.897171 0
M  V30 2081 C 232.972 -1.16808 -2.03453 0
M  V30 2082 C 233.988 -0.0907471 -1.73763 0
M  V30 2083 O 235.164 -0.303312 -1.99103 0
M  V30 2084 C 232.229 -0.848264 -3.36163 0
M  V30 2085 C 231.29 -2.0097 -3.79354 0
M  V30 2086 C 230.523 -1.70505 -5.05731 0
M  V30 2087 O 230.746 -0.62718 -5.66941 0
M  V30 2088 O 229.68 -2.5538 -5.45036 0
M  V30 2089 H 233.506 -2.12325 -2.17144 0
M  V30 2090 H 231.091 -1.09047 -1.02123 0
M  V30 2091 H 232.973 -0.684581 -4.15802 0
M  V30 2092 H 231.648 0.0771071 -3.23608 0
M  V30 2093 H 230.555 -2.22863 -3.00471 0
M  V30 2094 H 231.888 -2.91636 -3.96496 0
M  V30 2095 N 233.54 1.10788 -1.12088 0
M  V30 2096 C 234.787 1.82671 -0.873931 0
M  V30 2097 C 235.115 1.85004 0.600311 0
M  V30 2098 O 234.37 1.30365 1.45957 0
M  V30 2099 C 234.669 3.29294 -1.38926 0
M  V30 2100 C 234.335 3.47113 -2.87791 0
M  V30 2101 C 232.997 3.51684 -3.28439 0
M  V30 2102 C 235.349 3.52808 -3.83635 0
M  V30 2103 C 232.677 3.59513 -4.63646 0
M  V30 2104 C 235.029 3.62169 -5.18668 0
M  V30 2105 C 233.693 3.65003 -5.58864 0
M  V30 2106 H 232.963 0.668441 -0.319794 0
M  V30 2107 H 235.61 1.30613 -1.40045 0
M  V30 2108 H 233.915 3.83894 -0.783122 0
M  V30 2109 H 235.612 3.83416 -1.17443 0
M  V30 2110 H 232.202 3.4423 -2.5535 0
M  V30 2111 H 236.386 3.4853 -3.53328 0
M  V30 2112 H 231.642 3.59987 -4.94185 0
M  V30 2113 H 235.816 3.6552 -5.92763 0
M  V30 2114 H 233.443 3.70822 -6.63623 0
M  V30 2115 N 235.018 0.912232 1.28515 0
M  V30 2116 C 235.965 0.397954 2.27343 0
M  V30 2117 C 236.935 -0.526766 1.57526 0
M  V30 2118 O 238.12 -0.449292 1.85435 0
M  V30 2119 C 235.26 -0.357263 3.43246 0
M  V30 2120 C 234.373 0.599788 4.27816 0
M  V30 2121 C 233.508 -0.173725 5.30916 0
M  V30 2122 C 232.547 0.777039 6.07148 0
M  V30 2123 N 231.684 0.0371398 7.0209 0
M  V30 2124 H 236.524 1.24577 2.70711 0
M  V30 2125 H 234.061 0.625612 1.33133 0
M  V30 2126 H 236.019 -0.8113 4.09236 0
M  V30 2127 H 234.649 -1.16943 3.00872 0
M  V30 2128 H 233.701 1.17235 3.61884 0
M  V30 2129 H 235.013 1.32704 4.80823 0
M  V30 2130 H 234.167 -0.688394 6.02782 0
M  V30 2131 H 232.906 -0.934041 4.78672 0
M  V30 2132 H 231.911 1.3031 5.34134 0
M  V30 2133 H 233.136 1.53689 6.61481 0
M  V30 2134 H 231.082 -0.705213 6.52198 0
M  V30 2135 H 230.999 0.704249 7.52713 0
M  V30 2136 H 232.267 -0.457383 7.78157 0
M  V30 2137 N 236.496 -1.42363 0.676048 0
M  V30 2138 C 237.459 -2.29199 0.00766941 0
M  V30 2139 C 238.459 -1.43389 -0.727745 0
M  V30 2140 O 239.649 -1.64764 -0.56556 0
M  V30 2141 C 236.781 -3.2591 -0.999785 0
M  V30 2142 H 237.974 -2.89794 0.771988 0
M  V30 2143 H 235.527 -1.50024 0.438468 0
M  V30 2144 H 236.262 -2.70256 -1.79255 0
M  V30 2145 H 236.047 -3.89202 -0.475829 0
M  V30 2146 H 237.537 -3.91028 -1.46583 0
M  V30 2147 N 237.974 -0.419461 -1.51915 0
M  V30 2148 C 239.199 0.154572 -2.06823 0
M  V30 2149 C 239.624 1.3722 -1.28656 0
M  V30 2150 O 238.982 1.78461 -0.319583 0
M  V30 2151 C 239.03 0.473172 -3.57482 0
M  V30 2152 O 238.134 1.56255 -3.81652 0
M  V30 2153 H 237.475 0.0096924 -0.663929 0
M  V30 2154 H 240.005 -0.595642 -1.95738 0
M  V30 2155 H 240.015 0.728825 -4.01438 0
M  V30 2156 H 238.69 -0.416873 -4.13805 0
M  V30 2157 H 237.267 1.29825 -3.49571 0
M  V30 2158 N 239.452 1.56882 -0.150215 0
M  V30 2159 C 240.362 2.20494 0.801222 0
M  V30 2160 C 241.378 1.19019 1.26927 0
M  V30 2161 O 242.554 1.51607 1.32579 0
M  V30 2162 C 239.619 2.81659 2.02161 0
M  V30 2163 C 238.68 3.9827 1.60249 0
M  V30 2164 C 237.913 4.56508 2.7647 0
M  V30 2165 O 238.136 4.13627 3.92771 0
M  V30 2166 O 237.07 5.46719 2.51757 0
M  V30 2167 H 240.896 3.02315 0.289717 0
M  V30 2168 H 238.481 1.49202 0.0769684 0
M  V30 2169 H 240.363 3.20522 2.73576 0
M  V30 2170 H 239.038 2.02849 2.52258 0
M  V30 2171 H 237.945 3.64117 0.858477 0
M  V30 2172 H 239.278 4.78609 1.14864 0
M  V30 2173 N 240.93 -0.123565 1.57115 0
M  V30 2174 C 241.893 -1.13583 1.99076 0
M  V30 2175 C 242.893 -1.34564 0.880296 0
M  V30 2176 O 244.083 -1.31158 1.14644 0
M  V30 2177 C 241.215 -2.49128 2.32698 0
M  V30 2178 H 242.408 -0.775287 2.89706 0
M  V30 2179 H 239.961 -0.36771 1.51913 0
M  V30 2180 H 240.696 -2.90111 1.44934 0
M  V30 2181 H 240.481 -2.35255 3.13684 0
M  V30 2182 H 241.971 -3.2199 2.65918 0
M  V30 2183 N 242.408 -1.52605 -0.393616 0
M  V30 2184 C 243.356 -1.77688 -1.50099 0
M  V30 2185 C 244.35 -0.644615 -1.56656 0
M  V30 2186 O 245.556 -0.826997 -1.59877 0
M  V30 2187 H 241.931 -0.562159 -0.499481 0
M  V30 2188 H 243.902 -2.7043 -1.26135 0
M  V30 2189 C 242.651 -1.95858 -2.87289 0
M  V30 2190 H 241.974 -2.8241 -2.82992 0
M  V30 2191 H 243.414 -2.174 -3.64024 0
M  V30 2192 C 241.873 -0.729848 -3.28899 0
M  V30 2193 O 242.403 0.0949217 -4.01588 0
M  V30 2194 N 240.609 -0.561283 -2.85128 0
M  V30 2195 H 240.156 -1.23357 -2.26143 0
M  V30 2196 H 240.114 0.2595 -3.13327 0
M  V30 2197 N 243.887 0.651787 -1.4349 0
M  V30 2198 C 244.817 1.77621 -1.51569 0
M  V30 2199 C 245.798 1.66022 -0.370253 0
M  V30 2200 O 246.983 1.85095 -0.587658 0
M  V30 2201 C 244.113 3.16056 -1.43966 0
M  V30 2202 C 243.067 3.4242 -2.56774 0
M  V30 2203 C 242.393 4.8067 -2.34223 0
M  V30 2204 C 243.693 3.37023 -3.99015 0
M  V30 2205 H 245.387 1.71117 -2.45681 0
M  V30 2206 H 242.933 0.821825 -1.18246 0
M  V30 2207 H 244.886 3.94472 -1.48221 0
M  V30 2208 H 243.61 3.23293 -0.463586 0
M  V30 2209 H 242.269 2.66375 -2.51873 0
M  V30 2210 H 241.917 4.84585 -1.34856 0
M  V30 2211 H 241.617 4.9927 -3.09844 0
M  V30 2212 H 243.141 5.61342 -2.40265 0
M  V30 2213 H 244.555 4.05374 -4.05395 0
M  V30 2214 H 242.952 3.67159 -4.74673 0
M  V30 2215 H 244.022 2.3518 -4.2405 0
M  V30 2216 N 245.365 1.30045 0.890287 0
M  V30 2217 C 246.297 1.11786 2.00091 0
M  V30 2218 C 247.31 0.0626307 1.62679 0
M  V30 2219 O 248.499 0.308112 1.75821 0
M  V30 2220 C 245.599 0.681527 3.31977 0
M  V30 2221 C 244.772 1.81735 3.97858 0
M  V30 2222 C 243.831 1.37045 5.08041 0
M  V30 2223 O 242.857 2.07677 5.29961 0
M  V30 2224 N 244.059 0.246525 5.79976 0
M  V30 2225 H 246.824 2.07441 2.16306 0
M  V30 2226 H 244.385 1.2211 1.06305 0
M  V30 2227 H 246.377 0.365675 4.03045 0
M  V30 2228 H 244.947 -0.182828 3.12065 0
M  V30 2229 H 244.167 2.30159 3.20032 0
M  V30 2230 H 245.455 2.57865 4.38615 0
M  V30 2231 H 244.853 -0.34215 5.64664 0
M  V30 2232 H 243.41 -0.00990438 6.51799 0
M  V30 2233 N 246.843 -1.10192 1.12674 0
M  V30 2234 C 248.092 -1.81573 0.8783 0
M  V30 2235 C 248.405 -1.86249 -0.597557 0
M  V30 2236 O 249.611 -2.5386 -0.962681 0
M  V30 2237 C 248.067 -3.26149 1.52167 0
M  V30 2238 C 247.675 -3.29763 3.03249 0
M  V30 2239 C 249.419 -4.0234 1.3536 0
M  V30 2240 C 247.326 -4.68815 3.60508 0
M  V30 2241 H 246.256 -0.680394 0.324931 0
M  V30 2242 H 248.907 -1.23902 1.35353 0
M  V30 2243 H 247.289 -3.83832 0.974104 0
M  V30 2244 H 248.463 -2.8189 3.6452 0
M  V30 2245 H 246.778 -2.67059 3.19481 0
M  V30 2246 H 249.375 -5.05058 1.75559 0
M  V30 2247 H 249.718 -4.15235 0.297554 0
M  V30 2248 H 250.251 -3.51079 1.87052 0
M  V30 2249 H 246.99 -4.61121 4.65884 0
M  V30 2250 H 246.51 -5.17045 3.04014 0
M  V30 2251 H 248.189 -5.37785 3.59717 0
M  V30 2252 N 248.321 -0.919034 -1.28029 0
M  V30 2253 C 249.568 -0.554934 -1.94748 0
M  V30 2254 C 249.896 0.90231 -1.72304 0
M  V30 2255 O 249.151 1.65767 -1.04018 0
M  V30 2256 C 249.45 -0.816855 -3.4794 0
M  V30 2257 C 249.116 -2.25448 -3.90492 0
M  V30 2258 C 247.778 -2.64752 -4.01821 0
M  V30 2259 C 250.13 -3.18977 -4.12193 0
M  V30 2260 C 247.458 -3.96727 -4.32232 0
M  V30 2261 C 249.81 -4.50523 -4.44086 0
M  V30 2262 C 248.474 -4.89673 -4.53626 0
M  V30 2263 H 247.744 -0.203065 -0.712633 0
M  V30 2264 H 250.391 -1.16136 -1.52265 0
M  V30 2265 H 248.696 -0.127677 -3.91592 0
M  V30 2266 H 250.393 -0.514238 -3.97689 0
M  V30 2267 H 246.983 -1.93952 -3.82205 0
M  V30 2268 H 251.167 -2.89817 -4.02889 0
M  V30 2269 H 246.423 -4.26754 -4.37825 0
M  V30 2270 H 250.597 -5.23005 -4.59825 0
M  V30 2271 H 248.224 -5.91969 -4.76946 0
M  V30 2272 N 249.799 1.42003 -0.683588 0
M  V30 2273 C 250.762 2.29191 -0.0198243 0
M  V30 2274 C 251.762 1.43773 0.72013 0
M  V30 2275 O 252.952 1.65061 0.556815 0
M  V30 2276 C 250.084 3.26435 0.982487 0
M  V30 2277 H 251.277 2.8938 -0.787345 0
M  V30 2278 H 248.83 1.49789 -0.446418 0
M  V30 2279 H 249.565 2.71203 1.77819 0
M  V30 2280 H 249.35 3.89449 0.455182 0
M  V30 2281 H 250.84 3.918 1.44508 0
M  V30 2282 N 251.277 0.427512 1.51691 0
M  V30 2283 C 252.209 -0.424521 2.25234 0
M  V30 2284 C 253.222 -0.994671 1.2888 0
M  V30 2285 O 254.411 -0.890483 1.54702 0
M  V30 2286 C 251.511 -1.60479 2.98496 0
M  V30 2287 C 250.684 -1.15527 4.21868 0
M  V30 2288 C 249.743 -2.20454 4.77793 0
M  V30 2289 O 248.769 -1.8029 5.39893 0
M  V30 2290 N 249.971 -3.52831 4.60967 0
M  V30 2291 H 252.736 0.205749 2.98993 0
M  V30 2292 H 250.297 0.255867 1.59865 0
M  V30 2293 H 252.289 -2.30276 3.32799 0
M  V30 2294 H 250.859 -2.14061 2.27809 0
M  V30 2295 H 250.079 -0.284736 3.9317 0
M  V30 2296 H 251.367 -0.832173 5.01949 0
M  V30 2297 H 250.765 -3.88201 4.11481 0
M  V30 2298 H 249.322 -4.18551 4.99658 0
M  V30 2299 N 252.755 -1.56801 0.158532 0
M  V30 2300 C 253.685 -2.20347 -0.772609 0
M  V30 2301 C 254.666 -1.15518 -1.24859 0
M  V30 2302 O 255.851 -1.43902 -1.30406 0
M  V30 2303 C 252.981 -2.83417 -2.00729 0
M  V30 2304 C 251.935 -3.94174 -1.66765 0
M  V30 2305 C 251.261 -4.44233 -2.97592 0
M  V30 2306 C 252.561 -5.14392 -0.905447 0
M  V30 2307 H 254.255 -2.98413 -0.242959 0
M  V30 2308 H 251.801 -1.43537 -0.115419 0
M  V30 2309 H 253.754 -3.26543 -2.6636 0
M  V30 2310 H 252.478 -2.02701 -2.56086 0
M  V30 2311 H 251.137 -3.51684 -1.03508 0
M  V30 2312 H 250.785 -3.60325 -3.50963 0
M  V30 2313 H 250.485 -5.18945 -2.75626 0
M  V30 2314 H 252.009 -4.90037 -3.64274 0
M  V30 2315 H 253.423 -5.5429 -1.46408 0
M  V30 2316 H 251.82 -5.9494 -0.7853 0
M  V30 2317 H 252.89 -4.84795 0.100668 0
M  V30 2318 N 254.233 0.115231 -1.57178 0
M  V30 2319 C 255.18 1.14115 -2.00615 0
M  V30 2320 C 256.15 1.40939 -0.878941 0
M  V30 2321 O 257.335 1.52741 -1.14345 0
M  V30 2322 C 254.475 2.46156 -2.4187 0
M  V30 2323 C 253.588 2.26236 -3.68024 0
M  V30 2324 C 252.723 3.51534 -3.98243 0
M  V30 2325 C 251.762 3.26787 -5.17568 0
M  V30 2326 N 250.899 4.44298 -5.43639 0
M  V30 2327 H 255.739 0.763743 -2.88047 0
M  V30 2328 H 253.276 0.365615 -1.42484 0
M  V30 2329 H 255.234 3.23189 -2.63827 0
M  V30 2330 H 253.864 2.81783 -1.57475 0
M  V30 2331 H 252.916 1.40102 -3.5366 0
M  V30 2332 H 254.228 2.03929 -4.55208 0
M  V30 2333 H 253.382 4.36984 -4.20868 0
M  V30 2334 H 252.121 3.76876 -3.09541 0
M  V30 2335 H 251.126 2.39729 -4.94783 0
M  V30 2336 H 252.351 3.02812 -6.0785 0
M  V30 2337 H 250.297 4.69754 -4.57895 0
M  V30 2338 H 250.214 4.25109 -6.25154 0
M  V30 2339 H 251.482 5.3087 -5.70786 0
M  V30 2340 N 255.711 1.52812 0.385517 0
M  V30 2341 C 256.621 1.80766 1.49535 0
M  V30 2342 C 257.637 0.694651 1.59532 0
M  V30 2343 O 258.813 0.982611 1.75803 0
M  V30 2344 C 255.878 1.97381 2.85029 0
M  V30 2345 C 254.939 3.21295 2.84724 0
M  V30 2346 C 254.172 3.37108 4.13756 0
M  V30 2347 O 254.395 2.5765 5.08893 0
M  V30 2348 O 253.329 4.30378 4.20783 0
M  V30 2349 H 257.155 2.75015 1.28842 0
M  V30 2350 H 254.74 1.37946 0.573697 0
M  V30 2351 H 256.622 2.09996 3.65349 0
M  V30 2352 H 255.297 1.06322 3.05741 0
M  V30 2353 H 254.204 3.1412 2.03174 0
M  V30 2354 H 255.537 4.12212 2.68965 0
M  V30 2355 N 257.189 -0.644168 1.43834 0
M  V30 2356 C 258.466 -1.40188 1.36406 0
M  V30 2357 C 258.846 -2.11094 0.0163124 0
M  V30 2358 O 258.194 -2.05426 -1.00062 0
M  V30 2359 C 258.404 -2.3791 2.55343 0
M  V30 2360 C 259.752 -3.01637 2.98832 0
M  V30 2361 O 260.776 -2.48237 2.55455 0
M  V30 2362 O 259.635 -3.98477 3.74003 0
M  V30 2363 H 256.729 -0.626773 0.539523 0
M  V30 2364 H 259.275 -0.670317 1.559 0
M  V30 2365 H 258.047 -1.84525 3.4506 0
M  V30 2366 H 257.67 -3.18503 2.37995 0
M  V30 2367 N 258.668 -1.30515 -0.883378 0
M  V30 2368 C 259.914 -1.20617 -1.63778 0
M  V30 2369 C 260.269 0.236469 -1.90941 0
M  V30 2370 O 259.562 1.16596 -1.52039 0
M  V30 2371 C 259.756 -1.96994 -2.98209 0
M  V30 2372 C 259.585 -3.48537 -2.84169 0
M  V30 2373 C 258.355 -4.17893 -2.84067 0
M  V30 2374 C 260.553 -4.43738 -2.60001 0
M  V30 2375 N 258.535 -5.55685 -2.60936 0
M  V30 2376 C 259.906 -5.69105 -2.46007 0
M  V30 2377 C 261.961 -4.33316 -2.45239 0
M  V30 2378 C 260.664 -6.8523 -2.18752 0
M  V30 2379 C 262.69 -5.4921 -2.19369 0
M  V30 2380 C 262.052 -6.73558 -2.06153 0
M  V30 2381 H 258.151 -0.496434 -0.604216 0
M  V30 2382 H 260.735 -1.64544 -1.04083 0
M  V30 2383 H 258.906 -1.55455 -3.55933 0
M  V30 2384 H 260.638 -1.79225 -3.62851 0
M  V30 2385 H 257.393 -3.69739 -2.95956 0
M  V30 2386 H 257.817 -6.28199 -2.52378 0
M  V30 2387 H 262.459 -3.37856 -2.54191 0
M  V30 2388 H 260.177 -7.80729 -2.08537 0
M  V30 2389 H 263.763 -5.43054 -2.08766 0
M  V30 2390 H 262.643 -7.61721 -1.86416 0
M  V30 2391 N 260.146 1.09593 -1.13257 0
M  V30 2392 C 261.371 1.8604 -0.916732 0
M  V30 2393 C 261.796 1.80504 0.529146 0
M  V30 2394 O 261.154 1.18127 1.37534 0
M  V30 2395 C 261.202 3.32017 -1.40703 0
M  V30 2396 O 260.306 4.08141 -0.591153 0
M  V30 2397 H 259.647 0.576943 -0.328683 0
M  V30 2398 H 262.177 1.38405 -1.50682 0
M  V30 2399 H 262.187 3.82865 -1.4099 0
M  V30 2400 H 260.862 3.35361 -2.45979 0
M  V30 2401 H 259.439 3.67084 -0.656005 0
M  V30 2402 N 261.624 0.925811 1.2754 0
M  V30 2403 C 262.571 0.422045 2.26908 0
M  V30 2404 C 263.541 -0.510029 1.58076 0
M  V30 2405 O 264.726 -0.429599 1.85901 0
M  V30 2406 C 261.866 -0.320837 3.43605 0
M  V30 2407 C 260.979 0.64513 4.27156 0
M  V30 2408 C 260.114 -0.117405 5.3107 0
M  V30 2409 C 259.153 0.841391 6.0629 0
M  V30 2410 N 258.29 0.111604 7.02011 0
M  V30 2411 H 263.13 1.27441 2.69375 0
M  V30 2412 H 260.667 0.639697 1.32462 0
M  V30 2413 H 262.625 -0.76785 4.10073 0
M  V30 2414 H 261.255 -1.13745 3.02096 0
M  V30 2415 H 260.307 1.21067 3.6062 0
M  V30 2416 H 261.619 1.37797 4.79389 0
M  V30 2417 H 260.773 -0.624422 6.03478 0
M  V30 2418 H 259.512 -0.883219 4.79636 0
M  V30 2419 H 258.517 1.35967 5.32722 0
M  V30 2420 H 259.742 1.60696 6.59813 0
M  V30 2421 H 257.688 -0.635999 6.5291 0
M  V30 2422 H 257.605 0.784044 7.51923 0
M  V30 2423 H 258.873 -0.374823 7.78598 0
M  V30 2424 N 263.102 -1.41638 0.69111 0
M  V30 2425 C 264.35 -2.00902 0.219758 0
M  V30 2426 C 264.671 -1.54994 -1.18329 0
M  V30 2427 O 263.941 -0.778628 -1.79762 0
M  V30 2428 H 262.521 -0.74289 0.0782558 0
M  V30 2429 H 265.183 -1.73327 0.891271 0
M  V30 2430 H 264.279 -3.11224 0.233708 0
M  V30 2431 N 264.58 -0.43555 -1.51462 0
M  V30 2432 C 265.49 0.383001 -2.31453 0
M  V30 2433 C 266.506 1.02931 -1.4029 0
M  V30 2434 O 267.682 1.02507 -1.73362 0
M  V30 2435 C 264.747 1.47043 -3.13973 0
M  V30 2436 C 263.808 0.844433 -4.20913 0
M  V30 2437 C 263.041 1.88004 -4.9949 0
M  V30 2438 O 263.264 3.10199 -4.78678 0
M  V30 2439 O 262.198 1.47157 -5.83634 0
M  V30 2440 H 266.024 -0.269964 -3.02498 0
M  V30 2441 H 263.609 -0.19813 -1.4808 0
M  V30 2442 H 265.491 2.10113 -3.65281 0
M  V30 2443 H 264.166 2.10751 -2.45695 0
M  V30 2444 H 263.073 0.175729 -3.73687 0
M  V30 2445 H 264.406 0.250869 -4.9156 0
M  V30 2446 N 266.058 1.56714 -0.166846 0
M  V30 2447 C 267.304 1.97813 0.473473 0
M  V30 2448 C 267.659 1.05095 1.61161 0
M  V30 2449 O 266.952 0.0897541 1.9139 0
M  V30 2450 C 267.146 3.42889 1.00806 0
M  V30 2451 C 266.975 4.49635 -0.0767392 0
M  V30 2452 C 265.745 5.02566 -0.524894 0
M  V30 2453 C 267.943 5.06793 -0.875504 0
M  V30 2454 N 265.925 5.9294 -1.59047 0
M  V30 2455 C 267.296 5.93565 -1.79111 0
M  V30 2456 C 269.351 4.89306 -0.921083 0
M  V30 2457 C 268.054 6.64721 -2.74843 0
M  V30 2458 C 270.08 5.61179 -1.86633 0
M  V30 2459 C 269.442 6.47675 -2.76942 0
M  V30 2460 H 265.541 0.769093 0.141489 0
M  V30 2461 H 268.125 1.92874 -0.266031 0
M  V30 2462 H 266.296 3.48382 1.7171 0
M  V30 2463 H 268.028 3.71008 1.61664 0
M  V30 2464 H 264.783 4.73439 -0.123432 0
M  V30 2465 H 265.207 6.42831 -2.12361 0
M  V30 2466 H 269.849 4.22136 -0.23692 0
M  V30 2467 H 267.567 7.31107 -3.44249 0
M  V30 2468 H 271.153 5.49636 -1.90764 0
M  V30 2469 H 270.033 7.02313 -3.48893 0
M  V30 2470 N 267.536 -0.106894 1.57237 0
M  V30 2471 C 268.813 -0.843526 1.76477 0
M  V30 2472 C 269.193 -1.97499 0.745464 0
M  V30 2473 O 268.541 -2.27357 -0.228306 0
M  V30 2474 C 268.751 -1.34903 3.21873 0
M  V30 2475 C 270.099 -1.79654 3.8472 0
M  V30 2476 O 271.123 -1.44554 3.2555 0
M  V30 2477 O 269.982 -2.44515 4.88748 0
M  V30 2478 H 267.076 -0.401468 0.723016 0
M  V30 2479 H 269.622 -0.0896927 1.69463 0
M  V30 2480 H 268.394 -0.53781 3.87586 0
M  V30 2481 H 268.017 -2.16522 3.33473 0
M  V30 2482 N 269.014 -1.53014 -0.377408 0
M  V30 2483 C 270.254 -1.70318 -1.1301 0
M  V30 2484 C 270.618 -0.439538 -1.86901 0
M  V30 2485 O 271.819 -0.489095 -2.64313 0
M  V30 2486 C 270.09 -2.91125 -2.07319 0
M  V30 2487 S 271.649 -3.29075 -2.90268 0
M  V30 2488 H 268.467 -0.599426 -0.382374 0
M  V30 2489 H 271.069 -1.91089 -0.412933 0
M  V30 2490 H 269.773 -3.81303 -1.51777 0
M  V30 2491 H 269.304 -2.7272 -2.83526 0
M  V30 2492 H 271.319 -2.80165 -4.09539 0
M  V30 2493 N 270.492 0.636531 -1.44174 0
M  V30 2494 C 271.422 1.76003 -1.53444 0
M  V30 2495 C 272.403 1.65619 -0.387841 0
M  V30 2496 O 273.588 1.84461 -0.607257 0
M  V30 2497 C 270.718 3.14511 -1.4731 0
M  V30 2498 C 269.672 3.39677 -2.60391 0
M  V30 2499 C 268.998 4.78159 -2.39308 0
M  V30 2500 C 270.298 3.32772 -4.02567 0
M  V30 2501 H 271.992 1.68501 -2.47483 0
M  V30 2502 H 269.538 0.809237 -1.19111 0
M  V30 2503 H 271.491 3.92878 -1.52397 0
M  V30 2504 H 270.215 3.22783 -0.49785 0
M  V30 2505 H 268.874 2.63688 -2.54684 0
M  V30 2506 H 268.522 4.83128 -1.39988 0
M  V30 2507 H 268.222 4.95956 -3.15122 0
M  V30 2508 H 269.746 5.58762 -2.46205 0
M  V30 2509 H 271.16 4.01051 -4.09672 0
M  V30 2510 H 269.557 3.62104 -4.7854 0
M  V30 2511 H 270.627 2.30669 -4.2652 0
M  V30 2512 N 271.97 1.30982 0.876444 0
M  V30 2513 C 272.933 1.18054 1.96459 0
M  V30 2514 C 273.933 0.109399 1.60427 0
M  V30 2515 O 275.123 0.358173 1.70478 0
M  V30 2516 C 272.255 0.810616 3.31122 0
M  V30 2517 H 273.448 2.14735 2.09354 0
M  V30 2518 H 271.001 1.145 1.06392 0
M  V30 2519 H 271.736 -0.155322 3.23928 0
M  V30 2520 H 271.521 1.58481 3.58645 0
M  V30 2521 H 273.011 0.743876 4.10921 0
M  V30 2522 N 273.449 -1.08991 1.13837 0
M  V30 2523 C 274.412 -2.13925 0.822715 0
M  V30 2524 C 275.412 -1.599 -0.1699 0
M  V30 2525 O 276.602 -1.74104 0.0577251 0
M  V30 2526 C 273.734 -3.40155 0.225318 0
M  V30 2527 H 274.927 -2.43358 1.75262 0
M  V30 2528 H 272.48 -1.24603 0.943594 0
M  V30 2529 H 273.215 -3.16352 -0.713594 0
M  V30 2530 H 273 -3.80661 0.940193 0
M  V30 2531 H 274.49 -4.17594 0.0214784 0
M  V30 2532 N 274.927 -0.932562 -1.27047 0
M  V30 2533 C 276.152 -0.591474 -1.98787 0
M  V30 2534 C 276.577 0.824601 -1.69062 0
M  V30 2535 O 275.935 1.5541 -0.933677 0
M  V30 2536 C 275.983 -0.829808 -3.50922 0
M  V30 2537 O 275.087 0.102266 -4.12273 0
M  V30 2538 H 274.428 -0.227185 -0.623926 0
M  V30 2539 H 276.958 -1.25314 -1.61733 0
M  V30 2540 H 276.968 -0.747292 -4.01098 0
M  V30 2541 H 275.643 -1.86201 -3.7189 0
M  V30 2542 H 274.22 -0.0305761 -3.72887 0
M  V30 2543 N 276.405 1.4127 -0.698611 0
M  V30 2544 C 277.63 2.06024 -0.238512 0
M  V30 2545 C 278.055 1.5224 1.10475 0
M  V30 2546 O 277.413 0.650623 1.69223 0
M  V30 2547 C 277.461 3.59988 -0.209952 0
M  V30 2548 O 276.565 4.04282 0.814235 0
M  V30 2549 H 275.906 0.653829 -0.115775 0
M  V30 2550 H 278.436 1.8098 -0.954326 0
M  V30 2551 H 278.446 4.07979 -0.0418436 0
M  V30 2552 H 277.121 3.98503 -1.1903 0
M  V30 2553 H 275.698 3.6779 0.615234 0
M  V30 2554 N 277.883 0.443576 1.51229 0
M  V30 2555 C 278.793 -0.370721 2.31652 0
M  V30 2556 C 279.809 -1.02186 1.40833 0
M  V30 2557 O 280.985 -1.01586 1.73903 0
M  V30 2558 C 278.05 -1.45376 3.14749 0
M  V30 2559 C 277.111 -0.822099 4.21355 0
M  V30 2560 C 276.344 -1.85353 5.0048 0
M  V30 2561 O 276.567 -3.07656 4.80316 0
M  V30 2562 O 275.501 -1.4406 5.84406 0
M  V30 2563 H 279.327 0.286002 3.0235 0
M  V30 2564 H 276.912 0.20598 1.47973 0
M  V30 2565 H 278.794 -2.08173 3.66391 0
M  V30 2566 H 277.469 -2.09445 2.46809 0
M  V30 2567 H 276.376 -0.155909 3.73775 0
M  V30 2568 H 277.709 -0.224797 4.91686 0
M  V30 2569 N 279.361 -1.56624 0.175154 0
M  V30 2570 C 280.291 -2.21155 -0.749195 0
M  V30 2571 C 281.272 -1.16836 -1.23626 0
M  V30 2572 O 282.457 -1.45277 -1.28873 0
M  V30 2573 C 279.587 -2.8553 -1.97711 0
M  V30 2574 C 278.541 -3.95921 -1.62575 0
M  V30 2575 C 277.867 -4.47365 -2.92864 0
M  V30 2576 C 279.167 -5.15323 -0.850838 0
M  V30 2577 H 280.861 -2.98653 -0.211295 0
M  V30 2578 H 278.407 -1.43651 -0.100188 0
M  V30 2579 H 280.36 -3.2935 -2.62881 0
M  V30 2580 H 279.084 -2.05406 -2.53921 0
M  V30 2581 H 277.743 -3.52762 -0.997719 0
M  V30 2582 H 277.391 -3.64027 -3.47122 0
M  V30 2583 H 277.091 -5.21839 -2.70106 0
M  V30 2584 H 278.615 -4.93873 -3.59056 0
M  V30 2585 H 280.029 -5.55812 -1.40521 0
M  V30 2586 H 278.426 -5.95739 -0.722154 0
M  V30 2587 H 279.496 -4.84661 0.152082 0
M  V30 2588 N 280.839 0.0985539 -1.57292 0
M  V30 2589 C 282.067 0.816318 -1.90115 0
M  V30 2590 C 282.482 1.72451 -0.768509 0
M  V30 2591 O 281.839 1.80643 0.259687 0
M  V30 2592 C 281.89 1.63259 -3.22535 0
M  V30 2593 O 281.611 0.760934 -4.31441 0
M  V30 2594 C 283.112 2.45372 -3.69199 0
M  V30 2595 H 280.332 0.233595 -0.629027 0
M  V30 2596 H 282.876 0.0768229 -2.04356 0
M  V30 2597 H 281.031 2.32463 -3.09903 0
M  V30 2598 H 281.445 1.32595 -5.07463 0
M  V30 2599 H 282.919 2.98144 -4.64558 0
M  V30 2600 H 283.396 3.23677 -2.96867 0
M  V30 2601 H 284.002 1.81373 -3.84687 0
M  V30 2602 N 282.317 1.53212 0.369288 0
M  V30 2603 C 283.28 1.7872 1.43498 0
M  V30 2604 C 284.28 0.657554 1.46741 0
M  V30 2605 O 285.47 0.925736 1.47566 0
M  V30 2606 C 282.602 1.90591 2.82645 0
M  V30 2607 H 283.795 2.73894 1.22156 0
M  V30 2608 H 281.348 1.44233 0.602203 0
M  V30 2609 H 282.083 0.974709 3.09306 0
M  V30 2610 H 281.868 2.72751 2.8169 0
M  V30 2611 H 283.358 2.11931 3.59826 0
M  V30 2612 N 283.795 -0.628877 1.44509 0
M  V30 2613 C 285.072 -1.38733 1.37886 0
M  V30 2614 C 285.452 -2.11065 0.0387008 0
M  V30 2615 O 284.8 -2.06476 -0.97878 0
M  V30 2616 C 285.01 -2.35188 2.57852 0
M  V30 2617 C 286.358 -2.9845 3.02014 0
M  V30 2618 O 287.382 -2.45513 2.58073 0
M  V30 2619 O 286.241 -3.94487 3.78209 0
M  V30 2620 H 283.335 -0.621015 0.54614 0
M  V30 2621 H 285.881 -0.653744 1.56602 0
M  V30 2622 H 284.653 -1.80855 3.46998 0
M  V30 2623 H 284.276 -3.1596 2.4136 0
M  V30 2624 N 285.273 -1.31445 -0.869486 0
M  V30 2625 C 286.501 -1.24122 -1.65534 0
M  V30 2626 C 286.916 0.193387 -1.87807 0
M  V30 2627 O 286.273 1.12557 -1.43656 0
M  V30 2628 C 286.324 -1.98229 -3.02304 0
M  V30 2629 O 286.045 -3.3609 -2.81026 0
M  V30 2630 C 287.546 -1.97751 -3.96749 0
M  V30 2631 H 284.766 -0.428868 -0.516055 0
M  V30 2632 H 287.31 -1.73328 -1.08525 0
M  V30 2633 H 285.465 -1.52782 -3.56001 0
M  V30 2634 H 285.879 -3.7383 -3.67902 0
M  V30 2635 H 287.353 -2.54114 -4.90031 0
M  V30 2636 H 287.83 -0.960137 -4.28577 0
M  V30 2637 H 288.436 -2.43079 -3.48988 0
M  V30 2638 N 286.751 1.08385 -1.14413 0
M  V30 2639 C 288.028 1.77429 -0.823297 0
M  V30 2640 C 288.408 1.9974 0.683163 0
M  V30 2641 O 287.756 1.60739 1.62405 0
M  V30 2642 C 287.966 3.09004 -1.62227 0
M  V30 2643 C 289.314 3.83532 -1.82177 0
M  V30 2644 O 290.338 3.18786 -1.58915 0
M  V30 2645 O 289.197 4.99792 -2.21067 0
M  V30 2646 H 286.291 0.769999 -0.301712 0
M  V30 2647 H 288.837 1.14846 -1.24934 0
M  V30 2648 H 287.609 2.88316 -2.64555 0
M  V30 2649 H 287.232 3.79316 -1.19187 0
M  V30 2650 N 288.23 0.939286 1.26551 0
M  V30 2651 C 289.16 0.465044 2.28822 0
M  V30 2652 C 290.141 -0.480692 1.63167 0
M  V30 2653 O 291.326 -0.382955 1.90387 0
M  V30 2654 C 288.456 -0.27234 3.46231 0
M  V30 2655 C 287.41 0.58666 4.2396 0
M  V30 2656 C 286.736 -0.280573 5.33963 0
M  V30 2657 C 288.036 1.85704 4.88171 0
M  V30 2658 H 289.73 1.31979 2.68741 0
M  V30 2659 H 287.276 0.636061 1.29191 0
M  V30 2660 H 289.229 -0.615133 4.16886 0
M  V30 2661 H 287.953 -1.16121 3.0526 0
M  V30 2662 H 286.612 0.91232 3.55067 0
M  V30 2663 H 286.26 -1.16874 4.89234 0
M  V30 2664 H 285.96 0.29076 5.8688 0
M  V30 2665 H 287.484 -0.618678 6.07458 0
M  V30 2666 H 288.898 1.58161 5.51052 0
M  V30 2667 H 287.295 2.37279 5.51197 0
M  V30 2668 H 288.365 2.56957 4.11219 0
M  V30 2669 N 289.708 -1.40897 0.706093 0
M  V30 2670 C 290.936 -2.05373 0.250887 0
M  V30 2671 C 291.351 -1.53172 -1.10381 0
M  V30 2672 O 290.708 -0.684305 -1.69185 0
M  V30 2673 C 290.759 -3.6088 0.211571 0
M  V30 2674 O 290.48 -4.11153 1.51276 0
M  V30 2675 C 291.981 -4.42517 -0.263346 0
M  V30 2676 H 289.201 -0.66115 0.114552 0
M  V30 2677 H 291.745 -1.80479 0.961635 0
M  V30 2678 H 289.9 -3.84777 -0.450073 0
M  V30 2679 H 290.314 -5.05279 1.40689 0
M  V30 2680 H 291.788 -5.51479 -0.239718 0
M  V30 2681 H 292.265 -4.19396 -1.30397 0
M  V30 2682 H 292.871 -4.23708 0.367677 0
M  V30 2683 N 291.186 -0.45159 -1.50991 0
M  V30 2684 C 292.116 0.342898 -2.30969 0
M  V30 2685 C 293.097 1.00815 -1.37005 0
M  V30 2686 O 294.282 1.00907 -1.65926 0
M  V30 2687 C 291.412 1.43637 -3.16205 0
M  V30 2688 C 290.366 0.893818 -4.18563 0
M  V30 2689 C 289.692 2.08411 -4.92411 0
M  V30 2690 C 290.992 -0.0815568 -5.22236 0
M  V30 2691 H 292.686 -0.324556 -2.97636 0
M  V30 2692 H 290.232 -0.157531 -1.43136 0
M  V30 2693 H 292.185 1.9995 -3.70942 0
M  V30 2694 H 290.909 2.13232 -2.47386 0
M  V30 2695 H 289.568 0.352798 -3.64898 0
M  V30 2696 H 289.216 2.76658 -4.20082 0
M  V30 2697 H 288.916 1.72741 -5.61636 0
M  V30 2698 H 290.44 2.65251 -5.49976 0
M  V30 2699 H 291.854 0.391742 -5.7196 0
M  V30 2700 H 290.251 -0.351551 -5.99069 0
M  V30 2701 H 291.321 -1.01374 -4.74185 0
M  V30 2702 N 292.664 1.56529 -0.183458 0
M  V30 2703 C 293.892 2.01623 0.464285 0
M  V30 2704 C 294.307 1.06366 1.55986 0
M  V30 2705 O 293.664 0.0665398 1.82379 0
M  V30 2706 C 293.715 3.46475 1.03139 0
M  V30 2707 O 293.436 4.38095 -0.0204675 0
M  V30 2708 C 294.937 4.0703 1.75617 0
M  V30 2709 H 292.157 0.660596 0.117704 0
M  V30 2710 H 294.701 2.02451 -0.288751 0
M  V30 2711 H 292.856 3.46383 1.73486 0
M  V30 2712 H 293.27 5.22973 0.399952 0
M  V30 2713 H 294.744 5.10271 2.10542 0
M  V30 2714 H 295.221 3.49819 2.65563 0
M  V30 2715 H 295.827 4.1086 1.09882 0
M  V30 2716 N 294.142 -0.090211 1.57342 0
M  V30 2717 C 295.382 -0.798365 1.88163 0
M  V30 2718 C 295.746 -1.75662 0.775046 0
M  V30 2719 O 296.947 -2.50849 0.965816 0
M  V30 2720 C 295.218 -1.50376 3.24225 0
M  V30 2721 S 296.777 -2.24952 3.76752 0
M  V30 2722 H 293.595 -0.265883 0.659414 0
M  V30 2723 H 296.197 -0.055264 1.95422 0
M  V30 2724 H 294.901 -0.792286 4.0268 0
M  V30 2725 H 294.432 -2.28666 3.20118 0
M  V30 2726 H 296.447 -3.51173 3.5056 0
M  V30 2727 N 295.62 -1.53406 -0.361157 0
M  V30 2728 C 296.848 -1.73717 -1.12383 0
M  V30 2729 C 297.263 -0.468161 -1.82904 0
M  V30 2730 O 296.62 0.559198 -1.73722 0
M  V30 2731 C 296.671 -2.90558 -2.15078 0
M  V30 2732 O 296.392 -4.12549 -1.47428 0
M  V30 2733 C 297.893 -3.22777 -3.03858 0
M  V30 2734 H 295.113 -0.580896 -0.335858 0
M  V30 2735 H 297.657 -2.00167 -0.418728 0
M  V30 2736 H 295.812 -2.66489 -2.8118 0
M  V30 2737 H 296.226 -4.78009 -2.15887 0
M  V30 2738 H 297.7 -4.07927 -3.71887 0
M  V30 2739 H 298.177 -2.38329 -3.68912 0
M  V30 2740 H 298.783 -3.48787 -2.43367 0
M  V30 2741 N 297.098 0.621204 -1.44841 0
M  V30 2742 C 298.347 1.37658 -1.47422 0
M  V30 2743 C 298.66 1.95264 -0.114629 0
M  V30 2744 O 299.866 2.71494 -0.0180199 0
M  V30 2745 C 298.322 2.49285 -2.59586 0
M  V30 2746 C 297.93 1.98149 -4.01797 0
M  V30 2747 C 299.674 3.26409 -2.71399 0
M  V30 2748 C 297.581 3.07178 -5.05367 0
M  V30 2749 H 296.511 0.517344 -0.548517 0
M  V30 2750 H 299.162 0.667257 -1.70938 0
M  V30 2751 H 297.544 3.22839 -2.29328 0
M  V30 2752 H 298.718 1.31395 -4.41669 0
M  V30 2753 H 297.033 1.33812 -3.94314 0
M  V30 2754 H 299.63 4.07706 -3.45948 0
M  V30 2755 H 299.973 3.76535 -1.77559 0
M  V30 2756 H 300.506 2.5995 -3.01116 0
M  V30 2757 H 297.245 2.61985 -6.00869 0
M  V30 2758 H 296.765 3.72542 -4.70077 0
M  V30 2759 H 298.444 3.71789 -5.29511 0
M  V30 2760 N 298.576 1.31904 0.862503 0
M  V30 2761 C 299.853 1.12644 1.59908 0
M  V30 2762 C 300.233 -0.316104 2.0872 0
M  V30 2763 O 299.581 -1.31145 1.87118 0
M  V30 2764 C 299.791 2.1472 2.7513 0
M  V30 2765 C 301.139 2.47637 3.44907 0
M  V30 2766 O 302.163 2.13205 2.85346 0
M  V30 2767 O 301.022 3.06632 4.52371 0
M  V30 2768 H 298.116 0.43416 0.703871 0
M  V30 2769 H 300.662 1.43408 0.907314 0
M  V30 2770 H 299.434 3.1172 2.3653 0
M  V30 2771 H 299.057 1.84905 3.51989 0
M  V30 2772 N 300.054 -1.07777 1.14986 0
M  V30 2773 C 300.964 -2.18404 0.856546 0
M  V30 2774 C 301.98 -1.73211 -0.165485 0
M  V30 2775 O 303.156 -2.01399 0.00755219 0
M  V30 2776 C 300.221 -3.44977 0.34526 0
M  V30 2777 C 299.282 -4.0476 1.43065 0
M  V30 2778 C 298.515 -5.25291 0.943663 0
M  V30 2779 O 298.738 -5.70004 -0.212426 0
M  V30 2780 O 297.672 -5.76638 1.72547 0
M  V30 2781 H 301.498 -2.45978 1.78125 0
M  V30 2782 H 299.083 -1.17033 0.928631 0
M  V30 2783 H 300.965 -4.21348 0.0663671 0
M  V30 2784 H 299.64 -3.18965 -0.551631 0
M  V30 2785 H 298.547 -3.29949 1.76309 0
M  V30 2786 H 299.88 -4.35035 2.30229 0
M  V30 2787 N 301.532 -0.945985 -1.26051 0
M  V30 2788 C 302.809 -0.513816 -1.88731 0
M  V30 2789 C 303.189 1.00872 -1.8544 0
M  V30 2790 O 302.537 1.8708 -1.312 0
M  V30 2791 C 302.747 -1.08062 -3.31849 0
M  V30 2792 C 304.095 -1.1522 -4.08668 0
M  V30 2793 O 305.119 -1.03155 -3.40936 0
M  V30 2794 O 303.978 -1.34044 -5.29806 0
M  V30 2795 H 301.072 -0.168193 -0.809716 0
M  V30 2796 H 303.618 -1.03886 -1.34186 0
M  V30 2797 H 302.39 -2.1241 -3.2863 0
M  V30 2798 H 302.013 -0.538307 -3.93939 0
M  V30 2799 N 303.011 1.40521 -0.713556 0
M  V30 2800 C 304.288 1.94775 -0.17943 0
M  V30 2801 C 304.668 1.65184 1.31444 0
M  V30 2802 O 304.016 0.968429 2.06963 0
M  V30 2803 C 304.226 3.45543 -0.489986 0
M  V30 2804 C 305.574 4.22442 -0.427536 0
M  V30 2805 O 306.598 3.53644 -0.425929 0
M  V30 2806 O 305.457 5.4501 -0.403292 0
M  V30 2807 H 302.551 0.826606 -0.0255192 0
M  V30 2808 H 305.097 1.5014 -0.790949 0
M  V30 2809 H 303.869 3.60432 -1.5233 0
M  V30 2810 H 303.492 3.97311 0.151598 0
M  V30 2811 N 304.489 0.459591 1.5075 0
M  V30 2812 C 305.766 -0.160371 1.94941 0
M  V30 2813 C 306.146 -1.58048 1.39943 0
M  V30 2814 O 305.494 -2.206 0.595629 0
M  V30 2815 C 305.704 -0.115432 3.48809 0
M  V30 2816 C 307.052 -0.310026 4.23467 0
M  V30 2817 O 308.076 -0.192543 3.55679 0
M  V30 2818 O 306.935 -0.546031 5.43765 0
M  V30 2819 H 304.029 -0.117925 0.818549 0
M  V30 2820 H 306.575 0.519169 1.61563 0
M  V30 2821 H 305.347 0.87652 3.81357 0
M  V30 2822 H 304.97 -0.836928 3.88692 0
M  V30 2823 N 305.967 -1.56429 0.191757 0
M  V30 2824 C 306.914 -2.18936 -0.730454 0
M  V30 2825 C 307.884 -1.13557 -1.21219 0
M  V30 2826 O 309.069 -1.41794 -1.27668 0
M  V30 2827 C 306.209 -2.85013 -1.9458 0
M  V30 2828 C 305.322 -4.04909 -1.50574 0
M  V30 2829 C 304.457 -4.58853 -2.67634 0
M  V30 2830 C 303.496 -5.71114 -2.20217 0
M  V30 2831 N 302.633 -6.19478 -3.30442 0
M  V30 2832 H 307.473 -2.97389 -0.190664 0
M  V30 2833 H 305.01 -1.46869 -0.0823694 0
M  V30 2834 H 306.968 -3.21492 -2.65893 0
M  V30 2835 H 305.598 -2.09129 -2.45896 0
M  V30 2836 H 304.65 -3.74115 -0.688605 0
M  V30 2837 H 305.962 -4.86113 -1.11784 0
M  V30 2838 H 305.116 -4.97619 -3.47074 0
M  V30 2839 H 303.855 -3.76749 -3.09696 0
M  V30 2840 H 302.86 -5.31879 -1.3923 0
M  V30 2841 H 304.085 -6.55033 -1.79189 0
M  V30 2842 H 302.031 -5.40297 -3.72041 0
M  V30 2843 H 301.948 -6.95725 -2.9581 0
M  V30 2844 H 303.216 -6.62898 -4.10106 0
M  V30 2845 N 307.445 0.0818655 -1.57387 0
M  V30 2846 C 308.692 0.782914 -1.86753 0
M  V30 2847 C 309.02 1.78082 -0.782118 0
M  V30 2848 O 308.275 1.94426 0.22295 0
M  V30 2849 C 308.574 1.53513 -3.22752 0
M  V30 2850 C 308.24 0.678134 -4.45771 0
M  V30 2851 C 306.902 0.441929 -4.79166 0
M  V30 2852 C 309.254 0.0832243 -5.21134 0
M  V30 2853 C 306.582 -0.398833 -5.85343 0
M  V30 2854 C 308.934 -0.744935 -6.28199 0
M  V30 2855 C 307.598 -0.991107 -6.60101 0
M  V30 2856 H 306.868 0.286489 -0.683378 0
M  V30 2857 H 309.515 0.0439808 -1.91449 0
M  V30 2858 H 307.82 2.34599 -3.138 0
M  V30 2859 H 309.517 2.08218 -3.42705 0
M  V30 2860 H 306.107 0.872357 -4.19628 0
M  V30 2861 H 310.291 0.252847 -4.95655 0
M  V30 2862 H 305.547 -0.598405 -6.08465 0
M  V30 2863 H 309.721 -1.21271 -6.8576 0
M  V30 2864 H 307.348 -1.64437 -7.42202 0
M  V30 2865 N 308.923 1.53595 0.353017 0
M  V30 2866 C 309.871 1.81605 1.45335 0
M  V30 2867 C 310.865 0.685923 1.54892 0
M  V30 2868 O 312.071 0.869095 1.57628 0
M  V30 2869 H 308.446 0.575204 0.484401 0
M  V30 2870 H 310.417 2.73679 1.18921 0
M  V30 2871 C 309.166 2.03406 2.81995 0
M  V30 2872 H 308.489 2.89814 2.75405 0
M  V30 2873 H 309.929 2.26975 3.58132 0
M  V30 2874 C 308.388 0.816794 3.26849 0
M  V30 2875 O 308.918 0.0115856 4.01698 0
M  V30 2876 N 307.124 0.636682 2.8354 0
M  V30 2877 H 306.671 1.2931 2.22793 0
M  V30 2878 H 306.629 -0.176336 3.13905 0
M  V30 2879 N 310.401 -0.613514 1.45168 0
M  V30 2880 C 311.333 -1.73825 1.4939 0
M  V30 2881 C 312.346 -1.58175 0.385304 0
M  V30 2882 O 313.535 -1.66165 0.652036 0
M  V30 2883 C 310.635 -3.11758 1.32891 0
M  V30 2884 C 309.808 -3.53704 2.57317 0
M  V30 2885 C 308.867 -4.70579 2.35462 0
M  V30 2886 O 307.893 -4.77996 3.09044 0
M  V30 2887 N 309.095 -5.63454 1.39644 0
M  V30 2888 H 311.86 -1.70669 2.46358 0
M  V30 2889 H 309.421 -0.79862 1.40832 0
M  V30 2890 H 311.413 -3.87692 1.1609 0
M  V30 2891 H 309.983 -3.09456 0.442218 0
M  V30 2892 H 309.203 -2.67794 2.89275 0
M  V30 2893 H 310.491 -3.78486 3.40038 0
M  V30 2894 H 309.889 -5.6017 0.789062 0
M  V30 2895 H 308.446 -6.38944 1.28816 0
M  V30 2896 N 311.879 -1.3236 -0.855495 0
M  V30 2897 C 313.107 -1.2587 -1.64208 0
M  V30 2898 C 313.522 0.173457 -1.88002 0
M  V30 2899 O 312.879 1.11027 -1.44842 0
M  V30 2900 C 312.93 -2.01424 -3.00184 0
M  V30 2901 O 312.651 -3.39051 -2.77445 0
M  V30 2902 C 314.152 -2.01948 -3.94629 0
M  V30 2903 H 311.372 -0.434318 -0.511477 0
M  V30 2904 H 313.916 -1.74469 -1.0668 0
M  V30 2905 H 312.071 -1.56549 -3.5436 0
M  V30 2906 H 312.485 -3.77711 -3.63916 0
M  V30 2907 H 313.959 -2.59297 -4.87308 0
M  V30 2908 H 314.436 -1.00554 -4.27534 0
M  V30 2909 H 315.042 -2.46767 -3.4639 0
M  V30 2910 N 313.357 1.07166 -1.15556 0
M  V30 2911 C 314.32 2.12589 -0.856644 0
M  V30 2912 C 315.32 1.6015 0.14444 0
M  V30 2913 O 316.51 1.7399 -0.0854163 0
M  V30 2914 C 313.642 3.39753 -0.279405 0
M  V30 2915 H 314.835 2.40539 -1.79112 0
M  V30 2916 H 312.388 1.23086 -0.963298 0
M  V30 2917 H 313.123 3.17447 0.663174 0
M  V30 2918 H 312.908 3.79117 -1.00063 0
M  V30 2919 H 314.398 4.17507 -0.0879113 0
M  V30 2920 N 314.835 0.952656 1.25548 0
M  V30 2921 C 316.251 0.656769 1.4546 0
M  V30 2922 C 316.451 -0.78633 1.85524 0
M  V30 2923 O 315.507 -1.56183 1.98402 0
M  V30 2924 C 316.82 1.62801 2.52817 0
M  V30 2925 C 318.368 1.63897 2.66659 0
M  V30 2926 C 318.843 2.5978 3.77198 0
M  V30 2927 N 320.334 2.58133 3.84606 0
M  V30 2928 C 321.069 3.29003 4.69621 0
M  V30 2929 N 320.565 4.09339 5.58939 0
M  V30 2930 N 322.358 3.179 4.63569 0
M  V30 2931 H 314.509 1.88526 0.978344 0
M  V30 2932 H 316.772 0.810815 0.491206 0
M  V30 2933 H 316.478 2.65869 2.30232 0
M  V30 2934 H 316.352 1.38898 3.50695 0
M  V30 2935 H 318.739 0.615481 2.8861 0
M  V30 2936 H 318.82 1.91858 1.69187 0
M  V30 2937 H 318.464 3.62254 3.55997 0
M  V30 2938 H 318.394 2.29105 4.7415 0
M  V30 2939 H 320.885 1.99809 3.20757 0
M  V30 2940 H 321.198 4.6034 6.20731 0
M  V30 2941 H 319.543 4.13438 5.58654 0
M  V30 2942 H 322.734 2.54612 3.92798 0
M  V30 2943 H 322.907 3.73398 5.29602 0
M  V30 2944 N 316.313 -1.40141 0.720998 0
M  V30 2945 C 317.59 -1.94677 0.189757 0
M  V30 2946 C 317.97 -1.65879 -1.30566 0
M  V30 2947 O 317.318 -0.979391 -2.06447 0
M  V30 2948 C 317.528 -3.45279 0.508304 0
M  V30 2949 C 318.876 -4.22209 0.449934 0
M  V30 2950 O 319.9 -3.53413 0.444677 0
M  V30 2951 O 318.759 -5.44788 0.432189 0
M  V30 2952 H 315.853 -0.826459 0.0299026 0
M  V30 2953 H 318.399 -1.49719 0.7989 0
M  V30 2954 H 317.171 -3.59619 1.54239 0
M  V30 2955 H 316.794 -3.97386 -0.130525 0
M  V30 2956 N 317.792 -0.46758 -1.50504 0
M  V30 2957 C 319.038 0.0887532 -2.02606 0
M  V30 2958 C 319.371 1.39686 -1.34913 0
M  V30 2959 O 318.646 1.88644 -0.473694 0
M  V30 2960 C 318.929 0.276206 -3.59039 0
M  V30 2961 C 318.782 -1.05267 -4.37309 0
M  V30 2962 C 320.101 1.03235 -4.27821 0
M  V30 2963 H 317.22 0.0307814 -0.736357 0
M  V30 2964 H 319.862 -0.612485 -1.79857 0
M  V30 2965 H 318.012 0.8735 -3.78553 0
M  V30 2966 H 319.684 -1.68628 -4.29374 0
M  V30 2967 H 317.927 -1.65015 -4.01189 0
M  V30 2968 H 318.598 -0.875197 -5.45018 0
M  V30 2969 H 321.074 0.526111 -4.12761 0
M  V30 2970 H 319.95 1.1323 -5.37094 0
M  V30 2971 H 320.211 2.06806 -3.90748 0
M  V30 2972 N 319.27 1.56325 -0.20005 0
M  V30 2973 C 320.202 2.16555 0.750771 0
M  V30 2974 C 321.215 1.12871 1.1732 0
M  V30 2975 O 322.404 1.39943 1.10807 0
M  V30 2976 C 319.504 2.71684 2.02586 0
M  V30 2977 C 318.677 4.00321 1.76244 0
M  V30 2978 C 317.736 4.40227 2.88248 0
M  V30 2979 O 316.762 5.07552 2.57642 0
M  V30 2980 N 317.964 4.04138 4.16717 0
M  V30 2981 H 320.729 2.98772 0.235685 0
M  V30 2982 H 318.29 1.6189 -0.0182594 0
M  V30 2983 H 320.282 2.95363 2.76664 0
M  V30 2984 H 318.852 1.93893 2.45202 0
M  V30 2985 H 318.072 3.84723 0.85919 0
M  V30 2986 H 319.36 4.84279 1.56048 0
M  V30 2987 H 318.758 3.49993 4.44434 0
M  V30 2988 H 317.315 4.32756 4.87407 0
M  V30 2989 N 320.748 -0.0735177 1.57428 0
M  V30 2990 C 321.994 -0.774145 1.87443 0
M  V30 2991 C 322.327 -1.77311 0.792103 0
M  V30 2992 O 321.602 -1.93492 -0.197793 0
M  V30 2993 C 321.885 -1.48367 3.28115 0
M  V30 2994 C 321.738 -0.501227 4.46999 0
M  V30 2995 C 323.057 -2.429 3.66998 0
M  V30 2996 H 320.176 -0.279971 0.681752 0
M  V30 2997 H 322.818 -0.0373616 1.89963 0
M  V30 2998 H 320.968 -2.11171 3.26097 0
M  V30 2999 H 322.64 0.121468 4.6114 0
M  V30 3000 H 320.883 0.183593 4.33411 0
M  V30 3001 H 321.554 -1.03526 5.42205 0
M  V30 3002 H 324.03 -1.90175 3.70098 0
M  V30 3003 H 322.906 -2.89549 4.66318 0
M  V30 3004 H 323.167 -3.27628 2.96837 0
M  V30 3005 N 322.226 -1.5378 -0.344866 0
M  V30 3006 C 323.474 -1.70625 -1.08311 0
M  V30 3007 C 323.795 -0.471447 -1.89215 0
M  V30 3008 O 323.065 0.514616 -1.8902 0
M  V30 3009 H 321.645 -0.629058 -0.402859 0
M  V30 3010 H 324.307 -1.9103 -0.386459 0
M  V30 3011 H 323.403 -2.57656 -1.76124 0
M  V30 3012 N 323.704 0.605807 -1.45491 0
M  V30 3013 C 324.953 1.36086 -1.48874 0
M  V30 3014 C 325.266 1.95131 -0.135333 0
M  V30 3015 O 326.472 2.7146 -0.0468144 0
M  V30 3016 C 324.928 2.46518 -2.62215 0
M  V30 3017 C 324.536 1.93877 -4.03876 0
M  V30 3018 C 326.28 3.23512 -2.74846 0
M  V30 3019 C 324.187 3.01801 -5.08596 0
M  V30 3020 H 323.117 0.511497 -0.553974 0
M  V30 3021 H 325.768 0.649089 -1.71636 0
M  V30 3022 H 324.15 3.20388 -2.32739 0
M  V30 3023 H 325.324 1.26704 -4.43038 0
M  V30 3024 H 323.639 1.29622 -3.95711 0
M  V30 3025 H 326.236 4.04013 -3.50253 0
M  V30 3026 H 326.579 3.74631 -1.81542 0
M  V30 3027 H 327.112 2.56742 -3.03856 0
M  V30 3028 H 323.851 2.55597 -6.03614 0
M  V30 3029 H 323.371 3.67535 -4.74002 0
M  V30 3030 H 325.05 3.66152 -5.33424 0
M  V30 3031 N 325.182 1.32811 0.848464 0
M  V30 3032 C 326.114 1.18095 1.96433 0
M  V30 3033 C 327.127 0.114354 1.62398 0
M  V30 3034 O 328.316 0.363892 1.74751 0
M  V30 3035 C 325.416 0.786798 3.2964 0
M  V30 3036 C 324.589 1.943 3.91875 0
M  V30 3037 C 323.648 1.53138 5.03423 0
M  V30 3038 O 322.674 2.24432 5.23086 0
M  V30 3039 N 323.876 0.430915 5.78898 0
M  V30 3040 H 326.641 2.14218 2.09597 0
M  V30 3041 H 324.202 1.2543 1.02367 0
M  V30 3042 H 326.194 0.493715 4.01677 0
M  V30 3043 H 324.764 -0.0834541 3.12489 0
M  V30 3044 H 323.984 2.40224 3.12547 0
M  V30 3045 H 325.272 2.71689 4.30189 0
M  V30 3046 H 324.67 -0.162333 5.65467 0
M  V30 3047 H 323.227 0.197466 6.51501 0
M  V30 3048 N 326.66 -1.06551 1.16123 0
M  V30 3049 C 327.623 -2.12132 0.867906 0
M  V30 3050 C 328.623 -1.60224 -0.135944 0
M  V30 3051 O 329.813 -1.73943 0.0946422 0
M  V30 3052 C 326.945 -3.396 0.297419 0
M  V30 3053 H 328.138 -2.39586 1.80385 0
M  V30 3054 H 325.691 -1.22574 0.969812 0
M  V30 3055 H 326.426 -3.17794 -0.64633 0
M  V30 3056 H 326.211 -3.78581 1.02073 0
M  V30 3057 H 327.701 -4.17455 0.110052 0
M  V30 3058 N 328.138 -0.959301 -1.25041 0
M  V30 3059 C 329.085 -0.482057 -2.2571 0
M  V30 3060 C 330.055 0.467939 -1.59372 0
M  V30 3061 O 331.24 0.380159 -1.86974 0
M  V30 3062 C 328.38 0.229623 -3.44335 0
M  V30 3063 C 327.493 -0.758156 -4.25295 0
M  V30 3064 C 326.628 -0.0234403 -5.31195 0
M  V30 3065 C 325.667 -1.00184 -6.03846 0
M  V30 3066 N 324.804 -0.29769 -7.01469 0
M  V30 3067 H 329.644 -1.34538 -2.65901 0
M  V30 3068 H 327.181 -0.674592 -1.3072 0
M  V30 3069 H 329.139 0.658856 -4.11965 0
M  V30 3070 H 327.769 1.05696 -3.05005 0
M  V30 3071 H 326.821 -1.30586 -3.57284 0
M  V30 3072 H 328.133 -1.50458 -4.75567 0
M  V30 3073 H 327.287 0.464201 -6.04922 0
M  V30 3074 H 326.026 0.755741 -4.81809 0
M  V30 3075 H 325.031 -1.50044 -5.2893 0
M  V30 3076 H 326.256 -1.78133 -6.55321 0
M  V30 3077 H 324.202 0.462668 -6.54366 0
M  V30 3078 H 324.119 -0.983128 -7.4958 0
M  V30 3079 H 325.387 0.16826 -7.79318 0
M  V30 3080 N 329.616 1.39756 -0.72842 0
M  V30 3081 C 330.864 2.00248 -0.272946 0
M  V30 3082 C 331.185 1.58077 1.14178 0
M  V30 3083 O 330.455 0.826014 1.77634 0
M  V30 3084 H 329.035 0.740554 -0.0979247 0
M  V30 3085 H 331.697 1.70903 -0.936912 0
M  V30 3086 H 330.793 3.10495 -0.316142 0
M  V30 3087 N 331.094 0.475555 1.50254 0
M  V30 3088 C 332.322 -0.0754493 2.06762 0
M  V30 3089 C 332.737 -1.33111 1.33891 0
M  V30 3090 O 332.094 -1.77846 0.40952 0
M  V30 3091 C 332.145 -0.359008 3.59713 0
M  V30 3092 O 331.866 0.846851 4.29837 0
M  V30 3093 C 333.367 -0.956484 4.32858 0
M  V30 3094 H 330.587 0.00907525 0.670939 0
M  V30 3095 H 333.131 0.665618 1.93364 0
M  V30 3096 H 331.286 -1.05001 3.72899 0
M  V30 3097 H 331.7 0.594162 5.21124 0
M  V30 3098 H 333.174 -1.10463 5.40834 0
M  V30 3099 H 333.651 -1.94775 3.93649 0
M  V30 3100 H 334.257 -0.303723 4.24214 0
M  V30 3101 N 332.573 -1.56217 0.208337 0
M  V30 3102 C 333.984 -1.84243 -0.301904 0
M  V30 3103 C 334.335 -1.12939 -1.60434 0
M  V30 3104 O 333.46 -0.39461 -2.12772 0
M  V30 3105 C 334.055 -3.34231 -0.554543 0
M  V30 3106 C 332.614 -3.62621 -1.00912 0
M  V30 3107 C 331.761 -2.77224 -0.064933 0
M  V30 3108 H 334.712 -1.52712 0.431833 0
M  V30 3109 H 334.733 -3.5372 -1.40223 0
M  V30 3110 H 334.245 -3.86099 0.393561 0
M  V30 3111 H 332.346 -3.16197 -1.97104 0
M  V30 3112 H 332.459 -4.7071 -0.892674 0
M  V30 3113 H 330.823 -2.48256 -0.56929 0
M  V30 3114 H 331.606 -3.31887 0.877851 0
M  V30 3115 N 334.051 0.0651679 -1.57465 0
M  V30 3116 C 335.014 1.06117 -2.03155 0
M  V30 3117 C 336.014 1.31204 -0.929632 0
M  V30 3118 O 337.204 1.26813 -1.19432 0
M  V30 3119 C 334.336 2.4032 -2.41783 0
M  V30 3120 H 335.529 0.667231 -2.92383 0
M  V30 3121 H 333.082 0.311075 -1.53173 0
M  V30 3122 H 333.817 2.84532 -1.55601 0
M  V30 3123 H 333.602 2.23451 -3.22199 0
M  V30 3124 H 335.092 3.11898 -2.77685 0
M  V30 3125 N 335.529 1.53961 0.336706 0
M  V30 3126 C 336.777 1.71197 1.07405 0
M  V30 3127 C 337.098 0.481475 1.88962 0
M  V30 3128 O 336.368 -0.504585 1.8929 0
M  V30 3129 H 334.948 0.631185 0.399517 0
M  V30 3130 H 337.61 1.91232 0.376323 0
M  V30 3131 H 336.706 2.58587 1.74755 0
M  V30 3132 N 337.007 -0.598083 1.45811 0
M  V30 3133 C 338.235 -1.38322 1.53866 0
M  V30 3134 C 338.65 -1.87992 0.174479 0
M  V30 3135 O 338.007 -1.62756 -0.825627 0
M  V30 3136 C 338.058 -2.58125 2.53089 0
M  V30 3137 O 337.779 -2.10516 3.84206 0
M  V30 3138 C 339.28 -3.50869 2.70935 0
M  V30 3139 H 336.5 -0.423093 0.520801 0
M  V30 3140 H 339.044 -0.728527 1.91083 0
M  V30 3141 H 337.199 -3.19615 2.18917 0
M  V30 3142 H 337.613 -2.88425 4.38077 0
M  V30 3143 H 339.087 -4.31451 3.44317 0
M  V30 3144 H 339.564 -4.01822 1.77301 0
M  V30 3145 H 340.17 -2.95225 3.06141 0
M  V30 3146 N 338.485 -1.33259 -0.841409 0
M  V30 3147 C 339.734 -1.23921 -1.59143 0
M  V30 3148 C 340.047 0.1941 -1.94635 0
M  V30 3149 O 341.253 0.409474 -2.68394 0
M  V30 3150 C 339.709 -2.17119 -2.87032 0
M  V30 3151 C 339.317 -3.65606 -2.58914 0
M  V30 3152 C 341.061 -2.16648 -3.65053 0
M  V30 3153 C 338.968 -4.50726 -3.82884 0
M  V30 3154 H 337.898 -0.460264 -0.597221 0
M  V30 3155 H 340.549 -1.58307 -0.927959 0
M  V30 3156 H 338.931 -1.75663 -3.54906 0
M  V30 3157 H 340.105 -4.15487 -1.99267 0
M  V30 3158 H 338.42 -3.68341 -1.942 0
M  V30 3159 H 341.017 -2.77474 -4.57069 0
M  V30 3160 H 341.36 -1.16088 -3.99787 0
M  V30 3161 H 341.893 -2.56453 -3.041 0
M  V30 3162 H 338.632 -5.52151 -3.53283 0
M  V30 3163 H 338.152 -4.0559 -4.41879 0
M  V30 3164 H 339.831 -4.64401 -4.50489 0
M  V30 3165 N 339.963 1.05934 -1.16686 0
M  V30 3166 C 341.191 1.8249 -0.974929 0
M  V30 3167 C 341.606 1.82679 0.476861 0
M  V30 3168 O 340.963 1.2486 1.33103 0
M  V30 3169 C 341.014 3.28943 -1.49929 0
M  V30 3170 O 340.735 3.28886 -2.89423 0
M  V30 3171 C 342.236 4.22215 -1.35089 0
M  V30 3172 H 339.456 0.575295 -0.345365 0
M  V30 3173 H 342 1.33631 -1.548 0
M  V30 3174 H 340.155 3.751 -0.968423 0
M  V30 3175 H 340.569 4.20493 -3.13506 0
M  V30 3176 H 342.043 5.22987 -1.76603 0
M  V30 3177 H 342.52 4.38195 -0.296935 0
M  V30 3178 H 343.126 3.81907 -1.87155 0
M  V30 3179 N 341.441 0.965919 1.2453 0
M  V30 3180 C 342.69 0.622437 1.91856 0
M  V30 3181 C 343.003 -0.846006 1.76358 0
M  V30 3182 O 344.209 -1.29993 2.38357 0
M  V30 3183 C 342.665 1.0626 3.43856 0
M  V30 3184 C 342.273 2.55437 3.68043 0
M  V30 3185 C 344.017 0.792183 4.17043 0
M  V30 3186 C 341.924 2.93196 5.13605 0
M  V30 3187 H 340.854 0.229092 0.718354 0
M  V30 3188 H 343.505 1.17189 1.41206 0
M  V30 3189 H 341.887 0.441476 3.93531 0
M  V30 3190 H 343.061 3.22665 3.28974 0
M  V30 3191 H 341.376 2.8007 3.08139 0
M  V30 3192 H 343.973 1.05031 5.24283 0
M  V30 3193 H 344.316 -0.271584 4.15413 0
M  V30 3194 H 344.849 1.37419 3.73311 0
M  V30 3195 H 341.588 3.98636 5.20355 0
M  V30 3196 H 341.108 2.30651 5.53679 0
M  V30 3197 H 342.787 2.83004 5.81823 0
M  V30 3198 N 342.919 -1.39368 0.735821 0
M  V30 3199 C 343.866 -2.30599 0.0963825 0
M  V30 3200 C 344.836 -1.49257 -0.728794 0
M  V30 3201 O 346.021 -1.77941 -0.688588 0
M  V30 3202 C 343.161 -3.35596 -0.804305 0
M  V30 3203 C 342.274 -4.31987 0.0335761 0
M  V30 3204 C 341.409 -5.24053 -0.868461 0
M  V30 3205 C 340.448 -6.12095 -0.0258776 0
M  V30 3206 N 339.585 -6.96514 -0.883893 0
M  V30 3207 H 344.425 -2.8471 0.880002 0
M  V30 3208 H 341.962 -1.40188 0.445619 0
M  V30 3209 H 343.92 -3.95062 -1.34096 0
M  V30 3210 H 342.55 -2.82938 -1.55389 0
M  V30 3211 H 341.602 -3.74133 0.68766 0
M  V30 3212 H 342.914 -4.94074 0.685036 0
M  V30 3213 H 342.068 -5.88549 -1.47293 0
M  V30 3214 H 340.807 -4.62289 -1.5537 0
M  V30 3215 H 339.812 -5.4661 0.591386 0
M  V30 3216 H 341.037 -6.75923 0.656156 0
M  V30 3217 H 338.983 -6.37318 -1.55441 0
M  V30 3218 H 338.9 -7.55448 -0.288931 0
M  V30 3219 H 340.168 -7.65439 -1.4739 0
M  V30 3220 N 344.397 -0.483516 -1.5 0
M  V30 3221 C 345.622 0.0667119 -2.07293 0
M  V30 3222 C 346.047 1.3164 -1.3436 0
M  V30 3223 O 345.405 1.76945 -0.394987 0
M  V30 3224 C 345.453 0.321126 -3.59167 0
M  V30 3225 O 344.557 1.39927 -3.87936 0
M  V30 3226 H 343.898 -0.0184758 -0.663743 0
M  V30 3227 H 346.428 -0.678125 -1.93035 0
M  V30 3228 H 346.438 0.557906 -4.04168 0
M  V30 3229 H 345.113 -0.592007 -4.11665 0
M  V30 3230 H 343.69 1.14882 -3.54763 0
M  V30 3231 N 345.875 1.56104 -0.216619 0
M  V30 3232 C 347.121 1.98466 0.417033 0
M  V30 3233 C 347.454 1.10403 1.59765 0
M  V30 3234 O 346.729 0.160632 1.93836 0
M  V30 3235 C 347.012 3.49769 0.85637 0
M  V30 3236 C 346.865 4.48606 -0.327546 0
M  V30 3237 C 348.184 4.05339 1.7143 0
M  V30 3238 H 345.303 0.721551 0.150112 0
M  V30 3239 H 347.945 1.87423 -0.311864 0
M  V30 3240 H 346.095 3.5931 1.47745 0
M  V30 3241 H 347.767 4.5108 -0.965618 0
M  V30 3242 H 346.01 4.22682 -0.975805 0
M  V30 3243 H 346.681 5.51995 0.0227149 0
M  V30 3244 H 349.157 3.98712 1.19031 0
M  V30 3245 H 348.033 5.11533 1.99061 0
M  V30 3246 H 348.294 3.51918 2.67593 0
M  V30 3247 N 347.353 -0.0568162 1.57498 0
M  V30 3248 C 348.581 -0.765626 1.92213 0
M  V30 3249 C 348.996 -1.70353 0.813961 0
M  V30 3250 O 348.353 -1.81268 -0.211701 0
M  V30 3251 C 348.404 -1.5465 3.2675 0
M  V30 3252 O 348.125 -0.646278 4.33307 0
M  V30 3253 C 349.626 -2.35497 3.75574 0
M  V30 3254 H 346.846 -0.216835 0.634999 0
M  V30 3255 H 349.39 -0.0226146 2.04487 0
M  V30 3256 H 347.545 -2.24165 3.15957 0
M  V30 3257 H 347.959 -1.19093 5.108 0
M  V30 3258 H 349.433 -2.85722 4.72299 0
M  V30 3259 H 349.91 -3.15692 3.05344 0
M  V30 3260 H 350.516 -1.7111 3.8936 0
M  V30 3261 N 348.832 -1.54138 -0.328536 0
M  V30 3262 C 350.081 -1.71318 -1.06456 0
M  V30 3263 C 350.394 -0.491109 -1.89334 0
M  V30 3264 O 351.6 -0.54416 -2.65991 0
M  V30 3265 C 350.056 -3.03 -1.94214 0
M  V30 3266 C 349.664 -4.32595 -1.16471 0
M  V30 3267 C 351.408 -3.29544 -2.67583 0
M  V30 3268 C 349.315 -5.55341 -2.03347 0
M  V30 3269 H 348.245 -0.638429 -0.401155 0
M  V30 3270 H 350.896 -1.80633 -0.323106 0
M  V30 3271 H 349.278 -2.87579 -2.72239 0
M  V30 3272 H 350.452 -4.58766 -0.432525 0
M  V30 3273 H 348.767 -4.12777 -0.548063 0
M  V30 3274 H 351.364 -4.18444 -3.3288 0
M  V30 3275 H 351.707 -2.47206 -3.34955 0
M  V30 3276 H 352.24 -3.45809 -1.96623 0
M  V30 3277 H 348.979 -6.40268 -1.40491 0
M  V30 3278 H 348.499 -5.33397 -2.74313 0
M  V30 3279 H 350.178 -5.91557 -2.62049 0
M  V30 3280 N 350.31 0.590341 -1.46126 0
M  V30 3281 C 351.538 1.37504 -1.54597 0
M  V30 3282 C 351.953 1.87897 -0.184447 0
M  V30 3283 O 351.31 1.63192 0.816984 0
M  V30 3284 C 351.361 2.56779 -2.54454 0
M  V30 3285 O 351.082 2.08476 -3.85317 0
M  V30 3286 C 352.583 3.49427 -2.72792 0
M  V30 3287 H 349.803 0.420325 -0.523037 0
M  V30 3288 H 352.347 0.718383 -1.91467 0
M  V30 3289 H 350.502 3.1845 -2.20609 0
M  V30 3290 H 350.916 2.86097 -4.396 0
M  V30 3291 H 352.39 4.29619 -3.466 0
M  V30 3292 H 352.867 4.00876 -1.79429 0
M  V30 3293 H 353.473 2.93598 -3.07702 0
M  V30 3294 N 351.788 1.33704 0.83433 0
M  V30 3295 C 352.718 1.26967 1.95963 0
M  V30 3296 C 353.699 0.149337 1.69443 0
M  V30 3297 O 354.884 0.339852 1.91203 0
M  V30 3298 C 352.014 1.01275 3.32206 0
M  V30 3299 C 350.968 2.09652 3.73136 0
M  V30 3300 C 350.294 1.69166 5.07235 0
M  V30 3301 C 351.594 3.51372 3.86439 0
M  V30 3302 H 353.288 2.2112 2.01857 0
M  V30 3303 H 350.834 1.06447 0.969793 0
M  V30 3304 H 352.787 0.952106 4.10503 0
M  V30 3305 H 351.511 0.0356203 3.26581 0
M  V30 3306 H 350.17 2.14766 2.97104 0
M  V30 3307 H 349.818 0.701437 4.98085 0
M  V30 3308 H 349.518 2.41694 5.35591 0
M  V30 3309 H 351.042 1.64576 5.88003 0
M  V30 3310 H 352.456 3.48734 4.55036 0
M  V30 3311 H 350.853 4.22425 4.26236 0
M  V30 3312 H 351.923 3.89546 2.88759 0
M  V30 3313 N 353.266 -1.05314 1.17247 0
M  V30 3314 C 354.229 -2.112 0.890357 0
M  V30 3315 C 355.229 -1.60359 -0.118943 0
M  V30 3316 O 356.419 -1.73833 0.113086 0
M  V30 3317 C 353.551 -3.39266 0.333422 0
M  V30 3318 H 354.744 -2.37659 1.82916 0
M  V30 3319 H 352.297 -1.21538 0.982758 0
M  V30 3320 H 353.032 -3.18462 -0.612587 0
M  V30 3321 H 352.817 -3.77477 1.06082 0
M  V30 3322 H 354.307 -4.17315 0.154322 0
M  V30 3323 N 354.744 -0.972509 -1.24016 0
M  V30 3324 C 355.676 -0.464375 -2.24446 0
M  V30 3325 C 356.689 0.4295 -1.57032 0
M  V30 3326 O 357.878 0.234902 -1.76948 0
M  V30 3327 C 354.978 0.348385 -3.37105 0
M  V30 3328 C 354.151 -0.53673 -4.34094 0
M  V30 3329 C 353.21 0.220838 -5.25736 0
M  V30 3330 O 352.236 -0.386867 -5.67884 0
M  V30 3331 N 353.438 1.50907 -5.60542 0
M  V30 3332 H 356.203 -1.32788 -2.68677 0
M  V30 3333 H 353.764 -0.844877 -1.38107 0
M  V30 3334 H 355.756 0.863341 -3.95384 0
M  V30 3335 H 354.326 1.11285 -2.92121 0
M  V30 3336 H 353.546 -1.23261 -3.74433 0
M  V30 3337 H 354.834 -1.14022 -4.95859 0
M  V30 3338 H 354.232 2.02444 -5.28236 0
M  V30 3339 H 352.789 1.96962 -6.21329 0
M  V30 3340 N 356.222 1.38976 -0.743202 0
M  V30 3341 C 357.132 2.3434 -0.110399 0
M  V30 3342 C 358.148 1.58741 0.712559 0
M  V30 3343 O 359.324 1.9099 0.639125 0
M  V30 3344 C 356.389 3.37812 0.780012 0
M  V30 3345 C 355.45 4.29263 -0.0561319 0
M  V30 3346 C 354.683 5.27793 0.791875 0
M  V30 3347 O 354.906 5.33043 2.03031 0
M  V30 3348 O 353.84 6.01512 0.216183 0
M  V30 3349 H 357.666 2.90129 -0.897714 0
M  V30 3350 H 355.251 1.40643 -0.503966 0
M  V30 3351 H 357.133 4.01194 1.28923 0
M  V30 3352 H 355.808 2.84395 1.546 0
M  V30 3353 H 354.715 3.69076 -0.611056 0
M  V30 3354 H 356.048 4.85907 -0.784531 0
M  V30 3355 N 357.7 0.491464 1.49741 0
M  V30 3356 C 358.663 -0.280906 2.27472 0
M  V30 3357 C 359.663 -0.902454 1.33088 0
M  V30 3358 O 360.853 -0.768465 1.56334 0
M  V30 3359 C 357.985 -1.40209 3.10732 0
M  V30 3360 H 359.178 0.401056 2.97206 0
M  V30 3361 H 356.731 0.246131 1.5435 0
M  V30 3362 H 357.466 -2.11849 2.45541 0
M  V30 3363 H 357.251 -0.961969 3.80117 0
M  V30 3364 H 358.741 -1.9464 3.69466 0
M  V30 3365 N 359.178 -1.55987 0.224894 0
M  V30 3366 C 360.408 -2.02489 -0.41007 0
M  V30 3367 C 360.816 -1.10391 -1.53657 0
M  V30 3368 O 360.159 -0.106458 -1.83391 0
M  V30 3369 C 360.221 -3.45319 -0.999757 0
M  V30 3370 C 359.885 -4.56999 -0.00827976 0
M  V30 3371 C 360.882 -5.13812 0.793314 0
M  V30 3372 C 358.567 -5.02176 0.111442 0
M  V30 3373 C 360.561 -6.14276 1.7013 0
M  V30 3374 C 358.248 -6.02477 1.02296 0
M  V30 3375 C 359.246 -6.58403 1.81643 0
M  V30 3376 O 358.934 -7.56751 2.71262 0
M  V30 3377 H 358.666 -0.667915 -0.104235 0
M  V30 3378 H 361.22 -2.0257 0.339782 0
M  V30 3379 H 359.45 -3.42318 -1.79876 0
M  V30 3380 H 361.139 -3.7545 -1.54248 0
M  V30 3381 H 361.905 -4.79756 0.711288 0
M  V30 3382 H 357.784 -4.58323 -0.49605 0
M  V30 3383 H 361.328 -6.57854 2.32107 0
M  V30 3384 H 357.225 -6.35954 1.10599 0
M  V30 3385 H 357.993 -7.74286 2.65375 0
M  V30 3386 N 360.656 0.0484629 -1.57525 0
M  V30 3387 C 361.881 0.759177 -1.93006 0
M  V30 3388 C 362.306 1.69125 -0.823317 0
M  V30 3389 O 361.664 1.79931 0.222364 0
M  V30 3390 C 361.712 1.50899 -3.27509 0
M  V30 3391 O 360.816 2.62112 -3.18388 0
M  V30 3392 H 360.157 0.205564 -0.631379 0
M  V30 3393 H 362.687 0.00972959 -2.04598 0
M  V30 3394 H 362.697 1.88317 -3.6194 0
M  V30 3395 H 361.372 0.825269 -4.0763 0
M  V30 3396 H 359.949 2.27379 -2.95556 0
M  V30 3397 N 362.134 1.5431 0.320358 0
M  V30 3398 C 363.097 1.83195 1.3774 0
M  V30 3399 C 364.097 0.703906 1.44575 0
M  V30 3400 O 365.287 0.972214 1.44546 0
M  V30 3401 C 362.419 1.99487 2.76438 0
M  V30 3402 H 363.612 2.77642 1.1338 0
M  V30 3403 H 361.165 1.46076 0.556012 0
M  V30 3404 H 361.9 1.07262 3.06048 0
M  V30 3405 H 361.685 2.81575 2.7287 0
M  V30 3406 H 363.175 2.23271 3.52902 0
M  V30 3407 N 363.613 -0.582584 1.46437 0
M  V30 3408 C 364.561 -1.71272 1.5738 0
M  V30 3409 C 365.555 -1.63524 0.44229 0
M  V30 3410 O 366.761 -1.69016 0.619166 0
M  V30 3411 H 363.136 -0.566273 0.494813 0
M  V30 3412 H 365.107 -1.59174 2.52401 0
M  V30 3413 C 363.856 -3.09658 1.58136 0
M  V30 3414 H 363.179 -3.16291 2.44541 0
M  V30 3415 H 364.619 -3.88494 1.69847 0
M  V30 3416 C 363.078 -3.3547 0.310026 0
M  V30 3417 O 363.608 -3.97199 -0.599683 0
M  V30 3418 N 361.814 -2.89925 0.197901 0
M  V30 3419 H 361.361 -2.39873 0.93909 0
M  V30 3420 H 361.319 -3.07568 -0.65185 0
M  V30 3421 N 365.091 -1.34144 -0.827227 0
M  V30 3422 C 366.337 -1.26446 -1.58554 0
M  V30 3423 C 366.67 0.1664 -1.93486 0
M  V30 3424 O 365.945 1.1107 -1.59667 0
M  V30 3425 C 366.228 -2.15111 -2.8879 0
M  V30 3426 C 366.081 -3.66712 -2.60465 0
M  V30 3427 C 367.4 -2.03311 -3.90324 0
M  V30 3428 H 364.519 -0.46067 -0.575284 0
M  V30 3429 H 367.161 -1.64356 -0.953269 0
M  V30 3430 H 365.311 -1.8291 -3.42748 0
M  V30 3431 H 366.983 -4.09259 -2.1285 0
M  V30 3432 H 365.226 -3.88014 -1.93978 0
M  V30 3433 H 365.897 -4.24112 -3.53317 0
M  V30 3434 H 368.373 -2.31574 -3.45706 0
M  V30 3435 H 367.249 -2.67582 -4.79261 0
M  V30 3436 H 367.51 -1.00879 -4.30437 0
M  V30 3437 N 366.569 1.04691 -1.17803 0
M  V30 3438 C 367.846 1.7472 -0.879328 0
M  V30 3439 C 368.226 2.01812 0.619271 0
M  V30 3440 O 367.574 1.65824 1.57209 0
M  V30 3441 C 367.784 3.03686 -1.71976 0
M  V30 3442 C 369.132 3.77542 -1.94286 0
M  V30 3443 O 370.156 3.13569 -1.68976 0
M  V30 3444 O 369.015 4.92506 -2.36855 0
M  V30 3445 H 366.109 0.760011 -0.326056 0
M  V30 3446 H 368.655 1.10813 -1.28525 0
M  V30 3447 H 367.427 2.79754 -2.73594 0
M  V30 3448 H 367.05 3.75332 -1.31194 0
M  V30 3449 N 368.047 0.979072 1.23499 0
M  V30 3450 C 368.997 0.489378 2.22686 0
M  V30 3451 C 369.981 -0.434871 1.54912 0
M  V30 3452 O 371.173 -0.263941 1.75021 0
M  V30 3453 C 368.302 -0.208178 3.42668 0
M  V30 3454 C 367.388 0.735563 4.17672 0
M  V30 3455 N 367.779 1.87763 4.69658 0
M  V30 3456 C 366.077 0.548625 4.42613 0
M  V30 3457 C 366.778 2.46886 5.26709 0
M  V30 3458 N 365.754 1.75287 5.14563 0
M  V30 3459 H 369.556 1.36062 2.60508 0
M  V30 3460 H 367.07 0.83958 1.39014 0
M  V30 3461 H 369.067 -0.576295 4.12898 0
M  V30 3462 H 367.727 -1.07572 3.06363 0
M  V30 3463 H 368.738 2.25885 4.66043 0
M  V30 3464 H 365.415 -0.274006 4.166 0
M  V30 3465 H 366.805 3.43326 5.77561 0
M  V30 3466 N 369.525 -1.3858 0.750561 0
M  V30 3467 C 370.455 -2.33102 0.136237 0
M  V30 3468 C 371.436 -1.54713 -0.706965 0
M  V30 3469 O 372.621 -1.83043 -0.648769 0
M  V30 3470 C 369.751 -3.38882 -0.760017 0
M  V30 3471 C 368.705 -4.27995 -0.0197785 0
M  V30 3472 C 368.031 -5.24605 -1.03408 0
M  V30 3473 C 369.331 -5.09554 1.14684 0
M  V30 3474 H 371.025 -2.84726 0.925822 0
M  V30 3475 H 368.571 -1.36898 0.446654 0
M  V30 3476 H 370.524 -4.0397 -1.19943 0
M  V30 3477 H 369.248 -2.85734 -1.58189 0
M  V30 3478 H 367.907 -3.64409 0.400184 0
M  V30 3479 H 367.555 -4.67746 -1.84994 0
M  V30 3480 H 367.255 -5.85081 -0.543464 0
M  V30 3481 H 368.779 -5.9257 -1.47288 0
M  V30 3482 H 370.193 -5.67899 0.785118 0
M  V30 3483 H 368.59 -5.7925 1.56812 0
M  V30 3484 H 369.66 -4.4347 1.96118 0
M  V30 3485 N 371.003 -0.499398 -1.49478 0
M  V30 3486 C 372.419 -0.155261 -1.58843 0
M  V30 3487 C 372.619 1.34008 -1.50479 0
M  V30 3488 O 371.675 2.11589 -1.37791 0
M  V30 3489 C 372.988 -0.730636 -2.91689 0
M  V30 3490 C 374.536 -0.696599 -3.0515 0
M  V30 3491 C 375.011 -1.25001 -4.40612 0
M  V30 3492 N 376.502 -1.21064 -4.47099 0
M  V30 3493 C 377.237 -1.60905 -5.50361 0
M  V30 3494 N 376.733 -2.08331 -6.60735 0
M  V30 3495 N 378.526 -1.52331 -5.41065 0
M  V30 3496 H 370.677 -1.47162 -1.53158 0
M  V30 3497 H 372.94 -0.610309 -0.725415 0
M  V30 3498 H 372.646 -1.77928 -3.03372 0
M  V30 3499 H 372.52 -0.190161 -3.7672 0
M  V30 3500 H 374.907 0.343204 -2.93097 0
M  V30 3501 H 374.988 -1.2742 -2.21806 0
M  V30 3502 H 374.632 -2.28859 -4.53416 0
M  V30 3503 H 374.562 -0.64836 -5.22593 0
M  V30 3504 H 377.053 -0.863128 -3.67911 0
M  V30 3505 H 377.366 -2.36805 -7.35624 0
M  V30 3506 H 375.711 -2.12304 -6.6178 0
M  V30 3507 H 378.902 -1.151 -4.53729 0
M  V30 3508 H 379.075 -1.83704 -6.21415 0
M  V30 3509 N 372.481 1.55866 -0.233164 0
M  V30 3510 C 373.758 1.90471 0.444988 0
M  V30 3511 C 374.138 1.15209 1.7689 0
M  V30 3512 O 373.486 0.265119 2.26957 0
M  V30 3513 C 373.696 3.4333 0.626559 0
M  V30 3514 C 375.044 4.14319 0.92871 0
M  V30 3515 O 376.068 3.48993 0.712926 0
M  V30 3516 O 374.927 5.29846 1.33887 0
M  V30 3517 H 372.021 0.792347 0.236885 0
M  V30 3518 H 374.567 1.67437 -0.276211 0
M  V30 3519 H 373.339 3.90095 -0.306822 0
M  V30 3520 H 372.962 3.72181 1.39881 0
M  V30 3521 N 373.959 -0.0401083 1.57549 0
M  V30 3522 C 374.889 -1.04384 2.08869 0
M  V30 3523 C 375.87 -1.38407 0.988817 0
M  V30 3524 O 377.055 -1.47483 1.26342 0
M  V30 3525 C 374.185 -2.34808 2.55895 0
M  V30 3526 C 373.139 -2.15057 3.70047 0
M  V30 3527 C 372.465 -3.51145 4.03239 0
M  V30 3528 C 373.765 -1.54576 4.98902 0
M  V30 3529 H 375.459 -0.616666 2.92981 0
M  V30 3530 H 373.005 -0.295184 1.40942 0
M  V30 3531 H 374.958 -3.05346 2.90417 0
M  V30 3532 H 373.682 -2.79565 1.68853 0
M  V30 3533 H 372.341 -1.46954 3.35857 0
M  V30 3534 H 371.989 -3.93529 3.13279 0
M  V30 3535 H 371.689 -3.38758 4.80122 0
M  V30 3536 H 373.213 -4.23062 4.40285 0
M  V30 3537 H 374.627 -2.15017 5.31451 0
M  V30 3538 H 373.024 -1.52796 5.80322 0
M  V30 3539 H 374.094 -0.51039 4.82206 0
M  V30 3540 N 375.437 -1.54477 -0.31217 0
M  V30 3541 C 376.4 -1.83923 -1.36766 0
M  V30 3542 C 377.4 -0.711563 -1.44199 0
M  V30 3543 O 378.59 -0.979866 -1.44029 0
M  V30 3544 C 375.722 -2.0095 -2.75376 0
M  V30 3545 H 376.915 -2.78239 -1.11906 0
M  V30 3546 H 374.468 -1.46369 -0.548257 0
M  V30 3547 H 375.203 -1.08883 -3.05475 0
M  V30 3548 H 374.988 -2.83018 -2.71373 0
M  V30 3549 H 376.478 -2.2514 -3.51713 0
M  V30 3550 N 376.915 0.57481 -1.46744 0
M  V30 3551 C 378.326 1.15695 -1.46532 0
M  V30 3552 C 378.677 1.95068 -0.210425 0
M  V30 3553 O 377.802 2.05241 0.685944 0
M  V30 3554 C 378.397 2.1048 -2.65487 0
M  V30 3555 C 376.956 2.64002 -2.68291 0
M  V30 3556 C 376.103 1.40026 -2.39349 0
M  V30 3557 H 379.054 0.362325 -1.54509 0
M  V30 3558 H 379.075 2.94074 -2.41455 0
M  V30 3559 H 378.587 1.52683 -3.56805 0
M  V30 3560 H 376.688 3.25646 -1.81067 0
M  V30 3561 H 376.801 3.06197 -3.68483 0
M  V30 3562 H 375.165 1.70106 -1.89568 0
M  V30 3563 H 375.948 0.840485 -3.32852 0
M  V30 3564 N 378.394 1.34581 0.820102 0
M  V30 3565 C 379.619 1.30333 1.61332 0
M  V30 3566 C 380.044 -0.119339 1.87721 0
M  V30 3567 O 379.402 -1.08197 1.45475 0
M  V30 3568 C 379.45 2.10258 2.92957 0
M  V30 3569 O 378.554 1.47404 3.85157 0
M  V30 3570 H 377.895 0.447488 0.490561 0
M  V30 3571 H 380.425 1.77425 1.01889 0
M  V30 3572 H 380.435 2.21718 3.42498 0
M  V30 3573 H 379.11 3.13693 2.73074 0
M  V30 3574 H 377.687 1.44703 3.43679 0
M  V30 3575 N 379.872 -1.04064 1.18357 0
M  V30 3576 C 381.149 -1.74252 0.888581 0
M  V30 3577 C 381.529 -2.02138 -0.60856 0
M  V30 3578 O 380.877 -1.66656 -1.56327 0
M  V30 3579 C 381.087 -3.0277 1.73584 0
M  V30 3580 C 382.435 -3.76506 1.96286 0
M  V30 3581 O 383.459 -3.12668 1.70637 0
M  V30 3582 O 382.318 -4.91243 2.39464 0
M  V30 3583 H 379.412 -0.758271 0.330082 0
M  V30 3584 H 381.958 -1.1013 1.2911 0
M  V30 3585 H 380.73 -2.78299 2.75073 0
M  V30 3586 H 380.353 -3.74631 1.33183 0
M  V30 3587 N 381.35 -0.985608 -1.22978 0
M  V30 3588 C 382.597 -0.657386 -1.91532 0
M  V30 3589 C 382.925 0.809707 -1.76845 0
M  V30 3590 O 382.18 1.60021 -1.12658 0
M  V30 3591 C 382.479 -1.00014 -3.43121 0
M  V30 3592 C 382.145 -2.4583 -3.77993 0
M  V30 3593 C 380.807 -2.85679 -3.87222 0
M  V30 3594 C 383.159 -3.40378 -3.94705 0
M  V30 3595 C 380.487 -4.19081 -4.10595 0
M  V30 3596 C 382.839 -4.73429 -4.1958 0
M  V30 3597 C 381.503 -5.1303 -4.27032 0
M  V30 3598 H 380.773 -0.240555 -0.700867 0
M  V30 3599 H 383.42 -1.24044 -1.45895 0
M  V30 3600 H 381.725 -0.335072 -3.90365 0
M  V30 3601 H 383.422 -0.724322 -3.94404 0
M  V30 3602 H 380.012 -2.13939 -3.71387 0
M  V30 3603 H 384.196 -3.10766 -3.8696 0
M  V30 3604 H 379.452 -4.49362 -4.14589 0
M  V30 3605 H 383.626 -5.46644 -4.31455 0
M  V30 3606 H 381.253 -6.16418 -4.44896 0
M  V30 3607 N 382.828 1.3818 -0.7579 0
M  V30 3608 C 384.239 1.82726 -0.383134 0
M  V30 3609 C 384.59 1.63214 1.08884 0
M  V30 3610 O 383.715 1.13566 1.84205 0
M  V30 3611 C 384.31 3.31728 -0.688631 0
M  V30 3612 C 382.869 3.74606 -0.367091 0
M  V30 3613 C 382.016 2.60896 -0.939599 0
M  V30 3614 H 384.967 1.26847 -0.953699 0
M  V30 3615 H 384.988 3.80487 0.0316492 0
M  V30 3616 H 384.5 3.45898 -1.76001 0
M  V30 3617 H 382.601 3.66013 0.697532 0
M  V30 3618 H 382.714 4.71215 -0.865658 0
M  V30 3619 H 381.078 2.52075 -0.3647 0
M  V30 3620 H 381.861 2.77864 -2.0161 0
M  V30 3621 N 384.306 0.507319 1.49211 0
M  V30 3622 C 385.555 -0.0368315 2.01666 0
M  V30 3623 C 385.868 -1.37459 1.39156 0
M  V30 3624 O 387.074 -2.00579 1.82976 0
M  V30 3625 C 385.53 -0.116089 3.59713 0
M  V30 3626 C 385.138 1.2154 4.31198 0
M  V30 3627 C 386.882 -0.610268 4.2009 0
M  V30 3628 C 384.789 1.09796 5.81119 0
M  V30 3629 H 383.719 -0.0175376 0.753796 0
M  V30 3630 H 386.37 0.647691 1.71689 0
M  V30 3631 H 384.752 -0.8652 3.86433 0
M  V30 3632 H 385.926 1.9783 4.16173 0
M  V30 3633 H 384.241 1.64352 3.82593 0
M  V30 3634 H 386.838 -0.715742 5.29888 0
M  V30 3635 H 387.181 -1.61064 3.8388 0
M  V30 3636 H 387.714 0.0824916 3.97714 0
M  V30 3637 H 384.453 2.0728 6.21864 0
M  V30 3638 H 383.973 0.376058 5.9862 0
M  V30 3639 H 385.652 0.779281 6.4229 0
M  V30 3640 N 385.784 -1.5574 0.241426 0
M  V30 3641 C 387.032 -1.98417 -0.384075 0
M  V30 3642 C 387.353 -1.13078 -1.58866 0
M  V30 3643 O 386.623 -0.212312 -1.94746 0
M  V30 3644 H 385.203 -0.732813 -0.144894 0
M  V30 3645 H 387.865 -1.9193 0.338943 0
M  V30 3646 H 386.961 -3.04219 -0.696939 0
M  V30 3647 N 387.262 0.0317525 -1.57568 0
M  V30 3648 C 388.508 0.724175 -1.8943 0
M  V30 3649 C 388.841 1.75149 -0.838836 0
M  V30 3650 O 388.116 1.93948 0.146422 0
M  V30 3651 C 388.399 1.39615 -3.31933 0
M  V30 3652 C 388.252 0.382537 -4.4817 0
M  V30 3653 C 389.571 2.33084 -3.73309 0
M  V30 3654 H 386.69 0.261797 -0.688935 0
M  V30 3655 H 389.332 -0.013017 -1.89996 0
M  V30 3656 H 387.482 2.02451 -3.31581 0
M  V30 3657 H 389.154 -0.243689 -4.60656 0
M  V30 3658 H 387.397 -0.29844 -4.32772 0
M  V30 3659 H 388.068 0.891145 -5.44759 0
M  V30 3660 H 390.544 1.80295 -3.7501 0
M  V30 3661 H 389.42 2.77084 -4.73831 0
M  V30 3662 H 389.681 3.19643 -3.05419 0
M  V30 3663 N 388.74 1.54641 0.303973 0
M  V30 3664 C 389.703 1.84646 1.35789 0
M  V30 3665 C 390.703 0.7192 1.4382 0
M  V30 3666 O 391.893 0.987491 1.43507 0
M  V30 3667 C 389.025 2.02407 2.74307 0
M  V30 3668 H 390.218 2.78829 1.10429 0
M  V30 3669 H 387.771 1.46658 0.540487 0
M  V30 3670 H 388.506 1.10502 3.04893 0
M  V30 3671 H 388.291 2.84453 2.69868 0
M  V30 3672 H 389.781 2.27002 3.50514 0
M  V30 3673 N 390.218 -0.567019 1.47046 0
M  V30 3674 C 391.464 -1.32658 1.53394 0
M  V30 3675 C 391.797 -1.93254 0.19148 0
M  V30 3676 O 391.072 -1.77338 -0.798844 0
M  V30 3677 C 391.355 -2.44412 2.64452 0
M  V30 3678 C 391.208 -1.88749 4.08282 0
M  V30 3679 C 392.527 -3.46387 2.71485 0
M  V30 3680 H 389.646 -0.48098 0.558415 0
M  V30 3681 H 392.288 -0.635481 1.79058 0
M  V30 3682 H 390.438 -3.03363 2.427 0
M  V30 3683 H 392.11 -1.34134 4.41368 0
M  V30 3684 H 390.353 -1.19481 4.17021 0
M  V30 3685 H 391.024 -2.69491 4.81745 0
M  V30 3686 H 393.5 -2.9734 2.91081 0
M  V30 3687 H 392.376 -4.2202 3.50985 0
M  V30 3688 H 392.637 -4.04616 1.78153 0
M  V30 3689 N 391.696 -1.35014 -0.812953 0
M  V30 3690 C 392.921 -1.31187 -1.60639 0
M  V30 3691 C 393.346 0.109382 -1.87782 0
M  V30 3692 O 392.704 1.07424 -1.46047 0
M  V30 3693 C 392.752 -2.11809 -2.91838 0
M  V30 3694 O 391.856 -1.49444 -3.8437 0
M  V30 3695 H 391.197 -0.450084 -0.488181 0
M  V30 3696 H 393.727 -1.77963 -1.00947 0
M  V30 3697 H 393.737 -2.23531 -3.41318 0
M  V30 3698 H 392.412 -3.15137 -2.71407 0
M  V30 3699 H 390.989 -1.46524 -3.42907 0
M  V30 3700 N 393.175 1.03435 -1.18907 0
M  V30 3701 C 394.123 2.13703 -0.918353 0
M  V30 3702 C 395.117 1.68947 0.123767 0
M  V30 3703 O 396.323 1.79983 -0.0249701 0
M  V30 3704 H 392.698 0.698112 -0.279542 0
M  V30 3705 H 394.669 2.33731 -1.85506 0
M  V30 3706 C 393.418 3.44542 -0.467532 0
M  V30 3707 H 392.741 3.79394 -1.26095 0
M  V30 3708 H 394.181 4.22812 -0.317164 0
M  V30 3709 C 392.64 3.26829 0.817588 0
M  V30 3710 O 393.17 3.54975 1.88031 0
M  V30 3711 N 391.376 2.80139 0.772677 0
M  V30 3712 H 390.923 2.57434 -0.0923883 0
M  V30 3713 H 390.881 2.68668 1.63294 0
M  V30 3714 N 394.653 0.992116 1.22453 0
M  V30 3715 C 395.881 0.685944 1.95198 0
M  V30 3716 C 396.296 -0.749233 1.73297 0
M  V30 3717 O 395.653 -1.50549 1.03156 0
M  V30 3718 C 395.704 0.981395 3.47924 0
M  V30 3719 O 395.425 2.36018 3.6909 0
M  V30 3720 C 396.926 0.692815 4.37853 0
M  V30 3721 H 394.146 0.253821 0.621141 0
M  V30 3722 H 396.69 1.32668 1.55626 0
M  V30 3723 H 394.845 0.386481 3.85467 0
M  V30 3724 H 395.259 2.45884 4.63294 0
M  V30 3725 H 396.733 0.949818 5.43767 0
M  V30 3726 H 397.21 -0.373181 4.37612 0
M  V30 3727 H 397.816 1.26874 4.05935 0
M  V30 3728 N 396.131 -1.37776 0.765217 0
M  V30 3729 C 397.408 -1.93975 0.251596 0
M  V30 3730 C 397.788 -1.69949 -1.25222 0
M  V30 3731 O 397.136 -1.04457 -2.03226 0
M  V30 3732 C 397.346 -3.43487 0.617895 0
M  V30 3733 C 398.694 -4.20564 0.584029 0
M  V30 3734 O 399.718 -3.5182 0.556888 0
M  V30 3735 O 398.577 -5.43138 0.605291 0
M  V30 3736 H 395.671 -0.82509 0.0561806 0
M  V30 3737 H 398.217 -1.47101 0.846128 0
M  V30 3738 H 396.989 -3.5453 1.65602 0
M  V30 3739 H 396.612 -3.976 -0.00403411 0
M  V30 3740 N 397.609 -0.515225 -1.4894 0
M  V30 3741 C 398.834 0.022727 -2.07388 0
M  V30 3742 C 399.259 1.2876 -1.37122 0
M  V30 3743 O 398.617 1.76067 -0.432431 0
M  V30 3744 C 398.665 0.244869 -3.59768 0
M  V30 3745 O 397.769 1.31667 -3.90817 0
M  V30 3746 H 397.11 -0.0325506 -0.663202 0
M  V30 3747 H 399.64 -0.718918 -1.91553 0
M  V30 3748 H 399.65 0.47205 -4.0526 0
M  V30 3749 H 398.325 -0.679194 -4.10317 0
M  V30 3750 H 396.902 1.07331 -3.5712 0
M  V30 3751 N 399.087 1.5561 -0.249682 0
M  V30 3752 C 400.05 2.20217 0.635394 0
M  V30 3753 C 401.05 1.17227 1.10066 0
M  V30 3754 O 402.24 1.42292 1.00492 0
M  V30 3755 C 399.372 2.84794 1.87363 0
M  V30 3756 H 400.565 2.99814 0.0716752 0
M  V30 3757 H 398.118 1.563 -0.000153234 0
M  V30 3758 H 398.853 2.09142 2.47851 0
M  V30 3759 H 398.638 3.60241 1.5482 0
M  V30 3760 H 400.128 3.3423 2.5036 0
M  V30 3761 N 400.565 -0.0233959 1.57583 0
M  V30 3762 C 401.793 -0.724682 1.93794 0
M  V30 3763 C 402.208 -1.68588 0.849912 0
M  V30 3764 O 401.565 -1.81676 -0.173204 0
M  V30 3765 C 401.616 -1.47684 3.29957 0
M  V30 3766 O 401.337 -0.554222 4.3458 0
M  V30 3767 C 402.838 -2.27477 3.80485 0
M  V30 3768 H 400.058 -0.203317 0.639455 0
M  V30 3769 H 402.602 0.0207653 2.04489 0
M  V30 3770 H 400.757 -2.17412 3.20641 0
M  V30 3771 H 401.171 -1.08232 5.13212 0
M  V30 3772 H 402.645 -2.7564 4.78254 0
M  V30 3773 H 403.122 -3.09144 3.11972 0
M  V30 3774 H 403.728 -1.62813 3.92902 0
M  V30 3775 N 402.043 -1.548 -0.295768 0
M  V30 3776 C 403.273 -1.78069 -1.04762 0
M  V30 3777 C 403.681 -0.542847 -1.81245 0
M  V30 3778 O 403.024 0.497051 -1.76848 0
M  V30 3779 C 403.086 -2.93881 -2.07061 0
M  V30 3780 C 402.75 -4.31777 -1.49725 0
M  V30 3781 C 403.747 -5.11613 -0.924581 0
M  V30 3782 C 401.432 -4.78389 -1.5313 0
M  V30 3783 C 403.426 -6.36184 -0.393594 0
M  V30 3784 C 401.113 -6.02921 -0.996447 0
M  V30 3785 C 402.111 -6.81654 -0.428569 0
M  V30 3786 O 401.799 -8.0384 0.0981593 0
M  V30 3787 H 401.531 -0.597475 -0.316226 0
M  V30 3788 H 404.085 -2.02584 -0.338973 0
M  V30 3789 H 402.315 -2.65003 -2.81621 0
M  V30 3790 H 404.004 -3.04679 -2.6819 0
M  V30 3791 H 404.77 -4.76743 -0.891136 0
M  V30 3792 H 400.649 -4.17132 -1.9627 0
M  V30 3793 H 404.193 -6.97582 0.0503014 0
M  V30 3794 H 400.09 -6.37277 -1.02706 0
M  V30 3795 H 400.858 -8.18499 -0.0146455 0
M  V30 3796 N 403.521 0.559213 -1.47345 0
M  V30 3797 C 404.469 1.68747 -1.60085 0
M  V30 3798 C 405.463 1.628 -0.46825 0
M  V30 3799 O 406.669 1.68009 -0.645977 0
M  V30 3800 H 403.044 0.558329 -0.503759 0
M  V30 3801 H 405.015 1.55138 -2.54902 0
M  V30 3802 C 403.764 3.07103 -1.63042 0
M  V30 3803 H 403.087 3.12361 -2.49541 0
M  V30 3804 H 404.527 3.85743 -1.76006 0
M  V30 3805 C 402.986 3.34935 -0.363357 0
M  V30 3806 O 403.516 3.98102 0.536416 0
M  V30 3807 N 401.722 2.89574 -0.244 0
M  V30 3808 H 401.269 2.38348 -0.977133 0
M  V30 3809 H 401.227 3.08566 0.602836 0
M  V30 3810 N 404.999 1.35443 0.805782 0
M  V30 3811 C 405.929 1.31095 1.93226 0
M  V30 3812 C 406.91 0.185244 1.69088 0
M  V30 3813 O 408.095 0.380332 1.90439 0
M  V30 3814 C 405.225 1.08299 3.29983 0
M  V30 3815 C 404.179 2.17519 3.68605 0
M  V30 3816 C 403.505 1.79887 5.03532 0
M  V30 3817 C 404.805 3.5949 3.78898 0
M  V30 3818 H 406.499 2.25352 1.97122 0
M  V30 3819 H 404.045 1.0848 0.946996 0
M  V30 3820 H 405.998 1.03897 4.08391 0
M  V30 3821 H 404.722 0.104885 3.26432 0
M  V30 3822 H 403.381 2.2102 2.92482 0
M  V30 3823 H 403.029 0.80693 4.96485 0
M  V30 3824 H 402.729 2.53001 5.30344 0
M  V30 3825 H 404.253 1.77011 5.84379 0
M  V30 3826 H 405.667 3.58307 4.47536 0
M  V30 3827 H 404.064 4.31371 4.1718 0
M  V30 3828 H 405.134 3.95584 2.80431 0
M  V30 3829 N 406.477 -1.02803 1.19454 0
M  V30 3830 C 407.407 -2.12999 0.956758 0
M  V30 3831 C 408.388 -1.69743 -0.110188 0
M  V30 3832 O 409.573 -1.94148 0.0450038 0
M  V30 3833 C 406.703 -3.43746 0.495553 0
M  V30 3834 C 405.657 -4.00688 1.50443 0
M  V30 3835 C 404.983 -5.27067 0.900275 0
M  V30 3836 C 406.283 -4.35397 2.8849 0
M  V30 3837 H 407.977 -2.33148 1.87836 0
M  V30 3838 H 405.523 -1.12045 0.904539 0
M  V30 3839 H 407.476 -4.2021 0.316493 0
M  V30 3840 H 406.2 -3.23321 -0.461646 0
M  V30 3841 H 404.859 -3.2632 1.67065 0
M  V30 3842 H 404.507 -5.02959 -0.064503 0
M  V30 3843 H 404.207 -5.66127 1.57397 0
M  V30 3844 H 405.731 -6.06196 0.73203 0
M  V30 3845 H 407.145 -5.02795 2.75446 0
M  V30 3846 H 405.542 -4.85541 3.52661 0
M  V30 3847 H 406.612 -3.44662 3.41081 0
M  V30 3848 N 407.956 -0.998596 -1.21925 0
M  V30 3849 C 409.184 -0.696286 -1.94832 0
M  V30 3850 C 409.599 0.740032 -1.73692 0
M  V30 3851 O 408.956 1.5 -1.03953 0
M  V30 3852 C 409.007 -0.999833 -3.47398 0
M  V30 3853 O 408.728 -2.37972 -3.67833 0
M  V30 3854 C 410.229 -0.716025 -4.37479 0
M  V30 3855 H 407.449 -0.257111 -0.619786 0
M  V30 3856 H 409.993 -1.33491 -1.54921 0
M  V30 3857 H 408.148 -0.406918 -3.85257 0
M  V30 3858 H 408.562 -2.48338 -4.61983 0
M  V30 3859 H 410.036 -0.978642 -5.43256 0
M  V30 3860 H 410.513 0.349968 -4.37803 0
M  V30 3861 H 411.119 -1.29025 -4.05256 0
M  V30 3862 N 409.434 1.37368 -0.772513 0
M  V30 3863 C 410.382 2.32134 -0.147111 0
M  V30 3864 C 411.376 1.54972 0.684106 0
M  V30 3865 O 412.582 1.70363 0.581083 0
M  V30 3866 H 408.957 0.751449 -0.028786 0
M  V30 3867 H 410.928 2.82464 -0.962112 0
M  V30 3868 C 409.677 3.40226 0.71703 0
M  V30 3869 H 409 3.99706 0.0867951 0
M  V30 3870 H 410.44 4.08897 1.12159 0
M  V30 3871 C 408.899 2.80372 1.86797 0
M  V30 3872 O 409.429 2.71183 2.96349 0
M  V30 3873 N 407.635 2.37904 1.66883 0
M  V30 3874 H 407.182 2.45578 0.777759 0
M  V30 3875 H 407.14 1.98202 2.44056 0
M  V30 3876 N 410.912 0.523116 1.48665 0
M  V30 3877 C 412.137 -0.0117284 2.07397 0
M  V30 3878 C 412.562 -1.28031 1.37803 0
M  V30 3879 O 411.92 -1.75836 0.441762 0
M  V30 3880 C 411.968 -0.225786 3.59892 0
M  V30 3881 O 411.072 -1.29592 3.91509 0
M  V30 3882 H 410.413 0.0360673 0.66302 0
M  V30 3883 H 412.943 0.729066 1.9117 0
M  V30 3884 H 412.953 -0.450552 4.05505 0
M  V30 3885 H 411.628 0.700944 4.09951 0
M  V30 3886 H 410.205 -1.05436 3.57684 0
M  V30 3887 N 412.39 -1.55475 0.257931 0
M  V30 3888 C 413.806 -1.59307 -0.0966563 0
M  V30 3889 C 414.006 -1.27514 -1.5602 0
M  V30 3890 O 413.062 -1.02774 -2.30637 0
M  V30 3891 C 414.375 -2.99552 0.262481 0
M  V30 3892 C 415.923 -3.1231 0.207683 0
M  V30 3893 C 416.398 -4.54793 0.541012 0
M  V30 3894 N 417.889 -4.6058 0.491921 0
M  V30 3895 C 418.624 -5.68825 0.722857 0
M  V30 3896 N 418.12 -6.85287 1.0175 0
M  V30 3897 N 419.913 -5.58296 0.652815 0
M  V30 3898 H 412.064 -1.74409 1.21224 0
M  V30 3899 H 414.327 -0.812424 0.48854 0
M  V30 3900 H 414.033 -3.27593 1.27967 0
M  V30 3901 H 413.907 -3.75019 -0.40508 0
M  V30 3902 H 416.294 -2.84044 -0.800195 0
M  V30 3903 H 416.375 -2.39095 0.909255 0
M  V30 3904 H 416.019 -4.83783 1.5465 0
M  V30 3905 H 415.949 -5.26285 -0.18216 0
M  V30 3906 H 418.44 -3.7691 0.273366 0
M  V30 3907 H 418.753 -7.63725 1.18084 0
M  V30 3908 H 417.098 -6.86945 1.05509 0
M  V30 3909 H 420.289 -4.66189 0.422592 0
M  V30 3910 H 420.462 -6.42582 0.836182 0
M  V30 3911 N 413.868 0.0150385 -1.57593 0
M  V30 3912 C 414.778 1.02791 -2.10882 0
M  V30 3913 C 415.794 1.38702 -1.0506 0
M  V30 3914 O 416.97 1.47739 -1.36877 0
M  V30 3915 C 414.035 2.30568 -2.58919 0
M  V30 3916 C 413.096 2.01108 -3.79281 0
M  V30 3917 C 412.329 3.22794 -4.25018 0
M  V30 3918 O 412.552 4.33959 -3.70183 0
M  V30 3919 O 411.486 3.07672 -5.17322 0
M  V30 3920 H 415.312 0.604973 -2.97613 0
M  V30 3921 H 412.897 0.23292 -1.47573 0
M  V30 3922 H 414.779 3.05662 -2.90084 0
M  V30 3923 H 413.454 2.72129 -1.75293 0
M  V30 3924 H 412.361 1.23537 -3.53114 0
M  V30 3925 H 413.694 1.64394 -4.63935 0
M  V30 3926 N 415.346 1.54954 0.287554 0
M  V30 3927 C 416.278 1.83224 1.37701 0
M  V30 3928 C 417.291 0.715898 1.46215 0
M  V30 3929 O 418.48 0.993565 1.48292 0
M  V30 3930 C 415.58 1.96723 2.75959 0
M  V30 3931 C 414.753 3.27253 2.90215 0
M  V30 3932 C 413.812 3.30998 4.09056 0
M  V30 3933 O 412.838 4.04457 4.00503 0
M  V30 3934 N 414.04 2.57353 5.20336 0
M  V30 3935 H 416.805 2.77254 1.138 0
M  V30 3936 H 414.366 1.54694 0.477652 0
M  V30 3937 H 416.358 1.96615 3.5373 0
M  V30 3938 H 414.928 1.09626 2.92747 0
M  V30 3939 H 414.148 3.40022 1.99447 0
M  V30 3940 H 415.436 4.13365 2.96659 0
M  V30 3941 H 414.834 1.97327 5.30169 0
M  V30 3942 H 413.391 2.62984 5.96391 0
M  V30 3943 N 416.824 -0.551391 1.4764 0
M  V30 3944 C 417.787 -1.64007 1.60107 0
M  V30 3945 C 418.787 -1.53601 0.47576 0
M  V30 3946 O 419.977 -1.57655 0.740988 0
M  V30 3947 C 417.109 -3.03569 1.55108 0
M  V30 3948 H 418.302 -1.543 2.57161 0
M  V30 3949 H 415.855 -0.771776 1.35917 0
M  V30 3950 H 416.59 -3.18804 0.594519 0
M  V30 3951 H 416.375 -3.12532 2.36783 0
M  V30 3952 H 417.865 -3.82762 1.66982 0
M  V30 3953 N 418.302 -1.35869 -0.798587 0
M  V30 3954 C 419.548 -1.2978 -1.55836 0
M  V30 3955 C 419.881 0.125322 -1.93795 0
M  V30 3956 O 419.156 1.07658 -1.61987 0
M  V30 3957 C 419.439 -2.21188 -2.84162 0
M  V30 3958 C 419.292 -3.72155 -2.52628 0
M  V30 3959 C 420.611 -2.11545 -3.85923 0
M  V30 3960 H 417.73 -0.472769 -0.565383 0
M  V30 3961 H 420.372 -1.66341 -0.918192 0
M  V30 3962 H 418.522 -1.90139 -3.38791 0
M  V30 3963 H 420.194 -4.13682 -2.04121 0
M  V30 3964 H 418.437 -3.92042 -1.85704 0
M  V30 3965 H 419.108 -4.31511 -3.44242 0
M  V30 3966 H 421.584 -2.38855 -3.40716 0
M  V30 3967 H 420.46 -2.77688 -4.73477 0
M  V30 3968 H 420.721 -1.09987 -4.282 0
M  V30 3969 N 419.78 1.02168 -1.19998 0
M  V30 3970 C 421.026 1.75945 -1.00852 0
M  V30 3971 C 421.359 1.88702 0.458828 0
M  V30 3972 O 420.634 1.40911 1.34069 0
M  V30 3973 C 420.917 3.18154 -1.68671 0
M  V30 3974 C 420.77 3.13224 -3.22817 0
M  V30 3975 C 422.089 4.16711 -1.41561 0
M  V30 3976 H 419.208 0.638673 -0.367785 0
M  V30 3977 H 421.85 1.19222 -1.4794 0
M  V30 3978 H 420 3.66586 -1.28636 0
M  V30 3979 H 421.672 2.72635 -3.72112 0
M  V30 3980 H 419.915 2.50751 -3.53986 0
M  V30 3981 H 420.586 4.13728 -3.65422 0
M  V30 3982 H 423.062 3.76913 -1.76284 0
M  V30 3983 H 421.938 5.14391 -1.91553 0
M  V30 3984 H 422.199 4.40774 -0.342193 0
M  V30 3985 N 421.258 1.00505 1.21394 0
M  V30 3986 C 422.205 0.565496 2.23765 0
M  V30 3987 C 423.175 -0.408466 1.60999 0
M  V30 3988 O 424.36 -0.310503 1.88257 0
M  V30 3989 C 421.5 -0.101667 3.4495 0
M  V30 3990 C 420.613 0.915479 4.22188 0
M  V30 3991 C 419.748 0.220574 5.30742 0
M  V30 3992 C 418.787 1.22527 5.99711 0
M  V30 3993 N 417.924 0.557831 6.9988 0
M  V30 3994 H 422.764 1.44314 2.60725 0
M  V30 3995 H 420.301 0.722643 1.28126 0
M  V30 3996 H 422.259 -0.505504 4.14126 0
M  V30 3997 H 420.889 -0.94303 3.08718 0
M  V30 3998 H 419.941 1.43756 3.52191 0
M  V30 3999 H 421.253 1.68005 4.69655 0
M  V30 4000 H 420.407 -0.239368 6.06228 0
M  V30 4001 H 419.146 -0.576401 4.84282 0
M  V30 4002 H 418.151 1.69571 5.22997 0
M  V30 4003 H 419.376 2.02332 6.48258 0
M  V30 4004 H 417.322 -0.219486 6.55633 0
M  V30 4005 H 417.239 1.26065 7.45415 0
M  V30 4006 H 418.507 0.121095 7.79406 0
M  V30 4007 N 422.737 -1.36956 0.779787 0
M  V30 4008 C 423.684 -2.30175 0.169697 0
M  V30 4009 C 424.654 -1.51501 -0.68094 0
M  V30 4010 O 425.839 -1.80042 -0.631629 0
M  V30 4011 C 422.979 -3.37985 -0.697131 0
M  V30 4012 C 422.092 -4.31661 0.170992 0
M  V30 4013 C 421.227 -5.2655 -0.701298 0
M  V30 4014 C 420.266 -6.11867 0.168869 0
M  V30 4015 N 419.403 -6.98973 -0.661855 0
M  V30 4016 H 424.243 -2.81767 0.970135 0
M  V30 4017 H 421.78 -1.38699 0.489994 0
M  V30 4018 H 423.738 -3.99128 -1.2146 0
M  V30 4019 H 422.368 -2.87739 -1.46309 0
M  V30 4020 H 421.42 -3.71756 0.80634 0
M  V30 4021 H 422.732 -4.91644 0.841875 0
M  V30 4022 H 421.886 -5.92937 -1.28494 0
M  V30 4023 H 420.625 -4.66998 -1.40584 0
M  V30 4024 H 419.63 -5.44452 0.764986 0
M  V30 4025 H 420.855 -6.73493 0.870863 0
M  V30 4026 H 418.801 -6.41941 -1.35086 0
M  V30 4027 H 418.718 -7.55984 -0.0484447 0
M  V30 4028 H 419.986 -7.6974 -1.22963 0
M  V30 4029 N 424.215 -0.530993 -1.48385 0
M  V30 4030 C 425.165 0.251092 -2.26613 0
M  V30 4031 C 426.149 0.908977 -1.32765 0
M  V30 4032 O 427.341 0.811616 -1.57295 0
M  V30 4033 C 424.47 1.29677 -3.17866 0
M  V30 4034 C 423.556 0.643627 -4.19188 0
M  V30 4035 N 423.947 -0.271223 -5.05072 0
M  V30 4036 C 422.245 0.900711 -4.3681 0
M  V30 4037 C 422.946 -0.648109 -5.78078 0
M  V30 4038 N 421.922 -0.00895987 -5.43599 0
M  V30 4039 H 425.724 -0.452702 -2.90393 0
M  V30 4040 H 423.238 -0.349091 -1.58604 0
M  V30 4041 H 425.235 1.87079 -3.72568 0
M  V30 4042 H 423.895 2.00193 -2.55642 0
M  V30 4043 H 424.906 -0.643883 -5.13882 0
M  V30 4044 H 421.583 1.59636 -3.85775 0
M  V30 4045 H 422.973 -1.39833 -6.57188 0
M  V30 4046 N 425.693 1.55336 -0.266172 0
M  V30 4047 C 426.94 1.99397 0.353158 0
M  V30 4048 C 427.268 1.15451 1.56529 0
M  V30 4049 O 426.523 0.209974 1.9457 0
M  V30 4050 C 426.822 3.48606 0.787957 0
M  V30 4051 C 426.488 4.49773 -0.318541 0
M  V30 4052 C 425.15 4.77158 -0.62239 0
M  V30 4053 C 427.502 5.10212 -1.06459 0
M  V30 4054 C 424.83 5.62251 -1.67602 0
M  V30 4055 C 427.182 5.96449 -2.10788 0
M  V30 4056 C 425.846 6.22158 -2.41817 0
M  V30 4057 H 425.116 0.729644 0.12923 0
M  V30 4058 H 427.763 1.87732 -0.37802 0
M  V30 4059 H 426.068 3.57701 1.59866 0
M  V30 4060 H 427.765 3.80098 1.27775 0
M  V30 4061 H 424.355 4.2854 -0.0715925 0
M  V30 4062 H 428.539 4.89086 -0.843098 0
M  V30 4063 H 423.795 5.80419 -1.92155 0
M  V30 4064 H 427.969 6.42317 -2.69076 0
M  V30 4065 H 425.596 6.87888 -3.23596 0
M  V30 4066 N 427.171 -0.0066808 1.57599 0
M  V30 4067 C 428.119 -1.01851 2.09115 0
M  V30 4068 C 429.113 -1.36021 1.00969 0
M  V30 4069 O 430.319 -1.34663 1.19439 0
M  V30 4070 H 426.694 -0.346083 0.667631 0
M  V30 4071 H 428.665 -0.558394 2.93129 0
M  V30 4072 C 427.414 -2.30374 2.60429 0
M  V30 4073 H 426.737 -2.04947 3.43273 0
M  V30 4074 H 428.177 -2.99466 3.00161 0
M  V30 4075 C 426.636 -3.00893 1.51542 0
M  V30 4076 O 427.166 -3.91614 0.894484 0
M  V30 4077 N 425.372 -2.62603 1.2445 0
M  V30 4078 H 424.919 -1.88911 1.75129 0
M  V30 4079 H 424.877 -3.10101 0.518137 0
M  V30 4080 N 428.649 -1.55105 -0.279332 0
M  V30 4081 C 429.599 -1.83937 -1.34727 0
M  V30 4082 C 430.583 -0.69785 -1.44979 0
M  V30 4083 O 431.775 -0.95904 -1.48766 0
M  V30 4084 C 428.904 -2.1092 -2.70864 0
M  V30 4085 C 427.99 -3.31314 -2.64748 0
M  V30 4086 N 428.381 -4.51371 -2.2825 0
M  V30 4087 C 426.679 -3.33777 -2.95819 0
M  V30 4088 C 427.38 -5.33447 -2.31969 0
M  V30 4089 N 426.356 -4.71697 -2.7019 0
M  V30 4090 H 430.158 -2.74309 -1.05506 0
M  V30 4091 H 427.672 -1.54896 -0.487959 0
M  V30 4092 H 429.669 -2.2973 -3.47893 0
M  V30 4093 H 428.329 -1.21828 -3.00979 0
M  V30 4094 H 429.34 -4.77584 -2.00335 0
M  V30 4095 H 426.017 -2.54858 -3.30687 0
M  V30 4096 H 427.407 -6.39424 -2.06365 0
M  V30 4097 N 430.127 0.543554 -1.4793 0
M  V30 4098 C 431.057 1.65888 -1.64327 0
M  V30 4099 C 432.038 1.62818 -0.492383 0
M  V30 4100 O 433.223 1.80226 -0.723338 0
M  V30 4101 C 430.353 3.04506 -1.67013 0
M  V30 4102 C 429.307 3.2243 -2.81466 0
M  V30 4103 C 428.633 4.61972 -2.69233 0
M  V30 4104 C 429.933 3.06496 -4.22915 0
M  V30 4105 H 431.627 1.52421 -2.57698 0
M  V30 4106 H 429.173 0.731849 -1.24016 0
M  V30 4107 H 431.126 3.82391 -1.77074 0
M  V30 4108 H 429.85 3.18964 -0.70212 0
M  V30 4109 H 428.509 2.46957 -2.70938 0
M  V30 4110 H 428.157 4.73247 -1.7043 0
M  V30 4111 H 427.857 4.74911 -3.46025 0
M  V30 4112 H 429.381 5.41974 -2.81242 0
M  V30 4113 H 430.795 3.74186 -4.34348 0
M  V30 4114 H 429.192 3.30938 -5.006 0
M  V30 4115 H 430.262 2.03077 -4.40327 0
M  V30 4116 N 431.605 1.3629 0.791371 0
M  V30 4117 C 432.833 1.33562 1.58016 0
M  V30 4118 C 433.248 -0.0835616 1.88615 0
M  V30 4119 O 432.605 -1.0399 1.49974 0
M  V30 4120 C 432.656 2.15517 2.90232 0
M  V30 4121 O 432.377 3.51902 2.60953 0
M  V30 4122 C 433.878 2.20546 3.84544 0
M  V30 4123 H 431.098 0.458226 0.490173 0
M  V30 4124 H 433.642 1.79361 0.982345 0
M  V30 4125 H 431.797 1.73278 3.46487 0
M  V30 4126 H 432.211 3.94644 3.4548 0
M  V30 4127 H 433.685 2.82252 4.74382 0
M  V30 4128 H 434.162 1.20838 4.2225 0
M  V30 4129 H 434.768 2.63013 3.34222 0
M  V30 4130 N 433.083 -1.0153 1.20538 0
M  V30 4131 C 434.046 -2.0826 0.957098 0
M  V30 4132 C 435.046 -1.60657 -0.0678655 0
M  V30 4133 O 436.236 -1.73385 0.168332 0
M  V30 4134 C 433.368 -3.38033 0.441188 0
M  V30 4135 H 434.561 -2.31719 1.90384 0
M  V30 4136 H 432.114 -1.1835 1.02093 0
M  V30 4137 H 432.849 -3.20249 -0.510961 0
M  V30 4138 H 432.634 -3.73911 1.18038 0
M  V30 4139 H 434.124 -4.16613 0.287009 0
M  V30 4140 N 434.561 -1.01147 -1.20859 0
M  V30 4141 C 435.809 -0.696486 -1.89719 0
M  V30 4142 C 436.13 0.775788 -1.78904 0
M  V30 4143 O 435.4 1.55759 -1.18811 0
M  V30 4144 H 433.98 -0.254628 -0.702263 0
M  V30 4145 H 436.642 -1.28197 -1.46804 0
M  V30 4146 H 435.738 -0.975357 -2.96468 0
M  V30 4147 N 436.039 1.36541 -0.78704 0
M  V30 4148 C 436.987 2.31965 -0.171724 0
M  V30 4149 C 437.981 1.55689 0.667631 0
M  V30 4150 O 439.187 1.70969 0.562981 0
M  V30 4151 H 435.562 0.751101 -0.0367545 0
M  V30 4152 H 437.533 2.81428 -0.992017 0
M  V30 4153 C 436.282 3.40968 0.680904 0
M  V30 4154 H 435.605 3.99775 0.0443961 0
M  V30 4155 H 437.045 4.10063 1.07815 0
M  V30 4156 C 435.504 2.82338 1.83813 0
M  V30 4157 O 436.034 2.74311 2.93456 0
M  V30 4158 N 434.24 2.39661 1.6435 0
M  V30 4159 H 433.787 2.46389 0.751668 0
M  V30 4160 H 433.745 2.00779 2.4194 0
M  V30 4161 N 437.518 0.538854 1.48102 0
M  V30 4162 C 438.767 0.0059532 2.01699 0
M  V30 4163 C 439.08 -1.34476 1.42041 0
M  V30 4164 O 440.286 -1.96653 1.87189 0
M  V30 4165 C 438.742 -0.0397627 3.59878 0
M  V30 4166 C 438.35 1.30659 4.28523 0
M  V30 4167 C 440.094 -0.521024 4.2129 0
M  V30 4168 C 438.001 1.22098 5.78659 0
M  V30 4169 H 436.931 -0.00154456 0.753998 0
M  V30 4170 H 439.582 0.683963 1.70277 0
M  V30 4171 H 437.964 -0.783037 3.88181 0
M  V30 4172 H 439.138 2.06613 4.11883 0
M  V30 4173 H 437.453 1.7243 3.79021 0
M  V30 4174 H 440.05 -0.603184 5.31287 0
M  V30 4175 H 440.393 -1.52885 3.8721 0
M  V30 4176 H 440.926 0.166834 3.9745 0
M  V30 4177 H 437.665 2.20424 6.17328 0
M  V30 4178 H 437.185 0.50295 5.97688 0
M  V30 4179 H 438.864 0.915345 6.40492 0
M  V30 4180 N 438.996 -1.55193 0.274407 0
M  V30 4181 C 439.929 -2.18606 -0.654712 0
M  V30 4182 C 440.907 -1.14677 -1.15273 0
M  V30 4183 O 442.091 -1.43198 -1.22583 0
M  V30 4184 C 439.218 -2.80875 -1.89281 0
M  V30 4185 C 438.264 -3.981 -1.53032 0
M  V30 4186 S 439.097 -5.32025 -0.609107 0
M  V30 4187 C 440.253 -5.97761 -1.85559 0
M  V30 4188 H 440.486 -2.97074 -0.115894 0
M  V30 4189 H 438.019 -1.54288 0.05867 0
M  V30 4190 H 439.977 -3.17381 -2.60345 0
M  V30 4191 H 438.638 -2.02302 -2.40277 0
M  V30 4192 H 437.831 -4.40356 -2.45158 0
M  V30 4193 H 437.433 -3.63013 -0.899874 0
M  V30 4194 H 439.725 -6.16951 -2.7996 0
M  V30 4195 H 440.668 -6.92545 -1.47605 0
M  V30 4196 H 441.076 -5.27113 -2.02021 0
M  V30 4197 N 440.474 -0.00167713 -1.576 0
M  V30 4198 C 441.421 0.989195 -2.08527 0
M  V30 4199 C 442.391 1.34031 -0.981065 0
M  V30 4200 O 443.576 1.43839 -1.2536 0
M  V30 4201 C 440.716 2.27537 -2.59463 0
M  V30 4202 C 439.829 1.98314 -3.83791 0
M  V30 4203 C 438.964 3.21025 -4.23222 0
M  V30 4204 C 438.003 2.87495 -5.40382 0
M  V30 4205 N 437.14 4.02749 -5.75098 0
M  V30 4206 H 441.98 0.547973 -2.92919 0
M  V30 4207 H 439.517 0.258917 -1.44803 0
M  V30 4208 H 441.475 3.02729 -2.87073 0
M  V30 4209 H 440.105 2.69325 -1.77943 0
M  V30 4210 H 439.157 1.13482 -3.63078 0
M  V30 4211 H 440.469 1.69601 -4.69081 0
M  V30 4212 H 439.623 4.04561 -4.52123 0
M  V30 4213 H 438.362 3.52877 -3.36644 0
M  V30 4214 H 437.367 2.02367 -5.11202 0
M  V30 4215 H 438.592 2.56889 -6.28637 0
M  V30 4216 H 436.538 4.34494 -4.91478 0
M  V30 4217 H 436.455 3.77566 -6.54966 0
M  V30 4218 H 437.723 4.87068 -6.08592 0
M  V30 4219 N 441.952 1.55251 0.271103 0
M  V30 4220 C 442.885 1.83191 1.36075 0
M  V30 4221 C 443.863 0.685091 1.47463 0
M  V30 4222 O 445.047 0.928292 1.64058 0
M  V30 4223 C 442.174 1.99521 2.73696 0
M  V30 4224 C 441.22 3.22081 2.79582 0
M  V30 4225 S 442.053 4.79388 2.38636 0
M  V30 4226 C 443.209 4.98693 3.78228 0
M  V30 4227 H 443.442 2.75327 1.12171 0
M  V30 4228 H 440.975 1.47046 0.470833 0
M  V30 4229 H 442.933 2.09613 3.52948 0
M  V30 4230 H 441.594 1.0827 2.9485 0
M  V30 4231 H 440.787 3.304 3.80594 0
M  V30 4232 H 440.389 3.10589 2.08352 0
M  V30 4233 H 442.681 4.84551 4.73515 0
M  V30 4234 H 443.624 6.00738 3.7486 0
M  V30 4235 H 444.032 4.26665 3.69618 0
M  V30 4236 N 443.43 -0.535701 1.48216 0
M  V30 4237 C 444.655 -1.32149 1.59848 0
M  V30 4238 C 445.08 -1.86338 0.256842 0
M  V30 4239 O 444.438 -1.64107 -0.770632 0
M  V30 4240 C 444.486 -2.45224 2.64381 0
M  V30 4241 O 443.59 -3.48093 2.21144 0
M  V30 4242 H 442.931 -0.391634 0.536208 0
M  V30 4243 H 445.461 -0.645202 1.94161 0
M  V30 4244 H 445.471 -2.91491 2.85476 0
M  V30 4245 H 444.146 -2.05143 3.61786 0
M  V30 4246 H 442.723 -3.07984 2.10239 0
M  V30 4247 N 444.908 -1.36708 -0.784132 0
M  V30 4248 C 446.138 -1.34203 -1.57077 0
M  V30 4249 C 446.546 0.0774945 -1.89041 0
M  V30 4250 O 445.889 1.04628 -1.50992 0
M  V30 4251 C 445.951 -2.10351 -2.91535 0
M  V30 4252 C 445.615 -3.59405 -2.82272 0
M  V30 4253 C 446.612 -4.53545 -2.54151 0
M  V30 4254 C 444.297 -4.02362 -3.00683 0
M  V30 4255 C 446.291 -5.8862 -2.44551 0
M  V30 4256 C 443.978 -5.37526 -2.90704 0
M  V30 4257 C 444.976 -6.30468 -2.62677 0
M  V30 4258 O 444.664 -7.63149 -2.52702 0
M  V30 4259 H 444.396 -0.461791 -0.493685 0
M  V30 4260 H 446.95 -1.80475 -0.980712 0
M  V30 4261 H 445.18 -1.5875 -3.52612 0
M  V30 4262 H 446.869 -2.00636 -3.52845 0
M  V30 4263 H 447.635 -4.21669 -2.39625 0
M  V30 4264 H 443.514 -3.30389 -3.21503 0
M  V30 4265 H 447.058 -6.61133 -2.22596 0
M  V30 4266 H 442.955 -5.69008 -3.04795 0
M  V30 4267 H 443.723 -7.73331 -2.68144 0
M  V30 4268 N 446.386 1.0089 -1.21074 0
M  V30 4269 C 447.319 2.09279 -0.909806 0
M  V30 4270 C 448.297 1.61986 0.141145 0
M  V30 4271 O 449.481 1.88495 0.0130332 0
M  V30 4272 C 446.608 3.36723 -0.365374 0
M  V30 4273 C 445.654 4.02919 -1.39852 0
M  V30 4274 S 446.487 4.45835 -2.96633 0
M  V30 4275 C 447.643 5.76471 -2.43786 0
M  V30 4276 H 447.876 2.34484 -1.82769 0
M  V30 4277 H 445.409 1.14115 -1.04006 0
M  V30 4278 H 447.367 4.10459 -0.0578203 0
M  V30 4279 H 446.028 3.09577 0.531136 0
M  V30 4280 H 445.221 4.94634 -0.967117 0
M  V30 4281 H 444.823 3.35441 -1.65395 0
M  V30 4282 H 447.115 6.52027 -1.84029 0
M  V30 4283 H 448.058 6.24418 -3.33928 0
M  V30 4284 H 448.466 5.33104 -1.85636 0
M  V30 4285 N 447.864 1.01787 1.20321 0
M  V30 4286 C 448.796 0.547357 2.22568 0
M  V30 4287 C 449.809 -0.370922 1.58518 0
M  V30 4288 O 450.998 -0.169067 1.77698 0
M  V30 4289 C 448.098 -0.223031 3.38165 0
M  V30 4290 C 447.271 0.697472 4.31803 0
M  V30 4291 C 446.33 -0.025562 5.26194 0
M  V30 4292 O 445.356 0.597367 5.66057 0
M  V30 4293 N 446.558 -1.29999 5.65757 0
M  V30 4294 H 449.323 1.42668 2.63564 0
M  V30 4295 H 446.884 0.895552 1.34876 0
M  V30 4296 H 448.876 -0.716002 3.98316 0
M  V30 4297 H 447.446 -1.00366 2.9605 0
M  V30 4298 H 446.666 1.37073 3.69601 0
M  V30 4299 H 447.954 1.32347 4.91286 0
M  V30 4300 H 447.352 -1.827 5.35385 0
M  V30 4301 H 445.909 -1.73766 6.28211 0
M  V30 4302 N 449.342 -1.36122 0.79427 0
M  V30 4303 C 450.753 -1.81646 0.431446 0
M  V30 4304 C 451.104 -1.66043 -1.04518 0
M  V30 4305 O 450.229 -1.1841 -1.8113 0
M  V30 4306 C 450.824 -3.29785 0.776341 0
M  V30 4307 C 449.383 -3.73501 0.466282 0
M  V30 4308 C 448.53 -2.58313 1.00844 0
M  V30 4309 H 451.481 -1.24274 0.986995 0
M  V30 4310 H 451.502 -3.80437 0.0692413 0
M  V30 4311 H 451.014 -3.4111 1.8511 0
M  V30 4312 H 449.115 -3.67733 -0.600245 0
M  V30 4313 H 449.228 -4.68754 0.990288 0
M  V30 4314 H 447.592 -2.5102 0.431406 0
M  V30 4315 H 448.375 -2.72421 2.08906 0
M  V30 4316 N 450.82 -0.546701 -1.47814 0
M  V30 4317 C 452.048 -0.0232857 -2.06887 0
M  V30 4318 C 452.463 1.26571 -1.4009 0
M  V30 4319 O 451.82 1.7569 -0.493906 0
M  V30 4320 C 451.871 0.186975 -3.61016 0
M  V30 4321 O 451.592 -1.05097 -4.25307 0
M  V30 4322 C 453.093 0.748872 -4.36929 0
M  V30 4323 H 450.313 -0.0410763 -0.669742 0
M  V30 4324 H 452.857 -0.757117 -1.89968 0
M  V30 4325 H 451.012 0.870903 -3.77484 0
M  V30 4326 H 451.426 -0.842121 -5.17695 0
M  V30 4327 H 452.9 0.845334 -5.45489 0
M  V30 4328 H 453.377 1.75772 -4.02493 0
M  V30 4329 H 453.983 0.100979 -4.2518 0
M  V30 4330 N 452.299 1.55045 -0.282633 0
M  V30 4331 C 453.209 2.26491 0.61147 0
M  V30 4332 C 454.225 1.29348 1.16384 0
M  V30 4333 O 455.401 1.62298 1.19253 0
M  V30 4334 C 452.466 2.97779 1.77563 0
M  V30 4335 C 451.527 4.10418 1.25919 0
M  V30 4336 C 450.76 4.78297 2.36786 0
M  V30 4337 O 450.983 4.45426 3.56303 0
M  V30 4338 O 449.917 5.66089 2.04517 0
M  V30 4339 H 453.743 3.03683 0.0324615 0
M  V30 4340 H 451.328 1.49317 -0.0497576 0
M  V30 4341 H 453.21 3.42554 2.45427 0
M  V30 4342 H 451.885 2.23498 2.34159 0
M  V30 4343 H 450.792 3.70082 0.546797 0
M  V30 4344 H 452.125 4.86622 0.738887 0
M  V30 4345 N 453.777 0.010035 1.57597 0
M  V30 4346 C 455.025 -0.671371 1.90623 0
M  V30 4347 C 455.346 -1.73753 0.885151 0
M  V30 4348 O 454.616 -1.95752 -0.0760611 0
M  V30 4349 H 453.196 -0.250968 0.703579 0
M  V30 4350 H 455.858 0.0533325 1.94827 0
M  V30 4351 H 454.954 -1.13626 2.90681 0
M  V30 4352 N 455.255 -1.55392 -0.262866 0
M  V30 4353 C 456.203 -1.8977 -1.345 0
M  V30 4354 C 457.197 -0.775063 -1.50629 0
M  V30 4355 O 458.403 -0.959519 -1.52293 0
M  V30 4356 H 454.778 -0.602467 -0.450041 0
M  V30 4357 H 456.749 -2.80147 -1.02762 0
M  V30 4358 C 455.498 -2.19501 -2.69657 0
M  V30 4359 H 454.821 -3.05378 -2.5804 0
M  V30 4360 H 456.261 -2.47469 -3.44289 0
M  V30 4361 C 454.72 -1.00597 -3.21531 0
M  V30 4362 O 455.25 -0.245768 -4.00947 0
M  V30 4363 N 453.456 -0.800911 -2.79345 0
M  V30 4364 H 453.003 -1.42079 -2.14875 0
M  V30 4365 H 452.961 -0.00697996 -3.14399 0
M  V30 4366 N 456.733 0.527833 -1.48498 0
M  V30 4367 C 457.98 1.28354 -1.56625 0
M  V30 4368 C 458.308 1.93 -0.241096 0
M  V30 4369 O 457.563 1.79967 0.768798 0
M  V30 4370 C 457.862 2.39275 -2.65485 0
M  V30 4371 C 457.528 1.92268 -4.07853 0
M  V30 4372 C 456.19 1.79166 -4.46602 0
M  V30 4373 C 458.542 1.56771 -4.97064 0
M  V30 4374 C 455.87 1.28905 -5.72364 0
M  V30 4375 C 458.222 1.07972 -6.23318 0
M  V30 4376 C 456.886 0.934887 -6.60921 0
M  V30 4377 H 456.156 0.469682 -0.573131 0
M  V30 4378 H 458.803 0.588781 -1.82224 0
M  V30 4379 H 457.108 3.1443 -2.33754 0
M  V30 4380 H 458.805 2.974 -2.68988 0
M  V30 4381 H 455.395 2.03417 -3.77252 0
M  V30 4382 H 459.579 1.65753 -4.67803 0
M  V30 4383 H 454.835 1.16381 -6.00221 0
M  V30 4384 H 459.009 0.795775 -6.91838 0
M  V30 4385 H 456.636 0.543231 -7.58257 0
M  V30 4386 N 458.211 1.37122 0.776871 0
M  V30 4387 C 459.159 1.32549 1.91138 0
M  V30 4388 C 460.153 0.215119 1.68029 0
M  V30 4389 O 461.359 0.382852 1.75881 0
M  V30 4390 H 457.734 0.412952 0.62847 0
M  V30 4391 H 459.705 2.28332 1.92112 0
M  V30 4392 C 458.454 1.14422 3.28333 0
M  V30 4393 H 457.777 1.99115 3.46689 0
M  V30 4394 H 459.217 1.15272 4.0803 0
M  V30 4395 C 457.676 -0.150434 3.36564 0
M  V30 4396 O 458.206 -1.13584 3.85307 0
M  V30 4397 N 456.412 -0.19939 2.89915 0
M  V30 4398 H 455.959 0.603142 2.5044 0
M  V30 4399 H 455.917 -1.06526 2.95803 0
M  V30 4400 N 459.689 -1.00246 1.21608 0
M  V30 4401 C 460.936 -1.74061 1.03485 0
M  V30 4402 C 461.264 -1.89658 -0.431308 0
M  V30 4403 O 460.519 -1.42976 -1.33627 0
M  V30 4404 C 460.818 -3.15448 1.68009 0
M  V30 4405 C 460.484 -3.19792 3.17874 0
M  V30 4406 C 459.146 -3.20685 3.58768 0
M  V30 4407 C 461.498 -3.16835 4.13842 0
M  V30 4408 C 458.826 -3.16309 4.94131 0
M  V30 4409 C 461.178 -3.14001 5.49169 0
M  V30 4410 C 459.842 -3.13204 5.89457 0
M  V30 4411 H 459.112 -0.636934 0.378677 0
M  V30 4412 H 461.759 -1.17473 1.51236 0
M  V30 4413 H 460.064 -3.75284 1.12557 0
M  V30 4414 H 461.761 -3.71285 1.51487 0
M  V30 4415 H 458.351 -3.19842 2.85305 0
M  V30 4416 H 462.535 -3.15303 3.83272 0
M  V30 4417 H 457.791 -3.14032 5.24589 0
M  V30 4418 H 461.965 -3.10667 6.23265 0
M  V30 4419 H 459.592 -3.09568 6.94314 0
M  V30 4420 N 461.167 -1.02423 -1.1978 0
M  V30 4421 C 462.395 -0.737456 -1.93311 0
M  V30 4422 C 462.81 0.703023 -1.75223 0
M  V30 4423 O 462.167 1.47761 -1.07112 0
M  V30 4424 C 462.218 -1.0733 -3.45199 0
M  V30 4425 O 461.939 -2.4572 -3.62702 0
M  V30 4426 C 463.44 -0.80866 -4.35862 0
M  V30 4427 H 460.66 -0.2702 -0.614193 0
M  V30 4428 H 463.204 -1.36747 -1.52054 0
M  V30 4429 H 461.359 -0.488545 -3.84307 0
M  V30 4430 H 461.773 -2.58081 -4.56612 0
M  V30 4431 H 463.247 -1.09365 -5.41057 0
M  V30 4432 H 463.724 0.257025 -4.38447 0
M  V30 4433 H 464.33 -1.37592 -4.02428 0
M  V30 4434 N 462.645 1.35699 -0.801477 0
M  V30 4435 C 463.593 2.3177 -0.196317 0
M  V30 4436 C 464.587 1.56388 0.651081 0
M  V30 4437 O 465.793 1.71557 0.544815 0
M  V30 4438 H 462.168 0.750669 -0.0447189 0
M  V30 4439 H 464.139 2.8036 -1.02181 0
M  V30 4440 C 462.888 3.41671 0.644702 0
M  V30 4441 H 462.211 3.998 0.0019921 0
M  V30 4442 H 463.651 4.11184 1.0346 0
M  V30 4443 C 462.11 2.84271 1.80808 0
M  V30 4444 O 462.64 2.77408 2.9053 0
M  V30 4445 N 460.846 2.41391 1.61799 0
M  V30 4446 H 460.393 2.47173 0.725493 0
M  V30 4447 H 460.351 2.03334 2.39797 0
M  V30 4448 N 464.123 0.554532 1.47522 0
M  V30 4449 C 465.086 -0.184174 2.28459 0
M  V30 4450 C 466.086 -0.845195 1.36796 0
M  V30 4451 O 467.276 -0.701467 1.59452 0
M  V30 4452 C 464.408 -1.26903 3.16399 0
M  V30 4453 H 465.601 0.526751 2.95238 0
M  V30 4454 H 463.154 0.311375 1.53167 0
M  V30 4455 H 463.889 -2.01244 2.54306 0
M  V30 4456 H 463.674 -0.799883 3.83854 0
M  V30 4457 H 465.164 -1.78794 3.77389 0
M  V30 4458 N 465.601 -1.54893 0.290851 0
M  V30 4459 C 466.878 -1.91991 -0.373989 0
M  V30 4460 C 467.258 -1.21694 -1.72493 0
M  V30 4461 O 466.606 -0.34917 -2.25816 0
M  V30 4462 C 466.816 -3.45419 -0.498703 0
M  V30 4463 C 468.164 -4.1748 -0.774298 0
M  V30 4464 O 469.188 -3.51398 -0.582908 0
M  V30 4465 O 468.047 -5.3445 -1.14129 0
M  V30 4466 H 465.141 -0.800593 -0.207315 0
M  V30 4467 H 467.687 -1.66297 0.338164 0
M  V30 4468 H 466.459 -3.88688 0.451392 0
M  V30 4469 H 466.082 -3.77117 -1.25972 0
M  V30 4470 N 467.08 -0.0183926 -1.57589 0
M  V30 4471 C 468.043 0.951986 -2.08494 0
M  V30 4472 C 469.043 1.26092 -0.997874 0
M  V30 4473 O 470.233 1.20304 -1.25987 0
M  V30 4474 C 467.365 2.27165 -2.54182 0
M  V30 4475 H 468.558 0.511307 -2.95509 0
M  V30 4476 H 466.111 0.229444 -1.54607 0
M  V30 4477 H 466.846 2.75884 -1.70465 0
M  V30 4478 H 466.631 2.06057 -3.33591 0
M  V30 4479 H 468.121 2.9674 -2.93828 0
M  V30 4480 N 468.558 1.5553 0.254621 0
M  V30 4481 C 469.805 1.77 0.983736 0
M  V30 4482 C 470.133 0.58133 1.85609 0
M  V30 4483 O 469.388 -0.435621 1.9079 0
M  V30 4484 C 469.687 3.03891 1.88109 0
M  V30 4485 C 469.353 4.35597 1.16472 0
M  V30 4486 C 468.015 4.7139 0.966714 0
M  V30 4487 C 470.367 5.1705 0.656387 0
M  V30 4488 C 467.695 5.86176 0.247942 0
M  V30 4489 C 470.047 6.32581 -0.0488807 0
M  V30 4490 C 468.711 6.67 -0.258438 0
M  V30 4491 H 467.981 0.647688 0.359974 0
M  V30 4492 H 470.628 1.89802 0.254463 0
M  V30 4493 H 468.933 2.86068 2.67717 0
M  V30 4494 H 470.63 3.17701 2.44677 0
M  V30 4495 H 467.22 4.07475 1.32899 0
M  V30 4496 H 471.404 4.8986 0.796933 0
M  V30 4497 H 466.66 6.11354 0.075035 0
M  V30 4498 H 470.834 6.94942 -0.450444 0
M  V30 4499 H 468.461 7.55793 -0.817358 0
M  V30 4500 N 470.036 -0.519951 1.48776 0
M  V30 4501 C 471.282 -1.27711 1.57536 0
M  V30 4502 C 471.615 -1.92547 0.252866 0
M  V30 4503 O 470.89 -1.7979 -0.742021 0
M  V30 4504 C 471.173 -2.35875 2.72094 0
M  V30 4505 C 471.026 -1.75664 4.1408 0
M  V30 4506 C 472.345 -3.37575 2.82367 0
M  V30 4507 H 469.464 -0.462971 0.573434 0
M  V30 4508 H 472.106 -0.578194 1.80989 0
M  V30 4509 H 470.256 -2.95488 2.52228 0
M  V30 4510 H 471.928 -1.20025 4.45412 0
M  V30 4511 H 470.171 -1.06154 4.20611 0
M  V30 4512 H 470.842 -2.54029 4.90075 0
M  V30 4513 H 473.318 -2.87929 3.00393 0
M  V30 4514 H 472.194 -4.1064 3.64233 0
M  V30 4515 H 472.455 -3.98743 1.90936 0
M  V30 4516 N 471.514 -1.37532 -0.769588 0
M  V30 4517 C 472.791 -1.23392 -1.51768 0
M  V30 4518 C 473.171 0.17157 -2.10402 0
M  V30 4519 O 472.519 1.17943 -1.95708 0
M  V30 4520 C 472.729 -2.33163 -2.59685 0
M  V30 4521 C 474.077 -2.70809 -3.27028 0
M  V30 4522 O 475.101 -2.32355 -2.69981 0
M  V30 4523 O 473.96 -3.37066 -4.30173 0
M  V30 4524 H 471.054 -0.481617 -0.67229 0
M  V30 4525 H 473.6 -1.49318 -0.806368 0
M  V30 4526 H 472.372 -3.27273 -2.14494 0
M  V30 4527 H 471.995 -2.08713 -3.38415 0
M  V30 4528 N 472.992 0.995999 -1.22138 0
M  V30 4529 C 474.238 1.7386 -1.05567 0
M  V30 4530 C 474.593 1.8808 0.405418 0
M  V30 4531 O 473.886 1.41062 1.29661 0
M  V30 4532 C 474.08 3.14553 -1.6968 0
M  V30 4533 C 473.909 3.14053 -3.21871 0
M  V30 4534 C 472.679 3.20121 -3.90961 0
M  V30 4535 C 474.877 2.98451 -4.18845 0
M  V30 4536 N 472.859 3.09342 -5.30265 0
M  V30 4537 C 474.23 2.95667 -5.4496 0
M  V30 4538 C 476.285 2.8282 -4.09777 0
M  V30 4539 C 474.988 2.78852 -6.63049 0
M  V30 4540 C 477.014 2.67364 -5.27513 0
M  V30 4541 C 476.376 2.65264 -6.52544 0
M  V30 4542 H 472.475 0.645989 -0.440706 0
M  V30 4543 H 475.059 1.1831 -1.54631 0
M  V30 4544 H 473.23 3.68353 -1.2317 0
M  V30 4545 H 474.962 3.77358 -1.4623 0
M  V30 4546 H 471.717 3.27679 -3.4194 0
M  V30 4547 H 472.141 3.0727 -6.03253 0
M  V30 4548 H 476.783 2.83243 -3.139 0
M  V30 4549 H 474.501 2.77175 -7.59078 0
M  V30 4550 H 478.087 2.56256 -5.22326 0
M  V30 4551 H 476.967 2.5345 -7.42114 0
M  V30 4552 N 474.47 1.03057 1.19235 0
M  V30 4553 C 475.433 0.617418 2.20727 0
M  V30 4554 C 476.433 -0.319856 1.57587 0
M  V30 4555 O 477.623 -0.106633 1.73873 0
M  V30 4556 C 474.755 -0.096296 3.40764 0
M  V30 4557 H 475.948 1.51544 2.58794 0
M  V30 4558 H 473.501 0.821949 1.32942 0
M  V30 4559 H 474.236 -1.00859 3.08217 0
M  V30 4560 H 474.021 0.577217 3.87828 0
M  V30 4561 H 475.511 -0.372219 4.15938 0
M  V30 4562 N 475.948 -1.35272 0.808662 0
M  V30 4563 C 477.176 -2.02946 0.402537 0
M  V30 4564 C 477.591 -1.60937 -0.987147 0
M  V30 4565 O 476.948 -0.807917 -1.63643 0
M  V30 4566 C 476.999 -3.58317 0.47868 0
M  V30 4567 O 476.72 -3.98799 1.81358 0
M  V30 4568 C 478.221 -4.43251 0.0656281 0
M  V30 4569 H 475.441 -0.650831 0.163279 0
M  V30 4570 H 477.985 -1.72849 1.09286 0
M  V30 4571 H 476.14 -3.87055 -0.163415 0
M  V30 4572 H 476.554 -4.93451 1.77781 0
M  V30 4573 H 478.028 -5.51738 0.170017 0
M  V30 4574 H 478.505 -4.27913 -0.989278 0
M  V30 4575 H 479.111 -4.19813 0.68096 0
M  V30 4576 N 477.426 -0.562348 -1.47226 0
M  V30 4577 C 478.336 0.185466 -2.33866 0
M  V30 4578 C 479.352 0.906713 -1.48508 0
M  V30 4579 O 480.528 0.874458 -1.81425 0
M  V30 4580 C 477.593 1.19904 -3.25306 0
M  V30 4581 C 476.654 0.484669 -4.26555 0
M  V30 4582 C 475.887 1.44996 -5.13626 0
M  V30 4583 O 476.11 2.68515 -5.03245 0
M  V30 4584 O 475.044 0.971642 -5.94006 0
M  V30 4585 H 478.87 -0.525361 -2.99121 0
M  V30 4586 H 476.455 -0.322916 -1.45868 0
M  V30 4587 H 478.337 1.78399 -3.81774 0
M  V30 4588 H 477.012 1.8917 -2.62672 0
M  V30 4589 H 475.919 -0.141605 -3.73832 0
M  V30 4590 H 477.252 -0.166634 -4.91918 0
M  V30 4591 N 478.904 1.54736 -0.299062 0
M  V30 4592 C 479.852 2.24897 0.593658 0
M  V30 4593 C 480.846 1.25429 1.13859 0
M  V30 4594 O 482.052 1.43286 1.08945 0
M  V30 4595 H 478.427 0.72207 0.210046 0
M  V30 4596 H 480.398 2.98393 -0.0206421 0
M  V30 4597 C 479.147 3.00159 1.75499 0
M  V30 4598 H 478.47 3.76501 1.34489 0
M  V30 4599 H 479.91 3.52535 2.35574 0
M  V30 4600 C 478.369 2.07015 2.65794 0
M  V30 4601 O 478.899 1.63692 3.66835 0
M  V30 4602 N 477.105 1.73012 2.33485 0
M  V30 4603 H 476.652 2.08439 1.51364 0
M  V30 4604 H 476.61 1.10965 2.94167 0
M  V30 4605 N 480.382 0.0267497 1.57577 0
M  V30 4606 C 481.33 -0.973923 2.11229 0
M  V30 4607 C 482.324 -1.33849 1.03831 0
M  V30 4608 O 483.53 -1.321 1.22269 0
M  V30 4609 H 479.905 -0.331844 0.674821 0
M  V30 4610 H 481.876 -0.496092 2.94247 0
M  V30 4611 C 480.625 -2.24798 2.65257 0
M  V30 4612 H 479.948 -1.9762 3.47543 0
M  V30 4613 H 481.388 -2.93031 3.06445 0
M  V30 4614 C 479.847 -2.97611 1.57891 0
M  V30 4615 O 480.377 -3.89629 0.97735 0
M  V30 4616 N 478.583 -2.59905 1.29992 0
M  V30 4617 H 478.13 -1.85154 1.79097 0
M  V30 4618 H 478.088 -3.08932 0.583798 0
M  V30 4619 N 481.861 -1.55662 -0.24637 0
M  V30 4620 C 482.794 -1.85332 -1.33143 0
M  V30 4621 C 483.772 -0.708464 -1.46354 0
M  V30 4622 O 484.956 -0.954274 -1.6256 0
M  V30 4623 C 482.083 -2.0385 -2.70487 0
M  V30 4624 C 481.129 -3.26488 -2.74423 0
M  V30 4625 S 481.962 -4.83124 -2.30979 0
M  V30 4626 C 483.118 -5.04647 -3.70246 0
M  V30 4627 H 483.351 -2.77077 -1.07777 0
M  V30 4628 H 480.884 -1.47776 -0.44738 0
M  V30 4629 H 482.842 -2.15202 -3.49569 0
M  V30 4630 H 481.503 -1.12947 -2.9309 0
M  V30 4631 H 480.696 -3.36413 -3.7529 0
M  V30 4632 H 480.298 -3.13864 -2.03385 0
M  V30 4633 H 482.59 -4.92023 -4.65746 0
M  V30 4634 H 483.533 -6.06625 -3.65255 0
M  V30 4635 H 483.941 -4.32491 -3.62784 0
M  V30 4636 N 483.339 0.512053 -1.4905 0
M  V30 4637 C 484.567 1.29116 -1.61669 0
M  V30 4638 C 484.982 1.86655 -0.283787 0
M  V30 4639 O 484.339 1.67293 0.729331 0
M  V30 4640 C 484.39 2.4293 -2.67707 0
M  V30 4641 O 484.111 1.87758 -3.95826 0
M  V30 4642 C 485.612 3.34476 -2.90931 0
M  V30 4643 H 482.832 0.392009 -0.544583 0
M  V30 4644 H 485.376 0.615881 -1.95006 0
M  V30 4645 H 483.531 3.06308 -2.37179 0
M  V30 4646 H 483.945 2.62393 -4.54148 0
M  V30 4647 H 485.419 4.10642 -3.68886 0
M  V30 4648 H 485.896 3.90801 -2.00427 0
M  V30 4649 H 486.502 2.76874 -3.22832 0
M  V30 4650 N 484.817 1.37938 0.762283 0
M  V30 4651 C 486.063 1.33866 1.52341 0
M  V30 4652 C 486.396 -0.0738961 1.94059 0
M  V30 4653 O 485.671 -1.03326 1.64785 0
M  V30 4654 C 485.954 2.28644 2.78197 0
M  V30 4655 C 485.807 3.78722 2.42672 0
M  V30 4656 C 487.126 2.21702 3.80179 0
M  V30 4657 H 484.245 0.487593 0.55265 0
M  V30 4658 H 486.887 1.68717 0.873767 0
M  V30 4659 H 485.037 1.99055 3.33631 0
M  V30 4660 H 486.709 4.18948 1.93081 0
M  V30 4661 H 484.952 3.96827 1.75244 0
M  V30 4662 H 485.623 4.40486 3.3268 0
M  V30 4663 H 488.099 2.47805 3.34263 0
M  V30 4664 H 486.975 2.90143 4.65949 0
M  V30 4665 H 487.236 1.21301 4.25133 0
M  V30 4666 N 486.295 -0.989507 1.22664 0
M  V30 4667 C 487.245 -2.06478 0.967005 0
M  V30 4668 C 488.229 -1.60682 -0.0836374 0
M  V30 4669 O 489.421 -1.76541 0.127322 0
M  V30 4670 C 486.55 -3.38861 0.550313 0
M  V30 4671 C 485.636 -3.9128 1.63587 0
M  V30 4672 N 486.027 -4.16884 2.86429 0
M  V30 4673 C 484.325 -4.1972 1.50834 0
M  V30 4674 C 485.026 -4.5954 3.56648 0
M  V30 4675 N 484.002 -4.63434 2.84131 0
M  V30 4676 H 487.804 -2.24219 1.90008 0
M  V30 4677 H 485.318 -1.17153 1.12467 0
M  V30 4678 H 487.315 -4.15465 0.345612 0
M  V30 4679 H 485.975 -3.22518 -0.375822 0
M  V30 4680 H 486.986 -4.04976 3.22823 0
M  V30 4681 H 483.663 -4.1243 0.648643 0
M  V30 4682 H 485.053 -4.87944 4.61909 0
M  V30 4683 N 487.773 -1.03688 -1.18687 0
M  V30 4684 C 489.021 -0.736572 -1.88199 0
M  V30 4685 C 489.342 0.737665 -1.80509 0
M  V30 4686 O 488.612 1.53204 -1.22088 0
M  V30 4687 H 487.192 -0.269466 -0.696704 0
M  V30 4688 H 489.854 -1.31282 -1.44052 0
M  V30 4689 H 488.95 -1.03802 -2.94332 0
M  V30 4690 N 489.251 1.34841 -0.815825 0
M  V30 4691 C 490.201 2.27075 -0.205169 0
M  V30 4692 C 491.185 1.48205 0.626414 0
M  V30 4693 O 492.377 1.70306 0.482157 0
M  V30 4694 C 489.506 3.37322 0.637871 0
M  V30 4695 C 488.592 4.23609 -0.203948 0
M  V30 4696 N 488.983 4.89558 -1.27149 0
M  V30 4697 C 487.281 4.45998 0.0128971 0
M  V30 4698 C 487.982 5.53597 -1.7862 0
M  V30 4699 N 486.958 5.32535 -1.0912 0
M  V30 4700 H 490.76 2.75563 -1.02187 0
M  V30 4701 H 488.274 1.48477 -0.657912 0
M  V30 4702 H 490.271 4.02359 1.09146 0
M  V30 4703 H 488.931 2.90385 1.45281 0
M  V30 4704 H 489.942 4.9077 -1.65423 0
M  V30 4705 H 486.619 4.09837 0.79624 0
M  V30 4706 H 488.009 6.16184 -2.67892 0
M  V30 4707 N 490.729 0.570148 1.46925 0
M  V30 4708 C 491.692 -0.159933 2.28641 0
M  V30 4709 C 492.692 -0.830638 1.37685 0
M  V30 4710 O 493.882 -0.684516 1.60187 0
M  V30 4711 C 491.014 -1.2354 3.17727 0
M  V30 4712 H 492.207 0.558035 2.94662 0
M  V30 4713 H 489.76 0.327603 1.52828 0
M  V30 4714 H 490.495 -1.98535 2.56426 0
M  V30 4715 H 490.28 -0.759125 3.84681 0
M  V30 4716 H 491.77 -1.74782 3.79264 0
M  V30 4717 N 492.207 -1.54576 0.307264 0
M  V30 4718 C 493.137 -2.26708 -0.55907 0
M  V30 4719 C 494.118 -1.26893 -1.1328 0
M  V30 4720 O 495.303 -1.55677 -1.16097 0
M  V30 4721 C 492.433 -3.01259 -1.72801 0
M  V30 4722 C 491.387 -4.08275 -1.28435 0
M  V30 4723 C 490.713 -4.70575 -2.53895 0
M  V30 4724 C 492.013 -5.2068 -0.411038 0
M  V30 4725 H 493.707 -2.9937 0.042576 0
M  V30 4726 H 491.253 -1.43983 0.0219173 0
M  V30 4727 H 493.206 -3.50444 -2.34023 0
M  V30 4728 H 491.93 -2.26187 -2.356 0
M  V30 4729 H 490.589 -3.59949 -0.695161 0
M  V30 4730 H 490.237 -3.92136 -3.15021 0
M  V30 4731 H 489.937 -5.42854 -2.24908 0
M  V30 4732 H 491.461 -5.22527 -3.15908 0
M  V30 4733 H 492.875 -5.65721 -0.929097 0
M  V30 4734 H 491.272 -5.99716 -0.214664 0
M  V30 4735 H 492.342 -4.81629 0.562287 0
M  V30 4736 N 493.685 -0.035106 -1.57561 0
M  V30 4737 C 494.931 0.64318 -1.92331 0
M  V30 4738 C 495.264 1.71434 -0.912368 0
M  V30 4739 O 494.539 1.94395 0.0640303 0
M  V30 4740 C 494.822 1.25411 -3.37556 0
M  V30 4741 C 494.675 0.192109 -4.4939 0
M  V30 4742 C 495.994 2.17041 -3.82859 0
M  V30 4743 H 493.113 0.232341 -0.699419 0
M  V30 4744 H 495.755 -0.0935889 -1.89769 0
M  V30 4745 H 493.905 1.88205 -3.39869 0
M  V30 4746 H 495.577 -0.438849 -4.59208 0
M  V30 4747 H 493.82 -0.481725 -4.31117 0
M  V30 4748 H 494.491 0.659292 -5.48049 0
M  V30 4749 H 496.967 1.64228 -3.8232 0
M  V30 4750 H 495.843 2.56738 -4.85157 0
M  V30 4751 H 496.104 3.06401 -3.18702 0
M  V30 4752 N 495.163 1.55791 0.238111 0
M  V30 4753 C 496.409 1.79211 0.962035 0
M  V30 4754 C 496.764 0.605463 1.82625 0
M  V30 4755 O 496.057 -0.40104 1.87356 0
M  V30 4756 C 496.251 3.05869 1.84875 0
M  V30 4757 C 496.08 4.36739 1.07186 0
M  V30 4758 C 494.85 4.99346 0.773424 0
M  V30 4759 C 497.048 5.1237 0.445168 0
M  V30 4760 N 495.03 6.13894 -0.0266037 0
M  V30 4761 C 496.401 6.19613 -0.219023 0
M  V30 4762 C 498.456 4.96622 0.356522 0
M  V30 4763 C 497.159 7.1282 -0.963358 0
M  V30 4764 C 499.185 5.90214 -0.374304 0
M  V30 4765 C 498.547 6.96872 -1.0271 0
M  V30 4766 H 494.646 0.707627 0.332849 0
M  V30 4767 H 497.23 1.93284 0.234368 0
M  V30 4768 H 495.401 2.93108 2.54837 0
M  V30 4769 H 497.133 3.17547 2.5089 0
M  V30 4770 H 493.888 4.60948 1.08738 0
M  V30 4771 H 494.312 6.75727 -0.414968 0
M  V30 4772 H 498.954 4.14232 0.846878 0
M  V30 4773 H 496.672 7.94704 -1.46529 0
M  V30 4774 H 500.258 5.80106 -0.443678 0
M  V30 4775 H 499.138 7.68045 -1.58358 0
M  V30 4776 N 496.642 -0.504142 1.49319 0
M  V30 4777 C 497.592 -1.60284 1.62151 0
M  V30 4778 C 498.576 -1.53657 0.477315 0
M  V30 4779 O 499.768 -1.6124 0.730108 0
M  V30 4780 C 496.897 -2.98909 1.68844 0
M  V30 4781 C 495.983 -3.10544 2.8883 0
M  V30 4782 N 496.374 -2.92078 4.12946 0
M  V30 4783 C 494.672 -3.4164 2.86702 0
M  V30 4784 C 495.373 -3.07812 4.93585 0
M  V30 4785 N 494.349 -3.36549 4.26891 0
M  V30 4786 H 498.151 -1.44656 2.55835 0
M  V30 4787 H 495.665 -0.710198 1.46048 0
M  V30 4788 H 497.662 -3.77865 1.76134 0
M  V30 4789 H 496.322 -3.15609 0.762943 0
M  V30 4790 H 497.333 -2.68316 4.42975 0
M  V30 4791 H 494.01 -3.64537 2.03517 0
M  V30 4792 H 495.4 -2.98054 6.02174 0
M  V30 4793 N 498.12 -1.38341 -0.754957 0
M  V30 4794 C 499.345 -1.37882 -1.5493 0
M  V30 4795 C 499.77 0.0296385 -1.88077 0
M  V30 4796 O 499.128 1.01133 -1.50472 0
M  V30 4797 C 499.176 -2.23996 -2.82592 0
M  V30 4798 O 498.28 -1.65612 -3.77686 0
M  V30 4799 H 497.621 -0.470384 -0.468652 0
M  V30 4800 H 500.151 -1.82084 -0.933082 0
M  V30 4801 H 500.161 -2.37806 -3.3153 0
M  V30 4802 H 498.836 -3.26365 -2.57796 0
M  V30 4803 H 497.413 -1.60936 -3.36384 0
M  V30 4804 N 499.598 0.982988 -1.23187 0
M  V30 4805 C 500.875 1.69814 -0.970707 0
M  V30 4806 C 501.255 2.04811 0.511424 0
M  V30 4807 O 500.603 1.73924 1.48198 0
M  V30 4808 C 500.813 2.94143 -1.87831 0
M  V30 4809 C 502.161 3.66712 -2.14026 0
M  V30 4810 O 503.185 3.04171 -1.8536 0
M  V30 4811 O 502.044 4.79258 -2.62629 0
M  V30 4812 H 499.138 0.741659 -0.365884 0
M  V30 4813 H 501.684 1.03844 -1.34218 0
M  V30 4814 H 500.456 2.64858 -2.88038 0
M  V30 4815 H 500.079 3.6785 -1.50905 0
M  V30 4816 N 501.076 1.04316 1.18135 0
M  V30 4817 C 502.306 0.767003 1.91835 0
M  V30 4818 C 502.714 -0.68002 1.76557 0
M  V30 4819 O 502.057 -1.47548 1.09432 0
M  V30 4820 C 502.119 1.05674 3.43618 0
M  V30 4821 C 501.783 2.49818 3.82675 0
M  V30 4822 C 502.78 3.48003 3.86251 0
M  V30 4823 C 500.465 2.84596 4.13897 0
M  V30 4824 C 502.459 4.79016 4.20503 0
M  V30 4825 C 500.146 4.15813 4.4782 0
M  V30 4826 C 501.144 5.12834 4.51099 0
M  V30 4827 O 500.832 6.41699 4.84229 0
M  V30 4828 H 500.564 0.278948 0.615763 0
M  V30 4829 H 503.118 1.3946 1.50798 0
M  V30 4830 H 501.348 0.372029 3.84906 0
M  V30 4831 H 503.037 0.767994 3.98568 0
M  V30 4832 H 503.803 3.22475 3.62264 0
M  V30 4833 H 499.682 2.09748 4.1052 0
M  V30 4834 H 503.226 5.54739 4.22978 0
M  V30 4835 H 499.123 4.41109 4.71268 0
M  V30 4836 H 499.891 6.46387 5.02121 0
M  V30 4837 N 502.554 -1.34406 0.822964 0
M  V30 4838 C 503.486 -2.28305 0.202375 0
M  V30 4839 C 504.499 -1.5103 -0.60777 0
M  V30 4840 O 505.688 -1.73057 -0.437444 0
M  V30 4841 C 502.788 -3.30836 -0.734911 0
M  V30 4842 C 501.961 -4.37388 0.0324177 0
M  V30 4843 C 501.02 -5.1968 -0.825803 0
M  V30 4844 O 500.046 -5.68556 -0.270771 0
M  V30 4845 N 501.248 -5.39393 -2.14558 0
M  V30 4846 H 504.013 -2.82201 1.00909 0
M  V30 4847 H 501.574 -1.4693 0.67993 0
M  V30 4848 H 503.566 -3.82786 -1.31365 0
M  V30 4849 H 502.136 -2.77334 -1.44238 0
M  V30 4850 H 501.356 -3.86152 0.792469 0
M  V30 4851 H 502.644 -5.05702 0.560633 0
M  V30 4852 H 502.042 -5.01357 -2.62025 0
M  V30 4853 H 500.599 -5.94461 -2.67318 0
M  V30 4854 N 504.032 -0.577932 -1.46621 0
M  V30 4855 C 505.278 -0.0617793 -2.02706 0
M  V30 4856 C 505.611 1.29294 -1.44903 0
M  V30 4857 O 504.886 1.8461 -0.61232 0
M  V30 4858 C 505.169 0.00911824 -3.60099 0
M  V30 4859 C 505.022 -1.37416 -4.28295 0
M  V30 4860 C 506.341 0.712159 -4.343 0
M  V30 4861 H 503.46 -0.0239246 -0.736612 0
M  V30 4862 H 506.102 -0.744211 -1.74818 0
M  V30 4863 H 504.252 0.590292 -3.83989 0
M  V30 4864 H 505.924 -2.00013 -4.15683 0
M  V30 4865 H 504.167 -1.94319 -3.87843 0
M  V30 4866 H 504.838 -1.27707 -5.37024 0
M  V30 4867 H 507.314 0.218486 -4.15526 0
M  V30 4868 H 506.19 0.730782 -5.44014 0
M  V30 4869 H 506.451 1.77251 -4.05012 0
M  V30 4870 N 505.51 1.54411 -0.315457 0
M  V30 4871 C 506.921 1.85885 0.174265 0
M  V30 4872 C 507.272 1.23723 1.52273 0
M  V30 4873 O 506.397 0.540246 2.09548 0
M  V30 4874 C 506.992 3.37257 0.322981 0
M  V30 4875 C 505.551 3.68711 0.756922 0
M  V30 4876 C 504.698 2.77013 -0.126195 0
M  V30 4877 H 507.649 1.49374 -0.536007 0
M  V30 4878 H 507.67 3.62539 1.15522 0
M  V30 4879 H 507.182 3.82471 -0.658602 0
M  V30 4880 H 505.283 3.29024 1.74854 0
M  V30 4881 H 505.396 4.75741 0.566291 0
M  V30 4882 H 503.76 2.51588 0.39692 0
M  V30 4883 H 504.543 3.25051 -1.1044 0
M  V30 4884 N 506.988 0.0434614 1.5754 0
M  V30 4885 C 507.936 -0.951465 2.1225 0
M  V30 4886 C 508.93 -1.3274 1.05245 0
M  V30 4887 O 510.136 -1.30795 1.23663 0
M  V30 4888 H 506.511 -0.324667 0.678303 0
M  V30 4889 H 508.482 -0.464855 2.94757 0
M  V30 4890 C 507.231 -2.21972 2.67626 0
M  V30 4891 H 506.554 -1.93923 3.4962 0
M  V30 4892 H 507.994 -2.89765 3.09536 0
M  V30 4893 C 506.453 -2.95919 1.61038 0
M  V30 4894 O 506.983 -3.8857 1.01862 0
M  V30 4895 N 505.189 -2.58511 1.32741 0
M  V30 4896 H 504.736 -1.83244 1.81051 0
M  V30 4897 H 504.694 -3.08296 0.616531 0
M  V30 4898 N 508.466 -1.55915 -0.229846 0
M  V30 4899 C 509.713 -1.78542 -0.955452 0
M  V30 4900 C 510.041 -0.610785 -1.84661 0
M  V30 4901 O 509.296 0.405213 -1.91459 0
M  V30 4902 C 509.595 -3.06845 -1.8325 0
M  V30 4903 C 509.261 -4.37395 -1.09528 0
M  V30 4904 C 507.923 -4.72868 -0.891598 0
M  V30 4905 C 510.275 -5.18029 -0.574046 0
M  V30 4906 C 507.603 -5.86496 -0.154655 0
M  V30 4907 C 509.955 -6.32423 0.149513 0
M  V30 4908 C 508.619 -6.66504 0.364519 0
M  V30 4909 H 507.889 -0.653333 -0.349625 0
M  V30 4910 H 510.536 -1.90183 -0.224235 0
M  V30 4911 H 508.841 -2.90291 -2.63132 0
M  V30 4912 H 510.538 -3.21553 -2.39592 0
M  V30 4913 H 507.128 -4.09538 -1.26399 0
M  V30 4914 H 511.312 -4.91066 -0.718899 0
M  V30 4915 H 506.568 -6.11396 0.0222356 0
M  V30 4916 H 510.742 -6.94137 0.560947 0
M  V30 4917 H 508.369 -7.54397 0.937495 0
M  V30 4918 N 509.944 0.496216 -1.49584 0
M  V30 4919 C 510.877 1.61508 -1.61215 0
M  V30 4920 C 511.855 1.55927 -0.461045 0
M  V30 4921 O 513.039 1.75914 -0.677231 0
M  V30 4922 C 510.166 3.00035 -1.57152 0
M  V30 4923 C 509.212 3.23861 -2.77518 0
M  V30 4924 S 510.045 3.06466 -4.39134 0
M  V30 4925 C 511.201 4.4738 -4.37724 0
M  V30 4926 H 511.434 1.51398 -2.55863 0
M  V30 4927 H 508.967 0.681727 -1.38535 0
M  V30 4928 H 510.925 3.7991 -1.55494 0
M  V30 4929 H 509.586 3.07556 -0.637834 0
M  V30 4930 H 508.779 4.25 -2.70908 0
M  V30 4931 H 508.381 2.51716 -2.76614 0
M  V30 4932 H 510.673 5.39556 -4.09738 0
M  V30 4933 H 511.616 4.59038 -5.39156 0
M  V30 4934 H 512.024 4.28283 -3.67742 0
M  V30 4935 N 511.423 1.38739 0.74761 0
M  V30 4936 C 512.37 1.36449 1.86146 0
M  V30 4937 C 513.34 0.226098 1.64554 0
M  V30 4938 O 514.525 0.41926 1.86137 0
M  V30 4939 C 511.665 1.2013 3.23516 0
M  V30 4940 C 510.778 2.43407 3.56899 0
M  V30 4941 C 509.913 2.19773 4.83605 0
M  V30 4942 C 508.952 3.3879 5.09792 0
M  V30 4943 N 508.089 3.14553 6.27695 0
M  V30 4944 H 512.929 2.3167 1.87438 0
M  V30 4945 H 510.466 1.15094 0.916063 0
M  V30 4946 H 512.424 1.08683 4.02795 0
M  V30 4947 H 511.054 0.285453 3.21535 0
M  V30 4948 H 510.106 2.65504 2.72418 0
M  V30 4949 H 511.418 3.32094 3.72176 0
M  V30 4950 H 510.572 2.05496 5.70838 0
M  V30 4951 H 509.311 1.28461 4.70478 0
M  V30 4952 H 508.316 3.53579 4.21025 0
M  V30 4953 H 509.541 4.30986 5.24812 0
M  V30 4954 H 507.487 2.25893 6.1588 0
M  V30 4955 H 507.404 3.96791 6.435 0
M  V30 4956 H 508.672 3.03943 7.17801 0
M  V30 4957 N 512.901 -0.976442 1.23707 0
M  V30 4958 C 513.849 -2.09078 1.01927 0
M  V30 4959 C 514.843 -1.69345 -0.0430193 0
M  V30 4960 O 516.049 -1.79659 0.110814 0
M  V30 4961 H 512.424 -0.68398 0.312531 0
M  V30 4962 H 514.395 -2.24614 1.96447 0
M  V30 4963 C 513.144 -3.41919 0.631385 0
M  V30 4964 H 512.467 -3.72946 1.44053 0
M  V30 4965 H 513.907 -4.20817 0.518532 0
M  V30 4966 C 512.366 -3.30357 -0.660723 0
M  V30 4967 O 512.896 -3.63542 -1.70881 0
M  V30 4968 N 511.102 -2.83507 -0.638139 0
M  V30 4969 H 510.649 -2.567 0.215108 0
M  V30 4970 H 510.607 -2.76153 -1.50289 0
M  V30 4971 N 514.379 -1.04941 -1.1758 0
M  V30 4972 C 515.625 -0.768896 -1.88307 0
M  V30 4973 C 515.98 0.696361 -1.79356 0
M  V30 4974 O 515.273 1.50245 -1.18899 0
M  V30 4975 C 515.467 -1.18062 -3.37337 0
M  V30 4976 C 515.296 -2.68436 -3.60794 0
M  V30 4977 C 514.066 -3.35709 -3.77661 0
M  V30 4978 C 516.264 -3.66657 -3.60649 0
M  V30 4979 N 514.246 -4.74974 -3.88939 0
M  V30 4980 C 515.617 -4.91638 -3.77747 0
M  V30 4981 C 517.672 -3.60162 -3.43785 0
M  V30 4982 C 516.375 -6.10902 -3.79726 0
M  V30 4983 C 518.401 -4.78863 -3.47051 0
M  V30 4984 C 517.763 -6.02666 -3.64654 0
M  V30 4985 H 513.862 -0.33355 -0.707296 0
M  V30 4986 H 516.446 -1.34085 -1.41171 0
M  V30 4987 H 514.617 -0.636648 -3.83147 0
M  V30 4988 H 516.349 -0.8502 -3.95669 0
M  V30 4989 H 513.104 -2.8611 -3.77409 0
M  V30 4990 H 513.528 -5.47378 -3.98379 0
M  V30 4991 H 518.17 -2.65412 -3.29114 0
M  V30 4992 H 515.888 -7.05998 -3.93182 0
M  V30 4993 H 519.474 -4.75488 -3.35265 0
M  V30 4994 H 518.354 -6.92979 -3.67083 0
M  V30 4995 N 515.857 1.33968 -0.830081 0
M  V30 4996 C 516.82 2.27694 -0.26235 0
M  V30 4997 C 517.82 1.50589 0.563876 0
M  V30 4998 O 519.01 1.70028 0.378941 0
M  V30 4999 C 516.142 3.35002 0.63138 0
M  V30 5000 H 517.335 2.79419 -1.08928 0
M  V30 5001 H 514.888 1.44221 -0.602486 0
M  V30 5002 H 515.623 2.88504 1.48109 0
M  V30 5003 H 515.408 3.92079 0.0403276 0
M  V30 5004 H 516.898 4.04897 1.02217 0
M  V30 5005 N 517.335 0.585699 1.46312 0
M  V30 5006 C 518.583 0.072278 2.01971 0
M  V30 5007 C 518.904 -1.29345 1.45928 0
M  V30 5008 O 518.174 -1.84973 0.645109 0
M  V30 5009 H 516.754 0.023729 0.746623 0
M  V30 5010 H 519.416 0.762155 1.7938 0
M  V30 5011 H 518.512 0.00552767 3.121 0
M  V30 5012 N 518.813 -1.54241 0.323641 0
M  V30 5013 C 520.038 -2.05452 -0.283605 0
M  V30 5014 C 520.463 -1.19823 -1.44997 0
M  V30 5015 O 519.821 -0.207358 -1.8011 0
M  V30 5016 C 519.869 -3.53823 -0.695795 0
M  V30 5017 O 518.973 -3.71134 -1.79815 0
M  V30 5018 H 518.314 -0.662024 -0.0511917 0
M  V30 5019 H 520.844 -1.99079 0.472073 0
M  V30 5020 H 520.854 -3.96094 -0.978434 0
M  V30 5021 H 519.529 -4.15602 0.157287 0
M  V30 5022 H 518.106 -3.40768 -1.51431 0
M  V30 5023 N 520.291 -0.0518155 -1.57515 0
M  V30 5024 C 521.254 0.907547 -2.10467 0
M  V30 5025 C 522.254 1.23947 -1.02439 0
M  V30 5026 O 523.444 1.17604 -1.2851 0
M  V30 5027 C 520.576 2.21723 -2.58944 0
M  V30 5028 H 521.769 0.44851 -2.96527 0
M  V30 5029 H 519.322 0.196598 -1.55059 0
M  V30 5030 H 520.057 2.72206 -1.76279 0
M  V30 5031 H 519.842 1.98935 -3.37886 0
M  V30 5032 H 521.332 2.90441 -3.00056 0
M  V30 5033 N 521.769 1.56035 0.221574 0
M  V30 5034 C 522.679 1.95581 1.29558 0
M  V30 5035 C 523.695 0.859639 1.51282 0
M  V30 5036 O 524.871 1.16321 1.64413 0
M  V30 5037 C 521.936 2.26447 2.62531 0
M  V30 5038 C 520.997 3.49632 2.4911 0
M  V30 5039 C 520.23 3.79017 3.75742 0
M  V30 5040 O 520.453 3.10077 4.78757 0
M  V30 5041 O 519.387 4.72507 3.72855 0
M  V30 5042 H 523.213 2.8711 0.990035 0
M  V30 5043 H 520.798 1.43244 0.424434 0
M  V30 5044 H 522.68 2.47494 3.41064 0
M  V30 5045 H 521.355 1.38092 2.92766 0
M  V30 5046 H 520.262 3.33864 1.68777 0
M  V30 5047 H 521.595 4.3837 2.23814 0
M  V30 5048 N 523.247 -0.488276 1.49845 0
M  V30 5049 C 524.524 -1.24959 1.50481 0
M  V30 5050 C 524.904 -2.09735 0.239698 0
M  V30 5051 O 524.252 -2.14865 -0.777524 0
M  V30 5052 C 524.462 -2.0954 2.79095 0
M  V30 5053 C 525.81 -2.68305 3.29086 0
M  V30 5054 O 526.834 -2.19797 2.80299 0
M  V30 5055 O 525.693 -3.56643 4.14087 0
M  V30 5056 H 522.787 -0.566133 0.602845 0
M  V30 5057 H 525.333 -0.501504 1.6212 0
M  V30 5058 H 524.105 -1.46958 3.62656 0
M  V30 5059 H 523.728 -2.91517 2.70377 0
M  V30 5060 N 524.725 -1.39134 -0.740242 0
M  V30 5061 C 525.972 -1.36071 -1.49969 0
M  V30 5062 C 526.3 0.0450245 -1.94448 0
M  V30 5063 O 525.555 1.02482 -1.66721 0
M  V30 5064 C 525.854 -2.27457 -2.75678 0
M  V30 5065 C 525.52 -3.75185 -2.50094 0
M  V30 5066 C 524.182 -4.15439 -2.42825 0
M  V30 5067 C 526.534 -4.68643 -2.28086 0
M  V30 5068 C 523.862 -5.4722 -2.11584 0
M  V30 5069 C 526.214 -6.00695 -1.98363 0
M  V30 5070 C 524.878 -6.40018 -1.8956 0
M  V30 5071 H 524.148 -0.497921 -0.548777 0
M  V30 5072 H 526.795 -1.71599 -0.85007 0
M  V30 5073 H 525.1 -1.8503 -3.45356 0
M  V30 5074 H 526.797 -2.22384 -3.33686 0
M  V30 5075 H 523.387 -3.43279 -2.56627 0
M  V30 5076 H 527.571 -4.3838 -2.32672 0
M  V30 5077 H 522.827 -5.76615 -2.03287 0
M  V30 5078 H 527.001 -6.72644 -1.80341 0
M  V30 5079 H 524.628 -7.42051 -1.65117 0
M  V30 5080 N 526.204 0.969867 -1.24223 0
M  V30 5081 C 527.134 2.08191 -1.05729 0
M  V30 5082 C 528.115 1.70075 0.0290765 0
M  V30 5083 O 529.3 1.93712 -0.137583 0
M  V30 5084 C 526.43 3.40991 -0.658995 0
M  V30 5085 C 525.384 3.93054 -1.69389 0
M  V30 5086 C 524.71 5.22171 -1.15072 0
M  V30 5087 C 526.01 4.21137 -3.08935 0
M  V30 5088 H 527.704 2.23921 -1.98746 0
M  V30 5089 H 525.25 1.07602 -0.956967 0
M  V30 5090 H 527.203 4.18221 -0.51662 0
M  V30 5091 H 525.927 3.25155 0.30686 0
M  V30 5092 H 524.586 3.17977 -1.82444 0
M  V30 5093 H 524.234 5.02694 -0.175539 0
M  V30 5094 H 523.934 5.57973 -1.84229 0
M  V30 5095 H 525.458 6.02013 -1.02042 0
M  V30 5096 H 526.872 4.8908 -2.99121 0
M  V30 5097 H 525.269 4.68163 -3.75425 0
M  V30 5098 H 526.339 3.27996 -3.57137 0
M  V30 5099 N 527.682 1.05563 1.17022 0
M  V30 5100 C 528.645 0.664098 2.19368 0
M  V30 5101 C 529.645 -0.286358 1.5823 0
M  V30 5102 O 530.835 -0.069728 1.7406 0
M  V30 5103 C 527.967 -0.0239932 3.40892 0
M  V30 5104 H 529.16 1.57 2.55521 0
M  V30 5105 H 526.713 0.849964 1.31169 0
M  V30 5106 H 527.448 -0.942988 3.10287 0
M  V30 5107 H 527.233 0.659351 3.86516 0
M  V30 5108 H 528.723 -0.283909 4.16634 0
M  V30 5109 N 529.16 -1.33526 0.837174 0
M  V30 5110 C 530.123 -2.27551 0.274421 0
M  V30 5111 C 531.123 -1.50886 -0.555881 0
M  V30 5112 O 532.313 -1.70227 -0.369918 0
M  V30 5113 C 529.445 -3.35332 -0.613605 0
M  V30 5114 H 530.638 -2.78837 1.10408 0
M  V30 5115 H 528.191 -1.439 0.610126 0
M  V30 5116 H 528.926 -2.89285 -1.46577 0
M  V30 5117 H 528.711 -3.92095 -0.0195341 0
M  V30 5118 H 530.201 -4.05433 -1.00068 0
M  V30 5119 N 530.638 -0.59345 -1.46 0
M  V30 5120 C 531.568 0.121192 -2.33185 0
M  V30 5121 C 532.549 0.872977 -1.4599 0
M  V30 5122 O 533.734 0.846321 -1.74789 0
M  V30 5123 C 530.864 1.12844 -3.28456 0
M  V30 5124 C 529.818 0.4908 -4.25177 0
M  V30 5125 C 529.144 1.60529 -5.10034 0
M  V30 5126 C 530.444 -0.578949 -5.19081 0
M  V30 5127 H 532.138 -0.606767 -2.93187 0
M  V30 5128 H 529.684 -0.293242 -1.40983 0
M  V30 5129 H 531.637 1.63684 -3.88311 0
M  V30 5130 H 530.361 1.88681 -2.66584 0
M  V30 5131 H 529.02 0.00339328 -3.666 0
M  V30 5132 H 528.668 2.35359 -4.44539 0
M  V30 5133 H 528.368 1.18422 -5.75543 0
M  V30 5134 H 529.892 2.11623 -5.72755 0
M  V30 5135 H 531.306 -0.155199 -5.7309 0
M  V30 5136 H 529.703 -0.920947 -5.92991 0
M  V30 5137 H 530.773 -1.46109 -4.62364 0
M  V30 5138 N 532.116 1.54067 -0.331816 0
M  V30 5139 C 533.393 1.92915 0.322955 0
M  V30 5140 C 533.773 1.26225 1.69205 0
M  V30 5141 O 533.121 0.408919 2.24811 0
M  V30 5142 C 533.331 3.46619 0.406946 0
M  V30 5143 C 534.679 4.19386 0.663339 0
M  V30 5144 O 535.703 3.5282 0.489536 0
M  V30 5145 O 534.562 5.37288 0.999193 0
M  V30 5146 H 531.656 0.805808 0.186016 0
M  V30 5147 H 534.202 1.65342 -0.382135 0
M  V30 5148 H 532.974 3.87354 -0.554287 0
M  V30 5149 H 532.597 3.80324 1.15929 0
M  V30 5150 N 533.594 0.0601682 1.57485 0
M  V30 5151 C 534.822 -0.620937 1.97363 0
M  V30 5152 C 535.237 -1.63846 0.938082 0
M  V30 5153 O 534.594 -1.82339 -0.0766578 0
M  V30 5154 C 534.645 -1.29987 3.37321 0
M  V30 5155 O 534.366 -0.323081 4.36907 0
M  V30 5156 C 535.867 -2.06989 3.92008 0
M  V30 5157 H 533.087 -0.169135 0.649334 0
M  V30 5158 H 535.631 0.129132 2.04092 0
M  V30 5159 H 533.786 -2.0011 3.31715 0
M  V30 5160 H 534.2 -0.808754 5.18227 0
M  V30 5161 H 535.674 -2.49901 4.92192 0
M  V30 5162 H 536.151 -2.92173 3.2792 0
M  V30 5163 H 536.757 -1.41757 4.0098 0
M  V30 5164 N 535.072 -1.5615 -0.213296 0
M  V30 5165 C 536.022 -1.89485 -1.26804 0
M  V30 5166 C 537.006 -0.758713 -1.41889 0
M  V30 5167 O 538.198 -1.02127 -1.44565 0
M  V30 5168 C 535.327 -2.22219 -2.61675 0
M  V30 5169 C 534.413 -3.42245 -2.50458 0
M  V30 5170 N 534.804 -4.60645 -2.089 0
M  V30 5171 C 533.102 -3.46023 -2.81397 0
M  V30 5172 C 533.803 -5.42805 -2.09135 0
M  V30 5173 N 532.779 -4.82732 -2.49941 0
M  V30 5174 H 536.581 -2.78537 -0.937771 0
M  V30 5175 H 534.095 -1.56826 -0.421824 0
M  V30 5176 H 536.092 -2.44278 -3.37837 0
M  V30 5177 H 534.752 -1.34484 -2.95541 0
M  V30 5178 H 535.763 -4.85651 -1.79899 0
M  V30 5179 H 532.44 -2.68654 -3.1958 0
M  V30 5180 H 533.83 -6.47601 -1.79059 0
M  V30 5181 N 536.55 0.480323 -1.50102 0
M  V30 5182 C 537.799 1.22979 -1.59872 0
M  V30 5183 C 538.112 1.93282 -0.30022 0
M  V30 5184 O 539.318 2.70086 -0.276709 0
M  V30 5185 C 537.774 2.23408 -2.82164 0
M  V30 5186 C 537.382 1.5895 -4.18854 0
M  V30 5187 C 539.126 2.99055 -3.01275 0
M  V30 5188 C 537.033 2.57611 -5.32344 0
M  V30 5189 H 535.963 0.462707 -0.59533 0
M  V30 5190 H 538.614 0.501291 -1.7652 0
M  V30 5191 H 536.996 2.99511 -2.59055 0
M  V30 5192 H 538.17 0.887 -4.52182 0
M  V30 5193 H 536.485 0.956191 -4.05273 0
M  V30 5194 H 539.082 3.72876 -3.83233 0
M  V30 5195 H 539.425 3.57897 -2.12639 0
M  V30 5196 H 539.958 2.30066 -3.24522 0
M  V30 5197 H 536.697 2.03521 -6.23105 0
M  V30 5198 H 536.217 3.26041 -5.03445 0
M  V30 5199 H 537.896 3.19627 -5.62537 0
M  V30 5200 N 538.028 1.39524 0.732853 0
M  V30 5201 C 539.256 1.40143 1.52209 0
M  V30 5202 C 539.671 -0.00348836 1.888 0
M  V30 5203 O 539.028 -0.975357 1.5425 0
M  V30 5204 C 539.079 2.27632 2.8083 0
M  V30 5205 O 538.8 3.62654 2.45792 0
M  V30 5206 C 540.301 2.36658 3.74844 0
M  V30 5207 H 537.521 0.478604 0.470297 0
M  V30 5208 H 540.065 1.83366 0.905388 0
M  V30 5209 H 538.22 1.87818 3.38826 0
M  V30 5210 H 538.634 4.08941 3.28431 0
M  V30 5211 H 540.108 3.02118 4.61984 0
M  V30 5212 H 540.585 1.38638 4.16745 0
M  V30 5213 H 541.191 2.76951 3.22766 0
M  V30 5214 N 539.506 -0.963266 1.24736 0
M  V30 5215 C 540.734 -1.74166 1.11686 0
M  V30 5216 C 541.149 -1.8589 -0.330187 0
M  V30 5217 O 540.506 -1.35042 -1.2276 0
M  V30 5218 C 540.557 -3.15989 1.75595 0
M  V30 5219 O 540.278 -3.04847 3.14642 0
M  V30 5220 C 541.779 -4.10145 1.68213 0
M  V30 5221 H 538.999 -0.546031 0.389989 0
M  V30 5222 H 541.543 -1.20907 1.64929 0
M  V30 5223 H 539.698 -3.66219 1.26343 0
M  V30 5224 H 540.112 -3.9425 3.4593 0
M  V30 5225 H 541.586 -5.07299 2.17604 0
M  V30 5226 H 542.063 -4.3445 0.644208 0
M  V30 5227 H 542.669 -3.65827 2.16912 0
M  V30 5228 N 540.985 -1.06182 -1.16461 0
M  V30 5229 C 542.234 -0.772927 -1.86303 0
M  V30 5230 C 542.547 0.703187 -1.82523 0
M  V30 5231 O 543.753 1.10641 -2.47933 0
M  V30 5232 C 542.209 -1.33249 -3.34324 0
M  V30 5233 C 541.817 -2.83876 -3.46581 0
M  V30 5234 C 543.561 -1.12108 -4.09429 0
M  V30 5235 C 541.468 -3.33082 -4.88682 0
M  V30 5236 H 540.398 -0.285452 -0.697878 0
M  V30 5237 H 543.049 -1.28039 -1.31447 0
M  V30 5238 H 541.431 -0.7528 -3.88779 0
M  V30 5239 H 542.605 -3.47786 -3.02293 0
M  V30 5240 H 540.92 -3.03671 -2.84909 0
M  V30 5241 H 543.517 -1.46361 -5.14279 0
M  V30 5242 H 543.86 -0.0593832 -4.16258 0
M  V30 5243 H 544.393 -1.6665 -3.6121 0
M  V30 5244 H 541.132 -4.38726 -4.87032 0
M  V30 5245 H 540.652 -2.73919 -5.33599 0
M  V30 5246 H 542.331 -3.28344 -5.57494 0
M  V30 5247 N 542.463 1.3308 -0.844243 0
M  V30 5248 C 543.709 1.97898 -0.443206 0
M  V30 5249 C 544.042 1.66699 0.99625 0
M  V30 5250 O 543.317 0.949704 1.69738 0
M  V30 5251 C 543.6 3.53801 -0.670606 0
M  V30 5252 C 543.453 3.94667 -2.15772 0
M  V30 5253 C 544.772 4.39936 -0.120226 0
M  V30 5254 H 541.891 0.718861 -0.162504 0
M  V30 5255 H 544.533 1.57633 -1.06075 0
M  V30 5256 H 542.683 3.88229 -0.14496 0
M  V30 5257 H 544.355 3.70469 -2.74865 0
M  V30 5258 H 542.598 3.44203 -2.6402 0
M  V30 5259 H 543.269 5.03275 -2.26757 0
M  V30 5260 H 545.745 4.12183 -0.5696 0
M  V30 5261 H 544.621 5.4803 -0.308984 0
M  V30 5262 H 544.882 4.31184 0.976347 0
M  V30 5263 N 543.941 0.601185 1.45683 0
M  V30 5264 C 545.218 0.0261659 1.95582 0
M  V30 5265 C 545.598 -1.4399 1.5437 0
M  V30 5266 O 544.946 -2.13919 0.80318 0
M  V30 5267 C 545.156 0.217557 3.48321 0
M  V30 5268 C 546.504 0.0950076 4.24494 0
M  V30 5269 O 547.528 0.147345 3.55895 0
M  V30 5270 O 546.387 -0.025261 5.46494 0
M  V30 5271 H 543.481 -0.0393688 0.826062 0
M  V30 5272 H 546.027 0.670798 1.55879 0
M  V30 5273 H 544.799 1.23601 3.71266 0
M  V30 5274 H 544.422 -0.46264 3.94899 0
M  V30 5275 N 545.419 -1.53889 0.339982 0
M  V30 5276 C 546.369 -2.2165 -0.534354 0
M  V30 5277 C 547.353 -1.20266 -1.06887 0
M  V30 5278 O 548.545 -1.45827 -1.00316 0
M  V30 5279 C 545.674 -2.99014 -1.68659 0
M  V30 5280 C 544.76 -4.07751 -1.16618 0
M  V30 5281 N 545.151 -5.04469 -0.366717 0
M  V30 5282 C 543.449 -4.21998 -1.4434 0
M  V30 5283 C 544.15 -5.81638 -0.0847275 0
M  V30 5284 N 543.126 -5.39388 -0.675391 0
M  V30 5285 H 546.928 -2.93781 0.0835562 0
M  V30 5286 H 544.442 -1.61736 0.146665 0
M  V30 5287 H 546.439 -3.46056 -2.32489 0
M  V30 5288 H 545.099 -2.28408 -2.30781 0
M  V30 5289 H 546.11 -5.17899 -0.00811038 0
M  V30 5290 H 542.787 -3.62612 -2.06928 0
M  V30 5291 H 544.177 -6.69563 0.559943 0
M  V30 5292 N 546.897 -0.0685191 -1.57451 0
M  V30 5293 C 548.127 0.609577 -1.97402 0
M  V30 5294 C 548.535 1.63882 -0.945489 0
M  V30 5295 O 547.878 1.8354 0.0766052 0
M  V30 5296 C 547.94 1.3385 -3.33653 0
M  V30 5297 C 547.604 0.463103 -4.54648 0
M  V30 5298 C 548.601 -0.277964 -5.19156 0
M  V30 5299 C 546.286 0.388941 -5.00792 0
M  V30 5300 C 548.28 -1.08145 -6.28159 0
M  V30 5301 C 545.967 -0.418217 -6.09667 0
M  V30 5302 C 546.965 -1.15208 -6.73213 0
M  V30 5303 O 546.653 -1.94594 -7.79993 0
M  V30 5304 H 546.385 0.170197 -0.654224 0
M  V30 5305 H 548.939 -0.13647 -2.04946 0
M  V30 5306 H 547.169 2.13055 -3.22714 0
M  V30 5307 H 548.858 1.90851 -3.58233 0
M  V30 5308 H 549.624 -0.230241 -4.84453 0
M  V30 5309 H 545.503 0.949769 -4.5111 0
M  V30 5310 H 549.047 -1.65476 -6.7769 0
M  V30 5311 H 544.944 -0.467515 -6.43805 0
M  V30 5312 H 545.712 -1.8699 -7.96854 0
M  V30 5313 N 548.375 1.56261 0.205012 0
M  V30 5314 C 549.285 1.96944 1.27476 0
M  V30 5315 C 550.301 0.875636 1.50362 0
M  V30 5316 O 551.477 1.18058 1.6317 0
M  V30 5317 C 548.542 2.29219 2.60115 0
M  V30 5318 C 547.603 3.52255 2.45387 0
M  V30 5319 C 546.836 3.8298 3.71701 0
M  V30 5320 O 547.059 3.15138 4.75441 0
M  V30 5321 O 545.993 4.76435 3.67823 0
M  V30 5322 H 549.819 2.88144 0.959527 0
M  V30 5323 H 547.404 1.43686 0.409217 0
M  V30 5324 H 549.286 2.51098 3.3842 0
M  V30 5325 H 547.961 1.4119 2.91285 0
M  V30 5326 H 546.868 3.35635 1.65227 0
M  V30 5327 H 548.201 4.40719 2.19152 0
M  V30 5328 N 549.853 -0.472356 1.50355 0
M  V30 5329 C 550.816 -1.5529 1.68576 0
M  V30 5330 C 551.816 -1.50863 0.556511 0
M  V30 5331 O 553.006 -1.53505 0.823516 0
M  V30 5332 C 550.138 -2.94921 1.70981 0
M  V30 5333 H 551.331 -1.40451 2.64978 0
M  V30 5334 H 548.884 -0.698645 1.39816 0
M  V30 5335 H 549.619 -3.15204 0.762675 0
M  V30 5336 H 549.404 -2.99541 2.53017 0
M  V30 5337 H 550.894 -3.73372 1.87037 0
M  V30 5338 N 551.331 -1.39911 -0.725443 0
M  V30 5339 C 552.278 -1.39393 -1.83952 0
M  V30 5340 C 553.248 -0.252249 -1.64173 0
M  V30 5341 O 554.433 -0.44882 -1.85446 0
M  V30 5342 C 551.573 -1.25262 -3.21564 0
M  V30 5343 C 550.686 -2.49054 -3.52982 0
M  V30 5344 C 549.821 -2.27439 -4.80047 0
M  V30 5345 C 548.86 -3.46857 -5.04338 0
M  V30 5346 N 547.997 -3.24499 -6.22611 0
M  V30 5347 H 552.837 -2.34622 -1.83729 0
M  V30 5348 H 550.374 -1.16537 -0.897636 0
M  V30 5349 H 552.332 -1.15077 -4.01015 0
M  V30 5350 H 550.962 -0.33657 -3.21041 0
M  V30 5351 H 550.014 -2.69805 -2.6816 0
M  V30 5352 H 551.326 -3.37973 -3.66846 0
M  V30 5353 H 550.48 -2.14551 -5.67497 0
M  V30 5354 H 549.219 -1.35929 -4.68374 0
M  V30 5355 H 548.224 -3.60232 -4.15346 0
M  V30 5356 H 549.449 -4.3928 -5.17889 0
M  V30 5357 H 547.395 -2.35663 -6.12208 0
M  V30 5358 H 547.312 -4.06978 -6.37106 0
M  V30 5359 H 548.58 -3.15325 -7.12875 0
M  V30 5360 N 552.809 0.956637 -1.25245 0
M  V30 5361 C 554.057 1.69764 -1.09657 0
M  V30 5362 C 554.378 1.91583 0.363464 0
M  V30 5363 O 553.648 1.50149 1.25825 0
M  V30 5364 H 552.228 0.629097 -0.402798 0
M  V30 5365 H 554.89 1.15026 -1.57337 0
M  V30 5366 H 553.986 2.67769 -1.60331 0
M  V30 5367 N 554.287 1.06798 1.15896 0
M  V30 5368 C 555.235 0.677525 2.22514 0
M  V30 5369 C 556.229 -0.308994 1.66558 0
M  V30 5370 O 557.435 -0.173308 1.79164 0
M  V30 5371 H 553.81 0.200994 0.724642 0
M  V30 5372 H 555.781 1.5865 2.52731 0
M  V30 5373 C 554.53 0.0854153 3.47595 0
M  V30 5374 H 553.853 0.835645 3.90969 0
M  V30 5375 H 555.293 -0.150199 4.23734 0
M  V30 5376 C 553.752 -1.1724 3.15843 0
M  V30 5377 O 554.282 -2.25965 3.32119 0
M  V30 5378 N 552.488 -1.07636 2.69931 0
M  V30 5379 H 552.035 -0.191559 2.56887 0
M  V30 5380 H 551.993 -1.91876 2.4906 0
M  V30 5381 N 555.766 -1.3263 0.851289 0
M  V30 5382 C 556.696 -2.31449 0.308771 0
M  V30 5383 C 557.677 -1.59531 -0.590255 0
M  V30 5384 O 558.862 -1.87351 -0.511205 0
M  V30 5385 C 555.992 -3.43586 -0.506548 0
M  V30 5386 C 554.946 -4.26963 0.297753 0
M  V30 5387 C 554.272 -5.30831 -0.642094 0
M  V30 5388 C 555.572 -4.99643 1.52166 0
M  V30 5389 H 557.266 -2.77074 1.13447 0
M  V30 5390 H 554.812 -1.33207 0.546971 0
M  V30 5391 H 556.765 -4.11754 -0.896474 0
M  V30 5392 H 555.489 -2.96681 -1.36558 0
M  V30 5393 H 554.148 -3.60437 0.669391 0
M  V30 5394 H 553.796 -4.8018 -1.49788 0
M  V30 5395 H 553.496 -5.87501 -0.107968 0
M  V30 5396 H 555.02 -6.01862 -1.02927 0
M  V30 5397 H 556.434 -5.6051 1.20421 0
M  V30 5398 H 554.831 -5.66022 1.99347 0
M  V30 5399 H 555.901 -4.27701 2.28474 0
M  V30 5400 N 557.244 -0.608902 -1.45362 0
M  V30 5401 C 558.49 -0.104762 -2.02529 0
M  V30 5402 C 558.823 1.26191 -1.47613 0
M  V30 5403 O 558.098 1.8327 -0.65134 0
M  V30 5404 C 558.381 -0.0672661 -3.60037 0
M  V30 5405 C 558.234 -1.4647 -4.25284 0
M  V30 5406 C 559.553 0.619877 -4.35713 0
M  V30 5407 H 556.672 -0.0395438 -0.735938 0
M  V30 5408 H 559.314 -0.781126 -1.73201 0
M  V30 5409 H 557.464 0.50871 -3.85155 0
M  V30 5410 H 559.136 -2.08785 -4.11347 0
M  V30 5411 H 557.379 -2.02502 -3.83634 0
M  V30 5412 H 558.05 -1.39069 -5.34195 0
M  V30 5413 H 560.526 0.130297 -4.15896 0
M  V30 5414 H 559.402 0.615224 -5.45441 0
M  V30 5415 H 559.663 1.68621 -4.0868 0
M  V30 5416 N 558.722 1.53707 -0.348139 0
M  V30 5417 C 559.947 2.05877 0.250883 0
M  V30 5418 C 560.372 1.22115 1.43072 0
M  V30 5419 O 559.73 0.235986 1.79758 0
M  V30 5420 C 559.778 3.54886 0.639416 0
M  V30 5421 O 558.882 3.73948 1.73888 0
M  V30 5422 H 558.223 0.662754 0.040653 0
M  V30 5423 H 560.753 1.98303 -0.503685 0
M  V30 5424 H 560.763 3.97601 0.915295 0
M  V30 5425 H 559.438 4.153 -0.223386 0
M  V30 5426 H 558.015 3.43134 1.45991 0
M  V30 5427 N 560.2 0.0768682 1.57412 0
M  V30 5428 C 561.446 -0.585926 1.94778 0
M  V30 5429 C 561.801 -1.66912 0.956982 0
M  V30 5430 O 561.094 -1.9159 -0.0199454 0
M  V30 5431 C 561.288 -1.20268 3.36557 0
M  V30 5432 C 561.117 -0.18076 4.49337 0
M  V30 5433 C 559.887 0.236362 5.04747 0
M  V30 5434 C 562.085 0.583978 5.10974 0
M  V30 5435 N 560.067 1.24846 6.01071 0
M  V30 5436 C 561.438 1.44841 6.02844 0
M  V30 5437 C 563.493 0.639492 4.93776 0
M  V30 5438 C 562.196 2.36343 6.79363 0
M  V30 5439 C 564.222 1.54204 5.70942 0
M  V30 5440 C 563.584 2.39414 6.62465 0
M  V30 5441 H 559.683 -0.185281 0.759734 0
M  V30 5442 H 562.267 0.155193 1.9408 0
M  V30 5443 H 560.438 -1.9137 3.37982 0
M  V30 5444 H 562.17 -1.82636 3.61146 0
M  V30 5445 H 558.925 -0.14777 4.73369 0
M  V30 5446 H 559.349 1.75217 6.53933 0
M  V30 5447 H 563.991 -0.00510074 4.228 0
M  V30 5448 H 561.709 3.01836 7.49614 0
M  V30 5449 H 565.295 1.5899 5.59655 0
M  V30 5450 H 564.175 3.0812 7.21132 0
M  V30 5451 N 561.678 -1.56367 -0.196722 0
M  V30 5452 C 562.955 -1.71359 -0.943159 0
M  V30 5453 C 563.335 -0.631192 -2.01443 0
M  V30 5454 O 562.683 0.358071 -2.25677 0
M  V30 5455 C 562.893 -3.13623 -1.53106 0
M  V30 5456 C 564.241 -3.73806 -2.01381 0
M  V30 5457 O 565.265 -3.16742 -1.62951 0
M  V30 5458 O 564.124 -4.73951 -2.7209 0
M  V30 5459 H 561.218 -0.698851 -0.442195 0
M  V30 5460 H 563.764 -1.68672 -0.186547 0
M  V30 5461 H 562.536 -3.83873 -0.758785 0
M  V30 5462 H 562.159 -3.20532 -2.35255 0
M  V30 5463 N 563.156 0.464375 -1.50603 0
M  V30 5464 C 564.402 1.21776 -1.62168 0
M  V30 5465 C 564.735 1.91476 -0.324154 0
M  V30 5466 O 564.01 1.8242 0.674782 0
M  V30 5467 C 564.293 2.25614 -2.80661 0
M  V30 5468 C 564.146 1.60175 -4.20314 0
M  V30 5469 C 565.465 3.26862 -2.94702 0
M  V30 5470 H 562.584 0.44137 -0.590222 0
M  V30 5471 H 565.226 0.510623 -1.8301 0
M  V30 5472 H 563.376 2.85923 -2.63021 0
M  V30 5473 H 565.048 1.03411 -4.4956 0
M  V30 5474 H 563.291 0.904697 -4.24261 0
M  V30 5475 H 563.962 2.35665 -4.99165 0
M  V30 5476 H 566.438 2.76582 -3.10872 0
M  V30 5477 H 565.314 3.96839 -3.79223 0
M  V30 5478 H 565.575 3.91382 -2.05603 0
M  V30 5479 N 564.634 1.40294 0.718013 0
M  V30 5480 C 565.88 1.38645 1.48005 0
M  V30 5481 C 566.213 -0.0121202 1.94196 0
M  V30 5482 O 565.488 -0.980309 1.67989 0
M  V30 5483 C 565.771 2.37379 2.70782 0
M  V30 5484 C 565.624 3.8625 2.30501 0
M  V30 5485 C 566.943 2.33685 3.72933 0
M  V30 5486 H 564.062 0.504928 0.536858 0
M  V30 5487 H 566.704 1.71411 0.819649 0
M  V30 5488 H 564.854 2.09568 3.27129 0
M  V30 5489 H 566.526 4.24879 1.79655 0
M  V30 5490 H 564.769 4.02202 1.6253 0
M  V30 5491 H 565.44 4.50847 3.18498 0
M  V30 5492 H 567.916 2.58314 3.2621 0
M  V30 5493 H 566.792 3.0482 4.56482 0
M  V30 5494 H 567.053 1.34765 4.21059 0
M  V30 5495 N 566.112 -0.949982 1.2575 0
M  V30 5496 C 567.06 -2.06869 1.06339 0
M  V30 5497 C 568.054 -1.69399 -0.00708901 0
M  V30 5498 O 569.26 -1.79383 0.148897 0
M  V30 5499 H 565.635 -0.677197 0.326969 0
M  V30 5500 H 567.606 -2.20396 2.01167 0
M  V30 5501 C 566.355 -3.40503 0.703769 0
M  V30 5502 H 565.678 -3.69807 1.51931 0
M  V30 5503 H 567.118 -4.19623 0.607677 0
M  V30 5504 C 565.577 -3.31685 -0.5905 0
M  V30 5505 O 566.107 -3.67085 -1.63131 0
M  V30 5506 N 564.313 -2.84797 -0.577859 0
M  V30 5507 H 563.86 -2.56186 0.26951 0
M  V30 5508 H 563.818 -2.79279 -1.44398 0
M  V30 5509 N 567.59 -1.07411 -1.15328 0
M  V30 5510 C 568.5 -0.706438 -2.23711 0
M  V30 5511 C 569.516 0.282586 -1.7169 0
M  V30 5512 O 570.692 0.129066 -2.00986 0
M  V30 5513 C 567.757 -0.11048 -3.46524 0
M  V30 5514 C 566.818 -1.15282 -4.13532 0
M  V30 5515 C 566.051 -0.585205 -5.30482 0
M  V30 5516 O 566.274 0.598549 -5.67251 0
M  V30 5517 O 565.208 -1.33039 -5.87013 0
M  V30 5518 H 569.034 -1.61031 -2.57493 0
M  V30 5519 H 566.619 -0.847113 -1.23062 0
M  V30 5520 H 568.501 0.21957 -4.20828 0
M  V30 5521 H 567.176 0.766703 -3.14489 0
M  V30 5522 H 566.083 -1.53523 -3.41147 0
M  V30 5523 H 567.416 -2.00192 -4.49649 0
M  V30 5524 N 569.068 1.32177 -0.85831 0
M  V30 5525 C 570.031 2.27086 -0.310588 0
M  V30 5526 C 571.031 1.51751 0.531806 0
M  V30 5527 O 572.221 1.70794 0.34279 0
M  V30 5528 C 569.353 3.36266 0.560179 0
M  V30 5529 H 570.546 2.77045 -1.1483 0
M  V30 5530 H 568.099 1.42911 -0.632942 0
M  V30 5531 H 568.834 2.9158 1.41956 0
M  V30 5532 H 568.619 3.92077 -0.0428473 0
M  V30 5533 H 570.109 4.06974 0.936056 0
M  V30 5534 N 570.547 0.616602 1.45037 0
M  V30 5535 C 571.796 0.112861 2.01384 0
M  V30 5536 C 572.109 -1.26758 1.48969 0
M  V30 5537 O 573.315 -1.86454 1.9735 0
M  V30 5538 C 571.771 0.151057 3.59583 0
M  V30 5539 C 571.379 1.53191 4.20995 0
M  V30 5540 C 573.123 -0.296974 4.2346 0
M  V30 5541 C 571.03 1.526 5.71373 0
M  V30 5542 H 569.96 0.0384254 0.75302 0
M  V30 5543 H 572.611 0.773262 1.66412 0
M  V30 5544 H 570.993 -0.57617 3.91786 0
M  V30 5545 H 572.167 2.28156 4.00352 0
M  V30 5546 H 570.482 1.92279 3.69348 0
M  V30 5547 H 573.079 -0.320712 5.33737 0
M  V30 5548 H 573.422 -1.32145 3.9477 0
M  V30 5549 H 573.955 0.377279 3.96007 0
M  V30 5550 H 570.694 2.52837 6.04776 0
M  V30 5551 H 570.214 0.819064 5.94181 0
M  V30 5552 H 571.893 1.25357 6.3474 0
M  V30 5553 N 572.025 -1.5352 0.356285 0
M  V30 5554 C 573.302 -1.93405 -0.292223 0
M  V30 5555 C 573.682 -1.28901 -1.67176 0
M  V30 5556 O 573.03 -0.444632 -2.24132 0
M  V30 5557 C 573.24 -3.47223 -0.35175 0
M  V30 5558 C 574.588 -4.20389 -0.596534 0
M  V30 5559 O 575.612 -3.53554 -0.433344 0
M  V30 5560 O 574.471 -5.3881 -0.913589 0
M  V30 5561 H 571.565 -0.808666 -0.173172 0
M  V30 5562 H 574.111 -1.64713 0.408391 0
M  V30 5563 H 572.883 -3.86423 0.615841 0
M  V30 5564 H 572.506 -3.8212 -1.09864 0
M  V30 5565 N 573.503 -0.0852151 -1.57369 0
M  V30 5566 C 574.78 0.622534 -1.85429 0
M  V30 5567 C 575.16 1.86962 -0.980229 0
M  V30 5568 O 574.508 2.28445 -0.0500219 0
M  V30 5569 C 574.718 0.947374 -3.35896 0
M  V30 5570 C 576.066 1.31509 -4.03721 0
M  V30 5571 O 577.09 1.03869 -3.40719 0
M  V30 5572 O 575.949 1.83231 -5.14868 0
M  V30 5573 H 573.043 0.310513 -0.766492 0
M  V30 5574 H 575.589 -0.117164 -1.69295 0
M  V30 5575 H 574.361 0.0622264 -3.91251 0
M  V30 5576 H 573.984 1.74338 -3.5734 0
M  V30 5577 N 574.981 1.5647 0.188427 0
M  V30 5578 C 575.929 1.95971 1.25293 0
M  V30 5579 C 576.923 0.846047 1.4676 0
M  V30 5580 O 578.129 1.03109 1.47542 0
M  V30 5581 H 574.504 0.623253 0.420784 0
M  V30 5582 H 576.475 2.84731 0.892792 0
M  V30 5583 C 575.224 2.32116 2.58877 0
M  V30 5584 H 574.547 3.17341 2.43176 0
M  V30 5585 H 575.987 2.63613 3.3209 0
M  V30 5586 C 574.446 1.15823 3.16365 0
M  V30 5587 O 574.976 0.436785 3.99318 0
M  V30 5588 N 573.182 0.933278 2.75206 0
M  V30 5589 H 572.729 1.52169 2.07852 0
M  V30 5590 H 572.687 0.156976 3.14008 0
M  V30 5591 N 576.459 -0.456382 1.50847 0
M  V30 5592 C 577.684 -1.2349 1.66628 0
M  V30 5593 C 578.109 -1.84715 0.355254 0
M  V30 5594 O 577.467 -1.67961 -0.682559 0
M  V30 5595 C 577.515 -2.30865 2.77009 0
M  V30 5596 O 576.619 -3.35882 2.39285 0
M  V30 5597 H 575.96 -0.36266 0.556214 0
M  V30 5598 H 578.49 -0.541374 1.97308 0
M  V30 5599 H 578.5 -2.75949 3.00526 0
M  V30 5600 H 577.175 -1.85677 3.72152 0
M  V30 5601 H 575.752 -2.96406 2.26269 0
M  V30 5602 N 577.937 -1.40673 -0.710563 0
M  V30 5603 C 579.348 -1.34975 -1.28991 0
M  V30 5604 C 579.699 -0.0256272 -1.96183 0
M  V30 5605 O 578.824 0.876339 -1.97862 0
M  V30 5606 C 579.419 -2.44467 -2.34567 0
M  V30 5607 C 577.978 -2.42213 -2.88114 0
M  V30 5608 C 577.125 -2.25085 -1.61963 0
M  V30 5609 H 580.076 -1.50406 -0.506343 0
M  V30 5610 H 580.097 -2.12663 -3.15523 0
M  V30 5611 H 579.609 -3.40825 -1.85634 0
M  V30 5612 H 577.71 -1.49568 -3.41263 0
M  V30 5613 H 577.823 -3.37983 -3.39565 0
M  V30 5614 H 576.187 -1.72691 -1.87216 0
M  V30 5615 H 576.97 -3.23449 -1.15047 0
M  V30 5616 N 579.415 0.9433 -1.26252 0
M  V30 5617 C 580.378 2.02326 -1.07689 0
M  V30 5618 C 581.378 1.60779 -0.0259174 0
M  V30 5619 O 582.568 1.72108 -0.269134 0
M  V30 5620 C 579.7 3.34886 -0.63752 0
M  V30 5621 H 580.893 2.20225 -2.0357 0
M  V30 5622 H 578.446 1.12197 -1.08819 0
M  V30 5623 H 579.181 3.22684 0.323377 0
M  V30 5624 H 578.966 3.66393 -1.39637 0
M  V30 5625 H 580.456 4.14231 -0.529418 0
M  V30 5626 N 580.893 1.08022 1.14757 0
M  V30 5627 C 581.841 0.701088 2.21783 0
M  V30 5628 C 582.835 -0.291311 1.66876 0
M  V30 5629 O 584.041 -0.154296 1.79337 0
M  V30 5630 H 580.416 0.208668 0.722469 0
M  V30 5631 H 582.387 1.61321 2.51034 0
M  V30 5632 C 581.136 0.122278 3.47485 0
M  V30 5633 H 580.459 0.877065 3.90061 0
M  V30 5634 H 581.899 -0.105248 4.23869 0
M  V30 5635 C 580.358 -1.13883 3.17068 0
M  V30 5636 O 580.888 -2.22429 3.34497 0
M  V30 5637 N 579.094 -1.04767 2.71058 0
M  V30 5638 H 578.641 -0.164302 2.57075 0
M  V30 5639 H 578.599 -1.89224 2.51081 0
M  V30 5640 N 582.371 -1.3172 0.865308 0
M  V30 5641 C 583.618 -1.96876 0.473931 0
M  V30 5642 C 583.946 -1.68425 -0.972786 0
M  V30 5643 O 583.201 -0.970742 -1.69927 0
M  V30 5644 C 583.5 -3.5102 0.672283 0
M  V30 5645 C 583.166 -3.9948 2.09108 0
M  V30 5646 C 581.828 -4.12425 2.4791 0
M  V30 5647 C 584.18 -4.2503 3.0166 0
M  V30 5648 C 581.508 -4.48267 3.78515 0
M  V30 5649 C 583.86 -4.62335 4.31774 0
M  V30 5650 C 582.524 -4.73486 4.70497 0
M  V30 5651 H 581.794 -0.72042 0.173424 0
M  V30 5652 H 584.441 -1.56937 1.0974 0
M  V30 5653 H 582.746 -3.91785 -0.034356 0
M  V30 5654 H 584.443 -3.99475 0.349353 0
M  V30 5655 H 581.033 -3.89898 1.77981 0
M  V30 5656 H 585.217 -4.14529 2.7291 0
M  V30 5657 H 580.473 -4.55097 4.08285 0
M  V30 5658 H 584.647 -4.81058 5.03543 0
M  V30 5659 H 582.274 -5.01016 5.71741 0
M  V30 5660 N 583.85 -0.624285 -1.44708 0
M  V30 5661 C 585.266 -0.289322 -1.56956 0
M  V30 5662 C 585.466 1.20773 -1.61295 0
M  V30 5663 O 584.522 1.9915 -1.55227 0
M  V30 5664 C 585.835 -0.975215 -2.84447 0
M  V30 5665 C 587.383 -0.952709 -2.98148 0
M  V30 5666 C 587.858 -1.61893 -4.28433 0
M  V30 5667 N 589.349 -1.5852 -4.35231 0
M  V30 5668 C 590.084 -2.06969 -5.34744 0
M  V30 5669 N 589.58 -2.63579 -6.40701 0
M  V30 5670 N 591.373 -1.97638 -5.26209 0
M  V30 5671 H 583.524 -1.59612 -1.40135 0
M  V30 5672 H 585.787 -0.669592 -0.671081 0
M  V30 5673 H 585.493 -2.02999 -2.87201 0
M  V30 5674 H 585.367 -0.508749 -3.73753 0
M  V30 5675 H 587.754 0.093568 -2.94952 0
M  V30 5676 H 587.835 -1.4576 -2.10209 0
M  V30 5677 H 587.479 -2.66463 -4.32389 0
M  V30 5678 H 587.409 -1.08893 -5.15218 0
M  V30 5679 H 589.899 -1.17183 -3.59272 0
M  V30 5680 H 590.213 -2.98298 -7.12908 0
M  V30 5681 H 588.558 -2.67626 -6.41406 0
M  V30 5682 H 591.749 -1.5314 -4.42341 0
M  V30 5683 H 591.922 -2.35708 -6.03611 0
M  V30 5684 N 585.328 1.53329 -0.364422 0
M  V30 5685 C 586.556 2.05657 0.226424 0
M  V30 5686 C 586.971 1.23801 1.42544 0
M  V30 5687 O 586.328 0.27839 1.80364 0
M  V30 5688 C 586.379 3.56125 0.621056 0
M  V30 5689 O 586.1 4.34879 -0.530304 0
M  V30 5690 C 587.601 4.24706 1.27041 0
M  V30 5691 H 584.821 0.669806 0.0400056 0
M  V30 5692 H 587.365 1.97714 -0.522456 0
M  V30 5693 H 585.52 3.64223 1.31985 0
M  V30 5694 H 585.934 5.24073 -0.211546 0
M  V30 5695 H 587.408 5.3131 1.49711 0
M  V30 5696 H 587.885 3.78354 2.23036 0
M  V30 5697 H 588.491 4.20858 0.613079 0
M  V30 5698 N 586.806 0.0935595 1.57322 0
M  V30 5699 C 588.034 -0.578934 1.98635 0
M  V30 5700 C 588.449 -1.61819 0.972626 0
M  V30 5701 O 587.806 -1.82461 -0.0379638 0
M  V30 5702 C 587.857 -1.22802 3.40003 0
M  V30 5703 O 587.578 -0.230334 4.37494 0
M  V30 5704 C 589.079 -1.98627 3.96311 0
M  V30 5705 H 586.299 -0.155324 0.652775 0
M  V30 5706 H 588.843 0.172393 2.03772 0
M  V30 5707 H 586.998 -1.93029 3.35885 0
M  V30 5708 H 587.412 -0.698649 5.19826 0
M  V30 5709 H 588.886 -2.39405 4.97382 0
M  V30 5710 H 589.363 -2.85151 3.34044 0
M  V30 5711 H 589.969 -1.3322 4.03897 0
M  V30 5712 N 588.284 -1.56567 -0.180126 0
M  V30 5713 C 589.561 -1.7235 -0.924931 0
M  V30 5714 C 589.941 -0.652523 -2.00762 0
M  V30 5715 O 589.289 0.334115 -2.26044 0
M  V30 5716 C 589.499 -3.1523 -1.49771 0
M  V30 5717 C 590.847 -3.75921 -1.97405 0
M  V30 5718 O 591.871 -3.18452 -1.59583 0
M  V30 5719 O 590.73 -4.7681 -2.67048 0
M  V30 5720 H 587.824 -0.703502 -0.434758 0
M  V30 5721 H 590.37 -1.6886 -0.168647 0
M  V30 5722 H 589.142 -3.84656 -0.718027 0
M  V30 5723 H 588.765 -3.23009 -2.31842 0
M  V30 5724 N 589.762 0.448376 -1.51087 0
M  V30 5725 C 590.987 1.22605 -1.6728 0
M  V30 5726 C 591.412 1.84524 -0.365045 0
M  V30 5727 O 590.77 1.6832 0.673642 0
M  V30 5728 C 590.818 2.29393 -2.78229 0
M  V30 5729 O 589.922 3.34608 -2.41063 0
M  V30 5730 H 589.263 0.359705 -0.558129 0
M  V30 5731 H 591.793 0.530903 -1.97592 0
M  V30 5732 H 591.803 2.74352 -3.01986 0
M  V30 5733 H 590.478 1.83701 -3.73131 0
M  V30 5734 H 589.055 2.95202 -2.27838 0
M  V30 5735 N 591.24 1.41047 0.703093 0
M  V30 5736 C 592.203 1.42036 1.79884 0
M  V30 5737 C 593.203 0.312153 1.57741 0
M  V30 5738 O 594.393 0.571672 1.64553 0
M  V30 5739 C 591.525 1.22437 3.18154 0
M  V30 5740 H 592.718 2.39572 1.80403 0
M  V30 5741 H 590.271 1.27079 0.909977 0
M  V30 5742 H 591.006 0.257112 3.23279 0
M  V30 5743 H 590.791 2.02723 3.35627 0
M  V30 5744 H 592.281 1.25946 3.98155 0
M  V30 5745 N 592.718 -0.936591 1.26751 0
M  V30 5746 C 593.965 -1.68331 1.12566 0
M  V30 5747 C 594.293 -1.91677 -0.330168 0
M  V30 5748 O 593.548 -1.49859 -1.2586 0
M  V30 5749 C 593.847 -3.06099 1.84494 0
M  V30 5750 C 593.513 -3.02493 3.34378 0
M  V30 5751 C 592.175 -3.01217 3.75262 0
M  V30 5752 C 594.527 -2.94453 4.30055 0
M  V30 5753 C 591.855 -2.89672 5.10203 0
M  V30 5754 C 594.207 -2.84449 5.65041 0
M  V30 5755 C 592.871 -2.81518 6.0523 0
M  V30 5756 H 592.141 -0.615965 0.411907 0
M  V30 5757 H 594.788 -1.09292 1.5725 0
M  V30 5758 H 593.093 -3.6879 1.32292 0
M  V30 5759 H 594.79 -3.62733 1.70955 0
M  V30 5760 H 591.38 -3.04269 3.01858 0
M  V30 5761 H 595.564 -2.94544 3.99447 0
M  V30 5762 H 590.82 -2.85783 5.40498 0
M  V30 5763 H 594.994 -2.77192 6.38856 0
M  V30 5764 H 592.621 -2.72329 7.09747 0
M  V30 5765 N 594.196 -1.08629 -1.14182 0
M  V30 5766 C 595.426 -0.837673 -1.88856 0
M  V30 5767 C 595.834 0.614024 -1.78959 0
M  V30 5768 O 595.177 1.43384 -1.14833 0
M  V30 5769 C 595.239 -1.18355 -3.39459 0
M  V30 5770 C 594.903 -2.63848 -3.73139 0
M  V30 5771 C 595.9 -3.62099 -3.73069 0
M  V30 5772 C 593.585 -2.99761 -4.03049 0
M  V30 5773 C 595.579 -4.94292 -4.02435 0
M  V30 5774 C 593.266 -4.32147 -4.32078 0
M  V30 5775 C 594.264 -5.29223 -4.31755 0
M  V30 5776 O 593.952 -6.59229 -4.60079 0
M  V30 5777 H 593.684 -0.301609 -0.604986 0
M  V30 5778 H 596.238 -1.44961 -1.45518 0
M  V30 5779 H 594.468 -0.514628 -3.8326 0
M  V30 5780 H 596.157 -0.915391 -3.95443 0
M  V30 5781 H 596.923 -3.35698 -3.50046 0
M  V30 5782 H 592.802 -2.2484 -4.02453 0
M  V30 5783 H 596.346 -5.70055 -4.02098 0
M  V30 5784 H 592.243 -4.58296 -4.54571 0
M  V30 5785 H 593.011 -6.64578 -4.77785 0
M  V30 5786 N 595.674 1.31259 -0.872281 0
M  V30 5787 C 596.92 1.96913 -0.485083 0
M  V30 5788 C 597.253 1.68774 0.960667 0
M  V30 5789 O 596.528 0.985495 1.67685 0
M  V30 5790 C 596.811 3.52299 -0.745502 0
M  V30 5791 C 596.664 3.90002 -2.24095 0
M  V30 5792 C 597.983 4.39582 -0.213516 0
M  V30 5793 H 595.102 0.715252 -0.177716 0
M  V30 5794 H 597.744 1.55347 -1.09395 0
M  V30 5795 H 595.894 3.87835 -0.227276 0
M  V30 5796 H 597.566 3.64555 -2.82661 0
M  V30 5797 H 595.809 3.38526 -2.71261 0
M  V30 5798 H 596.48 4.98352 -2.37381 0
M  V30 5799 H 598.956 4.10882 -0.656902 0
M  V30 5800 H 597.832 5.47251 -0.42516 0
M  V30 5801 H 598.093 4.33158 0.884666 0
M  V30 5802 N 597.152 0.631951 1.44375 0
M  V30 5803 C 598.099 -0.0724807 2.30686 0
M  V30 5804 C 599.069 -0.835975 1.43529 0
M  V30 5805 O 600.254 -0.816849 1.7243 0
M  V30 5806 C 597.394 -1.04753 3.28817 0
M  V30 5807 C 596.507 -0.282367 4.31076 0
M  V30 5808 C 595.642 -1.2493 5.163 0
M  V30 5809 C 594.681 -0.473349 6.10267 0
M  V30 5810 N 593.818 -1.39079 6.88187 0
M  V30 5811 H 598.658 0.669477 2.90383 0
M  V30 5812 H 596.195 0.341927 1.43071 0
M  V30 5813 H 598.153 -1.62623 3.842 0
M  V30 5814 H 596.783 -1.75661 2.70819 0
M  V30 5815 H 595.835 0.412268 3.78159 0
M  V30 5816 H 597.147 0.321955 4.9776 0
M  V30 5817 H 596.301 -1.89931 5.76204 0
M  V30 5818 H 595.04 -1.88755 4.49692 0
M  V30 5819 H 594.045 0.190142 5.49471 0
M  V30 5820 H 595.27 0.16019 6.78911 0
M  V30 5821 H 593.216 -2.01623 6.24247 0
M  V30 5822 H 593.133 -0.840513 7.51313 0
M  V30 5823 H 594.401 -2.02961 7.52613 0
M  V30 5824 N 598.631 -1.53133 0.372548 0
M  V30 5825 C 599.856 -2.0625 -0.218098 0
M  V30 5826 C 600.281 -1.24375 -1.41111 0
M  V30 5827 O 599.639 -0.264554 -1.79359 0
M  V30 5828 C 599.687 -3.55858 -0.582876 0
M  V30 5829 O 598.791 -3.76667 -1.67917 0
M  V30 5830 H 598.132 -0.663317 -0.030104 0
M  V30 5831 H 600.662 -1.97477 0.535169 0
M  V30 5832 H 600.672 -3.99007 -0.851925 0
M  V30 5833 H 599.347 -4.14892 0.289428 0
M  V30 5834 H 597.924 -3.45413 -1.40513 0
M  V30 5835 N 600.109 -0.101901 -1.5727 0
M  V30 5836 C 601.357 0.559091 -1.94213 0
M  V30 5837 C 601.678 1.68297 -0.984948 0
M  V30 5838 O 600.948 1.95863 -0.0381975 0
M  V30 5839 H 599.528 0.20952 -0.717015 0
M  V30 5840 H 602.19 -0.166831 -1.94185 0
M  V30 5841 H 601.286 0.96485 -2.96811 0
M  V30 5842 N 601.587 1.56661 0.17182 0
M  V30 5843 C 602.535 1.97289 1.23207 0
M  V30 5844 C 603.529 0.861566 1.45854 0
M  V30 5845 O 604.735 1.04668 1.4644 0
M  V30 5846 H 601.11 0.627681 0.41415 0
M  V30 5847 H 603.081 2.85662 0.862542 0
M  V30 5848 C 601.83 2.34849 2.564 0
M  V30 5849 H 601.153 3.19903 2.39797 0
M  V30 5850 H 602.593 2.67121 3.29276 0
M  V30 5851 C 601.052 1.19172 3.15119 0
M  V30 5852 O 601.582 0.479113 3.98833 0
M  V30 5853 N 599.788 0.962415 2.74201 0
M  V30 5854 H 599.335 1.54365 2.06226 0
M  V30 5855 H 599.293 0.190272 3.13824 0
M  V30 5856 N 603.065 -0.440357 1.51323 0
M  V30 5857 C 604.29 -1.21716 1.67928 0
M  V30 5858 C 604.715 -1.84328 0.374826 0
M  V30 5859 O 604.073 -1.68675 -0.664706 0
M  V30 5860 C 604.121 -2.27914 2.79442 0
M  V30 5861 O 603.225 -3.33325 2.42834 0
M  V30 5862 H 602.566 -0.35674 0.560029 0
M  V30 5863 H 605.096 -0.520417 1.97871 0
M  V30 5864 H 605.106 -2.72746 3.03436 0
M  V30 5865 H 603.781 -1.8172 3.741 0
M  V30 5866 H 602.358 -2.9399 2.294 0
M  V30 5867 N 604.543 -1.41418 -0.695603 0
M  V30 5868 C 605.768 -1.44329 -1.48942 0
M  V30 5869 C 606.193 -0.0501579 -1.88033 0
M  V30 5870 O 605.551 0.946598 -1.54626 0
M  V30 5871 C 605.599 -2.3578 -2.72837 0
M  V30 5872 O 604.703 -1.81482 -3.70322 0
M  V30 5873 H 604.044 -0.489838 -0.44828 0
M  V30 5874 H 606.574 -1.85878 -0.855014 0
M  V30 5875 H 606.584 -2.51654 -3.21145 0
M  V30 5876 H 605.259 -3.37005 -2.43722 0
M  V30 5877 H 603.836 -1.75058 -3.29255 0
M  V30 5878 N 606.021 0.929856 -1.27246 0
M  V30 5879 C 607.267 1.6798 -1.13625 0
M  V30 5880 C 607.6 1.91586 0.317589 0
M  V30 5881 O 606.875 1.50467 1.23247 0
M  V30 5882 C 607.158 3.04766 -1.91806 0
M  V30 5883 C 607.011 2.88415 -3.45162 0
M  V30 5884 C 608.33 4.05063 -1.72082 0
M  V30 5885 H 605.449 0.609632 -0.414147 0
M  V30 5886 H 608.091 1.0792 -1.56376 0
M  V30 5887 H 606.241 3.56034 -1.55474 0
M  V30 5888 H 607.913 2.44282 -3.91311 0
M  V30 5889 H 606.156 2.23802 -3.71611 0
M  V30 5890 H 606.827 3.85482 -3.95105 0
M  V30 5891 H 609.303 3.62798 -2.03757 0
M  V30 5892 H 608.179 4.98765 -2.29182 0
M  V30 5893 H 608.44 4.37021 -0.668206 0
M  V30 5894 N 607.499 1.09233 1.13605 0
M  V30 5895 C 608.729 0.847677 1.88409 0
M  V30 5896 C 609.137 -0.604524 1.79282 0
M  V30 5897 O 608.48 -1.42773 1.15592 0
M  V30 5898 C 608.542 1.20153 3.38827 0
M  V30 5899 C 608.206 2.65824 3.71735 0
M  V30 5900 C 609.203 3.64072 3.71143 0
M  V30 5901 C 606.888 3.01894 4.01454 0
M  V30 5902 C 608.882 4.96419 3.99808 0
M  V30 5903 C 606.569 4.34433 4.29781 0
M  V30 5904 C 607.567 5.31505 4.28942 0
M  V30 5905 O 607.255 6.61659 4.56576 0
M  V30 5906 H 606.987 0.304813 0.603378 0
M  V30 5907 H 609.541 1.4573 1.44748 0
M  V30 5908 H 607.771 0.534946 3.82982 0
M  V30 5909 H 609.46 0.936349 3.94952 0
M  V30 5910 H 610.226 3.37549 3.4826 0
M  V30 5911 H 606.105 2.26971 4.01255 0
M  V30 5912 H 609.649 5.7218 3.99069 0
M  V30 5913 H 605.546 4.607 4.52135 0
M  V30 5914 H 606.314 6.67102 4.74254 0
M  V30 5915 N 608.977 -1.30795 0.87923 0
M  V30 5916 C 610.226 -1.95636 0.490875 0
M  V30 5917 C 610.539 -1.70214 -0.963674 0
M  V30 5918 O 611.745 -2.28991 -1.45861 0
M  V30 5919 C 610.201 -3.50271 0.826929 0
M  V30 5920 C 609.809 -3.84521 2.29886 0
M  V30 5921 C 611.553 -4.21456 0.507494 0
M  V30 5922 C 609.46 -5.32309 2.57685 0
M  V30 5923 H 608.39 -0.732238 0.179841 0
M  V30 5924 H 611.041 -1.48829 1.07341 0
M  V30 5925 H 609.423 -3.9562 0.173542 0
M  V30 5926 H 610.597 -3.50102 2.99609 0
M  V30 5927 H 608.912 -3.26425 2.58526 0
M  V30 5928 H 611.509 -5.30199 0.692293 0
M  V30 5929 H 611.852 -4.12614 -0.552718 0
M  V30 5930 H 612.385 -3.81772 1.11782 0
M  V30 5931 H 609.124 -5.46195 3.62424 0
M  V30 5932 H 608.644 -5.68048 1.92566 0
M  V30 5933 H 610.323 -5.99678 2.42889 0
M  V30 5934 N 610.455 -0.639598 -1.44038 0
M  V30 5935 C 611.365 0.0612377 -2.3452 0
M  V30 5936 C 612.381 0.826717 -1.53106 0
M  V30 5937 O 613.557 0.777059 -1.85806 0
M  V30 5938 C 610.622 1.02492 -3.31204 0
M  V30 5939 C 609.683 0.25788 -4.28525 0
M  V30 5940 C 608.916 1.17566 -5.2059 0
M  V30 5941 O 609.139 2.41461 -5.16771 0
M  V30 5942 O 608.073 0.655407 -5.98321 0
M  V30 5943 H 611.899 -0.68318 -2.95916 0
M  V30 5944 H 609.484 -0.399784 -1.43952 0
M  V30 5945 H 611.366 1.57911 -3.90694 0
M  V30 5946 H 610.041 1.7498 -2.7233 0
M  V30 5947 H 608.948 -0.339566 -3.72556 0
M  V30 5948 H 610.281 -0.427154 -4.90343 0
M  V30 5949 N 611.933 1.52934 -0.380664 0
M  V30 5950 C 613.349 1.59571 -0.0302429 0
M  V30 5951 C 613.549 1.39509 1.45394 0
M  V30 5952 O 612.605 1.20777 2.21741 0
M  V30 5953 C 613.918 2.96519 -0.499691 0
M  V30 5954 C 615.466 3.09672 -0.455204 0
M  V30 5955 C 615.941 4.49056 -0.900703 0
M  V30 5956 N 617.432 4.55215 -0.856367 0
M  V30 5957 C 618.167 5.61282 -1.17259 0
M  V30 5958 N 617.663 6.75035 -1.55885 0
M  V30 5959 N 619.456 5.51343 -1.0944 0
M  V30 5960 H 611.607 1.64224 -1.347 0
M  V30 5961 H 613.87 0.771033 -0.551554 0
M  V30 5962 H 613.576 3.16388 -1.53595 0
M  V30 5963 H 613.45 3.77052 0.105789 0
M  V30 5964 H 615.837 2.89504 0.571949 0
M  V30 5965 H 615.918 2.31113 -1.09638 0
M  V30 5966 H 615.562 4.69964 -1.92604 0
M  V30 5967 H 615.492 5.26068 -0.236629 0
M  V30 5968 H 617.983 3.73546 -0.572013 0
M  V30 5969 H 618.296 7.51926 -1.784 0
M  V30 5970 H 616.641 6.76388 -1.59764 0
M  V30 5971 H 619.832 4.61356 -0.791713 0
M  V30 5972 H 620.005 6.33905 -1.34417 0
M  V30 5973 N 613.412 0.11024 1.57214 0
M  V30 5974 C 614.375 -0.828808 2.1369 0
M  V30 5975 C 615.375 -1.20059 1.06969 0
M  V30 5976 O 616.565 -1.12754 1.32786 0
M  V30 5977 C 613.697 -2.11959 2.66994 0
M  V30 5978 H 614.89 -0.338146 2.97988 0
M  V30 5979 H 612.443 -0.138913 1.55681 0
M  V30 5980 H 613.178 -2.65476 1.8626 0
M  V30 5981 H 612.963 -1.86258 3.45037 0
M  V30 5982 H 614.453 -2.79105 3.10629 0
M  V30 5983 N 614.89 -1.56749 -0.16351 0
M  V30 5984 C 616.137 -1.82434 -0.878866 0
M  V30 5985 C 616.465 -0.688557 -1.81904 0
M  V30 5986 O 615.72 0.323644 -1.93005 0
M  V30 5987 C 616.019 -3.14342 -1.70071 0
M  V30 5988 C 615.685 -4.41647 -0.908775 0
M  V30 5989 C 614.347 -4.76224 -0.690236 0
M  V30 5990 C 616.699 -5.19998 -0.353815 0
M  V30 5991 C 614.027 -5.86624 0.0942374 0
M  V30 5992 C 616.379 -6.3122 0.41761 0
M  V30 5993 C 615.043 -6.64358 0.646879 0
M  V30 5994 H 614.313 -0.667574 -0.3216 0
M  V30 5995 H 616.96 -1.90963 -0.14337 0
M  V30 5996 H 615.265 -3.0119 -2.50583 0
M  V30 5997 H 616.962 -3.31426 -2.25738 0
M  V30 5998 H 613.552 -4.1453 -1.08916 0
M  V30 5999 H 617.736 -4.93673 -0.509975 0
M  V30 6000 H 612.992 -6.10751 0.281529 0
M  V30 6001 H 617.166 -6.91133 0.854849 0
M  V30 6002 H 614.793 -7.49742 1.25662 0
M  V30 6003 N 616.368 0.432326 -1.51554 0
M  V30 6004 C 617.3 1.54357 -1.6943 0
M  V30 6005 C 618.313 1.52311 -0.574897 0
M  V30 6006 O 619.502 1.56997 -0.849369 0
M  V30 6007 C 616.602 2.93273 -1.69836 0
M  V30 6008 C 615.775 3.19768 -2.98442 0
M  V30 6009 C 614.834 4.38433 -2.90969 0
M  V30 6010 O 613.86 4.36842 -3.64908 0
M  V30 6011 N 615.062 5.42276 -2.07163 0
M  V30 6012 H 617.827 1.39426 -2.65293 0
M  V30 6013 H 615.388 0.621331 -1.49503 0
M  V30 6014 H 617.38 3.70687 -1.62399 0
M  V30 6015 H 615.95 3.01777 -0.815456 0
M  V30 6016 H 615.17 2.30607 -3.19709 0
M  V30 6017 H 616.458 3.343 -3.83563 0
M  V30 6018 H 615.856 5.46407 -1.46477 0
M  V30 6019 H 614.413 6.18524 -2.05601 0
M  V30 6020 N 617.846 1.41785 0.688094 0
M  V30 6021 C 619.074 1.44915 1.47673 0
M  V30 6022 C 619.489 0.0565786 1.88715 0
M  V30 6023 O 618.846 -0.92579 1.57275 0
M  V30 6024 C 618.897 2.36452 2.73446 0
M  V30 6025 O 618.618 3.7029 2.34131 0
M  V30 6026 C 620.119 2.48463 3.67125 0
M  V30 6027 H 617.339 0.493324 0.454832 0
M  V30 6028 H 619.883 1.86153 0.846594 0
M  V30 6029 H 618.038 1.98502 3.3268 0
M  V30 6030 H 618.452 4.19183 3.15255 0
M  V30 6031 H 619.926 3.16662 4.52138 0
M  V30 6032 H 620.403 1.51826 4.12123 0
M  V30 6033 H 621.009 2.8708 3.13792 0
M  V30 6034 N 619.324 -0.923095 1.27737 0
M  V30 6035 C 620.287 -2.00587 1.10894 0
M  V30 6036 C 621.287 -1.60718 0.0514927 0
M  V30 6037 O 622.477 -1.71658 0.296481 0
M  V30 6038 C 619.609 -3.33829 0.690717 0
M  V30 6039 H 620.802 -2.16959 2.07048 0
M  V30 6040 H 618.355 -1.10451 1.1059 0
M  V30 6041 H 619.09 -3.23157 -0.272 0
M  V30 6042 H 618.875 -3.64125 1.45448 0
M  V30 6043 H 620.365 -4.13336 0.595252 0
M  V30 6044 N 620.802 -1.09834 -1.13024 0
M  V30 6045 C 622.218 -0.828875 -1.36388 0
M  V30 6046 C 622.418 0.554756 -1.93713 0
M  V30 6047 O 621.474 1.30882 -2.15931 0
M  V30 6048 C 622.787 -1.92352 -2.3113 0
M  V30 6049 C 624.335 -1.95124 -2.44735 0
M  V30 6050 C 624.81 -3.03745 -3.42787 0
M  V30 6051 N 626.301 -3.03012 -3.5034 0
M  V30 6052 C 627.036 -3.83699 -4.26101 0
M  V30 6053 N 626.532 -4.74306 -5.04981 0
M  V30 6054 N 628.325 -3.71942 -4.21445 0
M  V30 6055 H 620.476 -1.99029 -0.74169 0
M  V30 6056 H 622.739 -0.864557 -0.388903 0
M  V30 6057 H 622.445 -2.91906 -1.96172 0
M  V30 6058 H 622.319 -1.80536 -3.3119 0
M  V30 6059 H 624.706 -0.962069 -2.78977 0
M  V30 6060 H 624.787 -2.11018 -1.44586 0
M  V30 6061 H 624.431 -4.02878 -3.09276 0
M  V30 6062 H 624.361 -2.85094 -4.42752 0
M  V30 6063 H 626.852 -2.37352 -2.94062 0
M  V30 6064 H 627.165 -5.32446 -5.60108 0
M  V30 6065 H 625.51 -4.78339 -5.04199 0
M  V30 6066 H 628.701 -3.00513 -3.589 0
M  V30 6067 H 628.874 -4.35062 -4.80235 0
M  V30 6068 N 622.28 1.30327 -0.886154 0
M  V30 6069 C 623.243 2.26376 -0.358687 0
M  V30 6070 C 624.243 1.52845 0.499498 0
M  V30 6071 O 625.433 1.71483 0.306485 0
M  V30 6072 C 622.565 3.37379 0.488726 0
M  V30 6073 H 623.758 2.74547 -1.20681 0
M  V30 6074 H 621.311 1.41536 -0.663113 0
M  V30 6075 H 622.046 2.94526 1.35739 0
M  V30 6076 H 621.831 3.91897 -0.126003 0
M  V30 6077 H 623.321 4.08868 0.84952 0
M  V30 6078 N 623.758 0.647228 1.43697 0
M  V30 6079 C 624.721 -0.0385101 2.29168 0
M  V30 6080 C 625.721 -0.756487 1.41894 0
M  V30 6081 O 626.911 -0.598641 1.63591 0
M  V30 6082 C 624.043 -1.06524 3.23829 0
M  V30 6083 H 625.236 0.713445 2.9129 0
M  V30 6084 H 622.789 0.408153 1.50877 0
M  V30 6085 H 623.524 -1.84664 2.66589 0
M  V30 6086 H 623.309 -0.554147 3.88164 0
M  V30 6087 H 624.799 -1.54432 3.87996 0
M  V30 6088 N 625.236 -1.5273 0.388769 0
M  V30 6089 C 626.513 -1.93981 -0.251133 0
M  V30 6090 C 626.893 -1.32418 -1.64404 0
M  V30 6091 O 626.241 -0.492074 -2.23139 0
M  V30 6092 C 626.451 -3.47891 -0.27802 0
M  V30 6093 C 627.799 -4.21559 -0.507229 0
M  V30 6094 O 628.823 -3.54394 -0.358252 0
M  V30 6095 O 627.682 -5.40626 -0.799094 0
M  V30 6096 H 624.776 -0.812157 -0.15598 0
M  V30 6097 H 627.322 -1.63809 0.443237 0
M  V30 6098 H 626.094 -3.8503 0.697669 0
M  V30 6099 H 625.717 -3.84364 -1.01733 0
M  V30 6100 N 626.714 -0.118576 -1.57153 0
M  V30 6101 C 628.125 0.40687 -1.82213 0
M  V30 6102 C 628.476 1.66636 -1.03571 0
M  V30 6103 O 627.601 2.14682 -0.272171 0
M  V30 6104 C 628.196 0.744949 -3.30509 0
M  V30 6105 C 626.755 1.21503 -3.5625 0
M  V30 6106 C 625.902 0.223511 -2.76398 0
M  V30 6107 H 628.853 -0.343712 -1.54933 0
M  V30 6108 H 628.874 1.6024 -3.45114 0
M  V30 6109 H 628.386 -0.171911 -3.87719 0
M  V30 6110 H 626.487 2.1488 -3.04396 0
M  V30 6111 H 626.6 1.16065 -4.64829 0
M  V30 6112 H 624.964 0.71046 -2.44591 0
M  V30 6113 H 625.747 -0.686439 -3.36367 0
M  V30 6114 N 628.193 1.56834 0.155195 0
M  V30 6115 C 629.156 1.96748 1.17571 0
M  V30 6116 C 630.156 0.853006 1.3631 0
M  V30 6117 O 631.346 1.11978 1.33441 0
M  V30 6118 C 628.478 2.27631 2.53765 0
M  V30 6119 H 629.671 2.88085 0.833498 0
M  V30 6120 H 627.224 1.51141 0.398242 0
M  V30 6121 H 627.959 1.39059 2.92973 0
M  V30 6122 H 627.744 3.0888 2.41527 0
M  V30 6123 H 629.234 2.59377 3.27282 0
M  V30 6124 N 629.671 -0.424282 1.51781 0
M  V30 6125 C 630.917 -1.17434 1.6534 0
M  V30 6126 C 631.25 -1.90549 0.374806 0
M  V30 6127 O 630.525 -1.84145 -0.626179 0
M  V30 6128 C 630.808 -2.18093 2.86544 0
M  V30 6129 C 630.661 -1.48975 4.24413 0
M  V30 6130 C 631.98 -3.18934 3.03264 0
M  V30 6131 H 629.099 -0.425566 0.601716 0
M  V30 6132 H 631.741 -0.461921 1.84299 0
M  V30 6133 H 629.891 -2.78849 2.7051 0
M  V30 6134 H 631.563 -0.914551 4.52143 0
M  V30 6135 H 629.806 -0.791893 4.26511 0
M  V30 6136 H 630.477 -2.22347 5.05238 0
M  V30 6137 H 632.953 -2.68243 3.18096 0
M  V30 6138 H 631.829 -3.86645 3.89611 0
M  V30 6139 H 632.09 -3.85793 2.15908 0
M  V30 6140 N 631.149 -1.42148 -0.680565 0
M  V30 6141 C 632.398 -1.41604 -1.43636 0
M  V30 6142 C 632.711 -0.0337887 -1.95571 0
M  V30 6143 O 633.917 0.0942588 -2.71336 0
M  V30 6144 C 632.373 -2.49056 -2.59806 0
M  V30 6145 C 631.981 -3.9326 -2.14594 0
M  V30 6146 C 633.725 -2.5767 -3.37352 0
M  V30 6147 C 631.632 -4.92232 -3.27813 0
M  V30 6148 H 630.562 -0.526656 -0.539583 0
M  V30 6149 H 633.213 -1.68033 -0.737369 0
M  V30 6150 H 631.595 -2.15782 -3.32045 0
M  V30 6151 H 632.769 -4.35858 -1.49546 0
M  V30 6152 H 631.084 -3.88443 -1.50002 0
M  V30 6153 H 633.681 -3.28794 -4.21662 0
M  V30 6154 H 634.024 -1.61837 -3.83555 0
M  V30 6155 H 634.557 -2.90109 -2.72179 0
M  V30 6156 H 631.296 -5.89522 -2.86607 0
M  V30 6157 H 630.816 -4.5427 -3.91661 0
M  V30 6158 H 632.495 -5.13684 -3.93367 0
M  V30 6159 N 632.627 0.916307 -1.28225 0
M  V30 6160 C 633.557 2.0352 -1.14464 0
M  V30 6161 C 634.538 1.70045 -0.0430844 0
M  V30 6162 O 635.723 1.92954 -0.219619 0
M  V30 6163 C 632.853 3.37889 -0.803027 0
M  V30 6164 C 631.807 3.85516 -1.85908 0
M  V30 6165 C 631.133 5.1682 -1.37116 0
M  V30 6166 C 632.433 4.07655 -3.26519 0
M  V30 6167 H 634.127 2.1529 -2.08064 0
M  V30 6168 H 631.673 1.03446 -1.00174 0
M  V30 6169 H 633.626 4.15654 -0.693537 0
M  V30 6170 H 632.35 3.26164 0.168674 0
M  V30 6171 H 631.009 3.09953 -1.95767 0
M  V30 6172 H 630.657 5.01497 -0.38859 0
M  V30 6173 H 630.357 5.49657 -2.07728 0
M  V30 6174 H 631.881 5.97143 -1.27484 0
M  V30 6175 H 633.295 4.75953 -3.19596 0
M  V30 6176 H 631.692 4.51818 -3.94943 0
M  V30 6177 H 632.762 3.12553 -3.70727 0
M  V30 6178 N 634.105 1.10431 1.1244 0
M  V30 6179 C 635.335 0.867612 1.87499 0
M  V30 6180 C 635.743 -0.585475 1.79913 0
M  V30 6181 O 635.086 -1.41539 1.171 0
M  V30 6182 C 635.148 1.2374 3.37533 0
M  V30 6183 C 634.812 2.69751 3.68895 0
M  V30 6184 C 635.809 3.67988 3.67261 0
M  V30 6185 C 633.494 3.06135 3.98229 0
M  V30 6186 C 635.488 5.00632 3.9452 0
M  V30 6187 C 633.175 4.38967 4.25149 0
M  V30 6188 C 634.173 5.36025 4.23281 0
M  V30 6189 O 633.861 6.66465 4.49533 0
M  V30 6190 H 633.593 0.311196 0.600111 0
M  V30 6191 H 636.147 1.47257 1.43194 0
M  V30 6192 H 634.377 0.575537 3.82393 0
M  V30 6193 H 636.066 0.978187 3.93937 0
M  V30 6194 H 636.832 3.41224 3.44661 0
M  V30 6195 H 632.711 2.31214 3.98825 0
M  V30 6196 H 636.255 5.7638 3.92978 0
M  V30 6197 H 632.152 4.6547 4.47223 0
M  V30 6198 H 632.92 6.72095 4.67152 0
M  V30 6199 N 635.583 -1.29855 0.893053 0
M  V30 6200 C 636.813 -1.99686 0.530019 0
M  V30 6201 C 637.221 -1.67066 -0.888012 0
M  V30 6202 O 636.564 -0.908366 -1.5967 0
M  V30 6203 C 636.626 -3.53855 0.63457 0
M  V30 6204 C 636.29 -4.10013 2.01837 0
M  V30 6205 C 637.287 -4.25406 2.98874 0
M  V30 6206 C 634.972 -4.45202 2.32595 0
M  V30 6207 C 636.966 -4.7521 4.24799 0
M  V30 6208 C 634.653 -4.94704 3.58763 0
M  V30 6209 C 635.651 -5.09662 4.5468 0
M  V30 6210 O 635.339 -5.58093 5.78608 0
M  V30 6211 H 635.071 -0.644913 0.20264 0
M  V30 6212 H 637.625 -1.66518 1.20253 0
M  V30 6213 H 635.855 -3.86583 -0.0949477 0
M  V30 6214 H 637.544 -4.04922 0.281648 0
M  V30 6215 H 638.31 -3.98515 2.76425 0
M  V30 6216 H 634.189 -4.32822 1.58701 0
M  V30 6217 H 637.733 -4.86801 4.99671 0
M  V30 6218 H 633.63 -5.21032 3.81046 0
M  V30 6219 H 634.398 -5.7642 5.81104 0
M  V30 6220 N 637.061 -0.65484 -1.43351 0
M  V30 6221 C 638.009 0.0476784 -2.32551 0
M  V30 6222 C 639.003 0.811403 -1.48703 0
M  V30 6223 O 640.209 0.721621 -1.64902 0
M  V30 6224 H 636.584 0.0342038 -0.751222 0
M  V30 6225 H 638.555 -0.722342 -2.89525 0
M  V30 6226 C 637.304 0.999251 -3.33032 0
M  V30 6227 H 636.627 0.421005 -3.97577 0
M  V30 6228 H 638.067 1.45986 -3.98076 0
M  V30 6229 C 636.526 2.09606 -2.63756 0
M  V30 6230 O 637.056 3.18004 -2.4543 0
M  V30 6231 N 635.262 1.86207 -2.23103 0
M  V30 6232 H 634.809 0.980555 -2.38208 0
M  V30 6233 H 634.767 2.59787 -1.77081 0
M  V30 6234 N 638.539 1.52521 -0.396863 0
M  V30 6235 C 639.816 1.94112 0.240842 0
M  V30 6236 C 640.196 1.33288 1.637 0
M  V30 6237 O 639.544 0.503901 2.22875 0
M  V30 6238 C 639.754 3.48033 0.259567 0
M  V30 6239 C 641.102 4.21822 0.484866 0
M  V30 6240 O 642.126 3.54579 0.339453 0
M  V30 6241 O 640.985 5.41042 0.770412 0
M  V30 6242 H 638.079 0.812973 0.151671 0
M  V30 6243 H 640.625 1.63572 -0.451918 0
M  V30 6244 H 639.397 3.84655 -0.718078 0
M  V30 6245 H 639.02 3.84899 0.996937 0
M  V30 6246 N 640.017 0.126909 1.57088 0
M  V30 6247 C 641.247 -0.535892 1.99529 0
M  V30 6248 C 641.655 -1.60259 1.00566 0
M  V30 6249 O 640.998 -1.83698 -0.00843269 0
M  V30 6250 C 641.06 -1.21374 3.38391 0
M  V30 6251 C 640.724 -0.294044 4.56053 0
M  V30 6252 C 641.721 0.470454 5.17767 0
M  V30 6253 C 639.406 -0.202808 5.0189 0
M  V30 6254 C 641.4 1.31384 6.23712 0
M  V30 6255 C 639.087 0.644203 6.07695 0
M  V30 6256 C 640.085 1.40115 6.68473 0
M  V30 6257 O 639.773 2.23408 7.72233 0
M  V30 6258 H 639.505 -0.145799 0.66009 0
M  V30 6259 H 642.059 0.212441 2.04298 0
M  V30 6260 H 640.289 -2.00931 3.30399 0
M  V30 6261 H 641.978 -1.77424 3.65069 0
M  V30 6262 H 642.744 0.409884 4.83265 0
M  V30 6263 H 638.623 -0.781688 4.54324 0
M  V30 6264 H 642.167 1.90514 6.71081 0
M  V30 6265 H 638.064 0.706137 6.41626 0
M  V30 6266 H 638.832 2.16436 7.89365 0
M  V30 6267 N 641.495 -1.56914 -0.146875 0
M  V30 6268 C 642.443 -1.99224 -1.20053 0
M  V30 6269 C 643.437 -0.884661 -1.44465 0
M  V30 6270 O 644.643 -1.06984 -1.44756 0
M  V30 6271 H 641.018 -0.634191 -0.404112 0
M  V30 6272 H 642.989 -2.86998 -0.816987 0
M  V30 6273 C 641.738 -2.38899 -2.52632 0
M  V30 6274 H 641.061 -3.23677 -2.34677 0
M  V30 6275 H 642.501 -2.72326 -3.24984 0
M  V30 6276 C 640.96 -1.2417 -3.13183 0
M  V30 6277 O 641.49 -0.542503 -3.9802 0
M  V30 6278 N 639.696 -1.00592 -2.72635 0
M  V30 6279 H 639.243 -1.57627 -2.03744 0
M  V30 6280 H 639.201 -0.240174 -3.13481 0
M  V30 6281 N 642.974 0.416227 -1.52004 0
M  V30 6282 C 644.223 1.16088 -1.64944 0
M  V30 6283 C 644.536 1.91835 -0.381928 0
M  V30 6284 O 645.742 2.6867 -0.391013 0
M  V30 6285 C 644.198 2.1124 -2.91386 0
M  V30 6286 C 643.806 1.41042 -4.25219 0
M  V30 6287 C 645.55 2.86008 -3.13688 0
M  V30 6288 C 643.457 2.34801 -5.42791 0
M  V30 6289 H 642.387 0.437041 -0.61442 0
M  V30 6290 H 645.038 0.425971 -1.78487 0
M  V30 6291 H 643.42 2.88254 -2.71525 0
M  V30 6292 H 644.594 0.694416 -4.55538 0
M  V30 6293 H 642.909 0.78344 -4.08964 0
M  V30 6294 H 645.506 3.56286 -3.98703 0
M  V30 6295 H 645.849 3.48556 -2.27628 0
M  V30 6296 H 646.382 2.16095 -3.33988 0
M  V30 6297 H 643.121 1.7691 -6.31176 0
M  V30 6298 H 642.641 3.04395 -5.16821 0
M  V30 6299 H 644.32 2.9548 -5.75587 0
M  V30 6300 N 644.452 1.42507 0.673017 0
M  V30 6301 C 645.362 1.4853 1.81593 0
M  V30 6302 C 646.378 0.373907 1.69935 0
M  V30 6303 O 647.554 0.625078 1.91454 0
M  V30 6304 C 644.619 1.387 3.17747 0
M  V30 6305 C 643.68 2.60346 3.41348 0
M  V30 6306 C 642.913 2.50975 4.71007 0
M  V30 6307 O 643.136 1.54659 5.49033 0
M  V30 6308 O 642.07 3.41138 4.95892 0
M  V30 6309 H 645.896 2.45001 1.79467 0
M  V30 6310 H 643.481 1.2429 0.82899 0
M  V30 6311 H 645.363 1.35586 3.98992 0
M  V30 6312 H 644.038 0.453555 3.20507 0
M  V30 6313 H 642.945 2.69034 2.59945 0
M  V30 6314 H 644.278 3.52595 3.43421 0
M  V30 6315 N 645.93 -0.909495 1.28709 0
M  V30 6316 C 646.862 -2.01729 1.08804 0
M  V30 6317 C 647.875 -1.62755 0.0384739 0
M  V30 6318 O 649.064 -1.76259 0.281977 0
M  V30 6319 C 646.164 -3.32952 0.63217 0
M  V30 6320 C 645.337 -4.00512 1.75809 0
M  V30 6321 C 644.396 -5.10019 1.29488 0
M  V30 6322 O 643.422 -5.32986 1.99787 0
M  V30 6323 N 644.624 -5.80278 0.1604 0
M  V30 6324 H 647.389 -2.19362 2.04207 0
M  V30 6325 H 644.95 -1.08106 1.20518 0
M  V30 6326 H 646.942 -4.03543 0.305802 0
M  V30 6327 H 645.512 -3.11759 -0.229134 0
M  V30 6328 H 644.732 -3.23413 2.25383 0
M  V30 6329 H 646.02 -4.42395 2.51325 0
M  V30 6330 H 645.418 -5.64094 -0.425937 0
M  V30 6331 H 643.975 -6.51713 -0.106663 0
M  V30 6332 N 647.408 -1.11026 -1.11852 0
M  V30 6333 C 648.356 -0.759643 -2.19846 0
M  V30 6334 C 649.35 0.246964 -1.6759 0
M  V30 6335 O 650.556 0.106693 -1.79684 0
M  V30 6336 H 646.931 -0.22775 -0.716683 0
M  V30 6337 H 648.902 -1.6792 -2.46669 0
M  V30 6338 C 647.651 -0.214364 -3.47039 0
M  V30 6339 H 646.974 -0.980175 -3.87599 0
M  V30 6340 H 648.414 -0.00717047 -4.23999 0
M  V30 6341 C 646.873 1.05436 -3.19976 0
M  V30 6342 O 647.403 2.13483 -3.40276 0
M  V30 6343 N 645.609 0.975436 -2.7374 0
M  V30 6344 H 645.156 0.0960853 -2.57421 0
M  V30 6345 H 645.114 1.82501 -2.5601 0
M  V30 6346 N 648.886 1.2938 -0.899927 0
M  V30 6347 C 649.834 2.29675 -0.367698 0
M  V30 6348 C 650.828 1.60787 0.533282 0
M  V30 6349 O 652.034 1.75126 0.416058 0
M  V30 6350 H 648.409 0.745284 -0.100279 0
M  V30 6351 H 650.38 2.72008 -1.22696 0
M  V30 6352 C 649.129 3.45512 0.389483 0
M  V30 6353 H 648.452 3.98713 -0.294575 0
M  V30 6354 H 649.892 4.17725 0.726744 0
M  V30 6355 C 648.351 2.969 1.59223 0
M  V30 6356 O 648.881 2.98195 2.69152 0
M  V30 6357 N 647.087 2.52728 1.43447 0
M  V30 6358 H 646.634 2.51873 0.540148 0
M  V30 6359 H 646.592 2.20561 2.24054 0
M  V30 6360 N 650.364 0.662433 1.43002 0
M  V30 6361 C 651.327 -0.0142016 2.29196 0
M  V30 6362 C 652.327 -0.741394 1.42688 0
M  V30 6363 O 653.517 -0.581257 1.64216 0
M  V30 6364 C 650.649 -1.03084 3.24941 0
M  V30 6365 H 651.842 0.7443 2.90517 0
M  V30 6366 H 649.395 0.424133 1.50435 0
M  V30 6367 H 650.13 -1.81826 2.68533 0
M  V30 6368 H 649.915 -0.512946 3.8873 0
M  V30 6369 H 651.405 -1.50308 3.89612 0
M  V30 6370 N 651.842 -1.52309 0.404946 0
M  V30 6371 C 652.789 -2.26898 -0.422597 0
M  V30 6372 C 653.759 -1.2914 -1.04461 0
M  V30 6373 O 654.944 -1.57996 -1.06967 0
M  V30 6374 C 652.084 -3.09053 -1.53559 0
M  V30 6375 C 651.197 -4.21762 -0.934908 0
M  V30 6376 C 650.332 -4.91283 -2.02025 0
M  V30 6377 C 649.371 -5.95962 -1.39628 0
M  V30 6378 N 648.508 -6.59017 -2.42159 0
M  V30 6379 H 653.348 -2.97188 0.219903 0
M  V30 6380 H 650.885 -1.46607 0.120282 0
M  V30 6381 H 652.843 -3.54987 -2.19181 0
M  V30 6382 H 651.473 -2.40942 -2.14818 0
M  V30 6383 H 650.525 -3.80029 -0.167854 0
M  V30 6384 H 651.837 -4.96864 -0.439073 0
M  V30 6385 H 650.991 -5.40601 -2.75383 0
M  V30 6386 H 649.73 -4.15741 -2.54973 0
M  V30 6387 H 648.735 -5.45968 -0.648023 0
M  V30 6388 H 649.96 -6.73445 -0.874553 0
M  V30 6389 H 647.906 -5.86306 -2.94247 0
M  V30 6390 H 647.823 -7.2978 -1.97376 0
M  V30 6391 H 649.091 -7.12974 -3.15099 0
M  V30 6392 N 653.32 -0.135238 -1.57019 0
M  V30 6393 C 654.548 0.526066 -2.001 0
M  V30 6394 C 654.963 1.59184 -1.01519 0
M  V30 6395 O 654.32 1.82497 -0.0104258 0
M  V30 6396 C 654.371 1.13744 -3.43139 0
M  V30 6397 O 654.092 0.114259 -4.37951 0
M  V30 6398 C 655.593 1.8805 -4.01438 0
M  V30 6399 H 652.813 0.137962 -0.656664 0
M  V30 6400 H 655.357 -0.226359 -2.03243 0
M  V30 6401 H 653.512 1.84056 -3.40885 0
M  V30 6402 H 653.926 0.56058 -5.21496 0
M  V30 6403 H 655.4 2.26133 -5.03555 0
M  V30 6404 H 655.877 2.76194 -3.41487 0
M  V30 6405 H 656.483 1.22464 -4.07287 0
M  V30 6406 N 654.798 1.5699 0.138552 0
M  V30 6407 C 656.026 1.87976 0.864437 0
M  V30 6408 C 656.441 0.724372 1.74351 0
M  V30 6409 O 655.798 -0.305575 1.79924 0
M  V30 6410 C 655.849 3.18276 1.71414 0
M  V30 6411 O 655.57 4.29365 0.870487 0
M  V30 6412 C 657.071 3.62834 2.54688 0
M  V30 6413 H 654.291 0.622878 0.249528 0
M  V30 6414 H 656.835 2.04094 0.128805 0
M  V30 6415 H 654.99 3.03886 2.40274 0
M  V30 6416 H 655.404 5.03924 1.45466 0
M  V30 6417 H 656.878 4.5682 3.0987 0
M  V30 6418 H 657.355 2.88533 3.31127 0
M  V30 6419 H 657.961 3.79946 1.91105 0
M  V30 6420 N 656.276 -0.40816 1.52223 0
M  V30 6421 C 657.223 -1.49737 1.75635 0
M  V30 6422 C 658.193 -1.5493 0.598824 0
M  V30 6423 O 659.378 -1.71487 0.83648 0
M  V30 6424 C 656.518 -2.87174 1.91376 0
M  V30 6425 C 655.631 -2.91283 3.19027 0
M  V30 6426 C 654.766 -4.20026 3.25195 0
M  V30 6427 C 653.805 -4.18113 4.47044 0
M  V30 6428 N 652.942 -5.38429 4.50598 0
M  V30 6429 H 657.782 -1.29075 2.68596 0
M  V30 6430 H 655.319 -0.626518 1.33091 0
M  V30 6431 H 657.277 -3.66959 1.98486 0
M  V30 6432 H 655.907 -3.06329 1.01795 0
M  V30 6433 H 654.959 -2.03984 3.21084 0
M  V30 6434 H 656.271 -2.85734 4.08849 0
M  V30 6435 H 655.425 -5.08204 3.31382 0
M  V30 6436 H 654.164 -4.28271 2.33313 0
M  V30 6437 H 653.169 -3.28325 4.41002 0
M  V30 6438 H 654.394 -4.11507 5.40221 0
M  V30 6439 H 652.34 -5.4734 3.616 0
M  V30 6440 H 652.257 -5.34879 5.34266 0
M  V30 6441 H 653.525 -6.28557 4.61016 0
M  V30 6442 N 657.755 -1.42862 -0.66545 0
M  V30 6443 C 658.688 -1.41509 -1.79026 0
M  V30 6444 C 659.666 -0.278106 -1.60204 0
M  V30 6445 O 660.85 -0.469792 -1.82552 0
M  V30 6446 C 657.977 -1.21494 -3.1616 0
M  V30 6447 C 657.023 -2.38308 -3.53711 0
M  V30 6448 S 657.856 -4.00852 -3.55075 0
M  V30 6449 C 659.012 -3.83197 -4.94885 0
M  V30 6450 H 659.245 -2.36691 -1.79902 0
M  V30 6451 H 656.778 -1.29746 -0.836977 0
M  V30 6452 H 658.736 -1.10633 -3.95311 0
M  V30 6453 H 657.397 -0.27881 -3.1286 0
M  V30 6454 H 656.59 -2.20076 -4.53412 0
M  V30 6455 H 656.192 -2.45732 -2.81943 0
M  V30 6456 H 658.484 -3.44765 -5.83218 0
M  V30 6457 H 659.427 -4.82607 -5.18166 0
M  V30 6458 H 659.835 -3.15884 -4.67843 0
M  V30 6459 N 659.233 0.902656 -1.29189 0
M  V30 6460 C 660.479 1.65532 -1.17163 0
M  V30 6461 C 660.812 1.92216 0.276879 0
M  V30 6462 O 660.087 1.53048 1.20027 0
M  V30 6463 C 660.37 3.00629 -1.98228 0
M  V30 6464 C 660.223 2.81029 -3.51202 0
M  V30 6465 C 661.542 4.01321 -1.80635 0
M  V30 6466 H 658.661 0.60071 -0.426985 0
M  V30 6467 H 661.303 1.04578 -1.5863 0
M  V30 6468 H 659.453 3.52656 -1.62991 0
M  V30 6469 H 661.125 2.35927 -3.96404 0
M  V30 6470 H 659.368 2.1587 -3.76275 0
M  V30 6471 H 660.039 3.77014 -4.03192 0
M  V30 6472 H 662.515 3.58394 -2.11406 0
M  V30 6473 H 661.391 4.93792 -2.3971 0
M  V30 6474 H 661.652 4.35505 -0.760754 0
M  V30 6475 N 660.711 1.11618 1.11262 0
M  V30 6476 C 661.988 0.777876 1.79467 0
M  V30 6477 C 662.368 -0.733774 1.97937 0
M  V30 6478 O 661.716 -1.66443 1.56554 0
M  V30 6479 C 661.926 1.5431 3.13032 0
M  V30 6480 C 663.274 1.72357 3.88044 0
M  V30 6481 O 664.298 1.5075 3.22727 0
M  V30 6482 O 663.157 2.08276 5.05256 0
M  V30 6483 H 660.251 0.282018 0.777428 0
M  V30 6484 H 662.797 1.21971 1.17988 0
M  V30 6485 H 661.569 2.57132 2.94956 0
M  V30 6486 H 661.192 1.09495 3.82226 0
M  V30 6487 N 662.189 -1.289 0.906776 0
M  V30 6488 C 663.122 -2.25737 0.334362 0
M  V30 6489 C 664.1 -1.52745 -0.557474 0
M  V30 6490 O 665.284 -1.81673 -0.502697 0
M  V30 6491 C 662.411 -3.34642 -0.522716 0
M  V30 6492 C 661.457 -4.25424 0.302777 0
M  V30 6493 S 662.29 -5.07629 1.70508 0
M  V30 6494 C 663.446 -6.20031 0.855118 0
M  V30 6495 H 663.679 -2.73941 1.15514 0
M  V30 6496 H 661.212 -1.37233 0.707573 0
M  V30 6497 H 663.17 -3.97845 -1.01141 0
M  V30 6498 H 661.831 -2.85119 -1.31781 0
M  V30 6499 H 661.024 -5.02767 -0.352257 0
M  V30 6500 H 660.626 -3.66908 0.724873 0
M  V30 6501 H 662.918 -6.77451 0.0816418 0
M  V30 6502 H 663.861 -6.89767 1.60087 0
M  V30 6503 H 664.269 -5.63035 0.406375 0
M  V30 6504 N 663.667 -0.670007 -1.42649 0
M  V30 6505 C 664.913 -0.190568 -2.01903 0
M  V30 6506 C 665.246 1.19817 -1.52832 0
M  V30 6507 O 664.521 1.80342 -0.728485 0
M  V30 6508 C 664.804 -0.21991 -3.59428 0
M  V30 6509 C 664.657 -1.64376 -4.18689 0
M  V30 6510 C 665.976 0.434519 -4.3795 0
M  V30 6511 H 663.095 -0.0707219 -0.733599 0
M  V30 6512 H 665.737 -0.853883 -1.69732 0
M  V30 6513 H 663.887 0.344894 -3.86966 0
M  V30 6514 H 665.559 -2.26044 -4.02122 0
M  V30 6515 H 663.802 -2.18591 -3.747 0
M  V30 6516 H 664.473 -1.61601 -5.27815 0
M  V30 6517 H 666.949 -0.0462156 -4.16074 0
M  V30 6518 H 665.825 0.38333 -5.4756 0
M  V30 6519 H 666.086 1.51135 -4.15464 0
M  V30 6520 N 665.145 1.52092 -0.413018 0
M  V30 6521 C 666.092 2.27119 0.410558 0
M  V30 6522 C 667.062 1.29692 1.03774 0
M  V30 6523 O 668.247 1.58561 1.06128 0
M  V30 6524 C 665.387 3.09863 1.51918 0
M  V30 6525 C 664.5 4.22252 0.912528 0
M  V30 6526 C 663.635 4.92348 1.99417 0
M  V30 6527 C 662.674 5.96694 1.36466 0
M  V30 6528 N 661.811 6.60292 2.38661 0
M  V30 6529 H 666.651 2.97067 -0.235661 0
M  V30 6530 H 664.188 1.46542 -0.128055 0
M  V30 6531 H 666.146 3.56144 2.17295 0
M  V30 6532 H 664.776 2.42078 2.13537 0
M  V30 6533 H 663.828 3.80113 0.147697 0
M  V30 6534 H 665.14 4.9709 0.412717 0
M  V30 6535 H 664.294 5.42054 2.72512 0
M  V30 6536 H 663.033 4.17087 2.52764 0
M  V30 6537 H 662.038 5.46304 0.61906 0
M  V30 6538 H 663.263 6.73899 0.838827 0
M  V30 6539 H 661.209 5.87858 2.91134 0
M  V30 6540 H 661.126 7.30816 1.93503 0
M  V30 6541 H 662.394 7.14635 3.11314 0
M  V30 6542 N 666.623 0.143563 1.56945 0
M  V30 6543 C 667.9 -0.553285 1.87612 0
M  V30 6544 C 668.28 -1.83195 1.04894 0
M  V30 6545 O 667.628 -2.28102 0.134773 0
M  V30 6546 C 667.838 -0.822055 3.3918 0
M  V30 6547 C 669.186 -1.16435 4.08324 0
M  V30 6548 O 670.21 -0.911522 3.4434 0
M  V30 6549 O 669.069 -1.63996 5.21313 0
M  V30 6550 H 666.163 -0.281851 0.777489 0
M  V30 6551 H 668.709 0.179916 1.68744 0
M  V30 6552 H 667.481 0.0830265 3.91212 0
M  V30 6553 H 667.104 -1.60956 3.63564 0
M  V30 6554 N 668.101 -1.57061 -0.130224 0
M  V30 6555 C 669.348 -1.84257 -0.839972 0
M  V30 6556 C 669.676 -0.726986 -1.80403 0
M  V30 6557 O 668.931 0.282632 -1.93648 0
M  V30 6558 C 669.23 -3.17878 -1.63365 0
M  V30 6559 C 668.896 -4.43475 -0.814891 0
M  V30 6560 C 667.558 -4.77581 -0.589066 0
M  V30 6561 C 669.91 -5.20631 -0.243437 0
M  V30 6562 C 667.238 -5.86292 0.218648 0
M  V30 6563 C 669.59 -6.30192 0.551408 0
M  V30 6564 C 668.254 -6.62837 0.787653 0
M  V30 6565 H 667.524 -0.674245 -0.307367 0
M  V30 6566 H 670.171 -1.91224 -0.102832 0
M  V30 6567 H 668.476 -3.06437 -2.44138 0
M  V30 6568 H 670.173 -3.3614 -2.18658 0
M  V30 6569 H 666.763 -4.16747 -1.00098 0
M  V30 6570 H 670.947 -4.94644 -0.405145 0
M  V30 6571 H 666.203 -6.10017 0.411016 0
M  V30 6572 H 670.377 -6.89165 1.00126 0
M  V30 6573 H 668.004 -7.46908 1.41537 0
M  V30 6574 N 669.579 0.400081 -1.52437 0
M  V30 6575 C 670.511 1.50729 -1.72666 0
M  V30 6576 C 671.524 1.51058 -0.607075 0
M  V30 6577 O 672.713 1.5516 -0.88248 0
M  V30 6578 C 669.813 2.89604 -1.76019 0
M  V30 6579 C 668.986 3.13365 -3.05157 0
M  V30 6580 C 668.045 4.32163 -3.00203 0
M  V30 6581 O 667.071 4.29004 -3.74092 0
M  V30 6582 N 668.273 5.3776 -2.18619 0
M  V30 6583 H 671.038 1.33767 -2.68191 0
M  V30 6584 H 668.599 0.58948 -1.50787 0
M  V30 6585 H 670.591 3.67159 -1.70225 0
M  V30 6586 H 669.161 2.99979 -0.879284 0
M  V30 6587 H 668.381 2.23774 -3.24529 0
M  V30 6588 H 669.669 3.26089 -3.90568 0
M  V30 6589 H 669.067 5.43177 -1.58035 0
M  V30 6590 H 667.624 6.14023 -2.18674 0
M  V30 6591 N 671.057 1.43213 0.657864 0
M  V30 6592 C 672.02 1.47687 1.75275 0
M  V30 6593 C 673.02 0.362179 1.56668 0
M  V30 6594 O 674.21 0.623734 1.62651 0
M  V30 6595 C 671.342 1.32497 3.14098 0
M  V30 6596 H 672.535 2.4519 1.7269 0
M  V30 6597 H 670.088 1.2991 0.869087 0
M  V30 6598 H 670.823 0.359831 3.22298 0
M  V30 6599 H 670.608 2.13299 3.29008 0
M  V30 6600 H 672.098 1.38549 3.93946 0
M  V30 6601 N 672.536 -0.895792 1.29666 0
M  V30 6602 C 673.952 -1.17726 1.07763 0
M  V30 6603 C 674.152 -2.00794 -0.168576 0
M  V30 6604 O 673.208 -2.37213 -0.865244 0
M  V30 6605 C 674.521 -1.89441 2.33522 0
M  V30 6606 C 676.069 -2.02251 2.3888 0
M  V30 6607 C 676.544 -2.77378 3.64452 0
M  V30 6608 N 678.035 -2.8493 3.65198 0
M  V30 6609 C 678.77 -3.43606 4.59045 0
M  V30 6610 N 678.266 -4.03417 5.63228 0
M  V30 6611 N 680.059 -3.41317 4.46608 0
M  V30 6612 H 672.21 -0.341652 2.09634 0
M  V30 6613 H 674.473 -0.213865 0.923561 0
M  V30 6614 H 674.179 -1.35842 3.24407 0
M  V30 6615 H 674.053 -2.89893 2.41334 0
M  V30 6616 H 676.44 -2.55025 1.4848 0
M  V30 6617 H 676.521 -1.0092 2.3505 0
M  V30 6618 H 676.165 -2.25279 4.55205 0
M  V30 6619 H 676.095 -3.79062 3.65541 0
M  V30 6620 H 678.586 -2.42453 2.89871 0
M  V30 6621 H 678.899 -4.46224 6.30955 0
M  V30 6622 H 677.244 -4.01868 5.67033 0
M  V30 6623 H 680.435 -2.93812 3.64407 0
M  V30 6624 H 680.608 -3.86751 5.1993 0
M  V30 6625 N 674.014 -1.12206 -1.10668 0
M  V30 6626 C 675.239 -0.898938 -1.86906 0
M  V30 6627 C 675.664 0.546346 -1.79991 0
M  V30 6628 O 675.022 1.38655 -1.1681 0
M  V30 6629 C 675.07 -1.37529 -3.33344 0
M  V30 6630 O 674.174 -0.55218 -4.08687 0
M  V30 6631 H 673.515 -0.323163 -0.580053 0
M  V30 6632 H 676.045 -1.49355 -1.39837 0
M  V30 6633 H 676.055 -1.3733 -3.84193 0
M  V30 6634 H 674.73 -2.42767 -3.37693 0
M  V30 6635 H 673.307 -0.620947 -3.67694 0
M  V30 6636 N 675.492 1.28418 -0.913599 0
M  V30 6637 C 676.741 1.94265 -0.542572 0
M  V30 6638 C 677.054 1.72709 0.918207 0
M  V30 6639 O 678.26 2.32778 1.39738 0
M  V30 6640 C 676.716 3.47956 -0.919507 0
M  V30 6641 C 676.324 3.78291 -2.4 0
M  V30 6642 C 678.068 4.19962 -0.619057 0
M  V30 6643 C 675.975 5.2529 -2.71707 0
M  V30 6644 H 674.905 0.727213 -0.199192 0
M  V30 6645 H 677.556 1.45931 -1.11249 0
M  V30 6646 H 675.938 3.9502 -0.278372 0
M  V30 6647 H 677.112 3.42035 -3.08786 0
M  V30 6648 H 675.427 3.19456 -2.67089 0
M  V30 6649 H 678.024 5.28178 -0.832623 0
M  V30 6650 H 678.367 4.13935 0.443126 0
M  V30 6651 H 678.9 3.78674 -1.21865 0
M  V30 6652 H 675.639 5.36394 -3.76778 0
M  V30 6653 H 675.159 5.62743 -2.07559 0
M  V30 6654 H 676.838 5.93027 -2.58703 0
M  V30 6655 N 676.97 0.677563 1.42291 0
M  V30 6656 C 678.381 0.277912 1.8462 0
M  V30 6657 C 678.732 -1.18048 1.56714 0
M  V30 6658 O 677.857 -1.90404 1.02836 0
M  V30 6659 C 678.452 0.497619 3.35126 0
M  V30 6660 C 677.011 0.152063 3.76093 0
M  V30 6661 C 676.158 0.78872 2.65847 0
M  V30 6662 H 679.109 0.879527 1.32098 0
M  V30 6663 H 679.13 -0.24939 3.79682 0
M  V30 6664 H 678.642 1.55913 3.55405 0
M  V30 6665 H 676.743 -0.905896 3.6142 0
M  V30 6666 H 676.856 0.594514 4.75397 0
M  V30 6667 H 675.22 0.219813 2.5375 0
M  V30 6668 H 676.003 1.85374 2.88949 0
M  V30 6669 N 678.448 -1.51871 0.421078 0
M  V30 6670 C 679.697 -2.01125 -0.152206 0
M  V30 6671 C 680.01 -1.3106 -1.45199 0
M  V30 6672 O 681.216 -1.71195 -2.10724 0
M  V30 6673 C 679.672 -3.58458 -0.3218 0
M  V30 6674 C 679.28 -4.37448 0.96659 0
M  V30 6675 C 681.024 -4.15908 -0.84973 0
M  V30 6676 C 678.931 -5.86451 0.763529 0
M  V30 6677 H 677.861 -0.751556 -0.0606565 0
M  V30 6678 H 680.512 -1.75115 0.548354 0
M  V30 6679 H 678.894 -3.80847 -1.08498 0
M  V30 6680 H 680.068 -4.26814 1.73684 0
M  V30 6681 H 678.383 -3.91373 1.42183 0
M  V30 6682 H 680.98 -5.24922 -1.01788 0
M  V30 6683 H 681.323 -3.74031 -1.82774 0
M  V30 6684 H 681.856 -3.97535 -0.145297 0
M  V30 6685 H 678.595 -6.3271 1.71344 0
M  V30 6686 H 678.115 -5.99791 0.0327889 0
M  V30 6687 H 679.794 -6.45697 0.410354 0
M  V30 6688 N 679.926 -0.151884 -1.56866 0
M  V30 6689 C 681.203 0.543328 -1.87902 0
M  V30 6690 C 681.583 1.82636 -1.05864 0
M  V30 6691 O 680.931 2.28028 -0.146868 0
M  V30 6692 C 681.141 0.804056 -3.39611 0
M  V30 6693 C 682.489 1.14267 -4.08935 0
M  V30 6694 O 683.513 0.893248 -3.44818 0
M  V30 6695 O 682.372 1.61229 -5.22176 0
M  V30 6696 H 679.466 0.277724 -0.778973 0
M  V30 6697 H 682.012 -0.188862 -1.68646 0
M  V30 6698 H 680.784 -0.103772 -3.91162 0
M  V30 6699 H 680.407 1.59025 -3.64413 0
M  V30 6700 N 681.404 1.57128 0.121893 0
M  V30 6701 C 682.652 1.84335 0.828548 0
M  V30 6702 C 682.973 0.736632 1.80551 0
M  V30 6703 O 682.243 -0.23962 1.94429 0
M  V30 6704 H 680.823 0.680108 0.30897 0
M  V30 6705 H 683.485 1.9459 0.109906 0
M  V30 6706 H 682.581 2.80152 1.37554 0
M  V30 6707 N 682.882 -0.391992 1.52647 0
M  V30 6708 C 684.128 -1.139 1.67793 0
M  V30 6709 C 684.461 -1.89711 0.41514 0
M  V30 6710 O 683.736 -1.85431 -0.586979 0
M  V30 6711 C 684.019 -2.11966 2.91105 0
M  V30 6712 C 683.872 -1.39939 4.27478 0
M  V30 6713 C 685.191 -3.1243 3.09961 0
M  V30 6714 H 682.31 -0.412707 0.610608 0
M  V30 6715 H 684.952 -0.422725 1.85238 0
M  V30 6716 H 683.102 -2.73048 2.76364 0
M  V30 6717 H 684.774 -0.818439 4.53982 0
M  V30 6718 H 683.017 -0.701246 4.28095 0
M  V30 6719 H 683.688 -2.1158 5.09841 0
M  V30 6720 H 686.164 -2.61435 3.23714 0
M  V30 6721 H 685.04 -3.78294 3.97725 0
M  V30 6722 H 685.301 -3.81127 2.24042 0
M  V30 6723 N 684.36 -1.4356 -0.65026 0
M  V30 6724 C 685.608 -1.45046 -1.40734 0
M  V30 6725 C 685.929 -0.0769822 -1.94848 0
M  V30 6726 O 685.199 0.888098 -1.74613 0
M  V30 6727 H 683.779 -0.534034 -0.522318 0
M  V30 6728 H 686.441 -1.79186 -0.766703 0
M  V30 6729 H 685.537 -2.16476 -2.24822 0
M  V30 6730 N 685.838 0.888903 -1.30139 0
M  V30 6731 C 687.085 1.64037 -1.18736 0
M  V30 6732 C 687.413 1.92771 0.258801 0
M  V30 6733 O 686.668 1.54427 1.20212 0
M  V30 6734 C 686.967 2.99041 -1.95728 0
M  V30 6735 C 686.633 2.89874 -3.45375 0
M  V30 6736 C 685.295 2.87082 -3.86183 0
M  V30 6737 C 687.647 2.78289 -4.40687 0
M  V30 6738 C 684.975 2.70536 -5.20603 0
M  V30 6739 C 687.327 2.63282 -5.75209 0
M  V30 6740 C 685.991 2.58861 -6.15262 0
M  V30 6741 H 685.261 0.600253 -0.434485 0
M  V30 6742 H 687.908 1.0338 -1.61198 0
M  V30 6743 H 686.213 3.63626 -1.45888 0
M  V30 6744 H 687.91 3.56139 -1.843 0
M  V30 6745 H 684.5 2.92856 -3.12943 0
M  V30 6746 H 688.684 2.79516 -4.10103 0
M  V30 6747 H 683.94 2.65526 -5.50732 0
M  V30 6748 H 688.114 2.5329 -6.48704 0
M  V30 6749 H 685.741 2.45799 -7.19366 0
M  V30 6750 N 687.317 1.12792 1.10072 0
M  V30 6751 C 688.249 0.757003 2.16338 0
M  V30 6752 C 689.262 -0.218144 1.61332 0
M  V30 6753 O 690.451 0.0010727 1.785 0
M  V30 6754 C 687.551 0.100303 3.38752 0
M  V30 6755 C 686.724 1.10586 4.2319 0
M  V30 6756 C 685.783 0.47609 5.24042 0
M  V30 6757 O 684.809 1.13418 5.57786 0
M  V30 6758 N 686.011 -0.754823 5.75572 0
M  V30 6759 H 688.776 1.6714 2.48766 0
M  V30 6760 H 686.337 1.02003 1.25726 0
M  V30 6761 H 688.329 -0.333092 4.03327 0
M  V30 6762 H 686.899 -0.716915 3.04268 0
M  V30 6763 H 686.119 1.71677 3.54853 0
M  V30 6764 H 687.407 1.78571 4.76435 0
M  V30 6765 H 686.805 -1.30838 5.50362 0
M  V30 6766 H 685.362 -1.13098 6.41913 0
M  V30 6767 N 688.795 -1.27931 0.920396 0
M  V30 6768 C 689.728 -2.2537 0.358285 0
M  V30 6769 C 690.706 -1.53328 -0.541242 0
M  V30 6770 O 691.89 -1.82196 -0.483399 0
M  V30 6771 C 689.017 -3.35178 -0.487193 0
M  V30 6772 C 688.063 -4.25079 0.347881 0
M  V30 6773 S 688.896 -5.05792 1.75883 0
M  V30 6774 C 690.052 -6.19089 0.920832 0
M  V30 6775 H 690.285 -2.72701 1.18413 0
M  V30 6776 H 687.818 -1.36474 0.722088 0
M  V30 6777 H 689.776 -3.98895 -0.96916 0
M  V30 6778 H 688.437 -2.865 -1.28749 0
M  V30 6779 H 687.63 -5.03113 -0.298912 0
M  V30 6780 H 687.232 -3.66119 0.763748 0
M  V30 6781 H 689.524 -6.77326 0.15349 0
M  V30 6782 H 690.467 -6.8803 1.67394 0
M  V30 6783 H 690.875 -5.62573 0.466069 0
M  V30 6784 N 690.273 -0.685099 -1.4193 0
M  V30 6785 C 691.223 0.00977295 -2.27998 0
M  V30 6786 C 692.207 0.763315 -1.41641 0
M  V30 6787 O 693.399 0.640532 -1.65004 0
M  V30 6788 C 690.528 0.952972 -3.29808 0
M  V30 6789 C 689.614 0.196231 -4.23646 0
M  V30 6790 N 690.005 -0.804401 -4.99363 0
M  V30 6791 C 688.303 0.433213 -4.43891 0
M  V30 6792 C 689.004 -1.25646 -5.67968 0
M  V30 6793 N 687.98 -0.5844 -5.4045 0
M  V30 6794 H 691.782 -0.757586 -2.83968 0
M  V30 6795 H 689.296 -0.515037 -1.54017 0
M  V30 6796 H 691.293 1.46585 -3.9028 0
M  V30 6797 H 689.953 1.72004 -2.75399 0
M  V30 6798 H 690.964 -1.18429 -5.04177 0
M  V30 6799 H 687.641 1.17899 -4.00507 0
M  V30 6800 H 689.031 -2.08622 -6.38691 0
M  V30 6801 N 691.751 1.51645 -0.429126 0
M  V30 6802 C 692.997 2.02314 0.140286 0
M  V30 6803 C 693.33 1.31314 1.43074 0
M  V30 6804 O 692.605 0.425531 1.89788 0
M  V30 6805 C 692.888 3.5822 0.36749 0
M  V30 6806 C 692.741 4.39846 -0.941039 0
M  V30 6807 C 694.06 4.25055 1.14089 0
M  V30 6808 H 691.179 0.735335 0.0495112 0
M  V30 6809 H 693.821 1.81358 -0.566514 0
M  V30 6810 H 691.971 3.76207 0.969556 0
M  V30 6811 H 693.643 4.33527 -1.57646 0
M  V30 6812 H 691.886 4.05259 -1.54751 0
M  V30 6813 H 692.557 5.47069 -0.73621 0
M  V30 6814 H 695.033 4.11288 0.630986 0
M  V30 6815 H 693.909 5.34038 1.26863 0
M  V30 6816 H 694.17 3.85358 2.16683 0
M  V30 6817 N 693.229 0.160201 1.56784 0
M  V30 6818 C 694.469 -0.490179 1.98435 0
M  V30 6819 C 694.833 -1.61164 1.04355 0
M  V30 6820 O 696.034 -2.3238 1.35103 0
M  V30 6821 C 694.305 -0.971106 3.43954 0
M  V30 6822 S 695.864 -1.62423 4.07632 0
M  V30 6823 H 692.682 -0.158056 0.693209 0
M  V30 6824 H 695.284 0.255036 1.93829 0
M  V30 6825 H 693.988 -0.144323 4.10146 0
M  V30 6826 H 693.519 -1.75063 3.52302 0
M  V30 6827 H 695.534 -2.91199 4.01768 0
M  V30 6828 N 694.707 -1.5719 -0.113559 0
M  V30 6829 C 695.64 -1.9595 -1.16957 0
M  V30 6830 C 696.618 -0.829951 -1.39823 0
M  V30 6831 O 697.802 -1.08861 -1.53888 0
M  V30 6832 C 694.929 -2.2604 -2.52237 0
M  V30 6833 C 693.975 -3.48571 -2.45765 0
M  V30 6834 S 694.808 -5.00962 -1.89203 0
M  V30 6835 C 695.964 -5.3421 -3.26145 0
M  V30 6836 H 696.197 -2.85214 -0.839069 0
M  V30 6837 H 693.73 -1.51036 -0.320529 0
M  V30 6838 H 695.688 -2.44054 -3.30073 0
M  V30 6839 H 694.349 -1.3738 -2.82463 0
M  V30 6840 H 693.542 -3.67008 -3.45429 0
M  V30 6841 H 693.144 -3.29972 -1.76053 0
M  V30 6842 H 695.436 -5.29725 -4.22371 0
M  V30 6843 H 696.379 -6.35398 -3.12529 0
M  V30 6844 H 696.787 -4.61681 -3.24825 0
M  V30 6845 N 696.185 0.383891 -1.52853 0
M  V30 6846 C 697.133 1.48965 -1.7864 0
M  V30 6847 C 698.127 1.56242 -0.654577 0
M  V30 6848 O 699.333 1.59347 -0.83716 0
M  V30 6849 H 695.708 0.495892 -0.565328 0
M  V30 6850 H 697.679 1.24411 -2.71228 0
M  V30 6851 C 696.428 2.86036 -1.97683 0
M  V30 6852 H 695.751 2.81188 -2.84206 0
M  V30 6853 H 697.191 3.62632 -2.19713 0
M  V30 6854 C 695.65 3.28428 -0.750776 0
M  V30 6855 O 696.18 4.0164 0.0693491 0
M  V30 6856 N 694.386 2.84765 -0.579427 0
M  V30 6857 H 693.933 2.25353 -1.24795 0
M  V30 6858 H 693.891 3.13486 0.239544 0
M  V30 6859 N 697.663 1.43903 0.642637 0
M  V30 6860 C 698.893 1.49323 1.4278 0
M  V30 6861 C 699.301 0.113058 1.88862 0
M  V30 6862 O 698.644 -0.889089 1.60751 0
M  V30 6863 C 698.706 2.3861 2.68897 0
M  V30 6864 C 698.37 3.85976 2.44687 0
M  V30 6865 C 699.367 4.7681 2.07239 0
M  V30 6866 C 697.052 4.30567 2.58683 0
M  V30 6867 C 699.046 6.10234 1.841 0
M  V30 6868 C 696.733 5.64042 2.35159 0
M  V30 6869 C 697.731 6.53693 1.97925 0
M  V30 6870 O 697.419 7.84698 1.74654 0
M  V30 6871 H 697.151 0.509109 0.444729 0
M  V30 6872 H 699.705 1.89425 0.794195 0
M  V30 6873 H 697.935 1.93415 3.34855 0
M  V30 6874 H 699.624 2.35112 3.30873 0
M  V30 6875 H 700.39 4.43635 1.95993 0
M  V30 6876 H 696.269 3.61054 2.86637 0
M  V30 6877 H 699.813 6.80171 1.54962 0
M  V30 6878 H 695.71 5.96782 2.46011 0
M  V30 6879 H 696.478 7.96382 1.88993 0
M  V30 6880 N 699.141 -0.881989 1.30609 0
M  V30 6881 C 700.552 -1.44956 1.17664 0
M  V30 6882 C 700.903 -1.94945 -0.221531 0
M  V30 6883 O 700.028 -1.85257 -1.11844 0
M  V30 6884 C 700.623 -2.63474 2.12995 0
M  V30 6885 C 699.182 -3.16312 2.04019 0
M  V30 6886 C 698.329 -1.89008 2.02907 0
M  V30 6887 H 701.28 -0.691645 1.42835 0
M  V30 6888 H 701.301 -3.39783 1.71253 0
M  V30 6889 H 700.813 -2.2706 3.14746 0
M  V30 6890 H 698.914 -3.57376 1.0542 0
M  V30 6891 H 699.027 -3.79409 2.9255 0
M  V30 6892 H 697.391 -2.07465 1.47751 0
M  V30 6893 H 698.174 -1.54848 3.06394 0
M  V30 6894 N 700.619 -1.13374 -1.09472 0
M  V30 6895 C 701.844 -0.918711 -1.85942 0
M  V30 6896 C 702.269 0.527225 -1.8056 0
M  V30 6897 O 701.627 1.37408 -1.18274 0
M  V30 6898 C 701.675 -1.41056 -3.31867 0
M  V30 6899 O 700.779 -0.595496 -4.08078 0
M  V30 6900 H 700.12 -0.329297 -0.576593 0
M  V30 6901 H 702.65 -1.50829 -1.38245 0
M  V30 6902 H 702.66 -1.41398 -3.82715 0
M  V30 6903 H 701.335 -2.46335 -3.35099 0
M  V30 6904 H 699.912 -0.659911 -3.67014 0
M  V30 6905 N 702.098 1.27442 -0.927168 0
M  V30 6906 C 703.347 1.93679 -0.563146 0
M  V30 6907 C 703.66 1.73673 0.899837 0
M  V30 6908 O 704.866 2.34247 1.37262 0
M  V30 6909 C 703.322 3.46961 -0.95636 0
M  V30 6910 C 702.93 3.75724 -2.43999 0
M  V30 6911 C 704.674 4.19282 -0.663565 0
M  V30 6912 C 702.581 5.22378 -2.77263 0
M  V30 6913 H 701.511 0.725059 -0.206894 0
M  V30 6914 H 704.162 1.44743 -1.12791 0
M  V30 6915 H 702.544 3.94703 -0.320254 0
M  V30 6916 H 703.718 3.38741 -3.12396 0
M  V30 6917 H 702.033 3.16605 -2.70463 0
M  V30 6918 H 704.63 5.27265 -0.888596 0
M  V30 6919 H 704.973 4.14382 0.399198 0
M  V30 6920 H 705.506 3.7736 -1.25875 0
M  V30 6921 H 702.245 5.32367 -3.82446 0
M  V30 6922 H 701.765 5.6051 -2.13516 0
M  V30 6923 H 703.444 5.9025 -2.64979 0
M  V30 6924 N 703.576 0.692616 1.41565 0
M  V30 6925 C 704.539 0.0344174 2.29174 0
M  V30 6926 C 705.539 -0.710961 1.44229 0
M  V30 6927 O 706.729 -0.546293 1.65412 0
M  V30 6928 C 703.861 -0.961682 3.27054 0
M  V30 6929 H 705.054 0.805755 2.88873 0
M  V30 6930 H 702.607 0.455947 1.49502 0
M  V30 6931 H 703.342 -1.76089 2.72329 0
M  V30 6932 H 703.127 -0.430375 3.89731 0
M  V30 6933 H 704.617 -1.4201 3.92712 0
M  V30 6934 N 705.054 -1.51416 0.437162 0
M  V30 6935 C 706.002 -2.29328 -0.388765 0
M  V30 6936 C 706.996 -1.35171 -1.02104 0
M  V30 6937 O 708.202 -1.52513 -0.956024 0
M  V30 6938 H 704.577 -0.738048 -0.144183 0
M  V30 6939 H 706.548 -2.96995 0.289212 0
M  V30 6940 C 705.297 -3.14741 -1.47761 0
M  V30 6941 H 704.62 -3.8708 -1.00045 0
M  V30 6942 H 706.06 -3.72313 -2.02877 0
M  V30 6943 C 704.519 -2.30105 -2.46076 0
M  V30 6944 O 705.049 -1.96055 -3.50607 0
M  V30 6945 N 703.255 -1.93331 -2.1696 0
M  V30 6946 H 702.802 -2.2122 -1.31983 0
M  V30 6947 H 702.76 -1.36999 -2.82982 0
M  V30 6948 N 706.532 -0.168513 -1.56696 0
M  V30 6949 C 707.781 0.477233 -1.95973 0
M  V30 6950 C 708.094 1.64578 -1.05704 0
M  V30 6951 O 709.3 2.35758 -1.3465 0
M  V30 6952 C 707.756 0.900413 -3.48455 0
M  V30 6953 C 707.364 -0.242382 -4.47344 0
M  V30 6954 C 709.108 1.51474 -3.96555 0
M  V30 6955 C 707.015 0.200272 -5.91061 0
M  V30 6956 H 705.945 0.182061 -0.73169 0
M  V30 6957 H 708.596 -0.256297 -1.81701 0
M  V30 6958 H 706.978 1.68984 -3.58135 0
M  V30 6959 H 708.152 -1.01967 -4.49377 0
M  V30 6960 H 706.467 -0.766484 -4.09285 0
M  V30 6961 H 709.064 1.85792 -5.01384 0
M  V30 6962 H 709.407 2.41163 -3.39332 0
M  V30 6963 H 709.94 0.789802 -3.89881 0
M  V30 6964 H 706.679 -0.661775 -6.52151 0
M  V30 6965 H 706.199 0.942979 -5.92341 0
M  V30 6966 H 707.878 0.645088 -6.43776 0
M  V30 6967 N 708.01 1.57248 0.105221 0
M  V30 6968 C 709.235 1.90143 0.828264 0
M  V30 6969 C 709.66 0.761811 1.71983 0
M  V30 6970 O 709.018 -0.287086 1.79013 0
M  V30 6971 C 709.066 3.21856 1.62608 0
M  V30 6972 O 708.17 3.08732 2.7342 0
M  V30 6973 H 707.511 0.623558 0.228192 0
M  V30 6974 H 710.041 2.0443 0.0834826 0
M  V30 6975 H 710.051 3.54916 2.01243 0
M  V30 6976 H 708.726 4.0439 0.971687 0
M  V30 6977 H 707.303 2.87167 2.37886 0
M  V30 6978 N 709.488 -0.375779 1.53054 0
M  V30 6979 C 710.451 -1.44254 1.7811 0
M  V30 6980 C 711.451 -1.47018 0.651328 0
M  V30 6981 O 712.641 -1.47957 0.919472 0
M  V30 6982 C 709.773 -2.8345 1.89391 0
M  V30 6983 H 710.966 -1.23316 2.73374 0
M  V30 6984 H 708.519 -0.608312 1.43977 0
M  V30 6985 H 709.254 -3.09716 0.961589 0
M  V30 6986 H 709.039 -2.82844 2.71555 0
M  V30 6987 H 710.529 -3.60722 2.10404 0
M  V30 6988 N 710.966 -1.44241 -0.634997 0
M  V30 6989 C 711.929 -1.50457 -1.72903 0
M  V30 6990 C 712.929 -0.387058 -1.56072 0
M  V30 6991 O 714.119 -0.649531 -1.61638 0
M  V30 6992 C 711.251 -1.37477 -3.1195 0
M  V30 6993 H 712.444 -2.47907 -1.68767 0
M  V30 6994 H 709.997 -1.31276 -0.84831 0
M  V30 6995 H 710.732 -0.41106 -3.21684 0
M  V30 6996 H 710.517 -2.18506 -3.25573 0
M  V30 6997 H 712.007 -1.44799 -3.91692 0
M  V30 6998 N 712.444 0.87505 -1.31075 0
M  V30 6999 C 713.377 1.98471 -1.12625 0
M  V30 7000 C 714.355 1.6257 -0.0311379 0
M  V30 7001 O 715.539 1.87574 -0.186594 0
M  V30 7002 C 712.666 3.30963 -0.719799 0
M  V30 7003 C 711.712 3.85849 -1.81722 0
M  V30 7004 S 712.545 4.11926 -3.42165 0
M  V30 7005 C 713.701 5.47423 -3.03445 0
M  V30 7006 H 713.934 2.13817 -2.06566 0
M  V30 7007 H 711.467 1.02463 -1.15502 0
M  V30 7008 H 713.425 4.07541 -0.492035 0
M  V30 7009 H 712.086 3.1346 0.200413 0
M  V30 7010 H 711.279 4.81616 -1.48533 0
M  V30 7011 H 710.881 3.16046 -1.99977 0
M  V30 7012 H 713.173 6.28881 -2.52023 0
M  V30 7013 H 714.116 5.85557 -3.98157 0
M  V30 7014 H 714.524 5.10455 -2.41031 0
M  V30 7015 N 713.922 1.13953 1.08869 0
M  V30 7016 C 714.869 0.82213 2.15661 0
M  V30 7017 C 715.839 -0.218274 1.6466 0
M  V30 7018 O 717.024 -0.0892475 1.90591 0
M  V30 7019 C 714.164 0.300572 3.43789 0
M  V30 7020 C 713.277 1.40071 4.08661 0
M  V30 7021 C 712.412 0.836897 5.24566 0
M  V30 7022 C 711.451 1.91504 5.81371 0
M  V30 7023 N 710.588 1.36875 6.88629 0
M  V30 7024 H 715.428 1.73683 2.42153 0
M  V30 7025 H 712.965 0.866879 1.18843 0
M  V30 7026 H 714.923 -0.0199943 4.17195 0
M  V30 7027 H 713.553 -0.577248 3.17597 0
M  V30 7028 H 712.605 1.83776 3.33062 0
M  V30 7029 H 713.917 2.21534 4.46905 0
M  V30 7030 H 713.071 0.467953 6.04893 0
M  V30 7031 H 711.81 -0.00874207 4.87699 0
M  V30 7032 H 710.815 2.29299 4.99702 0
M  V30 7033 H 712.04 2.76419 6.20298 0
M  V30 7034 H 709.986 0.545211 6.5373 0
M  V30 7035 H 709.903 2.1198 7.25672 0
M  V30 7036 H 711.171 1.02756 7.72698 0
M  V30 7037 N 715.4 -1.26948 0.933913 0
M  V30 7038 C 716.347 -2.26635 0.436484 0
M  V30 7039 C 717.317 -1.58397 -0.499953 0
M  V30 7040 O 718.502 -1.86171 -0.417753 0
M  V30 7041 C 715.642 -3.43803 -0.298951 0
M  V30 7042 C 714.755 -4.26736 0.672316 0
M  V30 7043 C 713.89 -5.31134 -0.0835872 0
M  V30 7044 C 712.929 -6.05742 0.879979 0
M  V30 7045 N 712.066 -7.01926 0.156301 0
M  V30 7046 H 716.906 -2.68558 1.29154 0
M  V30 7047 H 714.443 -1.32052 0.648118 0
M  V30 7048 H 716.401 -4.10554 -0.741723 0
M  V30 7049 H 715.031 -3.02814 -1.1182 0
M  V30 7050 H 714.083 -3.59842 1.23361 0
M  V30 7051 H 715.395 -4.78502 1.40846 0
M  V30 7052 H 714.549 -6.03863 -0.585984 0
M  V30 7053 H 713.288 -4.80188 -0.852661 0
M  V30 7054 H 712.293 -5.31846 1.39357 0
M  V30 7055 H 713.518 -6.58777 1.64894 0
M  V30 7056 H 711.464 -6.53301 -0.594413 0
M  V30 7057 H 711.381 -7.51409 0.831906 0
M  V30 7058 H 712.649 -7.78821 -0.325239 0
M  V30 7059 N 716.879 -0.700114 -1.41195 0
M  V30 7060 C 718.125 -0.233351 -2.01453 0
M  V30 7061 C 718.458 1.16548 -1.55339 0
M  V30 7062 O 717.733 1.78756 -0.766575 0
M  V30 7063 C 718.016 -0.2961 -3.58881 0
M  V30 7064 C 717.869 -1.7322 -4.15108 0
M  V30 7065 C 719.188 0.341525 -4.38773 0
M  V30 7066 H 716.307 -0.0862667 -0.731934 0
M  V30 7067 H 718.949 -0.889693 -1.67882 0
M  V30 7068 H 717.099 0.262736 -3.87611 0
M  V30 7069 H 718.771 -2.34523 -3.97236 0
M  V30 7070 H 717.014 -2.2649 -3.69979 0
M  V30 7071 H 717.685 -1.7276 -5.24269 0
M  V30 7072 H 720.161 -0.134461 -4.15883 0
M  V30 7073 H 719.037 0.267098 -5.4825 0
M  V30 7074 H 719.298 1.42289 -4.18577 0
M  V30 7075 N 718.357 1.51182 -0.445186 0
M  V30 7076 C 719.603 2.02452 0.11882 0
M  V30 7077 C 719.936 1.32824 1.41673 0
M  V30 7078 O 719.211 0.445637 1.89326 0
M  V30 7079 C 719.494 3.5859 0.329475 0
M  V30 7080 C 719.347 4.38823 -0.987638 0
M  V30 7081 C 720.666 4.26241 1.09575 0
M  V30 7082 H 717.785 0.735819 0.0417092 0
M  V30 7083 H 720.427 1.80747 -0.585718 0
M  V30 7084 H 718.577 3.77214 0.9296 0
M  V30 7085 H 720.249 4.3183 -1.62235 0
M  V30 7086 H 718.492 4.03594 -1.59041 0
M  V30 7087 H 719.163 5.46257 -0.794192 0
M  V30 7088 H 721.639 4.11934 0.587328 0
M  V30 7089 H 720.515 5.35354 1.21191 0
M  V30 7090 H 720.776 3.87635 2.12584 0
M  V30 7091 N 719.835 0.176821 1.56605 0
M  V30 7092 C 721.112 -0.513365 1.88743 0
M  V30 7093 C 721.492 -1.80929 1.08757 0
M  V30 7094 O 720.84 -2.27765 0.183127 0
M  V30 7095 C 721.05 -0.749925 3.40848 0
M  V30 7096 C 722.398 -1.07747 4.10701 0
M  V30 7097 O 723.422 -0.838277 3.46196 0
M  V30 7098 O 722.281 -1.52901 5.24675 0
M  V30 7099 H 719.375 -0.265296 0.783292 0
M  V30 7100 H 721.921 0.215669 1.68324 0
M  V30 7101 H 720.693 0.16599 3.90948 0
M  V30 7102 H 720.316 -1.53208 3.66897 0
M  V30 7103 N 721.313 -1.57302 -0.09688 0
M  V30 7104 C 722.243 -2.0497 -1.11846 0
M  V30 7105 C 723.224 -0.938278 -1.41882 0
M  V30 7106 O 724.409 -1.20943 -1.51942 0
M  V30 7107 C 721.539 -2.47264 -2.43881 0
M  V30 7108 C 720.493 -3.62053 -2.28257 0
M  V30 7109 C 719.819 -3.90318 -3.65453 0
M  V30 7110 C 721.119 -4.93005 -1.72461 0
M  V30 7111 H 722.813 -2.90567 -0.721888 0
M  V30 7112 H 720.359 -1.39786 -0.345803 0
M  V30 7113 H 722.312 -2.7922 -3.15617 0
M  V30 7114 H 721.036 -1.58664 -2.8547 0
M  V30 7115 H 719.695 -3.30341 -1.58967 0
M  V30 7116 H 719.343 -2.98889 -4.04567 0
M  V30 7117 H 719.043 -4.67597 -3.55846 0
M  V30 7118 H 720.567 -4.24747 -4.3866 0
M  V30 7119 H 721.981 -5.23354 -2.34036 0
M  V30 7120 H 720.378 -5.74436 -1.73618 0
M  V30 7121 H 721.448 -4.80053 -0.683898 0
M  V30 7122 N 722.791 0.367657 -1.53252 0
M  V30 7123 C 724.039 1.10832 -1.68999 0
M  V30 7124 C 724.36 1.89894 -0.443306 0
M  V30 7125 O 723.63 1.88235 0.54262 0
M  V30 7126 H 722.21 0.412153 -0.623008 0
M  V30 7127 H 724.872 0.414775 -1.90435 0
M  V30 7128 H 723.968 1.7993 -2.55013 0
M  V30 7129 N 724.269 1.44576 0.627338 0
M  V30 7130 C 725.199 1.54562 1.75022 0
M  V30 7131 C 726.18 0.398378 1.65369 0
M  V30 7132 O 727.365 0.61899 1.84071 0
M  V30 7133 C 724.495 1.49309 3.13567 0
M  V30 7134 C 723.449 2.62549 3.38012 0
M  V30 7135 C 722.775 2.42348 4.76625 0
M  V30 7136 C 724.075 4.04678 3.30202 0
M  V30 7137 H 725.769 2.4855 1.66922 0
M  V30 7138 H 723.315 1.19624 0.801636 0
M  V30 7139 H 725.268 1.54895 3.919 0
M  V30 7140 H 723.992 0.518392 3.2246 0
M  V30 7141 H 722.651 2.56358 2.62061 0
M  V30 7142 H 722.299 1.43062 4.82226 0
M  V30 7143 H 721.999 3.18273 4.93939 0
M  V30 7144 H 723.523 2.49758 5.57183 0
M  V30 7145 H 724.937 4.12217 3.98435 0
M  V30 7146 H 723.334 4.80836 3.5905 0
M  V30 7147 H 724.404 4.2798 2.27949 0
M  V30 7148 N 725.747 -0.868086 1.31537 0
M  V30 7149 C 726.677 -1.99131 1.21939 0
M  V30 7150 C 727.658 -1.69768 0.106166 0
M  V30 7151 O 728.843 -1.92006 0.291081 0
M  V30 7152 C 725.973 -3.34676 0.927879 0
M  V30 7153 C 724.927 -3.7835 2.00088 0
M  V30 7154 C 724.253 -5.11375 1.56203 0
M  V30 7155 C 725.553 -3.95256 3.41424 0
M  V30 7156 H 727.247 -2.07419 2.15911 0
M  V30 7157 H 724.793 -0.996569 1.03945 0
M  V30 7158 H 726.746 -4.12793 0.847327 0
M  V30 7159 H 725.47 -3.26565 -0.0475042 0
M  V30 7160 H 724.129 -3.02474 2.07135 0
M  V30 7161 H 723.777 -4.99709 0.57445 0
M  V30 7162 H 723.477 -5.41568 2.27985 0
M  V30 7163 H 725.001 -5.92001 1.49558 0
M  V30 7164 H 726.415 -4.63764 3.3704 0
M  V30 7165 H 724.812 -4.36849 4.1144 0
M  V30 7166 H 725.882 -2.98579 3.82072 0
M  V30 7167 N 727.225 -1.14528 -1.08264 0
M  V30 7168 C 728.471 -0.91576 -1.80947 0
M  V30 7169 C 728.804 0.55623 -1.86064 0
M  V30 7170 O 728.079 1.41207 -1.33756 0
M  V30 7171 C 728.362 -1.51917 -3.26486 0
M  V30 7172 C 728.215 -3.06111 -3.2957 0
M  V30 7173 C 729.534 -1.19724 -4.23502 0
M  V30 7174 H 726.653 -0.334113 -0.656915 0
M  V30 7175 H 729.295 -1.41547 -1.26746 0
M  V30 7176 H 727.445 -1.0942 -3.72773 0
M  V30 7177 H 729.117 -3.57448 -2.91597 0
M  V30 7178 H 727.36 -3.40483 -2.688 0
M  V30 7179 H 728.031 -3.43438 -4.32151 0
M  V30 7180 H 730.507 -1.56467 -3.85561 0
M  V30 7181 H 729.383 -1.64575 -5.23647 0
M  V30 7182 H 729.644 -0.112771 -4.41956 0
M  V30 7183 N 728.703 1.26451 -0.940633 0
M  V30 7184 C 729.65 2.264 -0.448497 0
M  V30 7185 C 730.62 1.5866 0.491546 0
M  V30 7186 O 731.805 1.86389 0.407874 0
M  V30 7187 C 728.945 3.43956 0.280715 0
M  V30 7188 C 728.058 4.26374 -0.694937 0
M  V30 7189 C 727.193 5.31171 0.0554186 0
M  V30 7190 C 726.232 6.05266 -0.912091 0
M  V30 7191 N 725.369 7.01833 -0.193524 0
M  V30 7192 H 730.209 2.67869 -1.30576 0
M  V30 7193 H 727.746 1.31707 -0.655112 0
M  V30 7194 H 729.704 4.10941 0.71994 0
M  V30 7195 H 728.334 3.03403 1.10212 0
M  V30 7196 H 727.386 3.59183 -1.25267 0
M  V30 7197 H 728.698 4.77748 -1.43382 0
M  V30 7198 H 727.852 6.04166 0.553951 0
M  V30 7199 H 726.591 4.80634 0.827183 0
M  V30 7200 H 725.596 5.31099 -1.42175 0
M  V30 7201 H 726.821 6.57893 -1.68385 0
M  V30 7202 H 724.767 6.53607 0.559758 0
M  V30 7203 H 724.684 7.50957 -0.871744 0
M  V30 7204 H 725.952 7.78983 0.283932 0
M  V30 7205 N 730.181 0.707592 1.40822 0
M  V30 7206 C 731.43 0.240705 2.00259 0
M  V30 7207 C 731.743 -1.17027 1.56729 0
M  V30 7208 O 732.949 -1.73526 2.08809 0
M  V30 7209 C 731.405 0.379432 3.57894 0
M  V30 7210 C 731.013 1.79654 4.104 0
M  V30 7211 C 732.757 -0.0270684 4.24491 0
M  V30 7212 C 730.664 1.88628 5.60512 0
M  V30 7213 H 729.594 0.0862369 0.749052 0
M  V30 7214 H 732.245 0.877528 1.61157 0
M  V30 7215 H 730.627 -0.325842 3.94657 0
M  V30 7216 H 731.801 2.53155 3.85032 0
M  V30 7217 H 730.116 2.15379 3.56372 0
M  V30 7218 H 732.713 0.0193743 5.34696 0
M  V30 7219 H 733.056 -1.06772 4.02375 0
M  V30 7220 H 733.589 0.628361 3.92806 0
M  V30 7221 H 730.328 2.90787 5.87472 0
M  V30 7222 H 729.848 1.19528 5.8777 0
M  V30 7223 H 731.527 1.6547 6.25483 0
M  V30 7224 N 731.66 -1.50943 0.453197 0
M  V30 7225 C 732.888 -2.06628 -0.106135 0
M  V30 7226 C 733.303 -1.31901 -1.35084 0
M  V30 7227 O 732.66 -0.383074 -1.78434 0
M  V30 7228 C 732.711 -3.5914 -0.412368 0
M  V30 7229 O 732.432 -4.31047 0.782948 0
M  V30 7230 C 733.933 -4.31391 -1.02064 0
M  V30 7231 H 731.153 -0.670999 -0.000885896 0
M  V30 7232 H 733.697 -1.94331 0.63684 0
M  V30 7233 H 731.852 -3.71299 -1.10526 0
M  V30 7234 H 732.266 -5.21948 0.516736 0
M  V30 7235 H 733.74 -5.39135 -1.1848 0
M  V30 7236 H 734.217 -3.90714 -2.00598 0
M  V30 7237 H 734.823 -4.23716 -0.366664 0
M  V30 7238 N 733.138 -0.185124 -1.56509 0
M  V30 7239 C 734.048 0.751908 -2.22224 0
M  V30 7240 C 735.064 1.24244 -1.21817 0
M  V30 7241 O 736.24 1.29169 -1.54523 0
M  V30 7242 C 733.305 1.95837 -2.86092 0
M  V30 7243 C 732.366 1.51337 -4.01741 0
M  V30 7244 C 731.599 2.66233 -4.62554 0
M  V30 7245 O 731.822 3.8346 -4.22273 0
M  V30 7246 O 730.756 2.39517 -5.52191 0
M  V30 7247 H 734.582 0.222304 -3.02885 0
M  V30 7248 H 732.167 0.0437141 -1.49336 0
M  V30 7249 H 734.049 2.66368 -3.26536 0
M  V30 7250 H 732.724 2.47677 -2.08417 0
M  V30 7251 H 731.631 0.777155 -3.65939 0
M  V30 7252 H 732.964 1.04175 -4.81049 0
M  V30 7253 N 734.616 1.57351 0.0885366 0
M  V30 7254 C 735.546 2.05561 1.10757 0
M  V30 7255 C 736.527 0.945789 1.41382 0
M  V30 7256 O 737.712 1.21747 1.51299 0
M  V30 7257 C 734.842 2.48554 2.42566 0
M  V30 7258 C 733.796 3.63259 2.26334 0
M  V30 7259 C 733.122 3.9225 3.63378 0
M  V30 7260 C 734.422 4.93913 1.69844 0
M  V30 7261 H 736.116 2.90946 0.706468 0
M  V30 7262 H 733.662 1.39968 0.338385 0
M  V30 7263 H 735.615 2.8089 3.14132 0
M  V30 7264 H 734.339 1.60176 2.84625 0
M  V30 7265 H 732.998 3.31179 1.57213 0
M  V30 7266 H 732.646 3.0103 4.02976 0
M  V30 7267 H 732.346 4.69478 3.53362 0
M  V30 7268 H 733.87 4.27067 4.36401 0
M  V30 7269 H 735.284 5.24588 2.31258 0
M  V30 7270 H 733.681 5.75349 1.70569 0
M  V30 7271 H 734.751 4.80409 0.65843 0
M  V30 7272 N 736.094 -0.359525 1.53444 0
M  V30 7273 C 737.371 -1.11756 1.6053 0
M  V30 7274 C 737.751 -2.06949 0.416587 0
M  V30 7275 O 737.099 -2.20681 -0.592628 0
M  V30 7276 C 737.309 -1.85133 2.95849 0
M  V30 7277 C 738.657 -2.3945 3.50641 0
M  V30 7278 O 739.681 -1.95251 2.97918 0
M  V30 7279 O 738.54 -3.20266 4.42823 0
M  V30 7280 H 735.634 -0.513005 0.648656 0
M  V30 7281 H 738.18 -0.362301 1.65787 0
M  V30 7282 H 736.952 -1.15694 3.73806 0
M  V30 7283 H 736.575 -2.67554 2.9411 0
M  V30 7284 N 737.572 -1.44907 -0.619662 0
M  V30 7285 C 738.818 -1.48512 -1.38102 0
M  V30 7286 C 739.151 -0.121686 -1.93818 0
M  V30 7287 O 738.426 0.862256 -1.74343 0
M  V30 7288 C 738.709 -2.55469 -2.53787 0
M  V30 7289 C 738.562 -4.01212 -2.03345 0
M  V30 7290 C 739.881 -2.58821 -3.55949 0
M  V30 7291 H 737 -0.540712 -0.500799 0
M  V30 7292 H 739.642 -1.7665 -0.69962 0
M  V30 7293 H 737.792 -2.31606 -3.11915 0
M  V30 7294 H 739.464 -4.36245 -1.49959 0
M  V30 7295 H 737.707 -4.12443 -1.34438 0
M  V30 7296 H 738.378 -4.71717 -2.86683 0
M  V30 7297 H 740.854 -2.80172 -3.07641 0
M  V30 7298 H 739.73 -3.35542 -4.34399 0
M  V30 7299 H 739.991 -1.63451 -4.10775 0
M  V30 7300 N 739.05 0.861098 -1.31996 0
M  V30 7301 C 740.013 1.95068 -1.20338 0
M  V30 7302 C 741.013 1.60289 -0.128114 0
M  V30 7303 O 742.203 1.70048 -0.378044 0
M  V30 7304 C 739.335 3.30153 -0.849205 0
M  V30 7305 H 740.528 2.06833 -2.17164 0
M  V30 7306 H 738.081 1.05049 -1.15734 0
M  V30 7307 H 738.816 3.24087 0.117508 0
M  V30 7308 H 738.601 3.56771 -1.62655 0
M  V30 7309 H 740.091 4.10025 -0.791782 0
M  V30 7310 N 740.528 1.15101 1.07655 0
M  V30 7311 C 741.774 0.925343 1.80458 0
M  V30 7312 C 742.107 -0.546354 1.86356 0
M  V30 7313 O 741.382 -1.40496 1.34503 0
M  V30 7314 C 741.665 1.53646 3.25676 0
M  V30 7315 C 741.518 3.07854 3.27942 0
M  V30 7316 C 742.837 1.21968 4.22861 0
M  V30 7317 H 739.956 0.337592 0.655134 0
M  V30 7318 H 742.598 1.42217 1.25993 0
M  V30 7319 H 740.748 1.11395 3.72187 0
M  V30 7320 H 742.42 3.58989 2.89697 0
M  V30 7321 H 740.663 3.41904 2.66991 0
M  V30 7322 H 741.334 3.45725 4.30324 0
M  V30 7323 H 743.81 1.5851 3.84726 0
M  V30 7324 H 742.686 1.67349 5.22767 0
M  V30 7325 H 742.947 0.136207 4.4189 0
M  V30 7326 N 742.006 -1.2595 0.947325 0
M  V30 7327 C 742.954 -2.28152 0.452687 0
M  V30 7328 C 743.948 -1.62655 -0.473239 0
M  V30 7329 O 745.154 -1.76549 -0.350774 0
M  V30 7330 H 741.529 -0.741049 0.12787 0
M  V30 7331 H 743.5 -2.67267 1.32707 0
M  V30 7332 C 742.249 -3.46719 -0.26098 0
M  V30 7333 H 741.572 -3.97345 0.442352 0
M  V30 7334 H 743.012 -4.20135 -0.571208 0
M  V30 7335 C 741.471 -3.02605 -1.48094 0
M  V30 7336 O 742.001 -3.07979 -2.57899 0
M  V30 7337 N 740.207 -2.57877 -1.33969 0
M  V30 7338 H 739.754 -2.53704 -0.446295 0
M  V30 7339 H 739.712 -2.28725 -2.15713 0
M  V30 7340 N 743.484 -0.715051 -1.40445 0
M  V30 7341 C 744.416 -0.0227516 -2.29189 0
M  V30 7342 C 745.429 0.724313 -1.458 0
M  V30 7343 O 746.618 0.571781 -1.69094 0
M  V30 7344 C 743.718 0.992038 -3.24055 0
M  V30 7345 C 742.891 0.310613 -4.36296 0
M  V30 7346 C 741.95 1.23071 -5.11605 0
M  V30 7347 O 740.976 0.71571 -5.64682 0
M  V30 7348 N 742.178 2.56188 -5.2091 0
M  V30 7349 H 744.943 -0.78473 -2.89244 0
M  V30 7350 H 742.504 -0.562637 -1.51809 0
M  V30 7351 H 744.496 1.60973 -3.71308 0
M  V30 7352 H 743.066 1.65538 -2.65171 0
M  V30 7353 H 742.286 -0.487269 -3.91177 0
M  V30 7354 H 743.574 -0.162415 -5.08541 0
M  V30 7355 H 742.972 3.00527 -4.7927 0
M  V30 7356 H 741.529 3.13103 -5.71673 0
M  V30 7357 N 744.962 1.50701 -0.461195 0
M  V30 7358 C 746.373 1.867 -0.00370227 0
M  V30 7359 C 746.724 1.37673 1.39787 0
M  V30 7360 O 745.849 0.737515 2.03445 0
M  V30 7361 C 746.444 3.388 5.75786e-05 0
M  V30 7362 C 745.003 3.74247 0.402044 0
M  V30 7363 C 744.15 2.74549 -0.389652 0
M  V30 7364 H 747.101 1.43585 -0.675942 0
M  V30 7365 H 747.122 3.719 0.804414 0
M  V30 7366 H 746.634 3.74452 -1.02015 0
M  V30 7367 H 744.735 3.44192 1.42697 0
M  V30 7368 H 744.848 4.78973 0.110265 0
M  V30 7369 H 743.212 2.54226 0.155314 0
M  V30 7370 H 743.995 3.13044 -1.40919 0
M  V30 7371 N 746.441 0.193421 1.56409 0
M  V30 7372 C 747.391 -0.74089 2.15627 0
M  V30 7373 C 748.375 -1.17747 1.09656 0
M  V30 7374 O 749.567 -1.13615 1.35723 0
M  V30 7375 C 746.696 -1.96091 2.81786 0
M  V30 7376 C 745.782 -1.54531 3.94944 0
M  V30 7377 N 746.173 -0.840569 4.98767 0
M  V30 7378 C 744.471 -1.83473 4.06514 0
M  V30 7379 C 745.172 -0.632571 5.7825 0
M  V30 7380 N 744.148 -1.18078 5.30621 0
M  V30 7381 H 747.95 -0.193718 2.93261 0
M  V30 7382 H 745.464 -0.00643211 1.62399 0
M  V30 7383 H 747.461 -2.64071 3.22602 0
M  V30 7384 H 746.121 -2.51282 2.05639 0
M  V30 7385 H 747.132 -0.496218 5.15517 0
M  V30 7386 H 743.809 -2.40184 3.41493 0
M  V30 7387 H 745.199 -0.0736433 6.7186 0
M  V30 7388 N 747.919 -1.57396 -0.0801906 0
M  V30 7389 C 749.159 -1.88668 -0.786367 0
M  V30 7390 C 749.523 -0.786216 -1.75165 0
M  V30 7391 O 750.724 -0.981769 -2.50229 0
M  V30 7392 C 748.995 -3.25176 -1.48308 0
M  V30 7393 S 750.554 -3.78177 -2.22549 0
M  V30 7394 H 747.372 -0.661094 -0.261679 0
M  V30 7395 H 749.974 -1.95453 -0.0428196 0
M  V30 7396 H 748.678 -4.03176 -0.766629 0
M  V30 7397 H 748.209 -3.21567 -2.26623 0
M  V30 7398 H 750.224 -3.52789 -3.48934 0
M  V30 7399 N 749.397 0.351382 -1.53633 0
M  V30 7400 C 750.674 1.10903 -1.6112 0
M  V30 7401 C 751.054 2.06725 -0.427556 0
M  V30 7402 O 750.402 2.20992 0.580916 0
M  V30 7403 C 750.612 1.83561 -2.96827 0
M  V30 7404 C 751.96 2.37587 -3.51906 0
M  V30 7405 O 752.984 1.93669 -2.9895 0
M  V30 7406 O 751.843 3.17913 -4.44515 0
M  V30 7407 H 748.937 0.509558 -0.651368 0
M  V30 7408 H 751.483 0.353504 -1.65977 0
M  V30 7409 H 750.255 1.1371 -3.74414 0
M  V30 7410 H 749.878 2.6599 -2.95525 0
M  V30 7411 N 750.875 1.45233 0.611969 0
M  V30 7412 C 751.838 1.53189 1.70487 0
M  V30 7413 C 752.838 0.411839 1.55437 0
M  V30 7414 O 754.028 0.675164 1.60584 0
M  V30 7415 C 751.16 1.42422 3.09723 0
M  V30 7416 H 752.353 2.5056 1.64802 0
M  V30 7417 H 749.906 1.32609 0.827318 0
M  V30 7418 H 750.641 0.462185 3.2099 0
M  V30 7419 H 750.426 2.23658 3.22055 0
M  V30 7420 H 751.916 1.51012 3.89339 0
M  V30 7421 N 752.353 -0.854086 1.3245 0
M  V30 7422 C 753.583 -1.63836 1.25862 0
M  V30 7423 C 753.991 -1.88383 -0.175588 0
M  V30 7424 O 753.334 -1.45353 -1.1233 0
M  V30 7425 C 753.396 -3.02068 1.94923 0
M  V30 7426 C 753.06 -3.0056 3.44257 0
M  V30 7427 C 754.057 -2.77368 4.39731 0
M  V30 7428 C 751.742 -3.21177 3.862 0
M  V30 7429 C 753.736 -2.74797 5.75122 0
M  V30 7430 C 751.423 -3.18234 5.217 0
M  V30 7431 C 752.421 -2.95072 6.15972 0
M  V30 7432 O 752.109 -2.92003 7.48992 0
M  V30 7433 H 751.841 -0.517007 0.435523 0
M  V30 7434 H 754.395 -1.07314 1.75137 0
M  V30 7435 H 752.625 -3.60382 1.40219 0
M  V30 7436 H 754.314 -3.62791 1.82037 0
M  V30 7437 H 755.08 -2.61205 4.08653 0
M  V30 7438 H 750.959 -3.38231 3.13243 0
M  V30 7439 H 754.503 -2.56638 6.48678 0
M  V30 7440 H 750.4 -3.33941 5.52407 0
M  V30 7441 H 751.168 -3.07953 7.58358 0
M  V30 7442 N 753.831 -1.1567 -1.07043 0
M  V30 7443 C 755.242 -0.942408 -1.61169 0
M  V30 7444 C 755.593 0.515537 -1.89306 0
M  V30 7445 O 754.718 1.38726 -1.66084 0
M  V30 7446 C 755.313 -1.70431 -2.92812 0
M  V30 7447 C 753.872 -1.53521 -3.43669 0
M  V30 7448 C 753.019 -1.7179 -2.17678 0
M  V30 7449 H 755.97 -1.3065 -0.9009 0
M  V30 7450 H 755.991 -1.17566 -3.61882 0
M  V30 7451 H 755.503 -2.76538 -2.72302 0
M  V30 7452 H 753.604 -0.498224 -3.69254 0
M  V30 7453 H 753.717 -2.31422 -4.19501 0
M  V30 7454 H 752.081 -1.14468 -2.27529 0
M  V30 7455 H 752.864 -2.79269 -1.99659 0
M  V30 7456 N 755.309 1.25446 -0.953992 0
M  V30 7457 C 756.272 2.24156 -0.478179 0
M  V30 7458 C 757.272 1.55278 0.417776 0
M  V30 7459 O 758.462 1.72866 0.215155 0
M  V30 7460 C 755.594 3.39495 0.309202 0
M  V30 7461 H 756.787 2.67764 -1.35064 0
M  V30 7462 H 754.34 1.37822 -0.737206 0
M  V30 7463 H 755.075 3.01307 1.19936 0
M  V30 7464 H 754.86 3.90679 -0.333562 0
M  V30 7465 H 756.35 4.12796 0.631594 0
M  V30 7466 N 756.787 0.722489 1.40064 0
M  V30 7467 C 757.735 0.063329 2.32514 0
M  V30 7468 C 758.729 -0.73953 1.52405 0
M  V30 7469 O 759.935 -0.642122 1.68157 0
M  V30 7470 H 756.31 0.00167692 0.751998 0
M  V30 7471 H 758.281 0.859656 2.85749 0
M  V30 7472 C 757.03 -0.839219 3.3742 0
M  V30 7473 H 756.353 -0.230836 3.99133 0
M  V30 7474 H 757.793 -1.26827 4.04587 0
M  V30 7475 C 756.252 -1.96783 2.73456 0
M  V30 7476 O 756.782 -3.05933 2.60323 0
M  V30 7477 N 754.988 -1.75351 2.31734 0
M  V30 7478 H 754.535 -0.865787 2.42615 0
M  V30 7479 H 754.493 -2.51043 1.89275 0
M  V30 7480 N 758.265 -1.50454 0.469181 0
M  V30 7481 C 759.212 -2.28486 -0.325982 0
M  V30 7482 C 760.182 -1.33455 -0.988893 0
M  V30 7483 O 761.367 -1.6239 -1.0017 0
M  V30 7484 C 758.507 -3.15288 -1.40313 0
M  V30 7485 C 757.62 -4.25348 -0.755183 0
M  V30 7486 C 756.755 -4.9941 -1.81006 0
M  V30 7487 C 755.794 -6.01348 -1.14226 0
M  V30 7488 N 754.931 -6.68695 -2.1399 0
M  V30 7489 H 759.771 -2.95987 0.345753 0
M  V30 7490 H 757.308 -1.45965 0.182355 0
M  V30 7491 H 759.266 -3.63964 -2.03927 0
M  V30 7492 H 757.896 -2.49837 -2.04405 0
M  V30 7493 H 756.948 -3.80399 -0.00651901 0
M  V30 7494 H 758.26 -4.98279 -0.227941 0
M  V30 7495 H 757.414 -5.51794 -2.52206 0
M  V30 7496 H 756.153 -4.26181 -2.3711 0
M  V30 7497 H 755.158 -5.48225 -0.415876 0
M  V30 7498 H 756.383 -6.76548 -0.588135 0
M  V30 7499 H 754.329 -5.98258 -2.69115 0
M  V30 7500 H 754.246 -7.37495 -1.66246 0
M  V30 7501 H 755.514 -7.25697 -2.84576 0
M  V30 7502 N 759.743 -0.201713 -1.56304 0
M  V30 7503 C 760.992 0.435557 -1.96941 0
M  V30 7504 C 761.305 1.62299 -1.09172 0
M  V30 7505 O 762.511 2.32849 -1.3962 0
M  V30 7506 C 760.967 0.826298 -3.50286 0
M  V30 7507 C 760.575 -0.337216 -4.46729 0
M  V30 7508 C 762.319 1.43028 -3.99679 0
M  V30 7509 C 760.226 0.0748539 -5.91353 0
M  V30 7510 H 759.156 0.1665 -0.735387 0
M  V30 7511 H 761.807 -0.294781 -1.81117 0
M  V30 7512 H 760.189 1.61349 -3.61639 0
M  V30 7513 H 761.363 -1.11476 -4.47113 0
M  V30 7514 H 759.678 -0.853126 -4.07567 0
M  V30 7515 H 762.275 1.75115 -5.05212 0
M  V30 7516 H 762.618 2.33911 -3.44371 0
M  V30 7517 H 763.151 0.706924 -3.91468 0
M  V30 7518 H 759.89 -0.799957 -6.506 0
M  V30 7519 H 759.41 0.817122 -5.94208 0
M  V30 7520 H 761.089 0.508389 -6.45 0
M  V30 7521 N 761.222 1.57436 0.0718424 0
M  V30 7522 C 762.17 2.04725 1.10411 0
M  V30 7523 C 763.164 0.952579 1.4008 0
M  V30 7524 O 764.37 1.13769 1.39487 0
M  V30 7525 H 760.745 0.652749 0.373393 0
M  V30 7526 H 762.716 2.90569 0.679126 0
M  V30 7527 C 761.465 2.5068 2.40946 0
M  V30 7528 H 760.788 3.34505 2.18967 0
M  V30 7529 H 762.228 2.87521 3.11621 0
M  V30 7530 C 760.687 1.38971 3.06902 0
M  V30 7531 O 761.217 0.731786 3.94978 0
M  V30 7532 N 759.423 1.13485 2.67525 0
M  V30 7533 H 758.97 1.67168 1.95991 0
M  V30 7534 H 758.928 0.389467 3.11978 0
M  V30 7535 N 762.7 -0.34323 1.53817 0
M  V30 7536 C 764.111 -0.918823 1.62525 0
M  V30 7537 C 764.462 -1.89542 0.506765 0
M  V30 7538 O 763.587 -2.13326 -0.363441 0
M  V30 7539 C 764.182 -1.67326 2.94597 0
M  V30 7540 C 762.741 -2.19786 3.05567 0
M  V30 7541 C 761.888 -1.01708 2.57974 0
M  V30 7542 H 764.839 -0.121358 1.58235 0
M  V30 7543 H 764.86 -2.53615 2.83654 0
M  V30 7544 H 764.372 -0.962223 3.75983 0
M  V30 7545 H 762.473 -2.94065 2.28816 0
M  V30 7546 H 762.586 -2.46135 4.1104 0
M  V30 7547 H 760.95 -1.39058 2.13389 0
M  V30 7548 H 761.733 -0.320671 3.41799 0
M  V30 7549 N 764.178 -1.45556 -0.604258 0
M  V30 7550 C 765.108 -1.57327 -1.72541 0
M  V30 7551 C 766.089 -0.424637 -1.64714 0
M  V30 7552 O 767.274 -0.648196 -1.83063 0
M  V30 7553 C 764.404 -1.54279 -3.11152 0
M  V30 7554 C 763.358 -2.67893 -3.33792 0
M  V30 7555 C 762.684 -2.499 -4.72709 0
M  V30 7556 C 763.984 -4.0988 -3.23722 0
M  V30 7557 H 765.678 -2.51175 -1.62947 0
M  V30 7558 H 763.224 -1.20884 -0.782504 0
M  V30 7559 H 765.177 -1.6111 -3.89386 0
M  V30 7560 H 763.901 -0.569627 -3.21594 0
M  V30 7561 H 762.56 -2.60495 -2.57949 0
M  V30 7562 H 762.208 -1.50715 -4.79889 0
M  V30 7563 H 761.908 -3.26091 -4.88813 0
M  V30 7564 H 763.432 -2.5859 -5.5314 0
M  V30 7565 H 764.846 -4.18503 -3.91826 0
M  V30 7566 H 763.243 -4.86487 -3.51355 0
M  V30 7567 H 764.313 -4.31553 -2.21111 0
M  V30 7568 N 765.656 0.84705 -1.32902 0
M  V30 7569 C 766.884 1.63403 -1.26913 0
M  V30 7570 C 767.299 1.88108 0.161483 0
M  V30 7571 O 766.656 1.45546 1.10103 0
M  V30 7572 C 766.707 2.98896 -2.03331 0
M  V30 7573 O 766.428 2.75281 -3.40811 0
M  V30 7574 C 767.929 3.93335 -2.04457 0
M  V30 7575 H 765.149 0.508701 -0.437566 0
M  V30 7576 H 767.693 1.05567 -1.75145 0
M  V30 7577 H 765.848 3.53356 -1.58802 0
M  V30 7578 H 766.262 3.61504 -3.8002 0
M  V30 7579 H 767.736 4.85647 -2.62394 0
M  V30 7580 H 768.213 4.26885 -1.03274 0
M  V30 7581 H 768.819 3.44812 -2.48967 0
M  V30 7582 N 767.134 1.16236 1.06428 0
M  V30 7583 C 768.044 0.881976 2.1739 0
M  V30 7584 C 769.06 -0.145259 1.73393 0
M  V30 7585 O 770.236 0.0310558 2.01376 0
M  V30 7586 C 767.301 0.385496 3.4455 0
M  V30 7587 C 766.362 1.47779 4.03063 0
M  V30 7588 C 765.595 1.0049 5.24154 0
M  V30 7589 O 765.818 -0.145889 5.70213 0
M  V30 7590 O 764.752 1.79265 5.74585 0
M  V30 7591 H 768.578 1.80983 2.43883 0
M  V30 7592 H 766.163 0.942226 1.15942 0
M  V30 7593 H 768.045 0.115536 4.21242 0
M  V30 7594 H 766.72 -0.514369 3.19587 0
M  V30 7595 H 765.627 1.80147 3.27869 0
M  V30 7596 H 766.96 2.35291 4.32318 0
M  V30 7597 N 768.612 -1.24939 0.960631 0
M  V30 7598 C 769.575 -2.239 0.49006 0
M  V30 7599 C 770.575 -1.55497 -0.409535 0
M  V30 7600 O 771.765 -1.72978 -0.205984 0
M  V30 7601 C 768.897 -3.39654 -0.291193 0
M  V30 7602 H 770.09 -2.67044 1.36482 0
M  V30 7603 H 767.643 -1.37429 0.744505 0
M  V30 7604 H 768.378 -3.01939 -1.18336 0
M  V30 7605 H 768.163 -3.90496 0.354276 0
M  V30 7606 H 769.653 -4.13125 -0.609693 0
M  V30 7607 N 770.09 -0.729906 -1.39679 0
M  V30 7608 C 771.053 -0.0951668 -2.29002 0
M  V30 7609 C 772.053 0.672471 -1.46063 0
M  V30 7610 O 773.243 0.502245 -1.66803 0
M  V30 7611 C 770.375 0.874631 -3.29489 0
M  V30 7612 H 771.568 -0.882062 -2.86635 0
M  V30 7613 H 769.121 -0.495424 -1.4824 0
M  V30 7614 H 769.856 1.68807 -2.76902 0
M  V30 7615 H 769.641 0.326893 -3.90735 0
M  V30 7616 H 771.131 1.31548 -3.96339 0
M  V30 7617 N 771.568 1.50203 -0.477153 0
M  V30 7618 C 772.5 2.26508 0.350239 0
M  V30 7619 C 773.513 1.32081 0.95176 0
M  V30 7620 O 774.702 1.57546 0.839139 0
M  V30 7621 C 771.802 3.0361 1.50579 0
M  V30 7622 C 770.975 4.25438 1.01595 0
M  V30 7623 C 770.034 4.84783 2.04626 0
M  V30 7624 O 769.06 5.45528 1.62442 0
M  V30 7625 N 770.262 4.72318 3.37485 0
M  V30 7626 H 773.027 2.98155 -0.30394 0
M  V30 7627 H 770.588 1.58938 -0.308289 0
M  V30 7628 H 772.58 3.4019 2.1921 0
M  V30 7629 H 771.15 2.34724 2.06455 0
M  V30 7630 H 770.37 3.93894 0.155316 0
M  V30 7631 H 771.658 5.04413 0.666694 0
M  V30 7632 H 771.056 4.24022 3.74462 0
M  V30 7633 H 769.613 5.13149 4.01897 0
M  V30 7634 N 773.046 0.209999 1.56195 0
M  V30 7635 C 773.976 -0.699746 2.22769 0
M  V30 7636 C 774.957 -1.20993 1.1956 0
M  V30 7637 O 776.142 -1.25605 1.48112 0
M  V30 7638 C 773.272 -1.91302 2.89863 0
M  V30 7639 C 772.226 -1.53715 3.99444 0
M  V30 7640 C 771.552 -2.82826 4.53777 0
M  V30 7641 C 772.852 -0.735836 5.17091 0
M  V30 7642 H 774.546 -0.144716 2.9905 0
M  V30 7643 H 772.092 -0.0681645 1.43839 0
M  V30 7644 H 774.045 -2.5548 3.35124 0
M  V30 7645 H 772.769 -2.49283 2.11011 0
M  V30 7646 H 771.428 -0.918892 3.54897 0
M  V30 7647 H 771.076 -3.38927 3.71669 0
M  V30 7648 H 770.776 -2.58415 5.27727 0
M  V30 7649 H 772.3 -3.47966 5.01749 0
M  V30 7650 H 773.714 -1.28105 5.58804 0
M  V30 7651 H 772.111 -0.589272 5.972 0
M  V30 7652 H 773.181 0.260004 4.84202 0
M  V30 7653 N 774.524 -1.57472 -0.0634922 0
M  V30 7654 C 775.487 -2.03268 -1.059 0
M  V30 7655 C 776.487 -0.931028 -1.31105 0
M  V30 7656 O 777.677 -1.19567 -1.26686 0
M  V30 7657 C 774.809 -2.42039 -2.40062 0
M  V30 7658 H 776.002 -2.92454 -0.664119 0
M  V30 7659 H 773.555 -1.53206 -0.309444 0
M  V30 7660 H 774.29 -1.55904 -2.84367 0
M  V30 7661 H 774.075 -3.22437 -2.23108 0
M  V30 7662 H 775.565 -2.78017 -3.11603 0
M  V30 7663 N 776.003 0.335068 -1.53997 0
M  V30 7664 C 776.935 1.4327 -1.78903 0
M  V30 7665 C 777.948 1.48347 -0.670598 0
M  V30 7666 O 779.137 1.51277 -0.947494 0
M  V30 7667 C 776.237 2.81878 -1.88144 0
M  V30 7668 C 775.41 3.00141 -3.18174 0
M  V30 7669 C 774.469 4.19041 -3.18263 0
M  V30 7670 O 773.495 4.12751 -3.9195 0
M  V30 7671 N 774.697 5.28004 -2.41231 0
M  V30 7672 H 777.462 1.22272 -2.73623 0
M  V30 7673 H 775.023 0.524996 -1.53152 0
M  V30 7674 H 777.015 3.59609 -1.85644 0
M  V30 7675 H 775.585 2.9598 -1.00572 0
M  V30 7676 H 774.805 2.09808 -3.33728 0
M  V30 7677 H 776.093 3.0923 -4.04047 0
M  V30 7678 H 775.491 5.35986 -1.8093 0
M  V30 7679 H 774.048 6.04196 -2.44521 0
M  V30 7680 N 777.481 1.45874 0.596531 0
M  V30 7681 C 778.428 1.55389 1.70655 0
M  V30 7682 C 779.398 0.399036 1.61236 0
M  V30 7683 O 780.583 0.61396 1.80652 0
M  V30 7684 C 777.723 1.53705 3.0898 0
M  V30 7685 C 776.836 2.79823 3.29125 0
M  V30 7686 C 775.971 2.69735 4.5762 0
M  V30 7687 C 775.01 3.90856 4.71061 0
M  V30 7688 N 774.147 3.79237 5.90867 0
M  V30 7689 H 778.987 2.50211 1.61859 0
M  V30 7690 H 776.524 1.24146 0.789069 0
M  V30 7691 H 778.482 1.50715 3.89026 0
M  V30 7692 H 777.112 0.624247 3.16706 0
M  V30 7693 H 776.164 2.92852 2.42779 0
M  V30 7694 H 777.476 3.69628 3.34927 0
M  V30 7695 H 776.63 2.64773 5.45875 0
M  V30 7696 H 775.369 1.77547 4.54234 0
M  V30 7697 H 774.374 3.96164 3.81227 0
M  V30 7698 H 775.599 4.84124 4.76236 0
M  V30 7699 H 773.545 2.89825 5.88504 0
M  V30 7700 H 773.462 4.62686 5.97877 0
M  V30 7701 H 774.73 3.78227 6.8159 0
M  V30 7702 N 778.959 -0.83999 1.33349 0
M  V30 7703 C 779.906 -1.94972 1.23509 0
M  V30 7704 C 780.876 -1.65709 0.113967 0
M  V30 7705 O 782.061 -1.88552 0.292045 0
M  V30 7706 C 779.201 -3.30919 0.979105 0
M  V30 7707 C 778.314 -3.72587 2.18639 0
M  V30 7708 C 777.449 -4.97397 1.86465 0
M  V30 7709 C 776.488 -5.31597 3.03432 0
M  V30 7710 N 775.625 -6.47584 2.71254 0
M  V30 7711 H 780.465 -2.0272 2.18423 0
M  V30 7712 H 778.002 -0.992017 1.08616 0
M  V30 7713 H 779.96 -4.09239 0.811126 0
M  V30 7714 H 778.59 -3.22731 0.0667099 0
M  V30 7715 H 777.642 -2.89799 2.46416 0
M  V30 7716 H 778.954 -3.93844 3.06086 0
M  V30 7717 H 778.108 -5.83462 1.66305 0
M  V30 7718 H 776.847 -4.78107 0.96254 0
M  V30 7719 H 775.852 -4.44037 3.24208 0
M  V30 7720 H 777.077 -5.52836 3.94397 0
M  V30 7721 H 775.023 -6.29783 1.836 0
M  V30 7722 H 774.94 -6.68931 3.52231 0
M  V30 7723 H 776.208 -7.36764 2.54558 0
M  V30 7724 N 780.437 -1.16799 -1.0581 0
M  V30 7725 C 781.853 -0.913935 -1.30841 0
M  V30 7726 C 782.053 0.430439 -1.96849 0
M  V30 7727 O 781.109 1.16885 -2.23817 0
M  V30 7728 C 782.422 -2.06662 -2.18429 0
M  V30 7729 C 783.97 -2.10294 -2.31831 0
M  V30 7730 C 784.445 -3.2493 -3.22776 0
M  V30 7731 N 785.936 -3.24678 -3.30361 0
M  V30 7732 C 786.671 -4.10021 -4.00837 0
M  V30 7733 N 786.167 -5.05461 -4.73795 0
M  V30 7734 N 787.96 -3.97991 -3.96937 0
M  V30 7735 H 780.111 -2.03343 -0.613613 0
M  V30 7736 H 782.374 -0.88754 -0.333133 0
M  V30 7737 H 782.08 -3.03791 -1.77211 0
M  V30 7738 H 781.954 -2.01233 -3.19038 0
M  V30 7739 H 784.341 -1.13754 -2.72294 0
M  V30 7740 H 784.422 -2.19786 -1.30873 0
M  V30 7741 H 784.066 -4.21731 -2.83028 0
M  V30 7742 H 783.996 -3.12674 -4.23725 0
M  V30 7743 H 786.487 -2.55573 -2.78372 0
M  V30 7744 H 786.8 -5.66989 -5.25113 0
M  V30 7745 H 785.145 -5.09436 -4.72758 0
M  V30 7746 H 788.336 -3.2273 -3.39062 0
M  V30 7747 H 788.509 -4.64722 -4.51594 0
M  V30 7748 N 781.915 1.24427 -0.967243 0
M  V30 7749 C 783.145 1.96256 -0.64554 0
M  V30 7750 C 783.553 1.71959 0.789098 0
M  V30 7751 O 782.896 0.999913 1.54102 0
M  V30 7752 C 782.958 3.49553 -0.839798 0
M  V30 7753 C 782.622 3.97548 -2.25399 0
M  V30 7754 C 783.619 4.07257 -3.23168 0
M  V30 7755 C 781.304 4.30884 -2.58156 0
M  V30 7756 C 783.298 4.49635 -4.51782 0
M  V30 7757 C 780.985 4.72946 -3.86996 0
M  V30 7758 C 781.983 4.82286 -4.83621 0
M  V30 7759 O 781.671 5.23409 -6.10162 0
M  V30 7760 H 781.403 0.632002 -0.239895 0
M  V30 7761 H 783.957 1.59224 -1.29757 0
M  V30 7762 H 782.187 3.86479 -0.130603 0
M  V30 7763 H 783.876 4.02591 -0.517249 0
M  V30 7764 H 784.642 3.8172 -2.9919 0
M  V30 7765 H 780.521 4.22833 -1.83666 0
M  V30 7766 H 784.065 4.5684 -5.27203 0
M  V30 7767 H 779.962 4.9793 -4.10775 0
M  V30 7768 H 780.73 5.4156 -6.13722 0
M  V30 7769 N 783.393 0.737304 1.3929 0
M  V30 7770 C 784.633 0.290966 2.02318 0
M  V30 7771 C 784.997 -1.10174 1.57244 0
M  V30 7772 O 786.198 -1.64628 2.12488 0
M  V30 7773 C 784.469 0.391767 3.55246 0
M  V30 7774 S 786.028 0.0256103 4.38793 0
M  V30 7775 H 782.846 0.113862 0.701824 0
M  V30 7776 H 785.448 0.964329 1.70062 0
M  V30 7777 H 784.152 1.40662 3.85542 0
M  V30 7778 H 783.683 -0.299338 3.9226 0
M  V30 7779 H 785.698 -1.18991 4.81722 0
M  V30 7780 N 784.871 -1.49948 0.485112 0
M  V30 7781 C 786.148 -1.95186 -0.12726 0
M  V30 7782 C 786.528 -1.42605 -1.5565 0
M  V30 7783 O 785.876 -0.632986 -2.19558 0
M  V30 7784 C 786.086 -3.48955 -0.0562117 0
M  V30 7785 C 787.434 -4.23932 -0.238106 0
M  V30 7786 O 788.458 -3.55955 -0.132145 0
M  V30 7787 O 787.317 -5.44614 -0.453658 0
M  V30 7788 H 784.411 -0.820433 -0.104014 0
M  V30 7789 H 786.957 -1.60659 0.546517 0
M  V30 7790 H 785.729 -3.79814 0.941122 0
M  V30 7791 H 785.352 -3.90056 -0.770834 0
M  V30 7792 N 786.349 -0.21828 -1.56081 0
M  V30 7793 C 787.595 0.414921 -1.9851 0
M  V30 7794 C 787.928 1.59648 -1.10573 0
M  V30 7795 O 787.203 1.93818 -0.162695 0
M  V30 7796 C 787.486 0.852647 -3.4986 0
M  V30 7797 C 787.339 -0.33232 -4.48571 0
M  V30 7798 C 788.658 1.70998 -4.05521 0
M  V30 7799 H 785.777 0.149344 -0.72171 0
M  V30 7800 H 788.419 -0.313858 -1.8739 0
M  V30 7801 H 786.569 1.47362 -3.59467 0
M  V30 7802 H 788.241 -0.970418 -4.50977 0
M  V30 7803 H 786.484 -0.980302 -4.22578 0
M  V30 7804 H 787.155 0.0168407 -5.51997 0
M  V30 7805 H 789.631 1.18606 -3.98838 0
M  V30 7806 H 788.507 1.98517 -5.11744 0
M  V30 7807 H 788.768 2.67219 -3.52202 0
M  V30 7808 N 787.827 1.57504 0.0551401 0
M  V30 7809 C 789.073 1.88334 0.752216 0
M  V30 7810 C 789.406 0.812742 1.76375 0
M  V30 7811 O 788.681 -0.175198 1.93709 0
M  V30 7812 C 788.964 3.29824 1.44528 0
M  V30 7813 C 788.817 4.47553 0.449026 0
M  V30 7814 C 790.136 3.69808 2.38601 0
M  V30 7815 H 787.255 0.684973 0.271995 0
M  V30 7816 H 789.897 1.89994 0.0151895 0
M  V30 7817 H 788.047 3.28539 2.07351 0
M  V30 7818 H 789.719 4.60967 -0.175277 0
M  V30 7819 H 787.962 4.33168 -0.234162 0
M  V30 7820 H 788.633 5.43376 0.971917 0
M  V30 7821 H 791.109 3.72293 1.85842 0
M  V30 7822 H 789.985 4.69665 2.84088 0
M  V30 7823 H 790.246 3.00641 3.24141 0
M  V30 7824 N 789.305 -0.326896 1.54172 0
M  V30 7825 C 790.252 -1.40216 1.83325 0
M  V30 7826 C 791.222 -1.51538 0.680107 0
M  V30 7827 O 792.407 -1.66811 0.926206 0
M  V30 7828 C 789.547 -2.76626 2.0633 0
M  V30 7829 C 788.66 -2.73963 3.34019 0
M  V30 7830 C 787.795 -4.02198 3.47002 0
M  V30 7831 C 786.834 -3.93828 4.68578 0
M  V30 7832 N 785.971 -5.13787 4.78506 0
M  V30 7833 H 790.811 -1.14656 2.7506 0
M  V30 7834 H 788.348 -0.555089 1.36225 0
M  V30 7835 H 790.306 -3.55922 2.17659 0
M  V30 7836 H 788.936 -3.00503 1.1789 0
M  V30 7837 H 787.988 -1.86677 3.31445 0
M  V30 7838 H 789.3 -2.6366 4.2342 0
M  V30 7839 H 788.454 -4.89923 3.57855 0
M  V30 7840 H 787.193 -4.15302 2.55687 0
M  V30 7841 H 786.198 -3.04487 4.57786 0
M  V30 7842 H 787.423 -3.82292 5.61275 0
M  V30 7843 H 785.369 -5.27403 3.90105 0
M  V30 7844 H 785.286 -5.05807 5.61868 0
M  V30 7845 H 786.554 -6.03236 4.93686 0
M  V30 7846 N 790.784 -1.46188 -0.588786 0
M  V30 7847 C 791.747 -1.55882 -1.68029 0
M  V30 7848 C 792.747 -0.436515 -1.54762 0
M  V30 7849 O 793.937 -0.700626 -1.59489 0
M  V30 7850 C 791.069 -1.47332 -3.07418 0
M  V30 7851 H 792.262 -2.5315 -1.60795 0
M  V30 7852 H 789.815 -1.33908 -0.806116 0
M  V30 7853 H 790.55 -0.513193 -3.20214 0
M  V30 7854 H 790.335 -2.28753 -3.18456 0
M  V30 7855 H 791.825 -1.57187 -3.86887 0
M  V30 7856 N 792.262 0.832906 -1.33792 0
M  V30 7857 C 793.492 1.61813 -1.28453 0
M  V30 7858 C 793.9 1.88639 0.145595 0
M  V30 7859 O 793.243 1.47122 1.10004 0
M  V30 7860 C 793.305 2.98929 -1.99704 0
M  V30 7861 C 792.969 2.95045 -3.48995 0
M  V30 7862 C 793.966 2.70337 -4.44088 0
M  V30 7863 C 791.651 3.14993 -3.91261 0
M  V30 7864 C 793.645 2.65612 -5.79421 0
M  V30 7865 C 791.332 3.09893 -5.26697 0
M  V30 7866 C 792.33 2.85235 -6.20588 0
M  V30 7867 O 792.018 2.8005 -7.53543 0
M  V30 7868 H 791.75 0.510013 -0.443693 0
M  V30 7869 H 794.304 1.04514 -1.76822 0
M  V30 7870 H 792.534 3.58106 -1.45935 0
M  V30 7871 H 794.223 3.59849 -1.87786 0
M  V30 7872 H 794.989 2.54671 -4.12756 0
M  V30 7873 H 790.868 3.33204 -3.18584 0
M  V30 7874 H 794.412 2.46285 -6.52679 0
M  V30 7875 H 790.309 3.2511 -5.5765 0
M  V30 7876 H 791.077 2.95849 -7.63162 0
M  V30 7877 N 793.74 1.17359 1.05189 0
M  V30 7878 C 794.67 0.91365 2.14883 0
M  V30 7879 C 795.651 -0.144365 1.69486 0
M  V30 7880 O 796.836 0.00587861 1.94199 0
M  V30 7881 C 793.966 0.426196 3.44675 0
M  V30 7882 C 792.92 1.4234 4.03638 0
M  V30 7883 C 792.246 0.793902 5.28773 0
M  V30 7884 C 793.546 2.7966 4.41121 0
M  V30 7885 H 795.24 1.831 2.36885 0
M  V30 7886 H 792.786 0.881781 1.13845 0
M  V30 7887 H 794.739 0.231767 4.20762 0
M  V30 7888 H 793.463 -0.526693 3.22325 0
M  V30 7889 H 792.122 1.60457 3.2962 0
M  V30 7890 H 791.77 -0.165824 5.02727 0
M  V30 7891 H 791.47 1.45959 5.69183 0
M  V30 7892 H 792.994 0.609747 6.07548 0
M  V30 7893 H 794.408 2.6526 5.08242 0
M  V30 7894 H 792.805 3.42807 4.92548 0
M  V30 7895 H 793.875 3.34068 3.51464 0
M  V30 7896 N 795.218 -1.23913 0.973828 0
M  V30 7897 C 796.495 -1.87539 0.555729 0
M  V30 7898 C 796.875 -1.87641 -0.967162 0
M  V30 7899 O 796.223 -1.35335 -1.84111 0
M  V30 7900 C 796.433 -3.29359 1.15427 0
M  V30 7901 C 797.781 -4.06 1.24294 0
M  V30 7902 O 798.805 -3.38554 1.10723 0
M  V30 7903 O 797.664 -5.26689 1.45813 0
M  V30 7904 H 794.758 -0.805769 0.186188 0
M  V30 7905 H 797.304 -1.31838 1.06849 0
M  V30 7906 H 796.076 -3.23817 2.19678 0
M  V30 7907 H 795.699 -3.92642 0.625925 0
M  V30 7908 N 796.696 -0.74468 -1.38897 0
M  V30 7909 C 797.924 -0.307428 -2.04603 0
M  V30 7910 C 798.339 1.06115 -1.56157 0
M  V30 7911 O 797.696 1.67233 -0.730701 0
M  V30 7912 C 797.747 -0.31101 -3.6016 0
M  V30 7913 O 797.468 -1.62557 -4.06825 0
M  V30 7914 C 798.969 0.141213 -4.43075 0
M  V30 7915 H 796.189 -0.132741 -0.657739 0
M  V30 7916 H 798.733 -1.01104 -1.77759 0
M  V30 7917 H 796.888 0.343792 -3.85872 0
M  V30 7918 H 797.302 -1.54569 -5.01207 0
M  V30 7919 H 798.776 0.0875449 -5.51931 0
M  V30 7920 H 799.253 1.18782 -4.22833 0
M  V30 7921 H 799.859 -0.484383 -4.22533 0
M  V30 7922 N 798.174 1.49689 -0.493057 0
M  V30 7923 C 799.42 2.02727 0.0543518 0
M  V30 7924 C 799.753 1.37264 1.37376 0
M  V30 7925 O 799.028 0.505644 1.87812 0
M  V30 7926 C 799.311 3.59456 0.215226 0
M  V30 7927 C 799.164 4.35459 -1.12675 0
M  V30 7928 C 800.483 4.29511 0.959586 0
M  V30 7929 H 797.602 0.736773 0.0182786 0
M  V30 7930 H 800.244 1.78792 -0.642924 0
M  V30 7931 H 798.394 3.79981 0.809122 0
M  V30 7932 H 800.066 4.2645 -1.75891 0
M  V30 7933 H 798.309 3.9833 -1.71801 0
M  V30 7934 H 798.98 5.43454 -0.967578 0
M  V30 7935 H 801.456 4.13594 0.455977 0
M  V30 7936 H 800.332 5.38939 1.04098 0
M  V30 7937 H 800.593 3.94202 2.00144 0
M  V30 7938 N 799.652 0.226554 1.55963 0
M  V30 7939 C 801.063 -0.280381 1.84583 0
M  V30 7940 C 801.414 -1.59105 1.14804 0
M  V30 7941 O 800.539 -2.12297 0.419414 0
M  V30 7942 C 801.134 -0.515499 3.34855 0
M  V30 7943 C 799.693 -0.966733 3.63774 0
M  V30 7944 C 798.84 -0.0325753 2.77281 0
M  V30 7945 H 801.791 0.449626 1.52197 0
M  V30 7946 H 801.812 -1.36085 3.55332 0
M  V30 7947 H 801.324 0.438594 3.85614 0
M  V30 7948 H 799.425 -1.93401 3.18476 0
M  V30 7949 H 799.538 -0.837679 4.7172 0
M  V30 7950 H 797.902 -0.540279 2.48904 0
M  V30 7951 H 798.685 0.916524 3.30839 0
M  V30 7952 N 801.13 -1.57531 -0.0467866 0
M  V30 7953 C 802.376 -1.8873 -0.742218 0
M  V30 7954 C 802.709 -0.822084 -1.75941 0
M  V30 7955 O 801.984 0.164922 -1.938 0
M  V30 7956 C 802.267 -3.30586 -1.42776 0
M  V30 7957 C 802.12 -4.47785 -0.425285 0
M  V30 7958 C 803.439 -3.71068 -2.36636 0
M  V30 7959 H 800.558 -0.686406 -0.268359 0
M  V30 7960 H 803.2 -1.89999 -0.00511341 0
M  V30 7961 H 801.35 -3.29634 -2.05605 0
M  V30 7962 H 803.022 -4.60867 0.199721 0
M  V30 7963 H 801.265 -4.33037 0.25713 0
M  V30 7964 H 801.936 -5.43884 -0.943086 0
M  V30 7965 H 804.412 -3.73273 -1.83866 0
M  V30 7966 H 803.288 -4.71165 -2.81593 0
M  V30 7967 H 803.549 -3.02355 -3.22542 0
M  V30 7968 N 802.608 0.318715 -1.54344 0
M  V30 7969 C 803.556 1.41254 -1.84798 0
M  V30 7970 C 804.55 1.53325 -0.720256 0
M  V30 7971 O 805.756 1.55653 -0.903992 0
M  V30 7972 H 802.131 0.471468 -0.585851 0
M  V30 7973 H 804.102 1.12795 -2.7626 0
M  V30 7974 C 802.851 2.77395 -2.09637 0
M  V30 7975 H 802.174 2.68881 -2.95876 0
M  V30 7976 H 803.614 3.52987 -2.34896 0
M  V30 7977 C 802.073 3.24948 -0.889398 0
M  V30 7978 O 802.603 4.01573 -0.101063 0
M  V30 7979 N 800.809 2.82051 -0.699684 0
M  V30 7980 H 800.356 2.19858 -1.3424 0
M  V30 7981 H 800.314 3.1422 0.106368 0
M  V30 7982 N 804.086 1.46499 0.581025 0
M  V30 7983 C 805.018 1.53225 1.70455 0
M  V30 7984 C 806.031 0.420443 1.57277 0
M  V30 7985 O 807.22 0.688888 1.64671 0
M  V30 7986 C 804.32 1.39803 3.08721 0
M  V30 7987 C 803.493 2.65132 3.47884 0
M  V30 7988 C 802.552 2.45886 4.65217 0
M  V30 7989 O 801.578 3.19615 4.70993 0
M  V30 7990 N 802.78 1.5216 5.60203 0
M  V30 7991 H 805.545 2.50098 1.65139 0
M  V30 7992 H 803.106 1.42576 0.76705 0
M  V30 7993 H 805.098 1.24697 3.8501 0
M  V30 7994 H 803.668 0.51104 3.08394 0
M  V30 7995 H 802.888 2.95169 2.61284 0
M  V30 7996 H 804.176 3.48385 3.70817 0
M  V30 7997 H 803.574 0.913646 5.58273 0
M  V30 7998 H 802.131 1.43017 6.35916 0
M  V30 7999 N 805.565 -0.825799 1.34232 0
M  V30 8000 C 806.981 -1.11848 1.13851 0
M  V30 8001 C 807.181 -2.01405 -0.0619031 0
M  V30 8002 O 806.237 -2.41465 -0.738287 0
M  V30 8003 C 807.55 -1.76797 2.43235 0
M  V30 8004 C 809.098 -1.89304 2.49265 0
M  V30 8005 C 809.573 -2.57669 3.78643 0
M  V30 8006 N 811.064 -2.65171 3.79788 0
M  V30 8007 C 811.799 -3.1879 4.76614 0
M  V30 8008 N 811.295 -3.72995 5.83821 0
M  V30 8009 N 813.088 -3.17164 4.64073 0
M  V30 8010 H 805.239 -0.230049 2.11151 0
M  V30 8011 H 807.502 -0.164609 0.9336 0
M  V30 8012 H 807.208 -1.18455 3.31152 0
M  V30 8013 H 807.082 -2.76693 2.56361 0
M  V30 8014 H 809.469 -2.46796 1.6179 0
M  V30 8015 H 809.55 -0.883191 2.4007 0
M  V30 8016 H 809.194 -2.00833 4.66507 0
M  V30 8017 H 809.124 -3.59152 3.8512 0
M  V30 8018 H 811.615 -2.26746 3.02315 0
M  V30 8019 H 811.928 -4.12151 6.53721 0
M  V30 8020 H 810.273 -3.71246 5.87538 0
M  V30 8021 H 813.464 -2.74082 3.79469 0
M  V30 8022 H 813.637 -3.58647 5.397 0
M  V30 8023 N 807.043 -1.17915 -1.04565 0
M  V30 8024 C 808.291 -0.969505 -1.77327 0
M  V30 8025 C 808.612 0.502569 -1.88412 0
M  V30 8026 O 807.882 1.36467 -1.40547 0
M  V30 8027 H 806.462 -0.355723 -0.656864 0
M  V30 8028 H 809.124 -1.48506 -1.26223 0
M  V30 8029 H 808.22 -1.40324 -2.78775 0
M  V30 8030 N 808.521 1.23394 -0.980386 0
M  V30 8031 C 809.769 1.91431 -0.647978 0
M  V30 8032 C 810.09 1.76871 0.821066 0
M  V30 8033 O 809.36 1.14808 1.58732 0
M  V30 8034 H 807.94 0.708516 -0.236673 0
M  V30 8035 H 810.602 1.50019 -1.2442 0
M  V30 8036 H 809.698 2.98854 -0.899592 0
M  V30 8037 N 809.999 0.752036 1.385 0
M  V30 8038 C 811.248 0.304294 1.99391 0
M  V30 8039 C 811.561 -1.11982 1.60373 0
M  V30 8040 O 812.767 -1.66795 2.14223 0
M  V30 8041 C 811.223 0.493101 3.56506 0
M  V30 8042 C 810.831 1.9262 4.04477 0
M  V30 8043 C 812.575 0.107994 4.24363 0
M  V30 8044 C 810.482 2.06365 5.54227 0
M  V30 8045 H 809.412 0.110024 0.745929 0
M  V30 8046 H 812.063 0.928355 1.58284 0
M  V30 8047 H 810.445 -0.20012 3.95494 0
M  V30 8048 H 811.619 2.65276 3.76783 0
M  V30 8049 H 809.934 2.26608 3.49339 0
M  V30 8050 H 812.531 0.189474 5.34364 0
M  V30 8051 H 812.874 -0.939165 4.05568 0
M  V30 8052 H 813.407 0.753011 3.90608 0
M  V30 8053 H 810.146 3.0933 5.77923 0
M  V30 8054 H 809.666 1.38167 5.83669 0
M  V30 8055 H 811.345 1.85286 6.19902 0
M  V30 8056 N 811.477 -1.49425 0.500989 0
M  V30 8057 C 812.702 -2.07356 -0.0425154 0
M  V30 8058 C 813.127 -1.35887 -1.30063 0
M  V30 8059 O 812.485 -0.41561 -1.76472 0
M  V30 8060 C 812.533 -3.59518 -0.279188 0
M  V30 8061 O 811.637 -3.89542 -1.3539 0
M  V30 8062 H 810.978 -0.663482 0.0262207 0
M  V30 8063 H 813.508 -1.92231 0.700607 0
M  V30 8064 H 813.518 -4.04791 -0.5107 0
M  V30 8065 H 812.193 -4.10946 0.640009 0
M  V30 8066 H 810.77 -3.56079 -1.10734 0
M  V30 8067 N 812.955 -0.234822 -1.55841 0
M  V30 8068 C 814.201 0.393843 -1.98939 0
M  V30 8069 C 814.534 1.58466 -1.1226 0
M  V30 8070 O 813.809 1.93635 -0.183242 0
M  V30 8071 C 814.092 0.815492 -3.50745 0
M  V30 8072 C 813.945 -0.379878 -4.48193 0
M  V30 8073 C 815.264 1.66687 -4.07312 0
M  V30 8074 H 812.383 0.141681 -0.723253 0
M  V30 8075 H 815.025 -0.333716 -1.87046 0
M  V30 8076 H 813.175 1.43541 -3.6101 0
M  V30 8077 H 814.847 -1.0182 -4.49923 0
M  V30 8078 H 813.09 -1.02507 -4.21515 0
M  V30 8079 H 813.761 -0.0417069 -5.51984 0
M  V30 8080 H 816.237 1.14369 -4.00074 0
M  V30 8081 H 815.113 1.93078 -5.13821 0
M  V30 8082 H 815.374 2.63468 -3.55017 0
M  V30 8083 N 814.433 1.57553 0.0384317 0
M  V30 8084 C 815.679 1.89973 0.726772 0
M  V30 8085 C 816.034 0.832381 1.73462 0
M  V30 8086 O 815.327 -0.159975 1.90931 0
M  V30 8087 C 815.521 3.26862 1.44554 0
M  V30 8088 C 815.35 4.46812 0.508814 0
M  V30 8089 C 814.12 5.05124 0.133323 0
M  V30 8090 C 816.318 5.13876 -0.20881 0
M  V30 8091 N 814.3 6.08591 -0.805636 0
M  V30 8092 C 815.671 6.11821 -1.00376 0
M  V30 8093 C 817.726 4.9713 -0.276749 0
M  V30 8094 C 816.429 6.94825 -1.86038 0
M  V30 8095 C 818.455 5.80689 -1.12047 0
M  V30 8096 C 817.817 6.78197 -1.90337 0
M  V30 8097 H 813.916 0.744153 0.240334 0
M  V30 8098 H 816.5 1.94696 -0.0128735 0
M  V30 8099 H 814.671 3.23085 2.1557 0
M  V30 8100 H 816.403 3.46826 2.08552 0
M  V30 8101 H 813.158 4.71022 0.493484 0
M  V30 8102 H 813.582 6.64994 -1.26935 0
M  V30 8103 H 818.224 4.21631 0.314222 0
M  V30 8104 H 815.942 7.69676 -2.46219 0
M  V30 8105 H 819.528 5.69782 -1.17645 0
M  V30 8106 H 818.408 7.41731 -2.54569 0
M  V30 8107 N 815.911 -0.310526 1.54511 0
M  V30 8108 C 817.159 -1.04484 1.72996 0
M  V30 8109 C 817.48 -1.88118 0.513479 0
M  V30 8110 O 816.75 -1.90119 -0.472384 0
M  V30 8111 H 815.33 -0.388747 0.637875 0
M  V30 8112 H 817.992 -0.343811 1.91844 0
M  V30 8113 H 817.088 -1.70341 2.61515 0
M  V30 8114 N 817.389 -1.46805 -0.573248 0
M  V30 8115 C 818.617 -1.56191 -1.3569 0
M  V30 8116 C 819.032 -0.206362 -1.87669 0
M  V30 8117 O 818.389 0.797883 -1.64134 0
M  V30 8118 C 818.44 -2.57433 -2.53792 0
M  V30 8119 O 818.161 -3.87724 -2.03965 0
M  V30 8120 C 819.662 -2.76851 -3.4622 0
M  V30 8121 H 816.882 -0.527907 -0.414192 0
M  V30 8122 H 819.426 -1.92292 -0.695989 0
M  V30 8123 H 817.581 -2.24311 -3.15854 0
M  V30 8124 H 817.995 -4.42909 -2.80948 0
M  V30 8125 H 819.469 -3.5159 -4.25545 0
M  V30 8126 H 819.946 -1.84095 -3.98755 0
M  V30 8127 H 820.552 -3.11107 -2.89987 0
M  V30 8128 N 818.867 0.818669 -1.34668 0
M  V30 8129 C 820.095 1.60674 -1.30351 0
M  V30 8130 C 820.51 1.88408 0.121546 0
M  V30 8131 O 819.867 1.47849 1.06991 0
M  V30 8132 C 819.918 2.94516 -2.09625 0
M  V30 8133 O 819.639 2.6799 -3.46573 0
M  V30 8134 C 821.14 3.8891 -2.12754 0
M  V30 8135 H 818.36 0.499306 -0.448258 0
M  V30 8136 H 820.904 1.01828 -1.77345 0
M  V30 8137 H 819.059 3.49908 -1.66262 0
M  V30 8138 H 819.473 3.53361 -3.87603 0
M  V30 8139 H 820.947 4.79972 -2.72637 0
M  V30 8140 H 821.424 4.24599 -1.12306 0
M  V30 8141 H 822.03 3.39453 -2.56225 0
M  V30 8142 N 820.346 1.18468 1.03938 0
M  V30 8143 C 821.623 0.890435 1.74157 0
M  V30 8144 C 822.003 -0.606409 2.02203 0
M  V30 8145 O 821.351 -1.5615 1.66822 0
M  V30 8146 C 821.561 1.73906 3.02585 0
M  V30 8147 C 822.909 1.96686 3.76297 0
M  V30 8148 O 823.933 1.70969 3.12487 0
M  V30 8149 O 822.792 2.39986 4.90988 0
M  V30 8150 H 819.886 0.330889 0.757919 0
M  V30 8151 H 822.432 1.29228 1.09992 0
M  V30 8152 H 821.204 2.75369 2.78006 0
M  V30 8153 H 820.827 1.33581 3.74489 0
M  V30 8154 N 821.824 -1.22873 0.986916 0
M  V30 8155 C 822.787 -2.2281 0.537442 0
M  V30 8156 C 823.787 -1.56331 -0.37646 0
M  V30 8157 O 824.977 -1.73376 -0.169247 0
M  V30 8158 C 822.109 -3.40195 -0.219082 0
M  V30 8159 H 823.302 -2.64089 1.42116 0
M  V30 8160 H 820.855 -1.35819 0.773488 0
M  V30 8161 H 821.59 -3.04381 -1.11905 0
M  V30 8162 H 821.375 -3.89657 0.437026 0
M  V30 8163 H 822.865 -4.14326 -0.521926 0
M  V30 8164 N 823.302 -0.75937 -1.38099 0
M  V30 8165 C 824.25 -0.124954 -2.32264 0
M  V30 8166 C 825.244 0.698863 -1.54312 0
M  V30 8167 O 826.45 0.597312 -1.698 0
M  V30 8168 H 822.825 -0.0216142 -0.751689 0
M  V30 8169 H 824.796 -0.935115 -2.83369 0
M  V30 8170 C 823.545 0.749463 -3.39527 0
M  V30 8171 H 822.868 0.124932 -3.99605 0
M  V30 8172 H 824.308 1.16055 -4.07808 0
M  V30 8173 C 822.767 1.89464 -2.78577 0
M  V30 8174 O 823.297 2.98923 -2.68343 0
M  V30 8175 N 821.503 1.69145 -2.36301 0
M  V30 8176 H 821.05 0.801157 -2.44825 0
M  V30 8177 H 821.008 2.45936 -1.95864 0
M  V30 8178 N 824.78 1.49157 -0.508906 0
M  V30 8179 C 826.008 2.06879 0.0293734 0
M  V30 8180 C 826.423 1.36823 1.30095 0
M  V30 8181 O 825.78 0.449034 1.7689 0
M  V30 8182 C 825.831 3.60423 0.278791 0
M  V30 8183 O 825.552 4.27844 -0.942389 0
M  V30 8184 C 827.053 4.34881 0.859825 0
M  V30 8185 H 824.273 0.67057 -0.0240184 0
M  V30 8186 H 826.817 1.91834 -0.708526 0
M  V30 8187 H 824.972 3.75145 0.966689 0
M  V30 8188 H 825.386 5.19671 -0.710097 0
M  V30 8189 H 826.86 5.43161 0.983884 0
M  V30 8190 H 827.337 3.9789 1.85958 0
M  V30 8191 H 827.943 4.24785 0.209152 0
M  V30 8192 N 826.258 0.243083 1.55714 0
M  V30 8193 C 827.504 -0.376428 1.99886 0
M  V30 8194 C 827.859 -1.55843 1.12831 0
M  V30 8195 O 827.152 -1.90724 0.182996 0
M  V30 8196 C 827.346 -0.839621 3.47398 0
M  V30 8197 C 827.175 0.295954 4.48725 0
M  V30 8198 C 825.945 0.769392 4.99408 0
M  V30 8199 C 828.143 1.12165 5.0192 0
M  V30 8200 N 826.125 1.87778 5.84477 0
M  V30 8201 C 827.496 2.07848 5.84123 0
M  V30 8202 C 829.551 1.15864 4.84231 0
M  V30 8203 C 828.254 3.06937 6.50524 0
M  V30 8204 C 830.28 2.13782 5.51409 0
M  V30 8205 C 829.642 3.08202 6.33396 0
M  V30 8206 H 825.741 -0.103809 0.775079 0
M  V30 8207 H 828.325 0.359788 1.91347 0
M  V30 8208 H 826.496 -1.54514 3.56343 0
M  V30 8209 H 828.228 -1.43376 3.78451 0
M  V30 8210 H 824.983 0.354201 4.72274 0
M  V30 8211 H 825.407 2.43462 6.31708 0
M  V30 8212 H 830.049 0.442532 4.20478 0
M  V30 8213 H 827.767 3.79499 7.13447 0
M  V30 8214 H 831.353 2.17345 5.39678 0
M  V30 8215 H 830.233 3.82732 6.8446 0
M  V30 8216 N 827.736 -1.57571 -0.0300757 0
M  V30 8217 C 828.666 -2.0953 -1.03051 0
M  V30 8218 C 829.647 -0.99761 -1.37774 0
M  V30 8219 O 830.832 -1.27279 -1.46676 0
M  V30 8220 C 827.962 -2.57385 -2.33174 0
M  V30 8221 C 826.916 -3.71409 -2.12696 0
M  V30 8222 C 826.242 -4.05467 -3.4857 0
M  V30 8223 C 827.542 -4.99877 -1.51396 0
M  V30 8224 H 829.236 -2.93367 -0.597999 0
M  V30 8225 H 826.782 -1.41127 -0.286203 0
M  V30 8226 H 828.735 -2.92355 -3.03491 0
M  V30 8227 H 827.459 -1.70629 -2.78484 0
M  V30 8228 H 826.118 -3.36786 -1.44813 0
M  V30 8229 H 825.766 -3.15779 -3.91526 0
M  V30 8230 H 825.466 -4.82269 -3.35694 0
M  V30 8231 H 826.99 -4.4297 -4.2025 0
M  V30 8232 H 828.404 -5.3281 -2.11629 0
M  V30 8233 H 826.801 -5.81283 -1.49098 0
M  V30 8234 H 827.871 -4.82522 -0.479676 0
M  V30 8235 N 829.214 0.302327 -1.54673 0
M  V30 8236 C 830.491 1.05721 -1.64567 0
M  V30 8237 C 830.871 2.0526 -0.493108 0
M  V30 8238 O 830.219 2.22729 0.510315 0
M  V30 8239 C 830.429 1.74025 -3.02517 0
M  V30 8240 C 831.777 2.26271 -3.59286 0
M  V30 8241 O 832.801 1.8406 -3.0496 0
M  V30 8242 O 831.66 3.0361 -4.54404 0
M  V30 8243 H 828.754 0.488577 -0.667249 0
M  V30 8244 H 831.3 0.300521 -1.67018 0
M  V30 8245 H 830.072 1.0174 -3.77842 0
M  V30 8246 H 829.695 2.56454 -3.03838 0
M  V30 8247 N 830.692 1.47107 0.565454 0
M  V30 8248 C 831.94 1.53005 1.32038 0
M  V30 8249 C 832.261 0.190453 1.94068 0
M  V30 8250 O 831.531 -0.784783 1.79494 0
M  V30 8251 H 830.111 0.563578 0.490294 0
M  V30 8252 H 832.773 1.83351 0.660928 0
M  V30 8253 H 831.869 2.29215 2.11818 0
M  V30 8254 N 832.17 -0.811516 1.35101 0
M  V30 8255 C 833.1 -1.9378 1.30275 0
M  V30 8256 C 834.081 -1.69165 0.178075 0
M  V30 8257 O 835.266 -1.90599 0.372256 0
M  V30 8258 C 832.396 -3.30439 1.06899 0
M  V30 8259 C 831.35 -3.69523 2.15955 0
M  V30 8260 C 830.676 -5.0429 1.77751 0
M  V30 8261 C 831.976 -3.80419 3.57881 0
M  V30 8262 H 833.67 -1.98075 2.24514 0
M  V30 8263 H 831.216 -0.951586 1.08078 0
M  V30 8264 H 833.169 -4.08828 1.02164 0
M  V30 8265 H 831.893 -3.26473 0.0910462 0
M  V30 8266 H 830.552 -2.93416 2.19778 0
M  V30 8267 H 830.2 -4.96823 0.785876 0
M  V30 8268 H 829.9 -5.31411 2.5075 0
M  V30 8269 H 831.424 -5.85125 1.74533 0
M  V30 8270 H 832.838 -4.49051 3.56407 0
M  V30 8271 H 831.235 -4.19005 4.29598 0
M  V30 8272 H 832.305 -2.82105 3.94391 0
M  V30 8273 N 833.648 -1.19017 -1.03309 0
M  V30 8274 C 834.878 -1.01387 -1.80012 0
M  V30 8275 C 835.286 0.440655 -1.83997 0
M  V30 8276 O 834.629 1.31786 -1.27977 0
M  V30 8277 C 834.691 -1.50171 -3.26633 0
M  V30 8278 C 834.355 -2.98213 -3.46292 0
M  V30 8279 C 835.352 -3.96009 -3.36857 0
M  V30 8280 C 833.037 -3.36812 -3.72643 0
M  V30 8281 C 835.031 -5.30399 -3.5349 0
M  V30 8282 C 832.718 -4.71363 -3.88922 0
M  V30 8283 C 833.716 -5.67966 -3.79347 0
M  V30 8284 O 833.404 -7.00079 -3.95151 0
M  V30 8285 H 833.136 -0.357899 -0.573484 0
M  V30 8286 H 835.69 -1.58171 -1.31039 0
M  V30 8287 H 833.92 -0.877586 -3.7661 0
M  V30 8288 H 835.609 -1.28814 -3.84918 0
M  V30 8289 H 836.375 -3.67534 -3.16455 0
M  V30 8290 H 832.254 -2.62175 -3.7919 0
M  V30 8291 H 835.798 -6.05786 -3.45933 0
M  V30 8292 H 831.695 -4.99536 -4.0882 0
M  V30 8293 H 832.463 -7.07092 -4.12266 0
M  V30 8294 N 835.127 1.22348 -0.993418 0
M  V30 8295 C 836.543 1.43222 -0.704238 0
M  V30 8296 C 836.743 1.88009 0.724909 0
M  V30 8297 O 835.799 2.03429 1.49575 0
M  V30 8298 C 837.112 2.47328 -1.71025 0
M  V30 8299 C 838.66 2.61126 -1.72576 0
M  V30 8300 C 839.135 3.68453 -2.72041 0
M  V30 8301 N 840.626 3.75911 -2.70639 0
M  V30 8302 C 841.361 4.58551 -3.44266 0
M  V30 8303 N 840.857 5.45179 -4.27495 0
M  V30 8304 N 842.65 4.52866 -3.32969 0
M  V30 8305 H 834.801 0.915832 -1.91641 0
M  V30 8306 H 837.064 0.464283 -0.826526 0
M  V30 8307 H 836.77 2.21366 -2.73295 0
M  V30 8308 H 836.644 3.45939 -1.50353 0
M  V30 8309 H 839.031 2.86431 -0.710037 0
M  V30 8310 H 839.112 1.62787 -1.97317 0
M  V30 8311 H 838.756 3.43895 -3.73763 0
M  V30 8312 H 838.686 4.66362 -2.4457 0
M  V30 8313 H 841.177 3.14014 -2.10247 0
M  V30 8314 H 841.49 6.0526 -4.80499 0
M  V30 8315 H 839.835 5.44759 -4.31582 0
M  V30 8316 H 843.026 3.84215 -2.67389 0
M  V30 8317 H 843.199 5.17039 -3.90608 0
M  V30 8318 N 836.605 0.766683 1.37694 0
M  V30 8319 C 837.515 0.150158 2.34119 0
M  V30 8320 C 838.531 -0.685513 1.59927 0
M  V30 8321 O 839.707 -0.606616 1.92047 0
M  V30 8322 C 836.772 -0.722562 3.39087 0
M  V30 8323 C 835.833 0.128983 4.29106 0
M  V30 8324 C 835.066 -0.702178 5.29061 0
M  V30 8325 O 835.289 -1.93954 5.36412 0
M  V30 8326 O 834.223 -0.114056 6.01792 0
M  V30 8327 H 838.049 0.946829 2.88563 0
M  V30 8328 H 835.634 0.527765 1.39768 0
M  V30 8329 H 837.516 -1.22095 4.03325 0
M  V30 8330 H 836.191 -1.49751 2.86978 0
M  V30 8331 H 835.098 0.673612 3.67985 0
M  V30 8332 H 836.431 0.866892 4.84506 0
M  V30 8333 N 838.083 -1.48885 0.516809 0
M  V30 8334 C 839.015 -2.27357 -0.290061 0
M  V30 8335 C 840.028 -1.34558 -0.916406 0
M  V30 8336 O 841.217 -1.59715 -0.797073 0
M  V30 8337 C 838.317 -3.07496 -1.42476 0
M  V30 8338 C 837.49 -4.27982 -0.902793 0
M  V30 8339 C 836.549 -4.90038 -1.91701 0
M  V30 8340 O 835.575 -5.49643 -1.47922 0
M  V30 8341 N 836.777 -4.811 -3.24843 0
M  V30 8342 H 839.542 -2.97244 0.382884 0
M  V30 8343 H 837.103 -1.58064 0.35032 0
M  V30 8344 H 839.095 -3.45882 -2.10113 0
M  V30 8345 H 837.665 -2.40115 -2.00159 0
M  V30 8346 H 836.885 -3.94167 -0.0508272 0
M  V30 8347 H 838.173 -5.06003 -0.532723 0
M  V30 8348 H 837.571 -4.33801 -3.63088 0
M  V30 8349 H 836.128 -5.23625 -3.8815 0
M  V30 8350 N 839.561 -0.251338 -1.55583 0
M  V30 8351 C 840.808 0.372169 -1.99051 0
M  V30 8352 C 841.136 1.57623 -1.13953 0
M  V30 8353 O 840.391 1.94762 -0.191398 0
M  V30 8354 C 840.69 0.821186 -3.47838 0
M  V30 8355 C 840.356 -0.275608 -4.50057 0
M  V30 8356 C 839.018 -0.57683 -4.7773 0
M  V30 8357 C 841.37 -1.01585 -5.11204 0
M  V30 8358 C 838.698 -1.62229 -5.63825 0
M  V30 8359 C 841.05 -2.05087 -5.98433 0
M  V30 8360 C 839.714 -2.35869 -6.24437 0
M  V30 8361 H 838.984 0.136186 -0.728378 0
M  V30 8362 H 841.631 -0.360089 -1.88084 0
M  V30 8363 H 839.936 1.63272 -3.56159 0
M  V30 8364 H 841.633 1.31396 -3.78861 0
M  V30 8365 H 838.223 -0.030697 -4.28589 0
M  V30 8366 H 842.407 -0.79639 -4.89869 0
M  V30 8367 H 837.663 -1.86607 -5.82226 0
M  V30 8368 H 841.837 -2.62934 -6.44855 0
M  V30 8369 H 839.464 -3.17017 -6.90944 0
M  V30 8370 N 841.039 1.57585 0.0217189 0
M  V30 8371 C 841.949 2.10444 1.03684 0
M  V30 8372 C 842.965 1.04472 1.39146 0
M  V30 8373 O 844.141 1.36249 1.48317 0
M  V30 8374 C 841.206 2.5794 2.31664 0
M  V30 8375 C 840.267 3.78425 2.02714 0
M  V30 8376 C 839.5 4.23646 3.24592 0
M  V30 8377 O 839.723 3.6834 4.35525 0
M  V30 8378 O 838.657 5.16013 3.09862 0
M  V30 8379 H 842.483 2.97354 0.617584 0
M  V30 8380 H 840.068 1.47473 0.239174 0
M  V30 8381 H 841.95 2.88785 3.06889 0
M  V30 8382 H 840.625 1.74138 2.7287 0
M  V30 8383 H 839.532 3.52587 1.25033 0
M  V30 8384 H 840.865 4.63234 1.66359 0
M  V30 8385 N 842.517 -0.29412 1.54831 0
M  V30 8386 C 843.794 -1.04847 1.65126 0
M  V30 8387 C 844.174 -2.04996 0.503986 0
M  V30 8388 O 843.522 -2.22996 -0.498496 0
M  V30 8389 C 843.732 -1.72418 3.03435 0
M  V30 8390 C 845.08 -2.24362 3.60481 0
M  V30 8391 O 846.104 -1.8244 3.05932 0
M  V30 8392 O 844.963 -3.01196 4.56008 0
M  V30 8393 H 842.057 -0.485032 0.669831 0
M  V30 8394 H 844.603 -0.291659 1.67175 0
M  V30 8395 H 843.375 -0.997351 3.78376 0
M  V30 8396 H 842.998 -2.54839 3.05193 0
M  V30 8397 N 843.995 -1.47404 -0.557645 0
M  V30 8398 C 844.905 -1.62491 -1.69216 0
M  V30 8399 C 845.921 -0.507764 -1.66426 0
M  V30 8400 O 847.097 -0.775241 -1.85882 0
M  V30 8401 C 844.162 -1.63511 -3.05721 0
M  V30 8402 C 843.223 -2.86648 -3.1958 0
M  V30 8403 C 842.456 -2.87609 -4.49574 0
M  V30 8404 O 842.679 -1.97799 -5.35006 0
M  V30 8405 O 841.613 -3.79465 -4.67215 0
M  V30 8406 H 845.439 -2.58487 -1.59431 0
M  V30 8407 H 843.024 -1.30485 -0.7276 0
M  V30 8408 H 844.906 -1.66863 -3.86956 0
M  V30 8409 H 843.581 -0.706812 -3.15889 0
M  V30 8410 H 842.488 -2.8884 -2.37744 0
M  V30 8411 H 843.821 -3.7877 -3.14316 0
M  V30 8412 N 845.473 0.80434 -1.35529 0
M  V30 8413 C 846.42 1.91629 -1.28635 0
M  V30 8414 C 847.39 1.65348 -0.157862 0
M  V30 8415 O 848.575 1.87711 -0.341934 0
M  V30 8416 C 845.715 3.28207 -1.0665 0
M  V30 8417 C 844.828 3.66659 -2.28441 0
M  V30 8418 C 843.963 4.92279 -1.99588 0
M  V30 8419 C 843.002 5.23365 -3.1742 0
M  V30 8420 N 842.139 6.40165 -2.88328 0
M  V30 8421 H 846.979 1.96858 -2.23721 0
M  V30 8422 H 844.516 0.962871 -1.11208 0
M  V30 8423 H 846.474 4.06945 -0.919343 0
M  V30 8424 H 845.104 3.22441 -0.152253 0
M  V30 8425 H 844.156 2.83164 -2.54013 0
M  V30 8426 H 845.468 3.8559 -3.1642 0
M  V30 8427 H 844.622 5.78847 -1.81715 0
M  V30 8428 H 843.361 4.75387 -1.08896 0
M  V30 8429 H 842.366 4.35285 -3.35867 0
M  V30 8430 H 843.591 5.42185 -4.08916 0
M  V30 8431 H 841.537 6.24694 -2.00233 0
M  V30 8432 H 841.454 6.59357 -3.69843 0
M  V30 8433 H 842.722 7.29755 -2.74002 0
M  V30 8434 N 846.951 1.19563 1.02676 0
M  V30 8435 C 848.2 0.993864 1.75514 0
M  V30 8436 C 848.513 -0.475882 1.89723 0
M  V30 8437 O 849.719 -0.796525 2.59553 0
M  V30 8438 C 848.175 1.72937 3.15628 0
M  V30 8439 C 847.783 3.23937 3.09466 0
M  V30 8440 C 849.527 1.61092 3.92746 0
M  V30 8441 C 847.434 3.90067 4.44524 0
M  V30 8442 H 846.364 0.368244 0.657961 0
M  V30 8443 H 849.015 1.43081 1.14891 0
M  V30 8444 H 847.397 1.22025 3.76731 0
M  V30 8445 H 848.571 3.81983 2.57731 0
M  V30 8446 H 846.886 3.3608 2.45843 0
M  V30 8447 H 849.483 2.07848 4.92649 0
M  V30 8448 H 849.826 0.565415 4.12442 0
M  V30 8449 H 850.359 2.09361 3.3825 0
M  V30 8450 H 847.098 4.94725 4.30032 0
M  V30 8451 H 846.618 3.36809 4.96306 0
M  V30 8452 H 848.297 3.93736 5.13401 0
M  V30 8453 N 848.429 -1.21819 0.999893 0
M  V30 8454 C 849.654 -1.95298 0.698094 0
M  V30 8455 C 850.079 -1.73273 -0.731982 0
M  V30 8456 O 849.437 -1.01634 -1.50134 0
M  V30 8457 C 849.485 -3.45922 1.01834 0
M  V30 8458 O 848.589 -4.12223 0.120801 0
M  V30 8459 H 847.93 -0.610729 0.260588 0
M  V30 8460 H 850.46 -1.5472 1.33876 0
M  V30 8461 H 850.47 -3.96471 0.963074 0
M  V30 8462 H 849.145 -3.61278 2.06037 0
M  V30 8463 H 847.722 -3.72177 0.232153 0
M  V30 8464 N 849.908 -0.773975 -1.37286 0
M  V30 8465 C 851.154 -0.348833 -2.00386 0
M  V30 8466 C 851.509 1.06347 -1.60337 0
M  V30 8467 O 850.802 1.72178 -0.840545 0
M  V30 8468 C 850.996 -0.432651 -3.54772 0
M  V30 8469 C 850.825 -1.85155 -4.09814 0
M  V30 8470 C 849.595 -2.47272 -4.40664 0
M  V30 8471 C 851.793 -2.8114 -4.30656 0
M  V30 8472 N 849.775 -3.80912 -4.81435 0
M  V30 8473 C 851.146 -3.99582 -4.74061 0
M  V30 8474 C 853.201 -2.78398 -4.12794 0
M  V30 8475 C 851.904 -5.1567 -5.01475 0
M  V30 8476 C 853.93 -3.9366 -4.41345 0
M  V30 8477 C 853.292 -5.10844 -4.84992 0
M  V30 8478 H 849.391 -0.174738 -0.762227 0
M  V30 8479 H 851.975 -1.00828 -1.66559 0
M  V30 8480 H 850.146 0.19663 -3.87902 0
M  V30 8481 H 851.878 0.0147601 -4.04697 0
M  V30 8482 H 848.633 -1.98872 -4.29822 0
M  V30 8483 H 849.057 -4.49628 -5.06126 0
M  V30 8484 H 853.699 -1.8897 -3.7822 0
M  V30 8485 H 851.417 -6.05696 -5.34938 0
M  V30 8486 H 855.003 -3.92882 -4.2911 0
M  V30 8487 H 853.883 -5.98553 -5.0666 0
M  V30 8488 N 851.386 1.48609 -0.524698 0
M  V30 8489 C 852.797 1.86516 -0.0828846 0
M  V30 8490 C 853.148 1.43478 1.33822 0
M  V30 8491 O 852.273 0.823139 2.00133 0
M  V30 8492 C 852.868 3.38495 -0.143639 0
M  V30 8493 C 851.427 3.75615 0.242951 0
M  V30 8494 C 850.574 2.72649 -0.505747 0
M  V30 8495 H 853.525 1.40589 -0.736233 0
M  V30 8496 H 853.546 3.74977 0.645955 0
M  V30 8497 H 853.058 3.69789 -1.17805 0
M  V30 8498 H 851.159 3.49935 1.27971 0
M  V30 8499 H 851.272 4.7901 -0.0929834 0
M  V30 8500 H 849.636 2.54656 0.0473482 0
M  V30 8501 H 850.419 3.06786 -1.54069 0
M  V30 8502 N 852.864 0.259585 1.55447 0
M  V30 8503 C 853.794 -0.62852 2.24882 0
M  V30 8504 C 854.775 -1.17128 1.23349 0
M  V30 8505 O 855.96 -1.20829 1.52033 0
M  V30 8506 C 853.09 -1.81983 2.95803 0
M  V30 8507 C 852.044 -1.40929 4.04132 0
M  V30 8508 C 851.37 -2.68246 4.62545 0
M  V30 8509 C 852.67 -0.570956 5.1917 0
M  V30 8510 H 854.364 -0.0495021 2.99359 0
M  V30 8511 H 851.91 -0.0223688 1.43983 0
M  V30 8512 H 853.863 -2.44689 3.43082 0
M  V30 8513 H 852.587 -2.42444 2.18835 0
M  V30 8514 H 851.246 -0.805519 3.57641 0
M  V30 8515 H 850.894 -3.26931 3.82263 0
M  V30 8516 H 850.594 -2.41495 5.35681 0
M  V30 8517 H 852.118 -3.31827 5.12565 0
M  V30 8518 H 853.532 -1.10262 5.62597 0
M  V30 8519 H 851.929 -0.398979 5.98772 0
M  V30 8520 H 852.999 0.413918 4.8313 0
M  V30 8521 N 854.342 -1.57594 -0.0133615 0
M  V30 8522 C 855.272 -2.10611 -1.00823 0
M  V30 8523 C 856.253 -1.01217 -1.36708 0
M  V30 8524 O 857.438 -1.28827 -1.45318 0
M  V30 8525 C 854.568 -2.59844 -2.30431 0
M  V30 8526 C 853.522 -3.73644 -2.08745 0
M  V30 8527 C 852.848 -4.09141 -3.4425 0
M  V30 8528 C 854.148 -5.01454 -1.46086 0
M  V30 8529 H 855.842 -2.93985 -0.566849 0
M  V30 8530 H 853.388 -1.41423 -0.271219 0
M  V30 8531 H 855.341 -2.95557 -3.00373 0
M  V30 8532 H 854.065 -1.73573 -2.76658 0
M  V30 8533 H 852.724 -3.38303 -1.41232 0
M  V30 8534 H 852.372 -3.19914 -3.88155 0
M  V30 8535 H 852.072 -4.85802 -3.3056 0
M  V30 8536 H 853.596 -4.47402 -4.15528 0
M  V30 8537 H 855.01 -5.35024 -2.05966 0
M  V30 8538 H 853.407 -5.82832 -1.42924 0
M  V30 8539 H 854.477 -4.83003 -0.428471 0
M  V30 8540 N 855.82 0.285905 -1.54985 0
M  V30 8541 C 857.067 1.0192 -1.74982 0
M  V30 8542 C 857.395 1.86743 -0.543816 0
M  V30 8543 O 856.65 1.89874 0.473972 0
M  V30 8544 C 856.949 1.94193 -3.0004 0
M  V30 8545 C 856.615 1.25225 -4.33162 0
M  V30 8546 C 855.277 1.06149 -4.69346 0
M  V30 8547 C 857.629 0.760427 -5.15623 0
M  V30 8548 C 854.957 0.365991 -5.85557 0
M  V30 8549 C 857.309 0.0785787 -6.32551 0
M  V30 8550 C 855.973 -0.124002 -6.67385 0
M  V30 8551 H 855.243 0.372951 -0.640304 0
M  V30 8552 H 857.89 0.292652 -1.89251 0
M  V30 8553 H 856.195 2.73426 -2.80616 0
M  V30 8554 H 857.892 2.51029 -3.12707 0
M  V30 8555 H 854.482 1.41081 -4.04715 0
M  V30 8556 H 858.666 0.895466 -4.88155 0
M  V30 8557 H 853.922 0.198193 -6.11079 0
M  V30 8558 H 858.096 -0.310339 -6.95708 0
M  V30 8559 H 855.723 -0.664918 -7.57287 0
M  V30 8560 N 857.298 1.47698 0.54982 0
M  V30 8561 C 858.575 1.45185 1.31075 0
M  V30 8562 C 858.955 0.152768 2.10547 0
M  V30 8563 O 858.303 -0.865706 2.11466 0
M  V30 8564 C 858.513 2.70192 2.20902 0
M  V30 8565 C 859.861 3.1771 2.81683 0
M  V30 8566 O 860.885 2.70971 2.312 0
M  V30 8567 O 859.744 3.98986 3.7346 0
M  V30 8568 H 856.838 0.57892 0.590577 0
M  V30 8569 H 859.384 1.59908 0.568112 0
M  V30 8570 H 858.156 3.56269 1.61828 0
M  V30 8571 H 857.779 2.58091 3.02448 0
M  V30 8572 N 858.776 -0.797141 1.35954 0
M  V30 8573 C 859.724 -1.93084 1.29697 0
M  V30 8574 C 860.718 -1.68329 0.190152 0
M  V30 8575 O 861.924 -1.7643 0.3567 0
M  V30 8576 H 858.299 -0.634531 0.403577 0
M  V30 8577 H 860.27 -1.95481 2.25455 0
M  V30 8578 C 859.019 -3.29996 1.09536 0
M  V30 8579 H 858.342 -3.49607 1.93946 0
M  V30 8580 H 859.782 -4.09696 1.09202 0
M  V30 8581 C 858.241 -3.36304 -0.200381 0
M  V30 8582 O 858.771 -3.83579 -1.19291 0
M  V30 8583 N 856.977 -2.89587 -0.242406 0
M  V30 8584 H 856.524 -2.51307 0.565897 0
M  V30 8585 H 856.482 -2.94189 -1.10906 0
M  V30 8586 N 860.254 -1.20106 -1.0204 0
M  V30 8587 C 861.202 -0.943231 -2.12617 0
M  V30 8588 C 862.196 0.104042 -1.6908 0
M  V30 8589 O 863.402 -0.0459732 -1.79941 0
M  V30 8590 H 859.777 -0.28767 -0.694802 0
M  V30 8591 H 861.748 -1.88221 -2.3155 0
M  V30 8592 C 860.497 -0.50771 -3.43973 0
M  V30 8593 H 859.82 -1.30514 -3.77897 0
M  V30 8594 H 861.26 -0.366486 -4.22413 0
M  V30 8595 C 859.719 0.77939 -3.27761 0
M  V30 8596 O 860.249 1.83876 -3.57145 0
M  V30 8597 N 858.455 0.739931 -2.81022 0
M  V30 8598 H 858.002 -0.122426 -2.57309 0
M  V30 8599 H 857.96 1.60147 -2.70556 0
M  V30 8600 N 861.732 1.21287 -1.00634 0
M  V30 8601 C 862.962 1.94103 -0.70765 0
M  V30 8602 C 863.37 1.74382 0.733991 0
M  V30 8603 O 862.713 1.04843 1.50843 0
M  V30 8604 C 862.775 3.46705 -0.950581 0
M  V30 8605 C 862.439 3.90176 -2.37932 0
M  V30 8606 C 863.436 3.96769 -3.35961 0
M  V30 8607 C 861.121 4.22453 -2.71733 0
M  V30 8608 C 863.115 4.35034 -4.65858 0
M  V30 8609 C 860.802 4.60394 -4.01846 0
M  V30 8610 C 861.8 4.66656 -4.9872 0
M  V30 8611 O 861.488 5.03732 -6.26505 0
M  V30 8612 H 861.22 0.62405 -0.259881 0
M  V30 8613 H 863.774 1.55015 -1.34757 0
M  V30 8614 H 862.004 3.85868 -0.253492 0
M  V30 8615 H 863.693 4.00741 -0.645069 0
M  V30 8616 H 864.459 3.72009 -3.11182 0
M  V30 8617 H 860.338 4.16776 -1.97025 0
M  V30 8618 H 863.882 4.39836 -5.4147 0
M  V30 8619 H 859.779 4.84609 -4.26409 0
M  V30 8620 H 860.547 5.21761 -6.30641 0
M  V30 8621 N 863.21 0.781244 1.36873 0
M  V30 8622 C 864.158 0.161889 2.32036 0
M  V30 8623 C 865.152 -0.674225 1.55405 0
M  V30 8624 O 866.358 -0.570223 1.70729 0
M  V30 8625 H 862.733 0.0335702 0.75125 0
M  V30 8626 H 864.704 0.980078 2.81846 0
M  V30 8627 C 863.453 -0.695352 3.40676 0
M  V30 8628 H 862.776 -0.0613425 3.99753 0
M  V30 8629 H 864.216 -1.09553 4.09602 0
M  V30 8630 C 862.675 -1.85008 2.81556 0
M  V30 8631 O 863.205 -2.94616 2.73065 0
M  V30 8632 N 861.411 -1.65364 2.38962 0
M  V30 8633 H 860.958 -0.762106 2.46068 0
M  V30 8634 H 860.916 -2.42789 1.99752 0
M  V30 8635 N 864.689 -1.48329 0.532571 0
M  V30 8636 C 865.966 -1.95492 -0.0650985 0
M  V30 8637 C 866.346 -1.47485 -1.51034 0
M  V30 8638 O 865.694 -0.702516 -2.17433 0
M  V30 8639 C 865.904 -3.48957 0.0548341 0
M  V30 8640 C 867.252 -4.24475 -0.103115 0
M  V30 8641 O 868.276 -3.56195 -0.0188343 0
M  V30 8642 O 867.135 -5.45781 -0.280164 0
M  V30 8643 H 864.229 -0.823327 -0.0778603 0
M  V30 8644 H 866.775 -1.58839 0.597353 0
M  V30 8645 H 865.547 -3.76628 1.06148 0
M  V30 8646 H 865.17 -3.92311 -0.64635 0
M  V30 8647 N 866.167 -0.267825 -1.55308 0
M  V30 8648 C 867.114 0.6228 -2.22238 0
M  V30 8649 C 868.084 1.15536 -1.19334 0
M  V30 8650 O 869.269 1.206 -1.47852 0
M  V30 8651 C 866.409 1.80447 -2.94164 0
M  V30 8652 C 865.522 1.30646 -4.11771 0
M  V30 8653 C 864.657 2.44935 -4.7136 0
M  V30 8654 C 863.696 1.92099 -5.81175 0
M  V30 8655 N 862.833 2.99834 -6.34857 0
M  V30 8656 H 867.673 0.0453874 -2.97965 0
M  V30 8657 H 865.21 0.0106371 -1.47096 0
M  V30 8658 H 867.168 2.49896 -3.34078 0
M  V30 8659 H 865.798 2.35403 -2.20874 0
M  V30 8660 H 864.85 0.505314 -3.77029 0
M  V30 8661 H 866.162 0.879409 -4.90987 0
M  V30 8662 H 865.316 3.2239 -5.13955 0
M  V30 8663 H 864.055 2.90951 -3.91406 0
M  V30 8664 H 863.06 1.13122 -5.38037 0
M  V30 8665 H 864.285 1.47027 -6.62993 0
M  V30 8666 H 862.231 3.45246 -5.578 0
M  V30 8667 H 862.148 2.61524 -7.09324 0
M  V30 8668 H 863.416 3.77286 -6.82111 0
M  V30 8669 N 867.645 1.57599 0.00500368 0
M  V30 8670 C 869.056 1.78462 0.54848 0
M  V30 8671 C 869.407 0.901869 1.74243 0
M  V30 8672 O 868.532 0.103014 2.16155 0
M  V30 8673 C 869.127 3.2365 1.00179 0
M  V30 8674 C 867.686 3.45627 1.49061 0
M  V30 8675 C 866.833 2.73794 0.439531 0
M  V30 8676 H 869.784 1.57151 -0.22118 0
M  V30 8677 H 869.805 3.31488 1.86805 0
M  V30 8678 H 869.317 3.87873 0.132607 0
M  V30 8679 H 867.418 2.86612 2.38085 0
M  V30 8680 H 867.531 4.54298 1.52152 0
M  V30 8681 H 865.895 2.38267 0.900043 0
M  V30 8682 H 866.678 3.40714 -0.420599 0
M  V30 8683 N 869.123 -0.277682 1.55134 0
M  V30 8684 C 870.086 -1.32635 1.86924 0
M  V30 8685 C 871.086 -1.42578 0.743507 0
M  V30 8686 O 872.276 -1.4181 1.01171 0
M  V30 8687 C 869.408 -2.70832 2.07034 0
M  V30 8688 H 870.601 -1.0568 2.80663 0
M  V30 8689 H 868.154 -0.515517 1.47554 0
M  V30 8690 H 868.889 -3.02974 1.15661 0
M  V30 8691 H 868.674 -2.65001 2.88993 0
M  V30 8692 H 870.164 -3.46611 2.32918 0
M  V30 8693 N 870.601 -1.47988 -0.541979 0
M  V30 8694 C 871.531 -1.64503 -1.65713 0
M  V30 8695 C 872.512 -0.494116 -1.62765 0
M  V30 8696 O 873.697 -0.725256 -1.80149 0
M  V30 8697 C 870.827 -1.67337 -3.04328 0
M  V30 8698 C 869.781 -2.81809 -3.2213 0
M  V30 8699 C 869.107 -2.69724 -4.61685 0
M  V30 8700 C 870.407 -4.23241 -3.06046 0
M  V30 8701 H 872.101 -2.5786 -1.52147 0
M  V30 8702 H 869.647 -1.24094 -0.730529 0
M  V30 8703 H 871.6 -1.77481 -3.82202 0
M  V30 8704 H 870.324 -0.705514 -3.18889 0
M  V30 8705 H 868.983 -2.71201 -2.46669 0
M  V30 8706 H 868.631 -1.70934 -4.73065 0
M  V30 8707 H 868.331 -3.4653 -4.74543 0
M  V30 8708 H 869.855 -2.81818 -5.41674 0
M  V30 8709 H 871.269 -4.34746 -3.73723 0
M  V30 8710 H 869.666 -5.00952 -3.30405 0
M  V30 8711 H 870.736 -4.40543 -2.02609 0
M  V30 8712 N 872.079 0.78992 -1.36375 0
M  V30 8713 C 873.495 1.0879 -1.16777 0
M  V30 8714 C 873.695 2.01498 0.00848236 0
M  V30 8715 O 872.751 2.43338 0.674007 0
M  V30 8716 C 874.064 1.70285 -2.47837 0
M  V30 8717 C 875.612 1.82629 -2.54196 0
M  V30 8718 C 876.087 2.47539 -3.85342 0
M  V30 8719 N 877.578 2.55008 -3.86685 0
M  V30 8720 C 878.313 3.06041 -4.84898 0
M  V30 8721 N 877.809 3.57385 -5.93505 0
M  V30 8722 N 879.602 3.04748 -4.72319 0
M  V30 8723 H 871.753 0.173985 -2.11686 0
M  V30 8724 H 874.016 0.139798 -0.937636 0
M  V30 8725 H 873.722 1.09633 -3.34176 0
M  V30 8726 H 873.596 2.69799 -2.63607 0
M  V30 8727 H 875.983 2.42419 -1.68276 0
M  V30 8728 H 876.064 0.81923 -2.42327 0
M  V30 8729 H 875.708 1.88393 -4.71668 0
M  V30 8730 H 875.638 3.48815 -3.94507 0
M  V30 8731 H 878.129 2.18651 -3.08221 0
M  V30 8732 H 878.442 3.94674 -6.64419 0
M  V30 8733 H 876.787 3.55538 -5.97175 0
M  V30 8734 H 879.978 2.63925 -3.86602 0
M  V30 8735 H 880.151 3.44212 -5.49019 0
M  V30 8736 N 873.557 1.20646 1.01402 0
M  V30 8737 C 874.805 1.01618 1.74695 0
M  V30 8738 C 875.126 -0.452438 1.89679 0
M  V30 8739 O 874.396 -1.32693 1.44116 0
M  V30 8740 H 872.976 0.373013 0.647202 0
M  V30 8741 H 875.638 1.518 1.22241 0
M  V30 8742 H 874.734 1.47666 2.74957 0
M  V30 8743 N 875.035 -1.20752 1.01276 0
M  V30 8744 C 876.282 -1.90021 0.699887 0
M  V30 8745 C 876.61 -1.78604 -0.770113 0
M  V30 8746 O 875.865 -1.16195 -1.57471 0
M  V30 8747 C 876.164 -3.40808 1.07633 0
M  V30 8748 C 875.83 -3.72423 2.54189 0
M  V30 8749 C 874.492 -3.80762 2.94234 0
M  V30 8750 C 876.844 -3.87025 3.49086 0
M  V30 8751 C 874.172 -4.01158 4.28123 0
M  V30 8752 C 876.524 -4.0893 4.82658 0
M  V30 8753 C 875.188 -4.15498 5.22415 0
M  V30 8754 H 874.458 -0.695335 0.256107 0
M  V30 8755 H 877.105 -1.43096 1.27263 0
M  V30 8756 H 875.41 -3.89521 0.421944 0
M  V30 8757 H 877.107 -3.92693 0.811997 0
M  V30 8758 H 873.697 -3.66529 2.22158 0
M  V30 8759 H 877.881 -3.79942 3.19309 0
M  V30 8760 H 873.137 -4.04476 4.58486 0
M  V30 8761 H 877.311 -4.19172 5.56119 0
M  V30 8762 H 874.938 -4.31055 6.26176 0
M  V30 8763 N 876.513 -0.788492 -1.36457 0
M  V30 8764 C 877.476 -0.192209 -2.28393 0
M  V30 8765 C 878.476 0.609916 -1.48784 0
M  V30 8766 O 879.666 0.431046 -1.68783 0
M  V30 8767 C 876.798 0.734096 -3.32902 0
M  V30 8768 H 877.991 -1.00284 -2.82636 0
M  V30 8769 H 875.544 -0.557852 -1.46006 0
M  V30 8770 H 876.279 1.5691 -2.83813 0
M  V30 8771 H 876.064 0.160875 -3.9177 0
M  V30 8772 H 877.554 1.1462 -4.01562 0
M  V30 8773 N 877.991 1.48044 -0.54043 0
M  V30 8774 C 879.268 1.95523 0.0547302 0
M  V30 8775 C 879.648 1.48284 1.5025 0
M  V30 8776 O 878.996 0.714037 2.17057 0
M  V30 8777 C 879.206 3.48923 -0.0733393 0
M  V30 8778 C 880.554 4.24523 0.0806026 0
M  V30 8779 O 881.578 3.562 -5.58687e-05 0
M  V30 8780 O 880.437 5.45922 0.251216 0
M  V30 8781 H 877.531 0.823728 0.073493 0
M  V30 8782 H 880.077 1.5852 -0.605768 0
M  V30 8783 H 878.849 3.76059 -1.08144 0
M  V30 8784 H 878.472 3.92648 0.625536 0
M  V30 8785 N 879.47 0.276058 1.55163 0
M  V30 8786 C 880.433 -0.597924 2.21263 0
M  V30 8787 C 881.433 -1.0806 1.19078 0
M  V30 8788 O 882.623 -0.980626 1.43977 0
M  V30 8789 C 879.755 -1.82503 2.87933 0
M  V30 8790 H 880.948 -0.0207769 2.99893 0
M  V30 8791 H 878.501 0.0266823 1.56277 0
M  V30 8792 H 879.236 -2.44266 2.13318 0
M  V30 8793 H 879.021 -1.48683 3.62816 0
M  V30 8794 H 880.511 -2.44651 3.38431 0
M  V30 8795 N 880.948 -1.576 0.00335426 0
M  V30 8796 C 881.878 -2.11668 -0.985839 0
M  V30 8797 C 882.859 -1.02661 -1.35627 0
M  V30 8798 O 884.044 -1.30361 -1.43943 0
M  V30 8799 C 881.174 -2.62273 -2.27662 0
M  V30 8800 C 880.128 -3.75837 -2.0477 0
M  V30 8801 C 879.454 -4.12769 -3.39891 0
M  V30 8802 C 880.754 -5.02975 -1.40759 0
M  V30 8803 H 882.448 -2.9457 -0.535637 0
M  V30 8804 H 879.994 -1.41702 -0.256204 0
M  V30 8805 H 881.947 -2.98727 -2.97221 0
M  V30 8806 H 880.671 -1.76498 -2.74802 0
M  V30 8807 H 879.33 -3.39782 -1.37636 0
M  V30 8808 H 878.978 -3.24013 -3.8474 0
M  V30 8809 H 878.678 -4.89281 -3.25389 0
M  V30 8810 H 880.202 -4.51784 -4.1076 0
M  V30 8811 H 881.616 -5.37179 -2.00279 0
M  V30 8812 H 880.013 -5.84315 -1.36734 0
M  V30 8813 H 881.083 -4.83431 -0.377218 0
M  V30 8814 N 882.426 0.269451 -1.5528 0
M  V30 8815 C 883.675 0.998381 -1.75258 0
M  V30 8816 C 883.988 1.87321 -0.563034 0
M  V30 8817 O 885.194 2.63719 -0.645313 0
M  V30 8818 C 883.65 1.82505 -3.10193 0
M  V30 8819 C 883.258 0.99871 -4.36726 0
M  V30 8820 C 885.002 2.54807 -3.3952 0
M  V30 8821 C 882.909 1.81997 -5.627 0
M  V30 8822 H 881.839 0.376488 -0.653278 0
M  V30 8823 H 884.49 0.253909 -1.81735 0
M  V30 8824 H 882.872 2.61061 -2.97763 0
M  V30 8825 H 884.046 0.257064 -4.60082 0
M  V30 8826 H 882.361 0.390074 -4.14569 0
M  V30 8827 H 884.958 3.16662 -4.30847 0
M  V30 8828 H 885.301 3.25273 -2.59813 0
M  V30 8829 H 885.834 1.83278 -3.53064 0
M  V30 8830 H 882.573 1.15945 -6.45164 0
M  V30 8831 H 882.093 2.53749 -5.43481 0
M  V30 8832 H 883.772 2.39274 -6.0113 0
M  V30 8833 N 883.904 1.48273 0.534124 0
M  V30 8834 C 885.152 1.55771 1.28762 0
M  V30 8835 C 885.473 0.231575 1.9362 0
M  V30 8836 O 884.743 -0.746533 1.81118 0
M  V30 8837 H 883.323 0.573851 0.47823 0
M  V30 8838 H 885.985 1.84712 0.621888 0
M  V30 8839 H 885.081 2.33657 2.06908 0
M  V30 8840 N 885.382 -0.782676 1.36792 0
M  V30 8841 C 886.61 -1.57162 1.34565 0
M  V30 8842 C 887.025 -1.88664 -0.0715501 0
M  V30 8843 O 886.382 -1.50633 -1.03033 0
M  V30 8844 C 886.433 -2.88854 2.1736 0
M  V30 8845 O 886.154 -2.58707 3.53557 0
M  V30 8846 C 887.655 -3.83132 2.2299 0
M  V30 8847 H 884.875 -0.487245 0.461338 0
M  V30 8848 H 887.419 -0.970905 1.79982 0
M  V30 8849 H 885.574 -3.45377 1.7548 0
M  V30 8850 H 885.988 -3.42961 3.96835 0
M  V30 8851 H 887.462 -4.72575 2.85266 0
M  V30 8852 H 887.939 -4.21472 1.23524 0
M  V30 8853 H 888.545 -3.32541 2.65135 0
M  V30 8854 N 886.86 -1.21182 -1.00761 0
M  V30 8855 C 887.792 -0.926523 -2.09638 0
M  V30 8856 C 888.805 0.0892511 -1.62555 0
M  V30 8857 O 889.994 -0.142915 -1.77927 0
M  V30 8858 C 887.094 -0.369175 -3.36883 0
M  V30 8859 C 886.267 -1.43866 -4.13063 0
M  V30 8860 C 885.326 -0.891015 -5.18601 0
M  V30 8861 O 884.352 -1.57384 -5.47009 0
M  V30 8862 N 885.554 0.295057 -5.7975 0
M  V30 8863 H 888.319 -1.8638 -2.34697 0
M  V30 8864 H 885.88 -1.11671 -1.17223 0
M  V30 8865 H 887.872 0.011534 -4.04698 0
M  V30 8866 H 886.442 0.472861 -3.09003 0
M  V30 8867 H 885.662 -1.99332 -3.40089 0
M  V30 8868 H 886.95 -2.15866 -4.60738 0
M  V30 8869 H 886.348 0.8669 -5.59018 0
M  V30 8870 H 884.905 0.617306 -6.4887 0
M  V30 8871 N 888.338 1.20213 -1.01915 0
M  V30 8872 C 889.578 1.91354 -0.71853 0
M  V30 8873 C 889.942 1.77231 0.738466 0
M  V30 8874 O 891.143 2.42876 1.15172 0
M  V30 8875 C 889.414 3.38552 -1.14529 0
M  V30 8876 S 890.973 4.28011 -0.967037 0
M  V30 8877 H 887.791 0.661015 -0.261879 0
M  V30 8878 H 890.393 1.45394 -1.30694 0
M  V30 8879 H 889.097 3.46354 -2.20153 0
M  V30 8880 H 888.628 3.8954 -0.549766 0
M  V30 8881 H 890.643 4.96035 0.127974 0
M  V30 8882 N 889.816 0.795718 1.36037 0
M  V30 8883 C 891.044 0.383153 2.03321 0
M  V30 8884 C 891.459 -1.00246 1.59988 0
M  V30 8885 O 890.816 -1.64406 0.792265 0
M  V30 8886 C 890.867 0.444467 3.58757 0
M  V30 8887 O 890.588 1.77544 4.00512 0
M  V30 8888 C 892.089 0.0233291 4.43294 0
M  V30 8889 H 889.309 0.157061 0.652359 0
M  V30 8890 H 891.853 1.07632 1.73884 0
M  V30 8891 H 890.008 -0.200341 3.86882 0
M  V30 8892 H 890.422 1.73065 4.95125 0
M  V30 8893 H 891.896 0.117361 5.51875 0
M  V30 8894 H 892.373 -1.03007 4.2695 0
M  V30 8895 H 892.979 0.64087 4.20444 0
M  V30 8896 N 891.294 -1.47756 0.548274 0
M  V30 8897 C 892.242 -2.3158 -0.217584 0
M  V30 8898 C 893.236 -1.42372 -0.917957 0
M  V30 8899 O 894.442 -1.59184 -0.840259 0
M  V30 8900 H 890.817 -0.74671 -0.0890388 0
M  V30 8901 H 892.788 -2.94032 0.508719 0
M  V30 8902 C 891.537 -3.24834 -1.24008 0
M  V30 8903 H 890.86 -3.93435 -0.710572 0
M  V30 8904 H 892.3 -3.86336 -1.74701 0
M  V30 8905 C 890.759 -2.47724 -2.2833 0
M  V30 8906 O 891.289 -2.21522 -3.35098 0
M  V30 8907 N 889.495 -2.08891 -2.02022 0
M  V30 8908 H 889.042 -2.30401 -1.1521 0
M  V30 8909 H 889 -1.57613 -2.7204 0
M  V30 8910 N 892.772 -0.284283 -1.55015 0
M  V30 8911 C 894 0.332948 -2.04203 0
M  V30 8912 C 894.415 1.48783 -1.16229 0
M  V30 8913 O 893.772 1.81567 -0.184323 0
M  V30 8914 C 893.823 0.805207 -3.52418 0
M  V30 8915 O 893.544 -0.303689 -4.37046 0
M  V30 8916 C 895.045 1.48931 -4.17534 0
M  V30 8917 H 892.265 0.0747447 -0.666824 0
M  V30 8918 H 894.809 -0.419048 -2.00161 0
M  V30 8919 H 892.964 1.50727 -3.56876 0
M  V30 8920 H 893.378 0.0609703 -5.24465 0
M  V30 8921 H 894.852 1.77108 -5.22816 0
M  V30 8922 H 895.329 2.42389 -3.66257 0
M  V30 8923 H 895.935 0.830867 -4.17105 0
M  V30 8924 N 894.251 1.57596 -0.0117121 0
M  V30 8925 C 895.201 2.05641 0.98467 0
M  V30 8926 C 896.185 0.953422 1.2961 0
M  V30 8927 O 897.377 1.21712 1.28512 0
M  V30 8928 C 894.506 2.57285 2.27286 0
M  V30 8929 C 893.592 3.74483 1.99057 0
M  V30 8930 N 893.983 4.85741 1.41029 0
M  V30 8931 C 892.281 3.82637 2.2914 0
M  V30 8932 C 892.982 5.67094 1.29536 0
M  V30 8933 N 891.958 5.13459 1.78497 0
M  V30 8934 H 895.76 2.89069 0.530702 0
M  V30 8935 H 893.274 1.6124 0.193717 0
M  V30 8936 H 895.271 2.89988 2.99521 0
M  V30 8937 H 893.931 1.75281 2.73325 0
M  V30 8938 H 894.942 5.06352 1.08756 0
M  V30 8939 H 891.619 3.11509 2.77972 0
M  V30 8940 H 893.009 6.66525 0.848144 0
M  V30 8941 O 895.768 -0.130305 1.60973 0
M  V30 8942 H 896.459 -0.762809 1.78048 0
M  V30 END ATOM
M  V30 BEGIN BOND
M  V30 END BOND
M  V30 END CTAB
M  END
$$$$
