drugbank_target|P17735 Tyrosine aminotransferase (DB00114; DB00120; DB00135; DB00142)
 OpenBabel12092119373D

  0  0  0     0  0            999 V3000
M  V30 BEGIN CTAB
M  V30 COUNTS 7073 7153 0 0 0
M  V30 BEGIN ATOM
M  V30 1 H -0.908 1.98254 -0.117106 0
M  V30 2 N 0 1.576 0 0
M  V30 3 C 0.933 2.03868 1.02534 0
M  V30 4 C 1.911 0.928543 1.3348 0
M  V30 5 O 3.095 1.19667 1.45644 0
M  V30 6 C 0.222 2.43627 2.35294 0
M  V30 7 C -0.732 3.65373 2.2001 0
M  V30 8 S 0.101 5.13292 1.52614 0
M  V30 9 C 1.257 5.56322 2.86805 0
M  V30 10 H 1.49 2.90518 0.631377 0
M  V30 11 H -0.977 1.52953 0.210867 0
M  V30 12 H 0.981 2.67203 3.11629 0
M  V30 13 H -0.358 1.57376 2.7183 0
M  V30 14 H -1.165 3.90944 3.18086 0
M  V30 15 H -1.563 3.418 1.51819 0
M  V30 16 H 0.729 5.58782 3.83104 0
M  V30 17 H 1.672 6.56266 2.65933 0
M  V30 18 H 2.08 4.83886 2.90714 0
M  V30 19 N 1.4781 -0.272755 1.55222 0
M  V30 20 C 2.7551 -1.02562 1.66555 0
M  V30 21 C 3.1351 -2.04282 0.532189 0
M  V30 22 O 2.4831 -2.23662 -0.467717 0
M  V30 23 C 2.6931 -1.6822 3.05782 0
M  V30 24 C 4.0411 -2.19373 3.63539 0
M  V30 25 O 5.0651 -1.78206 3.08417 0
M  V30 26 O 3.9241 -2.94883 4.60115 0
M  V30 27 H 1.0181 -0.475755 0.676451 0
M  V30 28 H 3.5641 -0.268593 1.67561 0
M  V30 29 H 2.3361 -0.945112 3.79715 0
M  V30 30 H 1.9591 -2.50609 3.08676 0
M  V30 31 N 2.9562 -1.48159 -0.537278 0
M  V30 32 C 4.3672 -1.49429 -1.11928 0
M  V30 33 C 4.7182 -0.26 -1.9447 0
M  V30 34 O 3.8432 0.633489 -2.0692 0
M  V30 35 C 4.4382 -2.70758 -2.03656 0
M  V30 36 C 2.9972 -2.74923 -2.57088 0
M  V30 37 C 2.1442 -2.42835 -1.3389 0
M  V30 38 H 5.0952 -1.55381 -0.322886 0
M  V30 39 H 5.1162 -2.48861 -2.87834 0
M  V30 40 H 4.6282 -3.60575 -1.43553 0
M  V30 41 H 2.7292 -1.89296 -3.20933 0
M  V30 42 H 2.8422 -3.76157 -2.9672 0
M  V30 43 H 1.2062 -1.93836 -1.65226 0
M  V30 44 H 1.9892 -3.34884 -0.755504 0
M  V30 45 N 4.4343 0.785586 -1.36625 0
M  V30 46 C 5.6643 1.5722 -1.34036 0
M  V30 47 C 6.0723 1.89033 0.0795062 0
M  V30 48 O 5.4153 1.50881 1.04789 0
M  V30 49 C 5.4773 2.91759 -2.10041 0
M  V30 50 C 5.1413 2.82654 -3.59104 0
M  V30 51 C 6.1383 2.54634 -4.53274 0
M  V30 52 C 3.8233 3.01111 -4.02042 0
M  V30 53 C 5.8173 2.45177 -5.88359 0
M  V30 54 C 3.5043 2.91276 -5.37216 0
M  V30 55 C 4.5023 2.63348 -6.30188 0
M  V30 56 O 4.1903 2.53514 -7.6288 0
M  V30 57 H 3.9223 0.494177 -0.461265 0
M  V30 58 H 6.4763 0.982632 -1.8037 0
M  V30 59 H 4.7063 3.52781 -1.58375 0
M  V30 60 H 6.3953 3.53059 -2.00261 0
M  V30 61 H 7.1613 2.40073 -4.21414 0
M  V30 62 H 3.0403 3.21854 -3.30047 0
M  V30 63 H 6.5843 2.23299 -6.60896 0
M  V30 64 H 2.4813 3.054 -5.68684 0
M  V30 65 H 3.2493 2.68967 -7.73045 0
M  V30 66 N 5.9124 1.20967 1.01018 0
M  V30 67 C 6.8454 0.907578 2.09376 0
M  V30 68 C 7.8234 -0.142868 1.61971 0
M  V30 69 O 9.0074 -0.0150391 1.88494 0
M  V30 70 C 6.1344 0.361791 3.36762 0
M  V30 71 C 5.1804 1.39423 4.03068 0
M  V30 72 S 6.0134 2.96159 4.4615 0
M  V30 73 C 7.1694 2.43173 5.7673 0
M  V30 74 H 7.4024 1.82519 2.34678 0
M  V30 75 H 4.9354 1.03884 1.14225 0
M  V30 76 H 6.8934 0.0534523 4.10465 0
M  V30 77 H 5.5544 -0.53443 3.0952 0
M  V30 78 H 4.7474 0.961853 4.94737 0
M  V30 79 H 4.3494 1.65038 3.35617 0
M  V30 80 H 6.6414 1.83335 6.52223 0
M  V30 81 H 7.5844 3.33264 6.24773 0
M  V30 82 H 7.9924 1.85069 5.33301 0
M  V30 83 N 7.3905 -1.2043 1.01659 0
M  V30 84 C 8.6395 -1.89118 0.701237 0
M  V30 85 C 8.9525 -1.79705 -0.772358 0
M  V30 86 O 10.1585 -2.43528 -1.20026 0
M  V30 87 C 8.6145 -3.39168 1.20388 0
M  V30 88 C 8.2225 -3.57166 2.70438 0
M  V30 89 C 9.9665 -4.1341 0.963953 0
M  V30 90 C 7.8735 -5.01042 3.14183 0
M  V30 91 H 6.8035 -0.708267 0.2586 0
M  V30 92 H 9.4545 -1.36239 1.22927 0
M  V30 93 H 7.8365 -3.91369 0.603824 0
M  V30 94 H 9.0105 -3.15351 3.35992 0
M  V30 95 H 7.3255 -2.96294 2.92572 0
M  V30 96 H 9.9225 -5.19491 1.26621 0
M  V30 97 H 10.2655 -4.16181 -0.099578 0
M  V30 98 H 10.7985 -3.67309 1.52738 0
M  V30 99 H 7.5375 -5.03426 4.19812 0
M  V30 100 H 7.0575 -5.43668 2.53348 0
M  V30 101 H 8.7365 -5.69623 3.0682 0
M  V30 102 N 8.8686 -0.792821 -1.36206 0
M  V30 103 C 9.8006 -0.151469 -2.28699 0
M  V30 104 C 10.8136 0.641262 -1.49638 0
M  V30 105 O 12.0026 0.475885 -1.72039 0
M  V30 106 C 9.1026 0.808424 -3.29117 0
M  V30 107 C 8.2756 0.0650202 -4.37352 0
M  V30 108 C 7.3346 0.941358 -5.17711 0
M  V30 109 O 6.3606 0.397352 -5.67811 0
M  V30 110 N 7.5626 2.2652 -5.3448 0
M  V30 111 H 10.3276 -0.945982 -2.84379 0
M  V30 112 H 7.8886 -0.647032 -1.48409 0
M  V30 113 H 9.8806 1.3986 -3.79765 0
M  V30 114 H 8.4506 1.5038 -2.74052 0
M  V30 115 H 7.6706 -0.706255 -3.87822 0
M  V30 116 H 8.9586 -0.447847 -5.06825 0
M  V30 117 H 8.3566 2.73128 -4.95396 0
M  V30 118 H 6.9136 2.80493 -5.88359 0
M  V30 119 N 10.3467 1.47872 -0.545128 0
M  V30 120 C 11.2797 2.2675 0.256885 0
M  V30 121 C 12.2577 1.33293 0.931228 0
M  V30 122 O 13.4417 1.62657 0.95262 0
M  V30 123 C 10.5687 3.09976 1.36501 0
M  V30 124 C 9.6147 4.1892 0.800496 0
M  V30 125 S 10.4477 5.34397 -0.343505 0
M  V30 126 C 11.6037 6.21186 0.766733 0
M  V30 127 H 11.8367 2.94425 -0.412479 0
M  V30 128 H 9.3697 1.50806 -0.331204 0
M  V30 129 H 11.3277 3.585 1.9997 0
M  V30 130 H 9.9887 2.41686 2.00616 0
M  V30 131 H 9.1817 4.76836 1.63227 0
M  V30 132 H 8.7837 3.73215 0.242217 0
M  V30 133 H 11.0757 6.56804 1.66178 0
M  V30 134 H 12.0187 7.07742 0.225204 0
M  V30 135 H 12.4267 5.54574 1.05396 0
M  V30 136 N 11.8248 0.280983 1.55075 0
M  V30 137 C 13.0498 -0.340154 2.04592 0
M  V30 138 C 13.4748 -1.48246 1.15779 0
M  V30 139 O 12.8328 -1.80614 0.15761 0
M  V30 140 C 12.8808 -0.793104 3.5177 0
M  V30 141 O 11.9848 -1.89981 3.66034 0
M  V30 142 H 11.3258 -0.0694289 0.66036 0
M  V30 143 H 13.8558 0.416993 2.00306 0
M  V30 144 H 13.8658 -1.08729 3.93245 0
M  V30 145 H 12.5408 0.0426163 4.15878 0
M  V30 146 H 11.1178 -1.60771 3.36463 0
M  V30 147 N 13.3029 -1.57598 0.00835791 0
M  V30 148 C 14.5279 -1.95617 -0.689103 0
M  V30 149 C 14.9529 -0.883753 -1.66046 0
M  V30 150 O 14.3109 0.157352 -1.80616 0
M  V30 151 C 14.3589 -3.32736 -1.38994 0
M  V30 152 O 13.4629 -3.27631 -2.50463 0
M  V30 153 H 12.8039 -0.638379 -0.182668 0
M  V30 154 H 15.3339 -2.045 0.064036 0
M  V30 155 H 15.3439 -3.68494 -1.75147 0
M  V30 156 H 14.0189 -4.1034 -0.677778 0
M  V30 157 H 12.5959 -3.03561 -2.16576 0
M  V30 158 N 14.781 0.264519 -1.55364 0
M  V30 159 C 15.728 1.32717 -1.88825 0
M  V30 160 C 16.698 1.48675 -0.740605 0
M  V30 161 O 17.883 1.62945 -0.992657 0
M  V30 162 C 15.023 2.68089 -2.17307 0
M  V30 163 C 14.136 2.60284 -3.44785 0
M  V30 164 C 13.271 3.87892 -3.62924 0
M  V30 165 C 12.31 3.74631 -4.84064 0
M  V30 166 N 11.447 4.94092 -4.98816 0
M  V30 167 H 16.287 1.03481 -2.79456 0
M  V30 168 H 13.824 0.499757 -1.3835 0
M  V30 169 H 15.782 3.46864 -2.31821 0
M  V30 170 H 14.412 2.95509 -1.299 0
M  V30 171 H 13.464 1.73173 -3.38697 0
M  V30 172 H 14.776 2.46388 -4.33698 0
M  V30 173 H 13.93 4.75109 -3.77302 0
M  V30 174 H 12.669 4.04664 -2.7221 0
M  V30 175 H 11.674 2.85797 -4.69681 0
M  V30 176 H 12.899 3.5937 -5.76221 0
M  V30 177 H 10.845 5.11259 -4.11036 0
M  V30 178 H 10.762 4.8276 -5.81789 0
M  V30 179 H 12.03 5.82857 -5.17588 0
M  V30 180 N 16.2591 1.48442 0.529413 0
M  V30 181 C 17.5071 1.56179 1.28267 0
M  V30 182 C 17.8281 0.237721 1.93546 0
M  V30 183 O 17.0981 -0.740779 1.81354 0
M  V30 184 H 15.6781 0.575367 0.476405 0
M  V30 185 H 18.3401 1.84909 0.61602 0
M  V30 186 H 17.4361 2.34312 2.06165 0
M  V30 187 N 17.7372 -0.778329 1.37039 0
M  V30 188 C 18.6852 -1.91278 1.32345 0
M  V30 189 C 19.6792 -1.68051 0.213331 0
M  V30 190 O 20.8852 -1.75922 0.38098 0
M  V30 191 H 17.2602 -0.628909 0.412283 0
M  V30 192 H 19.2312 -1.92355 2.28127 0
M  V30 193 C 17.9802 -3.28455 1.14073 0
M  V30 194 H 17.3032 -3.46901 1.98746 0
M  V30 195 H 18.7432 -4.08152 1.14837 0
M  V30 196 C 17.2022 -3.36548 -0.154015 0
M  V30 197 O 17.7322 -3.85186 -1.13993 0
M  V30 198 N 15.9382 -2.89894 -0.202475 0
M  V30 199 H 15.4852 -2.50504 0.600476 0
M  V30 200 H 15.4432 -2.9569 -1.06841 0
M  V30 201 N 19.2153 -1.21501 -1.00376 0
M  V30 202 C 20.1453 -0.999478 -2.11028 0
M  V30 203 C 21.1263 0.0759671 -1.6993 0
M  V30 204 O 22.3113 -0.0841106 -1.94018 0
M  V30 205 C 19.4413 -0.564709 -3.42678 0
M  V30 206 C 18.3953 -1.58486 -3.97576 0
M  V30 207 C 17.7213 -1.00628 -5.25146 0
M  V30 208 C 19.0213 -2.97204 -4.29496 0
M  V30 209 H 20.7153 -1.92495 -2.29317 0
M  V30 210 H 18.2613 -0.92693 -1.102 0
M  V30 211 H 20.2143 -0.401091 -4.19487 0
M  V30 212 H 18.9383 0.396411 -3.24185 0
M  V30 213 H 17.5973 -1.73606 -3.22888 0
M  V30 214 H 17.2453 -0.0368439 -5.02987 0
M  V30 215 H 16.9453 -1.68771 -5.62841 0
M  V30 216 H 18.4693 -0.854015 -6.04598 0
M  V30 217 H 19.8833 -2.8552 -4.97143 0
M  V30 218 H 18.2803 -3.62372 -4.78338 0
M  V30 219 H 19.3503 -3.47956 -3.3772 0
M  V30 220 N 20.6934 1.19889 -1.02296 0
M  V30 221 C 22.1044 1.71124 -0.746568 0
M  V30 222 C 22.4554 1.81939 0.734335 0
M  V30 223 O 21.5804 1.48639 1.57275 0
M  V30 224 C 22.1754 3.10804 -1.34857 0
M  V30 225 C 20.7344 3.59323 -1.1209 0
M  V30 226 C 19.8814 2.3635 -1.45031 0
M  V30 227 H 22.8324 1.04813 -1.19163 0
M  V30 228 H 22.8534 3.73186 -0.742437 0
M  V30 229 H 22.3654 3.029 -2.42638 0
M  V30 230 H 20.4664 3.7255 -0.0610337 0
M  V30 231 H 20.5794 4.4378 -1.80544 0
M  V30 232 H 18.9434 2.39399 -0.869487 0
M  V30 233 H 19.7264 2.31081 -2.53883 0
M  V30 234 N 22.1715 0.800033 1.35784 0
M  V30 235 C 23.3965 0.388511 2.03729 0
M  V30 236 C 23.8215 -0.990481 1.5991 0
M  V30 237 O 23.1795 -1.64013 0.772612 0
M  V30 238 C 23.2275 0.4726 3.5749 0
M  V30 239 O 22.3315 -0.51646 4.09153 0
M  V30 240 H 21.6725 0.163271 0.643614 0
M  V30 241 H 24.2025 1.0841 1.73518 0
M  V30 242 H 24.2125 0.34003 4.06581 0
M  V30 243 H 22.8875 1.47848 3.88734 0
M  V30 244 H 21.4645 -0.344673 3.71304 0
M  V30 245 N 23.6496 -1.47581 0.552962 0
M  V30 246 C 24.8986 -2.01684 0.0251995 0
M  V30 247 C 25.2116 -1.43317 -1.33115 0
M  V30 248 O 26.4176 -1.89057 -1.94858 0
M  V30 249 C 24.8736 -3.599 -0.00542052 0
M  V30 250 C 24.4816 -4.27257 1.34742 0
M  V30 251 C 26.2256 -4.21768 -0.4808 0
M  V30 252 C 24.1326 -5.77467 1.27614 0
M  V30 253 H 23.0626 -0.753979 0.00565033 0
M  V30 254 H 25.7136 -1.69616 0.70018 0
M  V30 255 H 24.0956 -3.88911 -0.745961 0
M  V30 256 H 25.2696 -4.09893 2.10534 0
M  V30 257 H 23.5846 -3.77358 1.76039 0
M  V30 258 H 26.1816 -5.31838 -0.55246 0
M  V30 259 H 26.5246 -3.88651 -1.49184 0
M  V30 260 H 27.0576 -3.97273 0.204752 0
M  V30 261 H 23.7966 -6.15196 2.26304 0
M  V30 262 H 23.3166 -5.9718 0.55996 0
M  V30 263 H 24.9956 -6.3959 0.976421 0
M  V30 264 N 25.1277 -0.289203 -1.54924 0
M  V30 265 C 26.0577 0.58549 -2.2604 0
M  V30 266 C 27.0387 1.14753 -1.25562 0
M  V30 267 O 28.2237 1.17906 -1.54311 0
M  V30 268 C 25.3537 1.76305 -2.99222 0
M  V30 269 C 24.3077 1.33191 -4.06748 0
M  V30 270 C 23.6337 2.5937 -4.6758 0
M  V30 271 C 24.9337 0.471775 -5.20165 0
M  V30 272 H 26.6277 -0.00763532 -2.99399 0
M  V30 273 H 24.1737 -0.00511229 -1.43999 0
M  V30 274 H 26.1267 2.38097 -3.47689 0
M  V30 275 H 24.8507 2.38223 -2.23422 0
M  V30 276 H 23.5097 0.737121 -3.59113 0
M  V30 277 H 23.1577 3.19576 -3.88433 0
M  V30 278 H 22.8577 2.31228 -5.40192 0
M  V30 279 H 24.3817 3.21985 -5.18804 0
M  V30 280 H 25.7957 0.995056 -5.64599 0
M  V30 281 H 24.1927 0.284639 -5.99425 0
M  V30 282 H 25.2627 -0.506041 -4.82252 0
M  V30 283 N 26.6058 1.57591 -0.0167156 0
M  V30 284 C 27.8828 1.82547 0.702564 0
M  V30 285 C 28.2628 0.898018 1.91047 0
M  V30 286 O 27.6108 -0.0493456 2.28447 0
M  V30 287 C 27.8208 3.31459 1.09251 0
M  V30 288 C 29.1688 3.97622 1.48937 0
M  V30 289 O 30.1928 3.35881 1.18584 0
M  V30 290 O 29.0518 5.06415 2.05442 0
M  V30 291 H 26.1458 0.752268 0.343544 0
M  V30 292 H 28.6918 1.69644 -0.0434495 0
M  V30 293 H 27.4638 3.9061 0.23227 0
M  V30 294 H 27.0868 3.49422 1.89709 0
M  V30 295 N 28.0839 -0.256276 1.55502 0
M  V30 296 C 29.3299 -0.987079 1.77157 0
M  V30 297 C 29.6629 -1.85327 0.580315 0
M  V30 298 O 28.9379 -1.89874 -0.421686 0
M  V30 299 C 29.2209 -1.85553 3.08613 0
M  V30 300 C 29.0739 -1.01816 4.38125 0
M  V30 301 C 30.3929 -2.8397 3.36228 0
M  V30 302 H 27.5119 -0.357428 0.644526 0
M  V30 303 H 30.1539 -0.258239 1.88237 0
M  V30 304 H 28.3039 -2.47695 2.99298 0
M  V30 305 H 29.9759 -0.416159 4.59419 0
M  V30 306 H 28.2189 -0.322178 4.32602 0
M  V30 307 H 28.8899 -1.65939 5.26468 0
M  V30 308 H 31.3659 -2.31964 3.45445 0
M  V30 309 H 30.2419 -3.41864 4.29442 0
M  V30 310 H 30.5029 -3.59955 2.56681 0
M  V30 311 N 29.562 -1.4872 -0.521534 0
M  V30 312 C 30.512 -1.60269 -1.62166 0
M  V30 313 C 31.496 -0.45935 -1.54204 0
M  V30 314 O 32.688 -0.711241 -1.62081 0
M  V30 315 C 29.817 -1.65344 -3.00859 0
M  V30 316 C 28.903 -2.85187 -3.13894 0
M  V30 317 N 29.294 -4.09509 -2.96877 0
M  V30 318 C 27.592 -2.82695 -3.44963 0
M  V30 319 C 28.293 -4.89959 -3.13552 0
M  V30 320 N 27.269 -4.22934 -3.41508 0
M  V30 321 H 31.071 -2.5413 -1.47632 0
M  V30 322 H 28.585 -1.45209 -0.727194 0
M  V30 323 H 30.582 -1.71713 -3.79895 0
M  V30 324 H 29.242 -0.726058 -3.16478 0
M  V30 325 H 30.253 -4.39814 -2.73467 0
M  V30 326 H 26.93 -1.99249 -3.66887 0
M  V30 327 H 28.32 -5.98654 -3.05061 0
M  V30 328 N 31.0401 0.771051 -1.3745 0
M  V30 329 C 32.2861 1.5319 -1.32894 0
M  V30 330 C 32.6191 1.94008 0.0862511 0
M  V30 331 O 31.8941 1.64124 1.04373 0
M  V30 332 C 32.1771 2.79648 -2.26868 0
M  V30 333 C 32.0301 2.45079 -3.77169 0
M  V30 334 C 33.3491 3.81583 -2.19277 0
M  V30 335 H 30.4681 0.555744 -0.484064 0
M  V30 336 H 33.1101 0.884492 -1.68157 0
M  V30 337 H 31.2601 3.34891 -1.96926 0
M  V30 338 H 32.9321 1.95745 -4.1771 0
M  V30 339 H 31.1751 1.77767 -3.95704 0
M  V30 340 H 31.8461 3.35478 -4.38359 0
M  V30 341 H 34.3221 3.35835 -2.45671 0
M  V30 342 H 33.1981 4.67787 -2.87171 0
M  V30 343 H 33.4591 4.25897 -1.18592 0
M  V30 344 N 32.5182 1.22032 0.997298 0
M  V30 345 C 33.4662 0.983634 2.10778 0
M  V30 346 C 34.4602 -0.0717564 1.69248 0
M  V30 347 O 35.6662 0.080304 1.79821 0
M  V30 348 H 32.0412 0.300877 0.689186 0
M  V30 349 H 34.0122 1.92606 2.27916 0
M  V30 350 C 32.7612 0.57326 3.42942 0
M  V30 351 H 32.0842 1.37702 3.75338 0
M  V30 352 H 33.5242 0.447031 4.21637 0
M  V30 353 C 31.9832 -0.7167 3.29188 0
M  V30 354 O 32.5132 -1.77027 3.60589 0
M  V30 355 N 30.7192 -0.686167 2.82383 0
M  V30 356 H 30.2662 0.171507 2.57028 0
M  V30 357 H 30.2242 -1.54955 2.73562 0
M  V30 358 N 33.9963 -1.19345 1.0293 0
M  V30 359 C 35.2423 -1.89318 0.727083 0
M  V30 360 C 35.5753 -1.79446 -0.742483 0
M  V30 361 O 34.8503 -1.1871 -1.54072 0
M  V30 362 C 35.1333 -3.40238 1.17942 0
M  V30 363 C 34.9863 -3.58979 2.71024 0
M  V30 364 C 36.3053 -4.33479 0.760548 0
M  V30 365 H 33.4243 -0.687475 0.265606 0
M  V30 366 H 36.0663 -1.40477 1.2793 0
M  V30 367 H 34.2163 -3.81964 0.709608 0
M  V30 368 H 35.8883 -3.26421 3.25955 0
M  V30 369 H 34.1313 -3.02018 3.11396 0
M  V30 370 H 34.8023 -4.64823 2.9773 0
M  V30 371 H 37.2783 -3.99469 1.16464 0
M  V30 372 H 36.1543 -5.37664 1.10493 0
M  V30 373 H 36.4153 -4.40813 -0.337063 0
M  V30 374 N 35.4744 -0.807222 -1.35358 0
M  V30 375 C 36.7224 -0.387122 -1.98358 0
M  V30 376 C 37.0434 1.04942 -1.64354 0
M  V30 377 O 36.3134 1.72615 -0.926339 0
M  V30 378 H 34.8934 -0.140154 -0.733734 0
M  V30 379 H 37.5554 -1.0332 -1.6526 0
M  V30 380 H 36.6514 -0.493352 -3.08176 0
M  V30 381 N 36.9525 1.47285 -0.560781 0
M  V30 382 C 38.2005 2.02064 -0.0379868 0
M  V30 383 C 38.5215 1.43711 1.31803 0
M  V30 384 O 37.7915 0.61362 1.86042 0
M  V30 385 H 36.3715 0.746918 -0.0110531 0
M  V30 386 H 39.0335 1.80648 -0.731598 0
M  V30 387 H 38.1295 3.12064 0.0474463 0
M  V30 388 N 38.4306 0.297415 1.54768 0
M  V30 389 C 39.8466 -0.0560823 1.59501 0
M  V30 390 C 40.0466 -1.52725 1.31444 0
M  V30 391 O 39.1026 -2.27947 1.08611 0
M  V30 392 C 40.4156 0.338631 2.98787 0
M  V30 393 C 41.9636 0.287097 3.11681 0
M  V30 394 C 42.4386 0.656579 4.53269 0
M  V30 395 N 43.9296 0.608977 4.59179 0
M  V30 396 C 44.6646 0.867385 5.66802 0
M  V30 397 N 44.1606 1.19157 6.82476 0
M  V30 398 N 45.9536 0.794687 5.56454 0
M  V30 399 H 38.1046 1.25624 1.71267 0
M  V30 400 H 40.3676 0.509057 0.799728 0
M  V30 401 H 40.0736 1.36263 3.2423 0
M  V30 402 H 39.9476 -0.309508 3.75928 0
M  V30 403 H 42.3346 -0.727649 2.85988 0
M  V30 404 H 42.4156 0.969809 2.36703 0
M  V30 405 H 42.0596 1.66912 4.7969 0
M  V30 406 H 41.9896 -0.0481649 5.26578 0
M  V30 407 H 44.4806 0.369198 3.76092 0
M  V30 408 H 44.7936 1.37482 7.60473 0
M  V30 409 H 43.1386 1.22958 6.84037 0
M  V30 410 H 46.3296 0.541098 4.64962 0
M  V30 411 H 46.5026 0.999445 6.40246 0
M  V30 412 N 39.9087 -1.5758 0.0250728 0
M  V30 413 C 41.1337 -1.96337 -0.668317 0
M  V30 414 C 41.5587 -0.901314 -1.651 0
M  V30 415 O 40.9167 0.138187 -1.80773 0
M  V30 416 C 40.9647 -3.34191 -1.35457 0
M  V30 417 O 40.0687 -3.30269 -2.46974 0
M  V30 418 H 39.4097 -0.640281 -0.175887 0
M  V30 419 H 41.9397 -2.0442 0.0857224 0
M  V30 420 H 41.9497 -3.70331 -1.71228 0
M  V30 421 H 40.6247 -4.11036 -0.634218 0
M  V30 422 H 39.2017 -3.05841 -2.13344 0
M  V30 423 N 41.3868 0.248026 -1.55636 0
M  V30 424 C 42.6118 0.998028 -1.81808 0
M  V30 425 C 43.0368 1.78207 -0.601979 0
M  V30 426 O 42.3948 1.75653 0.448961 0
M  V30 427 C 42.4428 1.9125 -3.05705 0
M  V30 428 O 41.5468 3.00406 -2.82542 0
M  V30 429 H 40.8878 0.284045 -0.600179 0
M  V30 430 H 43.4178 0.269357 -2.02819 0
M  V30 431 H 43.4278 2.32737 -3.35108 0
M  V30 432 H 42.1028 1.33602 -3.93857 0
M  V30 433 H 40.6798 2.63056 -2.64303 0
M  V30 434 N 42.8649 1.48995 0.513639 0
M  V30 435 C 44.1109 1.58076 1.27042 0
M  V30 436 C 44.4439 0.261026 1.92438 0
M  V30 437 O 43.7189 -0.734393 1.80103 0
M  V30 438 C 44.0019 2.73091 2.34719 0
M  V30 439 C 43.8549 4.14821 1.73907 0
M  V30 440 C 45.1739 2.83796 3.36375 0
M  V30 441 H 42.2929 0.575391 0.460536 0
M  V30 442 H 44.9349 1.81232 0.570516 0
M  V30 443 H 43.0849 2.53479 2.94416 0
M  V30 444 H 44.7569 4.45917 1.18135 0
M  V30 445 H 42.9999 4.21058 1.0437 0
M  V30 446 H 43.6709 4.91147 2.51949 0
M  V30 447 H 46.1469 3.01611 2.86653 0
M  V30 448 H 45.0229 3.65971 4.09093 0
M  V30 449 H 45.2839 1.92624 3.9793 0
M  V30 450 N 44.343 -0.763751 1.37857 0
M  V30 451 C 45.754 -1.3405 1.29952 0
M  V30 452 C 46.105 -1.96138 -0.0492898 0
M  V30 453 O 45.23 -1.94372 -0.951239 0
M  V30 454 C 45.825 -2.43729 2.35333 0
M  V30 455 C 44.384 -2.97151 2.31037 0
M  V30 456 C 43.531 -1.70438 2.18738 0
M  V30 457 H 46.482 -0.563396 1.48363 0
M  V30 458 H 46.503 -3.23412 2.00462 0
M  V30 459 H 46.015 -1.9851 3.33489 0
M  V30 460 H 44.116 -3.46724 1.3643 0
M  V30 461 H 44.229 -3.52221 3.24772 0
M  V30 462 H 42.593 -1.93673 1.65418 0
M  V30 463 H 43.376 -1.27312 3.18821 0
M  V30 464 N 45.8211 -1.22559 -0.990812 0
M  V30 465 C 47.0691 -1.04933 -1.72724 0
M  V30 466 C 47.3901 0.416158 -1.90508 0
M  V30 467 O 46.6601 1.29918 -1.46622 0
M  V30 468 H 45.2401 -0.385296 -0.639965 0
M  V30 469 H 47.9021 -1.54105 -1.19322 0
M  V30 470 H 46.9981 -1.52886 -2.72089 0
M  V30 471 N 47.2992 1.18797 -1.03562 0
M  V30 472 C 48.2462 2.22253 -0.622259 0
M  V30 473 C 49.2162 1.61987 0.36736 0
M  V30 474 O 50.4012 1.88986 0.262492 0
M  V30 475 C 47.5412 3.45097 0.0138462 0
M  V30 476 C 46.6542 4.19722 -1.02263 0
M  V30 477 C 45.7892 5.30009 -0.355573 0
M  V30 478 C 44.8282 5.96399 -1.37749 0
M  V30 479 N 43.9652 6.98234 -0.735766 0
M  V30 480 H 48.8052 2.56968 -1.50903 0
M  V30 481 H 46.3422 1.26245 -0.755017 0
M  V30 482 H 48.3002 4.15279 0.399948 0
M  V30 483 H 46.9302 3.11018 0.864158 0
M  V30 484 H 45.9822 3.48418 -1.52673 0
M  V30 485 H 47.2942 4.65227 -1.79903 0
M  V30 486 H 46.4482 6.0664 0.0850095 0
M  V30 487 H 45.1872 4.85592 0.452967 0
M  V30 488 H 44.1922 5.18512 -1.82826 0
M  V30 489 H 45.4172 6.42899 -2.18764 0
M  V30 490 H 43.3632 6.55979 0.0525597 0
M  V30 491 H 43.2802 7.41965 -1.44995 0
M  V30 492 H 44.5482 7.78845 -0.31941 0
M  V30 493 N 48.7773 0.814389 1.34928 0
M  V30 494 C 49.7103 0.175641 2.27523 0
M  V30 495 C 50.6883 -0.662953 1.48471 0
M  V30 496 O 51.8723 -0.628545 1.77712 0
M  V30 497 C 48.9993 -0.755516 3.30166 0
M  V30 498 C 48.0453 0.00445305 4.265 0
M  V30 499 S 48.8783 1.34582 5.18313 0
M  V30 500 C 50.0343 0.419315 6.24494 0
M  V30 501 H 50.2673 0.960691 2.8135 0
M  V30 502 H 47.8003 0.609846 1.41846 0
M  V30 503 H 49.7583 -1.28723 3.89796 0
M  V30 504 H 48.4193 -1.51402 2.75202 0
M  V30 505 H 47.6123 -0.703077 4.99072 0
M  V30 506 H 47.2143 0.466447 3.7108 0
M  V30 507 H 49.5063 -0.392432 6.76362 0
M  V30 508 H 50.4493 1.11446 6.99275 0
M  V30 509 H 50.8573 0.0115389 5.64499 0
M  V30 510 N 50.2554 -1.46986 0.568584 0
M  V30 511 C 51.2024 -2.30153 -0.172707 0
M  V30 512 C 52.1724 -1.39759 -0.897586 0
M  V30 513 O 53.3574 -1.68716 -0.891044 0
M  V30 514 C 50.4974 -3.23952 -1.1895 0
M  V30 515 C 49.6104 -4.29441 -0.469517 0
M  V30 516 C 48.7454 -5.1038 -1.47259 0
M  V30 517 C 47.7844 -6.07632 -0.738225 0
M  V30 518 N 46.9214 -6.8149 -1.68868 0
M  V30 519 H 51.7614 -2.93019 0.542596 0
M  V30 520 H 49.2984 -1.44422 0.279401 0
M  V30 521 H 51.2564 -3.76767 -1.79173 0
M  V30 522 H 49.8864 -2.62926 -1.87269 0
M  V30 523 H 48.9384 -3.79594 0.247467 0
M  V30 524 H 50.2504 -4.98689 0.105241 0
M  V30 525 H 49.4044 -5.67402 -2.14803 0
M  V30 526 H 48.1434 -4.4106 -2.08128 0
M  V30 527 H 47.1484 -5.49778 -0.0489293 0
M  V30 528 H 48.3734 -6.78966 -0.135129 0
M  V30 529 H 46.3194 -6.14891 -2.28573 0
M  V30 530 H 46.2364 -7.46948 -1.16636 0
M  V30 531 H 47.5044 -7.43078 -2.3549 0
M  V30 532 N 51.7335 -0.305618 -1.54608 0
M  V30 533 C 52.9815 0.301701 -1.99835 0
M  V30 534 C 53.3025 1.54054 -1.19551 0
M  V30 535 O 52.5725 1.93702 -0.292658 0
M  V30 536 H 51.1525 0.114468 -0.738178 0
M  V30 537 H 53.8145 -0.418016 -1.90364 0
M  V30 538 H 52.9105 0.570548 -3.06841 0
M  V30 539 N 53.2116 1.57565 -0.0334293 0
M  V30 540 C 54.6276 1.56297 0.322997 0
M  V30 541 C 54.8276 1.03945 1.7262 0
M  V30 542 O 53.8836 0.688109 2.42943 0
M  V30 543 C 55.1966 3.00232 0.167664 0
M  V30 544 C 56.7446 3.12078 0.240107 0
M  V30 545 C 57.2196 4.57859 0.113513 0
M  V30 546 N 58.7106 4.62887 0.170359 0
M  V30 547 C 59.4456 5.73319 0.0962517 0
M  V30 548 N 58.9416 6.92794 -0.0291881 0
M  V30 549 N 60.7346 5.61898 0.150551 0
M  V30 550 H 52.8856 1.89923 -0.950956 0
M  V30 551 H 55.1486 0.873824 -0.367608 0
M  V30 552 H 54.8546 3.42501 -0.799102 0
M  V30 553 H 54.7286 3.654 0.936083 0
M  V30 554 H 57.1156 2.69718 1.19733 0
M  V30 555 H 57.1966 2.49623 -0.558763 0
M  V30 556 H 56.8406 5.009 -0.840314 0
M  V30 557 H 56.7706 5.18299 0.931302 0
M  V30 558 H 59.2616 3.76954 0.26728 0
M  V30 559 H 59.5746 7.7276 -0.0789252 0
M  V30 560 H 57.9196 6.94971 -0.0640299 0
M  V30 561 H 61.1106 4.67448 0.246981 0
M  V30 562 H 61.2836 6.47938 0.0893365 0
M  V30 563 N 54.6897 -0.239769 1.55765 0
M  V30 564 C 55.6367 -1.29696 1.90913 0
M  V30 565 C 56.6067 -1.47478 0.764164 0
M  V30 566 O 57.7917 -1.61345 1.01845 0
M  V30 567 C 54.9317 -2.64598 2.21544 0
M  V30 568 C 54.0447 -2.54765 3.48882 0
M  V30 569 C 53.1797 -3.82069 3.69049 0
M  V30 570 C 52.2187 -3.66883 4.89963 0
M  V30 571 N 51.3557 -4.86094 5.06614 0
M  V30 572 H 56.1957 -0.990224 2.81067 0
M  V30 573 H 53.7327 -0.477684 1.39128 0
M  V30 574 H 55.6907 -3.43132 2.3731 0
M  V30 575 H 54.3207 -2.93405 1.34585 0
M  V30 576 H 53.3727 -1.67763 3.41409 0
M  V30 577 H 54.6847 -2.39457 4.37563 0
M  V30 578 H 53.8387 -4.69046 3.84812 0
M  V30 579 H 52.5777 -4.00282 2.78614 0
M  V30 580 H 51.5827 -2.78289 4.74168 0
M  V30 581 H 52.8077 -3.50157 5.81865 0
M  V30 582 H 50.7537 -5.04655 4.19117 0
M  V30 583 H 50.6707 -4.73443 5.89396 0
M  V30 584 H 51.9387 -5.74549 5.26795 0
M  V30 585 N 56.1678 -1.49265 -0.50573 0
M  V30 586 C 57.1308 -1.65075 -1.59006 0
M  V30 587 C 58.1308 -0.522768 -1.52065 0
M  V30 588 O 59.3208 -0.789117 -1.55302 0
M  V30 589 C 56.4528 -1.64369 -2.98656 0
M  V30 590 H 57.6458 -2.61784 -1.46319 0
M  V30 591 H 55.1988 -1.38226 -0.729616 0
M  V30 592 H 55.9338 -0.692272 -3.16825 0
M  V30 593 H 55.7188 -2.46282 -3.05103 0
M  V30 594 H 57.2088 -1.78674 -3.77446 0
M  V30 595 N 57.6459 0.756429 -1.3826 0
M  V30 596 C 59.0619 1.0591 -1.19395 0
M  V30 597 C 59.2619 2.01459 -0.0406567 0
M  V30 598 O 58.3179 2.44909 0.614467 0
M  V30 599 C 59.6309 1.64191 -2.51916 0
M  V30 600 C 61.1789 1.76376 -2.58574 0
M  V30 601 C 61.6539 2.38069 -3.91264 0
M  V30 602 N 63.1449 2.45503 -3.92788 0
M  V30 603 C 63.8799 2.94126 -4.92217 0
M  V30 604 N 63.3759 3.42805 -6.02043 0
M  V30 605 N 65.1689 2.9314 -4.7961 0
M  V30 606 H 57.3199 0.122313 -2.12048 0
M  V30 607 H 59.5829 0.116892 -0.940766 0
M  V30 608 H 59.2889 1.01451 -3.3675 0
M  V30 609 H 59.1629 2.6329 -2.70108 0
M  V30 610 H 61.5499 2.38244 -1.74137 0
M  V30 611 H 61.6309 0.759894 -2.44252 0
M  V30 612 H 61.2749 1.76835 -4.76121 0
M  V30 613 H 61.2049 3.39091 -4.02895 0
M  V30 614 H 63.6959 2.1107 -3.13461 0
M  V30 615 H 64.0089 3.78354 -6.73846 0
M  V30 616 H 62.3539 3.4087 -6.05667 0
M  V30 617 H 65.5449 2.54419 -3.92923 0
M  V30 618 H 65.7179 3.30721 -5.5725 0
M  V30 619 N 59.124 1.23083 0.984299 0
M  V30 620 C 60.37 1.07221 1.72845 0
M  V30 621 C 60.725 -0.387453 1.88458 0
M  V30 622 O 60.018 -1.28309 1.42293 0
M  V30 623 C 60.212 1.72673 3.1292 0
M  V30 624 C 60.041 3.24853 3.10967 0
M  V30 625 C 58.811 3.93998 3.16376 0
M  V30 626 C 61.009 4.21674 2.94441 0
M  V30 627 N 58.991 5.33192 3.04268 0
M  V30 628 C 60.362 5.47756 2.90453 0
M  V30 629 C 62.417 4.12457 2.78897 0
M  V30 630 C 61.12 6.6568 2.72512 0
M  V30 631 C 63.146 5.3004 2.62319 0
M  V30 632 C 62.508 6.55046 2.59026 0
M  V30 633 H 58.607 0.44685 0.641755 0
M  V30 634 H 61.191 1.55753 1.16829 0
M  V30 635 H 59.362 1.26679 3.67161 0
M  V30 636 H 61.094 1.49824 3.75945 0
M  V30 637 H 57.849 3.45052 3.24401 0
M  V30 638 H 58.273 6.06157 3.015 0
M  V30 639 H 62.915 3.16588 2.80235 0
M  V30 640 H 60.633 7.61689 2.69919 0
M  V30 641 H 64.219 5.24747 2.5126 0
M  V30 642 H 63.099 7.44498 2.46357 0
M  V30 643 N 60.6021 -1.18246 1.0419 0
M  V30 644 C 61.8271 -1.92736 0.765996 0
M  V30 645 C 62.2521 -1.75728 -0.67091 0
M  V30 646 O 61.6101 -1.06825 -1.46486 0
M  V30 647 C 61.6581 -3.42148 1.13875 0
M  V30 648 O 60.7621 -4.11548 0.264954 0
M  V30 649 H 60.1031 -0.601238 0.281797 0
M  V30 650 H 62.6331 -1.49942 1.39207 0
M  V30 651 H 62.6431 -3.92858 1.1012 0
M  V30 652 H 61.3181 -3.53848 2.18551 0
M  V30 653 H 59.8951 -3.71137 0.362226 0
M  V30 654 N 62.0802 -0.821533 -1.34494 0
M  V30 655 C 63.3262 -0.409552 -1.98622 0
M  V30 656 C 63.6592 1.0244 -1.64984 0
M  V30 657 O 62.9342 1.71325 -0.920758 0
M  V30 658 C 63.2172 -0.610458 -3.54888 0
M  V30 659 C 63.0702 -2.09043 -3.98273 0
M  V30 660 C 64.3892 -0.0455379 -4.40076 0
M  V30 661 H 61.5082 -0.15028 -0.721516 0
M  V30 662 H 64.1502 -1.03384 -1.59411 0
M  V30 663 H 62.3002 -0.079044 -3.8842 0
M  V30 664 H 63.9722 -2.68537 -3.75081 0
M  V30 665 H 62.2152 -2.58139 -3.48635 0
M  V30 666 H 62.8862 -2.18182 -5.07051 0
M  V30 667 H 65.3622 -0.499557 -4.1309 0
M  V30 668 H 64.2382 -0.215922 -5.48475 0
M  V30 669 H 64.4992 1.04939 -4.29465 0
M  V30 670 N 63.5583 1.46682 -0.576371 0
M  V30 671 C 64.9743 1.57822 -0.237562 0
M  V30 672 C 65.1743 1.57237 1.26011 0
M  V30 673 O 64.2303 1.48596 2.04146 0
M  V30 674 C 65.5433 2.87499 -0.881168 0
M  V30 675 C 67.0913 3.01119 -0.85417 0
M  V30 676 C 67.5663 4.33524 -1.4772 0
M  V30 677 N 69.0573 4.40207 -1.44125 0
M  V30 678 C 69.7923 5.4126 -1.89276 0
M  V30 679 N 69.2883 6.49021 -2.42371 0
M  V30 680 N 71.0813 5.32422 -1.80231 0
M  V30 681 H 63.2323 1.45306 -1.54919 0
M  V30 682 H 65.4953 0.692733 -0.647167 0
M  V30 683 H 65.2013 2.9372 -1.93447 0
M  V30 684 H 65.0753 3.75224 -0.385592 0
M  V30 685 H 67.4623 2.94485 0.190491 0
M  V30 686 H 67.5433 2.14887 -1.3877 0
M  V30 687 H 67.1873 4.40916 -2.52103 0
M  V30 688 H 67.1173 5.1852 -0.918947 0
M  V30 689 H 69.6083 3.62931 -1.05307 0
M  V30 690 H 69.9213 7.2233 -2.74698 0
M  V30 691 H 68.2663 6.49858 -2.46393 0
M  V30 692 H 71.4573 4.47137 -1.38514 0
M  V30 693 H 71.6303 6.11034 -2.15735 0
M  V30 694 N 65.0364 0.313813 1.54444 0
M  V30 695 C 66.4474 -0.176243 1.85866 0
M  V30 696 C 66.7984 -1.52405 1.23561 0
M  V30 697 O 65.9234 -2.09605 0.538016 0
M  V30 698 C 66.5184 -0.32657 3.37222 0
M  V30 699 C 65.0774 -0.760846 3.6863 0
M  V30 700 C 64.2244 0.123247 2.77026 0
M  V30 701 H 67.1754 0.534418 1.49431 0
M  V30 702 H 67.1964 -1.15908 3.62416 0
M  V30 703 H 66.7084 0.654531 3.82541 0
M  V30 704 H 64.8094 -1.75204 3.28838 0
M  V30 705 H 64.9224 -0.571353 4.75681 0
M  V30 706 H 63.2864 -0.399597 2.51546 0
M  V30 707 H 64.0694 1.10094 3.25168 0
M  V30 708 N 66.5145 -1.57545 0.0417849 0
M  V30 709 C 67.7395 -1.97035 -0.647455 0
M  V30 710 C 68.1645 -0.918775 -1.64135 0
M  V30 711 O 67.5225 0.119006 -1.80909 0
M  V30 712 C 67.5705 -3.35609 -1.31905 0
M  V30 713 O 66.6745 -3.3287 -2.43457 0
M  V30 714 H 66.0155 -0.64211 -0.169086 0
M  V30 715 H 68.5455 -2.04318 0.107399 0
M  V30 716 H 68.5555 -3.72126 -1.67291 0
M  V30 717 H 67.2305 -4.11685 -0.590586 0
M  V30 718 H 65.8075 -3.08087 -2.10088 0
M  V30 719 N 67.9926 0.231505 -1.5589 0
M  V30 720 C 69.2696 0.981096 -1.69215 0
M  V30 721 C 69.6496 2.02799 -0.586164 0
M  V30 722 O 68.9976 2.24823 0.408253 0
M  V30 723 C 69.2076 1.60054 -3.10135 0
M  V30 724 C 70.5556 2.09658 -3.69227 0
M  V30 725 O 71.5796 1.69967 -3.13033 0
M  V30 726 O 70.4386 2.8258 -4.67772 0
M  V30 727 H 67.5326 0.457653 -0.688827 0
M  V30 728 H 70.0786 0.224073 -1.68214 0
M  V30 729 H 68.8506 0.844105 -3.82087 0
M  V30 730 H 68.4736 2.42336 -3.15212 0
M  V30 731 N 69.4707 1.49531 0.497807 0
M  V30 732 C 70.4037 1.61043 1.6168 0
M  V30 733 C 71.3817 0.459386 1.55976 0
M  V30 734 O 72.5657 0.675358 1.75986 0
M  V30 735 C 69.6927 1.56833 3.00202 0
M  V30 736 C 68.7387 2.77173 3.24156 0
M  V30 737 S 69.5717 4.38808 3.06933 0
M  V30 738 C 70.7277 4.37248 4.47845 0
M  V30 739 H 70.9607 2.55702 1.51671 0
M  V30 740 H 68.4937 1.38462 0.683201 0
M  V30 741 H 70.4517 1.55089 3.80076 0
M  V30 742 H 69.1127 0.634561 3.07623 0
M  V30 743 H 68.3057 2.70456 4.25288 0
M  V30 744 H 67.9077 2.76346 2.5201 0
M  V30 745 H 70.1997 4.09164 5.39992 0
M  V30 746 H 71.1427 5.38668 4.59612 0
M  V30 747 H 71.5507 3.67286 4.28674 0
M  V30 748 N 70.9488 -0.749086 1.3866 0
M  V30 749 C 71.9118 -1.84457 1.36045 0
M  V30 750 C 72.9118 -1.58682 0.260122 0
M  V30 751 O 74.1018 -1.66343 0.517261 0
M  V30 752 C 71.2338 -3.22008 1.11911 0
M  V30 753 H 72.4268 -1.88182 2.33512 0
M  V30 754 H 69.9798 -0.951266 1.24019 0
M  V30 755 H 70.7148 -3.2395 0.150686 0
M  V30 756 H 70.4998 -3.42111 1.91579 0
M  V30 757 H 71.9898 -4.0208 1.12788 0
M  V30 758 N 72.4269 -1.23603 -0.977757 0
M  V30 759 C 73.3739 -1.01954 -2.07061 0
M  V30 760 C 74.3439 0.0638697 -1.65977 0
M  V30 761 O 75.5289 -0.0887624 -1.90593 0
M  V30 762 C 72.6689 -0.619658 -3.39491 0
M  V30 763 C 71.7819 -1.77547 -3.93829 0
M  V30 764 C 70.9169 -1.32212 -5.14484 0
M  V30 765 C 69.9559 -2.44852 -5.60994 0
M  V30 766 N 69.0929 -2.00456 -6.72876 0
M  V30 767 H 73.9329 -1.95495 -2.24913 0
M  V30 768 H 71.4699 -0.973861 -1.10247 0
M  V30 769 H 73.4279 -0.368898 -4.15566 0
M  V30 770 H 72.0579 0.278752 -3.21594 0
M  V30 771 H 71.1099 -2.14016 -3.14486 0
M  V30 772 H 72.4219 -2.62219 -4.24314 0
M  V30 773 H 71.5759 -1.02965 -5.97899 0
M  V30 774 H 70.3149 -0.445808 -4.85658 0
M  V30 775 H 69.3199 -2.74871 -4.76157 0
M  V30 776 H 70.5449 -3.33024 -5.91837 0
M  V30 777 H 68.4909 -1.15208 -6.45804 0
M  V30 778 H 68.4079 -2.78687 -7.02759 0
M  V30 779 H 69.6759 -1.7432 -7.59758 0
M  V30 780 N 73.905 1.17692 -1.04816 0
M  V30 781 C 74.852 2.21581 -0.645797 0
M  V30 782 C 75.822 1.62367 0.350159 0
M  V30 783 O 77.007 1.89254 0.242433 0
M  V30 784 C 74.147 3.45092 -0.0227568 0
M  V30 785 C 73.26 4.18613 -1.06709 0
M  V30 786 C 72.395 5.29602 -0.411767 0
M  V30 787 C 71.434 5.94904 -1.44067 0
M  V30 788 N 70.571 6.97414 -0.809781 0
M  V30 789 H 75.411 2.55353 -1.5362 0
M  V30 790 H 72.948 1.25438 -0.768364 0
M  V30 791 H 74.906 4.15679 0.35588 0
M  V30 792 H 73.536 3.11917 0.831122 0
M  V30 793 H 72.588 3.46779 -1.5636 0
M  V30 794 H 73.9 4.63293 -1.84827 0
M  V30 795 H 73.054 6.06696 0.0206623 0
M  V30 796 H 71.793 4.86045 0.401438 0
M  V30 797 H 70.798 5.16544 -1.88316 0
M  V30 798 H 72.023 6.40542 -2.25571 0
M  V30 799 H 69.969 6.55998 -0.0170186 0
M  V30 800 H 69.886 7.40386 -1.52856 0
M  V30 801 H 71.154 7.78463 -0.401999 0
M  V30 802 N 75.3831 0.828654 1.34056 0
M  V30 803 C 76.6111 0.43262 2.02326 0
M  V30 804 C 77.0261 -0.963147 1.62385 0
M  V30 805 O 76.3831 -1.62425 0.832121 0
M  V30 806 C 76.4341 0.53182 3.57567 0
M  V30 807 O 76.1551 1.87258 3.96063 0
M  V30 808 C 77.6561 0.131422 4.43105 0
M  V30 809 H 74.8761 0.172923 0.648335 0
M  V30 810 H 77.4201 1.1184 1.71208 0
M  V30 811 H 75.5751 -0.105938 3.87255 0
M  V30 812 H 75.9891 1.85087 4.90758 0
M  V30 813 H 77.4631 0.251904 5.51425 0
M  V30 814 H 77.9401 -0.925645 4.29335 0
M  V30 815 H 78.5461 0.743207 4.18756 0
M  V30 816 N 76.8612 -1.46375 0.584142 0
M  V30 817 C 78.1082 -2.02378 0.0702675 0
M  V30 818 C 78.4362 -1.45545 -1.29023 0
M  V30 819 O 77.6912 -0.610967 -1.85918 0
M  V30 820 C 77.9902 -3.57373 -0.0439342 0
M  V30 821 C 77.6562 -4.33252 1.24915 0
M  V30 822 C 76.3182 -4.53701 1.60341 0
M  V30 823 C 78.6702 -4.7681 2.1048 0
M  V30 824 C 75.9982 -5.1496 2.81128 0
M  V30 825 C 78.3502 -5.39404 3.30494 0
M  V30 826 C 77.0142 -5.5808 3.66201 0
M  V30 827 H 76.2842 -0.740554 0.0257127 0
M  V30 828 H 78.9312 -1.75727 0.761065 0
M  V30 829 H 77.2362 -3.83169 -0.817869 0
M  V30 830 H 78.9332 -3.98384 -0.457318 0
M  V30 831 H 75.5232 -4.17633 0.963364 0
M  V30 832 H 79.7072 -4.60766 1.84414 0
M  V30 833 H 74.9632 -5.27611 3.08928 0
M  V30 834 H 79.1372 -5.72114 3.97063 0
M  V30 835 H 76.7642 -6.05318 4.59885 0
M  V30 836 N 78.3393 -0.321999 -1.54275 0
M  V30 837 C 79.2873 0.560206 -2.25753 0
M  V30 838 C 80.2813 1.11984 -1.27106 0
M  V30 839 O 81.4873 1.06806 -1.44888 0
M  V30 840 H 77.8623 0.199304 -0.725108 0
M  V30 841 H 79.8333 -0.0649365 -2.98329 0
M  V30 842 C 78.5823 1.71023 -3.02731 0
M  V30 843 H 77.9053 1.28885 -3.78456 0
M  V30 844 H 79.3453 2.30314 -3.55993 0
M  V30 845 C 77.8043 2.62692 -2.10938 0
M  V30 846 O 78.3343 3.64364 -1.6912 0
M  V30 847 N 76.5403 2.30891 -1.76459 0
M  V30 848 H 76.0873 1.48253 -2.10663 0
M  V30 849 H 76.0453 2.92487 -1.1532 0
M  V30 850 N 79.8174 1.5752 -0.0501392 0
M  V30 851 C 81.2284 1.80271 0.485705 0
M  V30 852 C 81.5794 0.96228 1.70981 0
M  V30 853 O 80.7044 0.178578 2.15662 0
M  V30 854 C 81.2994 3.26957 0.887938 0
M  V30 855 C 79.8584 3.5063 1.36877 0
M  V30 856 C 79.0054 2.75165 0.343468 0
M  V30 857 H 81.9564 1.56281 -0.276028 0
M  V30 858 H 81.9774 3.37821 1.75093 0
M  V30 859 H 81.4894 3.881 -0.0031809 0
M  V30 860 H 79.5904 2.94766 2.27911 0
M  V30 861 H 79.7034 4.59343 1.36164 0
M  V30 862 H 78.0674 2.4127 0.816128 0
M  V30 863 H 78.8504 3.39034 -0.539548 0
M  V30 864 N 81.2955 -0.223234 1.56011 0
M  V30 865 C 82.5445 -0.945912 1.78144 0
M  V30 866 C 82.8575 -1.85567 0.618396 0
M  V30 867 O 84.0635 -2.61688 0.723318 0
M  V30 868 C 82.5195 -1.73216 3.15475 0
M  V30 869 C 82.1275 -0.868619 4.39499 0
M  V30 870 C 83.8715 -2.44615 3.46935 0
M  V30 871 C 81.7785 -1.65212 5.67855 0
M  V30 872 H 80.7085 -0.356929 0.664167 0
M  V30 873 H 83.3595 -0.199845 1.82409 0
M  V30 874 H 81.7415 -2.52107 3.05382 0
M  V30 875 H 82.9155 -0.120366 4.60643 0
M  V30 876 H 81.2305 -0.26683 4.15544 0
M  V30 877 H 83.8275 -3.03732 4.40058 0
M  V30 878 H 84.1705 -3.17417 2.69355 0
M  V30 879 H 84.7035 -1.72715 3.58349 0
M  V30 880 H 81.4425 -0.967407 6.48322 0
M  V30 881 H 80.9625 -2.37503 5.50774 0
M  V30 882 H 82.6415 -2.21322 6.07968 0
M  V30 883 N 82.7736 -1.49793 -0.48987 0
M  V30 884 C 84.1896 -1.36803 -0.822022 0
M  V30 885 C 84.3896 -0.409652 -1.97292 0
M  V30 886 O 83.4456 0.154614 -2.52026 0
M  V30 887 C 84.7586 -2.77768 -1.15175 0
M  V30 888 C 86.3066 -2.86549 -1.25931 0
M  V30 889 C 86.7816 -4.28306 -1.62228 0
M  V30 890 N 88.2726 -4.31169 -1.69256 0
M  V30 891 C 89.0076 -5.37832 -1.98807 0
M  V30 892 N 88.5036 -6.54726 -2.26507 0
M  V30 893 N 90.2966 -5.25258 -2.00152 0
M  V30 894 H 82.4476 -2.10691 0.268881 0
M  V30 895 H 84.7106 -0.946241 0.057728 0
M  V30 896 H 84.4166 -3.49648 -0.379335 0
M  V30 897 H 84.2906 -3.13836 -2.09253 0
M  V30 898 H 86.6776 -2.14899 -2.02243 0
M  V30 899 H 86.7586 -2.54049 -0.298776 0
M  V30 900 H 86.4026 -5.00486 -0.864622 0
M  V30 901 H 86.3326 -4.58279 -2.594 0
M  V30 902 H 88.8236 -3.4687 -1.49965 0
M  V30 903 H 89.1366 -7.31833 -2.48276 0
M  V30 904 H 87.4816 -6.57933 -2.23939 0
M  V30 905 H 90.6726 -4.32938 -1.77996 0
M  V30 906 H 90.8456 -6.08476 -2.22848 0
M  V30 907 N 84.2517 0.741722 -1.39055 0
M  V30 908 C 85.2147 1.83733 -1.37021 0
M  V30 909 C 86.2147 1.58542 -0.268534 0
M  V30 910 O 87.4047 1.66067 -0.526076 0
M  V30 911 C 84.5367 3.2141 -1.13617 0
M  V30 912 H 85.7297 1.86941 -2.34506 0
M  V30 913 H 83.2827 0.944676 -1.24521 0
M  V30 914 H 84.0177 3.23865 -0.167863 0
M  V30 915 H 83.8027 3.4109 -1.93391 0
M  V30 916 H 85.2927 4.01477 -1.14918 0
M  V30 917 N 85.7298 1.2412 0.971189 0
M  V30 918 C 86.9788 1.07284 1.70801 0
M  V30 919 C 87.2918 -0.388902 1.91695 0
M  V30 920 O 88.4978 -0.677379 2.62914 0
M  V30 921 C 86.9538 1.87145 3.07416 0
M  V30 922 C 86.5618 3.37707 2.94377 0
M  V30 923 C 88.3058 1.78828 3.84995 0
M  V30 924 C 86.2128 4.09925 4.26281 0
M  V30 925 H 85.1428 0.397854 0.64049 0
M  V30 926 H 87.7938 1.4817 1.0825 0
M  V30 927 H 86.1758 1.39071 3.70777 0
M  V30 928 H 87.3498 3.93335 2.4005 0
M  V30 929 H 85.6648 3.46938 2.30267 0
M  V30 930 H 88.2618 2.30089 4.82662 0
M  V30 931 H 88.6048 0.75284 4.09436 0
M  V30 932 H 89.1378 2.24563 3.28354 0
M  V30 933 H 85.8768 5.13813 4.07033 0
M  V30 934 H 85.3968 3.59083 4.80437 0
M  V30 935 H 87.0758 4.1673 4.94919 0
M  V30 936 N 87.2079 -1.17134 1.05439 0
M  V30 937 C 88.4539 -1.87733 0.767077 0
M  V30 938 C 88.7869 -1.8098 -0.704253 0
M  V30 939 O 88.0619 -1.21951 -1.5152 0
M  V30 940 C 88.3449 -3.37659 1.25133 0
M  V30 941 C 88.1979 -3.53149 2.78578 0
M  V30 942 C 89.5169 -4.31768 0.852324 0
M  V30 943 H 86.6359 -0.681687 0.280129 0
M  V30 944 H 89.2779 -1.37732 1.30881 0
M  V30 945 H 87.4279 -3.80373 0.790469 0
M  V30 946 H 89.0999 -3.19434 3.32806 0
M  V30 947 H 87.3429 -2.95345 3.17732 0
M  V30 948 H 88.0139 -4.58403 3.07523 0
M  V30 949 H 90.4899 -3.96909 1.24911 0
M  V30 950 H 89.3659 -5.35199 1.21873 0
M  V30 951 H 89.6269 -4.41429 -0.243485 0
M  V30 952 N 88.686 -0.835752 -1.33615 0
M  V30 953 C 89.963 -0.352017 -1.92406 0
M  V30 954 C 90.343 1.16225 -1.76224 0
M  V30 955 O 89.691 1.97526 -1.14873 0
M  V30 956 C 89.901 -0.795485 -3.39813 0
M  V30 957 C 91.249 -0.801703 -4.16963 0
M  V30 958 O 92.273 -0.738889 -3.48452 0
M  V30 959 O 91.132 -0.886607 -5.3926 0
M  V30 960 H 88.226 -0.0989641 -0.821057 0
M  V30 961 H 90.772 -0.921397 -1.42507 0
M  V30 962 H 89.544 -1.83795 -3.45449 0
M  V30 963 H 89.167 -0.202505 -3.97084 0
M  V30 964 N 90.1641 1.46063 -0.591896 0
M  V30 965 C 91.1121 2.32124 0.148739 0
M  V30 966 C 92.1061 1.45035 0.875286 0
M  V30 967 O 93.3121 1.61609 0.792632 0
M  V30 968 H 89.6871 0.749024 0.066832 0
M  V30 969 H 91.6581 2.92392 -0.595783 0
M  V30 970 C 90.4071 3.28373 1.1431 0
M  V30 971 H 89.7301 3.95371 0.59346 0
M  V30 972 H 91.1701 3.91352 1.63155 0
M  V30 973 C 89.6291 2.54393 2.20875 0
M  V30 974 O 90.1591 2.31373 3.28374 0
M  V30 975 N 88.3651 2.14797 1.95731 0
M  V30 976 H 87.9121 2.33719 1.08319 0
M  V30 977 H 87.8701 1.65619 2.67241 0
M  V30 978 N 91.6422 0.330177 1.54103 0
M  V30 979 C 92.5752 -0.575477 2.20825 0
M  V30 980 C 93.5532 -1.11064 1.18758 0
M  V30 981 O 94.7372 -1.17341 1.47524 0
M  V30 982 C 91.8642 -1.79032 2.87516 0
M  V30 983 C 90.9102 -1.38581 4.03358 0
M  V30 984 S 91.7432 -0.416911 5.33875 0
M  V30 985 C 92.8992 -1.63889 6.04062 0
M  V30 986 H 93.1322 -0.00872114 2.97299 0
M  V30 987 H 90.6652 0.114254 1.53977 0
M  V30 988 H 92.6232 -2.48734 3.2656 0
M  V30 989 H 91.2842 -2.32827 2.10832 0
M  V30 990 H 90.4772 -2.29123 4.48908 0
M  V30 991 H 90.0792 -0.768419 3.66021 0
M  V30 992 H 92.3712 -2.57536 6.26643 0
M  V30 993 H 93.3142 -1.22542 6.97416 0
M  V30 994 H 93.7222 -1.82887 5.34053 0
M  V30 995 N 93.1203 -1.57491 0.0584922 0
M  V30 996 C 94.0673 -2.11958 -0.913376 0
M  V30 997 C 95.0373 -1.02875 -1.30407 0
M  V30 998 O 96.2223 -1.30464 -1.39226 0
M  V30 999 C 93.3623 -2.67497 -2.18035 0
M  V30 1000 C 92.4753 -3.90691 -1.84349 0
M  V30 1001 C 91.6103 -4.3452 -3.05559 0
M  V30 1002 C 90.6493 -5.50395 -2.67827 0
M  V30 1003 N 89.7863 -5.89244 -3.81754 0
M  V30 1004 H 94.6263 -2.94704 -0.442017 0
M  V30 1005 H 92.1633 -1.45643 -0.206545 0
M  V30 1006 H 94.1213 -2.978 -2.92183 0
M  V30 1007 H 92.7513 -1.87537 -2.62735 0
M  V30 1008 H 91.8033 -3.66934 -1.00319 0
M  V30 1009 H 93.1153 -4.7489 -1.5258 0
M  V30 1010 H 92.2693 -4.66414 -3.87998 0
M  V30 1011 H 91.0083 -3.49147 -3.40511 0
M  V30 1012 H 90.0133 -5.18165 -1.83806 0
M  V30 1013 H 91.2383 -6.3749 -2.34059 0
M  V30 1014 H 89.1843 -5.06823 -4.16493 0
M  V30 1015 H 89.1013 -6.68151 -3.53708 0
M  V30 1016 H 90.3693 -6.25756 -4.64811 0
M  V30 1017 N 94.5984 0.214957 -1.56127 0
M  V30 1018 C 95.8444 0.939762 -1.79712 0
M  V30 1019 C 96.1774 1.83723 -0.629247 0
M  V30 1020 O 95.4524 1.90925 0.371197 0
M  V30 1021 C 95.7354 1.77306 -3.13424 0
M  V30 1022 C 95.5884 0.90164 -4.40671 0
M  V30 1023 C 96.9074 2.74956 -3.43638 0
M  V30 1024 H 94.0264 0.340214 -0.653776 0
M  V30 1025 H 96.6684 0.20824 -1.88855 0
M  V30 1026 H 94.8184 2.39673 -3.0576 0
M  V30 1027 H 96.4904 0.294206 -4.60361 0
M  V30 1028 H 94.7334 0.207368 -4.33304 0
M  V30 1029 H 95.4044 1.51923 -5.30682 0
M  V30 1030 H 97.8804 2.22724 -3.51473 0
M  V30 1031 H 96.7564 3.30358 -4.38355 0
M  V30 1032 H 97.0174 3.53023 -2.66134 0
M  V30 1033 N 96.0765 1.50051 0.48192 0
M  V30 1034 C 97.0235 1.68122 1.58125 0
M  V30 1035 C 97.9935 0.522545 1.57666 0
M  V30 1036 O 99.1785 0.751844 1.75362 0
M  V30 1037 C 96.3185 1.77142 2.96167 0
M  V30 1038 C 95.4315 3.0444 3.06497 0
M  V30 1039 C 94.5665 3.04321 4.35387 0
M  V30 1040 C 93.6055 4.26118 4.3942 0
M  V30 1041 N 92.7425 4.238 5.59766 0
M  V30 1042 H 97.5825 2.6198 1.42022 0
M  V30 1043 H 95.1195 1.29877 0.690687 0
M  V30 1044 H 97.0775 1.80352 3.76203 0
M  V30 1045 H 95.7075 0.867329 3.1093 0
M  V30 1046 H 94.7595 3.10752 2.19402 0
M  V30 1047 H 96.0715 3.94426 3.05336 0
M  V30 1048 H 95.2255 3.062 5.23762 0
M  V30 1049 H 93.9645 2.12147 4.39141 0
M  V30 1050 H 92.9695 4.24463 3.49444 0
M  V30 1051 H 94.1945 5.19507 4.37366 0
M  V30 1052 H 92.1405 3.34474 5.64326 0
M  V30 1053 H 92.0575 5.07542 5.60301 0
M  V30 1054 H 93.3255 4.2981 6.50295 0
M  V30 1055 N 97.5546 -0.734337 1.39446 0
M  V30 1056 C 98.9656 -1.31264 1.32766 0
M  V30 1057 C 99.3166 -1.96198 -0.00767497 0
M  V30 1058 O 98.4416 -1.96346 -0.909796 0
M  V30 1059 C 99.0366 -2.38682 2.4045 0
M  V30 1060 C 97.5956 -2.92184 2.37288 0
M  V30 1061 C 96.7426 -1.6576 2.22304 0
M  V30 1062 H 99.6936 -0.531799 1.49525 0
M  V30 1063 H 99.7146 -3.19087 2.07276 0
M  V30 1064 H 99.2266 -1.91392 3.37625 0
M  V30 1065 H 97.3276 -3.43752 1.43754 0
M  V30 1066 H 97.4406 -3.45253 3.3217 0
M  V30 1067 H 95.8046 -1.9012 1.69489 0
M  V30 1068 H 96.5876 -1.20521 3.21449 0
M  V30 1069 N 99.0327 -1.24633 -0.964593 0
M  V30 1070 C 99.9807 -1.03917 -2.08096 0
M  V30 1071 C 100.975 0.0268581 -1.69379 0
M  V30 1072 O 102.181 -0.127952 -1.79545 0
M  V30 1073 H 98.5557 -0.319044 -0.680966 0
M  V30 1074 H 100.527 -1.98581 -2.22729 0
M  V30 1075 C 99.2757 -0.663983 -3.41301 0
M  V30 1076 H 98.5987 -1.47605 -3.71555 0
M  V30 1077 H 100.039 -0.558663 -4.20303 0
M  V30 1078 C 98.4977 0.629169 -3.30973 0
M  V30 1079 O 99.0277 1.67404 -3.65156 0
M  V30 1080 N 97.2337 0.611057 -2.84103 0
M  V30 1081 H 96.7807 -0.239593 -2.56483 0
M  V30 1082 H 96.7387 1.47647 -2.77575 0
M  V30 1083 N 100.511 1.16574 -1.06058 0
M  V30 1084 C 101.922 1.68662 -0.800632 0
M  V30 1085 C 102.273 1.84184 0.67608 0
M  V30 1086 O 101.398 1.53568 1.52466 0
M  V30 1087 C 101.993 3.06356 -1.44676 0
M  V30 1088 C 100.552 3.55575 -1.23465 0
M  V30 1089 C 99.6988 2.31616 -1.52477 0
M  V30 1090 H 102.65 1.00969 -1.22438 0
M  V30 1091 H 102.671 3.70636 -0.860788 0
M  V30 1092 H 102.183 2.95027 -2.52152 0
M  V30 1093 H 100.284 3.72167 -0.179527 0
M  V30 1094 H 100.397 4.37812 -1.94571 0
M  V30 1095 H 98.7608 2.36512 -0.945209 0
M  V30 1096 H 99.5438 2.22887 -2.61106 0
M  V30 1097 N 101.989 0.842826 1.3317 0
M  V30 1098 C 102.937 0.267495 2.31057 0
M  V30 1099 C 103.931 -0.602682 1.58316 0
M  V30 1100 O 105.137 -0.491803 1.73151 0
M  V30 1101 H 101.512 0.0677813 0.748939 0
M  V30 1102 H 103.483 1.10754 2.77085 0
M  V30 1103 C 102.232 -0.539331 3.43492 0
M  V30 1104 H 101.555 0.12095 3.99617 0
M  V30 1105 H 102.995 -0.90767 4.14171 0
M  V30 1106 C 101.454 -1.71981 2.89697 0
M  V30 1107 O 101.984 -2.81862 2.86211 0
M  V30 1108 N 100.19 -1.54299 2.46252 0
M  V30 1109 H 99.7369 -0.649143 2.49287 0
M  V30 1110 H 99.6949 -2.33431 2.10612 0
M  V30 1111 N 103.467 -1.45747 0.599634 0
M  V30 1112 C 104.414 -2.30467 -0.123849 0
M  V30 1113 C 105.384 -1.41632 -0.86774 0
M  V30 1114 O 106.569 -1.70568 -0.855056 0
M  V30 1115 C 103.709 -3.26402 -1.12051 0
M  V30 1116 C 102.822 -4.3034 -0.37832 0
M  V30 1117 C 101.957 -5.13389 -1.364 0
M  V30 1118 C 100.996 -6.09061 -0.609171 0
M  V30 1119 N 100.133 -6.84918 -1.54374 0
M  V30 1120 H 104.973 -2.91802 0.604627 0
M  V30 1121 H 102.51 -1.43797 0.309972 0
M  V30 1122 H 104.468 -3.80482 -1.7114 0
M  V30 1123 H 103.098 -2.66839 -1.8165 0
M  V30 1124 H 102.15 -3.78984 0.327929 0
M  V30 1125 H 103.462 -4.98354 0.210997 0
M  V30 1126 H 102.616 -5.7183 -2.02719 0
M  V30 1127 H 101.355 -4.45376 -1.98725 0
M  V30 1128 H 100.36 -5.49758 0.0676979 0
M  V30 1129 H 101.585 -6.79099 0.00891991 0
M  V30 1130 H 99.531 -6.19601 -2.15478 0
M  V30 1131 H 99.448 -7.49254 -1.00766 0
M  V30 1132 H 100.716 -7.47906 -2.19676 0
M  V30 1133 N 104.945 -0.338344 -1.53925 0
M  V30 1134 C 106.173 0.261298 -2.05243 0
M  V30 1135 C 106.588 1.44625 -1.21363 0
M  V30 1136 O 105.945 1.80811 -0.247736 0
M  V30 1137 C 105.996 0.681412 -3.5502 0
M  V30 1138 O 105.717 -0.456414 -4.35716 0
M  V30 1139 C 107.218 1.34232 -4.22489 0
M  V30 1140 H 104.438 0.0513685 -0.669031 0
M  V30 1141 H 106.982 -0.488822 -1.98572 0
M  V30 1142 H 105.137 1.38148 -3.61931 0
M  V30 1143 H 105.551 -0.122564 -5.24357 0
M  V30 1144 H 107.025 1.58708 -5.28693 0
M  V30 1145 H 107.502 2.29426 -3.74514 0
M  V30 1146 H 108.108 0.684424 -4.19757 0
M  V30 1147 N 106.423 1.57458 -0.0668435 0
M  V30 1148 C 107.356 2.08033 0.93795 0
M  V30 1149 C 108.334 0.984321 1.29421 0
M  V30 1150 O 109.518 1.25736 1.40437 0
M  V30 1151 C 106.645 2.53388 2.24749 0
M  V30 1152 C 105.691 3.74376 2.04315 0
M  V30 1153 S 106.524 5.19303 1.30706 0
M  V30 1154 C 107.68 5.67986 2.62951 0
M  V30 1155 H 107.913 2.92935 0.50759 0
M  V30 1156 H 105.446 1.5371 0.145804 0
M  V30 1157 H 107.404 2.8018 3.00016 0
M  V30 1158 H 106.065 1.68763 2.64911 0
M  V30 1159 H 105.258 4.04083 3.01218 0
M  V30 1160 H 104.86 3.47931 1.37186 0
M  V30 1161 H 107.152 5.74528 3.5906 0
M  V30 1162 H 108.095 6.66955 2.3786 0
M  V30 1163 H 108.503 4.95781 2.69929 0
M  V30 1164 N 107.901 -0.206675 1.56239 0
M  V30 1165 C 109.15 -0.926964 1.79138 0
M  V30 1166 C 109.463 -1.84901 0.638043 0
M  V30 1167 O 110.669 -2.60906 0.751033 0
M  V30 1168 C 109.125 -1.6986 3.17294 0
M  V30 1169 C 108.733 -0.821956 4.40395 0
M  V30 1170 C 110.477 -2.40922 3.4951 0
M  V30 1171 C 108.384 -1.59179 5.69575 0
M  V30 1172 H 107.314 -0.349864 0.667915 0
M  V30 1173 H 109.965 -0.180487 1.8261 0
M  V30 1174 H 108.347 -2.48853 3.08039 0
M  V30 1175 H 109.521 -0.0715019 4.60745 0
M  V30 1176 H 107.836 -0.222741 4.15804 0
M  V30 1177 H 110.433 -2.99047 4.43255 0
M  V30 1178 H 110.776 -3.14542 2.72707 0
M  V30 1179 H 111.309 -1.68905 3.60161 0
M  V30 1180 H 108.048 -0.898589 6.49312 0
M  V30 1181 H 107.568 -2.31648 5.53262 0
M  V30 1182 H 109.247 -2.14862 6.10281 0
M  V30 1183 N 109.379 -1.50304 -0.473955 0
M  V30 1184 C 110.604 -1.65175 -1.25427 0
M  V30 1185 C 111.029 -0.333673 -1.85117 0
M  V30 1186 O 110.387 0.702114 -1.67153 0
M  V30 1187 C 110.435 -2.74295 -2.34082 0
M  V30 1188 O 109.539 -2.35349 -3.38651 0
M  V30 1189 H 108.88 -0.551944 -0.369126 0
M  V30 1190 H 111.41 -1.96662 -0.564364 0
M  V30 1191 H 111.42 -2.97285 -2.79438 0
M  V30 1192 H 110.095 -3.69959 -1.90008 0
M  V30 1193 H 108.672 -2.22794 -2.99027 0
M  V30 1194 N 110.857 0.726932 -1.39834 0
M  V30 1195 C 111.787 1.85405 -1.41941 0
M  V30 1196 C 112.768 1.67751 -0.281728 0
M  V30 1197 O 113.953 1.8795 -0.488717 0
M  V30 1198 C 111.083 3.23243 -1.2701 0
M  V30 1199 C 110.037 3.55549 -2.38262 0
M  V30 1200 C 109.363 4.9241 -2.08415 0
M  V30 1201 C 110.663 3.577 -3.80589 0
M  V30 1202 H 112.357 1.83899 -2.36266 0
M  V30 1203 H 109.903 0.883349 -1.13723 0
M  V30 1204 H 111.856 4.01775 -1.27103 0
M  V30 1205 H 110.58 3.25296 -0.291564 0
M  V30 1206 H 109.239 2.79351 -2.37399 0
M  V30 1207 H 108.887 4.91052 -1.0898 0
M  V30 1208 H 108.587 5.14992 -2.82943 0
M  V30 1209 H 110.111 5.73289 -2.10171 0
M  V30 1210 H 111.525 4.26293 -3.83337 0
M  V30 1211 H 109.922 3.91804 -4.54543 0
M  V30 1212 H 110.992 2.57328 -4.10987 0
M  V30 1213 N 112.336 1.25143 0.95797 0
M  V30 1214 C 113.561 1.12521 1.74223 0
M  V30 1215 C 113.986 -0.317402 1.85403 0
M  V30 1216 O 113.344 -1.2299 1.33204 0
M  V30 1217 C 113.392 1.78062 3.1357 0
M  V30 1218 O 112.496 1.058 3.98598 0
M  V30 1219 H 111.837 0.39304 0.535178 0
M  V30 1220 H 114.367 1.65641 1.201 0
M  V30 1221 H 114.377 1.84213 3.64046 0
M  V30 1222 H 113.052 2.83021 3.04749 0
M  V30 1223 H 111.629 1.07506 3.57067 0
M  V30 1224 N 113.814 -1.1601 1.06675 0
M  V30 1225 C 115.063 -1.85973 0.780818 0
M  V30 1226 C 115.376 -1.82819 -0.695444 0
M  V30 1227 O 116.582 -2.484 -1.09589 0
M  V30 1228 C 115.038 -3.33757 1.34665 0
M  V30 1229 C 114.646 -3.45374 2.85343 0
M  V30 1230 C 116.39 -4.0895 1.13843 0
M  V30 1231 C 114.297 -4.87266 3.35151 0
M  V30 1232 H 113.227 -0.696661 0.288407 0
M  V30 1233 H 115.878 -1.30903 1.28595 0
M  V30 1234 H 114.26 -3.88456 0.769274 0
M  V30 1235 H 115.434 -3.00816 3.49065 0
M  V30 1236 H 113.749 -2.83619 3.04876 0
M  V30 1237 H 116.346 -5.13654 1.4854 0
M  V30 1238 H 116.689 -4.16229 0.0770282 0
M  V30 1239 H 117.222 -3.605 1.68179 0
M  V30 1240 H 113.961 -4.85168 4.40786 0
M  V30 1241 H 113.481 -5.32433 2.76179 0
M  V30 1242 H 115.16 -5.56097 3.30704 0
M  V30 1243 N 115.292 -0.849877 -1.32721 0
M  V30 1244 C 116.54 -0.450032 -1.97026 0
M  V30 1245 C 116.861 0.996604 -1.67609 0
M  V30 1246 O 116.131 1.6958 -0.980786 0
M  V30 1247 H 114.711 -0.163426 -0.728904 0
M  V30 1248 H 117.373 -1.08526 -1.6189 0
M  V30 1249 H 116.469 -0.591146 -3.0645 0
M  V30 1250 N 116.77 1.45427 -0.607355 0
M  V30 1251 C 118.047 1.9557 -0.0344566 0
M  V30 1252 C 118.427 1.54979 1.43334 0
M  V30 1253 O 117.775 0.812241 2.13576 0
M  V30 1254 C 117.985 3.48226 -0.232321 0
M  V30 1255 C 119.333 4.2445 -0.113001 0
M  V30 1256 O 120.357 3.55829 -0.162431 0
M  V30 1257 O 119.216 5.465 0.00209442 0
M  V30 1258 H 116.31 0.826222 0.0358667 0
M  V30 1259 H 118.856 1.55594 -0.6774 0
M  V30 1260 H 117.628 3.70739 -1.25174 0
M  V30 1261 H 117.251 3.95092 0.445896 0
M  V30 1262 N 118.248 0.346503 1.53744 0
M  V30 1263 C 119.659 -0.136779 1.86198 0
M  V30 1264 C 120.01 -1.49749 1.26766 0
M  V30 1265 O 119.135 -2.08417 0.582355 0
M  V30 1266 C 119.73 -0.254966 3.37839 0
M  V30 1267 C 118.289 -0.682482 3.70161 0
M  V30 1268 C 117.436 0.181981 2.76702 0
M  V30 1269 H 120.387 0.565994 1.48264 0
M  V30 1270 H 120.408 -1.08195 3.64793 0
M  V30 1271 H 119.92 0.735526 3.81066 0
M  V30 1272 H 118.021 -1.68189 3.3248 0
M  V30 1273 H 118.134 -0.470326 4.76786 0
M  V30 1274 H 116.498 -0.34615 2.52337 0
M  V30 1275 H 117.281 1.16966 3.2276 0
M  V30 1276 N 119.726 -1.57421 0.075193 0
M  V30 1277 C 120.954 -1.97946 -0.602076 0
M  V30 1278 C 121.369 -0.953674 -1.62943 0
M  V30 1279 O 120.726 0.0592551 -1.82404 0
M  V30 1280 C 120.777 -3.38546 -1.26762 0
M  V30 1281 O 120.498 -4.37195 -0.281376 0
M  V30 1282 C 121.999 -3.93966 -2.03239 0
M  V30 1283 H 119.219 -0.650918 -0.162931 0
M  V30 1284 H 121.763 -2.03959 0.148601 0
M  V30 1285 H 119.918 -3.33609 -1.96936 0
M  V30 1286 H 120.332 -5.18975 -0.759267 0
M  V30 1287 H 121.806 -4.94555 -2.45193 0
M  V30 1288 H 122.283 -3.30693 -2.8903 0
M  V30 1289 H 122.889 -4.02315 -1.37924 0
M  V30 1290 N 121.204 0.198386 -1.56346 0
M  V30 1291 C 122.45 0.920648 -1.80698 0
M  V30 1292 C 122.783 1.83045 -0.648697 0
M  V30 1293 O 122.058 1.91308 0.350925 0
M  V30 1294 C 122.341 1.73971 -3.15287 0
M  V30 1295 C 122.194 0.85485 -4.41602 0
M  V30 1296 C 123.513 2.71296 -3.46535 0
M  V30 1297 H 120.632 0.333261 -0.657348 0
M  V30 1298 H 123.274 0.188198 -1.89066 0
M  V30 1299 H 121.424 2.36416 -3.08285 0
M  V30 1300 H 123.096 0.245362 -4.60647 0
M  V30 1301 H 121.339 0.161398 -4.335 0
M  V30 1302 H 122.01 1.46286 -5.32264 0
M  V30 1303 H 124.486 2.18983 -3.53816 0
M  V30 1304 H 123.362 3.2569 -4.41834 0
M  V30 1305 H 123.623 3.5018 -2.69864 0
M  V30 1306 N 122.682 1.50554 0.465978 0
M  V30 1307 C 123.929 1.61798 1.21768 0
M  V30 1308 C 124.257 0.320696 1.91838 0
M  V30 1309 O 123.512 -0.693724 1.82992 0
M  V30 1310 C 123.811 2.75152 2.28093 0
M  V30 1311 C 123.477 4.15454 1.75239 0
M  V30 1312 C 122.139 4.53628 1.60546 0
M  V30 1313 C 124.491 5.03121 1.36083 0
M  V30 1314 C 121.819 5.77204 1.05128 0
M  V30 1315 C 124.171 6.27249 0.821056 0
M  V30 1316 C 122.835 6.64221 0.660795 0
M  V30 1317 H 122.105 0.592063 0.445582 0
M  V30 1318 H 124.752 1.84503 0.512927 0
M  V30 1319 H 123.057 2.46556 3.04496 0
M  V30 1320 H 124.754 2.81055 2.86023 0
M  V30 1321 H 121.344 3.85341 1.87644 0
M  V30 1322 H 125.528 4.74257 1.46267 0
M  V30 1323 H 120.784 6.0452 0.91462 0
M  V30 1324 H 124.958 6.94537 0.509018 0
M  V30 1325 H 122.585 7.59854 0.229226 0
M  V30 1326 N 124.16 -0.719506 1.40217 0
M  V30 1327 C 125.408 -1.47641 1.3801 0
M  V30 1328 C 125.729 -1.94992 -0.018145 0
M  V30 1329 O 124.999 -1.70073 -0.972207 0
M  V30 1330 H 123.579 -0.547744 0.507923 0
M  V30 1331 H 126.241 -0.853187 1.75233 0
M  V30 1332 H 125.337 -2.35112 2.05253 0
M  V30 1333 N 125.638 -1.25649 -0.95132 0
M  V30 1334 C 126.586 -1.06118 -2.06982 0
M  V30 1335 C 127.58 0.00889169 -1.69398 0
M  V30 1336 O 128.786 -0.146988 -1.79399 0
M  V30 1337 H 125.161 -0.326248 -0.677544 0
M  V30 1338 H 127.132 -2.00932 -2.2061 0
M  V30 1339 C 125.881 -0.700145 -3.40578 0
M  V30 1340 H 125.204 -1.51537 -3.69968 0
M  V30 1341 H 126.644 -0.603211 -4.19687 0
M  V30 1342 C 125.103 0.59403 -3.31622 0
M  V30 1343 O 125.633 1.63522 -3.66911 0
M  V30 1344 N 123.839 0.58089 -2.84735 0
M  V30 1345 H 123.386 -0.266783 -2.56215 0
M  V30 1346 H 123.344 1.44695 -2.79125 0
M  V30 1347 N 127.117 1.15442 -1.07289 0
M  V30 1348 C 128.047 2.22312 -0.714107 0
M  V30 1349 C 129.028 1.67467 0.298155 0
M  V30 1350 O 130.213 1.93445 0.171048 0
M  V30 1351 C 127.343 3.47124 -0.110448 0
M  V30 1352 C 126.297 4.14926 -1.04979 0
M  V30 1353 C 125.623 5.33807 -0.308924 0
M  V30 1354 C 126.923 4.64762 -2.38314 0
M  V30 1355 H 128.617 2.5258 -1.6076 0
M  V30 1356 H 126.163 1.21404 -0.77441 0
M  V30 1357 H 128.116 4.21124 0.152482 0
M  V30 1358 H 126.84 3.16187 0.81812 0
M  V30 1359 H 125.499 3.42866 -1.29764 0
M  V30 1360 H 125.147 4.99126 0.623084 0
M  V30 1361 H 124.847 5.80113 -0.935036 0
M  V30 1362 H 126.371 6.10576 -0.0537771 0
M  V30 1363 H 127.785 5.30292 -2.1786 0
M  V30 1364 H 126.182 5.21728 -2.96514 0
M  V30 1365 H 127.252 3.80434 -3.00663 0
M  V30 1366 N 128.595 0.856903 1.32268 0
M  V30 1367 C 130.006 0.515711 1.79436 0
M  V30 1368 C 130.357 -0.966586 1.70738 0
M  V30 1369 O 129.482 -1.75409 1.26731 0
M  V30 1370 C 130.077 0.929335 3.25805 0
M  V30 1371 C 128.636 0.640006 3.70919 0
M  V30 1372 C 127.783 1.12784 2.53328 0
M  V30 1373 H 130.734 1.04389 1.19535 0
M  V30 1374 H 130.755 0.246633 3.797 0
M  V30 1375 H 130.267 2.00821 3.32103 0
M  V30 1376 H 128.368 -0.428051 3.70133 0
M  V30 1377 H 128.481 1.20788 4.63624 0
M  V30 1378 H 126.845 0.548033 2.48734 0
M  V30 1379 H 127.628 2.21387 2.62379 0
M  V30 1380 N 130.073 -1.45103 0.615059 0
M  V30 1381 C 131.301 -2.06553 0.11977 0
M  V30 1382 C 131.716 -1.45842 -1.19898 0
M  V30 1383 O 131.073 -0.575325 -1.73194 0
M  V30 1384 C 131.124 -3.61495 -0.018364 0
M  V30 1385 O 130.845 -4.19942 1.24822 0
M  V30 1386 C 132.346 -4.39947 -0.544237 0
M  V30 1387 H 129.566 -0.667096 0.0722739 0
M  V30 1388 H 132.11 -1.8623 0.84491 0
M  V30 1389 H 130.265 -3.81135 -0.693865 0
M  V30 1390 H 130.679 -5.13204 1.0827 0
M  V30 1391 H 132.153 -5.48838 -0.589953 0
M  V30 1392 H 132.63 -4.10255 -1.56805 0
M  V30 1393 H 133.236 -4.25188 0.0974703 0
M  V30 1394 N 131.551 -0.354651 -1.53558 0
M  V30 1395 C 132.828 0.294281 -1.93374 0
M  V30 1396 C 133.208 1.67313 -1.28723 0
M  V30 1397 O 132.556 2.24179 -0.442247 0
M  V30 1398 C 132.766 0.355445 -3.47185 0
M  V30 1399 C 134.114 0.601007 -4.20325 0
M  V30 1400 O 135.138 0.437106 -3.53508 0
M  V30 1401 O 133.997 0.919322 -5.38712 0
M  V30 1402 H 131.091 0.174033 -0.808481 0
M  V30 1403 H 133.637 -0.406638 -1.64756 0
M  V30 1404 H 132.409 -0.611729 -3.86489 0
M  V30 1405 H 132.032 1.1027 -3.82003 0
M  V30 1406 N 133.029 1.57378 -0.0835403 0
M  V30 1407 C 134.44 1.81261 0.447358 0
M  V30 1408 C 134.791 0.998331 1.68902 0
M  V30 1409 O 133.916 0.224282 2.15235 0
M  V30 1410 C 134.511 3.28767 0.818386 0
M  V30 1411 C 133.07 3.53455 1.29409 0
M  V30 1412 C 132.217 2.75831 0.285024 0
M  V30 1413 H 135.168 1.5566 -0.309115 0
M  V30 1414 H 135.189 3.41459 1.67887 0
M  V30 1415 H 134.701 3.88006 -0.0855019 0
M  V30 1416 H 132.802 2.99534 2.21608 0
M  V30 1417 H 132.915 4.62128 1.2639 0
M  V30 1418 H 131.279 2.42947 0.764767 0
M  V30 1419 H 132.062 3.37813 -0.611341 0
M  V30 1420 N 134.507 -0.190092 1.56449 0
M  V30 1421 C 135.417 -1.25591 1.98152 0
M  V30 1422 C 136.433 -1.49519 0.889944 0
M  V30 1423 O 137.609 -1.62036 1.19609 0
M  V30 1424 C 134.674 -2.57916 2.3169 0
M  V30 1425 C 133.735 -2.42015 3.5458 0
M  V30 1426 C 132.968 -3.6803 3.8651 0
M  V30 1427 O 133.191 -4.72413 3.1966 0
M  V30 1428 O 132.125 -3.6326 4.79923 0
M  V30 1429 H 135.951 -0.931988 2.89046 0
M  V30 1430 H 133.536 -0.395488 1.4407 0
M  V30 1431 H 135.418 -3.36008 2.54316 0
M  V30 1432 H 134.093 -2.89925 1.43963 0
M  V30 1433 H 133 -1.62017 3.37196 0
M  V30 1434 H 134.333 -2.14937 4.4279 0
M  V30 1435 N 135.985 -1.50799 -0.457987 0
M  V30 1436 C 137.231 -1.62683 -1.21088 0
M  V30 1437 C 137.564 -0.332268 -1.91336 0
M  V30 1438 O 136.839 0.667043 -1.82704 0
M  V30 1439 C 137.122 -2.81615 -2.24422 0
M  V30 1440 C 136.975 -4.20989 -1.58392 0
M  V30 1441 C 138.294 -2.96085 -3.2561 0
M  V30 1442 H 135.413 -0.592087 -0.438864 0
M  V30 1443 H 138.055 -1.83225 -0.50286 0
M  V30 1444 H 136.205 -2.64231 -2.84806 0
M  V30 1445 H 137.877 -4.49994 -1.01504 0
M  V30 1446 H 136.12 -4.24641 -0.886704 0
M  V30 1447 H 136.791 -5.0016 -2.33547 0
M  V30 1448 H 139.267 -3.12042 -2.75262 0
M  V30 1449 H 138.143 -3.80902 -3.95228 0
M  V30 1450 H 138.404 -2.0726 -3.90507 0
M  V30 1451 N 137.463 0.71206 -1.40597 0
M  V30 1452 C 138.691 1.50111 -1.42388 0
M  V30 1453 C 139.106 1.88784 -0.0245395 0
M  V30 1454 O 138.463 1.55681 0.952351 0
M  V30 1455 C 138.514 2.7742 -2.31776 0
M  V30 1456 O 138.235 2.40382 -3.66262 0
M  V30 1457 C 139.736 3.7129 -2.42196 0
M  V30 1458 H 136.956 0.46314 -0.485533 0
M  V30 1459 H 139.5 0.878068 -1.8469 0
M  V30 1460 H 137.655 3.36001 -1.92827 0
M  V30 1461 H 138.069 3.22324 -4.13772 0
M  V30 1462 H 139.543 4.57448 -3.08943 0
M  V30 1463 H 140.02 4.14641 -1.44809 0
M  V30 1464 H 140.626 3.18619 -2.81712 0
M  V30 1465 N 138.941 1.26152 0.944643 0
M  V30 1466 C 139.873 1.03199 2.04652 0
M  V30 1467 C 140.886 -0.00642356 1.62799 0
M  V30 1468 O 142.075 0.233263 1.76969 0
M  V30 1469 C 139.175 0.540111 3.34568 0
M  V30 1470 C 138.348 1.64697 4.05208 0
M  V30 1471 C 137.407 1.15374 5.13396 0
M  V30 1472 O 136.433 1.85013 5.38293 0
M  V30 1473 N 137.635 0.00031529 5.805 0
M  V30 1474 H 140.4 1.9808 2.2491 0
M  V30 1475 H 137.961 1.17491 1.11389 0
M  V30 1476 H 139.953 0.194401 4.04233 0
M  V30 1477 H 138.523 -0.315021 3.11009 0
M  V30 1478 H 137.743 2.16379 3.29506 0
M  V30 1479 H 139.031 2.3903 4.49157 0
M  V30 1480 H 138.429 -0.581336 5.62705 0
M  V30 1481 H 136.986 -0.286346 6.51171 0
M  V30 1482 N 140.419 -1.14872 1.07899 0
M  V30 1483 C 141.382 -2.17986 0.708161 0
M  V30 1484 C 142.382 -1.58775 -0.25442 0
M  V30 1485 O 143.572 -1.74166 -0.034645 0
M  V30 1486 C 140.704 -3.40871 0.0446929 0
M  V30 1487 H 141.897 -2.52306 1.62116 0
M  V30 1488 H 139.45 -1.2943 0.876218 0
M  V30 1489 H 140.185 -3.12124 -0.880281 0
M  V30 1490 H 139.97 -3.8511 0.737091 0
M  V30 1491 H 141.46 -4.17121 -0.19991 0
M  V30 1492 N 141.898 -0.863906 -1.31812 0
M  V30 1493 C 142.831 -0.259963 -2.26714 0
M  V30 1494 C 143.809 0.607392 -1.50829 0
M  V30 1495 O 144.993 0.562155 -1.79922 0
M  V30 1496 C 142.12 0.632456 -3.32743 0
M  V30 1497 C 141.166 -0.162743 -4.26189 0
M  V30 1498 S 141.999 -1.53726 -5.12961 0
M  V30 1499 C 143.155 -0.650803 -6.22507 0
M  V30 1500 H 143.388 -1.06445 -2.77591 0
M  V30 1501 H 140.921 -0.662071 -1.39485 0
M  V30 1502 H 142.879 1.14167 -3.94305 0
M  V30 1503 H 141.54 1.41083 -2.80632 0
M  V30 1504 H 140.733 0.517366 -5.01338 0
M  V30 1505 H 140.335 -0.60385 -3.69093 0
M  V30 1506 H 142.627 0.141134 -6.77353 0
M  V30 1507 H 143.57 -1.37322 -6.94657 0
M  V30 1508 H 143.978 -0.221041 -5.64067 0
M  V30 1509 N 143.376 1.44774 -0.622745 0
M  V30 1510 C 144.323 2.30635 0.0871679 0
M  V30 1511 C 145.293 1.42994 0.845097 0
M  V30 1512 O 146.478 1.71907 0.827812 0
M  V30 1513 C 143.618 3.28144 1.06844 0
M  V30 1514 C 142.731 4.30888 0.309809 0
M  V30 1515 C 141.866 5.15494 1.28215 0
M  V30 1516 C 140.905 6.09953 0.512198 0
M  V30 1517 N 140.042 6.87287 1.43458 0
M  V30 1518 H 144.882 2.90803 -0.650974 0
M  V30 1519 H 142.419 1.43286 -0.33281 0
M  V30 1520 H 144.377 3.83157 1.65066 0
M  V30 1521 H 143.007 2.69695 1.77382 0
M  V30 1522 H 142.059 3.78414 -0.388181 0
M  V30 1523 H 143.371 4.97955 -0.290254 0
M  V30 1524 H 142.525 5.74983 1.93596 0
M  V30 1525 H 141.264 4.48481 1.91614 0
M  V30 1526 H 140.269 5.49581 -0.155151 0
M  V30 1527 H 141.494 6.78999 -0.116958 0
M  V30 1528 H 139.44 6.2295 2.05594 0
M  V30 1529 H 139.357 7.50763 0.888335 0
M  V30 1530 H 140.625 7.51306 2.07749 0
M  V30 1531 N 144.854 0.36279 1.53368 0
M  V30 1532 C 146.131 -0.284021 1.93527 0
M  V30 1533 C 146.511 -1.66628 1.29608 0
M  V30 1534 O 145.859 -2.23942 0.45413 0
M  V30 1535 C 146.069 -0.337028 3.47369 0
M  V30 1536 C 147.417 -0.578708 4.20638 0
M  V30 1537 O 148.441 -0.418352 3.53735 0
M  V30 1538 O 147.3 -0.89074 5.39192 0
M  V30 1539 H 144.394 -0.169743 0.809393 0
M  V30 1540 H 146.94 0.41537 1.64538 0
M  V30 1541 H 145.712 0.632217 3.86159 0
M  V30 1542 H 145.335 -1.08243 3.82582 0
M  V30 1543 N 146.332 -1.57332 0.0918853 0
M  V30 1544 C 147.295 -2.12708 -0.85369 0
M  V30 1545 C 148.295 -1.05561 -1.213 0
M  V30 1546 O 149.485 -1.31461 -1.14296 0
M  V30 1547 C 146.617 -2.64503 -2.15061 0
M  V30 1548 H 147.81 -2.97573 -0.3729 0
M  V30 1549 H 145.363 -1.55509 -0.157072 0
M  V30 1550 H 146.098 -1.83149 -2.67632 0
M  V30 1551 H 145.883 -3.4284 -1.90272 0
M  V30 1552 H 147.373 -3.07351 -2.82711 0
M  V30 1553 N 147.81 0.181792 -1.56548 0
M  V30 1554 C 148.74 1.22765 -1.98623 0
M  V30 1555 C 149.721 1.46747 -0.860189 0
M  V30 1556 O 150.906 1.58259 -1.12551 0
M  V30 1557 C 148.036 2.56894 -2.33715 0
M  V30 1558 C 146.99 2.475 -3.49182 0
M  V30 1559 C 146.316 3.86023 -3.69986 0
M  V30 1560 C 147.616 1.98866 -4.82959 0
M  V30 1561 H 149.31 0.877942 -2.86239 0
M  V30 1562 H 146.856 0.42088 -1.37712 0
M  V30 1563 H 148.809 3.30253 -2.61746 0
M  V30 1564 H 147.533 2.93632 -1.42997 0
M  V30 1565 H 146.192 1.76596 -3.21262 0
M  V30 1566 H 145.84 4.20136 -2.76576 0
M  V30 1567 H 145.54 3.80609 -4.47672 0
M  V30 1568 H 147.064 4.60984 -4.00407 0
M  V30 1569 H 148.478 2.61992 -5.09934 0
M  V30 1570 H 146.875 2.04424 -5.64208 0
M  V30 1571 H 147.945 0.942465 -4.75653 0
M  V30 1572 N 149.288 1.51039 0.449983 0
M  V30 1573 C 150.565 1.53612 1.21089 0
M  V30 1574 C 150.945 0.292997 2.09057 0
M  V30 1575 O 150.293 -0.72259 2.16774 0
M  V30 1576 C 150.503 2.84337 2.0237 0
M  V30 1577 C 151.851 3.35807 2.59843 0
M  V30 1578 O 152.875 2.85802 2.12593 0
M  V30 1579 O 151.734 4.23029 3.45989 0
M  V30 1580 H 148.828 0.617057 0.550608 0
M  V30 1581 H 151.374 1.63344 0.460082 0
M  V30 1582 H 150.146 3.66278 1.37681 0
M  V30 1583 H 149.769 2.77708 2.84542 0
M  V30 1584 N 150.766 -0.704594 1.40972 0
M  V30 1585 C 151.991 -1.49858 1.43378 0
M  V30 1586 C 152.416 -1.88061 0.038184 0
M  V30 1587 O 151.774 -1.5402 -0.956425 0
M  V30 1588 C 151.822 -2.74333 2.34038 0
M  V30 1589 O 150.926 -3.7147 1.7912 0
M  V30 1590 H 150.267 -0.45139 0.486974 0
M  V30 1591 H 152.797 -0.866832 1.8533 0
M  V30 1592 H 152.807 -3.22741 2.49604 0
M  V30 1593 H 151.482 -2.45863 3.35446 0
M  V30 1594 H 150.059 -3.30363 1.72958 0
M  V30 1595 N 152.244 -1.26651 -0.937939 0
M  V30 1596 C 153.492 -1.12165 -1.68118 0
M  V30 1597 C 153.813 0.334983 -1.92101 0
M  V30 1598 O 153.083 1.23583 -1.52 0
M  V30 1599 H 151.663 -0.412093 -0.623048 0
M  V30 1600 H 154.325 -1.59027 -1.12678 0
M  V30 1601 H 153.421 -1.64289 -2.6536 0
M  V30 1602 N 153.722 1.14298 -1.08507 0
M  V30 1603 C 154.669 2.19414 -0.715965 0
M  V30 1604 C 155.639 1.63399 0.298326 0
M  V30 1605 O 156.824 1.89929 0.182101 0
M  V30 1606 C 153.964 3.44845 -0.132534 0
M  V30 1607 C 153.077 4.15007 -1.19973 0
M  V30 1608 C 152.212 5.28024 -0.580048 0
M  V30 1609 C 151.251 5.9002 -1.62921 0
M  V30 1610 N 150.388 6.94485 -1.03125 0
M  V30 1611 H 155.228 2.50336 -1.61666 0
M  V30 1612 H 152.765 1.2293 -0.807882 0
M  V30 1613 H 154.723 4.16601 0.223454 0
M  V30 1614 H 153.353 3.14403 0.731467 0
M  V30 1615 H 152.405 3.41629 -1.67313 0
M  V30 1616 H 153.717 4.57178 -1.99473 0
M  V30 1617 H 152.871 6.06455 -0.172364 0
M  V30 1618 H 151.61 4.87076 0.246603 0
M  V30 1619 H 150.615 5.10291 -2.04654 0
M  V30 1620 H 151.84 6.33042 -2.45835 0
M  V30 1621 H 149.786 6.55612 -0.225711 0
M  V30 1622 H 149.703 7.35148 -1.76334 0
M  V30 1623 H 150.971 7.7679 -0.649458 0
M  V30 1624 N 155.201 0.870884 1.31352 0
M  V30 1625 C 156.431 0.496049 2.00557 0
M  V30 1626 C 156.839 -0.916241 1.65534 0
M  V30 1627 O 156.182 -1.61188 0.881134 0
M  V30 1628 C 156.244 0.574418 3.54881 0
M  V30 1629 C 155.908 1.94849 4.1338 0
M  V30 1630 C 156.905 2.91611 4.30417 0
M  V30 1631 C 154.59 2.25005 4.49086 0
M  V30 1632 C 156.584 4.16672 4.82352 0
M  V30 1633 C 154.271 3.50315 5.00722 0
M  V30 1634 C 155.269 4.45964 5.17306 0
M  V30 1635 O 154.957 5.69052 5.67833 0
M  V30 1636 H 154.689 0.191664 0.64826 0
M  V30 1637 H 157.243 1.17409 1.68536 0
M  V30 1638 H 155.473 -0.160549 3.86367 0
M  V30 1639 H 157.162 0.212879 4.05341 0
M  V30 1640 H 157.928 2.69622 4.03149 0
M  V30 1641 H 153.807 1.51332 4.35453 0
M  V30 1642 H 157.351 4.91336 4.95211 0
M  V30 1643 H 153.248 3.72147 5.27424 0
M  V30 1644 H 154.016 5.71236 5.86201 0
M  V30 1645 N 156.679 -1.44442 0.630414 0
M  V30 1646 C 157.627 -2.32437 -0.0871428 0
M  V30 1647 C 158.621 -1.47304 -0.836525 0
M  V30 1648 O 159.827 -1.63653 -0.749506 0
M  V30 1649 H 156.202 -0.750533 -0.0469495 0
M  V30 1650 H 158.173 -2.90709 0.673096 0
M  V30 1651 C 156.922 -3.31288 -1.05563 0
M  V30 1652 H 156.245 -3.96805 -0.488426 0
M  V30 1653 H 157.685 -3.9554 -1.52721 0
M  V30 1654 C 156.144 -2.6016 -2.14052 0
M  V30 1655 O 156.674 -2.39997 -3.22124 0
M  V30 1656 N 154.88 -2.19911 -1.89967 0
M  V30 1657 H 154.427 -2.36509 -1.02085 0
M  V30 1658 H 154.385 -1.72646 -2.62756 0
M  V30 1659 N 158.157 -0.370918 -1.53173 0
M  V30 1660 C 159.405 0.216673 -2.00935 0
M  V30 1661 C 159.726 1.48845 -1.25977 0
M  V30 1662 O 158.996 1.92286 -0.374551 0
M  V30 1663 H 157.576 0.0830565 -0.742368 0
M  V30 1664 H 160.238 -0.49838 -1.8842 0
M  V30 1665 H 159.334 0.439893 -3.08984 0
M  V30 1666 N 159.635 1.57281 -0.100228 0
M  V30 1667 C 160.865 1.98591 0.569681 0
M  V30 1668 C 161.273 0.978315 1.61943 0
M  V30 1669 O 160.616 -0.0396108 1.83657 0
M  V30 1670 C 160.678 3.36282 1.271 0
M  V30 1671 C 160.342 4.55488 0.371409 0
M  V30 1672 C 161.339 5.18491 -0.382504 0
M  V30 1673 C 159.024 5.01474 0.287965 0
M  V30 1674 C 161.018 6.25852 -1.20779 0
M  V30 1675 C 158.705 6.08701 -0.540965 0
M  V30 1676 C 159.703 6.70755 -1.28749 0
M  V30 1677 O 159.391 7.75914 -2.10269 0
M  V30 1678 H 159.123 0.65752 0.156982 0
M  V30 1679 H 161.677 2.0463 -0.177734 0
M  V30 1680 H 159.907 3.26941 2.0651 0
M  V30 1681 H 161.596 3.62005 1.83595 0
M  V30 1682 H 162.362 4.83891 -0.3278 0
M  V30 1683 H 158.241 4.52932 0.858689 0
M  V30 1684 H 161.785 6.74218 -1.79096 0
M  V30 1685 H 157.682 6.42732 -0.597131 0
M  V30 1686 H 158.45 7.92925 -2.03007 0
M  V30 1687 N 161.113 -0.173488 1.56642 0
M  V30 1688 C 162.076 -1.19859 1.95362 0
M  V30 1689 C 163.076 -1.37296 0.83704 0
M  V30 1690 O 164.266 -1.34739 1.10413 0
M  V30 1691 C 161.398 -2.56405 2.24654 0
M  V30 1692 H 162.591 -0.867062 2.87092 0
M  V30 1693 H 160.144 -0.415853 1.50666 0
M  V30 1694 H 160.879 -2.94576 1.35631 0
M  V30 1695 H 160.664 -2.45115 3.06041 0
M  V30 1696 H 162.154 -3.30287 2.5554 0
M  V30 1697 N 162.591 -1.51276 -0.441967 0
M  V30 1698 C 164.002 -1.56244 -1.02199 0
M  V30 1699 C 164.353 -0.383149 -1.92422 0
M  V30 1700 O 163.478 0.500613 -2.1053 0
M  V30 1701 C 164.073 -2.83162 -1.86024 0
M  V30 1702 C 162.632 -2.90716 -2.39084 0
M  V30 1703 C 161.779 -2.50858 -1.18175 0
M  V30 1704 H 164.73 -1.5712 -0.223416 0
M  V30 1705 H 164.751 -2.66663 -2.71425 0
M  V30 1706 H 164.263 -3.68974 -1.20331 0
M  V30 1707 H 162.364 -2.09323 -3.08244 0
M  V30 1708 H 162.477 -3.94266 -2.72198 0
M  V30 1709 H 160.841 -2.03951 -1.52565 0
M  V30 1710 H 161.624 -3.3901 -0.541001 0
M  V30 1711 N 164.069 0.697108 -1.41344 0
M  V30 1712 C 165.294 1.49096 -1.44171 0
M  V30 1713 C 165.719 1.88038 -0.0481568 0
M  V30 1714 O 165.077 1.54525 0.948243 0
M  V30 1715 C 165.125 2.73088 -2.3549 0
M  V30 1716 O 164.229 3.70514 -1.81088 0
M  V30 1717 H 163.57 0.448801 -0.489361 0
M  V30 1718 H 166.1 0.856992 -1.85787 0
M  V30 1719 H 166.11 3.21413 -2.51312 0
M  V30 1720 H 164.785 2.44081 -3.36745 0
M  V30 1721 H 163.362 3.29441 -1.74708 0
M  V30 1722 N 165.547 1.27147 0.931209 0
M  V30 1723 C 166.796 1.12664 1.67302 0
M  V30 1724 C 167.109 -0.327718 1.92835 0
M  V30 1725 O 168.315 -0.593392 2.64936 0
M  V30 1726 C 166.771 1.9683 3.01307 0
M  V30 1727 C 166.379 3.46901 2.83485 0
M  V30 1728 C 168.123 1.90985 3.79111 0
M  V30 1729 C 166.03 4.23279 4.13024 0
M  V30 1730 H 164.96 0.41803 0.627509 0
M  V30 1731 H 167.611 1.51539 1.03481 0
M  V30 1732 H 165.993 1.50797 3.66164 0
M  V30 1733 H 167.167 4.00773 2.27415 0
M  V30 1734 H 165.482 3.54088 2.19113 0
M  V30 1735 H 168.079 2.45328 4.75098 0
M  V30 1736 H 168.422 0.882718 4.06834 0
M  V30 1737 H 168.955 2.34895 3.21044 0
M  V30 1738 H 165.694 5.26503 3.90481 0
M  V30 1739 H 165.214 3.74186 4.6877 0
M  V30 1740 H 166.893 4.32265 4.81411 0
M  V30 1741 N 167.025 -1.13721 1.09112 0
M  V30 1742 C 168.273 -1.84559 0.823562 0
M  V30 1743 C 168.594 -1.83754 -0.652658 0
M  V30 1744 O 167.864 -1.29102 -1.47342 0
M  V30 1745 H 166.444 -0.683376 0.301673 0
M  V30 1746 H 169.106 -1.37771 1.37859 0
M  V30 1747 H 168.202 -2.8917 1.17419 0
M  V30 1748 N 168.503 -0.877838 -1.30888 0
M  V30 1749 C 169.75 -0.492696 -1.96415 0
M  V30 1750 C 170.078 0.956671 -1.69346 0
M  V30 1751 O 169.333 1.68993 -0.986913 0
M  V30 1752 C 169.632 -0.705748 -3.50363 0
M  V30 1753 C 169.298 -2.1291 -3.97467 0
M  V30 1754 C 167.96 -2.51834 -4.1004 0
M  V30 1755 C 170.312 -3.05702 -4.22132 0
M  V30 1756 C 167.64 -3.82775 -4.44635 0
M  V30 1757 C 169.992 -4.36166 -4.58194 0
M  V30 1758 C 168.656 -4.74993 -4.68975 0
M  V30 1759 H 167.926 -0.18029 -0.718733 0
M  V30 1760 H 170.573 -1.11233 -1.55883 0
M  V30 1761 H 168.878 -0.00303058 -3.918 0
M  V30 1762 H 170.575 -0.387456 -3.99124 0
M  V30 1763 H 167.165 -1.81694 -3.88182 0
M  V30 1764 H 171.349 -2.76853 -4.11906 0
M  V30 1765 H 166.605 -4.12609 -4.51181 0
M  V30 1766 H 170.779 -5.08111 -4.76231 0
M  V30 1767 H 168.406 -5.76495 -4.95537 0
M  V30 1768 N 169.982 1.44106 -0.638065 0
M  V30 1769 C 170.912 2.33448 0.0494287 0
M  V30 1770 C 171.893 1.48606 0.827672 0
M  V30 1771 O 173.078 1.77308 0.792173 0
M  V30 1772 C 170.208 3.31771 1.02691 0
M  V30 1773 C 169.162 4.26485 0.359823 0
M  V30 1774 C 168.488 5.14729 1.44769 0
M  V30 1775 C 169.788 5.17056 -0.738296 0
M  V30 1776 H 171.482 2.91183 -0.696636 0
M  V30 1777 H 169.028 1.40014 -0.336456 0
M  V30 1778 H 170.981 3.93161 1.51666 0
M  V30 1779 H 169.705 2.7226 1.80395 0
M  V30 1780 H 168.364 3.66437 -0.10934 0
M  V30 1781 H 168.012 4.51566 2.21578 0
M  V30 1782 H 167.712 5.78913 1.00668 0
M  V30 1783 H 169.236 5.78991 1.93911 0
M  V30 1784 H 170.65 5.72342 -0.331354 0
M  V30 1785 H 169.047 5.89879 -1.10286 0
M  V30 1786 H 170.117 4.57652 -1.60258 0
M  V30 1787 N 171.46 0.379036 1.52974 0
M  V30 1788 C 172.685 -0.209353 2.06341 0
M  V30 1789 C 173.11 -1.40583 1.24972 0
M  V30 1790 O 172.468 -1.79246 0.272155 0
M  V30 1791 C 172.516 -0.567786 3.56102 0
M  V30 1792 O 171.62 -1.66318 3.77375 0
M  V30 1793 H 170.961 -0.0272919 0.663439 0
M  V30 1794 H 173.491 0.543536 1.97248 0
M  V30 1795 H 173.501 -0.835003 3.99364 0
M  V30 1796 H 172.176 0.307013 4.14765 0
M  V30 1797 H 170.753 -1.39048 3.46006 0
M  V30 1798 N 172.938 -1.57226 0.108567 0
M  V30 1799 C 174.163 -1.99604 -0.563303 0
M  V30 1800 C 174.588 -0.987563 -1.6009 0
M  V30 1801 O 173.946 0.0421687 -1.81251 0
M  V30 1802 C 173.994 -3.40902 -1.17552 0
M  V30 1803 O 173.098 -3.42896 -2.2912 0
M  V30 1804 H 172.439 -0.648704 -0.1417 0
M  V30 1805 H 174.969 -2.03679 0.193961 0
M  V30 1806 H 174.979 -3.78886 -1.51357 0
M  V30 1807 H 173.654 -4.1382 -0.415445 0
M  V30 1808 H 172.231 -3.1672 -1.96832 0
M  V30 1809 N 174.416 0.165178 -1.56732 0
M  V30 1810 C 175.832 0.517174 -1.50988 0
M  V30 1811 C 176.032 1.84331 -0.813894 0
M  V30 1812 O 175.088 2.49672 -0.37682 0
M  V30 1813 C 176.401 0.544261 -2.95733 0
M  V30 1814 C 177.949 0.631039 -3.06573 0
M  V30 1815 C 178.424 0.68896 -4.52788 0
M  V30 1816 N 179.915 0.751683 -4.5706 0
M  V30 1817 C 180.65 0.817177 -5.67547 0
M  V30 1818 N 180.146 0.843129 -6.8765 0
M  V30 1819 N 181.939 0.856668 -5.55534 0
M  V30 1820 H 174.09 -0.704318 -2.00382 0
M  V30 1821 H 176.353 -0.254687 -0.913148 0
M  V30 1822 H 176.059 -0.361607 -3.49836 0
M  V30 1823 H 175.933 1.3886 -3.5071 0
M  V30 1824 H 178.32 1.52733 -2.52501 0
M  V30 1825 H 178.401 -0.240095 -2.54671 0
M  V30 1826 H 178.045 -0.2031 -5.07494 0
M  V30 1827 H 177.975 1.57633 -5.02454 0
M  V30 1828 H 180.466 0.739661 -3.70591 0
M  V30 1829 H 180.779 0.894448 -7.67606 0
M  V30 1830 H 179.124 0.811304 -6.90248 0
M  V30 1831 H 182.315 0.833437 -4.60621 0
M  V30 1832 H 182.488 0.904247 -6.4166 0
M  V30 1833 N 175.894 1.51508 0.433938 0
M  V30 1834 C 176.804 1.75917 1.5521 0
M  V30 1835 C 177.82 0.643545 1.61662 0
M  V30 1836 O 178.996 0.926183 1.7884 0
M  V30 1837 C 176.061 1.88213 2.91164 0
M  V30 1838 C 175.122 3.12074 2.94802 0
M  V30 1839 C 174.355 3.23774 4.24271 0
M  V30 1840 O 174.578 2.4133 5.16833 0
M  V30 1841 O 173.512 4.16774 4.34262 0
M  V30 1842 H 177.338 2.70777 1.37527 0
M  V30 1843 H 174.923 1.36051 0.617293 0
M  V30 1844 H 176.805 1.98267 3.71845 0
M  V30 1845 H 175.48 0.965413 3.08968 0
M  V30 1846 H 174.387 3.07497 2.13065 0
M  V30 1847 H 175.72 4.03446 2.81943 0
M  V30 1848 N 177.372 -0.689602 1.41712 0
M  V30 1849 C 178.282 -1.83314 1.46401 0
M  V30 1850 C 179.298 -1.7036 0.35405 0
M  V30 1851 O 180.474 -1.92171 0.602692 0
M  V30 1852 C 177.539 -3.19344 1.34982 0
M  V30 1853 C 176.6 -3.44363 2.56344 0
M  V30 1854 C 175.833 -4.73904 2.45461 0
M  V30 1855 O 176.056 -5.508 1.48241 0
M  V30 1856 O 174.99 -4.99839 3.35328 0
M  V30 1857 H 178.816 -1.82314 2.42889 0
M  V30 1858 H 176.401 -0.843438 1.23315 0
M  V30 1859 H 178.283 -4.00547 1.3092 0
M  V30 1860 H 176.958 -3.21014 0.41612 0
M  V30 1861 H 175.865 -2.63067 2.65982 0
M  V30 1862 H 177.198 -3.47512 3.48563 0
M  V30 1863 N 178.85 -1.27639 -0.924453 0
M  V30 1864 C 180.099 -1.13549 -1.66702 0
M  V30 1865 C 180.412 0.317487 -1.93006 0
M  V30 1866 O 181.618 0.579333 -2.65247 0
M  V30 1867 C 180.074 -1.98426 -3.00259 0
M  V30 1868 C 179.682 -3.484 -2.81641 0
M  V30 1869 C 181.426 -1.92993 -3.78092 0
M  V30 1870 C 179.333 -4.25464 -4.10773 0
M  V30 1871 H 178.263 -0.421351 -0.625283 0
M  V30 1872 H 180.914 -1.52085 -1.02676 0
M  V30 1873 H 179.296 -1.52736 -3.6536 0
M  V30 1874 H 180.47 -4.01973 -2.25287 0
M  V30 1875 H 178.785 -3.55245 -2.17232 0
M  V30 1876 H 181.382 -2.47844 -4.7379 0
M  V30 1877 H 181.725 -0.904281 -4.0636 0
M  V30 1878 H 182.258 -2.36595 -3.19793 0
M  V30 1879 H 178.997 -5.28566 -3.87683 0
M  V30 1880 H 178.517 -3.76667 -4.66779 0
M  V30 1881 H 180.196 -4.34812 -4.79111 0
M  V30 1882 N 180.328 1.1314 -1.09713 0
M  V30 1883 C 181.291 2.16831 -0.742751 0
M  V30 1884 C 182.291 1.59159 0.229129 0
M  V30 1885 O 183.481 1.74199 0.00693237 0
M  V30 1886 C 180.613 3.40756 -0.0989168 0
M  V30 1887 H 181.806 2.49695 -1.66109 0
M  V30 1888 H 179.359 1.2802 -0.896699 0
M  V30 1889 H 180.094 3.13485 0.830514 0
M  V30 1890 H 179.879 3.83888 -0.798265 0
M  V30 1891 H 181.369 4.17386 0.133524 0
M  V30 1892 N 181.806 0.884767 1.30421 0
M  V30 1893 C 183.031 0.517288 2.00845 0
M  V30 1894 C 183.456 -0.886779 1.65885 0
M  V30 1895 O 182.814 -1.58768 0.875354 0
M  V30 1896 C 182.862 0.698994 3.5376 0
M  V30 1897 O 181.966 -0.255208 4.1161 0
M  V30 1898 H 181.307 0.203872 0.631927 0
M  V30 1899 H 183.837 1.19225 1.66272 0
M  V30 1900 H 183.847 0.597912 4.03595 0
M  V30 1901 H 182.522 1.72271 3.78544 0
M  V30 1902 H 181.099 -0.10784 3.72744 0
M  V30 1903 N 183.284 -1.43765 0.645699 0
M  V30 1904 C 184.514 -2.05953 0.163318 0
M  V30 1905 C 184.922 -1.48432 -1.17322 0
M  V30 1906 O 184.265 -0.607295 -1.73371 0
M  V30 1907 C 184.327 -3.59499 -0.0103065 0
M  V30 1908 C 183.991 -4.39563 1.25035 0
M  V30 1909 C 184.988 -4.72108 2.17739 0
M  V30 1910 C 182.673 -4.79697 1.48983 0
M  V30 1911 C 184.667 -5.43688 3.3269 0
M  V30 1912 C 182.354 -5.51023 2.64229 0
M  V30 1913 C 183.352 -5.8294 3.55908 0
M  V30 1914 O 183.04 -6.5281 4.69142 0
M  V30 1915 H 182.772 -0.670798 0.0836986 0
M  V30 1916 H 185.326 -1.85384 0.884407 0
M  V30 1917 H 183.556 -3.78613 -0.78669 0
M  V30 1918 H 185.245 -4.03408 -0.449087 0
M  V30 1919 H 186.011 -4.41627 2.00476 0
M  V30 1920 H 181.89 -4.54266 0.785078 0
M  V30 1921 H 185.434 -5.68517 4.04269 0
M  V30 1922 H 181.331 -5.8092 2.81429 0
M  V30 1923 H 182.099 -6.71288 4.6831 0
M  V30 1924 N 184.763 -0.387143 -1.52771 0
M  V30 1925 C 185.993 0.195585 -2.05672 0
M  V30 1926 C 186.401 1.41241 -1.25887 0
M  V30 1927 O 185.744 1.81265 -0.298081 0
M  V30 1928 C 185.806 0.632327 -3.53895 0
M  V30 1929 C 185.47 -0.470739 -4.54569 0
M  V30 1930 C 186.467 -1.32746 -5.02667 0
M  V30 1931 C 184.152 -0.637151 -4.98243 0
M  V30 1932 C 186.146 -2.33574 -5.93061 0
M  V30 1933 C 183.833 -1.64877 -5.88438 0
M  V30 1934 C 184.831 -2.49649 -6.35739 0
M  V30 1935 O 184.519 -3.49082 -7.24153 0
M  V30 1936 H 184.251 0.033658 -0.675162 0
M  V30 1937 H 186.805 -0.550221 -1.97893 0
M  V30 1938 H 185.035 1.43008 -3.59285 0
M  V30 1939 H 186.724 1.14048 -3.89548 0
M  V30 1940 H 187.49 -1.21019 -4.69659 0
M  V30 1941 H 183.369 0.0129567 -4.60998 0
M  V30 1942 H 186.913 -2.99777 -6.29904 0
M  V30 1943 H 182.81 -1.76643 -6.2086 0
M  V30 1944 H 183.578 -3.45065 -7.42208 0
M  V30 1945 N 186.241 1.57166 -0.116904 0
M  V30 1946 C 187.191 2.11756 0.845178 0
M  V30 1947 C 188.175 1.03783 1.22955 0
M  V30 1948 O 189.367 1.3002 1.20099 0
M  V30 1949 C 186.496 2.71886 2.09602 0
M  V30 1950 C 185.582 3.86937 1.7361 0
M  V30 1951 N 185.973 4.94073 1.08284 0
M  V30 1952 C 184.271 3.97082 2.03082 0
M  V30 1953 C 184.972 5.74477 0.913855 0
M  V30 1954 N 183.948 5.2423 1.43818 0
M  V30 1955 H 187.75 2.91967 0.336523 0
M  V30 1956 H 185.264 1.62174 0.0856332 0
M  V30 1957 H 187.261 3.09338 2.79492 0
M  V30 1958 H 185.921 1.93138 2.61013 0
M  V30 1959 H 186.932 5.12483 0.747067 0
M  V30 1960 H 183.609 3.29372 2.56554 0
M  V30 1961 H 184.999 6.70701 0.40125 0
M  V30 1962 N 187.719 -0.156864 1.56817 0
M  V30 1963 C 188.959 -0.877453 1.84608 0
M  V30 1964 C 189.323 -1.78791 0.699845 0
M  V30 1965 O 190.524 -2.5472 0.858553 0
M  V30 1966 C 188.795 -1.63992 3.17555 0
M  V30 1967 S 190.354 -2.40729 3.66872 0
M  V30 1968 H 187.172 -0.293612 0.647544 0
M  V30 1969 H 189.774 -0.138099 1.95012 0
M  V30 1970 H 188.478 -0.962363 3.98957 0
M  V30 1971 H 188.009 -2.42038 3.10131 0
M  V30 1972 H 190.024 -3.65725 3.3535 0
M  V30 1973 N 189.197 -1.51736 -0.425897 0
M  V30 1974 C 190.608 -1.5732 -1.00536 0
M  V30 1975 C 190.959 -0.403537 -1.92005 0
M  V30 1976 O 190.084 0.478256 -2.11049 0
M  V30 1977 C 190.679 -2.85119 -1.8301 0
M  V30 1978 C 189.238 -2.93236 -2.35987 0
M  V30 1979 C 188.385 -2.52098 -1.15508 0
M  V30 1980 H 191.336 -1.57348 -0.206739 0
M  V30 1981 H 191.357 -2.69526 -2.68581 0
M  V30 1982 H 190.869 -3.7023 -1.16411 0
M  V30 1983 H 188.97 -2.12581 -3.06007 0
M  V30 1984 H 189.083 -3.9713 -2.68001 0
M  V30 1985 H 187.447 -2.05558 -1.50393 0
M  V30 1986 H 188.23 -3.39565 -0.505014 0
M  V30 1987 N 190.675 0.682077 -1.42076 0
M  V30 1988 C 191.585 1.82535 -1.47371 0
M  V30 1989 C 192.601 1.7017 -0.363079 0
M  V30 1990 O 193.777 1.91848 -0.612875 0
M  V30 1991 C 190.842 3.18624 -1.36674 0
M  V30 1992 C 189.903 3.42999 -2.58167 0
M  V30 1993 C 189.136 4.72595 -2.4797 0
M  V30 1994 O 189.359 5.50006 -1.5116 0
M  V30 1995 O 188.293 4.98054 -3.37974 0
M  V30 1996 H 192.119 1.81023 -2.43853 0
M  V30 1997 H 189.704 0.836887 -1.2376 0
M  V30 1998 H 191.586 3.99847 -1.33043 0
M  V30 1999 H 190.261 3.20789 -0.433138 0
M  V30 2000 H 189.168 2.61653 -2.67373 0
M  V30 2001 H 190.501 3.45659 -3.50401 0
M  V30 2002 N 192.153 1.28127 0.917671 0
M  V30 2003 C 193.116 1.11744 2.00115 0
M  V30 2004 C 194.116 0.0583052 1.60694 0
M  V30 2005 O 195.306 0.303755 1.71531 0
M  V30 2006 C 192.438 0.704862 3.33533 0
M  V30 2007 H 193.631 2.07966 2.16079 0
M  V30 2008 H 191.184 1.11058 1.09981 0
M  V30 2009 H 191.919 -0.258299 3.2327 0
M  V30 2010 H 191.704 1.4699 3.63505 0
M  V30 2011 H 193.194 0.612768 4.1308 0
M  V30 2012 N 193.631 -1.12557 1.10312 0
M  V30 2013 C 195.042 -1.65574 0.862678 0
M  V30 2014 C 195.393 -1.86566 -0.607256 0
M  V30 2015 O 194.518 -1.59121 -1.46662 0
M  V30 2016 C 195.113 -3.00776 1.55947 0
M  V30 2017 C 193.672 -3.50748 1.36576 0
M  V30 2018 C 192.819 -2.25797 1.60968 0
M  V30 2019 H 195.77 -0.963552 1.26101 0
M  V30 2020 H 195.791 -3.67185 0.997753 0
M  V30 2021 H 195.303 -2.85465 2.62928 0
M  V30 2022 H 193.404 -3.71245 0.317531 0
M  V30 2023 H 193.517 -4.30289 2.10686 0
M  V30 2024 H 191.881 -2.32841 1.03234 0
M  V30 2025 H 192.664 -2.13043 2.69198 0
M  V30 2026 N 195.109 -0.891671 -1.2995 0
M  V30 2027 C 196.039 -0.379797 -2.30391 0
M  V30 2028 C 197.02 0.540919 -1.6127 0
M  V30 2029 O 198.205 0.453352 -1.88834 0
M  V30 2030 C 195.335 0.400654 -3.44981 0
M  V30 2031 C 194.289 -0.428905 -4.25846 0
M  V30 2032 C 193.615 0.478557 -5.32554 0
M  V30 2033 C 194.915 -1.67458 -4.94727 0
M  V30 2034 H 196.609 -1.21914 -2.73454 0
M  V30 2035 H 194.155 -0.587675 -1.31462 0
M  V30 2036 H 196.108 0.769434 -4.14316 0
M  V30 2037 H 194.832 1.27371 -3.0074 0
M  V30 2038 H 193.491 -0.779911 -3.58208 0
M  V30 2039 H 193.139 1.34951 -4.84559 0
M  V30 2040 H 192.839 -0.0727433 -5.87555 0
M  V30 2041 H 194.363 0.843705 -6.04743 0
M  V30 2042 H 195.777 -1.376 -5.56542 0
M  V30 2043 H 194.174 -2.16659 -5.59624 0
M  V30 2044 H 195.244 -2.41518 -4.20473 0
M  V30 2045 N 196.587 1.43421 -0.653314 0
M  V30 2046 C 197.497 2.34568 0.0388565 0
M  V30 2047 C 198.513 1.53888 0.81207 0
M  V30 2048 O 199.689 1.86539 0.759294 0
M  V30 2049 C 196.754 3.32167 0.993269 0
M  V30 2050 C 195.815 4.28751 0.216977 0
M  V30 2051 C 195.048 5.21688 1.12593 0
M  V30 2052 O 195.271 5.19052 2.36519 0
M  V30 2053 O 194.205 5.98919 0.598284 0
M  V30 2054 H 198.031 2.95251 -0.711386 0
M  V30 2055 H 195.616 1.43564 -0.413502 0
M  V30 2056 H 197.498 3.92183 1.54176 0
M  V30 2057 H 196.173 2.73987 1.72374 0
M  V30 2058 H 195.08 3.72215 -0.375101 0
M  V30 2059 H 196.413 4.89913 -0.473924 0
M  V30 2060 N 198.065 0.39524 1.52563 0
M  V30 2061 C 199.028 -0.425001 2.25225 0
M  V30 2062 C 200.028 -0.985266 1.27079 0
M  V30 2063 O 201.218 -0.866332 1.5113 0
M  V30 2064 C 198.35 -1.59686 3.01186 0
M  V30 2065 H 199.543 0.211233 2.99155 0
M  V30 2066 H 197.096 0.147472 1.55603 0
M  V30 2067 H 197.831 -2.27035 2.31572 0
M  V30 2068 H 197.616 -1.20176 3.73229 0
M  V30 2069 H 199.106 -2.17743 3.5634 0
M  V30 2070 N 199.544 -1.57102 0.125237 0
M  V30 2071 C 200.491 -2.15641 -0.822655 0
M  V30 2072 C 201.461 -1.08313 -1.25927 0
M  V30 2073 O 202.646 -1.36251 -1.33567 0
M  V30 2074 C 199.786 -2.76504 -2.06494 0
M  V30 2075 C 198.899 -3.98158 -1.67612 0
M  V30 2076 C 198.034 -4.47088 -2.86854 0
M  V30 2077 C 197.073 -5.6126 -2.44242 0
M  V30 2078 N 196.21 -6.04905 -3.56419 0
M  V30 2079 H 201.05 -2.96313 -0.316625 0
M  V30 2080 H 198.587 -1.46388 -0.144588 0
M  V30 2081 H 200.545 -3.09925 -2.79289 0
M  V30 2082 H 199.175 -1.98512 -2.54545 0
M  V30 2083 H 198.227 -3.70858 -0.846661 0
M  V30 2084 H 199.539 -4.80934 -1.32301 0
M  V30 2085 H 198.693 -4.82451 -3.67867 0
M  V30 2086 H 197.432 -3.63275 -3.25396 0
M  V30 2087 H 196.437 -5.25495 -1.61663 0
M  V30 2088 H 197.662 -6.46843 -2.0681 0
M  V30 2089 H 195.608 -5.24032 -3.94623 0
M  V30 2090 H 195.525 -6.82552 -3.25051 0
M  V30 2091 H 196.793 -6.44907 -4.37853 0
M  V30 2092 N 201.022 0.148545 -1.56898 0
M  V30 2093 C 202.299 0.890019 -1.74178 0
M  V30 2094 C 202.679 1.99407 -0.692839 0
M  V30 2095 O 202.027 2.26671 0.288505 0
M  V30 2096 C 202.237 1.43389 -3.18183 0
M  V30 2097 C 203.585 1.89791 -3.79822 0
M  V30 2098 O 204.609 1.53134 -3.21603 0
M  V30 2099 O 203.468 2.57387 -4.82093 0
M  V30 2100 H 200.562 0.420496 -0.712118 0
M  V30 2101 H 203.108 0.134591 -1.69165 0
M  V30 2102 H 201.88 0.640383 -3.86024 0
M  V30 2103 H 201.503 2.25287 -3.27615 0
M  V30 2104 N 202.5 1.5196 0.417844 0
M  V30 2105 C 203.746 1.65836 1.16732 0
M  V30 2106 C 204.079 0.382881 1.90388 0
M  V30 2107 O 203.354 -0.618368 1.84408 0
M  V30 2108 C 203.637 2.87466 2.16876 0
M  V30 2109 C 203.49 4.25041 1.47174 0
M  V30 2110 C 204.809 3.04613 3.17646 0
M  V30 2111 H 201.928 0.603515 0.423011 0
M  V30 2112 H 204.57 1.84494 0.454105 0
M  V30 2113 H 202.72 2.71689 2.777 0
M  V30 2114 H 204.392 4.52527 0.895376 0
M  V30 2115 H 202.635 4.26843 0.773806 0
M  V30 2116 H 203.306 5.06176 2.20204 0
M  V30 2117 H 205.782 3.1923 2.66892 0
M  V30 2118 H 204.658 3.91247 3.8499 0
M  V30 2119 H 204.919 2.17541 3.84874 0
M  V30 2120 N 203.978 -0.674533 1.42435 0
M  V30 2121 C 205.227 -1.43034 1.42212 0
M  V30 2122 C 205.54 -1.95555 0.0420788 0
M  V30 2123 O 206.746 -2.71374 -0.0827558 0
M  V30 2124 C 205.202 -2.58748 2.50155 0
M  V30 2125 C 204.81 -2.12925 3.94166 0
M  V30 2126 C 206.554 -3.36257 2.59098 0
M  V30 2127 C 204.461 -3.25723 4.93618 0
M  V30 2128 H 203.391 -0.537345 0.528939 0
M  V30 2129 H 206.042 -0.73024 1.68344 0
M  V30 2130 H 204.424 -3.31128 2.17188 0
M  V30 2131 H 205.598 -1.47697 4.36488 0
M  V30 2132 H 203.913 -1.48354 3.89076 0
M  V30 2133 H 206.51 -4.20264 3.30578 0
M  V30 2134 H 206.853 -3.82866 1.63461 0
M  V30 2135 H 207.386 -2.70947 2.9126 0
M  V30 2136 H 204.125 -2.84105 5.90732 0
M  V30 2137 H 203.645 -3.89732 4.55926 0
M  V30 2138 H 205.324 -3.91186 5.15347 0
M  V30 2139 N 205.456 -1.28612 -0.910864 0
M  V30 2140 C 206.386 -1.15326 -2.03032 0
M  V30 2141 C 207.367 -0.0502924 -1.70026 0
M  V30 2142 O 208.552 -0.227797 -1.92859 0
M  V30 2143 C 205.682 -0.817343 -3.37545 0
M  V30 2144 C 204.636 -1.8754 -3.84724 0
M  V30 2145 C 203.962 -1.39305 -5.16235 0
M  V30 2146 C 205.262 -3.28244 -4.06267 0
M  V30 2147 H 206.956 -2.08975 -2.14406 0
M  V30 2148 H 204.502 -1.00612 -1.03021 0
M  V30 2149 H 206.455 -0.711151 -4.15356 0
M  V30 2150 H 205.179 0.154846 -3.26233 0
M  V30 2151 H 203.838 -1.97079 -3.09121 0
M  V30 2152 H 203.486 -0.409846 -5.01328 0
M  V30 2153 H 203.186 -2.10057 -5.48771 0
M  V30 2154 H 204.71 -1.30014 -5.96598 0
M  V30 2155 H 206.124 -3.21611 -4.74594 0
M  V30 2156 H 204.521 -3.96855 -4.5014 0
M  V30 2157 H 205.591 -3.72048 -3.10979 0
M  V30 2158 N 206.934 1.1197 -1.10907 0
M  V30 2159 C 208.162 1.87402 -0.876824 0
M  V30 2160 C 208.577 1.79894 0.573025 0
M  V30 2161 O 207.934 1.17629 1.39534 0
M  V30 2162 C 207.985 3.36428 -1.32282 0
M  V30 2163 O 207.706 3.43765 -2.71582 0
M  V30 2164 C 209.207 4.28783 -1.12518 0
M  V30 2165 H 206.427 0.592793 -0.314384 0
M  V30 2166 H 208.971 1.41649 -1.47499 0
M  V30 2167 H 207.126 3.79706 -0.768229 0
M  V30 2168 H 207.54 4.3652 -2.90776 0
M  V30 2169 H 209.014 5.31613 -1.48633 0
M  V30 2170 H 209.491 4.39153 -0.0642394 0
M  V30 2171 H 210.097 3.91291 -1.66648 0
M  V30 2172 N 208.412 0.89855 1.29475 0
M  V30 2173 C 209.637 0.538561 2.00285 0
M  V30 2174 C 210.062 -0.869135 1.66816 0
M  V30 2175 O 209.42 -1.57831 0.892145 0
M  V30 2176 C 209.468 0.736475 3.52999 0
M  V30 2177 O 208.572 -0.211537 4.11857 0
M  V30 2178 H 207.913 0.210563 0.62973 0
M  V30 2179 H 210.443 1.20982 1.64998 0
M  V30 2180 H 210.453 0.640685 4.02938 0
M  V30 2181 H 209.128 1.76276 3.76696 0
M  V30 2182 H 207.705 -0.0682991 3.72837 0
M  V30 2183 N 209.89 -1.43072 0.660911 0
M  V30 2184 C 211.138 -2.01323 0.177094 0
M  V30 2185 C 211.459 -1.5245 -1.2159 0
M  V30 2186 O 210.729 -0.740322 -1.81373 0
M  V30 2187 H 209.309 -0.744382 0.0624804 0
M  V30 2188 H 211.971 -1.75179 0.854305 0
M  V30 2189 H 211.067 -3.11649 0.167641 0
M  V30 2190 N 211.368 -0.403325 -1.52352 0
M  V30 2191 C 212.608 0.173946 -2.03659 0
M  V30 2192 C 212.972 1.42869 -1.28267 0
M  V30 2193 O 214.173 2.08403 -1.69769 0
M  V30 2194 C 212.444 0.421478 -3.54906 0
M  V30 2195 S 214.003 0.967027 -4.28012 0
M  V30 2196 H 210.821 0.0477461 -0.709395 0
M  V30 2197 H 213.423 -0.554906 -1.87459 0
M  V30 2198 H 212.127 -0.498616 -4.0736 0
M  V30 2199 H 211.658 1.17837 -3.75337 0
M  V30 2200 H 213.673 2.24812 -4.4235 0
M  V30 2201 N 212.846 1.57033 -0.133567 0
M  V30 2202 C 214.071 2.00475 0.531477 0
M  V30 2203 C 214.496 1.01291 1.58499 0
M  V30 2204 O 213.854 -0.0133279 1.81295 0
M  V30 2205 C 213.902 3.42729 1.12113 0
M  V30 2206 O 213.006 3.46498 2.23636 0
M  V30 2207 H 212.347 0.650876 0.131362 0
M  V30 2208 H 214.877 2.03344 -0.22634 0
M  V30 2209 H 214.887 3.81246 1.4531 0
M  V30 2210 H 213.562 4.14428 0.349557 0
M  V30 2211 H 212.139 3.19811 1.91769 0
M  V30 2212 N 214.325 -0.140222 1.56975 0
M  V30 2213 C 215.257 -1.19818 1.95388 0
M  V30 2214 C 216.27 -1.38816 0.850525 0
M  V30 2215 O 217.459 -1.38267 1.12891 0
M  V30 2216 C 214.559 -2.56189 2.21857 0
M  V30 2217 C 213.732 -2.58077 3.5315 0
M  V30 2218 C 212.791 -3.76037 3.6808 0
M  V30 2219 O 211.817 -3.60598 4.40406 0
M  V30 2220 N 213.019 -4.93763 3.05251 0
M  V30 2221 H 215.784 -0.871609 2.86746 0
M  V30 2222 H 213.345 -0.32972 1.58507 0
M  V30 2223 H 215.337 -3.33623 2.2908 0
M  V30 2224 H 213.907 -2.81111 1.36731 0
M  V30 2225 H 213.127 -1.6651 3.57307 0
M  V30 2226 H 214.415 -2.56377 4.39486 0
M  V30 2227 H 213.813 -5.09209 2.46419 0
M  V30 2228 H 212.37 -5.68949 3.18026 0
M  V30 2229 N 215.803 -1.52179 -0.40978 0
M  V30 2230 C 216.766 -1.74853 -1.48186 0
M  V30 2231 C 217.766 -0.618417 -1.48433 0
M  V30 2232 O 218.956 -0.886286 -1.49969 0
M  V30 2233 C 216.088 -1.8303 -2.87598 0
M  V30 2234 H 217.281 -2.70559 -1.29374 0
M  V30 2235 H 214.834 -1.42586 -0.640233 0
M  V30 2236 H 215.569 -0.89236 -3.11781 0
M  V30 2237 H 215.354 -2.65187 -2.88822 0
M  V30 2238 H 216.844 -2.02316 -3.65319 0
M  V30 2239 N 217.281 0.66697 -1.42791 0
M  V30 2240 C 218.53 1.42278 -1.42968 0
M  V30 2241 C 218.843 1.9553 -0.0524489 0
M  V30 2242 O 220.049 2.71414 0.068363 0
M  V30 2243 C 218.505 2.57418 -2.51524 0
M  V30 2244 C 218.113 2.10832 -3.9529 0
M  V30 2245 C 219.857 3.34878 -2.60877 0
M  V30 2246 C 217.764 3.23101 -4.95338 0
M  V30 2247 H 216.694 0.534533 -0.531781 0
M  V30 2248 H 219.345 0.721302 -1.68729 0
M  V30 2249 H 217.727 3.29971 -2.18941 0
M  V30 2250 H 218.901 1.4538 -4.37266 0
M  V30 2251 H 217.216 1.46289 -3.89857 0
M  V30 2252 H 219.813 4.18505 -3.32802 0
M  V30 2253 H 220.156 3.81993 -1.6549 0
M  V30 2254 H 220.689 2.69398 -2.92693 0
M  V30 2255 H 217.428 2.80969 -5.9223 0
M  V30 2256 H 216.948 3.87309 -4.57987 0
M  V30 2257 H 218.627 3.88447 -5.17415 0
M  V30 2258 N 218.759 1.29093 0.90403 0
M  V30 2259 C 220.036 1.075 1.63411 0
M  V30 2260 C 220.416 -0.382346 2.07609 0
M  V30 2261 O 219.764 -1.37031 1.82851 0
M  V30 2262 C 219.974 2.05858 2.81822 0
M  V30 2263 C 221.322 2.36539 3.52611 0
M  V30 2264 O 222.346 2.04019 2.91984 0
M  V30 2265 O 221.205 2.92085 4.61897 0
M  V30 2266 H 218.299 0.411547 0.717327 0
M  V30 2267 H 220.845 1.40449 0.952479 0
M  V30 2268 H 219.617 3.04037 2.46327 0
M  V30 2269 H 219.24 1.73613 3.57693 0
M  V30 2270 N 220.237 -1.11381 1.11499 0
M  V30 2271 C 221.167 -2.19509 0.796125 0
M  V30 2272 C 222.148 -1.68458 -0.235796 0
M  V30 2273 O 223.333 -1.93947 -0.0991344 0
M  V30 2274 C 220.463 -3.46475 0.239205 0
M  V30 2275 C 219.417 -4.10744 1.20307 0
M  V30 2276 C 218.743 -5.32293 0.50683 0
M  V30 2277 C 220.043 -4.55597 2.55399 0
M  V30 2278 H 221.737 -2.46439 1.70024 0
M  V30 2279 H 219.283 -1.18446 0.818935 0
M  V30 2280 H 221.236 -4.214 0.00392006 0
M  V30 2281 H 219.96 -3.19006 -0.700206 0
M  V30 2282 H 218.619 -3.37813 1.42399 0
M  V30 2283 H 218.267 -5.01095 -0.437408 0
M  V30 2284 H 217.967 -5.76243 1.1497 0
M  V30 2285 H 219.491 -6.09956 0.280351 0
M  V30 2286 H 220.905 -5.21841 2.37391 0
M  V30 2287 H 219.302 -5.10363 3.15673 0
M  V30 2288 H 220.372 -3.69013 3.14575 0
M  V30 2289 N 221.715 -0.905404 -1.28997 0
M  V30 2290 C 222.955 -0.541232 -1.97104 0
M  V30 2291 C 223.319 0.896841 -1.69767 0
M  V30 2292 O 224.52 1.36817 -2.31375 0
M  V30 2293 C 222.791 -0.832134 -3.47578 0
M  V30 2294 S 224.35 -0.573127 -4.35041 0
M  V30 2295 H 221.168 -0.200576 -0.682122 0
M  V30 2296 H 223.77 -1.16906 -1.56694 0
M  V30 2297 H 222.474 -1.87687 -3.64968 0
M  V30 2298 H 222.005 -0.192636 -3.92928 0
M  V30 2299 H 224.02 0.579297 -4.92807 0
M  V30 2300 N 223.193 1.4272 -0.668489 0
M  V30 2301 C 224.123 2.335 -0.000100175 0
M  V30 2302 C 225.104 1.50328 0.795964 0
M  V30 2303 O 226.289 1.78949 0.754385 0
M  V30 2304 C 223.419 3.33874 0.956302 0
M  V30 2305 C 222.373 4.27152 0.269278 0
M  V30 2306 C 221.699 5.17684 1.33818 0
M  V30 2307 C 222.999 5.15373 -0.847805 0
M  V30 2308 H 224.693 2.89639 -0.758244 0
M  V30 2309 H 222.239 1.39269 -0.366079 0
M  V30 2310 H 224.192 3.9629 1.43292 0
M  V30 2311 H 222.916 2.76025 1.74579 0
M  V30 2312 H 221.575 3.66123 -0.187042 0
M  V30 2313 H 221.223 4.56165 2.1195 0
M  V30 2314 H 220.923 5.80918 0.883659 0
M  V30 2315 H 222.447 5.82974 1.81586 0
M  V30 2316 H 223.861 5.7151 -0.452681 0
M  V30 2317 H 222.258 5.87407 -1.22773 0
M  V30 2318 H 223.328 4.5415 -1.69929 0
M  V30 2319 N 224.671 0.411399 1.52136 0
M  V30 2320 C 225.634 -0.401089 2.25663 0
M  V30 2321 C 226.634 -0.971732 1.28117 0
M  V30 2322 O 227.824 -0.850254 1.52041 0
M  V30 2323 C 224.956 -1.56483 3.02863 0
M  V30 2324 H 226.149 0.24295 2.98914 0
M  V30 2325 H 223.702 0.163968 1.55438 0
M  V30 2326 H 224.437 -2.24567 2.33967 0
M  V30 2327 H 224.222 -1.16211 3.74483 0
M  V30 2328 H 225.712 -2.13951 3.58629 0
M  V30 2329 N 226.149 -1.5696 0.141893 0
M  V30 2330 C 227.395 -1.9625 -0.511248 0
M  V30 2331 C 227.728 -1.02654 -1.64851 0
M  V30 2332 O 227.003 -0.0679676 -1.94381 0
M  V30 2333 C 227.286 -3.45285 -1.02227 0
M  V30 2334 C 227.139 -4.49658 0.113138 0
M  V30 2335 C 228.458 -3.96698 -1.90574 0
M  V30 2336 H 225.577 -0.713567 -0.184367 0
M  V30 2337 H 228.219 -1.88698 0.222087 0
M  V30 2338 H 226.369 -3.51852 -1.64719 0
M  V30 2339 H 228.041 -4.55174 0.749302 0
M  V30 2340 H 226.284 -4.26857 0.773026 0
M  V30 2341 H 226.955 -5.51258 -0.286053 0
M  V30 2342 H 229.431 -3.92578 -1.37918 0
M  V30 2343 H 228.307 -5.01453 -2.2324 0
M  V30 2344 H 228.568 -3.3875 -2.84079 0
M  V30 2345 N 227.627 0.131896 -1.57047 0
M  V30 2346 C 228.557 1.16384 -2.02428 0
M  V30 2347 C 229.538 1.43936 -0.90644 0
M  V30 2348 O 230.723 1.54599 -1.17528 0
M  V30 2349 C 227.853 2.49328 -2.4177 0
M  V30 2350 C 226.807 2.36266 -3.56879 0
M  V30 2351 C 226.133 3.74057 -3.8208 0
M  V30 2352 C 227.433 1.834 -4.89042 0
M  V30 2353 H 229.127 0.786433 -2.88887 0
M  V30 2354 H 226.673 0.376855 -1.38981 0
M  V30 2355 H 228.626 3.21759 -2.7212 0
M  V30 2356 H 227.35 2.88934 -1.52266 0
M  V30 2357 H 226.009 1.66286 -3.26718 0
M  V30 2358 H 225.657 4.11125 -2.89803 0
M  V30 2359 H 225.357 3.66174 -4.59554 0
M  V30 2360 H 226.881 4.48012 -4.1487 0
M  V30 2361 H 228.295 2.45636 -5.18011 0
M  V30 2362 H 226.692 1.8637 -5.70426 0
M  V30 2363 H 227.762 0.790662 -4.7841 0
M  V30 2364 N 229.106 1.52395 0.401703 0
M  V30 2365 C 230.069 1.75636 1.47257 0
M  V30 2366 C 231.069 0.62628 1.48103 0
M  V30 2367 O 232.259 0.894227 1.49497 0
M  V30 2368 C 229.391 1.84553 2.86624 0
M  V30 2369 H 230.584 2.71241 1.27938 0
M  V30 2370 H 228.137 1.42923 0.632662 0
M  V30 2371 H 228.872 0.908882 3.11303 0
M  V30 2372 H 228.657 2.66715 2.87412 0
M  V30 2373 H 230.147 2.04251 3.64241 0
M  V30 2374 N 230.584 -0.659388 1.43143 0
M  V30 2375 C 231.532 -1.79374 1.4808 0
M  V30 2376 C 232.526 -1.65639 0.354988 0
M  V30 2377 O 233.732 -1.7206 0.528704 0
M  V30 2378 H 230.107 -0.591705 0.4641 0
M  V30 2379 H 232.078 -1.72329 2.43609 0
M  V30 2380 C 230.827 -3.17606 1.41499 0
M  V30 2381 H 230.15 -3.28809 2.27431 0
M  V30 2382 H 231.59 -3.96951 1.49015 0
M  V30 2383 C 230.049 -3.36642 0.131765 0
M  V30 2384 O 230.579 -3.93461 -0.809386 0
M  V30 2385 N 228.785 -2.90567 0.0439396 0
M  V30 2386 H 228.332 -2.44513 0.810619 0
M  V30 2387 H 228.29 -3.03681 -0.813969 0
M  V30 2388 N 232.062 -1.29571 -0.897171 0
M  V30 2389 C 233.473 -1.15964 -1.46319 0
M  V30 2390 C 233.824 0.244267 -1.94674 0
M  V30 2391 O 232.949 1.13998 -1.83939 0
M  V30 2392 C 233.544 -2.09906 -2.65942 0
M  V30 2393 C 232.103 -2.00314 -3.18671 0
M  V30 2394 C 231.25 -2.00687 -1.91363 0
M  V30 2395 H 234.201 -1.42019 -0.708268 0
M  V30 2396 H 234.222 -1.67276 -3.41759 0
M  V30 2397 H 233.734 -3.12075 -2.30718 0
M  V30 2398 H 231.835 -1.01242 -3.58582 0
M  V30 2399 H 231.948 -2.88102 -3.82798 0
M  V30 2400 H 230.312 -1.45319 -2.09175 0
M  V30 2401 H 231.095 -3.04566 -1.58413 0
M  V30 2402 N 233.54 1.10788 -1.12088 0
M  V30 2403 C 234.788 1.8231 -0.872205 0
M  V30 2404 C 235.109 1.85419 0.603709 0
M  V30 2405 O 234.379 1.32963 1.43867 0
M  V30 2406 H 232.959 0.675137 -0.319686 0
M  V30 2407 H 235.621 1.34068 -1.41463 0
M  V30 2408 H 234.717 2.85955 -1.25045 0
M  V30 2409 N 235.018 0.912232 1.28515 0
M  V30 2410 C 235.95 0.35676 2.26406 0
M  V30 2411 C 236.963 -0.503933 1.54804 0
M  V30 2412 O 238.152 -0.319059 1.75625 0
M  V30 2413 C 235.252 -0.508825 3.35058 0
M  V30 2414 C 234.425 0.329007 4.36161 0
M  V30 2415 C 233.484 -0.471422 5.24084 0
M  V30 2416 O 232.51 0.115482 5.69083 0
M  V30 2417 N 233.712 -1.77479 5.52704 0
M  V30 2418 H 236.477 1.19818 2.74707 0
M  V30 2419 H 234.038 0.778022 1.4198 0
M  V30 2420 H 236.03 -1.051 3.90815 0
M  V30 2421 H 234.6 -1.25095 2.86478 0
M  V30 2422 H 233.82 1.05256 3.79888 0
M  V30 2423 H 235.108 0.90234 5.00735 0
M  V30 2424 H 234.506 -2.27417 5.17975 0
M  V30 2425 H 233.063 -2.26382 6.11224 0
M  V30 2426 N 236.496 -1.42363 0.676048 0
M  V30 2427 C 237.444 -2.32596 -0.0131507 0
M  V30 2428 C 238.438 -1.49891 -0.789238 0
M  V30 2429 O 239.644 -1.65955 -0.697061 0
M  V30 2430 H 236.019 -0.751647 -0.0230481 0
M  V30 2431 H 237.99 -2.88421 0.765243 0
M  V30 2432 C 236.739 -3.34479 -0.949702 0
M  V30 2433 H 236.062 -3.98158 -0.361938 0
M  V30 2434 H 237.502 -4.00199 -1.4006 0
M  V30 2435 C 235.961 -2.66838 -2.05667 0
M  V30 2436 O 236.491 -2.50124 -3.14326 0
M  V30 2437 N 234.697 -2.25843 -1.82875 0
M  V30 2438 H 234.244 -2.39637 -0.945085 0
M  V30 2439 H 234.202 -1.80918 -2.5713 0
M  V30 2440 N 237.974 -0.419461 -1.51915 0
M  V30 2441 C 239.223 0.154346 -2.01109 0
M  V30 2442 C 239.536 1.45338 -1.30905 0
M  V30 2443 O 240.742 2.10906 -1.7097 0
M  V30 2444 C 239.198 0.325615 -3.58424 0
M  V30 2445 C 238.806 -0.961934 -4.37551 0
M  V30 2446 C 240.55 0.854155 -4.15818 0
M  V30 2447 C 238.457 -0.757287 -5.86531 0
M  V30 2448 H 237.387 0.0614563 -0.751491 0
M  V30 2449 H 240.038 -0.54649 -1.75173 0
M  V30 2450 H 238.42 1.08903 -3.80731 0
M  V30 2451 H 239.594 -1.7323 -4.26999 0
M  V30 2452 H 237.909 -1.41766 -3.91524 0
M  V30 2453 H 240.506 1.02346 -5.24814 0
M  V30 2454 H 240.849 1.83172 -3.73837 0
M  V30 2455 H 241.382 0.149528 -3.97519 0
M  V30 2456 H 238.121 -1.70671 -6.32892 0
M  V30 2457 H 237.641 -0.0264061 -5.99794 0
M  V30 2458 H 239.32 -0.403482 -6.45741 0
M  V30 2459 N 239.452 1.56882 -0.150215 0
M  V30 2460 C 240.382 2.19935 0.784284 0
M  V30 2461 C 241.363 1.14854 1.25469 0
M  V30 2462 O 242.548 1.43209 1.31168 0
M  V30 2463 C 239.678 2.82349 2.02229 0
M  V30 2464 C 238.632 3.93285 1.68853 0
M  V30 2465 C 237.958 4.42649 2.99944 0
M  V30 2466 C 239.258 5.13904 0.932714 0
M  V30 2467 H 240.952 2.9828 0.258781 0
M  V30 2468 H 238.498 1.43473 0.123029 0
M  V30 2469 H 240.451 3.25126 2.68088 0
M  V30 2470 H 239.175 2.0134 2.57157 0
M  V30 2471 H 237.834 3.5113 1.05371 0
M  V30 2472 H 237.482 3.58458 3.52869 0
M  V30 2473 H 237.182 5.17476 2.78374 0
M  V30 2474 H 238.706 4.88099 3.66868 0
M  V30 2475 H 240.12 5.53506 1.49345 0
M  V30 2476 H 238.517 5.94515 0.81684 0
M  V30 2477 H 239.587 4.84842 -0.0749568 0
M  V30 2478 N 240.93 -0.123565 1.57115 0
M  V30 2479 C 242.176 -0.833386 1.84885 0
M  V30 2480 C 242.509 -1.79742 0.735292 0
M  V30 2481 O 241.784 -1.92764 -0.25925 0
M  V30 2482 C 242.067 -1.5873 3.23228 0
M  V30 2483 C 241.92 -0.643183 4.45178 0
M  V30 2484 C 243.239 -2.54453 3.59085 0
M  V30 2485 H 240.358 -0.301518 0.6725 0
M  V30 2486 H 243 -0.097778 1.89748 0
M  V30 2487 H 241.15 -2.21438 3.19214 0
M  V30 2488 H 242.822 -0.0253015 4.61293 0
M  V30 2489 H 241.065 0.0456139 4.33776 0
M  V30 2490 H 241.736 -1.20724 5.38637 0
M  V30 2491 H 244.212 -2.01853 3.63861 0
M  V30 2492 H 243.088 -3.04238 4.5687 0
M  V30 2493 H 243.349 -3.36906 2.86264 0
M  V30 2494 N 242.408 -1.52605 -0.393616 0
M  V30 2495 C 243.819 -1.59417 -0.971761 0
M  V30 2496 C 244.17 -0.444173 -1.91106 0
M  V30 2497 O 243.295 0.433382 -2.12016 0
M  V30 2498 C 243.89 -2.88936 -1.76921 0
M  V30 2499 C 242.449 -2.98175 -2.29714 0
M  V30 2500 C 241.596 -2.54491 -1.10135 0
M  V30 2501 H 244.547 -1.57751 -0.173317 0
M  V30 2502 H 244.568 -2.75163 -2.62804 0
M  V30 2503 H 244.08 -3.72616 -1.08532 0
M  V30 2504 H 242.181 -2.19024 -3.01429 0
M  V30 2505 H 242.294 -4.02726 -2.59517 0
M  V30 2506 H 240.658 -2.08702 -1.45999 0
M  V30 2507 H 241.441 -3.4056 -0.432874 0
M  V30 2508 N 243.887 0.651787 -1.4349 0
M  V30 2509 C 245.303 0.96762 -1.26922 0
M  V30 2510 C 245.503 2.00602 -0.189982 0
M  V30 2511 O 244.559 2.48793 0.431107 0
M  V30 2512 C 245.872 1.45052 -2.63401 0
M  V30 2513 C 247.42 1.5671 -2.70945 0
M  V30 2514 C 247.895 2.0839 -4.07845 0
M  V30 2515 N 249.386 2.1569 -4.09917 0
M  V30 2516 C 250.121 2.56804 -5.12679 0
M  V30 2517 N 249.617 2.97203 -6.25813 0
M  V30 2518 N 251.41 2.56756 -5.00033 0
M  V30 2519 H 243.561 -0.0353158 -2.12371 0
M  V30 2520 H 245.824 0.0467858 -0.946845 0
M  V30 2521 H 245.53 0.761926 -3.43348 0
M  V30 2522 H 245.404 2.42529 -2.88894 0
M  V30 2523 H 247.791 2.2467 -1.9133 0
M  V30 2524 H 247.872 0.57662 -2.49216 0
M  V30 2525 H 247.516 1.41031 -4.87927 0
M  V30 2526 H 247.446 3.08271 -4.26938 0
M  V30 2527 H 249.937 1.87237 -3.28254 0
M  V30 2528 H 250.25 3.27328 -7.00055 0
M  V30 2529 H 248.595 2.95004 -6.29283 0
M  V30 2530 H 251.786 2.24572 -4.10713 0
M  V30 2531 H 251.959 2.88475 -5.80247 0
M  V30 2532 N 245.365 1.30045 0.890287 0
M  V30 2533 C 246.776 1.16738 1.45702 0
M  V30 2534 C 247.127 -0.233939 1.948 0
M  V30 2535 O 246.252 -1.13021 1.84541 0
M  V30 2536 C 246.847 2.11313 2.64825 0
M  V30 2537 C 245.406 2.02001 3.17604 0
M  V30 2538 C 244.553 2.01699 1.90296 0
M  V30 2539 H 247.504 1.42392 0.700726 0
M  V30 2540 H 247.525 1.69086 3.40867 0
M  V30 2541 H 247.037 3.13294 2.2906 0
M  V30 2542 H 245.138 1.03142 3.5804 0
M  V30 2543 H 245.251 2.90128 3.81264 0
M  V30 2544 H 243.615 1.46427 2.08402 0
M  V30 2545 H 244.398 3.05402 1.56795 0
M  V30 2546 N 246.843 -1.10192 1.12674 0
M  V30 2547 C 248.091 -1.81845 0.881861 0
M  V30 2548 C 248.412 -1.85737 -0.593867 0
M  V30 2549 O 247.682 -1.33724 -1.4316 0
M  V30 2550 H 246.262 -0.673432 0.323261 0
M  V30 2551 H 248.924 -1.33316 1.42172 0
M  V30 2552 H 248.02 -2.85288 1.2656 0
M  V30 2553 N 248.321 -0.919034 -1.28029 0
M  V30 2554 C 249.568 -0.554934 -1.94748 0
M  V30 2555 C 249.896 0.90231 -1.72304 0
M  V30 2556 O 249.151 1.65767 -1.04018 0
M  V30 2557 C 249.45 -0.816855 -3.4794 0
M  V30 2558 C 249.116 -2.25448 -3.90492 0
M  V30 2559 C 247.778 -2.64752 -4.01821 0
M  V30 2560 C 250.13 -3.18977 -4.12193 0
M  V30 2561 C 247.458 -3.96727 -4.32232 0
M  V30 2562 C 249.81 -4.50523 -4.44086 0
M  V30 2563 C 248.474 -4.89673 -4.53626 0
M  V30 2564 H 247.744 -0.203065 -0.712633 0
M  V30 2565 H 250.391 -1.16136 -1.52265 0
M  V30 2566 H 248.696 -0.127677 -3.91592 0
M  V30 2567 H 250.393 -0.514238 -3.97689 0
M  V30 2568 H 246.983 -1.93952 -3.82205 0
M  V30 2569 H 251.167 -2.89817 -4.02889 0
M  V30 2570 H 246.423 -4.26754 -4.37825 0
M  V30 2571 H 250.597 -5.23005 -4.59825 0
M  V30 2572 H 248.224 -5.91969 -4.76946 0
M  V30 2573 N 249.799 1.42003 -0.683588 0
M  V30 2574 C 251.024 2.06265 -0.216647 0
M  V30 2575 C 251.449 1.51059 1.12083 0
M  V30 2576 O 250.807 0.632638 1.69904 0
M  V30 2577 C 250.855 3.60191 -0.171759 0
M  V30 2578 O 249.959 4.03396 0.857069 0
M  V30 2579 H 249.3 0.65502 -0.108834 0
M  V30 2580 H 251.83 1.81982 -0.935077 0
M  V30 2581 H 251.84 4.08 0.0014303 0
M  V30 2582 H 250.515 3.99743 -1.14796 0
M  V30 2583 H 249.092 3.67117 0.654208 0
M  V30 2584 N 251.277 0.427512 1.51691 0
M  V30 2585 C 252.207 -0.3796 2.30394 0
M  V30 2586 C 253.188 -1.02982 1.35384 0
M  V30 2587 O 254.373 -1.03534 1.643 0
M  V30 2588 C 251.503 -1.48649 3.1388 0
M  V30 2589 C 250.457 -0.960294 4.17088 0
M  V30 2590 C 249.783 -2.16219 4.89033 0
M  V30 2591 C 251.083 -0.00153679 5.223 0
M  V30 2592 H 252.777 0.277164 2.98114 0
M  V30 2593 H 250.323 0.134739 1.43368 0
M  V30 2594 H 252.276 -2.05826 3.67714 0
M  V30 2595 H 251 -2.1714 2.43962 0
M  V30 2596 H 249.659 -0.410806 3.64291 0
M  V30 2597 H 249.307 -2.83307 4.15628 0
M  V30 2598 H 249.007 -1.81654 5.58816 0
M  V30 2599 H 250.531 -2.73968 5.45687 0
M  V30 2600 H 251.945 -0.482687 5.71264 0
M  V30 2601 H 250.342 0.256199 5.99553 0
M  V30 2602 H 251.412 0.938174 4.75738 0
M  V30 2603 N 252.755 -1.56801 0.158532 0
M  V30 2604 C 253.985 -2.00568 -0.495583 0
M  V30 2605 C 254.393 -1.03774 -1.58201 0
M  V30 2606 O 253.736 -0.0285797 -1.83678 0
M  V30 2607 C 253.798 -3.40768 -1.14532 0
M  V30 2608 C 253.462 -4.56553 -0.202101 0
M  V30 2609 C 254.459 -5.16714 0.574675 0
M  V30 2610 C 252.144 -5.02197 -0.101648 0
M  V30 2611 C 254.138 -6.20939 1.43924 0
M  V30 2612 C 251.825 -6.06274 0.766508 0
M  V30 2613 C 252.823 -6.65515 1.53555 0
M  V30 2614 O 252.511 -7.67575 2.38922 0
M  V30 2615 H 252.243 -0.662893 -0.13247 0
M  V30 2616 H 254.797 -2.03829 0.253559 0
M  V30 2617 H 253.027 -3.34381 -1.94233 0
M  V30 2618 H 254.716 -3.6857 -1.70033 0
M  V30 2619 H 255.482 -4.82341 0.507167 0
M  V30 2620 H 251.361 -4.55807 -0.689994 0
M  V30 2621 H 254.905 -6.67107 2.03996 0
M  V30 2622 H 250.802 -6.40073 0.835266 0
M  V30 2623 H 251.57 -7.84844 2.32296 0
M  V30 2624 N 254.233 0.115231 -1.57178 0
M  V30 2625 C 255.18 1.14115 -2.00615 0
M  V30 2626 C 256.15 1.40939 -0.878941 0
M  V30 2627 O 257.335 1.52741 -1.14345 0
M  V30 2628 C 254.475 2.46156 -2.4187 0
M  V30 2629 C 253.588 2.26236 -3.68024 0
M  V30 2630 C 252.723 3.51534 -3.98243 0
M  V30 2631 C 251.762 3.26787 -5.17568 0
M  V30 2632 N 250.899 4.44298 -5.43639 0
M  V30 2633 H 255.739 0.763743 -2.88047 0
M  V30 2634 H 253.276 0.365615 -1.42484 0
M  V30 2635 H 255.234 3.23189 -2.63827 0
M  V30 2636 H 253.864 2.81783 -1.57475 0
M  V30 2637 H 252.916 1.40102 -3.5366 0
M  V30 2638 H 254.228 2.03929 -4.55208 0
M  V30 2639 H 253.382 4.36984 -4.20868 0
M  V30 2640 H 252.121 3.76876 -3.09541 0
M  V30 2641 H 251.126 2.39729 -4.94783 0
M  V30 2642 H 252.351 3.02812 -6.0785 0
M  V30 2643 H 250.297 4.69754 -4.57895 0
M  V30 2644 H 250.214 4.25109 -6.25154 0
M  V30 2645 H 251.482 5.3087 -5.70786 0
M  V30 2646 N 255.711 1.52812 0.385517 0
M  V30 2647 C 256.939 1.71907 1.15133 0
M  V30 2648 C 257.354 0.439004 1.83625 0
M  V30 2649 O 256.711 -0.586765 1.7281 0
M  V30 2650 C 256.762 2.87099 2.19673 0
M  V30 2651 O 256.483 4.10151 1.53973 0
M  V30 2652 C 257.984 3.17902 3.08955 0
M  V30 2653 H 255.204 0.575479 0.345057 0
M  V30 2654 H 257.748 1.99476 0.45052 0
M  V30 2655 H 255.903 2.61982 2.85384 0
M  V30 2656 H 256.317 4.74514 2.23465 0
M  V30 2657 H 257.791 4.01959 3.7833 0
M  V30 2658 H 258.268 2.3243 3.72657 0
M  V30 2659 H 258.874 3.44871 2.48885 0
M  V30 2660 N 257.189 -0.644168 1.43834 0
M  V30 2661 C 258.119 -1.76814 1.52509 0
M  V30 2662 C 259.1 -1.65823 0.379052 0
M  V30 2663 O 260.285 -1.84781 0.597466 0
M  V30 2664 C 257.415 -3.15288 1.4564 0
M  V30 2665 C 256.369 -3.41053 2.58586 0
M  V30 2666 C 255.695 -4.79421 2.36769 0
M  V30 2667 C 256.995 -3.34902 4.00797 0
M  V30 2668 H 258.689 -1.69812 2.46586 0
M  V30 2669 H 256.235 -0.815542 1.1868 0
M  V30 2670 H 258.188 -3.93681 1.50311 0
M  V30 2671 H 256.912 -3.23043 0.480725 0
M  V30 2672 H 255.571 -2.65035 2.53282 0
M  V30 2673 H 255.219 -4.83863 1.37424 0
M  V30 2674 H 254.919 -4.9762 3.12487 0
M  V30 2675 H 256.443 -5.6006 2.43238 0
M  V30 2676 H 257.857 -4.03218 4.07539 0
M  V30 2677 H 256.254 -3.64637 4.76613 0
M  V30 2678 H 257.324 -2.32928 4.25291 0
M  V30 2679 N 258.668 -1.30515 -0.883378 0
M  V30 2680 C 259.631 -1.1701 -1.97082 0
M  V30 2681 C 260.631 -0.10089 -1.60483 0
M  V30 2682 O 261.821 -0.349127 -1.70666 0
M  V30 2683 C 258.953 -0.793045 -3.31547 0
M  V30 2684 H 260.146 -2.13622 -2.10489 0
M  V30 2685 H 257.699 -1.13935 -1.06998 0
M  V30 2686 H 258.434 0.172499 -3.23841 0
M  V30 2687 H 258.219 -1.56576 -3.5948 0
M  V30 2688 H 259.709 -0.722073 -4.1131 0
M  V30 2689 N 260.146 1.09593 -1.13257 0
M  V30 2690 C 261.056 2.19739 -0.821691 0
M  V30 2691 C 262.072 1.72926 0.19302 0
M  V30 2692 O 263.248 2.01385 0.0244895 0
M  V30 2693 C 260.313 3.45482 -0.290333 0
M  V30 2694 C 259.374 4.06985 -1.36607 0
M  V30 2695 C 258.607 5.26726 -0.859975 0
M  V30 2696 O 258.83 5.69594 0.303082 0
M  V30 2697 O 257.764 5.7931 -1.63351 0
M  V30 2698 H 261.59 2.48781 -1.74189 0
M  V30 2699 H 259.175 1.18496 -0.909894 0
M  V30 2700 H 261.057 4.214 0.000674022 0
M  V30 2701 H 259.732 3.18047 0.602306 0
M  V30 2702 H 258.639 3.32712 -1.71037 0
M  V30 2703 H 259.972 4.38643 -2.23279 0
M  V30 2704 N 261.624 0.925811 1.2754 0
M  V30 2705 C 262.849 0.580924 1.99098 0
M  V30 2706 C 263.274 -0.833555 1.68622 0
M  V30 2707 O 262.632 -1.55903 0.925422 0
M  V30 2708 C 262.68 0.811186 3.51358 0
M  V30 2709 O 261.784 -0.124129 4.12213 0
M  V30 2710 H 261.125 0.223873 0.625122 0
M  V30 2711 H 263.655 1.24455 1.62395 0
M  V30 2712 H 263.665 0.72601 4.01489 0
M  V30 2713 H 262.34 1.84227 3.72872 0
M  V30 2714 H 260.917 0.0108006 3.72898 0
M  V30 2715 N 263.102 -1.41638 0.69111 0
M  V30 2716 C 264.035 -2.28183 -0.0274913 0
M  V30 2717 C 265.013 -1.41984 -0.792424 0
M  V30 2718 O 266.197 -1.71415 -0.784169 0
M  V30 2719 C 263.324 -3.22135 -1.04628 0
M  V30 2720 C 262.37 -4.24848 -0.375037 0
M  V30 2721 S 263.203 -5.28231 0.879321 0
M  V30 2722 C 264.359 -6.25748 -0.137983 0
M  V30 2723 H 264.592 -2.88782 0.706553 0
M  V30 2724 H 262.125 -1.46709 0.481222 0
M  V30 2725 H 264.083 -3.76797 -1.62894 0
M  V30 2726 H 262.744 -2.6064 -1.75287 0
M  V30 2727 H 261.937 -4.90837 -1.14433 0
M  V30 2728 H 261.539 -3.73758 0.134434 0
M  V30 2729 H 263.831 -6.70188 -0.992659 0
M  V30 2730 H 264.774 -7.06417 0.487867 0
M  V30 2731 H 265.182 -5.62363 -0.490762 0
M  V30 2732 N 264.58 -0.43555 -1.51462 0
M  V30 2733 C 265.828 0.131254 -2.01673 0
M  V30 2734 C 266.149 1.43368 -1.32177 0
M  V30 2735 O 265.419 1.90524 -0.455769 0
M  V30 2736 H 263.999 0.0514954 -0.745223 0
M  V30 2737 H 266.661 -0.577847 -1.86137 0
M  V30 2738 H 265.757 0.308446 -3.10572 0
M  V30 2739 N 266.058 1.56714 -0.166846 0
M  V30 2740 C 267.307 1.95922 0.479318 0
M  V30 2741 C 267.62 1.05529 1.6469 0
M  V30 2742 O 268.826 1.34399 2.35901 0
M  V30 2743 C 267.282 3.48359 0.90412 0
M  V30 2744 C 266.89 4.47369 -0.237621 0
M  V30 2745 C 268.634 3.96394 1.51896 0
M  V30 2746 C 266.541 5.91039 0.206561 0
M  V30 2747 H 265.471 0.731495 0.18284 0
M  V30 2748 H 268.122 1.81728 -0.254363 0
M  V30 2749 H 266.504 3.57955 1.69365 0
M  V30 2750 H 267.678 4.49485 -1.01489 0
M  V30 2751 H 265.993 4.09366 -0.762128 0
M  V30 2752 H 268.59 5.01186 1.86325 0
M  V30 2753 H 268.933 3.39075 2.41524 0
M  V30 2754 H 269.466 3.89796 0.79395 0
M  V30 2755 H 266.205 6.52221 -0.654834 0
M  V30 2756 H 265.725 5.9224 0.949282 0
M  V30 2757 H 267.404 6.43707 0.651939 0
M  V30 2758 N 267.536 -0.106894 1.57237 0
M  V30 2759 C 268.446 -1.14911 2.0453 0
M  V30 2760 C 269.462 -1.44592 0.96795 0
M  V30 2761 O 270.638 -1.55468 1.2803 0
M  V30 2762 C 267.703 -2.45272 2.45036 0
M  V30 2763 C 266.764 -2.22879 3.66911 0
M  V30 2764 C 265.997 -3.47024 4.05475 0
M  V30 2765 O 266.22 -4.54804 3.44252 0
M  V30 2766 O 265.154 -3.3731 4.98504 0
M  V30 2767 H 268.98 -0.777461 2.9358 0
M  V30 2768 H 266.565 -0.318563 1.45964 0
M  V30 2769 H 268.447 -3.22055 2.71769 0
M  V30 2770 H 267.122 -2.81886 1.59129 0
M  V30 2771 H 266.029 -1.43915 3.45311 0
M  V30 2772 H 267.362 -1.91163 4.53561 0
M  V30 2773 N 269.014 -1.53014 -0.377408 0
M  V30 2774 C 270.26 -1.68872 -1.12294 0
M  V30 2775 C 270.593 -0.433224 -1.89306 0
M  V30 2776 O 269.868 0.569258 -1.85983 0
M  V30 2777 C 270.151 -2.93115 -2.09179 0
M  V30 2778 C 270.004 -4.28794 -1.35853 0
M  V30 2779 C 271.323 -3.12928 -3.09458 0
M  V30 2780 H 268.442 -0.614518 -0.406862 0
M  V30 2781 H 271.084 -1.85633 -0.40503 0
M  V30 2782 H 269.234 -2.78956 -2.70399 0
M  V30 2783 H 270.906 -4.54742 -0.775082 0
M  V30 2784 H 269.149 -4.28744 -0.660364 0
M  V30 2785 H 269.82 -5.11837 -2.06706 0
M  V30 2786 H 272.296 -3.26194 -2.58334 0
M  V30 2787 H 271.172 -4.01316 -3.74482 0
M  V30 2788 H 271.433 -2.27669 -3.78971 0
M  V30 2789 N 270.492 0.636531 -1.44174 0
M  V30 2790 C 271.439 1.74875 -1.50624 0
M  V30 2791 C 272.409 1.62275 -0.35442 0
M  V30 2792 O 273.594 1.82276 -0.563908 0
M  V30 2793 C 270.734 3.13102 -1.45125 0
M  V30 2794 C 269.847 3.36717 -2.7064 0
M  V30 2795 C 268.982 4.64885 -2.57013 0
M  V30 2796 C 268.021 4.8166 -3.77717 0
M  V30 2797 N 267.158 6.01101 -3.62798 0
M  V30 2798 H 271.998 1.68697 -2.45653 0
M  V30 2799 H 269.535 0.823004 -1.21922 0
M  V30 2800 H 271.493 3.93034 -1.39929 0
M  V30 2801 H 270.123 3.18308 -0.536671 0
M  V30 2802 H 269.175 2.50763 -2.86046 0
M  V30 2803 H 270.487 3.44993 -3.60252 0
M  V30 2804 H 269.641 5.52969 -2.49619 0
M  V30 2805 H 268.38 4.58957 -1.64953 0
M  V30 2806 H 267.385 3.92007 -3.85501 0
M  V30 2807 H 268.61 4.89406 -4.70807 0
M  V30 2808 H 266.556 5.96273 -2.73486 0
M  V30 2809 H 266.473 6.10409 -4.46023 0
M  V30 2810 H 267.741 6.91761 -3.59286 0
M  V30 2811 N 271.97 1.30982 0.876444 0
M  V30 2812 C 272.9 1.20668 1.99903 0
M  V30 2813 C 273.881 0.095354 1.69833 0
M  V30 2814 O 275.066 0.27885 1.92188 0
M  V30 2815 C 272.196 0.90655 3.3526 0
M  V30 2816 C 271.15 1.97675 3.79617 0
M  V30 2817 C 270.476 1.52943 5.1236 0
M  V30 2818 C 271.776 3.389 3.97422 0
M  V30 2819 H 273.47 2.14586 2.0879 0
M  V30 2820 H 271.016 1.03308 1.00317 0
M  V30 2821 H 272.969 0.821025 4.13324 0
M  V30 2822 H 271.693 -0.0682969 3.26529 0
M  V30 2823 H 270.352 2.05205 3.03787 0
M  V30 2824 H 270 0.54262 5.00065 0
M  V30 2825 H 269.7 2.24532 5.43009 0
M  V30 2826 H 271.224 1.45786 5.92941 0
M  V30 2827 H 272.638 3.34081 4.659 0
M  V30 2828 H 271.035 4.0865 4.3946 0
M  V30 2829 H 272.105 3.80163 3.01006 0
M  V30 2830 N 273.449 -1.08991 1.13837 0
M  V30 2831 C 274.679 -1.84743 0.924859 0
M  V30 2832 C 275.087 -1.81629 -0.529874 0
M  V30 2833 O 274.43 -1.21397 -1.37872 0
M  V30 2834 C 274.492 -3.33568 1.34061 0
M  V30 2835 C 274.156 -3.60425 2.80968 0
M  V30 2836 C 275.153 -3.55771 3.79108 0
M  V30 2837 C 272.838 -3.88627 3.18236 0
M  V30 2838 C 274.832 -3.78939 5.12527 0
M  V30 2839 C 272.519 -4.11449 4.51833 0
M  V30 2840 C 273.517 -4.06598 5.48787 0
M  V30 2841 O 273.205 -4.28826 6.79973 0
M  V30 2842 H 272.937 -0.590258 0.329502 0
M  V30 2843 H 275.491 -1.38598 1.51591 0
M  V30 2844 H 273.721 -3.80442 0.692853 0
M  V30 2845 H 275.41 -3.90743 1.09886 0
M  V30 2846 H 276.176 -3.34005 3.51661 0
M  V30 2847 H 272.055 -3.91526 2.43369 0
M  V30 2848 H 275.599 -3.75068 5.88192 0
M  V30 2849 H 271.496 -4.32698 4.79002 0
M  V30 2850 H 272.264 -4.46264 6.86142 0
M  V30 2851 N 274.927 -0.932562 -1.27047 0
M  V30 2852 C 275.875 -0.42603 -2.28665 0
M  V30 2853 C 276.869 0.49219 -1.62092 0
M  V30 2854 O 278.075 0.371355 -1.76128 0
M  V30 2855 H 274.45 -0.119213 -0.742491 0
M  V30 2856 H 276.421 -1.29579 -2.68797 0
M  V30 2857 C 275.17 0.301426 -3.46391 0
M  V30 2858 H 274.493 -0.39595 -3.97834 0
M  V30 2859 H 275.933 0.6202 -4.1944 0
M  V30 2860 C 274.392 1.51616 -3.00856 0
M  V30 2861 O 274.922 2.61476 -3.04948 0
M  V30 2862 N 273.128 1.36969 -2.56296 0
M  V30 2863 H 272.675 0.475873 -2.53166 0
M  V30 2864 H 272.633 2.18368 -2.26192 0
M  V30 2865 N 276.405 1.4127 -0.698611 0
M  V30 2866 C 277.335 2.33447 -0.049629 0
M  V30 2867 C 278.316 1.51982 0.763898 0
M  V30 2868 O 279.501 1.80509 0.716257 0
M  V30 2869 C 276.631 3.35828 0.885267 0
M  V30 2870 C 275.585 4.27627 0.178613 0
M  V30 2871 C 274.911 5.20406 1.22807 0
M  V30 2872 C 276.211 5.13459 -0.956933 0
M  V30 2873 H 277.905 2.87966 -0.81951 0
M  V30 2874 H 275.451 1.38461 -0.395538 0
M  V30 2875 H 277.404 3.9924 1.34854 0
M  V30 2876 H 276.128 2.79666 1.68685 0
M  V30 2877 H 274.787 3.65643 -0.26466 0
M  V30 2878 H 274.435 4.60558 2.02226 0
M  V30 2879 H 274.135 5.82661 0.760239 0
M  V30 2880 H 275.659 5.86695 1.69179 0
M  V30 2881 H 277.073 5.70421 -0.573805 0
M  V30 2882 H 275.47 5.8467 -1.35205 0
M  V30 2883 H 276.54 4.50443 -1.79524 0
M  V30 2884 N 277.883 0.443576 1.51229 0
M  V30 2885 C 278.813 -0.355142 2.30783 0
M  V30 2886 C 279.794 -1.0154 1.36468 0
M  V30 2887 O 280.979 -1.01785 1.65389 0
M  V30 2888 C 278.109 -1.45312 3.15439 0
M  V30 2889 C 277.063 -0.916002 4.18083 0
M  V30 2890 C 276.389 -2.1102 4.91299 0
M  V30 2891 C 277.689 0.0538602 5.22272 0
M  V30 2892 H 279.383 0.308767 2.97804 0
M  V30 2893 H 276.929 0.149937 1.43217 0
M  V30 2894 H 278.882 -2.01914 3.69876 0
M  V30 2895 H 277.606 -2.14541 2.46252 0
M  V30 2896 H 276.265 -0.372145 3.64706 0
M  V30 2897 H 275.913 -2.78882 4.18609 0
M  V30 2898 H 275.613 -1.75717 5.60712 0
M  V30 2899 H 277.137 -2.68164 5.48562 0
M  V30 2900 H 278.551 -0.422069 5.71744 0
M  V30 2901 H 276.948 0.319776 5.99247 0
M  V30 2902 H 278.018 0.98858 4.74716 0
M  V30 2903 N 279.361 -1.56624 0.175154 0
M  V30 2904 C 280.772 -1.83561 -0.340916 0
M  V30 2905 C 281.123 -1.09511 -1.62794 0
M  V30 2906 O 280.248 -0.349389 -2.13561 0
M  V30 2907 C 280.843 -3.32979 -0.625313 0
M  V30 2908 C 279.402 -3.60399 -1.08581 0
M  V30 2909 C 278.549 -2.77024 -0.123722 0
M  V30 2910 H 281.5 -1.53593 0.399344 0
M  V30 2911 H 281.521 -3.50666 -1.47694 0
M  V30 2912 H 281.033 -3.86847 0.311575 0
M  V30 2913 H 279.134 -3.11945 -2.03767 0
M  V30 2914 H 279.247 -4.68711 -0.992317 0
M  V30 2915 H 277.611 -2.46993 -0.621821 0
M  V30 2916 H 278.394 -3.33674 0.807256 0
M  V30 2917 N 280.839 0.0985539 -1.57292 0
M  V30 2918 C 281.749 1.13824 -2.05137 0
M  V30 2919 C 282.765 1.44076 -0.975604 0
M  V30 2920 O 283.941 1.54786 -1.28853 0
M  V30 2921 C 281.006 2.43969 -2.46333 0
M  V30 2922 C 280.067 2.2093 -3.68087 0
M  V30 2923 C 279.3 3.44869 -4.0731 0
M  V30 2924 O 279.523 4.52972 -3.46659 0
M  V30 2925 O 278.457 3.34661 -5.00285 0
M  V30 2926 H 282.283 0.761881 -2.93988 0
M  V30 2927 H 279.868 0.310818 -1.46131 0
M  V30 2928 H 281.75 3.20609 -2.73473 0
M  V30 2929 H 280.425 2.81038 -1.60621 0
M  V30 2930 H 279.332 1.42081 -3.46069 0
M  V30 2931 H 280.665 1.88755 -4.54568 0
M  V30 2932 N 282.317 1.53212 0.369288 0
M  V30 2933 C 283.264 1.79388 1.45219 0
M  V30 2934 C 284.234 0.638059 1.53356 0
M  V30 2935 O 285.419 0.879852 1.69302 0
M  V30 2936 C 282.559 1.98623 2.82211 0
M  V30 2937 C 281.672 3.26337 2.8307 0
M  V30 2938 C 280.807 3.35779 4.11614 0
M  V30 2939 C 279.846 4.5754 4.06601 0
M  V30 2940 N 278.983 4.64155 5.26787 0
M  V30 2941 H 283.823 2.71794 1.22198 0
M  V30 2942 H 281.36 1.34642 0.592444 0
M  V30 2943 H 283.318 2.07761 3.61789 0
M  V30 2944 H 281.948 1.09558 3.03639 0
M  V30 2945 H 281 3.26171 1.95747 0
M  V30 2946 H 282.312 4.15988 2.75237 0
M  V30 2947 H 281.466 3.44208 4.99606 0
M  V30 2948 H 280.205 2.44137 4.22195 0
M  V30 2949 H 279.21 4.49215 3.16996 0
M  V30 2950 H 280.435 5.50519 3.97625 0
M  V30 2951 H 278.381 3.75413 5.3796 0
M  V30 2952 H 278.298 5.47706 5.21109 0
M  V30 2953 H 279.566 4.76863 6.16621 0
M  V30 2954 N 283.795 -0.628877 1.44509 0
M  V30 2955 C 285.02 -1.42048 1.5112 0
M  V30 2956 C 285.445 -1.87594 0.137818 0
M  V30 2957 O 284.803 -1.58873 -0.873437 0
M  V30 2958 C 284.851 -2.61541 2.48251 0
M  V30 2959 O 283.955 -3.61453 1.98559 0
M  V30 2960 H 283.296 -0.424942 0.510216 0
M  V30 2961 H 285.826 -0.767374 1.89664 0
M  V30 2962 H 285.836 -3.09057 2.66361 0
M  V30 2963 H 284.511 -2.27736 3.48007 0
M  V30 2964 H 283.088 -3.20731 1.90227 0
M  V30 2965 N 285.273 -1.31445 -0.869486 0
M  V30 2966 C 286.519 -1.22347 -1.62489 0
M  V30 2967 C 286.874 0.216204 -1.91181 0
M  V30 2968 O 286.167 1.14977 -1.53268 0
M  V30 2969 C 286.361 -2.00145 -2.96102 0
M  V30 2970 C 286.19 -3.51531 -2.80456 0
M  V30 2971 C 284.96 -4.20882 -2.79618 0
M  V30 2972 C 287.158 -4.46471 -2.5528 0
M  V30 2973 N 285.14 -5.58421 -2.55027 0
M  V30 2974 C 286.511 -5.71682 -2.39957 0
M  V30 2975 C 288.566 -4.35892 -2.40629 0
M  V30 2976 C 287.269 -6.87511 -2.11472 0
M  V30 2977 C 289.295 -5.51505 -2.13532 0
M  V30 2978 C 288.657 -6.75707 -1.98998 0
M  V30 2979 H 284.756 -0.502815 -0.598917 0
M  V30 2980 H 287.34 -1.65639 -1.02332 0
M  V30 2981 H 285.511 -1.59221 -3.54264 0
M  V30 2982 H 287.243 -1.83063 -3.60929 0
M  V30 2983 H 283.998 -3.72857 -2.92018 0
M  V30 2984 H 284.422 -6.30841 -2.45701 0
M  V30 2985 H 289.064 -3.40533 -2.50593 0
M  V30 2986 H 286.782 -7.82897 -2.00245 0
M  V30 2987 H 290.368 -5.45238 -2.02995 0
M  V30 2988 H 289.248 -7.63655 -1.78326 0
M  V30 2989 N 286.751 1.08385 -1.14413 0
M  V30 2990 C 287.661 2.18856 -0.844951 0
M  V30 2991 C 288.677 1.73121 0.174668 0
M  V30 2992 O 289.853 2.014 0.00312857 0
M  V30 2993 C 286.918 3.45155 -0.32696 0
M  V30 2994 C 285.979 4.05513 -1.40916 0
M  V30 2995 C 285.212 5.25784 -0.915793 0
M  V30 2996 O 285.435 5.69884 0.242651 0
M  V30 2997 O 284.369 5.77545 -1.69487 0
M  V30 2998 H 288.195 2.46919 -1.76818 0
M  V30 2999 H 285.78 1.17524 -0.922411 0
M  V30 3000 H 287.662 4.21377 -0.0440211 0
M  V30 3001 H 286.337 3.18668 0.568539 0
M  V30 3002 H 285.244 3.30879 -1.74556 0
M  V30 3003 H 286.577 4.3625 -2.27919 0
M  V30 3004 N 288.23 0.939286 1.26551 0
M  V30 3005 C 289.479 0.581601 1.93133 0
M  V30 3006 C 289.792 -0.883224 1.74524 0
M  V30 3007 O 290.998 -1.3502 2.35546 0
M  V30 3008 C 289.454 0.989425 3.46032 0
M  V30 3009 C 289.062 2.47573 3.73379 0
M  V30 3010 C 290.806 0.703544 4.18629 0
M  V30 3011 C 288.713 2.82235 5.19709 0
M  V30 3012 H 287.643 0.213803 0.723052 0
M  V30 3013 H 290.294 1.14167 1.4366 0
M  V30 3014 H 288.676 0.357902 3.94379 0
M  V30 3015 H 289.85 3.15614 3.35744 0
M  V30 3016 H 288.165 2.73471 3.1401 0
M  V30 3017 H 290.762 0.938869 5.26393 0
M  V30 3018 H 291.105 -0.359639 4.14744 0
M  V30 3019 H 291.638 1.2947 3.76141 0
M  V30 3020 H 288.377 3.87509 5.28694 0
M  V30 3021 H 287.897 2.18854 5.58447 0
M  V30 3022 H 289.576 2.70599 5.87695 0
M  V30 3023 N 289.708 -1.40897 0.706093 0
M  V30 3024 C 290.985 -1.94868 0.169099 0
M  V30 3025 C 291.365 -1.64485 -1.32318 0
M  V30 3026 O 290.713 -0.95744 -2.07474 0
M  V30 3027 C 290.923 -3.45798 0.471654 0
M  V30 3028 C 292.271 -4.22663 0.405127 0
M  V30 3029 O 293.295 -3.53865 0.407168 0
M  V30 3030 O 292.154 -5.45216 0.374383 0
M  V30 3031 H 289.248 -0.82673 0.0211352 0
M  V30 3032 H 291.794 -1.50558 0.782976 0
M  V30 3033 H 290.566 -3.61235 1.50416 0
M  V30 3034 H 290.189 -3.97225 -0.172666 0
M  V30 3035 N 291.186 -0.45159 -1.50991 0
M  V30 3036 C 292.116 0.342898 -2.30969 0
M  V30 3037 C 293.097 1.00815 -1.37005 0
M  V30 3038 O 294.282 1.00907 -1.65926 0
M  V30 3039 C 291.412 1.43637 -3.16205 0
M  V30 3040 C 290.366 0.893818 -4.18563 0
M  V30 3041 C 289.692 2.08411 -4.92411 0
M  V30 3042 C 290.992 -0.0815568 -5.22236 0
M  V30 3043 H 292.686 -0.324556 -2.97636 0
M  V30 3044 H 290.232 -0.157531 -1.43136 0
M  V30 3045 H 292.185 1.9995 -3.70942 0
M  V30 3046 H 290.909 2.13232 -2.47386 0
M  V30 3047 H 289.568 0.352798 -3.64898 0
M  V30 3048 H 289.216 2.76658 -4.20082 0
M  V30 3049 H 288.916 1.72741 -5.61636 0
M  V30 3050 H 290.44 2.65251 -5.49976 0
M  V30 3051 H 291.854 0.391742 -5.7196 0
M  V30 3052 H 290.251 -0.351551 -5.99069 0
M  V30 3053 H 291.321 -1.01374 -4.74185 0
M  V30 3054 N 292.664 1.56529 -0.183458 0
M  V30 3055 C 293.611 2.18546 0.742055 0
M  V30 3056 C 294.581 1.12912 1.2182 0
M  V30 3057 O 295.766 1.41115 1.28418 0
M  V30 3058 C 292.906 2.83977 1.96089 0
M  V30 3059 C 292.019 4.04105 1.52719 0
M  V30 3060 C 291.154 4.57427 2.70063 0
M  V30 3061 C 290.193 5.69938 2.23243 0
M  V30 3062 N 289.33 6.17717 3.33722 0
M  V30 3063 H 294.17 2.97284 0.206432 0
M  V30 3064 H 291.707 1.46823 0.0901571 0
M  V30 3065 H 293.665 3.20077 2.67594 0
M  V30 3066 H 292.295 2.07822 2.47002 0
M  V30 3067 H 291.347 3.73745 0.708436 0
M  V30 3068 H 292.659 4.85513 1.1436 0
M  V30 3069 H 291.813 4.95772 3.49708 0
M  V30 3070 H 290.552 3.75101 3.11689 0
M  V30 3071 H 289.557 5.31133 1.42048 0
M  V30 3072 H 290.782 6.54073 1.82661 0
M  V30 3073 H 288.728 5.38317 3.74902 0
M  V30 3074 H 288.645 6.94146 2.99495 0
M  V30 3075 H 289.913 6.60713 4.13616 0
M  V30 3076 N 294.142 -0.090211 1.57342 0
M  V30 3077 C 295.074 -1.13541 1.99101 0
M  V30 3078 C 296.087 -1.3604 0.894258 0
M  V30 3079 O 297.276 -1.34606 1.17233 0
M  V30 3080 C 294.376 -2.49001 2.29895 0
M  V30 3081 C 293.549 -2.46712 3.61182 0
M  V30 3082 C 292.608 -3.64136 3.79857 0
M  V30 3083 O 291.634 -3.46405 4.51655 0
M  V30 3084 N 292.836 -4.83802 3.20806 0
M  V30 3085 H 295.601 -0.779942 2.89373 0
M  V30 3086 H 293.162 -0.279125 1.59476 0
M  V30 3087 H 295.154 -3.26166 2.39578 0
M  V30 3088 H 293.724 -2.76619 1.45605 0
M  V30 3089 H 292.944 -1.55058 3.62423 0
M  V30 3090 H 294.232 -2.42265 4.4742 0
M  V30 3091 H 293.63 -5.01112 2.62494 0
M  V30 3092 H 292.187 -5.58543 3.35966 0
M  V30 3093 N 295.62 -1.53406 -0.361157 0
M  V30 3094 C 296.55 -1.83136 -1.44857 0
M  V30 3095 C 297.531 -0.685174 -1.5569 0
M  V30 3096 O 298.716 -0.93544 -1.70186 0
M  V30 3097 C 295.846 -2.02522 -2.82138 0
M  V30 3098 C 294.8 -3.18302 -2.86126 0
M  V30 3099 C 294.126 -3.22989 -4.26125 0
M  V30 3100 C 295.426 -4.56796 -2.53248 0
M  V30 3101 H 297.12 -2.74201 -1.20226 0
M  V30 3102 H 294.666 -1.31938 -0.576922 0
M  V30 3103 H 296.619 -2.21904 -3.58241 0
M  V30 3104 H 295.343 -1.08172 -3.08166 0
M  V30 3105 H 294.002 -2.98747 -2.12475 0
M  V30 3106 H 293.65 -2.26267 -4.49235 0
M  V30 3107 H 293.35 -4.00781 -4.29708 0
M  V30 3108 H 294.874 -3.44559 -5.04094 0
M  V30 3109 H 296.288 -4.7631 -3.19064 0
M  V30 3110 H 294.685 -5.36862 -2.68141 0
M  V30 3111 H 295.755 -4.61606 -1.48484 0
M  V30 3112 N 297.098 0.621204 -1.44841 0
M  V30 3113 C 298.008 1.7612 -1.5498 0
M  V30 3114 C 299.024 1.68477 -0.434927 0
M  V30 3115 O 300.2 1.89076 -0.693693 0
M  V30 3116 C 297.265 3.1254 -1.50065 0
M  V30 3117 C 296.326 3.31741 -2.72482 0
M  V30 3118 C 295.559 4.61653 -2.67792 0
M  V30 3119 O 295.782 5.431 -1.74352 0
M  V30 3120 O 294.716 4.83271 -3.58794 0
M  V30 3121 H 298.542 1.70518 -2.51311 0
M  V30 3122 H 296.127 0.783643 -1.27198 0
M  V30 3123 H 298.009 3.93844 -1.49882 0
M  V30 3124 H 296.684 3.18663 -0.568806 0
M  V30 3125 H 295.591 2.50077 -2.7823 0
M  V30 3126 H 296.924 3.30486 -3.64746 0
M  V30 3127 N 298.576 1.31904 0.862503 0
M  V30 3128 C 299.806 1.24817 1.64634 0
M  V30 3129 C 300.214 -0.187579 1.88268 0
M  V30 3130 O 299.557 -1.13253 1.44635 0
M  V30 3131 C 299.619 1.92996 3.03303 0
M  V30 3132 C 299.283 3.42336 3.02746 0
M  V30 3133 C 300.28 4.37956 2.80162 0
M  V30 3134 C 297.965 3.84147 3.2363 0
M  V30 3135 C 299.959 5.73361 2.78453 0
M  V30 3136 C 297.646 5.19663 3.21549 0
M  V30 3137 C 298.644 6.14081 2.98988 0
M  V30 3138 O 298.332 7.47118 2.96766 0
M  V30 3139 H 298.064 0.432222 0.519769 0
M  V30 3140 H 300.618 1.7445 1.08427 0
M  V30 3141 H 298.848 1.37922 3.61268 0
M  V30 3142 H 300.537 1.79723 3.63943 0
M  V30 3143 H 301.303 4.06981 2.63802 0
M  V30 3144 H 297.182 3.11083 3.40218 0
M  V30 3145 H 300.726 6.4703 2.60763 0
M  V30 3146 H 296.623 5.5027 3.37451 0
M  V30 3147 H 297.391 7.56382 3.12775 0
M  V30 3148 N 300.054 -1.07777 1.14986 0
M  V30 3149 C 300.984 -2.16865 0.865557 0
M  V30 3150 C 301.965 -1.69123 -0.182083 0
M  V30 3151 O 303.15 -1.94164 -0.0373815 0
M  V30 3152 C 300.28 -3.45539 0.349313 0
M  V30 3153 C 299.234 -4.06708 1.33313 0
M  V30 3154 C 298.56 -5.30411 0.675918 0
M  V30 3155 C 299.86 -4.47241 2.69764 0
M  V30 3156 H 301.554 -2.40905 1.77778 0
M  V30 3157 H 299.1 -1.15781 0.856203 0
M  V30 3158 H 301.053 -4.21174 0.137983 0
M  V30 3159 H 299.777 -3.21072 -0.598362 0
M  V30 3160 H 298.436 -3.33112 1.53075 0
M  V30 3161 H 298.084 -5.02232 -0.277767 0
M  V30 3162 H 297.784 -5.72293 1.33244 0
M  V30 3163 H 299.308 -6.08755 0.474262 0
M  V30 3164 H 300.722 -5.14025 2.53873 0
M  V30 3165 H 299.119 -5.00062 3.3175 0
M  V30 3166 H 300.189 -3.58818 3.26156 0
M  V30 3167 N 301.532 -0.945985 -1.26051 0
M  V30 3168 C 302.781 -0.591836 -1.92822 0
M  V30 3169 C 303.094 0.873956 -1.7499 0
M  V30 3170 O 304.3 1.33769 -2.36259 0
M  V30 3171 C 302.756 -1.00776 -3.45503 0
M  V30 3172 C 302.364 -2.4955 -3.7206 0
M  V30 3173 C 304.108 -0.725735 -4.1825 0
M  V30 3174 C 302.015 -2.84988 -5.18205 0
M  V30 3175 H 300.945 -0.217635 -0.721908 0
M  V30 3176 H 303.596 -1.14927 -1.43052 0
M  V30 3177 H 301.978 -0.378812 -3.94184 0
M  V30 3178 H 303.152 -3.1739 -3.34066 0
M  V30 3179 H 301.467 -2.75133 -3.12555 0
M  V30 3180 H 304.064 -0.966771 -5.25887 0
M  V30 3181 H 304.407 0.337639 -4.14929 0
M  V30 3182 H 304.94 -1.31463 -3.7545 0
M  V30 3183 H 301.679 -3.90307 -5.26631 0
M  V30 3184 H 301.199 -2.21813 -5.57278 0
M  V30 3185 H 302.878 -2.73712 -5.86252 0
M  V30 3186 N 303.011 1.40521 -0.713556 0
M  V30 3187 C 304.288 1.94775 -0.17943 0
M  V30 3188 C 304.668 1.65184 1.31444 0
M  V30 3189 O 304.016 0.968429 2.06963 0
M  V30 3190 C 304.226 3.45543 -0.489986 0
M  V30 3191 C 305.574 4.22442 -0.427536 0
M  V30 3192 O 306.598 3.53644 -0.425929 0
M  V30 3193 O 305.457 5.4501 -0.403292 0
M  V30 3194 H 302.551 0.826606 -0.0255192 0
M  V30 3195 H 305.097 1.5014 -0.790949 0
M  V30 3196 H 303.869 3.60432 -1.5233 0
M  V30 3197 H 303.492 3.97311 0.151598 0
M  V30 3198 N 304.489 0.459591 1.5075 0
M  V30 3199 C 305.399 -0.34613 2.32033 0
M  V30 3200 C 306.415 -1.00686 1.41909 0
M  V30 3201 O 307.591 -0.997361 1.7497 0
M  V30 3202 C 304.656 -1.42029 3.16273 0
M  V30 3203 C 303.717 -0.777362 4.22203 0
M  V30 3204 C 302.95 -1.80034 5.02418 0
M  V30 3205 O 303.173 -3.02544 4.83553 0
M  V30 3206 O 302.107 -1.37853 5.85901 0
M  V30 3207 H 305.933 0.318054 3.0203 0
M  V30 3208 H 303.518 0.221663 1.47746 0
M  V30 3209 H 305.4 -2.04275 3.68578 0
M  V30 3210 H 304.075 -2.06815 2.49016 0
M  V30 3211 H 302.982 -0.116256 3.73919 0
M  V30 3212 H 304.315 -0.172634 4.91897 0
M  V30 3213 N 305.967 -1.56429 0.191757 0
M  V30 3214 C 306.914 -2.18936 -0.730454 0
M  V30 3215 C 307.884 -1.13557 -1.21219 0
M  V30 3216 O 309.069 -1.41794 -1.27668 0
M  V30 3217 C 306.209 -2.85013 -1.9458 0
M  V30 3218 C 305.322 -4.04909 -1.50574 0
M  V30 3219 C 304.457 -4.58853 -2.67634 0
M  V30 3220 C 303.496 -5.71114 -2.20217 0
M  V30 3221 N 302.633 -6.19478 -3.30442 0
M  V30 3222 H 307.473 -2.97389 -0.190664 0
M  V30 3223 H 305.01 -1.46869 -0.0823694 0
M  V30 3224 H 306.968 -3.21492 -2.65893 0
M  V30 3225 H 305.598 -2.09129 -2.45896 0
M  V30 3226 H 304.65 -3.74115 -0.688605 0
M  V30 3227 H 305.962 -4.86113 -1.11784 0
M  V30 3228 H 305.116 -4.97619 -3.47074 0
M  V30 3229 H 303.855 -3.76749 -3.09696 0
M  V30 3230 H 302.86 -5.31879 -1.3923 0
M  V30 3231 H 304.085 -6.55033 -1.79189 0
M  V30 3232 H 302.031 -5.40297 -3.72041 0
M  V30 3233 H 301.948 -6.95725 -2.9581 0
M  V30 3234 H 303.216 -6.62898 -4.10106 0
M  V30 3235 N 307.445 0.0818655 -1.57387 0
M  V30 3236 C 308.673 0.796108 -1.9097 0
M  V30 3237 C 309.088 1.71626 -0.786757 0
M  V30 3238 O 308.445 1.80908 0.240513 0
M  V30 3239 C 308.496 1.59829 -3.24248 0
M  V30 3240 O 308.217 0.715131 -4.32224 0
M  V30 3241 C 309.718 2.41442 -3.7178 0
M  V30 3242 H 306.938 0.22691 -0.631469 0
M  V30 3243 H 309.482 0.0551439 -2.04426 0
M  V30 3244 H 307.637 2.29163 -3.12351 0
M  V30 3245 H 308.051 1.27205 -5.08841 0
M  V30 3246 H 309.525 2.932 -4.67694 0
M  V30 3247 H 310.002 3.2051 -3.00283 0
M  V30 3248 H 310.608 1.77283 -3.86589 0
M  V30 3249 N 308.923 1.53595 0.353017 0
M  V30 3250 C 309.886 1.80232 1.41594 0
M  V30 3251 C 310.886 0.673081 1.46035 0
M  V30 3252 O 312.076 0.941335 1.46576 0
M  V30 3253 C 309.208 1.93578 2.80607 0
M  V30 3254 H 310.401 2.75174 1.19244 0
M  V30 3255 H 307.954 1.44864 0.586872 0
M  V30 3256 H 308.689 1.00746 3.08254 0
M  V30 3257 H 308.474 2.75724 2.78781 0
M  V30 3258 H 309.964 2.15735 3.57558 0
M  V30 3259 N 310.401 -0.613514 1.45168 0
M  V30 3260 C 311.641 -1.38405 1.5041 0
M  V30 3261 C 312.005 -1.91489 0.139922 0
M  V30 3262 O 313.206 -2.68716 0.067033 0
M  V30 3263 C 311.477 -2.50552 2.5487 0
M  V30 3264 S 313.036 -3.38439 2.79292 0
M  V30 3265 H 309.854 -0.471945 0.531779 0
M  V30 3266 H 312.456 -0.708518 1.82209 0
M  V30 3267 H 311.16 -2.09894 3.52665 0
M  V30 3268 H 310.691 -3.22913 2.24701 0
M  V30 3269 H 312.706 -4.48527 2.12222 0
M  V30 3270 N 311.879 -1.3236 -0.855495 0
M  V30 3271 C 312.809 -1.23833 -1.97958 0
M  V30 3272 C 313.79 -0.122361 -1.69659 0
M  V30 3273 O 314.975 -0.30939 -1.9172 0
M  V30 3274 C 312.105 -0.959772 -3.33775 0
M  V30 3275 C 311.059 -2.03689 -3.76424 0
M  V30 3276 C 310.385 -1.61075 -5.09862 0
M  V30 3277 C 311.685 -3.4518 -3.9198 0
M  V30 3278 H 313.379 -2.1788 -2.0535 0
M  V30 3279 H 310.925 -1.04891 -0.986605 0
M  V30 3280 H 312.878 -0.886678 -4.11966 0
M  V30 3281 H 311.602 0.0163404 -3.26596 0
M  V30 3282 H 310.261 -2.10012 -3.00484 0
M  V30 3283 H 309.909 -0.622107 -4.99138 0
M  V30 3284 H 309.609 -2.33143 -5.39368 0
M  V30 3285 H 311.133 -1.55201 -5.90546 0
M  V30 3286 H 312.547 -3.4145 -4.60526 0
M  V30 3287 H 310.944 -4.1559 -4.32903 0
M  V30 3288 H 312.014 -3.84903 -2.94919 0
M  V30 3289 N 313.357 1.07166 -1.15556 0
M  V30 3290 C 314.606 1.79181 -0.926132 0
M  V30 3291 C 314.919 1.87768 0.547967 0
M  V30 3292 O 316.125 2.56323 0.895036 0
M  V30 3293 C 314.581 3.22 -1.60761 0
M  V30 3294 C 314.189 3.21607 -3.11886 0
M  V30 3295 C 315.933 3.9861 -1.4598 0
M  V30 3296 C 313.84 4.59092 -3.72812 0
M  V30 3297 H 312.77 0.67154 -0.342856 0
M  V30 3298 H 315.421 1.2027 -1.3859 0
M  V30 3299 H 313.803 3.81115 -1.07553 0
M  V30 3300 H 314.977 2.72127 -3.71865 0
M  V30 3301 H 313.292 2.58495 -3.2645 0
M  V30 3302 H 315.889 5.00225 -1.88888 0
M  V30 3303 H 316.232 4.143 -0.407541 0
M  V30 3304 H 316.765 3.45996 -1.96295 0
M  V30 3305 H 313.504 4.48606 -4.77946 0
M  V30 3306 H 313.024 5.08803 -3.17616 0
M  V30 3307 H 314.703 5.28059 -3.73848 0
M  V30 3308 N 314.835 0.952656 1.25548 0
M  V30 3309 C 316.081 0.607272 1.93494 0
M  V30 3310 C 316.414 -0.853245 1.74452 0
M  V30 3311 O 315.689 -1.61194 1.08843 0
M  V30 3312 C 315.972 0.96435 3.46947 0
M  V30 3313 C 315.825 2.48045 3.75225 0
M  V30 3314 C 317.144 0.487987 4.37386 0
M  V30 3315 H 314.263 0.222096 0.702739 0
M  V30 3316 H 316.905 1.18895 1.48203 0
M  V30 3317 H 315.055 0.469361 3.85654 0
M  V30 3318 H 316.727 3.04905 3.46166 0
M  V30 3319 H 314.97 2.919 3.209 0
M  V30 3320 H 315.641 2.6808 4.82532 0
M  V30 3321 H 318.117 0.912558 4.0597 0
M  V30 3322 H 316.993 0.766547 5.43521 0
M  V30 3323 H 317.254 -0.612063 4.37843 0
M  V30 3324 N 316.313 -1.40141 0.720998 0
M  V30 3325 C 317.261 -2.3252 0.0608547 0
M  V30 3326 C 318.255 -1.52326 -0.741152 0
M  V30 3327 O 319.461 -1.68089 -0.643911 0
M  V30 3328 H 315.836 -0.751999 0.000876664 0
M  V30 3329 H 317.807 -2.8584 0.856614 0
M  V30 3330 C 316.556 -3.37331 -0.842809 0
M  V30 3331 H 315.879 -3.99108 -0.235084 0
M  V30 3332 H 317.319 -4.04452 -1.27257 0
M  V30 3333 C 315.778 -2.73246 -1.97074 0
M  V30 3334 O 316.308 -2.59998 -3.06209 0
M  V30 3335 N 314.514 -2.31547 -1.75597 0
M  V30 3336 H 314.061 -2.42522 -0.868368 0
M  V30 3337 H 314.019 -1.89007 -2.51244 0
M  V30 3338 N 317.792 -0.46758 -1.50504 0
M  V30 3339 C 318.74 0.342482 -2.30065 0
M  V30 3340 C 319.734 0.993596 -1.37201 0
M  V30 3341 O 320.94 0.925102 -1.54408 0
M  V30 3342 H 317.315 0.129283 -0.740803 0
M  V30 3343 H 319.286 -0.34899 -2.96352 0
M  V30 3344 C 318.035 1.4139 -3.17654 0
M  V30 3345 H 317.358 0.922264 -3.89017 0
M  V30 3346 H 318.798 1.95335 -3.76325 0
M  V30 3347 C 317.257 2.4139 -2.35016 0
M  V30 3348 O 317.787 3.46586 -2.03079 0
M  V30 3349 N 315.993 2.13021 -1.97662 0
M  V30 3350 H 315.54 1.27499 -2.23834 0
M  V30 3351 H 315.498 2.80164 -1.42673 0
M  V30 3352 N 319.27 1.56325 -0.20005 0
M  V30 3353 C 320.681 1.8408 0.31167 0
M  V30 3354 C 321.032 1.12087 1.61031 0
M  V30 3355 O 320.157 0.38332 2.12978 0
M  V30 3356 C 320.752 3.33932 0.57226 0
M  V30 3357 C 319.311 3.6208 1.02834 0
M  V30 3358 C 318.458 2.77186 0.079634 0
M  V30 3359 H 321.409 1.52939 -0.423729 0
M  V30 3360 H 321.43 3.52971 1.42096 0
M  V30 3361 H 320.942 3.86303 -0.37308 0
M  V30 3362 H 319.043 3.15147 1.98778 0
M  V30 3363 H 319.156 4.7023 0.917624 0
M  V30 3364 H 317.52 2.47951 0.582448 0
M  V30 3365 H 318.303 3.32347 -0.860238 0
M  V30 3366 N 320.748 -0.0735177 1.57428 0
M  V30 3367 C 321.973 -0.789787 1.91774 0
M  V30 3368 C 322.398 -1.70413 0.796306 0
M  V30 3369 O 321.756 -1.79555 -0.250961 0
M  V30 3370 C 321.804 -1.5609 3.25067 0
M  V30 3371 O 320.908 -2.67144 3.14178 0
M  V30 3372 H 320.249 -0.215582 0.628029 0
M  V30 3373 H 322.779 -0.0422781 2.04556 0
M  V30 3374 H 322.789 -1.94052 3.58898 0
M  V30 3375 H 321.464 -0.890015 4.06265 0
M  V30 3376 H 320.041 -2.32052 2.91901 0
M  V30 3377 N 322.226 -1.5378 -0.344866 0
M  V30 3378 C 323.174 -1.82373 -1.4437 0
M  V30 3379 C 324.168 -0.694128 -1.54526 0
M  V30 3380 O 325.374 -0.877442 -1.57165 0
M  V30 3381 H 321.749 -0.577765 -0.481344 0
M  V30 3382 H 323.72 -2.74306 -1.17468 0
M  V30 3383 C 322.469 -2.04898 -2.80913 0
M  V30 3384 H 321.792 -2.9127 -2.73865 0
M  V30 3385 H 323.232 -2.28871 -3.56923 0
M  V30 3386 C 321.691 -0.834116 -3.26411 0
M  V30 3387 O 322.221 -0.0328885 -4.01687 0
M  V30 3388 N 320.427 -0.65171 -2.83198 0
M  V30 3389 H 319.974 -1.30489 -2.22104 0
M  V30 3390 H 319.932 0.159686 -3.13994 0
M  V30 3391 N 323.704 0.605807 -1.45491 0
M  V30 3392 C 325.115 1.18777 -1.44045 0
M  V30 3393 C 325.466 1.95471 -0.169001 0
M  V30 3394 O 324.591 2.0374 0.729324 0
M  V30 3395 C 325.186 2.16064 -2.60963 0
M  V30 3396 C 323.745 2.69633 -2.62631 0
M  V30 3397 C 322.892 1.45072 -2.36325 0
M  V30 3398 H 325.843 0.395017 -1.53705 0
M  V30 3399 H 325.864 2.9913 -2.35163 0
M  V30 3400 H 325.376 1.60217 -3.53486 0
M  V30 3401 H 323.477 3.29414 -1.74119 0
M  V30 3402 H 323.59 3.13944 -3.61906 0
M  V30 3403 H 321.954 1.74089 -1.85917 0
M  V30 3404 H 322.737 0.910899 -3.30995 0
M  V30 3405 N 325.182 1.32811 0.848464 0
M  V30 3406 C 326.422 1.25046 1.61687 0
M  V30 3407 C 326.786 -0.183464 1.91121 0
M  V30 3408 O 327.987 -0.384937 2.66029 0
M  V30 3409 C 326.258 2.09201 2.89775 0
M  V30 3410 S 327.817 2.18526 3.80515 0
M  V30 3411 H 324.635 0.445023 0.554505 0
M  V30 3412 H 327.237 1.67733 1.00429 0
M  V30 3413 H 325.941 3.12433 2.66108 0
M  V30 3414 H 325.472 1.67315 3.56047 0
M  V30 3415 H 327.487 1.3393 4.77784 0
M  V30 3416 N 326.66 -1.06551 1.16123 0
M  V30 3417 C 327.908 -1.78947 0.939267 0
M  V30 3418 C 328.229 -1.87532 -0.534476 0
M  V30 3419 O 327.499 -1.38211 -1.38833 0
M  V30 3420 H 326.079 -0.662807 0.344523 0
M  V30 3421 H 328.741 -1.28725 1.46342 0
M  V30 3422 H 327.837 -2.81117 1.35572 0
M  V30 3423 N 328.138 -0.959301 -1.25041 0
M  V30 3424 C 329.363 -0.633507 -1.97488 0
M  V30 3425 C 329.788 0.788555 -1.70773 0
M  V30 3426 O 329.146 1.53394 -0.966431 0
M  V30 3427 C 329.194 -0.904057 -3.49083 0
M  V30 3428 O 328.298 0.0147939 -4.12397 0
M  V30 3429 H 327.639 -0.240368 -0.618966 0
M  V30 3430 H 330.169 -1.28717 -1.59038 0
M  V30 3431 H 330.179 -0.832203 -3.99423 0
M  V30 3432 H 328.854 -1.94048 -3.67856 0
M  V30 3433 H 327.431 -0.109664 -3.72739 0
M  V30 3434 N 329.616 1.39756 -0.72842 0
M  V30 3435 C 330.862 2.00942 -0.273892 0
M  V30 3436 C 331.195 1.57656 1.13394 0
M  V30 3437 O 330.47 0.802434 1.77176 0
M  V30 3438 C 330.753 3.58211 -0.368346 0
M  V30 3439 C 330.606 4.11534 -1.81548 0
M  V30 3440 C 331.925 4.39372 0.253054 0
M  V30 3441 H 329.044 0.730047 -0.100996 0
M  V30 3442 H 331.686 1.66056 -0.923337 0
M  V30 3443 H 329.836 3.88061 0.184588 0
M  V30 3444 H 331.508 3.92431 -2.42478 0
M  V30 3445 H 329.751 3.65341 -2.33898 0
M  V30 3446 H 330.422 5.20682 -1.83288 0
M  V30 3447 H 332.898 4.15527 -0.218224 0
M  V30 3448 H 331.774 5.48677 0.156585 0
M  V30 3449 H 332.035 4.21358 1.33826 0
M  V30 3450 N 331.094 0.475555 1.50254 0
M  V30 3451 C 332.341 -0.0778919 2.0235 0
M  V30 3452 C 332.669 -1.39319 1.35722 0
M  V30 3453 O 331.924 -1.89888 0.473395 0
M  V30 3454 C 332.223 -0.305114 3.56095 0
M  V30 3455 C 331.889 0.92903 4.41225 0
M  V30 3456 C 330.551 1.26739 4.6421 0
M  V30 3457 C 332.903 1.75054 4.90923 0
M  V30 3458 C 330.231 2.42724 5.34137 0
M  V30 3459 C 332.583 2.9017 5.62125 0
M  V30 3460 C 331.247 3.24416 5.83362 0
M  V30 3461 H 330.517 -0.0285027 0.740452 0
M  V30 3462 H 333.164 0.630543 1.80821 0
M  V30 3463 H 331.469 -1.09584 3.76163 0
M  V30 3464 H 333.166 -0.747377 3.93974 0
M  V30 3465 H 329.756 0.655428 4.23559 0
M  V30 3466 H 333.94 1.50231 4.73016 0
M  V30 3467 H 329.196 2.69525 5.48786 0
M  V30 3468 H 333.37 3.54169 5.99614 0
M  V30 3469 H 330.997 4.14396 6.37323 0
M  V30 3470 N 332.573 -1.56217 0.208337 0
M  V30 3471 C 333.798 -2.02782 -0.435222 0
M  V30 3472 C 334.223 -1.08738 -1.53485 0
M  V30 3473 O 333.581 -0.0731855 -1.81152 0
M  V30 3474 C 333.629 -3.47687 -0.956335 0
M  V30 3475 O 332.733 -3.56773 -2.06849 0
M  V30 3476 H 332.074 -0.656403 -0.100158 0
M  V30 3477 H 334.604 -2.02033 0.3231 0
M  V30 3478 H 334.614 -3.87745 -1.26955 0
M  V30 3479 H 333.289 -4.15624 -0.15143 0
M  V30 3480 H 331.866 -3.28597 -1.76292 0
M  V30 3481 N 334.051 0.0651679 -1.57465 0
M  V30 3482 C 334.998 1.07675 -2.04144 0
M  V30 3483 C 335.968 1.38071 -0.923335 0
M  V30 3484 O 337.153 1.49026 -1.19146 0
M  V30 3485 C 334.293 2.38337 -2.49579 0
M  V30 3486 C 333.406 2.14413 -3.75035 0
M  V30 3487 C 332.541 3.38686 -4.09225 0
M  V30 3488 C 331.58 3.10156 -5.27702 0
M  V30 3489 N 330.717 4.26778 -5.57499 0
M  V30 3490 H 335.557 0.671716 -2.90331 0
M  V30 3491 H 333.094 0.3201 -1.43575 0
M  V30 3492 H 335.052 3.14632 -2.73975 0
M  V30 3493 H 333.682 2.7663 -1.6636 0
M  V30 3494 H 332.734 1.2878 -3.57939 0
M  V30 3495 H 334.046 1.89344 -4.61466 0
M  V30 3496 H 333.2 4.23373 -4.34558 0
M  V30 3497 H 331.939 3.66837 -3.21374 0
M  V30 3498 H 330.944 2.23866 -5.02159 0
M  V30 3499 H 332.169 2.8332 -6.17176 0
M  V30 3500 H 330.115 4.54948 -4.72608 0
M  V30 3501 H 330.032 4.05005 -6.38362 0
M  V30 3502 H 331.3 5.12443 -5.87386 0
M  V30 3503 N 335.529 1.53961 0.336706 0
M  V30 3504 C 336.945 1.44378 0.680241 0
M  V30 3505 C 337.145 0.606034 1.9217 0
M  V30 3506 O 336.201 0.099688 2.52303 0
M  V30 3507 C 337.514 2.87945 0.8665 0
M  V30 3508 C 339.062 2.97763 0.964682 0
M  V30 3509 C 339.537 4.42453 1.18321 0
M  V30 3510 N 341.028 4.46008 1.25025 0
M  V30 3511 C 341.763 5.55102 1.43697 0
M  V30 3512 N 341.259 6.7419 1.59498 0
M  V30 3513 N 343.052 5.42727 1.463 0
M  V30 3514 H 335.203 2.06918 -0.479455 0
M  V30 3515 H 337.466 0.935634 -0.152619 0
M  V30 3516 H 337.172 3.51691 0.0256937 0
M  V30 3517 H 337.046 3.33293 1.76623 0
M  V30 3518 H 339.433 2.34153 1.796 0
M  V30 3519 H 339.514 2.55766 0.041708 0
M  V30 3520 H 339.158 5.06645 0.356788 0
M  V30 3521 H 339.088 4.82048 2.11985 0
M  V30 3522 H 341.579 3.60196 1.14312 0
M  V30 3523 H 341.892 7.53095 1.734 0
M  V30 3524 H 340.237 6.77123 1.56621 0
M  V30 3525 H 343.428 4.48647 1.33543 0
M  V30 3526 H 343.601 6.27806 1.6051 0
M  V30 3527 N 337.007 -0.598083 1.45811 0
M  V30 3528 C 337.957 -1.70272 1.51629 0
M  V30 3529 C 338.941 -1.56382 0.378629 0
M  V30 3530 O 340.133 -1.65557 0.626087 0
M  V30 3531 C 337.262 -3.09042 1.49493 0
M  V30 3532 C 336.348 -3.28284 2.68496 0
M  V30 3533 N 336.739 -3.17748 3.93535 0
M  V30 3534 C 335.037 -3.59182 2.64394 0
M  V30 3535 C 335.738 -3.38579 4.7301 0
M  V30 3536 N 334.714 -3.63016 4.04624 0
M  V30 3537 H 338.516 -1.60634 2.46118 0
M  V30 3538 H 336.03 -0.801642 1.41235 0
M  V30 3539 H 338.027 -3.88302 1.51747 0
M  V30 3540 H 336.687 -3.19823 0.560683 0
M  V30 3541 H 337.698 -2.95944 4.25014 0
M  V30 3542 H 334.375 -3.76742 1.79922 0
M  V30 3543 H 335.765 -3.35747 5.82 0
M  V30 3544 N 338.485 -1.33259 -0.841409 0
M  V30 3545 C 339.415 -1.25926 -1.96634 0
M  V30 3546 C 340.396 -0.140349 -1.6952 0
M  V30 3547 O 341.581 -0.329707 -1.91381 0
M  V30 3548 C 338.711 -0.99512 -3.32738 0
M  V30 3549 C 337.665 -2.0767 -3.74242 0
M  V30 3550 C 336.991 -1.66474 -5.08125 0
M  V30 3551 C 338.291 -3.49318 -3.88297 0
M  V30 3552 H 339.985 -2.20046 -2.03027 0
M  V30 3553 H 337.531 -1.05931 -0.975425 0
M  V30 3554 H 339.484 -0.930323 -4.11002 0
M  V30 3555 H 338.208 -0.0183004 -3.26595 0
M  V30 3556 H 336.867 -2.13187 -2.98239 0
M  V30 3557 H 336.515 -0.675012 -4.9845 0
M  V30 3558 H 336.215 -2.3885 -5.36865 0
M  V30 3559 H 337.739 -1.61455 -5.88867 0
M  V30 3560 H 339.153 -3.46316 -4.56879 0
M  V30 3561 H 337.55 -4.20158 -4.28471 0
M  V30 3562 H 338.62 -3.8801 -2.9082 0
M  V30 3563 N 339.963 1.05934 -1.16686 0
M  V30 3564 C 340.895 2.13468 -0.834503 0
M  V30 3565 C 341.908 1.62013 0.15984 0
M  V30 3566 O 343.097 1.7838 -0.0654228 0
M  V30 3567 C 340.197 3.3817 -0.222361 0
M  V30 3568 C 339.37 4.18928 -1.25771 0
M  V30 3569 C 338.429 5.21985 -0.664703 0
M  V30 3570 O 337.455 5.53334 -1.33453 0
M  V30 3571 N 338.657 5.77919 0.546834 0
M  V30 3572 H 341.422 2.42578 -1.75999 0
M  V30 3573 H 338.983 1.21967 -1.06469 0
M  V30 3574 H 340.975 4.04266 0.187472 0
M  V30 3575 H 339.545 3.06655 0.606758 0
M  V30 3576 H 338.765 3.48433 -1.84358 0
M  V30 3577 H 340.053 4.69687 -1.95631 0
M  V30 3578 H 339.451 5.54721 1.10912 0
M  V30 3579 H 338.008 6.45573 0.898829 0
M  V30 3580 N 341.441 0.965919 1.2453 0
M  V30 3581 C 342.388 0.49402 2.25451 0
M  V30 3582 C 343.358 -0.45948 1.59618 0
M  V30 3583 O 344.543 -0.370238 1.87173 0
M  V30 3584 C 341.683 -0.211359 3.44452 0
M  V30 3585 C 340.796 0.7807 4.24887 0
M  V30 3586 C 339.931 0.0516105 5.31175 0
M  V30 3587 C 338.97 1.03385 6.03306 0
M  V30 3588 N 338.107 0.334887 7.01301 0
M  V30 3589 H 342.947 1.35946 2.65184 0
M  V30 3590 H 340.484 0.681515 1.3036 0
M  V30 3591 H 342.442 -0.637 4.12308 0
M  V30 3592 H 341.072 -1.04077 3.05562 0
M  V30 3593 H 340.124 1.32479 3.56586 0
M  V30 3594 H 341.436 1.52978 4.74762 0
M  V30 3595 H 340.59 -0.432114 6.05159 0
M  V30 3596 H 339.329 -0.730179 4.82203 0
M  V30 3597 H 338.334 1.52847 5.28127 0
M  V30 3598 H 339.559 1.81606 6.54367 0
M  V30 3599 H 337.505 -0.427959 6.54603 0
M  V30 3600 H 337.422 1.02287 7.49048 0
M  V30 3601 H 338.69 -0.126928 7.79397 0
M  V30 3602 N 342.919 -1.39368 0.735821 0
M  V30 3603 C 344.168 -1.99733 0.281004 0
M  V30 3604 C 344.481 -1.59055 -1.13846 0
M  V30 3605 O 345.687 -2.12262 -1.69284 0
M  V30 3606 C 344.143 -3.57057 0.451462 0
M  V30 3607 C 343.751 -4.06697 1.87886 0
M  V30 3608 C 345.495 -4.2446 0.0584616 0
M  V30 3609 C 343.402 -5.56598 1.99883 0
M  V30 3610 H 342.332 -0.747163 0.101311 0
M  V30 3611 H 344.983 -1.59357 0.909819 0
M  V30 3612 H 343.365 -3.95234 -0.246263 0
M  V30 3613 H 344.539 -3.79853 2.60861 0
M  V30 3614 H 342.854 -3.5196 2.22515 0
M  V30 3615 H 345.451 -5.34549 0.127099 0
M  V30 3616 H 345.794 -4.04444 -0.986433 0
M  V30 3617 H 346.327 -3.9146 0.707374 0
M  V30 3618 H 343.066 -5.81494 3.02564 0
M  V30 3619 H 342.586 -5.85242 1.31346 0
M  V30 3620 H 344.265 -6.22022 1.78039 0
M  V30 3621 N 344.397 -0.483516 -1.5 0
M  V30 3622 C 345.327 0.293829 -2.31644 0
M  V30 3623 C 346.308 0.978864 -1.39112 0
M  V30 3624 O 347.493 0.973644 -1.68029 0
M  V30 3625 C 344.623 1.36897 -3.19181 0
M  V30 3626 C 343.577 0.804833 -4.20365 0
M  V30 3627 C 342.903 1.9792 -4.96721 0
M  V30 3628 C 344.203 -0.192313 -5.21946 0
M  V30 3629 H 345.897 -0.387616 -2.9688 0
M  V30 3630 H 343.443 -0.187856 -1.42769 0
M  V30 3631 H 345.396 1.92037 -3.751 0
M  V30 3632 H 344.12 2.07936 -2.51853 0
M  V30 3633 H 342.779 0.275319 -3.65565 0
M  V30 3634 H 342.427 2.67686 -4.25856 0
M  V30 3635 H 342.127 1.60789 -5.65173 0
M  V30 3636 H 343.651 2.53526 -5.55479 0
M  V30 3637 H 345.065 0.270333 -5.72662 0
M  V30 3638 H 343.462 -0.478543 -5.98189 0
M  V30 3639 H 344.532 -1.11409 -4.71928 0
M  V30 3640 N 345.875 1.56104 -0.216619 0
M  V30 3641 C 346.838 2.18819 0.681962 0
M  V30 3642 C 347.838 1.14866 1.12528 0
M  V30 3643 O 349.028 1.40128 1.03488 0
M  V30 3644 C 346.16 2.80756 1.93362 0
M  V30 3645 H 347.353 2.99595 0.135254 0
M  V30 3646 H 344.906 1.56265 0.0330003 0
M  V30 3647 H 345.641 2.03837 2.52232 0
M  V30 3648 H 345.426 3.56876 1.62426 0
M  V30 3649 H 346.916 3.28844 2.57393 0
M  V30 3650 N 347.353 -0.0568162 1.57498 0
M  V30 3651 C 348.599 -0.75422 1.88253 0
M  V30 3652 C 348.932 -1.76461 0.810865 0
M  V30 3653 O 348.207 -1.93691 -0.177259 0
M  V30 3654 C 348.49 -1.44878 3.2967 0
M  V30 3655 C 348.343 -0.453789 4.47505 0
M  V30 3656 C 349.662 -2.38994 3.69554 0
M  V30 3657 H 346.781 -0.272724 0.684683 0
M  V30 3658 H 349.423 -0.0172113 1.89992 0
M  V30 3659 H 347.573 -2.077 3.28318 0
M  V30 3660 H 349.245 0.170371 4.60985 0
M  V30 3661 H 347.488 0.229552 4.33192 0
M  V30 3662 H 348.159 -0.977699 5.43273 0
M  V30 3663 H 350.635 -1.86239 3.72095 0
M  V30 3664 H 349.511 -2.84587 4.69363 0
M  V30 3665 H 349.772 -3.24461 3.00296 0
M  V30 3666 N 348.832 -1.54138 -0.328536 0
M  V30 3667 C 349.795 -1.82462 -1.38709 0
M  V30 3668 C 350.795 -0.696229 -1.44946 0
M  V30 3669 O 351.985 -0.964535 -1.4506 0
M  V30 3670 C 349.117 -1.98018 -2.77492 0
M  V30 3671 H 350.31 -2.77037 -1.14851 0
M  V30 3672 H 347.863 -1.45779 -0.563751 0
M  V30 3673 H 348.598 -1.05637 -3.06613 0
M  V30 3674 H 348.383 -2.80124 -2.74359 0
M  V30 3675 H 349.873 -2.21396 -3.54081 0
M  V30 3676 N 350.31 0.590341 -1.46126 0
M  V30 3677 C 351.273 1.68194 -1.55703 0
M  V30 3678 C 352.273 1.54808 -0.434868 0
M  V30 3679 O 353.463 1.59564 -0.698928 0
M  V30 3680 C 350.595 3.07575 -1.47005 0
M  V30 3681 H 351.788 1.61064 -2.52979 0
M  V30 3682 H 349.341 0.807541 -1.33823 0
M  V30 3683 H 350.076 3.20268 -0.509785 0
M  V30 3684 H 349.861 3.187 -2.28414 0
M  V30 3685 H 351.351 3.87055 -1.56776 0
M  V30 3686 N 351.788 1.33704 0.83433 0
M  V30 3687 C 353.204 1.13137 1.12571 0
M  V30 3688 C 353.404 -0.0747261 2.01361 0
M  V30 3689 O 352.46 -0.753647 2.4099 0
M  V30 3690 C 353.773 2.42105 1.78342 0
M  V30 3691 C 355.321 2.48054 1.90888 0
M  V30 3692 C 355.796 3.76995 2.60075 0
M  V30 3693 N 357.287 3.78092 2.67584 0
M  V30 3694 C 358.022 4.74574 3.21818 0
M  V30 3695 N 357.518 5.81434 3.76705 0
M  V30 3696 N 359.311 4.62044 3.20112 0
M  V30 3697 H 351.462 2.11 0.243489 0
M  V30 3698 H 353.725 0.932532 0.17055 0
M  V30 3699 H 353.431 3.30391 1.20561 0
M  V30 3700 H 353.305 2.54594 2.7832 0
M  V30 3701 H 355.692 1.60215 2.47821 0
M  V30 3702 H 355.773 2.39502 0.898459 0
M  V30 3703 H 355.417 4.65219 2.03799 0
M  V30 3704 H 355.347 3.82825 3.61597 0
M  V30 3705 H 357.838 3.00865 2.28667 0
M  V30 3706 H 358.151 6.51084 4.16305 0
M  V30 3707 H 356.496 5.85163 3.7498 0
M  V30 3708 H 359.687 3.77716 2.76493 0
M  V30 3709 H 359.86 5.37406 3.62076 0
M  V30 3710 N 353.266 -1.05314 1.17247 0
M  V30 3711 C 354.198 -2.13023 0.845812 0
M  V30 3712 C 355.211 -1.62096 -0.151246 0
M  V30 3713 O 356.4 -1.78343 0.0748818 0
M  V30 3714 C 353.5 -3.38047 0.240292 0
M  V30 3715 C 352.673 -4.18255 1.27991 0
M  V30 3716 C 351.732 -5.21625 0.692375 0
M  V30 3717 O 350.758 -5.52619 1.36385 0
M  V30 3718 N 351.96 -5.78201 -0.516178 0
M  V30 3719 H 354.725 -2.41642 1.77283 0
M  V30 3720 H 352.286 -1.21401 1.07115 0
M  V30 3721 H 354.278 -4.04359 -0.16603 0
M  V30 3722 H 352.848 -3.06972 -0.590487 0
M  V30 3723 H 352.068 -3.47451 1.86203 0
M  V30 3724 H 353.356 -4.68643 1.98119 0
M  V30 3725 H 352.754 -5.55301 -1.07969 0
M  V30 3726 H 351.311 -6.4604 -0.86458 0
M  V30 3727 N 354.744 -0.972509 -1.24016 0
M  V30 3728 C 355.984 -0.644951 -1.93958 0
M  V30 3729 C 356.348 0.80559 -1.74282 0
M  V30 3730 O 357.549 1.2436 -2.38302 0
M  V30 3731 C 355.82 -1.01521 -3.42678 0
M  V30 3732 S 357.379 -0.802927 -4.31391 0
M  V30 3733 H 354.197 -0.236452 -0.670531 0
M  V30 3734 H 356.799 -1.25048 -1.50277 0
M  V30 3735 H 355.503 -2.06769 -3.54506 0
M  V30 3736 H 355.034 -0.400648 -3.91355 0
M  V30 3737 H 357.049 0.317256 -4.95185 0
M  V30 3738 N 356.222 1.38976 -0.743202 0
M  V30 3739 C 357.468 2.0064 -0.295189 0
M  V30 3740 C 357.801 1.5885 1.11716 0
M  V30 3741 O 357.076 0.821181 1.76315 0
M  V30 3742 C 357.359 3.578 -0.406318 0
M  V30 3743 C 357.212 4.09586 -1.85903 0
M  V30 3744 C 358.531 4.39616 0.206439 0
M  V30 3745 H 355.65 0.728935 -0.108733 0
M  V30 3746 H 358.292 1.65067 -0.940897 0
M  V30 3747 H 356.442 3.88235 0.143419 0
M  V30 3748 H 358.114 3.89837 -2.46627 0
M  V30 3749 H 356.357 3.6284 -2.3776 0
M  V30 3750 H 357.028 5.18708 -1.888 0
M  V30 3751 H 359.504 4.15273 -0.262283 0
M  V30 3752 H 358.38 5.48812 0.0983819 0
M  V30 3753 H 358.641 4.22754 1.2935 0
M  V30 3754 N 357.7 0.491464 1.49741 0
M  V30 3755 C 359.111 0.0413169 1.86654 0
M  V30 3756 C 359.462 -1.36985 1.40462 0
M  V30 3757 O 358.587 -2.01917 0.778354 0
M  V30 3758 C 359.182 0.0682023 3.38731 0
M  V30 3759 C 357.741 -0.32656 3.74981 0
M  V30 3760 C 356.888 0.444888 2.73708 0
M  V30 3761 H 359.839 0.704733 1.42194 0
M  V30 3762 H 359.86 -0.729322 3.73445 0
M  V30 3763 H 359.372 1.09539 3.72321 0
M  V30 3764 H 357.473 -1.35734 3.46997 0
M  V30 3765 H 357.586 -0.013741 4.79098 0
M  V30 3766 H 355.95 -0.104062 2.54487 0
M  V30 3767 H 356.733 1.47197 3.10142 0
M  V30 3768 N 359.178 -1.55987 0.224894 0
M  V30 3769 C 360.427 -1.97566 -0.406273 0
M  V30 3770 C 360.74 -1.11569 -1.6066 0
M  V30 3771 O 361.946 -1.43062 -2.3075 0
M  V30 3772 C 360.402 -3.51474 -0.774207 0
M  V30 3773 C 360.01 -4.46179 0.403496 0
M  V30 3774 C 361.754 -4.01758 -1.37079 0
M  V30 3775 C 359.661 -5.91399 0.0129412 0
M  V30 3776 H 358.591 -0.737777 -0.155565 0
M  V30 3777 H 361.242 -1.80659 0.321635 0
M  V30 3778 H 359.624 -3.63994 -1.55963 0
M  V30 3779 H 360.798 -4.45409 1.18101 0
M  V30 3780 H 359.113 -4.06255 0.913536 0
M  V30 3781 H 361.71 -5.07756 -1.67596 0
M  V30 3782 H 362.053 -3.47805 -2.28773 0
M  V30 3783 H 362.586 -3.92475 -0.648733 0
M  V30 3784 H 359.325 -6.49341 0.896451 0
M  V30 3785 H 358.845 -5.95356 -0.728821 0
M  V30 3786 H 360.524 -6.45683 -0.412582 0
M  V30 3787 N 360.656 0.0484629 -1.57525 0
M  V30 3788 C 361.586 1.0549 -2.08313 0
M  V30 3789 C 362.567 1.38929 -0.981463 0
M  V30 3790 O 363.752 1.48151 -1.25558 0
M  V30 3791 C 360.882 2.36162 -2.54646 0
M  V30 3792 C 359.836 2.17016 -3.68901 0
M  V30 3793 C 359.162 3.53278 -4.01371 0
M  V30 3794 C 360.462 1.57219 -4.98076 0
M  V30 3795 H 362.156 0.632195 -2.92649 0
M  V30 3796 H 359.702 0.302654 -1.40784 0
M  V30 3797 H 361.655 3.06882 -2.88793 0
M  V30 3798 H 360.379 2.80456 -1.67368 0
M  V30 3799 H 359.038 1.48733 -3.35073 0
M  V30 3800 H 358.686 3.95185 -3.11188 0
M  V30 3801 H 358.386 3.41299 -4.78318 0
M  V30 3802 H 359.91 4.25391 -4.38035 0
M  V30 3803 H 361.324 2.17832 -5.30304 0
M  V30 3804 H 359.721 1.55871 -5.79503 0
M  V30 3805 H 360.791 0.535956 -4.81929 0
M  V30 3806 N 362.134 1.5431 0.320358 0
M  V30 3807 C 363.097 1.83195 1.3774 0
M  V30 3808 C 364.097 0.703906 1.44575 0
M  V30 3809 O 365.287 0.972214 1.44546 0
M  V30 3810 C 362.419 1.99487 2.76438 0
M  V30 3811 H 363.612 2.77642 1.1338 0
M  V30 3812 H 361.165 1.46076 0.556012 0
M  V30 3813 H 361.9 1.07262 3.06048 0
M  V30 3814 H 361.685 2.81575 2.7287 0
M  V30 3815 H 363.175 2.23271 3.52902 0
M  V30 3816 N 363.613 -0.582584 1.46437 0
M  V30 3817 C 364.89 -1.34276 1.4223 0
M  V30 3818 C 365.27 -2.10835 0.10583 0
M  V30 3819 O 364.618 -2.09485 -0.912596 0
M  V30 3820 C 364.828 -2.26865 2.65204 0
M  V30 3821 C 366.176 -2.88691 3.11356 0
M  V30 3822 O 367.2 -2.37178 2.65753 0
M  V30 3823 O 366.059 -3.82255 3.90568 0
M  V30 3824 H 363.153 -0.603326 0.565621 0
M  V30 3825 H 365.699 -0.603591 1.58603 0
M  V30 3826 H 364.471 -1.69724 3.52576 0
M  V30 3827 H 364.094 -3.08122 2.5129 0
M  V30 3828 N 365.091 -1.34144 -0.827227 0
M  V30 3829 C 366.001 -1.27428 -1.96975 0
M  V30 3830 C 367.017 -0.182728 -1.73038 0
M  V30 3831 O 368.193 -0.408426 -1.97215 0
M  V30 3832 C 365.258 -1.02526 -3.31194 0
M  V30 3833 C 364.319 -2.20796 -3.68168 0
M  V30 3834 C 363.552 -1.97073 -4.95982 0
M  V30 3835 O 363.775 -0.926822 -5.6282 0
M  V30 3836 O 362.709 -2.83912 -5.30733 0
M  V30 3837 H 366.535 -2.23537 -2.05584 0
M  V30 3838 H 364.12 -1.14307 -0.961989 0
M  V30 3839 H 366.002 -0.904026 -4.11589 0
M  V30 3840 H 364.677 -0.0945389 -3.23562 0
M  V30 3841 H 363.584 -2.38477 -2.88235 0
M  V30 3842 H 364.917 -3.12243 -3.8048 0
M  V30 3843 N 366.569 1.04691 -1.17803 0
M  V30 3844 C 367.818 1.77176 -0.963931 0
M  V30 3845 C 368.131 1.88888 0.508015 0
M  V30 3846 O 369.337 2.58164 0.840465 0
M  V30 3847 C 367.793 3.18518 -1.67555 0
M  V30 3848 C 367.401 3.14919 -3.18637 0
M  V30 3849 C 369.145 3.95424 -1.54402 0
M  V30 3850 C 367.052 4.51081 -3.82466 0
M  V30 3851 H 365.982 0.664116 -0.357023 0
M  V30 3852 H 368.633 1.17303 -1.4111 0
M  V30 3853 H 367.015 3.78748 -1.15613 0
M  V30 3854 H 368.189 2.64178 -3.77554 0
M  V30 3855 H 366.504 2.51512 -3.31859 0
M  V30 3856 H 369.101 4.96106 -1.99456 0
M  V30 3857 H 369.444 4.13343 -0.495329 0
M  V30 3858 H 369.977 3.41754 -2.0359 0
M  V30 3859 H 366.716 4.38368 -4.87354 0
M  V30 3860 H 366.236 5.01951 -3.28337 0
M  V30 3861 H 367.915 5.2001 -3.84965 0
M  V30 3862 N 368.047 0.979072 1.23499 0
M  V30 3863 C 369.277 0.664237 1.95631 0
M  V30 3864 C 369.685 -0.772653 1.72704 0
M  V30 3865 O 369.028 -1.53141 1.01457 0
M  V30 3866 C 369.09 0.873115 3.48736 0
M  V30 3867 C 368.754 2.29182 3.95379 0
M  V30 3868 C 369.751 3.2704 4.04155 0
M  V30 3869 C 367.436 2.62256 4.28401 0
M  V30 3870 C 369.43 4.56052 4.45304 0
M  V30 3871 C 367.117 3.91491 4.69231 0
M  V30 3872 C 368.115 4.88201 4.77649 0
M  V30 3873 O 367.803 6.15129 5.17563 0
M  V30 3874 H 367.535 0.245915 0.629684 0
M  V30 3875 H 370.089 1.3127 1.57979 0
M  V30 3876 H 368.319 0.167476 3.86337 0
M  V30 3877 H 370.008 0.555642 4.02079 0
M  V30 3878 H 370.774 3.02819 3.78848 0
M  V30 3879 H 366.653 1.87692 4.21061 0
M  V30 3880 H 370.197 5.31538 4.51789 0
M  V30 3881 H 366.094 4.15508 4.93987 0
M  V30 3882 H 366.862 6.18862 5.35679 0
M  V30 3883 N 369.525 -1.3858 0.750561 0
M  V30 3884 C 370.773 -1.99789 0.30477 0
M  V30 3885 C 371.094 -1.59874 -1.11649 0
M  V30 3886 O 370.364 -0.85417 -1.76297 0
M  V30 3887 H 368.944 -0.738902 0.109694 0
M  V30 3888 H 371.606 -1.69391 0.963983 0
M  V30 3889 H 370.702 -3.09952 0.365499 0
M  V30 3890 N 371.003 -0.499398 -1.49478 0
M  V30 3891 C 372.28 0.108629 -1.95298 0
M  V30 3892 C 372.66 1.54282 -1.44084 0
M  V30 3893 O 372.008 2.18944 -0.653908 0
M  V30 3894 C 372.218 0.0229111 -3.48992 0
M  V30 3895 C 373.566 0.197643 -4.2414 0
M  V30 3896 O 374.59 0.0981735 -3.56065 0
M  V30 3897 O 373.449 0.401669 -5.45022 0
M  V30 3898 H 370.543 0.096181 -0.821388 0
M  V30 3899 H 373.089 -0.561822 -1.6013 0
M  V30 3900 H 371.861 -0.977321 -3.78899 0
M  V30 3901 H 371.484 0.733579 -3.90774 0
M  V30 3902 N 372.481 1.55866 -0.233164 0
M  V30 3903 C 373.414 2.16794 0.712442 0
M  V30 3904 C 374.392 1.1158 1.18273 0
M  V30 3905 O 375.576 1.39897 1.26337 0
M  V30 3906 C 372.703 2.75757 1.96661 0
M  V30 3907 C 371.749 3.93902 1.63533 0
M  V30 3908 S 372.582 5.30223 0.74995 0
M  V30 3909 C 373.738 5.92631 2.01343 0
M  V30 3910 H 373.971 2.96662 0.194617 0
M  V30 3911 H 371.504 1.5439 -0.0177425 0
M  V30 3912 H 373.462 3.10367 2.68668 0
M  V30 3913 H 372.123 1.9586 2.45556 0
M  V30 3914 H 371.316 4.33702 2.56747 0
M  V30 3915 H 370.918 3.60499 0.995804 0
M  V30 3916 H 373.21 6.09312 2.96219 0
M  V30 3917 H 374.153 6.88388 1.65915 0
M  V30 3918 H 374.561 5.21571 2.15925 0
M  V30 3919 N 373.959 -0.0401083 1.57549 0
M  V30 3920 C 375.205 -0.734211 1.89043 0
M  V30 3921 C 375.538 -1.75591 0.829535 0
M  V30 3922 O 374.813 -1.93868 -0.156706 0
M  V30 3923 C 375.096 -1.41374 3.31188 0
M  V30 3924 C 374.949 -0.406299 4.47961 0
M  V30 3925 C 376.268 -2.35061 3.72068 0
M  V30 3926 H 373.387 -0.265447 0.687537 0
M  V30 3927 H 376.029 0.00294087 1.9 0
M  V30 3928 H 374.179 -2.04206 3.30503 0
M  V30 3929 H 375.851 0.219255 4.60779 0
M  V30 3930 H 374.094 0.275485 4.32924 0
M  V30 3931 H 374.765 -0.920022 5.44279 0
M  V30 3932 H 377.241 -1.82282 3.74049 0
M  V30 3933 H 376.117 -2.79593 4.72355 0
M  V30 3934 H 376.378 -3.21258 3.0372 0
M  V30 3935 N 375.437 -1.54477 -0.31217 0
M  V30 3936 C 376.684 -1.73227 -1.04875 0
M  V30 3937 C 377.012 -0.512042 -1.87639 0
M  V30 3938 O 376.267 0.506131 -1.89042 0
M  V30 3939 C 376.566 -2.967 -1.99258 0
M  V30 3940 C 376.232 -4.30974 -1.32559 0
M  V30 3941 C 374.894 -4.67477 -1.141 0
M  V30 3942 C 377.246 -5.14258 -0.847835 0
M  V30 3943 C 374.574 -5.84852 -0.465326 0
M  V30 3944 C 376.926 -6.32327 -0.185931 0
M  V30 3945 C 375.59 -6.67499 0.0107077 0
M  V30 3946 H 374.86 -0.633881 -0.383765 0
M  V30 3947 H 377.507 -1.88727 -0.324731 0
M  V30 3948 H 375.812 -2.75935 -2.7815 0
M  V30 3949 H 377.509 -3.08401 -2.563 0
M  V30 3950 H 374.099 -4.02262 -1.4793 0
M  V30 3951 H 378.283 -4.86565 -0.978192 0
M  V30 3952 H 373.539 -6.10654 -0.301883 0
M  V30 3953 H 377.713 -6.96135 0.192211 0
M  V30 3954 H 375.34 -7.58306 0.536287 0
M  V30 3955 N 376.915 0.57481 -1.46744 0
M  V30 3956 C 378.14 1.36341 -1.56288 0
M  V30 3957 C 378.565 1.86954 -0.207347 0
M  V30 3958 O 377.923 1.62006 0.813871 0
M  V30 3959 C 377.971 2.52147 -2.57787 0
M  V30 3960 O 377.075 3.53834 -2.11838 0
M  V30 3961 H 376.416 0.405713 -0.525636 0
M  V30 3962 H 378.946 0.696453 -1.92382 0
M  V30 3963 H 378.956 2.98958 -2.77648 0
M  V30 3964 H 377.631 2.14663 -3.5622 0
M  V30 3965 H 376.208 3.1345 -2.01999 0
M  V30 3966 N 378.394 1.34581 0.820102 0
M  V30 3967 C 379.671 1.17675 1.56244 0
M  V30 3968 C 380.051 -0.249541 2.0962 0
M  V30 3969 O 379.399 -1.25125 1.91196 0
M  V30 3970 C 379.609 2.23364 2.6816 0
M  V30 3971 C 380.957 2.58485 3.36854 0
M  V30 3972 O 381.981 2.22175 2.78418 0
M  V30 3973 O 380.84 3.20868 4.42386 0
M  V30 3974 H 377.934 0.456333 0.689702 0
M  V30 3975 H 380.48 1.46222 0.861231 0
M  V30 3976 H 379.252 3.19087 2.26493 0
M  V30 3977 H 378.875 1.96009 3.45928 0
M  V30 3978 N 379.872 -1.04064 1.18357 0
M  V30 3979 C 381.112 -1.78829 0.989921 0
M  V30 3980 C 381.476 -1.86106 -0.472095 0
M  V30 3981 O 382.677 -2.57076 -0.785187 0
M  V30 3982 C 380.948 -3.1823 1.6268 0
M  V30 3983 S 382.507 -4.09332 1.58091 0
M  V30 3984 H 379.325 -0.615754 0.355482 0
M  V30 3985 H 381.927 -1.24778 1.50501 0
M  V30 3986 H 380.631 -3.10543 2.68311 0
M  V30 3987 H 380.162 -3.77357 1.112 0
M  V30 3988 H 382.177 -4.92598 0.596817 0
M  V30 3989 N 381.35 -0.985608 -1.22978 0
M  V30 3990 C 382.297 -0.529825 -2.24636 0
M  V30 3991 C 383.267 0.434028 -1.60329 0
M  V30 3992 O 384.452 0.340414 -1.87739 0
M  V30 3993 C 381.592 0.156533 -3.44745 0
M  V30 3994 C 380.705 -0.848197 -4.23591 0
M  V30 3995 C 379.84 -0.136109 -5.31026 0
M  V30 3996 C 378.879 -1.1297 -6.01585 0
M  V30 3997 N 378.016 -0.446415 -7.00679 0
M  V30 3998 H 382.856 -1.40148 -2.62988 0
M  V30 3999 H 380.393 -0.702168 -1.29259 0
M  V30 4000 H 382.351 0.571324 -4.1327 0
M  V30 4001 H 380.981 0.992025 -3.07179 0
M  V30 4002 H 380.033 -1.38135 -3.54433 0
M  V30 4003 H 381.345 -1.60512 -4.72268 0
M  V30 4004 H 380.499 0.335784 -6.0577 0
M  V30 4005 H 379.238 0.653373 -4.83304 0
M  V30 4006 H 378.243 -1.6123 -5.25628 0
M  V30 4007 H 379.468 -1.91993 -6.51395 0
M  V30 4008 H 377.414 0.323763 -6.55201 0
M  V30 4009 H 377.331 -1.1419 -7.47326 0
M  V30 4010 H 378.599 0.00291697 -7.795 0
M  V30 4011 N 382.828 1.3818 -0.7579 0
M  V30 4012 C 384.058 2.04004 -0.326463 0
M  V30 4013 C 384.466 1.57286 1.05156 0
M  V30 4014 O 383.809 0.743144 1.67997 0
M  V30 4015 C 383.871 3.58444 -0.275402 0
M  V30 4016 C 383.535 4.28237 -1.59569 0
M  V30 4017 C 384.532 4.53312 -2.54566 0
M  V30 4018 C 382.217 4.66341 -1.86631 0
M  V30 4019 C 384.211 5.15531 -3.74842 0
M  V30 4020 C 381.898 5.28283 -3.0718 0
M  V30 4021 C 382.896 5.52814 -4.01106 0
M  V30 4022 O 382.584 6.13465 -5.19534 0
M  V30 4023 H 382.316 0.662026 -0.136739 0
M  V30 4024 H 384.87 1.7777 -1.02893 0
M  V30 4025 H 383.1 3.83667 0.483337 0
M  V30 4026 H 384.789 4.05701 0.127099 0
M  V30 4027 H 385.555 4.24299 -2.34936 0
M  V30 4028 H 381.434 4.46591 -1.14358 0
M  V30 4029 H 384.978 5.34594 -4.48168 0
M  V30 4030 H 380.875 5.56719 -3.26702 0
M  V30 4031 H 381.643 6.31951 -5.20173 0
M  V30 4032 N 384.306 0.507319 1.49211 0
M  V30 4033 C 385.216 -0.272136 2.33016 0
M  V30 4034 C 386.232 -0.961206 1.45041 0
M  V30 4035 O 387.408 -0.941191 1.78055 0
M  V30 4036 C 384.473 -1.31895 3.20631 0
M  V30 4037 C 383.534 -0.642648 4.24463 0
M  V30 4038 C 382.767 -1.63959 5.07891 0
M  V30 4039 O 382.99 -2.87007 4.92933 0
M  V30 4040 O 381.924 -1.19143 5.8999 0
M  V30 4041 H 385.75 0.413982 3.00865 0
M  V30 4042 H 383.335 0.268556 1.46966 0
M  V30 4043 H 385.217 -1.92446 3.7489 0
M  V30 4044 H 383.892 -1.98788 2.5547 0
M  V30 4045 H 382.799 0.00276252 3.741 0
M  V30 4046 H 384.132 -0.0160534 4.92197 0
M  V30 4047 N 385.784 -1.5574 0.241426 0
M  V30 4048 C 387.195 -1.84842 -0.262755 0
M  V30 4049 C 387.546 -1.16317 -1.58003 0
M  V30 4050 O 386.671 -0.439653 -2.11887 0
M  V30 4051 C 387.266 -3.35332 -0.483523 0
M  V30 4052 C 385.825 -3.6468 -0.931977 0
M  V30 4053 C 384.972 -2.77299 -0.0061151 0
M  V30 4054 H 387.923 -1.51761 0.464129 0
M  V30 4055 H 387.944 -3.56615 -1.32688 0
M  V30 4056 H 387.456 -3.85178 0.47537 0
M  V30 4057 H 385.557 -3.20307 -1.90353 0
M  V30 4058 H 385.67 -4.72498 -0.792628 0
M  V30 4059 H 384.034 -2.49408 -0.516503 0
M  V30 4060 H 384.817 -3.2995 0.948052 0
M  V30 4061 N 387.262 0.0317525 -1.57568 0
M  V30 4062 C 388.192 1.03274 -2.0942 0
M  V30 4063 C 389.173 1.3788 -0.996143 0
M  V30 4064 O 390.358 1.46811 -1.27122 0
M  V30 4065 C 387.488 2.33448 -2.57137 0
M  V30 4066 C 386.442 2.13091 -3.71182 0
M  V30 4067 C 385.768 3.49001 -4.05095 0
M  V30 4068 C 387.068 1.51928 -4.99715 0
M  V30 4069 H 388.762 0.60112 -2.93303 0
M  V30 4070 H 386.308 0.287705 -1.41097 0
M  V30 4071 H 388.261 3.03802 -2.92032 0
M  V30 4072 H 386.985 2.78665 -1.70333 0
M  V30 4073 H 385.644 1.45171 -3.36632 0
M  V30 4074 H 385.292 3.91862 -3.15362 0
M  V30 4075 H 384.992 3.36207 -4.81911 0
M  V30 4076 H 386.516 4.20721 -4.42522 0
M  V30 4077 H 387.93 2.12196 -5.32584 0
M  V30 4078 H 386.327 1.49716 -5.81124 0
M  V30 4079 H 387.397 0.484811 -4.8247 0
M  V30 4080 N 388.74 1.54641 0.303973 0
M  V30 4081 C 389.703 1.84646 1.35789 0
M  V30 4082 C 390.703 0.7192 1.4382 0
M  V30 4083 O 391.893 0.987491 1.43507 0
M  V30 4084 C 389.025 2.02407 2.74307 0
M  V30 4085 H 390.218 2.78829 1.10429 0
M  V30 4086 H 387.771 1.46658 0.540487 0
M  V30 4087 H 388.506 1.10502 3.04893 0
M  V30 4088 H 388.291 2.84453 2.69868 0
M  V30 4089 H 389.781 2.27002 3.50514 0
M  V30 4090 N 390.218 -0.567019 1.47046 0
M  V30 4091 C 391.446 -1.35027 1.56765 0
M  V30 4092 C 391.861 -1.8758 0.214316 0
M  V30 4093 O 391.218 -1.64471 -0.790919 0
M  V30 4094 C 391.269 -2.52698 2.58507 0
M  V30 4095 O 390.99 -2.0232 3.88585 0
M  V30 4096 C 392.491 -3.45043 2.78316 0
M  V30 4097 H 389.711 -0.41195 0.529658 0
M  V30 4098 H 392.255 -0.687832 1.92585 0
M  V30 4099 H 390.41 -3.149 2.25648 0
M  V30 4100 H 390.824 -2.79068 4.44096 0
M  V30 4101 H 392.298 -4.2405 3.53391 0
M  V30 4102 H 392.775 -3.97971 1.85784 0
M  V30 4103 H 393.381 -2.88665 3.12334 0
M  V30 4104 N 391.696 -1.35014 -0.812953 0
M  V30 4105 C 392.626 -1.30069 -1.93919 0
M  V30 4106 C 393.607 -0.176275 -1.69184 0
M  V30 4107 O 394.792 -0.370227 -1.90638 0
M  V30 4108 C 391.922 -1.06547 -3.30552 0
M  V30 4109 C 390.876 -2.15561 -3.69753 0
M  V30 4110 C 390.202 -1.77214 -5.04479 0
M  V30 4111 C 391.502 -3.57476 -3.808 0
M  V30 4112 H 393.196 -2.24303 -1.98314 0
M  V30 4113 H 390.742 -1.07977 -0.952736 0
M  V30 4114 H 392.695 -1.01729 -4.08937 0
M  V30 4115 H 391.419 -0.0875719 -3.26483 0
M  V30 4116 H 390.078 -2.19466 -2.9365 0
M  V30 4117 H 389.726 -0.780589 -4.96906 0
M  V30 4118 H 389.426 -2.50184 -5.31678 0
M  V30 4119 H 390.95 -1.7391 -5.8531 0
M  V30 4120 H 392.364 -3.55929 -4.4943 0
M  V30 4121 H 390.761 -4.29152 -4.19462 0
M  V30 4122 H 391.831 -3.94091 -2.82525 0
M  V30 4123 N 393.175 1.03435 -1.18907 0
M  V30 4124 C 394.4 1.80919 -1.01406 0
M  V30 4125 C 394.825 1.83055 0.432721 0
M  V30 4126 O 394.183 1.25252 1.31079 0
M  V30 4127 C 394.231 3.24091 -1.58105 0
M  V30 4128 O 393.335 4.04434 -0.806669 0
M  V30 4129 H 392.676 0.558709 -0.358803 0
M  V30 4130 H 395.206 1.30223 -1.57807 0
M  V30 4131 H 395.216 3.74853 -1.61087 0
M  V30 4132 H 393.891 3.21851 -2.6341 0
M  V30 4133 H 392.468 3.63091 -0.849666 0
M  V30 4134 N 394.653 0.992116 1.22453 0
M  V30 4135 C 395.881 0.685944 1.95198 0
M  V30 4136 C 396.296 -0.749233 1.73297 0
M  V30 4137 O 395.653 -1.50549 1.03156 0
M  V30 4138 C 395.704 0.981395 3.47924 0
M  V30 4139 O 395.425 2.36018 3.6909 0
M  V30 4140 C 396.926 0.692815 4.37853 0
M  V30 4141 H 394.146 0.253821 0.621141 0
M  V30 4142 H 396.69 1.32668 1.55626 0
M  V30 4143 H 394.845 0.386481 3.85467 0
M  V30 4144 H 395.259 2.45884 4.63294 0
M  V30 4145 H 396.733 0.949818 5.43767 0
M  V30 4146 H 397.21 -0.373181 4.37612 0
M  V30 4147 H 397.816 1.26874 4.05935 0
M  V30 4148 N 396.131 -1.37776 0.765217 0
M  V30 4149 C 397.408 -1.93975 0.251596 0
M  V30 4150 C 397.788 -1.69949 -1.25222 0
M  V30 4151 O 397.136 -1.04457 -2.03226 0
M  V30 4152 C 397.346 -3.43487 0.617895 0
M  V30 4153 C 398.694 -4.20564 0.584029 0
M  V30 4154 O 399.718 -3.5182 0.556888 0
M  V30 4155 O 398.577 -5.43138 0.605291 0
M  V30 4156 H 395.671 -0.82509 0.0561806 0
M  V30 4157 H 398.217 -1.47101 0.846128 0
M  V30 4158 H 396.989 -3.5453 1.65602 0
M  V30 4159 H 396.612 -3.976 -0.00403411 0
M  V30 4160 N 397.609 -0.515225 -1.4894 0
M  V30 4161 C 398.855 0.0242508 -2.02785 0
M  V30 4162 C 399.188 1.35323 -1.39289 0
M  V30 4163 O 398.463 1.87041 -0.533469 0
M  V30 4164 C 398.746 0.16184 -3.59736 0
M  V30 4165 C 398.599 -1.19127 -4.33738 0
M  V30 4166 C 399.918 0.895719 -4.30888 0
M  V30 4167 H 397.037 0.00733914 -0.736963 0
M  V30 4168 H 399.679 -0.669395 -1.77818 0
M  V30 4169 H 397.829 0.752624 -3.8114 0
M  V30 4170 H 399.501 -1.82202 -4.23792 0
M  V30 4171 H 397.744 -1.77695 -3.95736 0
M  V30 4172 H 398.415 -1.04815 -5.41957 0
M  V30 4173 H 400.891 0.394528 -4.14225 0
M  V30 4174 H 399.767 0.960859 -5.40425 0
M  V30 4175 H 400.028 1.9427 -3.97129 0
M  V30 4176 N 399.087 1.5561 -0.249682 0
M  V30 4177 C 400.498 1.84979 0.252949 0
M  V30 4178 C 400.849 1.17153 1.57384 0
M  V30 4179 O 399.974 0.450884 2.11651 0
M  V30 4180 C 400.569 3.35584 0.465732 0
M  V30 4181 C 399.128 3.65169 0.912624 0
M  V30 4182 C 398.275 2.77299 -0.00859085 0
M  V30 4183 H 401.226 1.51513 -0.47217 0
M  V30 4184 H 401.247 3.57313 1.30795 0
M  V30 4185 H 400.759 3.8492 -0.49579 0
M  V30 4186 H 398.86 3.21312 1.88652 0
M  V30 4187 H 398.973 4.72912 0.767559 0
M  V30 4188 H 397.337 2.49678 0.50327 0
M  V30 4189 H 398.12 3.29442 -0.965537 0
M  V30 4190 N 400.565 -0.0233959 1.57583 0
M  V30 4191 C 401.814 -0.712133 1.8871 0
M  V30 4192 C 402.127 -1.76217 0.848944 0
M  V30 4193 O 403.333 -2.50389 1.04964 0
M  V30 4194 C 401.789 -1.3177 3.3491 0
M  V30 4195 C 401.397 -0.303715 4.46969 0
M  V30 4196 C 403.141 -1.98598 3.75179 0
M  V30 4197 C 401.048 -0.917945 5.84233 0
M  V30 4198 H 399.978 -0.269735 0.704101 0
M  V30 4199 H 402.629 0.0333114 1.8347 0
M  V30 4200 H 401.011 -2.11304 3.34913 0
M  V30 4201 H 402.185 0.465325 4.58445 0
M  V30 4202 H 400.5 0.2628 4.1557 0
M  V30 4203 H 403.097 -2.45416 4.75053 0
M  V30 4204 H 403.44 -2.80659 3.07468 0
M  V30 4205 H 403.973 -1.25831 3.77374 0
M  V30 4206 H 400.712 -0.136633 6.55358 0
M  V30 4207 H 400.232 -1.65669 5.76467 0
M  V30 4208 H 401.911 -1.4236 6.31144 0
M  V30 4209 N 402.043 -1.548 -0.295768 0
M  V30 4210 C 402.973 -1.89115 -1.36959 0
M  V30 4211 C 403.954 -0.75059 -1.52644 0
M  V30 4212 O 405.139 -1.00678 -1.66065 0
M  V30 4213 C 402.269 -2.14307 -2.73295 0
M  V30 4214 C 401.223 -3.30151 -2.72368 0
M  V30 4215 C 400.549 -3.40772 -4.12042 0
M  V30 4216 C 401.849 -4.67126 -2.33646 0
M  V30 4217 H 403.543 -2.79053 -1.08488 0
M  V30 4218 H 401.089 -1.34266 -0.520443 0
M  V30 4219 H 403.042 -2.36898 -3.48507 0
M  V30 4220 H 401.766 -1.21145 -3.03301 0
M  V30 4221 H 400.425 -3.0749 -1.99613 0
M  V30 4222 H 400.073 -2.45117 -4.39234 0
M  V30 4223 H 399.773 -4.18645 -4.12322 0
M  V30 4224 H 401.297 -3.6563 -4.89027 0
M  V30 4225 H 402.711 -4.89414 -2.98575 0
M  V30 4226 H 401.108 -5.47751 -2.45129 0
M  V30 4227 H 402.178 -4.67489 -1.28772 0
M  V30 4228 N 403.521 0.559213 -1.47345 0
M  V30 4229 C 404.746 1.34676 -1.57725 0
M  V30 4230 C 405.171 1.86723 -0.227164 0
M  V30 4231 O 404.529 1.6286 0.796642 0
M  V30 4232 C 404.577 2.49399 -2.60447 0
M  V30 4233 O 403.681 3.51567 -2.15578 0
M  V30 4234 H 403.022 0.400115 -0.52991 0
M  V30 4235 H 405.552 0.676009 -1.93109 0
M  V30 4236 H 405.562 2.95996 -2.80803 0
M  V30 4237 H 404.237 2.10873 -3.58477 0
M  V30 4238 H 402.814 3.11289 -2.05313 0
M  V30 4239 N 404.999 1.35443 0.805782 0
M  V30 4240 C 406.239 1.30127 1.57627 0
M  V30 4241 C 406.603 -0.122567 1.91608 0
M  V30 4242 O 407.804 -0.300107 2.67119 0
M  V30 4243 C 406.075 2.18314 2.82973 0
M  V30 4244 S 407.634 2.30521 3.7337 0
M  V30 4245 H 404.452 0.462439 0.540066 0
M  V30 4246 H 407.054 1.70843 0.95042 0
M  V30 4247 H 405.758 3.20741 2.56034 0
M  V30 4248 H 405.289 1.78558 3.50543 0
M  V30 4249 H 407.304 1.49062 4.73281 0
M  V30 4250 N 406.477 -1.02803 1.19454 0
M  V30 4251 C 407.725 -1.75869 0.995722 0
M  V30 4252 C 408.046 -1.89138 -0.474543 0
M  V30 4253 O 407.316 -1.42558 -1.34366 0
M  V30 4254 H 405.896 -0.651511 0.365435 0
M  V30 4255 H 408.558 -1.24004 1.50363 0
M  V30 4256 H 407.654 -2.76661 1.44447 0
M  V30 4257 N 407.956 -0.998596 -1.21925 0
M  V30 4258 C 409.204 -0.676325 -1.90448 0
M  V30 4259 C 409.525 0.794719 -1.78071 0
M  V30 4260 O 408.795 1.5701 -1.17152 0
M  V30 4261 H 407.375 -0.247165 -0.704925 0
M  V30 4262 H 410.037 -1.26633 -1.48156 0
M  V30 4263 H 409.133 -0.943858 -2.97486 0
M  V30 4264 N 409.434 1.37368 -0.772513 0
M  V30 4265 C 410.364 2.32856 -0.173304 0
M  V30 4266 C 411.345 1.55818 0.682262 0
M  V30 4267 O 412.53 1.84052 0.619566 0
M  V30 4268 C 409.66 3.40048 0.706007 0
M  V30 4269 C 408.614 4.27973 -0.0483144 0
M  V30 4270 C 407.94 5.26184 0.950491 0
M  V30 4271 C 409.24 5.07665 -1.22776 0
M  V30 4272 H 410.934 2.83217 -0.971002 0
M  V30 4273 H 408.48 1.3617 -0.468377 0
M  V30 4274 H 410.433 4.05827 1.13501 0
M  V30 4275 H 409.157 2.88214 1.53623 0
M  V30 4276 H 407.816 3.63726 -0.458107 0
M  V30 4277 H 407.464 4.7063 1.77529 0
M  V30 4278 H 407.164 5.85872 0.450314 0
M  V30 4279 H 408.688 5.94838 1.37842 0
M  V30 4280 H 410.102 5.66578 -0.875366 0
M  V30 4281 H 408.499 5.76681 -1.66007 0
M  V30 4282 H 409.569 4.40294 -2.03149 0
M  V30 4283 N 410.912 0.523116 1.48665 0
M  V30 4284 C 411.875 -0.232592 2.28017 0
M  V30 4285 C 412.875 -0.874021 1.34972 0
M  V30 4286 O 414.065 -0.735132 1.57929 0
M  V30 4287 C 411.197 -1.33586 3.13636 0
M  V30 4288 H 412.39 0.464008 2.96289 0
M  V30 4289 H 409.943 0.278816 1.53793 0
M  V30 4290 H 410.678 -2.06593 2.4998 0
M  V30 4291 H 410.463 -0.881125 3.82071 0
M  V30 4292 H 411.953 -1.86759 3.73511 0
M  V30 4293 N 412.39 -1.55475 0.257931 0
M  V30 4294 C 413.337 -2.21837 -0.636939 0
M  V30 4295 C 414.307 -1.18596 -1.16294 0
M  V30 4296 O 415.492 -1.47081 -1.21539 0
M  V30 4297 C 412.632 -2.9301 -1.82317 0
M  V30 4298 C 411.745 -4.10931 -1.33265 0
M  V30 4299 C 410.88 -4.69791 -2.47931 0
M  V30 4300 C 409.919 -5.7994 -1.95796 0
M  V30 4301 N 409.056 -6.32935 -3.0387 0
M  V30 4302 H 413.896 -2.9793 -0.0643591 0
M  V30 4303 H 411.433 -1.47086 -0.0200031 0
M  V30 4304 H 413.391 -3.3248 -2.52018 0
M  V30 4305 H 412.021 -2.1937 -2.36805 0
M  V30 4306 H 411.073 -3.76699 -0.52931 0
M  V30 4307 H 412.385 -4.90417 -0.910654 0
M  V30 4308 H 411.539 -5.11892 -3.25656 0
M  V30 4309 H 410.278 -3.89545 -2.93438 0
M  V30 4310 H 409.283 -5.37305 -1.16546 0
M  V30 4311 H 410.508 -6.62043 -1.51246 0
M  V30 4312 H 408.454 -5.55591 -3.48791 0
M  V30 4313 H 408.371 -7.07645 -2.66035 0
M  V30 4314 H 409.639 -6.79695 -3.81621 0
M  V30 4315 N 413.868 0.0150385 -1.57593 0
M  V30 4316 C 415.284 0.370907 -1.5523 0
M  V30 4317 C 415.484 1.75735 -0.985882 0
M  V30 4318 O 414.54 2.44944 -0.613077 0
M  V30 4319 C 415.853 0.259908 -2.99575 0
M  V30 4320 C 417.401 0.335959 -3.11192 0
M  V30 4321 C 417.876 0.254253 -4.57294 0
M  V30 4322 N 419.367 0.312618 -4.62144 0
M  V30 4323 C 420.102 0.272505 -5.72752 0
M  V30 4324 N 419.598 0.183864 -6.92556 0
M  V30 4325 N 421.391 0.323267 -5.6117 0
M  V30 4326 H 413.542 -0.892104 -1.92757 0
M  V30 4327 H 415.805 -0.340563 -0.884715 0
M  V30 4328 H 415.511 -0.693403 -3.44797 0
M  V30 4329 H 415.385 1.048 -3.62349 0
M  V30 4330 H 417.772 1.27971 -2.65909 0
M  V30 4331 H 417.853 -0.481739 -2.51223 0
M  V30 4332 H 417.497 -0.685887 -5.03247 0
M  V30 4333 H 417.427 1.09024 -5.15191 0
M  V30 4334 H 419.918 0.38307 -3.75953 0
M  V30 4335 H 420.231 0.15874 -7.72637 0
M  V30 4336 H 418.576 0.149708 -6.94839 0
M  V30 4337 H 421.767 0.390607 -4.66467 0
M  V30 4338 H 421.94 0.288539 -6.47357 0
M  V30 4339 N 415.346 1.54954 0.287554 0
M  V30 4340 C 416.592 1.76059 1.01856 0
M  V30 4341 C 416.947 0.547056 1.84459 0
M  V30 4342 O 416.24 -0.460442 1.85985 0
M  V30 4343 C 416.434 2.99833 1.94512 0
M  V30 4344 C 416.263 4.33108 1.21026 0
M  V30 4345 C 415.033 4.96632 0.931896 0
M  V30 4346 C 417.231 5.10694 0.607949 0
M  V30 4347 N 415.213 6.13668 0.168716 0
M  V30 4348 C 416.584 6.19996 -0.0217865 0
M  V30 4349 C 418.639 4.95236 0.514338 0
M  V30 4350 C 417.342 7.15524 -0.736092 0
M  V30 4351 C 419.368 5.91106 -0.186343 0
M  V30 4352 C 418.73 6.99786 -0.804875 0
M  V30 4353 H 414.829 0.696679 0.355193 0
M  V30 4354 H 417.413 1.92441 0.295741 0
M  V30 4355 H 415.584 2.84853 2.64033 0
M  V30 4356 H 417.316 3.09405 2.60865 0
M  V30 4357 H 414.071 4.57255 1.23348 0
M  V30 4358 H 414.495 6.76705 -0.199781 0
M  V30 4359 H 419.137 4.11328 0.978234 0
M  V30 4360 H 416.855 7.98964 -1.21172 0
M  V30 4361 H 420.441 5.81224 -0.258897 0
M  V30 4362 H 419.321 7.72694 -1.33843 0
M  V30 4363 N 416.824 -0.551391 1.4764 0
M  V30 4364 C 417.754 -1.66757 1.63445 0
M  V30 4365 C 418.735 -1.63077 0.483742 0
M  V30 4366 O 419.92 -1.80607 0.71377 0
M  V30 4367 C 417.05 -3.05387 1.65396 0
M  V30 4368 C 416.004 -3.23918 2.79752 0
M  V30 4369 C 415.33 -4.63393 2.66779 0
M  V30 4370 C 416.63 -3.08735 4.21284 0
M  V30 4371 H 418.324 -1.53786 2.56886 0
M  V30 4372 H 415.87 -0.738415 1.23626 0
M  V30 4373 H 417.823 -3.83325 1.75043 0
M  V30 4374 H 416.547 -3.19332 0.685195 0
M  V30 4375 H 415.206 -2.48391 2.69625 0
M  V30 4376 H 414.854 -4.74144 1.67918 0
M  V30 4377 H 414.554 -4.7674 3.43501 0
M  V30 4378 H 416.078 -5.43458 2.78364 0
M  V30 4379 H 417.492 -3.76484 4.32357 0
M  V30 4380 H 415.889 -3.33588 4.98838 0
M  V30 4381 H 416.959 -2.0541 4.39243 0
M  V30 4382 N 418.302 -1.35869 -0.798587 0
M  V30 4383 C 419.548 -1.2978 -1.55836 0
M  V30 4384 C 419.881 0.125322 -1.93795 0
M  V30 4385 O 419.156 1.07658 -1.61987 0
M  V30 4386 C 419.439 -2.21188 -2.84162 0
M  V30 4387 C 419.292 -3.72155 -2.52628 0
M  V30 4388 C 420.611 -2.11545 -3.85923 0
M  V30 4389 H 417.73 -0.472769 -0.565383 0
M  V30 4390 H 420.372 -1.66341 -0.918192 0
M  V30 4391 H 418.522 -1.90139 -3.38791 0
M  V30 4392 H 420.194 -4.13682 -2.04121 0
M  V30 4393 H 418.437 -3.92042 -1.85704 0
M  V30 4394 H 419.108 -4.31511 -3.44242 0
M  V30 4395 H 421.584 -2.38855 -3.40716 0
M  V30 4396 H 420.46 -2.77688 -4.73477 0
M  V30 4397 H 420.721 -1.09987 -4.282 0
M  V30 4398 N 419.78 1.02168 -1.19998 0
M  V30 4399 C 421.191 1.57135 -1.00825 0
M  V30 4400 C 421.542 1.91276 0.436818 0
M  V30 4401 O 420.667 1.71679 1.3174 0
M  V30 4402 C 421.262 2.85514 -1.82393 0
M  V30 4403 C 419.821 3.37027 -1.67601 0
M  V30 4404 C 418.968 2.10388 -1.80644 0
M  V30 4405 H 421.919 0.846106 -1.34264 0
M  V30 4406 H 421.94 3.56711 -1.32429 0
M  V30 4407 H 421.452 2.60634 -2.87561 0
M  V30 4408 H 419.553 3.66878 -0.650485 0
M  V30 4409 H 419.666 4.09572 -2.4857 0
M  V30 4410 H 418.03 2.22601 -1.23778 0
M  V30 4411 H 418.813 1.8794 -2.87286 0
M  V30 4412 N 421.258 1.00505 1.21394 0
M  V30 4413 C 422.506 0.686415 1.90086 0
M  V30 4414 C 422.827 -0.785264 1.7849 0
M  V30 4415 O 422.097 -1.56387 1.17983 0
M  V30 4416 H 420.677 0.2509 0.703604 0
M  V30 4417 H 423.339 1.27417 1.47482 0
M  V30 4418 H 422.435 0.959621 2.96981 0
M  V30 4419 N 422.737 -1.36956 0.779787 0
M  V30 4420 C 423.983 -2.00237 0.357324 0
M  V30 4421 C 424.338 -1.60787 -1.05666 0
M  V30 4422 O 423.631 -0.847836 -1.71821 0
M  V30 4423 C 423.825 -3.54585 0.447686 0
M  V30 4424 C 423.654 -4.09025 1.86891 0
M  V30 4425 C 422.424 -4.39612 2.49138 0
M  V30 4426 C 424.622 -4.29461 2.82963 0
M  V30 4427 N 422.604 -4.79816 3.82949 0
M  V30 4428 C 423.975 -4.72363 4.01588 0
M  V30 4429 C 426.03 -4.1161 2.80145 0
M  V30 4430 C 424.733 -4.99284 5.17791 0
M  V30 4431 C 426.759 -4.39672 3.95528 0
M  V30 4432 C 426.121 -4.82822 5.12896 0
M  V30 4433 H 422.22 -0.76148 0.177968 0
M  V30 4434 H 424.804 -1.6613 1.01533 0
M  V30 4435 H 422.975 -3.87982 -0.180184 0
M  V30 4436 H 424.707 -4.047 0.0023955 0
M  V30 4437 H 421.462 -4.28975 2.00693 0
M  V30 4438 H 421.886 -5.04216 4.51769 0
M  V30 4439 H 426.528 -3.77415 1.90572 0
M  V30 4440 H 424.246 -5.32365 6.07958 0
M  V30 4441 H 427.832 -4.27441 3.94697 0
M  V30 4442 H 426.712 -5.04118 6.00695 0
M  V30 4443 N 424.215 -0.530993 -1.48385 0
M  V30 4444 C 425.631 -0.188919 -1.58478 0
M  V30 4445 C 425.831 1.30786 -1.53288 0
M  V30 4446 O 424.887 2.08619 -1.42248 0
M  V30 4447 C 426.2 -0.792343 -2.90073 0
M  V30 4448 C 427.748 -0.76117 -3.03604 0
M  V30 4449 C 428.223 -1.34319 -4.37861 0
M  V30 4450 N 429.714 -1.3052 -4.44431 0
M  V30 4451 C 430.449 -1.72543 -5.46824 0
M  V30 4452 N 429.945 -2.22299 -6.56167 0
M  V30 4453 N 431.738 -1.63773 -5.37712 0
M  V30 4454 H 423.889 -1.50377 -1.50002 0
M  V30 4455 H 426.152 -0.625559 -0.712306 0
M  V30 4456 H 425.858 -1.84323 -2.99529 0
M  V30 4457 H 425.732 -0.270026 -3.76232 0
M  V30 4458 H 428.119 0.280957 -2.93759 0
M  V30 4459 H 428.2 -1.32097 -2.19053 0
M  V30 4460 H 427.844 -2.38425 -4.4846 0
M  V30 4461 H 427.774 -0.759064 -5.21101 0
M  V30 4462 H 430.265 -0.940973 -3.65997 0
M  V30 4463 H 430.578 -2.52356 -7.30436 0
M  V30 4464 H 428.923 -2.26293 -6.57127 0
M  V30 4465 H 432.114 -1.24698 -4.51185 0
M  V30 4466 H 432.287 -1.96844 -6.17379 0
M  V30 4467 N 425.693 1.55336 -0.266172 0
M  V30 4468 C 426.623 2.25146 0.618981 0
M  V30 4469 C 427.604 1.23845 1.16604 0
M  V30 4470 O 428.789 1.52544 1.20183 0
M  V30 4471 C 425.919 2.96572 1.80728 0
M  V30 4472 C 424.873 4.04726 1.39215 0
M  V30 4473 C 424.199 4.63678 2.66283 0
M  V30 4474 C 425.499 5.19407 0.548942 0
M  V30 4475 H 427.193 2.99377 0.0368116 0
M  V30 4476 H 424.739 1.43991 0.0162651 0
M  V30 4477 H 426.692 3.44116 2.43232 0
M  V30 4478 H 425.416 2.19861 2.41514 0
M  V30 4479 H 424.075 3.57979 0.790351 0
M  V30 4480 H 423.723 3.83646 3.25308 0
M  V30 4481 H 423.423 5.367 2.39222 0
M  V30 4482 H 424.947 5.13967 3.29651 0
M  V30 4483 H 426.361 5.63059 1.07876 0
M  V30 4484 H 424.758 5.98936 0.373593 0
M  V30 4485 H 425.828 4.8295 -0.434394 0
M  V30 4486 N 427.171 -0.0066808 1.57599 0
M  V30 4487 C 428.419 -0.691552 1.899 0
M  V30 4488 C 428.74 -1.74682 0.866672 0
M  V30 4489 O 428.01 -1.95661 -0.0968189 0
M  V30 4490 H 426.59 -0.258416 0.700878 0
M  V30 4491 H 429.252 0.0326655 1.94873 0
M  V30 4492 H 428.348 -1.16702 2.8946 0
M  V30 4493 N 428.649 -1.55105 -0.279332 0
M  V30 4494 C 429.895 -1.76597 -1.00921 0
M  V30 4495 C 430.25 -0.556831 -1.84166 0
M  V30 4496 O 429.543 0.450573 -1.86227 0
M  V30 4497 C 429.737 -3.0086 -1.92919 0
M  V30 4498 C 429.566 -4.33744 -1.18728 0
M  V30 4499 C 428.336 -4.9712 -0.905545 0
M  V30 4500 C 430.534 -5.11009 -0.580857 0
M  V30 4501 N 428.516 -6.13749 -0.136169 0
M  V30 4502 C 429.887 -6.19976 0.0546661 0
M  V30 4503 C 431.942 -4.95502 -0.488067 0
M  V30 4504 C 430.645 -7.15123 0.774028 0
M  V30 4505 C 432.671 -5.90999 0.217688 0
M  V30 4506 C 432.033 -6.9935 0.841975 0
M  V30 4507 H 428.132 -0.698553 -0.351493 0
M  V30 4508 H 430.716 -1.92595 -0.285531 0
M  V30 4509 H 428.887 -2.86249 -2.62519 0
M  V30 4510 H 430.619 -3.10784 -2.59221 0
M  V30 4511 H 427.374 -4.57903 -1.20921 0
M  V30 4512 H 427.798 -6.7659 0.235665 0
M  V30 4513 H 432.44 -4.11841 -0.956406 0
M  V30 4514 H 430.158 -7.9831 1.25407 0
M  V30 4515 H 433.744 -5.81078 0.289717 0
M  V30 4516 H 432.624 -7.71973 1.37939 0
M  V30 4517 N 430.127 0.543554 -1.4793 0
M  V30 4518 C 431.376 1.29649 -1.54512 0
M  V30 4519 C 431.689 1.94382 -0.217973 0
M  V30 4520 O 432.895 2.71017 -0.161908 0
M  V30 4521 C 431.351 2.35175 -2.72435 0
M  V30 4522 C 430.959 1.76572 -4.11736 0
M  V30 4523 C 432.703 3.11564 -2.8832 0
M  V30 4524 C 430.61 2.79958 -5.20939 0
M  V30 4525 H 429.54 0.487541 -0.57517 0
M  V30 4526 H 432.191 0.575708 -1.74235 0
M  V30 4527 H 430.573 3.10229 -2.46118 0
M  V30 4528 H 431.747 1.07799 -4.48013 0
M  V30 4529 H 430.062 1.12722 -4.00852 0
M  V30 4530 H 432.659 3.88794 -3.67074 0
M  V30 4531 H 433.002 3.66594 -1.97268 0
M  V30 4532 H 433.535 2.43623 -3.14472 0
M  V30 4533 H 430.274 2.29766 -6.13912 0
M  V30 4534 H 429.794 3.47101 -4.89164 0
M  V30 4535 H 431.473 3.43198 -5.48474 0
M  V30 4536 N 431.605 1.3629 0.791371 0
M  V30 4537 C 432.535 1.33137 1.91825 0
M  V30 4538 C 433.516 0.203168 1.68882 0
M  V30 4539 O 434.701 0.400509 1.90025 0
M  V30 4540 C 431.831 1.11793 3.28816 0
M  V30 4541 C 430.785 2.21417 3.66277 0
M  V30 4542 C 430.111 1.85218 5.01596 0
M  V30 4543 C 431.411 3.63489 3.75064 0
M  V30 4544 H 433.105 2.2743 1.9472 0
M  V30 4545 H 430.651 1.09479 0.935437 0
M  V30 4546 H 432.604 1.08222 4.07266 0
M  V30 4547 H 431.328 0.139501 3.26302 0
M  V30 4548 H 429.987 2.2411 2.90121 0
M  V30 4549 H 429.635 0.859544 4.95602 0
M  V30 4550 H 429.335 2.58611 5.27631 0
M  V30 4551 H 430.859 1.832 5.82469 0
M  V30 4552 H 432.273 3.63034 4.43711 0
M  V30 4553 H 430.67 4.35771 4.12582 0
M  V30 4554 H 431.74 3.98536 2.76219 0
M  V30 4555 N 433.083 -1.0153 1.20538 0
M  V30 4556 C 434.332 -1.74558 1.01057 0
M  V30 4557 C 434.645 -1.90168 -0.457756 0
M  V30 4558 O 435.851 -2.60301 -0.771722 0
M  V30 4559 C 434.307 -3.13963 1.75941 0
M  V30 4560 C 433.915 -3.06361 3.26875 0
M  V30 4561 C 435.659 -3.91191 1.64832 0
M  V30 4562 C 433.566 -4.40782 3.94291 0
M  V30 4563 H 432.496 -0.654417 0.374505 0
M  V30 4564 H 435.147 -1.13521 1.44171 0
M  V30 4565 H 433.529 -3.75549 1.25614 0
M  V30 4566 H 434.703 -2.54074 3.84425 0
M  V30 4567 H 433.018 -2.42625 3.38411 0
M  V30 4568 H 435.615 -4.90644 2.12539 0
M  V30 4569 H 435.958 -4.11884 0.604745 0
M  V30 4570 H 436.491 -3.36236 2.12579 0
M  V30 4571 H 433.23 -4.25292 4.98805 0
M  V30 4572 H 432.75 -4.9307 3.41529 0
M  V30 4573 H 434.429 -5.09621 3.98617 0
M  V30 4574 N 434.561 -1.01147 -1.20859 0
M  V30 4575 C 435.511 -0.548247 -2.2131 0
M  V30 4576 C 436.495 0.393646 -1.5601 0
M  V30 4577 O 437.687 0.217445 -1.75659 0
M  V30 4578 C 434.816 0.117252 -3.431 0
M  V30 4579 C 433.902 -0.846043 -4.15575 0
M  V30 4580 N 434.293 -2.00149 -4.64515 0
M  V30 4581 C 432.591 -0.665783 -4.41003 0
M  V30 4582 C 433.292 -2.60764 -5.19978 0
M  V30 4583 N 432.268 -1.88868 -5.09735 0
M  V30 4584 H 436.07 -1.42921 -2.56809 0
M  V30 4585 H 433.584 -0.876142 -1.36739 0
M  V30 4586 H 435.581 0.46662 -4.1428 0
M  V30 4587 H 434.241 0.994115 -3.09107 0
M  V30 4588 H 435.252 -2.38162 -4.5989 0
M  V30 4589 H 431.929 0.163456 -4.1718 0
M  V30 4590 H 433.319 -3.58519 -5.68255 0
M  V30 4591 N 436.039 1.36541 -0.78704 0
M  V30 4592 C 437.316 1.9355 -0.282424 0
M  V30 4593 C 437.696 1.71919 1.22503 0
M  V30 4594 O 437.044 1.07677 2.01539 0
M  V30 4595 C 437.254 3.4246 -0.672462 0
M  V30 4596 C 438.602 4.19582 -0.650863 0
M  V30 4597 O 439.626 3.50889 -0.612789 0
M  V30 4598 O 438.485 5.42106 -0.691623 0
M  V30 4599 H 435.579 0.824091 -0.0693 0
M  V30 4600 H 438.125 1.45736 -0.869423 0
M  V30 4601 H 436.897 3.51851 -1.71221 0
M  V30 4602 H 436.52 3.97556 -0.0592211 0
M  V30 4603 N 437.518 0.538854 1.48102 0
M  V30 4604 C 438.934 0.19732 1.58376 0
M  V30 4605 C 439.134 -1.29971 1.5398 0
M  V30 4606 O 438.19 -2.07861 1.43352 0
M  V30 4607 C 439.503 0.807716 2.89649 0
M  V30 4608 C 441.051 0.77726 3.03196 0
M  V30 4609 C 441.526 1.36639 4.37143 0
M  V30 4610 N 443.017 1.32875 4.43732 0
M  V30 4611 C 443.752 1.7544 5.45901 0
M  V30 4612 N 443.248 2.25776 6.54979 0
M  V30 4613 N 445.041 1.66623 5.36836 0
M  V30 4614 H 437.192 1.5117 1.49202 0
M  V30 4615 H 439.455 0.629327 0.708979 0
M  V30 4616 H 439.161 1.85909 2.98548 0
M  V30 4617 H 439.035 0.289975 3.76084 0
M  V30 4618 H 441.422 -0.265374 2.93904 0
M  V30 4619 H 441.503 1.33256 2.18349 0
M  V30 4620 H 441.147 2.408 4.47189 0
M  V30 4621 H 441.077 0.786689 5.20691 0
M  V30 4622 H 443.568 0.96037 3.65493 0
M  V30 4623 H 443.881 2.56226 7.29087 0
M  V30 4624 H 442.226 2.29775 6.55918 0
M  V30 4625 H 445.417 1.27089 4.50517 0
M  V30 4626 H 445.59 2.00115 6.16326 0
M  V30 4627 N 438.996 -1.55193 0.274407 0
M  V30 4628 C 440.412 -1.59401 -0.0797543 0
M  V30 4629 C 440.612 -1.29162 -1.54659 0
M  V30 4630 O 439.668 -1.05215 -2.29534 0
M  V30 4631 C 440.981 -2.99257 0.294238 0
M  V30 4632 C 442.529 -3.12072 0.240796 0
M  V30 4633 C 443.004 -4.54194 0.589218 0
M  V30 4634 N 444.495 -4.60033 0.540744 0
M  V30 4635 C 445.23 -5.68027 0.783147 0
M  V30 4636 N 444.726 -6.8417 1.09013 0
M  V30 4637 N 446.519 -5.57572 0.711993 0
M  V30 4638 H 438.67 -1.73113 1.23067 0
M  V30 4639 H 440.933 -0.807197 0.497129 0
M  V30 4640 H 440.639 -3.26217 1.31435 0
M  V30 4641 H 440.513 -3.75427 -0.365281 0
M  V30 4642 H 442.9 -2.84877 -0.770024 0
M  V30 4643 H 442.981 -2.38117 0.934563 0
M  V30 4644 H 442.625 -4.82115 1.59772 0
M  V30 4645 H 442.555 -5.26448 -0.126331 0
M  V30 4646 H 445.046 -3.76599 0.313327 0
M  V30 4647 H 445.359 -7.6243 1.26178 0
M  V30 4648 H 443.704 -6.85787 1.12789 0
M  V30 4649 H 446.895 -4.65714 0.472014 0
M  V30 4650 H 447.068 -6.41659 0.90429 0
M  V30 4651 N 440.474 -0.00167713 -1.576 0
M  V30 4652 C 441.751 0.719951 -1.81868 0
M  V30 4653 C 442.131 1.91895 -0.879747 0
M  V30 4654 O 441.479 2.28389 0.0711423 0
M  V30 4655 C 441.689 1.12409 -3.30402 0
M  V30 4656 C 443.037 1.52724 -3.96182 0
M  V30 4657 O 444.061 1.21784 -3.34734 0
M  V30 4658 O 442.92 2.10265 -5.04431 0
M  V30 4659 H 440.014 0.350707 -0.748955 0
M  V30 4660 H 442.56 -0.0272597 -1.69678 0
M  V30 4661 H 441.332 0.269532 -3.90371 0
M  V30 4662 H 440.955 1.93035 -3.47596 0
M  V30 4663 N 441.952 1.55251 0.271103 0
M  V30 4664 C 443.201 1.75151 1.00025 0
M  V30 4665 C 443.514 0.561041 1.87381 0
M  V30 4666 O 444.72 0.642506 2.63788 0
M  V30 4667 C 443.176 3.09999 1.82835 0
M  V30 4668 C 442.784 4.3662 1.00336 0
M  V30 4669 C 444.528 3.39249 2.55168 0
M  V30 4670 C 442.435 5.62506 1.82595 0
M  V30 4671 H 441.365 0.652877 0.377183 0
M  V30 4672 H 444.016 1.81708 0.255843 0
M  V30 4673 H 442.398 2.97485 2.61378 0
M  V30 4674 H 443.572 4.60055 0.261959 0
M  V30 4675 H 441.887 4.14527 0.394486 0
M  V30 4676 H 444.484 4.3051 3.1712 0
M  V30 4677 H 444.827 2.59467 3.2555 0
M  V30 4678 H 445.36 3.52869 1.83653 0
M  V30 4679 H 442.099 6.45041 1.16631 0
M  V30 4680 H 441.619 5.43211 2.54327 0
M  V30 4681 H 443.298 6.00875 2.39913 0
M  V30 4682 N 443.43 -0.535701 1.48216 0
M  V30 4683 C 444.677 -1.29183 1.55942 0
M  V30 4684 C 445.005 -1.93125 0.230857 0
M  V30 4685 O 444.26 -1.79556 -0.778331 0
M  V30 4686 C 444.559 -2.4068 2.64212 0
M  V30 4687 C 444.225 -1.94428 4.06827 0
M  V30 4688 C 442.887 -1.81532 4.45645 0
M  V30 4689 C 445.239 -1.59405 4.96225 0
M  V30 4690 C 442.567 -1.31939 5.71672 0
M  V30 4691 C 444.919 -1.11276 6.22736 0
M  V30 4692 C 443.583 -0.969924 6.60416 0
M  V30 4693 H 442.853 -0.472715 0.570632 0
M  V30 4694 H 445.5 -0.598437 1.81909 0
M  V30 4695 H 443.805 -3.15666 2.32083 0
M  V30 4696 H 445.502 -2.98822 2.67407 0
M  V30 4697 H 442.092 -2.05415 3.76168 0
M  V30 4698 H 446.276 -1.68231 4.66917 0
M  V30 4699 H 441.532 -1.19562 5.99596 0
M  V30 4700 H 445.706 -0.832453 6.91407 0
M  V30 4701 H 443.333 -0.583436 7.57958 0
M  V30 4702 N 444.908 -1.36708 -0.784132 0
M  V30 4703 C 446.156 -1.30972 -1.53918 0
M  V30 4704 C 446.477 0.109086 -1.94695 0
M  V30 4705 O 445.747 1.05048 -1.65353 0
M  V30 4706 H 444.327 -0.481819 -0.570841 0
M  V30 4707 H 446.989 -1.71063 -0.934002 0
M  V30 4708 H 446.085 -1.94061 -2.44431 0
M  V30 4709 N 446.386 1.0089 -1.21074 0
M  V30 4710 C 447.334 2.11707 -0.963476 0
M  V30 4711 C 448.328 1.69172 0.0879032 0
M  V30 4712 O 449.534 1.79889 -0.0631415 0
M  V30 4713 H 445.909 0.692026 -0.294287 0
M  V30 4714 H 447.88 2.29743 -1.90422 0
M  V30 4715 C 446.629 3.43473 -0.540509 0
M  V30 4716 H 445.952 3.76634 -1.34114 0
M  V30 4717 H 447.392 4.22044 -0.406777 0
M  V30 4718 C 445.851 3.2849 0.748079 0
M  V30 4719 O 446.381 3.58883 1.8046 0
M  V30 4720 N 444.587 2.81715 0.713081 0
M  V30 4721 H 444.134 2.5718 -0.146973 0
M  V30 4722 H 444.092 2.72071 1.57558 0
M  V30 4723 N 447.864 1.01787 1.20321 0
M  V30 4724 C 448.774 0.598898 2.26827 0
M  V30 4725 C 449.79 -0.36418 1.70146 0
M  V30 4726 O 450.966 -0.224812 2.00141 0
M  V30 4727 C 448.031 -0.0549769 3.46656 0
M  V30 4728 C 447.092 0.954205 4.18561 0
M  V30 4729 C 446.325 0.331439 5.3267 0
M  V30 4730 O 446.548 -0.86851 5.63749 0
M  V30 4731 O 445.482 1.0488 5.92692 0
M  V30 4732 H 449.308 1.48562 2.64883 0
M  V30 4733 H 446.893 0.787434 1.26964 0
M  V30 4734 H 448.775 -0.420102 4.19301 0
M  V30 4735 H 447.45 -0.915876 3.10473 0
M  V30 4736 H 446.357 1.37072 3.48083 0
M  V30 4737 H 447.69 1.78511 4.58688 0
M  V30 4738 N 449.342 -1.36122 0.79427 0
M  V30 4739 C 450.591 -1.98361 0.365464 0
M  V30 4740 C 450.904 -1.6374 -1.06997 0
M  V30 4741 O 452.11 -2.19251 -1.60129 0
M  V30 4742 C 450.566 -3.54821 0.602496 0
M  V30 4743 C 450.174 -3.98362 2.04967 0
M  V30 4744 C 451.918 -4.2383 0.238437 0
M  V30 4745 C 449.825 -5.47619 2.2331 0
M  V30 4746 H 448.755 -0.742193 0.13291 0
M  V30 4747 H 451.406 -1.55354 0.976589 0
M  V30 4748 H 449.788 -3.95922 -0.078409 0
M  V30 4749 H 450.962 -3.68447 2.76737 0
M  V30 4750 H 449.277 -3.42206 2.37243 0
M  V30 4751 H 451.874 -5.33529 0.353705 0
M  V30 4752 H 452.217 -4.08264 -0.814006 0
M  V30 4753 H 452.75 -3.88108 0.872769 0
M  V30 4754 H 449.489 -5.68138 3.26955 0
M  V30 4755 H 449.009 -5.79145 1.5605 0
M  V30 4756 H 450.688 -6.13911 2.0426 0
M  V30 4757 N 450.82 -0.546701 -1.47814 0
M  V30 4758 C 452.236 -0.205717 -1.58269 0
M  V30 4759 C 452.436 1.29153 -1.54667 0
M  V30 4760 O 451.492 2.07098 -1.44453 0
M  V30 4761 C 452.805 -0.823065 -2.89216 0
M  V30 4762 C 454.353 -0.793328 -3.02779 0
M  V30 4763 C 454.828 -1.38955 -4.36412 0
M  V30 4764 N 456.319 -1.35227 -4.43021 0
M  V30 4765 C 457.054 -1.78333 -5.44963 0
M  V30 4766 N 456.55 -2.29246 -6.53772 0
M  V30 4767 N 458.343 -1.69467 -5.35945 0
M  V30 4768 H 450.494 -1.5196 -1.48398 0
M  V30 4769 H 452.757 -0.633078 -0.705632 0
M  V30 4770 H 452.463 -1.8749 -2.97558 0
M  V30 4771 H 452.337 -0.309915 -3.75925 0
M  V30 4772 H 454.724 0.249784 -2.94041 0
M  V30 4773 H 454.805 -1.34412 -2.17639 0
M  V30 4774 H 454.449 -2.43168 -4.45906 0
M  V30 4775 H 454.379 -0.814291 -5.20266 0
M  V30 4776 H 456.87 -0.979739 -3.64979 0
M  V30 4777 H 457.183 -2.60089 -7.27718 0
M  V30 4778 H 455.528 -2.3325 -6.5469 0
M  V30 4779 H 458.719 -1.29477 -4.49837 0
M  V30 4780 H 458.892 -2.03381 -6.15256 0
M  V30 4781 N 452.299 1.55045 -0.282633 0
M  V30 4782 C 453.576 1.9179 0.384166 0
M  V30 4783 C 453.956 1.20778 1.73136 0
M  V30 4784 O 453.304 0.33719 2.25998 0
M  V30 4785 C 453.514 3.45149 0.517014 0
M  V30 4786 C 454.862 4.17064 0.796427 0
M  V30 4787 O 455.886 3.51084 0.601535 0
M  V30 4788 O 454.745 5.33837 1.16962 0
M  V30 4789 H 451.839 0.799483 0.211558 0
M  V30 4790 H 454.385 1.66474 -0.32934 0
M  V30 4791 H 453.157 3.88922 -0.430772 0
M  V30 4792 H 452.78 3.76443 1.2797 0
M  V30 4793 N 453.777 0.010035 1.57597 0
M  V30 4794 C 455.025 -0.671371 1.90623 0
M  V30 4795 C 455.346 -1.73753 0.885151 0
M  V30 4796 O 454.616 -1.95752 -0.0760611 0
M  V30 4797 H 453.196 -0.250968 0.703579 0
M  V30 4798 H 455.858 0.0533325 1.94827 0
M  V30 4799 H 454.954 -1.13626 2.90681 0
M  V30 4800 N 455.255 -1.55392 -0.262866 0
M  V30 4801 C 456.185 -1.91978 -1.32917 0
M  V30 4802 C 457.166 -0.7828 -1.51017 0
M  V30 4803 O 458.351 -1.04178 -1.63892 0
M  V30 4804 C 455.481 -2.20055 -2.68687 0
M  V30 4805 C 454.435 -3.35854 -2.65304 0
M  V30 4806 C 453.761 -3.49435 -4.04721 0
M  V30 4807 C 455.061 -4.71977 -2.23685 0
M  V30 4808 H 456.755 -2.81292 -1.02544 0
M  V30 4809 H 454.301 -1.3534 -0.491846 0
M  V30 4810 H 456.254 -2.44237 -3.43404 0
M  V30 4811 H 454.978 -1.27551 -3.00663 0
M  V30 4812 H 453.637 -3.11655 -1.93045 0
M  V30 4813 H 453.285 -2.54379 -4.33936 0
M  V30 4814 H 452.985 -4.27297 -4.0335 0
M  V30 4815 H 454.509 -3.7592 -4.81161 0
M  V30 4816 H 455.923 -4.95637 -2.88127 0
M  V30 4817 H 454.32 -5.52828 -2.33456 0
M  V30 4818 H 455.39 -4.70115 -1.18827 0
M  V30 4819 N 456.733 0.527833 -1.48498 0
M  V30 4820 C 457.979 1.28545 -1.56857 0
M  V30 4821 C 458.312 1.92678 -0.242651 0
M  V30 4822 O 457.587 1.79394 0.751545 0
M  V30 4823 C 457.87 2.37314 -2.70839 0
M  V30 4824 C 457.723 1.77858 -4.13142 0
M  V30 4825 C 459.042 3.39068 -2.80573 0
M  V30 4826 H 456.161 0.466006 -0.570971 0
M  V30 4827 H 458.803 0.587784 -1.8068 0
M  V30 4828 H 456.953 2.96821 -2.50658 0
M  V30 4829 H 458.625 1.22385 -4.44769 0
M  V30 4830 H 456.868 1.08383 -4.20042 0
M  V30 4831 H 457.539 2.56624 -4.88721 0
M  V30 4832 H 460.015 2.89518 -2.98862 0
M  V30 4833 H 458.891 4.12566 -3.6205 0
M  V30 4834 H 459.152 3.9975 -1.88818 0
M  V30 4835 N 458.211 1.37122 0.776871 0
M  V30 4836 C 459.158 1.3247 1.88998 0
M  V30 4837 C 460.128 0.191143 1.64997 0
M  V30 4838 O 461.313 0.379683 1.86984 0
M  V30 4839 C 458.453 1.13241 3.25992 0
M  V30 4840 C 457.566 2.35782 3.61982 0
M  V30 4841 C 456.701 2.09465 4.88158 0
M  V30 4842 C 455.74 3.279 5.16864 0
M  V30 4843 N 454.877 3.01167 6.34226 0
M  V30 4844 H 459.717 2.27642 1.9231 0
M  V30 4845 H 457.254 1.13125 0.94027 0
M  V30 4846 H 459.212 1.00115 4.0501 0
M  V30 4847 H 457.842 0.217186 3.22069 0
M  V30 4848 H 456.894 2.59666 2.77989 0
M  V30 4849 H 458.206 3.24125 3.79137 0
M  V30 4850 H 457.36 1.93341 5.75069 0
M  V30 4851 H 456.099 1.18452 4.73097 0
M  V30 4852 H 455.104 3.44569 4.2843 0
M  V30 4853 H 456.329 4.19757 5.33836 0
M  V30 4854 H 454.275 2.12779 6.20533 0
M  V30 4855 H 454.192 3.83052 6.51772 0
M  V30 4856 H 455.46 2.88649 7.24087 0
M  V30 4857 N 459.689 -1.00246 1.21608 0
M  V30 4858 C 460.619 -2.10921 1.00172 0
M  V30 4859 C 461.6 -1.69938 -0.0741587 0
M  V30 4860 O 462.785 -1.94009 0.0861753 0
M  V30 4861 C 459.915 -3.42618 0.568355 0
M  V30 4862 C 458.869 -3.97407 1.58909 0
M  V30 4863 C 458.195 -5.25038 1.01187 0
M  V30 4864 C 459.495 -4.2918 2.97661 0
M  V30 4865 H 461.189 -2.29112 1.92739 0
M  V30 4866 H 458.735 -1.10101 0.928102 0
M  V30 4867 H 460.688 -4.19444 0.405555 0
M  V30 4868 H 459.412 -3.24227 -0.392961 0
M  V30 4869 H 458.071 -3.22703 1.73949 0
M  V30 4870 H 457.719 -5.02982 0.0421965 0
M  V30 4871 H 457.419 -5.62661 1.6937 0
M  V30 4872 H 458.943 -6.04507 0.860448 0
M  V30 4873 H 460.357 -4.96839 2.86049 0
M  V30 4874 H 458.754 -4.77952 3.6288 0
M  V30 4875 H 459.824 -3.3735 3.48315 0
M  V30 4876 N 461.167 -1.02423 -1.1978 0
M  V30 4877 C 462.392 -0.7373 -1.93852 0
M  V30 4878 C 462.817 0.696923 -1.74713 0
M  V30 4879 O 462.175 1.48056 -1.04638 0
M  V30 4880 C 462.223 -1.08783 -3.438 0
M  V30 4881 O 461.327 -0.20383 -4.11896 0
M  V30 4882 H 460.668 -0.27284 -0.605355 0
M  V30 4883 H 463.198 -1.36966 -1.51992 0
M  V30 4884 H 463.208 -1.04276 -3.9445 0
M  V30 4885 H 461.883 -2.13274 -3.57053 0
M  V30 4886 H 460.46 -0.307091 -3.71633 0
M  V30 4887 N 462.645 1.35699 -0.801477 0
M  V30 4888 C 463.577 2.28598 -0.166028 0
M  V30 4889 C 464.59 1.50044 0.631721 0
M  V30 4890 O 465.779 1.72339 0.464921 0
M  V30 4891 C 462.879 3.29625 0.787451 0
M  V30 4892 C 462.052 4.37384 0.037171 0
M  V30 4893 C 461.111 5.183 0.908375 0
M  V30 4894 O 460.137 5.68053 0.361189 0
M  V30 4895 N 461.339 5.35912 2.23112 0
M  V30 4896 H 464.104 2.83771 -0.964071 0
M  V30 4897 H 461.665 1.47994 -0.656469 0
M  V30 4898 H 463.657 3.80648 1.37439 0
M  V30 4899 H 462.227 2.75004 1.48632 0
M  V30 4900 H 461.447 3.87364 -0.730935 0
M  V30 4901 H 462.735 5.0653 -0.480109 0
M  V30 4902 H 462.133 4.97125 2.69968 0
M  V30 4903 H 460.69 5.90133 2.76741 0
M  V30 4904 N 464.123 0.554532 1.47522 0
M  V30 4905 C 465.539 0.214107 1.58157 0
M  V30 4906 C 465.739 -1.28331 1.55349 0
M  V30 4907 O 464.795 -2.06329 1.45549 0
M  V30 4908 C 466.108 0.838391 2.88776 0
M  V30 4909 C 467.656 0.809374 3.02354 0
M  V30 4910 C 468.131 1.41268 4.35669 0
M  V30 4911 N 469.622 1.37574 4.42298 0
M  V30 4912 C 470.357 1.8122 5.4401 0
M  V30 4913 N 469.853 2.3271 6.52547 0
M  V30 4914 N 471.646 1.72307 5.35039 0
M  V30 4915 H 463.797 1.52744 1.4759 0
M  V30 4916 H 466.06 0.636812 0.702264 0
M  V30 4917 H 465.766 1.89065 2.96559 0
M  V30 4918 H 465.64 0.329847 3.75755 0
M  V30 4919 H 468.027 -0.234187 2.94169 0
M  V30 4920 H 468.108 1.35565 2.16924 0
M  V30 4921 H 467.752 2.45529 4.4461 0
M  V30 4922 H 467.682 0.841871 5.19827 0
M  V30 4923 H 470.173 0.999081 3.64454 0
M  V30 4924 H 470.486 2.63944 7.26329 0
M  V30 4925 H 468.831 2.36719 6.53444 0
M  V30 4926 H 472.022 1.3186 4.49144 0
M  V30 4927 H 472.195 2.06641 6.14169 0
M  V30 4928 N 465.601 -1.54893 0.290851 0
M  V30 4929 C 466.85 -1.99111 -0.322113 0
M  V30 4930 C 467.163 -1.18283 -1.55784 0
M  V30 4931 O 468.369 -1.5272 -2.24475 0
M  V30 4932 C 466.825 -3.54442 -0.624438 0
M  V30 4933 C 466.433 -4.44066 0.592373 0
M  V30 4934 C 468.177 -4.07211 -1.19916 0
M  V30 4935 C 466.084 -5.90812 0.263762 0
M  V30 4936 H 465.014 -0.743712 -0.124133 0
M  V30 4937 H 467.665 -1.79132 0.39797 0
M  V30 4938 H 466.047 -3.70281 -1.40384 0
M  V30 4939 H 467.221 -4.39999 1.36886 0
M  V30 4940 H 465.536 -4.02015 1.08502 0
M  V30 4941 H 468.133 -5.14407 -1.45909 0
M  V30 4942 H 468.476 -3.57196 -2.13815 0
M  V30 4943 H 469.009 -3.94873 -0.481687 0
M  V30 4944 H 465.748 -6.44955 1.17105 0
M  V30 4945 H 465.268 -5.97911 -0.475655 0
M  V30 4946 H 466.947 -6.46852 -0.138354 0
M  V30 4947 N 467.08 -0.0183926 -1.57589 0
M  V30 4948 C 468.01 0.965596 -2.12599 0
M  V30 4949 C 468.991 1.34641 -1.0395 0
M  V30 4950 O 470.176 1.42693 -1.31729 0
M  V30 4951 C 467.306 2.25149 -2.64434 0
M  V30 4952 C 466.26 2.01175 -3.77773 0
M  V30 4953 C 465.586 3.35937 -4.15994 0
M  V30 4954 C 466.886 1.35953 -5.04296 0
M  V30 4955 H 468.58 0.507504 -2.95067 0
M  V30 4956 H 466.126 0.242671 -1.41941 0
M  V30 4957 H 468.079 2.94357 -3.01549 0
M  V30 4958 H 466.803 2.73105 -1.79112 0
M  V30 4959 H 465.462 1.34388 -3.4108 0
M  V30 4960 H 465.11 3.81631 -3.27669 0
M  V30 4961 H 464.81 3.20705 -4.92364 0
M  V30 4962 H 466.334 4.0643 -4.55683 0
M  V30 4963 H 467.748 1.95144 -5.39065 0
M  V30 4964 H 466.145 1.31152 -5.85593 0
M  V30 4965 H 467.215 0.331071 -4.83768 0
M  V30 4966 N 468.558 1.5553 0.254621 0
M  V30 4967 C 469.806 1.7665 0.981793 0
M  V30 4968 C 470.127 0.580963 1.86145 0
M  V30 4969 O 469.397 -0.403537 1.91699 0
M  V30 4970 H 467.977 0.651475 0.365498 0
M  V30 4971 H 470.639 1.92958 0.274426 0
M  V30 4972 H 469.735 2.67486 1.60802 0
M  V30 4973 N 470.036 -0.519951 1.48776 0
M  V30 4974 C 471.447 -1.10177 1.50725 0
M  V30 4975 C 471.798 -1.94153 0.282678 0
M  V30 4976 O 470.923 -2.07645 -0.609298 0
M  V30 4977 C 471.518 -2.00482 2.73116 0
M  V30 4978 C 470.077 -2.53862 2.77905 0
M  V30 4979 C 469.224 -1.31047 2.44381 0
M  V30 4980 H 472.175 -0.30473 1.55747 0
M  V30 4981 H 472.196 -2.8491 2.52203 0
M  V30 4982 H 471.708 -1.39335 3.62225 0
M  V30 4983 H 469.809 -3.18702 1.93029 0
M  V30 4984 H 469.922 -2.9231 3.79594 0
M  V30 4985 H 468.286 -1.62953 1.95751 0
M  V30 4986 H 469.069 -0.71637 3.35743 0
M  V30 4987 N 471.514 -1.37532 -0.769588 0
M  V30 4988 C 472.754 -1.34261 -1.54122 0
M  V30 4989 C 473.118 0.0717222 -1.91866 0
M  V30 4990 O 474.319 0.22918 -2.67821 0
M  V30 4991 C 472.59 -2.2574 -2.77086 0
M  V30 4992 S 474.149 -2.40339 -3.67127 0
M  V30 4993 H 470.967 -0.476595 -0.527615 0
M  V30 4994 H 473.569 -1.73303 -0.90479 0
M  V30 4995 H 472.273 -3.27417 -2.4744 0
M  V30 4996 H 471.804 -1.87789 -3.45686 0
M  V30 4997 H 473.819 -1.61558 -4.69163 0
M  V30 4998 N 472.992 0.995999 -1.22138 0
M  V30 4999 C 474.22 1.77066 -1.07029 0
M  V30 5000 C 474.635 1.8495 0.379357 0
M  V30 5001 O 473.992 1.3174 1.26297 0
M  V30 5002 C 474.043 3.20533 -1.67155 0
M  V30 5003 O 473.764 3.13082 -3.06449 0
M  V30 5004 C 475.265 4.14461 -1.5728 0
M  V30 5005 H 472.485 0.556179 -0.375374 0
M  V30 5006 H 475.029 1.25238 -1.61666 0
M  V30 5007 H 473.184 3.6944 -1.16589 0
M  V30 5008 H 473.598 4.03283 -3.35355 0
M  V30 5009 H 475.072 5.1289 -2.04078 0
M  V30 5010 H 475.549 4.36005 -0.528795 0
M  V30 5011 H 476.155 3.71449 -2.07136 0
M  V30 5012 N 474.47 1.03057 1.19235 0
M  V30 5013 C 475.719 0.72326 1.88287 0
M  V30 5014 C 476.032 -0.751333 1.80594 0
M  V30 5015 O 477.238 -1.17176 2.44912 0
M  V30 5016 C 475.694 1.24338 3.3774 0
M  V30 5017 C 475.302 2.74587 3.53986 0
M  V30 5018 C 477.046 1.01213 4.12257 0
M  V30 5019 C 474.953 3.20009 4.97341 0
M  V30 5020 H 473.883 0.266848 0.705201 0
M  V30 5021 H 476.534 1.24509 1.34795 0
M  V30 5022 H 474.916 0.649457 3.90638 0
M  V30 5023 H 476.09 3.39649 3.11408 0
M  V30 5024 H 474.405 2.9601 2.9286 0
M  V30 5025 H 477.002 1.32675 5.17978 0
M  V30 5026 H 477.345 -0.051001 4.16269 0
M  V30 5027 H 477.878 1.57014 3.65501 0
M  V30 5028 H 474.617 4.25659 4.98493 0
M  V30 5029 H 474.137 2.59676 5.40674 0
M  V30 5030 H 475.816 3.13447 5.66003 0
M  V30 5031 N 475.948 -1.35272 0.808662 0
M  V30 5032 C 477.194 -1.99003 0.390581 0
M  V30 5033 C 477.527 -1.63999 -1.0401 0
M  V30 5034 O 476.802 -0.904368 -1.72196 0
M  V30 5035 C 477.085 -3.55454 0.576566 0
M  V30 5036 C 476.938 -4.00249 2.05233 0
M  V30 5037 C 478.257 -4.401 0.00354277 0
M  V30 5038 H 475.376 -0.722917 0.143388 0
M  V30 5039 H 478.018 -1.6039 1.01858 0
M  V30 5040 H 476.168 -3.88477 0.0419766 0
M  V30 5041 H 477.84 -3.77626 2.64946 0
M  V30 5042 H 476.083 -3.51082 2.54801 0
M  V30 5043 H 476.754 -5.0911 2.13333 0
M  V30 5044 H 479.23 -4.13548 0.460117 0
M  V30 5045 H 478.106 -5.48656 0.163575 0
M  V30 5046 H 478.367 -4.28444 -1.09032 0
M  V30 5047 N 477.426 -0.562348 -1.47226 0
M  V30 5048 C 478.358 0.220011 -2.28142 0
M  V30 5049 C 479.371 0.874596 -1.37312 0
M  V30 5050 O 480.56 0.747583 -1.62091 0
M  V30 5051 C 477.66 1.32953 -3.11732 0
M  V30 5052 C 476.833 0.770759 -4.30556 0
M  V30 5053 C 475.892 1.76541 -4.95701 0
M  V30 5054 O 474.918 1.3095 -5.53932 0
M  V30 5055 N 476.12 3.09896 -4.90861 0
M  V30 5056 H 478.885 -0.474107 -2.95926 0
M  V30 5057 H 476.446 -0.398761 -1.56912 0
M  V30 5058 H 478.438 1.99378 -3.5218 0
M  V30 5059 H 477.008 1.92681 -2.46156 0
M  V30 5060 H 476.228 -0.0704056 -3.94137 0
M  V30 5061 H 477.516 0.376872 -5.07402 0
M  V30 5062 H 476.914 3.49577 -4.44761 0
M  V30 5063 H 475.471 3.71865 -5.35313 0
M  V30 5064 N 478.904 1.54736 -0.299062 0
M  V30 5065 C 480.152 1.99706 0.31017 0
M  V30 5066 C 480.473 1.18896 1.54559 0
M  V30 5067 O 479.743 0.284445 1.93824 0
M  V30 5068 H 478.323 0.737686 0.117596 0
M  V30 5069 H 480.985 1.9054 -0.409943 0
M  V30 5070 H 480.081 3.06596 0.58355 0
M  V30 5071 N 480.382 0.0267497 1.57577 0
M  V30 5072 C 481.345 -0.940916 2.08996 0
M  V30 5073 C 482.345 -1.25561 1.00455 0
M  V30 5074 O 483.535 -1.19634 1.26623 0
M  V30 5075 C 480.667 -2.25814 2.55384 0
M  V30 5076 H 481.86 -0.495628 2.95776 0
M  V30 5077 H 479.413 -0.221241 1.54726 0
M  V30 5078 H 480.148 -2.74976 1.71926 0
M  V30 5079 H 479.933 -2.04285 3.34679 0
M  V30 5080 H 481.423 -2.95178 2.95398 0
M  V30 5081 N 481.861 -1.55662 -0.24637 0
M  V30 5082 C 482.791 -1.93377 -1.30873 0
M  V30 5083 C 483.772 -0.798773 -1.50179 0
M  V30 5084 O 484.957 -1.0591 -1.62778 0
M  V30 5085 C 482.087 -2.22893 -2.66338 0
M  V30 5086 C 481.041 -3.38649 -2.61727 0
M  V30 5087 C 480.367 -3.53708 -4.00992 0
M  V30 5088 C 481.667 -4.74323 -2.18666 0
M  V30 5089 H 483.361 -2.82363 -0.995552 0
M  V30 5090 H 480.907 -1.35854 -0.477464 0
M  V30 5091 H 482.86 -2.47866 -3.40794 0
M  V30 5092 H 481.584 -1.30733 -2.99293 0
M  V30 5093 H 480.243 -3.13685 -1.89729 0
M  V30 5094 H 479.891 -2.58967 -4.31214 0
M  V30 5095 H 479.591 -4.31551 -3.98795 0
M  V30 5096 H 481.115 -3.81003 -4.77147 0
M  V30 5097 H 482.529 -4.98665 -2.82854 0
M  V30 5098 H 480.926 -5.55273 -2.27579 0
M  V30 5099 H 481.996 -4.71349 -1.13834 0
M  V30 5100 N 483.339 0.512053 -1.4905 0
M  V30 5101 C 484.286 1.6148 -1.64902 0
M  V30 5102 C 485.256 1.58687 -0.490673 0
M  V30 5103 O 486.441 1.76842 -0.71636 0
M  V30 5104 C 483.581 2.99676 -1.71139 0
M  V30 5105 C 482.694 3.12568 -2.98203 0
M  V30 5106 C 481.829 4.4143 -2.95487 0
M  V30 5107 C 480.868 4.47916 -4.17179 0
M  V30 5108 N 480.005 5.68191 -4.12437 0
M  V30 5109 H 484.845 1.47271 -2.59066 0
M  V30 5110 H 482.382 0.716713 -1.28459 0
M  V30 5111 H 484.34 3.79761 -1.72736 0
M  V30 5112 H 482.97 3.12614 -0.804508 0
M  V30 5113 H 482.022 2.25618 -3.06269 0
M  V30 5114 H 483.334 3.1322 -3.88194 0
M  V30 5115 H 482.488 5.29825 -2.95585 0
M  V30 5116 H 481.227 4.43326 -2.03256 0
M  V30 5117 H 480.232 3.57925 -4.17337 0
M  V30 5118 H 481.457 4.47744 -5.1059 0
M  V30 5119 H 479.403 5.7095 -3.23036 0
M  V30 5120 H 479.32 5.70413 -4.96151 0
M  V30 5121 H 480.588 6.58823 -4.16621 0
M  V30 5122 N 484.817 1.37938 0.762283 0
M  V30 5123 C 486.042 1.37059 1.55659 0
M  V30 5124 C 486.467 -0.0396123 1.88058 0
M  V30 5125 O 485.825 -1.01929 1.49934 0
M  V30 5126 C 485.873 2.22494 2.83776 0
M  V30 5127 O 484.977 1.63607 3.78559 0
M  V30 5128 H 484.318 0.467892 0.47114 0
M  V30 5129 H 486.848 1.81587 0.942725 0
M  V30 5130 H 486.858 2.36045 3.32786 0
M  V30 5131 H 485.533 3.24993 2.59524 0
M  V30 5132 H 484.11 1.5915 3.37233 0
M  V30 5133 N 486.295 -0.989507 1.22664 0
M  V30 5134 C 487.544 -1.72375 1.04737 0
M  V30 5135 C 487.857 -1.91096 -0.417316 0
M  V30 5136 O 489.063 -2.6188 -0.716334 0
M  V30 5137 C 487.519 -3.10161 1.82561 0
M  V30 5138 C 487.127 -2.99358 3.333 0
M  V30 5139 C 488.871 -3.87607 1.73093 0
M  V30 5140 C 486.778 -4.32319 4.03552 0
M  V30 5141 H 485.708 -0.646326 0.388302 0
M  V30 5142 H 488.359 -1.10437 1.46546 0
M  V30 5143 H 486.741 -3.728 1.33552 0
M  V30 5144 H 487.915 -2.45863 3.89728 0
M  V30 5145 H 486.23 -2.35392 3.43481 0
M  V30 5146 H 488.827 -4.86025 2.22899 0
M  V30 5147 H 489.17 -4.10509 0.691976 0
M  V30 5148 H 489.703 -3.31652 2.19663 0
M  V30 5149 H 486.442 -4.14616 5.07714 0
M  V30 5150 H 485.962 -4.85714 3.51911 0
M  V30 5151 H 487.641 -5.01051 4.09337 0
M  V30 5152 N 487.773 -1.03688 -1.18687 0
M  V30 5153 C 488.703 -0.645407 -2.24403 0
M  V30 5154 C 489.684 0.349511 -1.66471 0
M  V30 5155 O 490.869 0.230453 -1.92828 0
M  V30 5156 C 487.999 -0.00365337 -3.473 0
M  V30 5157 C 486.953 -0.921705 -4.17958 0
M  V30 5158 C 486.279 -0.144629 -5.34504 0
M  V30 5159 C 487.579 -2.23909 -4.71871 0
M  V30 5160 H 489.273 -1.52917 -2.57404 0
M  V30 5161 H 486.819 -0.736711 -1.23728 0
M  V30 5162 H 488.772 0.281908 -4.20456 0
M  V30 5163 H 487.496 0.914963 -3.13522 0
M  V30 5164 H 486.155 -1.19159 -3.46694 0
M  V30 5165 H 485.803 0.776274 -4.96974 0
M  V30 5166 H 485.503 -0.756206 -5.82714 0
M  V30 5167 H 487.027 0.134004 -6.10453 0
M  V30 5168 H 488.441 -2.0145 -5.36741 0
M  V30 5169 H 486.838 -2.8033 -5.30599 0
M  V30 5170 H 487.908 -2.88822 -3.895 0
M  V30 5171 N 489.251 1.34841 -0.815825 0
M  V30 5172 C 490.491 2.00321 -0.406297 0
M  V30 5173 C 490.855 1.63293 1.00992 0
M  V30 5174 O 492.056 2.21563 1.52195 0
M  V30 5175 C 490.327 3.52421 -0.594469 0
M  V30 5176 S 491.886 4.37926 -0.276735 0
M  V30 5177 H 488.704 0.694155 -0.153848 0
M  V30 5178 H 491.306 1.64263 -1.06009 0
M  V30 5179 H 490.01 3.76858 -1.625 0
M  V30 5180 H 489.541 3.9333 0.0743157 0
M  V30 5181 H 491.556 4.87743 0.912215 0
M  V30 5182 N 490.729 0.570148 1.46925 0
M  V30 5183 C 492.145 0.23087 1.57921 0
M  V30 5184 C 492.345 -1.26676 1.56702 0
M  V30 5185 O 491.401 -2.04774 1.47729 0
M  V30 5186 C 492.714 0.868973 2.8787 0
M  V30 5187 C 494.262 0.841397 3.01479 0
M  V30 5188 C 494.737 1.45881 4.34146 0
M  V30 5189 N 496.228 1.42258 4.40814 0
M  V30 5190 C 496.963 1.8698 5.42057 0
M  V30 5191 N 496.459 2.39618 6.50042 0
M  V30 5192 N 498.252 1.77972 5.33181 0
M  V30 5193 H 490.403 1.54301 1.45962 0
M  V30 5194 H 492.666 0.644224 0.69547 0
M  V30 5195 H 492.372 1.922 2.94537 0
M  V30 5196 H 492.246 0.369682 3.75384 0
M  V30 5197 H 494.633 -0.202973 2.94401 0
M  V30 5198 H 494.714 1.37858 2.15474 0
M  V30 5199 H 494.358 2.50231 4.4198 0
M  V30 5200 H 494.288 0.896958 5.18905 0
M  V30 5201 H 496.779 1.03768 3.63374 0
M  V30 5202 H 497.092 2.71633 7.23488 0
M  V30 5203 H 495.437 2.43636 6.50897 0
M  V30 5204 H 498.628 1.36617 4.4772 0
M  V30 5205 H 498.801 2.13143 6.11943 0
M  V30 5206 N 492.207 -1.54576 0.307264 0
M  V30 5207 C 493.435 -2.04675 -0.302597 0
M  V30 5208 C 493.85 -1.18425 -1.47041 0
M  V30 5209 O 493.207 -0.211257 -1.81273 0
M  V30 5210 C 493.258 -3.53575 -0.752801 0
M  V30 5211 O 492.979 -4.36547 0.368536 0
M  V30 5212 C 494.48 -4.19699 -1.42717 0
M  V30 5213 H 491.7 -0.66786 -0.0648374 0
M  V30 5214 H 494.244 -1.99516 0.448716 0
M  V30 5215 H 492.399 -3.59074 -1.45412 0
M  V30 5216 H 492.813 -5.24497 0.0168937 0
M  V30 5217 H 494.287 -5.25388 -1.69327 0
M  V30 5218 H 494.764 -3.69815 -2.36925 0
M  V30 5219 H 495.37 -4.18293 -0.768856 0
M  V30 5220 N 493.685 -0.035106 -1.57561 0
M  V30 5221 C 495.096 0.502885 -1.798 0
M  V30 5222 C 495.447 1.71892 -0.945921 0
M  V30 5223 O 494.572 2.15822 -0.157991 0
M  V30 5224 C 495.167 0.919097 -3.26095 0
M  V30 5225 C 493.726 1.40216 -3.49308 0
M  V30 5226 C 492.873 0.369709 -2.74824 0
M  V30 5227 H 495.824 -0.261102 -1.56537 0
M  V30 5228 H 495.845 1.78308 -3.36135 0
M  V30 5229 H 495.357 0.0338526 -3.88085 0
M  V30 5230 H 493.458 2.30714 -2.92578 0
M  V30 5231 H 493.571 1.40541 -4.58023 0
M  V30 5232 H 491.935 0.839113 -2.40481 0
M  V30 5233 H 492.718 -0.507173 -3.39533 0
M  V30 5234 N 495.163 1.55791 0.238111 0
M  V30 5235 C 496.411 1.77681 0.963001 0
M  V30 5236 C 496.732 0.600674 1.85518 0
M  V30 5237 O 496.002 -0.383182 1.92116 0
M  V30 5238 H 494.582 0.655315 0.358568 0
M  V30 5239 H 497.244 1.93239 0.253945 0
M  V30 5240 H 496.34 2.69177 1.57956 0
M  V30 5241 N 496.642 -0.504142 1.49319 0
M  V30 5242 C 497.552 -1.63248 1.68486 0
M  V30 5243 C 498.568 -1.64488 0.567432 0
M  V30 5244 O 499.744 -1.82966 0.841749 0
M  V30 5245 C 496.809 -2.99627 1.74426 0
M  V30 5246 C 495.87 -3.09039 2.97982 0
M  V30 5247 C 495.103 -4.38913 3.0363 0
M  V30 5248 O 495.326 -5.27528 2.16958 0
M  V30 5249 O 494.26 -4.53231 3.96062 0
M  V30 5250 H 498.086 -1.50008 2.64067 0
M  V30 5251 H 495.671 -0.680086 1.33023 0
M  V30 5252 H 497.553 -3.80689 1.80705 0
M  V30 5253 H 496.228 -3.13136 0.820233 0
M  V30 5254 H 495.135 -2.27177 2.97223 0
M  V30 5255 H 496.468 -3.00456 3.89855 0
M  V30 5256 N 498.12 -1.38341 -0.754957 0
M  V30 5257 C 499.367 -1.34473 -1.51404 0
M  V30 5258 C 499.695 0.0656458 -1.94389 0
M  V30 5259 O 498.95 1.04244 -1.65625 0
M  V30 5260 C 499.249 -2.2452 -2.78075 0
M  V30 5261 C 498.915 -3.72512 -2.54059 0
M  V30 5262 C 497.577 -4.1284 -2.47218 0
M  V30 5263 C 499.929 -4.66197 -2.33044 0
M  V30 5264 C 497.257 -5.44945 -2.17376 0
M  V30 5265 C 499.609 -5.98558 -2.04723 0
M  V30 5266 C 498.273 -6.37972 -1.96337 0
M  V30 5267 H 497.543 -0.492072 -0.554027 0
M  V30 5268 H 500.19 -1.70687 -0.868223 0
M  V30 5269 H 498.495 -1.81357 -3.473 0
M  V30 5270 H 500.192 -2.18832 -3.36026 0
M  V30 5271 H 496.782 -3.40538 -2.60253 0
M  V30 5272 H 500.966 -4.35888 -2.37309 0
M  V30 5273 H 496.222 -5.74426 -2.09391 0
M  V30 5274 H 500.396 -6.70693 -1.87465 0
M  V30 5275 H 498.023 -7.40258 -1.72978 0
M  V30 5276 N 499.598 0.982988 -1.23187 0
M  V30 5277 C 500.828 1.75666 -1.08743 0
M  V30 5278 C 501.236 1.85662 0.364195 0
M  V30 5279 O 500.579 1.33317 1.26382 0
M  V30 5280 C 500.641 3.20144 -1.63549 0
M  V30 5281 C 500.305 3.33665 -3.12277 0
M  V30 5282 C 501.302 3.20194 -4.096 0
M  V30 5283 C 498.987 3.58397 -3.51933 0
M  V30 5284 C 500.981 3.31256 -5.44563 0
M  V30 5285 C 498.668 3.69098 -4.87042 0
M  V30 5286 C 499.666 3.55537 -5.83166 0
M  V30 5287 O 499.354 3.65864 -7.1582 0
M  V30 5288 H 499.086 0.558194 -0.381307 0
M  V30 5289 H 501.64 1.24387 -1.63454 0
M  V30 5290 H 499.87 3.72659 -1.03256 0
M  V30 5291 H 501.559 3.79262 -1.4462 0
M  V30 5292 H 502.325 3.00987 -3.80305 0
M  V30 5293 H 498.204 3.68025 -2.77631 0
M  V30 5294 H 501.748 3.20588 -6.19572 0
M  V30 5295 H 497.645 3.87814 -5.16014 0
M  V30 5296 H 498.413 3.82675 -7.23534 0
M  V30 5297 N 501.076 1.04316 1.18135 0
M  V30 5298 C 502.026 0.606731 2.19779 0
M  V30 5299 C 503.01 -0.352144 1.56999 0
M  V30 5300 O 504.202 -0.170795 1.76174 0
M  V30 5301 C 501.331 -0.0262443 3.4329 0
M  V30 5302 C 500.417 0.955928 4.13186 0
M  V30 5303 N 500.808 2.12395 4.59045 0
M  V30 5304 C 499.106 0.782473 4.39082 0
M  V30 5305 C 499.807 2.74458 5.12882 0
M  V30 5306 N 498.783 2.02316 5.04548 0
M  V30 5307 H 502.585 1.49679 2.5293 0
M  V30 5308 H 500.099 0.912088 1.34368 0
M  V30 5309 H 502.096 -0.356617 4.15372 0
M  V30 5310 H 500.756 -0.911811 3.11635 0
M  V30 5311 H 501.767 2.50272 4.53414 0
M  V30 5312 H 498.444 -0.0527906 4.17467 0
M  V30 5313 H 499.834 3.73459 5.5855 0
M  V30 5314 N 502.554 -1.34406 0.822964 0
M  V30 5315 C 503.502 -2.31428 0.233165 0
M  V30 5316 C 504.496 -1.57404 -0.626118 0
M  V30 5317 O 505.702 -1.72402 -0.517453 0
M  V30 5318 H 502.077 -0.749863 0.0566557 0
M  V30 5319 H 504.048 -2.78699 1.06628 0
M  V30 5320 C 502.797 -3.42653 -0.590264 0
M  V30 5321 H 502.12 -3.99753 0.0616129 0
M  V30 5322 H 503.56 -4.12778 -0.969054 0
M  V30 5323 C 502.019 -2.87112 -1.76262 0
M  V30 5324 O 502.549 -2.81995 -2.8608 0
M  V30 5325 N 500.755 -2.43934 -1.57938 0
M  V30 5326 H 500.302 -2.48296 -0.686078 0
M  V30 5327 H 500.26 -2.07123 -2.36532 0
M  V30 5328 N 504.032 -0.577932 -1.46621 0
M  V30 5329 C 505.26 -0.0671642 -2.06791 0
M  V30 5330 C 505.675 1.23571 -1.42743 0
M  V30 5331 O 505.032 1.74602 -0.531062 0
M  V30 5332 C 505.083 0.110357 -3.61332 0
M  V30 5333 O 504.804 -1.14095 -4.22982 0
M  V30 5334 C 506.305 0.656025 -4.38419 0
M  V30 5335 H 503.525 -0.0552732 -0.66872 0
M  V30 5336 H 506.069 -0.797242 -1.8832 0
M  V30 5337 H 504.224 0.790637 -3.79246 0
M  V30 5338 H 504.638 -0.951742 -5.15793 0
M  V30 5339 H 506.112 0.729438 -5.47159 0
M  V30 5340 H 506.589 1.67195 -4.06131 0
M  V30 5341 H 507.195 0.0107692 -4.25299 0
M  V30 5342 N 505.51 1.54411 -0.315457 0
M  V30 5343 C 506.44 2.27002 0.547039 0
M  V30 5344 C 507.421 1.27492 1.12605 0
M  V30 5345 O 508.606 1.5629 1.15269 0
M  V30 5346 C 505.736 3.02171 1.71201 0
M  V30 5347 C 504.69 4.0895 1.26268 0
M  V30 5348 C 504.016 4.71915 2.51396 0
M  V30 5349 C 505.316 5.20891 0.383419 0
M  V30 5350 H 507.01 2.99343 -0.0584517 0
M  V30 5351 H 504.556 1.4397 -0.0295527 0
M  V30 5352 H 506.509 3.51681 2.32161 0
M  V30 5353 H 505.233 2.27433 2.34397 0
M  V30 5354 H 503.892 3.60312 0.676062 0
M  V30 5355 H 503.54 3.93801 3.12937 0
M  V30 5356 H 503.24 5.44039 2.22026 0
M  V30 5357 H 504.764 5.24195 3.13133 0
M  V30 5358 H 506.178 5.66206 0.899082 0
M  V30 5359 H 504.575 5.99821 0.182857 0
M  V30 5360 H 505.645 4.81324 -0.587821 0
M  V30 5361 N 506.988 0.0434614 1.5754 0
M  V30 5362 C 508.213 -0.645358 1.97104 0
M  V30 5363 C 508.638 -1.64037 0.920521 0
M  V30 5364 O 507.996 -1.80922 -0.11708 0
M  V30 5365 C 508.044 -1.31547 3.35749 0
M  V30 5366 O 507.148 -2.43103 3.33129 0
M  V30 5367 H 506.489 -0.168403 0.64229 0
M  V30 5368 H 509.019 0.109573 2.04306 0
M  V30 5369 H 509.029 -1.66895 3.72304 0
M  V30 5370 H 507.704 -0.586205 4.11748 0
M  V30 5371 H 506.281 -2.0976 3.0831 0
M  V30 5372 N 508.466 -1.55915 -0.229846 0
M  V30 5373 C 509.713 -1.78542 -0.955452 0
M  V30 5374 C 510.041 -0.610785 -1.84661 0
M  V30 5375 O 509.296 0.405213 -1.91459 0
M  V30 5376 C 509.595 -3.06845 -1.8325 0
M  V30 5377 C 509.261 -4.37395 -1.09528 0
M  V30 5378 C 507.923 -4.72868 -0.891598 0
M  V30 5379 C 510.275 -5.18029 -0.574046 0
M  V30 5380 C 507.603 -5.86496 -0.154655 0
M  V30 5381 C 509.955 -6.32423 0.149513 0
M  V30 5382 C 508.619 -6.66504 0.364519 0
M  V30 5383 H 507.889 -0.653333 -0.349625 0
M  V30 5384 H 510.536 -1.90183 -0.224235 0
M  V30 5385 H 508.841 -2.90291 -2.63132 0
M  V30 5386 H 510.538 -3.21553 -2.39592 0
M  V30 5387 H 507.128 -4.09538 -1.26399 0
M  V30 5388 H 511.312 -4.91066 -0.718899 0
M  V30 5389 H 506.568 -6.11396 0.0222356 0
M  V30 5390 H 510.742 -6.94137 0.560947 0
M  V30 5391 H 508.369 -7.54397 0.937495 0
M  V30 5392 N 509.944 0.496216 -1.49584 0
M  V30 5393 C 510.874 1.60576 -1.69521 0
M  V30 5394 C 511.855 1.61169 -0.543933 0
M  V30 5395 O 513.04 1.77834 -0.78031 0
M  V30 5396 C 510.17 2.99038 -1.76616 0
M  V30 5397 C 509.124 3.13312 -2.91581 0
M  V30 5398 C 508.45 4.53172 -2.83794 0
M  V30 5399 C 509.75 2.92886 -4.32452 0
M  V30 5400 H 511.444 1.44146 -2.62416 0
M  V30 5401 H 508.99 0.692024 -1.26282 0
M  V30 5402 H 510.943 3.76564 -1.8915 0
M  V30 5403 H 509.667 3.16568 -0.80324 0
M  V30 5404 H 508.326 2.38213 -2.78658 0
M  V30 5405 H 507.974 4.67585 -1.854 0
M  V30 5406 H 507.674 4.63662 -3.60958 0
M  V30 5407 H 509.198 5.32752 -2.98342 0
M  V30 5408 H 510.612 3.60178 -4.46032 0
M  V30 5409 H 509.009 3.14844 -5.10875 0
M  V30 5410 H 510.079 1.88966 -4.46565 0
M  V30 5411 N 511.423 1.38739 0.74761 0
M  V30 5412 C 512.37 1.36449 1.86146 0
M  V30 5413 C 513.34 0.226098 1.64554 0
M  V30 5414 O 514.525 0.41926 1.86137 0
M  V30 5415 C 511.665 1.2013 3.23516 0
M  V30 5416 C 510.778 2.43407 3.56899 0
M  V30 5417 C 509.913 2.19773 4.83605 0
M  V30 5418 C 508.952 3.3879 5.09792 0
M  V30 5419 N 508.089 3.14553 6.27695 0
M  V30 5420 H 512.929 2.3167 1.87438 0
M  V30 5421 H 510.466 1.15094 0.916063 0
M  V30 5422 H 512.424 1.08683 4.02795 0
M  V30 5423 H 511.054 0.285453 3.21535 0
M  V30 5424 H 510.106 2.65504 2.72418 0
M  V30 5425 H 511.418 3.32094 3.72176 0
M  V30 5426 H 510.572 2.05496 5.70838 0
M  V30 5427 H 509.311 1.28461 4.70478 0
M  V30 5428 H 508.316 3.53579 4.21025 0
M  V30 5429 H 509.541 4.30986 5.24812 0
M  V30 5430 H 507.487 2.25893 6.1588 0
M  V30 5431 H 507.404 3.96791 6.435 0
M  V30 5432 H 508.672 3.03943 7.17801 0
M  V30 5433 N 512.901 -0.976442 1.23707 0
M  V30 5434 C 514.126 -1.75875 1.09922 0
M  V30 5435 C 514.551 -1.84911 -0.34489 0
M  V30 5436 O 513.909 -1.31363 -1.24954 0
M  V30 5437 C 513.957 -3.16179 1.73388 0
M  V30 5438 O 513.061 -4.00124 0.99871 0
M  V30 5439 H 512.402 -0.540954 0.385052 0
M  V30 5440 H 514.932 -1.22546 1.6384 0
M  V30 5441 H 514.942 -3.66741 1.78788 0
M  V30 5442 H 513.617 -3.08917 2.78466 0
M  V30 5443 H 512.194 -3.58624 1.02193 0
M  V30 5444 N 514.379 -1.04941 -1.1758 0
M  V30 5445 C 515.327 -0.64204 -2.23563 0
M  V30 5446 C 516.321 0.335453 -1.66045 0
M  V30 5447 O 517.527 0.20179 -1.78865 0
M  V30 5448 H 513.902 -0.18944 -0.727748 0
M  V30 5449 H 515.873 -1.54609 -2.55223 0
M  V30 5450 C 514.622 -0.0301051 -3.47687 0
M  V30 5451 H 513.945 -0.773339 -3.92249 0
M  V30 5452 H 515.385 0.217592 -4.23441 0
M  V30 5453 C 513.844 1.2225 -3.13937 0
M  V30 5454 O 514.374 2.3122 -3.28482 0
M  V30 5455 N 512.58 1.11917 -2.68185 0
M  V30 5456 H 512.127 0.232403 -2.5655 0
M  V30 5457 H 512.085 1.95814 -2.45976 0
M  V30 5458 N 515.857 1.33968 -0.830081 0
M  V30 5459 C 516.82 2.27694 -0.26235 0
M  V30 5460 C 517.82 1.50589 0.563876 0
M  V30 5461 O 519.01 1.70028 0.378941 0
M  V30 5462 C 516.142 3.35002 0.63138 0
M  V30 5463 H 517.335 2.79419 -1.08928 0
M  V30 5464 H 514.888 1.44221 -0.602486 0
M  V30 5465 H 515.623 2.88504 1.48109 0
M  V30 5466 H 515.408 3.92079 0.0403276 0
M  V30 5467 H 516.898 4.04897 1.02217 0
M  V30 5468 N 517.335 0.585699 1.46312 0
M  V30 5469 C 518.612 0.00542031 1.95599 0
M  V30 5470 C 518.992 -1.45619 1.52834 0
M  V30 5471 O 518.34 -2.14759 0.780446 0
M  V30 5472 C 518.55 0.180601 3.48532 0
M  V30 5473 C 519.898 0.049979 4.24571 0
M  V30 5474 O 520.922 0.109589 3.56031 0
M  V30 5475 O 519.781 -0.0832226 5.46437 0
M  V30 5476 H 516.875 -0.0481281 0.825598 0
M  V30 5477 H 519.421 0.654227 1.56582 0
M  V30 5478 H 518.193 1.19657 3.72556 0
M  V30 5479 H 517.816 -0.504498 3.94386 0
M  V30 5480 N 518.813 -1.54241 0.323641 0
M  V30 5481 C 519.743 -2.27289 -0.534993 0
M  V30 5482 C 520.724 -1.28087 -1.11927 0
M  V30 5483 O 521.909 -1.56899 -1.14439 0
M  V30 5484 C 519.039 -3.03075 -1.69596 0
M  V30 5485 C 517.993 -4.09614 -1.24098 0
M  V30 5486 C 517.319 -4.73242 -2.4889 0
M  V30 5487 C 518.619 -5.21087 -0.355789 0
M  V30 5488 H 520.313 -2.99308 0.0743257 0
M  V30 5489 H 517.859 -1.43952 0.0371874 0
M  V30 5490 H 519.812 -3.52907 -2.30293 0
M  V30 5491 H 518.536 -2.28673 -2.33187 0
M  V30 5492 H 517.195 -3.60666 -0.656945 0
M  V30 5493 H 516.843 -3.95455 -3.10845 0
M  V30 5494 H 516.543 -5.45209 -2.19138 0
M  V30 5495 H 518.067 -5.25848 -3.10348 0
M  V30 5496 H 519.481 -5.66675 -0.869042 0
M  V30 5497 H 517.878 -5.9991 -0.151045 0
M  V30 5498 H 518.948 -4.81005 0.613339 0
M  V30 5499 N 520.291 -0.0518155 -1.57515 0
M  V30 5500 C 521.531 0.625712 -1.94587 0
M  V30 5501 C 521.895 1.6797 -0.930053 0
M  V30 5502 O 523.096 2.41135 -1.18774 0
M  V30 5503 C 521.367 1.20574 -3.36447 0
M  V30 5504 S 522.926 1.90118 -3.95475 0
M  V30 5505 H 519.744 0.205434 -0.680675 0
M  V30 5506 H 522.346 -0.120906 -1.95126 0
M  V30 5507 H 521.05 0.426521 -4.08178 0
M  V30 5508 H 520.581 1.98916 -3.39405 0
M  V30 5509 H 522.596 3.18184 -3.80753 0
M  V30 5510 N 521.769 1.56035 0.221574 0
M  V30 5511 C 522.999 1.82864 0.961468 0
M  V30 5512 C 523.407 0.628703 1.78449 0
M  V30 5513 O 522.75 -0.412109 1.79018 0
M  V30 5514 C 522.812 3.03425 1.92804 0
M  V30 5515 C 522.476 4.38429 1.28954 0
M  V30 5516 C 523.473 5.15441 0.679431 0
M  V30 5517 C 521.158 4.85151 1.30131 0
M  V30 5518 C 523.152 6.37337 0.0896148 0
M  V30 5519 C 520.839 6.06989 0.707651 0
M  V30 5520 C 521.837 6.82923 0.102855 0
M  V30 5521 O 521.525 8.02456 -0.48157 0
M  V30 5522 H 521.257 0.611883 0.28736 0
M  V30 5523 H 523.811 2.0397 0.241932 0
M  V30 5524 H 522.041 2.78138 2.68656 0
M  V30 5525 H 523.73 3.17127 2.53348 0
M  V30 5526 H 524.496 4.80452 0.662661 0
M  V30 5527 H 520.375 4.26021 1.76145 0
M  V30 5528 H 523.919 6.96547 -0.383069 0
M  V30 5529 H 519.816 6.41451 0.721834 0
M  V30 5530 H 520.584 8.17636 -0.375887 0
M  V30 5531 N 523.247 -0.488276 1.49845 0
M  V30 5532 C 524.495 -1.23911 1.59657 0
M  V30 5533 C 524.816 -1.92816 0.291005 0
M  V30 5534 O 524.086 -1.83328 -0.690485 0
M  V30 5535 H 522.666 -0.460357 0.588286 0
M  V30 5536 H 525.328 -0.564794 1.86537 0
M  V30 5537 H 524.424 -1.99625 2.39909 0
M  V30 5538 N 524.725 -1.39134 -0.740242 0
M  V30 5539 C 525.688 -1.37217 -1.83587 0
M  V30 5540 C 526.688 -0.270221 -1.58513 0
M  V30 5541 O 527.878 -0.527843 -1.6601 0
M  V30 5542 C 525.01 -1.13959 -3.21288 0
M  V30 5543 H 526.203 -2.34705 -1.86691 0
M  V30 5544 H 523.756 -1.24622 -0.94335 0
M  V30 5545 H 524.491 -0.17131 -3.23847 0
M  V30 5546 H 524.276 -1.93754 -3.40884 0
M  V30 5547 H 525.766 -1.15346 -4.01354 0
M  V30 5548 N 526.204 0.969867 -1.24223 0
M  V30 5549 C 527.134 2.08191 -1.05729 0
M  V30 5550 C 528.115 1.70075 0.0290765 0
M  V30 5551 O 529.3 1.93712 -0.137583 0
M  V30 5552 C 526.43 3.40991 -0.658995 0
M  V30 5553 C 525.384 3.93054 -1.69389 0
M  V30 5554 C 524.71 5.22171 -1.15072 0
M  V30 5555 C 526.01 4.21137 -3.08935 0
M  V30 5556 H 527.704 2.23921 -1.98746 0
M  V30 5557 H 525.25 1.07602 -0.956967 0
M  V30 5558 H 527.203 4.18221 -0.51662 0
M  V30 5559 H 525.927 3.25155 0.30686 0
M  V30 5560 H 524.586 3.17977 -1.82444 0
M  V30 5561 H 524.234 5.02694 -0.175539 0
M  V30 5562 H 523.934 5.57973 -1.84229 0
M  V30 5563 H 525.458 6.02013 -1.02042 0
M  V30 5564 H 526.872 4.8908 -2.99121 0
M  V30 5565 H 525.269 4.68163 -3.75425 0
M  V30 5566 H 526.339 3.27996 -3.57137 0
M  V30 5567 N 527.682 1.05563 1.17022 0
M  V30 5568 C 528.645 0.664098 2.19368 0
M  V30 5569 C 529.645 -0.286358 1.5823 0
M  V30 5570 O 530.835 -0.069728 1.7406 0
M  V30 5571 C 527.967 -0.0239932 3.40892 0
M  V30 5572 H 529.16 1.57 2.55521 0
M  V30 5573 H 526.713 0.849964 1.31169 0
M  V30 5574 H 527.448 -0.942988 3.10287 0
M  V30 5575 H 527.233 0.659351 3.86516 0
M  V30 5576 H 528.723 -0.283909 4.16634 0
M  V30 5577 N 529.16 -1.33526 0.837174 0
M  V30 5578 C 530.123 -2.27551 0.274421 0
M  V30 5579 C 531.123 -1.50886 -0.555881 0
M  V30 5580 O 532.313 -1.70227 -0.369918 0
M  V30 5581 C 529.445 -3.35332 -0.613605 0
M  V30 5582 H 530.638 -2.78837 1.10408 0
M  V30 5583 H 528.191 -1.439 0.610126 0
M  V30 5584 H 528.926 -2.89285 -1.46577 0
M  V30 5585 H 528.711 -3.92095 -0.0195341 0
M  V30 5586 H 530.201 -4.05433 -1.00068 0
M  V30 5587 N 530.638 -0.59345 -1.46 0
M  V30 5588 C 531.887 -0.0808084 -2.01538 0
M  V30 5589 C 532.2 1.29112 -1.46934 0
M  V30 5590 O 533.406 1.8957 -1.94359 0
M  V30 5591 C 531.862 -0.0938311 -3.59778 0
M  V30 5592 C 531.47 -1.46474 -4.23379 0
M  V30 5593 C 533.214 0.364306 -4.22934 0
M  V30 5594 C 531.121 -1.4349 -5.73729 0
M  V30 5595 H 530.051 -0.0264407 -0.753536 0
M  V30 5596 H 532.702 -0.746689 -1.67621 0
M  V30 5597 H 531.084 0.638427 -3.9082 0
M  V30 5598 H 532.258 -2.21758 -4.03931 0
M  V30 5599 H 530.573 -1.86379 -3.7236 0
M  V30 5600 H 533.17 0.405584 -5.3316 0
M  V30 5601 H 533.513 1.38409 -3.92618 0
M  V30 5602 H 534.046 -0.31423 -3.96557 0
M  V30 5603 H 530.785 -2.43184 -6.08722 0
M  V30 5604 H 530.305 -0.724431 -5.95409 0
M  V30 5605 H 531.984 -1.15243 -6.36654 0
M  V30 5606 N 532.116 1.54067 -0.331816 0
M  V30 5607 C 533.527 1.86059 0.15454 0
M  V30 5608 C 533.878 1.25331 1.50952 0
M  V30 5609 O 533.003 0.562441 2.08963 0
M  V30 5610 C 533.598 3.37581 0.287192 0
M  V30 5611 C 532.157 3.69493 0.717773 0
M  V30 5612 C 531.304 2.76863 -0.155569 0
M  V30 5613 H 534.255 1.48797 -0.55182 0
M  V30 5614 H 534.276 3.63744 1.11671 0
M  V30 5615 H 533.788 3.81751 -0.699131 0
M  V30 5616 H 531.889 3.3086 1.71354 0
M  V30 5617 H 532.002 4.76315 0.5158 0
M  V30 5618 H 530.366 2.51995 0.370213 0
M  V30 5619 H 531.149 3.23861 -1.13881 0
M  V30 5620 N 533.594 0.0601682 1.57485 0
M  V30 5621 C 534.842 -0.610386 1.92662 0
M  V30 5622 C 535.163 -1.70849 0.939981 0
M  V30 5623 O 534.433 -1.95895 -0.0137455 0
M  V30 5624 H 533.013 -0.228457 0.711208 0
M  V30 5625 H 535.675 0.115288 1.94559 0
M  V30 5626 H 534.771 -1.0432 2.94149 0
M  V30 5627 N 535.072 -1.5615 -0.213296 0
M  V30 5628 C 536.002 -1.96109 -1.26742 0
M  V30 5629 C 536.983 -0.830448 -1.48451 0
M  V30 5630 O 538.168 -1.09339 -1.60495 0
M  V30 5631 C 535.298 -2.28492 -2.61551 0
M  V30 5632 C 534.252 -3.44124 -2.54485 0
M  V30 5633 C 533.578 -3.62134 -3.93399 0
M  V30 5634 C 534.878 -4.78855 -2.08556 0
M  V30 5635 H 536.572 -2.84412 -0.935434 0
M  V30 5636 H 534.118 -1.36836 -0.44854 0
M  V30 5637 H 536.071 -2.55039 -3.3546 0
M  V30 5638 H 534.795 -1.37052 -2.96453 0
M  V30 5639 H 533.454 -3.17639 -1.83033 0
M  V30 5640 H 533.102 -2.68055 -4.25623 0
M  V30 5641 H 532.802 -4.39913 -3.89551 0
M  V30 5642 H 534.326 -3.91038 -4.68958 0
M  V30 5643 H 535.74 -5.04552 -2.72213 0
M  V30 5644 H 534.137 -5.59975 -2.1575 0
M  V30 5645 H 535.207 -4.73657 -1.03811 0
M  V30 5646 N 536.55 0.480323 -1.50102 0
M  V30 5647 C 537.966 0.813295 -1.37323 0
M  V30 5648 C 538.166 1.97027 -0.422206 0
M  V30 5649 O 537.222 2.5212 0.138563 0
M  V30 5650 C 538.535 1.13404 -2.78496 0
M  V30 5651 C 540.083 1.24104 -2.87345 0
M  V30 5652 C 540.558 1.59497 -4.29331 0
M  V30 5653 N 542.049 1.66507 -4.32238 0
M  V30 5654 C 542.784 1.95378 -5.39087 0
M  V30 5655 N 542.28 2.22333 -6.56155 0
M  V30 5656 N 544.073 1.96803 -5.26522 0
M  V30 5657 H 536.224 -0.282291 -2.10516 0
M  V30 5658 H 538.487 -0.063752 -0.945854 0
M  V30 5659 H 538.193 0.357064 -3.49883 0
M  V30 5660 H 538.067 2.07251 -3.15162 0
M  V30 5661 H 540.454 2.00871 -2.16183 0
M  V30 5662 H 540.535 0.282593 -2.54234 0
M  V30 5663 H 540.179 0.832736 -5.01027 0
M  V30 5664 H 540.109 2.56477 -4.59921 0
M  V30 5665 H 542.6 1.47753 -3.47818 0
M  V30 5666 H 542.913 2.43611 -7.33399 0
M  V30 5667 H 541.258 2.19745 -6.59346 0
M  V30 5668 H 544.449 1.75235 -4.34062 0
M  V30 5669 H 544.622 2.18969 -6.09883 0
M  V30 5670 N 538.028 1.39524 0.732853 0
M  V30 5671 C 539.439 1.32905 1.31122 0
M  V30 5672 C 539.79 -0.00558708 1.96199 0
M  V30 5673 O 538.915 -0.907706 1.96443 0
M  V30 5674 C 539.51 2.40704 2.38426 0
M  V30 5675 C 538.069 2.37599 2.91931 0
M  V30 5676 C 537.216 2.2248 1.65523 0
M  V30 5677 H 540.167 1.49581 0.530207 0
M  V30 5678 H 540.188 2.07616 3.18867 0
M  V30 5679 H 539.7 3.37829 1.91033 0
M  V30 5680 H 537.801 1.44119 3.43599 0
M  V30 5681 H 537.914 3.32538 3.44899 0
M  V30 5682 H 536.278 1.69691 1.8994 0
M  V30 5683 H 537.061 3.21577 1.20178 0
M  V30 5684 N 539.506 -0.963266 1.24736 0
M  V30 5685 C 540.752 -1.70933 1.09131 0
M  V30 5686 C 541.085 -1.90676 -0.368273 0
M  V30 5687 O 540.36 -1.47147 -1.27193 0
M  V30 5688 C 540.643 -3.09744 1.83658 0
M  V30 5689 C 540.496 -2.97465 3.37394 0
M  V30 5690 C 541.815 -4.09483 1.61282 0
M  V30 5691 H 538.934 -0.620398 0.397838 0
M  V30 5692 H 541.576 -1.12028 1.53459 0
M  V30 5693 H 539.726 -3.60031 1.4598 0
M  V30 5694 H 541.398 -2.54571 3.84696 0
M  V30 5695 H 539.641 -2.33576 3.65547 0
M  V30 5696 H 540.312 -3.95822 3.84745 0
M  V30 5697 H 542.788 -3.68073 1.94066 0
M  V30 5698 H 541.664 -5.04666 2.15878 0
M  V30 5699 H 541.925 -4.38639 0.552102 0
M  V30 5700 N 540.985 -1.06182 -1.16461 0
M  V30 5701 C 542.401 -0.785065 -1.38956 0
M  V30 5702 C 542.601 0.616103 -1.9185 0
M  V30 5703 O 541.657 1.37686 -2.11657 0
M  V30 5704 C 542.97 -1.84902 -2.37132 0
M  V30 5705 C 544.518 -1.8724 -2.50819 0
M  V30 5706 C 544.993 -2.92686 -3.52277 0
M  V30 5707 N 546.484 -2.91712 -3.59803 0
M  V30 5708 C 547.219 -3.69949 -4.38093 0
M  V30 5709 N 546.715 -4.58 -5.19815 0
M  V30 5710 N 548.508 -3.58346 -4.33064 0
M  V30 5711 H 540.659 -1.96569 -0.804634 0
M  V30 5712 H 542.922 -0.851747 -0.416211 0
M  V30 5713 H 542.628 -2.85518 -2.0536 0
M  V30 5714 H 542.502 -1.69908 -3.36766 0
M  V30 5715 H 544.889 -0.872827 -2.81897 0
M  V30 5716 H 544.97 -2.06311 -1.51226 0
M  V30 5717 H 544.614 -3.92835 -3.21937 0
M  V30 5718 H 544.544 -2.70864 -4.51598 0
M  V30 5719 H 547.035 -2.27876 -3.01464 0
M  V30 5720 H 547.348 -5.14357 -5.76764 0
M  V30 5721 H 545.693 -4.62056 -5.19162 0
M  V30 5722 H 548.884 -2.88943 -3.68279 0
M  V30 5723 H 549.057 -4.19563 -4.93833 0
M  V30 5724 N 542.463 1.3308 -0.844243 0
M  V30 5725 C 543.874 1.7992 -0.498566 0
M  V30 5726 C 544.225 1.69808 0.982834 0
M  V30 5727 O 543.35 1.25051 1.7661 0
M  V30 5728 C 543.945 3.26677 -0.898204 0
M  V30 5729 C 542.504 3.71513 -0.604583 0
M  V30 5730 C 541.651 2.54393 -1.10362 0
M  V30 5731 H 544.602 1.20526 -1.03244 0
M  V30 5732 H 544.623 3.79918 -0.21039 0
M  V30 5733 H 544.135 3.34004 -1.97643 0
M  V30 5734 H 542.236 3.69708 0.46335 0
M  V30 5735 H 542.349 4.64755 -1.16358 0
M  V30 5736 H 540.713 2.49246 -0.524273 0
M  V30 5737 H 541.496 2.6448 -2.18873 0
M  V30 5738 N 543.941 0.601185 1.45683 0
M  V30 5739 C 545.166 0.0982245 2.07167 0
M  V30 5740 C 545.591 -1.20546 1.44396 0
M  V30 5741 O 544.949 -1.73247 0.534347 0
M  V30 5742 C 544.997 -0.0346976 3.60583 0
M  V30 5743 O 544.101 -1.08657 3.97828 0
M  V30 5744 H 543.442 0.0711618 0.660176 0
M  V30 5745 H 545.972 0.829376 1.87036 0
M  V30 5746 H 545.982 -0.234969 4.07323 0
M  V30 5747 H 544.657 0.917265 4.05659 0
M  V30 5748 H 543.234 -0.863275 3.6277 0
M  V30 5749 N 545.419 -1.53889 0.339982 0
M  V30 5750 C 546.667 -2.00458 -0.257112 0
M  V30 5751 C 546.988 -1.22953 -1.51353 0
M  V30 5752 O 546.258 -0.335734 -1.93002 0
M  V30 5753 H 544.838 -0.740544 -0.0979965 0
M  V30 5754 H 547.5 -1.89386 0.460317 0
M  V30 5755 H 546.596 -3.08035 -0.502057 0
M  V30 5756 N 546.897 -0.0685191 -1.57451 0
M  V30 5757 C 547.86 0.885173 -2.11417 0
M  V30 5758 C 548.86 1.22853 -1.03748 0
M  V30 5759 O 550.05 1.16235 -1.2975 0
M  V30 5760 C 547.182 2.18964 -2.61281 0
M  V30 5761 H 548.375 0.417034 -2.96986 0
M  V30 5762 H 545.928 0.18014 -1.55258 0
M  V30 5763 H 546.663 2.70321 -1.79156 0
M  V30 5764 H 546.448 1.9534 -3.39977 0
M  V30 5765 H 547.938 2.87242 -3.0312 0
M  V30 5766 N 548.375 1.56261 0.205012 0
M  V30 5767 C 549.308 1.88797 1.28183 0
M  V30 5768 C 550.286 0.747018 1.44424 0
M  V30 5769 O 551.47 0.997039 1.59973 0
M  V30 5770 C 548.597 2.10949 2.64987 0
M  V30 5771 C 547.643 3.33649 2.6567 0
M  V30 5772 S 548.476 4.89078 2.18088 0
M  V30 5773 C 549.632 5.14286 3.56736 0
M  V30 5774 H 549.865 2.79837 1.00393 0
M  V30 5775 H 547.398 1.48911 0.408042 0
M  V30 5776 H 549.356 2.24395 3.4374 0
M  V30 5777 H 548.017 1.20678 2.89993 0
M  V30 5778 H 547.21 3.46245 3.66239 0
M  V30 5779 H 546.812 3.19146 1.94992 0
M  V30 5780 H 549.104 5.04198 4.52537 0
M  V30 5781 H 550.047 6.16096 3.49043 0
M  V30 5782 H 550.455 4.41957 3.51189 0
M  V30 5783 N 549.853 -0.472356 1.50355 0
M  V30 5784 C 551.083 -1.24603 1.64796 0
M  V30 5785 C 551.491 -1.86297 0.330156 0
M  V30 5786 O 550.834 -1.69934 -0.697728 0
M  V30 5787 C 550.896 -2.39578 2.68035 0
M  V30 5788 C 550.56 -1.98531 4.11624 0
M  V30 5789 C 551.557 -1.50856 4.97532 0
M  V30 5790 C 549.242 -2.0729 4.57532 0
M  V30 5791 C 551.236 -1.12481 6.27397 0
M  V30 5792 C 548.923 -1.68527 5.87403 0
M  V30 5793 C 549.921 -1.212 6.7216 0
M  V30 5794 O 549.609 -0.829728 7.99607 0
M  V30 5795 H 549.341 -0.383035 0.55701 0
M  V30 5796 H 551.895 -0.570392 1.97321 0
M  V30 5797 H 550.125 -3.10309 2.30749 0
M  V30 5798 H 551.814 -3.01544 2.71709 0
M  V30 5799 H 552.58 -1.43511 4.63281 0
M  V30 5800 H 548.459 -2.43076 3.91708 0
M  V30 5801 H 552.003 -0.754698 6.93506 0
M  V30 5802 H 547.9 -1.7553 6.21176 0
M  V30 5803 H 548.668 -0.958689 8.12866 0
M  V30 5804 N 551.331 -1.39911 -0.725443 0
M  V30 5805 C 552.261 -1.42138 -1.85254 0
M  V30 5806 C 553.242 -0.283513 -1.67721 0
M  V30 5807 O 554.427 -0.490717 -1.87898 0
M  V30 5808 C 551.557 -1.27354 -3.23107 0
M  V30 5809 C 550.511 -2.3864 -3.55296 0
M  V30 5810 C 549.837 -2.08939 -4.92188 0
M  V30 5811 C 551.137 -3.8097 -3.57295 0
M  V30 5812 H 552.831 -2.36461 -1.83648 0
M  V30 5813 H 550.377 -1.13817 -0.882138 0
M  V30 5814 H 552.33 -1.2753 -4.01639 0
M  V30 5815 H 551.054 -0.295025 -3.25265 0
M  V30 5816 H 549.713 -2.37696 -2.79099 0
M  V30 5817 H 549.361 -1.09502 -4.90936 0
M  V30 5818 H 549.061 -2.83491 -5.14691 0
M  V30 5819 H 550.585 -2.10781 -5.73065 0
M  V30 5820 H 551.999 -3.8379 -4.25885 0
M  V30 5821 H 550.396 -4.5496 -3.9132 0
M  V30 5822 H 551.466 -4.11261 -2.5689 0
M  V30 5823 N 552.809 0.956637 -1.25245 0
M  V30 5824 C 553.742 2.05232 -0.99775 0
M  V30 5825 C 554.72 1.62439 0.0723137 0
M  V30 5826 O 555.904 1.88381 -0.066926 0
M  V30 5827 C 553.031 3.34871 -0.507861 0
M  V30 5828 C 552.077 3.96625 -1.56815 0
M  V30 5829 S 552.91 4.32853 -3.15276 0
M  V30 5830 C 554.066 5.65613 -2.68017 0
M  V30 5831 H 554.299 2.26521 -1.9255 0
M  V30 5832 H 551.832 1.09601 -1.08752 0
M  V30 5833 H 553.79 4.09845 -0.231858 0
M  V30 5834 H 552.451 3.11551 0.399356 0
M  V30 5835 H 551.644 4.90087 -1.17604 0
M  V30 5836 H 551.246 3.28124 -1.79473 0
M  V30 5837 H 553.538 6.43635 -2.11518 0
M  V30 5838 H 554.481 6.09693 -3.60112 0
M  V30 5839 H 554.889 5.24751 -2.0808 0
M  V30 5840 N 554.287 1.06798 1.15896 0
M  V30 5841 C 555.533 0.788934 1.86825 0
M  V30 5842 C 555.866 -0.683084 1.8179 0
M  V30 5843 O 555.141 -1.50086 1.23711 0
M  V30 5844 C 555.424 1.29065 3.36176 0
M  V30 5845 C 555.277 2.8268 3.49874 0
M  V30 5846 C 556.596 0.902655 4.30744 0
M  V30 5847 H 553.715 0.288066 0.678371 0
M  V30 5848 H 556.357 1.32479 1.36195 0
M  V30 5849 H 554.507 0.834806 3.79425 0
M  V30 5850 H 556.179 3.36511 3.15528 0
M  V30 5851 H 554.422 3.21157 2.91617 0
M  V30 5852 H 555.093 3.12852 4.54783 0
M  V30 5853 H 557.569 1.29535 3.95424 0
M  V30 5854 H 556.445 1.28111 5.3374 0
M  V30 5855 H 556.706 -0.191951 4.41683 0
M  V30 5856 N 555.766 -1.3263 0.851289 0
M  V30 5857 C 557.014 -1.96978 0.452128 0
M  V30 5858 C 557.335 -1.67715 -0.99482 0
M  V30 5859 O 556.605 -0.98259 -1.69476 0
M  V30 5860 H 555.185 -0.72873 0.164202 0
M  V30 5861 H 557.847 -1.61774 1.08698 0
M  V30 5862 H 556.943 -3.06387 0.594407 0
M  V30 5863 N 557.244 -0.608902 -1.45362 0
M  V30 5864 C 558.493 -0.10218 -2.01441 0
M  V30 5865 C 558.806 1.27546 -1.48295 0
M  V30 5866 O 560.012 1.87498 -1.96359 0
M  V30 5867 C 558.468 -0.131985 -3.59658 0
M  V30 5868 C 558.076 -1.50956 -4.21801 0
M  V30 5869 C 559.82 0.319427 -4.23296 0
M  V30 5870 C 557.727 -1.49568 -5.72174 0
M  V30 5871 H 556.657 -0.0344314 -0.753213 0
M  V30 5872 H 559.308 -0.764426 -1.6682 0
M  V30 5873 H 557.69 0.596939 -3.91475 0
M  V30 5874 H 558.864 -2.26029 -4.01556 0
M  V30 5875 H 557.179 -1.90318 -3.70362 0
M  V30 5876 H 559.776 0.349013 -5.3356 0
M  V30 5877 H 560.119 1.34237 -3.94064 0
M  V30 5878 H 560.652 -0.356273 -3.96201 0
M  V30 5879 H 557.391 -2.49626 -6.06108 0
M  V30 5880 H 556.911 -0.787542 -5.94607 0
M  V30 5881 H 558.59 -1.21989 -6.35396 0
M  V30 5882 N 558.722 1.53707 -0.348139 0
M  V30 5883 C 559.632 2.28881 0.514857 0
M  V30 5884 C 560.648 1.34168 1.10793 0
M  V30 5885 O 561.824 1.6721 1.12262 0
M  V30 5886 C 558.889 3.05042 1.64774 0
M  V30 5887 C 557.95 4.15389 1.08398 0
M  V30 5888 C 557.183 4.87909 2.16287 0
M  V30 5889 O 557.406 4.60137 3.3709 0
M  V30 5890 O 556.34 5.74254 1.80323 0
M  V30 5891 H 560.166 3.03547 -0.0963699 0
M  V30 5892 H 557.751 1.48972 -0.113043 0
M  V30 5893 H 559.633 3.52656 2.30677 0
M  V30 5894 H 558.308 2.33228 2.24469 0
M  V30 5895 H 557.215 3.72068 0.389341 0
M  V30 5896 H 558.548 4.89318 0.531829 0
M  V30 5897 N 560.2 0.0768682 1.57412 0
M  V30 5898 C 561.133 -0.924685 2.08626 0
M  V30 5899 C 562.111 -1.28792 0.992542 0
M  V30 5900 O 563.295 -1.39634 1.26628 0
M  V30 5901 C 560.422 -2.23131 2.54814 0
M  V30 5902 C 559.468 -2.01928 3.75669 0
M  V30 5903 S 560.301 -1.27397 5.20125 0
M  V30 5904 C 561.457 -2.59329 5.69648 0
M  V30 5905 H 561.69 -0.488928 2.93252 0
M  V30 5906 H 559.223 -0.136014 1.538 0
M  V30 5907 H 561.181 -2.98226 2.82084 0
M  V30 5908 H 559.842 -2.63831 1.70447 0
M  V30 5909 H 559.035 -2.98639 4.05993 0
M  V30 5910 H 558.637 -1.34967 3.48798 0
M  V30 5911 H 560.929 -3.55394 5.76803 0
M  V30 5912 H 561.872 -2.33608 6.68456 0
M  V30 5913 H 562.28 -2.66767 4.9749 0
M  V30 5914 N 561.678 -1.56367 -0.196722 0
M  V30 5915 C 562.588 -1.97617 -1.2643 0
M  V30 5916 C 563.604 -0.883598 -1.49895 0
M  V30 5917 O 564.78 -1.18921 -1.62541 0
M  V30 5918 C 561.845 -2.30595 -2.58895 0
M  V30 5919 C 560.906 -3.53551 -2.43516 0
M  V30 5920 C 560.139 -3.84946 -3.69665 0
M  V30 5921 O 560.362 -3.17655 -4.73763 0
M  V30 5922 O 559.296 -4.78379 -3.65291 0
M  V30 5923 H 563.122 -2.88648 -0.944233 0
M  V30 5924 H 560.707 -1.43901 -0.401592 0
M  V30 5925 H 562.589 -2.52889 -3.37083 0
M  V30 5926 H 561.264 -1.42732 -2.90533 0
M  V30 5927 H 560.171 -3.36507 -1.63445 0
M  V30 5928 H 561.504 -4.41875 -2.16812 0
M  V30 5929 N 563.156 0.464375 -1.50603 0
M  V30 5930 C 564.106 1.55929 -1.66343 0
M  V30 5931 C 565.09 1.52338 -0.517887 0
M  V30 5932 O 566.282 1.59248 -0.772601 0
M  V30 5933 C 563.411 2.94327 -1.7671 0
M  V30 5934 C 562.497 3.02777 -2.96962 0
M  V30 5935 N 562.888 2.81026 -4.20545 0
M  V30 5936 C 561.186 3.33919 -2.95659 0
M  V30 5937 C 561.887 2.94618 -5.01573 0
M  V30 5938 N 560.863 3.25112 -4.35664 0
M  V30 5939 H 564.665 1.37822 -2.59581 0
M  V30 5940 H 562.179 0.671227 -1.47879 0
M  V30 5941 H 564.176 3.73063 -1.86091 0
M  V30 5942 H 562.836 3.13476 -0.846353 0
M  V30 5943 H 563.847 2.56477 -4.49933 0
M  V30 5944 H 560.524 3.59013 -2.13111 0
M  V30 5945 H 561.914 2.81984 -6.09865 0
M  V30 5946 N 564.634 1.40294 0.718013 0
M  V30 5947 C 565.881 1.3844 1.47786 0
M  V30 5948 C 566.209 -0.0140838 1.94495 0
M  V30 5949 O 565.464 -0.998165 1.68331 0
M  V30 5950 C 565.763 2.31814 2.72024 0
M  V30 5951 C 565.429 3.79117 2.44093 0
M  V30 5952 C 564.091 4.19249 2.36185 0
M  V30 5953 C 566.443 4.72212 2.20602 0
M  V30 5954 C 563.771 5.50516 2.02851 0
M  V30 5955 C 566.123 6.03775 1.88781 0
M  V30 5956 C 564.787 6.42953 1.79354 0
M  V30 5957 H 564.057 0.506588 0.540786 0
M  V30 5958 H 566.704 1.72929 0.822663 0
M  V30 5959 H 565.009 1.90501 3.42369 0
M  V30 5960 H 566.706 2.27664 3.30106 0
M  V30 5961 H 563.296 3.47318 2.51133 0
M  V30 5962 H 567.48 4.42026 2.25669 0
M  V30 5963 H 562.736 5.79776 1.94088 0
M  V30 5964 H 566.91 6.75428 1.69617 0
M  V30 5965 H 564.537 7.44584 1.53291 0
M  V30 5966 N 566.112 -0.949982 1.2575 0
M  V30 5967 C 567.523 -1.50989 1.09815 0
M  V30 5968 C 567.874 -1.93497 -0.324556 0
M  V30 5969 O 566.999 -1.79068 -1.21506 0
M  V30 5970 C 567.594 -2.74394 1.98729 0
M  V30 5971 C 566.153 -3.26682 1.86965 0
M  V30 5972 C 565.3 -1.99498 1.92603 0
M  V30 5973 H 568.251 -0.766387 1.38968 0
M  V30 5974 H 568.272 -3.48383 1.53001 0
M  V30 5975 H 567.784 -2.43425 3.02268 0
M  V30 5976 H 565.885 -3.62461 0.863279 0
M  V30 5977 H 565.998 -3.94383 2.72027 0
M  V30 5978 H 564.362 -2.15005 1.36546 0
M  V30 5979 H 565.145 -1.70871 2.97755 0
M  V30 5980 N 567.59 -1.07411 -1.15328 0
M  V30 5981 C 568.5 -0.706438 -2.23711 0
M  V30 5982 C 569.516 0.282586 -1.7169 0
M  V30 5983 O 570.692 0.129066 -2.00986 0
M  V30 5984 C 567.757 -0.11048 -3.46524 0
M  V30 5985 C 566.818 -1.15282 -4.13532 0
M  V30 5986 C 566.051 -0.585205 -5.30482 0
M  V30 5987 O 566.274 0.598549 -5.67251 0
M  V30 5988 O 565.208 -1.33039 -5.87013 0
M  V30 5989 H 569.034 -1.61031 -2.57493 0
M  V30 5990 H 566.619 -0.847113 -1.23062 0
M  V30 5991 H 568.501 0.21957 -4.20828 0
M  V30 5992 H 567.176 0.766703 -3.14489 0
M  V30 5993 H 566.083 -1.53523 -3.41147 0
M  V30 5994 H 567.416 -2.00192 -4.49649 0
M  V30 5995 N 569.068 1.32177 -0.85831 0
M  V30 5996 C 570.315 1.97125 -0.463484 0
M  V30 5997 C 570.643 1.67907 0.981705 0
M  V30 5998 O 569.898 0.961717 1.70439 0
M  V30 5999 C 570.197 3.51372 -0.653658 0
M  V30 6000 C 569.863 4.00584 -2.06987 0
M  V30 6001 C 568.525 4.13733 -2.4572 0
M  V30 6002 C 570.877 4.26624 -2.99402 0
M  V30 6003 C 568.205 4.50268 -3.76132 0
M  V30 6004 C 570.557 4.64618 -4.29316 0
M  V30 6005 C 569.221 4.75975 -4.67979 0
M  V30 6006 H 568.491 0.72133 -0.169601 0
M  V30 6007 H 571.138 1.57517 -1.08907 0
M  V30 6008 H 569.443 3.91761 0.0551328 0
M  V30 6009 H 571.14 3.99655 -0.328163 0
M  V30 6010 H 567.73 3.90837 -1.75911 0
M  V30 6011 H 571.914 4.1597 -2.70708 0
M  V30 6012 H 567.17 4.57256 -4.05865 0
M  V30 6013 H 571.344 4.83722 -5.00985 0
M  V30 6014 H 568.971 5.04041 -5.69076 0
M  V30 6015 N 570.547 0.616602 1.45037 0
M  V30 6016 C 571.457 -0.0985401 2.34393 0
M  V30 6017 C 572.473 -0.850971 1.51771 0
M  V30 6018 O 573.649 -0.806521 1.84546 0
M  V30 6019 C 570.714 -1.07748 3.29532 0
M  V30 6020 C 569.775 -0.326022 4.2806 0
M  V30 6021 C 569.008 -1.25833 5.18654 0
M  V30 6022 O 569.231 -2.49652 5.12864 0
M  V30 6023 O 568.165 -0.750512 5.97203 0
M  V30 6024 H 571.991 0.636016 2.96966 0
M  V30 6025 H 569.576 0.376832 1.44569 0
M  V30 6026 H 571.458 -1.64107 3.88133 0
M  V30 6027 H 570.133 -1.79291 2.69512 0
M  V30 6028 H 569.04 0.280253 3.73049 0
M  V30 6029 H 570.373 0.349091 4.9096 0
M  V30 6030 N 572.025 -1.5352 0.356285 0
M  V30 6031 C 572.973 -2.26945 -0.50978 0
M  V30 6032 C 573.967 -1.29569 -1.09125 0
M  V30 6033 O 575.173 -1.47231 -1.03552 0
M  V30 6034 H 571.548 -0.729368 -0.183102 0
M  V30 6035 H 573.519 -2.98111 0.131374 0
M  V30 6036 C 572.268 -3.06466 -1.64237 0
M  V30 6037 H 571.591 -3.81233 -1.20423 0
M  V30 6038 H 573.031 -3.61035 -2.22327 0
M  V30 6039 C 571.49 -2.16737 -2.57928 0
M  V30 6040 O 572.02 -1.77195 -3.60507 0
M  V30 6041 N 570.226 -1.81558 -2.26903 0
M  V30 6042 H 569.773 -2.13913 -1.43524 0
M  V30 6043 H 569.731 -1.21806 -2.89846 0
M  V30 6044 N 573.503 -0.0852151 -1.57369 0
M  V30 6045 C 574.78 0.622534 -1.85429 0
M  V30 6046 C 575.16 1.86962 -0.980229 0
M  V30 6047 O 574.508 2.28445 -0.0500219 0
M  V30 6048 C 574.718 0.947374 -3.35896 0
M  V30 6049 C 576.066 1.31509 -4.03721 0
M  V30 6050 O 577.09 1.03869 -3.40719 0
M  V30 6051 O 575.949 1.83231 -5.14868 0
M  V30 6052 H 573.043 0.310513 -0.766492 0
M  V30 6053 H 575.589 -0.117164 -1.69295 0
M  V30 6054 H 574.361 0.0622264 -3.91251 0
M  V30 6055 H 573.984 1.74338 -3.5734 0
M  V30 6056 N 574.981 1.5647 0.188427 0
M  V30 6057 C 576.227 1.81281 0.909124 0
M  V30 6058 C 576.56 0.66034 1.82628 0
M  V30 6059 O 575.835 -0.338737 1.91528 0
M  V30 6060 C 576.118 3.16388 1.7196 0
M  V30 6061 C 575.971 4.42137 0.826714 0
M  V30 6062 C 577.29 3.48256 2.69083 0
M  V30 6063 H 574.409 0.659457 0.329068 0
M  V30 6064 H 577.051 1.89182 0.176156 0
M  V30 6065 H 575.201 3.09784 2.34448 0
M  V30 6066 H 576.873 4.60794 0.216025 0
M  V30 6067 H 575.116 4.33594 0.133792 0
M  V30 6068 H 575.787 5.33184 1.42893 0
M  V30 6069 H 578.263 3.55203 2.16726 0
M  V30 6070 H 577.139 4.43899 3.2287 0
M  V30 6071 H 577.4 2.72088 3.48455 0
M  V30 6072 N 576.459 -0.456382 1.50847 0
M  V30 6073 C 577.369 -1.57805 1.73594 0
M  V30 6074 C 578.385 -1.62599 0.619476 0
M  V30 6075 O 579.561 -1.80195 0.899532 0
M  V30 6076 C 576.626 -2.93926 1.8387 0
M  V30 6077 C 575.687 -2.99402 3.07663 0
M  V30 6078 C 574.92 -4.29031 3.1744 0
M  V30 6079 O 575.143 -5.20358 2.33631 0
M  V30 6080 O 574.077 -4.40401 4.10281 0
M  V30 6081 H 577.903 -1.41531 2.68705 0
M  V30 6082 H 575.488 -0.637422 1.3512 0
M  V30 6083 H 577.37 -3.74747 1.92725 0
M  V30 6084 H 576.045 -3.10368 0.91944 0
M  V30 6085 H 574.952 -2.17606 3.043 0
M  V30 6086 H 576.285 -2.87901 3.99216 0
M  V30 6087 N 577.937 -1.40673 -0.710563 0
M  V30 6088 C 579.184 -1.39222 -1.47049 0
M  V30 6089 C 579.512 0.0037691 -1.945 0
M  V30 6090 O 578.767 0.989224 -1.68857 0
M  V30 6091 C 579.066 -2.33253 -2.70791 0
M  V30 6092 C 578.732 -3.80406 -2.42079 0
M  V30 6093 C 577.394 -4.20496 -2.33959 0
M  V30 6094 C 579.746 -4.73375 -2.18094 0
M  V30 6095 C 577.074 -5.51584 -1.99929 0
M  V30 6096 C 579.426 -6.04768 -1.85576 0
M  V30 6097 C 578.09 -6.43895 -1.75941 0
M  V30 6098 H 577.36 -0.509449 -0.538092 0
M  V30 6099 H 580.007 -1.73363 -0.81348 0
M  V30 6100 H 578.312 -1.92314 -3.41354 0
M  V30 6101 H 580.009 -2.29412 -3.28894 0
M  V30 6102 H 576.599 -3.48645 -2.49288 0
M  V30 6103 H 580.783 -4.43217 -2.23321 0
M  V30 6104 H 576.039 -5.80797 -1.91011 0
M  V30 6105 H 580.213 -6.76318 -1.66033 0
M  V30 6106 H 577.84 -7.45387 -1.4934 0
M  V30 6107 N 579.415 0.9433 -1.26252 0
M  V30 6108 C 580.643 1.72367 -1.14443 0
M  V30 6109 C 581.058 1.86392 0.300572 0
M  V30 6110 O 580.415 1.36978 1.20596 0
M  V30 6111 C 580.466 3.13155 -1.806 0
M  V30 6112 O 580.187 2.99803 -3.19452 0
M  V30 6113 C 581.688 4.07417 -1.74717 0
M  V30 6114 H 578.908 0.539758 -0.398626 0
M  V30 6115 H 581.452 1.18268 -1.66832 0
M  V30 6116 H 579.607 3.64162 -1.32154 0
M  V30 6117 H 580.021 3.88697 -3.52158 0
M  V30 6118 H 581.495 5.03773 -2.25647 0
M  V30 6119 H 581.972 4.3337 -0.713244 0
M  V30 6120 H 582.578 3.6233 -2.22704 0
M  V30 6121 N 580.893 1.08022 1.14757 0
M  V30 6122 C 581.803 0.718292 2.23333 0
M  V30 6123 C 582.819 -0.273477 1.71837 0
M  V30 6124 O 583.995 -0.118406 2.01052 0
M  V30 6125 C 581.06 0.128855 3.4646 0
M  V30 6126 C 580.121 1.17473 4.12915 0
M  V30 6127 C 579.354 0.61333 5.30164 0
M  V30 6128 O 579.577 -0.568458 5.6756 0
M  V30 6129 O 578.511 1.3615 5.86299 0
M  V30 6130 H 582.337 1.62394 2.56636 0
M  V30 6131 H 579.922 0.853628 1.22611 0
M  V30 6132 H 581.804 -0.197249 4.20938 0
M  V30 6133 H 580.479 -0.750014 3.14891 0
M  V30 6134 H 579.386 1.5533 3.40328 0
M  V30 6135 H 580.719 2.02574 4.48581 0
M  V30 6136 N 582.371 -1.3172 0.865308 0
M  V30 6137 C 583.787 -1.4958 0.556596 0
M  V30 6138 C 583.987 -1.79763 -0.910353 0
M  V30 6139 O 583.043 -1.87351 -1.6928 0
M  V30 6140 C 584.356 -2.63277 1.45279 0
M  V30 6141 C 585.904 -2.77161 1.45433 0
M  V30 6142 C 586.379 -3.93949 2.33598 0
M  V30 6143 N 587.87 -4.01228 2.31453 0
M  V30 6144 C 588.605 -4.90855 2.96393 0
M  V30 6145 N 588.101 -5.85416 3.70486 0
M  V30 6146 N 589.894 -4.84063 2.85726 0
M  V30 6147 H 582.045 -1.10396 1.81456 0
M  V30 6148 H 584.308 -0.54507 0.775631 0
M  V30 6149 H 584.014 -2.47734 2.49641 0
M  V30 6150 H 583.888 -3.59309 1.14792 0
M  V30 6151 H 586.275 -2.9212 0.41831 0
M  V30 6152 H 586.356 -1.8181 1.79941 0
M  V30 6153 H 586 -3.79748 3.37274 0
M  V30 6154 H 585.93 -4.88598 1.96417 0
M  V30 6155 H 588.421 -3.3357 1.77593 0
M  V30 6156 H 588.734 -6.50525 4.17178 0
M  V30 6157 H 587.079 -5.85409 3.74594 0
M  V30 6158 H 590.27 -4.09163 2.27384 0
M  V30 6159 H 590.443 -5.53708 3.36617 0
M  V30 6160 N 583.85 -0.624285 -1.44708 0
M  V30 6161 C 584.779 0.0717025 -2.3339 0
M  V30 6162 C 585.76 0.841814 -1.47809 0
M  V30 6163 O 586.946 0.809056 -1.76544 0
M  V30 6164 C 584.076 1.05852 -3.30776 0
M  V30 6165 C 583.029 0.400503 -4.26122 0
M  V30 6166 C 582.356 1.49674 -5.13324 0
M  V30 6167 C 583.656 -0.688924 -5.17737 0
M  V30 6168 H 585.35 -0.668819 -2.91834 0
M  V30 6169 H 582.896 -0.32308 -1.40329 0
M  V30 6170 H 584.849 1.5541 -3.91696 0
M  V30 6171 H 583.572 1.82984 -2.70526 0
M  V30 6172 H 582.231 -0.0743687 -3.66525 0
M  V30 6173 H 581.88 2.25877 -4.49431 0
M  V30 6174 H 581.58 1.06188 -5.77926 0
M  V30 6175 H 583.104 1.99427 -5.77115 0
M  V30 6176 H 584.518 -0.276724 -5.72632 0
M  V30 6177 H 582.915 -1.04652 -5.90904 0
M  V30 6178 H 583.985 -1.55884 -4.5916 0
M  V30 6179 N 585.328 1.53329 -0.364422 0
M  V30 6180 C 586.574 2.01537 0.225969 0
M  V30 6181 C 586.907 1.25128 1.48515 0
M  V30 6182 O 586.182 0.344653 1.91422 0
M  V30 6183 C 586.465 3.56339 0.519092 0
M  V30 6184 C 586.318 4.43441 -0.753639 0
M  V30 6185 C 587.637 4.19833 1.32015 0
M  V30 6186 H 584.756 0.732573 0.0806548 0
M  V30 6187 H 587.398 1.83597 -0.489084 0
M  V30 6188 H 585.548 3.71756 1.12825 0
M  V30 6189 H 587.22 4.39823 -1.39116 0
M  V30 6190 H 585.463 4.11457 -1.37424 0
M  V30 6191 H 586.134 5.49699 -0.503517 0
M  V30 6192 H 588.61 4.08242 0.804859 0
M  V30 6193 H 587.486 5.28177 1.49399 0
M  V30 6194 H 587.747 3.75821 2.32832 0
M  V30 6195 N 586.806 0.0935595 1.57322 0
M  V30 6196 C 587.769 -0.851426 2.12799 0
M  V30 6197 C 588.769 -1.21187 1.0569 0
M  V30 6198 O 589.959 -1.14156 1.31583 0
M  V30 6199 C 587.091 -2.14779 2.64731 0
M  V30 6200 H 588.284 -0.369733 2.97612 0
M  V30 6201 H 585.837 -0.155417 1.55525 0
M  V30 6202 H 586.572 -2.67437 1.83434 0
M  V30 6203 H 586.357 -1.89907 3.43042 0
M  V30 6204 H 587.847 -2.82383 3.07651 0
M  V30 6205 N 588.284 -1.56567 -0.180126 0
M  V30 6206 C 589.194 -1.98947 -1.24327 0
M  V30 6207 C 590.21 -0.899446 -1.4895 0
M  V30 6208 O 591.386 -1.20639 -1.61271 0
M  V30 6209 C 588.451 -2.33328 -2.56435 0
M  V30 6210 C 587.512 -3.56114 -2.39752 0
M  V30 6211 C 586.745 -3.88845 -3.65561 0
M  V30 6212 O 586.968 -3.22662 -4.70368 0
M  V30 6213 O 585.902 -4.82226 -3.60197 0
M  V30 6214 H 589.728 -2.89634 -0.913565 0
M  V30 6215 H 587.313 -1.44319 -0.386306 0
M  V30 6216 H 589.195 -2.5645 -3.34382 0
M  V30 6217 H 587.87 -1.45806 -2.89002 0
M  V30 6218 H 586.777 -3.38221 -1.59866 0
M  V30 6219 H 588.11 -4.4415 -2.12113 0
M  V30 6220 N 589.762 0.448376 -1.51087 0
M  V30 6221 C 590.694 1.56146 -1.67783 0
M  V30 6222 C 591.707 1.52913 -0.55871 0
M  V30 6223 O 592.896 1.57889 -0.83267 0
M  V30 6224 C 589.996 2.95057 -1.66716 0
M  V30 6225 C 589.169 3.22915 -2.95033 0
M  V30 6226 C 588.228 4.41495 -2.86302 0
M  V30 6227 O 587.254 4.40688 -3.60254 0
M  V30 6228 N 588.456 5.44443 -2.014 0
M  V30 6229 H 591.221 1.42232 -2.638 0
M  V30 6230 H 588.782 0.637153 -1.48835 0
M  V30 6231 H 590.774 3.72388 -1.58458 0
M  V30 6232 H 589.344 3.02624 -0.783403 0
M  V30 6233 H 588.564 2.33985 -3.17245 0
M  V30 6234 H 589.852 3.38349 -3.79996 0
M  V30 6235 H 589.25 5.4793 -1.40674 0
M  V30 6236 H 587.807 6.2067 -1.99029 0
M  V30 6237 N 591.24 1.41047 0.703093 0
M  V30 6238 C 592.465 1.43537 1.49706 0
M  V30 6239 C 592.89 0.0401853 1.88057 0
M  V30 6240 O 592.248 -0.954785 1.54122 0
M  V30 6241 C 592.296 2.3433 2.74084 0
M  V30 6242 O 591.4 1.79515 3.71279 0
M  V30 6243 H 590.741 0.487454 0.450871 0
M  V30 6244 H 593.271 1.85422 0.86486 0
M  V30 6245 H 593.281 2.49947 3.22476 0
M  V30 6246 H 591.956 3.35708 2.45506 0
M  V30 6247 H 590.533 1.7331 3.30179 0
M  V30 6248 N 592.718 -0.936591 1.26751 0
M  V30 6249 C 593.964 -1.6858 1.12733 0
M  V30 6250 C 594.297 -1.91414 -0.327745 0
M  V30 6251 O 593.572 -1.49812 -1.24043 0
M  V30 6252 C 593.855 -3.05779 1.90187 0
M  V30 6253 C 593.708 -2.90242 3.43627 0
M  V30 6254 C 595.027 -4.0597 1.69931 0
M  V30 6255 H 592.146 -0.61182 0.410908 0
M  V30 6256 H 594.788 -1.08747 1.55801 0
M  V30 6257 H 592.938 -3.56853 1.53584 0
M  V30 6258 H 594.61 -2.46354 3.9001 0
M  V30 6259 H 592.853 -2.2577 3.70419 0
M  V30 6260 H 593.524 -3.87572 3.93055 0
M  V30 6261 H 596 -3.63874 2.0183 0
M  V30 6262 H 594.876 -4.99974 2.26534 0
M  V30 6263 H 595.137 -4.37369 0.64502 0
M  V30 6264 N 594.196 -1.08629 -1.14182 0
M  V30 6265 C 595.146 -0.687882 -2.17376 0
M  V30 6266 C 596.13 0.293632 -1.58198 0
M  V30 6267 O 597.322 0.105292 -1.76687 0
M  V30 6268 C 594.451 -0.101184 -3.43151 0
M  V30 6269 C 593.537 -1.10862 -4.09354 0
M  V30 6270 N 593.928 -2.29285 -4.50846 0
M  V30 6271 C 592.226 -0.944897 -4.35876 0
M  V30 6272 C 592.927 -2.93305 -5.02342 0
M  V30 6273 N 591.903 -2.20903 -4.96692 0
M  V30 6274 H 595.705 -1.58963 -2.472 0
M  V30 6275 H 593.219 -0.961329 -1.3089 0
M  V30 6276 H 595.216 0.202209 -4.16409 0
M  V30 6277 H 593.876 0.795522 -3.14804 0
M  V30 6278 H 594.887 -2.66927 -4.43813 0
M  V30 6279 H 591.564 -0.102186 -4.17375 0
M  V30 6280 H 592.954 -3.93932 -5.44304 0
M  V30 6281 N 595.674 1.31259 -0.872281 0
M  V30 6282 C 596.914 1.98418 -0.490894 0
M  V30 6283 C 597.278 1.67429 0.939755 0
M  V30 6284 O 598.479 2.27818 1.42661 0
M  V30 6285 C 596.75 3.49583 -0.743408 0
M  V30 6286 S 598.309 4.36359 -0.462226 0
M  V30 6287 H 595.127 0.687005 -0.183151 0
M  V30 6288 H 597.729 1.59619 -1.12881 0
M  V30 6289 H 596.433 3.69627 -1.78338 0
M  V30 6290 H 595.964 3.93291 -0.0925758 0
M  V30 6291 H 597.979 4.91173 0.704525 0
M  V30 6292 N 597.152 0.631951 1.44375 0
M  V30 6293 C 598.082 -0.0593243 2.33425 0
M  V30 6294 C 599.063 -0.833964 1.48253 0
M  V30 6295 O 600.248 -0.799682 1.76971 0
M  V30 6296 C 597.378 -1.04096 3.31333 0
M  V30 6297 C 596.332 -0.377899 4.26328 0
M  V30 6298 C 595.658 -1.4695 5.14111 0
M  V30 6299 C 596.958 0.716371 5.17364 0
M  V30 6300 H 598.652 0.684287 2.91475 0
M  V30 6301 H 596.198 0.330518 1.40156 0
M  V30 6302 H 598.151 -1.53331 3.92514 0
M  V30 6303 H 596.875 -1.81547 2.71493 0
M  V30 6304 H 595.534 0.0938054 3.6648 0
M  V30 6305 H 595.182 -2.2349 4.50623 0
M  V30 6306 H 594.882 -1.03121 5.78481 0
M  V30 6307 H 596.406 -1.96363 5.78164 0
M  V30 6308 H 597.82 0.307089 5.72477 0
M  V30 6309 H 596.217 1.07784 5.90341 0
M  V30 6310 H 597.287 1.58316 4.58327 0
M  V30 6311 N 598.631 -1.53133 0.372548 0
M  V30 6312 C 600.042 -1.86404 -0.105155 0
M  V30 6313 C 600.393 -1.29289 -1.47576 0
M  V30 6314 O 599.518 -0.617646 -2.07398 0
M  V30 6315 C 600.113 -3.38223 -0.197588 0
M  V30 6316 C 598.672 -3.71266 -0.619556 0
M  V30 6317 C 597.819 -2.76353 0.228919 0
M  V30 6318 H 600.77 -1.47282 0.591077 0
M  V30 6319 H 600.791 -3.66577 -1.01987 0
M  V30 6320 H 600.303 -3.79763 0.800099 0
M  V30 6321 H 598.404 -3.35287 -1.62522 0
M  V30 6322 H 598.517 -4.77515 -0.389332 0
M  V30 6323 H 596.881 -2.52888 -0.303271 0
M  V30 6324 H 597.664 -3.20728 1.22428 0
M  V30 6325 N 600.109 -0.101901 -1.5727 0
M  V30 6326 C 601.072 0.840129 -2.13247 0
M  V30 6327 C 602.072 1.20625 -1.06331 0
M  V30 6328 O 603.262 1.13456 -1.32186 0
M  V30 6329 C 600.394 2.13372 -2.65867 0
M  V30 6330 H 601.587 0.353945 -2.97804 0
M  V30 6331 H 599.14 0.147167 -1.55606 0
M  V30 6332 H 599.875 2.66461 -1.84849 0
M  V30 6333 H 599.66 1.88085 -3.44044 0
M  V30 6334 H 601.15 2.80748 -3.09145 0
M  V30 6335 N 601.587 1.56661 0.17182 0
M  V30 6336 C 602.815 1.861 0.904115 0
M  V30 6337 C 603.23 0.687227 1.75848 0
M  V30 6338 O 602.587 -0.343671 1.79235 0
M  V30 6339 C 602.638 3.14568 1.78127 0
M  V30 6340 O 602.359 4.27422 0.961366 0
M  V30 6341 C 603.86 3.5735 2.62327 0
M  V30 6342 H 601.08 0.617445 0.262684 0
M  V30 6343 H 603.624 2.03775 0.172068 0
M  V30 6344 H 601.779 2.98721 2.46666 0
M  V30 6345 H 602.193 5.00725 1.56123 0
M  V30 6346 H 603.667 4.50144 3.1949 0
M  V30 6347 H 604.144 2.81445 3.37173 0
M  V30 6348 H 604.75 3.75807 1.99121 0
M  V30 6349 N 603.065 -0.440357 1.51323 0
M  V30 6350 C 604.305 -1.19956 1.65499 0
M  V30 6351 C 604.669 -1.88559 0.361878 0
M  V30 6352 O 605.87 -2.66109 0.379383 0
M  V30 6353 C 604.141 -2.1918 2.82303 0
M  V30 6354 S 605.7 -3.03627 3.1679 0
M  V30 6355 H 602.518 -0.406833 0.583102 0
M  V30 6356 H 605.12 -0.491596 1.89218 0
M  V30 6357 H 603.824 -1.67414 3.74701 0
M  V30 6358 H 603.355 -2.94561 2.60763 0
M  V30 6359 H 605.37 -4.20773 2.62991 0
M  V30 6360 N 604.543 -1.41418 -0.695603 0
M  V30 6361 C 605.79 -1.40774 -1.45564 0
M  V30 6362 C 606.118 -0.0168604 -1.94493 0
M  V30 6363 O 605.373 0.971259 -1.69897 0
M  V30 6364 C 605.672 -2.36112 -2.68302 0
M  V30 6365 C 605.338 -3.82952 -2.38031 0
M  V30 6366 C 604 -4.22954 -2.29486 0
M  V30 6367 C 606.352 -4.75662 -2.13061 0
M  V30 6368 C 603.68 -5.53674 -1.94067 0
M  V30 6369 C 606.032 -6.06702 -1.79151 0
M  V30 6370 C 604.696 -6.45725 -1.69102 0
M  V30 6371 H 603.966 -0.515128 -0.532658 0
M  V30 6372 H 606.613 -1.74216 -0.795047 0
M  V30 6373 H 604.918 -1.95924 -3.39295 0
M  V30 6374 H 606.615 -2.32887 -3.26442 0
M  V30 6375 H 603.205 -3.5127 -2.45576 0
M  V30 6376 H 607.389 -4.45561 -2.18608 0
M  V30 6377 H 602.645 -5.8279 -1.8484 0
M  V30 6378 H 606.819 -6.78041 -1.5885 0
M  V30 6379 H 604.446 -7.46929 -1.41426 0
M  V30 6380 N 606.021 0.929856 -1.27246 0
M  V30 6381 C 606.931 2.0636 -1.11592 0
M  V30 6382 C 607.947 1.73938 -0.046496 0
M  V30 6383 O 609.123 1.9981 -0.252544 0
M  V30 6384 C 606.188 3.38213 -0.762437 0
M  V30 6385 C 605.249 3.84346 -1.9125 0
M  V30 6386 C 604.482 5.09906 -1.57579 0
M  V30 6387 O 604.705 5.68354 -0.482694 0
M  V30 6388 O 603.639 5.51359 -2.41426 0
M  V30 6389 H 607.465 2.22478 -2.0673 0
M  V30 6390 H 605.05 1.04865 -1.06413 0
M  V30 6391 H 606.932 4.1741 -0.57854 0
M  V30 6392 H 605.607 3.23307 0.159439 0
M  V30 6393 H 604.514 3.06045 -2.15144 0
M  V30 6394 H 605.847 4.0379 -2.81451 0
M  V30 6395 N 607.499 1.09233 1.13605 0
M  V30 6396 C 608.729 0.847677 1.88409 0
M  V30 6397 C 609.137 -0.604524 1.79282 0
M  V30 6398 O 608.48 -1.42773 1.15592 0
M  V30 6399 C 608.542 1.20153 3.38827 0
M  V30 6400 C 608.206 2.65824 3.71735 0
M  V30 6401 C 609.203 3.64072 3.71143 0
M  V30 6402 C 606.888 3.01894 4.01454 0
M  V30 6403 C 608.882 4.96419 3.99808 0
M  V30 6404 C 606.569 4.34433 4.29781 0
M  V30 6405 C 607.567 5.31505 4.28942 0
M  V30 6406 O 607.255 6.61659 4.56576 0
M  V30 6407 H 606.987 0.304813 0.603378 0
M  V30 6408 H 609.541 1.4573 1.44748 0
M  V30 6409 H 607.771 0.534946 3.82982 0
M  V30 6410 H 609.46 0.936349 3.94952 0
M  V30 6411 H 610.226 3.37549 3.4826 0
M  V30 6412 H 606.105 2.26971 4.01255 0
M  V30 6413 H 609.649 5.7218 3.99069 0
M  V30 6414 H 605.546 4.607 4.52135 0
M  V30 6415 H 606.314 6.67102 4.74254 0
M  V30 6416 N 608.977 -1.30795 0.87923 0
M  V30 6417 C 610.388 -1.78535 0.546093 0
M  V30 6418 C 610.739 -1.72354 -0.937467 0
M  V30 6419 O 609.864 -1.2969 -1.73233 0
M  V30 6420 C 610.459 -3.24181 0.9845 0
M  V30 6421 C 609.018 -3.69779 0.702871 0
M  V30 6422 C 608.165 -2.51377 1.17068 0
M  V30 6423 H 611.116 -1.17746 1.06403 0
M  V30 6424 H 611.137 -3.79227 0.311045 0
M  V30 6425 H 610.649 -3.28647 2.06429 0
M  V30 6426 H 608.75 -3.70806 -0.365166 0
M  V30 6427 H 608.863 -4.61507 1.28639 0
M  V30 6428 H 607.227 -2.47768 0.590172 0
M  V30 6429 H 608.01 -2.58584 2.25808 0
M  V30 6430 N 610.455 -0.639598 -1.44038 0
M  V30 6431 C 611.403 0.0723409 -2.32487 0
M  V30 6432 C 612.397 0.827129 -1.47834 0
M  V30 6433 O 613.603 0.73907 -1.64127 0
M  V30 6434 H 609.978 0.0421696 -0.750817 0
M  V30 6435 H 611.949 -0.691593 -2.90275 0
M  V30 6436 C 610.698 1.03452 -3.31953 0
M  V30 6437 H 610.021 0.46315 -3.97108 0
M  V30 6438 H 611.461 1.502 -3.96505 0
M  V30 6439 C 609.92 2.12392 -2.61518 0
M  V30 6440 O 610.45 3.2059 -2.42044 0
M  V30 6441 N 608.656 1.88563 -2.21116 0
M  V30 6442 H 608.203 1.00577 -2.37154 0
M  V30 6443 H 608.161 2.61651 -1.74316 0
M  V30 6444 N 611.933 1.52934 -0.380664 0
M  V30 6445 C 613.18 2.01467 0.204278 0
M  V30 6446 C 613.508 1.26744 1.47533 0
M  V30 6447 O 612.763 0.353723 1.92477 0
M  V30 6448 C 613.062 3.5349 0.527199 0
M  V30 6449 C 612.728 4.46171 -0.651295 0
M  V30 6450 C 611.39 4.71227 -0.974619 0
M  V30 6451 C 613.742 5.00909 -1.44012 0
M  V30 6452 C 611.07 5.4827 -2.08847 0
M  V30 6453 C 613.422 5.7917 -2.5445 0
M  V30 6454 C 612.086 6.02507 -2.87301 0
M  V30 6455 H 611.356 0.73722 0.0747504 0
M  V30 6456 H 614.003 1.84411 -0.516234 0
M  V30 6457 H 612.308 3.68574 1.32892 0
M  V30 6458 H 614.005 3.88529 0.992283 0
M  V30 6459 H 610.595 4.26829 -0.389276 0
M  V30 6460 H 614.779 4.81485 -1.20357 0
M  V30 6461 H 610.035 5.64567 -2.34679 0
M  V30 6462 H 614.209 6.20588 -3.1598 0
M  V30 6463 H 611.836 6.61989 -3.7373 0
M  V30 6464 N 613.412 0.11024 1.57214 0
M  V30 6465 C 614.661 -0.549638 1.94067 0
M  V30 6466 C 614.974 -1.68388 0.995234 0
M  V30 6467 O 616.18 -2.40593 1.25807 0
M  V30 6468 C 614.636 -1.02912 3.44873 0
M  V30 6469 C 614.244 0.0761861 4.47935 0
M  V30 6470 C 615.988 -1.66087 3.9066 0
M  V30 6471 C 613.895 -0.419502 5.8991 0
M  V30 6472 H 612.825 -0.209092 0.724428 0
M  V30 6473 H 615.476 0.188683 1.82527 0
M  V30 6474 H 613.858 -1.82159 3.51616 0
M  V30 6475 H 615.032 0.852185 4.52851 0
M  V30 6476 H 613.347 0.614052 4.11847 0
M  V30 6477 H 615.944 -2.04272 4.94143 0
M  V30 6478 H 616.287 -2.53591 3.30148 0
M  V30 6479 H 616.82 -0.933959 3.86681 0
M  V30 6480 H 613.559 0.419277 6.54158 0
M  V30 6481 H 613.079 -1.16217 5.88433 0
M  V30 6482 H 614.758 -0.883577 6.40938 0
M  V30 6483 N 614.89 -1.56749 -0.16351 0
M  V30 6484 C 616.306 -1.51043 -0.515567 0
M  V30 6485 C 616.506 -0.815855 -1.84245 0
M  V30 6486 O 615.562 -0.379477 -2.49632 0
M  V30 6487 C 616.875 -2.95791 -0.541114 0
M  V30 6488 C 618.423 -3.0664 -0.627776 0
M  V30 6489 C 618.898 -4.52861 -0.684141 0
M  V30 6490 N 620.389 -4.5714 -0.746818 0
M  V30 6491 C 621.124 -5.67634 -0.811137 0
M  V30 6492 N 620.62 -6.8774 -0.835811 0
M  V30 6493 N 622.413 -5.55624 -0.850756 0
M  V30 6494 H 614.564 -2.00307 0.70645 0
M  V30 6495 H 616.827 -0.912876 0.255659 0
M  V30 6496 H 616.533 -3.49797 0.365329 0
M  V30 6497 H 616.407 -3.50858 -1.38487 0
M  V30 6498 H 618.794 -2.52663 -1.52464 0
M  V30 6499 H 618.875 -2.54645 0.242805 0
M  V30 6500 H 618.519 -5.07472 0.2085 0
M  V30 6501 H 618.449 -5.02621 -1.57098 0
M  V30 6502 H 620.94 -3.70669 -0.735717 0
M  V30 6503 H 621.253 -7.67701 -0.886279 0
M  V30 6504 H 619.598 -6.90334 -0.803958 0
M  V30 6505 H 622.789 -4.60709 -0.828535 0
M  V30 6506 H 622.962 -6.41756 -0.897418 0
M  V30 6507 N 616.368 0.432326 -1.51554 0
M  V30 6508 C 617.614 1.18309 -1.64714 0
M  V30 6509 C 617.947 1.90745 -0.364696 0
M  V30 6510 O 617.222 1.8381 0.635936 0
M  V30 6511 C 617.505 2.1961 -2.85383 0
M  V30 6512 C 617.358 1.51223 -4.23617 0
M  V30 6513 C 618.677 3.20538 -3.01569 0
M  V30 6514 H 615.796 0.428751 -0.599451 0
M  V30 6515 H 618.438 0.471689 -1.84052 0
M  V30 6516 H 616.588 2.8028 -2.69027 0
M  V30 6517 H 618.26 0.938516 -4.51652 0
M  V30 6518 H 616.503 0.814501 -4.26085 0
M  V30 6519 H 617.174 2.25024 -5.04052 0
M  V30 6520 H 619.65 2.69926 -3.16669 0
M  V30 6521 H 618.526 3.88706 -3.87555 0
M  V30 6522 H 618.787 3.86933 -2.13859 0
M  V30 6523 N 617.846 1.41785 0.688094 0
M  V30 6524 C 619.092 1.41753 1.4503 0
M  V30 6525 C 619.425 0.0290745 1.94178 0
M  V30 6526 O 618.7 -0.944456 1.7003 0
M  V30 6527 C 618.983 2.43069 2.65686 0
M  V30 6528 C 618.836 3.91053 2.22256 0
M  V30 6529 C 620.155 2.41543 3.67893 0
M  V30 6530 H 617.274 0.516202 0.526027 0
M  V30 6531 H 619.916 1.73111 0.783105 0
M  V30 6532 H 618.066 2.1646 3.2261 0
M  V30 6533 H 619.738 4.28594 1.70602 0
M  V30 6534 H 617.981 4.05559 1.53963 0
M  V30 6535 H 618.652 4.57501 3.08863 0
M  V30 6536 H 621.128 2.65175 3.20658 0
M  V30 6537 H 620.004 3.14434 4.49914 0
M  V30 6538 H 620.265 1.43666 4.18106 0
M  V30 6539 N 619.324 -0.923095 1.27737 0
M  V30 6540 C 620.573 -1.66581 1.13727 0
M  V30 6541 C 620.886 -1.9304 -0.315433 0
M  V30 6542 O 622.092 -2.65309 -0.57651 0
M  V30 6543 C 620.548 -3.00047 1.98745 0
M  V30 6544 C 620.156 -2.8127 3.48699 0
M  V30 6545 C 621.9 -3.77887 1.93395 0
M  V30 6546 C 619.807 -4.1032 4.25901 0
M  V30 6547 H 618.737 -0.624834 0.422017 0
M  V30 6548 H 621.388 -1.02514 1.52194 0
M  V30 6549 H 619.77 -3.65197 1.53125 0
M  V30 6550 H 620.944 -2.24859 4.02213 0
M  V30 6551 H 619.259 -2.16854 3.55476 0
M  V30 6552 H 621.856 -4.73526 2.48348 0
M  V30 6553 H 622.199 -4.06264 0.908605 0
M  V30 6554 H 622.732 -3.19541 2.36935 0
M  V30 6555 H 619.471 -3.8712 5.28978 0
M  V30 6556 H 618.991 -4.66377 3.77163 0
M  V30 6557 H 620.67 -4.78648 4.35321 0
M  V30 6558 N 620.802 -1.09834 -1.13024 0
M  V30 6559 C 622.03 -0.858902 -1.8823 0
M  V30 6560 C 622.445 0.590164 -1.79339 0
M  V30 6561 O 621.802 1.4065 -1.16292 0
M  V30 6562 C 621.853 -1.29066 -3.37675 0
M  V30 6563 O 621.574 -2.6829 -3.46341 0
M  V30 6564 C 623.075 -1.08421 -4.29837 0
M  V30 6565 H 620.295 -0.308713 -0.595766 0
M  V30 6566 H 622.839 -1.4614 -1.4305 0
M  V30 6567 H 620.994 -0.731961 -3.80422 0
M  V30 6568 H 621.408 -2.86598 -4.39274 0
M  V30 6569 H 622.882 -1.43553 -5.33007 0
M  V30 6570 H 623.359 -0.0223315 -4.39194 0
M  V30 6571 H 623.965 -1.62907 -3.92863 0
M  V30 6572 N 622.28 1.30327 -0.886154 0
M  V30 6573 C 623.526 1.96388 -0.505941 0
M  V30 6574 C 623.859 1.69784 0.942712 0
M  V30 6575 O 623.134 1.00322 1.6663 0
M  V30 6576 C 623.417 3.51488 -0.782826 0
M  V30 6577 C 623.27 3.87603 -2.28219 0
M  V30 6578 C 624.589 4.39331 -0.260128 0
M  V30 6579 H 621.708 0.713327 -0.185292 0
M  V30 6580 H 624.35 1.54178 -1.11036 0
M  V30 6581 H 622.5 3.87572 -0.268399 0
M  V30 6582 H 624.172 3.61537 -2.86512 0
M  V30 6583 H 622.415 3.3563 -2.74837 0
M  V30 6584 H 623.086 4.95806 -2.42653 0
M  V30 6585 H 625.562 4.10162 -0.700444 0
M  V30 6586 H 624.438 5.46769 -0.483179 0
M  V30 6587 H 624.699 4.34072 0.838674 0
M  V30 6588 N 623.758 0.647228 1.43697 0
M  V30 6589 C 625.169 0.238689 1.85168 0
M  V30 6590 C 625.52 -1.21345 1.54175 0
M  V30 6591 O 624.645 -1.92542 0.987743 0
M  V30 6592 C 625.24 0.426422 3.36106 0
M  V30 6593 C 623.799 0.0722541 3.76331 0
M  V30 6594 C 622.946 0.732153 2.6746 0
M  V30 6595 H 625.897 0.851309 1.33934 0
M  V30 6596 H 625.918 -0.32987 3.79067 0
M  V30 6597 H 625.43 1.48339 3.58632 0
M  V30 6598 H 623.531 -0.982355 3.59417 0
M  V30 6599 H 623.644 0.493541 4.76551 0
M  V30 6600 H 622.008 0.16594 2.54159 0
M  V30 6601 H 622.791 1.79204 2.92816 0
M  V30 6602 N 625.236 -1.5273 0.388769 0
M  V30 6603 C 626.146 -2.30165 -0.453993 0
M  V30 6604 C 627.162 -1.37058 -1.07197 0
M  V30 6605 O 628.338 -1.70127 -1.0779 0
M  V30 6606 C 625.403 -3.09303 -1.56628 0
M  V30 6607 C 624.464 -4.18117 -0.973467 0
M  V30 6608 C 623.697 -4.93472 -2.03275 0
M  V30 6609 O 623.92 -4.68913 -3.24772 0
M  V30 6610 O 622.854 -5.78833 -1.65034 0
M  V30 6611 H 626.68 -3.03185 0.176816 0
M  V30 6612 H 624.265 -1.4862 0.152501 0
M  V30 6613 H 626.147 -3.58648 -2.21246 0
M  V30 6614 H 624.822 -2.39098 -2.18206 0
M  V30 6615 H 623.729 -3.7297 -0.290556 0
M  V30 6616 H 625.062 -4.90556 -0.401908 0
M  V30 6617 N 626.714 -0.118576 -1.57153 0
M  V30 6618 C 627.96 0.540326 -1.95469 0
M  V30 6619 C 628.293 1.66356 -1.00196 0
M  V30 6620 O 627.568 1.94461 -0.039104 0
M  V30 6621 C 627.851 1.07342 -3.43729 0
M  V30 6622 C 627.704 -0.0463732 -4.49776 0
M  V30 6623 C 629.023 1.96442 -3.93826 0
M  V30 6624 H 626.142 0.19494 -0.710751 0
M  V30 6625 H 628.784 -0.19405 -1.89006 0
M  V30 6626 H 626.934 1.69925 -3.49368 0
M  V30 6627 H 628.606 -0.681648 -4.56236 0
M  V30 6628 H 626.849 -0.709574 -4.27957 0
M  V30 6629 H 627.52 0.367856 -5.50773 0
M  V30 6630 H 629.996 1.43731 -3.90488 0
M  V30 6631 H 628.872 2.3066 -4.98084 0
M  V30 6632 H 629.133 2.89077 -3.34495 0
M  V30 6633 N 628.193 1.56834 0.155195 0
M  V30 6634 C 629.126 1.9278 1.22111 0
M  V30 6635 C 630.104 0.792588 1.41975 0
M  V30 6636 O 631.288 1.04743 1.5672 0
M  V30 6637 C 628.415 2.19273 2.58142 0
M  V30 6638 C 627.461 3.41932 2.54921 0
M  V30 6639 S 628.294 4.95769 2.02418 0
M  V30 6640 C 629.45 5.25375 3.40194 0
M  V30 6641 H 629.683 2.82889 0.914393 0
M  V30 6642 H 627.216 1.50133 0.360461 0
M  V30 6643 H 629.174 2.35217 3.36427 0
M  V30 6644 H 627.835 1.29843 2.86007 0
M  V30 6645 H 627.028 3.57721 3.55038 0
M  V30 6646 H 626.63 3.25188 1.8474 0
M  V30 6647 H 628.922 5.1834 4.36268 0
M  V30 6648 H 629.865 6.26889 3.29266 0
M  V30 6649 H 630.273 4.52906 3.36951 0
M  V30 6650 N 629.671 -0.424282 1.51781 0
M  V30 6651 C 630.604 -1.53633 1.68737 0
M  V30 6652 C 631.582 -1.53549 0.534915 0
M  V30 6653 O 632.766 -1.72483 0.760391 0
M  V30 6654 C 629.893 -2.92195 1.71288 0
M  V30 6655 C 628.939 -3.10251 2.92654 0
M  V30 6656 S 629.772 -2.85166 4.53256 0
M  V30 6657 C 630.928 -4.25986 4.58571 0
M  V30 6658 H 631.161 -1.39018 2.62795 0
M  V30 6659 H 628.694 -0.614854 1.41629 0
M  V30 6660 H 630.652 -3.72059 1.73443 0
M  V30 6661 H 629.313 -3.04162 0.783847 0
M  V30 6662 H 628.506 -4.1159 2.90877 0
M  V30 6663 H 628.108 -2.38231 2.88308 0
M  V30 6664 H 630.4 -5.19392 4.35015 0
M  V30 6665 H 631.343 -4.32792 5.60444 0
M  V30 6666 H 631.751 -4.1025 3.87757 0
M  V30 6667 N 631.149 -1.42148 -0.680565 0
M  V30 6668 C 632.079 -1.4796 -1.80638 0
M  V30 6669 C 633.06 -0.336728 -1.66734 0
M  V30 6670 O 634.245 -0.550247 -1.86242 0
M  V30 6671 C 631.375 -1.37569 -3.18892 0
M  V30 6672 C 630.329 -2.49823 -3.47524 0
M  V30 6673 C 629.655 -2.24491 -4.85291 0
M  V30 6674 C 630.955 -3.92144 -3.44994 0
M  V30 6675 H 632.649 -2.42184 -1.76032 0
M  V30 6676 H 630.195 -1.16566 -0.845481 0
M  V30 6677 H 632.148 -1.40243 -3.97379 0
M  V30 6678 H 630.872 -0.398357 -3.24162 0
M  V30 6679 H 629.531 -2.46455 -2.71395 0
M  V30 6680 H 629.179 -1.25066 -4.87204 0
M  V30 6681 H 628.879 -2.99722 -5.05411 0
M  V30 6682 H 630.403 -2.28906 -5.66069 0
M  V30 6683 H 631.817 -3.97145 -4.13459 0
M  V30 6684 H 630.214 -4.67179 -3.76648 0
M  V30 6685 H 631.284 -4.19225 -2.43676 0
M  V30 6686 N 632.627 0.916307 -1.28225 0
M  V30 6687 C 633.537 2.05165 -1.13775 0
M  V30 6688 C 634.553 1.73879 -0.0649418 0
M  V30 6689 O 635.729 1.99531 -0.273722 0
M  V30 6690 C 632.794 3.37385 -0.798267 0
M  V30 6691 C 631.855 3.82296 -1.95316 0
M  V30 6692 C 631.088 5.08206 -1.62978 0
M  V30 6693 O 631.311 5.6781 -0.542948 0
M  V30 6694 O 630.245 5.48768 -2.47261 0
M  V30 6695 H 634.071 2.20273 -2.09078 0
M  V30 6696 H 631.656 1.0373 -1.07519 0
M  V30 6697 H 633.538 4.16773 -0.62278 0
M  V30 6698 H 632.213 3.23458 0.125139 0
M  V30 6699 H 631.12 3.03746 -2.18378 0
M  V30 6700 H 632.453 4.00782 -2.85718 0
M  V30 6701 N 634.105 1.10431 1.1244 0
M  V30 6702 C 635.068 0.756542 2.16354 0
M  V30 6703 C 636.068 -0.21899 1.59302 0
M  V30 6704 O 637.258 0.00415969 1.742 0
M  V30 6705 C 634.39 0.120612 3.40687 0
M  V30 6706 H 635.583 1.67696 2.48632 0
M  V30 6707 H 633.136 0.904832 1.27446 0
M  V30 6708 H 633.871 -0.810536 3.14008 0
M  V30 6709 H 633.656 0.822693 3.83372 0
M  V30 6710 H 635.146 -0.106945 4.17463 0
M  V30 6711 N 635.583 -1.29855 0.893053 0
M  V30 6712 C 636.823 -1.97612 0.522399 0
M  V30 6713 C 637.187 -1.68903 -0.913 0
M  V30 6714 O 638.388 -2.30059 -1.39019 0
M  V30 6715 C 636.659 -3.48356 0.79893 0
M  V30 6716 S 638.218 -4.35568 0.531588 0
M  V30 6717 H 635.036 -0.684005 0.194058 0
M  V30 6718 H 637.638 -1.57803 1.15406 0
M  V30 6719 H 636.342 -3.66743 1.84196 0
M  V30 6720 H 635.873 -3.93094 0.155133 0
M  V30 6721 H 637.888 -4.92232 -0.626295 0
M  V30 6722 N 637.061 -0.65484 -1.43351 0
M  V30 6723 C 638.286 -0.175046 -2.0666 0
M  V30 6724 C 638.711 1.15104 -1.4877 0
M  V30 6725 O 638.069 1.71144 -0.598279 0
M  V30 6726 C 638.117 -0.0991544 -3.60464 0
M  V30 6727 O 637.221 0.938169 -4.01587 0
M  V30 6728 H 636.562 -0.0956148 -0.65708 0
M  V30 6729 H 639.092 -0.898222 -1.83829 0
M  V30 6730 H 639.102 0.083632 -4.07914 0
M  V30 6731 H 637.777 -1.06719 -4.01975 0
M  V30 6732 H 636.354 0.72804 -3.65724 0
M  V30 6733 N 638.539 1.52521 -0.396863 0
M  V30 6734 C 639.955 1.5953 -0.0471659 0
M  V30 6735 C 640.155 1.41044 1.43906 0
M  V30 6736 O 639.211 1.23122 2.20448 0
M  V30 6737 C 640.524 2.95972 -0.531113 0
M  V30 6738 C 642.072 3.09172 -0.488024 0
M  V30 6739 C 642.547 4.48075 -0.948281 0
M  V30 6740 N 644.038 4.54281 -0.9046 0
M  V30 6741 C 644.773 5.60007 -1.23205 0
M  V30 6742 N 644.269 6.73343 -1.63036 0
M  V30 6743 N 646.062 5.50151 -1.15282 0
M  V30 6744 H 638.213 1.62786 -1.36435 0
M  V30 6745 H 640.476 0.76514 -0.559701 0
M  V30 6746 H 640.182 3.14741 -1.56942 0
M  V30 6747 H 640.056 3.77143 0.0657922 0
M  V30 6748 H 642.443 2.90095 0.541211 0
M  V30 6749 H 642.524 2.29937 -1.12083 0
M  V30 6750 H 642.168 4.67894 -1.97578 0
M  V30 6751 H 642.098 5.25788 -0.292412 0
M  V30 6752 H 644.589 3.72918 -0.6116 0
M  V30 6753 H 644.902 7.49992 -1.86365 0
M  V30 6754 H 643.247 6.74655 -1.66929 0
M  V30 6755 H 646.438 4.6049 -0.840602 0
M  V30 6756 H 646.611 6.32444 -1.41133 0
M  V30 6757 N 640.017 0.126909 1.57088 0
M  V30 6758 C 641.266 -0.529024 1.94639 0
M  V30 6759 C 641.579 -1.67323 1.01304 0
M  V30 6760 O 642.785 -2.39245 1.28352 0
M  V30 6761 C 641.241 -0.992483 3.45945 0
M  V30 6762 C 640.849 0.123691 4.47829 0
M  V30 6763 C 642.593 -1.61934 3.924 0
M  V30 6764 C 640.5 -0.356911 5.90322 0
M  V30 6765 H 639.43 -0.201397 0.726605 0
M  V30 6766 H 642.081 0.208032 1.82317 0
M  V30 6767 H 640.463 -1.7842 3.53528 0
M  V30 6768 H 641.637 0.900168 4.51922 0
M  V30 6769 H 639.952 0.657699 4.11173 0
M  V30 6770 H 642.549 -1.9902 4.96281 0
M  V30 6771 H 642.892 -2.50075 3.32819 0
M  V30 6772 H 643.425 -0.892894 3.8765 0
M  V30 6773 H 640.164 0.488636 6.53676 0
M  V30 6774 H 639.684 -1.0997 5.89633 0
M  V30 6775 H 641.363 -0.815547 6.41839 0
M  V30 6776 N 641.495 -1.56914 -0.146875 0
M  V30 6777 C 642.427 -1.94878 -1.20645 0
M  V30 6778 C 643.44 -0.844633 -1.39175 0
M  V30 6779 O 644.629 -1.12304 -1.38744 0
M  V30 6780 C 641.729 -2.20769 -2.57127 0
M  V30 6781 C 640.902 -3.52053 -2.59572 0
M  V30 6782 C 639.961 -3.66482 -3.77594 0
M  V30 6783 O 638.987 -4.38873 -3.62462 0
M  V30 6784 N 640.189 -3.03156 -4.95052 0
M  V30 6785 H 642.954 -2.86374 -0.883757 0
M  V30 6786 H 640.515 -1.58366 -0.336436 0
M  V30 6787 H 642.507 -2.27664 -3.34591 0
M  V30 6788 H 641.077 -1.35538 -2.81688 0
M  V30 6789 H 640.297 -3.56598 -1.68023 0
M  V30 6790 H 641.585 -4.38396 -2.58238 0
M  V30 6791 H 640.983 -2.44258 -5.10249 0
M  V30 6792 H 639.54 -3.15611 -5.70292 0
M  V30 6793 N 642.974 0.416227 -1.52004 0
M  V30 6794 C 643.884 1.53147 -1.77717 0
M  V30 6795 C 644.9 1.609 -0.662368 0
M  V30 6796 O 646.076 1.77747 -0.946991 0
M  V30 6797 C 643.141 2.88948 -1.91598 0
M  V30 6798 C 642.202 2.9114 -3.15493 0
M  V30 6799 C 641.435 4.20464 -3.28703 0
M  V30 6800 O 641.658 5.13981 -2.47345 0
M  V30 6801 O 640.592 4.29368 -4.21813 0
M  V30 6802 H 644.418 1.34357 -2.72363 0
M  V30 6803 H 642.003 0.601373 -1.36762 0
M  V30 6804 H 643.885 3.69505 -2.02593 0
M  V30 6805 H 642.56 3.07821 -1.00141 0
M  V30 6806 H 641.467 2.09461 -3.09962 0
M  V30 6807 H 642.8 2.77216 -4.06709 0
M  V30 6808 N 644.452 1.42507 0.673017 0
M  V30 6809 C 645.699 1.43072 1.43306 0
M  V30 6810 C 646.027 0.0478004 1.94441 0
M  V30 6811 O 645.282 -0.944106 1.71421 0
M  V30 6812 C 645.581 2.40351 2.64511 0
M  V30 6813 C 645.247 3.8669 2.31908 0
M  V30 6814 C 643.909 4.26551 2.22728 0
M  V30 6815 C 646.261 4.78991 2.05467 0
M  V30 6816 C 643.589 5.56691 1.85234 0
M  V30 6817 C 645.941 6.09476 1.69477 0
M  V30 6818 C 644.605 6.48334 1.58808 0
M  V30 6819 H 643.875 0.523536 0.524395 0
M  V30 6820 H 646.522 1.75459 0.76723 0
M  V30 6821 H 644.827 2.01297 3.36135 0
M  V30 6822 H 646.524 2.38051 3.22696 0
M  V30 6823 H 643.114 3.55132 2.39956 0
M  V30 6824 H 647.298 4.48982 2.11492 0
M  V30 6825 H 642.554 5.85657 1.75545 0
M  V30 6826 H 646.728 6.80482 1.48043 0
M  V30 6827 H 644.355 7.49084 1.29525 0
M  V30 6828 N 645.93 -0.909495 1.28709 0
M  V30 6829 C 647.17 -1.67344 1.17368 0
M  V30 6830 C 647.534 -1.90058 -0.272419 0
M  V30 6831 O 648.735 -2.63944 -0.508617 0
M  V30 6832 C 647.006 -2.99219 1.95455 0
M  V30 6833 S 648.565 -3.90295 2.00538 0
M  V30 6834 H 645.383 -0.57466 0.418672 0
M  V30 6835 H 647.985 -1.08144 1.62865 0
M  V30 6836 H 646.689 -2.80393 2.9968 0
M  V30 6837 H 646.22 -3.63464 1.50524 0
M  V30 6838 H 648.235 -4.83511 1.11496 0
M  V30 6839 N 647.408 -1.11026 -1.11852 0
M  V30 6840 C 648.318 -0.777252 -2.2135 0
M  V30 6841 C 649.334 0.227821 -1.72502 0
M  V30 6842 O 650.51 0.0650587 -2.01295 0
M  V30 6843 C 647.575 -0.220668 -3.45997 0
M  V30 6844 C 646.636 -1.2838 -4.09655 0
M  V30 6845 C 645.869 -0.753678 -5.28352 0
M  V30 6846 O 646.092 0.417779 -5.68868 0
M  V30 6847 O 645.026 -1.51647 -5.82483 0
M  V30 6848 H 648.852 -1.69141 -2.5224 0
M  V30 6849 H 646.437 -0.885836 -1.20305 0
M  V30 6850 H 648.319 0.0855756 -4.21313 0
M  V30 6851 H 646.994 0.666262 -3.16769 0
M  V30 6852 H 645.901 -1.64299 -3.3609 0
M  V30 6853 H 647.234 -2.14396 -4.43052 0
M  V30 6854 N 648.886 1.2938 -0.899927 0
M  V30 6855 C 649.818 2.26737 -0.335139 0
M  V30 6856 C 650.831 1.54316 0.518681 0
M  V30 6857 O 652.02 1.75313 0.335803 0
M  V30 6858 C 649.12 3.34558 0.540774 0
M  V30 6859 C 648.293 4.36455 -0.287372 0
M  V30 6860 C 647.352 5.2361 0.52141 0
M  V30 6861 O 646.378 5.69167 -0.0611735 0
M  V30 6862 N 647.58 5.50985 1.82745 0
M  V30 6863 H 650.345 2.75838 -1.17191 0
M  V30 6864 H 647.906 1.42716 -0.764438 0
M  V30 6865 H 649.898 3.89794 1.08825 0
M  V30 6866 H 648.468 2.85272 1.27823 0
M  V30 6867 H 647.688 3.80875 -1.01626 0
M  V30 6868 H 648.976 5.01573 -0.854518 0
M  V30 6869 H 648.374 5.15781 2.32349 0
M  V30 6870 H 646.931 6.09036 2.32204 0
M  V30 6871 N 650.364 0.662433 1.43002 0
M  V30 6872 C 651.314 -0.0460442 2.27954 0
M  V30 6873 C 652.298 -0.785753 1.40409 0
M  V30 6874 O 653.49 -0.666701 1.63964 0
M  V30 6875 C 650.619 -1.00532 3.2825 0
M  V30 6876 C 649.705 -0.263604 4.2328 0
M  V30 6877 N 650.096 0.724855 5.00579 0
M  V30 6878 C 648.394 -0.503778 4.43146 0
M  V30 6879 C 649.095 1.16594 5.69895 0
M  V30 6880 N 648.071 0.498345 5.41311 0
M  V30 6881 H 651.873 0.712314 2.85137 0
M  V30 6882 H 649.387 0.490469 1.54817 0
M  V30 6883 H 651.384 -1.52775 3.87899 0
M  V30 6884 H 650.044 -1.76364 2.72628 0
M  V30 6885 H 651.055 1.10393 5.05998 0
M  V30 6886 H 647.732 -1.24255 3.98581 0
M  V30 6887 H 649.122 1.98434 6.4193 0
M  V30 6888 N 651.842 -1.52309 0.404946 0
M  V30 6889 C 653.072 -2.05886 -0.171569 0
M  V30 6890 C 653.48 -1.27527 -1.39762 0
M  V30 6891 O 652.823 -0.319215 -1.80905 0
M  V30 6892 C 652.885 -3.54609 -0.590983 0
M  V30 6893 C 652.549 -4.53989 0.523757 0
M  V30 6894 C 653.546 -5.01084 1.38604 0
M  V30 6895 C 651.231 -4.97465 0.695255 0
M  V30 6896 C 653.225 -5.90295 2.4048 0
M  V30 6897 C 650.912 -5.86473 1.71733 0
M  V30 6898 C 651.91 -6.32782 2.57051 0
M  V30 6899 O 651.598 -7.20029 3.57509 0
M  V30 6900 H 651.33 -0.675508 -0.0257763 0
M  V30 6901 H 653.884 -1.97238 0.573278 0
M  V30 6902 H 652.114 -3.60929 -1.38805 0
M  V30 6903 H 653.803 -3.90853 -1.09494 0
M  V30 6904 H 654.569 -4.68214 1.26492 0
M  V30 6905 H 650.448 -4.60982 0.0408447 0
M  V30 6906 H 653.992 -6.26363 3.07108 0
M  V30 6907 H 649.889 -6.18756 1.83877 0
M  V30 6908 H 650.657 -7.3813 3.53703 0
M  V30 6909 N 653.32 -0.135238 -1.57019 0
M  V30 6910 C 654.27 0.820408 -2.12728 0
M  V30 6911 C 655.254 1.21735 -1.05211 0
M  V30 6912 O 656.446 1.18574 -1.31413 0
M  V30 6913 C 653.575 2.06414 -2.74314 0
M  V30 6914 C 652.661 1.69083 -3.88937 0
M  V30 6915 N 653.052 1.0251 -4.95303 0
M  V30 6916 C 651.35 1.98434 -3.99425 0
M  V30 6917 C 652.051 0.846749 -5.75504 0
M  V30 6918 N 651.027 1.3769 -5.25873 0
M  V30 6919 H 654.829 0.302426 -2.9234 0
M  V30 6920 H 652.343 0.0667009 -1.62263 0
M  V30 6921 H 654.34 2.75863 -3.12579 0
M  V30 6922 H 653 2.58741 -1.96171 0
M  V30 6923 H 654.011 0.687207 -5.1332 0
M  V30 6924 H 650.688 2.52693 -3.32344 0
M  V30 6925 H 652.078 0.322949 -6.71123 0
M  V30 6926 N 654.798 1.5699 0.138552 0
M  V30 6927 C 656.038 1.85619 0.855849 0
M  V30 6928 C 656.402 0.720663 1.77962 0
M  V30 6929 O 657.603 0.888221 2.53701 0
M  V30 6930 C 655.874 3.19447 1.60275 0
M  V30 6931 S 657.433 3.69656 2.36431 0
M  V30 6932 H 654.251 0.650926 0.286035 0
M  V30 6933 H 656.853 1.9516 0.115331 0
M  V30 6934 H 655.557 4.00053 0.915737 0
M  V30 6935 H 655.088 3.12935 2.38402 0
M  V30 6936 H 657.103 3.39595 3.61787 0
M  V30 6937 N 656.276 -0.40816 1.52223 0
M  V30 6938 C 657.239 -1.48 1.7501 0
M  V30 6939 C 658.239 -1.48367 0.619996 0
M  V30 6940 O 659.429 -1.49874 0.887881 0
M  V30 6941 C 656.561 -2.87403 1.83336 0
M  V30 6942 H 657.754 -1.29086 2.70697 0
M  V30 6943 H 655.307 -0.638715 1.42654 0
M  V30 6944 H 656.042 -3.11686 0.895677 0
M  V30 6945 H 655.827 -2.8854 2.65494 0
M  V30 6946 H 657.317 -3.65103 2.02705 0
M  V30 6947 N 657.755 -1.42862 -0.66545 0
M  V30 6948 C 658.665 -1.49491 -1.80803 0
M  V30 6949 C 659.681 -0.382914 -1.69734 0
M  V30 6950 O 660.857 -0.635223 -1.9112 0
M  V30 6951 C 657.922 -1.40383 -3.17007 0
M  V30 6952 C 656.983 -2.62152 -3.39963 0
M  V30 6953 C 656.216 -2.53469 -4.69669 0
M  V30 6954 O 656.439 -1.57568 -5.48205 0
M  V30 6955 O 655.373 -3.43763 -4.94075 0
M  V30 6956 H 659.199 -2.45949 -1.78165 0
M  V30 6957 H 656.784 -1.24728 -0.822387 0
M  V30 6958 H 658.666 -1.377 -3.98267 0
M  V30 6959 H 657.341 -0.470546 -3.20262 0
M  V30 6960 H 656.248 -2.70409 -2.58515 0
M  V30 6961 H 657.581 -3.54411 -3.41546 0
M  V30 6962 N 659.233 0.902656 -1.29189 0
M  V30 6963 C 660.481 1.6496 -1.16758 0
M  V30 6964 C 660.802 1.92952 0.28188 0
M  V30 6965 O 660.072 1.55351 1.19344 0
M  V30 6966 H 658.652 0.611447 -0.429118 0
M  V30 6967 H 661.314 1.0825 -1.62074 0
M  V30 6968 H 660.41 2.60728 -1.71544 0
M  V30 6969 N 660.711 1.11618 1.11262 0
M  V30 6970 C 661.936 0.889013 1.8738 0
M  V30 6971 C 662.361 -0.555884 1.79698 0
M  V30 6972 O 661.719 -1.39272 1.16073 0
M  V30 6973 C 661.767 1.35759 3.34069 0
M  V30 6974 O 660.871 0.530499 4.08974 0
M  V30 6975 H 660.212 0.320082 0.581759 0
M  V30 6976 H 662.742 1.48611 1.40627 0
M  V30 6977 H 662.752 1.35291 3.84916 0
M  V30 6978 H 661.427 2.40973 3.38976 0
M  V30 6979 H 660.004 0.601439 3.68018 0
M  V30 6980 N 662.189 -1.289 0.906776 0
M  V30 6981 C 663.121 -2.26556 0.347159 0
M  V30 6982 C 664.134 -1.54589 -0.51049 0
M  V30 6983 O 665.323 -1.75489 -0.326501 0
M  V30 6984 C 662.423 -3.3484 -0.523024 0
M  V30 6985 C 661.596 -4.36296 0.310515 0
M  V30 6986 C 660.655 -5.23879 -0.493634 0
M  V30 6987 O 659.681 -5.69127 0.0913569 0
M  V30 6988 N 660.883 -5.51946 -1.7982 0
M  V30 6989 H 663.648 -2.75212 1.18652 0
M  V30 6990 H 661.209 -1.42309 0.771996 0
M  V30 6991 H 663.201 -3.90366 -1.06756 0
M  V30 6992 H 661.771 -2.85946 -1.26309 0
M  V30 6993 H 660.991 -3.80331 1.03644 0
M  V30 6994 H 662.279 -5.01113 0.881106 0
M  V30 6995 H 661.677 -5.17006 -2.2961 0
M  V30 6996 H 660.234 -6.10258 -2.28971 0
M  V30 6997 N 663.667 -0.670007 -1.42649 0
M  V30 6998 C 664.577 0.0114788 -2.34597 0
M  V30 6999 C 665.593 0.794055 -1.54825 0
M  V30 7000 O 666.769 0.737472 -1.87412 0
M  V30 7001 C 663.834 0.954436 -3.33304 0
M  V30 7002 C 662.895 0.166925 -4.28975 0
M  V30 7003 C 662.128 1.06497 -5.22967 0
M  V30 7004 O 662.351 2.30446 -5.21777 0
M  V30 7005 O 661.285 0.528347 -5.99577 0
M  V30 7006 H 665.111 -0.745794 -2.944 0
M  V30 7007 H 662.696 -0.430228 -1.43071 0
M  V30 7008 H 664.578 1.49589 -3.93956 0
M  V30 7009 H 663.253 1.69164 -2.7598 0
M  V30 7010 H 662.16 -0.418515 -3.71752 0
M  V30 7011 H 663.493 -0.531067 -4.89327 0
M  V30 7012 N 665.145 1.52092 -0.413018 0
M  V30 7013 C 666.055 2.30858 0.417318 0
M  V30 7014 C 667.071 1.38746 1.05003 0
M  V30 7015 O 668.247 1.71821 1.05069 0
M  V30 7016 C 665.312 3.11756 1.51687 0
M  V30 7017 C 664.373 4.19613 0.906825 0
M  V30 7018 C 663.606 4.96644 1.95399 0
M  V30 7019 O 663.829 4.7402 3.17271 0
M  V30 7020 O 662.763 5.81385 1.55805 0
M  V30 7021 H 666.589 3.02865 -0.225028 0
M  V30 7022 H 664.174 1.48358 -0.176126 0
M  V30 7023 H 666.056 3.62122 2.15512 0
M  V30 7024 H 664.731 2.42539 2.14375 0
M  V30 7025 H 663.638 3.73385 0.231183 0
M  V30 7026 H 664.971 4.91134 0.323814 0
M  V30 7027 N 666.623 0.143563 1.56945 0
M  V30 7028 C 667.863 -0.511198 1.97904 0
M  V30 7029 C 668.227 -1.62262 1.0264 0
M  V30 7030 O 669.428 -2.338 1.32631 0
M  V30 7031 C 667.699 -1.00753 3.42905 0
M  V30 7032 S 669.258 -1.66737 4.05887 0
M  V30 7033 H 666.076 -0.165399 0.691494 0
M  V30 7034 H 668.678 0.234464 1.94089 0
M  V30 7035 H 667.382 -0.187817 4.0997 0
M  V30 7036 H 666.913 -1.7879 3.50425 0
M  V30 7037 H 668.928 -2.95444 3.98657 0
M  V30 7038 N 668.101 -1.57061 -0.130224 0
M  V30 7039 C 669.378 -1.75205 -0.869631 0
M  V30 7040 C 669.758 -0.716063 -1.98584 0
M  V30 7041 O 669.106 0.262032 -2.26993 0
M  V30 7042 C 669.316 -3.19835 -1.39666 0
M  V30 7043 C 670.664 -3.82011 -1.85345 0
M  V30 7044 O 671.688 -3.23368 -1.49371 0
M  V30 7045 O 670.547 -4.85064 -2.51744 0
M  V30 7046 H 667.641 -0.716977 -0.412157 0
M  V30 7047 H 670.187 -1.69311 -0.11484 0
M  V30 7048 H 668.959 -3.86745 -0.595288 0
M  V30 7049 H 668.582 -3.30222 -2.21448 0
M  V30 7050 N 669.579 0.400081 -1.52437 0
M  V30 7051 C 670.526 1.48803 -1.76426 0
M  V30 7052 C 671.496 1.5461 -0.607032 0
M  V30 7053 O 672.681 1.71041 -0.845563 0
M  V30 7054 C 669.821 2.86156 -1.92896 0
M  V30 7055 C 668.934 2.89587 -3.20567 0
M  V30 7056 C 668.069 4.18296 -3.27417 0
M  V30 7057 C 667.108 4.15736 -4.49255 0
M  V30 7058 N 666.245 5.36032 -4.53447 0
M  V30 7059 H 671.085 1.27649 -2.69276 0
M  V30 7060 H 668.622 0.619451 -1.33421 0
M  V30 7061 H 670.58 3.65901 -2.00429 0
M  V30 7062 H 669.21 3.05785 -1.03418 0
M  V30 7063 H 668.262 2.02278 -3.22161 0
M  V30 7064 H 669.574 2.83562 -4.10358 0
M  V30 7065 H 668.728 5.06439 -3.34072 0
M  V30 7066 H 667.467 4.27028 -2.35581 0
M  V30 7067 H 666.472 3.25982 -4.42737 0
M  V30 7068 H 667.697 4.08636 -5.42396 0
M  V30 7069 H 665.643 5.45415 -3.64498 0
M  V30 7070 H 665.56 5.32038 -5.37096 0
M  V30 7071 H 666.828 6.26104 -4.64343 0
M  V30 7072 O 671.096 1.51991 0.545992 0
M  V30 7073 H 671.787 1.51962 1.20114 0
M  V30 END ATOM
M  V30 BEGIN BOND
M  V30 END BOND
M  V30 END CTAB
M  END
$$$$
