drugbank_target|P19711 Genome polyprotein (DB04137)
 OpenBabel12092120003D

  0  0  0     0  0            999 V3000
M  V30 BEGIN CTAB
M  V30 COUNTS 63596 64267 0 0 0
M  V30 BEGIN ATOM
M  V30 1 H -0.908 1.98254 -0.117106 0
M  V30 2 N 0 1.576 0 0
M  V30 3 C 0.933 2.03868 1.02534 0
M  V30 4 C 1.911 0.928543 1.3348 0
M  V30 5 O 3.095 1.19667 1.45644 0
M  V30 6 C 0.222 2.43627 2.35294 0
M  V30 7 C -0.732 3.65373 2.2001 0
M  V30 8 S 0.101 5.13292 1.52614 0
M  V30 9 C 1.257 5.56322 2.86805 0
M  V30 10 H 1.49 2.90518 0.631377 0
M  V30 11 H -0.977 1.52953 0.210867 0
M  V30 12 H 0.981 2.67203 3.11629 0
M  V30 13 H -0.358 1.57376 2.7183 0
M  V30 14 H -1.165 3.90944 3.18086 0
M  V30 15 H -1.563 3.418 1.51819 0
M  V30 16 H 0.729 5.58782 3.83104 0
M  V30 17 H 1.672 6.56266 2.65933 0
M  V30 18 H 2.08 4.83886 2.90714 0
M  V30 19 N 1.4781 -0.272755 1.55222 0
M  V30 20 C 2.3881 -1.35918 1.91216 0
M  V30 21 C 3.4041 -1.54026 0.809436 0
M  V30 22 O 4.5801 -1.68148 1.10852 0
M  V30 23 C 1.6451 -2.69834 2.17693 0
M  V30 24 C 0.7061 -2.6047 3.41253 0
M  V30 25 C -0.0609 -3.88 3.66458 0
M  V30 26 O 0.1621 -4.88693 2.94169 0
M  V30 27 O -0.9039 -3.88189 4.59992 0
M  V30 28 H 2.9221 -1.0839 2.83699 0
M  V30 29 H 0.5071 -0.471301 1.41771 0
M  V30 30 H 2.3891 -3.49017 2.36147 0
M  V30 31 H 1.0641 -2.97148 1.28392 0
M  V30 32 H -0.0289 -1.79663 3.28134 0
M  V30 33 H 1.3041 -2.38106 4.30774 0
M  V30 34 N 2.9562 -1.48159 -0.537278 0
M  V30 35 C 3.8862 -1.65029 -1.6519 0
M  V30 36 C 4.8672 -0.499281 -1.62607 0
M  V30 37 O 6.0522 -0.730972 -1.79918 0
M  V30 38 C 3.1822 -1.68303 -3.03795 0
M  V30 39 C 2.1362 -2.8283 -3.21234 0
M  V30 40 C 1.4622 -2.71189 -4.60826 0
M  V30 41 C 2.7622 -4.24211 -3.04701 0
M  V30 42 H 4.4562 -2.58341 -1.51328 0
M  V30 43 H 2.0022 -1.24325 -0.726585 0
M  V30 44 H 3.9552 -1.78693 -3.81637 0
M  V30 45 H 2.6792 -0.715635 -3.18663 0
M  V30 46 H 1.3382 -2.71983 -2.45807 0
M  V30 47 H 0.9862 -1.72435 -4.7252 0
M  V30 48 H 0.6862 -3.48035 -4.7344 0
M  V30 49 H 2.2102 -2.83537 -5.40777 0
M  V30 50 H 3.6242 -4.3593 -3.72341 0
M  V30 51 H 2.0212 -5.01998 -3.28813 0
M  V30 52 H 3.0912 -4.41184 -2.01209 0
M  V30 53 N 4.4343 0.785586 -1.36625 0
M  V30 54 C 5.6833 1.53883 -1.30396 0
M  V30 55 C 5.9963 1.95271 0.113452 0
M  V30 56 O 7.2023 2.69858 0.298142 0
M  V30 57 C 5.6583 2.77808 -2.28802 0
M  V30 58 C 5.2663 2.43574 -3.75999 0
M  V30 59 C 7.0103 3.55783 -2.31558 0
M  V30 60 C 4.9173 3.63919 -4.66173 0
M  V30 61 H 3.8473 0.577678 -0.484566 0
M  V30 62 H 6.4983 0.861705 -1.62009 0
M  V30 63 H 4.8803 3.47339 -1.90188 0
M  V30 64 H 6.0543 1.81916 -4.23371 0
M  V30 65 H 4.3693 1.78803 -3.76056 0
M  V30 66 H 6.9663 4.45205 -2.96137 0
M  V30 67 H 7.3093 3.94644 -1.3252 0
M  V30 68 H 7.8423 2.93235 -2.68809 0
M  V30 69 H 4.5813 3.3015 -5.66287 0
M  V30 70 H 4.1013 4.2473 -4.23515 0
M  V30 71 H 5.7803 4.30901 -4.82632 0
M  V30 72 N 5.9124 1.20967 1.01018 0
M  V30 73 C 7.1404 1.04956 1.78303 0
M  V30 74 C 7.5554 -0.400915 1.84494 0
M  V30 75 O 6.9124 -1.27826 1.30257 0
M  V30 76 C 6.9634 1.63403 3.22462 0
M  V30 77 O 6.6844 3.02775 3.16637 0
M  V30 78 C 8.1854 1.52432 4.16268 0
M  V30 79 H 5.4054 0.368858 0.560522 0
M  V30 80 H 7.9494 1.60193 1.27116 0
M  V30 81 H 6.1044 1.1227 3.70775 0
M  V30 82 H 6.5184 3.30626 4.07169 0
M  V30 83 H 7.9924 1.98078 5.15237 0
M  V30 84 H 8.4694 0.477875 4.36592 0
M  V30 85 H 9.0754 2.02787 3.73841 0
M  V30 86 N 7.3905 -1.2043 1.01659 0
M  V30 87 C 8.3385 -2.25249 0.580143 0
M  V30 88 C 9.3325 -1.65057 -0.381115 0
M  V30 89 O 10.5385 -1.78241 -0.251039 0
M  V30 90 H 6.9135 -0.732695 0.169299 0
M  V30 91 H 8.8845 -2.59389 1.47512 0
M  V30 92 C 7.6335 -3.47638 -0.065788 0
M  V30 93 H 6.9565 -3.94233 0.664874 0
M  V30 94 H 8.3965 -4.2268 -0.334282 0
M  V30 95 C 6.8555 -3.10447 -1.3086 0
M  V30 96 O 7.3855 -3.21981 -2.4019 0
M  V30 97 N 5.5915 -2.64996 -1.1927 0
M  V30 98 H 5.1385 -2.55811 -0.303064 0
M  V30 99 H 5.0965 -2.40482 -2.02523 0
M  V30 100 N 8.8686 -0.792821 -1.36206 0
M  V30 101 C 9.7786 -0.194808 -2.3379 0
M  V30 102 C 10.7946 0.654869 -1.61206 0
M  V30 103 O 11.9706 0.569856 -1.9317 0
M  V30 104 C 9.0356 0.657721 -3.40404 0
M  V30 105 C 8.0966 -0.210849 -4.28782 0
M  V30 106 C 7.3296 0.601086 -5.30304 0
M  V30 107 O 7.5526 1.83682 -5.40016 0
M  V30 108 O 6.4866 -0.000808277 -6.019 0
M  V30 109 H 10.3126 -1.00172 -2.86704 0
M  V30 110 H 7.8976 -0.554341 -1.38735 0
M  V30 111 H 9.7796 1.14375 -4.05581 0
M  V30 112 H 8.4546 1.44247 -2.89784 0
M  V30 113 H 7.3616 -0.743714 -3.66633 0
M  V30 114 H 8.6946 -0.959195 -4.82763 0
M  V30 115 N 10.3467 1.47872 -0.545128 0
M  V30 116 C 11.2767 2.32661 0.197793 0
M  V30 117 C 12.2577 1.43041 0.920504 0
M  V30 118 O 13.4427 1.71912 0.90333 0
M  V30 119 C 10.5727 3.24569 1.23582 0
M  V30 120 C 9.5267 4.23333 0.630323 0
M  V30 121 C 8.8527 5.0448 1.77211 0
M  V30 122 C 10.1527 5.20704 -0.407974 0
M  V30 123 H 11.8467 2.95024 -0.510045 0
M  V30 124 H 9.3927 1.4187 -0.246731 0
M  V30 125 H 11.3457 3.8272 1.76362 0
M  V30 126 H 10.0697 2.60236 1.97344 0
M  V30 127 H 8.7287 3.6639 0.123922 0
M  V30 128 H 8.3767 4.36561 2.49847 0
M  V30 129 H 8.0767 5.71339 1.37281 0
M  V30 130 H 9.6007 5.65487 2.3034 0
M  V30 131 H 11.0147 5.7329 0.033305 0
M  V30 132 H 9.4117 5.95699 -0.725486 0
M  V30 133 H 10.4817 4.66917 -1.30828 0
M  V30 134 N 11.8248 0.280983 1.55075 0
M  V30 135 C 12.7548 -0.597469 2.25727 0
M  V30 136 C 13.7358 -1.15417 1.24952 0
M  V30 137 O 14.9208 -1.18722 1.53684 0
M  V30 138 C 12.0508 -1.7789 2.98283 0
M  V30 139 C 11.0048 -1.35347 4.06036 0
M  V30 140 C 10.3308 -2.61846 4.66198 0
M  V30 141 C 11.6308 -0.499354 5.19907 0
M  V30 142 H 13.3248 -0.00824265 2.99399 0
M  V30 143 H 10.8708 -0.0025244 1.44 0
M  V30 144 H 12.8238 -2.39937 3.46422 0
M  V30 145 H 11.5478 -2.39405 2.22155 0
M  V30 146 H 10.2068 -0.756156 3.58717 0
M  V30 147 H 9.8548 -3.21632 3.86732 0
M  V30 148 H 9.5548 -2.3409 5.38958 0
M  V30 149 H 11.0788 -3.24732 5.1709 0
M  V30 150 H 12.4928 -1.02498 5.64063 0
M  V30 151 H 10.8898 -0.316424 5.99265 0
M  V30 152 H 11.9598 0.480459 4.82514 0
M  V30 153 N 13.3029 -1.57598 0.00835791 0
M  V30 154 C 14.5329 -1.94931 -0.684496 0
M  V30 155 C 14.9409 -0.882233 -1.67372 0
M  V30 156 O 14.2839 0.146621 -1.83114 0
M  V30 157 C 14.3459 -3.283 -1.4649 0
M  V30 158 C 14.0099 -4.52548 -0.63634 0
M  V30 159 C 15.0069 -5.19839 0.0795586 0
M  V30 160 C 12.6919 -4.98942 -0.579849 0
M  V30 161 C 14.6859 -6.3183 0.840843 0
M  V30 162 C 12.3729 -6.10819 0.185155 0
M  V30 163 C 13.3709 -6.77121 0.894227 0
M  V30 164 O 13.0589 -7.86853 1.64673 0
M  V30 165 H 12.7909 -0.647249 -0.19505 0
M  V30 166 H 15.3449 -2.05318 0.0581272 0
M  V30 167 H 13.5749 -3.14345 -2.2522 0
M  V30 168 H 15.2639 -3.50685 -2.04389 0
M  V30 169 H 16.0299 -4.84979 0.0451202 0
M  V30 170 H 11.9089 -4.47155 -1.1213 0
M  V30 171 H 15.4529 -6.83513 1.39483 0
M  V30 172 H 11.3499 -6.4512 0.221384 0
M  V30 173 H 12.1179 -8.03412 1.56432 0
M  V30 174 N 14.781 0.264519 -1.55364 0
M  V30 175 C 15.728 1.32717 -1.88825 0
M  V30 176 C 16.698 1.48675 -0.740605 0
M  V30 177 O 17.883 1.62945 -0.992657 0
M  V30 178 C 15.023 2.68089 -2.17307 0
M  V30 179 C 14.136 2.60284 -3.44785 0
M  V30 180 C 13.271 3.87892 -3.62924 0
M  V30 181 C 12.31 3.74631 -4.84064 0
M  V30 182 N 11.447 4.94092 -4.98816 0
M  V30 183 H 16.287 1.03481 -2.79456 0
M  V30 184 H 13.824 0.499757 -1.3835 0
M  V30 185 H 15.782 3.46864 -2.31821 0
M  V30 186 H 14.412 2.95509 -1.299 0
M  V30 187 H 13.464 1.73173 -3.38697 0
M  V30 188 H 14.776 2.46388 -4.33698 0
M  V30 189 H 13.93 4.75109 -3.77302 0
M  V30 190 H 12.669 4.04664 -2.7221 0
M  V30 191 H 11.674 2.85797 -4.69681 0
M  V30 192 H 12.899 3.5937 -5.76221 0
M  V30 193 H 10.845 5.11259 -4.11036 0
M  V30 194 H 10.762 4.8276 -5.81789 0
M  V30 195 H 12.03 5.82857 -5.17588 0
M  V30 196 N 16.2591 1.48442 0.529413 0
M  V30 197 C 17.4871 1.60151 1.30994 0
M  V30 198 C 17.9021 0.261985 1.86973 0
M  V30 199 O 17.2591 -0.748805 1.66431 0
M  V30 200 C 17.3101 2.64854 2.46038 0
M  V30 201 O 17.0311 3.93608 1.92365 0
M  V30 202 C 18.5321 2.87007 3.37849 0
M  V30 203 H 15.7521 0.539971 0.398338 0
M  V30 204 H 18.2961 1.94273 0.638597 0
M  V30 205 H 16.4511 2.33589 3.09055 0
M  V30 206 H 16.8651 4.51055 2.67675 0
M  V30 207 H 18.3391 3.64068 4.14919 0
M  V30 208 H 18.8161 1.95852 3.93114 0
M  V30 209 H 19.4221 3.19579 2.80623 0
M  V30 210 N 17.7372 -0.778329 1.37039 0
M  V30 211 C 18.9672 -1.56507 1.34868 0
M  V30 212 C 19.3752 -1.89072 -0.0694802 0
M  V30 213 O 18.7182 -1.51434 -1.03987 0
M  V30 214 C 18.7802 -2.90641 2.11585 0
M  V30 215 C 18.4442 -2.80746 3.60598 0
M  V30 216 C 19.4412 -2.52226 4.54618 0
M  V30 217 C 17.1262 -2.98974 4.03633 0
M  V30 218 C 19.1202 -2.42054 5.89651 0
M  V30 219 C 16.8072 -2.88423 5.38754 0
M  V30 220 C 17.8052 -2.60002 6.31576 0
M  V30 221 O 17.4932 -2.49465 7.64214 0
M  V30 222 H 17.2252 -0.491723 0.463879 0
M  V30 223 H 19.7792 -0.973053 1.80889 0
M  V30 224 H 18.0092 -3.51936 1.60243 0
M  V30 225 H 19.6982 -3.51992 2.0213 0
M  V30 226 H 20.4642 -2.37835 4.22681 0
M  V30 227 H 16.3432 -3.20099 3.31749 0
M  V30 228 H 19.8872 -2.19791 6.62071 0
M  V30 229 H 15.7842 -3.0238 5.70295 0
M  V30 230 H 16.5522 -2.64864 7.74461 0
M  V30 231 N 19.2153 -1.21501 -1.00376 0
M  V30 232 C 20.1623 -0.975387 -2.09177 0
M  V30 233 C 21.1323 0.0990615 -1.65804 0
M  V30 234 O 22.3173 -0.0483147 -1.90739 0
M  V30 235 C 19.4573 -0.547507 -3.40729 0
M  V30 236 C 18.5703 -1.69153 -3.97506 0
M  V30 237 C 17.7053 -1.2127 -5.17172 0
M  V30 238 C 16.7443 -2.32897 -5.66061 0
M  V30 239 N 15.8813 -1.86138 -6.76976 0
M  V30 240 H 20.7213 -1.9068 -2.29009 0
M  V30 241 H 18.2583 -0.950257 -1.12288 0
M  V30 242 H 20.2163 -0.280667 -4.16255 0
M  V30 243 H 18.8463 0.346904 -3.20931 0
M  V30 244 H 17.8983 -2.07298 -3.18954 0
M  V30 245 H 19.2103 -2.5316 -4.29781 0
M  V30 246 H 18.3643 -0.902591 -5.99948 0
M  V30 247 H 17.1033 -0.342692 -4.86495 0
M  V30 248 H 16.1083 -2.64709 -4.81881 0
M  V30 249 H 17.3333 -3.20396 -5.98768 0
M  V30 250 H 15.2793 -1.01484 -6.48103 0
M  V30 251 H 15.1963 -2.63717 -7.08512 0
M  V30 252 H 16.4643 -1.58165 -7.63285 0
M  V30 253 N 20.6934 1.19889 -1.02296 0
M  V30 254 C 21.6254 2.22334 -0.556787 0
M  V30 255 C 22.6384 1.58674 0.364199 0
M  V30 256 O 23.8274 1.77768 0.161533 0
M  V30 257 C 20.9274 3.38257 0.208694 0
M  V30 258 C 20.1004 4.31504 -0.71577 0
M  V30 259 C 19.1594 5.262 0.00325597 0
M  V30 260 O 18.1854 5.65798 -0.621357 0
M  V30 261 N 19.3874 5.66303 1.27599 0
M  V30 262 H 22.1524 2.62957 -1.43784 0
M  V30 263 H 19.7134 1.34495 -0.901261 0
M  V30 264 H 21.7054 3.98616 0.699111 0
M  V30 265 H 20.2754 2.96472 0.991102 0
M  V30 266 H 19.4954 3.69016 -1.38638 0
M  V30 267 H 20.7834 4.9072 -1.34428 0
M  V30 268 H 20.1814 5.36155 1.80429 0
M  V30 269 H 18.7384 6.28942 1.71102 0
M  V30 270 N 22.1715 0.800033 1.35784 0
M  V30 271 C 23.1185 0.203848 2.29898 0
M  V30 272 C 24.0885 -0.658375 1.52495 0
M  V30 273 O 25.2735 -0.604832 1.8096 0
M  V30 274 C 22.4135 -0.64688 3.38983 0
M  V30 275 C 21.5265 0.235054 4.3136 0
M  V30 276 C 20.6615 -0.623054 5.27533 0
M  V30 277 C 19.7005 0.259682 6.11549 0
M  V30 278 N 18.8375 -0.558019 6.99879 0
M  V30 279 H 23.6775 1.01186 2.80295 0
M  V30 280 H 21.2145 0.51053 1.37957 0
M  V30 281 H 23.1725 -1.15521 4.00887 0
M  V30 282 H 21.8025 -1.42021 2.89879 0
M  V30 283 H 20.8545 0.861438 3.70518 0
M  V30 284 H 22.1665 0.914768 4.9034 0
M  V30 285 H 21.3205 -1.19678 5.94779 0
M  V30 286 H 20.0595 -1.33636 4.69034 0
M  V30 287 H 19.0645 0.845726 5.43256 0
M  V30 288 H 20.2895 0.970748 6.72126 0
M  V30 289 H 18.2355 -1.25542 6.43875 0
M  V30 290 H 18.1525 0.0637872 7.55973 0
M  V30 291 H 19.4205 -1.11523 7.71481 0
M  V30 292 N 23.6496 -1.47581 0.552962 0
M  V30 293 C 25.0606 -1.86324 0.118463 0
M  V30 294 C 25.4116 -1.46006 -1.3106 0
M  V30 295 O 24.5366 -0.861182 -1.98526 0
M  V30 296 C 25.1316 -3.3816 0.20821 0
M  V30 297 C 23.6906 -3.7601 -0.171226 0
M  V30 298 C 22.8376 -2.71634 0.557686 0
M  V30 299 H 25.7886 -1.39159 0.762928 0
M  V30 300 H 25.8096 -3.76141 -0.574278 0
M  V30 301 H 25.3216 -3.67473 1.24841 0
M  V30 302 H 23.4226 -3.52313 -1.21269 0
M  V30 303 H 23.5356 -4.78745 0.184379 0
M  V30 304 H 21.8996 -2.547 0.00125792 0
M  V30 305 H 22.6826 -3.0379 1.59896 0
M  V30 306 N 25.1277 -0.289203 -1.54924 0
M  V30 307 C 26.3737 0.323998 -2.00195 0
M  V30 308 C 26.7067 1.54441 -1.17735 0
M  V30 309 O 25.9817 1.92875 -0.250878 0
M  V30 310 C 26.2647 0.692276 -3.53383 0
M  V30 311 C 26.1177 -0.536457 -4.46589 0
M  V30 312 C 27.4367 1.52335 -4.12895 0
M  V30 313 H 24.5557 0.116289 -0.727768 0
M  V30 314 H 27.1977 -0.398954 -1.85764 0
M  V30 315 H 25.3477 1.30822 -3.65811 0
M  V30 316 H 27.0197 -1.17499 -4.46085 0
M  V30 317 H 25.2627 -1.17192 -4.1767 0
M  V30 318 H 25.9337 -0.234806 -5.515 0
M  V30 319 H 28.4097 1.00302 -4.0383 0
M  V30 320 H 27.2857 1.74982 -5.20262 0
M  V30 321 H 27.5467 2.50886 -3.64018 0
M  V30 322 N 26.6058 1.57591 -0.0167156 0
M  V30 323 C 27.8538 1.90906 0.663285 0
M  V30 324 C 28.1748 0.892509 1.73376 0
M  V30 325 O 27.4448 -0.0677623 1.95783 0
M  V30 326 H 26.0248 0.704637 0.247983 0
M  V30 327 H 28.6868 1.94803 -0.0615909 0
M  V30 328 H 27.7828 2.9116 1.12393 0
M  V30 329 N 28.0839 -0.256276 1.55502 0
M  V30 330 C 29.3299 -0.987079 1.77157 0
M  V30 331 C 29.6629 -1.85327 0.580315 0
M  V30 332 O 28.9379 -1.89874 -0.421686 0
M  V30 333 C 29.2209 -1.85553 3.08613 0
M  V30 334 C 29.0739 -1.01816 4.38125 0
M  V30 335 C 30.3929 -2.8397 3.36228 0
M  V30 336 H 27.5119 -0.357428 0.644526 0
M  V30 337 H 30.1539 -0.258239 1.88237 0
M  V30 338 H 28.3039 -2.47695 2.99298 0
M  V30 339 H 29.9759 -0.416159 4.59419 0
M  V30 340 H 28.2189 -0.322178 4.32602 0
M  V30 341 H 28.8899 -1.65939 5.26468 0
M  V30 342 H 31.3659 -2.31964 3.45445 0
M  V30 343 H 30.2419 -3.41864 4.29442 0
M  V30 344 H 30.5029 -3.59955 2.56681 0
M  V30 345 N 29.562 -1.4872 -0.521534 0
M  V30 346 C 30.472 -1.66569 -1.65203 0
M  V30 347 C 31.488 -0.548197 -1.65139 0
M  V30 348 O 32.664 -0.820339 -1.83936 0
M  V30 349 C 29.729 -1.70917 -3.01642 0
M  V30 350 C 28.79 -2.94356 -3.12495 0
M  V30 351 C 28.023 -2.98487 -4.42426 0
M  V30 352 O 28.246 -2.10786 -5.30024 0
M  V30 353 O 27.18 -3.90746 -4.57822 0
M  V30 354 H 31.006 -2.62298 -1.5308 0
M  V30 355 H 28.591 -1.3222 -0.695565 0
M  V30 356 H 30.473 -1.7625 -3.82771 0
M  V30 357 H 29.148 -0.783633 -3.14071 0
M  V30 358 H 28.055 -2.94552 -2.3063 0
M  V30 359 H 29.388 -3.86322 -3.04986 0
M  V30 360 N 31.0401 0.771051 -1.3745 0
M  V30 361 C 31.9501 1.91538 -1.35464 0
M  V30 362 C 32.9661 1.72134 -0.254123 0
M  V30 363 O 34.1421 1.95358 -0.489626 0
M  V30 364 C 31.2071 3.26671 -1.16134 0
M  V30 365 C 30.2681 3.58723 -2.35831 0
M  V30 366 C 29.5011 4.87409 -2.17413 0
M  V30 367 O 29.7241 5.58506 -1.15876 0
M  V30 368 O 28.6581 5.18539 -3.05615 0
M  V30 369 H 32.4841 1.96165 -2.31847 0
M  V30 370 H 30.0691 0.9139 -1.18187 0
M  V30 371 H 31.9511 4.07499 -1.07345 0
M  V30 372 H 30.6261 3.22894 -0.228251 0
M  V30 373 H 29.5331 2.78127 -2.50192 0
M  V30 374 H 30.8661 3.67243 -3.27709 0
M  V30 375 N 32.5182 1.22032 0.997298 0
M  V30 376 C 33.9292 1.0397 1.55071 0
M  V30 377 C 34.2802 -0.398192 1.92117 0
M  V30 378 O 33.4052 -1.28254 1.74298 0
M  V30 379 C 34.0002 1.88109 2.81781 0
M  V30 380 C 32.5592 1.74357 3.33581 0
M  V30 381 C 31.7062 1.84846 2.06706 0
M  V30 382 H 34.6572 1.35941 0.818883 0
M  V30 383 H 34.6782 1.39589 3.53971 0
M  V30 384 H 34.1902 2.92754 2.54787 0
M  V30 385 H 32.2912 0.72427 3.65493 0
M  V30 386 H 32.4042 2.56772 4.04481 0
M  V30 387 H 30.7682 1.28238 2.20062 0
M  V30 388 H 31.5512 2.91014 1.82114 0
M  V30 389 N 33.9963 -1.19345 1.0293 0
M  V30 390 C 35.2423 -1.89318 0.727083 0
M  V30 391 C 35.5753 -1.79446 -0.742483 0
M  V30 392 O 34.8503 -1.1871 -1.54072 0
M  V30 393 C 35.1333 -3.40238 1.17942 0
M  V30 394 C 34.9863 -3.58979 2.71024 0
M  V30 395 C 36.3053 -4.33479 0.760548 0
M  V30 396 H 33.4243 -0.687475 0.265606 0
M  V30 397 H 36.0663 -1.40477 1.2793 0
M  V30 398 H 34.2163 -3.81964 0.709608 0
M  V30 399 H 35.8883 -3.26421 3.25955 0
M  V30 400 H 34.1313 -3.02018 3.11396 0
M  V30 401 H 34.8023 -4.64823 2.9773 0
M  V30 402 H 37.2783 -3.99469 1.16464 0
M  V30 403 H 36.1543 -5.37664 1.10493 0
M  V30 404 H 36.4153 -4.40813 -0.337063 0
M  V30 405 N 35.4744 -0.807222 -1.35358 0
M  V30 406 C 36.7044 -0.399796 -2.02695 0
M  V30 407 C 37.1124 0.994176 -1.60974 0
M  V30 408 O 36.4554 1.65209 -0.803226 0
M  V30 409 C 36.5174 -0.404445 -3.57218 0
M  V30 410 C 36.1814 -1.74904 -4.22206 0
M  V30 411 C 37.1784 -2.70743 -4.4384 0
M  V30 412 C 34.8634 -2.03322 -4.5931 0
M  V30 413 C 36.8574 -3.93183 -5.01683 0
M  V30 414 C 34.5444 -3.26026 -5.16866 0
M  V30 415 C 35.5424 -4.20774 -5.37994 0
M  V30 416 O 35.2304 -5.41312 -5.94337 0
M  V30 417 H 34.9624 -0.160517 -0.656666 0
M  V30 418 H 37.5164 -1.09235 -1.73945 0
M  V30 419 H 35.7464 0.344707 -3.85161 0
M  V30 420 H 37.4354 -0.0192429 -4.05895 0
M  V30 421 H 38.2014 -2.5008 -4.15554 0
M  V30 422 H 34.0804 -1.30384 -4.42178 0
M  V30 423 H 37.6244 -4.6715 -5.1809 0
M  V30 424 H 33.5214 -3.46559 -5.44579 0
M  V30 425 H 34.2894 -5.42618 -6.12787 0
M  V30 426 N 36.9525 1.47285 -0.560781 0
M  V30 427 C 38.2295 1.9558 0.0277798 0
M  V30 428 C 38.6095 1.5034 1.48192 0
M  V30 429 O 37.9575 0.743882 2.16052 0
M  V30 430 C 38.1675 3.48789 -0.121418 0
M  V30 431 C 39.5155 4.24594 0.0220912 0
M  V30 432 O 40.5395 3.56166 -0.0491439 0
M  V30 433 O 39.3985 5.46217 0.175958 0
M  V30 434 H 36.4925 0.824663 0.0621342 0
M  V30 435 H 39.0385 1.5767 -0.627556 0
M  V30 436 H 37.8105 3.74533 -1.13316 0
M  V30 437 H 37.4335 3.93473 0.571366 0
M  V30 438 N 38.4306 0.297415 1.54768 0
M  V30 439 C 39.3626 -0.613881 2.20826 0
M  V30 440 C 40.3756 -1.10032 1.19987 0
M  V30 441 O 41.5646 -1.01839 1.46598 0
M  V30 442 C 38.6646 -1.852 2.83821 0
M  V30 443 C 37.8376 -1.50865 4.10559 0
M  V30 444 C 36.8966 -2.60154 4.57391 0
M  V30 445 O 35.9226 -2.25398 5.2267 0
M  V30 446 N 37.1246 -3.90629 4.29406 0
M  V30 447 H 39.8896 -0.048389 2.99661 0
M  V30 448 H 37.4506 0.11946 1.61459 0
M  V30 449 H 39.4426 -2.57652 3.12086 0
M  V30 450 H 38.0126 -2.32597 2.08847 0
M  V30 451 H 37.2326 -0.616925 3.89343 0
M  V30 452 H 38.5206 -1.25458 4.9309 0
M  V30 453 H 37.9186 -4.21677 3.77101 0
M  V30 454 H 36.4756 -4.59391 4.62388 0
M  V30 455 N 39.9087 -1.5758 0.0250728 0
M  V30 456 C 40.8717 -2.08896 -0.943139 0
M  V30 457 C 41.8717 -1.00321 -1.25668 0
M  V30 458 O 43.0617 -1.26495 -1.19769 0
M  V30 459 C 40.1937 -2.55143 -2.26086 0
M  V30 460 H 41.3867 -2.95723 -0.498775 0
M  V30 461 H 38.9397 -1.54703 -0.222888 0
M  V30 462 H 39.6747 -1.71633 -2.75159 0
M  V30 463 H 39.4597 -3.34461 -2.04641 0
M  V30 464 H 40.9497 -2.95083 -2.95492 0
M  V30 465 N 41.3868 0.248026 -1.55636 0
M  V30 466 C 42.6348 0.974295 -1.77065 0
M  V30 467 C 42.9558 1.85897 -0.588849 0
M  V30 468 O 42.2258 1.91868 0.395407 0
M  V30 469 H 40.8058 0.362733 -0.653019 0
M  V30 470 H 43.4678 0.266244 -1.93073 0
M  V30 471 H 42.5638 1.59667 -2.68166 0
M  V30 472 N 42.8649 1.48995 0.513639 0
M  V30 473 C 44.1419 1.48338 1.27495 0
M  V30 474 C 44.5219 0.204065 2.10111 0
M  V30 475 O 43.8699 -0.813881 2.13514 0
M  V30 476 C 44.0799 2.75498 2.14247 0
M  V30 477 C 45.4279 3.24484 2.73852 0
M  V30 478 O 46.4519 2.76528 2.24523 0
M  V30 479 O 45.3109 4.07974 3.6362 0
M  V30 480 H 42.4049 0.593149 0.576284 0
M  V30 481 H 44.9509 1.61246 0.528948 0
M  V30 482 H 43.7229 3.60109 1.53092 0
M  V30 483 H 43.3459 2.6539 2.96064 0
M  V30 484 N 44.343 -0.763751 1.37857 0
M  V30 485 C 45.754 -1.3405 1.29952 0
M  V30 486 C 46.105 -1.96138 -0.0492898 0
M  V30 487 O 45.23 -1.94372 -0.951239 0
M  V30 488 C 45.825 -2.43729 2.35333 0
M  V30 489 C 44.384 -2.97151 2.31037 0
M  V30 490 C 43.531 -1.70438 2.18738 0
M  V30 491 H 46.482 -0.563396 1.48363 0
M  V30 492 H 46.503 -3.23412 2.00462 0
M  V30 493 H 46.015 -1.9851 3.33489 0
M  V30 494 H 44.116 -3.46724 1.3643 0
M  V30 495 H 44.229 -3.52221 3.24772 0
M  V30 496 H 42.593 -1.93673 1.65418 0
M  V30 497 H 43.376 -1.27312 3.18821 0
M  V30 498 N 45.8211 -1.22559 -0.990812 0
M  V30 499 C 46.7511 -1.0218 -2.09956 0
M  V30 500 C 47.7321 0.0579394 -1.70001 0
M  V30 501 O 48.9171 -0.104684 -1.93918 0
M  V30 502 C 46.0471 -0.601023 -3.4206 0
M  V30 503 C 45.0011 -1.62694 -3.95872 0
M  V30 504 C 44.3271 -1.06193 -5.24049 0
M  V30 505 C 45.6271 -3.01743 -4.2632 0
M  V30 506 H 47.3211 -1.94916 -2.27262 0
M  V30 507 H 44.8671 -0.938566 -1.09211 0
M  V30 508 H 46.8201 -0.445561 -4.19038 0
M  V30 509 H 45.5441 0.362005 -3.24588 0
M  V30 510 H 44.2031 -1.77021 -3.21028 0
M  V30 511 H 43.8511 -0.0901903 -5.02919 0
M  V30 512 H 43.5511 -1.74732 -5.61019 0
M  V30 513 H 45.0751 -0.918092 -6.03658 0
M  V30 514 H 46.4891 -2.90777 -4.94087 0
M  V30 515 H 44.8861 -3.67425 -4.74467 0
M  V30 516 H 45.9561 -3.51518 -3.34011 0
M  V30 517 N 47.2992 1.18797 -1.03562 0
M  V30 518 C 48.5462 1.8865 -0.736023 0
M  V30 519 C 48.8742 1.80041 0.735889 0
M  V30 520 O 48.1292 1.19179 1.55225 0
M  V30 521 C 48.4282 3.38692 -1.14117 0
M  V30 522 C 48.0942 3.67504 -2.6125 0
M  V30 523 C 46.7562 3.75078 -3.01447 0
M  V30 524 C 49.1082 3.80293 -3.56408 0
M  V30 525 C 46.4362 3.92915 -4.35701 0
M  V30 526 C 48.7882 3.99645 -4.90374 0
M  V30 527 C 47.4522 4.05453 -5.30249 0
M  V30 528 H 46.7222 0.690321 -0.26933 0
M  V30 529 H 49.3692 1.40641 -1.29971 0
M  V30 530 H 47.6742 3.88645 -0.496202 0
M  V30 531 H 49.3712 3.91072 -0.886789 0
M  V30 532 H 45.9612 3.62223 -2.29113 0
M  V30 533 H 50.1452 3.73779 -3.26501 0
M  V30 534 H 45.4012 3.95653 -4.66121 0
M  V30 535 H 49.5752 4.08482 -5.64017 0
M  V30 536 H 47.2022 4.19027 -6.34288 0
M  V30 537 N 48.7773 0.814389 1.34928 0
M  V30 538 C 50.0253 0.397636 1.9815 0
M  V30 539 C 50.3463 -1.04069 1.64908 0
M  V30 540 O 49.6163 -1.72121 0.93548 0
M  V30 541 H 48.1963 0.144043 0.732981 0
M  V30 542 H 50.8583 1.04195 1.6471 0
M  V30 543 H 49.9543 0.509688 3.0791 0
M  V30 544 N 50.2554 -1.46986 0.568584 0
M  V30 545 C 51.1654 -2.33942 -0.17555 0
M  V30 546 C 52.1814 -1.48891 -0.90041 0
M  V30 547 O 53.3574 -1.81794 -0.86676 0
M  V30 548 C 50.4224 -3.25811 -1.18524 0
M  V30 549 C 49.4834 -4.26757 -0.466582 0
M  V30 550 C 48.7164 -5.14236 -1.42817 0
M  V30 551 O 48.9394 -5.04379 -2.66379 0
M  V30 552 O 47.8734 -5.94412 -0.946453 0
M  V30 553 H 51.6994 -2.98896 0.538036 0
M  V30 554 H 49.2844 -1.4573 0.329097 0
M  V30 555 H 51.1664 -3.82527 -1.76779 0
M  V30 556 H 49.8414 -2.63471 -1.88055 0
M  V30 557 H 48.7484 -3.73769 0.157451 0
M  V30 558 H 50.0814 -4.91843 0.187485 0
M  V30 559 N 51.7335 -0.305618 -1.54608 0
M  V30 560 C 53.1495 0.0476228 -1.59529 0
M  V30 561 C 53.3495 1.52025 -1.32252 0
M  V30 562 O 52.4055 2.27368 -1.09818 0
M  V30 563 C 53.7185 -0.354471 -2.98603 0
M  V30 564 C 55.2665 -0.303622 -3.11524 0
M  V30 565 C 55.7415 -0.680608 -4.52915 0
M  V30 566 N 57.2325 -0.63332 -4.5885 0
M  V30 567 C 57.9675 -0.897432 -5.66334 0
M  V30 568 N 57.4635 -1.22775 -6.81834 0
M  V30 569 N 59.2565 -0.824186 -5.56025 0
M  V30 570 H 51.4075 -1.2653 -1.70599 0
M  V30 571 H 53.6705 -0.513291 -0.797017 0
M  V30 572 H 53.3765 -1.3798 -3.23503 0
M  V30 573 H 53.2505 0.289568 -3.76087 0
M  V30 574 H 55.6375 0.712472 -2.8637 0
M  V30 575 H 55.7185 -0.982348 -2.36185 0
M  V30 576 H 55.3625 -1.69453 -4.78799 0
M  V30 577 H 55.2925 0.0202385 -5.26596 0
M  V30 578 H 57.7835 -0.389138 -3.75891 0
M  V30 579 H 58.0965 -1.41513 -7.59733 0
M  V30 580 H 56.4415 -1.26583 -6.83375 0
M  V30 581 H 59.6325 -0.565748 -4.64669 0
M  V30 582 H 59.8055 -1.03338 -6.39707 0
M  V30 583 N 53.2116 1.57565 -0.0334293 0
M  V30 584 C 54.4596 1.91598 0.642999 0
M  V30 585 C 54.7806 0.910847 1.7242 0
M  V30 586 O 54.0506 -0.0469931 1.95844 0
M  V30 587 H 52.6306 0.707228 0.240496 0
M  V30 588 H 55.2926 1.94726 -0.0822488 0
M  V30 589 H 54.3886 2.92336 1.09298 0
M  V30 590 N 54.6897 -0.239769 1.55765 0
M  V30 591 C 55.6527 -1.28038 1.90103 0
M  V30 592 C 56.6527 -1.40723 0.778055 0
M  V30 593 O 57.8427 -1.39301 1.04599 0
M  V30 594 C 54.9747 -2.65702 2.13577 0
M  V30 595 H 56.1677 -0.988048 2.83157 0
M  V30 596 H 53.7207 -0.479382 1.48767 0
M  V30 597 H 54.4557 -3.00063 1.23015 0
M  V30 598 H 54.2407 -2.57875 2.95369 0
M  V30 599 H 55.7307 -3.40828 2.41301 0
M  V30 600 N 56.1678 -1.49265 -0.50573 0
M  V30 601 C 57.4138 -1.58748 -1.26202 0
M  V30 602 C 57.7468 -0.271227 -1.92297 0
M  V30 603 O 57.0218 0.724831 -1.80489 0
M  V30 604 C 57.3048 -2.74332 -2.33268 0
M  V30 605 C 57.1578 -4.15737 -1.71705 0
M  V30 606 C 58.4768 -2.85576 -3.34865 0
M  V30 607 H 55.5958 -0.577826 -0.457478 0
M  V30 608 H 58.2378 -1.81532 -0.560897 0
M  V30 609 H 56.3878 -2.55036 -2.93068 0
M  V30 610 H 58.0598 -4.46537 -1.15769 0
M  V30 611 H 56.3028 -4.21605 -1.02135 0
M  V30 612 H 56.9738 -4.92477 -2.49341 0
M  V30 613 H 59.4498 -3.03127 -2.8505 0
M  V30 614 H 58.3258 -3.68135 -4.07146 0
M  V30 615 H 58.5868 -1.94732 -3.96903 0
M  V30 616 N 57.6459 0.756429 -1.3826 0
M  V30 617 C 58.5959 1.86069 -1.31766 0
M  V30 618 C 59.5799 1.59621 -0.202483 0
M  V30 619 O 60.7719 1.7149 -0.438211 0
M  V30 620 C 57.9009 3.23742 -1.1422 0
M  V30 621 C 56.9869 3.56091 -2.30348 0
M  V30 622 N 57.3779 3.59517 -3.55783 0
M  V30 623 C 55.6759 3.86341 -2.22838 0
M  V30 624 C 56.3769 3.89052 -4.32451 0
M  V30 625 N 55.3529 4.05736 -3.61772 0
M  V30 626 H 59.1549 1.86992 -2.26741 0
M  V30 627 H 56.6689 0.953643 -1.31451 0
M  V30 628 H 58.6659 4.02761 -1.07652 0
M  V30 629 H 57.3259 3.24073 -0.201763 0
M  V30 630 H 58.3369 3.41347 -3.89491 0
M  V30 631 H 55.0139 3.94404 -1.36937 0
M  V30 632 H 56.4039 3.98349 -5.4108 0
M  V30 633 N 59.124 1.23083 0.984299 0
M  V30 634 C 60.535 1.05609 1.5396 0
M  V30 635 C 60.886 -0.377793 1.92528 0
M  V30 636 O 60.011 -1.26398 1.75649 0
M  V30 637 C 60.606 1.91087 2.7977 0
M  V30 638 C 59.165 1.77885 3.31713 0
M  V30 639 C 58.312 1.87028 2.04733 0
M  V30 640 H 61.263 1.36802 0.804419 0
M  V30 641 H 61.284 1.43336 3.5247 0
M  V30 642 H 60.796 2.9544 2.51668 0
M  V30 643 H 58.897 0.762995 3.64704 0
M  V30 644 H 59.01 2.61047 4.01735 0
M  V30 645 H 57.374 1.30565 2.18689 0
M  V30 646 H 58.157 2.92929 1.79017 0
M  V30 647 N 60.6021 -1.18246 1.0419 0
M  V30 648 C 61.5341 -2.2142 0.592088 0
M  V30 649 C 62.5471 -1.59233 -0.338909 0
M  V30 650 O 63.7361 -1.78002 -0.133231 0
M  V30 651 C 60.8361 -3.38546 -0.154854 0
M  V30 652 C 60.0091 -4.3031 0.784328 0
M  V30 653 C 59.0681 -5.26138 0.0804583 0
M  V30 654 O 58.0941 -5.64738 0.711292 0
M  V30 655 N 59.2961 -5.68261 -1.18574 0
M  V30 656 H 62.0611 -2.60636 1.47949 0
M  V30 657 H 59.6221 -1.33044 0.922544 0
M  V30 658 H 61.6141 -3.99678 -0.635606 0
M  V30 659 H 60.1841 -2.98012 -0.943811 0
M  V30 660 H 59.4041 -3.66764 1.44491 0
M  V30 661 H 60.6921 -4.8852 1.42218 0
M  V30 662 H 60.0901 -5.38957 -1.71876 0
M  V30 663 H 58.6471 -6.31584 -1.61074 0
M  V30 664 N 62.0802 -0.821533 -1.34494 0
M  V30 665 C 63.3052 -0.420873 -2.03085 0
M  V30 666 C 63.7302 0.964915 -1.61465 0
M  V30 667 O 63.0882 1.62763 -0.798607 0
M  V30 668 C 63.1362 -0.529414 -3.56693 0
M  V30 669 O 62.2402 0.451302 -4.09923 0
M  V30 670 H 61.5812 -0.173489 -0.640935 0
M  V30 671 H 64.1112 -1.11157 -1.71771 0
M  V30 672 H 64.1212 -0.404671 -4.05988 0
M  V30 673 H 62.7962 -1.54014 -3.86332 0
M  V30 674 H 61.3732 0.285558 -3.71805 0
M  V30 675 N 63.5583 1.46682 -0.576371 0
M  V30 676 C 64.7863 2.06798 -0.0649635 0
M  V30 677 C 65.2013 1.42612 1.23723 0
M  V30 678 O 64.5583 0.529203 1.74659 0
M  V30 679 C 64.6093 3.6132 0.114202 0
M  V30 680 O 64.3303 4.23104 -1.13644 0
M  V30 681 C 65.8313 4.38349 0.66069 0
M  V30 682 H 63.0513 0.668778 -0.0545616 0
M  V30 683 H 65.5953 1.88404 -0.795237 0
M  V30 684 H 63.7503 3.79162 0.794673 0
M  V30 685 H 64.1643 5.15894 -0.946253 0
M  V30 686 H 65.6383 5.47081 0.73526 0
M  V30 687 H 66.1153 4.05953 1.67627 0
M  V30 688 H 66.7213 4.25297 0.0152951 0
M  V30 689 N 65.0364 0.313813 1.54444 0
M  V30 690 C 65.9664 -0.549454 2.26943 0
M  V30 691 C 66.9474 -1.12741 1.27372 0
M  V30 692 O 68.1324 -1.15436 1.56167 0
M  V30 693 C 65.2624 -1.71523 3.01989 0
M  V30 694 C 64.2164 -1.26703 4.08816 0
M  V30 695 C 63.5424 -2.51898 4.71647 0
M  V30 696 C 64.8424 -0.388962 5.2085 0
M  V30 697 H 66.5364 0.0552661 2.99349 0
M  V30 698 H 64.0824 0.0280207 1.43973 0
M  V30 699 H 66.0354 -2.32535 3.51433 0
M  V30 700 H 64.7594 -2.34639 2.27183 0
M  V30 701 H 63.4184 -0.679896 3.6024 0
M  V30 702 H 63.0664 -3.13356 3.93468 0
M  V30 703 H 62.7664 -2.22605 5.43802 0
M  V30 704 H 64.2904 -3.1369 5.23861 0
M  V30 705 H 65.7044 -0.905107 5.6611 0
M  V30 706 H 64.1014 -0.18924 5.99802 0
M  V30 707 H 65.1714 0.582699 4.81386 0
M  V30 708 N 66.5145 -1.57545 0.0417849 0
M  V30 709 C 67.4615 -2.10977 -0.935805 0
M  V30 710 C 68.4315 -1.01486 -1.31491 0
M  V30 711 O 69.6165 -1.2898 -1.40602 0
M  V30 712 C 66.7565 -2.65169 -2.2086 0
M  V30 713 C 65.8695 -3.88714 -1.88482 0
M  V30 714 C 65.0045 -4.31254 -3.1015 0
M  V30 715 C 64.0435 -5.47524 -2.7365 0
M  V30 716 N 63.1805 -5.85162 -3.87982 0
M  V30 717 H 68.0205 -2.94218 -0.473249 0
M  V30 718 H 65.5575 -1.45415 -0.221981 0
M  V30 719 H 67.5155 -2.94685 -2.95325 0
M  V30 720 H 66.1455 -1.8474 -2.64709 0
M  V30 721 H 65.1975 -3.65849 -1.04205 0
M  V30 722 H 66.5095 -4.73245 -1.57608 0
M  V30 723 H 65.6635 -4.62273 -3.92923 0
M  V30 724 H 64.4025 -3.45516 -3.44195 0
M  V30 725 H 63.4075 -5.16187 -1.89291 0
M  V30 726 H 64.6325 -6.34971 -2.40807 0
M  V30 727 H 62.5785 -5.02377 -4.21846 0
M  V30 728 H 62.4955 -6.64362 -3.60775 0
M  V30 729 H 63.7635 -6.20791 -4.71422 0
M  V30 730 N 67.9926 0.231505 -1.5589 0
M  V30 731 C 68.9226 1.29022 -1.94617 0
M  V30 732 C 69.9036 1.4941 -0.813067 0
M  V30 733 O 71.0886 1.6176 -1.07459 0
M  V30 734 C 68.2186 2.64199 -2.25424 0
M  V30 735 C 67.1726 2.58484 -3.41131 0
M  V30 736 C 66.4986 3.97599 -3.57518 0
M  V30 737 C 67.7986 2.1413 -4.76388 0
M  V30 738 H 69.4926 0.968563 -2.83301 0
M  V30 739 H 67.0386 0.464479 -1.36303 0
M  V30 740 H 68.9916 3.38413 -2.51107 0
M  V30 741 H 67.7156 2.98032 -1.33583 0
M  V30 742 H 66.3746 1.86727 -3.15481 0
M  V30 743 H 66.0226 4.28723 -2.6307 0
M  V30 744 H 65.7226 3.94659 -4.35337 0
M  V30 745 H 67.2466 4.7349 -3.85538 0
M  V30 746 H 68.6606 2.78083 -5.01341 0
M  V30 747 H 67.0576 2.2227 -5.57419 0
M  V30 748 H 68.1276 1.09331 -4.72414 0
M  V30 749 N 69.4707 1.49531 0.497807 0
M  V30 750 C 70.8817 1.52344 1.07927 0
M  V30 751 C 71.2327 0.311469 1.93712 0
M  V30 752 O 70.3577 -0.578405 2.08527 0
M  V30 753 C 70.9527 2.76062 1.96405 0
M  V30 754 C 69.5117 2.81643 2.49709 0
M  V30 755 C 68.6587 2.46299 1.27404 0
M  V30 756 H 71.6097 1.56182 0.281576 0
M  V30 757 H 71.6307 2.56405 2.81135 0
M  V30 758 H 71.1427 3.64254 1.33943 0
M  V30 759 H 69.2437 1.97739 3.15801 0
M  V30 760 H 69.3567 3.83891 2.86643 0
M  V30 761 H 67.7207 1.98148 1.60029 0
M  V30 762 H 68.5037 3.36769 0.66645 0
M  V30 763 N 70.9488 -0.749086 1.3866 0
M  V30 764 C 71.8988 -1.85368 1.32751 0
M  V30 765 C 72.8828 -1.59511 0.210945 0
M  V30 766 O 74.0748 -1.71255 0.447299 0
M  V30 767 C 71.2038 -3.23131 1.15935 0
M  V30 768 C 70.2898 -3.54864 2.32233 0
M  V30 769 N 70.6808 -3.57625 3.57684 0
M  V30 770 C 68.9788 -3.85154 2.24883 0
M  V30 771 C 69.6798 -3.86753 4.34508 0
M  V30 772 N 68.6558 -4.03812 3.63918 0
M  V30 773 H 72.4578 -1.85787 2.27729 0
M  V30 774 H 69.9718 -0.946658 1.31955 0
M  V30 775 H 71.9688 -4.02185 1.09786 0
M  V30 776 H 70.6288 -3.23961 0.218947 0
M  V30 777 H 71.6398 -3.39276 3.91295 0
M  V30 778 H 68.3168 -3.93672 1.39027 0
M  V30 779 H 69.7068 -3.95474 5.43185 0
M  V30 780 N 72.4269 -1.23603 -0.977757 0
M  V30 781 C 73.3739 -1.01954 -2.07061 0
M  V30 782 C 74.3439 0.0638697 -1.65977 0
M  V30 783 O 75.5289 -0.0887624 -1.90593 0
M  V30 784 C 72.6689 -0.619658 -3.39491 0
M  V30 785 C 71.7819 -1.77547 -3.93829 0
M  V30 786 C 70.9169 -1.32212 -5.14484 0
M  V30 787 C 69.9559 -2.44852 -5.60994 0
M  V30 788 N 69.0929 -2.00456 -6.72876 0
M  V30 789 H 73.9329 -1.95495 -2.24913 0
M  V30 790 H 71.4699 -0.973861 -1.10247 0
M  V30 791 H 73.4279 -0.368898 -4.15566 0
M  V30 792 H 72.0579 0.278752 -3.21594 0
M  V30 793 H 71.1099 -2.14016 -3.14486 0
M  V30 794 H 72.4219 -2.62219 -4.24314 0
M  V30 795 H 71.5759 -1.02965 -5.97899 0
M  V30 796 H 70.3149 -0.445808 -4.85658 0
M  V30 797 H 69.3199 -2.74871 -4.76157 0
M  V30 798 H 70.5449 -3.33024 -5.91837 0
M  V30 799 H 68.4909 -1.15208 -6.45804 0
M  V30 800 H 68.4079 -2.78687 -7.02759 0
M  V30 801 H 69.6759 -1.7432 -7.59758 0
M  V30 802 N 73.905 1.17692 -1.04816 0
M  V30 803 C 75.321 1.39863 -0.768794 0
M  V30 804 C 75.521 1.91118 0.638451 0
M  V30 805 O 74.577 2.10036 1.40146 0
M  V30 806 C 75.89 2.39274 -1.82122 0
M  V30 807 C 77.438 2.52987 -1.843 0
M  V30 808 C 77.913 3.55669 -2.88555 0
M  V30 809 N 79.404 3.63183 -2.87493 0
M  V30 810 C 80.139 4.42381 -3.64811 0
M  V30 811 N 79.635 5.25125 -4.51903 0
M  V30 812 N 81.428 4.37217 -3.53267 0
M  V30 813 H 73.579 0.82752 -1.95617 0
M  V30 814 H 75.842 0.426123 -0.846831 0
M  V30 815 H 75.548 2.08678 -2.83102 0
M  V30 816 H 75.422 3.38725 -1.65967 0
M  V30 817 H 77.809 2.82896 -0.839869 0
M  V30 818 H 77.89 1.53623 -2.04532 0
M  V30 819 H 77.534 3.26499 -3.89051 0
M  V30 820 H 77.464 4.54728 -2.65575 0
M  V30 821 H 79.955 3.04103 -2.24343 0
M  V30 822 H 80.268 5.82728 -5.07591 0
M  V30 823 H 78.613 5.24519 -4.55966 0
M  V30 824 H 81.804 3.71626 -2.84625 0
M  V30 825 H 81.977 4.98696 -4.13771 0
M  V30 826 N 75.3831 0.828654 1.34056 0
M  V30 827 C 76.6311 0.41863 1.97717 0
M  V30 828 C 76.9521 -1.02314 1.66002 0
M  V30 829 O 76.2221 -1.71119 0.953683 0
M  V30 830 H 74.8021 0.151809 0.731412 0
M  V30 831 H 77.4641 1.05936 1.63596 0
M  V30 832 H 76.5601 0.542318 3.07352 0
M  V30 833 N 76.8612 -1.46375 0.584142 0
M  V30 834 C 77.7712 -2.34115 -0.150728 0
M  V30 835 C 78.7872 -1.49838 -0.884567 0
M  V30 836 O 79.9632 -1.82704 -0.847429 0
M  V30 837 C 77.0282 -3.2705 -1.15062 0
M  V30 838 C 76.0892 -4.27228 -0.421293 0
M  V30 839 C 75.3222 -5.15722 -1.37355 0
M  V30 840 O 75.5452 -5.07176 -2.61014 0
M  V30 841 O 74.4792 -5.95383 -0.883355 0
M  V30 842 H 78.3052 -2.98309 0.569708 0
M  V30 843 H 75.8902 -1.45373 0.344535 0
M  V30 844 H 77.7722 -3.84381 -1.72712 0
M  V30 845 H 76.4472 -2.65451 -1.8525 0
M  V30 846 H 75.3542 -3.7358 0.197085 0
M  V30 847 H 76.6872 -4.91616 0.239641 0
M  V30 848 N 78.3393 -0.321999 -1.54275 0
M  V30 849 C 79.7553 0.0306999 -1.5957 0
M  V30 850 C 79.9553 1.50614 -1.33857 0
M  V30 851 O 79.0113 2.2619 -1.12223 0
M  V30 852 C 80.3243 -0.386122 -2.98211 0
M  V30 853 C 81.8723 -0.336647 -3.11184 0
M  V30 854 C 82.3473 -0.728607 -4.52167 0
M  V30 855 N 83.8383 -0.681952 -4.58152 0
M  V30 856 C 84.5733 -0.957449 -5.6535 0
M  V30 857 N 84.0693 -1.3 -6.80494 0
M  V30 858 N 85.8623 -0.883113 -5.55119 0
M  V30 859 H 78.0133 -1.28332 -1.69247 0
M  V30 860 H 80.2763 -0.521716 -0.791528 0
M  V30 861 H 79.9823 -1.41404 -3.22022 0
M  V30 862 H 79.8563 0.249662 -3.76373 0
M  V30 863 H 82.2433 0.682058 -2.8711 0
M  V30 864 H 82.3243 -1.00734 -2.3513 0
M  V30 865 H 81.9683 -1.74522 -4.76974 0
M  V30 866 H 81.8983 -0.0356152 -5.26588 0
M  V30 867 H 84.3893 -0.428985 -3.75457 0
M  V30 868 H 84.7023 -1.49563 -7.58189 0
M  V30 869 H 83.0473 -1.33824 -6.81994 0
M  V30 870 H 86.2383 -0.615001 -4.64042 0
M  V30 871 H 86.4113 -1.10118 -6.38575 0
M  V30 872 N 79.8174 1.5752 -0.0501392 0
M  V30 873 C 81.0944 1.83996 0.663685 0
M  V30 874 C 81.4744 0.938339 1.89099 0
M  V30 875 O 80.8224 -0.00087759 2.285 0
M  V30 876 C 81.0324 3.33702 1.02196 0
M  V30 877 C 82.3804 4.00691 1.40469 0
M  V30 878 O 83.4044 3.38321 1.11433 0
M  V30 879 O 82.2634 5.10658 1.94654 0
M  V30 880 H 79.3574 0.759385 0.32751 0
M  V30 881 H 81.9034 1.69514 -0.0794238 0
M  V30 882 H 80.6754 3.91015 0.149364 0
M  V30 883 H 80.2984 3.53368 1.82255 0
M  V30 884 N 81.2955 -0.223234 1.56011 0
M  V30 885 C 82.5415 -0.949279 1.79211 0
M  V30 886 C 82.8745 -1.84054 0.619494 0
M  V30 887 O 82.1495 -1.90726 -0.381317 0
M  V30 888 C 82.4325 -1.78965 3.12479 0
M  V30 889 C 82.2855 -0.924997 4.40186 0
M  V30 890 C 83.6045 -2.76774 3.42175 0
M  V30 891 H 80.7235 -0.343676 0.651963 0
M  V30 892 H 83.3655 -0.218253 1.88742 0
M  V30 893 H 81.5155 -2.41291 3.04485 0
M  V30 894 H 83.1875 -0.318615 4.60198 0
M  V30 895 H 81.4305 -0.230344 4.33188 0
M  V30 896 H 82.1015 -1.54735 5.29869 0
M  V30 897 H 84.5775 -2.24584 3.50287 0
M  V30 898 H 83.4535 -3.32678 4.36597 0
M  V30 899 H 83.7145 -3.54429 2.64258 0
M  V30 900 N 82.7736 -1.49793 -0.48987 0
M  V30 901 C 84.1846 -1.52914 -1.07118 0
M  V30 902 C 84.5356 -0.321738 -1.93544 0
M  V30 903 O 83.6606 0.567338 -2.08831 0
M  V30 904 C 84.2556 -2.771 -1.94938 0
M  V30 905 C 82.8146 -2.82963 -2.48212 0
M  V30 906 C 81.9616 -2.46972 -1.26096 0
M  V30 907 H 84.9126 -1.56329 -0.273289 0
M  V30 908 H 84.9336 -2.57892 -2.79771 0
M  V30 909 H 84.4456 -3.64959 -1.32009 0
M  V30 910 H 82.5466 -1.99411 -3.14748 0
M  V30 911 H 82.6596 -3.85406 -2.84603 0
M  V30 912 H 81.0236 -1.98994 -1.58976 0
M  V30 913 H 81.8066 -3.37118 -0.648581 0
M  V30 914 N 84.2517 0.741722 -1.39055 0
M  V30 915 C 85.4797 1.53098 -1.39171 0
M  V30 916 C 85.8947 1.88794 0.0155099 0
M  V30 917 O 85.2517 1.53626 0.985159 0
M  V30 918 C 85.3027 2.82274 -2.2584 0
M  V30 919 O 85.0237 2.48097 -3.61081 0
M  V30 920 C 86.5247 3.76343 -2.34266 0
M  V30 921 H 83.7447 0.473335 -0.4756 0
M  V30 922 H 86.2887 0.917045 -1.82785 0
M  V30 923 H 84.4437 3.40015 -1.85656 0
M  V30 924 H 84.8577 3.31029 -4.06842 0
M  V30 925 H 86.3317 4.63898 -2.9917 0
M  V30 926 H 86.8087 4.17619 -1.35982 0
M  V30 927 H 87.4147 3.24523 -2.74891 0
M  V30 928 N 85.7298 1.2412 0.971189 0
M  V30 929 C 86.6778 1.02812 2.08644 0
M  V30 930 C 87.6718 -0.0358403 1.69362 0
M  V30 931 O 88.8778 0.118429 1.7961 0
M  V30 932 H 85.2528 0.315428 0.682649 0
M  V30 933 H 87.2238 1.97397 2.23779 0
M  V30 934 C 85.9728 0.645874 3.41649 0
M  V30 935 H 85.2958 1.45632 3.72332 0
M  V30 936 H 86.7358 0.536366 4.20594 0
M  V30 937 C 85.1948 -0.646713 3.30635 0
M  V30 938 O 85.7248 -1.69338 3.64263 0
M  V30 939 N 83.9308 -0.626115 2.83775 0
M  V30 940 H 83.4778 0.225988 2.56607 0
M  V30 941 H 83.4358 -1.49117 2.76788 0
M  V30 942 N 87.2079 -1.17134 1.05439 0
M  V30 943 C 88.1379 -2.2342 0.678649 0
M  V30 944 C 89.1189 -1.66971 -0.32476 0
M  V30 945 O 90.3039 -1.93149 -0.201802 0
M  V30 946 C 87.4339 -3.47256 0.0552099 0
M  V30 947 C 86.3879 -4.16543 0.98365 0
M  V30 948 C 85.7139 -5.34231 0.223961 0
M  V30 949 C 87.0139 -4.68495 2.3089 0
M  V30 950 H 88.7079 -2.55105 1.56722 0
M  V30 951 H 86.2539 -1.2262 0.754998 0
M  V30 952 H 88.2069 -4.20828 -0.21946 0
M  V30 953 H 86.9309 -3.14846 -0.868319 0
M  V30 954 H 85.5899 -3.44887 1.24293 0
M  V30 955 H 85.2379 -4.98071 -0.702412 0
M  V30 956 H 84.9379 -5.81527 0.842627 0
M  V30 957 H 86.4619 -6.10585 -0.0433671 0
M  V30 958 H 87.8759 -5.33691 2.09396 0
M  V30 959 H 86.2729 -5.26379 2.88176 0
M  V30 960 H 87.3429 -3.85169 2.94572 0
M  V30 961 N 88.686 -0.835752 -1.33615 0
M  V30 962 C 89.649 -0.272 -2.2758 0
M  V30 963 C 90.649 0.557487 -1.50827 0
M  V30 964 O 91.839 0.37173 -1.70188 0
M  V30 965 C 88.971 0.617173 -3.35267 0
M  V30 966 H 90.164 -1.10111 -2.78954 0
M  V30 967 H 87.717 -0.608594 -1.43965 0
M  V30 968 H 88.452 1.46884 -2.89129 0
M  V30 969 H 88.237 0.0237066 -3.92093 0
M  V30 970 H 89.727 1.005 -4.05326 0
M  V30 971 N 90.1641 1.46063 -0.591896 0
M  V30 972 C 91.3891 2.07226 -0.0850314 0
M  V30 973 C 91.8141 1.43625 1.21463 0
M  V30 974 O 91.1721 0.523305 1.73583 0
M  V30 975 C 91.2201 3.60554 0.0576567 0
M  V30 976 O 90.3241 3.97128 1.11188 0
M  V30 977 H 89.6651 0.660615 -0.0669568 0
M  V30 978 H 92.1951 1.8756 -0.81745 0
M  V30 979 H 92.2051 4.07165 0.2609 0
M  V30 980 H 90.8801 4.06235 -0.891416 0
M  V30 981 H 89.4571 3.62213 0.886356 0
M  V30 982 N 91.6422 0.330177 1.54103 0
M  V30 983 C 92.5722 -0.525353 2.27513 0
M  V30 984 C 93.5532 -1.11383 1.2856 0
M  V30 985 O 94.7382 -1.13773 1.57383 0
M  V30 986 C 91.8682 -1.6831 3.03791 0
M  V30 987 C 90.8222 -1.2236 4.10137 0
M  V30 988 C 90.1482 -2.46882 4.74293 0
M  V30 989 C 91.4482 -0.333697 5.21233 0
M  V30 990 H 93.1422 0.087013 2.99274 0
M  V30 991 H 90.6882 0.0432893 1.43935 0
M  V30 992 H 92.6412 -2.28795 3.5388 0
M  V30 993 H 91.3652 -2.32216 2.29659 0
M  V30 994 H 90.0242 -0.64165 3.60941 0
M  V30 995 H 89.6722 -3.09165 3.96769 0
M  V30 996 H 89.3722 -2.16825 5.46133 0
M  V30 997 H 90.8962 -3.08117 5.27159 0
M  V30 998 H 92.3102 -0.845013 5.67038 0
M  V30 999 H 90.7072 -0.125612 5.99969 0
M  V30 1000 H 91.7772 0.633724 4.80741 0
M  V30 1001 N 93.1203 -1.57491 0.0584922 0
M  V30 1002 C 94.5313 -1.80526 -0.476138 0
M  V30 1003 C 94.8823 -0.971334 -1.70469 0
M  V30 1004 O 94.0073 -0.190012 -2.15564 0
M  V30 1005 C 94.6023 -3.27424 -0.870587 0
M  V30 1006 C 93.1613 -3.51351 -1.35015 0
M  V30 1007 C 92.3083 -2.75343 -0.32887 0
M  V30 1008 H 95.2593 -1.56133 0.284312 0
M  V30 1009 H 95.2803 -3.38745 -1.73299 0
M  V30 1010 H 94.7923 -3.88093 0.0237627 0
M  V30 1011 H 92.8933 -2.95971 -2.26345 0
M  V30 1012 H 93.0063 -4.60059 -1.33726 0
M  V30 1013 H 91.3703 -2.417 -0.803321 0
M  V30 1014 H 92.1533 -3.38743 0.557521 0
M  V30 1015 N 94.5984 0.214957 -1.56127 0
M  V30 1016 C 95.5454 1.26642 -1.92952 0
M  V30 1017 C 96.5154 1.46244 -0.78753 0
M  V30 1018 O 97.7004 1.59704 -1.04399 0
M  V30 1019 C 94.8404 2.6104 -2.25726 0
M  V30 1020 C 93.9534 2.49183 -3.52891 0
M  V30 1021 C 93.0884 3.76149 -3.7508 0
M  V30 1022 C 92.1274 3.59041 -4.95738 0
M  V30 1023 N 91.2644 4.77972 -5.14283 0
M  V30 1024 H 96.1044 0.945384 -2.82607 0
M  V30 1025 H 93.6414 0.455489 -1.3987 0
M  V30 1026 H 95.5994 3.39313 -2.42739 0
M  V30 1027 H 94.2294 2.91227 -1.39236 0
M  V30 1028 H 93.2814 1.6231 -3.44034 0
M  V30 1029 H 94.5934 2.32466 -4.41318 0
M  V30 1030 H 93.7474 4.62865 -3.92226 0
M  V30 1031 H 92.4864 3.95799 -2.84947 0
M  V30 1032 H 91.4914 2.7071 -4.78535 0
M  V30 1033 H 92.7164 3.40856 -5.87362 0
M  V30 1034 H 90.6624 4.97923 -4.27093 0
M  V30 1035 H 90.5794 4.64006 -5.96853 0
M  V30 1036 H 91.8474 5.66096 -5.35869 0
M  V30 1037 N 96.0765 1.50051 0.48192 0
M  V30 1038 C 97.4925 1.37237 0.814756 0
M  V30 1039 C 97.6925 0.420109 1.97072 0
M  V30 1040 O 96.7485 -0.141246 2.52105 0
M  V30 1041 C 98.0615 2.78375 1.13701 0
M  V30 1042 C 99.6095 2.87213 1.2441 0
M  V30 1043 C 100.084 4.29161 1.59954 0
M  V30 1044 N 101.575 4.32061 1.66967 0
M  V30 1045 C 102.31 5.38879 1.95952 0
M  V30 1046 N 101.806 6.55918 2.23031 0
M  V30 1047 N 103.599 5.26312 1.97363 0
M  V30 1048 H 95.7505 2.10546 -0.28005 0
M  V30 1049 H 98.0135 0.945921 -0.0627454 0
M  V30 1050 H 97.7195 3.49845 0.360787 0
M  V30 1051 H 97.5935 3.14941 2.07586 0
M  V30 1052 H 99.9805 2.15969 2.01101 0
M  V30 1053 H 100.061 2.54204 0.285299 0
M  V30 1054 H 99.7055 5.00938 0.838067 0
M  V30 1055 H 99.6355 4.59648 2.56966 0
M  V30 1056 H 102.126 3.47661 1.48123 0
M  V30 1057 H 102.439 7.33139 2.44391 0
M  V30 1058 H 100.784 6.59112 2.20447 0
M  V30 1059 H 103.975 4.33876 1.75697 0
M  V30 1060 H 104.148 6.09649 2.19618 0
M  V30 1061 N 97.5546 -0.734337 1.39446 0
M  V30 1062 C 98.8026 -1.49096 1.36436 0
M  V30 1063 C 99.1236 -1.94961 -0.0388255 0
M  V30 1064 O 98.3936 -1.69033 -0.990191 0
M  V30 1065 H 96.9736 -0.5531 0.502085 0
M  V30 1066 H 99.6356 -0.871725 1.74319 0
M  V30 1067 H 98.7316 -2.37276 2.02747 0
M  V30 1068 N 99.0327 -1.24633 -0.964593 0
M  V30 1069 C 100.31 -0.995809 -1.68354 0
M  V30 1070 C 100.69 0.480964 -2.05548 0
M  V30 1071 O 100.038 1.45599 -1.76105 0
M  V30 1072 C 100.248 -1.92177 -2.91323 0
M  V30 1073 C 101.596 -2.19446 -3.63495 0
M  V30 1074 O 102.62 -1.89855 -3.01386 0
M  V30 1075 O 101.479 -2.69714 -4.75307 0
M  V30 1076 H 98.5727 -0.376854 -0.736146 0
M  V30 1077 H 101.119 -1.35745 -1.0184 0
M  V30 1078 H 99.8907 -2.91938 -2.60553 0
M  V30 1079 H 99.5137 -1.56349 -3.65569 0
M  V30 1080 N 100.511 1.16574 -1.06058 0
M  V30 1081 C 101.751 1.88723 -0.78504 0
M  V30 1082 C 102.115 1.79706 0.676006 0
M  V30 1083 O 103.316 2.46757 1.06603 0
M  V30 1084 C 101.587 3.34338 -1.26304 0
M  V30 1085 S 103.146 4.24366 -1.1162 0
M  V30 1086 H 99.9638 0.651448 -0.284846 0
M  V30 1087 H 102.566 1.40732 -1.35701 0
M  V30 1088 H 101.27 3.38439 -2.32136 0
M  V30 1089 H 100.801 3.87378 -0.685719 0
M  V30 1090 H 102.816 4.96179 -0.0456539 0
M  V30 1091 N 101.989 0.842826 1.3317 0
M  V30 1092 C 103.405 0.531128 1.50503 0
M  V30 1093 C 103.605 -0.940734 1.78192 0
M  V30 1094 O 102.661 -1.72436 1.84451 0
M  V30 1095 C 103.974 1.40789 2.65705 0
M  V30 1096 C 105.522 1.40708 2.79589 0
M  V30 1097 C 105.997 2.26878 3.97857 0
M  V30 1098 N 107.488 2.24609 4.05099 0
M  V30 1099 C 108.223 2.88019 4.95815 0
M  V30 1100 N 107.719 3.60496 5.9162 0
M  V30 1101 N 109.512 2.77469 4.88843 0
M  V30 1102 H 101.663 1.79557 1.1346 0
M  V30 1103 H 103.926 0.766267 0.558156 0
M  V30 1104 H 103.632 2.454 2.51936 0
M  V30 1105 H 103.506 1.08677 3.61205 0
M  V30 1106 H 105.893 0.368668 2.92788 0
M  V30 1107 H 105.974 1.76829 1.84838 0
M  V30 1108 H 105.618 3.3078 3.85418 0
M  V30 1109 H 105.548 1.88096 4.91861 0
M  V30 1110 H 108.039 1.71906 3.36536 0
M  V30 1111 H 108.352 4.06076 6.57512 0
M  V30 1112 H 106.697 3.64604 5.91683 0
M  V30 1113 H 109.888 2.20406 4.12963 0
M  V30 1114 H 110.061 3.2717 5.59342 0
M  V30 1115 N 103.467 -1.45747 0.599634 0
M  V30 1116 C 104.692 -2.07178 0.0960198 0
M  V30 1117 C 105.117 -1.44268 -1.207 0
M  V30 1118 O 104.475 -0.532503 -1.73303 0
M  V30 1119 C 104.523 -3.60579 -0.0385348 0
M  V30 1120 O 103.627 -3.97713 -1.0908 0
M  V30 1121 H 102.968 -0.660251 0.0704593 0
M  V30 1122 H 105.498 -1.87124 0.827385 0
M  V30 1123 H 105.508 -4.07298 -0.239304 0
M  V30 1124 H 104.183 -4.05756 0.912947 0
M  V30 1125 H 102.76 -3.62678 -0.867135 0
M  V30 1126 N 104.945 -0.338344 -1.53925 0
M  V30 1127 C 106.193 0.259245 -2.0043 0
M  V30 1128 C 106.514 1.51484 -1.22791 0
M  V30 1129 O 105.784 1.93037 -0.33368 0
M  V30 1130 H 104.364 0.0987845 -0.740439 0
M  V30 1131 H 107.026 -0.458302 -1.89435 0
M  V30 1132 H 106.122 0.505334 -3.07982 0
M  V30 1133 N 106.423 1.57458 -0.0668435 0
M  V30 1134 C 107.371 2.13639 0.919851 0
M  V30 1135 C 108.365 1.07204 1.31163 0
M  V30 1136 O 109.571 1.25591 1.28945 0
M  V30 1137 H 105.946 0.683048 0.314562 0
M  V30 1138 H 107.917 2.95415 0.421047 0
M  V30 1139 C 106.666 2.70892 2.17975 0
M  V30 1140 H 105.989 3.5246 1.88711 0
M  V30 1141 H 107.429 3.13803 2.85138 0
M  V30 1142 C 105.888 1.65414 2.93496 0
M  V30 1143 O 106.418 1.07619 3.87015 0
M  V30 1144 N 104.624 1.36564 2.56512 0
M  V30 1145 H 104.171 1.83751 1.80536 0
M  V30 1146 H 104.129 0.66223 3.07347 0
M  V30 1147 N 107.901 -0.206675 1.56239 0
M  V30 1148 C 109.126 -0.949474 1.8439 0
M  V30 1149 C 109.551 -1.76549 0.649016 0
M  V30 1150 O 108.909 -1.76782 -0.402231 0
M  V30 1151 C 108.957 -1.83078 3.10668 0
M  V30 1152 O 108.061 -2.9281 2.90407 0
M  V30 1153 H 107.402 -0.268033 0.607499 0
M  V30 1154 H 109.932 -0.215488 2.03462 0
M  V30 1155 H 109.942 -2.2377 3.41161 0
M  V30 1156 H 108.617 -1.23112 3.97261 0
M  V30 1157 H 107.194 -2.55956 2.71184 0
M  V30 1158 N 109.379 -1.50304 -0.473955 0
M  V30 1159 C 110.795 -1.37667 -0.807466 0
M  V30 1160 C 110.995 -0.430555 -1.96846 0
M  V30 1161 O 110.051 0.127874 -2.52176 0
M  V30 1162 C 111.364 -2.78974 -1.12223 0
M  V30 1163 C 112.912 -2.87868 -1.22885 0
M  V30 1164 C 113.387 -4.30003 -1.57676 0
M  V30 1165 N 114.878 -4.3294 -1.64673 0
M  V30 1166 C 115.613 -5.3991 -1.93091 0
M  V30 1167 N 115.109 -6.57092 -2.1955 0
M  V30 1168 N 116.902 -5.27351 -1.94569 0
M  V30 1169 H 109.053 -2.10394 0.291212 0
M  V30 1170 H 111.316 -0.945575 0.0677609 0
M  V30 1171 H 111.022 -3.50031 -0.342229 0
M  V30 1172 H 110.896 -3.16038 -2.05913 0
M  V30 1173 H 113.283 -2.17032 -1.99953 0
M  V30 1174 H 113.364 -2.54352 -0.271814 0
M  V30 1175 H 113.008 -5.01375 -0.81149 0
M  V30 1176 H 112.938 -4.61004 -2.54525 0
M  V30 1177 H 115.429 -3.48441 -1.46277 0
M  V30 1178 H 115.742 -7.34425 -2.405 0
M  V30 1179 H 114.087 -6.60272 -2.16948 0
M  V30 1180 H 117.278 -4.34801 -1.73394 0
M  V30 1181 H 117.451 -6.10805 -2.16381 0
M  V30 1182 N 110.857 0.726932 -1.39834 0
M  V30 1183 C 112.105 1.4837 -1.37225 0
M  V30 1184 C 112.426 1.94979 0.0284857 0
M  V30 1185 O 111.696 1.69555 0.981213 0
M  V30 1186 H 110.276 0.55043 -0.505011 0
M  V30 1187 H 112.938 0.862468 -1.74778 0
M  V30 1188 H 112.034 2.36198 -2.04003 0
M  V30 1189 N 112.336 1.25143 0.95797 0
M  V30 1190 C 113.747 1.08851 1.51685 0
M  V30 1191 C 114.098 -0.33687 1.93286 0
M  V30 1192 O 113.223 -1.22644 1.7829 0
M  V30 1193 C 113.818 1.96978 2.75654 0
M  V30 1194 C 112.377 1.84881 3.27866 0
M  V30 1195 C 111.524 1.91329 2.0072 0
M  V30 1196 H 114.475 1.38478 0.77522 0
M  V30 1197 H 114.496 1.5078 3.4935 0
M  V30 1198 H 114.008 3.00712 2.45345 0
M  V30 1199 H 112.109 0.840182 3.63004 0
M  V30 1200 H 112.222 2.6951 3.96107 0
M  V30 1201 H 110.586 1.35174 2.15871 0
M  V30 1202 H 111.369 2.96661 1.72764 0
M  V30 1203 N 113.814 -1.1601 1.06675 0
M  V30 1204 C 115.06 -1.86909 0.786945 0
M  V30 1205 C 115.393 -1.81717 -0.685018 0
M  V30 1206 O 114.668 -1.23551 -1.50218 0
M  V30 1207 C 114.951 -3.36313 1.28707 0
M  V30 1208 C 114.804 -3.50175 2.82308 0
M  V30 1209 C 116.123 -4.3084 0.898071 0
M  V30 1210 H 113.242 -0.678677 0.287343 0
M  V30 1211 H 115.884 -1.36336 1.32334 0
M  V30 1212 H 114.034 -3.79513 0.830768 0
M  V30 1213 H 115.706 -3.15886 3.36175 0
M  V30 1214 H 113.949 -2.91959 3.20847 0
M  V30 1215 H 114.62 -4.55116 3.12368 0
M  V30 1216 H 117.096 -3.95561 1.29114 0
M  V30 1217 H 115.972 -5.33876 1.27543 0
M  V30 1218 H 116.233 -4.41662 -0.196651 0
M  V30 1219 N 115.292 -0.849877 -1.32721 0
M  V30 1220 C 116.517 -0.463856 -2.02146 0
M  V30 1221 C 116.942 0.930449 -1.63476 0
M  V30 1222 O 116.3 1.61033 -0.832952 0
M  V30 1223 C 116.348 -0.604955 -3.55489 0
M  V30 1224 O 115.452 0.36425 -4.10788 0
M  V30 1225 H 114.793 -0.187046 -0.637111 0
M  V30 1226 H 117.323 -1.14775 -1.69375 0
M  V30 1227 H 117.333 -0.490696 -4.05038 0
M  V30 1228 H 116.008 -1.62174 -3.82978 0
M  V30 1229 H 114.585 0.206628 -3.72327 0
M  V30 1230 N 116.77 1.45427 -0.607355 0
M  V30 1231 C 118.018 2.01841 -0.102253 0
M  V30 1232 C 118.339 1.47832 1.27164 0
M  V30 1233 O 117.609 0.672497 1.83995 0
M  V30 1234 H 116.189 0.746188 -0.0348101 0
M  V30 1235 H 118.851 1.78229 -0.7887 0
M  V30 1236 H 117.947 3.12057 -0.0518585 0
M  V30 1237 N 118.248 0.346503 1.53744 0
M  V30 1238 C 119.497 -0.250122 2.00143 0
M  V30 1239 C 119.81 -1.51418 1.23822 0
M  V30 1240 O 121.016 -2.18823 1.60713 0
M  V30 1241 C 119.472 -0.496252 3.56462 0
M  V30 1242 C 119.08 0.752077 4.41642 0
M  V30 1243 C 120.824 -1.05157 4.11269 0
M  V30 1244 C 118.731 0.476583 5.89477 0
M  V30 1245 H 117.661 -0.0972409 0.747703 0
M  V30 1246 H 120.312 0.46229 1.77581 0
M  V30 1247 H 118.694 -1.26944 3.75102 0
M  V30 1248 H 119.868 1.5266 4.34778 0
M  V30 1249 H 118.183 1.22925 3.97842 0
M  V30 1250 H 120.78 -1.27269 5.19333 0
M  V30 1251 H 121.123 -2.00799 3.64672 0
M  V30 1252 H 121.656 -0.339019 3.96353 0
M  V30 1253 H 118.395 1.4028 6.40314 0
M  V30 1254 H 117.915 -0.259794 5.99237 0
M  V30 1255 H 119.594 0.0949315 6.4693 0
M  V30 1256 N 119.726 -1.57421 0.075193 0
M  V30 1257 C 120.956 -1.97659 -0.601203 0
M  V30 1258 C 121.364 -0.952427 -1.63479 0
M  V30 1259 O 120.707 0.0688241 -1.83571 0
M  V30 1260 C 120.769 -3.34218 -1.32434 0
M  V30 1261 C 120.433 -4.5484 -0.443826 0
M  V30 1262 C 121.43 -5.19034 0.299969 0
M  V30 1263 C 119.115 -5.00952 -0.367709 0
M  V30 1264 C 121.109 -6.27695 1.10807 0
M  V30 1265 C 118.796 -6.09484 0.444058 0
M  V30 1266 C 119.794 -6.72719 1.18061 0
M  V30 1267 O 119.482 -7.79161 1.97898 0
M  V30 1268 H 119.214 -0.65494 -0.167422 0
M  V30 1269 H 121.768 -2.04886 0.145157 0
M  V30 1270 H 119.998 -3.23615 -2.11685 0
M  V30 1271 H 121.687 -3.59038 -1.89331 0
M  V30 1272 H 122.453 -4.84351 0.250776 0
M  V30 1273 H 118.332 -4.51509 -0.930638 0
M  V30 1274 H 121.876 -6.76982 1.68347 0
M  V30 1275 H 117.773 -6.43601 0.494803 0
M  V30 1276 H 118.541 -7.96055 1.90367 0
M  V30 1277 N 121.204 0.198386 -1.56346 0
M  V30 1278 C 122.134 1.24865 -1.9731 0
M  V30 1279 C 123.115 1.47651 -0.844576 0
M  V30 1280 O 124.3 1.59444 -1.10866 0
M  V30 1281 C 121.43 2.59358 -2.30977 0
M  V30 1282 C 120.384 2.5119 -3.46537 0
M  V30 1283 C 119.71 3.89926 -3.65871 0
M  V30 1284 C 121.01 2.03977 -4.80823 0
M  V30 1285 H 122.704 0.908252 -2.85291 0
M  V30 1286 H 120.25 0.435462 -1.37258 0
M  V30 1287 H 122.203 3.33011 -2.58228 0
M  V30 1288 H 120.927 2.95132 -1.39874 0
M  V30 1289 H 119.586 1.79993 -3.19371 0
M  V30 1290 H 119.234 4.23046 -2.72105 0
M  V30 1291 H 118.934 3.85336 -4.4361 0
M  V30 1292 H 120.458 4.65205 -3.95495 0
M  V30 1293 H 121.872 2.67386 -5.07127 0
M  V30 1294 H 120.269 2.10397 -5.62008 0
M  V30 1295 H 121.339 0.992861 -4.74626 0
M  V30 1296 N 122.682 1.50554 0.465978 0
M  V30 1297 C 123.629 1.6979 1.56333 0
M  V30 1298 C 124.599 0.539239 1.57103 0
M  V30 1299 O 125.784 0.770401 1.74555 0
M  V30 1300 C 122.924 1.80273 2.94271 0
M  V30 1301 C 122.037 3.07674 3.0325 0
M  V30 1302 C 121.172 3.08922 4.32135 0
M  V30 1303 C 120.211 4.30755 4.34875 0
M  V30 1304 N 119.348 4.29714 5.55239 0
M  V30 1305 H 124.188 2.63472 1.39235 0
M  V30 1306 H 121.725 1.30602 0.676873 0
M  V30 1307 H 123.683 1.84332 3.74269 0
M  V30 1308 H 122.313 0.900258 3.09992 0
M  V30 1309 H 121.365 3.13062 2.16094 0
M  V30 1310 H 122.677 3.97642 3.01135 0
M  V30 1311 H 121.831 3.11738 5.20485 0
M  V30 1312 H 120.57 2.16792 4.36866 0
M  V30 1313 H 119.575 4.28146 3.44922 0
M  V30 1314 H 120.8 5.24117 4.31831 0
M  V30 1315 H 118.746 3.4044 5.60746 0
M  V30 1316 H 118.663 5.13456 5.54886 0
M  V30 1317 H 119.931 4.36683 6.457 0
M  V30 1318 N 124.16 -0.719506 1.40217 0
M  V30 1319 C 125.571 -1.29848 1.34151 0
M  V30 1320 C 125.922 -1.96196 0.0131349 0
M  V30 1321 O 125.047 -1.973 -0.88892 0
M  V30 1322 C 125.642 -2.36118 2.42968 0
M  V30 1323 C 124.201 -2.8965 2.40374 0
M  V30 1324 C 123.348 -1.63393 2.24049 0
M  V30 1325 H 126.299 -0.51591 1.5008 0
M  V30 1326 H 126.32 -3.16871 2.10649 0
M  V30 1327 H 125.832 -1.878 3.39636 0
M  V30 1328 H 123.933 -3.42208 1.47392 0
M  V30 1329 H 124.046 -3.4171 3.35814 0
M  V30 1330 H 122.41 -1.88312 1.71495 0
M  V30 1331 H 123.193 -1.17104 3.2271 0
M  V30 1332 N 125.638 -1.25649 -0.95132 0
M  V30 1333 C 126.886 -1.10375 -1.69298 0
M  V30 1334 C 127.207 0.355339 -1.91735 0
M  V30 1335 O 126.477 1.25188 -1.50681 0
M  V30 1336 H 125.057 -0.405461 -0.627384 0
M  V30 1337 H 127.719 -1.57823 -1.14358 0
M  V30 1338 H 126.815 -1.61465 -2.67087 0
M  V30 1339 N 127.117 1.15442 -1.07289 0
M  V30 1340 C 128.528 1.67803 -0.818475 0
M  V30 1341 C 128.879 1.8489 0.656507 0
M  V30 1342 O 128.004 1.55176 1.50829 0
M  V30 1343 C 128.599 3.04805 -1.47917 0
M  V30 1344 C 127.158 3.54245 -1.27229 0
M  V30 1345 C 126.305 2.29986 -1.54925 0
M  V30 1346 H 129.256 0.996646 -1.23502 0
M  V30 1347 H 129.277 3.69702 -0.90005 0
M  V30 1348 H 128.789 2.92336 -2.55267 0
M  V30 1349 H 126.89 3.71956 -0.21899 0
M  V30 1350 H 127.003 4.35723 -1.99203 0
M  V30 1351 H 125.367 2.35496 -0.970242 0
M  V30 1352 H 126.15 2.20105 -2.63455 0
M  V30 1353 N 128.595 0.856903 1.32268 0
M  V30 1354 C 129.525 0.31858 2.31316 0
M  V30 1355 C 130.506 -0.583487 1.59779 0
M  V30 1356 O 131.691 -0.503259 1.87566 0
M  V30 1357 C 128.821 -0.491979 3.43798 0
M  V30 1358 C 127.775 0.315849 4.26833 0
M  V30 1359 C 127.101 -0.619586 5.31098 0
M  V30 1360 C 128.401 1.54282 4.98993 0
M  V30 1361 H 130.095 1.14621 2.76591 0
M  V30 1362 H 127.641 0.552613 1.32974 0
M  V30 1363 H 129.594 -0.879012 4.1213 0
M  V30 1364 H 128.318 -1.35299 2.97257 0
M  V30 1365 H 126.977 0.684664 3.6015 0
M  V30 1366 H 126.625 -1.47751 4.8081 0
M  V30 1367 H 126.325 -0.0830621 5.87541 0
M  V30 1368 H 127.849 -1.00375 6.02293 0
M  V30 1369 H 129.263 1.22796 5.59995 0
M  V30 1370 H 127.66 2.01745 5.65172 0
M  V30 1371 H 128.73 2.30285 4.26728 0
M  V30 1372 N 130.073 -1.45103 0.615059 0
M  V30 1373 C 131.32 -2.02183 0.113179 0
M  V30 1374 C 131.648 -1.48249 -1.25906 0
M  V30 1375 O 130.903 -0.650265 -1.84581 0
M  V30 1376 C 131.202 -3.57386 0.0318797 0
M  V30 1377 C 130.868 -4.30505 1.34077 0
M  V30 1378 C 129.53 -4.50197 1.69929 0
M  V30 1379 C 131.882 -4.72238 2.20546 0
M  V30 1380 C 129.21 -5.08881 2.91988 0
M  V30 1381 C 131.562 -5.32272 3.41861 0
M  V30 1382 C 130.226 -5.50187 3.77956 0
M  V30 1383 H 129.496 -0.739842 0.0414151 0
M  V30 1384 H 132.143 -1.74073 0.798168 0
M  V30 1385 H 130.448 -3.84817 -0.736409 0
M  V30 1386 H 132.145 -3.99264 -0.372712 0
M  V30 1387 H 128.735 -4.15496 1.05173 0
M  V30 1388 H 132.919 -4.56751 1.94146 0
M  V30 1389 H 128.175 -5.20939 3.2005 0
M  V30 1390 H 132.349 -5.63563 4.09109 0
M  V30 1391 H 129.976 -5.95427 4.72622 0
M  V30 1392 N 131.551 -0.354651 -1.53558 0
M  V30 1393 C 132.781 0.239167 -2.05211 0
M  V30 1394 C 133.189 1.43879 -1.22863 0
M  V30 1395 O 132.532 1.81857 -0.259565 0
M  V30 1396 C 132.594 0.707251 -3.52474 0
M  V30 1397 C 132.258 -0.374212 -4.55465 0
M  V30 1398 C 133.255 -1.22054 -5.0537 0
M  V30 1399 C 130.94 -0.531323 -4.99482 0
M  V30 1400 C 132.934 -2.20942 -5.97882 0
M  V30 1401 C 130.621 -1.52358 -5.91802 0
M  V30 1402 C 131.619 -2.36108 -6.40892 0
M  V30 1403 O 131.307 -3.33643 -7.31394 0
M  V30 1404 H 131.039 0.0479716 -0.674296 0
M  V30 1405 H 133.593 -0.508121 -1.99016 0
M  V30 1406 H 131.823 1.50596 -3.56171 0
M  V30 1407 H 133.512 1.22285 -3.87042 0
M  V30 1408 H 134.278 -1.1103 -4.7212 0
M  V30 1409 H 130.157 0.110738 -4.60867 0
M  V30 1410 H 133.701 -2.86348 -6.36121 0
M  V30 1411 H 129.598 -1.63434 -6.24467 0
M  V30 1412 H 130.366 -3.29244 -7.4936 0
M  V30 1413 N 133.029 1.57378 -0.0835403 0
M  V30 1414 C 133.961 2.10389 0.909338 0
M  V30 1415 C 134.974 1.03858 1.25369 0
M  V30 1416 O 136.163 1.31338 1.20882 0
M  V30 1417 C 133.263 2.55908 2.2218 0
M  V30 1418 C 132.436 3.86145 2.05453 0
M  V30 1419 C 131.495 4.17633 3.20108 0
M  V30 1420 O 130.521 4.87043 2.94581 0
M  V30 1421 N 131.723 3.72113 4.45547 0
M  V30 1422 H 134.488 2.962 0.456657 0
M  V30 1423 H 132.049 1.61579 0.101877 0
M  V30 1424 H 134.041 2.74027 2.97811 0
M  V30 1425 H 132.611 1.75171 2.58909 0
M  V30 1426 H 131.831 3.7729 1.1422 0
M  V30 1427 H 133.119 4.7137 1.91541 0
M  V30 1428 H 132.517 3.16062 4.69171 0
M  V30 1429 H 131.074 3.95409 5.18165 0
M  V30 1430 N 134.507 -0.190092 1.56449 0
M  V30 1431 C 135.784 -0.935886 1.71757 0
M  V30 1432 C 136.164 -2.01173 0.639726 0
M  V30 1433 O 135.512 -2.25827 -0.348502 0
M  V30 1434 C 135.722 -1.51775 3.1427 0
M  V30 1435 C 137.07 -1.99794 3.74656 0
M  V30 1436 O 138.094 -1.61607 3.1743 0
M  V30 1437 O 136.953 -2.70079 4.751 0
M  V30 1438 H 134.047 -0.439229 0.700719 0
M  V30 1439 H 136.593 -0.179395 1.68749 0
M  V30 1440 H 135.365 -0.742505 3.84191 0
M  V30 1441 H 134.988 -2.33894 3.21527 0
M  V30 1442 N 135.985 -1.50799 -0.457987 0
M  V30 1443 C 137.215 -1.65977 -1.23025 0
M  V30 1444 C 137.623 -0.347918 -1.85974 0
M  V30 1445 O 136.966 0.68148 -1.70592 0
M  V30 1446 C 137.028 -2.70309 -2.3701 0
M  V30 1447 C 136.692 -4.135 -1.94594 0
M  V30 1448 C 137.689 -4.98949 -1.46101 0
M  V30 1449 C 135.374 -4.5949 -2.02915 0
M  V30 1450 C 137.368 -6.28442 -1.06489 0
M  V30 1451 C 135.055 -5.88984 -1.62914 0
M  V30 1452 C 136.053 -6.73286 -1.1478 0
M  V30 1453 O 135.741 -8.00362 -0.75339 0
M  V30 1454 H 135.473 -0.56064 -0.377702 0
M  V30 1455 H 138.027 -1.97857 -0.551537 0
M  V30 1456 H 136.257 -2.337 -3.08093 0
M  V30 1457 H 137.946 -2.74574 -2.98938 0
M  V30 1458 H 138.712 -4.6463 -1.39084 0
M  V30 1459 H 134.591 -3.94009 -2.39328 0
M  V30 1460 H 138.135 -6.94194 -0.688488 0
M  V30 1461 H 134.032 -6.22822 -1.69595 0
M  V30 1462 H 134.8 -8.13744 -0.88108 0
M  V30 1463 N 137.463 0.71206 -1.40597 0
M  V30 1464 C 138.41 1.82613 -1.41142 0
M  V30 1465 C 139.38 1.63925 -0.267903 0
M  V30 1466 O 140.565 1.85009 -0.466495 0
M  V30 1467 C 137.705 3.20354 -1.28324 0
M  V30 1468 C 136.818 3.50589 -2.52411 0
M  V30 1469 C 135.953 4.77855 -2.32009 0
M  V30 1470 C 134.992 5.01005 -3.51654 0
M  V30 1471 N 134.129 6.19487 -3.30425 0
M  V30 1472 H 138.969 1.81482 -2.36365 0
M  V30 1473 H 136.506 0.886475 -1.17388 0
M  V30 1474 H 138.464 3.99899 -1.18899 0
M  V30 1475 H 137.094 3.20705 -0.367189 0
M  V30 1476 H 136.146 2.65573 -2.72351 0
M  V30 1477 H 137.458 3.63604 -3.41458 0
M  V30 1478 H 136.612 5.65424 -2.19956 0
M  V30 1479 H 135.351 4.67056 -1.40392 0
M  V30 1480 H 134.356 4.1189 -3.64179 0
M  V30 1481 H 135.581 5.13674 -4.44202 0
M  V30 1482 H 133.527 6.09932 -2.41494 0
M  V30 1483 H 133.444 6.33194 -4.13039 0
M  V30 1484 H 134.712 7.09834 -3.22113 0
M  V30 1485 N 138.941 1.26152 0.944643 0
M  V30 1486 C 140.189 1.11271 1.6871 0
M  V30 1487 C 140.51 -0.345166 1.91921 0
M  V30 1488 O 139.78 -1.24387 1.51343 0
M  V30 1489 H 138.36 0.408783 0.625224 0
M  V30 1490 H 141.022 1.58427 1.1352 0
M  V30 1491 H 140.118 1.62879 2.66227 0
M  V30 1492 N 140.419 -1.14872 1.07899 0
M  V30 1493 C 141.83 -1.67367 0.827363 0
M  V30 1494 C 142.181 -1.85236 -0.646693 0
M  V30 1495 O 141.306 -1.55974 -1.50004 0
M  V30 1496 C 141.901 -3.04016 1.49532 0
M  V30 1497 C 140.46 -3.53566 1.29106 0
M  V30 1498 C 139.607 -2.29161 1.56143 0
M  V30 1499 H 142.558 -0.990083 1.24028 0
M  V30 1500 H 142.579 -3.69219 0.919643 0
M  V30 1501 H 142.091 -2.90978 2.56814 0
M  V30 1502 H 140.192 -3.71835 0.238713 0
M  V30 1503 H 140.305 -4.34661 2.01511 0
M  V30 1504 H 138.669 -2.34978 0.982717 0
M  V30 1505 H 139.452 -2.18705 2.64619 0
M  V30 1506 N 141.898 -0.863906 -1.31812 0
M  V30 1507 C 143.144 -0.472535 -1.97218 0
M  V30 1508 C 143.477 0.971394 -1.68159 0
M  V30 1509 O 142.752 1.68309 -0.974798 0
M  V30 1510 C 143.035 -0.723054 -3.52766 0
M  V30 1511 C 142.888 -2.21608 -3.91421 0
M  V30 1512 C 144.207 -0.185522 -4.39709 0
M  V30 1513 H 141.326 -0.173158 -0.71637 0
M  V30 1514 H 143.968 -1.08403 -1.56041 0
M  V30 1515 H 142.118 -0.202577 -3.87971 0
M  V30 1516 H 143.79 -2.80334 -3.66347 0
M  V30 1517 H 142.033 -2.691 -3.40246 0
M  V30 1518 H 142.704 -2.34203 -4.99853 0
M  V30 1519 H 145.18 -0.630726 -4.11292 0
M  V30 1520 H 144.056 -0.390306 -5.47511 0
M  V30 1521 H 144.317 0.912229 -4.32586 0
M  V30 1522 N 143.376 1.44774 -0.622745 0
M  V30 1523 C 144.606 2.06187 -0.130532 0
M  V30 1524 C 145.014 1.46547 1.19669 0
M  V30 1525 O 144.357 0.579636 1.74316 0
M  V30 1526 C 144.419 3.59437 0.0674983 0
M  V30 1527 C 144.083 4.41496 -1.18026 0
M  V30 1528 C 145.08 4.75512 -2.102 0
M  V30 1529 C 142.765 4.82007 -1.41333 0
M  V30 1530 C 144.759 5.48912 -3.23998 0
M  V30 1531 C 142.446 5.55157 -2.55429 0
M  V30 1532 C 143.444 5.88528 -3.46589 0
M  V30 1533 O 143.132 6.60191 -4.58697 0
M  V30 1534 H 142.864 0.672045 -0.0730162 0
M  V30 1535 H 145.418 1.86768 -0.854802 0
M  V30 1536 H 143.648 3.77314 0.846825 0
M  V30 1537 H 145.337 4.02642 0.513209 0
M  V30 1538 H 146.103 4.4476 -1.93425 0
M  V30 1539 H 141.982 4.55457 -0.712709 0
M  V30 1540 H 145.526 5.74877 -3.95174 0
M  V30 1541 H 141.423 5.85324 -2.72151 0
M  V30 1542 H 142.191 6.78654 -4.57571 0
M  V30 1543 N 144.854 0.36279 1.53368 0
M  V30 1544 C 145.804 -0.501391 2.22419 0
M  V30 1545 C 146.788 -1.0509 1.2184 0
M  V30 1546 O 147.98 -0.981404 1.47301 0
M  V30 1547 C 145.109 -1.64201 3.01484 0
M  V30 1548 C 144.195 -1.10552 4.09438 0
M  V30 1549 N 144.586 -0.291788 5.04958 0
M  V30 1550 C 142.884 -1.3806 4.24094 0
M  V30 1551 C 143.585 0.00162655 5.817 0
M  V30 1552 N 142.561 -0.595244 5.40331 0
M  V30 1553 H 146.363 0.127159 2.93625 0
M  V30 1554 H 143.877 0.170658 1.61501 0
M  V30 1555 H 145.874 -2.27326 3.49469 0
M  V30 1556 H 144.534 -2.27365 2.31809 0
M  V30 1557 H 145.545 0.0687731 5.17854 0
M  V30 1558 H 142.222 -2.01522 3.65644 0
M  V30 1559 H 143.612 0.659278 6.68658 0
M  V30 1560 N 146.332 -1.57332 0.0918853 0
M  V30 1561 C 147.748 -1.57389 -0.264766 0
M  V30 1562 C 147.948 -1.10281 -1.68643 0
M  V30 1563 O 147.004 -0.777801 -2.40222 0
M  V30 1564 C 148.317 -3.00648 -0.0561195 0
M  V30 1565 C 149.865 -3.12754 -0.124116 0
M  V30 1566 C 150.34 -4.57965 0.0564972 0
M  V30 1567 N 151.831 -4.632 0.00155611 0
M  V30 1568 C 152.566 -5.73281 0.116598 0
M  V30 1569 N 152.062 -6.92208 0.286294 0
M  V30 1570 N 153.855 -5.6207 0.0580973 0
M  V30 1571 H 146.006 -1.86262 1.02079 0
M  V30 1572 H 148.269 -0.859579 0.399786 0
M  V30 1573 H 147.975 -3.393 0.925669 0
M  V30 1574 H 147.849 -3.68623 -0.799823 0
M  V30 1575 H 150.236 -2.73976 -1.09641 0
M  V30 1576 H 150.317 -2.47377 0.651024 0
M  V30 1577 H 149.961 -4.97436 1.02564 0
M  V30 1578 H 149.891 -5.21399 -0.738297 0
M  V30 1579 H 152.382 -3.77686 -0.127192 0
M  V30 1580 H 152.695 -7.71934 0.365676 0
M  V30 1581 H 151.04 -6.94254 0.32192 0
M  V30 1582 H 154.231 -4.68043 -0.0733204 0
M  V30 1583 H 154.404 -6.47824 0.151203 0
M  V30 1584 N 147.81 0.181792 -1.56548 0
M  V30 1585 C 148.773 1.20894 -1.94724 0
M  V30 1586 C 149.773 1.37738 -0.829747 0
M  V30 1587 O 150.963 1.35323 -1.09697 0
M  V30 1588 C 148.095 2.57593 -2.23291 0
M  V30 1589 H 149.288 0.882275 -2.86629 0
M  V30 1590 H 146.841 0.423838 -1.50444 0
M  V30 1591 H 147.576 2.95291 -1.34067 0
M  V30 1592 H 147.361 2.46735 -3.04736 0
M  V30 1593 H 148.851 3.31637 -2.53785 0
M  V30 1594 N 149.288 1.51039 0.449983 0
M  V30 1595 C 150.699 1.557 1.03026 0
M  V30 1596 C 151.05 0.372939 1.92623 0
M  V30 1597 O 150.175 -0.511771 2.10261 0
M  V30 1598 C 150.77 2.82171 1.87523 0
M  V30 1599 C 149.329 2.89444 2.40622 0
M  V30 1600 C 148.476 2.50228 1.19504 0
M  V30 1601 H 151.427 1.56999 0.231745 0
M  V30 1602 H 151.448 2.65219 2.72835 0
M  V30 1603 H 150.96 3.68331 1.22286 0
M  V30 1604 H 149.061 2.07685 3.0935 0
M  V30 1605 H 149.174 3.92816 2.74285 0
M  V30 1606 H 147.538 2.03139 1.53644 0
M  V30 1607 H 148.321 3.38719 0.558972 0
M  V30 1608 N 150.766 -0.704594 1.40972 0
M  V30 1609 C 151.696 -1.83124 1.44872 0
M  V30 1610 C 152.677 -1.67281 0.30838 0
M  V30 1611 O 153.862 -1.87149 0.518556 0
M  V30 1612 C 150.992 -3.21181 1.32136 0
M  V30 1613 C 149.946 -3.51714 2.43888 0
M  V30 1614 C 149.272 -4.89032 2.16222 0
M  V30 1615 C 150.572 -3.516 3.86232 0
M  V30 1616 H 152.266 -1.80117 2.39161 0
M  V30 1617 H 149.812 -0.865145 1.15114 0
M  V30 1618 H 151.765 -3.99702 1.33479 0
M  V30 1619 H 150.489 -3.24791 0.343279 0
M  V30 1620 H 149.148 -2.75539 2.41813 0
M  V30 1621 H 148.796 -4.89256 1.16778 0
M  V30 1622 H 148.496 -5.10426 2.911 0
M  V30 1623 H 150.02 -5.69873 2.19265 0
M  V30 1624 H 151.434 -4.2014 3.9007 0
M  V30 1625 H 149.831 -3.84523 4.60719 0
M  V30 1626 H 150.901 -2.50757 4.15029 0
M  V30 1627 N 152.244 -1.26651 -0.937939 0
M  V30 1628 C 153.154 -1.10276 -2.07066 0
M  V30 1629 C 154.17 -0.0354197 -1.73964 0
M  V30 1630 O 155.346 -0.239816 -1.99967 0
M  V30 1631 C 152.411 -0.740887 -3.38691 0
M  V30 1632 C 151.472 -1.88799 -3.85556 0
M  V30 1633 C 150.705 -1.54329 -5.10899 0
M  V30 1634 O 150.928 -0.446494 -5.6865 0
M  V30 1635 O 149.862 -2.37911 -5.52885 0
M  V30 1636 H 153.688 -2.05309 -2.23789 0
M  V30 1637 H 151.273 -1.05743 -1.0554 0
M  V30 1638 H 153.155 -0.55195 -4.1777 0
M  V30 1639 H 151.83 0.180022 -3.23199 0
M  V30 1640 H 150.737 -2.13191 -3.07409 0
M  V30 1641 H 152.07 -2.78874 -4.05574 0
M  V30 1642 N 153.722 1.14298 -1.08507 0
M  V30 1643 C 154.652 2.21542 -0.737646 0
M  V30 1644 C 155.633 1.67773 0.280377 0
M  V30 1645 O 156.818 1.93616 0.150521 0
M  V30 1646 C 153.948 3.46988 -0.147259 0
M  V30 1647 C 152.902 4.13789 -1.09374 0
M  V30 1648 C 152.228 5.33449 -0.365524 0
M  V30 1649 C 153.528 4.62208 -2.4323 0
M  V30 1650 H 155.222 2.5086 -1.6343 0
M  V30 1651 H 152.768 1.20576 -0.787243 0
M  V30 1652 H 154.721 4.21262 0.107808 0
M  V30 1653 H 153.445 3.17037 0.784538 0
M  V30 1654 H 152.104 3.4147 -1.33393 0
M  V30 1655 H 151.752 4.99759 0.57011 0
M  V30 1656 H 151.452 5.79088 -0.996512 0
M  V30 1657 H 152.976 6.10485 -0.118534 0
M  V30 1658 H 154.39 5.27952 -2.23472 0
M  V30 1659 H 152.787 5.18553 -3.02031 0
M  V30 1660 H 153.857 3.77224 -3.04681 0
M  V30 1661 N 155.201 0.870884 1.31352 0
M  V30 1662 C 156.448 0.482273 1.96673 0
M  V30 1663 C 156.776 -0.965638 1.68836 0
M  V30 1664 O 156.031 -1.69514 0.977937 0
M  V30 1665 C 156.33 0.687157 3.50732 0
M  V30 1666 C 155.996 2.108 3.9859 0
M  V30 1667 C 154.658 2.49656 4.1137 0
M  V30 1668 C 157.01 3.03459 4.23748 0
M  V30 1669 C 154.338 3.80412 4.46659 0
M  V30 1670 C 156.69 4.3373 4.60501 0
M  V30 1671 C 155.354 4.725 4.71487 0
M  V30 1672 H 154.624 0.176476 0.719679 0
M  V30 1673 H 157.271 1.10405 1.56471 0
M  V30 1674 H 155.576 -0.0177476 3.91796 0
M  V30 1675 H 157.273 0.366284 3.99324 0
M  V30 1676 H 153.863 1.79633 3.8914 0
M  V30 1677 H 158.047 2.74665 4.13368 0
M  V30 1678 H 153.303 4.1021 4.53362 0
M  V30 1679 H 157.477 5.05578 4.78919 0
M  V30 1680 H 155.104 5.73859 4.98588 0
M  V30 1681 N 156.679 -1.44442 0.630414 0
M  V30 1682 C 157.589 -2.34476 -0.0761693 0
M  V30 1683 C 158.605 -1.52576 -0.836449 0
M  V30 1684 O 159.781 -1.85307 -0.788874 0
M  V30 1685 C 156.846 -3.30545 -1.04599 0
M  V30 1686 C 155.907 -4.28352 -0.28516 0
M  V30 1687 C 155.14 -5.19831 -1.20878 0
M  V30 1688 O 155.363 -5.15223 -2.44747 0
M  V30 1689 O 154.297 -5.97892 -0.693491 0
M  V30 1690 H 158.123 -2.96345 0.664324 0
M  V30 1691 H 155.708 -1.44203 0.39061 0
M  V30 1692 H 157.59 -3.89681 -1.60396 0
M  V30 1693 H 156.265 -2.7121 -1.76711 0
M  V30 1694 H 155.172 -3.72764 0.315837 0
M  V30 1695 H 156.505 -4.90605 0.395924 0
M  V30 1696 N 158.157 -0.370918 -1.53173 0
M  V30 1697 C 159.067 0.480823 -2.2962 0
M  V30 1698 C 160.083 1.08789 -1.35798 0
M  V30 1699 O 161.259 1.09768 -1.68858 0
M  V30 1700 C 158.324 1.60227 -3.07454 0
M  V30 1701 C 157.385 1.0222 -4.16953 0
M  V30 1702 C 156.618 2.0902 -4.91066 0
M  V30 1703 O 156.841 3.30222 -4.65091 0
M  V30 1704 O 155.775 1.71778 -5.76867 0
M  V30 1705 H 159.601 -0.141421 -3.03371 0
M  V30 1706 H 157.186 -0.135146 -1.48787 0
M  V30 1707 H 159.068 2.25417 -3.56041 0
M  V30 1708 H 157.743 2.20982 -2.36535 0
M  V30 1709 H 156.65 0.334064 -3.72605 0
M  V30 1710 H 157.983 0.459131 -4.90054 0
M  V30 1711 N 159.635 1.57281 -0.100228 0
M  V30 1712 C 160.883 1.94153 0.561157 0
M  V30 1713 C 161.204 0.983157 1.68401 0
M  V30 1714 O 160.474 0.0361132 1.95867 0
M  V30 1715 H 159.054 0.716791 0.210283 0
M  V30 1716 H 161.716 1.94202 -0.164765 0
M  V30 1717 H 160.812 2.96709 0.968008 0
M  V30 1718 N 161.113 -0.173488 1.56642 0
M  V30 1719 C 162.338 -0.910149 1.86363 0
M  V30 1720 C 162.763 -1.75132 0.686318 0
M  V30 1721 O 162.121 -1.77595 -0.364643 0
M  V30 1722 C 162.169 -1.76447 3.14482 0
M  V30 1723 O 161.273 -2.86584 2.96553 0
M  V30 1724 H 160.614 -0.255086 0.613047 0
M  V30 1725 H 163.144 -0.172283 2.03873 0
M  V30 1726 H 163.154 -2.16483 3.45831 0
M  V30 1727 H 161.829 -1.14658 3.99783 0
M  V30 1728 H 160.406 -2.50146 2.76553 0
M  V30 1729 N 162.591 -1.51276 -0.441967 0
M  V30 1730 C 163.524 -1.66933 -1.55591 0
M  V30 1731 C 164.502 -0.516958 -1.54163 0
M  V30 1732 O 165.686 -0.740209 -1.73358 0
M  V30 1733 C 162.813 -1.67866 -2.94174 0
M  V30 1734 C 161.859 -2.89013 -3.13646 0
M  V30 1735 S 162.692 -4.49897 -2.90436 0
M  V30 1736 C 163.848 -4.53568 -4.31308 0
M  V30 1737 H 164.081 -2.61155 -1.42076 0
M  V30 1738 H 161.614 -1.40902 -0.631341 0
M  V30 1739 H 163.572 -1.69089 -3.74058 0
M  V30 1740 H 162.233 -0.748296 -3.05056 0
M  V30 1741 H 161.426 -2.86054 -4.14957 0
M  V30 1742 H 161.028 -2.85509 -2.4158 0
M  V30 1743 H 163.32 -4.28924 -5.24434 0
M  V30 1744 H 164.263 -5.55355 -4.39303 0
M  V30 1745 H 164.671 -3.82943 -4.14747 0
M  V30 1746 N 164.069 0.697108 -1.41344 0
M  V30 1747 C 165.309 1.46939 -1.42085 0
M  V30 1748 C 165.673 1.9198 -0.0280397 0
M  V30 1749 O 166.874 2.6865 0.0897504 0
M  V30 1750 C 165.145 2.64985 -2.39828 0
M  V30 1751 S 166.704 3.54147 -2.59085 0
M  V30 1752 H 163.522 0.502146 -0.503359 0
M  V30 1753 H 166.124 0.813546 -1.77769 0
M  V30 1754 H 164.828 2.30098 -3.39828 0
M  V30 1755 H 164.359 3.35464 -2.05493 0
M  V30 1756 H 166.374 4.60137 -1.85711 0
M  V30 1757 N 165.547 1.27147 0.931209 0
M  V30 1758 C 166.457 1.11372 2.06478 0
M  V30 1759 C 167.473 0.044645 1.73943 0
M  V30 1760 O 168.649 0.250417 1.99837 0
M  V30 1761 C 165.714 0.758838 3.38294 0
M  V30 1762 C 164.775 1.90841 3.84549 0
M  V30 1763 C 164.008 1.57036 5.10074 0
M  V30 1764 O 164.231 0.476645 5.68405 0
M  V30 1765 O 163.165 2.40839 5.51616 0
M  V30 1766 H 166.991 2.06493 2.22698 0
M  V30 1767 H 164.576 1.06301 1.04978 0
M  V30 1768 H 166.458 0.574098 4.17471 0
M  V30 1769 H 165.133 -0.162879 3.2329 0
M  V30 1770 H 164.04 2.14819 3.06274 0
M  V30 1771 H 165.373 2.81021 4.04089 0
M  V30 1772 N 167.025 -1.13721 1.09112 0
M  V30 1773 C 168.253 -1.88773 0.846899 0
M  V30 1774 C 168.668 -1.7896 -0.601572 0
M  V30 1775 O 168.025 -1.15394 -1.41388 0
M  V30 1776 C 168.076 -3.3849 1.26913 0
M  V30 1777 O 167.797 -3.48043 2.66079 0
M  V30 1778 C 169.298 -4.30518 1.05682 0
M  V30 1779 H 166.518 -0.59772 0.304914 0
M  V30 1780 H 169.062 -1.43977 1.45227 0
M  V30 1781 H 167.217 -3.80881 0.707723 0
M  V30 1782 H 167.631 -4.4109 2.83795 0
M  V30 1783 H 169.105 -5.3391 1.40156 0
M  V30 1784 H 169.582 -4.392 -0.00563416 0
M  V30 1785 H 170.188 -3.93893 1.60402 0
M  V30 1786 N 168.503 -0.877838 -1.30888 0
M  V30 1787 C 169.731 -0.507414 -2.00581 0
M  V30 1788 C 170.146 0.902216 -1.65848 0
M  V30 1789 O 169.503 1.59225 -0.891831 0
M  V30 1790 C 169.554 -0.664162 -3.55347 0
M  V30 1791 O 169.275 -2.01829 -3.8884 0
M  V30 1792 C 170.776 -0.295787 -4.42312 0
M  V30 1793 H 167.996 -0.196866 -0.641471 0
M  V30 1794 H 170.54 -1.18117 -1.66939 0
M  V30 1795 H 168.695 -0.0378619 -3.87381 0
M  V30 1796 H 169.109 -2.03174 -4.8355 0
M  V30 1797 H 170.583 -0.456388 -5.5011 0
M  V30 1798 H 171.06 0.765663 -4.32475 0
M  V30 1799 H 171.666 -0.898113 -4.15709 0
M  V30 1800 N 169.982 1.44106 -0.638065 0
M  V30 1801 C 170.929 2.30715 0.062701 0
M  V30 1802 C 171.899 1.43882 0.829883 0
M  V30 1803 O 173.084 1.72775 0.809532 0
M  V30 1804 C 170.224 3.29258 1.03358 0
M  V30 1805 C 169.337 4.31192 0.26409 0
M  V30 1806 C 168.472 5.16825 1.22741 0
M  V30 1807 C 167.511 6.10462 0.447475 0
M  V30 1808 N 166.648 6.8877 1.36161 0
M  V30 1809 H 171.488 2.90096 -0.681781 0
M  V30 1810 H 169.025 1.42925 -0.347988 0
M  V30 1811 H 170.983 3.84886 1.60992 0
M  V30 1812 H 169.613 2.71562 1.74511 0
M  V30 1813 H 168.665 3.77981 -0.428295 0
M  V30 1814 H 169.977 4.97619 -0.343052 0
M  V30 1815 H 169.131 5.77004 1.87487 0
M  V30 1816 H 167.87 4.50488 1.86847 0
M  V30 1817 H 166.875 5.49386 -0.213433 0
M  V30 1818 H 168.1 6.78837 -0.188968 0
M  V30 1819 H 166.046 6.25096 1.98975 0
M  V30 1820 H 165.963 7.51663 0.808656 0
M  V30 1821 H 167.231 7.53467 1.99769 0
M  V30 1822 N 171.46 0.379036 1.52974 0
M  V30 1823 C 172.876 0.0285448 1.59574 0
M  V30 1824 C 173.076 -1.45542 1.39355 0
M  V30 1825 O 172.132 -2.2187 1.20541 0
M  V30 1826 C 173.445 0.496535 2.96572 0
M  V30 1827 C 174.993 0.451909 3.0972 0
M  V30 1828 C 175.468 0.895924 4.49152 0
M  V30 1829 N 176.959 0.851522 4.55306 0
M  V30 1830 C 177.694 1.16661 5.61407 0
M  V30 1831 N 177.19 1.55166 6.752 0
M  V30 1832 N 178.983 1.08853 5.51459 0
M  V30 1833 H 171.134 1.34525 1.64367 0
M  V30 1834 H 173.397 0.550733 0.771619 0
M  V30 1835 H 173.103 1.53258 3.16552 0
M  V30 1836 H 172.977 -0.109802 3.7704 0
M  V30 1837 H 175.364 -0.575029 2.89443 0
M  V30 1838 H 175.445 1.09392 2.3123 0
M  V30 1839 H 175.089 1.92104 4.70168 0
M  V30 1840 H 175.019 0.23103 5.26093 0
M  V30 1841 H 177.51 0.568038 3.73606 0
M  V30 1842 H 177.823 1.776 7.52116 0
M  V30 1843 H 176.168 1.59044 6.76557 0
M  V30 1844 H 179.359 0.786803 4.6144 0
M  V30 1845 H 179.532 1.33742 6.34048 0
M  V30 1846 N 172.938 -1.57226 0.108567 0
M  V30 1847 C 174.187 -1.94008 -0.551703 0
M  V30 1848 C 174.5 -0.993442 -1.68494 0
M  V30 1849 O 175.706 -1.25551 -2.40726 0
M  V30 1850 C 174.162 -3.44763 -1.03279 0
M  V30 1851 C 173.77 -4.47943 0.0714193 0
M  V30 1852 C 175.514 -3.90483 -1.66503 0
M  V30 1853 C 173.421 -5.89865 -0.425779 0
M  V30 1854 H 172.351 -0.724206 -0.209863 0
M  V30 1855 H 175.002 -1.82547 0.186741 0
M  V30 1856 H 173.384 -3.51422 -1.82533 0
M  V30 1857 H 174.558 -4.52942 0.847365 0
M  V30 1858 H 172.873 -4.11913 0.609669 0
M  V30 1859 H 175.47 -4.93925 -2.04798 0
M  V30 1860 H 175.813 -3.29877 -2.53942 0
M  V30 1861 H 176.346 -3.86581 -0.938074 0
M  V30 1862 H 173.085 -6.54202 0.412316 0
M  V30 1863 H 172.605 -5.88309 -1.16843 0
M  V30 1864 H 174.284 -6.40844 -0.890397 0
M  V30 1865 N 174.416 0.165178 -1.56732 0
M  V30 1866 C 175.664 0.879068 -1.8198 0
M  V30 1867 C 175.985 1.82514 -0.686561 0
M  V30 1868 O 175.255 1.93694 0.293146 0
M  V30 1869 H 173.835 0.327608 -0.671329 0
M  V30 1870 H 176.497 0.163526 -1.94213 0
M  V30 1871 H 175.593 1.45228 -2.76252 0
M  V30 1872 N 175.894 1.51508 0.433938 0
M  V30 1873 C 177.31 1.39759 0.770682 0
M  V30 1874 C 177.51 0.482594 1.95636 0
M  V30 1875 O 176.566 -0.0609691 2.52426 0
M  V30 1876 C 177.879 2.81851 1.04787 0
M  V30 1877 C 179.427 2.91025 1.1521 0
M  V30 1878 C 179.902 4.34032 1.46219 0
M  V30 1879 N 181.393 4.37154 1.53136 0
M  V30 1880 C 182.128 5.4484 1.78709 0
M  V30 1881 N 181.624 6.62682 2.02051 0
M  V30 1882 N 183.417 5.32324 1.80519 0
M  V30 1883 H 175.568 2.09548 -0.346892 0
M  V30 1884 H 177.831 0.943446 -0.0928074 0
M  V30 1885 H 177.537 3.50815 0.249304 0
M  V30 1886 H 177.411 3.21386 1.97461 0
M  V30 1887 H 179.798 2.22257 1.94128 0
M  V30 1888 H 179.879 2.54983 0.204281 0
M  V30 1889 H 179.523 5.03351 0.678274 0
M  V30 1890 H 179.453 4.6759 2.42212 0
M  V30 1891 H 181.944 3.52197 1.36987 0
M  V30 1892 H 182.257 7.40543 2.20943 0
M  V30 1893 H 180.602 6.65791 1.99366 0
M  V30 1894 H 183.793 4.39246 1.61805 0
M  V30 1895 H 183.966 6.16328 2.00111 0
M  V30 1896 N 177.372 -0.689602 1.41712 0
M  V30 1897 C 178.618 -1.45181 1.41599 0
M  V30 1898 C 178.951 -1.94181 0.0270081 0
M  V30 1899 O 178.226 -1.6993 -0.946265 0
M  V30 1900 C 178.509 -2.65945 2.42787 0
M  V30 1901 C 178.362 -2.22672 3.90816 0
M  V30 1902 C 179.681 -3.68149 2.41151 0
M  V30 1903 H 176.8 -0.526576 0.515642 0
M  V30 1904 H 179.442 -0.784947 1.73028 0
M  V30 1905 H 177.592 -3.2284 2.16116 0
M  V30 1906 H 179.264 -1.71058 4.28412 0
M  V30 1907 H 177.507 -1.54394 4.05395 0
M  V30 1908 H 178.178 -3.0935 4.57172 0
M  V30 1909 H 180.654 -3.2094 2.64834 0
M  V30 1910 H 179.53 -4.50248 3.13955 0
M  V30 1911 H 179.791 -4.18259 1.43221 0
M  V30 1912 N 178.85 -1.27639 -0.924453 0
M  V30 1913 C 180.078 -1.16989 -1.70649 0
M  V30 1914 C 180.493 0.272869 -1.86818 0
M  V30 1915 O 179.85 1.18549 -1.38753 0
M  V30 1916 C 179.901 -1.85229 -3.10439 0
M  V30 1917 O 179.622 -3.23868 -2.95028 0
M  V30 1918 C 181.123 -1.80746 -4.04779 0
M  V30 1919 H 178.343 -0.406595 -0.53378 0
M  V30 1920 H 180.887 -1.68569 -1.15778 0
M  V30 1921 H 179.042 -1.37545 -3.6216 0
M  V30 1922 H 179.456 -3.57889 -3.83426 0
M  V30 1923 H 180.93 -2.33101 -5.00368 0
M  V30 1924 H 181.407 -0.777499 -4.32263 0
M  V30 1925 H 182.013 -2.28059 -3.58984 0
M  V30 1926 N 180.328 1.1314 -1.09713 0
M  V30 1927 C 181.576 1.84119 -0.833338 0
M  V30 1928 C 181.897 1.84097 0.642904 0
M  V30 1929 O 181.167 1.29881 1.46655 0
M  V30 1930 H 179.747 0.681766 -0.305293 0
M  V30 1931 H 182.409 1.37038 -1.38588 0
M  V30 1932 H 181.505 2.88543 -1.18951 0
M  V30 1933 N 181.806 0.884767 1.30421 0
M  V30 1934 C 183.031 0.517288 2.00845 0
M  V30 1935 C 183.456 -0.886779 1.65885 0
M  V30 1936 O 182.814 -1.58768 0.875354 0
M  V30 1937 C 182.862 0.698994 3.5376 0
M  V30 1938 O 181.966 -0.255208 4.1161 0
M  V30 1939 H 181.307 0.203872 0.631927 0
M  V30 1940 H 183.837 1.19225 1.66272 0
M  V30 1941 H 183.847 0.597912 4.03595 0
M  V30 1942 H 182.522 1.72271 3.78544 0
M  V30 1943 H 181.099 -0.10784 3.72744 0
M  V30 1944 N 183.284 -1.43765 0.645699 0
M  V30 1945 C 184.561 -1.9541 0.0862963 0
M  V30 1946 C 184.941 -1.58725 -1.39175 0
M  V30 1947 O 184.289 -0.868581 -2.11348 0
M  V30 1948 C 184.499 -3.47488 0.324565 0
M  V30 1949 C 185.847 -4.24001 0.225497 0
M  V30 1950 O 186.871 -3.55274 0.256715 0
M  V30 1951 O 185.73 -5.46313 0.142801 0
M  V30 1952 H 182.824 -0.826882 -0.0139483 0
M  V30 1953 H 185.37 -1.53743 0.718415 0
M  V30 1954 H 184.142 -3.67289 1.3496 0
M  V30 1955 H 183.765 -3.96135 -0.340987 0
M  V30 1956 N 184.763 -0.387143 -1.52771 0
M  V30 1957 C 186.011 0.195349 -2.01154 0
M  V30 1958 C 186.332 1.475 -1.27549 0
M  V30 1959 O 185.602 1.91878 -0.394924 0
M  V30 1960 H 184.182 0.075178 -0.743207 0
M  V30 1961 H 186.844 -0.518337 -1.87881 0
M  V30 1962 H 185.94 0.407096 -3.09434 0
M  V30 1963 N 186.241 1.57166 -0.116904 0
M  V30 1964 C 187.188 2.15202 0.83408 0
M  V30 1965 C 188.158 1.07644 1.26499 0
M  V30 1966 O 189.343 1.35541 1.34288 0
M  V30 1967 C 186.483 2.75405 2.07957 0
M  V30 1968 C 185.596 3.97264 1.69721 0
M  V30 1969 C 184.731 4.45561 2.89221 0
M  V30 1970 C 183.77 5.59956 2.47215 0
M  V30 1971 N 182.907 6.03006 3.59622 0
M  V30 1972 H 187.747 2.96141 0.332335 0
M  V30 1973 H 185.284 1.46309 0.152349 0
M  V30 1974 H 187.242 3.08439 2.80929 0
M  V30 1975 H 185.872 1.97159 2.55594 0
M  V30 1976 H 184.924 3.70404 0.866316 0
M  V30 1977 H 186.236 4.80226 1.34849 0
M  V30 1978 H 185.39 4.80493 3.7042 0
M  V30 1979 H 184.129 3.61544 3.27318 0
M  V30 1980 H 183.134 5.2463 1.64448 0
M  V30 1981 H 184.359 6.45738 2.10238 0
M  V30 1982 H 182.305 5.21931 3.97396 0
M  V30 1983 H 182.222 6.80819 3.28667 0
M  V30 1984 H 183.49 6.42576 4.41267 0
M  V30 1985 N 187.719 -0.156864 1.56817 0
M  V30 1986 C 188.649 -1.19589 2.00551 0
M  V30 1987 C 189.63 -1.4536 0.883426 0
M  V30 1988 O 190.815 -1.56449 1.15054 0
M  V30 1989 C 187.945 -2.53143 2.37773 0
M  V30 1990 C 186.899 -2.41913 3.53075 0
M  V30 1991 C 186.225 -3.80088 3.76081 0
M  V30 1992 C 187.525 -1.91157 4.86062 0
M  V30 1993 H 189.219 -0.832293 2.87599 0
M  V30 1994 H 186.765 -0.398918 1.38364 0
M  V30 1995 H 188.718 -3.26047 2.66967 0
M  V30 1996 H 187.442 -2.91319 1.4765 0
M  V30 1997 H 186.101 -1.71462 3.24031 0
M  V30 1998 H 185.749 -4.15683 2.83225 0
M  V30 1999 H 185.449 -3.73439 4.53671 0
M  V30 2000 H 186.973 -4.54556 4.0769 0
M  V30 2001 H 188.387 -2.53846 5.14038 0
M  V30 2002 H 186.784 -1.95422 5.67389 0
M  V30 2003 H 187.854 -0.866673 4.77092 0
M  V30 2004 N 189.197 -1.51736 -0.425897 0
M  V30 2005 C 190.427 -1.68549 -1.19476 0
M  V30 2006 C 190.835 -0.387288 -1.85194 0
M  V30 2007 O 190.178 0.645142 -1.71999 0
M  V30 2008 C 190.24 -2.75275 -2.31223 0
M  V30 2009 C 189.904 -4.17534 -1.8578 0
M  V30 2010 C 190.901 -5.01936 -1.35485 0
M  V30 2011 C 188.586 -4.6369 -1.93123 0
M  V30 2012 C 190.58 -6.30559 -0.931347 0
M  V30 2013 C 188.267 -5.92307 -1.50384 0
M  V30 2014 C 189.265 -6.75569 -1.00473 0
M  V30 2015 O 188.953 -8.0178 -0.583452 0
M  V30 2016 H 188.685 -0.568525 -0.365725 0
M  V30 2017 H 191.239 -1.98982 -0.509444 0
M  V30 2018 H 189.469 -2.40182 -3.03067 0
M  V30 2019 H 191.158 -2.80853 -2.93047 0
M  V30 2020 H 191.924 -4.67475 -1.29197 0
M  V30 2021 H 187.803 -3.98997 -2.30916 0
M  V30 2022 H 191.347 -6.95498 -0.541084 0
M  V30 2023 H 187.244 -6.2628 -1.56346 0
M  V30 2024 H 188.012 -8.1543 -0.708275 0
M  V30 2025 N 190.675 0.682077 -1.42076 0
M  V30 2026 C 191.625 1.78823 -1.41444 0
M  V30 2027 C 192.609 1.58323 -0.28681 0
M  V30 2028 O 193.801 1.68926 -0.528498 0
M  V30 2029 C 190.93 3.17232 -1.3122 0
M  V30 2030 C 190.016 3.4338 -2.489 0
M  V30 2031 N 190.407 3.40152 -3.7434 0
M  V30 2032 C 188.705 3.73986 -2.43003 0
M  V30 2033 C 189.406 3.65581 -4.52466 0
M  V30 2034 N 188.382 3.85989 -3.8277 0
M  V30 2035 H 192.184 1.7471 -2.36334 0
M  V30 2036 H 189.698 0.882622 -1.36321 0
M  V30 2037 H 191.695 3.96489 -1.2885 0
M  V30 2038 H 190.355 3.22547 -0.373263 0
M  V30 2039 H 191.366 3.20221 -4.07037 0
M  V30 2040 H 188.043 3.86591 -1.57651 0
M  V30 2041 H 189.433 3.69108 -5.61435 0
M  V30 2042 N 192.153 1.28127 0.917671 0
M  V30 2043 C 193.402 1.14432 1.66097 0
M  V30 2044 C 193.715 -0.307247 1.93172 0
M  V30 2045 O 194.921 -0.565259 2.65551 0
M  V30 2046 C 193.377 2.00015 2.99202 0
M  V30 2047 C 192.985 3.49889 2.79789 0
M  V30 2048 C 194.729 1.94996 3.77064 0
M  V30 2049 C 192.636 4.27636 4.08511 0
M  V30 2050 H 191.566 0.424662 0.62304 0
M  V30 2051 H 194.217 1.52628 1.01868 0
M  V30 2052 H 192.599 1.54672 3.64544 0
M  V30 2053 H 193.773 4.03162 2.23152 0
M  V30 2054 H 192.088 3.56392 2.15345 0
M  V30 2055 H 194.685 2.50354 4.72469 0
M  V30 2056 H 195.028 0.925819 4.05875 0
M  V30 2057 H 195.561 2.38287 3.18534 0
M  V30 2058 H 192.3 5.30615 3.84874 0
M  V30 2059 H 191.82 3.79137 4.64774 0
M  V30 2060 H 193.499 4.37346 4.76799 0
M  V30 2061 N 193.631 -1.12557 1.10312 0
M  V30 2062 C 194.861 -1.87592 0.865617 0
M  V30 2063 C 195.269 -1.79851 -0.587389 0
M  V30 2064 O 194.612 -1.16949 -1.41664 0
M  V30 2065 C 194.674 -3.37665 1.23381 0
M  V30 2066 C 194.338 -3.69181 2.69359 0
M  V30 2067 C 195.335 -3.67652 3.67597 0
M  V30 2068 C 193.02 -3.98555 3.05711 0
M  V30 2069 C 195.014 -3.95053 5.00212 0
M  V30 2070 C 192.701 -4.25616 4.38514 0
M  V30 2071 C 193.699 -4.23851 5.35574 0
M  V30 2072 O 193.387 -4.50242 6.65986 0
M  V30 2073 H 193.119 -0.600442 0.310557 0
M  V30 2074 H 195.673 -1.4335 1.47105 0
M  V30 2075 H 193.903 -3.82454 0.571467 0
M  V30 2076 H 195.592 -3.94041 0.973994 0
M  V30 2077 H 196.358 -3.45024 3.40857 0
M  V30 2078 H 192.237 -3.99071 2.30789 0
M  V30 2079 H 195.781 -3.93591 5.75962 0
M  V30 2080 H 191.678 -4.47718 4.64994 0
M  V30 2081 H 192.446 -4.67867 6.71597 0
M  V30 2082 N 195.109 -0.891671 -1.2995 0
M  V30 2083 C 196.355 -0.514261 -1.96171 0
M  V30 2084 C 196.688 0.935506 -1.70182 0
M  V30 2085 O 195.963 1.66204 -1.01028 0
M  V30 2086 C 196.246 -0.797719 -3.51153 0
M  V30 2087 C 196.099 -2.2986 -3.86632 0
M  V30 2088 C 197.418 -0.278749 -4.39216 0
M  V30 2089 H 194.537 -0.188314 -0.712535 0
M  V30 2090 H 197.179 -1.11689 -1.53706 0
M  V30 2091 H 195.329 -0.284826 -3.87455 0
M  V30 2092 H 197.001 -2.88042 -3.60319 0
M  V30 2093 H 195.244 -2.76257 -3.34462 0
M  V30 2094 H 195.915 -2.44753 -4.94773 0
M  V30 2095 H 198.391 -0.717825 -4.09862 0
M  V30 2096 H 197.267 -0.506353 -5.46559 0
M  V30 2097 H 197.528 0.820266 -4.34424 0
M  V30 2098 N 196.587 1.43421 -0.653314 0
M  V30 2099 C 197.827 2.03689 -0.170346 0
M  V30 2100 C 198.191 1.50427 1.19314 0
M  V30 2101 O 199.392 2.0234 1.76952 0
M  V30 2102 C 197.663 3.56946 -0.180183 0
M  V30 2103 S 199.222 4.38171 0.234925 0
M  V30 2104 H 196.04 0.707345 -0.0719976 0
M  V30 2105 H 198.642 1.75486 -0.86167 0
M  V30 2106 H 197.346 3.93212 -1.17526 0
M  V30 2107 H 196.877 3.89791 0.531675 0
M  V30 2108 H 198.892 4.73808 1.47378 0
M  V30 2109 N 198.065 0.39524 1.52563 0
M  V30 2110 C 199.314 -0.186321 2.00838 0
M  V30 2111 C 199.627 -1.47402 1.28577 0
M  V30 2112 O 200.833 -2.13599 1.67593 0
M  V30 2113 C 199.289 -0.382595 3.57861 0
M  V30 2114 C 198.897 0.892202 4.39026 0
M  V30 2115 C 200.641 -0.9202 4.14406 0
M  V30 2116 C 198.548 0.66388 5.87662 0
M  V30 2117 H 197.478 -0.0734041 0.750418 0
M  V30 2118 H 200.129 0.518552 1.76021 0
M  V30 2119 H 198.511 -1.14946 3.7895 0
M  V30 2120 H 199.685 1.66414 4.29701 0
M  V30 2121 H 198 1.35519 3.9373 0
M  V30 2122 H 200.597 -1.10683 5.23119 0
M  V30 2123 H 200.94 -1.89096 3.70875 0
M  V30 2124 H 201.473 -0.212751 3.97231 0
M  V30 2125 H 198.212 1.6058 6.35527 0
M  V30 2126 H 197.732 -0.0690193 5.9976 0
M  V30 2127 H 199.411 0.300699 6.46301 0
M  V30 2128 N 199.544 -1.57102 0.125237 0
M  V30 2129 C 200.821 -1.86953 -0.575142 0
M  V30 2130 C 201.201 -1.02749 -1.84407 0
M  V30 2131 O 200.549 -0.108144 -2.28244 0
M  V30 2132 C 200.759 -3.38198 -0.861583 0
M  V30 2133 C 202.107 -4.06937 -1.21192 0
M  V30 2134 O 203.131 -3.43252 -0.951645 0
M  V30 2135 O 201.99 -5.19364 -1.70068 0
M  V30 2136 H 199.084 -0.774147 -0.290906 0
M  V30 2137 H 201.63 -1.68942 0.160211 0
M  V30 2138 H 200.402 -3.91282 0.0373647 0
M  V30 2139 H 200.025 -3.61661 -1.65188 0
M  V30 2140 N 201.022 0.148545 -1.56898 0
M  V30 2141 C 202.27 0.859717 -1.82902 0
M  V30 2142 C 202.591 1.81775 -0.70588 0
M  V30 2143 O 201.861 1.93994 0.272586 0
M  V30 2144 H 200.441 0.320469 -0.674766 0
M  V30 2145 H 203.103 0.142918 -1.94375 0
M  V30 2146 H 202.199 1.4229 -2.77777 0
M  V30 2147 N 202.5 1.5196 0.417844 0
M  V30 2148 C 203.74 1.67262 1.17486 0
M  V30 2149 C 204.104 0.38983 1.88001 0
M  V30 2150 O 205.305 0.418845 2.65517 0
M  V30 2151 C 203.576 2.85526 2.14965 0
M  V30 2152 S 205.135 3.21263 2.98891 0
M  V30 2153 H 201.953 0.589077 0.398132 0
M  V30 2154 H 204.555 1.89927 0.463452 0
M  V30 2155 H 203.259 3.77145 1.61833 0
M  V30 2156 H 202.79 2.65107 2.90657 0
M  V30 2157 H 204.805 2.69208 4.16823 0
M  V30 2158 N 203.978 -0.674533 1.42435 0
M  V30 2159 C 205.227 -1.43034 1.42212 0
M  V30 2160 C 205.54 -1.95555 0.0420788 0
M  V30 2161 O 206.746 -2.71374 -0.0827558 0
M  V30 2162 C 205.202 -2.58748 2.50155 0
M  V30 2163 C 204.81 -2.12925 3.94166 0
M  V30 2164 C 206.554 -3.36257 2.59098 0
M  V30 2165 C 204.461 -3.25723 4.93618 0
M  V30 2166 H 203.391 -0.537345 0.528939 0
M  V30 2167 H 206.042 -0.73024 1.68344 0
M  V30 2168 H 204.424 -3.31128 2.17188 0
M  V30 2169 H 205.598 -1.47697 4.36488 0
M  V30 2170 H 203.913 -1.48354 3.89076 0
M  V30 2171 H 206.51 -4.20264 3.30578 0
M  V30 2172 H 206.853 -3.82866 1.63461 0
M  V30 2173 H 207.386 -2.70947 2.9126 0
M  V30 2174 H 204.125 -2.84105 5.90732 0
M  V30 2175 H 203.645 -3.89732 4.55926 0
M  V30 2176 H 205.324 -3.91186 5.15347 0
M  V30 2177 N 205.456 -1.28612 -0.910864 0
M  V30 2178 C 206.705 -1.15311 -1.65488 0
M  V30 2179 C 207.018 0.296999 -1.93332 0
M  V30 2180 O 208.224 0.551168 -2.65847 0
M  V30 2181 C 206.68 -2.01599 -2.98137 0
M  V30 2182 C 206.288 -3.51367 -2.7793 0
M  V30 2183 C 208.032 -1.96993 -3.76024 0
M  V30 2184 C 205.939 -4.29797 -4.06237 0
M  V30 2185 H 204.869 -0.42796 -0.620779 0
M  V30 2186 H 207.52 -1.53166 -1.01057 0
M  V30 2187 H 205.902 -1.56603 -3.63719 0
M  V30 2188 H 207.076 -4.0434 -2.21011 0
M  V30 2189 H 205.391 -3.57529 -2.13452 0
M  V30 2190 H 207.988 -2.52856 -4.71135 0
M  V30 2191 H 208.331 -0.94733 -4.05378 0
M  V30 2192 H 208.864 -2.39973 -3.17266 0
M  V30 2193 H 205.603 -5.32648 -3.82055 0
M  V30 2194 H 205.123 -3.81596 -4.62757 0
M  V30 2195 H 206.802 -4.39869 -4.74473 0
M  V30 2196 N 206.934 1.1197 -1.10907 0
M  V30 2197 C 208.183 1.82947 -0.849302 0
M  V30 2198 C 208.496 1.85275 0.627112 0
M  V30 2199 O 209.702 2.52296 1.00295 0
M  V30 2200 C 208.158 3.28529 -1.46959 0
M  V30 2201 C 207.766 3.34546 -2.97965 0
M  V30 2202 C 209.51 4.04443 -1.28942 0
M  V30 2203 C 207.417 4.74491 -3.53004 0
M  V30 2204 H 206.347 0.685477 -0.314065 0
M  V30 2205 H 208.998 1.2604 -1.33365 0
M  V30 2206 H 207.38 3.85333 -0.912917 0
M  V30 2207 H 208.554 2.87654 -3.59989 0
M  V30 2208 H 206.869 2.72108 -3.15192 0
M  V30 2209 H 209.466 5.07787 -1.67502 0
M  V30 2210 H 209.809 4.15656 -0.231456 0
M  V30 2211 H 210.342 3.5401 -1.81443 0
M  V30 2212 H 207.081 4.68474 -4.58489 0
M  V30 2213 H 206.601 5.21816 -2.9575 0
M  V30 2214 H 208.28 5.4344 -3.51115 0
M  V30 2215 N 208.412 0.89855 1.29475 0
M  V30 2216 C 209.359 0.373819 2.27753 0
M  V30 2217 C 210.329 -0.543444 1.56958 0
M  V30 2218 O 211.514 -0.468934 1.84948 0
M  V30 2219 C 208.654 -0.393648 3.42848 0
M  V30 2220 C 207.767 0.554379 4.28428 0
M  V30 2221 C 206.902 -0.230026 5.30702 0
M  V30 2222 C 205.941 0.712599 6.07938 0
M  V30 2223 N 205.078 -0.0373283 7.0209 0
M  V30 2224 H 209.918 1.21699 2.72017 0
M  V30 2225 H 207.455 0.611456 1.33789 0
M  V30 2226 H 209.413 -0.85466 4.08352 0
M  V30 2227 H 208.043 -1.20128 2.99615 0
M  V30 2228 H 207.095 1.13391 3.63107 0
M  V30 2229 H 208.407 1.27597 4.82204 0
M  V30 2230 H 207.561 -0.752288 6.02018 0
M  V30 2231 H 206.3 -0.984758 4.77654 0
M  V30 2232 H 205.305 1.24637 5.35486 0
M  V30 2233 H 206.53 1.46664 6.63074 0
M  V30 2234 H 204.476 -0.774348 6.51414 0
M  V30 2235 H 204.393 0.624374 7.53417 0
M  V30 2236 H 205.661 -0.539891 7.77628 0
M  V30 2237 N 209.89 -1.43072 0.660911 0
M  V30 2238 C 211.115 -2.06584 0.183805 0
M  V30 2239 C 211.54 -1.49257 -1.14472 0
M  V30 2240 O 210.898 -0.605528 -1.70889 0
M  V30 2241 C 210.946 -3.60418 0.114434 0
M  V30 2242 O 210.05 -4.01981 -0.921137 0
M  V30 2243 H 209.391 -0.656669 0.0983994 0
M  V30 2244 H 211.921 -1.83447 0.906006 0
M  V30 2245 H 211.931 -4.07946 -0.0663394 0
M  V30 2246 H 210.606 -4.01519 1.08422 0
M  V30 2247 H 209.183 -3.66029 -0.71253 0
M  V30 2248 N 211.368 -0.403325 -1.52352 0
M  V30 2249 C 212.331 0.413051 -2.25447 0
M  V30 2250 C 213.331 0.978513 -1.276 0
M  V30 2251 O 214.521 0.858305 -1.51587 0
M  V30 2252 C 211.653 1.58087 -3.02029 0
M  V30 2253 H 212.846 -0.227094 -2.99039 0
M  V30 2254 H 210.399 -0.155722 -1.55522 0
M  V30 2255 H 211.134 2.25804 -2.32772 0
M  V30 2256 H 210.919 1.18195 -3.73861 0
M  V30 2257 H 212.409 2.1585 -3.57489 0
M  V30 2258 N 212.846 1.57033 -0.133567 0
M  V30 2259 C 214.074 2.00044 0.528195 0
M  V30 2260 C 214.489 1.01349 1.59291 0
M  V30 2261 O 213.846 0.00848369 1.82498 0
M  V30 2262 C 213.897 3.43018 1.1411 0
M  V30 2263 O 213.618 4.37939 0.11892 0
M  V30 2264 C 215.119 4.01237 1.88477 0
M  V30 2265 H 212.339 0.656517 0.138661 0
M  V30 2266 H 214.883 2.03267 -0.224196 0
M  V30 2267 H 213.038 3.40688 1.84418 0
M  V30 2268 H 213.452 5.21436 0.56613 0
M  V30 2269 H 214.926 5.03314 2.26669 0
M  V30 2270 H 215.403 3.41193 2.76558 0
M  V30 2271 H 216.009 4.07156 1.22898 0
M  V30 2272 N 214.325 -0.140222 1.56975 0
M  V30 2273 C 215.741 -0.493088 1.51792 0
M  V30 2274 C 215.941 -1.83013 0.843116 0
M  V30 2275 O 214.997 -2.49041 0.416493 0
M  V30 2276 C 216.31 -0.497144 2.96562 0
M  V30 2277 C 217.858 -0.582186 3.07538 0
M  V30 2278 C 218.333 -0.616838 4.53827 0
M  V30 2279 N 219.824 -0.678873 4.58198 0
M  V30 2280 C 220.559 -0.726782 5.68775 0
M  V30 2281 N 220.055 -0.733623 6.88905 0
M  V30 2282 N 221.848 -0.768179 5.56826 0
M  V30 2283 H 213.999 0.736108 1.99237 0
M  V30 2284 H 216.262 0.269182 0.90898 0
M  V30 2285 H 215.968 0.417217 3.49217 0
M  V30 2286 H 215.842 -1.33263 3.52875 0
M  V30 2287 H 218.229 -1.48697 2.54899 0
M  V30 2288 H 218.31 0.280581 2.54257 0
M  V30 2289 H 217.954 0.283812 5.07106 0
M  V30 2290 H 217.884 -1.49619 5.04898 0
M  V30 2291 H 220.375 -0.68061 3.7172 0
M  V30 2292 H 220.688 -0.772215 7.68932 0
M  V30 2293 H 219.033 -0.701389 6.91452 0
M  V30 2294 H 222.224 -0.760051 4.61888 0
M  V30 2295 H 222.397 -0.80205 6.43017 0
M  V30 2296 N 215.803 -1.52179 -0.40978 0
M  V30 2297 C 217.028 -1.70347 -1.18308 0
M  V30 2298 C 217.453 -0.411887 -1.83535 0
M  V30 2299 O 216.811 0.630587 -1.6998 0
M  V30 2300 C 216.859 -2.83977 -2.22238 0
M  V30 2301 O 215.963 -2.495 -3.28365 0
M  V30 2302 H 215.304 -0.567103 -0.345384 0
M  V30 2303 H 217.834 -1.98879 -0.480445 0
M  V30 2304 H 217.844 -3.0887 -2.66577 0
M  V30 2305 H 216.519 -3.77685 -1.74146 0
M  V30 2306 H 215.096 -2.35277 -2.89308 0
M  V30 2307 N 217.281 0.66697 -1.42791 0
M  V30 2308 C 218.511 1.45294 -1.46878 0
M  V30 2309 C 218.919 1.89027 -0.0809861 0
M  V30 2310 O 218.262 1.59219 0.916246 0
M  V30 2311 C 218.324 2.72908 -2.34012 0
M  V30 2312 C 217.988 2.51203 -3.81767 0
M  V30 2313 C 218.985 2.15302 -4.73224 0
M  V30 2314 C 216.67 2.65954 -4.26115 0
M  V30 2315 C 218.664 1.94431 -6.07022 0
M  V30 2316 C 216.351 2.44699 -5.59969 0
M  V30 2317 C 217.349 2.08992 -6.5024 0
M  V30 2318 O 217.037 1.87948 -7.81621 0
M  V30 2319 H 216.769 0.453306 -0.501487 0
M  V30 2320 H 219.323 0.826232 -1.88049 0
M  V30 2321 H 217.553 3.38089 -1.87703 0
M  V30 2322 H 219.242 3.34816 -2.29462 0
M  V30 2323 H 220.008 2.03495 -4.40244 0
M  V30 2324 H 215.887 2.92724 -3.56137 0
M  V30 2325 H 219.431 1.66484 -6.77443 0
M  V30 2326 H 215.328 2.56105 -5.9252 0
M  V30 2327 H 216.096 2.02483 -7.93059 0
M  V30 2328 N 218.759 1.29093 0.90403 0
M  V30 2329 C 219.691 1.09658 2.01266 0
M  V30 2330 C 220.704 0.0453729 1.62737 0
M  V30 2331 O 221.893 0.289446 1.76138 0
M  V30 2332 C 218.993 0.646278 3.32681 0
M  V30 2333 C 218.166 1.77505 3.99763 0
M  V30 2334 C 217.225 1.31649 5.09465 0
M  V30 2335 O 216.251 2.02045 5.32134 0
M  V30 2336 N 217.453 0.184997 5.80205 0
M  V30 2337 H 220.218 2.05135 2.18494 0
M  V30 2338 H 217.779 1.20975 1.07594 0
M  V30 2339 H 219.771 0.322906 4.0341 0
M  V30 2340 H 218.341 -0.215916 3.11853 0
M  V30 2341 H 217.561 2.26752 3.22455 0
M  V30 2342 H 218.849 2.53198 4.41325 0
M  V30 2343 H 218.247 -0.402021 5.6427 0
M  V30 2344 H 216.804 -0.0790358 6.51752 0
M  V30 2345 N 220.237 -1.11381 1.11499 0
M  V30 2346 C 221.653 -1.35143 0.849031 0
M  V30 2347 C 221.853 -1.94515 -0.525938 0
M  V30 2348 O 220.909 -2.1785 -1.27662 0
M  V30 2349 C 222.222 -2.28249 1.95762 0
M  V30 2350 C 223.77 -2.41812 1.98736 0
M  V30 2351 C 224.245 -3.3824 3.088 0
M  V30 2352 N 225.736 -3.45803 3.08179 0
M  V30 2353 C 226.471 -4.20358 3.89982 0
M  V30 2354 N 225.967 -4.97884 4.8175 0
M  V30 2355 N 227.76 -4.15877 3.78157 0
M  V30 2356 H 219.911 -0.712062 2.00109 0
M  V30 2357 H 222.174 -0.376025 0.870235 0
M  V30 2358 H 221.88 -1.91817 2.94787 0
M  V30 2359 H 221.754 -3.28473 1.85433 0
M  V30 2360 H 224.141 -2.77518 1.00338 0
M  V30 2361 H 224.222 -1.41437 2.13141 0
M  V30 2362 H 223.866 -3.03261 4.07425 0
M  V30 2363 H 223.796 -4.38471 2.91635 0
M  V30 2364 H 226.287 -2.90506 2.41691 0
M  V30 2365 H 226.6 -5.52142 5.40702 0
M  V30 2366 H 224.945 -4.97043 4.85771 0
M  V30 2367 H 228.136 -3.544 3.05808 0
M  V30 2368 H 228.309 -4.73723 4.42143 0
M  V30 2369 N 221.715 -0.905404 -1.28997 0
M  V30 2370 C 222.961 -0.535039 -1.95615 0
M  V30 2371 C 223.294 0.917404 -1.71165 0
M  V30 2372 O 222.569 1.65123 -1.02785 0
M  V30 2373 C 222.852 -0.834918 -3.50287 0
M  V30 2374 C 222.705 -2.33948 -3.84172 0
M  V30 2375 C 224.024 -0.325318 -4.38896 0
M  V30 2376 H 221.143 -0.195861 -0.710498 0
M  V30 2377 H 223.785 -1.13313 -1.52513 0
M  V30 2378 H 221.935 -0.325904 -3.87131 0
M  V30 2379 H 223.607 -2.91847 -3.57243 0
M  V30 2380 H 221.85 -2.79789 -3.31513 0
M  V30 2381 H 222.521 -2.49987 -4.92149 0
M  V30 2382 H 224.997 -0.761256 -4.09077 0
M  V30 2383 H 223.873 -0.564295 -5.45992 0
M  V30 2384 H 224.134 0.774144 -4.35269 0
M  V30 2385 N 223.193 1.4272 -0.668489 0
M  V30 2386 C 224.44 2.01624 -0.18814 0
M  V30 2387 C 224.768 1.5282 1.20317 0
M  V30 2388 O 224.023 0.718323 1.8204 0
M  V30 2389 C 224.322 3.57021 -0.164499 0
M  V30 2390 C 223.988 4.25232 -1.49962 0
M  V30 2391 C 222.65 4.4358 -1.8652 0
M  V30 2392 C 225.002 4.63727 -2.37921 0
M  V30 2393 C 222.33 4.97694 -3.10674 0
M  V30 2394 C 224.682 5.19218 -3.6138 0
M  V30 2395 C 223.346 5.3578 -3.98115 0
M  V30 2396 H 222.616 0.737795 -0.0688454 0
M  V30 2397 H 225.263 1.70991 -0.862225 0
M  V30 2398 H 223.568 3.87285 0.593079 0
M  V30 2399 H 225.265 4.00372 0.224271 0
M  V30 2400 H 221.855 4.11306 -1.20522 0
M  V30 2401 H 226.039 4.4923 -2.10964 0
M  V30 2402 H 221.295 5.08702 -3.39164 0
M  V30 2403 H 225.469 5.4799 -4.29743 0
M  V30 2404 H 223.096 5.77475 -4.94395 0
M  V30 2405 N 224.671 0.411399 1.52136 0
M  V30 2406 C 226.087 0.0623865 1.59478 0
M  V30 2407 C 226.287 -1.42554 1.4241 0
M  V30 2408 O 225.343 -2.19263 1.2522 0
M  V30 2409 C 226.656 0.559331 2.95452 0
M  V30 2410 C 228.204 0.517503 3.08692 0
M  V30 2411 C 228.679 0.990994 4.4715 0
M  V30 2412 N 230.17 0.947908 4.53397 0
M  V30 2413 C 230.905 1.28544 5.58806 0
M  V30 2414 N 230.401 1.69454 6.71757 0
M  V30 2415 N 232.194 1.20526 5.49026 0
M  V30 2416 H 224.345 1.37982 1.61477 0
M  V30 2417 H 226.608 0.566977 0.759764 0
M  V30 2418 H 226.314 1.59938 3.1323 0
M  V30 2419 H 226.188 -0.0298014 3.77188 0
M  V30 2420 H 228.575 -0.513505 2.90598 0
M  V30 2421 H 228.656 1.14272 2.28857 0
M  V30 2422 H 228.3 2.02034 4.65988 0
M  V30 2423 H 228.23 0.34257 5.25485 0
M  V30 2424 H 230.721 0.647157 3.72317 0
M  V30 2425 H 231.034 1.93513 7.48179 0
M  V30 2426 H 229.379 1.73359 6.73032 0
M  V30 2427 H 232.57 0.884505 4.59667 0
M  V30 2428 H 232.743 1.47161 6.31069 0
M  V30 2429 N 226.149 -1.5696 0.141893 0
M  V30 2430 C 227.395 -1.97034 -0.504884 0
M  V30 2431 C 227.75 -1.02518 -1.62812 0
M  V30 2432 O 227.043 -0.0592943 -1.91508 0
M  V30 2433 C 227.237 -3.41242 -1.06249 0
M  V30 2434 C 227.066 -4.497 0.00519653 0
M  V30 2435 C 225.836 -5.03338 0.444873 0
M  V30 2436 C 228.034 -5.08122 0.794767 0
M  V30 2437 N 226.016 -5.95395 1.49593 0
M  V30 2438 C 227.387 -5.96339 1.69645 0
M  V30 2439 C 229.442 -4.9071 0.843122 0
M  V30 2440 C 228.145 -6.69009 2.64233 0
M  V30 2441 C 230.171 -5.64077 1.77681 0
M  V30 2442 C 229.533 -6.51999 2.66603 0
M  V30 2443 H 225.632 -0.766745 -0.153707 0
M  V30 2444 H 228.216 -1.93273 0.235313 0
M  V30 2445 H 226.387 -3.45606 -1.77231 0
M  V30 2446 H 228.119 -3.68389 -1.67546 0
M  V30 2447 H 224.874 -4.73576 0.0480959 0
M  V30 2448 H 225.298 -6.46128 2.02107 0
M  V30 2449 H 229.94 -4.22459 0.169732 0
M  V30 2450 H 227.658 -7.36492 3.32575 0
M  V30 2451 H 231.244 -5.52602 1.81996 0
M  V30 2452 H 230.124 -7.07775 3.37675 0
M  V30 2453 N 227.627 0.131896 -1.57047 0
M  V30 2454 C 228.873 0.843179 -1.84441 0
M  V30 2455 C 229.206 1.80129 -0.725749 0
M  V30 2456 O 228.481 1.92624 0.269469 0
M  V30 2457 C 228.764 1.60442 -3.22382 0
M  V30 2458 C 228.617 0.666782 -4.4483 0
M  V30 2459 C 229.936 2.56354 -3.5773 0
M  V30 2460 H 227.055 0.305081 -0.670891 0
M  V30 2461 H 229.697 0.107839 -1.89694 0
M  V30 2462 H 227.847 2.23128 -3.18035 0
M  V30 2463 H 229.519 0.0497646 -4.61273 0
M  V30 2464 H 227.762 -0.022609 -4.33794 0
M  V30 2465 H 228.433 1.23579 -5.37989 0
M  V30 2466 H 230.909 2.0378 -3.62785 0
M  V30 2467 H 229.785 3.06657 -4.5525 0
M  V30 2468 H 230.046 3.38419 -2.84473 0
M  V30 2469 N 229.106 1.52395 0.401703 0
M  V30 2470 C 230.056 1.72649 1.48917 0
M  V30 2471 C 231.04 0.580436 1.50066 0
M  V30 2472 O 232.232 0.83779 1.55917 0
M  V30 2473 C 229.361 1.88729 2.86769 0
M  V30 2474 C 228.447 3.09228 2.90239 0
M  V30 2475 N 228.838 4.31805 2.63396 0
M  V30 2476 C 227.136 3.09214 3.21408 0
M  V30 2477 C 227.837 5.13326 2.73625 0
M  V30 2478 N 226.813 4.48735 3.06819 0
M  V30 2479 H 230.615 2.65058 1.26971 0
M  V30 2480 H 228.129 1.50528 0.609504 0
M  V30 2481 H 230.126 2.01358 3.65049 0
M  V30 2482 H 228.786 0.975252 3.09708 0
M  V30 2483 H 229.797 4.60154 2.37653 0
M  V30 2484 H 226.474 2.27774 3.49893 0
M  V30 2485 H 227.864 6.21003 2.56524 0
M  V30 2486 N 230.584 -0.659388 1.43143 0
M  V30 2487 C 231.532 -1.79374 1.4808 0
M  V30 2488 C 232.526 -1.65639 0.354988 0
M  V30 2489 O 233.732 -1.7206 0.528704 0
M  V30 2490 H 230.107 -0.591705 0.4641 0
M  V30 2491 H 232.078 -1.72329 2.43609 0
M  V30 2492 C 230.827 -3.17606 1.41499 0
M  V30 2493 H 230.15 -3.28809 2.27431 0
M  V30 2494 H 231.59 -3.96951 1.49015 0
M  V30 2495 C 230.049 -3.36642 0.131765 0
M  V30 2496 O 230.579 -3.93461 -0.809386 0
M  V30 2497 N 228.785 -2.90567 0.0439396 0
M  V30 2498 H 228.332 -2.44513 0.810619 0
M  V30 2499 H 228.29 -3.03681 -0.813969 0
M  V30 2500 N 232.062 -1.29571 -0.897171 0
M  V30 2501 C 233.478 -1.07637 -1.17841 0
M  V30 2502 C 233.678 0.170713 -2.00776 0
M  V30 2503 O 232.734 0.867768 -2.3712 0
M  V30 2504 C 234.047 -2.3332 -1.8969 0
M  V30 2505 C 235.595 -2.38664 -2.02505 0
M  V30 2506 C 236.07 -3.64157 -2.77765 0
M  V30 2507 N 237.561 -3.64894 -2.85318 0
M  V30 2508 C 238.296 -4.58679 -3.44094 0
M  V30 2509 N 237.792 -5.62799 -4.04017 0
M  V30 2510 N 239.585 -4.46245 -3.41793 0
M  V30 2511 H 231.736 -2.09598 -0.343883 0
M  V30 2512 H 233.999 -0.923333 -0.214848 0
M  V30 2513 H 233.705 -3.24262 -1.36187 0
M  V30 2514 H 233.579 -2.41025 -2.9015 0
M  V30 2515 H 235.966 -1.48208 -2.55183 0
M  V30 2516 H 236.047 -2.34943 -1.01171 0
M  V30 2517 H 235.691 -4.54965 -2.25763 0
M  V30 2518 H 235.621 -3.65137 -3.7945 0
M  V30 2519 H 238.112 -2.89613 -2.42761 0
M  V30 2520 H 238.425 -6.3048 -4.46895 0
M  V30 2521 H 236.77 -5.66605 -4.02472 0
M  V30 2522 H 239.961 -3.64094 -2.94199 0
M  V30 2523 H 240.134 -5.19518 -3.87304 0
M  V30 2524 N 233.54 1.10788 -1.12088 0
M  V30 2525 C 234.47 2.19083 -0.807755 0
M  V30 2526 C 235.451 1.6858 0.226859 0
M  V30 2527 O 236.636 1.93997 0.0888475 0
M  V30 2528 C 233.766 3.46344 -0.257576 0
M  V30 2529 C 232.72 4.101 -1.22483 0
M  V30 2530 C 232.046 5.32016 -0.535052 0
M  V30 2531 C 233.346 4.54236 -2.57811 0
M  V30 2532 H 235.04 2.45534 -1.71328 0
M  V30 2533 H 232.586 1.1801 -0.825205 0
M  V30 2534 H 234.539 4.21392 -0.0262679 0
M  V30 2535 H 233.263 3.19373 0.683278 0
M  V30 2536 H 231.922 3.37054 -1.44189 0
M  V30 2537 H 231.57 5.01319 0.410827 0
M  V30 2538 H 231.27 5.75625 -1.18024 0
M  V30 2539 H 232.794 6.09799 -0.312695 0
M  V30 2540 H 234.208 5.20575 -2.40155 0
M  V30 2541 H 232.605 5.08682 -3.18375 0
M  V30 2542 H 233.675 3.6734 -3.16528 0
M  V30 2543 N 235.018 0.912232 1.28515 0
M  V30 2544 C 236.295 0.463597 1.90027 0
M  V30 2545 C 236.675 -1.05753 1.82701 0
M  V30 2546 O 236.023 -1.90492 1.26194 0
M  V30 2547 C 236.233 0.992253 3.34597 0
M  V30 2548 C 237.581 1.04344 4.11579 0
M  V30 2549 O 238.605 0.94079 3.43551 0
M  V30 2550 O 237.464 1.1995 5.33174 0
M  V30 2551 H 234.558 0.146666 0.813891 0
M  V30 2552 H 237.104 1.00292 1.36893 0
M  V30 2553 H 235.876 2.03623 3.34146 0
M  V30 2554 H 235.499 0.433672 3.95228 0
M  V30 2555 N 236.496 -1.42363 0.676048 0
M  V30 2556 C 237.736 -2.03392 0.20273 0
M  V30 2557 C 238.1 -1.52306 -1.16906 0
M  V30 2558 O 239.301 -2.05129 -1.73711 0
M  V30 2559 C 237.572 -3.56614 0.236947 0
M  V30 2560 S 239.131 -4.38489 -0.165186 0
M  V30 2561 H 235.949 -0.70611 0.0832418 0
M  V30 2562 H 238.551 -1.74093 0.88948 0
M  V30 2563 H 237.255 -3.91293 1.23767 0
M  V30 2564 H 236.786 -3.90587 -0.469596 0
M  V30 2565 H 238.801 -4.76093 -1.39822 0
M  V30 2566 N 237.974 -0.419461 -1.51915 0
M  V30 2567 C 239.385 0.0477853 -1.86639 0
M  V30 2568 C 239.736 1.43531 -1.33766 0
M  V30 2569 O 238.861 2.05401 -0.68113 0
M  V30 2570 C 239.456 0.0934885 -3.38671 0
M  V30 2571 C 238.015 0.505097 -3.72996 0
M  V30 2572 C 237.162 -0.313792 -2.75519 0
M  V30 2573 H 240.113 -0.636088 -1.45395 0
M  V30 2574 H 240.134 0.906667 -3.6954 0
M  V30 2575 H 239.646 -0.916501 -3.77123 0
M  V30 2576 H 237.747 1.52135 -3.40126 0
M  V30 2577 H 237.86 0.242309 -4.78487 0
M  V30 2578 H 236.224 0.225363 -2.53701 0
M  V30 2579 H 237.007 -1.32232 -3.16812 0
M  V30 2580 N 239.452 1.56882 -0.150215 0
M  V30 2581 C 240.382 2.19935 0.784284 0
M  V30 2582 C 241.363 1.14854 1.25469 0
M  V30 2583 O 242.548 1.43209 1.31168 0
M  V30 2584 C 239.678 2.82349 2.02229 0
M  V30 2585 C 238.632 3.93285 1.68853 0
M  V30 2586 C 237.958 4.42649 2.99944 0
M  V30 2587 C 239.258 5.13904 0.932714 0
M  V30 2588 H 240.952 2.9828 0.258781 0
M  V30 2589 H 238.498 1.43473 0.123029 0
M  V30 2590 H 240.451 3.25126 2.68088 0
M  V30 2591 H 239.175 2.0134 2.57157 0
M  V30 2592 H 237.834 3.5113 1.05371 0
M  V30 2593 H 237.482 3.58458 3.52869 0
M  V30 2594 H 237.182 5.17476 2.78374 0
M  V30 2595 H 238.706 4.88099 3.66868 0
M  V30 2596 H 240.12 5.53506 1.49345 0
M  V30 2597 H 238.517 5.94515 0.81684 0
M  V30 2598 H 239.587 4.84842 -0.0749568 0
M  V30 2599 N 240.93 -0.123565 1.57115 0
M  V30 2600 C 242.176 -0.828428 1.85765 0
M  V30 2601 C 242.531 -1.77709 0.737371 0
M  V30 2602 O 241.824 -1.89787 -0.262978 0
M  V30 2603 C 242.018 -1.62016 3.18568 0
M  V30 2604 C 241.847 -0.749663 4.43407 0
M  V30 2605 C 240.617 -0.406251 5.03664 0
M  V30 2606 C 242.815 -0.0693505 5.14253 0
M  V30 2607 N 240.797 0.475389 6.12057 0
M  V30 2608 C 242.168 0.671474 6.16353 0
M  V30 2609 C 244.223 0.00754393 4.97899 0
M  V30 2610 C 242.926 1.48197 7.03868 0
M  V30 2611 C 244.952 0.804845 5.85898 0
M  V30 2612 C 244.314 1.53388 6.87497 0
M  V30 2613 H 240.413 -0.280219 0.73007 0
M  V30 2614 H 242.997 -0.0924183 1.94481 0
M  V30 2615 H 241.168 -2.32724 3.10957 0
M  V30 2616 H 242.9 -2.27 3.35042 0
M  V30 2617 H 239.655 -0.747446 4.67665 0
M  V30 2618 H 240.079 0.907924 6.70884 0
M  V30 2619 H 244.721 -0.541741 4.19315 0
M  V30 2620 H 242.439 2.04242 7.81864 0
M  V30 2621 H 246.025 0.866642 5.75309 0
M  V30 2622 H 244.905 2.1409 7.5441 0
M  V30 2623 N 242.408 -1.52605 -0.393616 0
M  V30 2624 C 243.654 -1.67672 -1.14079 0
M  V30 2625 C 243.987 -0.413121 -1.89755 0
M  V30 2626 O 243.262 0.588952 -1.85369 0
M  V30 2627 C 243.545 -2.9088 -2.12276 0
M  V30 2628 C 243.398 -4.27329 -1.40394 0
M  V30 2629 C 244.717 -3.09628 -3.12759 0
M  V30 2630 H 241.836 -0.610168 -0.413356 0
M  V30 2631 H 244.478 -1.85193 -0.424696 0
M  V30 2632 H 242.628 -2.76073 -2.73342 0
M  V30 2633 H 244.3 -4.53894 -0.82327 0
M  V30 2634 H 242.543 -4.2802 -0.705801 0
M  V30 2635 H 243.214 -5.09615 -2.12123 0
M  V30 2636 H 245.69 -3.23436 -2.61779 0
M  V30 2637 H 244.566 -3.97322 -3.78717 0
M  V30 2638 H 244.827 -2.23637 -3.81365 0
M  V30 2639 N 243.887 0.651787 -1.4349 0
M  V30 2640 C 245.115 1.43937 -1.48626 0
M  V30 2641 C 245.53 1.8851 -0.104587 0
M  V30 2642 O 244.887 1.5958 0.885464 0
M  V30 2643 C 244.938 2.6734 -2.43334 0
M  V30 2644 O 244.659 2.24631 -3.76128 0
M  V30 2645 C 246.16 3.60683 -2.57726 0
M  V30 2646 H 243.38 0.44213 -0.504739 0
M  V30 2647 H 245.924 0.798944 -1.88248 0
M  V30 2648 H 244.079 3.2752 -2.06904 0
M  V30 2649 H 244.493 3.04485 -4.2707 0
M  V30 2650 H 245.967 4.43933 -3.28067 0
M  V30 2651 H 246.444 4.08126 -1.62265 0
M  V30 2652 H 247.05 3.06384 -2.94973 0
M  V30 2653 N 245.365 1.30045 0.890287 0
M  V30 2654 C 246.593 1.21472 1.67487 0
M  V30 2655 C 247.008 -0.223241 1.87476 0
M  V30 2656 O 246.365 -1.14828 1.41847 0
M  V30 2657 C 246.416 1.93394 3.05419 0
M  V30 2658 O 246.137 3.31576 2.86337 0
M  V30 2659 C 247.638 1.91414 3.99844 0
M  V30 2660 H 244.858 0.420604 0.522813 0
M  V30 2661 H 247.402 1.7158 1.11268 0
M  V30 2662 H 245.557 1.47099 3.58386 0
M  V30 2663 H 245.971 3.67929 3.73802 0
M  V30 2664 H 247.445 2.46285 4.94012 0
M  V30 2665 H 247.922 0.891833 4.3005 0
M  V30 2666 H 248.528 2.37496 3.52811 0
M  V30 2667 N 246.843 -1.10192 1.12674 0
M  V30 2668 C 248.083 -1.83825 0.893736 0
M  V30 2669 C 248.447 -1.83341 -0.570082 0
M  V30 2670 O 249.648 -2.52553 -0.920354 0
M  V30 2671 C 247.919 -3.26405 1.45582 0
M  V30 2672 S 249.478 -4.17136 1.36171 0
M  V30 2673 H 246.296 -0.633732 0.322342 0
M  V30 2674 H 248.898 -1.32581 1.43675 0
M  V30 2675 H 247.602 -3.24329 2.51473 0
M  V30 2676 H 247.133 -3.82721 0.910405 0
M  V30 2677 H 249.148 -4.95069 0.334863 0
M  V30 2678 N 248.321 -0.919034 -1.28029 0
M  V30 2679 C 249.546 -0.570357 -1.99403 0
M  V30 2680 C 249.971 0.842486 -1.68178 0
M  V30 2681 O 249.329 1.56391 -0.917141 0
M  V30 2682 C 249.377 -0.792541 -3.51783 0
M  V30 2683 O 248.481 0.145988 -4.12142 0
M  V30 2684 H 247.822 -0.220555 -0.6263 0
M  V30 2685 H 250.352 -1.23592 -1.63053 0
M  V30 2686 H 250.362 -0.704708 -4.01868 0
M  V30 2687 H 249.037 -1.82247 -3.73844 0
M  V30 2688 H 247.614 0.00897528 -3.72899 0
M  V30 2689 N 249.799 1.42003 -0.683588 0
M  V30 2690 C 251.076 1.95112 -0.138075 0
M  V30 2691 C 251.456 1.62359 1.34918 0
M  V30 2692 O 250.804 0.924311 2.08971 0
M  V30 2693 C 251.014 3.46505 -0.416581 0
M  V30 2694 C 252.362 4.23254 -0.337834 0
M  V30 2695 O 253.386 3.54468 -0.35082 0
M  V30 2696 O 252.245 5.45743 -0.287596 0
M  V30 2697 H 249.339 0.826961 -0.00797996 0
M  V30 2698 H 251.885 1.51784 -0.758924 0
M  V30 2699 H 250.657 3.63582 -1.4465 0
M  V30 2700 H 250.28 3.969 0.235839 0
M  V30 2701 N 251.277 0.427512 1.51691 0
M  V30 2702 C 252.505 -0.141191 2.06418 0
M  V30 2703 C 252.92 -1.37303 1.29589 0
M  V30 2704 O 252.277 -1.79059 0.352732 0
M  V30 2705 C 252.328 -0.473266 3.58389 0
M  V30 2706 O 252.049 0.709673 4.32314 0
M  V30 2707 C 253.55 -1.09371 4.29596 0
M  V30 2708 H 250.77 -0.0122747 0.670888 0
M  V30 2709 H 253.314 0.603764 1.95384 0
M  V30 2710 H 251.469 -1.16812 3.69369 0
M  V30 2711 H 251.883 0.42807 5.2275 0
M  V30 2712 H 253.357 -1.27613 5.37046 0
M  V30 2713 H 253.834 -2.072 3.87253 0
M  V30 2714 H 254.44 -0.43853 4.23033 0
M  V30 2715 N 252.755 -1.56801 0.158532 0
M  V30 2716 C 253.702 -2.17337 -0.776729 0
M  V30 2717 C 254.672 -1.1096 -1.23601 0
M  V30 2718 O 255.857 -1.39054 -1.30647 0
M  V30 2719 C 252.997 -2.80822 -2.00582 0
M  V30 2720 C 252.11 -4.01624 -1.59129 0
M  V30 2721 C 251.245 -4.53072 -2.77306 0
M  V30 2722 C 250.284 -5.66314 -2.32282 0
M  V30 2723 N 249.421 -6.12329 -3.43508 0
M  V30 2724 H 254.261 -2.96918 -0.253701 0
M  V30 2725 H 251.798 -1.46661 -0.113504 0
M  V30 2726 H 253.756 -3.15779 -2.72652 0
M  V30 2727 H 252.386 -2.03866 -2.50277 0
M  V30 2728 H 251.438 -3.72571 -0.767806 0
M  V30 2729 H 252.75 -4.83633 -1.2207 0
M  V30 2730 H 251.904 -4.90145 -3.57551 0
M  V30 2731 H 250.643 -3.70095 -3.17617 0
M  V30 2732 H 249.648 -5.28806 -1.5048 0
M  V30 2733 H 250.873 -6.51085 -1.93043 0
M  V30 2734 H 248.819 -5.32284 -3.83418 0
M  V30 2735 H 248.736 -6.89293 -3.105 0
M  V30 2736 H 250.004 -6.5405 -4.24075 0
M  V30 2737 N 254.233 0.115231 -1.57178 0
M  V30 2738 C 255.143 1.15994 -2.03918 0
M  V30 2739 C 256.159 1.45103 -0.960268 0
M  V30 2740 O 257.335 1.56144 -1.27204 0
M  V30 2741 C 254.4 2.46568 -2.43732 0
M  V30 2742 C 253.461 2.24822 -3.65723 0
M  V30 2743 C 252.694 3.4917 -4.03629 0
M  V30 2744 O 252.917 4.56623 -3.41835 0
M  V30 2745 O 251.851 3.39949 -4.96708 0
M  V30 2746 H 255.677 0.793019 -2.93164 0
M  V30 2747 H 253.262 0.3263 -1.45793 0
M  V30 2748 H 255.144 3.23492 -2.70057 0
M  V30 2749 H 253.819 2.82726 -1.57631 0
M  V30 2750 H 252.726 1.45744 -3.44542 0
M  V30 2751 H 254.059 1.93566 -4.52541 0
M  V30 2752 N 255.711 1.52812 0.385517 0
M  V30 2753 C 256.621 1.80766 1.49535 0
M  V30 2754 C 257.637 0.694651 1.59532 0
M  V30 2755 O 258.813 0.982611 1.75803 0
M  V30 2756 C 255.878 1.97381 2.85029 0
M  V30 2757 C 254.939 3.21295 2.84724 0
M  V30 2758 C 254.172 3.37108 4.13756 0
M  V30 2759 O 254.395 2.5765 5.08893 0
M  V30 2760 O 253.329 4.30378 4.20783 0
M  V30 2761 H 257.155 2.75015 1.28842 0
M  V30 2762 H 254.74 1.37946 0.573697 0
M  V30 2763 H 256.622 2.09996 3.65349 0
M  V30 2764 H 255.297 1.06322 3.05741 0
M  V30 2765 H 254.204 3.1412 2.03174 0
M  V30 2766 H 255.537 4.12212 2.68965 0
M  V30 2767 N 257.189 -0.644168 1.43834 0
M  V30 2768 C 258.437 -1.40117 1.45642 0
M  V30 2769 C 258.758 -1.94814 0.0852413 0
M  V30 2770 O 258.028 -1.74988 -0.880688 0
M  V30 2771 H 256.608 -0.52005 0.536243 0
M  V30 2772 H 259.27 -0.7591 1.7951 0
M  V30 2773 H 258.366 -2.23902 2.17427 0
M  V30 2774 N 258.668 -1.30515 -0.883378 0
M  V30 2775 C 259.631 -1.1701 -1.97082 0
M  V30 2776 C 260.631 -0.10089 -1.60483 0
M  V30 2777 O 261.821 -0.349127 -1.70666 0
M  V30 2778 C 258.953 -0.793045 -3.31547 0
M  V30 2779 H 260.146 -2.13622 -2.10489 0
M  V30 2780 H 257.699 -1.13935 -1.06998 0
M  V30 2781 H 258.434 0.172499 -3.23841 0
M  V30 2782 H 258.219 -1.56576 -3.5948 0
M  V30 2783 H 259.709 -0.722073 -4.1131 0
M  V30 2784 N 260.146 1.09593 -1.13257 0
M  V30 2785 C 261.374 1.855 -0.916378 0
M  V30 2786 C 261.789 1.81069 0.534738 0
M  V30 2787 O 261.146 1.20562 1.37007 0
M  V30 2788 C 261.197 3.33546 -1.39388 0
M  V30 2789 O 260.918 3.37927 -2.78813 0
M  V30 2790 C 262.419 4.26299 -1.21588 0
M  V30 2791 H 259.639 0.585991 -0.326887 0
M  V30 2792 H 262.183 1.38488 -1.5047 0
M  V30 2793 H 260.338 3.77992 -0.848597 0
M  V30 2794 H 260.752 4.30254 -2.9997 0
M  V30 2795 H 262.226 5.28341 -1.59876 0
M  V30 2796 H 262.703 4.38918 -0.157376 0
M  V30 2797 H 263.309 3.87668 -1.7491 0
M  V30 2798 N 261.624 0.925811 1.2754 0
M  V30 2799 C 262.571 0.422045 2.26908 0
M  V30 2800 C 263.541 -0.510029 1.58076 0
M  V30 2801 O 264.726 -0.429599 1.85901 0
M  V30 2802 C 261.866 -0.320837 3.43605 0
M  V30 2803 C 260.979 0.64513 4.27156 0
M  V30 2804 C 260.114 -0.117405 5.3107 0
M  V30 2805 C 259.153 0.841391 6.0629 0
M  V30 2806 N 258.29 0.111604 7.02011 0
M  V30 2807 H 263.13 1.27441 2.69375 0
M  V30 2808 H 260.667 0.639697 1.32462 0
M  V30 2809 H 262.625 -0.76785 4.10073 0
M  V30 2810 H 261.255 -1.13745 3.02096 0
M  V30 2811 H 260.307 1.21067 3.6062 0
M  V30 2812 H 261.619 1.37797 4.79389 0
M  V30 2813 H 260.773 -0.624422 6.03478 0
M  V30 2814 H 259.512 -0.883219 4.79636 0
M  V30 2815 H 258.517 1.35967 5.32722 0
M  V30 2816 H 259.742 1.60696 6.59813 0
M  V30 2817 H 257.688 -0.635999 6.5291 0
M  V30 2818 H 257.605 0.784044 7.51923 0
M  V30 2819 H 258.873 -0.374823 7.78598 0
M  V30 2820 N 263.102 -1.41638 0.69111 0
M  V30 2821 C 264.049 -2.30789 0.0229705 0
M  V30 2822 C 265.019 -1.46863 -0.775911 0
M  V30 2823 O 266.204 -1.75661 -0.74485 0
M  V30 2824 C 263.344 -3.32868 -0.910666 0
M  V30 2825 C 262.457 -4.31875 -0.103874 0
M  V30 2826 C 261.592 -5.21024 -1.03475 0
M  V30 2827 C 260.631 -6.11702 -0.220598 0
M  V30 2828 N 259.768 -6.93349 -1.10504 0
M  V30 2829 H 264.608 -2.87366 0.788978 0
M  V30 2830 H 262.145 -1.41535 0.400794 0
M  V30 2831 H 264.103 -3.90596 -1.46597 0
M  V30 2832 H 262.733 -2.77851 -1.64312 0
M  V30 2833 H 261.785 -3.76131 0.568285 0
M  V30 2834 H 263.097 -4.96003 0.527504 0
M  V30 2835 H 262.251 -5.83565 -1.65943 0
M  V30 2836 H 260.99 -4.57112 -1.69999 0
M  V30 2837 H 259.995 -5.48215 0.417187 0
M  V30 2838 H 261.22 -6.77668 0.440784 0
M  V30 2839 H 259.166 -6.3205 -1.75638 0
M  V30 2840 H 259.083 -7.54146 -0.529125 0
M  V30 2841 H 260.351 -7.60362 -1.71667 0
M  V30 2842 N 264.58 -0.43555 -1.51462 0
M  V30 2843 C 265.527 0.376797 -2.27703 0
M  V30 2844 C 266.497 1.01838 -1.31219 0
M  V30 2845 O 267.682 1.03762 -1.60119 0
M  V30 2846 C 264.822 1.47301 -3.12084 0
M  V30 2847 C 263.935 0.849744 -4.2356 0
M  V30 2848 C 263.07 1.92086 -4.95254 0
M  V30 2849 C 262.109 1.27593 -5.98654 0
M  V30 2850 N 261.246 2.28833 -6.63762 0
M  V30 2851 H 266.086 -0.279734 -2.96684 0
M  V30 2852 H 263.623 -0.149795 -1.46335 0
M  V30 2853 H 265.581 2.11984 -3.59331 0
M  V30 2854 H 264.211 2.0992 -2.45221 0
M  V30 2855 H 263.263 0.0912529 -3.80291 0
M  V30 2856 H 264.575 0.338878 -4.97648 0
M  V30 2857 H 263.729 2.64435 -5.46039 0
M  V30 2858 H 262.468 2.46545 -4.20793 0
M  V30 2859 H 261.473 0.537893 -5.47162 0
M  V30 2860 H 262.698 0.738693 -6.7507 0
M  V30 2861 H 260.644 2.82375 -5.92115 0
M  V30 2862 H 260.561 1.82632 -7.33608 0
M  V30 2863 H 261.829 3.00671 -7.19178 0
M  V30 2864 N 266.058 1.56714 -0.166846 0
M  V30 2865 C 267.286 2.0112 0.485644 0
M  V30 2866 C 267.701 1.04705 1.57106 0
M  V30 2867 O 267.058 0.0471923 1.82439 0
M  V30 2868 C 267.109 3.45361 1.06808 0
M  V30 2869 O 266.83 4.38092 0.0259995 0
M  V30 2870 C 268.331 4.05145 1.79924 0
M  V30 2871 H 265.551 0.65931 0.124704 0
M  V30 2872 H 268.095 2.02746 -0.267262 0
M  V30 2873 H 266.25 3.44524 1.7715 0
M  V30 2874 H 266.664 5.22519 0.455398 0
M  V30 2875 H 268.138 5.08009 2.15942 0
M  V30 2876 H 268.615 3.46982 2.69258 0
M  V30 2877 H 269.221 4.09672 1.14234 0
M  V30 2878 N 267.536 -0.106894 1.57237 0
M  V30 2879 C 268.468 -1.15646 1.97885 0
M  V30 2880 C 269.481 -1.36981 0.879779 0
M  V30 2881 O 270.67 -1.35841 1.15799 0
M  V30 2882 C 267.77 -2.51425 2.27241 0
M  V30 2883 C 266.943 -2.50529 3.58545 0
M  V30 2884 C 266.002 -3.68145 3.75973 0
M  V30 2885 O 265.028 -3.51176 4.47956 0
M  V30 2886 N 266.23 -4.87177 3.15656 0
M  V30 2887 H 268.995 -0.81059 2.8853 0
M  V30 2888 H 266.556 -0.296024 1.59171 0
M  V30 2889 H 268.548 -3.28689 2.36105 0
M  V30 2890 H 267.118 -2.78147 1.42663 0
M  V30 2891 H 266.338 -1.58894 3.60758 0
M  V30 2892 H 267.626 -2.46997 4.44826 0
M  V30 2893 H 267.024 -5.03868 2.57165 0
M  V30 2894 H 265.581 -5.62075 3.30023 0
M  V30 2895 N 269.014 -1.53014 -0.377408 0
M  V30 2896 C 269.961 -1.78616 -1.46168 0
M  V30 2897 C 270.931 -0.629917 -1.53692 0
M  V30 2898 O 272.116 -0.870861 -1.69766 0
M  V30 2899 C 269.256 -1.97123 -2.8326 0
M  V30 2900 C 268.369 -3.24831 -2.84796 0
M  V30 2901 C 267.504 -3.33591 -4.13389 0
M  V30 2902 C 266.543 -4.55377 -4.09021 0
M  V30 2903 N 265.68 -4.61355 -5.29241 0
M  V30 2904 H 270.52 -2.71142 -1.23637 0
M  V30 2905 H 268.057 -1.34326 -0.599577 0
M  V30 2906 H 270.015 -2.05839 -3.62886 0
M  V30 2907 H 268.645 -1.07946 -3.04216 0
M  V30 2908 H 267.697 -3.25128 -1.97474 0
M  V30 2909 H 269.009 -4.14523 -2.77439 0
M  V30 2910 H 268.163 -3.41554 -5.01424 0
M  V30 2911 H 266.902 -2.41894 -4.23484 0
M  V30 2912 H 265.907 -4.47527 -3.19373 0
M  V30 2913 H 267.132 -5.48402 -4.00539 0
M  V30 2914 H 265.078 -3.72554 -5.39944 0
M  V30 2915 H 264.995 -5.44935 -5.24006 0
M  V30 2916 H 266.263 -4.73586 -6.19141 0
M  V30 2917 N 270.492 0.636531 -1.44174 0
M  V30 2918 C 271.903 1.21806 -1.41493 0
M  V30 2919 C 272.254 1.95785 -0.1275 0
M  V30 2920 O 271.379 2.02147 0.772376 0
M  V30 2921 C 271.974 2.21551 -2.56321 0
M  V30 2922 C 270.533 2.75143 -2.56853 0
M  V30 2923 C 269.68 1.50052 -2.33195 0
M  V30 2924 H 272.631 0.427531 -1.52833 0
M  V30 2925 H 272.652 3.0405 -2.28765 0
M  V30 2926 H 272.164 1.67679 -3.50008 0
M  V30 2927 H 270.265 3.33033 -1.67093 0
M  V30 2928 H 270.378 3.2155 -3.55165 0
M  V30 2929 H 268.742 1.77993 -1.82183 0
M  V30 2930 H 269.525 0.980903 -3.28988 0
M  V30 2931 N 271.97 1.30982 0.876444 0
M  V30 2932 C 273.247 1.10942 1.61094 0
M  V30 2933 C 273.627 -0.338223 2.08373 0
M  V30 2934 O 272.975 -1.33122 1.85717 0
M  V30 2935 C 273.185 2.11789 2.77392 0
M  V30 2936 C 274.533 2.43965 3.47514 0
M  V30 2937 O 275.557 2.10166 2.87591 0
M  V30 2938 O 274.416 3.01817 4.55597 0
M  V30 2939 H 271.51 0.42667 0.708436 0
M  V30 2940 H 274.056 1.42438 0.922474 0
M  V30 2941 H 272.828 3.09194 2.39823 0
M  V30 2942 H 272.451 1.81161 3.5393 0
M  V30 2943 N 273.449 -1.08991 1.13837 0
M  V30 2944 C 274.865 -1.33312 0.877506 0
M  V30 2945 C 275.065 -1.95587 -0.48456 0
M  V30 2946 O 274.121 -2.20509 -1.23013 0
M  V30 2947 C 275.434 -2.24045 2.0056 0
M  V30 2948 C 276.982 -2.37542 2.03821 0
M  V30 2949 C 277.457 -3.31614 3.15905 0
M  V30 2950 N 278.948 -3.39189 3.15445 0
M  V30 2951 C 279.683 -4.11992 3.98811 0
M  V30 2952 N 279.179 -4.87553 4.92203 0
M  V30 2953 N 280.972 -4.07762 3.86894 0
M  V30 2954 H 273.123 -0.669456 2.01574 0
M  V30 2955 H 275.386 -0.357482 0.878015 0
M  V30 2956 H 275.092 -1.85521 2.98789 0
M  V30 2957 H 274.966 -3.24466 1.92359 0
M  V30 2958 H 277.353 -2.75327 1.06202 0
M  V30 2959 H 277.434 -1.36884 2.16093 0
M  V30 2960 H 277.078 -2.94551 4.13766 0
M  V30 2961 H 277.008 -4.32186 3.0087 0
M  V30 2962 H 279.499 -2.85314 2.47799 0
M  V30 2963 H 279.812 -5.40549 5.52292 0
M  V30 2964 H 278.157 -4.86627 4.96205 0
M  V30 2965 H 281.348 -3.47833 3.13257 0
M  V30 2966 H 281.521 -4.64238 4.52092 0
M  V30 2967 N 274.927 -0.932562 -1.27047 0
M  V30 2968 C 275.857 -0.452902 -2.29066 0
M  V30 2969 C 276.838 0.489338 -1.62909 0
M  V30 2970 O 278.023 0.393046 -1.90181 0
M  V30 2971 C 275.153 0.290698 -3.46081 0
M  V30 2972 C 274.107 -0.564168 -4.24265 0
M  V30 2973 C 273.433 0.308886 -5.33807 0
M  V30 2974 C 274.733 -1.83112 -4.89149 0
M  V30 2975 H 276.427 -1.30552 -2.69437 0
M  V30 2976 H 273.973 -0.629201 -1.29526 0
M  V30 2977 H 275.926 0.637233 -4.16554 0
M  V30 2978 H 274.65 1.17738 -3.0464 0
M  V30 2979 H 273.309 -0.893477 -3.55545 0
M  V30 2980 H 272.957 1.19467 -4.88607 0
M  V30 2981 H 272.657 -0.259633 -5.87026 0
M  V30 2982 H 274.181 0.650884 -6.07121 0
M  V30 2983 H 275.595 -1.55236 -5.51883 0
M  V30 2984 H 273.992 -2.34353 -5.52448 0
M  V30 2985 H 275.062 -2.54772 -4.12576 0
M  V30 2986 N 276.405 1.4127 -0.698611 0
M  V30 2987 C 277.315 2.34573 -0.0357891 0
M  V30 2988 C 278.331 1.56393 0.762701 0
M  V30 2989 O 279.507 1.8886 0.699564 0
M  V30 2990 C 276.572 3.35159 0.887089 0
M  V30 2991 C 275.633 4.29225 0.0804634 0
M  V30 2992 C 274.866 5.25006 0.959387 0
M  V30 2993 O 275.089 5.26314 2.19886 0
M  V30 2994 O 274.023 6.00519 0.407439 0
M  V30 2995 H 277.849 2.92838 -0.804957 0
M  V30 2996 H 275.434 1.42175 -0.458966 0
M  V30 2997 H 277.316 3.9689 1.41621 0
M  V30 2998 H 275.991 2.79333 1.6357 0
M  V30 2999 H 274.898 3.70833 -0.493328 0
M  V30 3000 H 276.231 4.88157 -0.629547 0
M  V30 3001 N 277.883 0.443576 1.51229 0
M  V30 3002 C 279.299 0.0962001 1.5931 0
M  V30 3003 C 279.499 -1.39501 1.45402 0
M  V30 3004 O 278.555 -2.16557 1.29843 0
M  V30 3005 C 279.868 0.621875 2.94199 0
M  V30 3006 C 281.416 0.582865 3.07525 0
M  V30 3007 C 281.891 1.08562 4.44948 0
M  V30 3008 N 283.382 1.04387 4.51284 0
M  V30 3009 C 284.117 1.40368 5.55954 0
M  V30 3010 N 283.613 1.83664 6.68011 0
M  V30 3011 N 285.406 1.32145 5.46346 0
M  V30 3012 H 277.557 1.41376 1.58514 0
M  V30 3013 H 279.82 0.582965 0.747567 0
M  V30 3014 H 279.526 1.66546 3.09767 0
M  V30 3015 H 279.4 0.0502125 3.77167 0
M  V30 3016 H 281.787 -0.451749 2.91622 0
M  V30 3017 H 281.868 1.191 2.26382 0
M  V30 3018 H 281.512 2.11873 4.61598 0
M  V30 3019 H 281.442 0.453956 5.2464 0
M  V30 3020 H 283.933 0.725986 3.70861 0
M  V30 3021 H 284.246 2.0934 7.43906 0
M  V30 3022 H 282.591 1.87596 6.69203 0
M  V30 3023 H 285.782 0.981808 4.57688 0
M  V30 3024 H 285.955 1.60514 6.27805 0
M  V30 3025 N 279.361 -1.56624 0.175154 0
M  V30 3026 C 280.609 -1.96609 -0.467885 0
M  V30 3027 C 280.93 -1.06238 -1.63519 0
M  V30 3028 O 280.2 -0.129523 -1.95471 0
M  V30 3029 H 278.78 -0.726008 -0.175845 0
M  V30 3030 H 281.442 -1.93195 0.257234 0
M  V30 3031 H 280.538 -3.00989 -0.825342 0
M  V30 3032 N 280.839 0.0985539 -1.57292 0
M  V30 3033 C 281.786 1.11981 -2.01814 0
M  V30 3034 C 282.756 1.39999 -0.89384 0
M  V30 3035 O 283.941 1.5152 -1.15958 0
M  V30 3036 C 281.081 2.43577 -2.44467 0
M  V30 3037 C 280.194 2.2232 -3.70402 0
M  V30 3038 C 279.329 3.4729 -4.01949 0
M  V30 3039 C 278.368 3.2128 -5.21005 0
M  V30 3040 N 277.505 4.38507 -5.48321 0
M  V30 3041 H 282.345 0.733149 -2.88841 0
M  V30 3042 H 279.882 0.350482 -1.42864 0
M  V30 3043 H 281.84 3.20373 -2.6724 0
M  V30 3044 H 280.47 2.80097 -1.60455 0
M  V30 3045 H 279.522 1.36343 -3.55126 0
M  V30 3046 H 280.834 1.99089 -4.57345 0
M  V30 3047 H 279.988 4.32495 -4.25479 0
M  V30 3048 H 278.727 3.73572 -3.13521 0
M  V30 3049 H 277.732 2.34468 -4.97298 0
M  V30 3050 H 278.957 2.96348 -6.11028 0
M  V30 3051 H 276.903 4.64871 -4.62851 0
M  V30 3052 H 276.82 4.18455 -6.29628 0
M  V30 3053 H 278.088 5.24787 -5.76385 0
M  V30 3054 N 282.317 1.53212 0.369288 0
M  V30 3055 C 283.25 1.74166 1.4745 0
M  V30 3056 C 284.228 0.589923 1.51521 0
M  V30 3057 O 285.412 0.822078 1.69629 0
M  V30 3058 C 282.539 1.81711 2.8583 0
M  V30 3059 C 281.585 3.03649 2.99499 0
M  V30 3060 S 282.418 4.63242 2.6864 0
M  V30 3061 C 283.574 4.7363 4.09177 0
M  V30 3062 H 283.807 2.67636 1.29454 0
M  V30 3063 H 281.34 1.43754 0.563396 0
M  V30 3064 H 283.298 1.86743 3.65564 0
M  V30 3065 H 281.959 0.89299 3.01139 0
M  V30 3066 H 281.152 3.05526 4.00836 0
M  V30 3067 H 280.754 2.9671 2.27683 0
M  V30 3068 H 283.046 4.53456 5.03372 0
M  V30 3069 H 283.989 5.75682 4.12306 0
M  V30 3070 H 284.397 4.02295 3.96004 0
M  V30 3071 N 283.795 -0.628877 1.44509 0
M  V30 3072 C 284.742 -1.74074 1.51549 0
M  V30 3073 C 285.712 -1.62084 0.363021 0
M  V30 3074 O 286.897 -1.81975 0.573567 0
M  V30 3075 C 284.037 -3.12328 1.46784 0
M  V30 3076 C 283.15 -3.35277 2.72422 0
M  V30 3077 C 282.285 -4.63515 2.59475 0
M  V30 3078 C 281.324 -4.7965 3.80266 0
M  V30 3079 N 280.461 -5.99168 3.65981 0
M  V30 3080 H 285.301 -1.67392 2.46544 0
M  V30 3081 H 282.838 -0.816527 1.22357 0
M  V30 3082 H 284.796 -3.92286 1.42012 0
M  V30 3083 H 283.426 -3.18018 0.553544 0
M  V30 3084 H 282.478 -2.49242 2.87372 0
M  V30 3085 H 283.79 -3.43078 3.62076 0
M  V30 3086 H 282.944 -5.51638 2.52548 0
M  V30 3087 H 281.683 -4.58076 1.67384 0
M  V30 3088 H 280.688 -3.89957 3.87574 0
M  V30 3089 H 281.913 -4.86902 4.73395 0
M  V30 3090 H 279.859 -5.94814 2.76644 0
M  V30 3091 H 279.776 -6.08035 4.49254 0
M  V30 3092 H 281.044 -6.89846 3.6295 0
M  V30 3093 N 285.273 -1.31445 -0.869486 0
M  V30 3094 C 286.522 -1.20517 -1.61736 0
M  V30 3095 C 286.835 0.235341 -1.94179 0
M  V30 3096 O 288.041 0.466312 -2.67465 0
M  V30 3097 C 286.497 -2.10982 -2.91573 0
M  V30 3098 C 286.105 -3.60032 -2.66611 0
M  V30 3099 C 287.849 -2.08856 -3.69567 0
M  V30 3100 C 285.756 -4.42503 -3.92358 0
M  V30 3101 H 284.686 -0.447493 -0.606849 0
M  V30 3102 H 287.337 -1.56303 -0.96133 0
M  V30 3103 H 285.719 -1.68095 -3.58553 0
M  V30 3104 H 286.893 -4.11167 -2.08035 0
M  V30 3105 H 285.208 -3.64139 -2.0197 0
M  V30 3106 H 287.805 -2.67716 -4.62852 0
M  V30 3107 H 288.148 -1.07582 -4.02159 0
M  V30 3108 H 288.681 -2.49945 -3.09471 0
M  V30 3109 H 285.42 -5.44533 -3.64916 0
M  V30 3110 H 284.94 -3.96125 -4.50383 0
M  V30 3111 H 286.619 -4.54741 -4.60238 0
M  V30 3112 N 286.751 1.08385 -1.14413 0
M  V30 3113 C 287.997 1.81044 -0.913834 0
M  V30 3114 C 288.33 1.86004 0.558209 0
M  V30 3115 O 287.605 1.33606 1.4135 0
M  V30 3116 C 287.888 3.26648 -1.51569 0
M  V30 3117 C 287.741 3.29895 -3.0576 0
M  V30 3118 C 289.06 4.23629 -1.19273 0
M  V30 3119 H 286.179 0.65727 -0.333414 0
M  V30 3120 H 288.821 1.26896 -1.41412 0
M  V30 3121 H 286.971 3.72889 -1.09023 0
M  V30 3122 H 288.643 2.91977 -3.57137 0
M  V30 3123 H 286.886 2.69163 -3.40197 0
M  V30 3124 H 287.557 4.32516 -3.42977 0
M  V30 3125 H 290.033 3.85727 -1.56057 0
M  V30 3126 H 288.909 5.23822 -1.64017 0
M  V30 3127 H 289.17 4.41968 -0.108068 0
M  V30 3128 N 288.23 0.939286 1.26551 0
M  V30 3129 C 289.641 0.628782 1.75793 0
M  V30 3130 C 289.992 -0.856046 1.7654 0
M  V30 3131 O 289.117 -1.66994 1.3763 0
M  V30 3132 C 289.712 1.13465 3.19235 0
M  V30 3133 C 288.271 0.874601 3.66098 0
M  V30 3134 C 287.418 1.28667 2.45642 0
M  V30 3135 H 290.369 1.1178 1.12654 0
M  V30 3136 H 290.39 0.487609 3.77363 0
M  V30 3137 H 289.902 2.21535 3.1866 0
M  V30 3138 H 288.003 -0.191793 3.72106 0
M  V30 3139 H 288.116 1.50028 4.55004 0
M  V30 3140 H 286.48 0.705109 2.44745 0
M  V30 3141 H 287.263 2.37625 2.47769 0
M  V30 3142 N 289.708 -1.40897 0.706093 0
M  V30 3143 C 290.655 -2.30751 0.0474474 0
M  V30 3144 C 291.625 -1.47678 -0.76029 0
M  V30 3145 O 292.81 -1.76441 -0.726177 0
M  V30 3146 C 289.95 -3.33815 -0.875309 0
M  V30 3147 C 289.063 -4.31961 -0.0580623 0
M  V30 3148 C 288.198 -5.22093 -0.979425 0
M  V30 3149 C 287.237 -6.11902 -0.155706 0
M  V30 3150 N 286.374 -6.94482 -1.03144 0
M  V30 3151 H 291.214 -2.86513 0.819413 0
M  V30 3152 H 288.751 -1.41102 0.415783 0
M  V30 3153 H 290.709 -3.92129 -1.42446 0
M  V30 3154 H 289.339 -2.79579 -1.61356 0
M  V30 3155 H 288.391 -3.75507 0.608147 0
M  V30 3156 H 289.703 -4.95415 0.580082 0
M  V30 3157 H 288.857 -5.85292 -1.59744 0
M  V30 3158 H 287.596 -4.5889 -1.65141 0
M  V30 3159 H 286.601 -5.47742 0.475309 0
M  V30 3160 H 287.826 -6.77162 0.512635 0
M  V30 3161 H 285.772 -6.33877 -1.68924 0
M  V30 3162 H 285.689 -7.54665 -0.449108 0
M  V30 3163 H 286.957 -7.6214 -1.63593 0
M  V30 3164 N 291.186 -0.45159 -1.50991 0
M  V30 3165 C 292.096 0.358431 -2.31846 0
M  V30 3166 C 293.112 1.01438 -1.41373 0
M  V30 3167 O 294.288 1.00663 -1.74439 0
M  V30 3168 C 291.353 1.43704 -3.15515 0
M  V30 3169 C 290.414 0.799742 -4.21785 0
M  V30 3170 C 289.647 1.82696 -5.01456 0
M  V30 3171 O 289.87 3.05105 -4.81941 0
M  V30 3172 O 288.804 1.40958 -5.85162 0
M  V30 3173 H 292.63 -0.302032 -3.02194 0
M  V30 3174 H 290.215 -0.213825 -1.47862 0
M  V30 3175 H 292.097 2.06227 -3.67489 0
M  V30 3176 H 290.772 2.08133 -2.47916 0
M  V30 3177 H 289.679 0.136084 -3.73852 0
M  V30 3178 H 291.012 0.198718 -4.91799 0
M  V30 3179 N 292.664 1.56529 -0.183458 0
M  V30 3180 C 293.889 2.02064 0.467428 0
M  V30 3181 C 294.314 1.06282 1.55196 0
M  V30 3182 O 293.672 0.0443565 1.81246 0
M  V30 3183 C 293.72 3.46122 1.01153 0
M  V30 3184 O 292.824 3.53437 2.12499 0
M  V30 3185 H 292.165 0.654726 0.110588 0
M  V30 3186 H 294.695 2.02521 -0.290917 0
M  V30 3187 H 294.705 3.85676 1.33108 0
M  V30 3188 H 293.38 4.15331 0.217533 0
M  V30 3189 H 291.957 3.2575 1.81497 0
M  V30 3190 N 294.142 -0.090211 1.57342 0
M  V30 3191 C 295.052 -1.12735 2.05738 0
M  V30 3192 C 296.068 -1.43557 0.983231 0
M  V30 3193 O 297.244 -1.54101 1.29672 0
M  V30 3194 C 294.309 -2.42659 2.47624 0
M  V30 3195 C 293.37 -2.18975 3.69254 0
M  V30 3196 C 292.603 -3.42704 4.09133 0
M  V30 3197 O 292.826 -4.51127 3.49057 0
M  V30 3198 O 291.76 -3.32003 5.02053 0
M  V30 3199 H 295.586 -0.746279 2.94388 0
M  V30 3200 H 293.171 -0.303064 1.46294 0
M  V30 3201 H 295.053 -3.19155 2.7517 0
M  V30 3202 H 293.728 -2.80182 1.62109 0
M  V30 3203 H 292.635 -1.40244 3.46818 0
M  V30 3204 H 293.968 -1.86342 4.55563 0
M  V30 3205 N 295.62 -1.53406 -0.361157 0
M  V30 3206 C 296.567 -1.80156 -1.44265 0
M  V30 3207 C 297.537 -0.646183 -1.53015 0
M  V30 3208 O 298.722 -0.888818 -1.68833 0
M  V30 3209 C 295.862 -2.00116 -2.81154 0
M  V30 3210 C 294.975 -3.27833 -2.81335 0
M  V30 3211 C 294.11 -3.37957 -4.09828 0
M  V30 3212 C 293.149 -4.59689 -4.04168 0
M  V30 3213 N 292.286 -4.66942 -5.24318 0
M  V30 3214 H 297.126 -2.72438 -1.20754 0
M  V30 3215 H 294.663 -1.34954 -0.585296 0
M  V30 3216 H 296.621 -2.09677 -3.60682 0
M  V30 3217 H 295.251 -1.11167 -3.03054 0
M  V30 3218 H 294.303 -3.27204 -1.94014 0
M  V30 3219 H 295.615 -4.17442 -2.73027 0
M  V30 3220 H 294.769 -3.46853 -4.97773 0
M  V30 3221 H 293.508 -2.46372 -4.20894 0
M  V30 3222 H 292.513 -4.50889 -3.14609 0
M  V30 3223 H 293.738 -5.5262 -3.947 0
M  V30 3224 H 291.684 -3.7826 -5.35962 0
M  V30 3225 H 291.601 -5.50462 -5.18197 0
M  V30 3226 H 292.869 -4.80127 -6.14084 0
M  V30 3227 N 297.098 0.621204 -1.44841 0
M  V30 3228 C 298.375 1.38 -1.38619 0
M  V30 3229 C 298.755 2.11041 -0.0498935 0
M  V30 3230 O 298.103 2.06992 0.967816 0
M  V30 3231 C 298.313 2.33817 -2.59096 0
M  V30 3232 C 299.661 2.96844 -3.03593 0
M  V30 3233 O 300.685 2.44141 -2.59371 0
M  V30 3234 O 299.544 3.92476 -3.80296 0
M  V30 3235 H 296.638 0.61811 -0.549426 0
M  V30 3236 H 299.184 0.645429 -1.56947 0
M  V30 3237 H 297.956 1.79012 -3.47952 0
M  V30 3238 H 297.579 3.14676 -2.43032 0
M  V30 3239 N 298.576 1.31904 0.862503 0
M  V30 3240 C 299.801 1.25135 1.65397 0
M  V30 3241 C 300.226 -0.179 1.87246 0
M  V30 3242 O 299.584 -1.1277 1.4196 0
M  V30 3243 C 299.632 2.00832 2.99498 0
M  V30 3244 O 298.736 1.35075 3.89652 0
M  V30 3245 H 298.077 0.431655 0.504549 0
M  V30 3246 H 300.607 1.74094 1.07483 0
M  V30 3247 H 300.617 2.10709 3.49379 0
M  V30 3248 H 299.292 3.04847 2.82916 0
M  V30 3249 H 297.869 1.33696 3.48109 0
M  V30 3250 N 300.054 -1.07777 1.14986 0
M  V30 3251 C 301.001 -2.14867 0.842672 0
M  V30 3252 C 301.971 -1.6486 -0.202552 0
M  V30 3253 O 303.156 -1.90668 -0.0710568 0
M  V30 3254 C 300.296 -3.43486 0.333363 0
M  V30 3255 C 299.409 -4.07306 1.43965 0
M  V30 3256 C 298.544 -5.23744 0.886914 0
M  V30 3257 C 297.583 -5.79517 1.97043 0
M  V30 3258 N 296.72 -6.87291 1.4344 0
M  V30 3259 H 301.56 -2.40485 1.75986 0
M  V30 3260 H 299.097 -1.1801 0.878179 0
M  V30 3261 H 301.055 -4.17195 0.0198163 0
M  V30 3262 H 299.685 -3.18133 -0.546916 0
M  V30 3263 H 298.737 -3.31293 1.86946 0
M  V30 3264 H 300.049 -4.44771 2.25788 0
M  V30 3265 H 299.203 -6.04419 0.525651 0
M  V30 3266 H 297.942 -4.87685 0.0377957 0
M  V30 3267 H 296.947 -4.97491 2.34057 0
M  V30 3268 H 298.172 -6.17632 2.82325 0
M  V30 3269 H 296.118 -6.5318 0.607567 0
M  V30 3270 H 296.035 -7.23617 2.18895 0
M  V30 3271 H 297.303 -7.71682 1.10124 0
M  V30 3272 N 301.532 -0.945985 -1.26051 0
M  V30 3273 C 302.76 -0.613025 -1.9761 0
M  V30 3274 C 303.175 0.813035 -1.70397 0
M  V30 3275 O 302.532 1.54274 -0.974979 0
M  V30 3276 C 302.583 -0.85159 -3.51326 0
M  V30 3277 O 302.304 -2.22157 -3.77595 0
M  V30 3278 C 303.805 -0.529831 -4.40122 0
M  V30 3279 H 301.025 -0.230593 -0.630133 0
M  V30 3280 H 303.569 -1.268 -1.60443 0
M  V30 3281 H 301.724 -0.243151 -3.86636 0
M  V30 3282 H 302.138 -2.2852 -4.721 0
M  V30 3283 H 303.612 -0.747348 -5.46917 0
M  V30 3284 H 304.089 0.535341 -4.35925 0
M  V30 3285 H 304.695 -1.11721 -4.10364 0
M  V30 3286 N 303.011 1.40521 -0.713556 0
M  V30 3287 C 303.958 2.30723 -0.059684 0
M  V30 3288 C 304.928 1.48079 0.752448 0
M  V30 3289 O 306.113 1.76823 0.71681 0
M  V30 3290 C 303.253 3.34274 0.857594 0
M  V30 3291 C 302.366 4.31986 0.0351536 0
M  V30 3292 C 301.501 5.22605 0.951724 0
M  V30 3293 C 300.54 6.11976 0.123253 0
M  V30 3294 N 299.677 6.9502 0.99459 0
M  V30 3295 H 304.517 2.86074 -0.834596 0
M  V30 3296 H 302.054 1.40879 -0.42326 0
M  V30 3297 H 304.012 3.92879 1.40364 0
M  V30 3298 H 302.642 2.8043 1.59871 0
M  V30 3299 H 301.694 3.7518 -0.628052 0
M  V30 3300 H 303.006 4.95101 -0.606347 0
M  V30 3301 H 302.16 5.86131 1.56638 0
M  V30 3302 H 300.899 4.59759 1.62705 0
M  V30 3303 H 299.904 5.47482 -0.50435 0
M  V30 3304 H 301.129 6.76881 -0.548539 0
M  V30 3305 H 299.075 6.34764 1.6556 0
M  V30 3306 H 298.992 7.54892 0.40908 0
M  V30 3307 H 300.26 7.62997 1.59549 0
M  V30 3308 N 304.489 0.459591 1.5075 0
M  V30 3309 C 305.9 0.00171547 1.867 0
M  V30 3310 C 306.251 -1.39934 1.37525 0
M  V30 3311 O 305.376 -2.03523 0.735349 0
M  V30 3312 C 305.971 -0.00366298 3.388 0
M  V30 3313 C 304.53 -0.406026 3.74204 0
M  V30 3314 C 303.677 0.38673 2.7459 0
M  V30 3315 H 306.628 0.674413 1.43657 0
M  V30 3316 H 306.649 -0.808371 3.71814 0
M  V30 3317 H 306.161 1.01617 3.74561 0
M  V30 3318 H 304.262 -1.43063 3.4404 0
M  V30 3319 H 304.375 -0.115362 4.78961 0
M  V30 3320 H 302.739 -0.158019 2.54209 0
M  V30 3321 H 303.522 1.40585 3.13194 0
M  V30 3322 N 305.967 -1.56429 0.191757 0
M  V30 3323 C 307.378 -1.83912 -0.321428 0
M  V30 3324 C 307.729 -1.11231 -1.61623 0
M  V30 3325 O 306.854 -0.37202 -2.13178 0
M  V30 3326 C 307.449 -3.33624 -0.589961 0
M  V30 3327 C 306.008 -3.6153 -1.04753 0
M  V30 3328 C 305.155 -2.7714 -0.0943327 0
M  V30 3329 H 308.106 -1.53161 0.415612 0
M  V30 3330 H 308.127 -3.52213 -1.43966 0
M  V30 3331 H 307.639 -3.86495 0.352588 0
M  V30 3332 H 305.74 -3.14089 -2.00447 0
M  V30 3333 H 305.853 -4.69737 -0.942549 0
M  V30 3334 H 304.217 -2.47638 -0.595589 0
M  V30 3335 H 305 -3.32799 0.842601 0
M  V30 3336 N 307.445 0.0818655 -1.57387 0
M  V30 3337 C 308.722 0.815343 -1.77796 0
M  V30 3338 C 309.102 1.96289 -0.77679 0
M  V30 3339 O 308.45 2.27691 0.192106 0
M  V30 3340 C 308.66 1.29765 -3.23978 0
M  V30 3341 C 310.008 1.7351 -3.8753 0
M  V30 3342 O 311.032 1.39356 -3.27808 0
M  V30 3343 O 309.891 2.36708 -4.92576 0
M  V30 3344 H 306.985 0.389914 -0.729312 0
M  V30 3345 H 309.531 0.0627213 -1.69584 0
M  V30 3346 H 308.303 0.47608 -3.88393 0
M  V30 3347 H 307.926 2.11189 -3.36875 0
M  V30 3348 N 308.923 1.53595 0.353017 0
M  V30 3349 C 309.886 1.80232 1.41594 0
M  V30 3350 C 310.886 0.673081 1.46035 0
M  V30 3351 O 312.076 0.941335 1.46576 0
M  V30 3352 C 309.208 1.93578 2.80607 0
M  V30 3353 H 310.401 2.75174 1.19244 0
M  V30 3354 H 307.954 1.44864 0.586872 0
M  V30 3355 H 308.689 1.00746 3.08254 0
M  V30 3356 H 308.474 2.75724 2.78781 0
M  V30 3357 H 309.964 2.15735 3.57558 0
M  V30 3358 N 310.401 -0.613514 1.45168 0
M  V30 3359 C 311.629 -1.39946 1.5239 0
M  V30 3360 C 312.044 -1.88167 0.154531 0
M  V30 3361 O 311.401 -1.61872 -0.842843 0
M  V30 3362 C 311.452 -2.60795 2.50337 0
M  V30 3363 O 311.173 -2.1458 3.81952 0
M  V30 3364 C 312.674 -3.53723 2.67198 0
M  V30 3365 H 309.894 -0.428593 0.516284 0
M  V30 3366 H 312.438 -0.748753 1.903 0
M  V30 3367 H 310.593 -3.21919 2.15515 0
M  V30 3368 H 311.007 -2.93055 4.34993 0
M  V30 3369 H 312.481 -4.35079 3.39721 0
M  V30 3370 H 312.958 -4.0368 1.73029 0
M  V30 3371 H 313.564 -2.98456 3.02992 0
M  V30 3372 N 311.879 -1.3236 -0.855495 0
M  V30 3373 C 313.128 -1.22226 -1.60448 0
M  V30 3374 C 313.441 0.214733 -1.94418 0
M  V30 3375 O 314.647 0.437917 -2.67945 0
M  V30 3376 C 313.103 -2.14063 -2.89318 0
M  V30 3377 C 312.711 -3.62839 -2.62777 0
M  V30 3378 C 314.455 -2.12764 -3.67331 0
M  V30 3379 C 312.362 -4.4664 -3.87643 0
M  V30 3380 H 311.292 -0.453904 -0.602069 0
M  V30 3381 H 313.943 -1.57314 -0.944698 0
M  V30 3382 H 312.325 -1.71889 -3.5675 0
M  V30 3383 H 313.499 -4.1335 -2.03662 0
M  V30 3384 H 311.814 -3.66261 -1.98096 0
M  V30 3385 H 314.411 -2.72611 -4.59987 0
M  V30 3386 H 314.754 -1.11841 -4.00995 0
M  V30 3387 H 315.287 -2.53214 -3.06802 0
M  V30 3388 H 312.026 -5.48373 -3.5912 0
M  V30 3389 H 311.546 -4.0088 -4.46156 0
M  V30 3390 H 313.225 -4.59597 -4.55389 0
M  V30 3391 N 313.357 1.07166 -1.15556 0
M  V30 3392 C 314.603 1.80065 -0.932984 0
M  V30 3393 C 314.936 1.86586 0.53845 0
M  V30 3394 O 314.211 1.35098 1.39924 0
M  V30 3395 C 314.494 3.25022 -1.55025 0
M  V30 3396 C 314.347 3.26634 -3.09242 0
M  V30 3397 C 315.666 4.22341 -1.2376 0
M  V30 3398 H 312.785 0.653697 -0.340366 0
M  V30 3399 H 315.427 1.25389 -1.4275 0
M  V30 3400 H 313.577 3.71712 -1.12972 0
M  V30 3401 H 315.249 2.88173 -3.60214 0
M  V30 3402 H 313.492 2.65539 -3.43033 0
M  V30 3403 H 314.163 4.28854 -3.47546 0
M  V30 3404 H 316.639 3.8405 -1.60139 0
M  V30 3405 H 315.515 5.22053 -1.69564 0
M  V30 3406 H 315.776 4.41828 -0.154938 0
M  V30 3407 N 314.835 0.952656 1.25548 0
M  V30 3408 C 316.081 0.607272 1.93494 0
M  V30 3409 C 316.414 -0.853245 1.74452 0
M  V30 3410 O 315.689 -1.61194 1.08843 0
M  V30 3411 C 315.972 0.96435 3.46947 0
M  V30 3412 C 315.825 2.48045 3.75225 0
M  V30 3413 C 317.144 0.487987 4.37386 0
M  V30 3414 H 314.263 0.222096 0.702739 0
M  V30 3415 H 316.905 1.18895 1.48203 0
M  V30 3416 H 315.055 0.469361 3.85654 0
M  V30 3417 H 316.727 3.04905 3.46166 0
M  V30 3418 H 314.97 2.919 3.209 0
M  V30 3419 H 315.641 2.6808 4.82532 0
M  V30 3420 H 318.117 0.912558 4.0597 0
M  V30 3421 H 316.993 0.766547 5.43521 0
M  V30 3422 H 317.254 -0.612063 4.37843 0
M  V30 3423 N 316.313 -1.40141 0.720998 0
M  V30 3424 C 317.223 -2.34486 0.0731031 0
M  V30 3425 C 318.239 -1.57587 -0.737723 0
M  V30 3426 O 319.415 -1.89949 -0.669429 0
M  V30 3427 C 316.48 -3.36528 -0.833656 0
M  V30 3428 C 315.541 -4.29298 -0.0121673 0
M  V30 3429 C 314.774 -5.26466 -0.875742 0
M  V30 3430 O 314.997 -5.29745 -2.11485 0
M  V30 3431 O 313.931 -6.01092 -0.31185 0
M  V30 3432 H 317.757 -2.9152 0.851444 0
M  V30 3433 H 315.342 -1.41427 0.481527 0
M  V30 3434 H 317.224 -3.99093 -1.35289 0
M  V30 3435 H 315.899 -2.81899 -1.59105 0
M  V30 3436 H 314.806 -3.70001 0.552262 0
M  V30 3437 H 316.139 -4.87094 0.707129 0
M  V30 3438 N 317.792 -0.46758 -1.50504 0
M  V30 3439 C 319.04 0.0884469 -2.01906 0
M  V30 3440 C 319.361 1.40532 -1.35188 0
M  V30 3441 O 318.631 1.89515 -0.496079 0
M  V30 3442 H 317.211 0.0356765 -0.746148 0
M  V30 3443 H 319.873 -0.6172 -1.84869 0
M  V30 3444 H 318.969 0.2425 -3.11156 0
M  V30 3445 N 319.27 1.56325 -0.20005 0
M  V30 3446 C 320.516 1.98012 0.438059 0
M  V30 3447 C 320.849 1.08702 1.60927 0
M  V30 3448 O 320.124 0.140064 1.93995 0
M  V30 3449 C 320.407 3.48841 0.893419 0
M  V30 3450 C 320.26 4.48928 -0.279947 0
M  V30 3451 C 321.579 4.03498 1.75719 0
M  V30 3452 H 318.698 0.719918 0.157757 0
M  V30 3453 H 321.34 1.87743 -0.291968 0
M  V30 3454 H 319.49 3.57723 1.51547 0
M  V30 3455 H 321.162 4.52079 -0.91772 0
M  V30 3456 H 319.405 4.23694 -0.930919 0
M  V30 3457 H 320.076 5.5194 0.0812601 0
M  V30 3458 H 322.552 3.97427 1.23253 0
M  V30 3459 H 321.428 5.09393 2.04476 0
M  V30 3460 H 321.689 3.4906 2.71311 0
M  V30 3461 N 320.748 -0.0735177 1.57428 0
M  V30 3462 C 321.695 -1.08756 2.0357 0
M  V30 3463 C 322.665 -1.38559 0.916 0
M  V30 3464 O 323.85 -1.49656 1.18354 0
M  V30 3465 C 320.99 -2.39657 2.48311 0
M  V30 3466 C 320.103 -2.16399 3.73892 0
M  V30 3467 C 319.238 -3.40852 4.07423 0
M  V30 3468 C 318.277 -3.1295 5.2605 0
M  V30 3469 N 317.414 -4.29729 5.55228 0
M  V30 3470 H 322.254 -0.687104 2.8997 0
M  V30 3471 H 319.791 -0.327709 1.43403 0
M  V30 3472 H 321.749 -3.16081 2.72303 0
M  V30 3473 H 320.379 -2.77508 1.64891 0
M  V30 3474 H 319.431 -1.30676 3.57251 0
M  V30 3475 H 320.743 -1.91788 4.60455 0
M  V30 3476 H 319.897 -4.25671 4.32306 0
M  V30 3477 H 318.636 -3.68537 3.19425 0
M  V30 3478 H 317.641 -2.26526 5.00965 0
M  V30 3479 H 318.866 -2.86589 6.15665 0
M  V30 3480 H 316.812 -4.57448 4.70188 0
M  V30 3481 H 316.729 -4.08385 6.36206 0
M  V30 3482 H 317.997 -5.1555 5.84661 0
M  V30 3483 N 322.226 -1.5378 -0.344866 0
M  V30 3484 C 323.456 -1.74646 -1.10374 0
M  V30 3485 C 323.864 -0.48491 -1.8288 0
M  V30 3486 O 323.207 0.553062 -1.75177 0
M  V30 3487 C 323.269 -2.87145 -2.16306 0
M  V30 3488 C 322.933 -4.26795 -1.63386 0
M  V30 3489 C 323.93 -5.08412 -1.08688 0
M  V30 3490 C 321.615 -4.73276 -1.68272 0
M  V30 3491 C 323.609 -6.34609 -0.595792 0
M  V30 3492 C 321.296 -5.99446 -1.18776 0
M  V30 3493 C 322.294 -6.79946 -0.645215 0
M  V30 3494 O 321.982 -8.03745 -0.157626 0
M  V30 3495 H 321.714 -0.587112 -0.335075 0
M  V30 3496 H 324.268 -2.01403 -0.403252 0
M  V30 3497 H 322.498 -2.55909 -2.89909 0
M  V30 3498 H 324.187 -2.95992 -2.77747 0
M  V30 3499 H 324.953 -4.73666 -1.04236 0
M  V30 3500 H 320.832 -4.10677 -2.09442 0
M  V30 3501 H 324.376 -6.97389 -0.171654 0
M  V30 3502 H 320.273 -6.33687 -1.22928 0
M  V30 3503 H 321.041 -8.18038 -0.275037 0
M  V30 3504 N 323.704 0.605807 -1.45491 0
M  V30 3505 C 324.636 1.73031 -1.5031 0
M  V30 3506 C 325.649 1.57968 -0.393687 0
M  V30 3507 O 326.838 1.65817 -0.660839 0
M  V30 3508 C 323.938 3.11049 -1.34543 0
M  V30 3509 C 323.111 3.52334 -2.59189 0
M  V30 3510 C 322.17 4.69323 -2.37954 0
M  V30 3511 O 321.196 4.7635 -3.11575 0
M  V30 3512 N 322.398 5.62705 -1.4263 0
M  V30 3513 H 325.163 1.6936 -2.4726 0
M  V30 3514 H 322.724 0.79114 -1.41254 0
M  V30 3515 H 324.716 3.87071 -1.18144 0
M  V30 3516 H 323.286 3.09217 -0.458623 0
M  V30 3517 H 322.506 2.66256 -2.90691 0
M  V30 3518 H 323.794 3.76677 -3.42041 0
M  V30 3519 H 323.192 5.59744 -0.818758 0
M  V30 3520 H 321.749 6.38252 -1.32202 0
M  V30 3521 N 325.182 1.32811 0.848464 0
M  V30 3522 C 326.428 1.23907 1.60546 0
M  V30 3523 C 326.761 -0.197161 1.93197 0
M  V30 3524 O 326.036 -1.13596 1.5788 0
M  V30 3525 C 326.319 2.10489 2.92175 0
M  V30 3526 C 326.172 3.62522 2.66266 0
M  V30 3527 C 327.491 1.97075 3.93509 0
M  V30 3528 H 324.61 0.451459 0.58254 0
M  V30 3529 H 327.252 1.62818 0.979296 0
M  V30 3530 H 325.402 1.77434 3.45614 0
M  V30 3531 H 327.074 4.05821 2.19334 0
M  V30 3532 H 325.317 3.84879 2.00126 0
M  V30 3533 H 325.988 4.18437 3.6002 0
M  V30 3534 H 328.464 2.26045 3.49346 0
M  V30 3535 H 327.34 2.59923 4.83457 0
M  V30 3536 H 327.601 0.940186 4.31987 0
M  V30 3537 N 326.66 -1.06551 1.16123 0
M  V30 3538 C 328.076 -1.3142 0.905585 0
M  V30 3539 C 328.276 -1.96571 -0.442964 0
M  V30 3540 O 327.332 -2.23068 -1.18308 0
M  V30 3541 C 328.645 -2.19741 2.05267 0
M  V30 3542 C 330.193 -2.33165 2.08813 0
M  V30 3543 C 330.668 -3.24838 3.22868 0
M  V30 3544 N 332.159 -3.32421 3.22568 0
M  V30 3545 C 332.894 -4.0344 4.0746 0
M  V30 3546 N 332.39 -4.77003 5.02434 0
M  V30 3547 N 334.183 -3.99464 3.95456 0
M  V30 3548 H 326.334 -0.626548 2.02949 0
M  V30 3549 H 328.597 -0.338777 0.8854 0
M  V30 3550 H 328.303 -1.79142 3.02657 0
M  V30 3551 H 328.177 -3.20313 1.99198 0
M  V30 3552 H 330.564 -2.73013 1.12018 0
M  V30 3553 H 330.645 -1.3227 2.18948 0
M  V30 3554 H 330.289 -2.85708 4.19921 0
M  V30 3555 H 330.219 -4.25707 3.0997 0
M  V30 3556 H 332.71 -2.79994 2.53795 0
M  V30 3557 H 333.023 -5.28712 5.63634 0
M  V30 3558 H 331.368 -4.75992 5.06415 0
M  V30 3559 H 334.559 -3.4111 3.20564 0
M  V30 3560 H 334.732 -4.54544 4.61837 0
M  V30 3561 N 328.138 -0.959301 -1.25041 0
M  V30 3562 C 329.085 -0.482057 -2.2571 0
M  V30 3563 C 330.055 0.467939 -1.59372 0
M  V30 3564 O 331.24 0.380159 -1.86974 0
M  V30 3565 C 328.38 0.229623 -3.44335 0
M  V30 3566 C 327.493 -0.758156 -4.25295 0
M  V30 3567 C 326.628 -0.0234403 -5.31195 0
M  V30 3568 C 325.667 -1.00184 -6.03846 0
M  V30 3569 N 324.804 -0.29769 -7.01469 0
M  V30 3570 H 329.644 -1.34538 -2.65901 0
M  V30 3571 H 327.181 -0.674592 -1.3072 0
M  V30 3572 H 329.139 0.658856 -4.11965 0
M  V30 3573 H 327.769 1.05696 -3.05005 0
M  V30 3574 H 326.821 -1.30586 -3.57284 0
M  V30 3575 H 328.133 -1.50458 -4.75567 0
M  V30 3576 H 327.287 0.464201 -6.04922 0
M  V30 3577 H 326.026 0.755741 -4.81809 0
M  V30 3578 H 325.031 -1.50044 -5.2893 0
M  V30 3579 H 326.256 -1.78133 -6.55321 0
M  V30 3580 H 324.202 0.462668 -6.54366 0
M  V30 3581 H 324.119 -0.983128 -7.4958 0
M  V30 3582 H 325.387 0.16826 -7.79318 0
M  V30 3583 N 329.616 1.39756 -0.72842 0
M  V30 3584 C 330.563 2.30647 -0.0841519 0
M  V30 3585 C 331.533 1.48869 0.7367 0
M  V30 3586 O 332.718 1.77574 0.698015 0
M  V30 3587 C 329.858 3.35165 0.822091 0
M  V30 3588 C 328.971 4.31999 -0.0106663 0
M  V30 3589 C 328.106 5.23585 0.896241 0
M  V30 3590 C 327.145 6.12072 0.0583381 0
M  V30 3591 N 326.282 6.96035 0.920818 0
M  V30 3592 H 331.122 2.85173 -0.864891 0
M  V30 3593 H 328.659 1.40422 -0.438179 0
M  V30 3594 H 330.617 3.94345 1.36189 0
M  V30 3595 H 329.247 2.8211 1.56888 0
M  V30 3596 H 328.299 3.74492 -0.66781 0
M  V30 3597 H 329.611 4.9443 -0.658825 0
M  V30 3598 H 328.765 5.87759 1.50412 0
M  V30 3599 H 327.504 4.61459 1.57819 0
M  V30 3600 H 326.509 5.46916 -0.562389 0
M  V30 3601 H 327.734 6.76261 -0.6203 0
M  V30 3602 H 325.68 6.36485 1.58818 0
M  V30 3603 H 325.597 7.55284 0.32899 0
M  V30 3604 H 326.865 7.64646 1.51447 0
M  V30 3605 N 331.094 0.475555 1.50254 0
M  V30 3606 C 332.342 -0.077738 2.0195 0
M  V30 3607 C 332.663 -1.39813 1.35931 0
M  V30 3608 O 331.933 -1.89249 0.506123 0
M  V30 3609 H 330.513 -0.031719 0.746326 0
M  V30 3610 H 333.175 0.626995 1.84539 0
M  V30 3611 H 332.271 -0.225995 3.11281 0
M  V30 3612 N 332.573 -1.56217 0.208337 0
M  V30 3613 C 333.52 -2.19699 -0.707192 0
M  V30 3614 C 334.49 -1.14836 -1.20008 0
M  V30 3615 O 335.675 -1.4314 -1.26157 0
M  V30 3616 C 332.815 -2.87061 -1.91546 0
M  V30 3617 C 331.928 -4.06483 -1.46271 0
M  V30 3618 C 331.063 -4.61665 -2.62752 0
M  V30 3619 C 330.102 -5.73417 -2.14147 0
M  V30 3620 N 329.239 -6.22948 -3.23853 0
M  V30 3621 H 334.079 -2.97575 -0.159111 0
M  V30 3622 H 331.616 -1.46948 -0.0667874 0
M  V30 3623 H 333.574 -3.24294 -2.62468 0
M  V30 3624 H 332.204 -2.11725 -2.43664 0
M  V30 3625 H 331.256 -3.74825 -0.648886 0
M  V30 3626 H 332.568 -4.87271 -1.06622 0
M  V30 3627 H 331.722 -5.01272 -3.41776 0
M  V30 3628 H 330.461 -3.80013 -3.05682 0
M  V30 3629 H 329.466 -5.33326 -1.33581 0
M  V30 3630 H 330.691 -6.56897 -1.72232 0
M  V30 3631 H 328.637 -5.44213 -3.6629 0
M  V30 3632 H 328.554 -6.98823 -2.88414 0
M  V30 3633 H 329.822 -6.6721 -4.03052 0
M  V30 3634 N 334.051 0.0651679 -1.57465 0
M  V30 3635 C 335.279 0.775808 -1.91804 0
M  V30 3636 C 335.694 1.70782 -0.804916 0
M  V30 3637 O 335.051 1.81153 0.221311 0
M  V30 3638 C 335.102 1.56381 -3.25925 0
M  V30 3639 O 334.823 0.669248 -4.32958 0
M  V30 3640 C 336.324 2.37485 -3.7432 0
M  V30 3641 H 333.544 0.2202 -0.63384 0
M  V30 3642 H 336.088 0.0334587 -2.04473 0
M  V30 3643 H 334.243 2.25837 -3.14764 0
M  V30 3644 H 334.657 1.21801 -5.10162 0
M  V30 3645 H 336.131 2.88223 -4.70778 0
M  V30 3646 H 336.608 3.17307 -3.03666 0
M  V30 3647 H 337.214 1.73173 -3.88447 0
M  V30 3648 N 335.529 1.53961 0.336706 0
M  V30 3649 C 336.476 1.82428 1.41381 0
M  V30 3650 C 337.446 0.670444 1.51968 0
M  V30 3651 O 338.631 0.915565 1.67398 0
M  V30 3652 C 335.771 2.04564 2.77934 0
M  V30 3653 C 334.884 3.32267 2.76084 0
M  V30 3654 C 334.019 3.44434 4.04399 0
M  V30 3655 C 333.058 4.66061 3.96804 0
M  V30 3656 N 332.195 4.75224 5.16823 0
M  V30 3657 H 337.035 2.74324 1.16405 0
M  V30 3658 H 334.572 1.35869 0.563752 0
M  V30 3659 H 336.53 2.15388 3.57301 0
M  V30 3660 H 335.16 1.15974 3.01247 0
M  V30 3661 H 334.212 3.3025 1.88784 0
M  V30 3662 H 335.524 4.21733 2.66351 0
M  V30 3663 H 334.678 3.54728 4.92192 0
M  V30 3664 H 333.417 2.53037 4.16921 0
M  V30 3665 H 332.422 4.55838 3.07396 0
M  V30 3666 H 333.647 5.58829 3.85858 0
M  V30 3667 H 331.593 3.86739 5.29876 0
M  V30 3668 H 331.51 5.58636 5.09374 0
M  V30 3669 H 332.778 4.89835 6.06367 0
M  V30 3670 N 337.007 -0.598083 1.45811 0
M  V30 3671 C 338.232 -1.3881 1.54099 0
M  V30 3672 C 338.657 -1.8726 0.177578 0
M  V30 3673 O 338.015 -1.6069 -0.839541 0
M  V30 3674 C 338.063 -2.56217 2.53743 0
M  V30 3675 O 337.167 -3.5716 2.06182 0
M  V30 3676 H 336.508 -0.414024 0.519115 0
M  V30 3677 H 339.038 -0.726971 1.91249 0
M  V30 3678 H 339.048 -3.03337 2.72856 0
M  V30 3679 H 337.723 -2.20303 3.5276 0
M  V30 3680 H 336.3 -3.16624 1.96987 0
M  V30 3681 N 338.485 -1.33259 -0.841409 0
M  V30 3682 C 339.432 -1.23302 -1.95103 0
M  V30 3683 C 340.402 -0.112204 -1.65721 0
M  V30 3684 O 341.587 -0.290038 -1.88583 0
M  V30 3685 C 338.727 -0.975583 -3.31023 0
M  V30 3686 C 337.84 -2.18243 -3.72819 0
M  V30 3687 C 336.975 -1.85936 -4.97595 0
M  V30 3688 C 336.014 -3.02866 -5.3192 0
M  V30 3689 N 335.151 -2.70565 -6.47873 0
M  V30 3690 H 339.991 -2.18207 -2.02952 0
M  V30 3691 H 337.528 -1.0851 -0.993173 0
M  V30 3692 H 339.486 -0.80677 -4.09325 0
M  V30 3693 H 338.116 -0.0632755 -3.22738 0
M  V30 3694 H 337.168 -2.46107 -2.90061 0
M  V30 3695 H 338.48 -3.05666 -3.94169 0
M  V30 3696 H 337.634 -1.65684 -5.83638 0
M  V30 3697 H 336.373 -0.957452 -4.78209 0
M  V30 3698 H 335.378 -3.23736 -4.44382 0
M  V30 3699 H 336.603 -3.93809 -5.53255 0
M  V30 3700 H 334.549 -1.8293 -6.29978 0
M  V30 3701 H 334.466 -3.51519 -6.69306 0
M  V30 3702 H 335.734 -2.53774 -7.37034 0
M  V30 3703 N 339.963 1.05934 -1.16686 0
M  V30 3704 C 340.911 2.15603 -0.872817 0
M  V30 3705 C 341.905 1.68647 0.159576 0
M  V30 3706 O 343.111 1.79995 0.0132125 0
M  V30 3707 H 339.486 0.703885 -0.264671 0
M  V30 3708 H 341.457 2.37613 -1.80507 0
M  V30 3709 C 340.206 3.45457 -0.394344 0
M  V30 3710 H 339.529 3.81984 -1.18019 0
M  V30 3711 H 340.969 4.2339 -0.227408 0
M  V30 3712 C 339.428 3.25021 0.88673 0
M  V30 3713 O 339.958 3.50906 1.95519 0
M  V30 3714 N 338.164 2.78437 0.831925 0
M  V30 3715 H 337.711 2.57572 -0.0377619 0
M  V30 3716 H 337.669 2.65144 1.68956 0
M  V30 3717 N 341.441 0.965919 1.2453 0
M  V30 3718 C 342.669 0.644385 1.96609 0
M  V30 3719 C 343.084 -0.785823 1.71669 0
M  V30 3720 O 342.441 -1.52703 0.999399 0
M  V30 3721 C 342.492 0.907375 3.49927 0
M  V30 3722 O 342.213 2.28136 3.74013 0
M  V30 3723 C 343.714 0.599784 4.39224 0
M  V30 3724 H 340.934 0.240588 0.626385 0
M  V30 3725 H 343.478 1.29337 1.58405 0
M  V30 3726 H 341.633 0.304631 3.862 0
M  V30 3727 H 342.047 2.36002 4.68405 0
M  V30 3728 H 343.521 0.834263 5.45659 0
M  V30 3729 H 343.998 -0.465921 4.36722 0
M  V30 3730 H 344.604 1.18235 4.08535 0
M  V30 3731 N 342.919 -1.39368 0.735821 0
M  V30 3732 C 343.851 -2.2913 0.0567723 0
M  V30 3733 C 344.864 -1.46859 -0.702589 0
M  V30 3734 O 346.053 -1.69925 -0.546616 0
M  V30 3735 C 343.153 -3.25492 -0.943823 0
M  V30 3736 C 342.326 -4.36709 -0.24581 0
M  V30 3737 C 341.385 -5.13376 -1.15463 0
M  V30 3738 O 340.411 -5.65683 -0.631803 0
M  V30 3739 N 341.613 -5.24656 -2.48427 0
M  V30 3740 H 344.378 -2.88047 0.827582 0
M  V30 3741 H 341.939 -1.50957 0.585112 0
M  V30 3742 H 343.931 -3.73657 -1.55443 0
M  V30 3743 H 342.501 -2.676 -1.61583 0
M  V30 3744 H 341.721 -3.9041 0.545286 0
M  V30 3745 H 343.009 -5.08244 0.237891 0
M  V30 3746 H 342.407 -4.83679 -2.93379 0
M  V30 3747 H 340.964 -5.76258 -3.04582 0
M  V30 3748 N 344.397 -0.483516 -1.5 0
M  V30 3749 C 345.674 0.129337 -1.95172 0
M  V30 3750 C 346.054 1.55802 -1.4244 0
M  V30 3751 O 345.402 2.19625 -0.630649 0
M  V30 3752 C 345.612 0.0599251 -3.48949 0
M  V30 3753 C 346.96 0.242617 -4.23906 0
M  V30 3754 O 347.984 0.135933 -3.55941 0
M  V30 3755 O 346.843 0.459454 -5.44565 0
M  V30 3756 H 343.937 0.104887 -0.820322 0
M  V30 3757 H 346.483 -0.544807 -1.60717 0
M  V30 3758 H 345.255 -0.937079 -3.79914 0
M  V30 3759 H 344.878 0.774984 -3.89974 0
M  V30 3760 N 345.875 1.56104 -0.216619 0
M  V30 3761 C 347.123 1.97781 0.415593 0
M  V30 3762 C 347.444 1.10536 1.60645 0
M  V30 3763 O 346.714 0.181303 1.95059 0
M  V30 3764 H 345.294 0.730415 0.156534 0
M  V30 3765 H 347.956 1.92445 -0.308366 0
M  V30 3766 H 347.052 3.03072 0.74525 0
M  V30 3767 N 347.353 -0.0568162 1.57498 0
M  V30 3768 C 348.283 -1.06593 2.0775 0
M  V30 3769 C 349.264 -1.39448 0.974082 0
M  V30 3770 O 350.449 -1.48815 1.24771 0
M  V30 3771 C 347.579 -2.37509 2.5339 0
M  V30 3772 C 346.533 -2.1897 3.67745 0
M  V30 3773 C 345.859 -3.55402 3.99492 0
M  V30 3774 C 347.159 -1.59859 4.97235 0
M  V30 3775 H 348.853 -0.647706 2.9231 0
M  V30 3776 H 346.399 -0.310116 1.40621 0
M  V30 3777 H 348.352 -3.08409 2.87162 0
M  V30 3778 H 347.076 -2.8134 1.65878 0
M  V30 3779 H 345.735 -1.50508 3.3428 0
M  V30 3780 H 345.383 -3.9683 3.09088 0
M  V30 3781 H 345.083 -3.43831 4.76502 0
M  V30 3782 H 346.607 -4.27708 4.35773 0
M  V30 3783 H 348.021 -2.20642 5.29141 0
M  V30 3784 H 346.418 -1.58942 5.78669 0
M  V30 3785 H 347.488 -0.561506 4.81638 0
M  V30 3786 N 348.832 -1.54138 -0.328536 0
M  V30 3787 C 350.062 -1.75807 -1.08516 0
M  V30 3788 C 350.47 -0.50428 -1.82356 0
M  V30 3789 O 349.813 0.534451 -1.75754 0
M  V30 3790 C 349.875 -2.89423 -2.13248 0
M  V30 3791 C 349.539 -4.28504 -1.5885 0
M  V30 3792 C 350.536 -5.09536 -1.03289 0
M  V30 3793 C 348.221 -4.75034 -1.63243 0
M  V30 3794 C 350.215 -6.35206 -0.52845 0
M  V30 3795 C 347.902 -6.00672 -1.12411 0
M  V30 3796 C 348.9 -6.80592 -0.573062 0
M  V30 3797 O 348.588 -8.03867 -0.0723692 0
M  V30 3798 H 348.32 -0.590633 -0.328829 0
M  V30 3799 H 350.874 -2.01819 -0.381868 0
M  V30 3800 H 349.104 -2.5897 -2.87178 0
M  V30 3801 H 350.793 -2.98921 -2.74592 0
M  V30 3802 H 351.559 -4.74745 -0.99206 0
M  V30 3803 H 347.438 -4.12875 -2.05074 0
M  V30 3804 H 350.982 -6.97532 -0.0976774 0
M  V30 3805 H 346.879 -6.34955 -1.162 0
M  V30 3806 H 347.647 -8.18283 -0.188258 0
M  V30 3807 N 350.31 0.590341 -1.46126 0
M  V30 3808 C 351.26 1.69466 -1.5253 0
M  V30 3809 C 352.244 1.56179 -0.386917 0
M  V30 3810 O 353.436 1.65223 -0.634858 0
M  V30 3811 C 350.565 3.08245 -1.5113 0
M  V30 3812 C 349.651 3.26856 -2.70233 0
M  V30 3813 N 350.042 3.15657 -3.95214 0
M  V30 3814 C 348.34 3.57775 -2.66296 0
M  V30 3815 C 349.041 3.36066 -4.74799 0
M  V30 3816 N 348.017 3.60865 -4.06543 0
M  V30 3817 H 351.819 1.59326 -2.46966 0
M  V30 3818 H 349.333 0.79414 -1.41659 0
M  V30 3819 H 351.33 3.87492 -1.53804 0
M  V30 3820 H 349.99 3.19521 -0.577636 0
M  V30 3821 H 351.001 2.93686 -4.26578 0
M  V30 3822 H 347.678 3.75782 -1.81918 0
M  V30 3823 H 349.068 3.32655 -5.83772 0
M  V30 3824 N 351.788 1.33704 0.83433 0
M  V30 3825 C 352.736 1.24323 1.96587 0
M  V30 3826 C 353.73 0.143659 1.6879 0
M  V30 3827 O 354.936 0.30791 1.77347 0
M  V30 3828 H 351.311 0.385925 0.645419 0
M  V30 3829 H 353.282 2.19978 2.01624 0
M  V30 3830 C 352.031 1.00394 3.32891 0
M  V30 3831 H 351.354 1.84231 3.54822 0
M  V30 3832 H 352.794 0.97862 4.12552 0
M  V30 3833 C 351.253 -0.293047 3.35623 0
M  V30 3834 O 351.783 -1.29823 3.80143 0
M  V30 3835 N 349.989 -0.322174 2.88809 0
M  V30 3836 H 349.536 0.496379 2.52772 0
M  V30 3837 H 349.494 -1.18977 2.91019 0
M  V30 3838 N 353.266 -1.05314 1.17247 0
M  V30 3839 C 354.213 -2.13031 0.888058 0
M  V30 3840 C 355.183 -1.65253 -0.167537 0
M  V30 3841 O 356.368 -1.90775 -0.0305974 0
M  V30 3842 C 353.508 -3.42702 0.406147 0
M  V30 3843 C 352.621 -4.04161 1.52572 0
M  V30 3844 C 351.756 -5.21744 0.997808 0
M  V30 3845 C 350.795 -5.75207 2.09291 0
M  V30 3846 N 349.932 -6.84094 1.57986 0
M  V30 3847 H 354.772 -2.36698 1.81048 0
M  V30 3848 H 352.309 -1.16121 0.903013 0
M  V30 3849 H 354.267 -4.17059 0.108305 0
M  V30 3850 H 352.897 -3.19222 -0.479313 0
M  V30 3851 H 351.949 -3.27253 1.93931 0
M  V30 3852 H 353.261 -4.39881 2.35172 0
M  V30 3853 H 352.415 -6.03168 0.653739 0
M  V30 3854 H 351.154 -4.87495 0.141232 0
M  V30 3855 H 350.159 -4.92414 2.44557 0
M  V30 3856 H 351.384 -6.11505 2.95362 0
M  V30 3857 H 349.33 -6.51745 0.74598 0
M  V30 3858 H 349.247 -7.18811 2.34195 0
M  V30 3859 H 350.515 -7.69172 1.26468 0
M  V30 3860 N 354.744 -0.972509 -1.24016 0
M  V30 3861 C 355.692 -0.498562 -2.27194 0
M  V30 3862 C 356.686 0.440372 -1.63576 0
M  V30 3863 O 357.892 0.315133 -1.7722 0
M  V30 3864 H 354.267 -0.142775 -0.738322 0
M  V30 3865 H 356.238 -1.38065 -2.64539 0
M  V30 3866 C 354.987 0.191072 -3.47175 0
M  V30 3867 H 354.31 -0.522318 -3.96373 0
M  V30 3868 H 355.75 0.486445 -4.212 0
M  V30 3869 C 354.209 1.41967 -3.05527 0
M  V30 3870 O 354.739 2.51642 -3.13112 0
M  V30 3871 N 352.945 1.28746 -2.60524 0
M  V30 3872 H 352.492 0.395089 -2.54552 0
M  V30 3873 H 352.45 2.11061 -2.33025 0
M  V30 3874 N 356.222 1.38976 -0.743202 0
M  V30 3875 C 357.169 2.30544 -0.10861 0
M  V30 3876 C 358.139 1.49642 0.720869 0
M  V30 3877 O 359.324 1.78304 0.679142 0
M  V30 3878 C 356.464 3.36018 0.786496 0
M  V30 3879 C 355.577 4.31963 -0.0564849 0
M  V30 3880 C 354.712 5.24506 0.840657 0
M  V30 3881 C 353.751 6.121 -0.00658363 0
M  V30 3882 N 352.888 6.96973 0.846943 0
M  V30 3883 H 357.728 2.8424 -0.895088 0
M  V30 3884 H 355.265 1.3995 -0.453048 0
M  V30 3885 H 357.223 3.95768 1.31999 0
M  V30 3886 H 355.853 2.83758 1.53887 0
M  V30 3887 H 354.905 3.73763 -0.707492 0
M  V30 3888 H 356.217 4.93703 -0.711229 0
M  V30 3889 H 355.371 5.89322 1.4417 0
M  V30 3890 H 354.11 4.63107 1.52916 0
M  V30 3891 H 353.115 5.46289 -0.620366 0
M  V30 3892 H 354.34 6.75565 -0.691992 0
M  V30 3893 H 352.286 6.38133 1.52059 0
M  V30 3894 H 352.203 7.5559 0.248864 0
M  V30 3895 H 353.471 7.6621 1.43328 0
M  V30 3896 N 357.7 0.491464 1.49741 0
M  V30 3897 C 359.111 0.0413169 1.86654 0
M  V30 3898 C 359.462 -1.36985 1.40462 0
M  V30 3899 O 358.587 -2.01917 0.778354 0
M  V30 3900 C 359.182 0.0682023 3.38731 0
M  V30 3901 C 357.741 -0.32656 3.74981 0
M  V30 3902 C 356.888 0.444888 2.73708 0
M  V30 3903 H 359.839 0.704733 1.42194 0
M  V30 3904 H 359.86 -0.729322 3.73445 0
M  V30 3905 H 359.372 1.09539 3.72321 0
M  V30 3906 H 357.473 -1.35734 3.46997 0
M  V30 3907 H 357.586 -0.013741 4.79098 0
M  V30 3908 H 355.95 -0.104062 2.54487 0
M  V30 3909 H 356.733 1.47197 3.10142 0
M  V30 3910 N 359.178 -1.55987 0.224894 0
M  V30 3911 C 360.11 -2.17722 -0.716224 0
M  V30 3912 C 361.123 -1.14723 -1.15509 0
M  V30 3913 O 362.312 -1.41688 -1.08567 0
M  V30 3914 C 359.412 -2.74873 -1.98238 0
M  V30 3915 C 358.585 -4.03074 -1.69853 0
M  V30 3916 C 357.644 -4.44757 -2.81208 0
M  V30 3917 O 356.67 -5.11587 -2.49534 0
M  V30 3918 N 357.872 -4.10716 -4.10235 0
M  V30 3919 H 360.637 -2.99109 -0.188123 0
M  V30 3920 H 358.198 -1.6184 0.0440123 0
M  V30 3921 H 360.19 -2.99727 -2.7193 0
M  V30 3922 H 358.76 -1.9777 -2.42086 0
M  V30 3923 H 357.98 -3.86041 -0.797875 0
M  V30 3924 H 359.268 -4.86701 -1.48324 0
M  V30 3925 H 358.666 -3.57019 -4.38809 0
M  V30 3926 H 357.223 -4.40455 -4.80461 0
M  V30 3927 N 360.656 0.0484629 -1.57525 0
M  V30 3928 C 361.566 1.07241 -2.08654 0
M  V30 3929 C 362.582 1.409 -1.02095 0
M  V30 3930 O 363.758 1.50609 -1.33712 0
M  V30 3931 C 360.823 2.36008 -2.5397 0
M  V30 3932 C 359.884 2.09108 -3.7493 0
M  V30 3933 C 359.117 3.31736 -4.18075 0
M  V30 3934 O 359.34 4.41714 -3.60895 0
M  V30 3935 O 358.274 3.18576 -5.10679 0
M  V30 3936 H 362.1 0.667965 -2.96263 0
M  V30 3937 H 359.685 0.26417 -1.47046 0
M  V30 3938 H 361.567 3.11747 -2.83535 0
M  V30 3939 H 360.242 2.75786 -1.69481 0
M  V30 3940 H 359.149 1.31 -3.50414 0
M  V30 3941 H 360.482 1.74198 -4.60343 0
M  V30 3942 N 362.134 1.5431 0.320358 0
M  V30 3943 C 363.359 1.76954 1.08175 0
M  V30 3944 C 363.784 0.518193 1.80821 0
M  V30 3945 O 363.142 -0.530411 1.73368 0
M  V30 3946 C 363.19 2.96451 2.05303 0
M  V30 3947 O 362.294 2.68221 3.13259 0
M  V30 3948 H 361.635 0.586275 0.311733 0
M  V30 3949 H 364.165 2.01342 0.363676 0
M  V30 3950 H 364.175 3.23887 2.48116 0
M  V30 3951 H 362.85 3.87196 1.51829 0
M  V30 3952 H 361.427 2.51744 2.75099 0
M  V30 3953 N 363.613 -0.582584 1.46437 0
M  V30 3954 C 365.029 -0.905962 1.31394 0
M  V30 3955 C 365.229 -1.99468 0.285476 0
M  V30 3956 O 364.285 -2.50566 -0.311914 0
M  V30 3957 C 365.598 -1.3232 2.70022 0
M  V30 3958 C 367.146 -1.43604 2.78113 0
M  V30 3959 C 367.621 -1.88694 4.17323 0
M  V30 3960 N 369.112 -1.95887 4.19741 0
M  V30 3961 C 369.847 -2.32051 5.24347 0
M  V30 3962 N 369.343 -2.67006 6.39281 0
M  V30 3963 N 371.136 -2.32606 5.11713 0
M  V30 3964 H 363.287 0.1366 2.1196 0
M  V30 3965 H 365.55 -0.00155736 0.947999 0
M  V30 3966 H 365.256 -0.597242 3.46592 0
M  V30 3967 H 365.13 -2.28469 3.00136 0
M  V30 3968 H 367.517 -2.15286 2.01832 0
M  V30 3969 H 367.598 -0.457059 2.51684 0
M  V30 3970 H 367.242 -1.1759 4.941 0
M  V30 3971 H 367.172 -2.8755 4.4116 0
M  V30 3972 H 369.663 -1.71362 3.36814 0
M  V30 3973 H 369.976 -2.93554 7.14875 0
M  V30 3974 H 368.321 -2.64644 6.42642 0
M  V30 3975 H 371.512 -2.04721 4.2096 0
M  V30 3976 H 371.685 -2.60462 5.93349 0
M  V30 3977 N 365.091 -1.34144 -0.827227 0
M  V30 3978 C 366.038 -1.25364 -1.93785 0
M  V30 3979 C 367.008 -0.129774 -1.65592 0
M  V30 3980 O 368.193 -0.310024 -1.88264 0
M  V30 3981 C 365.333 -1.01064 -3.2997 0
M  V30 3982 C 364.446 -2.22185 -3.70484 0
M  V30 3983 C 363.581 -1.91203 -4.95595 0
M  V30 3984 C 362.62 -3.08491 -5.28677 0
M  V30 3985 N 361.757 -2.77421 -6.44967 0
M  V30 3986 H 366.597 -2.20347 -2.00627 0
M  V30 3987 H 364.134 -1.09558 -0.981608 0
M  V30 3988 H 366.092 -0.850139 -4.08446 0
M  V30 3989 H 364.722 -0.0975026 -3.22653 0
M  V30 3990 H 363.774 -2.4917 -2.87434 0
M  V30 3991 H 365.086 -3.0983 -3.90905 0
M  V30 3992 H 364.24 -1.71864 -5.81848 0
M  V30 3993 H 362.979 -1.00812 -4.77167 0
M  V30 3994 H 361.984 -3.28431 -4.40923 0
M  V30 3995 H 363.209 -3.99655 -5.49047 0
M  V30 3996 H 361.155 -1.89601 -6.28003 0
M  V30 3997 H 361.072 -3.58598 -6.6554 0
M  V30 3998 H 362.34 -2.61577 -7.34301 0
M  V30 3999 N 366.569 1.04691 -1.17803 0
M  V30 4000 C 367.516 2.12557 -0.899343 0
M  V30 4001 C 368.486 1.65339 0.158771 0
M  V30 4002 O 369.671 1.90789 0.0204797 0
M  V30 4003 C 366.811 3.42481 -0.424315 0
M  V30 4004 C 365.924 4.03346 -1.54713 0
M  V30 4005 C 365.059 5.21208 -1.02546 0
M  V30 4006 C 364.098 5.74089 -2.12339 0
M  V30 4007 N 363.235 6.83247 -1.61612 0
M  V30 4008 H 368.075 2.35734 -1.823 0
M  V30 4009 H 365.612 1.1564 -0.909159 0
M  V30 4010 H 367.57 4.16996 -0.130421 0
M  V30 4011 H 366.2 3.19471 0.462377 0
M  V30 4012 H 365.252 3.2622 -1.95664 0
M  V30 4013 H 366.564 4.38628 -2.37501 0
M  V30 4014 H 365.718 6.02812 -0.685718 0
M  V30 4015 H 364.457 4.87414 -0.167084 0
M  V30 4016 H 363.462 4.91111 -2.47165 0
M  V30 4017 H 364.687 6.0993 -2.98601 0
M  V30 4018 H 362.633 6.5134 -0.780533 0
M  V30 4019 H 362.55 7.17559 -2.38003 0
M  V30 4020 H 363.818 7.68491 -1.30545 0
M  V30 4021 N 368.047 0.979072 1.23499 0
M  V30 4022 C 368.977 0.537606 2.27227 0
M  V30 4023 C 369.958 -0.428539 1.64613 0
M  V30 4024 O 371.143 -0.322191 1.91509 0
M  V30 4025 C 368.273 -0.162052 3.46922 0
M  V30 4026 C 367.227 0.721242 4.21879 0
M  V30 4027 C 366.553 -0.110555 5.34586 0
M  V30 4028 C 367.853 2.01141 4.82016 0
M  V30 4029 H 369.547 1.40462 2.64406 0
M  V30 4030 H 367.093 0.67684 1.27102 0
M  V30 4031 H 369.046 -0.482192 4.18632 0
M  V30 4032 H 367.77 -1.06351 3.08799 0
M  V30 4033 H 366.429 1.02482 3.51984 0
M  V30 4034 H 366.077 -1.0125 4.92704 0
M  V30 4035 H 365.777 0.477325 5.85658 0
M  V30 4036 H 367.301 -0.425107 6.09118 0
M  V30 4037 H 368.715 1.75612 5.45741 0
M  V30 4038 H 367.112 2.54695 5.43369 0
M  V30 4039 H 368.182 2.69909 4.02836 0
M  V30 4040 N 369.525 -1.3858 0.750561 0
M  V30 4041 C 370.435 -2.34278 0.122825 0
M  V30 4042 C 371.451 -1.59116 -0.704131 0
M  V30 4043 O 372.627 -1.91326 -0.628987 0
M  V30 4044 C 369.692 -3.38221 -0.762086 0
M  V30 4045 C 368.753 -4.29227 0.078896 0
M  V30 4046 C 367.986 -5.28205 -0.763874 0
M  V30 4047 O 368.209 -5.34112 -2.00201 0
M  V30 4048 O 367.143 -6.01618 -0.18428 0
M  V30 4049 H 370.969 -2.89649 0.913088 0
M  V30 4050 H 368.554 -1.40374 0.511417 0
M  V30 4051 H 370.436 -4.01872 -1.26793 0
M  V30 4052 H 369.111 -2.85211 -1.5309 0
M  V30 4053 H 368.018 -3.68747 0.630621 0
M  V30 4054 H 369.351 -4.85484 0.810289 0
M  V30 4055 N 371.003 -0.499398 -1.49478 0
M  V30 4056 C 371.95 0.279881 -2.29097 0
M  V30 4057 C 372.92 0.961805 -1.3542 0
M  V30 4058 O 374.105 0.968777 -1.64376 0
M  V30 4059 C 371.245 1.33932 -3.18051 0
M  V30 4060 C 370.358 0.669333 -4.26783 0
M  V30 4061 C 369.493 1.70907 -5.02955 0
M  V30 4062 C 368.532 1.02087 -6.03527 0
M  V30 4063 N 367.669 2.00474 -6.7287 0
M  V30 4064 H 372.509 -0.405317 -2.95231 0
M  V30 4065 H 370.046 -0.211726 -1.45568 0
M  V30 4066 H 372.004 1.96553 -3.67998 0
M  V30 4067 H 370.634 1.9933 -2.53904 0
M  V30 4068 H 369.686 -0.0701234 -3.80335 0
M  V30 4069 H 370.998 0.127503 -4.98637 0
M  V30 4070 H 370.152 2.41037 -5.56764 0
M  V30 4071 H 368.891 2.28476 -4.30871 0
M  V30 4072 H 367.896 0.305338 -5.48951 0
M  V30 4073 H 369.121 0.451708 -6.77596 0
M  V30 4074 H 367.067 2.57007 -6.03559 0
M  V30 4075 H 366.984 1.51353 -7.40694 0
M  V30 4076 H 368.252 2.69897 -7.31284 0
M  V30 4077 N 372.481 1.55866 -0.233164 0
M  V30 4078 C 373.444 2.1953 0.658715 0
M  V30 4079 C 374.444 1.16053 1.11303 0
M  V30 4080 O 375.634 1.41218 1.01996 0
M  V30 4081 C 372.766 2.82791 1.90373 0
M  V30 4082 H 373.959 2.99721 0.10347 0
M  V30 4083 H 371.512 1.56291 0.0164245 0
M  V30 4084 H 372.247 2.06501 2.50056 0
M  V30 4085 H 372.032 3.58578 1.58632 0
M  V30 4086 H 373.522 3.31556 2.53891 0
M  V30 4087 N 373.959 -0.0401083 1.57549 0
M  V30 4088 C 374.889 -1.04384 2.08869 0
M  V30 4089 C 375.87 -1.38407 0.988817 0
M  V30 4090 O 377.055 -1.47483 1.26342 0
M  V30 4091 C 374.185 -2.34808 2.55895 0
M  V30 4092 C 373.139 -2.15057 3.70047 0
M  V30 4093 C 372.465 -3.51145 4.03239 0
M  V30 4094 C 373.765 -1.54576 4.98902 0
M  V30 4095 H 375.459 -0.616666 2.92981 0
M  V30 4096 H 373.005 -0.295184 1.40942 0
M  V30 4097 H 374.958 -3.05346 2.90417 0
M  V30 4098 H 373.682 -2.79565 1.68853 0
M  V30 4099 H 372.341 -1.46954 3.35857 0
M  V30 4100 H 371.989 -3.93529 3.13279 0
M  V30 4101 H 371.689 -3.38758 4.80122 0
M  V30 4102 H 373.213 -4.23062 4.40285 0
M  V30 4103 H 374.627 -2.15017 5.31451 0
M  V30 4104 H 373.024 -1.52796 5.80322 0
M  V30 4105 H 374.094 -0.51039 4.82206 0
M  V30 4106 N 375.437 -1.54477 -0.31217 0
M  V30 4107 C 376.367 -1.87652 -1.38957 0
M  V30 4108 C 377.348 -0.734358 -1.53431 0
M  V30 4109 O 378.533 -0.98911 -1.67123 0
M  V30 4110 C 375.663 -2.11396 -2.75552 0
M  V30 4111 C 374.617 -3.27243 -2.75855 0
M  V30 4112 C 373.943 -3.36382 -4.15633 0
M  V30 4113 C 375.243 -4.64622 -2.38587 0
M  V30 4114 H 376.937 -2.77887 -1.11442 0
M  V30 4115 H 374.483 -1.33707 -0.534655 0
M  V30 4116 H 376.436 -2.33189 -3.51 0
M  V30 4117 H 375.16 -1.17921 -3.04569 0
M  V30 4118 H 373.819 -3.05356 -2.02863 0
M  V30 4119 H 373.467 -2.40445 -4.41809 0
M  V30 4120 H 373.167 -4.14249 -4.1674 0
M  V30 4121 H 374.691 -3.60422 -4.92877 0
M  V30 4122 H 376.105 -4.86219 -3.03749 0
M  V30 4123 H 374.502 -5.45121 -2.50925 0
M  V30 4124 H 375.572 -4.66097 -1.33723 0
M  V30 4125 N 376.915 0.57481 -1.46744 0
M  V30 4126 C 377.878 1.66533 -1.57478 0
M  V30 4127 C 378.878 1.54338 -0.451263 0
M  V30 4128 O 380.068 1.58814 -0.715813 0
M  V30 4129 C 377.2 3.05999 -1.50259 0
M  V30 4130 H 378.393 1.58372 -2.54673 0
M  V30 4131 H 375.946 0.793301 -1.34672 0
M  V30 4132 H 376.681 3.19709 -0.543725 0
M  V30 4133 H 376.466 3.16259 -2.31781 0
M  V30 4134 H 377.956 3.8537 -1.60872 0
M  V30 4135 N 378.394 1.34581 0.820102 0
M  V30 4136 C 379.64 1.28294 1.57836 0
M  V30 4137 C 379.995 -0.145099 1.91852 0
M  V30 4138 O 379.288 -1.09209 1.57429 0
M  V30 4139 C 379.482 2.10997 2.8847 0
M  V30 4140 C 379.311 3.61698 2.67216 0
M  V30 4141 C 378.081 4.3097 2.63805 0
M  V30 4142 C 380.279 4.55638 2.38534 0
M  V30 4143 N 378.261 5.67502 2.34126 0
M  V30 4144 C 379.632 5.80194 2.18574 0
M  V30 4145 C 381.687 4.44523 2.24285 0
M  V30 4146 C 380.39 6.94886 1.8581 0
M  V30 4147 C 382.416 5.5905 1.92916 0
M  V30 4148 C 381.778 6.82627 1.73782 0
M  V30 4149 H 377.877 0.524697 0.579842 0
M  V30 4150 H 380.461 1.69323 0.961139 0
M  V30 4151 H 378.632 1.7226 3.48111 0
M  V30 4152 H 380.364 1.96333 3.53886 0
M  V30 4153 H 377.119 3.83438 2.77978 0
M  V30 4154 H 377.543 6.39525 2.22118 0
M  V30 4155 H 382.185 3.49599 2.37782 0
M  V30 4156 H 379.903 7.89789 1.7105 0
M  V30 4157 H 383.489 5.52396 1.82619 0
M  V30 4158 H 382.369 7.69748 1.49861 0
M  V30 4159 N 379.872 -1.04064 1.18357 0
M  V30 4160 C 380.835 -2.10243 0.912707 0
M  V30 4161 C 381.835 -1.60477 -0.101928 0
M  V30 4162 O 383.025 -1.73703 0.131517 0
M  V30 4163 C 380.157 -3.38893 0.369387 0
M  V30 4164 H 381.35 -2.35706 1.85426 0
M  V30 4165 H 378.903 -1.20489 0.995594 0
M  V30 4166 H 379.638 -3.19094 -0.578776 0
M  V30 4167 H 379.423 -3.76331 1.1008 0
M  V30 4168 H 380.913 -4.17128 0.198575 0
M  V30 4169 N 381.35 -0.985608 -1.22978 0
M  V30 4170 C 382.599 -0.652881 -1.90841 0
M  V30 4171 C 382.912 0.817842 -1.77681 0
M  V30 4172 O 384.118 1.26185 -2.40395 0
M  V30 4173 C 382.574 -1.11717 -3.42122 0
M  V30 4174 C 382.182 -2.6126 -3.63933 0
M  V30 4175 C 383.926 -0.85843 -4.1573 0
M  V30 4176 C 381.833 -3.0133 -5.08876 0
M  V30 4177 H 380.763 -0.240491 -0.714619 0
M  V30 4178 H 383.414 -1.1942 -1.39324 0
M  V30 4179 H 381.796 -0.504027 -3.92779 0
M  V30 4180 H 382.97 -3.27858 -3.23799 0
M  V30 4181 H 381.285 -2.84937 -3.03644 0
M  V30 4182 H 383.882 -1.13359 -5.22546 0
M  V30 4183 H 384.225 0.205461 -4.15793 0
M  V30 4184 H 384.758 -1.43341 -3.71077 0
M  V30 4185 H 381.497 -4.06864 -5.13947 0
M  V30 4186 H 381.017 -2.3943 -5.49939 0
M  V30 4187 H 382.696 -2.92224 -5.77247 0
M  V30 4188 N 382.828 1.3818 -0.7579 0
M  V30 4189 C 384.077 1.99261 -0.312744 0
M  V30 4190 C 384.39 1.60846 1.11301 0
M  V30 4191 O 385.596 2.14929 1.65885 0
M  V30 4192 C 384.052 3.56294 -0.50821 0
M  V30 4193 C 383.66 4.03657 -1.94333 0
M  V30 4194 C 385.404 4.24313 -0.125982 0
M  V30 4195 C 383.311 5.53347 -2.08712 0
M  V30 4196 H 382.241 0.745456 -0.113185 0
M  V30 4197 H 384.892 1.57889 -0.935056 0
M  V30 4198 H 383.274 3.95575 0.183353 0
M  V30 4199 H 384.448 3.75655 -2.66871 0
M  V30 4200 H 382.763 3.48376 -2.28086 0
M  V30 4201 H 385.36 5.34279 -0.212125 0
M  V30 4202 H 385.703 4.05962 0.921964 0
M  V30 4203 H 386.236 3.90285 -0.769563 0
M  V30 4204 H 382.975 5.76607 -3.11777 0
M  V30 4205 H 382.495 5.83078 -1.4064 0
M  V30 4206 H 384.174 6.19111 -1.87912 0
M  V30 4207 N 384.306 0.507319 1.49211 0
M  V30 4208 C 385.269 -0.256763 2.27757 0
M  V30 4209 C 386.269 -0.888287 1.34038 0
M  V30 4210 O 387.459 -0.751841 1.5714 0
M  V30 4211 C 384.591 -1.36905 3.12202 0
M  V30 4212 H 385.784 0.432557 2.96764 0
M  V30 4213 H 383.337 0.262488 1.5408 0
M  V30 4214 H 384.072 -2.09233 2.47775 0
M  V30 4215 H 383.857 -0.921599 3.81115 0
M  V30 4216 H 385.347 -1.9071 3.7151 0
M  V30 4217 N 385.784 -1.5574 0.241426 0
M  V30 4218 C 387.033 -1.97986 -0.385295 0
M  V30 4219 C 387.346 -1.13267 -1.59468 0
M  V30 4220 O 388.552 -1.45501 -2.2922 0
M  V30 4221 C 387.008 -3.52275 -0.736884 0
M  V30 4222 C 386.616 -4.45726 0.450796 0
M  V30 4223 C 388.36 -4.03189 -1.3281 0
M  V30 4224 C 386.267 -5.91352 0.0756662 0
M  V30 4225 H 385.197 -0.739386 -0.147731 0
M  V30 4226 H 387.848 -1.80308 0.340779 0
M  V30 4227 H 386.23 -3.65628 -1.52094 0
M  V30 4228 H 387.404 -4.44131 1.22819 0
M  V30 4229 H 385.719 -4.05264 0.956573 0
M  V30 4230 H 388.316 -5.09505 -1.62201 0
M  V30 4231 H 388.659 -3.50212 -2.25071 0
M  V30 4232 H 389.192 -3.93141 -0.607069 0
M  V30 4233 H 385.931 -6.48354 0.965272 0
M  V30 4234 H 385.451 -5.96095 -0.665635 0
M  V30 4235 H 387.13 -6.46084 -0.344075 0
M  V30 4236 N 387.262 0.0317525 -1.57568 0
M  V30 4237 C 388.508 0.724175 -1.8943 0
M  V30 4238 C 388.841 1.75149 -0.838836 0
M  V30 4239 O 388.116 1.93948 0.146422 0
M  V30 4240 C 388.399 1.39615 -3.31933 0
M  V30 4241 C 388.252 0.382537 -4.4817 0
M  V30 4242 C 389.571 2.33084 -3.73309 0
M  V30 4243 H 386.69 0.261797 -0.688935 0
M  V30 4244 H 389.332 -0.013017 -1.89996 0
M  V30 4245 H 387.482 2.02451 -3.31581 0
M  V30 4246 H 389.154 -0.243689 -4.60656 0
M  V30 4247 H 387.397 -0.29844 -4.32772 0
M  V30 4248 H 388.068 0.891145 -5.44759 0
M  V30 4249 H 390.544 1.80295 -3.7501 0
M  V30 4250 H 389.42 2.77084 -4.73831 0
M  V30 4251 H 389.681 3.19643 -3.05419 0
M  V30 4252 N 388.74 1.54641 0.303973 0
M  V30 4253 C 389.67 1.88386 1.3796 0
M  V30 4254 C 390.651 0.742485 1.5304 0
M  V30 4255 O 391.836 0.997959 1.66597 0
M  V30 4256 C 388.966 2.12854 2.74427 0
M  V30 4257 C 387.92 3.28702 2.74115 0
M  V30 4258 C 387.246 3.38582 4.13844 0
M  V30 4259 C 388.546 4.65881 2.3612 0
M  V30 4260 H 390.24 2.78474 1.09966 0
M  V30 4261 H 387.786 1.33988 0.527556 0
M  V30 4262 H 389.739 2.35047 3.49758 0
M  V30 4263 H 388.463 1.19535 3.03939 0
M  V30 4264 H 387.122 3.06428 2.0124 0
M  V30 4265 H 386.77 2.42784 4.40528 0
M  V30 4266 H 386.47 4.16453 4.14537 0
M  V30 4267 H 387.994 3.63031 4.90959 0
M  V30 4268 H 389.408 4.87823 3.01167 0
M  V30 4269 H 387.805 5.46444 2.48031 0
M  V30 4270 H 388.875 4.66799 1.3125 0
M  V30 4271 N 390.218 -0.567019 1.47046 0
M  V30 4272 C 391.465 -1.32462 1.53167 0
M  V30 4273 C 391.793 -1.93571 0.189841 0
M  V30 4274 O 391.048 -1.77865 -0.816243 0
M  V30 4275 C 391.347 -2.4623 2.59047 0
M  V30 4276 C 391.013 -2.03014 4.02612 0
M  V30 4277 C 389.675 -1.90944 4.41694 0
M  V30 4278 C 392.027 -1.69895 4.92732 0
M  V30 4279 C 389.355 -1.44035 5.68745 0
M  V30 4280 C 391.707 -1.2446 6.20236 0
M  V30 4281 C 390.371 -1.10979 6.5821 0
M  V30 4282 H 389.641 -0.484713 0.560477 0
M  V30 4283 H 392.288 -0.636888 1.80599 0
M  V30 4284 H 390.593 -3.20517 2.25335 0
M  V30 4285 H 392.29 -3.04427 2.61008 0
M  V30 4286 H 388.88 -2.13348 3.71726 0
M  V30 4287 H 393.064 -1.78098 4.63244 0
M  V30 4288 H 388.32 -1.32254 5.96925 0
M  V30 4289 H 392.494 -0.978924 6.89485 0
M  V30 4290 H 390.121 -0.744078 7.5655 0
M  V30 4291 N 391.696 -1.35014 -0.812953 0
M  V30 4292 C 392.628 -1.23262 -1.93233 0
M  V30 4293 C 393.641 -0.157371 -1.62038 0
M  V30 4294 O 394.83 -0.410096 -1.73725 0
M  V30 4295 C 391.93 -0.87392 -3.27438 0
M  V30 4296 C 391.103 -2.04622 -3.86586 0
M  V30 4297 C 390.162 -1.66432 -4.99186 0
M  V30 4298 O 389.188 -2.38222 -5.16951 0
M  V30 4299 N 390.39 -0.584248 -5.77552 0
M  V30 4300 H 393.155 -2.19699 -2.03844 0
M  V30 4301 H 390.716 -1.281 -0.99005 0
M  V30 4302 H 392.708 -0.600039 -4.00227 0
M  V30 4303 H 391.278 0.00057392 -3.126 0
M  V30 4304 H 390.498 -2.48427 -3.06068 0
M  V30 4305 H 391.786 -2.82999 -4.22835 0
M  V30 4306 H 391.184 0.0123526 -5.65699 0
M  V30 4307 H 389.741 -0.37013 -6.50748 0
M  V30 4308 N 393.175 1.03435 -1.18907 0
M  V30 4309 C 394.421 1.77005 -0.989798 0
M  V30 4310 C 394.754 1.88205 0.478816 0
M  V30 4311 O 394.029 1.39481 1.35556 0
M  V30 4312 C 394.312 3.19925 -1.65287 0
M  V30 4313 C 394.165 3.1663 -3.19477 0
M  V30 4314 C 395.484 4.18189 -1.37134 0
M  V30 4315 H 392.603 0.642538 -0.360991 0
M  V30 4316 H 395.245 1.20784 -1.46667 0
M  V30 4317 H 393.395 3.67929 -1.24741 0
M  V30 4318 H 395.067 2.76567 -3.692 0
M  V30 4319 H 393.31 2.54491 -3.51307 0
M  V30 4320 H 393.981 4.1758 -3.61013 0
M  V30 4321 H 396.457 3.78761 -1.72276 0
M  V30 4322 H 395.333 5.16394 -1.86087 0
M  V30 4323 H 395.594 4.41112 -0.295424 0
M  V30 4324 N 394.653 0.992116 1.22453 0
M  V30 4325 C 395.881 0.685944 1.95198 0
M  V30 4326 C 396.296 -0.749233 1.73297 0
M  V30 4327 O 395.653 -1.50549 1.03156 0
M  V30 4328 C 395.704 0.981395 3.47924 0
M  V30 4329 O 395.425 2.36018 3.6909 0
M  V30 4330 C 396.926 0.692815 4.37853 0
M  V30 4331 H 394.146 0.253821 0.621141 0
M  V30 4332 H 396.69 1.32668 1.55626 0
M  V30 4333 H 394.845 0.386481 3.85467 0
M  V30 4334 H 395.259 2.45884 4.63294 0
M  V30 4335 H 396.733 0.949818 5.43767 0
M  V30 4336 H 397.21 -0.373181 4.37612 0
M  V30 4337 H 397.816 1.26874 4.05935 0
M  V30 4338 N 396.131 -1.37776 0.765217 0
M  V30 4339 C 397.064 -2.28008 0.0935025 0
M  V30 4340 C 398.042 -1.45985 -0.716047 0
M  V30 4341 O 399.226 -1.75331 -0.692203 0
M  V30 4342 C 396.353 -3.27228 -0.874052 0
M  V30 4343 C 395.399 -4.26239 -0.149307 0
M  V30 4344 S 396.232 -5.22827 1.15809 0
M  V30 4345 C 397.388 -6.256 0.193906 0
M  V30 4346 H 397.621 -2.84631 0.858637 0
M  V30 4347 H 395.154 -1.43952 0.558313 0
M  V30 4348 H 397.112 -3.84902 -1.42691 0
M  V30 4349 H 395.773 -2.69565 -1.61225 0
M  V30 4350 H 394.966 -4.96213 -0.88254 0
M  V30 4351 H 394.568 -3.7252 0.332366 0
M  V30 4352 H 396.86 -6.74508 -0.636011 0
M  V30 4353 H 397.803 -7.02838 0.861638 0
M  V30 4354 H 398.211 -5.64173 -0.191975 0
M  V30 4355 N 397.609 -0.515225 -1.4894 0
M  V30 4356 C 398.857 0.0241671 -2.02086 0
M  V30 4357 C 399.178 1.3616 -1.3959 0
M  V30 4358 O 398.448 1.87841 -0.556121 0
M  V30 4359 H 397.028 0.0119203 -0.746905 0
M  V30 4360 H 399.69 -0.675702 -1.82812 0
M  V30 4361 H 398.786 0.143385 -3.1177 0
M  V30 4362 N 399.087 1.5561 -0.249682 0
M  V30 4363 C 399.997 2.25143 0.659375 0
M  V30 4364 C 401.013 1.2685 1.19101 0
M  V30 4365 O 402.189 1.59732 1.22669 0
M  V30 4366 C 399.254 2.93945 1.8384 0
M  V30 4367 C 398.315 4.07655 1.34596 0
M  V30 4368 C 397.548 4.73167 2.46878 0
M  V30 4369 O 397.771 4.37768 3.65671 0
M  V30 4370 O 396.705 5.61623 2.16478 0
M  V30 4371 H 400.531 3.03545 0.0968698 0
M  V30 4372 H 398.116 1.49389 -0.018074 0
M  V30 4373 H 399.998 3.37271 2.52638 0
M  V30 4374 H 398.673 2.18481 2.38847 0
M  V30 4375 H 397.58 3.68839 0.625174 0
M  V30 4376 H 398.913 4.84946 0.841941 0
M  V30 4377 N 400.565 -0.0233959 1.57583 0
M  V30 4378 C 401.513 -1.04063 2.08023 0
M  V30 4379 C 402.507 -1.37084 0.995204 0
M  V30 4380 O 403.713 -1.35923 1.18004 0
M  V30 4381 H 400.088 -0.353144 0.663922 0
M  V30 4382 H 402.059 -0.589453 2.9252 0
M  V30 4383 C 400.808 -2.33123 2.57971 0
M  V30 4384 H 400.131 -2.08577 3.4108 0
M  V30 4385 H 401.571 -3.02632 2.96967 0
M  V30 4386 C 400.03 -3.02483 1.48342 0
M  V30 4387 O 400.56 -3.92541 0.852898 0
M  V30 4388 N 398.766 -2.63909 1.21658 0
M  V30 4389 H 398.313 -1.90758 1.73116 0
M  V30 4390 H 398.271 -3.10633 0.485218 0
M  V30 4391 N 402.043 -1.548 -0.295768 0
M  V30 4392 C 403.292 -1.73538 -1.02798 0
M  V30 4393 C 403.605 -0.531159 -1.8825 0
M  V30 4394 O 404.811 -0.600458 -2.64777 0
M  V30 4395 C 403.267 -3.07051 -1.87744 0
M  V30 4396 C 402.875 -4.34968 -1.07269 0
M  V30 4397 C 404.619 -3.35146 -2.60533 0
M  V30 4398 C 402.526 -5.5953 -1.91521 0
M  V30 4399 H 401.456 -0.646794 -0.387522 0
M  V30 4400 H 404.107 -1.81278 -0.284718 0
M  V30 4401 H 402.489 -2.93289 -2.66078 0
M  V30 4402 H 403.663 -4.5958 -0.335117 0
M  V30 4403 H 401.978 -4.13847 -0.460384 0
M  V30 4404 H 404.575 -4.2541 -3.23929 0
M  V30 4405 H 404.918 -2.54255 -3.29636 0
M  V30 4406 H 405.451 -3.49902 -1.89244 0
M  V30 4407 H 402.19 -6.43103 -1.26878 0
M  V30 4408 H 401.71 -5.39096 -2.62937 0
M  V30 4409 H 403.389 -5.96982 -2.49442 0
M  V30 4410 N 403.521 0.559213 -1.47345 0
M  V30 4411 C 404.749 1.34194 -1.57479 0
M  V30 4412 C 405.164 1.87463 -0.224261 0
M  V30 4413 O 404.521 1.64888 0.782185 0
M  V30 4414 C 404.572 2.51324 -2.59843 0
M  V30 4415 O 404.293 2.00256 -3.89653 0
M  V30 4416 C 405.794 3.43563 -2.80142 0
M  V30 4417 H 403.014 0.409136 -0.531835 0
M  V30 4418 H 405.558 0.677609 -1.92947 0
M  V30 4419 H 403.713 3.13699 -2.27314 0
M  V30 4420 H 404.127 2.76708 -4.4557 0
M  V30 4421 H 405.601 4.2217 -3.55635 0
M  V30 4422 H 406.078 3.9698 -1.87892 0
M  V30 4423 H 406.684 2.87005 -3.1386 0
M  V30 4424 N 404.999 1.35443 0.805782 0
M  V30 4425 C 405.931 1.24285 1.92577 0
M  V30 4426 C 406.944 0.165962 1.61952 0
M  V30 4427 O 408.133 0.419303 1.73505 0
M  V30 4428 C 405.233 0.891272 3.2697 0
M  V30 4429 C 404.406 2.06669 3.85495 0
M  V30 4430 C 403.465 1.69077 4.98297 0
M  V30 4431 O 402.491 2.4096 5.15681 0
M  V30 4432 N 403.693 0.614869 5.77234 0
M  V30 4433 H 406.458 2.20777 2.02676 0
M  V30 4434 H 404.019 1.28623 0.983243 0
M  V30 4435 H 406.011 0.621256 3.99903 0
M  V30 4436 H 404.581 0.016004 3.12596 0
M  V30 4437 H 403.801 2.50046 3.04747 0
M  V30 4438 H 405.089 2.85237 4.21328 0
M  V30 4439 H 404.487 0.017648 5.65697 0
M  V30 4440 H 403.044 0.404636 6.50543 0
M  V30 4441 N 406.477 -1.02803 1.19454 0
M  V30 4442 C 407.723 -1.76598 1.0092 0
M  V30 4443 C 408.078 -1.86939 -0.455142 0
M  V30 4444 O 407.371 -1.37575 -1.33355 0
M  V30 4445 C 407.565 -3.18941 1.6128 0
M  V30 4446 C 407.394 -3.22476 3.13431 0
M  V30 4447 C 406.164 -3.30375 3.82336 0
M  V30 4448 C 408.362 -3.09451 4.10785 0
M  V30 4449 N 406.344 -3.23292 5.21877 0
M  V30 4450 C 407.715 -3.10012 5.36929 0
M  V30 4451 C 409.77 -2.93585 4.02135 0
M  V30 4452 C 408.473 -2.96334 6.55423 0
M  V30 4453 C 410.499 -2.81256 5.20239 0
M  V30 4454 C 409.861 -2.82472 6.45282 0
M  V30 4455 H 405.96 -0.657447 0.423424 0
M  V30 4456 H 408.544 -1.22369 1.5144 0
M  V30 4457 H 406.715 -3.71489 1.1336 0
M  V30 4458 H 408.447 -3.81102 1.36173 0
M  V30 4459 H 405.202 -3.3663 3.33132 0
M  V30 4460 H 405.626 -3.23156 5.94894 0
M  V30 4461 H 410.268 -2.91466 3.0628 0
M  V30 4462 H 407.986 -2.97203 7.51463 0
M  V30 4463 H 411.572 -2.70014 5.15348 0
M  V30 4464 H 410.452 -2.73036 7.35133 0
M  V30 4465 N 407.956 -0.998596 -1.21925 0
M  V30 4466 C 408.904 -0.546641 -2.26085 0
M  V30 4467 C 409.898 0.405576 -1.64473 0
M  V30 4468 O 411.104 0.277471 -1.77849 0
M  V30 4469 H 407.479 -0.158403 -0.735127 0
M  V30 4470 H 409.45 -1.43645 -2.61551 0
M  V30 4471 C 408.199 0.117388 -3.47502 0
M  V30 4472 H 407.522 -0.606277 -3.95176 0
M  V30 4473 H 408.962 0.396993 -4.22137 0
M  V30 4474 C 407.421 1.35455 -3.0847 0
M  V30 4475 O 407.951 2.44944 -3.18379 0
M  V30 4476 N 406.157 1.23191 -2.63196 0
M  V30 4477 H 405.704 0.341006 -2.55333 0
M  V30 4478 H 405.662 2.06071 -2.37449 0
M  V30 4479 N 409.434 1.37368 -0.772513 0
M  V30 4480 C 410.364 2.32856 -0.173304 0
M  V30 4481 C 411.345 1.55818 0.682262 0
M  V30 4482 O 412.53 1.84052 0.619566 0
M  V30 4483 C 409.66 3.40048 0.706007 0
M  V30 4484 C 408.614 4.27973 -0.0483144 0
M  V30 4485 C 407.94 5.26184 0.950491 0
M  V30 4486 C 409.24 5.07665 -1.22776 0
M  V30 4487 H 410.934 2.83217 -0.971002 0
M  V30 4488 H 408.48 1.3617 -0.468377 0
M  V30 4489 H 410.433 4.05827 1.13501 0
M  V30 4490 H 409.157 2.88214 1.53623 0
M  V30 4491 H 407.816 3.63726 -0.458107 0
M  V30 4492 H 407.464 4.7063 1.77529 0
M  V30 4493 H 407.164 5.85872 0.450314 0
M  V30 4494 H 408.688 5.94838 1.37842 0
M  V30 4495 H 410.102 5.66578 -0.875366 0
M  V30 4496 H 408.499 5.76681 -1.66007 0
M  V30 4497 H 409.569 4.40294 -2.03149 0
M  V30 4498 N 410.912 0.523116 1.48665 0
M  V30 4499 C 411.844 -0.280421 2.27478 0
M  V30 4500 C 412.857 -0.910694 1.34945 0
M  V30 4501 O 414.046 -0.790295 1.60052 0
M  V30 4502 C 411.146 -1.41171 3.08097 0
M  V30 4503 C 410.319 -0.884642 4.28361 0
M  V30 4504 C 409.378 -1.89622 4.90846 0
M  V30 4505 O 408.404 -1.4559 5.50265 0
M  V30 4506 N 409.606 -3.22801 4.82472 0
M  V30 4507 H 412.371 0.395481 2.97079 0
M  V30 4508 H 409.932 0.357018 1.57915 0
M  V30 4509 H 411.924 -2.08645 3.4677 0
M  V30 4510 H 410.494 -1.99139 2.40961 0
M  V30 4511 H 409.714 -0.0341177 3.94185 0
M  V30 4512 H 411.002 -0.511268 5.06225 0
M  V30 4513 H 410.4 -3.61246 4.35336 0
M  V30 4514 H 408.957 -3.85927 5.25265 0
M  V30 4515 N 412.39 -1.55475 0.257931 0
M  V30 4516 C 413.667 -1.91155 -0.414629 0
M  V30 4517 C 414.047 -1.18008 -1.75035 0
M  V30 4518 O 413.395 -0.301193 -2.26506 0
M  V30 4519 C 413.605 -3.44283 -0.571859 0
M  V30 4520 C 414.953 -4.15744 -0.862678 0
M  V30 4521 O 415.977 -3.50083 -0.657314 0
M  V30 4522 O 414.836 -5.31909 -1.2544 0
M  V30 4523 H 411.93 -0.796016 -0.22425 0
M  V30 4524 H 414.476 -1.66976 0.302814 0
M  V30 4525 H 413.248 -3.89558 0.368844 0
M  V30 4526 H 412.871 -3.7436 -1.33943 0
M  V30 4527 N 413.868 0.0150385 -1.57593 0
M  V30 4528 C 414.816 1.02958 -2.08572 0
M  V30 4529 C 415.81 1.36554 -1.00246 0
M  V30 4530 O 417.016 1.35295 -1.18724 0
M  V30 4531 H 413.391 0.349619 -0.665786 0
M  V30 4532 H 415.362 0.573932 -2.92829 0
M  V30 4533 C 414.111 2.31752 -2.59203 0
M  V30 4534 H 413.434 2.06765 -3.42182 0
M  V30 4535 H 414.874 3.01053 -2.98568 0
M  V30 4536 C 413.333 3.01692 -1.49945 0
M  V30 4537 O 413.863 3.92083 -0.873704 0
M  V30 4538 N 412.069 2.6326 -1.23056 0
M  V30 4539 H 411.616 1.89838 -1.74125 0
M  V30 4540 H 411.574 3.10372 -0.501685 0
M  V30 4541 N 415.346 1.54954 0.287554 0
M  V30 4542 C 416.594 1.74528 1.01904 0
M  V30 4543 C 416.915 0.541349 1.87335 0
M  V30 4544 O 416.185 -0.444108 1.908 0
M  V30 4545 H 414.765 0.643576 0.379235 0
M  V30 4546 H 417.427 1.92333 0.315294 0
M  V30 4547 H 416.523 2.64015 1.6644 0
M  V30 4548 N 416.824 -0.551391 1.4764 0
M  V30 4549 C 418.052 -1.33357 1.58189 0
M  V30 4550 C 418.467 -1.87342 0.234199 0
M  V30 4551 O 417.824 -1.65301 -0.77343 0
M  V30 4552 C 417.875 -2.49942 2.61173 0
M  V30 4553 O 417.596 -1.98187 3.90709 0
M  V30 4554 C 419.097 -3.42072 2.8196 0
M  V30 4555 H 416.317 -0.40631 0.533998 0
M  V30 4556 H 418.861 -0.667367 1.93304 0
M  V30 4557 H 417.016 -3.12489 2.28975 0
M  V30 4558 H 417.43 -2.74342 4.47031 0
M  V30 4559 H 418.904 -4.20278 3.57869 0
M  V30 4560 H 419.381 -3.95978 1.89995 0
M  V30 4561 H 419.987 -2.85336 3.15378 0
M  V30 4562 N 418.302 -1.35869 -0.798587 0
M  V30 4563 C 419.212 -1.31578 -1.94228 0
M  V30 4564 C 420.228 -0.21939 -1.72611 0
M  V30 4565 O 421.404 -0.450167 -1.96305 0
M  V30 4566 C 418.469 -1.09528 -3.28944 0
M  V30 4567 C 417.53 -2.28556 -3.63402 0
M  V30 4568 C 416.763 -2.07549 -4.9169 0
M  V30 4569 O 416.986 -1.046 -5.60727 0
M  V30 4570 O 415.92 -2.95106 -5.24591 0
M  V30 4571 H 419.746 -2.27847 -2.00796 0
M  V30 4572 H 417.331 -1.16322 -0.937526 0
M  V30 4573 H 419.213 -0.991127 -4.09579 0
M  V30 4574 H 417.888 -0.16315 -3.23289 0
M  V30 4575 H 416.795 -2.44538 -2.83112 0
M  V30 4576 H 418.128 -3.20244 -3.73771 0
M  V30 4577 N 419.78 1.02168 -1.19998 0
M  V30 4578 C 421.028 1.75338 -1.00504 0
M  V30 4579 C 421.349 1.89387 0.464506 0
M  V30 4580 O 420.619 1.43268 1.33608 0
M  V30 4581 H 419.199 0.649564 -0.368885 0
M  V30 4582 H 421.861 1.23205 -1.51018 0
M  V30 4583 H 420.957 2.75892 -1.45912 0
M  V30 4584 N 421.258 1.00505 1.21394 0
M  V30 4585 C 422.507 0.683159 1.89778 0
M  V30 4586 C 422.82 -0.789471 1.7896 0
M  V30 4587 O 424.026 -1.22344 2.42372 0
M  V30 4588 C 422.482 1.17146 3.40301 0
M  V30 4589 C 422.09 2.67017 3.5973 0
M  V30 4590 C 423.834 0.924461 4.14311 0
M  V30 4591 C 421.741 3.09387 5.04017 0
M  V30 4592 H 420.671 0.25183 0.710702 0
M  V30 4593 H 423.322 1.21622 1.37406 0
M  V30 4594 H 421.704 0.566451 3.91928 0
M  V30 4595 H 422.878 3.32968 3.18542 0
M  V30 4596 H 421.193 2.89732 2.99073 0
M  V30 4597 H 423.79 1.21658 5.20676 0
M  V30 4598 H 424.133 -0.139286 4.16067 0
M  V30 4599 H 424.666 1.49226 3.6875 0
M  V30 4600 H 421.405 4.14989 5.07409 0
M  V30 4601 H 420.925 2.48149 5.46061 0
M  V30 4602 H 422.604 3.01371 5.72525 0
M  V30 4603 N 422.737 -1.36956 0.779787 0
M  V30 4604 C 423.669 -2.28833 0.129639 0
M  V30 4605 C 424.682 -1.4902 -0.655511 0
M  V30 4606 O 425.871 -1.71578 -0.492279 0
M  V30 4607 C 422.971 -3.2833 -0.839792 0
M  V30 4608 C 422.144 -4.3727 -0.10675 0
M  V30 4609 C 421.203 -5.16789 -0.990717 0
M  V30 4610 O 420.229 -5.67406 -0.451516 0
M  V30 4611 N 421.431 -5.32294 -2.3161 0
M  V30 4612 H 424.196 -2.85268 0.918803 0
M  V30 4613 H 421.757 -1.49019 0.632841 0
M  V30 4614 H 423.749 -3.78413 -1.43477 0
M  V30 4615 H 422.319 -2.72605 -1.52988 0
M  V30 4616 H 421.539 -3.88478 0.669216 0
M  V30 4617 H 422.827 -5.07229 0.399464 0
M  V30 4618 H 422.225 -4.92768 -2.77843 0
M  V30 4619 H 420.782 -5.85656 -2.86095 0
M  V30 4620 N 424.215 -0.530993 -1.48385 0
M  V30 4621 C 425.631 -0.188919 -1.58478 0
M  V30 4622 C 425.831 1.30786 -1.53288 0
M  V30 4623 O 424.887 2.08619 -1.42248 0
M  V30 4624 C 426.2 -0.792343 -2.90073 0
M  V30 4625 C 427.748 -0.76117 -3.03604 0
M  V30 4626 C 428.223 -1.34319 -4.37861 0
M  V30 4627 N 429.714 -1.3052 -4.44431 0
M  V30 4628 C 430.449 -1.72543 -5.46824 0
M  V30 4629 N 429.945 -2.22299 -6.56167 0
M  V30 4630 N 431.738 -1.63773 -5.37712 0
M  V30 4631 H 423.889 -1.50377 -1.50002 0
M  V30 4632 H 426.152 -0.625559 -0.712306 0
M  V30 4633 H 425.858 -1.84323 -2.99529 0
M  V30 4634 H 425.732 -0.270026 -3.76232 0
M  V30 4635 H 428.119 0.280957 -2.93759 0
M  V30 4636 H 428.2 -1.32097 -2.19053 0
M  V30 4637 H 427.844 -2.38425 -4.4846 0
M  V30 4638 H 427.774 -0.759064 -5.21101 0
M  V30 4639 H 430.265 -0.940973 -3.65997 0
M  V30 4640 H 430.578 -2.52356 -7.30436 0
M  V30 4641 H 428.923 -2.26293 -6.57127 0
M  V30 4642 H 432.114 -1.24698 -4.51185 0
M  V30 4643 H 432.287 -1.96844 -6.17379 0
M  V30 4644 N 425.693 1.55336 -0.266172 0
M  V30 4645 C 426.656 2.20878 0.612001 0
M  V30 4646 C 427.656 1.18388 1.08816 0
M  V30 4647 O 428.846 1.4335 0.989774 0
M  V30 4648 C 425.978 2.86765 1.84332 0
M  V30 4649 H 427.171 2.99873 0.0398718 0
M  V30 4650 H 424.724 1.56291 -0.0167309 0
M  V30 4651 H 425.459 2.11759 2.45619 0
M  V30 4652 H 425.244 3.61862 1.5099 0
M  V30 4653 H 426.734 3.36867 2.46801 0
M  V30 4654 N 427.171 -0.0066808 1.57599 0
M  V30 4655 C 428.104 -1.03397 2.03431 0
M  V30 4656 C 429.082 -1.33872 0.922877 0
M  V30 4657 O 430.266 -1.4615 1.19048 0
M  V30 4658 C 427.393 -2.36325 2.42628 0
M  V30 4659 C 426.439 -2.21557 3.64438 0
M  V30 4660 S 427.272 -1.54789 5.12641 0
M  V30 4661 C 428.428 -2.8916 5.55101 0
M  V30 4662 H 428.661 -0.643687 2.90248 0
M  V30 4663 H 426.194 -0.217349 1.52863 0
M  V30 4664 H 428.152 -3.12759 2.65879 0
M  V30 4665 H 426.813 -2.72495 1.56222 0
M  V30 4666 H 426.006 -3.1974 3.89592 0
M  V30 4667 H 425.608 -1.53267 3.41153 0
M  V30 4668 H 427.9 -3.8547 5.57153 0
M  V30 4669 H 428.843 -2.68713 6.55133 0
M  V30 4670 H 429.251 -2.92762 4.82649 0
M  V30 4671 N 428.649 -1.55105 -0.279332 0
M  V30 4672 C 429.896 -1.75412 -1.01177 0
M  V30 4673 C 430.224 -0.551728 -1.86511 0
M  V30 4674 O 429.479 0.465919 -1.90073 0
M  V30 4675 C 429.778 -3.0086 -1.92919 0
M  V30 4676 C 429.444 -4.33689 -1.23387 0
M  V30 4677 C 428.106 -4.69792 -1.04159 0
M  V30 4678 C 430.458 -5.15941 -0.738562 0
M  V30 4679 C 427.786 -5.85707 -0.341166 0
M  V30 4680 C 430.138 -6.32579 -0.0517636 0
M  V30 4681 C 428.802 -6.67326 0.152292 0
M  V30 4682 H 428.072 -0.641879 -0.370233 0
M  V30 4683 H 430.719 -1.89373 -0.284627 0
M  V30 4684 H 429.024 -2.81773 -2.72234 0
M  V30 4685 H 430.721 -3.13768 -2.49701 0
M  V30 4686 H 427.311 -4.05309 -1.39364 0
M  V30 4687 H 431.495 -4.8853 -0.874764 0
M  V30 4688 H 426.751 -6.11157 -0.172287 0
M  V30 4689 H 430.925 -6.9557 0.339828 0
M  V30 4690 H 428.552 -7.56998 0.697014 0
M  V30 4691 N 430.127 0.543554 -1.4793 0
M  V30 4692 C 431.059 1.665 -1.57513 0
M  V30 4693 C 432.072 1.56156 -0.460333 0
M  V30 4694 O 433.261 1.62865 -0.730573 0
M  V30 4695 C 430.361 3.05063 -1.47614 0
M  V30 4696 C 429.534 3.41024 -2.739 0
M  V30 4697 C 428.593 4.58809 -2.57645 0
M  V30 4698 O 427.619 4.62707 -3.31498 0
M  V30 4699 N 428.821 5.56149 -1.66368 0
M  V30 4700 H 431.586 1.5872 -2.5422 0
M  V30 4701 H 429.147 0.730517 -1.44482 0
M  V30 4702 H 431.139 3.81712 -1.34455 0
M  V30 4703 H 429.709 3.06994 -0.589359 0
M  V30 4704 H 428.929 2.53687 -3.01723 0
M  V30 4705 H 430.217 3.61831 -3.57709 0
M  V30 4706 H 429.615 5.55767 -1.05543 0
M  V30 4707 H 428.172 6.32071 -1.59154 0
M  V30 4708 N 431.605 1.3629 0.791371 0
M  V30 4709 C 433.021 1.16661 1.08914 0
M  V30 4710 C 433.221 -0.0106266 2.01497 0
M  V30 4711 O 432.277 -0.676596 2.43266 0
M  V30 4712 C 433.59 2.47656 1.70549 0
M  V30 4713 C 435.138 2.54002 1.82899 0
M  V30 4714 C 435.613 3.85078 2.47949 0
M  V30 4715 N 437.104 3.86413 2.5542 0
M  V30 4716 C 437.839 4.84572 3.06557 0
M  V30 4717 N 437.335 5.93124 3.58016 0
M  V30 4718 N 439.128 4.71994 3.05251 0
M  V30 4719 H 431.279 2.11668 0.176238 0
M  V30 4720 H 433.542 0.937486 0.140796 0
M  V30 4721 H 433.248 3.34059 1.09989 0
M  V30 4722 H 433.122 2.63319 2.70079 0
M  V30 4723 H 435.509 1.68018 2.42598 0
M  V30 4724 H 435.59 2.42239 0.821808 0
M  V30 4725 H 435.234 4.71467 1.88895 0
M  V30 4726 H 435.164 3.94135 3.49235 0
M  V30 4727 H 437.655 3.07988 2.18979 0
M  V30 4728 H 437.968 6.63999 3.95381 0
M  V30 4729 H 436.313 5.96796 3.56173 0
M  V30 4730 H 439.504 3.86321 2.64336 0
M  V30 4731 H 439.677 5.48653 3.44796 0
M  V30 4732 N 433.083 -1.0153 1.20538 0
M  V30 4733 C 434.331 -1.74803 1.01432 0
M  V30 4734 C 434.652 -1.8963 -0.454456 0
M  V30 4735 O 433.922 -1.43975 -1.32846 0
M  V30 4736 H 432.502 -0.647598 0.372324 0
M  V30 4737 H 435.164 -1.22402 1.5167 0
M  V30 4738 H 434.26 -2.75114 1.47373 0
M  V30 4739 N 434.561 -1.01147 -1.20859 0
M  V30 4740 C 435.807 -0.698899 -1.90377 0
M  V30 4741 C 436.14 0.76904 -1.78324 0
M  V30 4742 O 435.415 1.55817 -1.16409 0
M  V30 4743 C 435.698 -1.12878 -3.41951 0
M  V30 4744 C 435.551 -2.65665 -3.62963 0
M  V30 4745 C 436.87 -0.696114 -4.3456 0
M  V30 4746 H 433.989 -0.255372 -0.691342 0
M  V30 4747 H 436.631 -1.25831 -1.42361 0
M  V30 4748 H 434.781 -0.652827 -3.82976 0
M  V30 4749 H 436.453 -3.21074 -3.31224 0
M  V30 4750 H 434.696 -3.06878 -3.06608 0
M  V30 4751 H 435.367 -2.90797 -4.69192 0
M  V30 4752 H 437.843 -1.10521 -4.01154 0
M  V30 4753 H 436.719 -1.025 -5.39245 0
M  V30 4754 H 436.98 0.402465 -4.40264 0
M  V30 4755 N 436.039 1.36541 -0.78704 0
M  V30 4756 C 436.987 2.31965 -0.171724 0
M  V30 4757 C 437.981 1.55689 0.667631 0
M  V30 4758 O 439.187 1.70969 0.562981 0
M  V30 4759 H 435.562 0.751101 -0.0367545 0
M  V30 4760 H 437.533 2.81428 -0.992017 0
M  V30 4761 C 436.282 3.40968 0.680904 0
M  V30 4762 H 435.605 3.99775 0.0443961 0
M  V30 4763 H 437.045 4.10063 1.07815 0
M  V30 4764 C 435.504 2.82338 1.83813 0
M  V30 4765 O 436.034 2.74311 2.93456 0
M  V30 4766 N 434.24 2.39661 1.6435 0
M  V30 4767 H 433.787 2.46389 0.751668 0
M  V30 4768 H 433.745 2.00779 2.4194 0
M  V30 4769 N 437.518 0.538854 1.48102 0
M  V30 4770 C 438.934 0.19732 1.58376 0
M  V30 4771 C 439.134 -1.29971 1.5398 0
M  V30 4772 O 438.19 -2.07861 1.43352 0
M  V30 4773 C 439.503 0.807716 2.89649 0
M  V30 4774 C 441.051 0.77726 3.03196 0
M  V30 4775 C 441.526 1.36639 4.37143 0
M  V30 4776 N 443.017 1.32875 4.43732 0
M  V30 4777 C 443.752 1.7544 5.45901 0
M  V30 4778 N 443.248 2.25776 6.54979 0
M  V30 4779 N 445.041 1.66623 5.36836 0
M  V30 4780 H 437.192 1.5117 1.49202 0
M  V30 4781 H 439.455 0.629327 0.708979 0
M  V30 4782 H 439.161 1.85909 2.98548 0
M  V30 4783 H 439.035 0.289975 3.76084 0
M  V30 4784 H 441.422 -0.265374 2.93904 0
M  V30 4785 H 441.503 1.33256 2.18349 0
M  V30 4786 H 441.147 2.408 4.47189 0
M  V30 4787 H 441.077 0.786689 5.20691 0
M  V30 4788 H 443.568 0.96037 3.65493 0
M  V30 4789 H 443.881 2.56226 7.29087 0
M  V30 4790 H 442.226 2.29775 6.55918 0
M  V30 4791 H 445.417 1.27089 4.50517 0
M  V30 4792 H 445.59 2.00115 6.16326 0
M  V30 4793 N 438.996 -1.55193 0.274407 0
M  V30 4794 C 440.221 -2.04446 -0.348824 0
M  V30 4795 C 440.646 -1.15149 -1.48735 0
M  V30 4796 O 440.004 -0.149952 -1.80679 0
M  V30 4797 C 440.052 -3.51431 -0.808009 0
M  V30 4798 O 439.156 -3.65225 -1.91531 0
M  V30 4799 H 438.497 -0.66006 -0.0722276 0
M  V30 4800 H 441.027 -2.00481 0.408498 0
M  V30 4801 H 441.037 -3.92781 -1.10395 0
M  V30 4802 H 439.712 -4.15892 0.0249865 0
M  V30 4803 H 438.289 -3.35778 -1.62196 0
M  V30 4804 N 440.474 -0.00167713 -1.576 0
M  V30 4805 C 441.404 0.988091 -2.11563 0
M  V30 4806 C 442.385 1.35736 -1.02517 0
M  V30 4807 O 443.57 1.44082 -1.30208 0
M  V30 4808 C 440.7 2.27941 -2.62031 0
M  V30 4809 C 439.654 2.0517 -3.75619 0
M  V30 4810 C 438.98 3.4033 -4.12407 0
M  V30 4811 C 440.28 1.41294 -5.02825 0
M  V30 4812 H 441.974 0.538771 -2.94513 0
M  V30 4813 H 439.52 0.257712 -1.41675 0
M  V30 4814 H 441.473 2.97539 -2.9841 0
M  V30 4815 H 440.197 2.74989 -1.76205 0
M  V30 4816 H 438.856 1.37998 -3.39635 0
M  V30 4817 H 438.504 3.85085 -3.23603 0
M  V30 4818 H 438.204 3.25909 -4.88935 0
M  V30 4819 H 439.728 4.1124 -4.51347 0
M  V30 4820 H 441.142 2.00851 -5.36965 0
M  V30 4821 H 439.539 1.37356 -5.84169 0
M  V30 4822 H 440.609 0.382362 -4.8339 0
M  V30 4823 N 441.952 1.55251 0.271103 0
M  V30 4824 C 442.902 1.84649 1.33749 0
M  V30 4825 C 443.886 0.705529 1.44607 0
M  V30 4826 O 445.078 0.966916 1.48256 0
M  V30 4827 C 442.207 2.12354 2.69742 0
M  V30 4828 C 441.293 3.32714 2.62988 0
M  V30 4829 N 441.684 4.52575 2.25853 0
M  V30 4830 C 439.982 3.35341 2.94045 0
M  V30 4831 C 440.683 5.34669 2.29136 0
M  V30 4832 N 439.659 4.73123 2.67685 0
M  V30 4833 H 443.461 2.74865 1.0405 0
M  V30 4834 H 440.975 1.55152 0.479738 0
M  V30 4835 H 442.972 2.31572 3.4667 0
M  V30 4836 H 441.632 1.23422 3.00328 0
M  V30 4837 H 442.643 4.78639 1.978 0
M  V30 4838 H 439.32 2.56608 3.2933 0
M  V30 4839 H 440.71 6.40509 2.02971 0
M  V30 4840 N 443.43 -0.535701 1.48216 0
M  V30 4841 C 444.678 -1.28928 1.55634 0
M  V30 4842 C 444.999 -1.93645 0.229514 0
M  V30 4843 O 444.269 -1.81038 -0.74846 0
M  V30 4844 H 442.849 -0.47884 0.573342 0
M  V30 4845 H 445.511 -0.623853 1.84646 0
M  V30 4846 H 444.607 -2.07157 2.33436 0
M  V30 4847 N 444.908 -1.36708 -0.784132 0
M  V30 4848 C 446.157 -1.30559 -1.53744 0
M  V30 4849 C 446.47 0.111374 -1.95283 0
M  V30 4850 O 447.676 0.29527 -2.6989 0
M  V30 4851 C 446.132 -2.29098 -2.77565 0
M  V30 4852 C 445.74 -3.76258 -2.43174 0
M  V30 4853 C 447.484 -2.31936 -3.55536 0
M  V30 4854 C 445.391 -4.6656 -3.63422 0
M  V30 4855 H 444.321 -0.48518 -0.577162 0
M  V30 4856 H 446.972 -1.62101 -0.859981 0
M  V30 4857 H 445.354 -1.90557 -3.47137 0
M  V30 4858 H 446.528 -4.23565 -1.81465 0
M  V30 4859 H 444.843 -3.76246 -1.78403 0
M  V30 4860 H 447.44 -2.9661 -4.44889 0
M  V30 4861 H 447.783 -1.3294 -3.94503 0
M  V30 4862 H 448.316 -2.6912 -2.92949 0
M  V30 4863 H 445.055 -5.66638 -3.29547 0
M  V30 4864 H 444.575 -4.23966 -4.24279 0
M  V30 4865 H 446.254 -4.8309 -4.30387 0
M  V30 4866 N 446.386 1.0089 -1.21074 0
M  V30 4867 C 447.632 1.7497 -1.03717 0
M  V30 4868 C 447.987 1.8764 0.425344 0
M  V30 4869 O 447.28 1.39679 1.3115 0
M  V30 4870 C 447.474 3.16335 -1.66334 0
M  V30 4871 C 447.303 3.17449 -3.18522 0
M  V30 4872 C 446.073 3.2425 -3.87543 0
M  V30 4873 C 448.271 3.02877 -4.15656 0
M  V30 4874 N 446.253 3.14949 -5.26954 0
M  V30 4875 C 447.624 3.0143 -5.41793 0
M  V30 4876 C 449.679 2.8715 -4.06755 0
M  V30 4877 C 448.382 2.85869 -6.60054 0
M  V30 4878 C 450.408 2.72944 -5.24648 0
M  V30 4879 C 449.77 2.72171 -6.49694 0
M  V30 4880 H 445.869 0.650627 -0.43383 0
M  V30 4881 H 448.453 1.19944 -1.53367 0
M  V30 4882 H 446.624 3.69638 -1.19256 0
M  V30 4883 H 448.356 3.78888 -1.42219 0
M  V30 4884 H 445.111 3.31288 -3.38446 0
M  V30 4885 H 445.535 3.13651 -5.9996 0
M  V30 4886 H 450.177 2.86557 -3.10878 0
M  V30 4887 H 447.895 2.8521 -7.56096 0
M  V30 4888 H 451.481 2.61782 -5.19578 0
M  V30 4889 H 450.361 2.61307 -7.39384 0
M  V30 4890 N 447.864 1.01787 1.20321 0
M  V30 4891 C 449.275 0.739307 1.71438 0
M  V30 4892 C 449.626 -0.742041 1.81627 0
M  V30 4893 O 448.751 -1.57903 1.47971 0
M  V30 4894 C 449.346 1.33538 3.11373 0
M  V30 4895 C 447.905 1.10566 3.59795 0
M  V30 4896 C 447.052 1.44028 2.36962 0
M  V30 4897 H 450.003 1.18718 1.05317 0
M  V30 4898 H 450.024 0.726611 3.73498 0
M  V30 4899 H 449.536 2.41352 3.03926 0
M  V30 4900 H 447.637 0.0452405 3.72573 0
M  V30 4901 H 447.75 1.78661 4.44542 0
M  V30 4902 H 446.114 0.85933 2.39766 0
M  V30 4903 H 446.897 2.52901 2.32155 0
M  V30 4904 N 449.342 -1.36122 0.79427 0
M  V30 4905 C 450.252 -2.33769 0.197296 0
M  V30 4906 C 451.268 -1.61276 -0.653153 0
M  V30 4907 O 452.444 -1.9323 -0.5678 0
M  V30 4908 C 449.509 -3.40474 -0.654098 0
M  V30 4909 C 448.57 -4.28759 0.215411 0
M  V30 4910 C 447.803 -5.30368 -0.595443 0
M  V30 4911 O 448.026 -5.40211 -1.83107 0
M  V30 4912 O 446.96 -6.019 0.00721351 0
M  V30 4913 H 450.786 -2.86597 1.00478 0
M  V30 4914 H 448.371 -1.38676 0.555818 0
M  V30 4915 H 450.253 -4.05703 -1.13944 0
M  V30 4916 H 448.928 -2.89937 -1.43938 0
M  V30 4917 H 447.835 -3.66554 0.747615 0
M  V30 4918 H 449.168 -4.82661 0.964332 0
M  V30 4919 N 450.82 -0.546701 -1.47814 0
M  V30 4920 C 451.767 0.206854 -2.29871 0
M  V30 4921 C 452.737 0.918235 -1.38411 0
M  V30 4922 O 453.922 0.915991 -1.67375 0
M  V30 4923 C 451.062 1.23746 -3.22151 0
M  V30 4924 C 450.175 0.533216 -4.28697 0
M  V30 4925 C 449.31 1.5482 -5.08138 0
M  V30 4926 C 448.349 0.828347 -6.06469 0
M  V30 4927 N 447.486 1.78966 -6.78908 0
M  V30 4928 H 452.326 -0.499037 -2.93792 0
M  V30 4929 H 449.863 -0.25793 -1.44821 0
M  V30 4930 H 451.821 1.84746 -3.74065 0
M  V30 4931 H 450.451 1.91151 -2.60117 0
M  V30 4932 H 449.503 -0.191089 -3.7992 0
M  V30 4933 H 450.815 -0.0311987 -4.9879 0
M  V30 4934 H 449.969 2.23202 -5.6415 0
M  V30 4935 H 448.708 2.14652 -4.37922 0
M  V30 4936 H 447.713 0.130539 -5.49645 0
M  V30 4937 H 448.938 0.235907 -6.7869 0
M  V30 4938 H 446.884 2.37675 -6.1143 0
M  V30 4939 H 446.801 1.27712 -7.45135 0
M  V30 4940 H 448.069 2.46496 -7.395 0
M  V30 4941 N 452.299 1.55045 -0.282633 0
M  V30 4942 C 453.548 1.98938 0.332667 0
M  V30 4943 C 453.861 1.17455 1.56409 0
M  V30 4944 O 455.067 1.51527 2.25282 0
M  V30 4945 C 453.523 3.54105 0.643226 0
M  V30 4946 C 453.131 4.44374 -0.568814 0
M  V30 4947 C 454.875 4.06569 1.22074 0
M  V30 4948 C 452.782 5.90943 -0.232426 0
M  V30 4949 H 451.712 0.743043 0.128075 0
M  V30 4950 H 454.363 1.79341 -0.388464 0
M  V30 4951 H 452.745 3.69532 1.42346 0
M  V30 4952 H 453.919 4.40718 -1.34551 0
M  V30 4953 H 452.234 4.02585 -1.06369 0
M  V30 4954 H 454.831 5.13626 1.48635 0
M  V30 4955 H 455.174 3.56057 2.15707 0
M  V30 4956 H 455.707 3.94612 0.502621 0
M  V30 4957 H 452.446 6.45567 -1.13683 0
M  V30 4958 H 451.966 5.9765 0.507357 0
M  V30 4959 H 453.645 6.4677 0.172657 0
M  V30 4960 N 453.777 0.010035 1.57597 0
M  V30 4961 C 455.017 -0.677084 1.9286 0
M  V30 4962 C 455.381 -1.70377 0.885192 0
M  V30 4963 O 456.582 -2.44199 1.12339 0
M  V30 4964 C 454.853 -1.29452 3.33132 0
M  V30 4965 S 456.412 -2.00537 3.90295 0
M  V30 4966 H 453.23 -0.223409 0.674989 0
M  V30 4967 H 455.832 0.0691289 1.95378 0
M  V30 4968 H 454.536 -0.534593 4.06903 0
M  V30 4969 H 454.067 -2.07845 3.34012 0
M  V30 4970 H 456.082 -3.28168 3.72183 0
M  V30 4971 N 455.255 -1.55392 -0.262866 0
M  V30 4972 C 456.483 -1.80513 -1.01108 0
M  V30 4973 C 456.898 -0.583533 -1.79556 0
M  V30 4974 O 456.255 0.447585 -1.76926 0
M  V30 4975 C 456.306 -3.03648 -1.96164 0
M  V30 4976 O 456.027 -4.2109 -1.20893 0
M  V30 4977 C 457.528 -3.41448 -2.82715 0
M  V30 4978 H 454.748 -0.601079 -0.298236 0
M  V30 4979 H 457.292 -2.02425 -0.290582 0
M  V30 4980 H 455.447 -2.83832 -2.63663 0
M  V30 4981 H 455.861 -4.90771 -1.85051 0
M  V30 4982 H 457.335 -4.30751 -3.45192 0
M  V30 4983 H 457.812 -2.61308 -3.53008 0
M  V30 4984 H 458.418 -3.63559 -2.20693 0
M  V30 4985 N 456.733 0.527833 -1.48498 0
M  V30 4986 C 457.981 1.28101 -1.56316 0
M  V30 4987 C 458.302 1.9352 -0.239781 0
M  V30 4988 O 457.572 1.81433 0.738849 0
M  V30 4989 H 456.152 0.475793 -0.575873 0
M  V30 4990 H 458.814 0.614052 -1.84974 0
M  V30 4991 H 457.91 2.05916 -2.34532 0
M  V30 4992 N 458.211 1.37122 0.776871 0
M  V30 4993 C 459.457 1.32243 1.53752 0
M  V30 4994 C 459.79 -0.0944745 1.9397 0
M  V30 4995 O 459.065 -1.05068 1.6368 0
M  V30 4996 C 459.348 2.25681 2.80607 0
M  V30 4997 C 459.201 3.76127 2.46676 0
M  V30 4998 C 460.52 2.17657 3.82509 0
M  V30 4999 H 457.639 0.481704 0.557791 0
M  V30 5000 H 460.281 1.6778 0.891612 0
M  V30 5001 H 458.431 1.95505 3.35723 0
M  V30 5002 H 460.103 4.16877 1.97513 0
M  V30 5003 H 458.346 3.94946 1.79443 0
M  V30 5004 H 459.017 4.36933 3.37333 0
M  V30 5005 H 461.493 2.44245 3.36873 0
M  V30 5006 H 460.369 2.85185 4.69 0
M  V30 5007 H 460.63 1.16785 4.26396 0
M  V30 5008 N 459.689 -1.00246 1.21608 0
M  V30 5009 C 461.1 -1.55511 1.03312 0
M  V30 5010 C 461.451 -1.91946 -0.406332 0
M  V30 5011 O 460.576 -1.73753 -1.28992 0
M  V30 5012 C 461.171 -2.82576 1.86913 0
M  V30 5013 C 459.73 -3.34318 1.72941 0
M  V30 5014 C 458.877 -2.07487 1.83968 0
M  V30 5015 H 461.828 -0.824638 1.35593 0
M  V30 5016 H 461.849 -3.54559 1.38087 0
M  V30 5017 H 461.361 -2.56026 2.91672 0
M  V30 5018 H 459.462 -3.65797 0.70877 0
M  V30 5019 H 459.575 -4.05566 2.55055 0
M  V30 5020 H 457.939 -2.20603 1.27304 0
M  V30 5021 H 458.722 -1.83346 2.9024 0
M  V30 5022 N 461.167 -1.02423 -1.1978 0
M  V30 5023 C 462.392 -0.7373 -1.93852 0
M  V30 5024 C 462.817 0.696923 -1.74713 0
M  V30 5025 O 462.175 1.48056 -1.04638 0
M  V30 5026 C 462.223 -1.08783 -3.438 0
M  V30 5027 O 461.327 -0.20383 -4.11896 0
M  V30 5028 H 460.668 -0.27284 -0.605355 0
M  V30 5029 H 463.198 -1.36966 -1.51992 0
M  V30 5030 H 463.208 -1.04276 -3.9445 0
M  V30 5031 H 461.883 -2.13274 -3.57053 0
M  V30 5032 H 460.46 -0.307091 -3.71633 0
M  V30 5033 N 462.645 1.35699 -0.801477 0
M  V30 5034 C 463.595 2.2728 -0.181073 0
M  V30 5035 C 464.579 1.47533 0.642098 0
M  V30 5036 O 465.771 1.69785 0.500193 0
M  V30 5037 C 462.9 3.36626 0.673612 0
M  V30 5038 C 461.986 4.23802 -0.159008 0
M  V30 5039 N 462.377 4.90879 -1.2195 0
M  V30 5040 C 460.675 4.45959 0.0602005 0
M  V30 5041 C 461.376 5.5546 -1.72738 0
M  V30 5042 N 460.352 5.33663 -1.03465 0
M  V30 5043 H 464.154 2.76632 -0.992582 0
M  V30 5044 H 461.668 1.49166 -0.642127 0
M  V30 5045 H 463.665 4.01179 1.13408 0
M  V30 5046 H 462.325 2.88828 1.48353 0
M  V30 5047 H 463.336 4.92497 -1.60209 0
M  V30 5048 H 460.013 4.08969 0.839664 0
M  V30 5049 H 461.403 6.18991 -2.61342 0
M  V30 5050 N 464.123 0.554532 1.47522 0
M  V30 5051 C 465.053 -0.182974 2.32782 0
M  V30 5052 C 466.034 -0.911377 1.43624 0
M  V30 5053 O 467.219 -0.892366 1.72483 0
M  V30 5054 C 464.349 -1.21513 3.25349 0
M  V30 5055 C 463.303 -0.603355 4.23726 0
M  V30 5056 C 462.629 -1.73995 5.05598 0
M  V30 5057 C 463.929 0.441121 5.20434 0
M  V30 5058 H 465.623 0.52882 2.94693 0
M  V30 5059 H 463.169 0.255759 1.41711 0
M  V30 5060 H 465.122 -1.73922 3.83835 0
M  V30 5061 H 463.846 -1.95683 2.61487 0
M  V30 5062 H 462.505 -0.10059 3.66462 0
M  V30 5063 H 462.153 -2.47063 4.38143 0
M  V30 5064 H 461.853 -1.3364 5.72201 0
M  V30 5065 H 463.377 -2.26735 5.66942 0
M  V30 5066 H 464.791 0.00319931 5.733 0
M  V30 5067 H 463.188 0.763402 5.95224 0
M  V30 5068 H 464.258 1.33799 4.66075 0
M  V30 5069 N 465.601 -1.54893 0.290851 0
M  V30 5070 C 466.564 -2.21824 -0.576784 0
M  V30 5071 C 467.564 -1.20104 -1.06919 0
M  V30 5072 O 468.754 -1.44906 -0.966843 0
M  V30 5073 C 465.886 -2.89662 -1.79747 0
M  V30 5074 H 467.079 -2.99899 0.00784051 0
M  V30 5075 H 464.632 -1.56245 0.0415934 0
M  V30 5076 H 465.367 -2.15639 -2.42219 0
M  V30 5077 H 465.152 -3.64219 -1.45214 0
M  V30 5078 H 466.642 -3.4075 -2.4141 0
M  V30 5079 N 467.08 -0.0183926 -1.57589 0
M  V30 5080 C 468.308 0.673046 -1.95647 0
M  V30 5081 C 468.723 1.66275 -0.894312 0
M  V30 5082 O 468.08 1.82072 0.124975 0
M  V30 5083 C 468.131 1.38884 -3.33756 0
M  V30 5084 O 467.852 0.438806 -4.35897 0
M  V30 5085 C 469.353 2.1731 -3.86383 0
M  V30 5086 H 466.573 0.186292 -0.644621 0
M  V30 5087 H 469.117 -0.0749748 -2.04363 0
M  V30 5088 H 467.272 2.08835 -3.26293 0
M  V30 5089 H 467.686 0.945869 -5.15901 0
M  V30 5090 H 469.16 2.62863 -4.85394 0
M  V30 5091 H 469.637 3.00764 -3.20059 0
M  V30 5092 H 470.243 1.52339 -3.97081 0
M  V30 5093 N 468.558 1.5553 0.254621 0
M  V30 5094 C 469.835 1.6774 1.00611 0
M  V30 5095 C 470.215 0.555993 2.03647 0
M  V30 5096 O 469.563 -0.441583 2.24193 0
M  V30 5097 C 469.773 3.07725 1.6464 0
M  V30 5098 C 471.121 3.66074 2.15116 0
M  V30 5099 O 472.145 3.10476 1.74595 0
M  V30 5100 O 471.004 4.63526 2.89493 0
M  V30 5101 H 468.098 0.681958 0.467828 0
M  V30 5102 H 470.644 1.67863 0.24902 0
M  V30 5103 H 469.416 3.80792 0.900734 0
M  V30 5104 H 469.039 3.1158 2.46989 0
M  V30 5105 N 470.036 -0.519951 1.48776 0
M  V30 5106 C 471.285 -1.27175 1.56555 0
M  V30 5107 C 471.598 -1.9401 0.248869 0
M  V30 5108 O 472.804 -2.70725 0.205004 0
M  V30 5109 C 471.26 -2.30811 2.76142 0
M  V30 5110 C 470.868 -1.7 4.14493 0
M  V30 5111 C 472.612 -3.06937 2.9324 0
M  V30 5112 C 470.519 -2.71635 5.25327 0
M  V30 5113 H 469.449 -0.478329 0.582853 0
M  V30 5114 H 472.1 -0.547916 1.75129 0
M  V30 5115 H 470.482 -3.06274 2.51023 0
M  V30 5116 H 471.656 -1.00658 4.49672 0
M  V30 5117 H 469.971 -1.06331 4.02595 0
M  V30 5118 H 472.568 -3.82905 3.73213 0
M  V30 5119 H 472.911 -3.63409 2.03075 0
M  V30 5120 H 473.444 -2.38589 3.18308 0
M  V30 5121 H 470.183 -2.1997 6.1749 0
M  V30 5122 H 469.703 -3.39275 4.94624 0
M  V30 5123 H 471.382 -3.34429 5.53865 0
M  V30 5124 N 471.514 -1.37532 -0.769588 0
M  V30 5125 C 472.424 -1.35668 -1.91393 0
M  V30 5126 C 473.44 -0.255954 -1.72107 0
M  V30 5127 O 474.616 -0.491704 -1.95305 0
M  V30 5128 C 471.681 -1.16481 -3.26547 0
M  V30 5129 C 470.742 -2.36212 -3.58472 0
M  V30 5130 C 469.975 -2.17932 -4.87177 0
M  V30 5131 O 470.198 -1.1647 -5.58382 0
M  V30 5132 O 469.132 -3.06167 -5.18214 0
M  V30 5133 H 472.958 -2.32055 -1.95918 0
M  V30 5134 H 470.543 -1.18284 -0.912641 0
M  V30 5135 H 472.425 -1.07778 -4.07384 0
M  V30 5136 H 471.1 -0.231687 -3.2287 0
M  V30 5137 H 470.007 -2.50488 -2.77861 0
M  V30 5138 H 471.34 -3.281 -3.66894 0
M  V30 5139 N 472.992 0.995999 -1.22138 0
M  V30 5140 C 473.922 2.10387 -1.01289 0
M  V30 5141 C 474.903 1.69975 0.0651454 0
M  V30 5142 O 476.088 1.9396 -0.0964628 0
M  V30 5143 C 473.218 3.42312 -0.586517 0
M  V30 5144 C 472.172 3.96558 -1.61014 0
M  V30 5145 C 471.498 5.24494 -1.0397 0
M  V30 5146 C 472.798 4.27595 -2.99933 0
M  V30 5147 H 474.492 2.28086 -1.93951 0
M  V30 5148 H 472.038 1.09607 -0.933928 0
M  V30 5149 H 473.991 4.19223 -0.427793 0
M  V30 5150 H 472.715 3.24431 0.375761 0
M  V30 5151 H 471.374 3.21776 -1.75658 0
M  V30 5152 H 471.022 5.02953 -0.0688703 0
M  V30 5153 H 470.722 5.61755 -1.72352 0
M  V30 5154 H 472.246 6.04042 -0.892494 0
M  V30 5155 H 473.66 4.95315 -2.8868 0
M  V30 5156 H 472.057 4.76021 -3.6541 0
M  V30 5157 H 473.127 3.35498 -3.50099 0
M  V30 5158 N 474.47 1.03057 1.19235 0
M  V30 5159 C 475.417 0.612832 2.22515 0
M  V30 5160 C 476.387 -0.374224 1.61829 0
M  V30 5161 O 477.572 -0.270501 1.88873 0
M  V30 5162 C 474.712 -0.028475 3.45088 0
M  V30 5163 C 473.825 1.00483 4.20151 0
M  V30 5164 C 472.96 0.333102 5.30155 0
M  V30 5165 C 471.999 1.3522 5.96977 0
M  V30 5166 N 471.136 0.70616 6.9854 0
M  V30 5167 H 475.976 1.49812 2.57605 0
M  V30 5168 H 473.513 0.749658 1.26564 0
M  V30 5169 H 475.471 -0.417548 4.15105 0
M  V30 5170 H 474.101 -0.877334 3.10649 0
M  V30 5171 H 473.153 1.51194 3.49062 0
M  V30 5172 H 474.465 1.77929 4.65986 0
M  V30 5173 H 473.619 -0.110725 6.06599 0
M  V30 5174 H 472.358 -0.473547 4.85396 0
M  V30 5175 H 471.363 1.80627 5.19282 0
M  V30 5176 H 472.588 2.16037 6.4382 0
M  V30 5177 H 470.534 -0.0803667 6.55951 0
M  V30 5178 H 470.451 1.41848 7.42573 0
M  V30 5179 H 471.719 0.286391 7.78974 0
M  V30 5180 N 475.948 -1.35272 0.808662 0
M  V30 5181 C 477.176 -2.02946 0.402537 0
M  V30 5182 C 477.591 -1.60937 -0.987147 0
M  V30 5183 O 476.948 -0.807917 -1.63643 0
M  V30 5184 C 476.999 -3.58317 0.47868 0
M  V30 5185 O 476.72 -3.98799 1.81358 0
M  V30 5186 C 478.221 -4.43251 0.0656281 0
M  V30 5187 H 475.441 -0.650831 0.163279 0
M  V30 5188 H 477.985 -1.72849 1.09286 0
M  V30 5189 H 476.14 -3.87055 -0.163415 0
M  V30 5190 H 476.554 -4.93451 1.77781 0
M  V30 5191 H 478.028 -5.51738 0.170017 0
M  V30 5192 H 478.505 -4.27913 -0.989278 0
M  V30 5193 H 479.111 -4.19813 0.68096 0
M  V30 5194 N 477.426 -0.562348 -1.47226 0
M  V30 5195 C 478.675 -0.038041 -2.01664 0
M  V30 5196 C 478.988 1.32199 -1.44162 0
M  V30 5197 O 480.194 1.9365 -1.90294 0
M  V30 5198 C 478.65 -0.0174958 -3.59896 0
M  V30 5199 C 478.258 -1.3746 -4.2639 0
M  V30 5200 C 480.002 0.453934 -4.22066 0
M  V30 5201 C 477.909 -1.31289 -5.76643 0
M  V30 5202 H 476.839 -0.0104511 -0.753928 0
M  V30 5203 H 479.49 -0.710966 -1.69167 0
M  V30 5204 H 477.872 0.721182 -3.89378 0
M  V30 5205 H 479.046 -2.1314 -4.08544 0
M  V30 5206 H 477.361 -1.78438 -3.7623 0
M  V30 5207 H 479.958 0.518584 -5.32179 0
M  V30 5208 H 480.301 1.46706 -3.89594 0
M  V30 5209 H 480.834 -0.230044 -3.97134 0
M  V30 5210 H 477.573 -2.30217 -6.13743 0
M  V30 5211 H 477.093 -0.597973 -5.96812 0
M  V30 5212 H 478.772 -1.01713 -6.38955 0
M  V30 5213 N 478.904 1.54736 -0.299062 0
M  V30 5214 C 479.854 2.20155 0.592932 0
M  V30 5215 C 480.838 1.1739 1.10038 0
M  V30 5216 O 482.03 1.43116 1.04147 0
M  V30 5217 C 479.159 2.94437 1.76527 0
M  V30 5218 C 478.245 4.04516 1.27388 0
M  V30 5219 N 478.636 5.03319 0.500339 0
M  V30 5220 C 476.934 4.18022 1.55478 0
M  V30 5221 C 477.635 5.81209 0.238909 0
M  V30 5222 N 476.611 5.37408 0.818163 0
M  V30 5223 H 480.413 2.93899 -0.00563596 0
M  V30 5224 H 477.927 1.62068 -0.103732 0
M  V30 5225 H 479.924 3.3977 2.41582 0
M  V30 5226 H 478.584 2.22209 2.36756 0
M  V30 5227 H 479.595 5.17696 0.145419 0
M  V30 5228 H 476.272 3.56998 2.16469 0
M  V30 5229 H 477.662 6.70812 -0.382223 0
M  V30 5230 N 480.382 0.0267497 1.57577 0
M  V30 5231 C 481.63 -0.651116 1.91324 0
M  V30 5232 C 481.951 -1.72804 0.90353 0
M  V30 5233 O 481.221 -1.95822 -0.0552946 0
M  V30 5234 H 479.801 -0.243491 0.706202 0
M  V30 5235 H 482.463 0.0739935 1.94759 0
M  V30 5236 H 481.559 -1.10536 2.9187 0
M  V30 5237 N 481.861 -1.55662 -0.24637 0
M  V30 5238 C 482.794 -1.85332 -1.33143 0
M  V30 5239 C 483.772 -0.708464 -1.46354 0
M  V30 5240 O 484.956 -0.954274 -1.6256 0
M  V30 5241 C 482.083 -2.0385 -2.70487 0
M  V30 5242 C 481.129 -3.26488 -2.74423 0
M  V30 5243 S 481.962 -4.83124 -2.30979 0
M  V30 5244 C 483.118 -5.04647 -3.70246 0
M  V30 5245 H 483.351 -2.77077 -1.07777 0
M  V30 5246 H 480.884 -1.47776 -0.44738 0
M  V30 5247 H 482.842 -2.15202 -3.49569 0
M  V30 5248 H 481.503 -1.12947 -2.9309 0
M  V30 5249 H 480.696 -3.36413 -3.7529 0
M  V30 5250 H 480.298 -3.13864 -2.03385 0
M  V30 5251 H 482.59 -4.92023 -4.65746 0
M  V30 5252 H 483.533 -6.06625 -3.65255 0
M  V30 5253 H 483.941 -4.32491 -3.62784 0
M  V30 5254 N 483.339 0.512053 -1.4905 0
M  V30 5255 C 484.272 1.63209 -1.59493 0
M  V30 5256 C 485.25 1.56407 -0.444481 0
M  V30 5257 O 486.434 1.76623 -0.658535 0
M  V30 5258 C 483.561 3.01685 -1.53961 0
M  V30 5259 C 482.607 3.26786 -2.74068 0
M  V30 5260 S 483.44 3.11107 -4.35859 0
M  V30 5261 C 484.596 4.51997 -4.32954 0
M  V30 5262 H 484.829 1.54104 -2.54243 0
M  V30 5263 H 482.362 0.696382 -1.37804 0
M  V30 5264 H 484.32 3.81538 -1.51455 0
M  V30 5265 H 482.981 3.08215 -0.605178 0
M  V30 5266 H 482.174 4.27849 -2.66386 0
M  V30 5267 H 481.776 2.54635 -2.73928 0
M  V30 5268 H 484.068 5.43871 -4.03993 0
M  V30 5269 H 485.011 4.64731 -5.34257 0
M  V30 5270 H 485.419 4.32159 -3.63178 0
M  V30 5271 N 484.817 1.37938 0.762283 0
M  V30 5272 C 486.094 1.24196 1.51112 0
M  V30 5273 C 486.474 -0.160409 2.1049 0
M  V30 5274 O 485.822 -1.16904 1.96331 0
M  V30 5275 C 486.032 2.34537 2.58445 0
M  V30 5276 C 487.38 2.7254 3.25588 0
M  V30 5277 O 488.404 2.33783 2.68745 0
M  V30 5278 O 487.263 3.39343 4.28379 0
M  V30 5279 H 484.357 0.485175 0.669727 0
M  V30 5280 H 486.903 1.49743 0.798438 0
M  V30 5281 H 485.675 3.28406 2.12756 0
M  V30 5282 H 485.298 2.10505 3.37303 0
M  V30 5283 N 486.295 -0.989507 1.22664 0
M  V30 5284 C 487.258 -2.06183 1.00106 0
M  V30 5285 C 488.258 -1.60765 -0.0337726 0
M  V30 5286 O 489.448 -1.72989 0.205072 0
M  V30 5287 C 486.58 -3.37021 0.51279 0
M  V30 5288 H 487.773 -2.27629 1.95256 0
M  V30 5289 H 485.326 -1.16158 1.0458 0
M  V30 5290 H 486.061 -3.21261 -0.442917 0
M  V30 5291 H 485.846 -3.71323 1.25942 0
M  V30 5292 H 487.336 -4.1591 0.375315 0
M  V30 5293 N 487.773 -1.03688 -1.18687 0
M  V30 5294 C 488.998 -0.757819 -1.93059 0
M  V30 5295 C 489.423 0.678353 -1.75442 0
M  V30 5296 O 488.781 1.46938 -1.06203 0
M  V30 5297 C 488.829 -1.12423 -3.42627 0
M  V30 5298 O 487.933 -0.247505 -4.11657 0
M  V30 5299 H 487.274 -0.279245 -0.602427 0
M  V30 5300 H 489.804 -1.3857 -1.5053 0
M  V30 5301 H 489.814 -1.08454 -3.93322 0
M  V30 5302 H 488.489 -2.17049 -3.54771 0
M  V30 5303 H 487.066 -0.34649 -3.71287 0
M  V30 5304 N 489.251 1.34841 -0.815825 0
M  V30 5305 C 490.161 2.33425 -0.234462 0
M  V30 5306 C 491.177 1.62295 0.627413 0
M  V30 5307 O 492.353 1.94109 0.536987 0
M  V30 5308 C 489.418 3.41471 0.599849 0
M  V30 5309 C 488.479 4.28362 -0.283596 0
M  V30 5310 C 487.712 5.31248 0.51099 0
M  V30 5311 O 487.935 5.43056 1.7449 0
M  V30 5312 O 486.869 6.01812 -0.10297 0
M  V30 5313 H 490.695 2.84962 -1.05024 0
M  V30 5314 H 488.28 1.37774 -0.577809 0
M  V30 5315 H 490.162 4.07464 1.07475 0
M  V30 5316 H 488.837 2.9219 1.39308 0
M  V30 5317 H 487.744 3.65318 -0.805836 0
M  V30 5318 H 489.077 4.81066 -1.041 0
M  V30 5319 N 490.729 0.570148 1.46925 0
M  V30 5320 C 491.676 -0.170257 2.30171 0
M  V30 5321 C 492.646 -0.896099 1.39855 0
M  V30 5322 O 493.831 -0.889248 1.68811 0
M  V30 5323 C 490.971 -1.18605 3.24079 0
M  V30 5324 C 490.084 -0.464947 4.29491 0
M  V30 5325 C 489.219 -1.46716 5.10537 0
M  V30 5326 C 488.258 -0.731758 6.0771 0
M  V30 5327 N 487.395 -1.68142 6.81669 0
M  V30 5328 H 492.235 0.545713 2.92961 0
M  V30 5329 H 489.772 0.280938 1.44392 0
M  V30 5330 H 491.73 -1.78771 3.76957 0
M  V30 5331 H 490.36 -1.86989 2.63125 0
M  V30 5332 H 489.412 0.251506 3.79568 0
M  V30 5333 H 490.724 0.110548 4.98677 0
M  V30 5334 H 489.878 -2.14199 5.6763 0
M  V30 5335 H 488.617 -2.07658 4.41282 0
M  V30 5336 H 487.622 -0.0430787 5.49783 0
M  V30 5337 H 488.847 -0.127904 6.7898 0
M  V30 5338 H 486.793 -2.27918 6.15134 0
M  V30 5339 H 486.71 -1.15841 7.47072 0
M  V30 5340 H 487.978 -2.347 7.43328 0
M  V30 5341 N 492.207 -1.54576 0.307264 0
M  V30 5342 C 493.435 -2.04675 -0.302597 0
M  V30 5343 C 493.85 -1.18425 -1.47041 0
M  V30 5344 O 493.207 -0.211257 -1.81273 0
M  V30 5345 C 493.258 -3.53575 -0.752801 0
M  V30 5346 O 492.979 -4.36547 0.368536 0
M  V30 5347 C 494.48 -4.19699 -1.42717 0
M  V30 5348 H 491.7 -0.66786 -0.0648374 0
M  V30 5349 H 494.244 -1.99516 0.448716 0
M  V30 5350 H 492.399 -3.59074 -1.45412 0
M  V30 5351 H 492.813 -5.24497 0.0168937 0
M  V30 5352 H 494.287 -5.25388 -1.69327 0
M  V30 5353 H 494.764 -3.69815 -2.36925 0
M  V30 5354 H 495.37 -4.18293 -0.768856 0
M  V30 5355 N 493.685 -0.035106 -1.57561 0
M  V30 5356 C 494.633 0.962707 -2.11742 0
M  V30 5357 C 495.627 1.33296 -1.0454 0
M  V30 5358 O 496.833 1.31449 -1.22968 0
M  V30 5359 H 493.208 0.32826 -0.676572 0
M  V30 5360 H 495.179 0.48048 -2.94506 0
M  V30 5361 C 493.928 2.23388 -2.66445 0
M  V30 5362 H 493.251 1.95774 -3.48587 0
M  V30 5363 H 494.691 2.91402 -3.07995 0
M  V30 5364 C 493.15 2.96769 -1.59467 0
M  V30 5365 O 493.68 3.89105 -0.998 0
M  V30 5366 N 491.886 2.59212 -1.31369 0
M  V30 5367 H 491.433 1.84202 -1.80076 0
M  V30 5368 H 491.391 3.08618 -0.600173 0
M  V30 5369 N 495.163 1.55791 0.238111 0
M  V30 5370 C 496.393 1.81834 0.980809 0
M  V30 5371 C 496.801 0.609741 1.79106 0
M  V30 5372 O 496.144 -0.431073 1.78571 0
M  V30 5373 C 496.206 3.01363 1.96011 0
M  V30 5374 C 495.87 4.37037 1.33597 0
M  V30 5375 C 496.867 5.14692 0.734063 0
M  V30 5376 C 494.552 4.83743 1.3527 0
M  V30 5377 C 496.546 6.37206 0.157208 0
M  V30 5378 C 494.233 6.06204 0.77199 0
M  V30 5379 C 495.231 6.82775 0.175282 0
M  V30 5380 O 494.919 8.02922 -0.396432 0
M  V30 5381 H 494.651 0.6088 0.293834 0
M  V30 5382 H 497.205 2.03702 0.263552 0
M  V30 5383 H 495.435 2.75273 2.71591 0
M  V30 5384 H 497.124 3.14422 2.56697 0
M  V30 5385 H 497.89 4.79722 0.713582 0
M  V30 5386 H 493.769 4.24129 1.80653 0
M  V30 5387 H 497.313 6.96915 -0.30917 0
M  V30 5388 H 493.21 6.4065 0.789828 0
M  V30 5389 H 493.978 8.17989 -0.289145 0
M  V30 5390 N 496.642 -0.504142 1.49319 0
M  V30 5391 C 497.87 -1.28256 1.62351 0
M  V30 5392 C 498.285 -1.86502 0.293682 0
M  V30 5393 O 497.642 -1.67678 -0.720449 0
M  V30 5394 C 497.693 -2.41507 2.68992 0
M  V30 5395 O 497.414 -1.85656 3.96817 0
M  V30 5396 C 498.915 -3.32929 2.927 0
M  V30 5397 H 496.135 -0.389115 0.546654 0
M  V30 5398 H 498.679 -0.605531 1.95329 0
M  V30 5399 H 496.834 -3.05046 2.38801 0
M  V30 5400 H 497.248 -2.59981 4.55533 0
M  V30 5401 H 498.722 -4.0868 3.71058 0
M  V30 5402 H 499.199 -3.89733 2.02496 0
M  V30 5403 H 499.805 -2.75158 3.24296 0
M  V30 5404 N 498.12 -1.38341 -0.754957 0
M  V30 5405 C 499.36 -1.35888 -1.52689 0
M  V30 5406 C 499.724 0.0513682 -1.91931 0
M  V30 5407 O 500.925 0.200761 -2.68049 0
M  V30 5408 C 499.196 -2.28666 -2.74676 0
M  V30 5409 S 500.755 -2.4422 -3.64558 0
M  V30 5410 H 497.573 -0.482165 -0.522531 0
M  V30 5411 H 500.175 -1.74253 -0.886358 0
M  V30 5412 H 498.879 -3.30023 -2.43953 0
M  V30 5413 H 498.41 -1.91445 -3.43675 0
M  V30 5414 H 500.425 -1.66525 -4.67423 0
M  V30 5415 N 499.598 0.982988 -1.23187 0
M  V30 5416 C 500.838 1.73903 -1.07412 0
M  V30 5417 C 501.202 1.88146 0.382764 0
M  V30 5418 O 502.403 2.6053 0.661638 0
M  V30 5419 C 500.674 3.10105 -1.77678 0
M  V30 5420 S 502.233 4.01323 -1.77441 0
M  V30 5421 H 499.051 0.598093 -0.384456 0
M  V30 5422 H 501.653 1.17456 -1.56283 0
M  V30 5423 H 500.357 2.97388 -2.82822 0
M  V30 5424 H 499.888 3.71622 -1.29077 0
M  V30 5425 H 501.903 4.89189 -0.831162 0
M  V30 5426 N 501.076 1.04316 1.18135 0
M  V30 5427 C 502.492 0.762858 1.40188 0
M  V30 5428 C 502.692 -0.646547 1.90846 0
M  V30 5429 O 501.748 -1.41036 2.0944 0
M  V30 5430 C 503.061 1.81106 2.40044 0
M  V30 5431 C 504.609 1.83226 2.53766 0
M  V30 5432 C 505.084 2.87044 3.56889 0
M  V30 5433 N 506.575 2.85951 3.64398 0
M  V30 5434 C 507.31 3.62932 4.43923 0
M  V30 5435 N 506.806 4.49672 5.27036 0
M  V30 5436 N 508.599 3.51411 4.38711 0
M  V30 5437 H 500.75 1.95264 0.835805 0
M  V30 5438 H 503.013 0.845017 0.429709 0
M  V30 5439 H 502.719 2.82214 2.09876 0
M  V30 5440 H 502.593 1.64529 3.39426 0
M  V30 5441 H 504.98 0.827869 2.8325 0
M  V30 5442 H 505.061 2.03879 1.54489 0
M  V30 5443 H 504.705 3.87663 3.28145 0
M  V30 5444 H 504.635 2.63645 4.5585 0
M  V30 5445 H 507.126 2.23051 3.05052 0
M  V30 5446 H 507.439 5.05116 5.84874 0
M  V30 5447 H 505.784 4.53738 5.26447 0
M  V30 5448 H 508.975 2.83047 3.72829 0
M  V30 5449 H 509.148 4.11654 5.00445 0
M  V30 5450 N 502.554 -1.34406 0.822964 0
M  V30 5451 C 503.484 -2.32052 0.259608 0
M  V30 5452 C 504.465 -1.58243 -0.623961 0
M  V30 5453 O 505.65 -1.86224 -0.55083 0
M  V30 5454 C 502.78 -3.42434 -0.579314 0
M  V30 5455 C 501.734 -4.27499 0.20712 0
M  V30 5456 C 501.06 -5.29349 -0.754547 0
M  V30 5457 C 502.36 -5.02758 1.41533 0
M  V30 5458 H 504.054 -2.79418 1.07545 0
M  V30 5459 H 501.6 -1.34338 0.518593 0
M  V30 5460 H 503.553 -4.0976 -0.983612 0
M  V30 5461 H 502.277 -2.93717 -1.4282 0
M  V30 5462 H 500.936 -3.61776 0.592787 0
M  V30 5463 H 500.584 -4.76895 -1.59939 0
M  V30 5464 H 500.284 -5.8714 -0.232561 0
M  V30 5465 H 501.808 -5.99544 -1.1567 0
M  V30 5466 H 503.222 -5.62938 1.08504 0
M  V30 5467 H 501.619 -5.70123 1.87296 0
M  V30 5468 H 502.689 -4.32451 2.1935 0
M  V30 5469 N 504.032 -0.577932 -1.46621 0
M  V30 5470 C 504.964 0.195801 -2.28362 0
M  V30 5471 C 505.977 0.859983 -1.38232 0
M  V30 5472 O 507.166 0.730349 -1.62875 0
M  V30 5473 C 504.266 1.29639 -3.13124 0
M  V30 5474 C 503.439 0.725049 -4.31349 0
M  V30 5475 C 502.498 1.71274 -4.97546 0
M  V30 5476 O 501.524 1.25067 -5.5529 0
M  V30 5477 N 502.726 3.04672 -4.94121 0
M  V30 5478 H 505.491 -0.505468 -2.95407 0
M  V30 5479 H 503.052 -0.415381 -1.56481 0
M  V30 5480 H 505.044 1.95631 -3.54275 0
M  V30 5481 H 503.614 1.90059 -2.48186 0
M  V30 5482 H 502.834 -0.112205 -3.9404 0
M  V30 5483 H 504.122 0.323034 -5.07774 0
M  V30 5484 H 503.52 3.4484 -4.48444 0
M  V30 5485 H 502.077 3.66166 -5.39227 0
M  V30 5486 N 505.51 1.54411 -0.315457 0
M  V30 5487 C 506.926 1.59556 0.037464 0
M  V30 5488 C 507.126 1.33217 1.5118 0
M  V30 5489 O 506.182 1.11264 2.26664 0
M  V30 5490 C 507.495 2.98372 -0.373477 0
M  V30 5491 C 509.043 3.11324 -0.323452 0
M  V30 5492 C 509.518 4.52472 -0.709433 0
M  V30 5493 N 511.009 4.58437 -0.662524 0
M  V30 5494 C 511.744 5.65751 -0.933474 0
M  V30 5495 N 511.24 6.81039 -1.27114 0
M  V30 5496 N 513.033 5.55489 -0.859573 0
M  V30 5497 H 505.184 1.6979 -1.27614 0
M  V30 5498 H 507.447 0.793732 -0.518356 0
M  V30 5499 H 507.153 3.22618 -1.40037 0
M  V30 5500 H 507.027 3.76264 0.265615 0
M  V30 5501 H 509.414 2.86818 0.694223 0
M  V30 5502 H 509.495 2.35555 -0.997367 0
M  V30 5503 H 509.139 4.7771 -1.72498 0
M  V30 5504 H 509.069 5.26598 -0.0132923 0
M  V30 5505 H 511.56 3.75636 -0.413065 0
M  V30 5506 H 511.873 7.58816 -1.46348 0
M  V30 5507 H 510.218 6.82555 -1.30932 0
M  V30 5508 H 513.409 4.64299 -0.595324 0
M  V30 5509 H 513.582 6.39036 -1.0741 0
M  V30 5510 N 506.988 0.0434614 1.5754 0
M  V30 5511 C 507.938 -0.943039 2.07583 0
M  V30 5512 C 508.922 -1.27662 0.979342 0
M  V30 5513 O 510.114 -1.26034 1.24276 0
M  V30 5514 C 507.243 -2.22056 2.61813 0
M  V30 5515 C 506.329 -1.91471 3.78417 0
M  V30 5516 N 506.72 -1.31214 4.88484 0
M  V30 5517 C 505.018 -2.21384 3.87176 0
M  V30 5518 C 505.719 -1.18084 5.69588 0
M  V30 5519 N 504.695 -1.68116 5.16951 0
M  V30 5520 H 508.497 -0.472354 2.90079 0
M  V30 5521 H 506.011 -0.161191 1.61598 0
M  V30 5522 H 508.008 -2.93618 2.95963 0
M  V30 5523 H 506.668 -2.69738 1.80752 0
M  V30 5524 H 507.679 -0.985318 5.08441 0
M  V30 5525 H 504.356 -2.7164 3.17046 0
M  V30 5526 H 505.746 -0.713684 6.68099 0
M  V30 5527 N 508.466 -1.55915 -0.229846 0
M  V30 5528 C 509.376 -1.94891 -1.30593 0
M  V30 5529 C 510.392 -0.851604 -1.51736 0
M  V30 5530 O 511.568 -1.15447 -1.65027 0
M  V30 5531 C 508.633 -2.25052 -2.63728 0
M  V30 5532 C 507.694 -3.48306 -2.5096 0
M  V30 5533 C 506.927 -3.77019 -3.77747 0
M  V30 5534 O 507.15 -3.07534 -4.80395 0
M  V30 5535 O 506.084 -4.70523 -3.75356 0
M  V30 5536 H 509.91 -2.86581 -1.00525 0
M  V30 5537 H 507.495 -1.43017 -0.432025 0
M  V30 5538 H 509.377 -2.45682 -3.42372 0
M  V30 5539 H 508.052 -1.36538 -2.93495 0
M  V30 5540 H 506.959 -3.32964 -1.70546 0
M  V30 5541 H 508.292 -4.37177 -2.26136 0
M  V30 5542 N 509.944 0.496216 -1.49584 0
M  V30 5543 C 511.19 1.24918 -1.60521 0
M  V30 5544 C 511.545 1.90197 -0.290352 0
M  V30 5545 O 510.838 1.77967 0.709813 0
M  V30 5546 C 511.032 2.3359 -2.705 0
M  V30 5547 C 510.861 1.78969 -4.12553 0
M  V30 5548 C 509.631 1.60057 -4.79281 0
M  V30 5549 C 511.829 1.29883 -4.97629 0
M  V30 5550 N 509.811 1.00415 -6.05632 0
M  V30 5551 C 511.182 0.824057 -6.14499 0
M  V30 5552 C 513.237 1.18501 -4.83593 0
M  V30 5553 C 511.94 0.246721 -7.18877 0
M  V30 5554 C 513.966 0.621634 -5.88124 0
M  V30 5555 C 513.328 0.157116 -7.04225 0
M  V30 5556 H 509.427 0.446896 -0.641722 0
M  V30 5557 H 512.011 0.555456 -1.86609 0
M  V30 5558 H 510.182 3.00418 -2.46178 0
M  V30 5559 H 511.914 3.00628 -2.70933 0
M  V30 5560 H 508.669 1.84562 -4.36158 0
M  V30 5561 H 509.093 0.725074 -6.73106 0
M  V30 5562 H 513.735 1.53012 -3.94141 0
M  V30 5563 H 511.453 -0.110651 -8.08024 0
M  V30 5564 H 515.039 0.536279 -5.79323 0
M  V30 5565 H 513.919 -0.272009 -7.83728 0
M  V30 5566 N 511.423 1.38739 0.74761 0
M  V30 5567 C 512.371 1.36573 1.88283 0
M  V30 5568 C 513.365 0.250712 1.67534 0
M  V30 5569 O 514.571 0.420073 1.7503 0
M  V30 5570 H 510.946 0.42619 0.619569 0
M  V30 5571 H 512.917 2.32356 1.87226 0
M  V30 5572 C 511.666 1.21361 3.25832 0
M  V30 5573 H 510.989 2.06424 3.42388 0
M  V30 5574 H 512.429 1.23901 4.05493 0
M  V30 5575 C 510.888 -0.0790099 3.36807 0
M  V30 5576 O 511.418 -1.05385 3.8763 0
M  V30 5577 N 509.624 -0.13785 2.90273 0
M  V30 5578 H 509.171 0.656128 2.49104 0
M  V30 5579 H 509.129 -1.00228 2.97996 0
M  V30 5580 N 512.901 -0.976442 1.23707 0
M  V30 5581 C 513.848 -2.06952 1.02174 0
M  V30 5582 C 514.818 -1.65984 -0.0621034 0
M  V30 5583 O 516.003 -1.90584 0.0907906 0
M  V30 5584 C 513.143 -3.39425 0.62327 0
M  V30 5585 C 512.256 -3.9364 1.77966 0
M  V30 5586 C 511.391 -5.14343 1.3276 0
M  V30 5587 C 510.43 -5.60733 2.45449 0
M  V30 5588 N 509.567 -6.72662 2.01172 0
M  V30 5589 H 514.407 -2.24704 1.95734 0
M  V30 5590 H 511.944 -1.10143 0.975034 0
M  V30 5591 H 513.902 -4.15526 0.37332 0
M  V30 5592 H 512.532 -3.21624 -0.275329 0
M  V30 5593 H 511.584 -3.14258 2.14351 0
M  V30 5594 H 512.896 -4.24035 2.62671 0
M  V30 5595 H 512.05 -5.97789 1.03601 0
M  V30 5596 H 510.789 -4.8561 0.450975 0
M  V30 5597 H 509.794 -4.75865 2.75378 0
M  V30 5598 H 511.019 -5.91483 3.33654 0
M  V30 5599 H 508.965 -6.45681 1.15895 0
M  V30 5600 H 508.882 -7.02462 2.79434 0
M  V30 5601 H 510.15 -7.59572 1.75129 0
M  V30 5602 N 514.379 -1.04941 -1.1758 0
M  V30 5603 C 515.329 -0.618378 -2.19454 0
M  V30 5604 C 516.313 0.343813 -1.57184 0
M  V30 5605 O 517.505 0.16145 -1.76262 0
M  V30 5606 C 514.634 0.00803847 -3.43299 0
M  V30 5607 C 513.72 -0.977827 -4.12673 0
M  V30 5608 N 514.111 -2.14826 -4.57912 0
M  V30 5609 C 512.409 -0.805748 -4.38661 0
M  V30 5610 C 513.11 -2.77174 -5.11419 0
M  V30 5611 N 512.086 -2.04989 -5.03468 0
M  V30 5612 H 515.888 -1.51018 -2.52132 0
M  V30 5613 H 513.402 -0.919201 -1.33882 0
M  V30 5614 H 515.399 0.334584 -4.15555 0
M  V30 5615 H 514.059 0.895272 -3.12114 0
M  V30 5616 H 515.07 -2.52673 -4.52081 0
M  V30 5617 H 511.747 0.0306506 -4.17489 0
M  V30 5618 H 513.137 -3.76416 -5.56562 0
M  V30 5619 N 515.857 1.33968 -0.830081 0
M  V30 5620 C 517.105 1.97672 -0.420734 0
M  V30 5621 C 517.426 1.66111 1.02138 0
M  V30 5622 O 516.696 0.955503 1.71017 0
M  V30 5623 H 515.276 0.73125 -0.152587 0
M  V30 5624 H 517.938 1.63483 -1.0611 0
M  V30 5625 H 517.034 3.07294 -0.545588 0
M  V30 5626 N 517.335 0.585699 1.46312 0
M  V30 5627 C 518.581 0.0808731 2.03239 0
M  V30 5628 C 518.936 -1.26609 1.44872 0
M  V30 5629 O 518.229 -1.81779 0.60556 0
M  V30 5630 C 518.423 -0.0401312 3.57377 0
M  V30 5631 C 518.252 1.29356 4.30694 0
M  V30 5632 C 517.022 1.86849 4.69484 0
M  V30 5633 C 519.22 2.21742 4.64042 0
M  V30 5634 N 517.202 3.13926 5.27564 0
M  V30 5635 C 518.573 3.33408 5.22723 0
M  V30 5636 C 520.628 2.21386 4.45974 0
M  V30 5637 C 519.331 4.44852 5.65242 0
M  V30 5638 C 521.357 3.31862 4.89511 0
M  V30 5639 C 520.719 4.42248 5.48266 0
M  V30 5640 H 516.818 0.072443 0.778637 0
M  V30 5641 H 519.402 0.779254 1.78426 0
M  V30 5642 H 517.573 -0.707686 3.81898 0
M  V30 5643 H 519.305 -0.549615 4.00951 0
M  V30 5644 H 516.06 1.40307 4.52339 0
M  V30 5645 H 516.484 3.78775 5.61122 0
M  V30 5646 H 521.126 1.37314 3.99881 0
M  V30 5647 H 518.844 5.29665 6.10312 0
M  V30 5648 H 522.43 3.32708 4.7728 0
M  V30 5649 H 521.31 5.26323 5.81338 0
M  V30 5650 N 518.813 -1.54241 0.323641 0
M  V30 5651 C 520.053 -2.0248 -0.279502 0
M  V30 5652 C 520.417 -1.20672 -1.49339 0
M  V30 5653 O 521.618 -1.58715 -2.1694 0
M  V30 5654 C 519.889 -3.52238 -0.605266 0
M  V30 5655 S 521.448 -4.22411 -1.18805 0
M  V30 5656 H 518.266 -0.705957 -0.0845313 0
M  V30 5657 H 520.868 -1.90089 0.456781 0
M  V30 5658 H 519.572 -4.094 0.286339 0
M  V30 5659 H 519.103 -3.6871 -1.37174 0
M  V30 5660 H 521.118 -4.30075 -2.47487 0
M  V30 5661 N 520.291 -0.0518155 -1.57515 0
M  V30 5662 C 521.239 0.940195 -2.12751 0
M  V30 5663 C 522.233 1.3218 -1.05948 0
M  V30 5664 O 523.439 1.30138 -1.24355 0
M  V30 5665 H 519.814 0.321066 -0.680015 0
M  V30 5666 H 521.785 0.449217 -2.94999 0
M  V30 5667 C 520.534 2.2055 -2.68799 0
M  V30 5668 H 519.857 1.92066 -3.50643 0
M  V30 5669 H 521.297 2.88119 -3.11068 0
M  V30 5670 C 519.756 2.95061 -1.62605 0
M  V30 5671 O 520.286 3.88025 -1.03921 0
M  V30 5672 N 518.492 2.57804 -1.34111 0
M  V30 5673 H 518.039 1.82281 -1.8202 0
M  V30 5674 H 517.997 3.07964 -0.632872 0
M  V30 5675 N 521.769 1.56035 0.221574 0
M  V30 5676 C 523.015 1.80221 0.942973 0
M  V30 5677 C 523.37 0.624799 1.81973 0
M  V30 5678 O 522.663 -0.381145 1.87771 0
M  V30 5679 C 522.857 3.07813 1.8162 0
M  V30 5680 C 522.686 4.37852 1.02548 0
M  V30 5681 C 521.456 5.00138 0.720418 0
M  V30 5682 C 523.654 5.12813 0.390799 0
M  V30 5683 N 521.636 6.13831 -0.0917139 0
M  V30 5684 C 523.007 6.19346 -0.284728 0
M  V30 5685 C 525.062 4.96972 0.303828 0
M  V30 5686 C 523.765 7.11758 -1.03891 0
M  V30 5687 C 525.791 5.89784 -0.436883 0
M  V30 5688 C 525.153 6.95743 -1.10095 0
M  V30 5689 H 521.252 0.711117 0.325325 0
M  V30 5690 H 523.836 1.93522 0.213854 0
M  V30 5691 H 522.007 2.95795 2.51714 0
M  V30 5692 H 523.739 3.20191 2.47508 0
M  V30 5693 H 520.494 4.62075 1.03843 0
M  V30 5694 H 520.918 6.75249 -0.486615 0
M  V30 5695 H 525.56 4.15107 0.802896 0
M  V30 5696 H 523.278 7.93105 -1.54949 0
M  V30 5697 H 526.864 5.79603 -0.505181 0
M  V30 5698 H 525.744 7.66322 -1.66495 0
M  V30 5699 N 523.247 -0.488276 1.49845 0
M  V30 5700 C 524.477 -1.26344 1.63465 0
M  V30 5701 C 524.885 -1.86637 0.310379 0
M  V30 5702 O 524.228 -1.69184 -0.715712 0
M  V30 5703 C 524.29 -2.42407 2.65479 0
M  V30 5704 C 523.954 -2.02886 4.09495 0
M  V30 5705 C 524.951 -1.56124 4.95904 0
M  V30 5706 C 522.636 -2.12131 4.55308 0
M  V30 5707 C 524.63 -1.19129 6.26169 0
M  V30 5708 C 522.317 -1.74747 5.85582 0
M  V30 5709 C 523.315 -1.28322 6.70837 0
M  V30 5710 O 523.003 -0.914491 7.98682 0
M  V30 5711 H 522.735 -0.388921 0.552916 0
M  V30 5712 H 525.289 -0.591288 1.96705 0
M  V30 5713 H 523.519 -3.12739 2.27445 0
M  V30 5714 H 525.208 -3.04409 2.68495 0
M  V30 5715 H 525.974 -1.48417 4.61733 0
M  V30 5716 H 521.853 -2.47217 3.89107 0
M  V30 5717 H 525.397 -0.828211 6.92666 0
M  V30 5718 H 521.294 -1.82109 6.19279 0
M  V30 5719 H 522.062 -1.04485 8.11804 0
M  V30 5720 N 524.725 -1.39134 -0.740242 0
M  V30 5721 C 525.673 -1.3757 -1.87556 0
M  V30 5722 C 526.667 -0.259593 -1.67399 0
M  V30 5723 O 527.873 -0.429349 -1.74804 0
M  V30 5724 H 524.248 -0.42947 -0.6173 0
M  V30 5725 H 526.219 -2.33345 -1.85991 0
M  V30 5726 C 524.968 -1.23087 -3.25184 0
M  V30 5727 H 524.291 -2.08237 -3.41288 0
M  V30 5728 H 525.731 -1.26049 -4.0483 0
M  V30 5729 C 524.19 0.0611471 -3.36845 0
M  V30 5730 O 524.72 1.03328 -3.88183 0
M  V30 5731 N 522.926 0.122454 -2.90342 0
M  V30 5732 H 522.473 -0.669329 -2.48752 0
M  V30 5733 H 522.431 0.986463 -2.98523 0
M  V30 5734 N 526.204 0.969867 -1.24223 0
M  V30 5735 C 527.453 1.70687 -1.07466 0
M  V30 5736 C 527.766 1.91736 0.386861 0
M  V30 5737 O 528.972 2.62986 0.674581 0
M  V30 5738 C 527.428 3.07217 -1.87472 0
M  V30 5739 C 527.036 2.94018 -3.3802 0
M  V30 5740 C 528.78 3.84804 -1.79237 0
M  V30 5741 C 526.687 4.25844 -4.10379 0
M  V30 5742 H 525.617 0.640067 -0.398536 0
M  V30 5743 H 528.268 1.08092 -1.48285 0
M  V30 5744 H 526.65 3.70628 -1.39466 0
M  V30 5745 H 527.824 2.39632 -3.9359 0
M  V30 5746 H 526.139 2.29898 -3.47183 0
M  V30 5747 H 528.736 4.82417 -2.30603 0
M  V30 5748 H 529.079 4.09356 -0.757197 0
M  V30 5749 H 529.612 3.28115 -2.24912 0
M  V30 5750 H 526.351 4.06486 -5.14246 0
M  V30 5751 H 525.871 4.80054 -3.59594 0
M  V30 5752 H 527.55 4.94475 -4.17257 0
M  V30 5753 N 527.682 1.05563 1.17022 0
M  V30 5754 C 528.592 0.670758 2.24807 0
M  V30 5755 C 529.608 -0.309865 1.71219 0
M  V30 5756 O 530.784 -0.161025 2.00755 0
M  V30 5757 C 527.849 0.055337 3.46656 0
M  V30 5758 C 526.91 1.08688 4.15314 0
M  V30 5759 C 526.143 0.500736 5.31346 0
M  V30 5760 O 526.366 -0.688718 5.66227 0
M  V30 5761 O 525.3 1.23683 5.89055 0
M  V30 5762 H 529.126 1.56914 2.60023 0
M  V30 5763 H 526.711 0.827428 1.24395 0
M  V30 5764 H 528.593 -0.286492 4.20425 0
M  V30 5765 H 527.268 -0.816638 3.13229 0
M  V30 5766 H 526.175 1.48077 3.43546 0
M  V30 5767 H 527.508 1.93014 4.52777 0
M  V30 5768 N 529.16 -1.33526 0.837174 0
M  V30 5769 C 530.571 -1.80182 0.489017 0
M  V30 5770 C 530.922 -1.69285 -0.991826 0
M  V30 5771 O 530.047 -1.24113 -1.77271 0
M  V30 5772 C 530.642 -3.27149 0.880866 0
M  V30 5773 C 529.201 -3.71828 0.584872 0
M  V30 5774 C 528.348 -2.54974 1.09011 0
M  V30 5775 H 531.299 -1.21071 1.02603 0
M  V30 5776 H 531.32 -3.80024 0.190239 0
M  V30 5777 H 530.832 -3.35048 1.95869 0
M  V30 5778 H 528.933 -3.69457 -0.48295 0
M  V30 5779 H 529.046 -4.65366 1.13892 0
M  V30 5780 H 527.41 -2.4952 0.511047 0
M  V30 5781 H 528.193 -2.65637 2.17467 0
M  V30 5782 N 530.638 -0.59345 -1.46 0
M  V30 5783 C 531.884 -0.0916503 -2.03193 0
M  V30 5784 C 532.239 1.25839 -1.45541 0
M  V30 5785 O 531.532 1.81455 -0.615191 0
M  V30 5786 C 531.726 0.021178 -3.57394 0
M  V30 5787 C 531.555 -1.31638 -4.30002 0
M  V30 5788 C 530.325 -1.89336 -4.68487 0
M  V30 5789 C 532.523 -2.242 -4.62859 0
M  V30 5790 N 530.505 -3.1672 -5.25891 0
M  V30 5791 C 531.876 -3.36175 -5.20948 0
M  V30 5792 C 533.931 -2.23748 -4.44794 0
M  V30 5793 C 532.634 -4.47844 -5.62875 0
M  V30 5794 C 534.66 -3.34454 -4.87744 0
M  V30 5795 C 534.022 -4.4515 -5.45913 0
M  V30 5796 H 530.121 -0.0765713 -0.778242 0
M  V30 5797 H 532.705 -0.788705 -1.7801 0
M  V30 5798 H 530.876 0.687423 -3.82268 0
M  V30 5799 H 532.608 0.528343 -4.01236 0
M  V30 5800 H 529.363 -1.42704 -4.51589 0
M  V30 5801 H 529.787 -3.81746 -5.59106 0
M  V30 5802 H 534.429 -1.39433 -3.99147 0
M  V30 5803 H 532.147 -5.32894 -6.07495 0
M  V30 5804 H 535.733 -3.35234 -4.75509 0
M  V30 5805 H 534.613 -5.29398 -5.78539 0
M  V30 5806 N 532.116 1.54067 -0.331816 0
M  V30 5807 C 533.365 1.99895 0.269209 0
M  V30 5808 C 533.678 1.22371 1.52593 0
M  V30 5809 O 534.884 1.58618 2.20347 0
M  V30 5810 C 533.34 3.55972 0.530244 0
M  V30 5811 C 532.948 4.4234 -0.709901 0
M  V30 5812 C 534.692 4.10247 1.09077 0
M  V30 5813 C 532.599 5.89905 -0.420312 0
M  V30 5814 H 531.529 0.746741 0.104371 0
M  V30 5815 H 534.18 1.78014 -0.445324 0
M  V30 5816 H 532.562 3.73873 1.30518 0
M  V30 5817 H 533.736 4.36215 -1.48504 0
M  V30 5818 H 532.051 3.98997 -1.19123 0
M  V30 5819 H 534.648 5.18095 1.32219 0
M  V30 5820 H 534.991 3.62739 2.0427 0
M  V30 5821 H 535.524 3.96011 0.376824 0
M  V30 5822 H 532.263 6.41623 -1.34164 0
M  V30 5823 H 531.783 5.98962 0.316962 0
M  V30 5824 H 533.462 6.46991 -0.0331956 0
M  V30 5825 N 533.594 0.0601682 1.57485 0
M  V30 5826 C 534.524 -0.90889 2.15085 0
M  V30 5827 C 535.505 -1.31838 1.07484 0
M  V30 5828 O 536.69 -1.3915 1.35466 0
M  V30 5829 C 533.82 -2.18059 2.7031 0
M  V30 5830 C 532.774 -1.91088 3.82974 0
M  V30 5831 C 532.1 -3.24789 4.24754 0
M  V30 5832 C 533.4 -1.22535 5.07723 0
M  V30 5833 H 535.094 -0.429093 2.96309 0
M  V30 5834 H 532.64 -0.204952 1.42534 0
M  V30 5835 H 534.593 -2.86258 3.09248 0
M  V30 5836 H 533.317 -2.6826 1.8629 0
M  V30 5837 H 531.976 -1.25297 3.44523 0
M  V30 5838 H 531.624 -3.72809 3.37672 0
M  V30 5839 H 531.324 -3.07538 5.00694 0
M  V30 5840 H 532.848 -3.94205 4.66299 0
M  V30 5841 H 534.262 -1.80783 5.4405 0
M  V30 5842 H 532.659 -1.1558 5.88864 0
M  V30 5843 H 533.729 -0.202692 4.84476 0
M  V30 5844 N 535.072 -1.5615 -0.213296 0
M  V30 5845 C 536.318 -1.79812 -0.937849 0
M  V30 5846 C 536.651 -0.631201 -1.83656 0
M  V30 5847 O 535.926 0.369165 -1.90964 0
M  V30 5848 C 536.209 -3.13613 -1.76972 0
M  V30 5849 C 536.062 -4.40766 -0.89695 0
M  V30 5850 C 537.381 -3.43931 -2.7459 0
M  V30 5851 H 534.5 -0.654138 -0.339518 0
M  V30 5852 H 537.142 -1.88877 -0.20623 0
M  V30 5853 H 535.292 -3.06015 -2.39347 0
M  V30 5854 H 536.964 -4.60392 -0.289306 0
M  V30 5855 H 535.207 -4.33326 -0.202756 0
M  V30 5856 H 535.878 -5.30843 -1.51358 0
M  V30 5857 H 538.354 -3.5171 -2.22349 0
M  V30 5858 H 537.23 -4.38706 -3.29891 0
M  V30 5859 H 537.491 -2.6651 -3.52739 0
M  V30 5860 N 536.55 0.480323 -1.50102 0
M  V30 5861 C 537.483 1.59789 -1.62919 0
M  V30 5862 C 538.461 1.55429 -0.477557 0
M  V30 5863 O 539.645 1.75186 -0.695851 0
M  V30 5864 C 536.772 2.98351 -1.60325 0
M  V30 5865 C 535.818 3.20899 -2.80938 0
M  V30 5866 S 536.651 3.01791 -4.4236 0
M  V30 5867 C 537.807 4.42712 -4.42444 0
M  V30 5868 H 538.04 1.48676 -2.57454 0
M  V30 5869 H 535.573 0.666996 -1.3925 0
M  V30 5870 H 537.531 3.7824 -1.59514 0
M  V30 5871 H 536.192 3.06862 -0.670419 0
M  V30 5872 H 535.385 4.22102 -2.75401 0
M  V30 5873 H 534.987 2.48768 -2.79268 0
M  V30 5874 H 537.279 5.3518 -4.15438 0
M  V30 5875 H 538.222 4.53294 -5.43995 0
M  V30 5876 H 538.63 4.24359 -3.72263 0
M  V30 5877 N 538.028 1.39524 0.732853 0
M  V30 5878 C 538.976 1.38563 1.86824 0
M  V30 5879 C 539.97 0.268467 1.67259 0
M  V30 5880 O 541.176 0.438613 1.74574 0
M  V30 5881 H 537.551 0.432737 0.615014 0
M  V30 5882 H 539.522 2.34328 1.84751 0
M  V30 5883 C 538.271 1.2481 3.24527 0
M  V30 5884 H 537.594 2.10044 3.40179 0
M  V30 5885 H 539.034 1.28194 4.04156 0
M  V30 5886 C 537.493 -0.0432825 3.36872 0
M  V30 5887 O 538.023 -1.01268 3.88726 0
M  V30 5888 N 536.229 -0.107055 2.90403 0
M  V30 5889 H 535.776 0.682512 2.48394 0
M  V30 5890 H 535.734 -0.970618 2.99042 0
M  V30 5891 N 539.506 -0.963266 1.24736 0
M  V30 5892 C 540.922 -1.23273 1.01371 0
M  V30 5893 C 541.122 -1.99618 -0.274776 0
M  V30 5894 O 540.178 -2.32293 -0.989769 0
M  V30 5895 C 541.491 -2.01554 2.23152 0
M  V30 5896 C 543.039 -2.14629 2.27823 0
M  V30 5897 C 543.514 -2.96307 3.49237 0
M  V30 5898 N 545.005 -3.03887 3.49581 0
M  V30 5899 C 545.74 -3.67456 4.40186 0
M  V30 5900 N 545.236 -4.32706 5.41052 0
M  V30 5901 N 547.029 -3.64511 4.27888 0
M  V30 5902 H 539.18 -0.452294 2.07528 0
M  V30 5903 H 541.443 -0.262521 0.910926 0
M  V30 5904 H 541.149 -1.52847 3.1675 0
M  V30 5905 H 541.023 -3.02278 2.25628 0
M  V30 5906 H 543.41 -2.62537 1.34753 0
M  V30 5907 H 543.491 -1.13238 2.2937 0
M  V30 5908 H 543.135 -2.49091 4.42624 0
M  V30 5909 H 543.065 -3.97905 3.44933 0
M  V30 5910 H 545.556 -2.57477 2.76611 0
M  V30 5911 H 545.869 -4.79042 6.06415 0
M  V30 5912 H 544.214 -4.31361 5.44934 0
M  V30 5913 H 547.405 -3.12715 3.4832 0
M  V30 5914 H 547.578 -4.13768 4.98698 0
M  V30 5915 N 540.985 -1.06182 -1.16461 0
M  V30 5916 C 542.213 -0.798583 -1.90867 0
M  V30 5917 C 542.628 0.646921 -1.77371 0
M  V30 5918 O 541.985 1.44279 -1.11758 0
M  V30 5919 C 542.036 -1.18258 -3.4161 0
M  V30 5920 O 541.757 -2.57135 -3.54701 0
M  V30 5921 C 543.258 -0.946917 -4.33069 0
M  V30 5922 H 540.478 -0.289603 -0.605286 0
M  V30 5923 H 543.022 -1.41515 -1.47627 0
M  V30 5924 H 541.177 -0.610562 -3.82558 0
M  V30 5925 H 541.591 -2.72477 -4.4817 0
M  V30 5926 H 543.065 -1.26523 -5.37304 0
M  V30 5927 H 543.542 0.117406 -4.39043 0
M  V30 5928 H 544.148 -1.50326 -3.97847 0
M  V30 5929 N 542.463 1.3308 -0.844243 0
M  V30 5930 C 543.395 2.27954 -0.238671 0
M  V30 5931 C 544.408 1.51978 0.583665 0
M  V30 5932 O 545.597 1.73731 0.409857 0
M  V30 5933 C 542.697 3.31963 0.682185 0
M  V30 5934 C 541.87 4.37281 -0.101998 0
M  V30 5935 C 540.929 5.20928 0.743022 0
M  V30 5936 O 539.955 5.68914 0.180285 0
M  V30 5937 N 541.157 5.42738 2.0595 0
M  V30 5938 H 543.922 2.8056 -1.05386 0
M  V30 5939 H 541.483 1.4583 -0.70322 0
M  V30 5940 H 543.475 3.84828 1.25259 0
M  V30 5941 H 542.045 2.79594 1.39808 0
M  V30 5942 H 541.265 3.84843 -0.853802 0
M  V30 5943 H 542.553 5.04746 -0.641015 0
M  V30 5944 H 541.951 5.05463 2.54016 0
M  V30 5945 H 540.508 5.98639 2.57827 0
M  V30 5946 N 543.941 0.601185 1.45683 0
M  V30 5947 C 544.904 -0.111398 2.28929 0
M  V30 5948 C 545.904 -0.801246 1.39416 0
M  V30 5949 O 547.094 -0.650383 1.61603 0
M  V30 5950 C 544.226 -1.16773 3.20276 0
M  V30 5951 H 545.419 0.620412 2.93413 0
M  V30 5952 H 542.972 0.359946 1.52099 0
M  V30 5953 H 543.707 -1.93051 2.60579 0
M  V30 5954 H 543.492 -0.677358 3.86205 0
M  V30 5955 H 544.982 -1.66698 3.82886 0
M  V30 5956 N 545.419 -1.53889 0.339982 0
M  V30 5957 C 546.367 -2.26391 -0.533822 0
M  V30 5958 C 547.361 -1.28404 -1.10493 0
M  V30 5959 O 548.567 -1.46124 -1.05108 0
M  V30 5960 H 544.942 -0.727385 -0.190828 0
M  V30 5961 H 546.913 -2.98233 0.0997484 0
M  V30 5962 C 545.662 -3.04707 -1.67479 0
M  V30 5963 H 544.985 -3.79934 -1.2446 0
M  V30 5964 H 546.425 -3.58657 -2.26144 0
M  V30 5965 C 544.884 -2.13989 -2.60212 0
M  V30 5966 O 545.414 -1.73361 -3.62366 0
M  V30 5967 N 543.62 -1.79141 -2.28816 0
M  V30 5968 H 543.167 -2.12378 -1.45785 0
M  V30 5969 H 543.125 -1.18725 -2.91121 0
M  V30 5970 N 546.897 -0.0685191 -1.57451 0
M  V30 5971 C 547.827 0.89747 -2.15564 0
M  V30 5972 C 548.808 1.31266 -1.08181 0
M  V30 5973 O 549.993 1.38429 -1.36202 0
M  V30 5974 C 547.123 2.16623 -2.71463 0
M  V30 5975 C 546.077 1.89054 -3.83982 0
M  V30 5976 C 545.403 3.22532 -4.26471 0
M  V30 5977 C 546.703 1.1984 -5.08366 0
M  V30 5978 H 548.397 0.413373 -2.96533 0
M  V30 5979 H 545.943 0.197391 -1.42641 0
M  V30 5980 H 547.896 2.84614 -3.10761 0
M  V30 5981 H 546.62 2.67269 -1.8771 0
M  V30 5982 H 545.279 1.23469 -3.45183 0
M  V30 5983 H 544.927 3.71013 -3.39644 0
M  V30 5984 H 544.627 3.04879 -5.02317 0
M  V30 5985 H 546.151 3.91727 -4.68383 0
M  V30 5986 H 547.565 1.77896 -5.45001 0
M  V30 5987 H 545.962 1.12456 -5.89469 0
M  V30 5988 H 547.032 0.176996 -4.84577 0
M  V30 5989 N 548.375 1.56261 0.205012 0
M  V30 5990 C 549.603 1.84141 0.943386 0
M  V30 5991 C 550.018 0.649772 1.77266 0
M  V30 5992 O 549.375 -0.381612 1.78466 0
M  V30 5993 C 549.426 3.10719 1.84759 0
M  V30 5994 O 549.147 4.25286 1.05181 0
M  V30 5995 C 550.648 3.51706 2.69848 0
M  V30 5996 H 547.868 0.611734 0.275721 0
M  V30 5997 H 550.412 2.03364 0.215253 0
M  V30 5998 H 548.567 2.93422 2.52947 0
M  V30 5999 H 548.981 4.97301 1.66709 0
M  V30 6000 H 550.455 4.43266 3.28967 0
M  V30 6001 H 550.932 2.7423 3.43067 0
M  V30 6002 H 551.538 3.71499 2.07047 0
M  V30 6003 N 549.853 -0.472356 1.50355 0
M  V30 6004 C 550.763 -1.59637 1.7191 0
M  V30 6005 C 551.779 -1.63247 0.602195 0
M  V30 6006 O 552.955 -1.81139 0.880369 0
M  V30 6007 C 550.02 -2.9586 1.80742 0
M  V30 6008 C 549.081 -3.02649 3.04471 0
M  V30 6009 C 548.314 -4.32374 3.12872 0
M  V30 6010 O 548.537 -5.22807 2.28099 0
M  V30 6011 O 547.471 -4.44728 4.05587 0
M  V30 6012 H 551.297 -1.44373 2.67189 0
M  V30 6013 H 548.882 -0.651717 1.34436 0
M  V30 6014 H 550.764 -3.7677 1.88739 0
M  V30 6015 H 549.439 -3.11325 0.88647 0
M  V30 6016 H 548.346 -2.20821 3.01975 0
M  V30 6017 H 549.679 -2.92119 3.9614 0
M  V30 6018 N 551.331 -1.39911 -0.725443 0
M  V30 6019 C 552.579 -1.37382 -1.48224 0
M  V30 6020 C 552.9 0.0264107 -1.94982 0
M  V30 6021 O 552.17 0.979408 -1.6966 0
M  V30 6022 H 550.75 -0.505596 -0.549892 0
M  V30 6023 H 553.412 -1.7487 -0.860608 0
M  V30 6024 H 552.508 -2.04254 -2.3598 0
M  V30 6025 N 552.809 0.956637 -1.25245 0
M  V30 6026 C 553.741 2.05628 -1.01242 0
M  V30 6027 C 554.754 1.62785 0.0219579 0
M  V30 6028 O 555.943 1.77184 -0.216365 0
M  V30 6029 C 553.043 3.35069 -0.508161 0
M  V30 6030 C 552.216 4.06761 -1.60823 0
M  V30 6031 C 551.275 5.14473 -1.1047 0
M  V30 6032 O 550.301 5.40033 -1.79868 0
M  V30 6033 N 551.503 5.80474 0.0550773 0
M  V30 6034 H 554.268 2.2679 -1.95925 0
M  V30 6035 H 551.829 1.12505 -1.16423 0
M  V30 6036 H 553.821 4.044 -0.155819 0
M  V30 6037 H 552.391 3.10694 0.344683 0
M  V30 6038 H 551.611 3.31555 -2.13224 0
M  V30 6039 H 552.899 4.51418 -2.34733 0
M  V30 6040 H 552.297 5.62125 0.635004 0
M  V30 6041 H 550.854 6.50868 0.348469 0
M  V30 6042 N 554.287 1.06798 1.15896 0
M  V30 6043 C 555.698 0.811355 1.68149 0
M  V30 6044 C 556.049 -0.664339 1.8461 0
M  V30 6045 O 555.174 -1.51485 1.54535 0
M  V30 6046 C 555.769 1.46624 3.05429 0
M  V30 6047 C 554.328 1.25726 3.54781 0
M  V30 6048 C 553.475 1.53949 2.3064 0
M  V30 6049 H 556.426 1.23078 1.00187 0
M  V30 6050 H 556.447 0.88437 3.7008 0
M  V30 6051 H 555.959 2.54025 2.93416 0
M  V30 6052 H 554.06 0.20322 3.72045 0
M  V30 6053 H 554.173 1.97354 4.36564 0
M  V30 6054 H 552.537 0.96025 2.35905 0
M  V30 6055 H 553.32 2.6252 2.2122 0
M  V30 6056 N 555.766 -1.3263 0.851289 0
M  V30 6057 C 557.177 -1.79653 0.5081 0
M  V30 6058 C 557.528 -1.70327 -0.973815 0
M  V30 6059 O 556.653 -1.25986 -1.75944 0
M  V30 6060 C 557.248 -3.26196 0.915515 0
M  V30 6061 C 555.807 -3.71187 0.624277 0
M  V30 6062 C 554.954 -2.53804 1.11709 0
M  V30 6063 H 557.905 -1.19976 1.03882 0
M  V30 6064 H 557.926 -3.79801 0.230535 0
M  V30 6065 H 557.438 -3.32952 1.99411 0
M  V30 6066 H 555.539 -3.69948 -0.443737 0
M  V30 6067 H 555.652 -4.64132 1.18821 0
M  V30 6068 H 554.016 -2.48964 0.537484 0
M  V30 6069 H 554.799 -2.63315 2.20272 0
M  V30 6070 N 557.244 -0.608902 -1.45362 0
M  V30 6071 C 558.66 -0.272659 -1.57254 0
M  V30 6072 C 558.86 1.22477 -1.60005 0
M  V30 6073 O 557.916 2.00785 -1.53106 0
M  V30 6074 C 559.229 -0.944991 -2.85465 0
M  V30 6075 C 560.777 -0.921033 -2.99142 0
M  V30 6076 C 561.252 -1.5734 -4.30126 0
M  V30 6077 N 562.743 -1.53895 -4.36887 0
M  V30 6078 C 563.478 -2.01286 -5.36909 0
M  V30 6079 N 562.974 -2.56768 -6.43461 0
M  V30 6080 N 564.767 -1.92046 -5.28275 0
M  V30 6081 H 556.918 -1.58117 -1.4182 0
M  V30 6082 H 559.181 -0.662437 -0.678146 0
M  V30 6083 H 558.887 -1.99941 -2.89338 0
M  V30 6084 H 558.761 -0.469079 -3.74272 0
M  V30 6085 H 561.148 0.124846 -2.94836 0
M  V30 6086 H 561.229 -1.43522 -2.11743 0
M  V30 6087 H 560.873 -2.61862 -4.35191 0
M  V30 6088 H 560.803 -1.03422 -5.16344 0
M  V30 6089 H 563.294 -1.13366 -3.60495 0
M  V30 6090 H 563.607 -2.9072 -7.16032 0
M  V30 6091 H 561.952 -2.60808 -6.44208 0
M  V30 6092 H 565.143 -1.48439 -4.43941 0
M  V30 6093 H 565.316 -2.29293 -6.06077 0
M  V30 6094 N 558.722 1.53707 -0.348139 0
M  V30 6095 C 559.632 2.28881 0.514857 0
M  V30 6096 C 560.648 1.34168 1.10793 0
M  V30 6097 O 561.824 1.6721 1.12262 0
M  V30 6098 C 558.889 3.05042 1.64774 0
M  V30 6099 C 557.95 4.15389 1.08398 0
M  V30 6100 C 557.183 4.87909 2.16287 0
M  V30 6101 O 557.406 4.60137 3.3709 0
M  V30 6102 O 556.34 5.74254 1.80323 0
M  V30 6103 H 560.166 3.03547 -0.0963699 0
M  V30 6104 H 557.751 1.48972 -0.113043 0
M  V30 6105 H 559.633 3.52656 2.30677 0
M  V30 6106 H 558.308 2.33228 2.24469 0
M  V30 6107 H 557.215 3.72068 0.389341 0
M  V30 6108 H 558.548 4.89318 0.531829 0
M  V30 6109 N 560.2 0.0768682 1.57412 0
M  V30 6110 C 561.44 -0.594676 1.95558 0
M  V30 6111 C 561.804 -1.66469 0.956658 0
M  V30 6112 O 563.005 -2.39215 1.22595 0
M  V30 6113 C 561.276 -1.15206 3.38323 0
M  V30 6114 S 562.835 -1.83803 3.9845 0
M  V30 6115 H 559.653 -0.194579 0.683857 0
M  V30 6116 H 562.255 0.151933 1.94909 0
M  V30 6117 H 560.959 -0.36153 4.08805 0
M  V30 6118 H 560.49 -1.93491 3.42527 0
M  V30 6119 H 562.505 -3.12087 3.85767 0
M  V30 6120 N 561.678 -1.56367 -0.196722 0
M  V30 6121 C 562.641 -1.93561 -1.22746 0
M  V30 6122 C 563.641 -0.816566 -1.38524 0
M  V30 6123 O 564.831 -1.084 -1.36363 0
M  V30 6124 C 561.963 -2.20823 -2.59712 0
M  V30 6125 H 563.156 -2.85774 -0.909586 0
M  V30 6126 H 560.709 -1.50032 -0.438174 0
M  V30 6127 H 561.444 -1.31243 -2.96557 0
M  V30 6128 H 561.229 -3.02368 -2.49632 0
M  V30 6129 H 562.719 -2.50608 -3.34044 0
M  V30 6130 N 563.156 0.464375 -1.50603 0
M  V30 6131 C 564.402 1.21776 -1.62168 0
M  V30 6132 C 564.735 1.91476 -0.324154 0
M  V30 6133 O 564.01 1.8242 0.674782 0
M  V30 6134 C 564.293 2.25614 -2.80661 0
M  V30 6135 C 564.146 1.60175 -4.20314 0
M  V30 6136 C 565.465 3.26862 -2.94702 0
M  V30 6137 H 562.584 0.44137 -0.590222 0
M  V30 6138 H 565.226 0.510623 -1.8301 0
M  V30 6139 H 563.376 2.85923 -2.63021 0
M  V30 6140 H 565.048 1.03411 -4.4956 0
M  V30 6141 H 563.291 0.904697 -4.24261 0
M  V30 6142 H 563.962 2.35665 -4.99165 0
M  V30 6143 H 566.438 2.76582 -3.10872 0
M  V30 6144 H 565.314 3.96839 -3.79223 0
M  V30 6145 H 565.575 3.91382 -2.05603 0
M  V30 6146 N 564.634 1.40294 0.718013 0
M  V30 6147 C 565.862 1.4175 1.50714 0
M  V30 6148 C 566.277 0.0165366 1.88793 0
M  V30 6149 O 565.634 -0.958942 1.55276 0
M  V30 6150 C 565.685 2.30598 2.784 0
M  V30 6151 O 565.406 3.6524 2.41932 0
M  V30 6152 C 566.907 2.4062 3.72313 0
M  V30 6153 H 564.127 0.483565 0.465194 0
M  V30 6154 H 566.671 1.84316 0.885889 0
M  V30 6155 H 564.826 1.91401 3.36815 0
M  V30 6156 H 565.24 4.12402 3.24076 0
M  V30 6157 H 566.714 3.07001 4.58753 0
M  V30 6158 H 567.191 1.4305 4.15251 0
M  V30 6159 H 567.797 2.80359 3.19811 0
M  V30 6160 N 566.112 -0.949982 1.2575 0
M  V30 6161 C 567.352 -1.70994 1.11984 0
M  V30 6162 C 567.716 -1.89095 -0.332746 0
M  V30 6163 O 568.917 -2.62192 -0.592331 0
M  V30 6164 C 567.188 -3.05286 1.85837 0
M  V30 6165 S 568.747 -3.96477 1.88019 0
M  V30 6166 H 565.565 -0.587689 0.400178 0
M  V30 6167 H 568.167 -1.13271 1.59342 0
M  V30 6168 H 566.871 -2.89785 2.90608 0
M  V30 6169 H 566.402 -3.68069 1.38885 0
M  V30 6170 H 568.417 -4.86814 0.96057 0
M  V30 6171 N 567.59 -1.07411 -1.15328 0
M  V30 6172 C 569.006 -0.799759 -1.38116 0
M  V30 6173 C 569.206 0.59572 -1.92493 0
M  V30 6174 O 568.262 1.35433 -2.13106 0
M  V30 6175 C 569.575 -1.87407 -2.35158 0
M  V30 6176 C 571.123 -1.89889 -2.48819 0
M  V30 6177 C 571.598 -2.96406 -3.49153 0
M  V30 6178 N 573.089 -2.95512 -3.56689 0
M  V30 6179 C 573.824 -3.74575 -4.34144 0
M  V30 6180 N 573.32 -4.63488 -5.14928 0
M  V30 6181 N 575.113 -3.62919 -4.29239 0
M  V30 6182 H 567.264 -1.97411 -0.78374 0
M  V30 6183 H 569.527 -0.856113 -0.407154 0
M  V30 6184 H 569.233 -2.8768 -2.0232 0
M  V30 6185 H 569.107 -1.73471 -3.34944 0
M  V30 6186 H 571.494 -0.902677 -2.80955 0
M  V30 6187 H 571.575 -2.07904 -1.49029 0
M  V30 6188 H 571.219 -3.96227 -3.17752 0
M  V30 6189 H 571.149 -2.75638 -4.48699 0
M  V30 6190 H 573.64 -2.31061 -2.99031 0
M  V30 6191 H 573.953 -5.20445 -5.71276 0
M  V30 6192 H 572.298 -4.67537 -5.14232 0
M  V30 6193 H 575.489 -2.92833 -3.65194 0
M  V30 6194 H 575.662 -4.24777 -4.89355 0
M  V30 6195 N 569.068 1.32177 -0.85831 0
M  V30 6196 C 570.298 2.01021 -0.476889 0
M  V30 6197 C 570.706 1.64653 0.931995 0
M  V30 6198 O 570.049 0.865713 1.62022 0
M  V30 6199 C 570.111 3.55413 -0.540528 0
M  V30 6200 C 569.775 4.1522 -1.90895 0
M  V30 6201 C 570.772 4.3318 -2.87491 0
M  V30 6202 C 568.457 4.51212 -2.20709 0
M  V30 6203 C 570.451 4.86306 -4.1205 0
M  V30 6204 C 568.138 5.04042 -3.45521 0
M  V30 6205 C 569.136 5.21538 -4.41007 0
M  V30 6206 O 568.824 5.73238 -5.63608 0
M  V30 6207 H 568.556 0.650059 -0.18547 0
M  V30 6208 H 571.11 1.69648 -1.15796 0
M  V30 6209 H 569.34 3.86196 0.19741 0
M  V30 6210 H 571.029 4.05526 -0.174191 0
M  V30 6211 H 571.795 4.05704 -2.65762 0
M  V30 6212 H 567.674 4.36878 -1.4717 0
M  V30 6213 H 571.218 4.99877 -4.86589 0
M  V30 6214 H 567.115 5.30952 -3.67098 0
M  V30 6215 H 567.883 5.91625 -5.65617 0
M  V30 6216 N 570.547 0.616602 1.45037 0
M  V30 6217 C 571.824 0.0469086 1.95544 0
M  V30 6218 C 572.204 -1.42345 1.55888 0
M  V30 6219 O 571.552 -2.13055 0.825824 0
M  V30 6220 C 571.762 0.254489 3.48071 0
M  V30 6221 C 573.11 0.140025 4.24369 0
M  V30 6222 O 574.134 0.185084 3.55719 0
M  V30 6223 O 572.993 0.0327034 5.4649 0
M  V30 6224 H 570.087 -0.0306051 0.826433 0
M  V30 6225 H 572.633 0.687293 1.55159 0
M  V30 6226 H 571.405 1.27532 3.69934 0
M  V30 6227 H 571.028 -0.42073 3.95368 0
M  V30 6228 N 572.025 -1.5352 0.356285 0
M  V30 6229 C 573.441 -1.59599 0.00485267 0
M  V30 6230 C 573.641 -1.37179 -1.47595 0
M  V30 6231 O 572.697 -1.17234 -2.23635 0
M  V30 6232 C 574.01 -2.97277 0.452454 0
M  V30 6233 C 575.558 -3.10357 0.405881 0
M  V30 6234 C 576.033 -4.50432 0.829148 0
M  V30 6235 N 577.524 -4.5652 0.783838 0
M  V30 6236 C 578.259 -5.63077 1.08315 0
M  V30 6237 N 577.755 -6.77429 1.45126 0
M  V30 6238 N 579.548 -5.53014 1.00655 0
M  V30 6239 H 571.699 -1.66346 1.32071 0
M  V30 6240 H 573.962 -0.77971 0.539218 0
M  V30 6241 H 573.668 -3.18792 1.48542 0
M  V30 6242 H 573.542 -3.76836 -0.165762 0
M  V30 6243 H 575.929 -2.88558 -0.617934 0
M  V30 6244 H 576.01 -2.32828 1.05947 0
M  V30 6245 H 575.654 -4.72968 1.85103 0
M  V30 6246 H 575.584 -5.26378 0.152906 0
M  V30 6247 H 578.075 -3.74408 0.512513 0
M  V30 6248 H 578.388 -7.54669 1.66415 0
M  V30 6249 H 576.733 -6.78844 1.48983 0
M  V30 6250 H 579.924 -4.62557 0.718215 0
M  V30 6251 H 580.097 -6.35964 1.24315 0
M  V30 6252 N 573.503 -0.0852151 -1.57369 0
M  V30 6253 C 574.466 0.8627 -2.12344 0
M  V30 6254 C 575.466 1.21746 -1.05046 0
M  V30 6255 O 576.656 1.14852 -1.30976 0
M  V30 6256 C 573.788 2.1618 -2.63589 0
M  V30 6257 H 574.981 0.385511 -2.97412 0
M  V30 6258 H 572.534 0.163663 -1.55441 0
M  V30 6259 H 573.269 2.68406 -1.82013 0
M  V30 6260 H 573.054 1.91723 -3.4203 0
M  V30 6261 H 574.544 2.84011 -3.06149 0
M  V30 6262 N 574.981 1.5647 0.188427 0
M  V30 6263 C 576.206 1.85486 0.927891 0
M  V30 6264 C 576.631 0.669575 1.75779 0
M  V30 6265 O 575.989 -0.381573 1.77239 0
M  V30 6266 C 576.037 3.12784 1.7944 0
M  V30 6267 O 575.141 2.93805 2.894 0
M  V30 6268 H 574.482 0.610585 0.260925 0
M  V30 6269 H 577.012 2.037 0.191729 0
M  V30 6270 H 577.022 3.43749 2.19774 0
M  V30 6271 H 575.697 3.98671 1.18468 0
M  V30 6272 H 574.274 2.74153 2.52774 0
M  V30 6273 N 576.459 -0.456382 1.50847 0
M  V30 6274 C 577.736 -1.21739 1.53098 0
M  V30 6275 C 578.116 -2.09179 0.284132 0
M  V30 6276 O 577.464 -2.16466 -0.731773 0
M  V30 6277 C 577.674 -2.03573 2.83477 0
M  V30 6278 C 579.022 -2.61264 3.34703 0
M  V30 6279 O 580.046 -2.13802 2.84898 0
M  V30 6280 O 578.905 -3.47779 4.21559 0
M  V30 6281 H 575.999 -0.553219 0.614718 0
M  V30 6282 H 578.545 -0.467003 1.63148 0
M  V30 6283 H 577.317 -1.39232 3.65691 0
M  V30 6284 H 576.94 -2.85716 2.76499 0
M  V30 6285 N 577.937 -1.40673 -0.710563 0
M  V30 6286 C 578.867 -1.44095 -1.83736 0
M  V30 6287 C 579.848 -0.301286 -1.67411 0
M  V30 6288 O 581.033 -0.510618 -1.87367 0
M  V30 6289 C 578.163 -1.30773 -3.21738 0
M  V30 6290 C 577.117 -2.42395 -3.52745 0
M  V30 6291 C 576.443 -2.14147 -4.89944 0
M  V30 6292 C 577.743 -3.84738 -3.53234 0
M  V30 6293 H 579.437 -2.38396 -1.81129 0
M  V30 6294 H 576.983 -1.14746 -0.870017 0
M  V30 6295 H 578.936 -1.31783 -4.00264 0
M  V30 6296 H 577.66 -0.329507 -3.24934 0
M  V30 6297 H 576.319 -2.40643 -2.76562 0
M  V30 6298 H 575.967 -1.14703 -4.89747 0
M  V30 6299 H 575.667 -2.88934 -5.11655 0
M  V30 6300 H 577.191 -2.16848 -5.70797 0
M  V30 6301 H 578.605 -3.88286 -4.2179 0
M  V30 6302 H 577.002 -4.59085 -3.86473 0
M  V30 6303 H 578.072 -4.13962 -2.52514 0
M  V30 6304 N 579.415 0.9433 -1.26252 0
M  V30 6305 C 580.363 2.06302 -1.07434 0
M  V30 6306 C 581.357 1.694 -0.00189471 0
M  V30 6307 O 582.563 1.79302 -0.158408 0
M  V30 6308 H 578.938 0.675453 -0.330556 0
M  V30 6309 H 580.909 2.19326 -2.02333 0
M  V30 6310 C 579.658 3.40125 -0.721817 0
M  V30 6311 H 578.981 3.68996 -1.5389 0
M  V30 6312 H 580.421 4.19295 -0.629922 0
M  V30 6313 C 578.88 3.31993 0.572902 0
M  V30 6314 O 579.41 3.67945 1.61182 0
M  V30 6315 N 577.616 2.85099 0.562748 0
M  V30 6316 H 577.163 2.5604 -0.283092 0
M  V30 6317 H 577.121 2.80041 1.42915 0
M  V30 6318 N 580.893 1.08022 1.14757 0
M  V30 6319 C 582.139 0.808705 1.85978 0
M  V30 6320 C 582.472 -0.663764 1.82504 0
M  V30 6321 O 581.747 -1.48765 1.25296 0
M  V30 6322 C 582.03 1.32623 3.34788 0
M  V30 6323 C 581.883 2.86375 3.46856 0
M  V30 6324 C 583.202 0.948291 4.29762 0
M  V30 6325 H 580.321 0.295244 0.675278 0
M  V30 6326 H 582.963 1.33917 1.34783 0
M  V30 6327 H 581.113 0.875002 3.78518 0
M  V30 6328 H 582.785 3.39839 3.11941 0
M  V30 6329 H 581.028 3.24232 2.88194 0
M  V30 6330 H 581.699 3.17658 4.51439 0
M  V30 6331 H 584.175 1.33722 3.94028 0
M  V30 6332 H 583.051 1.33765 5.32352 0
M  V30 6333 H 583.312 -0.145094 4.41862 0
M  V30 6334 N 582.371 -1.3172 0.865308 0
M  V30 6335 C 583.617 -1.97168 0.474633 0
M  V30 6336 C 583.95 -1.68263 -0.969604 0
M  V30 6337 O 583.225 -0.976588 -1.68205 0
M  V30 6338 C 583.508 -3.52689 0.726808 0
M  V30 6339 C 583.361 -3.91185 2.22024 0
M  V30 6340 C 584.68 -4.39689 0.190201 0
M  V30 6341 H 581.799 -0.716185 0.17392 0
M  V30 6342 H 584.441 -1.55925 1.08569 0
M  V30 6343 H 582.591 -3.8795 0.206705 0
M  V30 6344 H 584.263 -3.66049 2.80724 0
M  V30 6345 H 582.506 -3.3996 2.69462 0
M  V30 6346 H 583.177 -4.99604 2.34735 0
M  V30 6347 H 585.653 -4.11225 0.635103 0
M  V30 6348 H 584.529 -5.47469 0.396132 0
M  V30 6349 H 584.79 -4.32683 -0.907625 0
M  V30 6350 N 583.85 -0.624285 -1.44708 0
M  V30 6351 C 585.077 -0.132919 -2.06473 0
M  V30 6352 C 585.493 1.18967 -1.46602 0
M  V30 6353 O 584.85 1.72824 -0.586341 0
M  V30 6354 C 584.901 -0.00465418 -3.615 0
M  V30 6355 O 584.622 -1.27494 -4.19138 0
M  V30 6356 C 586.123 0.516213 -4.40284 0
M  V30 6357 H 583.343 -0.0765201 -0.666623 0
M  V30 6358 H 585.887 -0.856751 -1.85688 0
M  V30 6359 H 584.042 0.669583 -3.8157 0
M  V30 6360 H 584.456 -1.11536 -5.12504 0
M  V30 6361 H 585.93 0.554994 -5.49203 0
M  V30 6362 H 586.407 1.5419 -4.11245 0
M  V30 6363 H 587.013 -0.124542 -4.25118 0
M  V30 6364 N 585.328 1.53329 -0.364422 0
M  V30 6365 C 586.26 2.23286 0.517293 0
M  V30 6366 C 587.273 1.24657 1.04711 0
M  V30 6367 O 588.462 1.50887 0.95369 0
M  V30 6368 C 585.562 2.91604 1.72685 0
M  V30 6369 C 584.735 4.1673 1.32873 0
M  V30 6370 C 583.794 4.68269 2.40022 0
M  V30 6371 O 582.82 5.31976 2.02461 0
M  V30 6372 N 584.022 4.45983 3.7159 0
M  V30 6373 H 586.787 2.99588 -0.0819391 0
M  V30 6374 H 584.348 1.60787 -0.189544 0
M  V30 6375 H 586.34 3.22992 2.4384 0
M  V30 6376 H 584.91 2.18763 2.23297 0
M  V30 6377 H 584.13 3.91657 0.447069 0
M  V30 6378 H 585.418 4.98078 1.03902 0
M  V30 6379 H 584.816 3.95077 4.04883 0
M  V30 6380 H 583.373 4.81924 4.38854 0
M  V30 6381 N 586.806 0.0935595 1.57322 0
M  V30 6382 C 587.769 -0.851426 2.12799 0
M  V30 6383 C 588.769 -1.21187 1.0569 0
M  V30 6384 O 589.959 -1.14156 1.31583 0
M  V30 6385 C 587.091 -2.14779 2.64731 0
M  V30 6386 H 588.284 -0.369733 2.97612 0
M  V30 6387 H 585.837 -0.155417 1.55525 0
M  V30 6388 H 586.572 -2.67437 1.83434 0
M  V30 6389 H 586.357 -1.89907 3.43042 0
M  V30 6390 H 587.847 -2.82383 3.07651 0
M  V30 6391 N 588.284 -1.56567 -0.180126 0
M  V30 6392 C 589.7 -1.50488 -0.531559 0
M  V30 6393 C 589.9 -0.796267 -1.851 0
M  V30 6394 O 588.956 -0.352978 -2.50021 0
M  V30 6395 C 590.269 -2.95201 -0.572456 0
M  V30 6396 C 591.817 -3.05957 -0.660264 0
M  V30 6397 C 592.292 -4.5211 -0.732135 0
M  V30 6398 N 593.783 -4.56322 -0.795262 0
M  V30 6399 C 594.518 -5.66742 -0.871296 0
M  V30 6400 N 594.014 -6.86815 -0.908708 0
M  V30 6401 N 595.807 -5.54691 -0.909639 0
M  V30 6402 H 587.958 -2.01045 0.685165 0
M  V30 6403 H 590.221 -0.915536 0.245962 0
M  V30 6404 H 589.927 -3.50165 0.328208 0
M  V30 6405 H 589.801 -3.49369 -1.422 0
M  V30 6406 H 592.188 -2.51032 -1.55136 0
M  V30 6407 H 592.269 -2.54888 0.215783 0
M  V30 6408 H 591.913 -5.07664 0.154664 0
M  V30 6409 H 591.843 -5.00926 -1.6242 0
M  V30 6410 H 594.334 -3.69868 -0.77499 0
M  V30 6411 H 594.647 -7.66718 -0.967654 0
M  V30 6412 H 592.992 -6.89443 -0.877132 0
M  V30 6413 H 596.183 -4.59804 -0.877353 0
M  V30 6414 H 596.356 -6.40768 -0.965434 0
M  V30 6415 N 589.762 0.448376 -1.51087 0
M  V30 6416 C 591.039 1.20926 -1.53741 0
M  V30 6417 C 591.419 2.09025 -0.295222 0
M  V30 6418 O 590.767 2.16851 0.720283 0
M  V30 6419 C 590.977 2.02067 -2.84552 0
M  V30 6420 C 592.325 2.59486 -3.36084 0
M  V30 6421 O 593.349 2.12289 -2.86028 0
M  V30 6422 O 592.208 3.45539 -4.23397 0
M  V30 6423 H 589.302 0.549951 -0.617643 0
M  V30 6424 H 591.848 0.458344 -1.63393 0
M  V30 6425 H 590.62 1.37291 -3.66425 0
M  V30 6426 H 590.243 2.84246 -2.78011 0
M  V30 6427 N 591.24 1.41047 0.703093 0
M  V30 6428 C 592.465 1.43537 1.49706 0
M  V30 6429 C 592.89 0.0401853 1.88057 0
M  V30 6430 O 592.248 -0.954785 1.54122 0
M  V30 6431 C 592.296 2.3433 2.74084 0
M  V30 6432 O 591.4 1.79515 3.71279 0
M  V30 6433 H 590.741 0.487454 0.450871 0
M  V30 6434 H 593.271 1.85422 0.86486 0
M  V30 6435 H 593.281 2.49947 3.22476 0
M  V30 6436 H 591.956 3.35708 2.45506 0
M  V30 6437 H 590.533 1.7331 3.30179 0
M  V30 6438 N 592.718 -0.936591 1.26751 0
M  V30 6439 C 594.129 -1.49816 1.1141 0
M  V30 6440 C 594.48 -1.9383 -0.304015 0
M  V30 6441 O 593.605 -1.80346 -1.196 0
M  V30 6442 C 594.2 -2.72271 2.01629 0
M  V30 6443 C 592.759 -3.2468 1.9042 0
M  V30 6444 C 591.906 -1.97444 1.94708 0
M  V30 6445 H 594.857 -0.751604 1.39773 0
M  V30 6446 H 594.878 -3.46741 1.56688 0
M  V30 6447 H 594.39 -2.40205 3.04833 0
M  V30 6448 H 592.491 -3.61525 0.901674 0
M  V30 6449 H 592.604 -3.91476 2.76195 0
M  V30 6450 H 590.968 -2.13545 1.38818 0
M  V30 6451 H 591.751 -1.67703 2.9955 0
M  V30 6452 N 594.196 -1.08629 -1.14182 0
M  V30 6453 C 595.424 -0.838889 -1.8913 0
M  V30 6454 C 595.839 0.609153 -1.78703 0
M  V30 6455 O 595.196 1.41876 -1.14794 0
M  V30 6456 C 595.247 -1.25477 -3.39025 0
M  V30 6457 O 594.968 -2.64601 -3.49167 0
M  V30 6458 C 596.469 -1.03856 -4.30963 0
M  V30 6459 H 593.689 -0.302377 -0.599007 0
M  V30 6460 H 596.233 -1.44615 -1.44592 0
M  V30 6461 H 594.388 -0.691571 -3.81177 0
M  V30 6462 H 594.802 -2.81922 -4.42289 0
M  V30 6463 H 596.276 -1.37892 -5.345 0
M  V30 6464 H 596.753 0.0242522 -4.39193 0
M  V30 6465 H 597.359 -1.58731 -3.94569 0
M  V30 6466 N 595.674 1.31259 -0.872281 0
M  V30 6467 C 597.085 1.78822 -0.536617 0
M  V30 6468 C 597.436 1.71855 0.946594 0
M  V30 6469 O 596.561 1.28769 1.73918 0
M  V30 6470 C 597.156 3.24698 -0.967294 0
M  V30 6471 C 595.715 3.70147 -0.683251 0
M  V30 6472 C 594.862 2.51994 -1.15733 0
M  V30 6473 H 597.813 1.18308 -1.05777 0
M  V30 6474 H 597.834 3.79386 -0.290929 0
M  V30 6475 H 597.346 3.29737 -2.04683 0
M  V30 6476 H 595.447 3.70607 0.384825 0
M  V30 6477 H 595.56 4.62183 -1.2619 0
M  V30 6478 H 593.924 2.48078 -0.577024 0
M  V30 6479 H 594.707 2.59778 -2.24434 0
M  V30 6480 N 597.152 0.631951 1.44375 0
M  V30 6481 C 598.082 -0.0593243 2.33425 0
M  V30 6482 C 599.063 -0.833964 1.48253 0
M  V30 6483 O 600.248 -0.799682 1.76971 0
M  V30 6484 C 597.378 -1.04096 3.31333 0
M  V30 6485 C 596.332 -0.377899 4.26328 0
M  V30 6486 C 595.658 -1.4695 5.14111 0
M  V30 6487 C 596.958 0.716371 5.17364 0
M  V30 6488 H 598.652 0.684287 2.91475 0
M  V30 6489 H 596.198 0.330518 1.40156 0
M  V30 6490 H 598.151 -1.53331 3.92514 0
M  V30 6491 H 596.875 -1.81547 2.71493 0
M  V30 6492 H 595.534 0.0938054 3.6648 0
M  V30 6493 H 595.182 -2.2349 4.50623 0
M  V30 6494 H 594.882 -1.03121 5.78481 0
M  V30 6495 H 596.406 -1.96363 5.78164 0
M  V30 6496 H 597.82 0.307089 5.72477 0
M  V30 6497 H 596.217 1.07784 5.90341 0
M  V30 6498 H 597.287 1.58316 4.58327 0
M  V30 6499 N 598.631 -1.53133 0.372548 0
M  V30 6500 C 599.859 -2.05774 -0.215515 0
M  V30 6501 C 600.274 -1.24555 -1.41886 0
M  V30 6502 O 599.631 -0.287951 -1.80214 0
M  V30 6503 C 599.682 -3.5645 -0.602161 0
M  V30 6504 O 599.403 -4.34591 0.553359 0
M  V30 6505 C 600.904 -4.25374 -1.24787 0
M  V30 6506 H 598.124 -0.670009 -0.0364529 0
M  V30 6507 H 600.668 -1.97434 0.532934 0
M  V30 6508 H 598.823 -3.64918 -1.30052 0
M  V30 6509 H 599.237 -5.23954 0.239336 0
M  V30 6510 H 600.711 -5.32097 -1.46891 0
M  V30 6511 H 601.188 -3.79531 -2.21026 0
M  V30 6512 H 601.794 -4.21177 -0.590752 0
M  V30 6513 N 600.109 -0.101901 -1.5727 0
M  V30 6514 C 601.357 0.559091 -1.94213 0
M  V30 6515 C 601.678 1.68297 -0.984948 0
M  V30 6516 O 600.948 1.95863 -0.0381975 0
M  V30 6517 H 599.528 0.20952 -0.717015 0
M  V30 6518 H 602.19 -0.166831 -1.94185 0
M  V30 6519 H 601.286 0.96485 -2.96811 0
M  V30 6520 N 601.587 1.56661 0.17182 0
M  V30 6521 C 602.827 1.83762 0.895029 0
M  V30 6522 C 603.191 0.682752 1.79451 0
M  V30 6523 O 604.392 0.834208 2.55528 0
M  V30 6524 C 602.663 3.15976 1.67015 0
M  V30 6525 S 604.222 3.64558 2.44219 0
M  V30 6526 H 601.04 0.644713 0.299778 0
M  V30 6527 H 603.642 1.94871 0.156701 0
M  V30 6528 H 602.346 3.98021 1.00039 0
M  V30 6529 H 601.877 3.07807 2.44986 0
M  V30 6530 H 603.892 3.31845 3.68909 0
M  V30 6531 N 603.065 -0.440357 1.51323 0
M  V30 6532 C 604.012 -1.53429 1.72419 0
M  V30 6533 C 604.982 -1.56165 0.565826 0
M  V30 6534 O 606.167 -1.73222 0.799917 0
M  V30 6535 C 603.307 -2.91169 1.85242 0
M  V30 6536 C 602.42 -2.97985 3.12777 0
M  V30 6537 C 601.555 -4.26829 3.16212 0
M  V30 6538 C 600.594 -4.27501 4.38074 0
M  V30 6539 N 599.731 -5.47866 4.39076 0
M  V30 6540 H 604.571 -1.34743 2.65797 0
M  V30 6541 H 602.108 -0.654608 1.31732 0
M  V30 6542 H 604.066 -3.71087 1.90658 0
M  V30 6543 H 602.696 -3.0842 0.952744 0
M  V30 6544 H 601.748 -2.10749 3.16685 0
M  V30 6545 H 603.06 -2.94342 4.02696 0
M  V30 6546 H 602.214 -5.15118 3.20527 0
M  V30 6547 H 600.953 -4.33124 2.24176 0
M  V30 6548 H 599.958 -3.37606 4.33938 0
M  V30 6549 H 601.183 -4.22873 5.31371 0
M  V30 6550 H 599.129 -5.54887 3.49909 0
M  V30 6551 H 599.046 -5.46091 5.22801 0
M  V30 6552 H 600.314 -6.38195 4.4758 0
M  V30 6553 N 604.543 -1.41418 -0.695603 0
M  V30 6554 C 605.49 -1.43264 -1.80954 0
M  V30 6555 C 606.46 -0.287016 -1.63601 0
M  V30 6556 O 607.645 -0.488054 -1.84452 0
M  V30 6557 C 604.785 -1.32054 -3.18835 0
M  V30 6558 C 603.898 -2.56485 -3.4762 0
M  V30 6559 C 603.033 -2.3757 -4.75115 0
M  V30 6560 C 602.072 -3.57477 -4.96867 0
M  V30 6561 N 601.209 -3.37632 -6.15588 0
M  V30 6562 H 606.049 -2.38467 -1.78711 0
M  V30 6563 H 603.586 -1.18415 -0.872715 0
M  V30 6564 H 605.544 -1.23558 -3.98484 0
M  V30 6565 H 604.174 -0.404592 -3.20254 0
M  V30 6566 H 603.226 -2.75432 -2.62376 0
M  V30 6567 H 604.538 -3.45678 -3.59594 0
M  V30 6568 H 603.692 -2.2654 -5.62818 0
M  V30 6569 H 602.431 -1.45834 -4.65386 0
M  V30 6570 H 601.436 -3.68961 -4.07612 0
M  V30 6571 H 602.661 -4.50167 -5.08455 0
M  V30 6572 H 600.607 -2.48596 -6.07072 0
M  V30 6573 H 600.524 -4.20401 -6.2833 0
M  V30 6574 H 601.792 -3.30375 -7.06026 0
M  V30 6575 N 606.021 0.929856 -1.27246 0
M  V30 6576 C 607.269 1.674 -1.13233 0
M  V30 6577 C 607.59 1.92311 0.322744 0
M  V30 6578 O 606.86 1.52784 1.22612 0
M  V30 6579 H 605.44 0.620411 -0.416052 0
M  V30 6580 H 608.102 1.11663 -1.59741 0
M  V30 6581 H 607.198 2.64308 -1.65975 0
M  V30 6582 N 607.499 1.09233 1.13605 0
M  V30 6583 C 608.446 0.729921 2.18954 0
M  V30 6584 C 609.416 -0.287916 1.63586 0
M  V30 6585 O 610.601 -0.170003 1.90041 0
M  V30 6586 C 607.741 0.154489 3.44754 0
M  V30 6587 C 606.854 1.22613 4.14234 0
M  V30 6588 C 605.989 0.613657 5.27644 0
M  V30 6589 C 605.028 1.66674 5.8897 0
M  V30 6590 N 604.165 1.07545 6.93814 0
M  V30 6591 H 609.005 1.63257 2.49302 0
M  V30 6592 H 606.542 0.815693 1.22413 0
M  V30 6593 H 608.5 -0.196923 4.16735 0
M  V30 6594 H 607.13 -0.711433 3.14863 0
M  V30 6595 H 606.182 1.69485 3.40557 0
M  V30 6596 H 607.494 2.0238 4.55899 0
M  V30 6597 H 606.648 0.210976 6.06333 0
M  V30 6598 H 605.387 -0.215584 4.87223 0
M  V30 6599 H 604.392 2.07899 5.08978 0
M  V30 6600 H 605.617 2.49861 6.31464 0
M  V30 6601 H 603.563 0.267451 6.55455 0
M  V30 6602 H 603.48 1.81011 7.3401 0
M  V30 6603 H 604.748 0.698906 7.7636 0
M  V30 6604 N 608.977 -1.30795 0.87923 0
M  V30 6605 C 609.925 -2.30231 0.331112 0
M  V30 6606 C 610.919 -1.59918 -0.558794 0
M  V30 6607 O 612.125 -1.74441 -0.443866 0
M  V30 6608 H 608.5 -0.746785 0.088409 0
M  V30 6609 H 610.471 -2.73925 1.18353 0
M  V30 6610 C 609.22 -3.44848 -0.444401 0
M  V30 6611 H 608.543 -3.99131 0.231106 0
M  V30 6612 H 609.983 -4.16516 -0.793109 0
M  V30 6613 C 608.442 -2.94329 -1.63926 0
M  V30 6614 O 608.972 -2.93875 -2.73862 0
M  V30 6615 N 607.178 -2.50413 -1.4745 0
M  V30 6616 H 606.725 -2.50982 -0.58015 0
M  V30 6617 H 606.683 -2.16969 -2.27534 0
M  V30 6618 N 610.455 -0.639598 -1.44038 0
M  V30 6619 C 611.702 -0.14748 -2.01962 0
M  V30 6620 C 612.03 1.23372 -1.50365 0
M  V30 6621 O 611.285 1.8345 -0.681501 0
M  V30 6622 C 611.584 -0.0925348 -3.5728 0
M  V30 6623 C 611.25 -1.41365 -4.28167 0
M  V30 6624 C 609.912 -1.77545 -4.47248 0
M  V30 6625 C 612.264 -2.2853 -4.68427 0
M  V30 6626 C 609.592 -3.00583 -5.03852 0
M  V30 6627 C 611.944 -3.50846 -5.26393 0
M  V30 6628 C 610.608 -3.8724 -5.43692 0
M  V30 6629 H 609.878 -0.0539666 -0.739032 0
M  V30 6630 H 612.525 -0.827599 -1.72694 0
M  V30 6631 H 610.83 0.670987 -3.86012 0
M  V30 6632 H 612.527 0.304891 -3.99839 0
M  V30 6633 H 609.117 -1.1221 -4.13651 0
M  V30 6634 H 613.301 -2.0187 -4.5339 0
M  V30 6635 H 608.557 -3.28846 -5.15432 0
M  V30 6636 H 612.731 -4.18616 -5.56537 0
M  V30 6637 H 610.358 -4.8266 -5.87319 0
M  V30 6638 N 611.933 1.52934 -0.380664 0
M  V30 6639 C 613.158 2.06363 0.207157 0
M  V30 6640 C 613.583 1.25122 1.4045 0
M  V30 6641 O 612.941 0.274062 1.79217 0
M  V30 6642 C 612.989 3.56162 0.563996 0
M  V30 6643 O 612.093 3.77552 1.65917 0
M  V30 6644 H 611.434 0.663468 0.0265859 0
M  V30 6645 H 613.964 1.9719 -0.545635 0
M  V30 6646 H 613.974 3.99453 0.830752 0
M  V30 6647 H 612.649 4.14732 -0.311427 0
M  V30 6648 H 611.226 3.46154 1.3868 0
M  V30 6649 N 613.412 0.11024 1.57214 0
M  V30 6650 C 614.659 -0.54987 1.94891 0
M  V30 6651 C 614.987 -1.67243 0.992984 0
M  V30 6652 O 614.242 -1.95694 0.0152703 0
M  V30 6653 C 614.541 -1.13102 3.39032 0
M  V30 6654 C 614.207 -0.130713 4.5071 0
M  V30 6655 C 612.869 0.14437 4.80983 0
M  V30 6656 C 615.221 0.551472 5.18274 0
M  V30 6657 C 612.549 1.10807 5.76141 0
M  V30 6658 C 614.901 1.50375 6.14467 0
M  V30 6659 C 613.565 1.78691 6.43138 0
M  V30 6660 H 612.835 -0.201212 0.713158 0
M  V30 6661 H 615.482 0.189288 1.90562 0
M  V30 6662 H 613.787 -1.94675 3.40013 0
M  V30 6663 H 615.484 -1.64973 3.65493 0
M  V30 6664 H 612.074 -0.355301 4.27125 0
M  V30 6665 H 616.258 0.35211 4.95049 0
M  V30 6666 H 611.514 1.3343 5.96663 0
M  V30 6667 H 615.688 2.03808 6.65909 0
M  V30 6668 H 613.315 2.53522 7.1668 0
M  V30 6669 N 614.89 -1.56749 -0.16351 0
M  V30 6670 C 615.853 -1.96121 -1.18613 0
M  V30 6671 C 616.853 -0.845765 -1.36761 0
M  V30 6672 O 618.043 -1.11268 -1.34033 0
M  V30 6673 C 615.175 -2.26282 -2.54969 0
M  V30 6674 H 616.368 -2.87639 -0.848764 0
M  V30 6675 H 613.921 -1.50928 -0.406251 0
M  V30 6676 H 614.656 -1.37504 -2.93706 0
M  V30 6677 H 614.441 -3.07595 -2.43162 0
M  V30 6678 H 615.931 -2.57638 -3.28653 0
M  V30 6679 N 616.368 0.432326 -1.51554 0
M  V30 6680 C 617.616 1.17901 -1.64146 0
M  V30 6681 C 617.937 1.91604 -0.362367 0
M  V30 6682 O 617.207 1.85764 0.621968 0
M  V30 6683 H 615.787 0.438206 -0.604966 0
M  V30 6684 H 618.449 0.495172 -1.88505 0
M  V30 6685 H 617.545 1.90584 -2.47152 0
M  V30 6686 N 617.846 1.41785 0.688094 0
M  V30 6687 C 619.095 1.4084 1.44385 0
M  V30 6688 C 619.408 0.0234166 1.95586 0
M  V30 6689 O 620.614 -0.108647 2.71283 0
M  V30 6690 C 619.07 2.47675 2.61123 0
M  V30 6691 C 618.678 3.92116 2.16677 0
M  V30 6692 C 620.422 2.55877 3.38714 0
M  V30 6693 C 618.329 4.90487 3.30419 0
M  V30 6694 H 617.259 0.523787 0.542368 0
M  V30 6695 H 619.91 1.6764 0.74627 0
M  V30 6696 H 618.292 2.14018 3.33185 0
M  V30 6697 H 619.466 4.35059 1.51856 0
M  V30 6698 H 617.781 3.87642 1.5206 0
M  V30 6699 H 620.378 3.26553 4.234 0
M  V30 6700 H 620.721 1.59801 3.84408 0
M  V30 6701 H 621.254 2.88662 2.73714 0
M  V30 6702 H 617.993 5.87994 2.89729 0
M  V30 6703 H 617.513 4.52187 3.94065 0
M  V30 6704 H 619.192 5.11591 3.96085 0
M  V30 6705 N 619.324 -0.923095 1.27737 0
M  V30 6706 C 620.254 -2.04124 1.13383 0
M  V30 6707 C 621.235 -1.70066 0.0340658 0
M  V30 6708 O 622.42 -1.93068 0.209383 0
M  V30 6709 C 619.55 -3.3831 0.785097 0
M  V30 6710 C 618.504 -3.86496 1.8386 0
M  V30 6711 C 617.83 -5.1754 1.34373 0
M  V30 6712 C 619.13 -4.09381 3.24353 0
M  V30 6713 H 620.824 -2.1639 2.06919 0
M  V30 6714 H 618.37 -1.03976 0.996243 0
M  V30 6715 H 620.323 -4.16016 0.671485 0
M  V30 6716 H 619.047 -3.2607 -0.185969 0
M  V30 6717 H 617.706 -3.10987 1.9412 0
M  V30 6718 H 617.354 -5.01696 0.361989 0
M  V30 6719 H 617.054 -5.50751 2.04811 0
M  V30 6720 H 618.578 -5.97811 1.24315 0
M  V30 6721 H 619.992 -4.77641 3.17067 0
M  V30 6722 H 618.389 -4.53906 3.92542 0
M  V30 6723 H 619.459 -3.14515 3.69064 0
M  V30 6724 N 620.802 -1.09834 -1.13024 0
M  V30 6725 C 621.735 -0.685453 -2.17662 0
M  V30 6726 C 622.713 0.310142 -1.59615 0
M  V30 6727 O 623.897 0.21052 -1.87321 0
M  V30 6728 C 621.024 -0.0104476 -3.38698 0
M  V30 6729 C 620.07 -0.968522 -4.15358 0
M  V30 6730 S 620.903 -2.48272 -4.74469 0
M  V30 6731 C 622.059 -1.82025 -5.98847 0
M  V30 6732 H 622.292 -1.57187 -2.52348 0
M  V30 6733 H 619.825 -0.914728 -1.24387 0
M  V30 6734 H 621.783 0.372694 -4.08805 0
M  V30 6735 H 620.444 0.852673 -3.02305 0
M  V30 6736 H 619.637 -0.443373 -5.02046 0
M  V30 6737 H 619.239 -1.29327 -3.50928 0
M  V30 6738 H 621.531 -1.14678 -6.67724 0
M  V30 6739 H 622.474 -2.66645 -6.55977 0
M  V30 6740 H 622.882 -1.2874 -5.49624 0
M  V30 6741 N 622.28 1.30327 -0.886154 0
M  V30 6742 C 623.696 1.48676 -0.580323 0
M  V30 6743 C 623.896 1.81189 0.881639 0
M  V30 6744 O 622.952 1.90021 1.66278 0
M  V30 6745 C 624.265 2.60932 -1.49449 0
M  V30 6746 C 625.813 2.74812 -1.49824 0
M  V30 6747 C 626.288 3.90183 -2.39836 0
M  V30 6748 N 627.779 3.97495 -2.37806 0
M  V30 6749 C 628.514 4.86078 -3.04165 0
M  V30 6750 N 628.01 5.79448 -3.79753 0
M  V30 6751 N 629.803 4.79456 -2.93391 0
M  V30 6752 H 621.954 1.07495 -1.8319 0
M  V30 6753 H 624.217 0.532661 -0.784204 0
M  V30 6754 H 623.923 2.43731 -2.5355 0
M  V30 6755 H 623.797 3.57437 -1.20494 0
M  V30 6756 H 626.184 2.91418 -0.464731 0
M  V30 6757 H 626.265 1.78924 -1.82811 0
M  V30 6758 H 625.909 3.74334 -3.43273 0
M  V30 6759 H 625.839 4.85411 -2.04166 0
M  V30 6760 H 628.33 3.30703 -1.82877 0
M  V30 6761 H 628.643 6.43805 -4.27475 0
M  V30 6762 H 626.988 5.79376 -3.8386 0
M  V30 6763 H 630.179 4.05494 -2.33864 0
M  V30 6764 H 630.352 5.48283 -3.45383 0
M  V30 6765 N 623.758 0.647228 1.43697 0
M  V30 6766 C 625.006 0.157876 2.01482 0
M  V30 6767 C 625.327 -1.23039 1.51282 0
M  V30 6768 O 624.597 -1.82071 0.722982 0
M  V30 6769 H 623.177 0.0553745 0.744945 0
M  V30 6770 H 625.839 0.83755 1.75986 0
M  V30 6771 H 624.935 0.137895 3.11795 0
M  V30 6772 N 625.236 -1.5273 0.388769 0
M  V30 6773 C 626.647 -1.86505 -0.0853788 0
M  V30 6774 C 626.998 -1.30847 -1.46197 0
M  V30 6775 O 626.123 -0.639609 -2.06732 0
M  V30 6776 C 626.718 -3.38414 -0.161703 0
M  V30 6777 C 625.277 -3.71902 -0.580144 0
M  V30 6778 C 624.424 -2.76095 0.258218 0
M  V30 6779 H 627.375 -1.46647 0.606665 0
M  V30 6780 H 627.396 -3.67638 -0.980936 0
M  V30 6781 H 626.908 -3.78893 0.840333 0
M  V30 6782 H 625.009 -3.36992 -1.58957 0
M  V30 6783 H 625.122 -4.77902 -0.338663 0
M  V30 6784 H 623.486 -2.53195 -0.276432 0
M  V30 6785 H 624.269 -3.19411 1.25822 0
M  V30 6786 N 626.714 -0.118576 -1.57153 0
M  V30 6787 C 627.954 0.542618 -1.97066 0
M  V30 6788 C 628.318 1.63874 -1.00046 0
M  V30 6789 O 629.519 2.3588 -1.28895 0
M  V30 6790 C 627.79 1.06196 -3.41258 0
M  V30 6791 S 629.349 1.73174 -4.03183 0
M  V30 6792 H 626.167 0.17638 -0.688775 0
M  V30 6793 H 628.769 -0.203556 -1.94437 0
M  V30 6794 H 627.473 0.253016 -4.09619 0
M  V30 6795 H 627.004 1.84342 -3.47536 0
M  V30 6796 H 629.019 3.01749 -3.93906 0
M  V30 6797 N 628.193 1.56834 0.155195 0
M  V30 6798 C 629.141 1.98584 1.21107 0
M  V30 6799 C 630.135 0.876987 1.44932 0
M  V30 6800 O 631.341 1.06215 1.45322 0
M  V30 6801 H 627.716 0.632039 0.407469 0
M  V30 6802 H 629.687 2.86561 0.832195 0
M  V30 6803 C 628.436 2.37555 2.53895 0
M  V30 6804 H 627.759 3.22428 2.3639 0
M  V30 6805 H 629.199 2.70598 3.26424 0
M  V30 6806 C 627.658 1.22507 3.13837 0
M  V30 6807 O 628.188 0.521388 3.98302 0
M  V30 6808 N 626.394 0.991444 2.73164 0
M  V30 6809 H 625.941 1.56544 2.04577 0
M  V30 6810 H 625.899 0.223546 3.13604 0
M  V30 6811 N 629.671 -0.424282 1.51781 0
M  V30 6812 C 630.918 -1.1726 1.65095 0
M  V30 6813 C 631.246 -1.90881 0.373477 0
M  V30 6814 O 630.501 -1.84835 -0.642997 0
M  V30 6815 C 630.8 -2.20418 2.81337 0
M  V30 6816 C 630.466 -1.63715 4.20129 0
M  V30 6817 C 629.128 -1.47975 4.57883 0
M  V30 6818 C 631.48 -1.22157 5.06682 0
M  V30 6819 C 628.808 -0.891703 5.79884 0
M  V30 6820 C 631.16 -0.647767 6.29275 0
M  V30 6821 C 629.824 -0.477371 6.65791 0
M  V30 6822 H 629.094 -0.429085 0.604125 0
M  V30 6823 H 631.741 -0.461852 1.85847 0
M  V30 6824 H 630.046 -2.97581 2.54859 0
M  V30 6825 H 631.743 -2.78163 2.88836 0
M  V30 6826 H 628.333 -1.76946 3.90369 0
M  V30 6827 H 632.517 -1.33133 4.7811 0
M  V30 6828 H 627.773 -0.747563 6.06813 0
M  V30 6829 H 631.947 -0.317291 6.95677 0
M  V30 6830 H 629.574 -0.0195936 7.60197 0
M  V30 6831 N 631.149 -1.42148 -0.680565 0
M  V30 6832 C 632.059 -1.47565 -1.82378 0
M  V30 6833 C 633.075 -0.36489 -1.70131 0
M  V30 6834 O 634.251 -0.614916 -1.91783 0
M  V30 6835 C 631.316 -1.37013 -3.18478 0
M  V30 6836 C 630.377 -2.58532 -3.42724 0
M  V30 6837 C 629.61 -2.48473 -4.72331 0
M  V30 6838 O 629.833 -1.51745 -5.49845 0
M  V30 6839 O 628.767 -3.38503 -4.97694 0
M  V30 6840 H 632.593 -2.44045 -1.80764 0
M  V30 6841 H 630.178 -1.23849 -0.835569 0
M  V30 6842 H 632.06 -1.33468 -3.99705 0
M  V30 6843 H 630.735 -0.436552 -3.20743 0
M  V30 6844 H 629.642 -2.67652 -2.61368 0
M  V30 6845 H 630.975 -3.50769 -3.45286 0
M  V30 6846 N 632.627 0.916307 -1.28225 0
M  V30 6847 C 633.876 1.65975 -1.14608 0
M  V30 6848 C 634.189 1.93204 0.305191 0
M  V30 6849 O 635.395 2.65611 0.562432 0
M  V30 6850 C 633.851 2.98989 -2.00333 0
M  V30 6851 C 633.459 2.79417 -3.50186 0
M  V30 6852 C 635.203 3.76856 -1.95397 0
M  V30 6853 C 633.11 4.08056 -4.28071 0
M  V30 6854 H 632.04 0.622587 -0.425324 0
M  V30 6855 H 634.691 1.01705 -1.52736 0
M  V30 6856 H 633.073 3.6438 -1.5506 0
M  V30 6857 H 634.247 2.22723 -4.034 0
M  V30 6858 H 632.562 2.14966 -3.56621 0
M  V30 6859 H 635.159 4.72203 -2.50856 0
M  V30 6860 H 635.502 4.05776 -0.930137 0
M  V30 6861 H 636.035 3.1828 -2.38626 0
M  V30 6862 H 632.774 3.8431 -5.31024 0
M  V30 6863 H 632.294 4.64371 -3.79631 0
M  V30 6864 H 633.973 4.76333 -4.37854 0
M  V30 6865 N 634.105 1.10431 1.1244 0
M  V30 6866 C 635.068 0.756542 2.16354 0
M  V30 6867 C 636.068 -0.21899 1.59302 0
M  V30 6868 O 637.258 0.00415969 1.742 0
M  V30 6869 C 634.39 0.120612 3.40687 0
M  V30 6870 H 635.583 1.67696 2.48632 0
M  V30 6871 H 633.136 0.904832 1.27446 0
M  V30 6872 H 633.871 -0.810536 3.14008 0
M  V30 6873 H 633.656 0.822693 3.83372 0
M  V30 6874 H 635.146 -0.106945 4.17463 0
M  V30 6875 N 635.583 -1.29855 0.893053 0
M  V30 6876 C 636.546 -2.26183 0.370687 0
M  V30 6877 C 637.546 -1.53108 -0.491385 0
M  V30 6878 O 638.736 -1.71643 -0.297386 0
M  V30 6879 C 635.868 -3.37633 -0.470827 0
M  V30 6880 H 637.061 -2.73903 1.22135 0
M  V30 6881 H 634.614 -1.41183 0.67061 0
M  V30 6882 H 635.349 -2.95241 -1.34175 0
M  V30 6883 H 635.134 -3.91825 0.146784 0
M  V30 6884 H 636.624 -4.09313 -0.827825 0
M  V30 6885 N 637.061 -0.65484 -1.43351 0
M  V30 6886 C 638.286 -0.175046 -2.0666 0
M  V30 6887 C 638.711 1.15104 -1.4877 0
M  V30 6888 O 638.069 1.71144 -0.598279 0
M  V30 6889 C 638.117 -0.0991544 -3.60464 0
M  V30 6890 O 637.221 0.938169 -4.01587 0
M  V30 6891 H 636.562 -0.0956148 -0.65708 0
M  V30 6892 H 639.092 -0.898222 -1.83829 0
M  V30 6893 H 639.102 0.083632 -4.07914 0
M  V30 6894 H 637.777 -1.06719 -4.01975 0
M  V30 6895 H 636.354 0.72804 -3.65724 0
M  V30 6896 N 638.539 1.52521 -0.396863 0
M  V30 6897 C 639.816 1.94112 0.240842 0
M  V30 6898 C 640.196 1.33288 1.637 0
M  V30 6899 O 639.544 0.503901 2.22875 0
M  V30 6900 C 639.754 3.48033 0.259567 0
M  V30 6901 C 641.102 4.21822 0.484866 0
M  V30 6902 O 642.126 3.54579 0.339453 0
M  V30 6903 O 640.985 5.41042 0.770412 0
M  V30 6904 H 638.079 0.812973 0.151671 0
M  V30 6905 H 640.625 1.63572 -0.451918 0
M  V30 6906 H 639.397 3.84655 -0.718078 0
M  V30 6907 H 639.02 3.84899 0.996937 0
M  V30 6908 N 640.017 0.126909 1.57088 0
M  V30 6909 C 641.263 -0.529952 1.95753 0
M  V30 6910 C 641.596 -1.65823 1.01077 0
M  V30 6911 O 640.871 -1.94437 0.0494162 0
M  V30 6912 C 641.154 -1.05517 3.44294 0
M  V30 6913 C 641.007 0.0702253 4.49745 0
M  V30 6914 C 642.326 -1.9435 3.94862 0
M  V30 6915 H 639.445 -0.191168 0.711775 0
M  V30 6916 H 642.087 0.204071 1.88901 0
M  V30 6917 H 640.237 -1.68069 3.50264 0
M  V30 6918 H 641.909 0.705834 4.55868 0
M  V30 6919 H 640.152 0.732259 4.27575 0
M  V30 6920 H 640.823 -0.338642 5.5096 0
M  V30 6921 H 643.299 -1.41658 3.91244 0
M  V30 6922 H 642.175 -2.28015 4.993 0
M  V30 6923 H 642.436 -2.87299 3.36024 0
M  V30 6924 N 641.495 -1.56914 -0.146875 0
M  V30 6925 C 642.425 -2.01308 -1.1831 0
M  V30 6926 C 643.406 -0.892664 -1.44795 0
M  V30 6927 O 644.591 -1.16048 -1.55713 0
M  V30 6928 C 641.721 -2.3938 -2.51624 0
M  V30 6929 C 640.675 -3.54608 -2.3966 0
M  V30 6930 C 640.001 -3.78493 -3.77686 0
M  V30 6931 C 641.301 -4.87269 -1.88058 0
M  V30 6932 H 642.995 -2.88123 -0.813964 0
M  V30 6933 H 640.541 -1.38615 -0.3901 0
M  V30 6934 H 642.494 -2.69037 -3.24341 0
M  V30 6935 H 641.218 -1.49502 -2.90373 0
M  V30 6936 H 639.877 -3.25116 -1.69396 0
M  V30 6937 H 639.525 -2.85866 -4.13871 0
M  V30 6938 H 639.225 -4.56039 -3.70543 0
M  V30 6939 H 640.749 -4.10576 -4.51951 0
M  V30 6940 H 642.163 -5.15644 -2.50568 0
M  V30 6941 H 640.56 -5.68622 -1.91805 0
M  V30 6942 H 641.63 -4.77634 -0.836277 0
M  V30 6943 N 642.974 0.416227 -1.52004 0
M  V30 6944 C 644.221 1.16383 -1.65714 0
M  V30 6945 C 644.549 1.9068 -0.383594 0
M  V30 6946 O 643.804 1.85174 0.633185 0
M  V30 6947 C 644.103 2.18923 -2.82502 0
M  V30 6948 C 643.769 1.61485 -4.20991 0
M  V30 6949 C 642.431 1.45545 -4.58661 0
M  V30 6950 C 644.783 1.19468 -5.07323 0
M  V30 6951 C 642.111 0.860937 -5.80349 0
M  V30 6952 C 644.463 0.614386 -6.29609 0
M  V30 6953 C 643.127 0.442056 -6.66035 0
M  V30 6954 H 642.397 0.425875 -0.606392 0
M  V30 6955 H 645.044 0.45199 -1.8609 0
M  V30 6956 H 643.349 2.96225 -2.56433 0
M  V30 6957 H 645.046 2.76628 -2.90307 0
M  V30 6958 H 641.636 1.74873 -3.91302 0
M  V30 6959 H 645.82 1.30596 -4.78809 0
M  V30 6960 H 641.076 0.715372 -6.072 0
M  V30 6961 H 645.25 0.280393 -6.95835 0
M  V30 6962 H 642.877 -0.0207218 -7.60197 0
M  V30 6963 N 644.452 1.42507 0.673017 0
M  V30 6964 C 645.399 1.46124 1.78651 0
M  V30 6965 C 646.369 0.313007 1.63124 0
M  V30 6966 O 647.554 0.517337 1.83653 0
M  V30 6967 C 644.694 1.3711 3.16694 0
M  V30 6968 C 643.807 2.61983 3.43495 0
M  V30 6969 C 642.942 2.45098 4.71275 0
M  V30 6970 C 641.981 3.65336 4.91117 0
M  V30 6971 N 641.118 3.47383 6.10139 0
M  V30 6972 H 645.958 2.4128 1.74895 0
M  V30 6973 H 643.495 1.19788 0.853766 0
M  V30 6974 H 645.453 1.29881 3.96468 0
M  V30 6975 H 644.083 0.45549 3.1957 0
M  V30 6976 H 643.135 2.79571 2.57961 0
M  V30 6977 H 644.447 3.51355 3.5405 0
M  V30 6978 H 643.601 2.35466 5.59143 0
M  V30 6979 H 642.34 1.53219 4.63007 0
M  V30 6980 H 641.345 3.754 4.0169 0
M  V30 6981 H 642.57 4.58199 5.01229 0
M  V30 6982 H 640.516 2.58222 6.0304 0
M  V30 6983 H 640.433 4.30344 6.21563 0
M  V30 6984 H 641.701 3.41565 7.00681 0
M  V30 6985 N 645.93 -0.909495 1.28709 0
M  V30 6986 C 646.84 -2.04558 1.14861 0
M  V30 6987 C 647.856 -1.73842 0.0741621 0
M  V30 6988 O 649.032 -1.99383 0.2843 0
M  V30 6989 C 646.097 -3.36957 0.816148 0
M  V30 6990 C 645.158 -3.81255 1.97341 0
M  V30 6991 C 644.391 -5.07335 1.65671 0
M  V30 6992 O 644.614 -5.67514 0.573053 0
M  V30 6993 O 643.548 -5.47449 2.50167 0
M  V30 6994 H 647.374 -2.19161 2.10243 0
M  V30 6995 H 644.959 -1.03159 1.08068 0
M  V30 6996 H 646.841 -4.16436 0.644873 0
M  V30 6997 H 645.516 -3.2352 -0.107983 0
M  V30 6998 H 644.423 -3.02584 2.19986 0
M  V30 6999 H 645.756 -3.99261 2.87839 0
M  V30 7000 N 647.408 -1.11026 -1.11852 0
M  V30 7001 C 648.358 -0.733836 -2.15868 0
M  V30 7002 C 649.342 0.26001 -1.58785 0
M  V30 7003 O 650.534 0.0677901 -1.7687 0
M  V30 7004 C 647.663 -0.173948 -3.42859 0
M  V30 7005 C 646.749 -1.1952 -4.0691 0
M  V30 7006 N 647.14 -2.38797 -4.45881 0
M  V30 7007 C 645.438 -1.03714 -4.33773 0
M  V30 7008 C 646.139 -3.03894 -4.96007 0
M  V30 7009 N 645.115 -2.31389 -4.91894 0
M  V30 7010 H 648.917 -1.64171 -2.43773 0
M  V30 7011 H 646.431 -0.988877 -1.28822 0
M  V30 7012 H 648.428 0.113836 -4.16745 0
M  V30 7013 H 647.088 0.728568 -3.16421 0
M  V30 7014 H 648.099 -2.76281 -4.38051 0
M  V30 7015 H 644.776 -0.190694 -4.17064 0
M  V30 7016 H 646.166 -4.05389 -5.35826 0
M  V30 7017 N 648.886 1.2938 -0.899927 0
M  V30 7018 C 649.796 2.31462 -0.382437 0
M  V30 7019 C 650.812 1.65956 0.522929 0
M  V30 7020 O 651.988 1.97131 0.412454 0
M  V30 7021 C 649.053 3.44595 0.381472 0
M  V30 7022 C 648.114 4.25692 -0.555444 0
M  V30 7023 C 647.347 5.33422 0.172102 0
M  V30 7024 O 647.57 5.53053 1.396 0
M  V30 7025 O 646.504 5.99939 -0.485491 0
M  V30 7026 H 650.33 2.77706 -1.22934 0
M  V30 7027 H 647.915 1.33821 -0.664259 0
M  V30 7028 H 649.797 4.13474 0.813442 0
M  V30 7029 H 648.472 3.00458 1.20443 0
M  V30 7030 H 647.379 3.59453 -1.03653 0
M  V30 7031 H 648.712 4.73471 -1.34483 0
M  V30 7032 N 650.364 0.662433 1.43002 0
M  V30 7033 C 651.78 0.330835 1.56133 0
M  V30 7034 C 651.98 -1.16454 1.64441 0
M  V30 7035 O 651.036 -1.94964 1.60453 0
M  V30 7036 C 652.349 1.05029 2.81761 0
M  V30 7037 C 653.897 1.03142 2.95518 0
M  V30 7038 C 654.372 1.73196 4.2399 0
M  V30 7039 N 655.863 1.70004 4.30875 0
M  V30 7040 C 656.598 2.21074 5.29069 0
M  V30 7041 N 656.094 2.80473 6.33488 0
M  V30 7042 N 657.887 2.1152 5.20784 0
M  V30 7043 H 650.038 1.63272 1.35853 0
M  V30 7044 H 652.301 0.687149 0.653092 0
M  V30 7045 H 652.007 2.10542 2.81718 0
M  V30 7046 H 651.881 0.607664 3.72273 0
M  V30 7047 H 654.268 -0.0153339 2.95096 0
M  V30 7048 H 654.349 1.51282 2.0627 0
M  V30 7049 H 653.993 2.77833 4.25172 0
M  V30 7050 H 653.923 1.22515 5.1215 0
M  V30 7051 H 656.414 1.26667 3.56039 0
M  V30 7052 H 656.727 3.17094 7.04749 0
M  V30 7053 H 655.072 2.84538 6.34085 0
M  V30 7054 H 658.263 1.64814 4.38126 0
M  V30 7055 H 658.436 2.51629 5.97149 0
M  V30 7056 N 651.842 -1.52309 0.404946 0
M  V30 7057 C 653.091 -2.00952 -0.173529 0
M  V30 7058 C 653.404 -1.29512 -1.46581 0
M  V30 7059 O 654.61 -1.6895 -2.12528 0
M  V30 7060 C 653.066 -3.58097 -0.359801 0
M  V30 7061 C 652.674 -4.38449 0.920138 0
M  V30 7062 C 654.418 -4.14984 -0.893794 0
M  V30 7063 C 652.325 -5.87227 0.701285 0
M  V30 7064 H 651.255 -0.750871 -0.0686244 0
M  V30 7065 H 653.906 -1.75687 0.529749 0
M  V30 7066 H 652.288 -3.79675 -1.12531 0
M  V30 7067 H 653.462 -4.28633 1.69147 0
M  V30 7068 H 651.777 -3.92859 1.38024 0
M  V30 7069 H 654.374 -5.23813 -1.0735 0
M  V30 7070 H 654.717 -3.72072 -1.8673 0
M  V30 7071 H 655.25 -3.97358 -0.187453 0
M  V30 7072 H 651.989 -6.34491 1.64624 0
M  V30 7073 H 651.509 -5.99792 -0.0308288 0
M  V30 7074 H 653.188 -6.46096 0.341846 0
M  V30 7075 N 653.32 -0.135238 -1.57019 0
M  V30 7076 C 654.545 0.529343 -2.00531 0
M  V30 7077 C 654.97 1.58391 -1.01459 0
M  V30 7078 O 654.328 1.81296 0.0113986 0
M  V30 7079 C 654.376 1.11748 -3.42848 0
M  V30 7080 O 653.48 2.23267 -3.46736 0
M  V30 7081 H 652.821 0.130669 -0.651016 0
M  V30 7082 H 655.351 -0.228503 -2.0332 0
M  V30 7083 H 655.361 1.44905 -3.81401 0
M  V30 7084 H 654.036 0.345147 -4.14465 0
M  V30 7085 H 652.613 1.91428 -3.20015 0
M  V30 7086 N 654.798 1.5699 0.138552 0
M  V30 7087 C 655.731 1.94064 1.2006 0
M  V30 7088 C 656.709 0.807601 1.41126 0
M  V30 7089 O 657.893 1.06399 1.556 0
M  V30 7090 C 655.02 2.21999 2.55801 0
M  V30 7091 C 654.066 3.44617 2.5128 0
M  V30 7092 S 654.899 4.97888 1.97149 0
M  V30 7093 C 656.055 5.28954 3.34602 0
M  V30 7094 H 656.288 2.83843 0.884337 0
M  V30 7095 H 653.821 1.50507 0.344517 0
M  V30 7096 H 655.779 2.38772 3.33914 0
M  V30 7097 H 654.44 1.32869 2.84613 0
M  V30 7098 H 653.633 3.61466 3.51224 0
M  V30 7099 H 653.235 3.27129 1.8128 0
M  V30 7100 H 655.527 5.22938 4.30745 0
M  V30 7101 H 656.47 6.30346 3.22598 0
M  V30 7102 H 656.878 4.56455 3.32128 0
M  V30 7103 N 656.276 -0.40816 1.52223 0
M  V30 7104 C 657.523 -1.15502 1.66329 0
M  V30 7105 C 657.851 -1.90474 0.393701 0
M  V30 7106 O 657.106 -1.85507 -0.623356 0
M  V30 7107 C 657.405 -2.17422 2.83659 0
M  V30 7108 C 657.071 -1.5925 4.21841 0
M  V30 7109 C 655.733 -1.4311 4.59427 0
M  V30 7110 C 658.085 -1.16776 5.0795 0
M  V30 7111 C 655.413 -0.830148 5.80797 0
M  V30 7112 C 657.765 -0.580988 6.29926 0
M  V30 7113 C 656.429 -0.406729 6.6626 0
M  V30 7114 H 655.699 -0.422653 0.608642 0
M  V30 7115 H 658.346 -0.442114 1.86327 0
M  V30 7116 H 656.651 -2.94861 2.58001 0
M  V30 7117 H 658.348 -2.75084 2.9177 0
M  V30 7118 H 654.938 -1.72796 3.92224 0
M  V30 7119 H 659.122 -1.28055 4.79495 0
M  V30 7120 H 654.378 -0.68316 6.07571 0
M  V30 7121 H 658.552 -0.243488 6.95974 0
M  V30 7122 H 656.179 0.0610366 7.60175 0
M  V30 7123 N 657.755 -1.42862 -0.66545 0
M  V30 7124 C 658.687 -1.43026 -1.79098 0
M  V30 7125 C 659.7 -0.32803 -1.59461 0
M  V30 7126 O 660.889 -0.591709 -1.68407 0
M  V30 7127 C 657.989 -1.21566 -3.16346 0
M  V30 7128 C 657.162 -2.44399 -3.62751 0
M  V30 7129 C 656.221 -2.18344 -4.78761 0
M  V30 7130 O 655.247 -2.91611 -4.88827 0
M  V30 7131 N 656.449 -1.1924 -5.68122 0
M  V30 7132 H 659.214 -2.40045 -1.79439 0
M  V30 7133 H 656.775 -1.37861 -0.848872 0
M  V30 7134 H 658.767 -1.02037 -3.91625 0
M  V30 7135 H 657.337 -0.330368 -3.10849 0
M  V30 7136 H 656.557 -2.79433 -2.78048 0
M  V30 7137 H 657.845 -3.26173 -3.90498 0
M  V30 7138 H 657.243 -0.586603 -5.6265 0
M  V30 7139 H 655.8 -1.05698 -6.43173 0
M  V30 7140 N 659.233 0.902656 -1.29189 0
M  V30 7141 C 660.51 1.63296 -1.07674 0
M  V30 7142 C 660.89 2.07649 0.380137 0
M  V30 7143 O 660.238 1.82997 1.36837 0
M  V30 7144 C 660.448 2.81603 -2.06158 0
M  V30 7145 C 661.796 3.52359 -2.36914 0
M  V30 7146 O 662.82 2.91767 -2.04329 0
M  V30 7147 O 661.679 4.61586 -2.92576 0
M  V30 7148 H 658.773 0.716889 -0.41231 0
M  V30 7149 H 661.319 0.950984 -1.4055 0
M  V30 7150 H 660.091 2.46004 -3.04299 0
M  V30 7151 H 659.714 3.57508 -1.73993 0
M  V30 7152 N 660.711 1.11618 1.11262 0
M  V30 7153 C 661.939 0.888739 1.8684 0
M  V30 7154 C 662.354 -0.561558 1.80255 0
M  V30 7155 O 661.711 -1.38782 1.18515 0
M  V30 7156 C 661.762 1.34422 3.35579 0
M  V30 7157 O 661.483 2.73766 3.42029 0
M  V30 7158 C 662.984 1.15246 4.28058 0
M  V30 7159 H 660.204 0.318152 0.590779 0
M  V30 7160 H 662.748 1.48398 1.40707 0
M  V30 7161 H 660.903 0.79239 3.7921 0
M  V30 7162 H 661.317 2.9355 4.34659 0
M  V30 7163 H 662.791 1.52015 5.30656 0
M  V30 7164 H 663.268 0.0922007 4.39103 0
M  V30 7165 H 663.874 1.69136 3.90222 0
M  V30 7166 N 662.189 -1.289 0.906776 0
M  V30 7167 C 663.417 -1.99401 0.551969 0
M  V30 7168 C 663.832 -1.67816 -0.865048 0
M  V30 7169 O 663.189 -0.927078 -1.57199 0
M  V30 7170 C 663.24 -3.53779 0.743152 0
M  V30 7171 O 662.961 -3.84248 2.1044 0
M  V30 7172 C 664.462 -4.41543 0.39424 0
M  V30 7173 H 661.682 -0.636926 0.211106 0
M  V30 7174 H 664.226 -1.64266 1.21807 0
M  V30 7175 H 662.381 -3.87201 0.124143 0
M  V30 7176 H 662.795 -4.78904 2.13895 0
M  V30 7177 H 664.269 -5.48957 0.578814 0
M  V30 7178 H 664.746 -4.34073 -0.669137 0
M  V30 7179 H 665.352 -4.13605 0.990491 0
M  V30 7180 N 663.667 -0.670007 -1.42649 0
M  V30 7181 C 664.597 -0.00258501 -2.335 0
M  V30 7182 C 665.578 0.794364 -1.50412 0
M  V30 7183 O 666.763 0.75248 -1.79029 0
M  V30 7184 C 663.893 0.952748 -3.33976 0
M  V30 7185 C 662.847 0.264733 -4.2718 0
M  V30 7186 C 662.173 1.33267 -5.17826 0
M  V30 7187 C 663.473 -0.853289 -5.15283 0
M  V30 7188 H 665.167 -0.761326 -2.89559 0
M  V30 7189 H 662.713 -0.367561 -1.3923 0
M  V30 7190 H 664.666 1.4287 -3.96442 0
M  V30 7191 H 663.39 1.74285 -2.7621 0
M  V30 7192 H 662.049 -0.190938 -3.66102 0
M  V30 7193 H 661.697 2.11464 -4.5639 0
M  V30 7194 H 661.397 0.877476 -5.81011 0
M  V30 7195 H 662.921 1.80965 -5.83167 0
M  V30 7196 H 664.335 -0.458763 -5.71462 0
M  V30 7197 H 662.732 -1.23398 -5.87276 0
M  V30 7198 H 663.802 -1.70412 -4.53969 0
M  V30 7199 N 665.145 1.52092 -0.413018 0
M  V30 7200 C 666.375 2.05974 0.160648 0
M  V30 7201 C 666.783 1.28267 1.39084 0
M  V30 7202 O 666.126 0.328805 1.80733 0
M  V30 7203 C 666.188 3.54918 0.572169 0
M  V30 7204 C 665.852 4.53705 -0.547826 0
M  V30 7205 C 666.849 5.00342 -1.41259 0
M  V30 7206 C 664.534 4.97089 -0.721627 0
M  V30 7207 C 666.528 5.89011 -2.43607 0
M  V30 7208 C 664.215 5.85554 -1.74841 0
M  V30 7209 C 665.213 6.3141 -2.60403 0
M  V30 7210 O 664.901 7.18123 -3.61323 0
M  V30 7211 H 664.633 0.675636 0.0221936 0
M  V30 7212 H 667.187 1.96931 -0.58373 0
M  V30 7213 H 665.417 3.61661 1.36889 0
M  V30 7214 H 667.106 3.91428 1.0742 0
M  V30 7215 H 667.872 4.67537 -1.28974 0
M  V30 7216 H 663.751 4.60954 -0.0652911 0
M  V30 7217 H 667.295 6.24725 -3.10425 0
M  V30 7218 H 663.192 6.17773 -1.87156 0
M  V30 7219 H 663.96 7.36244 -3.57613 0
M  V30 7220 N 666.623 0.143563 1.56945 0
M  V30 7221 C 667.553 -0.7936 2.196 0
M  V30 7222 C 668.534 -1.25955 1.14321 0
M  V30 7223 O 669.719 -1.31773 1.42651 0
M  V30 7224 C 666.849 -2.03424 2.81489 0
M  V30 7225 C 665.803 -1.70519 3.92565 0
M  V30 7226 C 665.129 -3.01817 4.41373 0
M  V30 7227 C 666.429 -0.95449 5.13504 0
M  V30 7228 H 668.123 -0.271423 2.98167 0
M  V30 7229 H 665.669 -0.12911 1.4342 0
M  V30 7230 H 667.622 -2.69463 3.23987 0
M  V30 7231 H 666.346 -2.58008 2.00248 0
M  V30 7232 H 665.005 -1.06859 3.5068 0
M  V30 7233 H 664.653 -3.54386 3.56959 0
M  V30 7234 H 664.353 -2.80565 5.16292 0
M  V30 7235 H 665.877 -3.68934 4.86539 0
M  V30 7236 H 667.291 -1.5169 5.52868 0
M  V30 7237 H 665.688 -0.842035 5.94163 0
M  V30 7238 H 666.758 0.0544033 4.84869 0
M  V30 7239 N 668.101 -1.57061 -0.130224 0
M  V30 7240 C 669.347 -1.8453 -0.841216 0
M  V30 7241 C 669.68 -0.727666 -1.80052 0
M  V30 7242 O 668.955 0.267419 -1.92653 0
M  V30 7243 C 669.238 -3.22553 -1.60099 0
M  V30 7244 C 669.091 -4.44901 -0.662048 0
M  V30 7245 C 670.41 -3.58003 -2.55973 0
M  V30 7246 H 667.529 -0.671215 -0.304366 0
M  V30 7247 H 670.171 -1.89705 -0.105821 0
M  V30 7248 H 668.321 -3.18272 -2.22789 0
M  V30 7249 H 669.993 -4.61278 -0.0448559 0
M  V30 7250 H 668.236 -4.33791 0.0272253 0
M  V30 7251 H 668.907 -5.3812 -1.23006 0
M  V30 7252 H 671.383 -3.63002 -2.03393 0
M  V30 7253 H 670.259 -4.55576 -3.06172 0
M  V30 7254 H 670.52 -2.84833 -3.38116 0
M  V30 7255 N 669.579 0.400081 -1.52437 0
M  V30 7256 C 670.856 1.15973 -1.57511 0
M  V30 7257 C 671.236 2.0798 -0.361572 0
M  V30 7258 O 670.584 2.19032 0.650929 0
M  V30 7259 C 670.794 1.92912 -2.90837 0
M  V30 7260 C 672.142 2.48662 -3.44169 0
M  V30 7261 O 673.166 2.03081 -2.92637 0
M  V30 7262 O 672.025 3.31894 -4.34176 0
M  V30 7263 H 669.119 0.530023 -0.634827 0
M  V30 7264 H 671.665 0.40613 -1.64769 0
M  V30 7265 H 670.437 1.25564 -3.70607 0
M  V30 7266 H 670.06 2.75257 -2.86913 0
M  V30 7267 N 671.057 1.43213 0.657864 0
M  V30 7268 C 672.305 1.44298 1.41501 0
M  V30 7269 C 672.626 0.0666478 1.94886 0
M  V30 7270 O 671.896 -0.897345 1.74139 0
M  V30 7271 H 670.476 0.531257 0.525143 0
M  V30 7272 H 673.138 1.78777 0.776195 0
M  V30 7273 H 672.234 2.1528 2.25966 0
M  V30 7274 N 672.536 -0.895792 1.29666 0
M  V30 7275 C 673.466 -2.01673 1.17688 0
M  V30 7276 C 674.447 -1.69955 0.0701317 0
M  V30 7277 O 675.632 -1.9258 0.250289 0
M  V30 7278 C 672.762 -3.36568 0.856681 0
M  V30 7279 C 671.716 -3.82509 1.92017 0
M  V30 7280 C 671.042 -5.14574 1.4532 0
M  V30 7281 C 672.342 -4.02409 3.32963 0
M  V30 7282 H 674.036 -2.11953 2.11463 0
M  V30 7283 H 671.582 -1.01839 1.01807 0
M  V30 7284 H 673.535 -4.14498 0.759577 0
M  V30 7285 H 672.259 -3.26391 -0.116763 0
M  V30 7286 H 670.918 -3.068 2.00673 0
M  V30 7287 H 670.566 -5.00815 0.468325 0
M  V30 7288 H 670.266 -5.46283 2.16447 0
M  V30 7289 H 671.79 -5.9504 1.36968 0
M  V30 7290 H 673.204 -4.70808 3.27127 0
M  V30 7291 H 671.601 -4.45478 4.02082 0
M  V30 7292 H 672.671 -3.06616 3.75652 0
M  V30 7293 N 674.014 -1.12206 -1.10668 0
M  V30 7294 C 675.242 -0.898635 -1.86366 0
M  V30 7295 C 675.657 0.551991 -1.80551 0
M  V30 7296 O 675.014 1.38152 -1.19249 0
M  V30 7297 C 675.065 -1.36199 -3.34861 0
M  V30 7298 O 674.786 -2.75576 -3.40573 0
M  V30 7299 C 676.287 -1.17515 -4.2744 0
M  V30 7300 H 673.507 -0.321281 -0.589084 0
M  V30 7301 H 676.051 -1.49142 -1.39918 0
M  V30 7302 H 674.206 -0.81249 -3.78784 0
M  V30 7303 H 674.62 -2.95851 -4.33096 0
M  V30 7304 H 676.094 -1.54827 -5.29842 0
M  V30 7305 H 676.571 -0.115486 -4.39048 0
M  V30 7306 H 677.177 -1.71203 -3.89319 0
M  V30 7307 N 675.492 1.28418 -0.913599 0
M  V30 7308 C 676.44 2.29272 -0.392037 0
M  V30 7309 C 677.434 1.61344 0.516198 0
M  V30 7310 O 678.64 1.75557 0.39746 0
M  V30 7311 H 675.015 0.744178 -0.108178 0
M  V30 7312 H 676.986 2.70691 -1.25574 0
M  V30 7313 C 675.735 3.45905 0.352815 0
M  V30 7314 H 675.058 3.98378 -0.336848 0
M  V30 7315 H 676.498 4.18473 0.682398 0
M  V30 7316 C 674.957 2.98572 1.56065 0
M  V30 7317 O 675.487 3.01033 2.65974 0
M  V30 7318 N 673.693 2.54235 1.40759 0
M  V30 7319 H 673.24 2.52432 0.513403 0
M  V30 7320 H 673.198 2.22925 2.21702 0
M  V30 7321 N 676.97 0.677563 1.42291 0
M  V30 7322 C 678.195 0.207901 2.06355 0
M  V30 7323 C 678.62 -1.12723 1.50583 0
M  V30 7324 O 677.978 -1.70171 0.62543 0
M  V30 7325 C 678.026 0.156489 3.6026 0
M  V30 7326 O 677.13 -0.874162 4.03029 0
M  V30 7327 H 676.471 0.106056 0.655475 0
M  V30 7328 H 679.001 0.927354 1.82377 0
M  V30 7329 H 679.011 -0.0187258 4.07996 0
M  V30 7330 H 677.686 1.13101 4.00226 0
M  V30 7331 H 676.263 -0.669764 3.66836 0
M  V30 7332 N 678.448 -1.51871 0.421078 0
M  V30 7333 C 679.378 -2.30231 -0.389363 0
M  V30 7334 C 680.359 -1.34946 -1.03555 0
M  V30 7335 O 681.544 -1.63859 -1.04229 0
M  V30 7336 C 678.674 -3.13247 -1.49979 0
M  V30 7337 C 677.628 -4.16677 -0.977966 0
M  V30 7338 C 676.954 -4.88112 -2.1829 0
M  V30 7339 C 678.254 -5.22295 -0.0236775 0
M  V30 7340 H 679.948 -2.98229 0.264524 0
M  V30 7341 H 677.494 -1.43424 0.12866 0
M  V30 7342 H 679.447 -3.66838 -2.07383 0
M  V30 7343 H 678.171 -2.4304 -2.18173 0
M  V30 7344 H 676.83 -3.64114 -0.426245 0
M  V30 7345 H 676.478 -4.14423 -2.85066 0
M  V30 7346 H 676.178 -5.58041 -1.84021 0
M  V30 7347 H 677.702 -5.44521 -2.76278 0
M  V30 7348 H 679.116 -5.71055 -0.506899 0
M  V30 7349 H 677.513 -5.99656 0.230782 0
M  V30 7350 H 678.583 -4.76131 0.917999 0
M  V30 7351 N 679.926 -0.151884 -1.56866 0
M  V30 7352 C 680.836 0.798876 -2.20579 0
M  V30 7353 C 681.852 1.268 -1.19154 0
M  V30 7354 O 683.028 1.32418 -1.51748 0
M  V30 7355 C 680.093 2.01861 -2.81874 0
M  V30 7356 C 679.154 1.59825 -3.9844 0
M  V30 7357 C 678.387 2.75984 -4.56802 0
M  V30 7358 O 678.61 3.92331 -4.14044 0
M  V30 7359 O 677.544 2.51175 -5.46987 0
M  V30 7360 H 681.37 0.2865 -3.02346 0
M  V30 7361 H 678.955 0.0753806 -1.4921 0
M  V30 7362 H 680.837 2.73235 -3.20813 0
M  V30 7363 H 679.512 2.52042 -2.03117 0
M  V30 7364 H 678.419 0.854601 -3.64208 0
M  V30 7365 H 679.752 1.14355 -4.78731 0
M  V30 7366 N 681.404 1.57128 0.121893 0
M  V30 7367 C 682.652 1.84335 0.828548 0
M  V30 7368 C 682.973 0.736632 1.80551 0
M  V30 7369 O 682.243 -0.23962 1.94429 0
M  V30 7370 H 680.823 0.680108 0.30897 0
M  V30 7371 H 683.485 1.9459 0.109906 0
M  V30 7372 H 682.581 2.80152 1.37554 0
M  V30 7373 N 682.882 -0.391992 1.52647 0
M  V30 7374 C 683.845 -1.46135 1.7657 0
M  V30 7375 C 684.845 -1.47701 0.635698 0
M  V30 7376 O 686.035 -1.48924 0.903728 0
M  V30 7377 C 683.167 -2.85443 1.86374 0
M  V30 7378 H 684.36 -1.26208 2.72051 0
M  V30 7379 H 681.913 -0.623549 1.43323 0
M  V30 7380 H 682.648 -3.10718 0.928685 0
M  V30 7381 H 682.433 -2.85708 2.68539 0
M  V30 7382 H 683.923 -3.62933 2.06566 0
M  V30 7383 N 684.36 -1.4356 -0.65026 0
M  V30 7384 C 685.776 -1.27025 -0.966269 0
M  V30 7385 C 685.976 -0.192117 -2.00582 0
M  V30 7386 O 685.032 0.428459 -2.48838 0
M  V30 7387 C 686.345 -2.63556 -1.44772 0
M  V30 7388 C 687.893 -2.71111 -1.56421 0
M  V30 7389 C 688.368 -4.08067 -2.07956 0
M  V30 7390 N 689.859 -4.10146 -2.15254 0
M  V30 7391 C 690.594 -5.12952 -2.56258 0
M  V30 7392 N 690.09 -6.26129 -2.96537 0
M  V30 7393 N 691.883 -5.00306 -2.56224 0
M  V30 7394 H 684.034 -2.12367 0.0375758 0
M  V30 7395 H 686.297 -0.946894 -0.0457782 0
M  V30 7396 H 686.003 -3.43429 -0.758271 0
M  V30 7397 H 685.877 -2.89152 -2.42221 0
M  V30 7398 H 688.264 -1.91569 -2.24467 0
M  V30 7399 H 688.345 -2.49277 -0.573967 0
M  V30 7400 H 687.989 -4.88077 -1.40511 0
M  V30 7401 H 687.919 -4.27266 -3.07817 0
M  V30 7402 H 690.41 -3.28453 -1.86887 0
M  V30 7403 H 690.723 -7.00403 -3.26582 0
M  V30 7404 H 689.068 -6.29597 -2.94334 0
M  V30 7405 H 692.259 -4.10952 -2.24135 0
M  V30 7406 H 692.432 -5.80553 -2.87857 0
M  V30 7407 N 685.838 0.888903 -1.30139 0
M  V30 7408 C 686.77 1.99972 -1.11999 0
M  V30 7409 C 687.783 1.62673 -0.0643619 0
M  V30 7410 O 688.972 1.75788 -0.309983 0
M  V30 7411 C 686.072 3.31904 -0.685059 0
M  V30 7412 C 685.245 3.97665 -1.82158 0
M  V30 7413 C 684.304 5.07894 -1.37585 0
M  V30 7414 O 683.33 5.2974 -2.08241 0
M  V30 7415 N 684.532 5.7995 -0.252697 0
M  V30 7416 H 687.297 2.16085 -2.07671 0
M  V30 7417 H 684.858 1.06175 -1.22223 0
M  V30 7418 H 686.85 4.03005 -0.369964 0
M  V30 7419 H 685.42 3.12084 0.179507 0
M  V30 7420 H 684.64 3.19787 -2.305 0
M  V30 7421 H 685.928 4.3834 -2.58332 0
M  V30 7422 H 685.326 5.647 0.336141 0
M  V30 7423 H 683.883 6.518 0.00296813 0
M  V30 7424 N 687.317 1.12792 1.10072 0
M  V30 7425 C 688.565 0.883796 1.81751 0
M  V30 7426 C 688.886 -0.591891 1.858 0
M  V30 7427 O 688.156 -1.43017 1.33876 0
M  V30 7428 H 686.736 0.323978 0.673088 0
M  V30 7429 H 689.398 1.42314 1.33164 0
M  V30 7430 H 688.494 1.26863 2.85153 0
M  V30 7431 N 688.795 -1.27931 0.920396 0
M  V30 7432 C 690.023 -1.98805 0.573087 0
M  V30 7433 C 690.438 -1.68724 -0.847201 0
M  V30 7434 O 689.795 -0.943699 -1.56207 0
M  V30 7435 C 689.846 -3.52971 0.780633 0
M  V30 7436 O 689.567 -3.81994 2.14504 0
M  V30 7437 C 691.068 -4.411 0.44105 0
M  V30 7438 H 688.288 -0.634651 0.21785 0
M  V30 7439 H 690.832 -1.62965 1.23542 0
M  V30 7440 H 688.987 -3.87048 0.165204 0
M  V30 7441 H 689.401 -4.76609 2.18962 0
M  V30 7442 H 690.875 -5.48312 0.637006 0
M  V30 7443 H 691.352 -4.34758 -0.62306 0
M  V30 7444 H 691.958 -4.12532 1.0343 0
M  V30 7445 N 690.273 -0.685099 -1.4193 0
M  V30 7446 C 691.236 -0.0222632 -2.29189 0
M  V30 7447 C 692.236 0.7186 -1.4385 0
M  V30 7448 O 693.426 0.555058 -1.6512 0
M  V30 7449 C 690.558 0.979013 -3.2654 0
M  V30 7450 H 691.751 -0.790424 -2.89296 0
M  V30 7451 H 689.304 -0.448012 -1.49742 0
M  V30 7452 H 690.039 1.77531 -2.71392 0
M  V30 7453 H 689.824 0.451037 -3.89497 0
M  V30 7454 H 691.314 1.44091 -3.91954 0
M  V30 7455 N 691.751 1.51645 -0.429126 0
M  V30 7456 C 692.698 2.27542 0.386446 0
M  V30 7457 C 693.668 1.30786 1.02393 0
M  V30 7458 O 694.853 1.59678 1.0444 0
M  V30 7459 C 691.993 3.11457 1.48623 0
M  V30 7460 C 691.106 4.23196 0.867691 0
M  V30 7461 C 690.241 4.94435 1.94183 0
M  V30 7462 C 689.28 5.98108 1.30129 0
M  V30 7463 N 688.417 6.62786 2.31644 0
M  V30 7464 H 693.257 2.968 -0.267155 0
M  V30 7465 H 690.794 1.46397 -0.143591 0
M  V30 7466 H 692.752 3.58429 2.13506 0
M  V30 7467 H 691.382 2.44329 2.10957 0
M  V30 7468 H 690.434 3.80248 0.107373 0
M  V30 7469 H 691.746 4.97499 0.35997 0
M  V30 7470 H 690.9 5.44914 2.66747 0
M  V30 7471 H 689.639 4.19744 2.48326 0
M  V30 7472 H 688.644 5.4693 0.561082 0
M  V30 7473 H 689.869 6.74751 0.767303 0
M  V30 7474 H 687.815 5.90913 2.84883 0
M  V30 7475 H 687.732 7.32828 1.85741 0
M  V30 7476 H 689 7.17897 3.03717 0
M  V30 7477 N 693.229 0.160201 1.56784 0
M  V30 7478 C 694.159 -0.770264 2.2043 0
M  V30 7479 C 695.14 -1.24736 1.15651 0
M  V30 7480 O 696.325 -1.30253 1.44041 0
M  V30 7481 C 693.455 -2.00427 2.83631 0
M  V30 7482 C 692.409 -1.66345 3.94352 0
M  V30 7483 C 691.735 -2.97119 4.4455 0
M  V30 7484 C 693.035 -0.899972 5.14488 0
M  V30 7485 H 694.729 -0.239783 2.98438 0
M  V30 7486 H 692.275 -0.113891 1.43549 0
M  V30 7487 H 694.228 -2.66012 3.26827 0
M  V30 7488 H 692.952 -2.5587 2.02973 0
M  V30 7489 H 691.611 -1.03133 3.51794 0
M  V30 7490 H 691.259 -3.5058 3.60698 0
M  V30 7491 H 690.959 -2.75073 5.19238 0
M  V30 7492 H 692.483 -3.63753 4.90425 0
M  V30 7493 H 693.897 -1.45818 5.54446 0
M  V30 7494 H 692.294 -0.778968 5.95023 0
M  V30 7495 H 693.364 0.105827 4.84785 0
M  V30 7496 N 694.707 -1.5719 -0.113559 0
M  V30 7497 C 695.935 -1.89328 -0.834422 0
M  V30 7498 C 696.35 -0.752018 -1.73177 0
M  V30 7499 O 695.707 0.276912 -1.80387 0
M  V30 7500 C 695.758 -3.20962 -1.66329 0
M  V30 7501 O 695.479 -4.30695 -0.802069 0
M  V30 7502 C 696.98 -3.6684 -2.48884 0
M  V30 7503 H 694.2 -0.626769 -0.239587 0
M  V30 7504 H 696.744 -2.04273 -0.0963195 0
M  V30 7505 H 694.899 -3.0767 -2.35409 0
M  V30 7506 H 695.313 -5.06175 -1.37431 0
M  V30 7507 H 696.787 -4.61692 -3.02563 0
M  V30 7508 H 697.264 -2.93765 -3.26495 0
M  V30 7509 H 697.87 -3.82938 -1.85036 0
M  V30 7510 N 696.185 0.383891 -1.52853 0
M  V30 7511 C 697.413 1.1495 -1.7203 0
M  V30 7512 C 697.828 1.83578 -0.440957 0
M  V30 7513 O 697.185 1.72872 0.584925 0
M  V30 7514 C 697.236 2.19368 -2.87333 0
M  V30 7515 O 696.957 1.53536 -4.10315 0
M  V30 7516 C 698.458 3.08616 -3.18231 0
M  V30 7517 H 695.678 0.344445 -0.575846 0
M  V30 7518 H 698.222 0.448397 -1.99524 0
M  V30 7519 H 696.377 2.85105 -2.62286 0
M  V30 7520 H 696.791 2.2296 -4.74752 0
M  V30 7521 H 698.265 3.77902 -4.02361 0
M  V30 7522 H 698.742 3.72409 -2.32826 0
M  V30 7523 H 699.348 2.48518 -3.45136 0
M  V30 7524 N 697.663 1.43903 0.642637 0
M  V30 7525 C 698.909 1.47291 1.40275 0
M  V30 7526 C 699.264 0.0996024 1.92142 0
M  V30 7527 O 698.557 -0.883423 1.70018 0
M  V30 7528 C 698.751 2.45907 2.59354 0
M  V30 7529 C 698.58 3.92691 2.19143 0
M  V30 7530 C 697.35 4.6097 2.06966 0
M  V30 7531 C 699.548 4.82231 1.78768 0
M  V30 7532 N 697.53 5.9263 1.60196 0
M  V30 7533 C 698.901 6.03246 1.43159 0
M  V30 7534 C 700.956 4.69397 1.66045 0
M  V30 7535 C 699.659 7.12851 0.961014 0
M  V30 7536 C 701.685 5.79016 1.20392 0
M  V30 7537 C 701.047 6.99164 0.857271 0
M  V30 7538 H 697.146 0.594055 0.50855 0
M  V30 7539 H 699.73 1.80153 0.738434 0
M  V30 7540 H 697.901 2.15054 3.23429 0
M  V30 7541 H 699.633 2.39665 3.26102 0
M  V30 7542 H 696.388 4.15622 2.27058 0
M  V30 7543 H 696.812 6.62547 1.39143 0
M  V30 7544 H 701.454 3.76954 1.91482 0
M  V30 7545 H 699.172 8.05113 0.694148 0
M  V30 7546 H 702.758 5.71109 1.11023 0
M  V30 7547 H 701.638 7.82544 0.509408 0
M  V30 7548 N 699.141 -0.881989 1.30609 0
M  V30 7549 C 700.071 -2.00413 1.1982 0
M  V30 7550 C 701.052 -1.69871 0.0881538 0
M  V30 7551 O 702.237 -1.92304 0.2707 0
M  V30 7552 C 699.367 -3.35641 0.89233 0
M  V30 7553 C 698.321 -3.80451 1.96064 0
M  V30 7554 C 697.647 -5.13003 1.5077 0
M  V30 7555 C 698.947 -3.98855 3.37213 0
M  V30 7556 H 700.641 -2.09698 2.13699 0
M  V30 7557 H 698.187 -1.00754 1.02882 0
M  V30 7558 H 700.14 -4.13669 0.803497 0
M  V30 7559 H 698.864 -3.26497 -0.0821381 0
M  V30 7560 H 697.523 -3.04654 2.03916 0
M  V30 7561 H 697.171 -5.0029 0.521417 0
M  V30 7562 H 696.871 -5.43956 2.22229 0
M  V30 7563 H 698.395 -5.93554 1.43271 0
M  V30 7564 H 699.809 -4.67312 3.32103 0
M  V30 7565 H 698.206 -4.41188 4.06784 0
M  V30 7566 H 699.276 -3.02614 3.78883 0
M  V30 7567 N 700.619 -1.13374 -1.09472 0
M  V30 7568 C 701.867 -0.893422 -1.8128 0
M  V30 7569 C 702.188 0.582029 -1.86111 0
M  V30 7570 O 701.458 1.42305 -1.34633 0
M  V30 7571 H 700.038 -0.327543 -0.67136 0
M  V30 7572 H 702.7 -1.43018 -1.32408 0
M  V30 7573 H 701.796 -1.28374 -2.84476 0
M  V30 7574 N 702.098 1.27442 -0.927168 0
M  V30 7575 C 703.045 2.26863 -0.424459 0
M  V30 7576 C 704.015 1.5813 0.508346 0
M  V30 7577 O 705.2 1.85946 0.42762 0
M  V30 7578 C 702.34 3.43639 0.31718 0
M  V30 7579 C 701.453 4.27087 -0.649675 0
M  V30 7580 C 700.588 5.31082 0.111753 0
M  V30 7581 C 699.627 6.062 -0.847843 0
M  V30 7582 N 698.764 7.01999 -0.119074 0
M  V30 7583 H 703.604 2.69239 -1.27728 0
M  V30 7584 H 701.141 1.32394 -0.641106 0
M  V30 7585 H 703.099 4.10155 0.763486 0
M  V30 7586 H 701.729 3.02217 1.13424 0
M  V30 7587 H 700.781 3.60491 -1.21451 0
M  V30 7588 H 702.093 4.79242 -1.38307 0
M  V30 7589 H 701.247 6.03544 0.618 0
M  V30 7590 H 699.986 4.7973 0.878114 0
M  V30 7591 H 698.991 5.32577 -1.36534 0
M  V30 7592 H 700.216 6.59642 -1.61398 0
M  V30 7593 H 698.162 6.52977 0.629051 0
M  V30 7594 H 698.079 7.5184 -0.792046 0
M  V30 7595 H 699.347 7.78638 0.366537 0
M  V30 7596 N 703.576 0.692616 1.41565 0
M  V30 7597 C 704.508 -0.0137132 2.29196 0
M  V30 7598 C 705.521 -0.747417 1.44629 0
M  V30 7599 O 706.71 -0.598611 1.68163 0
M  V30 7600 C 703.81 -1.04347 3.22436 0
M  V30 7601 C 702.983 -0.379985 4.35746 0
M  V30 7602 C 702.042 -1.31195 5.09583 0
M  V30 7603 O 701.068 -0.805455 5.63472 0
M  V30 7604 N 702.27 -2.64443 5.16769 0
M  V30 7605 H 705.035 0.738614 2.90456 0
M  V30 7606 H 702.596 0.538415 1.52685 0
M  V30 7607 H 704.588 -1.6686 3.687 0
M  V30 7608 H 703.158 -1.69736 2.62504 0
M  V30 7609 H 702.378 0.424975 3.91903 0
M  V30 7610 H 703.666 0.0814904 5.08735 0
M  V30 7611 H 703.064 -3.08114 4.74428 0
M  V30 7612 H 701.621 -3.22159 5.66619 0
M  V30 7613 N 705.054 -1.51416 0.437162 0
M  V30 7614 C 705.984 -2.30631 -0.364922 0
M  V30 7615 C 706.965 -1.36037 -1.02118 0
M  V30 7616 O 708.15 -1.64956 -1.02485 0
M  V30 7617 C 705.28 -3.1482 -1.46648 0
M  V30 7618 C 704.234 -4.17691 -0.933717 0
M  V30 7619 C 703.56 -4.904 -2.13101 0
M  V30 7620 C 704.86 -5.2229 0.0317201 0
M  V30 7621 H 706.554 -2.97932 0.29614 0
M  V30 7622 H 704.1 -1.4328 0.143865 0
M  V30 7623 H 706.053 -3.69017 -2.03481 0
M  V30 7624 H 704.777 -2.4534 -2.15583 0
M  V30 7625 H 703.436 -3.64545 -0.387602 0
M  V30 7626 H 703.084 -4.17423 -2.80654 0
M  V30 7627 H 702.784 -5.59962 -1.78092 0
M  V30 7628 H 704.308 -5.4742 -2.70487 0
M  V30 7629 H 705.722 -5.7156 -0.446302 0
M  V30 7630 H 704.119 -5.99378 0.29437 0
M  V30 7631 H 705.189 -4.75131 0.968447 0
M  V30 7632 N 706.532 -0.168513 -1.56696 0
M  V30 7633 C 707.78 0.476216 -1.96409 0
M  V30 7634 C 708.101 1.63968 -1.05544 0
M  V30 7635 O 707.371 1.95525 -0.121235 0
M  V30 7636 H 705.951 0.178921 -0.725256 0
M  V30 7637 H 708.613 -0.249042 -1.93302 0
M  V30 7638 H 707.709 0.838094 -3.00637 0
M  V30 7639 N 708.01 1.57248 0.105221 0
M  V30 7640 C 709.259 1.84756 0.809198 0
M  V30 7641 C 709.572 0.756262 1.80389 0
M  V30 7642 O 710.778 0.918158 2.55504 0
M  V30 7643 C 709.234 3.27613 1.48989 0
M  V30 7644 C 708.842 4.44788 0.535484 0
M  V30 7645 C 710.586 3.64356 2.17819 0
M  V30 7646 C 708.493 5.78676 1.22019 0
M  V30 7647 H 707.423 0.689139 0.305946 0
M  V30 7648 H 710.074 1.83395 0.0620371 0
M  V30 7649 H 708.456 3.23485 2.28415 0
M  V30 7650 H 709.63 4.60243 -0.226557 0
M  V30 7651 H 707.945 4.16374 -0.0465769 0
M  V30 7652 H 710.542 4.61663 2.69761 0
M  V30 7653 H 710.885 2.92474 2.96251 0
M  V30 7654 H 711.418 3.70328 1.45264 0
M  V30 7655 H 708.157 6.53763 0.476875 0
M  V30 7656 H 707.677 5.67083 1.9539 0
M  V30 7657 H 709.356 6.22897 1.74952 0
M  V30 7658 N 709.488 -0.375779 1.53054 0
M  V30 7659 C 710.418 -1.46598 1.81745 0
M  V30 7660 C 711.399 -1.56337 0.670286 0
M  V30 7661 O 712.584 -1.71071 0.919158 0
M  V30 7662 C 709.714 -2.84058 1.99821 0
M  V30 7663 C 708.668 -2.8915 3.15557 0
M  V30 7664 C 707.994 -4.29187 3.18908 0
M  V30 7665 C 709.294 -2.57595 4.54359 0
M  V30 7666 H 710.988 -1.22837 2.73041 0
M  V30 7667 H 708.534 -0.589485 1.31381 0
M  V30 7668 H 710.487 -3.60342 2.18475 0
M  V30 7669 H 709.211 -3.09184 1.05226 0
M  V30 7670 H 707.87 -2.15316 2.96706 0
M  V30 7671 H 707.518 -4.51374 2.2197 0
M  V30 7672 H 707.218 -4.33512 3.96662 0
M  V30 7673 H 708.742 -5.07359 3.39734 0
M  V30 7674 H 710.156 -3.23595 4.73243 0
M  V30 7675 H 708.553 -2.73252 5.34279 0
M  V30 7676 H 709.623 -1.52882 4.60169 0
M  V30 7677 N 710.966 -1.44241 -0.634997 0
M  V30 7678 C 712.214 -1.46531 -1.39187 0
M  V30 7679 C 712.535 -0.0976441 -1.94755 0
M  V30 7680 O 711.805 0.869528 -1.75545 0
M  V30 7681 H 710.385 -0.539544 -0.516625 0
M  V30 7682 H 713.047 -1.79989 -0.747655 0
M  V30 7683 H 712.143 -2.18848 -2.22513 0
M  V30 7684 N 712.444 0.87505 -1.31075 0
M  V30 7685 C 713.391 1.98178 -1.18296 0
M  V30 7686 C 714.361 1.65952 -0.0699923 0
M  V30 7687 O 715.546 1.8926 -0.241951 0
M  V30 7688 C 712.686 3.33399 -0.891024 0
M  V30 7689 C 711.799 3.78253 -2.08684 0
M  V30 7690 C 710.934 5.02166 -1.73212 0
M  V30 7691 C 709.973 5.39455 -2.89231 0
M  V30 7692 N 709.11 6.54549 -2.53989 0
M  V30 7693 H 713.95 2.0844 -2.12971 0
M  V30 7694 H 711.487 1.02047 -1.05948 0
M  V30 7695 H 713.445 4.11246 -0.702338 0
M  V30 7696 H 712.075 3.22794 0.0188799 0
M  V30 7697 H 711.127 2.9623 -2.38646 0
M  V30 7698 H 712.439 4.01821 -2.95536 0
M  V30 7699 H 711.593 5.87666 -1.50777 0
M  V30 7700 H 710.332 4.80491 -0.83544 0
M  V30 7701 H 709.337 4.52477 -3.12321 0
M  V30 7702 H 710.562 5.63098 -3.79601 0
M  V30 7703 H 708.508 6.3443 -1.66838 0
M  V30 7704 H 708.425 6.78035 -3.34372 0
M  V30 7705 H 709.693 7.43254 -2.34934 0
M  V30 7706 N 713.922 1.13953 1.08869 0
M  V30 7707 C 714.869 0.82213 2.15661 0
M  V30 7708 C 715.839 -0.218274 1.6466 0
M  V30 7709 O 717.024 -0.0892475 1.90591 0
M  V30 7710 C 714.164 0.300572 3.43789 0
M  V30 7711 C 713.277 1.40071 4.08661 0
M  V30 7712 C 712.412 0.836897 5.24566 0
M  V30 7713 C 711.451 1.91504 5.81371 0
M  V30 7714 N 710.588 1.36875 6.88629 0
M  V30 7715 H 715.428 1.73683 2.42153 0
M  V30 7716 H 712.965 0.866879 1.18843 0
M  V30 7717 H 714.923 -0.0199943 4.17195 0
M  V30 7718 H 713.553 -0.577248 3.17597 0
M  V30 7719 H 712.605 1.83776 3.33062 0
M  V30 7720 H 713.917 2.21534 4.46905 0
M  V30 7721 H 713.071 0.467953 6.04893 0
M  V30 7722 H 711.81 -0.00874207 4.87699 0
M  V30 7723 H 710.815 2.29299 4.99702 0
M  V30 7724 H 712.04 2.76419 6.20298 0
M  V30 7725 H 709.986 0.545211 6.5373 0
M  V30 7726 H 709.903 2.1198 7.25672 0
M  V30 7727 H 711.171 1.02756 7.72698 0
M  V30 7728 N 715.4 -1.26948 0.933913 0
M  V30 7729 C 716.33 -2.29017 0.45534 0
M  V30 7730 C 717.311 -1.62961 -0.487605 0
M  V30 7731 O 718.496 -1.90223 -0.391022 0
M  V30 7732 C 715.626 -3.46112 -0.287015 0
M  V30 7733 C 714.58 -4.24205 0.568682 0
M  V30 7734 C 713.906 -5.3384 -0.303206 0
M  V30 7735 C 715.206 -4.88954 1.83633 0
M  V30 7736 H 716.9 -2.69298 1.30839 0
M  V30 7737 H 714.446 -1.29459 0.630579 0
M  V30 7738 H 716.399 -4.16622 -0.6328 0
M  V30 7739 H 715.123 -3.04765 -1.17414 0
M  V30 7740 H 713.782 -3.5545 0.897261 0
M  V30 7741 H 713.43 -4.88734 -1.18947 0
M  V30 7742 H 713.13 -5.86998 0.265879 0
M  V30 7743 H 714.654 -6.0719 -0.644423 0
M  V30 7744 H 716.068 -5.51717 1.55823 0
M  V30 7745 H 714.465 -5.52198 2.34941 0
M  V30 7746 H 715.535 -4.12305 2.55211 0
M  V30 7747 N 716.879 -0.700114 -1.41195 0
M  V30 7748 C 717.789 -0.0382854 -2.34569 0
M  V30 7749 C 718.805 0.761036 -1.56474 0
M  V30 7750 O 719.981 0.697553 -1.88934 0
M  V30 7751 C 717.046 0.883522 -3.35253 0
M  V30 7752 C 716.107 0.0758957 -4.29233 0
M  V30 7753 C 715.34 0.9538 -5.25108 0
M  V30 7754 O 715.563 2.19326 -5.26547 0
M  V30 7755 O 714.497 0.401049 -6.00562 0
M  V30 7756 H 718.323 -0.808073 -2.92752 0
M  V30 7757 H 715.908 -0.460479 -1.42127 0
M  V30 7758 H 717.79 1.41199 -3.9704 0
M  V30 7759 H 716.465 1.63272 -2.79506 0
M  V30 7760 H 715.372 -0.497274 -3.7078 0
M  V30 7761 H 716.705 -0.634741 -4.8809 0
M  V30 7762 N 718.357 1.51182 -0.445186 0
M  V30 7763 C 719.305 2.29531 0.376597 0
M  V30 7764 C 720.299 1.35711 1.01385 0
M  V30 7765 O 721.505 1.53018 0.947922 0
M  V30 7766 H 717.88 0.738803 0.140267 0
M  V30 7767 H 719.851 2.96838 -0.304958 0
M  V30 7768 C 718.6 3.1552 1.4609 0
M  V30 7769 H 717.923 3.87605 0.979912 0
M  V30 7770 H 719.363 3.73384 2.009 0
M  V30 7771 C 717.822 2.31406 2.44852 0
M  V30 7772 O 718.352 1.97912 3.49562 0
M  V30 7773 N 716.558 1.94478 2.15932 0
M  V30 7774 H 716.105 2.21917 1.30808 0
M  V30 7775 H 716.063 1.38498 2.82251 0
M  V30 7776 N 719.835 0.176821 1.56605 0
M  V30 7777 C 720.782 -0.751312 2.18229 0
M  V30 7778 C 721.752 -1.22297 1.12395 0
M  V30 7779 O 722.937 -1.29015 1.40569 0
M  V30 7780 C 720.077 -1.97291 2.83143 0
M  V30 7781 C 719.19 -1.54431 4.03454 0
M  V30 7782 C 718.325 -2.72 4.56278 0
M  V30 7783 C 717.364 -2.25657 5.68986 0
M  V30 7784 N 716.501 -3.36338 6.16296 0
M  V30 7785 H 721.341 -0.219033 2.97194 0
M  V30 7786 H 718.878 -0.0963803 1.46784 0
M  V30 7787 H 720.836 -2.68949 3.1894 0
M  V30 7788 H 719.466 -2.4788 2.06773 0
M  V30 7789 H 718.518 -0.724273 3.73441 0
M  V30 7790 H 719.83 -1.16417 4.85024 0
M  V30 7791 H 718.984 -3.51806 4.94285 0
M  V30 7792 H 717.723 -3.13277 3.73777 0
M  V30 7793 H 716.728 -1.44299 5.30526 0
M  V30 7794 H 717.953 -1.85432 6.53293 0
M  V30 7795 H 715.899 -3.7718 5.36723 0
M  V30 7796 H 715.816 -3.02435 6.9287 0
M  V30 7797 H 717.084 -4.16413 6.58954 0
M  V30 7798 N 721.313 -1.57302 -0.09688 0
M  V30 7799 C 722.538 -1.9058 -0.818169 0
M  V30 7800 C 722.963 -0.770921 -1.71576 0
M  V30 7801 O 722.321 0.277588 -1.79162 0
M  V30 7802 C 722.369 -3.22714 -1.60898 0
M  V30 7803 O 721.473 -3.10178 -2.71779 0
M  V30 7804 H 720.814 -0.624759 -0.224882 0
M  V30 7805 H 723.344 -2.04471 -0.07264 0
M  V30 7806 H 723.354 -3.55978 -1.99358 0
M  V30 7807 H 722.029 -4.04899 -0.950227 0
M  V30 7808 H 720.606 -2.88424 -2.3636 0
M  V30 7809 N 722.791 0.367657 -1.53252 0
M  V30 7810 C 723.738 1.45028 -1.79543 0
M  V30 7811 C 724.708 1.53288 -0.63969 0
M  V30 7812 O 725.893 1.69209 -0.881653 0
M  V30 7813 C 723.033 2.82 -1.98923 0
M  V30 7814 C 722.146 2.82722 -3.26638 0
M  V30 7815 C 721.281 4.11257 -3.36216 0
M  V30 7816 C 720.32 4.06113 -4.57972 0
M  V30 7817 N 719.457 5.26293 -4.64715 0
M  V30 7818 H 724.297 1.21908 -2.71923 0
M  V30 7819 H 721.834 0.591011 -1.34705 0
M  V30 7820 H 723.792 3.61568 -2.08146 0
M  V30 7821 H 722.422 3.03523 -1.09881 0
M  V30 7822 H 721.474 1.95399 -3.26379 0
M  V30 7823 H 722.786 2.74794 -4.16281 0
M  V30 7824 H 721.94 4.99239 -3.44739 0
M  V30 7825 H 720.679 4.21935 -2.44586 0
M  V30 7826 H 719.684 3.16517 -4.49552 0
M  V30 7827 H 720.909 3.97039 -5.50942 0
M  V30 7828 H 718.855 5.37561 -3.75985 0
M  V30 7829 H 718.772 5.20526 -5.4826 0
M  V30 7830 H 720.04 6.16113 -4.77519 0
M  V30 7831 N 724.269 1.44576 0.627338 0
M  V30 7832 C 725.497 1.51048 1.41394 0
M  V30 7833 C 725.912 0.136568 1.88305 0
M  V30 7834 O 725.269 -0.858251 1.6106 0
M  V30 7835 C 725.32 2.47837 2.63172 0
M  V30 7836 O 725.041 3.79887 2.18215 0
M  V30 7837 C 726.542 2.63811 3.56257 0
M  V30 7838 H 723.762 0.512171 0.4335 0
M  V30 7839 H 726.306 1.89576 0.766878 0
M  V30 7840 H 724.461 2.12433 3.23961 0
M  V30 7841 H 724.875 4.32177 2.97192 0
M  V30 7842 H 726.349 3.35554 4.38301 0
M  V30 7843 H 726.826 1.69169 4.05313 0
M  V30 7844 H 727.432 3.0013 3.01333 0
M  V30 7845 N 725.747 -0.868086 1.31537 0
M  V30 7846 C 726.993 -1.62359 1.2252 0
M  V30 7847 C 727.348 -1.91204 -0.214169 0
M  V30 7848 O 726.641 -1.5339 -1.14813 0
M  V30 7849 C 726.835 -2.95889 2.0046 0
M  V30 7850 C 726.664 -2.80082 3.5183 0
M  V30 7851 C 725.434 -2.7917 4.21179 0
M  V30 7852 C 727.632 -2.54805 4.46743 0
M  V30 7853 N 725.614 -2.54433 5.58692 0
M  V30 7854 C 726.985 -2.39349 5.71937 0
M  V30 7855 C 729.04 -2.40165 4.36148 0
M  V30 7856 C 727.743 -2.1074 6.87736 0
M  V30 7857 C 729.769 -2.12945 5.51732 0
M  V30 7858 C 729.131 -1.98278 6.75918 0
M  V30 7859 H 725.23 -0.598381 0.503452 0
M  V30 7860 H 727.814 -1.02156 1.65748 0
M  V30 7861 H 725.985 -3.54095 1.59598 0
M  V30 7862 H 727.717 -3.60734 1.83447 0
M  V30 7863 H 724.472 -2.91621 3.73168 0
M  V30 7864 H 724.896 -2.45029 6.31102 0
M  V30 7865 H 729.538 -2.50231 3.408 0
M  V30 7866 H 727.256 -1.99412 7.8311 0
M  V30 7867 H 730.842 -2.02415 5.45454 0
M  V30 7868 H 729.722 -1.77514 7.63845 0
M  V30 7869 N 727.225 -1.14528 -1.08264 0
M  V30 7870 C 728.472 -0.914405 -1.80679 0
M  V30 7871 C 728.8 0.558952 -1.86295 0
M  V30 7872 O 728.055 1.43017 -1.33584 0
M  V30 7873 C 728.354 -1.46226 -3.26117 0
M  V30 7874 C 728.02 -2.95451 -3.40616 0
M  V30 7875 C 726.682 -3.36191 -3.4428 0
M  V30 7876 C 729.034 -3.91399 -3.44175 0
M  V30 7877 C 726.362 -4.71539 -3.49096 0
M  V30 7878 C 728.714 -5.26606 -3.50526 0
M  V30 7879 C 727.378 -5.66856 -3.52464 0
M  V30 7880 H 726.648 -0.334604 -0.661151 0
M  V30 7881 H 729.295 -1.4292 -1.27461 0
M  V30 7882 H 727.6 -0.868442 -3.82054 0
M  V30 7883 H 729.297 -1.25955 -3.80705 0
M  V30 7884 H 725.887 -2.62955 -3.38456 0
M  V30 7885 H 730.071 -3.61004 -3.40573 0
M  V30 7886 H 725.327 -5.02082 -3.4889 0
M  V30 7887 H 729.501 -6.00758 -3.52225 0
M  V30 7888 H 727.128 -6.71718 -3.55948 0
M  V30 7889 N 728.703 1.26451 -0.940633 0
M  V30 7890 C 729.951 1.93395 -0.586748 0
M  V30 7891 C 730.272 1.7417 0.876921 0
M  V30 7892 O 729.542 1.097 1.62304 0
M  V30 7893 H 728.122 0.715687 -0.214012 0
M  V30 7894 H 730.784 1.53902 -1.19584 0
M  V30 7895 H 729.88 3.01565 -0.804059 0
M  V30 7896 N 730.181 0.707592 1.40822 0
M  V30 7897 C 731.144 0.0587224 2.29125 0
M  V30 7898 C 732.144 -0.695624 1.44975 0
M  V30 7899 O 733.334 -0.528718 1.65983 0
M  V30 7900 C 730.466 -0.926939 3.28056 0
M  V30 7901 H 731.659 0.836349 2.88002 0
M  V30 7902 H 729.212 0.471778 1.4901 0
M  V30 7903 H 729.947 -1.7319 2.74182 0
M  V30 7904 H 729.732 -0.389015 3.90165 0
M  V30 7905 H 731.222 -1.37837 3.94196 0
M  V30 7906 N 731.66 -1.50943 0.453197 0
M  V30 7907 C 732.89 -2.06328 -0.105981 0
M  V30 7908 C 733.298 -1.31909 -1.35634 0
M  V30 7909 O 732.641 -0.376607 -1.79798 0
M  V30 7910 C 732.703 -3.5631 -0.477868 0
M  V30 7911 C 732.367 -4.52093 0.667925 0
M  V30 7912 C 733.364 -4.96421 1.54475 0
M  V30 7913 C 731.049 -4.95001 0.853168 0
M  V30 7914 C 733.043 -5.82346 2.59138 0
M  V30 7915 C 730.73 -5.80713 1.90305 0
M  V30 7916 C 731.728 -6.24284 2.77053 0
M  V30 7917 O 731.416 -7.08291 3.80236 0
M  V30 7918 H 731.148 -0.675986 -0.00427247 0
M  V30 7919 H 733.702 -1.95314 0.635738 0
M  V30 7920 H 731.932 -3.65163 -1.27252 0
M  V30 7921 H 733.621 -3.94138 -0.970039 0
M  V30 7922 H 734.387 -4.63953 1.41324 0
M  V30 7923 H 730.266 -4.60619 0.187482 0
M  V30 7924 H 733.81 -6.16276 3.2688 0
M  V30 7925 H 729.707 -6.12593 2.03469 0
M  V30 7926 H 730.475 -7.26504 3.77007 0
M  V30 7927 N 733.138 -0.185124 -1.56509 0
M  V30 7928 C 734.101 0.72591 -2.17401 0
M  V30 7929 C 735.101 1.14819 -1.12575 0
M  V30 7930 O 736.291 1.0629 -1.38015 0
M  V30 7931 C 733.423 1.98979 -2.76803 0
M  V30 7932 H 734.616 0.195588 -2.99262 0
M  V30 7933 H 732.169 0.0644772 -1.56167 0
M  V30 7934 H 732.904 2.56287 -1.98714 0
M  V30 7935 H 732.689 1.69583 -3.53531 0
M  V30 7936 H 734.179 2.63966 -3.23592 0
M  V30 7937 N 734.616 1.57351 0.0885366 0
M  V30 7938 C 735.579 2.01557 1.09121 0
M  V30 7939 C 736.579 0.910052 1.3257 0
M  V30 7940 O 737.769 1.17537 1.28572 0
M  V30 7941 C 734.901 2.38189 2.43883 0
M  V30 7942 H 736.094 2.91361 0.710562 0
M  V30 7943 H 733.647 1.52694 0.333779 0
M  V30 7944 H 734.382 1.5136 2.86811 0
M  V30 7945 H 734.167 3.18846 2.28209 0
M  V30 7946 H 735.657 2.73025 3.15986 0
M  V30 7947 N 736.094 -0.359525 1.53444 0
M  V30 7948 C 737.319 -1.12644 1.74144 0
M  V30 7949 C 737.744 -1.82082 0.472007 0
M  V30 7950 O 737.102 -1.71962 -0.57436 0
M  V30 7951 C 737.15 -2.12781 2.9113 0
M  V30 7952 O 736.254 -3.19984 2.60162 0
M  V30 7953 H 735.595 -0.326553 0.578152 0
M  V30 7954 H 738.125 -0.414798 2.00351 0
M  V30 7955 H 738.135 -2.56278 3.17467 0
M  V30 7956 H 736.81 -1.61634 3.83207 0
M  V30 7957 H 735.387 -2.81417 2.44661 0
M  V30 7958 N 737.572 -1.44907 -0.619662 0
M  V30 7959 C 738.983 -1.42905 -1.20146 0
M  V30 7960 C 739.334 -0.150341 -1.95623 0
M  V30 7961 O 738.459 0.748732 -2.03034 0
M  V30 7962 C 739.054 -2.58889 -2.18545 0
M  V30 7963 C 737.613 -2.60046 -2.72127 0
M  V30 7964 C 736.76 -2.3493 -1.4732 0
M  V30 7965 H 739.711 -1.53321 -0.409666 0
M  V30 7966 H 739.732 -2.32298 -3.0136 0
M  V30 7967 H 739.244 -3.51941 -1.63583 0
M  V30 7968 H 737.345 -1.70968 -3.3106 0
M  V30 7969 H 737.458 -3.58893 -3.17384 0
M  V30 7970 H 735.822 -1.84248 -1.75855 0
M  V30 7971 H 736.605 -3.3011 -0.942442 0
M  V30 7972 N 739.05 0.861098 -1.31996 0
M  V30 7973 C 740.28 1.64501 -1.24992 0
M  V30 7974 C 740.688 1.88288 0.185576 0
M  V30 7975 O 740.031 1.44756 1.131 0
M  V30 7976 C 740.093 3.03098 -1.93319 0
M  V30 7977 C 739.757 3.02381 -3.42658 0
M  V30 7978 C 740.754 2.79696 -4.38254 0
M  V30 7979 C 738.439 3.23221 -3.84491 0
M  V30 7980 C 740.433 2.77843 -5.73657 0
M  V30 7981 C 738.12 3.20996 -5.20005 0
M  V30 7982 C 739.118 2.98335 -6.14398 0
M  V30 7983 O 738.806 2.95971 -7.47433 0
M  V30 7984 H 738.538 0.519309 -0.432775 0
M  V30 7985 H 741.092 1.08241 -1.74565 0
M  V30 7986 H 739.322 3.61121 -1.38306 0
M  V30 7987 H 741.011 3.63751 -1.8011 0
M  V30 7988 H 741.777 2.63368 -4.07262 0
M  V30 7989 H 737.656 3.39887 -3.11445 0
M  V30 7990 H 741.2 2.60074 -6.47308 0
M  V30 7991 H 737.097 3.36865 -5.50629 0
M  V30 7992 H 737.865 3.1197 -7.56714 0
M  V30 7993 N 740.528 1.15101 1.07655 0
M  V30 7994 C 741.768 0.934462 1.81789 0
M  V30 7995 C 742.132 -0.529101 1.84566 0
M  V30 7996 O 743.333 -0.863868 2.5454 0
M  V30 7997 C 741.604 1.52817 3.23082 0
M  V30 7998 S 743.163 1.45429 4.14 0
M  V30 7999 H 739.981 0.336379 0.626395 0
M  V30 8000 H 742.583 1.46593 1.29347 0
M  V30 8001 H 741.287 2.58635 3.18647 0
M  V30 8002 H 740.818 0.995432 3.80598 0
M  V30 8003 H 742.833 0.445058 4.942 0
M  V30 8004 N 742.006 -1.2595 0.947325 0
M  V30 8005 C 743.283 -1.88676 0.515824 0
M  V30 8006 C 743.663 -1.85547 -1.00675 0
M  V30 8007 O 743.011 -1.31399 -1.8694 0
M  V30 8008 C 743.221 -3.31734 1.08415 0
M  V30 8009 C 744.569 -4.08545 1.15654 0
M  V30 8010 O 745.593 -3.40826 1.03517 0
M  V30 8011 O 744.452 -5.29663 1.34608 0
M  V30 8012 H 741.546 -0.809537 0.169055 0
M  V30 8013 H 744.092 -1.34075 1.04029 0
M  V30 8014 H 742.864 -3.28404 2.1276 0
M  V30 8015 H 742.487 -3.93882 0.542499 0
M  V30 8016 N 743.484 -0.715051 -1.40445 0
M  V30 8017 C 744.73 -0.254705 -2.01194 0
M  V30 8018 C 745.063 1.14894 -1.56567 0
M  V30 8019 O 744.338 1.77933 -0.785491 0
M  V30 8020 C 744.621 -0.334148 -3.58546 0
M  V30 8021 C 744.474 -1.77613 -4.13248 0
M  V30 8022 C 745.793 0.294968 -4.3911 0
M  V30 8023 H 742.912 -0.094025 -0.730978 0
M  V30 8024 H 745.554 -0.907449 -1.66929 0
M  V30 8025 H 743.704 0.221609 -3.87867 0
M  V30 8026 H 745.376 -2.38723 -3.94727 0
M  V30 8027 H 743.619 -2.30402 -3.67556 0
M  V30 8028 H 744.29 -1.78311 -5.22407 0
M  V30 8029 H 746.766 -0.178563 -4.15717 0
M  V30 8030 H 745.642 0.208934 -5.48502 0
M  V30 8031 H 745.903 1.37841 -4.20062 0
M  V30 8032 N 744.962 1.50701 -0.461195 0
M  V30 8033 C 746.239 1.94958 0.158296 0
M  V30 8034 C 746.619 1.40111 1.57899 0
M  V30 8035 O 745.967 0.597976 2.20537 0
M  V30 8036 C 746.177 3.48821 0.11172 0
M  V30 8037 C 747.525 4.23499 0.30552 0
M  V30 8038 O 748.549 3.557 0.188758 0
M  V30 8039 O 747.408 5.43823 0.540244 0
M  V30 8040 H 744.502 0.818674 0.117054 0
M  V30 8041 H 747.048 1.61508 -0.520888 0
M  V30 8042 H 745.82 3.81263 -0.880577 0
M  V30 8043 H 745.443 3.88781 0.832791 0
M  V30 8044 N 746.441 0.193421 1.56409 0
M  V30 8045 C 747.857 -0.162447 1.58771 0
M  V30 8046 C 748.057 -1.6116 1.20954 0
M  V30 8047 O 747.113 -2.3469 0.931497 0
M  V30 8048 C 748.426 0.138391 3.00381 0
M  V30 8049 C 749.974 0.0783649 3.12902 0
M  V30 8050 C 750.449 0.352491 4.56642 0
M  V30 8051 N 751.94 0.30105 4.62221 0
M  V30 8052 C 752.675 0.487028 5.71328 0
M  V30 8053 N 752.171 0.733265 6.88909 0
M  V30 8054 N 753.964 0.4214 5.60518 0
M  V30 8055 H 746.115 1.13909 1.79272 0
M  V30 8056 H 748.378 0.454528 0.83193 0
M  V30 8057 H 748.084 1.14312 3.32604 0
M  V30 8058 H 747.958 -0.559804 3.73023 0
M  V30 8059 H 750.345 -0.916963 2.80492 0
M  V30 8060 H 750.426 0.809611 2.4265 0
M  V30 8061 H 750.07 1.34513 4.89764 0
M  V30 8062 H 750 -0.399624 5.25081 0
M  V30 8063 H 752.491 0.117279 3.77718 0
M  V30 8064 H 752.804 0.86403 7.67955 0
M  V30 8065 H 751.149 0.770138 6.9072 0
M  V30 8066 H 754.34 0.229461 4.67537 0
M  V30 8067 H 754.513 0.569758 6.4549 0
M  V30 8068 N 747.919 -1.57396 -0.0801906 0
M  V30 8069 C 748.866 -2.03107 -1.09618 0
M  V30 8070 C 749.836 -0.910118 -1.38946 0
M  V30 8071 O 751.021 -1.17719 -1.50156 0
M  V30 8072 C 748.161 -2.47293 -2.40708 0
M  V30 8073 C 747.274 -3.72972 -2.17982 0
M  V30 8074 C 746.409 -4.05975 -3.42576 0
M  V30 8075 C 745.448 -5.24719 -3.15177 0
M  V30 8076 N 744.585 -5.53401 -4.32078 0
M  V30 8077 H 749.425 -2.89677 -0.69939 0
M  V30 8078 H 746.962 -1.43263 -0.333785 0
M  V30 8079 H 748.92 -2.7096 -3.17232 0
M  V30 8080 H 747.55 -1.63713 -2.78205 0
M  V30 8081 H 746.602 -3.56693 -1.32189 0
M  V30 8082 H 747.914 -4.59638 -1.93738 0
M  V30 8083 H 747.068 -4.30498 -4.275 0
M  V30 8084 H 745.807 -3.17859 -3.69887 0
M  V30 8085 H 744.812 -5 -2.28648 0
M  V30 8086 H 746.037 -6.14445 -2.89197 0
M  V30 8087 H 743.983 -4.68245 -4.59437 0
M  V30 8088 H 743.9 -6.34469 -4.11078 0
M  V30 8089 H 745.168 -5.8247 -5.18024 0
M  V30 8090 N 749.397 0.351382 -1.53633 0
M  V30 8091 C 750.646 1.08988 -1.69719 0
M  V30 8092 C 750.959 1.90043 -0.462948 0
M  V30 8093 O 752.165 2.66769 -0.504613 0
M  V30 8094 C 750.621 1.98691 -3.00083 0
M  V30 8095 C 750.229 1.22881 -4.30818 0
M  V30 8096 C 751.973 2.72446 -3.25536 0
M  V30 8097 C 749.88 2.11568 -5.52262 0
M  V30 8098 H 748.81 0.410588 -0.632403 0
M  V30 8099 H 751.461 0.349886 -1.80133 0
M  V30 8100 H 749.843 2.76478 -2.83506 0
M  V30 8101 H 751.017 0.500582 -4.58073 0
M  V30 8102 H 749.332 0.60928 -4.11918 0
M  V30 8103 H 751.929 3.39055 -4.13456 0
M  V30 8104 H 752.272 3.38588 -2.42206 0
M  V30 8105 H 752.805 2.01735 -3.42852 0
M  V30 8106 H 749.544 1.4998 -6.38111 0
M  V30 8107 H 749.064 2.82201 -5.29266 0
M  V30 8108 H 750.743 2.70802 -5.87601 0
M  V30 8109 N 750.875 1.45233 0.611969 0
M  V30 8110 C 752.123 1.48727 1.36838 0
M  V30 8111 C 752.444 0.128616 1.94575 0
M  V30 8112 O 751.714 -0.84149 1.76906 0
M  V30 8113 H 750.294 0.547695 0.507976 0
M  V30 8114 H 752.956 1.81156 0.718925 0
M  V30 8115 H 752.052 2.2236 2.19003 0
M  V30 8116 N 752.353 -0.854086 1.3245 0
M  V30 8117 C 753.583 -1.63836 1.25862 0
M  V30 8118 C 753.991 -1.88383 -0.175588 0
M  V30 8119 O 753.334 -1.45353 -1.1233 0
M  V30 8120 C 753.396 -3.02068 1.94923 0
M  V30 8121 C 753.06 -3.0056 3.44257 0
M  V30 8122 C 754.057 -2.77368 4.39731 0
M  V30 8123 C 751.742 -3.21177 3.862 0
M  V30 8124 C 753.736 -2.74797 5.75122 0
M  V30 8125 C 751.423 -3.18234 5.217 0
M  V30 8126 C 752.421 -2.95072 6.15972 0
M  V30 8127 O 752.109 -2.92003 7.48992 0
M  V30 8128 H 751.841 -0.517007 0.435523 0
M  V30 8129 H 754.395 -1.07314 1.75137 0
M  V30 8130 H 752.625 -3.60382 1.40219 0
M  V30 8131 H 754.314 -3.62791 1.82037 0
M  V30 8132 H 755.08 -2.61205 4.08653 0
M  V30 8133 H 750.959 -3.38231 3.13243 0
M  V30 8134 H 754.503 -2.56638 6.48678 0
M  V30 8135 H 750.4 -3.33941 5.52407 0
M  V30 8136 H 751.168 -3.07953 7.58358 0
M  V30 8137 N 753.831 -1.1567 -1.07043 0
M  V30 8138 C 755.08 -0.928039 -1.79082 0
M  V30 8139 C 755.393 0.545968 -1.87826 0
M  V30 8140 O 756.599 0.892308 -2.56418 0
M  V30 8141 C 755.055 -1.61103 -3.21829 0
M  V30 8142 C 754.663 -3.12228 -3.21275 0
M  V30 8143 C 756.407 -1.46404 -3.98455 0
M  V30 8144 C 754.314 -3.733 -4.58695 0
M  V30 8145 H 753.244 -0.34357 -0.671175 0
M  V30 8146 H 755.895 -1.38718 -1.20123 0
M  V30 8147 H 754.277 -1.07958 -3.81 0
M  V30 8148 H 755.451 -3.72155 -2.71731 0
M  V30 8149 H 753.766 -3.26725 -2.58147 0
M  V30 8150 H 756.363 -1.8942 -5.00024 0
M  V30 8151 H 756.706 -0.41195 -4.14257 0
M  V30 8152 H 757.239 -1.96663 -3.45787 0
M  V30 8153 H 753.978 -4.78423 -4.48098 0
M  V30 8154 H 753.498 -3.18157 -5.08465 0
M  V30 8155 H 755.177 -3.7441 -5.27661 0
M  V30 8156 N 755.309 1.25446 -0.953992 0
M  V30 8157 C 756.555 1.93756 -0.618888 0
M  V30 8158 C 756.91 1.73344 0.83484 0
M  V30 8159 O 756.203 1.06753 1.59105 0
M  V30 8160 C 756.397 3.45555 -0.912496 0
M  V30 8161 C 756.226 3.8073 -2.39321 0
M  V30 8162 C 754.996 4.02819 -3.05065 0
M  V30 8163 C 757.194 3.88286 -3.37251 0
M  V30 8164 N 755.176 4.24981 -4.43017 0
M  V30 8165 C 756.547 4.1513 -4.60507 0
M  V30 8166 C 758.602 3.70965 -3.32099 0
M  V30 8167 C 757.305 4.26454 -5.79249 0
M  V30 8168 C 759.331 3.83528 -4.50178 0
M  V30 8169 C 758.693 4.10783 -5.72221 0
M  V30 8170 H 754.792 0.731271 -0.277069 0
M  V30 8171 H 757.376 1.5125 -1.22604 0
M  V30 8172 H 755.547 3.86959 -0.334284 0
M  V30 8173 H 757.279 4.01117 -0.537362 0
M  V30 8174 H 754.034 3.9868 -2.55639 0
M  V30 8175 H 754.458 4.4007 -5.14459 0
M  V30 8176 H 759.1 3.4891 -2.38791 0
M  V30 8177 H 756.818 4.47325 -6.72998 0
M  V30 8178 H 760.404 3.71513 -4.47738 0
M  V30 8179 H 759.284 4.20285 -6.62065 0
M  V30 8180 N 756.787 0.722489 1.40064 0
M  V30 8181 C 758.017 0.274439 2.04769 0
M  V30 8182 C 758.425 -1.09125 1.54559 0
M  V30 8183 O 757.768 -1.69834 0.700149 0
M  V30 8184 C 757.83 0.184091 3.59028 0
M  V30 8185 C 757.494 1.48619 4.32159 0
M  V30 8186 C 758.491 2.42947 4.59644 0
M  V30 8187 C 756.176 1.74703 4.7094 0
M  V30 8188 C 758.17 3.616 5.24904 0
M  V30 8189 C 755.857 2.93636 5.3593 0
M  V30 8190 C 756.855 3.86907 5.62843 0
M  V30 8191 O 756.543 5.03753 6.26489 0
M  V30 8192 H 756.275 0.119847 0.665292 0
M  V30 8193 H 758.829 0.983352 1.80331 0
M  V30 8194 H 757.059 -0.580821 3.82313 0
M  V30 8195 H 758.748 -0.230306 4.05246 0
M  V30 8196 H 759.514 2.24062 4.30141 0
M  V30 8197 H 755.393 1.02955 4.49356 0
M  V30 8198 H 758.937 4.34418 5.45827 0
M  V30 8199 H 754.834 3.12428 5.64853 0
M  V30 8200 H 755.602 5.03922 6.44984 0
M  V30 8201 N 758.265 -1.50454 0.469181 0
M  V30 8202 C 759.493 -2.06729 -0.0842134 0
M  V30 8203 C 759.908 -1.33326 -1.33677 0
M  V30 8204 O 759.265 -0.401977 -1.78018 0
M  V30 8205 C 759.316 -3.59557 -0.374253 0
M  V30 8206 O 759.037 -4.30192 0.828622 0
M  V30 8207 C 760.538 -4.32449 -0.974824 0
M  V30 8208 H 757.758 -0.670971 0.006231 0
M  V30 8209 H 760.302 -1.93645 0.657415 0
M  V30 8210 H 758.457 -3.7245 -1.06581 0
M  V30 8211 H 758.871 -5.21371 0.572066 0
M  V30 8212 H 760.345 -5.40361 -1.12755 0
M  V30 8213 H 760.822 -3.92819 -1.96442 0
M  V30 8214 H 761.428 -4.24082 -0.321703 0
M  V30 8215 N 759.743 -0.201713 -1.56304 0
M  V30 8216 C 760.69 0.716499 -2.19397 0
M  V30 8217 C 761.66 1.20494 -1.14326 0
M  V30 8218 O 762.845 1.26763 -1.42604 0
M  V30 8219 C 759.985 1.92762 -2.86246 0
M  V30 8220 C 759.098 1.47993 -4.0586 0
M  V30 8221 C 758.233 2.64706 -4.60547 0
M  V30 8222 C 757.272 2.16576 -5.72504 0
M  V30 8223 N 756.409 3.26491 -6.21569 0
M  V30 8224 H 761.249 0.171724 -2.97505 0
M  V30 8225 H 758.786 0.073016 -1.46919 0
M  V30 8226 H 760.744 2.6384 -3.23178 0
M  V30 8227 H 759.374 2.44559 -2.10691 0
M  V30 8228 H 758.426 0.66477 -3.74546 0
M  V30 8229 H 759.738 1.08686 -4.86815 0
M  V30 8230 H 758.892 3.43898 -4.99819 0
M  V30 8231 H 757.631 3.0729 -3.78713 0
M  V30 8232 H 756.636 1.3584 -5.32755 0
M  V30 8233 H 757.861 1.75015 -6.56161 0
M  V30 8234 H 755.807 3.68594 -5.42655 0
M  V30 8235 H 755.724 2.91374 -6.97594 0
M  V30 8236 H 756.992 4.05877 -6.65495 0
M  V30 8237 N 761.222 1.57436 0.0718424 0
M  V30 8238 C 762.17 2.04725 1.10411 0
M  V30 8239 C 763.164 0.952579 1.4008 0
M  V30 8240 O 764.37 1.13769 1.39487 0
M  V30 8241 H 760.745 0.652749 0.373393 0
M  V30 8242 H 762.716 2.90569 0.679126 0
M  V30 8243 C 761.465 2.5068 2.40946 0
M  V30 8244 H 760.788 3.34505 2.18967 0
M  V30 8245 H 762.228 2.87521 3.11621 0
M  V30 8246 C 760.687 1.38971 3.06902 0
M  V30 8247 O 761.217 0.731786 3.94978 0
M  V30 8248 N 759.423 1.13485 2.67525 0
M  V30 8249 H 758.97 1.67168 1.95991 0
M  V30 8250 H 758.928 0.389467 3.11978 0
M  V30 8251 N 762.7 -0.34323 1.53817 0
M  V30 8252 C 763.94 -1.09188 1.72793 0
M  V30 8253 C 764.304 -1.85876 0.481062 0
M  V30 8254 O 765.505 -2.63158 0.547851 0
M  V30 8255 C 763.776 -2.00783 2.9567 0
M  V30 8256 S 765.335 -2.82866 3.35459 0
M  V30 8257 H 762.153 -0.368926 0.607795 0
M  V30 8258 H 764.755 -0.370265 1.91962 0
M  V30 8259 H 763.459 -1.43245 3.84589 0
M  V30 8260 H 762.99 -2.77381 2.78968 0
M  V30 8261 H 765.005 -4.03196 2.89218 0
M  V30 8262 N 764.178 -1.45556 -0.604258 0
M  V30 8263 C 765.406 -1.53278 -1.38973 0
M  V30 8264 C 765.821 -0.166509 -1.88064 0
M  V30 8265 O 765.178 0.832519 -1.62405 0
M  V30 8266 C 765.229 -2.51992 -2.59195 0
M  V30 8267 O 764.95 -3.8331 -2.12143 0
M  V30 8268 C 766.451 -2.69445 -3.52015 0
M  V30 8269 H 763.671 -0.519003 -0.425297 0
M  V30 8270 H 766.215 -1.90773 -0.736621 0
M  V30 8271 H 764.37 -2.17561 -3.2054 0
M  V30 8272 H 764.784 -4.3685 -2.90279 0
M  V30 8273 H 766.258 -3.42485 -4.32907 0
M  V30 8274 H 766.735 -1.75596 -4.0257 0
M  V30 8275 H 767.341 -3.04886 -2.9652 0
M  V30 8276 N 765.656 0.84705 -1.32902 0
M  V30 8277 C 767.067 1.41785 -1.21466 0
M  V30 8278 C 767.418 1.95464 0.169767 0
M  V30 8279 O 766.543 1.88157 1.06892 0
M  V30 8280 C 767.138 2.57734 -2.19906 0
M  V30 8281 C 765.697 3.10791 -2.12334 0
M  V30 8282 C 764.844 1.83562 -2.07847 0
M  V30 8283 H 767.795 0.653532 -1.44619 0
M  V30 8284 H 767.816 3.35123 -1.80202 0
M  V30 8285 H 767.328 2.18635 -3.20656 0
M  V30 8286 H 765.429 3.54455 -1.14858 0
M  V30 8287 H 765.542 3.71519 -3.02506 0
M  V30 8288 H 763.906 2.03475 -1.53199 0
M  V30 8289 H 764.689 1.4667 -3.10392 0
M  V30 8290 N 767.134 1.16236 1.06428 0
M  V30 8291 C 768.097 0.870163 2.1204 0
M  V30 8292 C 769.097 -0.134239 1.60239 0
M  V30 8293 O 770.287 0.0964932 1.73933 0
M  V30 8294 C 767.419 0.301033 3.39568 0
M  V30 8295 H 768.612 1.8064 2.39394 0
M  V30 8296 H 766.165 0.971116 1.2247 0
M  V30 8297 H 766.9 -0.642948 3.17863 0
M  V30 8298 H 766.685 1.02475 3.78472 0
M  V30 8299 H 768.175 0.114494 4.17443 0
M  V30 8300 N 768.612 -1.24939 0.960631 0
M  V30 8301 C 769.852 -1.94565 0.626414 0
M  V30 8302 C 770.216 -1.73505 -0.822184 0
M  V30 8303 O 771.417 -2.37105 -1.26628 0
M  V30 8304 C 769.688 -3.43631 0.982462 0
M  V30 8305 S 771.247 -4.32138 0.761726 0
M  V30 8306 H 768.065 -0.672757 0.230043 0
M  V30 8307 H 770.667 -1.51464 1.23608 0
M  V30 8308 H 769.371 -3.56463 2.03377 0
M  V30 8309 H 768.902 -3.91719 0.363286 0
M  V30 8310 H 770.917 -4.94859 -0.364493 0
M  V30 8311 N 770.09 -0.729906 -1.39679 0
M  V30 8312 C 771.02 -0.101618 -2.33279 0
M  V30 8313 C 772.001 0.729854 -1.53646 0
M  V30 8314 O 773.186 0.67587 -1.82059 0
M  V30 8315 C 770.316 0.81024 -3.37716 0
M  V30 8316 C 769.27 0.0833126 -4.27919 0
M  V30 8317 C 768.596 1.11185 -5.23012 0
M  V30 8318 C 769.896 -1.07107 -5.112 0
M  V30 8319 H 771.59 -0.883452 -2.86069 0
M  V30 8320 H 769.136 -0.426283 -1.37546 0
M  V30 8321 H 771.089 1.25927 -4.02145 0
M  V30 8322 H 769.813 1.62413 -2.83354 0
M  V30 8323 H 768.472 -0.346043 -3.64963 0
M  V30 8324 H 768.12 1.91917 -4.64948 0
M  V30 8325 H 767.82 0.63026 -5.8421 0
M  V30 8326 H 769.344 1.56068 -5.90318 0
M  V30 8327 H 770.758 -0.700726 -5.69002 0
M  V30 8328 H 769.155 -1.48196 -5.81514 0
M  V30 8329 H 770.225 -1.89513 -4.46332 0
M  V30 8330 N 771.568 1.50203 -0.477153 0
M  V30 8331 C 772.979 1.86685 -0.0235041 0
M  V30 8332 C 773.33 1.39148 1.38319 0
M  V30 8333 O 772.455 0.759051 2.02651 0
M  V30 8334 C 773.05 3.38781 -0.0358767 0
M  V30 8335 C 771.609 3.74652 0.362327 0
M  V30 8336 C 770.756 2.7412 -0.41875 0
M  V30 8337 H 773.707 1.4286 -0.691133 0
M  V30 8338 H 773.728 3.72732 0.764924 0
M  V30 8339 H 773.24 3.73349 -1.05981 0
M  V30 8340 H 771.341 3.45686 1.39039 0
M  V30 8341 H 771.454 4.79063 0.059457 0
M  V30 8342 H 769.818 2.54376 0.128341 0
M  V30 8343 H 770.601 3.11532 -1.44231 0
M  V30 8344 N 773.046 0.209999 1.56195 0
M  V30 8345 C 773.993 -0.704854 2.19774 0
M  V30 8346 C 774.963 -1.19886 1.14964 0
M  V30 8347 O 776.148 -1.26005 1.43274 0
M  V30 8348 C 773.288 -1.91241 2.87265 0
M  V30 8349 C 772.401 -1.45838 4.06639 0
M  V30 8350 C 771.536 -2.6226 4.61945 0
M  V30 8351 C 770.575 -2.13537 5.73645 0
M  V30 8352 N 769.712 -3.2319 6.23292 0
M  V30 8353 H 774.552 -0.155944 2.97592 0
M  V30 8354 H 772.089 -0.0652235 1.46955 0
M  V30 8355 H 774.047 -2.62123 3.24573 0
M  V30 8356 H 772.677 -2.43439 2.11985 0
M  V30 8357 H 771.729 -0.644897 3.74894 0
M  V30 8358 H 773.041 -1.06103 4.87384 0
M  V30 8359 H 772.195 -3.41243 5.01636 0
M  V30 8360 H 770.934 -3.05278 3.80338 0
M  V30 8361 H 769.939 -1.33013 5.33468 0
M  V30 8362 H 771.164 -1.71533 6.57079 0
M  V30 8363 H 769.11 -3.65711 5.44602 0
M  V30 8364 H 769.027 -2.8767 6.99129 0
M  V30 8365 H 770.295 -4.02342 6.67639 0
M  V30 8366 N 774.524 -1.57472 -0.0634922 0
M  V30 8367 C 775.472 -2.05307 -1.09323 0
M  V30 8368 C 776.466 -0.959995 -1.39572 0
M  V30 8369 O 777.672 -1.14507 -1.38882 0
M  V30 8370 H 774.047 -0.65472 -0.369927 0
M  V30 8371 H 776.018 -2.90925 -0.663707 0
M  V30 8372 C 774.767 -2.51954 -2.39613 0
M  V30 8373 H 774.09 -3.35662 -2.1719 0
M  V30 8374 H 775.53 -2.89169 -3.10092 0
M  V30 8375 C 773.989 -1.40596 -3.06161 0
M  V30 8376 O 774.519 -0.752722 -3.94585 0
M  V30 8377 N 772.725 -1.14902 -2.66919 0
M  V30 8378 H 772.272 -1.68205 -1.95102 0
M  V30 8379 H 772.23 -0.406006 -3.11767 0
M  V30 8380 N 776.003 0.335068 -1.53997 0
M  V30 8381 C 777.231 1.09418 -1.756 0
M  V30 8382 C 777.646 1.82083 -0.499138 0
M  V30 8383 O 777.003 1.74646 0.529631 0
M  V30 8384 C 777.054 2.10115 -2.94166 0
M  V30 8385 O 776.775 1.40404 -4.14992 0
M  V30 8386 C 778.276 2.98336 -3.27888 0
M  V30 8387 H 775.496 0.32595 -0.586513 0
M  V30 8388 H 778.04 0.384693 -2.00849 0
M  V30 8389 H 776.195 2.76616 -2.71224 0
M  V30 8390 H 776.609 2.07743 -4.81605 0
M  V30 8391 H 778.083 3.6491 -4.1418 0
M  V30 8392 H 778.56 3.64814 -2.44556 0
M  V30 8393 H 779.166 2.37412 -3.52868 0
M  V30 8394 N 777.481 1.45874 0.596531 0
M  V30 8395 C 778.428 1.55389 1.70655 0
M  V30 8396 C 779.398 0.399036 1.61236 0
M  V30 8397 O 780.583 0.61396 1.80652 0
M  V30 8398 C 777.723 1.53705 3.0898 0
M  V30 8399 C 776.836 2.79823 3.29125 0
M  V30 8400 C 775.971 2.69735 4.5762 0
M  V30 8401 C 775.01 3.90856 4.71061 0
M  V30 8402 N 774.147 3.79237 5.90867 0
M  V30 8403 H 778.987 2.50211 1.61859 0
M  V30 8404 H 776.524 1.24146 0.789069 0
M  V30 8405 H 778.482 1.50715 3.89026 0
M  V30 8406 H 777.112 0.624247 3.16706 0
M  V30 8407 H 776.164 2.92852 2.42779 0
M  V30 8408 H 777.476 3.69628 3.34927 0
M  V30 8409 H 776.63 2.64773 5.45875 0
M  V30 8410 H 775.369 1.77547 4.54234 0
M  V30 8411 H 774.374 3.96164 3.81227 0
M  V30 8412 H 775.599 4.84124 4.76236 0
M  V30 8413 H 773.545 2.89825 5.88504 0
M  V30 8414 H 773.462 4.62686 5.97877 0
M  V30 8415 H 774.73 3.78227 6.8159 0
M  V30 8416 N 778.959 -0.83999 1.33349 0
M  V30 8417 C 780.208 -1.59011 1.2409 0
M  V30 8418 C 780.521 -1.94655 -0.192029 0
M  V30 8419 O 781.727 -2.68438 -0.406617 0
M  V30 8420 C 780.183 -2.86801 2.17425 0
M  V30 8421 C 779.791 -2.58525 3.65881 0
M  V30 8422 C 781.535 -3.64823 2.17036 0
M  V30 8423 C 779.442 -3.82404 4.51133 0
M  V30 8424 H 778.372 -0.596731 0.460899 0
M  V30 8425 H 781.023 -0.926274 1.58406 0
M  V30 8426 H 779.405 -3.54719 1.7604 0
M  V30 8427 H 780.579 -1.98824 4.15699 0
M  V30 8428 H 778.894 -1.93808 3.68548 0
M  V30 8429 H 781.491 -4.56774 2.7796 0
M  V30 8430 H 781.834 -3.99663 1.16513 0
M  V30 8431 H 782.367 -3.03826 2.56777 0
M  V30 8432 H 779.106 -3.52696 5.52527 0
M  V30 8433 H 778.626 -4.41447 4.0606 0
M  V30 8434 H 780.305 -4.49995 4.6488 0
M  V30 8435 N 780.437 -1.16799 -1.0581 0
M  V30 8436 C 781.683 -0.953935 -1.78963 0
M  V30 8437 C 782.016 0.516638 -1.87202 0
M  V30 8438 O 781.291 1.38338 -1.36721 0
M  V30 8439 C 781.574 -1.58808 -3.23191 0
M  V30 8440 C 781.427 -3.13032 -3.23003 0
M  V30 8441 C 782.746 -1.2868 -4.20867 0
M  V30 8442 H 779.865 -0.347972 -0.64968 0
M  V30 8443 H 782.507 -1.44204 -1.23715 0
M  V30 8444 H 780.657 -1.17303 -3.70368 0
M  V30 8445 H 782.329 -3.63553 -2.83949 0
M  V30 8446 H 780.572 -3.46108 -2.61518 0
M  V30 8447 H 781.243 -3.52527 -4.24769 0
M  V30 8448 H 783.719 -1.6461 -3.82155 0
M  V30 8449 H 782.595 -1.75645 -5.20038 0
M  V30 8450 H 782.856 -0.206491 -4.41618 0
M  V30 8451 N 781.915 1.24427 -0.967243 0
M  V30 8452 C 783.163 1.92107 -0.627638 0
M  V30 8453 C 783.484 1.75991 0.83978 0
M  V30 8454 O 782.754 1.13118 1.59941 0
M  V30 8455 H 781.334 0.710986 -0.229145 0
M  V30 8456 H 783.996 1.51331 -1.22821 0
M  V30 8457 H 783.092 2.99791 -0.867844 0
M  V30 8458 N 783.393 0.737304 1.3929 0
M  V30 8459 C 784.804 0.355966 1.83275 0
M  V30 8460 C 785.155 -1.11295 1.6158 0
M  V30 8461 O 784.28 -1.85871 1.10819 0
M  V30 8462 C 784.875 0.63931 3.32713 0
M  V30 8463 C 783.434 0.31144 3.75109 0
M  V30 8464 C 782.581 0.900765 2.62262 0
M  V30 8465 H 785.532 0.934763 1.28249 0
M  V30 8466 H 785.553 -0.0881293 3.80398 0
M  V30 8467 H 785.065 1.70847 3.48472 0
M  V30 8468 H 783.166 -0.751791 3.64937 0
M  V30 8469 H 783.279 0.795611 4.72448 0
M  V30 8470 H 781.643 0.327239 2.52589 0
M  V30 8471 H 782.426 1.97463 2.80826 0
M  V30 8472 N 784.871 -1.49948 0.485112 0
M  V30 8473 C 786.119 -2.01996 -0.0648775 0
M  V30 8474 C 786.44 -1.36819 -1.38945 0
M  V30 8475 O 785.71 -0.518163 -1.88923 0
M  V30 8476 H 784.29 -0.746513 -0.0269662 0
M  V30 8477 H 786.952 -1.84136 0.638733 0
M  V30 8478 H 786.048 -3.11418 -0.20617 0
M  V30 8479 N 786.349 -0.21828 -1.56081 0
M  V30 8480 C 787.296 0.693189 -2.20144 0
M  V30 8481 C 788.266 1.19274 -1.15598 0
M  V30 8482 O 789.451 1.25243 -1.4394 0
M  V30 8483 C 786.591 1.89715 -2.88275 0
M  V30 8484 C 785.704 1.4368 -4.07407 0
M  V30 8485 C 784.839 2.59807 -4.63329 0
M  V30 8486 C 783.878 2.10492 -5.74769 0
M  V30 8487 N 783.015 3.1988 -6.24997 0
M  V30 8488 H 787.855 0.14016 -2.9767 0
M  V30 8489 H 785.392 0.0574292 -1.46988 0
M  V30 8490 H 787.35 2.60398 -3.25958 0
M  V30 8491 H 785.98 2.42311 -2.13273 0
M  V30 8492 H 785.032 0.625007 -3.7523 0
M  V30 8493 H 786.344 1.03517 -4.8794 0
M  V30 8494 H 785.498 3.38577 -5.03438 0
M  V30 8495 H 784.237 3.03256 -3.81951 0
M  V30 8496 H 783.242 1.30182 -5.34165 0
M  V30 8497 H 784.467 1.68045 -6.5798 0
M  V30 8498 H 782.413 3.62817 -5.46534 0
M  V30 8499 H 782.33 2.83958 -7.00645 0
M  V30 8500 H 783.598 3.98796 -6.69763 0
M  V30 8501 N 787.827 1.57504 0.0551401 0
M  V30 8502 C 789.074 1.88055 0.751104 0
M  V30 8503 C 789.402 0.812231 1.76729 0
M  V30 8504 O 788.657 -0.189918 1.94776 0
M  V30 8505 C 788.956 3.25311 1.48013 0
M  V30 8506 C 788.622 4.46858 0.602375 0
M  V30 8507 C 787.284 4.79847 0.360536 0
M  V30 8508 C 789.636 5.212 -0.00524047 0
M  V30 8509 C 786.964 5.84582 -0.498127 0
M  V30 8510 C 789.316 6.26844 -0.851453 0
M  V30 8511 C 787.98 6.58324 -1.103 0
M  V30 8512 H 787.25 0.688142 0.274848 0
M  V30 8513 H 789.897 1.91497 0.0114795 0
M  V30 8514 H 788.202 3.17737 2.29239 0
M  V30 8515 H 789.899 3.46189 2.02371 0
M  V30 8516 H 786.489 4.21049 0.801007 0
M  V30 8517 H 790.673 4.96013 0.168682 0
M  V30 8518 H 785.929 6.07361 -0.701594 0
M  V30 8519 H 790.103 6.83603 -1.32893 0
M  V30 8520 H 787.73 7.39304 -1.77011 0
M  V30 8521 N 789.305 -0.326896 1.54172 0
M  V30 8522 C 790.553 -1.06313 1.71878 0
M  V30 8523 C 790.874 -1.88652 0.493498 0
M  V30 8524 O 790.144 -1.89608 -0.492522 0
M  V30 8525 H 788.724 -0.39549 0.633716 0
M  V30 8526 H 791.386 -0.364139 1.91468 0
M  V30 8527 H 790.482 -1.73105 2.59694 0
M  V30 8528 N 790.784 -1.46188 -0.588786 0
M  V30 8529 C 792.012 -1.54743 -1.37339 0
M  V30 8530 C 792.427 -0.186446 -1.87877 0
M  V30 8531 O 791.784 0.815247 -1.63279 0
M  V30 8532 C 791.835 -2.54727 -2.56508 0
M  V30 8533 O 791.556 -3.85539 -2.08066 0
M  V30 8534 C 793.057 -2.73163 -3.49137 0
M  V30 8535 H 790.277 -0.523484 -0.419768 0
M  V30 8536 H 792.821 -1.91543 -0.716345 0
M  V30 8537 H 790.976 -2.20948 -3.18215 0
M  V30 8538 H 791.39 -4.39905 -2.85629 0
M  V30 8539 H 792.864 -3.47057 -4.2925 0
M  V30 8540 H 793.341 -1.79856 -4.00685 0
M  V30 8541 H 793.947 -3.08014 -2.9327 0
M  V30 8542 N 792.262 0.832906 -1.33792 0
M  V30 8543 C 793.21 1.96455 -1.24532 0
M  V30 8544 C 794.204 1.68774 -0.145455 0
M  V30 8545 O 795.41 1.77314 -0.309797 0
M  V30 8546 H 791.785 0.645008 -0.386611 0
M  V30 8547 H 793.756 2.01389 -2.20193 0
M  V30 8548 C 792.505 3.32784 -1.00748 0
M  V30 8549 H 791.828 3.54626 -1.84609 0
M  V30 8550 H 793.268 4.12447 -0.98301 0
M  V30 8551 C 791.727 3.35654 0.289475 0
M  V30 8552 O 792.257 3.80281 1.29419 0
M  V30 8553 N 790.463 2.88843 0.3191 0
M  V30 8554 H 790.01 2.52719 -0.499069 0
M  V30 8555 H 789.968 2.91145 1.18667 0
M  V30 8556 N 793.74 1.17359 1.05189 0
M  V30 8557 C 794.703 0.892604 2.11105 0
M  V30 8558 C 795.703 -0.117236 1.60372 0
M  V30 8559 O 796.893 0.114936 1.7382 0
M  V30 8560 C 794.025 0.337032 3.3923 0
M  V30 8561 H 795.218 1.83169 2.37464 0
M  V30 8562 H 792.771 0.984051 1.21434 0
M  V30 8563 H 793.506 -0.609198 3.18527 0
M  V30 8564 H 793.291 1.06484 3.77364 0
M  V30 8565 H 794.781 0.158763 4.17298 0
M  V30 8566 N 795.218 -1.23913 0.973828 0
M  V30 8567 C 796.128 -2.28838 0.516735 0
M  V30 8568 C 797.144 -1.68723 -0.425282 0
M  V30 8569 O 798.32 -1.99201 -0.296819 0
M  V30 8570 C 795.385 -3.46233 -0.179914 0
M  V30 8571 C 794.446 -4.21729 0.80269 0
M  V30 8572 C 793.679 -5.33518 0.139191 0
M  V30 8573 O 793.902 -5.60252 -1.07118 0
M  V30 8574 O 792.836 -5.96088 0.834447 0
M  V30 8575 H 796.662 -2.70067 1.38916 0
M  V30 8576 H 794.247 -1.2972 0.74115 0
M  V30 8577 H 796.129 -4.17514 -0.570991 0
M  V30 8578 H 794.804 -3.06969 -1.02721 0
M  V30 8579 H 793.711 -3.52799 1.24434 0
M  V30 8580 H 795.044 -4.64825 1.61859 0
M  V30 8581 N 796.696 -0.74468 -1.38897 0
M  V30 8582 C 797.973 -0.222773 -1.94327 0
M  V30 8583 C 798.353 1.27731 -1.68071 0
M  V30 8584 O 797.701 2.04754 -1.01429 0
M  V30 8585 C 797.911 -0.566836 -3.44366 0
M  V30 8586 C 799.259 -0.521531 -4.21385 0
M  V30 8587 O 800.283 -0.504599 -3.52608 0
M  V30 8588 O 799.142 -0.524595 -5.43976 0
M  V30 8589 H 796.236 -0.0439259 -0.825833 0
M  V30 8590 H 798.782 -0.824197 -1.48341 0
M  V30 8591 H 797.554 -1.60321 -3.56949 0
M  V30 8592 H 797.177 0.0630577 -3.9755 0
M  V30 8593 N 798.174 1.49689 -0.493057 0
M  V30 8594 C 799.422 2.02027 0.0541642 0
M  V30 8595 C 799.743 1.37554 1.38217 0
M  V30 8596 O 799.013 0.528174 1.88646 0
M  V30 8597 H 797.593 0.746646 0.0230069 0
M  V30 8598 H 800.255 1.83795 -0.648489 0
M  V30 8599 H 799.351 3.11523 0.189652 0
M  V30 8600 N 799.652 0.226554 1.55963 0
M  V30 8601 C 800.599 -0.681504 2.20509 0
M  V30 8602 C 801.569 -1.1866 1.16229 0
M  V30 8603 O 802.754 -1.24478 1.44602 0
M  V30 8604 C 799.894 -1.88183 2.89277 0
M  V30 8605 C 799.007 -1.41517 4.08163 0
M  V30 8606 C 798.142 -2.57346 4.647 0
M  V30 8607 C 797.181 -2.07441 5.75877 0
M  V30 8608 N 796.318 -3.16561 6.26685 0
M  V30 8609 H 801.158 -0.124372 2.9774 0
M  V30 8610 H 798.695 -0.0496333 1.47016 0
M  V30 8611 H 800.653 -2.58666 3.27335 0
M  V30 8612 H 799.283 -2.41177 2.14555 0
M  V30 8613 H 798.335 -0.605099 3.75557 0
M  V30 8614 H 799.647 -1.00928 4.88482 0
M  V30 8615 H 798.801 -3.35903 5.05227 0
M  V30 8616 H 797.54 -3.01227 3.83554 0
M  V30 8617 H 796.545 -1.27347 5.34848 0
M  V30 8618 H 797.77 -1.64554 6.58862 0
M  V30 8619 H 795.716 -3.59914 5.48451 0
M  V30 8620 H 795.633 -2.80239 7.02141 0
M  V30 8621 H 796.901 -3.95238 6.71868 0
M  V30 8622 N 801.13 -1.57531 -0.0467866 0
M  V30 8623 C 802.379 -1.87632 -0.740069 0
M  V30 8624 C 802.692 -0.822691 -1.77457 0
M  V30 8625 O 803.898 -1.01235 -2.5192 0
M  V30 8626 C 802.354 -3.32917 -1.36727 0
M  V30 8627 C 801.962 -4.46469 -0.370035 0
M  V30 8628 C 803.706 -3.72189 -2.04146 0
M  V30 8629 C 801.613 -5.82806 -1.00457 0
M  V30 8630 H 800.543 -0.70002 -0.280158 0
M  V30 8631 H 803.194 -1.83499 0.00607151 0
M  V30 8632 H 801.576 -3.31739 -2.16252 0
M  V30 8633 H 802.75 -4.59085 0.397217 0
M  V30 8634 H 801.065 -4.15914 0.201079 0
M  V30 8635 H 803.662 -4.71357 -2.52441 0
M  V30 8636 H 804.005 -3.03268 -2.85192 0
M  V30 8637 H 804.538 -3.75465 -1.3142 0
M  V30 8638 H 801.277 -6.55083 -0.233907 0
M  V30 8639 H 800.797 -5.73944 -1.74209 0
M  V30 8640 H 802.476 -6.28961 -1.51713 0
M  V30 8641 N 802.608 0.318715 -1.54344 0
M  V30 8642 C 803.538 1.39751 -1.87061 0
M  V30 8643 C 804.519 1.53741 -0.727848 0
M  V30 8644 O 805.704 1.67541 -0.982016 0
M  V30 8645 C 802.834 2.76446 -2.10226 0
M  V30 8646 C 801.788 2.77239 -3.26071 0
M  V30 8647 C 801.114 4.17056 -3.34617 0
M  V30 8648 C 802.414 2.40555 -4.63606 0
M  V30 8649 H 804.108 1.12619 -2.77412 0
M  V30 8650 H 801.654 0.540318 -1.33479 0
M  V30 8651 H 803.607 3.51985 -2.31699 0
M  V30 8652 H 802.331 3.05066 -1.16629 0
M  V30 8653 H 800.99 2.04155 -3.04493 0
M  V30 8654 H 800.638 4.42824 -2.3857 0
M  V30 8655 H 800.338 4.18492 -4.12478 0
M  V30 8656 H 801.862 4.94401 -3.5833 0
M  V30 8657 H 803.276 3.05808 -4.84927 0
M  V30 8658 H 801.673 2.53234 -5.44052 0
M  V30 8659 H 802.743 1.35698 -4.65526 0
M  V30 8660 N 804.086 1.46499 0.581025 0
M  V30 8661 C 805.036 1.53606 1.68491 0
M  V30 8662 C 806.02 0.396853 1.55929 0
M  V30 8663 O 807.212 0.645366 1.64815 0
M  V30 8664 C 804.341 1.53089 3.07276 0
M  V30 8665 C 803.427 2.72309 3.25128 0
M  V30 8666 N 803.818 3.97216 3.13134 0
M  V30 8667 C 802.116 2.68568 3.56072 0
M  V30 8668 C 802.817 4.7693 3.33036 0
M  V30 8669 N 801.793 4.08833 3.58269 0
M  V30 8670 H 805.595 2.47976 1.5775 0
M  V30 8671 H 803.109 1.42161 0.785104 0
M  V30 8672 H 805.106 1.56268 3.86505 0
M  V30 8673 H 803.766 0.597969 3.19146 0
M  V30 8674 H 804.777 4.28439 2.90964 0
M  V30 8675 H 801.454 1.84307 3.74616 0
M  V30 8676 H 802.844 5.85879 3.28932 0
M  V30 8677 N 805.565 -0.825799 1.34232 0
M  V30 8678 C 806.475 -1.9684 1.27638 0
M  V30 8679 C 807.491 -1.73018 0.184569 0
M  V30 8680 O 808.667 -1.97172 0.410525 0
M  V30 8681 C 805.732 -3.31084 1.02879 0
M  V30 8682 C 804.793 -3.67933 2.21188 0
M  V30 8683 C 804.026 -4.95772 1.976 0
M  V30 8684 O 804.249 -5.62721 0.93281 0
M  V30 8685 O 803.183 -5.30431 2.84477 0
M  V30 8686 H 807.009 -2.05346 2.23756 0
M  V30 8687 H 804.594 -0.960772 1.1441 0
M  V30 8688 H 806.476 -4.11492 0.908406 0
M  V30 8689 H 805.151 -3.23552 0.0979821 0
M  V30 8690 H 804.058 -2.87981 2.38784 0
M  V30 8691 H 805.391 -3.80147 3.12648 0
M  V30 8692 N 807.043 -1.17915 -1.04565 0
M  V30 8693 C 807.976 -0.845021 -2.11978 0
M  V30 8694 C 808.954 0.19089 -1.61476 0
M  V30 8695 O 810.138 0.0709905 -1.88366 0
M  V30 8696 C 807.265 -0.261657 -3.37688 0
M  V30 8697 C 806.311 -1.27396 -4.07029 0
M  V30 8698 S 807.144 -2.82783 -4.54746 0
M  V30 8699 C 808.3 -2.25944 -5.83695 0
M  V30 8700 H 808.533 -1.75472 -2.39993 0
M  V30 8701 H 806.066 -1.00447 -1.17259 0
M  V30 8702 H 808.024 0.0684257 -4.10443 0
M  V30 8703 H 806.685 0.626082 -3.07797 0
M  V30 8704 H 805.878 -0.814557 -4.97374 0
M  V30 8705 H 805.48 -1.55002 -3.40368 0
M  V30 8706 H 807.772 -1.63892 -6.57378 0
M  V30 8707 H 808.715 -3.14569 -6.34391 0
M  V30 8708 H 809.123 -1.69155 -5.3856 0
M  V30 8709 N 808.521 1.23394 -0.980386 0
M  V30 8710 C 809.769 1.91431 -0.647978 0
M  V30 8711 C 810.09 1.76871 0.821066 0
M  V30 8712 O 809.36 1.14808 1.58732 0
M  V30 8713 H 807.94 0.708516 -0.236673 0
M  V30 8714 H 810.602 1.50019 -1.2442 0
M  V30 8715 H 809.698 2.98854 -0.899592 0
M  V30 8716 N 809.999 0.752036 1.385 0
M  V30 8717 C 811.247 0.306895 1.99756 0
M  V30 8718 C 811.568 -1.11478 1.59992 0
M  V30 8719 O 810.838 -1.76206 0.856045 0
M  V30 8720 H 809.418 0.11048 0.738785 0
M  V30 8721 H 812.08 0.965785 1.69289 0
M  V30 8722 H 811.176 0.368797 3.09913 0
M  V30 8723 N 811.477 -1.49425 0.500989 0
M  V30 8724 C 812.427 -2.26061 -0.296698 0
M  V30 8725 C 813.411 -1.30906 -0.935541 0
M  V30 8726 O 814.603 -1.55628 -0.843142 0
M  V30 8727 C 811.732 -3.15189 -1.36055 0
M  V30 8728 C 810.818 -4.17806 -0.727952 0
M  V30 8729 N 811.209 -5.05516 0.169408 0
M  V30 8730 C 809.507 -4.34907 -0.988535 0
M  V30 8731 C 810.208 -5.79267 0.531509 0
M  V30 8732 N 809.184 -5.43507 -0.100564 0
M  V30 8733 H 812.986 -2.91246 0.394103 0
M  V30 8734 H 810.5 -1.59275 0.317065 0
M  V30 8735 H 812.497 -3.68724 -1.94547 0
M  V30 8736 H 811.157 -2.51556 -2.05303 0
M  V30 8737 H 812.168 -5.15075 0.540218 0
M  V30 8738 H 808.845 -3.82481 -1.67376 0
M  V30 8739 H 810.235 -6.59872 1.26564 0
M  V30 8740 N 812.955 -0.234822 -1.55841 0
M  V30 8741 C 813.885 0.664217 -2.23854 0
M  V30 8742 C 814.866 1.19076 -1.2147 0
M  V30 8743 O 816.051 1.23232 -1.50091 0
M  V30 8744 C 813.181 1.86666 -2.9287 0
M  V30 8745 C 812.135 1.47341 -4.01839 0
M  V30 8746 C 811.461 2.75571 -4.58219 0
M  V30 8747 C 812.761 0.653479 -5.18196 0
M  V30 8748 H 814.455 0.0971213 -2.99242 0
M  V30 8749 H 812.001 0.0452724 -1.43929 0
M  V30 8750 H 813.954 2.50116 -3.39146 0
M  V30 8751 H 812.678 2.45894 -2.1495 0
M  V30 8752 H 811.337 0.862314 -3.56314 0
M  V30 8753 H 810.985 3.32971 -3.77014 0
M  V30 8754 H 810.685 2.49987 -5.31771 0
M  V30 8755 H 812.209 3.39939 -5.07221 0
M  V30 8756 H 813.623 1.19198 -5.60771 0
M  V30 8757 H 812.02 0.494188 -5.98062 0
M  V30 8758 H 813.09 -0.337004 -4.83728 0
M  V30 8759 N 814.433 1.57553 0.0384317 0
M  V30 8760 C 815.658 1.93485 0.746872 0
M  V30 8761 C 816.083 0.834069 1.68597 0
M  V30 8762 O 815.441 -0.210902 1.80069 0
M  V30 8763 C 815.489 3.28463 1.4881 0
M  V30 8764 O 814.593 3.20051 2.60079 0
M  V30 8765 H 813.934 0.632675 0.201539 0
M  V30 8766 H 816.464 2.046 -0.00329815 0
M  V30 8767 H 816.474 3.63132 1.86009 0
M  V30 8768 H 815.149 4.08147 0.799297 0
M  V30 8769 H 813.726 2.96998 2.25492 0
M  V30 8770 N 815.911 -0.310526 1.54511 0
M  V30 8771 C 816.821 -1.4054 1.87844 0
M  V30 8772 C 817.837 -1.55954 0.771635 0
M  V30 8773 O 819.013 -1.70801 1.06719 0
M  V30 8774 C 816.078 -2.75063 2.11048 0
M  V30 8775 C 815.139 -2.68715 3.348 0
M  V30 8776 C 814.372 -3.96821 3.56887 0
M  V30 8777 O 814.595 -4.95721 2.82165 0
M  V30 8778 O 813.529 -3.99291 4.50389 0
M  V30 8779 H 817.355 -1.15275 2.80972 0
M  V30 8780 H 814.94 -0.505732 1.4058 0
M  V30 8781 H 816.822 -3.54671 2.27566 0
M  V30 8782 H 815.497 -3.00191 1.21108 0
M  V30 8783 H 814.404 -1.87611 3.23655 0
M  V30 8784 H 815.737 -2.4854 4.2484 0
M  V30 8785 N 817.389 -1.46805 -0.573248 0
M  V30 8786 C 818.635 -1.5283 -1.33307 0
M  V30 8787 C 818.968 -0.183287 -1.93333 0
M  V30 8788 O 818.243 0.806354 -1.76998 0
M  V30 8789 C 818.526 -2.63414 -2.45531 0
M  V30 8790 C 818.379 -4.07478 -1.90478 0
M  V30 8791 C 819.698 -2.70014 -3.47535 0
M  V30 8792 H 816.817 -0.556371 -0.483343 0
M  V30 8793 H 819.459 -1.78787 -0.643066 0
M  V30 8794 H 817.609 -2.41412 -3.04389 0
M  V30 8795 H 819.281 -4.40795 -1.36004 0
M  V30 8796 H 817.524 -4.16511 -1.21248 0
M  V30 8797 H 818.195 -4.80598 -2.71531 0
M  V30 8798 H 820.671 -2.89817 -2.98572 0
M  V30 8799 H 819.547 -3.49192 -4.23504 0
M  V30 8800 H 819.808 -1.76436 -4.05367 0
M  V30 8801 N 818.867 0.818669 -1.34668 0
M  V30 8802 C 819.797 1.94468 -1.29245 0
M  V30 8803 C 820.778 1.69257 -0.169101 0
M  V30 8804 O 821.963 1.90794 -0.362143 0
M  V30 8805 C 819.093 3.31001 -1.05145 0
M  V30 8806 C 818.047 3.70663 -2.13992 0
M  V30 8807 C 817.373 5.05226 -1.75074 0
M  V30 8808 C 818.673 3.82312 -3.55858 0
M  V30 8809 H 820.367 1.99263 -2.2346 0
M  V30 8810 H 817.913 0.957304 -1.07572 0
M  V30 8811 H 819.866 4.09364 -0.999949 0
M  V30 8812 H 818.59 3.26517 -0.0737312 0
M  V30 8813 H 817.249 2.94578 -2.18219 0
M  V30 8814 H 816.897 4.97233 -0.759518 0
M  V30 8815 H 816.597 5.32734 -2.47928 0
M  V30 8816 H 818.121 5.86042 -1.71427 0
M  V30 8817 H 819.535 4.50935 -3.5402 0
M  V30 8818 H 817.932 4.21278 -4.2737 0
M  V30 8819 H 819.002 2.84193 -3.9289 0
M  V30 8820 N 820.346 1.18468 1.03938 0
M  V30 8821 C 821.276 0.936389 2.13902 0
M  V30 8822 C 822.257 -0.126381 1.6963 0
M  V30 8823 O 823.442 0.0264757 1.94182 0
M  V30 8824 C 820.572 0.462729 3.44204 0
M  V30 8825 C 819.526 1.46613 4.02105 0
M  V30 8826 C 818.852 0.84994 5.27902 0
M  V30 8827 C 820.152 2.84323 4.3813 0
M  V30 8828 H 821.846 1.85602 2.3493 0
M  V30 8829 H 819.392 0.893806 1.12903 0
M  V30 8830 H 821.345 0.276382 4.20493 0
M  V30 8831 H 820.069 -0.492477 3.22866 0
M  V30 8832 H 818.728 1.63944 3.27899 0
M  V30 8833 H 818.376 -0.112493 5.02874 0
M  V30 8834 H 818.076 1.51988 5.67603 0
M  V30 8835 H 819.6 0.674152 6.06867 0
M  V30 8836 H 821.014 2.70636 5.054 0
M  V30 8837 H 819.411 3.48012 4.88884 0
M  V30 8838 H 820.481 3.37776 3.47901 0
M  V30 8839 N 821.824 -1.22873 0.986916 0
M  V30 8840 C 822.754 -2.2688 0.552064 0
M  V30 8841 C 823.735 -1.64883 -0.418048 0
M  V30 8842 O 824.92 -1.9171 -0.30999 0
M  V30 8843 C 822.05 -3.47018 -0.139959 0
M  V30 8844 C 821.004 -4.21411 0.748091 0
M  V30 8845 C 820.33 -5.34645 -0.0765132 0
M  V30 8846 C 821.63 -4.80726 2.04206 0
M  V30 8847 H 823.324 -2.63507 1.42143 0
M  V30 8848 H 820.87 -1.26668 0.68492 0
M  V30 8849 H 822.823 -4.18931 -0.455527 0
M  V30 8850 H 821.547 -3.0947 -1.04382 0
M  V30 8851 H 820.206 -3.51325 1.04721 0
M  V30 8852 H 819.854 -4.93339 -0.981109 0
M  V30 8853 H 819.554 -5.85342 0.514606 0
M  V30 8854 H 821.078 -6.09377 -0.386313 0
M  V30 8855 H 822.492 -5.44612 1.79083 0
M  V30 8856 H 820.889 -5.41737 2.5815 0
M  V30 8857 H 821.959 -4.01109 2.72469 0
M  V30 8858 N 823.302 -0.75937 -1.38099 0
M  V30 8859 C 824.527 -0.327859 -2.04792 0
M  V30 8860 C 824.952 1.03752 -1.56899 0
M  V30 8861 O 824.31 1.66235 -0.723581 0
M  V30 8862 C 824.358 -0.366264 -3.58735 0
M  V30 8863 O 823.462 0.637697 -4.0744 0
M  V30 8864 H 822.803 -0.144092 -0.648177 0
M  V30 8865 H 825.333 -1.03211 -1.7666 0
M  V30 8866 H 825.343 -0.219179 -4.07411 0
M  V30 8867 H 824.018 -1.36243 -3.92951 0
M  V30 8868 H 822.595 0.454749 -3.70117 0
M  V30 8869 N 824.78 1.49157 -0.508906 0
M  V30 8870 C 825.71 2.32109 0.254469 0
M  V30 8871 C 826.691 1.40754 0.955111 0
M  V30 8872 O 827.876 1.69658 0.944983 0
M  V30 8873 C 825.006 3.21458 1.3146 0
M  V30 8874 C 823.96 4.2167 0.733368 0
M  V30 8875 C 823.286 5.00009 1.8946 0
M  V30 8876 C 824.586 5.21544 -0.280875 0
M  V30 8877 H 826.28 2.9618 -0.43795 0
M  V30 8878 H 823.826 1.4243 -0.212062 0
M  V30 8879 H 825.779 3.78305 1.85643 0
M  V30 8880 H 824.503 2.55346 2.03632 0
M  V30 8881 H 823.162 3.65979 0.213231 0
M  V30 8882 H 822.81 4.30338 2.60419 0
M  V30 8883 H 822.51 5.67821 1.51173 0
M  V30 8884 H 824.034 5.59702 2.44061 0
M  V30 8885 H 825.448 5.73039 0.173095 0
M  V30 8886 H 823.845 5.97291 -0.580006 0
M  V30 8887 H 824.915 4.69969 -1.19404 0
M  V30 8888 N 826.258 0.243083 1.55714 0
M  V30 8889 C 827.504 -0.383287 1.99145 0
M  V30 8890 C 827.837 -1.57868 1.13098 0
M  V30 8891 O 827.112 -1.93535 0.193509 0
M  V30 8892 C 827.395 -0.796879 3.51172 0
M  V30 8893 C 827.248 0.403642 4.47985 0
M  V30 8894 C 828.567 -1.64525 4.08191 0
M  V30 8895 H 825.686 -0.137843 0.723995 0
M  V30 8896 H 828.328 0.343631 1.86867 0
M  V30 8897 H 826.478 -1.41625 3.61766 0
M  V30 8898 H 828.15 1.04204 4.49376 0
M  V30 8899 H 826.393 1.04741 4.20965 0
M  V30 8900 H 827.064 0.0709794 5.51954 0
M  V30 8901 H 829.54 -1.12246 4.00674 0
M  V30 8902 H 828.416 -1.9035 5.14838 0
M  V30 8903 H 828.677 -2.61582 3.56409 0
M  V30 8904 N 827.736 -1.57571 -0.0300757 0
M  V30 8905 C 828.982 -1.89506 -0.722159 0
M  V30 8906 C 829.315 -0.840699 -1.7506 0
M  V30 8907 O 828.59 0.144358 -1.93964 0
M  V30 8908 C 828.873 -3.32081 -1.39262 0
M  V30 8909 C 828.726 -4.48211 -0.377768 0
M  V30 8910 C 830.045 -3.73557 -2.32687 0
M  V30 8911 H 827.164 -0.689213 -0.261064 0
M  V30 8912 H 829.806 -1.89994 0.0150388 0
M  V30 8913 H 827.956 -3.31796 -2.02098 0
M  V30 8914 H 829.628 -4.6063 0.248591 0
M  V30 8915 H 827.871 -4.3274 0.303045 0
M  V30 8916 H 828.542 -5.44854 -0.885347 0
M  V30 8917 H 831.018 -3.75202 -1.79896 0
M  V30 8918 H 829.894 -4.74125 -2.7658 0
M  V30 8919 H 830.155 -3.05759 -3.19317 0
M  V30 8920 N 829.214 0.302327 -1.54673 0
M  V30 8921 C 830.144 1.37759 -1.88533 0
M  V30 8922 C 831.125 1.52961 -0.744113 0
M  V30 8923 O 832.31 1.6649 -0.999731 0
M  V30 8924 C 829.44 2.74201 -2.13146 0
M  V30 8925 C 828.394 2.73765 -3.28993 0
M  V30 8926 C 827.72 4.13483 -3.39022 0
M  V30 8927 C 829.02 2.35624 -4.66132 0
M  V30 8928 H 830.714 1.0967 -2.78591 0
M  V30 8929 H 828.26 0.52613 -1.34044 0
M  V30 8930 H 830.213 3.49508 -2.35419 0
M  V30 8931 H 828.937 3.03812 -1.19858 0
M  V30 8932 H 827.596 2.00914 -3.06642 0
M  V30 8933 H 827.244 4.40269 -2.43253 0
M  V30 8934 H 826.944 4.14093 -4.16894 0
M  V30 8935 H 828.468 4.90572 -3.63553 0
M  V30 8936 H 829.882 3.00647 -4.88143 0
M  V30 8937 H 828.279 2.47449 -5.46707 0
M  V30 8938 H 829.349 1.30753 -4.66939 0
M  V30 8939 N 830.692 1.47107 0.565454 0
M  V30 8940 C 831.917 1.57153 1.35343 0
M  V30 8941 C 832.342 0.219247 1.86818 0
M  V30 8942 O 831.7 -0.803539 1.62521 0
M  V30 8943 C 831.748 2.59387 2.50501 0
M  V30 8944 O 830.852 2.14086 3.52478 0
M  V30 8945 H 830.193 0.528209 0.402357 0
M  V30 8946 H 832.723 1.92821 0.684189 0
M  V30 8947 H 832.733 2.79546 2.97184 0
M  V30 8948 H 831.408 3.57579 2.12391 0
M  V30 8949 H 829.985 2.03991 3.12157 0
M  V30 8950 N 832.17 -0.811516 1.35101 0
M  V30 8951 C 833.447 -1.55491 1.18667 0
M  V30 8952 C 833.827 -2.09775 -0.236189 0
M  V30 8953 O 833.175 -1.91989 -1.23905 0
M  V30 8954 C 833.385 -2.66732 2.25067 0
M  V30 8955 C 834.733 -3.35201 2.60625 0
M  V30 8956 O 835.757 -2.76998 2.23943 0
M  V30 8957 O 834.616 -4.40334 3.23679 0
M  V30 8958 H 831.71 -0.686783 0.460716 0
M  V30 8959 H 834.256 -0.851903 1.46768 0
M  V30 8960 H 833.028 -2.24457 3.20523 0
M  V30 8961 H 832.651 -3.44673 1.98208 0
M  V30 8962 N 833.648 -1.19017 -1.03309 0
M  V30 8963 C 834.895 -0.990214 -1.76638 0
M  V30 8964 C 835.223 0.479435 -1.88498 0
M  V30 8965 O 834.478 1.37223 -1.39529 0
M  V30 8966 C 834.777 -1.59927 -3.19622 0
M  V30 8967 C 834.443 -3.09632 -3.27779 0
M  V30 8968 C 833.105 -3.50491 -3.29712 0
M  V30 8969 C 835.457 -4.05644 -3.27264 0
M  V30 8970 C 832.785 -4.85921 -3.28782 0
M  V30 8971 C 835.137 -5.41 -3.27875 0
M  V30 8972 C 833.801 -5.81295 -3.28104 0
M  V30 8973 H 833.071 -0.362345 -0.646364 0
M  V30 8974 H 835.718 -1.48197 -1.21284 0
M  V30 8975 H 834.023 -1.0297 -3.78027 0
M  V30 8976 H 835.72 -1.41989 -3.7502 0
M  V30 8977 H 832.31 -2.77073 -3.26999 0
M  V30 8978 H 836.494 -3.75124 -3.24955 0
M  V30 8979 H 831.75 -5.16427 -3.27281 0
M  V30 8980 H 835.924 -6.15157 -3.26428 0
M  V30 8981 H 833.551 -6.86211 -3.27138 0
M  V30 8982 N 835.127 1.22348 -0.993418 0
M  V30 8983 C 836.09 2.22522 -0.549251 0
M  V30 8984 C 837.09 1.56529 0.368164 0
M  V30 8985 O 838.28 1.73463 0.16005 0
M  V30 8986 C 835.412 3.40307 0.201037 0
M  V30 8987 H 836.605 2.63332 -1.43515 0
M  V30 8988 H 834.158 1.35407 -0.78068 0
M  V30 8989 H 834.893 3.0497 1.10289 0
M  V30 8990 H 834.678 3.8942 -0.457685 0
M  V30 8991 H 836.168 4.14597 0.499946 0
M  V30 8992 N 836.605 0.766683 1.37694 0
M  V30 8993 C 838.016 0.394761 1.82479 0
M  V30 8994 C 838.367 -1.07842 1.63904 0
M  V30 8995 O 837.492 -1.83479 1.14737 0
M  V30 8996 C 838.087 0.70974 3.31283 0
M  V30 8997 C 836.646 0.390936 3.74364 0
M  V30 8998 C 835.793 0.956192 2.60293 0
M  V30 8999 H 838.744 0.961756 1.26238 0
M  V30 9000 H 838.765 -0.00742144 3.80499 0
M  V30 9001 H 838.277 1.782 3.4477 0
M  V30 9002 H 836.378 -0.674213 3.66449 0
M  V30 9003 H 836.491 0.895645 4.70654 0
M  V30 9004 H 834.855 0.380744 2.51838 0
M  V30 9005 H 835.638 2.03375 2.76575 0
M  V30 9006 N 838.083 -1.48885 0.516809 0
M  V30 9007 C 838.993 -2.33185 -0.257293 0
M  V30 9008 C 840.009 -1.4565 -0.951952 0
M  V30 9009 O 841.185 -1.78651 -0.929834 0
M  V30 9010 C 838.25 -3.21465 -1.29851 0
M  V30 9011 C 837.311 -4.24863 -0.615608 0
M  V30 9012 C 836.544 -5.08925 -1.60722 0
M  V30 9013 O 836.767 -4.9475 -2.83863 0
M  V30 9014 O 835.701 -5.90737 -1.15384 0
M  V30 9015 H 839.527 -3.00596 0.433131 0
M  V30 9016 H 837.112 -1.46792 0.277908 0
M  V30 9017 H 838.994 -3.76108 -1.90055 0
M  V30 9018 H 837.669 -2.5673 -1.97158 0
M  V30 9019 H 836.576 -3.74091 0.0265829 0
M  V30 9020 H 837.909 -4.92198 0.0152871 0
M  V30 9021 N 839.561 -0.251338 -1.55583 0
M  V30 9022 C 840.789 0.376187 -2.03451 0
M  V30 9023 C 841.204 1.51215 -1.13047 0
M  V30 9024 O 840.561 1.81917 -0.145769 0
M  V30 9025 C 840.612 0.879779 -3.50631 0
M  V30 9026 O 840.333 -0.210917 -4.37592 0
M  V30 9027 C 841.834 1.57754 -4.14281 0
M  V30 9028 H 839.054 0.0888722 -0.665089 0
M  V30 9029 H 841.598 -0.376497 -2.01004 0
M  V30 9030 H 839.753 1.58263 -3.53598 0
M  V30 9031 H 840.167 0.172203 -5.24217 0
M  V30 9032 H 841.641 1.88158 -5.18942 0
M  V30 9033 H 842.118 2.50103 -3.61034 0
M  V30 9034 H 842.724 0.919154 -4.15249 0
M  V30 9035 N 841.039 1.57585 0.0217189 0
M  V30 9036 C 842.002 2.06004 1.00474 0
M  V30 9037 C 843.002 0.965461 1.2859 0
M  V30 9038 O 844.192 1.22884 1.23471 0
M  V30 9039 C 841.324 2.48319 2.33561 0
M  V30 9040 H 842.517 2.94112 0.586346 0
M  V30 9041 H 840.07 1.53973 0.268716 0
M  V30 9042 H 840.805 1.63389 2.80133 0
M  V30 9043 H 840.59 3.28239 2.1448 0
M  V30 9044 H 842.08 2.86181 3.04122 0
M  V30 9045 N 842.517 -0.29412 1.54831 0
M  V30 9046 C 843.742 -1.05156 1.78765 0
M  V30 9047 C 844.167 -1.79916 0.548809 0
M  V30 9048 O 843.525 -1.74243 -0.500909 0
M  V30 9049 C 843.573 -2.00242 2.99893 0
M  V30 9050 O 842.677 -3.08662 2.73499 0
M  V30 9051 H 842.018 -0.301737 0.591482 0
M  V30 9052 H 844.548 -0.329449 2.0193 0
M  V30 9053 H 844.558 -2.42583 3.28051 0
M  V30 9054 H 843.233 -1.45235 3.89717 0
M  V30 9055 H 841.81 -2.70786 2.56377 0
M  V30 9056 N 843.995 -1.47404 -0.557645 0
M  V30 9057 C 845.241 -1.54235 -1.31679 0
M  V30 9058 C 845.574 -0.203782 -1.93128 0
M  V30 9059 O 844.849 0.787536 -1.77843 0
M  V30 9060 C 845.132 -2.66003 -2.42723 0
M  V30 9061 C 844.985 -4.09475 -1.86145 0
M  V30 9062 C 846.304 -2.73685 -3.44652 0
M  V30 9063 H 843.423 -0.561466 -0.477415 0
M  V30 9064 H 846.065 -1.79459 -0.624067 0
M  V30 9065 H 844.215 -2.44627 -3.01811 0
M  V30 9066 H 845.887 -4.42213 -1.31321 0
M  V30 9067 H 844.13 -4.17774 -1.16823 0
M  V30 9068 H 844.801 -4.83451 -2.66418 0
M  V30 9069 H 847.277 -2.92968 -2.95481 0
M  V30 9070 H 846.153 -3.53665 -4.19777 0
M  V30 9071 H 846.414 -1.80726 -4.03473 0
M  V30 9072 N 845.473 0.80434 -1.35529 0
M  V30 9073 C 846.406 1.92222 -1.22987 0
M  V30 9074 C 847.384 1.62177 -0.117269 0
M  V30 9075 O 848.568 1.86321 -0.285761 0
M  V30 9076 C 845.695 3.26682 -0.894223 0
M  V30 9077 C 844.741 3.75674 -2.01919 0
M  V30 9078 S 845.574 3.93209 -3.6352 0
M  V30 9079 C 846.73 5.30568 -3.32037 0
M  V30 9080 H 846.963 2.02567 -2.1761 0
M  V30 9081 H 844.496 0.961961 -1.20771 0
M  V30 9082 H 846.454 4.04359 -0.707371 0
M  V30 9083 H 845.115 3.14082 0.0339729 0
M  V30 9084 H 844.308 4.73065 -1.73854 0
M  V30 9085 H 843.91 3.05001 -2.16449 0
M  V30 9086 H 846.202 6.14637 -2.85004 0
M  V30 9087 H 847.145 5.63628 -4.28636 0
M  V30 9088 H 847.553 4.96961 -2.6775 0
M  V30 9089 N 846.951 1.19563 1.02676 0
M  V30 9090 C 848.181 1.0234 1.79472 0
M  V30 9091 C 848.589 -0.430891 1.84228 0
M  V30 9092 O 847.932 -1.31106 1.28674 0
M  V30 9093 C 847.994 1.51901 3.25832 0
M  V30 9094 C 847.658 3.00045 3.44706 0
M  V30 9095 C 848.655 3.9779 3.34752 0
M  V30 9096 C 846.34 3.38784 3.70851 0
M  V30 9097 C 848.334 5.32267 3.50672 0
M  V30 9098 C 846.021 4.73419 3.86416 0
M  V30 9099 C 847.019 5.69969 3.7633 0
M  V30 9100 O 846.707 7.02165 3.91432 0
M  V30 9101 H 846.439 0.360936 0.571578 0
M  V30 9102 H 848.993 1.58863 1.30198 0
M  V30 9103 H 847.223 0.897546 3.7614 0
M  V30 9104 H 848.912 1.30853 3.84229 0
M  V30 9105 H 849.678 3.69207 3.14502 0
M  V30 9106 H 845.557 2.64183 3.77794 0
M  V30 9107 H 849.101 6.07612 3.42715 0
M  V30 9108 H 844.998 5.01697 4.06165 0
M  V30 9109 H 845.766 7.09268 4.08511 0
M  V30 9110 N 848.429 -1.21819 0.999893 0
M  V30 9111 C 849.359 -2.26282 0.576096 0
M  V30 9112 C 850.34 -1.65317 -0.400537 0
M  V30 9113 O 851.525 -1.92028 -0.28964 0
M  V30 9114 C 848.655 -3.47147 -0.103145 0
M  V30 9115 C 847.609 -4.20594 0.792745 0
M  V30 9116 C 846.935 -5.34696 -0.0198026 0
M  V30 9117 C 848.235 -4.78533 2.09293 0
M  V30 9118 H 849.929 -2.61984 1.4493 0
M  V30 9119 H 847.475 -1.25935 0.698316 0
M  V30 9120 H 849.428 -4.1939 -0.411068 0
M  V30 9121 H 848.152 -3.1056 -1.01094 0
M  V30 9122 H 846.811 -3.50194 1.08442 0
M  V30 9123 H 846.459 -4.94352 -0.928729 0
M  V30 9124 H 846.159 -5.84764 0.576661 0
M  V30 9125 H 847.683 -6.09752 -0.321659 0
M  V30 9126 H 849.097 -5.42682 1.8485 0
M  V30 9127 H 847.494 -5.38968 2.63881 0
M  V30 9128 H 848.564 -3.98197 2.76708 0
M  V30 9129 N 849.908 -0.773975 -1.37286 0
M  V30 9130 C 851.157 -0.335977 -1.98882 0
M  V30 9131 C 851.47 1.09416 -1.62134 0
M  V30 9132 O 852.676 1.63366 -2.1685 0
M  V30 9133 C 851.132 -0.549756 -3.55676 0
M  V30 9134 C 850.74 -1.9903 -4.01361 0
M  V30 9135 C 852.484 -0.175493 -4.24137 0
M  V30 9136 C 850.391 -2.15156 -5.50874 0
M  V30 9137 H 849.321 -0.121877 -0.744085 0
M  V30 9138 H 851.972 -0.953419 -1.56787 0
M  V30 9139 H 850.354 0.137175 -3.95762 0
M  V30 9140 H 851.528 -2.71237 -3.72515 0
M  V30 9141 H 849.843 -2.32137 -3.4569 0
M  V30 9142 H 852.44 -0.274463 -5.33995 0
M  V30 9143 H 852.783 0.874524 -4.07011 0
M  V30 9144 H 853.316 -0.815058 -3.89361 0
M  V30 9145 H 850.055 -3.18485 -5.72929 0
M  V30 9146 H 849.575 -1.47435 -5.81397 0
M  V30 9147 H 851.254 -1.95124 -6.16876 0
M  V30 9148 N 851.386 1.48609 -0.524698 0
M  V30 9149 C 852.316 2.32366 0.229837 0
M  V30 9150 C 853.297 1.41759 0.940129 0
M  V30 9151 O 854.482 1.7065 0.926936 0
M  V30 9152 C 851.612 3.22835 1.28043 0
M  V30 9153 C 850.566 4.22424 0.688603 0
M  V30 9154 C 849.892 5.0199 1.84146 0
M  V30 9155 C 851.192 5.21217 -0.336176 0
M  V30 9156 H 852.886 2.95698 -0.469339 0
M  V30 9157 H 850.432 1.42197 -0.227156 0
M  V30 9158 H 852.385 3.80253 1.8162 0
M  V30 9159 H 851.109 2.57492 2.00912 0
M  V30 9160 H 849.768 3.66185 0.174402 0
M  V30 9161 H 849.416 4.33076 2.5584 0
M  V30 9162 H 849.116 5.69392 1.45142 0
M  V30 9163 H 850.64 5.62259 2.38111 0
M  V30 9164 H 852.054 5.7319 0.112307 0
M  V30 9165 H 850.451 5.96642 -0.643324 0
M  V30 9166 H 851.521 4.68676 -1.24381 0
M  V30 9167 N 852.864 0.259585 1.55447 0
M  V30 9168 C 853.814 -0.648769 2.18575 0
M  V30 9169 C 854.798 -1.1299 1.14552 0
M  V30 9170 O 855.99 -1.07756 1.4042 0
M  V30 9171 C 853.119 -1.83963 2.89849 0
M  V30 9172 C 852.205 -1.37641 4.01143 0
M  V30 9173 N 852.596 -0.628269 5.01883 0
M  V30 9174 C 850.894 -1.66066 4.1393 0
M  V30 9175 C 851.595 -0.386746 5.80413 0
M  V30 9176 N 850.571 -0.954665 5.35151 0
M  V30 9177 H 854.373 -0.0691616 2.93819 0
M  V30 9178 H 851.887 0.0624525 1.6228 0
M  V30 9179 H 853.884 -2.50151 3.33512 0
M  V30 9180 H 852.544 -2.42334 2.16112 0
M  V30 9181 H 853.555 -0.277123 5.17158 0
M  V30 9182 H 850.232 -2.25484 3.51373 0
M  V30 9183 H 851.622 0.211382 6.71567 0
M  V30 9184 N 854.342 -1.57594 -0.0133615 0
M  V30 9185 C 855.589 -1.8998 -0.70098 0
M  V30 9186 C 855.917 -0.858802 -1.74513 0
M  V30 9187 O 855.172 0.138209 -1.95211 0
M  V30 9188 C 855.471 -3.29121 -1.39336 0
M  V30 9189 C 855.137 -4.48298 -0.483687 0
M  V30 9190 C 853.799 -4.80635 -0.233186 0
M  V30 9191 C 856.151 -5.21003 0.143426 0
M  V30 9192 C 853.479 -5.83055 0.652943 0
M  V30 9193 C 855.831 -6.24366 1.01735 0
M  V30 9194 C 854.495 -6.55168 1.27716 0
M  V30 9195 H 853.765 -0.695187 -0.256507 0
M  V30 9196 H 856.412 -1.9146 0.0392965 0
M  V30 9197 H 854.717 -3.23703 -2.20735 0
M  V30 9198 H 856.414 -3.51433 -1.93121 0
M  V30 9199 H 853.004 -4.23024 -0.689092 0
M  V30 9200 H 857.188 -4.96286 -0.0371139 0
M  V30 9201 H 852.444 -6.05288 0.862379 0
M  V30 9202 H 856.618 -6.79839 1.5097 0
M  V30 9203 H 854.245 -7.34351 1.9655 0
M  V30 9204 N 855.82 0.285905 -1.54985 0
M  V30 9205 C 857.045 1.04207 -1.7932 0
M  V30 9206 C 857.47 1.79622 -0.558343 0
M  V30 9207 O 856.828 1.74506 0.491661 0
M  V30 9208 C 856.876 1.98648 -3.0095 0
M  V30 9209 O 855.98 3.07207 -2.75132 0
M  V30 9210 H 855.321 0.298596 -0.593074 0
M  V30 9211 H 857.851 0.318736 -2.02102 0
M  V30 9212 H 857.861 2.4084 -3.29333 0
M  V30 9213 H 856.536 1.43167 -3.90482 0
M  V30 9214 H 855.113 2.69423 -2.57809 0
M  V30 9215 N 857.298 1.47698 0.54982 0
M  V30 9216 C 858.547 1.53961 1.30303 0
M  V30 9217 C 858.86 0.209731 1.94472 0
M  V30 9218 O 860.066 0.150418 2.71083 0
M  V30 9219 C 858.522 2.71436 2.36328 0
M  V30 9220 C 858.13 4.10983 1.78316 0
M  V30 9221 C 859.874 2.86996 3.12783 0
M  V30 9222 C 857.781 5.19747 2.82164 0
M  V30 9223 H 856.711 0.573098 0.489975 0
M  V30 9224 H 859.362 1.73989 0.583089 0
M  V30 9225 H 857.744 2.44801 3.11269 0
M  V30 9226 H 858.918 4.47552 1.09697 0
M  V30 9227 H 857.233 4.00371 1.1442 0
M  V30 9228 H 859.83 3.65422 3.90347 0
M  V30 9229 H 860.173 1.95712 3.67427 0
M  V30 9230 H 860.706 3.13436 2.44954 0
M  V30 9231 H 857.445 6.12932 2.32366 0
M  V30 9232 H 856.965 4.87688 3.49171 0
M  V30 9233 H 858.644 5.47014 3.4552 0
M  V30 9234 N 858.776 -0.797141 1.35954 0
M  V30 9235 C 860.187 -1.37179 1.26644 0
M  V30 9236 C 860.538 -1.9596 -0.0971046 0
M  V30 9237 O 859.663 -1.91994 -0.998355 0
M  V30 9238 C 860.258 -2.49395 2.2932 0
M  V30 9239 C 858.817 -3.02697 2.23722 0
M  V30 9240 C 857.964 -1.75721 2.14517 0
M  V30 9241 H 860.915 -0.599407 1.46945 0
M  V30 9242 H 860.936 -3.28204 1.92515 0
M  V30 9243 H 860.448 -2.06584 3.2855 0
M  V30 9244 H 858.549 -3.49948 1.27934 0
M  V30 9245 H 858.662 -3.60036 3.16087 0
M  V30 9246 H 857.026 -1.97649 1.60646 0
M  V30 9247 H 857.809 -1.35049 3.15621 0
M  V30 9248 N 860.254 -1.20106 -1.0204 0
M  V30 9249 C 861.186 -0.904236 -2.10609 0
M  V30 9250 C 862.199 0.106487 -1.62451 0
M  V30 9251 O 863.388 -0.124035 -1.78069 0
M  V30 9252 C 860.488 -0.333423 -3.37256 0
M  V30 9253 C 859.661 -1.39476 -4.14566 0
M  V30 9254 C 858.72 -0.835961 -5.19517 0
M  V30 9255 O 857.746 -1.51573 -5.48648 0
M  V30 9256 N 858.948 0.356531 -5.79404 0
M  V30 9257 H 861.713 -1.8388 -2.36661 0
M  V30 9258 H 859.274 -1.10422 -1.184 0
M  V30 9259 H 861.266 0.0544571 -4.04663 0
M  V30 9260 H 859.836 0.505608 -3.08484 0
M  V30 9261 H 859.056 -1.95714 -3.42184 0
M  V30 9262 H 860.344 -2.10967 -4.63001 0
M  V30 9263 H 859.742 0.926143 -5.58067 0
M  V30 9264 H 858.299 0.686093 -6.48179 0
M  V30 9265 N 861.732 1.21287 -1.00634 0
M  V30 9266 C 862.957 1.94925 -0.708441 0
M  V30 9267 C 863.382 1.73659 0.722783 0
M  V30 9268 O 862.74 1.02429 1.49593 0
M  V30 9269 C 862.788 3.45377 -1.03667 0
M  V30 9270 O 861.892 4.12153 -0.142661 0
M  V30 9271 H 861.233 0.609338 -0.263824 0
M  V30 9272 H 863.763 1.54008 -1.34695 0
M  V30 9273 H 863.773 3.95954 -0.984086 0
M  V30 9274 H 862.448 3.6018 -2.0795 0
M  V30 9275 H 861.025 3.72048 -0.251888 0
M  V30 9276 N 863.21 0.781244 1.36873 0
M  V30 9277 C 864.16 0.147313 2.27524 0
M  V30 9278 C 865.144 -0.663928 1.46563 0
M  V30 9279 O 866.336 -0.525343 1.69024 0
M  V30 9280 C 863.465 -0.723511 3.35589 0
M  V30 9281 C 862.551 0.0960763 4.23991 0
M  V30 9282 N 862.942 1.14649 4.92635 0
M  V30 9283 C 861.24 -0.126397 4.45821 0
M  V30 9284 C 861.941 1.64474 5.57964 0
M  V30 9285 N 860.917 0.955316 5.3514 0
M  V30 9286 H 864.719 0.951406 2.78075 0
M  V30 9287 H 862.233 0.619913 1.50103 0
M  V30 9288 H 864.23 -1.19351 3.99451 0
M  V30 9289 H 862.89 -1.52624 2.86594 0
M  V30 9290 H 863.901 1.5288 4.94821 0
M  V30 9291 H 860.578 -0.900284 4.07678 0
M  V30 9292 H 861.968 2.52124 6.22803 0
M  V30 9293 N 864.689 -1.48329 0.532571 0
M  V30 9294 C 865.935 -2.028 -0.000583219 0
M  V30 9295 C 866.268 -1.40858 -1.33688 0
M  V30 9296 O 865.543 -0.555261 -1.86406 0
M  V30 9297 C 865.826 -3.59901 -0.119846 0
M  V30 9298 C 865.679 -4.32318 1.2418 0
M  V30 9299 C 866.998 -4.31904 -0.845372 0
M  V30 9300 H 864.117 -0.736999 0.00126205 0
M  V30 9301 H 866.759 -1.77024 0.690102 0
M  V30 9302 H 864.909 -3.81993 -0.708092 0
M  V30 9303 H 866.581 -4.21637 1.87136 0
M  V30 9304 H 864.824 -3.93635 1.82301 0
M  V30 9305 H 865.495 -5.40697 1.11132 0
M  V30 9306 H 867.971 -4.14658 -0.346159 0
M  V30 9307 H 866.847 -5.41509 -0.897723 0
M  V30 9308 H 867.108 -3.99369 -1.89622 0
M  V30 9309 N 866.167 -0.267825 -1.55308 0
M  V30 9310 C 867.444 0.402449 -1.91415 0
M  V30 9311 C 867.824 1.7428 -1.1912 0
M  V30 9312 O 867.172 2.2631 -0.315609 0
M  V30 9313 C 867.382 0.549926 -3.4464 0
M  V30 9314 C 868.73 0.836188 -4.16285 0
M  V30 9315 O 869.754 0.635009 -3.50494 0
M  V30 9316 O 868.613 1.22051 -5.32697 0
M  V30 9317 H 865.707 0.219177 -0.797427 0
M  V30 9318 H 868.253 -0.313439 -1.6678 0
M  V30 9319 H 867.025 -0.393641 -3.89315 0
M  V30 9320 H 866.648 1.31556 -3.75205 0
M  V30 9321 N 867.645 1.57599 0.00500368 0
M  V30 9322 C 868.891 1.90631 0.691919 0
M  V30 9323 C 869.224 0.868443 1.737 0
M  V30 9324 O 868.499 -0.113482 1.94169 0
M  V30 9325 C 868.782 3.34255 1.33961 0
M  V30 9326 C 868.635 4.48755 0.306413 0
M  V30 9327 C 869.954 3.77211 2.26715 0
M  V30 9328 H 867.073 0.693279 0.250066 0
M  V30 9329 H 869.715 1.89946 -0.0452634 0
M  V30 9330 H 867.865 3.3497 1.96793 0
M  V30 9331 H 869.537 4.60176 -0.321841 0
M  V30 9332 H 867.78 4.32203 -0.371852 0
M  V30 9333 H 868.451 5.46193 0.798554 0
M  V30 9334 H 870.927 3.78017 1.73904 0
M  V30 9335 H 869.803 4.78466 2.69002 0
M  V30 9336 H 870.064 3.10801 3.14413 0
M  V30 9337 N 869.123 -0.277682 1.55134 0
M  V30 9338 C 870.056 -1.3685 1.82612 0
M  V30 9339 C 871.034 -1.47752 0.678833 0
M  V30 9340 O 872.218 -1.6445 0.921329 0
M  V30 9341 C 869.345 -2.74539 1.98359 0
M  V30 9342 C 868.391 -2.80945 3.20893 0
M  V30 9343 S 869.224 -2.40666 4.78373 0
M  V30 9344 C 870.38 -3.80338 4.97085 0
M  V30 9345 H 870.613 -1.13338 2.74849 0
M  V30 9346 H 868.146 -0.477063 1.46845 0
M  V30 9347 H 870.104 -3.53834 2.08115 0
M  V30 9348 H 868.765 -2.95306 1.07019 0
M  V30 9349 H 867.958 -3.81992 3.28783 0
M  V30 9350 H 867.56 -2.09667 3.09703 0
M  V30 9351 H 869.852 -4.75565 4.8254 0
M  V30 9352 H 870.795 -3.77403 5.99143 0
M  V30 9353 H 871.203 -3.71424 4.25094 0
M  V30 9354 N 870.601 -1.47988 -0.541979 0
M  V30 9355 C 871.878 -1.45878 -1.30303 0
M  V30 9356 C 872.258 -0.163931 -2.10463 0
M  V30 9357 O 871.606 0.854479 -2.11922 0
M  V30 9358 C 871.816 -2.71359 -2.19466 0
M  V30 9359 C 873.164 -3.19199 -2.79995 0
M  V30 9360 O 874.188 -2.72193 -2.2976 0
M  V30 9361 O 873.047 -4.00961 -3.71339 0
M  V30 9362 H 870.141 -0.582043 -0.587498 0
M  V30 9363 H 872.687 -1.60207 -0.559623 0
M  V30 9364 H 871.459 -3.57122 -1.59936 0
M  V30 9365 H 871.082 -2.59692 -3.01075 0
M  V30 9366 N 872.079 0.78992 -1.36375 0
M  V30 9367 C 873.319 1.56098 -1.31958 0
M  V30 9368 C 873.683 1.91738 0.100197 0
M  V30 9369 O 874.884 2.67451 0.268913 0
M  V30 9370 C 873.155 2.80406 -2.21601 0
M  V30 9371 S 874.714 3.70655 -2.34863 0
M  V30 9372 H 871.532 0.534632 -0.46871 0
M  V30 9373 H 874.134 0.930417 -1.7194 0
M  V30 9374 H 872.838 2.52273 -3.23707 0
M  V30 9375 H 872.369 3.48436 -1.82637 0
M  V30 9376 H 874.384 4.71509 -1.54575 0
M  V30 9377 N 873.557 1.20646 1.01402 0
M  V30 9378 C 874.834 0.927176 1.72229 0
M  V30 9379 C 875.214 -0.563382 2.03443 0
M  V30 9380 O 874.562 -1.52576 1.70096 0
M  V30 9381 C 874.772 1.80285 2.98828 0
M  V30 9382 C 876.12 2.04624 3.72041 0
M  V30 9383 O 877.144 1.77559 3.0879 0
M  V30 9384 O 876.003 2.50347 4.85787 0
M  V30 9385 H 873.097 0.346891 0.75073 0
M  V30 9386 H 875.643 1.31532 1.07227 0
M  V30 9387 H 874.415 2.81204 2.72102 0
M  V30 9388 H 874.038 1.41495 3.71571 0
M  V30 9389 N 875.035 -1.20752 1.01276 0
M  V30 9390 C 875.982 -2.234 0.579732 0
M  V30 9391 C 876.952 -1.61256 -0.398206 0
M  V30 9392 O 878.137 -1.8845 -0.29851 0
M  V30 9393 C 875.277 -3.45008 -0.0797006 0
M  V30 9394 C 874.39 -4.21597 0.942343 0
M  V30 9395 C 873.525 -5.30591 0.254364 0
M  V30 9396 C 872.564 -5.98919 1.26343 0
M  V30 9397 N 871.701 -6.99511 0.602384 0
M  V30 9398 H 876.541 -2.59801 1.45971 0
M  V30 9399 H 874.078 -1.27663 0.730787 0
M  V30 9400 H 876.036 -4.1444 -0.479125 0
M  V30 9401 H 874.666 -3.09312 -0.923354 0
M  V30 9402 H 873.718 -3.51268 1.45996 0
M  V30 9403 H 875.03 -4.68576 1.70992 0
M  V30 9404 H 874.184 -6.06368 -0.200763 0
M  V30 9405 H 872.923 -4.84639 -0.545553 0
M  V30 9406 H 871.928 -5.21906 1.72898 0
M  V30 9407 H 873.153 -6.46957 2.06456 0
M  V30 9408 H 871.099 -6.55759 -0.177734 0
M  V30 9409 H 871.016 -7.44597 1.30809 0
M  V30 9410 H 872.284 -7.79313 0.17072 0
M  V30 9411 N 876.513 -0.788492 -1.36457 0
M  V30 9412 C 877.741 -0.372365 -2.03522 0
M  V30 9413 C 878.156 1.01093 -1.59454 0
M  V30 9414 O 877.513 1.64824 -0.783535 0
M  V30 9415 C 877.564 -0.425435 -3.58988 0
M  V30 9416 O 877.285 -1.75418 -4.01448 0
M  V30 9417 C 878.786 0.000180167 -4.433 0
M  V30 9418 H 876.006 -0.1536 -0.653183 0
M  V30 9419 H 878.55 -1.06708 -1.74452 0
M  V30 9420 H 876.705 0.220856 -3.8677 0
M  V30 9421 H 877.119 -1.70437 -4.96036 0
M  V30 9422 H 878.593 -0.0880919 -5.5193 0
M  V30 9423 H 879.07 1.05269 -4.26398 0
M  V30 9424 H 879.676 -0.618563 -4.20778 0
M  V30 9425 N 877.991 1.48044 -0.54043 0
M  V30 9426 C 878.923 2.2779 0.253854 0
M  V30 9427 C 879.936 1.35999 0.894883 0
M  V30 9428 O 881.125 1.60963 0.771563 0
M  V30 9429 C 878.225 3.09724 1.37566 0
M  V30 9430 C 877.398 4.29364 0.83459 0
M  V30 9431 C 876.457 4.93026 1.83881 0
M  V30 9432 O 875.483 5.51927 1.39159 0
M  V30 9433 N 876.685 4.86207 3.17149 0
M  V30 9434 H 879.45 2.96597 -0.430125 0
M  V30 9435 H 877.011 1.57487 -0.375423 0
M  V30 9436 H 879.003 3.49181 2.04584 0
M  V30 9437 H 877.573 2.43269 1.96314 0
M  V30 9438 H 876.793 3.94198 -0.0118878 0
M  V30 9439 H 878.081 5.06787 0.452155 0
M  V30 9440 H 877.479 4.39523 3.56141 0
M  V30 9441 H 876.036 5.29733 3.79771 0
M  V30 9442 N 879.47 0.276058 1.55163 0
M  V30 9443 C 880.4 -0.604633 2.25536 0
M  V30 9444 C 881.381 -1.15813 1.24585 0
M  V30 9445 O 882.566 -1.1921 1.53306 0
M  V30 9446 C 879.696 -1.78836 2.97716 0
M  V30 9447 C 878.65 -1.36635 4.05604 0
M  V30 9448 C 877.976 -2.63325 4.65364 0
M  V30 9449 C 879.276 -0.515858 5.19746 0
M  V30 9450 H 880.97 -0.0177483 2.99395 0
M  V30 9451 H 878.516 -0.00709627 1.43998 0
M  V30 9452 H 880.469 -2.41036 3.45658 0
M  V30 9453 H 879.193 -2.40109 2.21394 0
M  V30 9454 H 877.852 -0.767541 3.58475 0
M  V30 9455 H 877.5 -3.22858 3.85709 0
M  V30 9456 H 877.2 -2.358 5.38212 0
M  V30 9457 H 878.724 -3.26372 5.16056 0
M  V30 9458 H 880.138 -1.04289 5.63735 0
M  V30 9459 H 878.535 -0.335449 5.99162 0
M  V30 9460 H 879.605 0.465137 4.82664 0
M  V30 9461 N 880.948 -1.576 0.00335426 0
M  V30 9462 C 881.896 -2.09759 -1.00517 0
M  V30 9463 C 882.89 -1.01833 -1.35375 0
M  V30 9464 O 884.096 -1.20294 -1.339 0
M  V30 9465 H 880.471 -0.669821 -0.341825 0
M  V30 9466 H 882.442 -2.93478 -0.539718 0
M  V30 9467 C 881.191 -2.6189 -2.28711 0
M  V30 9468 H 880.514 -3.44571 -2.02758 0
M  V30 9469 H 881.954 -3.02061 -2.97548 0
M  V30 9470 C 880.413 -1.53455 -2.99922 0
M  V30 9471 O 880.943 -0.919402 -3.91037 0
M  V30 9472 N 879.149 -1.2612 -2.61806 0
M  V30 9473 H 878.696 -1.76329 -1.87792 0
M  V30 9474 H 878.654 -0.537872 -3.09765 0
M  V30 9475 N 882.426 0.269451 -1.5528 0
M  V30 9476 C 883.356 1.33729 -1.91413 0
M  V30 9477 C 884.337 1.51348 -0.776391 0
M  V30 9478 O 885.522 1.64332 -1.03482 0
M  V30 9479 C 882.652 2.69618 -2.18914 0
M  V30 9480 C 881.606 2.66725 -3.34726 0
M  V30 9481 C 880.932 4.06199 -3.47716 0
M  V30 9482 C 882.232 2.25684 -4.71025 0
M  V30 9483 H 883.926 1.03736 -2.80854 0
M  V30 9484 H 881.472 0.497579 -1.3513 0
M  V30 9485 H 883.425 3.44436 -2.42779 0
M  V30 9486 H 882.149 3.01201 -1.26275 0
M  V30 9487 H 880.808 1.94365 -3.10834 0
M  V30 9488 H 880.456 4.3501 -2.52537 0
M  V30 9489 H 880.156 4.05157 -4.25583 0
M  V30 9490 H 881.68 4.8275 -3.73877 0
M  V30 9491 H 883.094 2.90225 -4.94411 0
M  V30 9492 H 881.491 2.35797 -5.51833 0
M  V30 9493 H 882.561 1.20819 -4.69607 0
M  V30 9494 N 883.904 1.48273 0.534124 0
M  V30 9495 C 885.132 1.59734 1.31501 0
M  V30 9496 C 885.547 0.256047 1.87056 0
M  V30 9497 O 884.904 -0.754086 1.66192 0
M  V30 9498 C 884.955 2.64072 2.46877 0
M  V30 9499 O 884.676 3.92995 1.93613 0
M  V30 9500 C 886.177 2.85933 3.38758 0
M  V30 9501 H 883.397 0.538703 0.40005 0
M  V30 9502 H 885.941 1.9407 0.644762 0
M  V30 9503 H 884.096 2.32606 3.09795 0
M  V30 9504 H 884.51 4.50203 2.69106 0
M  V30 9505 H 885.984 3.62749 4.16073 0
M  V30 9506 H 886.461 1.94603 3.93734 0
M  V30 9507 H 887.067 3.18687 2.81636 0
M  V30 9508 N 885.382 -0.782676 1.36792 0
M  V30 9509 C 886.628 -1.54311 1.3159 0
M  V30 9510 C 886.961 -1.93928 -0.102696 0
M  V30 9511 O 886.236 -1.63233 -1.05761 0
M  V30 9512 C 886.519 -2.81561 2.24489 0
M  V30 9513 C 886.372 -2.48268 3.75078 0
M  V30 9514 C 887.691 -3.83428 2.16034 0
M  V30 9515 H 884.81 -0.559828 0.479335 0
M  V30 9516 H 887.452 -0.898717 1.67401 0
M  V30 9517 H 885.602 -3.36549 1.9408 0
M  V30 9518 H 887.274 -1.99279 4.16036 0
M  V30 9519 H 885.517 -1.81116 3.94182 0
M  V30 9520 H 886.188 -3.39183 4.35499 0
M  V30 9521 H 888.664 -3.37905 2.42815 0
M  V30 9522 H 887.54 -4.70204 2.83194 0
M  V30 9523 H 887.801 -4.26887 1.14976 0
M  V30 9524 N 886.86 -1.21182 -1.00761 0
M  V30 9525 C 887.77 -0.984691 -2.12934 0
M  V30 9526 C 888.786 0.0623657 -1.73888 0
M  V30 9527 O 889.962 -0.1271 -2.00999 0
M  V30 9528 C 887.027 -0.549447 -3.42319 0
M  V30 9529 C 886.088 -1.66841 -3.95553 0
M  V30 9530 C 885.321 -1.25384 -5.18763 0
M  V30 9531 O 885.544 -0.126333 -5.7026 0
M  V30 9532 O 884.478 -2.06475 -5.65377 0
M  V30 9533 H 888.304 -1.92413 -2.3497 0
M  V30 9534 H 885.889 -0.99647 -1.11314 0
M  V30 9535 H 887.771 -0.316384 -4.20211 0
M  V30 9536 H 886.446 0.361304 -3.21677 0
M  V30 9537 H 885.353 -1.95585 -3.189 0
M  V30 9538 H 886.686 -2.55649 -4.206 0
M  V30 9539 N 888.338 1.20213 -1.01915 0
M  V30 9540 C 889.268 2.25336 -0.612023 0
M  V30 9541 C 890.249 1.65933 0.374186 0
M  V30 9542 O 891.434 1.92464 0.259053 0
M  V30 9543 C 888.564 3.47267 0.047904 0
M  V30 9544 C 887.518 4.1928 -0.859557 0
M  V30 9545 C 886.844 5.3466 -0.0652655 0
M  V30 9546 C 888.144 4.75143 -2.1688 0
M  V30 9547 H 889.838 2.59645 -1.49079 0
M  V30 9548 H 887.384 1.24808 -0.718263 0
M  V30 9549 H 889.337 4.19991 0.344294 0
M  V30 9550 H 888.061 3.12129 0.961404 0
M  V30 9551 H 886.72 3.48425 -1.13999 0
M  V30 9552 H 886.368 4.95767 0.849964 0
M  V30 9553 H 886.068 5.83772 -0.669618 0
M  V30 9554 H 887.592 6.10187 0.224612 0
M  V30 9555 H 889.006 5.39672 -1.9346 0
M  V30 9556 H 887.403 5.34702 -2.72422 0
M  V30 9557 H 888.473 3.93744 -2.83008 0
M  V30 9558 N 889.816 0.795718 1.36037 0
M  V30 9559 C 891.044 0.383153 2.03321 0
M  V30 9560 C 891.459 -1.00246 1.59988 0
M  V30 9561 O 890.816 -1.64406 0.792265 0
M  V30 9562 C 890.867 0.444467 3.58757 0
M  V30 9563 O 890.588 1.77544 4.00512 0
M  V30 9564 C 892.089 0.0233291 4.43294 0
M  V30 9565 H 889.309 0.157061 0.652359 0
M  V30 9566 H 891.853 1.07632 1.73884 0
M  V30 9567 H 890.008 -0.200341 3.86882 0
M  V30 9568 H 890.422 1.73065 4.95125 0
M  V30 9569 H 891.896 0.117361 5.51875 0
M  V30 9570 H 892.373 -1.03007 4.2695 0
M  V30 9571 H 892.979 0.64087 4.20444 0
M  V30 9572 N 891.294 -1.47756 0.548274 0
M  V30 9573 C 892.522 -2.06884 0.0254873 0
M  V30 9574 C 892.937 -1.40225 -1.26422 0
M  V30 9575 O 892.294 -0.495776 -1.75637 0
M  V30 9576 C 892.345 -3.61036 -0.183134 0
M  V30 9577 O 892.066 -4.25195 1.05549 0
M  V30 9578 C 893.567 -4.37008 -0.744222 0
M  V30 9579 H 890.787 -0.669697 0.041789 0
M  V30 9580 H 893.331 -1.89888 0.759138 0
M  V30 9581 H 891.486 -3.77576 -0.866886 0
M  V30 9582 H 891.9 -5.17606 0.847629 0
M  V30 9583 H 893.374 -5.45579 -0.839529 0
M  V30 9584 H 893.851 -4.0268 -1.75344 0
M  V30 9585 H 894.457 -4.25191 -0.0964542 0
M  V30 9586 N 892.772 -0.284283 -1.55015 0
M  V30 9587 C 893.735 0.586182 -2.21577 0
M  V30 9588 C 894.735 1.07427 -1.1965 0
M  V30 9589 O 895.925 0.972977 -1.44495 0
M  V30 9590 C 893.057 1.80973 -2.88897 0
M  V30 9591 H 894.25 0.00487253 -2.999 0
M  V30 9592 H 891.803 -0.0349696 -1.56261 0
M  V30 9593 H 892.538 2.43131 -2.14611 0
M  V30 9594 H 892.323 1.46757 -3.636 0
M  V30 9595 H 893.813 2.42853 -3.39724 0
M  V30 9596 N 894.251 1.57596 -0.0117121 0
M  V30 9597 C 895.161 2.12596 0.991964 0
M  V30 9598 C 896.177 1.07399 1.36899 0
M  V30 9599 O 897.353 1.39365 1.45394 0
M  V30 9600 C 894.418 2.62796 2.2614 0
M  V30 9601 C 893.479 3.8264 1.94642 0
M  V30 9602 C 892.712 4.30435 3.15533 0
M  V30 9603 O 892.935 3.77495 4.27614 0
M  V30 9604 O 891.869 5.22469 2.98847 0
M  V30 9605 H 895.695 2.98597 0.554371 0
M  V30 9606 H 893.28 1.47947 0.207839 0
M  V30 9607 H 895.162 2.9523 3.00695 0
M  V30 9608 H 893.837 1.79886 2.69114 0
M  V30 9609 H 892.744 3.5516 1.17526 0
M  V30 9610 H 894.077 4.66658 1.56496 0
M  V30 9611 N 895.729 -0.261212 1.5542 0
M  V30 9612 C 896.975 -0.992699 1.76843 0
M  V30 9613 C 897.308 -1.8551 0.574428 0
M  V30 9614 O 896.583 -1.89739 -0.427713 0
M  V30 9615 C 896.866 -1.86532 3.08022 0
M  V30 9616 C 896.719 -1.03206 4.378 0
M  V30 9617 C 898.038 -2.85036 3.35324 0
M  V30 9618 H 895.157 -0.359473 0.643388 0
M  V30 9619 H 897.799 -0.264214 1.88154 0
M  V30 9620 H 895.949 -2.48644 2.9851 0
M  V30 9621 H 897.621 -0.430743 4.59285 0
M  V30 9622 H 895.864 -0.335911 4.32497 0
M  V30 9623 H 896.535 -1.6761 5.25938 0
M  V30 9624 H 899.011 -2.3306 3.44706 0
M  V30 9625 H 897.887 -3.43226 4.28354 0
M  V30 9626 H 898.148 -3.60768 2.55537 0
M  V30 9627 N 897.207 -1.48554 -0.526253 0
M  V30 9628 C 898.456 -1.56014 -1.27837 0
M  V30 9629 C 898.769 -0.240643 -1.94114 0
M  V30 9630 O 899.975 -0.193525 -2.70809 0
M  V30 9631 C 898.431 -2.75161 -2.31979 0
M  V30 9632 C 898.039 -4.13768 -1.71755 0
M  V30 9633 C 899.783 -2.91936 -3.08178 0
M  V30 9634 C 897.69 -5.24171 -2.7386 0
M  V30 9635 H 896.62 -0.58082 -0.480795 0
M  V30 9636 H 899.271 -1.74895 -0.555335 0
M  V30 9637 H 897.653 -2.49722 -3.07335 0
M  V30 9638 H 898.827 -4.49241 -1.02563 0
M  V30 9639 H 897.142 -4.02141 -1.08036 0
M  V30 9640 H 899.739 -3.71586 -3.84484 0
M  V30 9641 H 900.082 -2.01533 -3.64267 0
M  V30 9642 H 900.615 -3.17294 -2.39937 0
M  V30 9643 H 897.354 -6.16552 -2.22586 0
M  V30 9644 H 896.874 -4.93181 -3.41368 0
M  V30 9645 H 898.553 -5.52442 -3.36774 0
M  V30 9646 N 898.685 0.775411 -1.37205 0
M  V30 9647 C 900.096 1.35147 -1.28811 0
M  V30 9648 C 900.447 1.96089 0.0659168 0
M  V30 9649 O 899.572 1.93558 0.967684 0
M  V30 9650 C 900.167 2.45715 -2.33258 0
M  V30 9651 C 898.726 2.99099 -2.2851 0
M  V30 9652 C 897.873 1.72286 -2.17285 0
M  V30 9653 H 900.824 0.575954 -1.4788 0
M  V30 9654 H 900.845 3.251 -1.97712 0
M  V30 9655 H 900.357 2.01331 -3.31795 0
M  V30 9656 H 898.458 3.47868 -1.33485 0
M  V30 9657 H 898.571 3.54962 -3.21774 0
M  V30 9658 H 896.935 1.95068 -1.6377 0
M  V30 9659 H 897.718 1.3001 -3.1773 0
M  V30 9660 N 900.163 1.21714 1.00117 0
M  V30 9661 C 901.411 1.03465 1.73607 0
M  V30 9662 C 901.732 -0.432295 1.90148 0
M  V30 9663 O 901.002 -1.31157 1.45515 0
M  V30 9664 H 899.582 0.379857 0.643209 0
M  V30 9665 H 902.244 1.53088 1.20624 0
M  V30 9666 H 901.34 1.50574 2.73375 0
M  V30 9667 N 901.641 -1.19671 1.02551 0
M  V30 9668 C 902.866 -1.93774 0.739363 0
M  V30 9669 C 903.291 -1.74787 -0.695064 0
M  V30 9670 O 902.649 -1.04796 -1.47944 0
M  V30 9671 C 902.697 -3.43684 1.09149 0
M  V30 9672 O 901.801 -4.11874 0.208213 0
M  V30 9673 H 901.142 -0.605064 0.273484 0
M  V30 9674 H 903.672 -1.51846 1.37128 0
M  V30 9675 H 903.682 -3.94339 1.04695 0
M  V30 9676 H 902.357 -3.56826 2.13654 0
M  V30 9677 H 900.934 -3.716 0.311045 0
M  V30 9678 N 903.119 -0.802921 -1.35613 0
M  V30 9679 C 904.365 -0.382141 -1.99167 0
M  V30 9680 C 904.698 1.04704 -1.63556 0
M  V30 9681 O 903.973 1.72578 -0.89706 0
M  V30 9682 C 904.256 -0.561493 -3.55695 0
M  V30 9683 C 904.109 -2.03534 -4.01116 0
M  V30 9684 C 905.428 0.0151135 -4.40097 0
M  V30 9685 H 902.547 -0.140322 -0.723518 0
M  V30 9686 H 905.189 -1.01177 -1.6082 0
M  V30 9687 H 903.339 -0.0255083 -3.88492 0
M  V30 9688 H 905.011 -2.63343 -3.78746 0
M  V30 9689 H 903.254 -2.5331 -3.52159 0
M  V30 9690 H 903.925 -2.11173 -5.1001 0
M  V30 9691 H 906.401 -0.442582 -4.1374 0
M  V30 9692 H 905.277 -0.140316 -5.48721 0
M  V30 9693 H 905.538 1.10848 -4.27978 0
M  V30 9694 N 904.597 1.47463 -0.556102 0
M  V30 9695 C 905.843 2.03361 -0.039909 0
M  V30 9696 C 906.198 1.42292 1.29502 0
M  V30 9697 O 905.491 0.568813 1.82962 0
M  V30 9698 C 905.685 3.57224 0.112126 0
M  V30 9699 C 905.514 4.33213 -1.20652 0
M  V30 9700 C 904.284 4.73153 -1.77352 0
M  V30 9701 C 906.482 4.68415 -2.12348 0
M  V30 9702 N 904.464 5.33781 -3.03233 0
M  V30 9703 C 905.835 5.29334 -3.22808 0
M  V30 9704 C 907.89 4.50344 -2.12356 0
M  V30 9705 C 906.593 5.7409 -4.33374 0
M  V30 9706 C 908.619 4.96098 -3.21933 0
M  V30 9707 C 907.981 5.57065 -4.31112 0
M  V30 9708 H 904.08 0.779939 -0.0567407 0
M  V30 9709 H 906.664 1.79959 -0.743147 0
M  V30 9710 H 904.835 3.80395 0.784485 0
M  V30 9711 H 906.567 3.99762 0.630285 0
M  V30 9712 H 903.322 4.55074 -1.31165 0
M  V30 9713 H 903.746 5.6864 -3.67393 0
M  V30 9714 H 908.388 4.02566 -1.29229 0
M  V30 9715 H 906.106 6.2086 -5.17261 0
M  V30 9716 H 909.692 4.83887 -3.23024 0
M  V30 9717 H 908.572 5.91824 -5.14504 0
M  V30 9718 N 906.075 0.2925 1.54862 0
M  V30 9719 C 907.023 -0.603186 2.24643 0
M  V30 9720 C 908.017 -1.1439 1.24946 0
M  V30 9721 O 909.223 -1.09552 1.42823 0
M  V30 9722 H 905.598 -0.213105 0.721173 0
M  V30 9723 H 907.569 0.00799278 2.98399 0
M  V30 9724 C 906.318 -1.76769 2.99413 0
M  V30 9725 H 905.641 -1.36084 3.75927 0
M  V30 9726 H 907.081 -2.37066 3.51533 0
M  V30 9727 C 905.54 -2.66669 2.05886 0
M  V30 9728 O 906.07 -3.67525 1.62136 0
M  V30 9729 N 904.276 -2.34216 1.7202 0
M  V30 9730 H 903.823 -1.52246 2.07795 0
M  V30 9731 H 903.781 -2.94635 1.09717 0
M  V30 9732 N 907.553 -1.57587 0.0200696 0
M  V30 9733 C 908.483 -2.12702 -0.963333 0
M  V30 9734 C 909.464 -1.04094 -1.34531 0
M  V30 9735 O 910.649 -1.31881 -1.42552 0
M  V30 9736 C 907.779 -2.64673 -2.24868 0
M  V30 9737 C 906.733 -3.77987 -2.00772 0
M  V30 9738 C 906.059 -4.16351 -3.35494 0
M  V30 9739 C 907.359 -5.0444 -1.35416 0
M  V30 9740 H 909.053 -2.95121 -0.504363 0
M  V30 9741 H 906.599 -1.41966 -0.24116 0
M  V30 9742 H 908.552 -3.01862 -2.94036 0
M  V30 9743 H 907.276 -1.79403 -2.72914 0
M  V30 9744 H 905.935 -3.41223 -1.34025 0
M  V30 9745 H 905.583 -3.28075 -3.81282 0
M  V30 9746 H 905.283 -4.92705 -3.20181 0
M  V30 9747 H 906.807 -4.56115 -4.05945 0
M  V30 9748 H 908.221 -5.39273 -1.94571 0
M  V30 9749 H 906.618 -5.85732 -1.30529 0
M  V30 9750 H 907.688 -4.83803 -0.325923 0
M  V30 9751 N 909.032 0.252966 -1.55557 0
M  V30 9752 C 910.28 0.979912 -1.76754 0
M  V30 9753 C 910.601 1.86083 -0.582944 0
M  V30 9754 O 909.871 1.91742 0.401497 0
M  V30 9755 H 908.451 0.364805 -0.651864 0
M  V30 9756 H 911.113 0.272372 -1.92987 0
M  V30 9757 H 910.209 1.60518 -2.67657 0
M  V30 9758 N 910.51 1.48831 0.518367 0
M  V30 9759 C 911.457 1.64216 1.62178 0
M  V30 9760 C 912.427 0.483942 1.58894 0
M  V30 9761 O 913.612 0.708857 1.77144 0
M  V30 9762 C 910.752 1.69867 3.00399 0
M  V30 9763 C 909.865 2.96875 3.1383 0
M  V30 9764 C 909 2.93613 4.42679 0
M  V30 9765 C 908.039 4.15276 4.4968 0
M  V30 9766 N 907.176 4.10024 5.69934 0
M  V30 9767 H 912.016 2.58439 1.48368 0
M  V30 9768 H 909.553 1.28154 0.722152 0
M  V30 9769 H 911.511 1.71124 3.8049 0
M  V30 9770 H 910.141 0.791249 3.12952 0
M  V30 9771 H 909.193 3.0531 2.26914 0
M  V30 9772 H 910.505 3.86863 3.14863 0
M  V30 9773 H 909.659 2.93337 5.31073 0
M  V30 9774 H 908.398 2.01375 4.44184 0
M  V30 9775 H 907.403 4.15816 3.59691 0
M  V30 9776 H 908.628 5.08687 4.49904 0
M  V30 9777 H 906.574 3.20613 5.72314 0
M  V30 9778 H 906.491 4.93728 5.72511 0
M  V30 9779 H 907.759 4.13824 6.60583 0
M  V30 9780 N 911.988 -0.768124 1.37614 0
M  V30 9781 C 913.218 -1.555 1.36027 0
M  V30 9782 C 913.626 -1.89119 -0.0554273 0
M  V30 9783 O 912.969 -1.52203 -1.02859 0
M  V30 9784 C 913.031 -2.8906 2.13739 0
M  V30 9785 C 912.695 -2.78058 3.62674 0
M  V30 9786 C 913.692 -2.48841 4.5648 0
M  V30 9787 C 911.377 -2.95966 4.05844 0
M  V30 9788 C 913.371 -2.37665 5.91434 0
M  V30 9789 C 911.058 -2.84411 5.40882 0
M  V30 9790 C 912.056 -2.55301 6.33491 0
M  V30 9791 O 911.744 -2.43779 7.66046 0
M  V30 9792 H 911.476 -0.488263 0.467521 0
M  V30 9793 H 914.03 -0.959583 1.81607 0
M  V30 9794 H 912.26 -3.50735 1.62854 0
M  V30 9795 H 913.949 -3.5048 2.04741 0
M  V30 9796 H 914.715 -2.34687 4.24437 0
M  V30 9797 H 910.594 -3.17625 3.34119 0
M  V30 9798 H 914.138 -2.14865 6.63686 0
M  V30 9799 H 910.035 -2.98134 5.72527 0
M  V30 9800 H 910.803 -2.59101 7.76408 0
M  V30 9801 N 913.466 -1.22244 -0.994698 0
M  V30 9802 C 914.712 -1.04746 -1.73655 0
M  V30 9803 C 915.045 0.41668 -1.89677 0
M  V30 9804 O 914.32 1.30897 -1.43862 0
M  V30 9805 C 914.603 -1.75716 -3.14318 0
M  V30 9806 C 914.456 -3.29714 -3.05955 0
M  V30 9807 C 915.775 -1.50809 -4.13455 0
M  V30 9808 H 912.894 -0.381921 -0.630322 0
M  V30 9809 H 915.536 -1.50559 -1.15897 0
M  V30 9810 H 913.686 -1.3677 -3.63629 0
M  V30 9811 H 915.358 -3.78093 -2.64279 0
M  V30 9812 H 913.601 -3.59484 -2.42804 0
M  V30 9813 H 914.272 -3.74547 -4.05485 0
M  V30 9814 H 916.748 -1.84636 -3.72892 0
M  V30 9815 H 915.624 -2.02964 -5.09997 0
M  V30 9816 H 915.885 -0.440292 -4.39902 0
M  V30 9817 N 914.944 1.19125 -1.03184 0
M  V30 9818 C 916.184 1.90582 -0.738785 0
M  V30 9819 C 916.548 1.78004 0.719627 0
M  V30 9820 O 917.749 2.44084 1.12589 0
M  V30 9821 C 916.02 3.37319 -1.18114 0
M  V30 9822 S 917.579 4.26962 -1.01238 0
M  V30 9823 H 914.397 0.6582 -0.268875 0
M  V30 9824 H 916.999 1.43999 -1.32229 0
M  V30 9825 H 915.703 3.43999 -2.23814 0
M  V30 9826 H 915.234 3.88935 -0.591051 0
M  V30 9827 H 917.249 4.96143 0.0753558 0
M  V30 9828 N 916.422 0.810101 1.35185 0
M  V30 9829 C 917.671 0.388589 1.97921 0
M  V30 9830 C 917.984 -1.05079 1.64978 0
M  V30 9831 O 919.19 -1.57559 2.21105 0
M  V30 9832 C 917.646 0.643864 3.54094 0
M  V30 9833 C 917.254 2.09602 3.95943 0
M  V30 9834 C 918.998 0.287883 4.23523 0
M  V30 9835 C 916.905 2.29686 5.44976 0
M  V30 9836 H 915.835 0.141562 0.740592 0
M  V30 9837 H 918.486 0.994653 1.54204 0
M  V30 9838 H 916.868 -0.0321978 3.95987 0
M  V30 9839 H 918.042 2.81018 3.65192 0
M  V30 9840 H 916.357 2.4122 3.39414 0
M  V30 9841 H 918.954 0.415946 5.3308 0
M  V30 9842 H 919.297 -0.766305 4.09186 0
M  V30 9843 H 919.83 0.918004 3.87063 0
M  V30 9844 H 916.569 3.33563 5.64284 0
M  V30 9845 H 916.089 1.62798 5.77284 0
M  V30 9846 H 917.768 2.11411 6.11485 0
M  V30 9847 N 917.9 -1.47166 0.563914 0
M  V30 9848 C 919.316 -1.58018 0.224173 0
M  V30 9849 C 919.516 -1.56163 -1.27339 0
M  V30 9850 O 918.572 -1.4686 -2.05398 0
M  V30 9851 C 919.885 -2.88236 0.856762 0
M  V30 9852 C 921.433 -3.01833 0.82861 0
M  V30 9853 C 921.908 -4.34761 1.44039 0
M  V30 9854 N 923.399 -4.41413 1.40388 0
M  V30 9855 C 924.134 -5.42845 1.84681 0
M  V30 9856 N 923.63 -6.51052 2.3686 0
M  V30 9857 N 925.423 -5.33931 1.75711 0
M  V30 9858 H 917.574 -1.46615 1.53681 0
M  V30 9859 H 919.837 -0.698195 0.64127 0
M  V30 9860 H 919.543 -2.95349 1.90949 0
M  V30 9861 H 919.417 -3.75537 0.353766 0
M  V30 9862 H 921.804 -2.94312 -0.215451 0
M  V30 9863 H 921.885 -2.16056 1.36943 0
M  V30 9864 H 921.529 -4.43037 2.48355 0
M  V30 9865 H 921.459 -5.1928 0.874953 0
M  V30 9866 H 923.95 -3.63811 1.02227 0
M  V30 9867 H 924.263 -7.24633 2.68564 0
M  V30 9868 H 922.608 -6.51924 2.40875 0
M  V30 9869 H 925.799 -4.48295 1.34718 0
M  V30 9870 H 925.972 -6.12841 2.10547 0
M  V30 9871 N 919.378 -0.300708 -1.54705 0
M  V30 9872 C 920.789 0.191995 -1.8571 0
M  V30 9873 C 921.14 1.53447 -1.22264 0
M  V30 9874 O 920.265 2.10054 -0.520226 0
M  V30 9875 C 920.86 0.355148 -3.36933 0
M  V30 9876 C 919.419 0.792071 -3.67972 0
M  V30 9877 C 918.566 -0.099756 -2.77121 0
M  V30 9878 H 921.517 -0.521729 -1.49879 0
M  V30 9879 H 921.538 1.18977 -3.61421 0
M  V30 9880 H 921.05 -0.622075 -3.83082 0
M  V30 9881 H 919.151 1.77986 -3.27341 0
M  V30 9882 H 919.264 0.611661 -4.75179 0
M  V30 9883 H 917.628 0.420909 -2.51198 0
M  V30 9884 H 918.411 -1.07333 -3.2609 0
M  V30 9885 N 920.856 1.57574 -0.0284266 0
M  V30 9886 C 921.804 2.11332 0.971675 0
M  V30 9887 C 922.798 1.03974 1.33738 0
M  V30 9888 O 924.004 1.22409 1.31969 0
M  V30 9889 H 920.379 0.675174 0.331125 0
M  V30 9890 H 922.35 2.943 0.49296 0
M  V30 9891 C 921.099 2.65496 2.24516 0
M  V30 9892 H 920.422 3.47753 1.9725 0
M  V30 9893 H 921.862 3.06757 2.92705 0
M  V30 9894 C 920.321 1.58207 2.97443 0
M  V30 9895 O 920.851 0.981496 3.89525 0
M  V30 9896 N 919.057 1.30269 2.59766 0
M  V30 9897 H 918.604 1.79294 1.84963 0
M  V30 9898 H 918.562 0.587085 3.0887 0
M  V30 9899 N 922.334 -0.244713 1.55689 0
M  V30 9900 C 923.58 -0.969623 1.78801 0
M  V30 9901 C 923.935 -1.8288 0.597716 0
M  V30 9902 O 923.228 -1.87184 -0.408978 0
M  V30 9903 C 923.422 -1.8617 3.05083 0
M  V30 9904 C 923.251 -1.09036 4.36281 0
M  V30 9905 C 922.021 -0.794585 4.99013 0
M  V30 9906 C 924.219 -0.466883 5.12176 0
M  V30 9907 N 922.201 0.000579944 6.139 0
M  V30 9908 C 923.572 0.192755 6.197 0
M  V30 9909 C 925.627 -0.377571 4.96466 0
M  V30 9910 C 924.33 0.933132 7.13222 0
M  V30 9911 C 926.356 0.349281 5.90368 0
M  V30 9912 C 925.718 0.997549 6.97301 0
M  V30 9913 H 921.817 -0.335845 0.70621 0
M  V30 9914 H 924.401 -0.242559 1.93183 0
M  V30 9915 H 922.572 -2.56077 2.92026 0
M  V30 9916 H 924.304 -2.52234 3.16481 0
M  V30 9917 H 921.059 -1.10691 4.60483 0
M  V30 9918 H 921.483 0.38632 6.75897 0
M  V30 9919 H 926.125 -0.86443 4.13869 0
M  V30 9920 H 923.843 1.43159 7.95318 0
M  V30 9921 H 927.429 0.419082 5.80289 0
M  V30 9922 H 926.309 1.551 7.68709 0
M  V30 9923 N 923.813 -1.49104 -0.510467 0
M  V30 9924 C 925.059 -1.59322 -1.26444 0
M  V30 9925 C 925.414 -0.27219 -1.90465 0
M  V30 9926 O 924.707 0.726762 -1.77281 0
M  V30 9927 C 924.901 -2.68259 -2.36161 0
M  V30 9928 C 924.73 -4.10827 -1.82897 0
M  V30 9929 C 923.5 -4.77732 -1.64623 0
M  V30 9930 C 925.698 -4.96367 -1.34625 0
M  V30 9931 N 923.68 -6.04646 -1.06189 0
M  V30 9932 C 925.051 -6.13685 -0.882656 0
M  V30 9933 C 927.106 -4.8244 -1.2311 0
M  V30 9934 C 925.809 -7.18609 -0.315306 0
M  V30 9935 C 927.835 -5.87504 -0.677726 0
M  V30 9936 C 927.197 -7.04043 -0.224308 0
M  V30 9937 H 923.296 -0.637429 -0.453 0
M  V30 9938 H 925.88 -1.8607 -0.573237 0
M  V30 9939 H 924.051 -2.433 -3.02753 0
M  V30 9940 H 925.783 -2.68052 -3.032 0
M  V30 9941 H 922.538 -4.34377 -1.88716 0
M  V30 9942 H 922.962 -6.72383 -0.78927 0
M  V30 9943 H 927.604 -3.92663 -1.56766 0
M  V30 9944 H 925.322 -8.08093 0.0335425 0
M  V30 9945 H 928.908 -5.78785 -0.591535 0
M  V30 9946 H 927.788 -7.83952 0.197212 0
M  V30 9947 N 925.291 0.760815 -1.38019 0
M  V30 9948 C 926.702 1.33773 -1.30237 0
M  V30 9949 C 927.053 1.96148 0.0451153 0
M  V30 9950 O 926.178 1.94574 0.9471 0
M  V30 9951 C 926.773 2.43227 -2.35851 0
M  V30 9952 C 925.332 2.96659 -2.31669 0
M  V30 9953 C 924.479 1.69972 -2.191 0
M  V30 9954 H 927.43 0.560237 -1.48482 0
M  V30 9955 H 927.451 3.22985 -2.01149 0
M  V30 9956 H 926.963 1.978 -3.33911 0
M  V30 9957 H 925.064 3.46433 -1.37167 0
M  V30 9958 H 925.177 3.51529 -3.25521 0
M  V30 9959 H 923.541 1.9332 -1.65829 0
M  V30 9960 H 924.324 1.26633 -3.19091 0
M  V30 9961 N 926.769 1.22769 0.988202 0
M  V30 9962 C 927.999 1.07998 1.76125 0
M  V30 9963 C 928.407 -0.372062 1.85506 0
M  V30 9964 O 927.75 -1.26946 1.3278 0
M  V30 9965 C 927.812 1.6219 3.20834 0
M  V30 9966 C 927.476 3.1086 3.34986 0
M  V30 9967 C 928.473 4.08239 3.21927 0
M  V30 9968 C 926.158 3.50411 3.59886 0
M  V30 9969 C 928.152 5.43154 3.33561 0
M  V30 9970 C 925.839 4.85473 3.71159 0
M  V30 9971 C 926.837 5.81653 3.58006 0
M  V30 9972 O 926.525 7.14263 3.68895 0
M  V30 9973 H 926.257 0.378937 0.559806 0
M  V30 9974 H 928.811 1.62925 1.25078 0
M  V30 9975 H 927.041 1.01676 3.73094 0
M  V30 9976 H 928.73 1.43011 3.79872 0
M  V30 9977 H 929.496 3.79025 3.02597 0
M  V30 9978 H 925.375 2.76068 3.69198 0
M  V30 9979 H 928.919 6.18207 3.23211 0
M  V30 9980 H 924.816 5.14365 3.89998 0
M  V30 9981 H 925.584 7.21906 3.85739 0
M  V30 9982 N 928.247 -1.18576 1.03814 0
M  V30 9983 C 929.157 -2.25778 0.637311 0
M  V30 9984 C 930.173 -1.7074 -0.335248 0
M  V30 9985 O 931.349 -2.00494 -0.19081 0
M  V30 9986 C 928.414 -3.467 0.00386953 0
M  V30 9987 C 927.475 -4.16881 1.02511 0
M  V30 9988 C 926.708 -5.32031 0.421802 0
M  V30 9989 O 926.931 -5.65142 -0.772699 0
M  V30 9990 O 925.865 -5.90826 1.14925 0
M  V30 9991 H 929.691 -2.62323 1.53037 0
M  V30 9992 H 927.276 -1.25609 0.80887 0
M  V30 9993 H 929.158 -4.19953 -0.348873 0
M  V30 9994 H 927.833 -3.11983 -0.863047 0
M  V30 9995 H 926.74 -3.45707 1.4296 0
M  V30 9996 H 928.073 -4.55592 1.86271 0
M  V30 9997 N 929.725 -0.817259 -1.34754 0
M  V30 9998 C 930.953 -0.415451 -2.02686 0
M  V30 9999 C 931.368 0.97688 -1.61563 0
M  V30 10000 O 930.725 1.63125 -0.818321 0
M  V30 10001 C 930.776 -0.501486 -3.58005 0
M  V30 10002 O 930.497 -1.83893 -3.97637 0
M  V30 10003 C 931.998 -0.0938504 -4.43201 0
M  V30 10004 H 929.218 -0.16742 -0.649778 0
M  V30 10005 H 931.762 -1.10384 -1.7215 0
M  V30 10006 H 929.917 0.138766 -3.87151 0
M  V30 10007 H 930.331 -1.8092 -4.92309 0
M  V30 10008 H 931.805 -0.205145 -5.51619 0
M  V30 10009 H 932.282 0.962011 -4.28535 0
M  V30 10010 H 932.888 -0.707677 -4.19371 0
M  V30 10011 N 931.203 1.46865 -0.571711 0
M  V30 10012 C 932.431 2.06818 -0.0583975 0
M  V30 10013 C 932.846 1.42218 1.24175 0
M  V30 10014 O 932.203 0.523655 1.74826 0
M  V30 10015 C 932.254 3.61281 0.125673 0
M  V30 10016 O 931.975 4.23462 -1.123 0
M  V30 10017 C 933.476 4.38137 0.674604 0
M  V30 10018 H 930.696 0.668948 -0.052438 0
M  V30 10019 H 933.24 1.88656 -0.789251 0
M  V30 10020 H 931.395 3.78908 0.806707 0
M  V30 10021 H 931.809 5.16192 -0.929869 0
M  V30 10022 H 933.283 5.46845 0.752626 0
M  V30 10023 H 933.76 4.05419 1.68915 0
M  V30 10024 H 934.366 4.2529 0.0287979 0
M  V30 10025 N 932.681 0.308908 1.54543 0
M  V30 10026 C 933.927 -0.298478 2.00592 0
M  V30 10027 C 934.26 -1.52929 1.19692 0
M  V30 10028 O 933.535 -1.9254 0.27542 0
M  V30 10029 C 933.818 -0.647218 3.54236 0
M  V30 10030 C 933.671 0.593284 4.4587 0
M  V30 10031 C 934.99 -1.47064 4.14801 0
M  V30 10032 H 932.109 -0.107012 0.72919 0
M  V30 10033 H 934.751 0.422578 1.85241 0
M  V30 10034 H 932.901 -1.26153 3.67447 0
M  V30 10035 H 934.573 1.2317 4.44552 0
M  V30 10036 H 932.816 1.22501 4.16144 0
M  V30 10037 H 933.487 0.305018 5.51157 0
M  V30 10038 H 935.963 -0.951511 4.05075 0
M  V30 10039 H 934.839 -1.68343 5.22448 0
M  V30 10040 H 935.1 -2.4623 3.67183 0
M  V30 10041 N 934.159 -1.57557 0.0367827 0
M  V30 10042 C 935.405 -1.92399 -0.641133 0
M  V30 10043 C 935.738 -0.914191 -1.71336 0
M  V30 10044 O 935.013 0.0619616 -1.94401 0
M  V30 10045 C 935.296 -3.37689 -1.25052 0
M  V30 10046 C 935.149 -4.4941 -0.187326 0
M  V30 10047 C 936.468 -3.8309 -2.16634 0
M  V30 10048 H 933.587 -0.699666 -0.231597 0
M  V30 10049 H 936.229 -1.89759 0.0956083 0
M  V30 10050 H 934.379 -3.40069 -1.87843 0
M  V30 10051 H 936.051 -4.59161 0.443736 0
M  V30 10052 H 934.294 -4.31065 0.486313 0
M  V30 10053 H 934.965 -5.48119 -0.653459 0
M  V30 10054 H 937.441 -3.82494 -1.63821 0
M  V30 10055 H 936.317 -4.85429 -2.56222 0
M  V30 10056 H 936.578 -3.19028 -3.06062 0
M  V30 10057 N 935.637 0.236453 -1.55816 0
M  V30 10058 C 936.567 1.29639 -1.94206 0
M  V30 10059 C 937.548 1.49667 -0.808319 0
M  V30 10060 O 938.733 1.621 -1.06945 0
M  V30 10061 C 935.863 2.64914 -2.24584 0
M  V30 10062 C 934.817 2.59565 -3.40308 0
M  V30 10063 C 934.143 3.98732 -3.56254 0
M  V30 10064 C 935.443 2.15642 -4.75706 0
M  V30 10065 H 937.137 0.977552 -2.82992 0
M  V30 10066 H 934.683 0.468804 -1.36155 0
M  V30 10067 H 936.636 3.39209 -2.50031 0
M  V30 10068 H 935.36 2.98455 -1.32636 0
M  V30 10069 H 934.019 1.87728 -3.14887 0
M  V30 10070 H 933.667 4.29556 -2.61707 0
M  V30 10071 H 933.367 3.96039 -4.34082 0
M  V30 10072 H 934.891 4.74711 -3.84033 0
M  V30 10073 H 936.305 2.79673 -5.00456 0
M  V30 10074 H 934.702 2.24039 -5.56711 0
M  V30 10075 H 935.772 1.10831 -4.72064 0
M  V30 10076 N 937.115 1.49373 0.502552 0
M  V30 10077 C 938.078 1.65413 1.58654 0
M  V30 10078 C 939.078 0.526003 1.51953 0
M  V30 10079 O 940.268 0.792421 1.55133 0
M  V30 10080 C 937.4 1.65005 2.98306 0
M  V30 10081 H 938.593 2.62095 1.45762 0
M  V30 10082 H 936.146 1.38381 0.726672 0
M  V30 10083 H 936.881 0.699014 3.16677 0
M  V30 10084 H 936.666 2.46931 3.04578 0
M  V30 10085 H 938.156 1.79477 3.77065 0
M  V30 10086 N 938.594 -0.753485 1.38421 0
M  V30 10087 C 939.841 -1.51261 1.34634 0
M  V30 10088 C 940.169 -1.94396 -0.0635771 0
M  V30 10089 O 939.424 -1.65736 -1.04068 0
M  V30 10090 C 939.723 -2.77836 2.24816 0
M  V30 10091 C 939.389 -2.53662 3.72782 0
M  V30 10092 C 938.051 -2.46779 4.13103 0
M  V30 10093 C 940.403 -2.32548 4.66445 0
M  V30 10094 C 937.731 -2.16796 5.45176 0
M  V30 10095 C 940.083 -2.04085 5.98775 0
M  V30 10096 C 938.747 -1.95658 6.3818 0
M  V30 10097 H 938.017 -0.553503 0.492661 0
M  V30 10098 H 940.664 -0.866406 1.7078 0
M  V30 10099 H 938.969 -3.47106 1.81726 0
M  V30 10100 H 940.666 -3.35793 2.19189 0
M  V30 10101 H 937.256 -2.59891 3.40815 0
M  V30 10102 H 941.44 -2.36845 4.3614 0
M  V30 10103 H 936.696 -2.0878 5.74648 0
M  V30 10104 H 940.87 -1.86751 6.70893 0
M  V30 10105 H 938.497 -1.7219 7.40442 0
M  V30 10106 N 940.072 -1.23292 -0.981677 0
M  V30 10107 C 940.982 -1.02964 -2.10798 0
M  V30 10108 C 941.998 0.0254674 -1.73981 0
M  V30 10109 O 943.174 -0.169706 -2.00684 0
M  V30 10110 C 940.239 -0.621934 -3.41076 0
M  V30 10111 C 939.3 -1.75194 -3.91926 0
M  V30 10112 C 938.533 -1.36359 -5.15986 0
M  V30 10113 O 938.756 -0.247265 -5.69864 0
M  V30 10114 O 937.69 -2.18421 -5.60871 0
M  V30 10115 H 941.516 -1.97354 -2.30836 0
M  V30 10116 H 939.101 -1.01986 -1.09175 0
M  V30 10117 H 940.983 -0.405446 -4.19445 0
M  V30 10118 H 939.658 0.29299 -3.22371 0
M  V30 10119 H 938.565 -2.02305 -3.1468 0
M  V30 10120 H 939.898 -2.64513 -4.15083 0
M  V30 10121 N 941.55 1.18024 -1.04442 0
M  V30 10122 C 942.46 2.25436 -0.649276 0
M  V30 10123 C 943.476 1.70915 0.326189 0
M  V30 10124 O 944.652 2.00592 0.180174 0
M  V30 10125 C 941.717 3.46693 -0.0222558 0
M  V30 10126 C 940.778 4.16332 -1.0472 0
M  V30 10127 C 940.011 5.31799 -0.450011 0
M  V30 10128 O 940.234 5.65544 0.742717 0
M  V30 10129 O 939.168 5.90209 -1.18056 0
M  V30 10130 H 942.994 2.61508 -1.54426 0
M  V30 10131 H 940.579 1.25178 -0.81552 0
M  V30 10132 H 942.461 4.20132 0.326597 0
M  V30 10133 H 941.136 3.12436 0.84649 0
M  V30 10134 H 940.043 3.44944 -1.44792 0
M  V30 10135 H 941.376 4.54598 -1.88684 0
M  V30 10136 N 943.028 0.824394 1.34319 0
M  V30 10137 C 944.274 0.413779 1.98534 0
M  V30 10138 C 944.607 -1.02089 1.65201 0
M  V30 10139 O 943.882 -1.71129 0.924402 0
M  V30 10140 C 944.165 0.61801 3.54757 0
M  V30 10141 C 944.018 2.0989 3.97827 0
M  V30 10142 C 945.337 0.0549041 4.40066 0
M  V30 10143 H 942.456 0.151815 0.721194 0
M  V30 10144 H 945.098 1.03723 1.5919 0
M  V30 10145 H 943.248 0.0873107 3.88402 0
M  V30 10146 H 944.92 2.69335 3.74508 0
M  V30 10147 H 943.163 2.58881 3.48085 0
M  V30 10148 H 943.834 2.1926 5.06586 0
M  V30 10149 H 946.31 0.508348 4.12983 0
M  V30 10150 H 945.186 0.227595 5.48428 0
M  V30 10151 H 945.447 -1.04025 4.29687 0
M  V30 10152 N 944.506 -1.46559 0.579492 0
M  V30 10153 C 945.731 -2.0729 0.0674595 0
M  V30 10154 C 946.156 -1.4259 -1.22677 0
M  V30 10155 O 945.514 -0.50857 -1.74021 0
M  V30 10156 C 945.562 -3.60492 -0.0882227 0
M  V30 10157 O 944.666 -3.96172 -1.14551 0
M  V30 10158 H 944.007 -0.661159 0.0613536 0
M  V30 10159 H 946.537 -1.88247 0.801519 0
M  V30 10160 H 946.547 -4.06929 -0.295411 0
M  V30 10161 H 945.222 -4.06976 0.856943 0
M  V30 10162 H 943.799 -3.61448 -0.917033 0
M  V30 10163 N 945.984 -0.3171 -1.54377 0
M  V30 10164 C 946.916 0.58571 -2.2159 0
M  V30 10165 C 947.929 1.08495 -1.21378 0
M  V30 10166 O 949.118 0.999638 -1.47883 0
M  V30 10167 C 946.218 1.8157 -2.86156 0
M  V30 10168 C 945.391 1.45625 -4.12447 0
M  V30 10169 C 944.45 2.54308 -4.60667 0
M  V30 10170 O 943.476 2.18724 -5.25498 0
M  V30 10171 N 944.678 3.85129 -4.34345 0
M  V30 10172 H 947.443 0.0102247 -2.99698 0
M  V30 10173 H 945.004 -0.140011 -1.61293 0
M  V30 10174 H 946.996 2.53657 -3.15341 0
M  V30 10175 H 945.566 2.29919 -2.11793 0
M  V30 10176 H 944.786 0.567294 -3.90097 0
M  V30 10177 H 946.074 1.19169 -4.94648 0
M  V30 10178 H 945.472 4.16841 -3.8244 0
M  V30 10179 H 944.029 4.53466 -4.68201 0
M  V30 10180 N 947.462 1.57535 -0.0451378 0
M  V30 10181 C 948.708 1.92736 0.630921 0
M  V30 10182 C 949.041 0.923265 1.70849 0
M  V30 10183 O 948.316 -0.0516512 1.94431 0
M  V30 10184 C 948.599 3.38348 1.23259 0
M  V30 10185 C 948.452 4.49503 0.16349 0
M  V30 10186 C 949.771 3.84233 2.14599 0
M  V30 10187 H 946.89 0.700884 0.227883 0
M  V30 10188 H 949.532 1.89706 -0.10567 0
M  V30 10189 H 947.682 3.41061 1.86037 0
M  V30 10190 H 949.354 4.58919 -0.46808 0
M  V30 10191 H 947.597 4.30802 -0.509166 0
M  V30 10192 H 948.268 5.48457 0.624382 0
M  V30 10193 H 950.744 3.83358 1.6179 0
M  V30 10194 H 949.62 4.86781 2.53644 0
M  V30 10195 H 949.881 3.20646 3.04366 0
M  V30 10196 N 948.94 -0.228186 1.55939 0
M  V30 10197 C 950.186 -0.954964 1.78909 0
M  V30 10198 C 950.519 -1.8425 0.613648 0
M  V30 10199 O 949.794 -1.90604 -0.38737 0
M  V30 10200 C 950.077 -1.79957 3.1191 0
M  V30 10201 C 949.93 -0.938968 4.3989 0
M  V30 10202 C 951.249 -2.77859 3.41295 0
M  V30 10203 H 948.368 -0.345745 0.650868 0
M  V30 10204 H 951.01 -0.224244 1.88672 0
M  V30 10205 H 949.16 -2.42256 3.03717 0
M  V30 10206 H 950.832 -0.333225 4.60095 0
M  V30 10207 H 949.075 -0.244096 4.33113 0
M  V30 10208 H 949.746 -1.56416 5.29375 0
M  V30 10209 H 952.222 -2.25695 3.49572 0
M  V30 10210 H 951.098 -3.34062 4.35538 0
M  V30 10211 H 951.359 -3.55266 2.63132 0
M  V30 10212 N 950.418 -1.49637 -0.494624 0
M  V30 10213 C 951.365 -1.66776 -1.59545 0
M  V30 10214 C 952.335 -0.509159 -1.58104 0
M  V30 10215 O 953.52 -0.736949 -1.75993 0
M  V30 10216 C 950.66 -1.74624 -2.97658 0
M  V30 10217 C 949.773 -3.01831 -3.09067 0
M  V30 10218 C 948.908 -3.00619 -4.37952 0
M  V30 10219 C 947.947 -4.22378 -4.43016 0
M  V30 10220 N 947.084 -4.1904 -5.63339 0
M  V30 10221 H 951.924 -2.60767 -1.44238 0
M  V30 10222 H 949.461 -1.29286 -0.701673 0
M  V30 10223 H 951.419 -1.77156 -3.77719 0
M  V30 10224 H 950.049 -0.840936 -3.11654 0
M  V30 10225 H 949.101 -3.08881 -2.22029 0
M  V30 10226 H 950.413 -3.91823 -3.08669 0
M  V30 10227 H 949.567 -3.01749 -5.26339 0
M  V30 10228 H 948.306 -2.08416 -4.40924 0
M  V30 10229 H 947.311 -4.21485 -3.5303 0
M  V30 10230 H 948.536 -5.15781 -4.41755 0
M  V30 10231 H 946.482 -3.29677 -5.67141 0
M  V30 10232 H 946.399 -5.02774 -5.64583 0
M  V30 10233 H 947.667 -4.24281 -6.53916 0
M  V30 10234 N 951.896 0.746133 -1.38819 0
M  V30 10235 C 952.826 1.87344 -1.39372 0
M  V30 10236 C 953.807 1.68123 -0.258583 0
M  V30 10237 O 954.992 1.88606 -0.462769 0
M  V30 10238 C 952.122 3.24962 -1.22543 0
M  V30 10239 C 951.076 3.58799 -2.33339 0
M  V30 10240 C 950.402 4.95235 -2.01609 0
M  V30 10241 C 951.702 3.62911 -3.75624 0
M  V30 10242 H 953.396 1.87138 -2.33709 0
M  V30 10243 H 950.942 0.898937 -1.12495 0
M  V30 10244 H 952.895 4.03488 -1.21554 0
M  V30 10245 H 951.619 3.25667 -0.246707 0
M  V30 10246 H 950.278 2.82596 -2.33527 0
M  V30 10247 H 949.926 4.92508 -1.02202 0
M  V30 10248 H 949.626 5.18843 -2.75819 0
M  V30 10249 H 951.15 5.76131 -2.02251 0
M  V30 10250 H 952.564 4.31535 -3.77426 0
M  V30 10251 H 950.961 3.98031 -4.491 0
M  V30 10252 H 952.031 2.62967 -4.07402 0
M  V30 10253 N 953.375 1.23811 0.975125 0
M  V30 10254 C 954.621 1.07495 1.71967 0
M  V30 10255 C 954.954 -0.386451 1.90316 0
M  V30 10256 O 954.229 -1.28591 1.45927 0
M  V30 10257 C 954.512 1.80694 3.11483 0
M  V30 10258 C 954.365 3.3454 3.00671 0
M  V30 10259 C 955.684 1.57367 4.11003 0
M  V30 10260 H 952.803 0.3919 0.624166 0
M  V30 10261 H 955.445 1.52383 1.13487 0
M  V30 10262 H 953.595 1.42538 3.61407 0
M  V30 10263 H 955.267 3.8225 2.5823 0
M  V30 10264 H 953.51 3.63301 2.37054 0
M  V30 10265 H 954.181 3.80951 3.99475 0
M  V30 10266 H 956.657 1.90545 3.69908 0
M  V30 10267 H 955.533 2.11052 5.06703 0
M  V30 10268 H 955.794 0.510221 4.39146 0
M  V30 10269 N 954.853 -1.17469 1.05066 0
M  V30 10270 C 955.783 -2.23635 0.671552 0
M  V30 10271 C 956.764 -1.66867 -0.33006 0
M  V30 10272 O 957.949 -1.93084 -0.207933 0
M  V30 10273 C 955.079 -3.47272 0.0441845 0
M  V30 10274 C 954.033 -4.16854 0.97042 0
M  V30 10275 C 953.359 -5.34299 0.206998 0
M  V30 10276 C 954.659 -4.69225 2.29401 0
M  V30 10277 H 956.353 -2.55602 1.55911 0
M  V30 10278 H 953.899 -1.2286 0.751101 0
M  V30 10279 H 955.852 -4.20756 -0.23282 0
M  V30 10280 H 954.576 -3.14568 -0.878311 0
M  V30 10281 H 953.235 -3.4528 1.23197 0
M  V30 10282 H 952.883 -4.97846 -0.718222 0
M  V30 10283 H 952.583 -5.81792 0.82416 0
M  V30 10284 H 954.107 -6.10568 -0.0627525 0
M  V30 10285 H 955.521 -5.34353 2.077 0
M  V30 10286 H 953.918 -5.27291 2.86503 0
M  V30 10287 H 954.988 -3.86102 2.93348 0
M  V30 10288 N 956.331 -0.831506 -1.3388 0
M  V30 10289 C 957.747 -0.518349 -1.50948 0
M  V30 10290 C 957.947 0.955807 -1.77388 0
M  V30 10291 O 957.003 1.73993 -1.82983 0
M  V30 10292 C 958.316 -1.38531 -2.66889 0
M  V30 10293 C 959.864 -1.38332 -2.80772 0
M  V30 10294 C 960.339 -2.23497 -3.99766 0
M  V30 10295 N 961.83 -2.21167 -4.06988 0
M  V30 10296 C 962.565 -2.83805 -4.98239 0
M  V30 10297 N 962.061 -3.55468 -5.94655 0
M  V30 10298 N 963.854 -2.73314 -4.91178 0
M  V30 10299 H 956.005 -1.78588 -1.14978 0
M  V30 10300 H 958.268 -0.761508 -0.564633 0
M  V30 10301 H 957.974 -2.43255 -2.54007 0
M  V30 10302 H 957.848 -1.05611 -3.62114 0
M  V30 10303 H 960.235 -0.343832 -2.9309 0
M  V30 10304 H 960.316 -1.75256 -1.86331 0
M  V30 10305 H 959.96 -3.27501 -3.88208 0
M  V30 10306 H 959.89 -1.83919 -4.93438 0
M  V30 10307 H 962.381 -1.69046 -3.37982 0
M  V30 10308 H 962.694 -4.00487 -6.60931 0
M  V30 10309 H 961.039 -3.59575 -5.94753 0
M  V30 10310 H 964.23 -2.16897 -4.14817 0
M  V30 10311 H 964.403 -3.22416 -5.62096 0
M  V30 10312 N 957.809 1.4625 -0.587256 0
M  V30 10313 C 958.772 2.28812 0.133238 0
M  V30 10314 C 959.772 1.38645 0.814513 0
M  V30 10315 O 960.962 1.60975 0.665774 0
M  V30 10316 C 958.094 3.19147 1.19824 0
M  V30 10317 H 959.287 2.93991 -0.592386 0
M  V30 10318 H 956.84 1.52435 -0.345416 0
M  V30 10319 H 957.575 2.58725 1.95529 0
M  V30 10320 H 957.36 3.85541 0.71418 0
M  V30 10321 H 958.85 3.81278 1.70344 0
M  V30 10322 N 959.287 0.325282 1.54207 0
M  V30 10323 C 960.217 -0.532574 2.27345 0
M  V30 10324 C 961.198 -1.11791 1.28206 0
M  V30 10325 O 962.383 -1.14272 1.57021 0
M  V30 10326 C 959.513 -1.69274 3.03255 0
M  V30 10327 C 958.467 -1.23662 4.09746 0
M  V30 10328 C 957.793 -2.48386 4.73506 0
M  V30 10329 C 959.093 -0.350244 5.21124 0
M  V30 10330 H 960.787 0.0775108 2.993 0
M  V30 10331 H 958.333 0.0387193 1.43948 0
M  V30 10332 H 960.286 -2.29917 3.53152 0
M  V30 10333 H 959.01 -2.32944 2.28921 0
M  V30 10334 H 957.669 -0.653106 3.60735 0
M  V30 10335 H 957.317 -3.10424 3.95786 0
M  V30 10336 H 957.017 -2.18558 5.45441 0
M  V30 10337 H 958.541 -3.09789 5.26178 0
M  V30 10338 H 959.955 -0.863011 5.66767 0
M  V30 10339 H 958.352 -0.14466 5.99926 0
M  V30 10340 H 959.422 0.618457 4.8094 0
M  V30 10341 N 960.765 -1.57509 0.0534917 0
M  V30 10342 C 962.181 -1.56696 -0.303067 0
M  V30 10343 C 962.381 -1.06135 -1.71282 0
M  V30 10344 O 961.437 -0.71899 -2.42047 0
M  V30 10345 C 962.75 -3.00421 -0.129418 0
M  V30 10346 C 964.298 -3.12358 -0.200346 0
M  V30 10347 C 964.773 -4.57967 -0.0551971 0
M  V30 10348 N 966.264 -4.63066 -0.111398 0
M  V30 10349 C 966.999 -5.73395 -0.0232344 0
M  V30 10350 N 966.495 -6.92701 0.11741 0
M  V30 10351 N 968.288 -5.62045 -0.078984 0
M  V30 10352 H 960.439 -1.88696 0.975064 0
M  V30 10353 H 962.702 -0.869072 0.378706 0
M  V30 10354 H 962.408 -3.41456 0.842653 0
M  V30 10355 H 962.282 -3.66563 -0.889476 0
M  V30 10356 H 964.669 -2.71221 -1.16289 0
M  V30 10357 H 964.75 -2.48891 0.590506 0
M  V30 10358 H 964.394 -4.9979 0.904034 0
M  V30 10359 H 964.324 -5.19443 -0.865223 0
M  V30 10360 H 966.815 -3.77263 -0.219256 0
M  V30 10361 H 967.128 -7.72597 0.177326 0
M  V30 10362 H 965.473 -6.94833 0.152526 0
M  V30 10363 H 968.664 -4.67725 -0.187434 0
M  V30 10364 H 968.837 -6.48 -0.00681731 0
M  V30 10365 N 962.243 0.219913 -1.56058 0
M  V30 10366 C 963.52 0.968493 -1.6994 0
M  V30 10367 C 963.9 2.02358 -0.601219 0
M  V30 10368 O 963.248 2.25121 0.391534 0
M  V30 10369 C 963.458 1.57745 -3.11316 0
M  V30 10370 C 964.806 2.06908 -3.70775 0
M  V30 10371 O 965.83 1.67636 -3.14288 0
M  V30 10372 O 964.689 2.79096 -4.69859 0
M  V30 10373 H 961.783 0.452521 -0.692209 0
M  V30 10374 H 964.329 0.211566 -1.68376 0
M  V30 10375 H 963.101 0.815687 -3.82704 0
M  V30 10376 H 962.724 2.39987 -3.17005 0
M  V30 10377 N 963.721 1.49897 0.486681 0
M  V30 10378 C 964.651 1.7054 1.59494 0
M  V30 10379 C 965.632 0.554184 1.60819 0
M  V30 10380 O 966.817 0.791617 1.77333 0
M  V30 10381 C 963.947 1.78517 2.97908 0
M  V30 10382 C 962.901 2.93571 3.11449 0
M  V30 10383 C 962.227 2.86674 4.51356 0
M  V30 10384 C 963.527 4.34308 2.90127 0
M  V30 10385 H 965.221 2.63329 1.42472 0
M  V30 10386 H 962.767 1.2672 0.683969 0
M  V30 10387 H 964.72 1.91544 3.75352 0
M  V30 10388 H 963.444 0.823381 3.16051 0
M  V30 10389 H 962.103 2.80169 2.36433 0
M  V30 10390 H 961.751 1.88373 4.66395 0
M  V30 10391 H 961.451 3.63903 4.61355 0
M  V30 10392 H 962.975 3.01728 5.30841 0
M  V30 10393 H 964.389 4.48317 3.57331 0
M  V30 10394 H 962.786 5.12869 3.11585 0
M  V30 10395 H 963.856 4.47759 1.86119 0
M  V30 10396 N 965.199 -0.738761 1.39212 0
M  V30 10397 C 966.427 -1.52801 1.39497 0
M  V30 10398 C 966.842 -1.88797 -0.0114917 0
M  V30 10399 O 966.199 -1.53835 -0.981887 0
M  V30 10400 C 966.25 -2.81793 2.2644 0
M  V30 10401 O 965.971 -2.47328 3.61608 0
M  V30 10402 C 967.472 -3.75844 2.35067 0
M  V30 10403 H 964.692 -0.472322 0.476606 0
M  V30 10404 H 967.236 -0.913153 1.8298 0
M  V30 10405 H 965.391 -3.3962 1.8638 0
M  V30 10406 H 965.805 -3.30162 4.07545 0
M  V30 10407 H 967.279 -4.6326 3.00157 0
M  V30 10408 H 967.756 -4.17329 1.3687 0
M  V30 10409 H 968.362 -3.23937 2.75581 0
M  V30 10410 N 966.677 -1.24326 -0.968545 0
M  V30 10411 C 968.093 -1.00847 -1.23701 0
M  V30 10412 C 968.293 0.283235 -1.99499 0
M  V30 10413 O 967.349 0.999607 -2.31871 0
M  V30 10414 C 968.662 -2.22295 -2.02498 0
M  V30 10415 C 970.21 -2.26911 -2.15593 0
M  V30 10416 C 970.685 -3.47978 -2.97784 0
M  V30 10417 N 972.176 -3.48289 -3.05367 0
M  V30 10418 C 972.911 -4.38625 -3.69318 0
M  V30 10419 N 972.407 -5.39213 -4.34995 0
M  V30 10420 N 974.2 -4.26339 -3.66322 0
M  V30 10421 H 966.351 -2.07335 -0.461087 0
M  V30 10422 H 968.614 -0.909805 -0.26638 0
M  V30 10423 H 968.32 -3.161 -1.54188 0
M  V30 10424 H 968.194 -2.24344 -3.03232 0
M  V30 10425 H 970.581 -1.33639 -2.63106 0
M  V30 10426 H 970.662 -2.28888 -1.14209 0
M  V30 10427 H 970.306 -4.41564 -2.50965 0
M  V30 10428 H 970.236 -3.43244 -3.99364 0
M  V30 10429 H 972.727 -2.75517 -2.58648 0
M  V30 10430 H 973.04 -6.04378 -4.81608 0
M  V30 10431 H 971.385 -5.43101 -4.33667 0
M  V30 10432 H 974.576 -3.46991 -3.14189 0
M  V30 10433 H 974.749 -4.9694 -4.15878 0
M  V30 10434 N 968.156 1.1691 -1.05688 0
M  V30 10435 C 969.405 1.86629 -0.765022 0
M  V30 10436 C 969.718 1.82223 0.710918 0
M  V30 10437 O 970.924 2.47462 1.11691 0
M  V30 10438 C 969.38 3.34886 -1.3183 0
M  V30 10439 C 968.988 3.47781 -2.82404 0
M  V30 10440 C 970.732 4.099 -1.10372 0
M  V30 10441 C 968.639 4.9009 -3.31008 0
M  V30 10442 H 967.569 0.699082 -0.282491 0
M  V30 10443 H 970.22 1.31989 -1.27481 0
M  V30 10444 H 968.602 3.89094 -0.736312 0
M  V30 10445 H 969.776 3.03765 -3.46502 0
M  V30 10446 H 968.091 2.86193 -3.02461 0
M  V30 10447 H 970.688 5.14894 -1.4418 0
M  V30 10448 H 971.031 4.16279 -0.0417372 0
M  V30 10449 H 971.564 3.61913 -1.65117 0
M  V30 10450 H 968.303 4.88887 -4.36657 0
M  V30 10451 H 967.823 5.34756 -2.71655 0
M  V30 10452 H 969.502 5.58881 -3.25977 0
M  V30 10453 N 969.634 0.838594 1.33437 0
M  V30 10454 C 970.88 0.444042 1.98494 0
M  V30 10455 C 971.235 -0.985759 1.65229 0
M  V30 10456 O 970.528 -1.67972 0.921736 0
M  V30 10457 C 970.722 0.601425 3.52303 0
M  V30 10458 C 970.551 2.04497 4.00513 0
M  V30 10459 C 969.321 2.68015 4.28364 0
M  V30 10460 C 971.519 3.01367 4.16752 0
M  V30 10461 N 969.501 4.03448 4.62713 0
M  V30 10462 C 970.872 4.21745 4.54457 0
M  V30 10463 C 972.927 2.97776 3.99041 0
M  V30 10464 C 971.63 5.39009 4.76301 0
M  V30 10465 C 973.656 4.14269 4.22061 0
M  V30 10466 C 973.018 5.33402 4.60067 0
M  V30 10467 H 969.117 0.210906 0.753022 0
M  V30 10468 H 971.701 1.0866 1.61558 0
M  V30 10469 H 969.872 -0.0113326 3.88398 0
M  V30 10470 H 971.604 0.178343 4.04307 0
M  V30 10471 H 968.359 2.19153 4.19844 0
M  V30 10472 H 968.783 4.73264 4.84098 0
M  V30 10473 H 973.425 2.06801 3.68773 0
M  V30 10474 H 971.143 6.30529 5.0543 0
M  V30 10475 H 974.729 4.12908 4.09876 0
M  V30 10476 H 973.609 6.22045 4.77525 0
M  V30 10477 N 971.112 -1.45937 0.595003 0
M  V30 10478 C 972.06 -2.32155 -0.143798 0
M  V30 10479 C 973.054 -1.45221 -0.872198 0
M  V30 10480 O 974.26 -1.61777 -0.789191 0
M  V30 10481 H 970.635 -0.749165 -0.0652377 0
M  V30 10482 H 972.606 -2.92264 0.602005 0
M  V30 10483 C 971.355 -3.28615 -1.13611 0
M  V30 10484 H 970.678 -3.95496 -0.585044 0
M  V30 10485 H 972.118 -3.91699 -1.62321 0
M  V30 10486 C 970.577 -2.54863 -2.20333 0
M  V30 10487 O 971.107 -2.32071 -3.27881 0
M  V30 10488 N 969.313 -2.15213 -1.95274 0
M  V30 10489 H 968.86 -2.33949 -1.07822 0
M  V30 10490 H 968.818 -1.66188 -2.66888 0
M  V30 10491 N 972.59 -0.333456 -1.54032 0
M  V30 10492 C 973.553 0.515392 -2.2333 0
M  V30 10493 C 974.553 1.03566 -1.23007 0
M  V30 10494 O 975.743 0.926514 -1.47517 0
M  V30 10495 C 972.875 1.7169 -2.94508 0
M  V30 10496 H 974.068 -0.0905407 -2.99763 0
M  V30 10497 H 971.621 -0.0846651 -1.56071 0
M  V30 10498 H 972.356 2.3618 -2.22237 0
M  V30 10499 H 972.141 1.35115 -3.68085 0
M  V30 10500 H 973.631 2.31922 -3.47278 0
M  V30 10501 N 974.068 1.57479 -0.061844 0
M  V30 10502 C 975.031 2.1104 0.894127 0
M  V30 10503 C 976.031 1.03227 1.23292 0
M  V30 10504 O 977.221 1.29256 1.16784 0
M  V30 10505 C 974.353 2.6035 2.20069 0
M  V30 10506 H 975.546 2.96807 0.429619 0
M  V30 10507 H 973.099 1.55181 0.18672 0
M  V30 10508 H 973.834 1.78008 2.71079 0
M  V30 10509 H 973.619 3.39146 1.9678 0
M  V30 10510 H 975.109 3.019 2.88525 0
M  V30 10511 N 975.546 -0.211634 1.56173 0
M  V30 10512 C 976.774 -0.951184 1.83739 0
M  V30 10513 C 977.189 -1.7754 0.642252 0
M  V30 10514 O 976.546 -1.78302 -0.389174 0
M  V30 10515 C 976.597 -1.86075 3.09933 0
M  V30 10516 O 976.318 -1.06983 4.24837 0
M  V30 10517 C 977.819 -2.71337 3.50559 0
M  V30 10518 H 975.039 -0.278312 0.61056 0
M  V30 10519 H 977.583 -0.223871 2.03271 0
M  V30 10520 H 975.738 -2.54189 2.92347 0
M  V30 10521 H 976.152 -1.68815 4.9659 0
M  V30 10522 H 977.626 -3.30843 4.41868 0
M  V30 10523 H 978.103 -3.44226 2.72773 0
M  V30 10524 H 978.709 -2.0862 3.70618 0
M  V30 10525 N 977.024 -1.50153 -0.478725 0
M  V30 10526 C 978.252 -1.64505 -1.25482 0
M  V30 10527 C 978.667 -0.325295 -1.85977 0
M  V30 10528 O 978.024 0.691885 -1.68876 0
M  V30 10529 C 978.075 -2.73052 -2.36906 0
M  V30 10530 O 977.796 -3.99911 -1.78894 0
M  V30 10531 C 979.297 -2.98309 -3.27912 0
M  V30 10532 H 976.517 -0.55318 -0.379781 0
M  V30 10533 H 979.061 -1.96329 -0.57229 0
M  V30 10534 H 977.216 -2.43944 -3.00949 0
M  V30 10535 H 977.63 -4.5988 -2.52211 0
M  V30 10536 H 979.104 -3.77942 -4.02323 0
M  V30 10537 H 979.581 -2.09082 -3.8624 0
M  V30 10538 H 980.187 -3.2892 -2.69614 0
M  V30 10539 N 978.502 0.731368 -1.39602 0
M  V30 10540 C 979.73 1.52059 -1.40305 0
M  V30 10541 C 980.145 1.888 0.00147921 0
M  V30 10542 O 979.502 1.54354 0.973715 0
M  V30 10543 C 979.553 2.80588 -2.27931 0
M  V30 10544 O 979.274 2.45406 -3.62915 0
M  V30 10545 C 980.775 3.74592 -2.37056 0
M  V30 10546 H 977.995 0.469787 -0.479104 0
M  V30 10547 H 980.539 0.903436 -1.83462 0
M  V30 10548 H 978.694 3.38626 -1.88178 0
M  V30 10549 H 979.108 3.27996 -4.09291 0
M  V30 10550 H 980.582 4.61662 -3.02609 0
M  V30 10551 H 981.059 4.16597 -1.39081 0
M  V30 10552 H 981.665 3.22471 -2.77295 0
M  V30 10553 N 979.98 1.24838 0.961938 0
M  V30 10554 C 980.943 1.04674 2.03902 0
M  V30 10555 C 981.943 0.00204674 1.608 0
M  V30 10556 O 983.133 0.243555 1.72489 0
M  V30 10557 C 980.265 0.587736 3.35795 0
M  V30 10558 H 981.458 2.00278 2.23223 0
M  V30 10559 H 979.011 1.07142 1.138 0
M  V30 10560 H 979.746 -0.371244 3.22168 0
M  V30 10561 H 979.531 1.34182 3.68426 0
M  V30 10562 H 981.021 0.467867 4.14971 0
M  V30 10563 N 981.458 -1.16348 1.06306 0
M  V30 10564 C 982.705 -1.86881 0.779852 0
M  V30 10565 C 983.033 -1.8171 -0.693668 0
M  V30 10566 O 982.288 -1.22769 -1.52401 0
M  V30 10567 C 982.587 -3.35936 1.21991 0
M  V30 10568 C 982.253 -3.61307 2.69756 0
M  V30 10569 C 980.915 -3.6794 3.10119 0
M  V30 10570 C 983.267 -3.71871 3.65187 0
M  V30 10571 C 980.595 -3.82639 4.44752 0
M  V30 10572 C 982.947 -3.88091 4.99568 0
M  V30 10573 C 981.611 -3.92967 5.39568 0
M  V30 10574 H 980.881 -0.683847 0.285368 0
M  V30 10575 H 983.528 -1.37569 1.33218 0
M  V30 10576 H 981.833 -3.87381 0.586774 0
M  V30 10577 H 983.53 -3.88895 0.977821 0
M  V30 10578 H 980.12 -3.56777 2.37504 0
M  V30 10579 H 984.304 -3.66057 3.35136 0
M  V30 10580 H 979.56 -3.84666 4.75228 0
M  V30 10581 H 983.734 -3.95207 5.73397 0
M  V30 10582 H 981.361 -4.04109 6.43895 0
M  V30 10583 N 982.937 -0.845659 -1.3299 0
M  V30 10584 C 983.867 -0.298957 -2.31578 0
M  V30 10585 C 984.848 0.597012 -1.59279 0
M  V30 10586 O 986.033 0.519142 -1.87132 0
M  V30 10587 C 983.163 0.521109 -3.43368 0
M  V30 10588 C 982.117 -0.279651 -4.27085 0
M  V30 10589 C 981.443 0.664591 -5.30554 0
M  V30 10590 C 982.743 -1.50046 -5.00283 0
M  V30 10591 H 984.437 -1.12272 -2.77552 0
M  V30 10592 H 981.983 -0.54132 -1.33438 0
M  V30 10593 H 983.936 0.913921 -4.1137 0
M  V30 10594 H 982.66 1.37815 -2.96099 0
M  V30 10595 H 981.319 -0.654106 -3.60717 0
M  V30 10596 H 980.967 1.51822 -4.79541 0
M  V30 10597 H 980.667 0.132871 -5.8745 0
M  V30 10598 H 982.191 1.05477 -6.01421 0
M  V30 10599 H 983.605 -1.18044 -5.61016 0
M  V30 10600 H 982.002 -1.96946 -5.66862 0
M  V30 10601 H 983.072 -2.26659 -4.28665 0
M  V30 10602 N 984.415 1.45619 -0.602734 0
M  V30 10603 C 985.661 2.02572 -0.0961759 0
M  V30 10604 C 985.994 1.47076 1.26815 0
M  V30 10605 O 985.269 0.643566 1.83544 0
M  V30 10606 C 985.552 3.60062 -0.0520032 0
M  V30 10607 C 985.405 4.25901 -1.44665 0
M  V30 10608 C 986.724 4.35446 0.638342 0
M  V30 10609 H 983.843 0.736099 -0.0364238 0
M  V30 10610 H 986.485 1.7353 -0.773776 0
M  V30 10611 H 984.635 3.84936 0.525032 0
M  V30 10612 H 986.307 4.12228 -2.0704 0
M  V30 10613 H 984.55 3.84489 -2.00874 0
M  V30 10614 H 985.221 5.34779 -1.36803 0
M  V30 10615 H 987.697 4.15837 0.147926 0
M  V30 10616 H 986.573 5.45176 0.63834 0
M  V30 10617 H 986.834 4.07962 1.70351 0
M  V30 10618 N 985.893 0.34162 1.53853 0
M  V30 10619 C 987.133 -0.255853 2.02792 0
M  V30 10620 C 987.497 -1.47921 1.22407 0
M  V30 10621 O 988.698 -2.15073 1.61236 0
M  V30 10622 C 986.969 -0.564117 3.5292 0
M  V30 10623 S 988.528 -1.13868 4.23768 0
M  V30 10624 H 985.346 -0.0762867 0.706896 0
M  V30 10625 H 987.948 0.478934 1.89543 0
M  V30 10626 H 986.652 0.334098 4.09038 0
M  V30 10627 H 986.183 -1.32862 3.70285 0
M  V30 10628 H 988.198 -2.42451 4.32934 0
M  V30 10629 N 987.371 -1.57444 0.0701946 0
M  V30 10630 C 988.301 -2.15659 -0.895176 0
M  V30 10631 C 989.282 -1.08321 -1.31151 0
M  V30 10632 O 990.467 -1.36349 -1.38284 0
M  V30 10633 C 987.597 -2.71693 -2.16334 0
M  V30 10634 C 986.551 -3.84183 -1.88645 0
M  V30 10635 C 985.877 -4.26814 -3.22078 0
M  V30 10636 C 987.177 -5.08493 -1.19299 0
M  V30 10637 H 988.871 -2.96576 -0.410217 0
M  V30 10638 H 986.417 -1.42662 -0.195872 0
M  V30 10639 H 988.37 -3.11064 -2.84284 0
M  V30 10640 H 987.094 -1.87994 -2.67069 0
M  V30 10641 H 985.753 -3.45314 -1.23101 0
M  V30 10642 H 985.401 -3.40039 -3.70651 0
M  V30 10643 H 985.101 -5.02642 -3.04344 0
M  V30 10644 H 986.625 -4.68799 -3.91228 0
M  V30 10645 H 988.039 -5.4519 -1.77316 0
M  V30 10646 H 986.436 -5.89588 -1.11828 0
M  V30 10647 H 987.506 -4.84595 -0.171839 0
M  V30 10648 N 988.849 0.203349 -1.56283 0
M  V30 10649 C 990.095 0.926381 -1.80405 0
M  V30 10650 C 990.428 1.8325 -0.642883 0
M  V30 10651 O 989.703 1.91196 0.356998 0
M  V30 10652 C 989.986 1.74972 -3.14733 0
M  V30 10653 C 989.839 0.868866 -4.41328 0
M  V30 10654 C 991.158 2.72394 -3.45672 0
M  V30 10655 H 988.277 0.335346 -0.656286 0
M  V30 10656 H 990.919 0.1942 -1.89005 0
M  V30 10657 H 989.069 2.37394 -3.07533 0
M  V30 10658 H 990.741 0.259986 -4.60567 0
M  V30 10659 H 988.984 0.175161 -4.33446 0
M  V30 10660 H 989.655 1.47975 -5.31796 0
M  V30 10661 H 992.131 2.20105 -3.53119 0
M  V30 10662 H 991.007 3.27091 -4.40798 0
M  V30 10663 H 991.268 3.51035 -2.6875 0
M  V30 10664 N 990.327 1.50405 0.470755 0
M  V30 10665 C 991.274 1.69293 1.56871 0
M  V30 10666 C 992.244 0.534248 1.57274 0
M  V30 10667 O 993.429 0.764855 1.74799 0
M  V30 10668 C 990.569 1.79338 2.94842 0
M  V30 10669 C 989.682 3.06709 3.04226 0
M  V30 10670 C 988.817 3.07548 4.33114 0
M  V30 10671 C 987.856 4.29372 4.36241 0
M  V30 10672 N 986.993 4.27949 5.56601 0
M  V30 10673 H 991.833 2.63029 1.40071 0
M  V30 10674 H 989.37 1.30386 0.681016 0
M  V30 10675 H 991.328 1.83143 3.74853 0
M  V30 10676 H 989.958 0.890411 3.10277 0
M  V30 10677 H 989.01 3.12374 2.17086 0
M  V30 10678 H 990.322 3.96684 3.02396 0
M  V30 10679 H 989.476 3.10084 5.21472 0
M  V30 10680 H 988.215 2.15404 4.37553 0
M  V30 10681 H 987.22 4.27048 3.4628 0
M  V30 10682 H 988.445 5.22743 4.33493 0
M  V30 10683 H 986.391 3.38658 5.61824 0
M  V30 10684 H 986.308 5.11692 5.56513 0
M  V30 10685 H 987.576 4.34631 6.47083 0
M  V30 10686 N 991.805 -0.723954 1.39988 0
M  V30 10687 C 993.054 -1.47922 1.3712 0
M  V30 10688 C 993.367 -1.95582 -0.0263665 0
M  V30 10689 O 994.573 -2.70918 -0.177652 0
M  V30 10690 C 993.029 -2.67342 2.40949 0
M  V30 10691 C 992.637 -2.26586 3.86475 0
M  V30 10692 C 994.381 -3.45116 2.47174 0
M  V30 10693 C 992.288 -3.42794 4.81919 0
M  V30 10694 H 991.218 -0.555522 0.509815 0
M  V30 10695 H 993.869 -0.788692 1.65686 0
M  V30 10696 H 992.251 -3.38524 2.0547 0
M  V30 10697 H 993.425 -1.62878 4.31054 0
M  V30 10698 H 991.74 -1.61876 3.83647 0
M  V30 10699 H 994.337 -4.31573 3.15672 0
M  V30 10700 H 994.68 -3.8835 1.49966 0
M  V30 10701 H 995.213 -2.80971 2.81602 0
M  V30 10702 H 991.952 -3.046 5.8043 0
M  V30 10703 H 991.472 -4.05445 4.42012 0
M  V30 10704 H 993.151 -4.08977 5.01345 0
M  V30 10705 N 993.283 -1.25346 -0.955304 0
M  V30 10706 C 994.529 -1.10218 -1.70235 0
M  V30 10707 C 994.862 0.356124 -1.90907 0
M  V30 10708 O 994.137 1.26253 -1.47954 0
M  V30 10709 C 994.42 -1.85627 -3.08569 0
M  V30 10710 C 994.273 -3.39281 -2.95311 0
M  V30 10711 C 995.592 -1.63886 -4.08448 0
M  V30 10712 H 992.711 -0.401781 -0.617852 0
M  V30 10713 H 995.353 -1.5417 -1.11048 0
M  V30 10714 H 993.503 -1.48269 -3.59094 0
M  V30 10715 H 995.175 -3.8631 -2.52116 0
M  V30 10716 H 993.418 -3.67027 -2.31244 0
M  V30 10717 H 994.089 -3.87258 -3.93364 0
M  V30 10718 H 996.565 -1.96406 -3.6683 0
M  V30 10719 H 995.441 -2.19087 -5.03281 0
M  V30 10720 H 995.702 -0.580021 -4.38279 0
M  V30 10721 N 994.761 1.15782 -1.06922 0
M  V30 10722 C 996.177 1.38454 -0.793896 0
M  V30 10723 C 996.377 1.92238 0.603875 0
M  V30 10724 O 995.433 2.1253 1.36335 0
M  V30 10725 C 996.746 2.3595 -1.86408 0
M  V30 10726 C 998.294 2.49622 -1.88833 0
M  V30 10727 C 998.769 3.50406 -2.94923 0
M  V30 10728 N 1000.26 3.57938 -2.93997 0
M  V30 10729 C 1001 4.35728 -3.72731 0
M  V30 10730 N 1000.49 5.16888 -4.61301 0
M  V30 10731 N 1002.28 4.30774 -3.61096 0
M  V30 10732 H 994.435 0.792101 -1.97077 0
M  V30 10733 H 996.698 0.410779 -0.85438 0
M  V30 10734 H 996.404 2.03537 -2.86819 0
M  V30 10735 H 996.278 3.35677 -1.72049 0
M  V30 10736 H 998.665 2.81335 -0.890759 0
M  V30 10737 H 998.746 1.49909 -2.0727 0
M  V30 10738 H 998.39 3.19429 -3.94877 0
M  V30 10739 H 998.32 4.49864 -2.73734 0
M  V30 10740 H 1000.81 3.00007 -2.29791 0
M  V30 10741 H 1001.12 5.73477 -5.18019 0
M  V30 10742 H 999.469 5.16209 -4.65353 0
M  V30 10743 H 1002.66 3.66432 -2.91282 0
M  V30 10744 H 1002.83 4.91151 -4.22699 0
M  V30 10745 N 996.239 0.8527 1.3254 0
M  V30 10746 C 997.487 0.454224 1.96929 0
M  V30 10747 C 997.808 -0.993034 1.67821 0
M  V30 10748 O 997.078 -1.69371 0.984393 0
M  V30 10749 H 995.658 0.164977 0.728554 0
M  V30 10750 H 998.32 1.0887 1.61658 0
M  V30 10751 H 997.416 0.597667 3.06324 0
M  V30 10752 N 997.718 -1.45297 0.610449 0
M  V30 10753 C 998.65 -2.28742 -0.144884 0
M  V30 10754 C 999.663 -1.40114 -0.828977 0
M  V30 10755 O 1000.85 -1.64461 -0.693887 0
M  V30 10756 C 997.952 -3.15934 -1.22632 0
M  V30 10757 C 997.125 -4.32857 -0.628785 0
M  V30 10758 C 996.184 -5.01237 -1.60148 0
M  V30 10759 O 995.21 -5.57938 -1.12667 0
M  V30 10760 N 996.412 -5.00785 -2.9359 0
M  V30 10761 H 999.177 -2.94207 0.571145 0
M  V30 10762 H 996.738 -1.55517 0.450134 0
M  V30 10763 H 998.73 -3.58545 -1.87691 0
M  V30 10764 H 997.3 -2.52358 -1.84483 0
M  V30 10765 H 996.52 -3.93693 0.199951 0
M  V30 10766 H 997.808 -5.08367 -0.209845 0
M  V30 10767 H 997.206 -4.56014 -3.34765 0
M  V30 10768 H 995.763 -5.4725 -3.54064 0
M  V30 10769 N 999.196 -0.349774 -1.5367 0
M  V30 10770 C 1000.13 0.547309 -2.2154 0
M  V30 10771 C 1001.11 1.09543 -1.20163 0
M  V30 10772 O 1002.29 1.15453 -1.49006 0
M  V30 10773 C 999.418 1.75356 -2.89772 0
M  V30 10774 C 998.464 1.33433 -4.0509 0
M  V30 10775 S 999.297 0.348891 -5.34362 0
M  V30 10776 C 1000.45 1.56183 -6.061 0
M  V30 10777 H 1000.69 -0.0291392 -2.97286 0
M  V30 10778 H 998.219 -0.133853 -1.53819 0
M  V30 10779 H 1000.18 2.44555 -3.29701 0
M  V30 10780 H 998.838 2.30123 -2.1378 0
M  V30 10781 H 998.031 2.23388 -4.5179 0
M  V30 10782 H 997.633 0.721746 -3.6697 0
M  V30 10783 H 999.925 2.49535 -6.29872 0
M  V30 10784 H 1000.87 1.13651 -6.9892 0
M  V30 10785 H 1001.28 1.76071 -5.36339 0
M  V30 10786 N 1000.67 1.57404 -0.0785433 0
M  V30 10787 C 1001.92 1.94031 0.589896 0
M  V30 10788 C 1002.25 0.959297 1.68852 0
M  V30 10789 O 1001.53 -0.0103978 1.94497 0
M  V30 10790 C 1001.81 3.40886 1.16055 0
M  V30 10791 C 1001.66 4.49748 0.0681072 0
M  V30 10792 C 1002.98 3.88699 2.06401 0
M  V30 10793 H 1000.1 0.70556 0.212965 0
M  V30 10794 H 1002.74 1.89439 -0.145886 0
M  V30 10795 H 1000.89 3.4493 1.78761 0
M  V30 10796 H 1002.57 4.57823 -0.565318 0
M  V30 10797 H 1000.81 4.29625 -0.600431 0
M  V30 10798 H 1001.48 5.49658 0.507906 0
M  V30 10799 H 1003.96 3.86703 1.53622 0
M  V30 10800 H 1002.83 4.92052 2.43261 0
M  V30 10801 H 1003.09 3.2703 2.97496 0
M  V30 10802 N 1002.15 -0.195058 1.56388 0
M  V30 10803 C 1003.08 -1.26581 1.91076 0
M  V30 10804 C 1004.1 -1.41707 0.801436 0
M  V30 10805 O 1005.29 -1.42132 1.07985 0
M  V30 10806 C 1002.39 -2.63794 2.12758 0
M  V30 10807 C 1001.56 -2.70275 3.43904 0
M  V30 10808 C 1000.62 -3.88685 3.54698 0
M  V30 10809 O 999.644 -3.75786 4.2752 0
M  V30 10810 N 1000.85 -5.04141 2.87789 0
M  V30 10811 H 1003.61 -0.971401 2.83521 0
M  V30 10812 H 1001.17 -0.384976 1.57256 0
M  V30 10813 H 1003.16 -3.41434 2.17267 0
M  V30 10814 H 1001.73 -2.85723 1.26812 0
M  V30 10815 H 1000.95 -1.78909 3.51262 0
M  V30 10816 H 1002.24 -2.71597 4.30247 0
M  V30 10817 H 1001.64 -5.17519 2.28452 0
M  V30 10818 H 1000.2 -5.79727 2.97925 0
M  V30 10819 N 1003.63 -1.50653 -0.462772 0
M  V30 10820 C 1004.88 -1.61737 -1.21184 0
M  V30 10821 C 1005.2 -0.32369 -1.92295 0
M  V30 10822 O 1004.47 0.659269 -1.84473 0
M  V30 10823 H 1003.05 -0.596015 -0.450306 0
M  V30 10824 H 1005.71 -1.87469 -0.533051 0
M  V30 10825 H 1004.81 -2.43262 -1.95525 0
M  V30 10826 N 1005.11 0.71652 -1.4037 0
M  V30 10827 C 1006.36 1.47193 -1.37903 0
M  V30 10828 C 1006.67 1.95593 0.0159939 0
M  V30 10829 O 1007.88 2.71009 0.163282 0
M  V30 10830 C 1006.33 2.6606 -2.42363 0
M  V30 10831 C 1005.94 2.24533 -3.87671 0
M  V30 10832 C 1007.68 3.438 -2.49001 0
M  V30 10833 C 1005.59 3.40234 -4.8373 0
M  V30 10834 H 1004.52 0.552811 -0.512753 0
M  V30 10835 H 1007.17 0.779894 -1.66102 0
M  V30 10836 H 1005.55 3.37429 -2.07262 0
M  V30 10837 H 1006.73 1.6059 -4.31911 0
M  V30 10838 H 1005.04 1.59839 -3.845 0
M  V30 10839 H 1007.64 4.29893 -3.17956 0
M  V30 10840 H 1007.98 3.8755 -1.52023 0
M  V30 10841 H 1008.52 2.79474 -2.83088 0
M  V30 10842 H 1005.26 3.01517 -5.82037 0
M  V30 10843 H 1004.78 4.03095 -4.44156 0
M  V30 10844 H 1006.45 4.06312 -5.03507 0
M  V30 10845 N 1006.59 1.25851 0.948643 0
M  V30 10846 C 1007.52 1.09248 2.06367 0
M  V30 10847 C 1008.5 -0.000205168 1.701 0
M  V30 10848 O 1009.68 0.170442 1.93451 0
M  V30 10849 C 1006.81 0.716777 3.39823 0
M  V30 10850 C 1005.77 1.76036 3.90122 0
M  V30 10851 C 1005.09 1.23918 5.20143 0
M  V30 10852 C 1006.39 3.16039 4.15833 0
M  V30 10853 H 1008.09 2.02518 2.20515 0
M  V30 10854 H 1005.63 0.975093 1.05962 0
M  V30 10855 H 1007.59 0.587531 4.17284 0
M  V30 10856 H 1006.31 -0.251626 3.25629 0
M  V30 10857 H 1004.97 1.87815 3.14835 0
M  V30 10858 H 1004.62 0.260836 5.02323 0
M  V30 10859 H 1004.32 1.93673 5.54765 0
M  V30 10860 H 1005.84 1.12245 6.00194 0
M  V30 10861 H 1007.25 3.0738 4.83933 0
M  V30 10862 H 1005.65 3.83317 4.61723 0
M  V30 10863 H 1006.72 3.62652 3.21887 0
M  V30 10864 N 1008.06 -1.15214 1.07534 0
M  V30 10865 C 1009.31 -1.86548 0.810651 0
M  V30 10866 C 1009.67 -1.80863 -0.656236 0
M  V30 10867 O 1008.96 -1.22216 -1.47559 0
M  V30 10868 C 1009.15 -3.34623 1.25547 0
M  V30 10869 C 1008.98 -3.54725 2.76406 0
M  V30 10870 C 1007.75 -3.70089 3.44038 0
M  V30 10871 C 1009.95 -3.52392 3.74599 0
M  V30 10872 N 1007.93 -3.78262 4.8352 0
M  V30 10873 C 1009.3 -3.66701 4.9993 0
M  V30 10874 C 1011.36 -3.35677 3.6773 0
M  V30 10875 C 1010.06 -3.66023 6.19209 0
M  V30 10876 C 1012.09 -3.36298 4.86475 0
M  V30 10877 C 1011.45 -3.51139 6.1064 0
M  V30 10878 H 1007.55 -0.699691 0.349223 0
M  V30 10879 H 1010.13 -1.3815 1.37196 0
M  V30 10880 H 1008.3 -3.81633 0.721837 0
M  V30 10881 H 1010.03 -3.93677 0.938126 0
M  V30 10882 H 1006.79 -3.70943 2.94446 0
M  V30 10883 H 1007.21 -3.86087 5.56117 0
M  V30 10884 H 1011.86 -3.2312 2.72678 0
M  V30 10885 H 1009.57 -3.77358 7.14581 0
M  V30 10886 H 1013.16 -3.2459 4.82838 0
M  V30 10887 H 1012.04 -3.51555 7.00984 0
M  V30 10888 N 1009.54 -0.859717 -1.32086 0
M  V30 10889 C 1010.47 -0.323502 -2.31248 0
M  V30 10890 C 1011.45 0.580085 -1.59903 0
M  V30 10891 O 1012.64 0.499265 -1.87673 0
M  V30 10892 C 1009.77 0.484661 -3.43902 0
M  V30 10893 C 1008.72 -0.324933 -4.26765 0
M  V30 10894 C 1008.05 0.608281 -5.31229 0
M  V30 10895 C 1009.35 -1.55344 -4.98664 0
M  V30 10896 H 1011.04 -1.15209 -2.76346 0
M  V30 10897 H 1008.59 -0.555442 -1.32856 0
M  V30 10898 H 1010.54 0.870238 -4.12316 0
M  V30 10899 H 1009.27 1.34666 -2.97544 0
M  V30 10900 H 1007.92 -0.692328 -3.60003 0
M  V30 10901 H 1007.57 1.46727 -4.81124 0
M  V30 10902 H 1007.27 0.0705571 -5.87558 0
M  V30 10903 H 1008.8 0.990925 -6.02506 0
M  V30 10904 H 1010.21 -1.23987 -5.59732 0
M  V30 10905 H 1008.61 -2.02947 -5.64741 0
M  V30 10906 H 1009.68 -2.31192 -4.26237 0
M  V30 10907 N 1011.02 1.44971 -0.618145 0
M  V30 10908 C 1011.95 2.33357 0.0815955 0
M  V30 10909 C 1012.93 1.47451 0.848072 0
M  V30 10910 O 1014.12 1.762 0.816532 0
M  V30 10911 C 1011.25 3.30324 1.07253 0
M  V30 10912 C 1010.2 4.25948 0.418563 0
M  V30 10913 C 1009.53 5.12685 1.51849 0
M  V30 10914 C 1010.83 5.18024 -0.66697 0
M  V30 10915 H 1012.52 2.92115 -0.656442 0
M  V30 10916 H 1010.07 1.40465 -0.317129 0
M  V30 10917 H 1012.02 3.91033 1.57069 0
M  V30 10918 H 1010.74 2.69748 1.8413 0
M  V30 10919 H 1009.4 3.66553 -0.0588308 0
M  V30 10920 H 1009.05 4.4847 2.2778 0
M  V30 10921 H 1008.75 5.7747 1.08637 0
M  V30 10922 H 1010.27 5.76264 2.01871 0
M  V30 10923 H 1011.69 5.72744 -0.252448 0
M  V30 10924 H 1010.09 5.91343 -1.02146 0
M  V30 10925 H 1011.16 4.59817 -1.53936 0
M  V30 10926 N 1012.5 0.357919 1.53482 0
M  V30 10927 C 1013.43 -0.484231 2.28424 0
M  V30 10928 C 1014.41 -1.09046 1.30548 0
M  V30 10929 O 1015.59 -1.10916 1.59409 0
M  V30 10930 C 1012.72 -1.62803 3.06778 0
M  V30 10931 C 1011.68 -1.14943 4.12277 0
M  V30 10932 C 1011 -2.38287 4.78669 0
M  V30 10933 C 1012.3 -0.239627 5.2175 0
M  V30 10934 H 1014 0.140979 2.99068 0
M  V30 10935 H 1011.54 0.069244 1.43833 0
M  V30 10936 H 1013.5 -2.22374 3.57949 0
M  V30 10937 H 1012.22 -2.28036 2.3381 0
M  V30 10938 H 1010.88 -0.576442 3.6204 0
M  V30 10939 H 1010.53 -3.01959 4.02281 0
M  V30 10940 H 1010.23 -2.06939 5.49955 0
M  V30 10941 H 1011.75 -2.98558 5.32631 0
M  V30 10942 H 1013.17 -0.742597 5.6847 0
M  V30 10943 H 1011.56 -0.0173747 6.00097 0
M  V30 10944 H 1012.63 0.720333 4.7952 0
M  V30 10945 N 1013.98 -1.5736 0.0868897 0
M  V30 10946 C 1015.23 -1.93229 -0.578387 0
M  V30 10947 C 1015.54 -0.970127 -1.69847 0
M  V30 10948 O 1016.74 -1.22222 -2.42434 0
M  V30 10949 C 1015.2 -3.43307 -1.0802 0
M  V30 10950 C 1014.81 -4.47999 0.00968135 0
M  V30 10951 C 1016.55 -3.88151 -1.71868 0
M  V30 10952 C 1014.46 -5.89223 -0.507029 0
M  V30 10953 H 1013.39 -0.721245 -0.219823 0
M  V30 10954 H 1016.04 -1.82787 0.161566 0
M  V30 10955 H 1014.42 -3.48873 -1.87359 0
M  V30 10956 H 1015.6 -4.54067 0.784865 0
M  V30 10957 H 1013.91 -4.12714 0.552845 0
M  V30 10958 H 1016.51 -4.91056 -2.11585 0
M  V30 10959 H 1016.85 -3.26347 -2.58464 0
M  V30 10960 H 1017.38 -3.85252 -0.991259 0
M  V30 10961 H 1014.12 -6.54708 0.322121 0
M  V30 10962 H 1013.64 -5.86643 -1.2494 0
M  V30 10963 H 1015.32 -6.39556 -0.978628 0
M  V30 10964 N 1015.45 0.186762 -1.56489 0
M  V30 10965 C 1016.68 0.921832 -1.85229 0
M  V30 10966 C 1017.1 1.76496 -0.670416 0
M  V30 10967 O 1016.45 1.78899 0.360758 0
M  V30 10968 C 1016.51 1.81121 -3.12854 0
M  V30 10969 O 1016.23 1.00211 -4.26485 0
M  V30 10970 C 1017.73 2.65725 -3.54831 0
M  V30 10971 H 1014.95 0.268563 -0.61491 0
M  V30 10972 H 1017.49 0.191505 -2.03601 0
M  V30 10973 H 1015.65 2.49506 -2.96354 0
M  V30 10974 H 1016.06 1.60893 -4.99213 0
M  V30 10975 H 1017.53 3.23771 -4.47075 0
M  V30 10976 H 1018.01 3.39843 -2.78215 0
M  V30 10977 H 1018.62 2.02698 -3.7389 0
M  V30 10978 N 1016.93 1.50896 0.454776 0
M  V30 10979 C 1018.18 1.62378 1.20324 0
M  V30 10980 C 1018.5 0.333883 1.9212 0
M  V30 10981 O 1017.77 -0.649477 1.8482 0
M  V30 10982 H 1016.35 0.598395 0.447139 0
M  V30 10983 H 1019.01 1.87749 0.523102 0
M  V30 10984 H 1018.11 2.44296 1.94232 0
M  V30 10985 N 1018.41 -0.709066 1.40748 0
M  V30 10986 C 1019.66 -1.47119 1.39585 0
M  V30 10987 C 1019.99 -1.942 0.000245323 0
M  V30 10988 O 1019.26 -1.68609 -0.969593 0
M  V30 10989 C 1019.55 -2.69266 2.39099 0
M  V30 10990 C 1019.4 -2.28037 3.8771 0
M  V30 10991 C 1020.72 -3.71438 2.36055 0
M  V30 10992 H 1017.84 -0.533632 0.508336 0
M  V30 10993 H 1020.48 -0.808718 1.7193 0
M  V30 10994 H 1018.63 -3.25788 2.11647 0
M  V30 10995 H 1020.3 -1.76946 4.26014 0
M  V30 10996 H 1018.55 -1.59966 4.03229 0
M  V30 10997 H 1019.22 -3.15621 4.52866 0
M  V30 10998 H 1021.69 -3.24559 2.60385 0
M  V30 10999 H 1020.57 -4.54532 3.07721 0
M  V30 11000 H 1020.83 -4.20193 1.37443 0
M  V30 11001 N 1019.89 -1.26353 -0.941956 0
M  V30 11002 C 1020.82 -1.03634 -2.04432 0
M  V30 11003 C 1021.83 0.00295864 -1.628 0
M  V30 11004 O 1023.02 -0.237029 -1.76919 0
M  V30 11005 C 1020.12 -0.547231 -3.34453 0
M  V30 11006 C 1019.3 -1.65559 -4.04857 0
M  V30 11007 C 1018.36 -1.16466 -5.13149 0
M  V30 11008 O 1017.38 -1.86158 -5.37898 0
M  V30 11009 N 1018.58 -0.0126703 -5.80499 0
M  V30 11010 H 1021.35 -1.98558 -2.24488 0
M  V30 11011 H 1018.91 -1.17728 -1.11138 0
M  V30 11012 H 1020.9 -0.203004 -4.04191 0
M  V30 11013 H 1019.47 0.308401 -3.11075 0
M  V30 11014 H 1018.69 -2.17079 -3.29044 0
M  V30 11015 H 1019.98 -2.39985 -4.48647 0
M  V30 11016 H 1019.38 0.569358 -5.62828 0
M  V30 11017 H 1017.93 0.272486 -6.5123 0
M  V30 11018 N 1021.37 1.14642 -1.08144 0
M  V30 11019 C 1022.62 1.8525 -0.807885 0
M  V30 11020 C 1022.94 1.83194 0.668213 0
M  V30 11021 O 1022.21 1.27848 1.48431 0
M  V30 11022 H 1020.79 0.685909 -0.295868 0
M  V30 11023 H 1023.45 1.38935 -1.36686 0
M  V30 11024 H 1022.54 2.90155 -1.14964 0
M  V30 11025 N 1022.85 0.866709 1.31628 0
M  V30 11026 C 1023.8 0.291712 2.26126 0
M  V30 11027 C 1024.78 -0.569375 1.50489 0
M  V30 11028 O 1025.97 -0.416786 1.72023 0
M  V30 11029 C 1023.1 -0.508624 3.39511 0
M  V30 11030 C 1022.19 0.365524 4.22522 0
M  V30 11031 N 1022.58 1.45747 4.84346 0
M  V30 11032 C 1020.88 0.157384 4.45722 0
M  V30 11033 C 1021.58 1.99625 5.46374 0
M  V30 11034 N 1020.55 1.29371 5.27981 0
M  V30 11035 H 1024.35 1.12633 2.71461 0
M  V30 11036 H 1021.87 0.714118 1.45857 0
M  V30 11037 H 1023.87 -0.937057 4.06233 0
M  V30 11038 H 1022.53 -1.34089 2.9572 0
M  V30 11039 H 1023.54 1.84039 4.84097 0
M  V30 11040 H 1020.21 -0.639193 4.12578 0
M  V30 11041 H 1021.6 2.91222 6.05508 0
M  V30 11042 N 1024.32 -1.44642 0.625825 0
M  V30 11043 C 1025.25 -2.33397 -0.0692188 0
M  V30 11044 C 1026.23 -1.47898 -0.840241 0
M  V30 11045 O 1027.42 -1.7663 -0.807176 0
M  V30 11046 C 1024.55 -3.30888 -1.055 0
M  V30 11047 C 1023.5 -4.26164 -0.395968 0
M  V30 11048 C 1022.83 -5.13483 -1.49128 0
M  V30 11049 C 1024.13 -5.17663 0.694433 0
M  V30 11050 H 1025.82 -2.91763 0.671925 0
M  V30 11051 H 1023.37 -1.40294 0.324573 0
M  V30 11052 H 1025.32 -3.91861 -1.54993 0
M  V30 11053 H 1024.05 -2.7072 -1.82696 0
M  V30 11054 H 1022.71 -3.66516 0.0782691 0
M  V30 11055 H 1022.35 -4.49672 -2.25399 0
M  V30 11056 H 1022.05 -5.78038 -1.05573 0
M  V30 11057 H 1023.58 -5.77327 -1.98813 0
M  V30 11058 H 1024.99 -5.72602 0.282818 0
M  V30 11059 H 1023.39 -5.90793 1.05281 0
M  V30 11060 H 1024.46 -4.58994 1.56372 0
M  V30 11061 N 1025.8 -0.366053 -1.5329 0
M  V30 11062 C 1027.08 0.279902 -1.93587 0
M  V30 11063 C 1027.46 1.66352 -1.29963 0
M  V30 11064 O 1026.81 2.23845 -0.458895 0
M  V30 11065 C 1027.02 0.329634 -3.4744 0
M  V30 11066 C 1028.36 0.569754 -4.2076 0
M  V30 11067 O 1029.39 0.410823 -3.53823 0
M  V30 11068 O 1028.25 0.879262 -5.3938 0
M  V30 11069 H 1025.34 0.16802 -0.809752 0
M  V30 11070 H 1027.89 -0.418871 -1.64449 0
M  V30 11071 H 1026.66 -0.640434 -3.86023 0
M  V30 11072 H 1026.28 1.07428 -3.82812 0
M  V30 11073 N 1027.28 1.57312 -0.0952337 0
M  V30 11074 C 1028.52 1.96239 0.571813 0
M  V30 11075 C 1028.88 0.97602 1.65342 0
M  V30 11076 O 1030.08 1.25379 2.37768 0
M  V30 11077 C 1028.36 3.39644 1.1125 0
M  V30 11078 S 1029.91 4.00568 1.7914 0
M  V30 11079 H 1026.73 0.686081 0.186585 0
M  V30 11080 H 1029.33 1.94718 -0.174669 0
M  V30 11081 H 1028.04 4.09199 0.313796 0
M  V30 11082 H 1027.57 3.44762 1.89481 0
M  V30 11083 H 1029.58 3.89383 3.07563 0
M  V30 11084 N 1028.76 -0.17846 1.56586 0
M  V30 11085 C 1029.7 -1.22104 1.95855 0
M  V30 11086 C 1030.67 -1.44366 0.821447 0
M  V30 11087 O 1031.86 -1.57224 1.08098 0
M  V30 11088 C 1029 -2.55701 2.31757 0
M  V30 11089 C 1028.11 -2.40879 3.5861 0
M  V30 11090 C 1027.25 -3.67293 3.83757 0
M  V30 11091 C 1026.29 -3.47373 5.03982 0
M  V30 11092 N 1025.42 -4.65839 5.25298 0
M  V30 11093 H 1030.26 -0.879168 2.84736 0
M  V30 11094 H 1027.8 -0.422721 1.40895 0
M  V30 11095 H 1029.76 -3.33556 2.50592 0
M  V30 11096 H 1028.39 -2.87898 1.45995 0
M  V30 11097 H 1027.44 -1.54236 3.47729 0
M  V30 11098 H 1028.75 -2.22102 4.46623 0
M  V30 11099 H 1027.91 -4.53584 4.02922 0
M  V30 11100 H 1026.65 -3.89041 2.94107 0
M  V30 11101 H 1025.65 -2.59467 4.84723 0
M  V30 11102 H 1026.88 -3.27055 5.95157 0
M  V30 11103 H 1024.82 -4.8782 4.38598 0
M  V30 11104 H 1024.74 -4.4995 6.0752 0
M  V30 11105 H 1026.01 -5.53435 5.48936 0
M  V30 11106 N 1030.24 -1.51135 -0.446768 0
M  V30 11107 C 1031.65 -1.55919 -1.02694 0
M  V30 11108 C 1032 -0.377038 -1.92543 0
M  V30 11109 O 1031.12 0.507295 -2.1037 0
M  V30 11110 C 1031.72 -2.8257 -1.86922 0
M  V30 11111 C 1030.28 -2.89956 -2.40005 0
M  V30 11112 C 1029.42 -2.50482 -1.18971 0
M  V30 11113 H 1032.37 -1.57048 -0.228403 0
M  V30 11114 H 1032.4 -2.65799 -2.7227 0
M  V30 11115 H 1031.91 -3.6859 -1.21502 0
M  V30 11116 H 1030.01 -2.08343 -3.08907 0
M  V30 11117 H 1030.12 -3.93399 -2.73448 0
M  V30 11118 H 1028.49 -2.03466 -1.53211 0
M  V30 11119 H 1029.27 -3.38837 -0.551762 0
M  V30 11120 N 1031.71 0.701592 -1.41122 0
M  V30 11121 C 1032.62 1.84548 -1.44841 0
M  V30 11122 C 1033.64 1.70654 -0.339594 0
M  V30 11123 O 1034.82 1.92675 -0.586378 0
M  V30 11124 C 1031.88 3.20477 -1.3227 0
M  V30 11125 C 1030.94 3.46524 -2.53415 0
M  V30 11126 C 1030.17 4.75968 -2.41434 0
M  V30 11127 O 1030.4 5.52037 -1.43566 0
M  V30 11128 O 1029.33 5.02664 -3.31078 0
M  V30 11129 H 1033.16 1.84367 -2.41335 0
M  V30 11130 H 1030.74 0.853863 -1.22595 0
M  V30 11131 H 1032.62 4.01642 -1.2752 0
M  V30 11132 H 1031.3 3.21355 -0.388889 0
M  V30 11133 H 1030.21 2.65313 -2.63742 0
M  V30 11134 H 1031.54 3.50455 -3.45604 0
M  V30 11135 N 1033.19 1.2685 0.935242 0
M  V30 11136 C 1034.44 1.12745 1.68211 0
M  V30 11137 C 1034.77 -0.328128 1.91712 0
M  V30 11138 O 1034.02 -1.25701 1.49993 0
M  V30 11139 C 1034.32 1.8482 3.05903 0
M  V30 11140 C 1033.99 3.347 3.02137 0
M  V30 11141 C 1032.65 3.75583 3.00817 0
M  V30 11142 C 1035 4.30368 2.93995 0
M  V30 11143 C 1032.33 5.10511 2.89129 0
M  V30 11144 C 1034.68 5.65343 2.83848 0
M  V30 11145 C 1033.34 6.0553 2.80874 0
M  V30 11146 H 1032.61 0.412563 0.615527 0
M  V30 11147 H 1035.26 1.57366 1.09124 0
M  V30 11148 H 1033.57 1.32685 3.68649 0
M  V30 11149 H 1035.26 1.71341 3.62551 0
M  V30 11150 H 1031.85 3.02182 3.03947 0
M  V30 11151 H 1036.04 3.9976 2.94118 0
M  V30 11152 H 1031.29 5.40802 2.85208 0
M  V30 11153 H 1035.47 6.39151 2.76512 0
M  V30 11154 H 1033.09 7.10037 2.71573 0
M  V30 11155 N 1034.67 -1.14067 1.0875 0
M  V30 11156 C 1035.9 -1.89582 0.841038 0
M  V30 11157 C 1036.32 -1.78226 -0.601436 0
M  V30 11158 O 1035.68 -1.12491 -1.42181 0
M  V30 11159 C 1035.73 -3.37415 1.27213 0
M  V30 11160 O 1034.83 -4.10191 0.426246 0
M  V30 11161 H 1034.17 -0.589716 0.305173 0
M  V30 11162 H 1036.7 -1.44364 1.44984 0
M  V30 11163 H 1036.71 -3.88234 1.25451 0
M  V30 11164 H 1035.39 -3.44999 2.32268 0
M  V30 11165 H 1033.96 -3.69429 0.507585 0
M  V30 11166 N 1036.15 -0.873678 -1.31166 0
M  V30 11167 C 1037.38 -0.500317 -2.0045 0
M  V30 11168 C 1037.79 0.912716 -1.65729 0
M  V30 11169 O 1037.13 1.61001 -0.884563 0
M  V30 11170 C 1037.19 -0.58197 -3.54758 0
M  V30 11171 C 1036.86 -1.95728 -4.12964 0
M  V30 11172 C 1037.85 -2.92526 -4.29796 0
M  V30 11173 C 1035.54 -2.2596 -4.48606 0
M  V30 11174 C 1037.53 -4.17697 -4.81464 0
M  V30 11175 C 1035.22 -3.5138 -4.99976 0
M  V30 11176 C 1036.22 -4.47064 -5.16356 0
M  V30 11177 O 1035.9 -5.70259 -5.66621 0
M  V30 11178 H 1035.64 -0.193044 -0.64785 0
M  V30 11179 H 1038.19 -1.17768 -1.68285 0
M  V30 11180 H 1036.42 0.152326 -3.864 0
M  V30 11181 H 1038.11 -0.221506 -4.05295 0
M  V30 11182 H 1038.88 -2.70479 -4.02574 0
M  V30 11183 H 1034.75 -1.52258 -4.3513 0
M  V30 11184 H 1038.3 -4.92389 -4.94165 0
M  V30 11185 H 1034.2 -3.73269 -5.26631 0
M  V30 11186 H 1034.96 -5.72483 -5.84983 0
M  V30 11187 N 1037.63 1.44308 -0.633487 0
M  V30 11188 C 1038.59 2.2912 0.060376 0
M  V30 11189 C 1039.59 1.41166 0.769992 0
M  V30 11190 O 1040.78 1.63012 0.614224 0
M  V30 11191 C 1037.91 3.22798 1.0961 0
M  V30 11192 H 1039.1 2.91958 -0.685617 0
M  V30 11193 H 1036.66 1.51259 -0.393738 0
M  V30 11194 H 1037.39 2.64815 1.87199 0
M  V30 11195 H 1037.18 3.87618 0.591161 0
M  V30 11196 H 1038.67 3.86504 1.58127 0
M  V30 11197 N 1039.1 0.374177 1.53094 0
M  V30 11198 C 1040.35 -0.213981 2.00562 0
M  V30 11199 C 1040.67 -1.4916 1.26533 0
M  V30 11200 O 1041.87 -2.15889 1.64634 0
M  V30 11201 C 1040.33 -0.431876 3.57299 0
M  V30 11202 C 1039.94 0.831615 4.40214 0
M  V30 11203 C 1041.68 -0.977222 4.13099 0
M  V30 11204 C 1039.59 0.582831 5.88521 0
M  V30 11205 H 1038.52 -0.0837386 0.749336 0
M  V30 11206 H 1041.17 0.494245 1.76719 0
M  V30 11207 H 1039.55 -1.20158 3.7733 0
M  V30 11208 H 1040.72 1.60477 4.31953 0
M  V30 11209 H 1039.04 1.30081 3.9556 0
M  V30 11210 H 1041.64 -1.17881 5.21544 0
M  V30 11211 H 1041.98 -1.94189 3.68234 0
M  V30 11212 H 1042.51 -0.267473 3.969 0
M  V30 11213 H 1039.25 1.51807 6.37679 0
M  V30 11214 H 1038.77 -0.151666 5.99608 0
M  V30 11215 H 1040.45 0.211604 6.46654 0
M  V30 11216 N 1040.58 -1.57259 0.103575 0
M  V30 11217 C 1041.55 -2.13337 -0.837859 0
M  V30 11218 C 1042.55 -1.06459 -1.20512 0
M  V30 11219 O 1043.74 -1.32307 -1.13316 0
M  V30 11220 C 1040.87 -2.66093 -2.13089 0
M  V30 11221 H 1042.06 -2.97842 -0.350775 0
M  V30 11222 H 1039.61 -1.55621 -0.145511 0
M  V30 11223 H 1040.35 -1.85133 -2.66264 0
M  V30 11224 H 1040.13 -3.44244 -1.87719 0
M  V30 11225 H 1041.62 -3.09443 -2.80419 0
M  V30 11226 N 1042.06 0.170153 -1.56679 0
M  V30 11227 C 1043.01 1.21064 -1.965 0
M  V30 11228 C 1043.98 1.43928 -0.829092 0
M  V30 11229 O 1045.16 1.56649 -1.08931 0
M  V30 11230 C 1042.3 2.54468 -2.33109 0
M  V30 11231 C 1041.42 2.38974 -3.59883 0
M  V30 11232 C 1040.55 3.65252 -3.857 0
M  V30 11233 C 1039.59 3.44696 -5.05817 0
M  V30 11234 N 1038.73 4.63047 -5.27761 0
M  V30 11235 H 1043.57 0.864055 -2.85198 0
M  V30 11236 H 1041.1 0.415243 -1.41117 0
M  V30 11237 H 1043.06 3.32222 -2.52358 0
M  V30 11238 H 1041.69 2.8712 -1.4752 0
M  V30 11239 H 1040.74 1.5239 -3.48542 0
M  V30 11240 H 1042.06 2.19731 -4.47794 0
M  V30 11241 H 1041.21 4.51441 -4.05322 0
M  V30 11242 H 1039.95 3.87475 -2.96166 0
M  V30 11243 H 1038.95 2.56893 -4.86092 0
M  V30 11244 H 1040.18 3.23894 -5.96883 0
M  V30 11245 H 1038.12 4.85487 -4.41179 0
M  V30 11246 H 1038.04 4.46722 -6.09898 0
M  V30 11247 H 1039.31 5.50516 -5.51863 0
M  V30 11248 N 1043.54 1.5137 0.438746 0
M  V30 11249 C 1044.82 1.54508 1.19944 0
M  V30 11250 C 1045.2 0.308525 2.08833 0
M  V30 11251 O 1044.54 -0.706461 2.17305 0
M  V30 11252 C 1044.75 2.85833 2.00251 0
M  V30 11253 C 1046.1 3.37729 2.5734 0
M  V30 11254 O 1047.13 2.87374 2.10463 0
M  V30 11255 O 1045.98 4.25589 3.42836 0
M  V30 11256 H 1043.08 0.621132 0.546007 0
M  V30 11257 H 1045.62 1.63682 0.447931 0
M  V30 11258 H 1044.4 3.67291 1.34955 0
M  V30 11259 H 1044.02 2.79815 2.8247 0
M  V30 11260 N 1045.02 -0.694098 1.41492 0
M  V30 11261 C 1045.93 -1.83778 1.45818 0
M  V30 11262 C 1046.94 -1.70471 0.348639 0
M  V30 11263 O 1048.12 -1.92361 0.596588 0
M  V30 11264 C 1045.18 -3.19771 1.33967 0
M  V30 11265 C 1044.24 -3.45175 2.5525 0
M  V30 11266 C 1043.48 -4.74681 2.43955 0
M  V30 11267 O 1043.7 -5.51268 1.46491 0
M  V30 11268 O 1042.63 -5.00901 3.33739 0
M  V30 11269 H 1046.46 -1.83084 2.42309 0
M  V30 11270 H 1044.05 -0.847349 1.23046 0
M  V30 11271 H 1045.93 -4.00961 1.29648 0
M  V30 11272 H 1044.6 -3.21145 0.405926 0
M  V30 11273 H 1043.51 -2.6391 2.65146 0
M  V30 11274 H 1044.84 -3.48617 3.47458 0
M  V30 11275 N 1046.49 -1.27344 -0.928501 0
M  V30 11276 C 1047.91 -1.04732 -1.2043 0
M  V30 11277 C 1048.11 0.219623 -2.003 0
M  V30 11278 O 1047.17 0.925333 -2.34934 0
M  V30 11279 C 1048.48 -2.28625 -1.95323 0
M  V30 11280 C 1050.03 -2.33655 -2.08265 0
M  V30 11281 C 1050.5 -3.57275 -2.86563 0
M  V30 11282 N 1051.99 -3.57828 -2.94132 0
M  V30 11283 C 1052.73 -4.50152 -3.55177 0
M  V30 11284 N 1052.22 -5.52779 -4.17621 0
M  V30 11285 N 1054.02 -4.37777 -3.52573 0
M  V30 11286 H 1046.17 -2.08697 -0.394892 0
M  V30 11287 H 1048.43 -0.91782 -0.2373 0
M  V30 11288 H 1048.14 -3.20845 -1.44054 0
M  V30 11289 H 1048.01 -2.33878 -2.95941 0
M  V30 11290 H 1050.4 -1.41942 -2.58721 0
M  V30 11291 H 1050.48 -2.32406 -1.0687 0
M  V30 11292 H 1050.12 -4.49325 -2.3679 0
M  V30 11293 H 1050.05 -3.55775 -3.88242 0
M  V30 11294 H 1052.54 -2.83607 -2.49751 0
M  V30 11295 H 1052.86 -6.19394 -4.62137 0
M  V30 11296 H 1051.2 -5.56622 -4.16169 0
M  V30 11297 H 1054.39 -3.56811 -3.02991 0
M  V30 11298 H 1054.57 -5.09919 -3.99858 0
M  V30 11299 N 1047.97 1.13488 -1.09353 0
M  V30 11300 C 1049.22 1.841 -0.82401 0
M  V30 11301 C 1049.53 1.84393 0.652586 0
M  V30 11302 O 1050.74 2.5089 1.03762 0
M  V30 11303 C 1049.2 3.30523 -1.42418 0
M  V30 11304 C 1048.8 3.38621 -2.93326 0
M  V30 11305 C 1050.55 4.06182 -1.23356 0
M  V30 11306 C 1048.46 4.79311 -3.46432 0
M  V30 11307 H 1047.39 0.68974 -0.304589 0
M  V30 11308 H 1050.04 1.27866 -1.31615 0
M  V30 11309 H 1048.42 3.86555 -0.859727 0
M  V30 11310 H 1049.59 2.92587 -3.5599 0
M  V30 11311 H 1047.91 2.76426 -3.11412 0
M  V30 11312 H 1050.5 5.10047 -1.60488 0
M  V30 11313 H 1050.85 4.15936 -0.174152 0
M  V30 11314 H 1051.38 3.56477 -1.76547 0
M  V30 11315 H 1048.12 4.74748 -4.5199 0
M  V30 11316 H 1047.64 5.25842 -2.8853 0
M  V30 11317 H 1049.32 5.48227 -3.43593 0
M  V30 11318 N 1049.45 0.880621 1.30701 0
M  V30 11319 C 1050.7 0.495894 1.95922 0
M  V30 11320 C 1051.02 -0.957214 1.69889 0
M  V30 11321 O 1050.29 -1.67245 1.0201 0
M  V30 11322 H 1048.87 0.180394 0.724891 0
M  V30 11323 H 1051.53 1.12274 1.59313 0
M  V30 11324 H 1050.63 0.662508 3.04987 0
M  V30 11325 N 1050.93 -1.4397 0.641131 0
M  V30 11326 C 1051.86 -2.28997 -0.0963315 0
M  V30 11327 C 1052.87 -1.4184 -0.799071 0
M  V30 11328 O 1054.06 -1.65896 -0.658846 0
M  V30 11329 C 1051.16 -3.18465 -1.15903 0
M  V30 11330 C 1050.34 -4.34093 -0.536828 0
M  V30 11331 C 1049.4 -5.04522 -1.4948 0
M  V30 11332 O 1048.42 -5.60202 -1.00807 0
M  V30 11333 N 1049.62 -5.06899 -2.82901 0
M  V30 11334 H 1052.39 -2.9293 0.633422 0
M  V30 11335 H 1049.95 -1.54527 0.48302 0
M  V30 11336 H 1051.94 -3.62445 -1.80044 0
M  V30 11337 H 1050.51 -2.56214 -1.79089 0
M  V30 11338 H 1049.73 -3.9318 0.283414 0
M  V30 11339 H 1051.02 -5.08698 -0.101966 0
M  V30 11340 H 1050.42 -4.63012 -3.25017 0
M  V30 11341 H 1048.97 -5.54637 -3.42376 0
M  V30 11342 N 1052.41 -0.382291 -1.52893 0
M  V30 11343 C 1053.34 0.447829 -2.29165 0
M  V30 11344 C 1054.32 1.06956 -1.32267 0
M  V30 11345 O 1055.5 1.08365 -1.61154 0
M  V30 11346 C 1052.63 1.57902 -3.09329 0
M  V30 11347 C 1051.59 1.08369 -4.14053 0
M  V30 11348 C 1050.91 2.30641 -4.82399 0
M  V30 11349 C 1052.21 0.156591 -5.22065 0
M  V30 11350 H 1053.91 -0.188541 -2.98806 0
M  V30 11351 H 1051.45 -0.0921179 -1.43705 0
M  V30 11352 H 1053.41 2.16652 -3.61442 0
M  V30 11353 H 1052.13 2.24287 -2.37409 0
M  V30 11354 H 1050.79 0.518772 -3.62911 0
M  V30 11355 H 1050.44 2.9552 -4.07034 0
M  V30 11356 H 1050.14 1.98163 -5.53177 0
M  V30 11357 H 1051.66 2.90047 -5.37313 0
M  V30 11358 H 1053.08 0.652065 -5.6958 0
M  V30 11359 H 1051.47 -0.0780978 -6.00049 0
M  V30 11360 H 1052.54 -0.796529 -4.78313 0
M  V30 11361 N 1053.89 1.57202 -0.111913 0
M  V30 11362 C 1055.13 1.94565 0.546713 0
M  V30 11363 C 1055.45 0.995644 1.67666 0
M  V30 11364 O 1054.72 0.0506681 1.95834 0
M  V30 11365 H 1053.3 0.718334 0.204951 0
M  V30 11366 H 1055.97 1.94074 -0.179193 0
M  V30 11367 H 1055.06 2.9742 0.945931 0
M  V30 11368 N 1055.36 -0.161842 1.56767 0
M  V30 11369 C 1056.33 -1.18404 1.96247 0
M  V30 11370 C 1057.33 -1.3667 0.84722 0
M  V30 11371 O 1058.52 -1.33915 1.11411 0
M  V30 11372 C 1055.65 -2.54728 2.26553 0
M  V30 11373 H 1056.84 -0.845703 2.87729 0
M  V30 11374 H 1054.39 -0.404645 1.50971 0
M  V30 11375 H 1055.13 -2.93559 1.37816 0
M  V30 11376 H 1054.91 -2.42834 3.07854 0
M  V30 11377 H 1056.4 -3.28378 2.57987 0
M  V30 11378 N 1056.84 -1.516 -0.430713 0
M  V30 11379 C 1057.75 -1.76247 -1.54836 0
M  V30 11380 C 1058.77 -0.646985 -1.61524 0
M  V30 11381 O 1059.94 -0.929987 -1.78643 0
M  V30 11382 C 1057.01 -1.88833 -2.90763 0
M  V30 11383 C 1056.07 -3.12701 -2.94137 0
M  V30 11384 C 1055.3 -3.24676 -4.23581 0
M  V30 11385 O 1055.53 -2.42429 -5.16318 0
M  V30 11386 O 1054.46 -4.17697 -4.33374 0
M  V30 11387 H 1058.29 -2.71069 -1.3695 0
M  V30 11388 H 1055.87 -1.36182 -0.614396 0
M  V30 11389 H 1057.75 -1.99057 -3.71422 0
M  V30 11390 H 1056.43 -0.971987 -3.08762 0
M  V30 11391 H 1055.33 -3.0795 -2.1241 0
M  V30 11392 H 1056.67 -4.04045 -2.81084 0
M  V30 11393 N 1058.32 0.686584 -1.41858 0
M  V30 11394 C 1059.57 1.44379 -1.41418 0
M  V30 11395 C 1059.89 1.94981 -0.0273696 0
M  V30 11396 O 1059.16 1.72296 0.932248 0
M  V30 11397 H 1057.74 0.53574 -0.520568 0
M  V30 11398 H 1060.4 0.812056 -1.77177 0
M  V30 11399 H 1059.5 2.30258 -2.10684 0
M  V30 11400 N 1059.8 1.27835 0.921735 0
M  V30 11401 C 1060.73 1.136 2.04003 0
M  V30 11402 C 1061.71 0.0358756 1.70062 0
M  V30 11403 O 1062.89 0.211438 1.93046 0
M  V30 11404 C 1060.02 0.788697 3.38226 0
M  V30 11405 C 1058.98 1.84272 3.863 0
M  V30 11406 C 1058.3 1.34923 5.17397 0
M  V30 11407 C 1059.6 3.24788 4.09035 0
M  V30 11408 H 1061.3 2.07149 2.1617 0
M  V30 11409 H 1058.84 0.997349 1.0387 0
M  V30 11410 H 1060.8 0.675911 4.15944 0
M  V30 11411 H 1059.52 -0.182499 3.2609 0
M  V30 11412 H 1058.18 1.94451 3.1078 0
M  V30 11413 H 1057.83 0.367328 5.01657 0
M  V30 11414 H 1057.53 2.05397 5.50532 0
M  V30 11415 H 1059.05 1.24951 5.97678 0
M  V30 11416 H 1060.47 3.17575 4.77304 0
M  V30 11417 H 1058.86 3.93025 4.53488 0
M  V30 11418 H 1059.93 3.69398 3.14122 0
M  V30 11419 N 1061.28 -1.12907 1.09954 0
M  V30 11420 C 1062.5 -1.88138 0.860905 0
M  V30 11421 C 1062.92 -1.79402 -0.588256 0
M  V30 11422 O 1062.28 -1.16442 -1.40526 0
M  V30 11423 C 1062.33 -3.37537 1.29425 0
M  V30 11424 O 1062.05 -3.46056 2.68658 0
M  V30 11425 C 1063.55 -4.29721 1.08879 0
M  V30 11426 H 1060.77 -0.595437 0.309347 0
M  V30 11427 H 1063.31 -1.42894 1.46292 0
M  V30 11428 H 1061.47 -3.80344 0.736009 0
M  V30 11429 H 1061.88 -4.38969 2.87065 0
M  V30 11430 H 1063.36 -5.32854 1.4412 0
M  V30 11431 H 1063.83 -4.39192 0.0270053 0
M  V30 11432 H 1064.44 -3.9269 1.63325 0
M  V30 11433 N 1062.75 -0.88754 -1.30232 0
M  V30 11434 C 1063.98 -0.522306 -2.00199 0
M  V30 11435 C 1064.4 0.889866 -1.66514 0
M  V30 11436 O 1063.75 1.58558 -0.903639 0
M  V30 11437 C 1063.8 -0.690551 -3.54843 0
M  V30 11438 O 1063.53 -2.04713 -3.8733 0
M  V30 11439 C 1065.03 -0.328649 -4.4208 0
M  V30 11440 H 1062.25 -0.201628 -0.63999 0
M  V30 11441 H 1064.79 -1.19355 -1.66056 0
M  V30 11442 H 1062.95 -0.0666493 -3.87343 0
M  V30 11443 H 1063.36 -2.06762 -4.82027 0
M  V30 11444 H 1064.83 -0.497257 -5.49756 0
M  V30 11445 H 1065.31 0.733502 -4.33032 0
M  V30 11446 H 1065.92 -0.928982 -4.1503 0
M  V30 11447 N 1064.23 1.43628 -0.648757 0
M  V30 11448 C 1065.46 2.06217 -0.167945 0
M  V30 11449 C 1065.88 1.486 1.16462 0
M  V30 11450 O 1065.23 0.61559 1.71804 0
M  V30 11451 C 1065.28 3.6144 -0.0660114 0
M  V30 11452 O 1065 4.16914 -1.34589 0
M  V30 11453 C 1066.51 4.41097 0.441408 0
M  V30 11454 H 1063.73 0.665228 -0.0878237 0
M  V30 11455 H 1066.27 1.84207 -0.888144 0
M  V30 11456 H 1064.42 3.82651 0.604722 0
M  V30 11457 H 1064.84 5.10537 -1.20218 0
M  V30 11458 H 1066.31 5.50066 0.461697 0
M  V30 11459 H 1066.79 4.13803 1.47187 0
M  V30 11460 H 1067.4 4.24845 -0.19668 0
M  V30 11461 N 1065.71 0.390394 1.52688 0
M  V30 11462 C 1066.96 -0.184195 2.02564 0
M  V30 11463 C 1067.31 -1.44379 1.27171 0
M  V30 11464 O 1066.6 -1.88112 0.36395 0
M  V30 11465 C 1066.8 -0.50468 3.53819 0
M  V30 11466 C 1066.63 0.722304 4.43861 0
M  V30 11467 C 1065.4 1.24189 4.89801 0
M  V30 11468 C 1067.6 1.59494 4.88944 0
M  V30 11469 N 1065.58 2.42631 5.63918 0
M  V30 11470 C 1066.95 2.62577 5.61652 0
M  V30 11471 C 1069 1.61491 4.70983 0
M  V30 11472 C 1067.71 3.67544 6.18307 0
M  V30 11473 C 1069.73 2.65365 5.28522 0
M  V30 11474 C 1069.09 3.6717 6.01137 0
M  V30 11475 H 1065.19 -0.0294605 0.781445 0
M  V30 11476 H 1067.78 0.54053 1.87046 0
M  V30 11477 H 1065.95 -1.19846 3.69448 0
M  V30 11478 H 1067.68 -1.06652 3.90394 0
M  V30 11479 H 1064.44 0.802731 4.66747 0
M  V30 11480 H 1064.86 3.02564 6.05627 0
M  V30 11481 H 1069.5 0.841291 4.14345 0
M  V30 11482 H 1067.22 4.45773 6.74027 0
M  V30 11483 H 1070.81 2.67795 5.16505 0
M  V30 11484 H 1069.69 4.46228 6.44864 0
M  V30 11485 N 1067.19 -1.57141 0.120249 0
M  V30 11486 C 1068.14 -2.15379 -0.829497 0
M  V30 11487 C 1069.11 -1.07913 -1.2627 0
M  V30 11488 O 1070.29 -1.35827 -1.33999 0
M  V30 11489 C 1067.43 -2.75847 -2.0737 0
M  V30 11490 C 1066.54 -3.97624 -1.68875 0
M  V30 11491 C 1065.68 -4.46175 -2.88272 0
M  V30 11492 C 1064.72 -5.60481 -2.46023 0
M  V30 11493 N 1063.85 -6.0377 -3.58337 0
M  V30 11494 H 1068.69 -2.96211 -0.326031 0
M  V30 11495 H 1066.23 -1.46341 -0.149235 0
M  V30 11496 H 1068.19 -3.09037 -2.80272 0
M  V30 11497 H 1066.82 -1.97703 -2.55174 0
M  V30 11498 H 1065.87 -3.70588 -0.858431 0
M  V30 11499 H 1067.18 -4.80512 -1.33827 0
M  V30 11500 H 1066.34 -4.8128 -3.69397 0
M  V30 11501 H 1065.08 -3.6224 -3.26548 0
M  V30 11502 H 1064.08 -5.24979 -1.63331 0
M  V30 11503 H 1065.31 -6.46184 -2.08863 0
M  V30 11504 H 1063.25 -5.22776 -3.96284 0
M  V30 11505 H 1063.17 -6.81517 -3.27217 0
M  V30 11506 H 1064.44 -6.43514 -4.39898 0
M  V30 11507 N 1068.67 0.153526 -1.5685 0
M  V30 11508 C 1069.58 1.20932 -2.01029 0
M  V30 11509 C 1070.59 1.47401 -0.924598 0
M  V30 11510 O 1071.77 1.592 -1.23359 0
M  V30 11511 C 1068.83 2.52438 -2.37647 0
M  V30 11512 C 1067.89 2.33673 -3.60132 0
M  V30 11513 C 1067.13 3.58909 -3.94994 0
M  V30 11514 O 1067.35 4.64823 -3.30599 0
M  V30 11515 O 1066.28 3.5196 -4.8827 0
M  V30 11516 H 1070.11 0.864273 -2.91143 0
M  V30 11517 H 1067.7 0.361755 -1.44954 0
M  V30 11518 H 1069.58 3.29981 -2.62088 0
M  V30 11519 H 1068.25 2.86486 -1.5069 0
M  V30 11520 H 1067.16 1.54102 -3.40886 0
M  V30 11521 H 1068.49 2.04544 -4.47686 0
M  V30 11522 N 1070.14 1.51827 0.422667 0
M  V30 11523 C 1071.37 1.68803 1.19117 0
M  V30 11524 C 1071.78 0.391228 1.85111 0
M  V30 11525 O 1071.13 -0.64148 1.72136 0
M  V30 11526 C 1071.19 2.75767 2.30636 0
M  V30 11527 C 1070.85 4.17929 1.8489 0
M  V30 11528 C 1071.85 5.02223 1.34416 0
M  V30 11529 C 1069.53 4.641 1.92136 0
M  V30 11530 C 1071.53 6.30756 0.917925 0
M  V30 11531 C 1069.21 5.92626 1.49123 0
M  V30 11532 C 1070.21 6.75782 0.990352 0
M  V30 11533 O 1069.9 8.01902 0.566386 0
M  V30 11534 H 1069.63 0.569303 0.364514 0
M  V30 11535 H 1072.19 1.9909 0.505208 0
M  V30 11536 H 1070.42 2.40827 3.02555 0
M  V30 11537 H 1072.11 2.81476 2.92448 0
M  V30 11538 H 1072.87 4.67749 1.28202 0
M  V30 11539 H 1068.75 3.99488 2.30066 0
M  V30 11540 H 1072.29 6.95612 0.52628 0
M  V30 11541 H 1068.19 6.26611 1.55012 0
M  V30 11542 H 1068.96 8.15579 0.690918 0
M  V30 11543 N 1071.62 -0.679052 1.4222 0
M  V30 11544 C 1072.85 -1.47248 1.46058 0
M  V30 11545 C 1073.27 -1.87962 0.0720987 0
M  V30 11546 O 1072.63 -1.5572 -0.928488 0
M  V30 11547 C 1072.68 -2.70067 2.38948 0
M  V30 11548 O 1071.78 -3.68178 1.85791 0
M  V30 11549 H 1071.12 -0.442533 0.495036 0
M  V30 11550 H 1073.65 -0.833263 1.86863 0
M  V30 11551 H 1073.66 -3.18187 2.55385 0
M  V30 11552 H 1072.34 -2.39773 3.39826 0
M  V30 11553 H 1070.92 -3.2719 1.78889 0
M  V30 11554 N 1073.1 -1.28322 -0.914942 0
M  V30 11555 C 1074.51 -1.13937 -1.47903 0
M  V30 11556 C 1074.86 0.271072 -1.94318 0
M  V30 11557 O 1073.99 1.16522 -1.8235 0
M  V30 11558 C 1074.58 -2.06221 -2.68809 0
M  V30 11559 C 1073.14 -1.95903 -3.21402 0
M  V30 11560 C 1072.29 -1.98031 -1.94111 0
M  V30 11561 H 1075.24 -1.41029 -0.727772 0
M  V30 11562 H 1075.26 -1.6255 -3.44031 0
M  V30 11563 H 1074.77 -3.08866 -2.34997 0
M  V30 11564 H 1072.87 -0.962907 -3.59943 0
M  V30 11565 H 1072.99 -2.82799 -3.86732 0
M  V30 11566 H 1071.35 -1.42423 -2.11158 0
M  V30 11567 H 1072.13 -3.02354 -1.62595 0
M  V30 11568 N 1074.58 1.12322 -1.10551 0
M  V30 11569 C 1075.83 1.83495 -0.846998 0
M  V30 11570 C 1076.15 1.8457 0.629205 0
M  V30 11571 O 1075.42 1.30968 1.45686 0
M  V30 11572 H 1074 0.679479 -0.310351 0
M  V30 11573 H 1076.66 1.36004 -1.39602 0
M  V30 11574 H 1075.76 2.87651 -1.21092 0
M  V30 11575 N 1076.06 0.894434 1.2976 0
M  V30 11576 C 1076.99 0.312806 2.26046 0
M  V30 11577 C 1077.97 -0.572024 1.52206 0
M  V30 11578 O 1079.15 -0.520009 1.81185 0
M  V30 11579 C 1076.28 -0.554624 3.34128 0
M  V30 11580 C 1075.32 0.262168 4.25693 0
M  V30 11581 S 1076.16 1.65656 5.09233 0
M  V30 11582 C 1077.31 0.795914 6.20819 0
M  V30 11583 H 1077.55 1.12895 2.75031 0
M  V30 11584 H 1075.08 0.694446 1.37901 0
M  V30 11585 H 1077.04 -1.04933 3.96862 0
M  V30 11586 H 1075.7 -1.34495 2.83848 0
M  V30 11587 H 1074.89 -0.400216 5.02408 0
M  V30 11588 H 1074.49 0.689829 3.67583 0
M  V30 11589 H 1076.79 0.0169942 6.77498 0
M  V30 11590 H 1077.73 1.53497 6.91263 0
M  V30 11591 H 1078.14 0.35263 5.63398 0
M  V30 11592 N 1077.53 -1.43282 0.656365 0
M  V30 11593 C 1078.48 -2.30776 -0.0333155 0
M  V30 11594 C 1079.45 -1.44928 -0.811493 0
M  V30 11595 O 1080.64 -1.73792 -0.787465 0
M  V30 11596 C 1077.78 -3.30548 -0.991566 0
M  V30 11597 C 1076.89 -4.31493 -0.209159 0
M  V30 11598 C 1076.02 -5.18346 -1.16149 0
M  V30 11599 C 1075.06 -6.10983 -0.369699 0
M  V30 11600 N 1074.2 -6.90449 -1.27378 0
M  V30 11601 H 1079.04 -2.89204 0.718668 0
M  V30 11602 H 1076.58 -1.4247 0.366161 0
M  V30 11603 H 1078.54 -3.86905 -1.56078 0
M  V30 11604 H 1077.17 -2.73762 -1.71039 0
M  V30 11605 H 1076.22 -3.77405 0.476394 0
M  V30 11606 H 1077.53 -4.97142 0.406394 0
M  V30 11607 H 1076.68 -5.79345 -1.80124 0
M  V30 11608 H 1075.42 -4.52831 -1.81095 0
M  V30 11609 H 1074.43 -5.49069 0.283377 0
M  V30 11610 H 1075.65 -6.78541 0.275399 0
M  V30 11611 H 1073.6 -6.27579 -1.90999 0
M  V30 11612 H 1073.52 -7.52631 -0.71287 0
M  V30 11613 H 1074.78 -7.5595 -1.90158 0
M  V30 11614 N 1079.01 -0.398486 -1.52479 0
M  V30 11615 C 1079.94 0.423498 -2.29627 0
M  V30 11616 C 1080.92 1.05547 -1.33394 0
M  V30 11617 O 1082.11 1.0665 -1.62294 0
M  V30 11618 C 1079.24 1.54612 -3.10986 0
M  V30 11619 C 1078.19 1.03971 -4.15179 0
M  V30 11620 C 1077.52 2.25512 -4.84818 0
M  V30 11621 C 1078.82 0.10121 -5.22202 0
M  V30 11622 H 1080.51 -0.220222 -2.98589 0
M  V30 11623 H 1078.06 -0.107355 -1.43599 0
M  V30 11624 H 1080.01 2.12806 -3.63719 0
M  V30 11625 H 1078.74 2.21756 -2.39774 0
M  V30 11626 H 1077.4 0.480251 -3.63441 0
M  V30 11627 H 1077.04 2.91187 -4.10145 0
M  V30 11628 H 1076.74 1.92285 -5.55248 0
M  V30 11629 H 1078.27 2.84331 -5.40359 0
M  V30 11630 H 1079.68 0.591617 -5.70239 0
M  V30 11631 H 1078.08 -0.141737 -5.99933 0
M  V30 11632 H 1079.15 -0.847216 -4.77441 0
M  V30 11633 N 1080.49 1.57075 -0.12858 0
M  V30 11634 C 1081.4 2.19369 0.831533 0
M  V30 11635 C 1082.42 1.17258 1.28555 0
M  V30 11636 O 1083.59 1.49766 1.34656 0
M  V30 11637 C 1080.66 2.78846 2.06024 0
M  V30 11638 C 1079.72 3.96024 1.65722 0
M  V30 11639 C 1078.95 4.52655 2.82735 0
M  V30 11640 O 1079.18 4.08175 3.98434 0
M  V30 11641 O 1078.11 5.43198 2.59268 0
M  V30 11642 H 1081.94 3.01887 0.331352 0
M  V30 11643 H 1079.52 1.49081 0.0975226 0
M  V30 11644 H 1081.4 3.16721 2.77967 0
M  V30 11645 H 1080.08 1.99353 2.5503 0
M  V30 11646 H 1078.98 3.62899 0.908574 0
M  V30 11647 H 1080.32 4.76981 1.21449 0
M  V30 11648 N 1081.97 -0.145205 1.5693 0
M  V30 11649 C 1083.25 -0.88631 1.74367 0
M  V30 11650 C 1083.63 -1.99259 0.697081 0
M  V30 11651 O 1082.97 -2.26732 -0.28368 0
M  V30 11652 C 1083.18 -1.42712 3.18488 0
M  V30 11653 C 1084.53 -1.88982 3.80225 0
M  V30 11654 O 1085.56 -1.5245 3.21928 0
M  V30 11655 O 1084.42 -2.56361 4.8264 0
M  V30 11656 H 1081.51 -0.418979 0.713011 0
M  V30 11657 H 1084.06 -0.130991 1.69194 0
M  V30 11658 H 1082.83 -0.632165 3.8616 0
M  V30 11659 H 1082.45 -2.24589 3.28094 0
M  V30 11660 N 1083.45 -1.52049 -0.414609 0
M  V30 11661 C 1084.68 -1.69679 -1.18392 0
M  V30 11662 C 1085.09 -0.403881 -1.84429 0
M  V30 11663 O 1084.45 0.619636 -1.71659 0
M  V30 11664 C 1084.5 -2.82855 -2.25112 0
M  V30 11665 O 1084.22 -4.07138 -1.61772 0
M  V30 11666 C 1085.72 -3.11948 -3.14965 0
M  V30 11667 H 1082.94 -0.56879 -0.355977 0
M  V30 11668 H 1085.48 -1.9858 -0.488505 0
M  V30 11669 H 1083.64 -2.56488 -2.90332 0
M  V30 11670 H 1084.05 -4.70163 -2.32479 0
M  V30 11671 H 1085.53 -3.94665 -3.85932 0
M  V30 11672 H 1086 -2.25276 -3.77024 0
M  V30 11673 H 1086.61 -3.40059 -2.55421 0
M  V30 11674 N 1084.93 0.6715 -1.42579 0
M  V30 11675 C 1085.86 1.79625 -1.40749 0
M  V30 11676 C 1086.84 1.6032 -0.271312 0
M  V30 11677 O 1088.02 1.82749 -0.46205 0
M  V30 11678 C 1085.15 3.16672 -1.20153 0
M  V30 11679 C 1084.19 3.54718 -2.36807 0
M  V30 11680 S 1085.03 3.56771 -3.99343 0
M  V30 11681 C 1086.18 4.96505 -3.81095 0
M  V30 11682 H 1086.42 1.80903 -2.35926 0
M  V30 11683 H 1083.95 0.842469 -1.2939 0
M  V30 11684 H 1085.91 3.95776 -1.08956 0
M  V30 11685 H 1084.57 3.12976 -0.265545 0
M  V30 11686 H 1083.76 4.54341 -2.18152 0
M  V30 11687 H 1083.36 2.82982 -2.44535 0
M  V30 11688 H 1085.65 5.84674 -3.4229 0
M  V30 11689 H 1086.6 5.20207 -4.80406 0
M  V30 11690 H 1087.01 4.69178 -3.13898 0
M  V30 11691 N 1086.4 1.28806 0.908124 0
M  V30 11692 C 1087.65 1.1646 1.66027 0
M  V30 11693 C 1087.98 -0.285025 1.92097 0
M  V30 11694 O 1087.26 -1.20675 1.52538 0
M  V30 11695 C 1087.54 1.96951 3.01467 0
M  V30 11696 C 1087.39 3.50007 2.82515 0
M  V30 11697 C 1088.71 1.78932 4.02084 0
M  V30 11698 H 1085.83 0.424435 0.602515 0
M  V30 11699 H 1088.47 1.58185 1.0525 0
M  V30 11700 H 1086.62 1.61495 3.53344 0
M  V30 11701 H 1088.3 3.95401 2.37605 0
M  V30 11702 H 1086.54 3.75356 2.17463 0
M  V30 11703 H 1087.21 4.01591 3.7872 0
M  V30 11704 H 1089.69 2.09885 3.59287 0
M  V30 11705 H 1088.56 2.37615 4.94803 0
M  V30 11706 H 1088.82 0.742286 4.35824 0
M  V30 11707 N 1087.88 -1.11734 1.11145 0
M  V30 11708 C 1089.13 -1.82766 0.853194 0
M  V30 11709 C 1089.44 -1.85408 -0.623168 0
M  V30 11710 O 1090.65 -2.52509 -0.997574 0
M  V30 11711 C 1089.11 -3.28215 1.47658 0
M  V30 11712 C 1088.71 -3.33911 2.98676 0
M  V30 11713 C 1090.46 -4.04168 1.29803 0
M  V30 11714 C 1088.36 -4.73739 3.54013 0
M  V30 11715 H 1087.29 -0.684807 0.315523 0
M  V30 11716 H 1089.95 -1.25756 1.33633 0
M  V30 11717 H 1088.33 -3.85138 0.921116 0
M  V30 11718 H 1089.5 -2.86887 3.606 0
M  V30 11719 H 1087.82 -2.71437 3.15771 0
M  V30 11720 H 1090.41 -5.07429 1.68582 0
M  V30 11721 H 1090.76 -4.15606 0.240302 0
M  V30 11722 H 1091.29 -3.53623 1.82196 0
M  V30 11723 H 1088.03 -4.67497 4.59485 0
M  V30 11724 H 1087.55 -5.21186 2.9686 0
M  V30 11725 H 1089.23 -5.42691 3.52271 0
M  V30 11726 N 1089.36 -0.901303 -1.29284 0
M  V30 11727 C 1090.32 -0.385081 -2.25942 0
M  V30 11728 C 1091.32 0.481626 -1.53418 0
M  V30 11729 O 1092.51 0.286451 -1.71829 0
M  V30 11730 C 1089.64 0.449319 -3.37926 0
M  V30 11731 H 1090.84 -1.23877 -2.7312 0
M  V30 11732 H 1088.39 -0.679586 -1.40753 0
M  V30 11733 H 1089.13 1.32292 -2.9609 0
M  V30 11734 H 1088.91 -0.171731 -3.91724 0
M  V30 11735 H 1090.4 0.801746 -4.09831 0
M  V30 11736 N 1090.84 1.42931 -0.663954 0
M  V30 11737 C 1092.08 2.02505 -0.190647 0
M  V30 11738 C 1092.44 1.51506 1.18591 0
M  V30 11739 O 1091.73 0.702962 1.78239 0
M  V30 11740 C 1091.93 3.57072 -0.153163 0
M  V30 11741 C 1091.75 4.23069 -1.52454 0
M  V30 11742 C 1090.52 4.58694 -2.11961 0
M  V30 11743 C 1092.72 4.51373 -2.46509 0
M  V30 11744 N 1090.7 5.09818 -3.41993 0
M  V30 11745 C 1092.08 5.03931 -3.61184 0
M  V30 11746 C 1094.13 4.33351 -2.45176 0
M  V30 11747 C 1092.83 5.40362 -4.74765 0
M  V30 11748 C 1094.86 4.70851 -3.57845 0
M  V30 11749 C 1094.22 5.23551 -4.71246 0
M  V30 11750 H 1090.32 0.773581 -0.114438 0
M  V30 11751 H 1092.9 1.73951 -0.874589 0
M  V30 11752 H 1091.08 3.85166 0.500156 0
M  V30 11753 H 1092.81 4.03336 0.332015 0
M  V30 11754 H 1089.56 4.44091 -1.6456 0
M  V30 11755 H 1089.99 5.39821 -4.08561 0
M  V30 11756 H 1094.63 3.91871 -1.58735 0
M  V30 11757 H 1092.35 5.8078 -5.6189 0
M  V30 11758 H 1095.93 4.58593 -3.58028 0
M  V30 11759 H 1094.81 5.52029 -5.56986 0
M  V30 11760 N 1092.32 0.406567 1.52266 0
M  V30 11761 C 1093.56 -0.169611 2.03695 0
M  V30 11762 C 1093.92 -1.42596 1.2857 0
M  V30 11763 O 1095.12 -2.08041 1.70212 0
M  V30 11764 C 1093.39 -0.413924 3.54995 0
M  V30 11765 S 1094.95 -0.957916 4.28217 0
M  V30 11766 H 1091.77 -0.0462362 0.709495 0
M  V30 11767 H 1094.37 0.558895 1.87341 0
M  V30 11768 H 1093.07 0.507285 4.07253 0
M  V30 11769 H 1092.61 -1.17038 3.75587 0
M  V30 11770 H 1094.62 -2.2387 4.42828 0
M  V30 11771 N 1093.79 -1.57004 0.136909 0
M  V30 11772 C 1094.7 -2.19807 -0.819887 0
M  V30 11773 C 1095.72 -1.17939 -1.27932 0
M  V30 11774 O 1096.9 -1.50478 -1.3386 0
M  V30 11775 C 1093.96 -2.79935 -2.04542 0
M  V30 11776 C 1093.02 -3.96897 -1.6362 0
M  V30 11777 C 1092.26 -4.54148 -2.80331 0
M  V30 11778 O 1092.48 -4.10282 -3.96264 0
M  V30 11779 O 1091.41 -5.44565 -2.56384 0
M  V30 11780 H 1095.24 -3.02058 -0.315337 0
M  V30 11781 H 1092.82 -1.49131 -0.0896151 0
M  V30 11782 H 1094.71 -3.18191 -2.76283 0
M  V30 11783 H 1093.38 -2.00703 -2.53969 0
M  V30 11784 H 1092.29 -3.63376 -0.889316 0
M  V30 11785 H 1093.62 -4.77618 -1.18918 0
M  V30 11786 N 1095.27 0.136881 -1.57004 0
M  V30 11787 C 1096.55 0.87705 -1.74835 0
M  V30 11788 C 1096.93 1.98886 -0.707639 0
M  V30 11789 O 1096.28 2.26879 0.271652 0
M  V30 11790 C 1096.49 1.41021 -3.1924 0
M  V30 11791 C 1097.84 1.86963 -3.81222 0
M  V30 11792 O 1098.86 1.5074 -3.22732 0
M  V30 11793 O 1097.72 2.53798 -4.83993 0
M  V30 11794 H 1094.81 0.415192 -0.715223 0
M  V30 11795 H 1097.36 0.122016 -1.69261 0
M  V30 11796 H 1096.13 0.611677 -3.8649 0
M  V30 11797 H 1095.75 2.22846 -3.2928 0
M  V30 11798 N 1096.75 1.52266 0.40654 0
M  V30 11799 C 1098 1.66123 1.15097 0
M  V30 11800 C 1098.32 0.394836 1.90961 0
M  V30 11801 O 1097.59 -0.590349 1.86793 0
M  V30 11802 H 1096.17 0.612317 0.427875 0
M  V30 11803 H 1098.83 1.89318 0.463106 0
M  V30 11804 H 1097.93 2.50351 1.86361 0
M  V30 11805 N 1098.23 -0.663929 1.42933 0
M  V30 11806 C 1099.18 -1.77717 1.47259 0
M  V30 11807 C 1100.15 -1.62922 0.323387 0
M  V30 11808 O 1101.33 -1.83319 0.529021 0
M  V30 11809 C 1098.47 -3.15814 1.39124 0
M  V30 11810 C 1097.58 -3.4182 2.64165 0
M  V30 11811 C 1096.72 -4.69705 2.48094 0
M  V30 11812 C 1095.76 -4.88781 3.68456 0
M  V30 11813 N 1094.89 -6.07915 3.51261 0
M  V30 11814 H 1099.73 -1.73355 2.42388 0
M  V30 11815 H 1097.27 -0.846121 1.2033 0
M  V30 11816 H 1099.23 -3.95633 1.32403 0
M  V30 11817 H 1097.86 -3.19274 0.475829 0
M  V30 11818 H 1096.91 -2.56176 2.81208 0
M  V30 11819 H 1098.22 -3.51805 3.53602 0
M  V30 11820 H 1097.38 -5.57632 2.39021 0
M  V30 11821 H 1096.12 -4.62022 1.56164 0
M  V30 11822 H 1095.12 -3.99292 3.7795 0
M  V30 11823 H 1096.35 -4.98301 4.61381 0
M  V30 11824 H 1094.29 -6.01384 2.62057 0
M  V30 11825 H 1094.21 -6.1881 4.34293 0
M  V30 11826 H 1095.48 -6.98492 3.4602 0
M  V30 11827 N 1099.71 -1.29285 -0.901281 0
M  V30 11828 C 1100.64 -1.16832 -2.0217 0
M  V30 11829 C 1101.62 -0.0629265 -1.69984 0
M  V30 11830 O 1102.8 -0.242123 -1.92685 0
M  V30 11831 C 1099.93 -0.842406 -3.36929 0
M  V30 11832 C 1098.89 -1.90394 -3.8332 0
M  V30 11833 C 1098.21 -1.43138 -5.15185 0
M  V30 11834 C 1099.51 -3.31254 -4.03817 0
M  V30 11835 H 1101.21 -2.10562 -2.12847 0
M  V30 11836 H 1098.75 -1.01375 -1.0227 0
M  V30 11837 H 1100.71 -0.741999 -4.14816 0
M  V30 11838 H 1099.43 0.130598 -3.26339 0
M  V30 11839 H 1098.09 -1.99371 -3.07647 0
M  V30 11840 H 1097.74 -0.447091 -5.01009 0
M  V30 11841 H 1097.44 -2.14129 -5.47195 0
M  V30 11842 H 1098.96 -1.34444 -5.95615 0
M  V30 11843 H 1100.37 -3.25129 -4.72191 0
M  V30 11844 H 1098.77 -4.00189 -4.47178 0
M  V30 11845 H 1099.84 -3.74349 -3.08206 0
M  V30 11846 N 1101.18 1.11143 -1.11736 0
M  V30 11847 C 1102.12 2.16467 -0.722299 0
M  V30 11848 C 1103.1 1.60118 0.283006 0
M  V30 11849 O 1104.28 1.87651 0.178696 0
M  V30 11850 C 1101.41 3.38632 -0.0679339 0
M  V30 11851 C 1100.45 4.13654 -1.03888 0
M  V30 11852 S 1101.29 4.70187 -2.5629 0
M  V30 11853 C 1102.44 5.95671 -1.92163 0
M  V30 11854 H 1102.67 2.49644 -1.61447 0
M  V30 11855 H 1100.21 1.22816 -0.935708 0
M  V30 11856 H 1102.17 4.09378 0.303253 0
M  V30 11857 H 1100.83 3.03709 0.80124 0
M  V30 11858 H 1100.02 5.01221 -0.528522 0
M  V30 11859 H 1099.62 3.48683 -1.35265 0
M  V30 11860 H 1101.91 6.65681 -1.25994 0
M  V30 11861 H 1102.86 6.51357 -2.77741 0
M  V30 11862 H 1103.26 5.47359 -1.3805 0
M  V30 11863 N 1102.66 0.908147 1.28804 0
M  V30 11864 C 1103.89 0.553287 1.99054 0
M  V30 11865 C 1104.3 -0.868455 1.68091 0
M  V30 11866 O 1103.64 -1.58599 0.926939 0
M  V30 11867 C 1103.71 0.675823 3.5309 0
M  V30 11868 C 1103.37 2.06608 4.0763 0
M  V30 11869 C 1104.37 3.03819 4.21889 0
M  V30 11870 C 1102.05 2.37775 4.42457 0
M  V30 11871 C 1104.05 4.30316 4.7022 0
M  V30 11872 C 1101.73 3.64512 4.90484 0
M  V30 11873 C 1102.73 4.60597 5.04321 0
M  V30 11874 O 1102.42 5.85082 5.51302 0
M  V30 11875 H 1102.15 0.210152 0.642504 0
M  V30 11876 H 1104.7 1.22188 1.65104 0
M  V30 11877 H 1102.93 -0.0498253 3.86668 0
M  V30 11878 H 1104.62 0.328884 4.04565 0
M  V30 11879 H 1105.39 2.81057 3.95262 0
M  V30 11880 H 1101.27 1.63742 4.3094 0
M  V30 11881 H 1104.81 5.05318 4.80936 0
M  V30 11882 H 1100.71 3.87101 5.1655 0
M  V30 11883 H 1101.48 5.87791 5.69599 0
M  V30 11884 N 1104.14 -1.42577 0.671525 0
M  V30 11885 C 1105.07 -2.33499 0.00506984 0
M  V30 11886 C 1106.05 -1.50497 -0.792763 0
M  V30 11887 O 1107.24 -1.79109 -0.750574 0
M  V30 11888 C 1104.37 -3.34077 -0.949194 0
M  V30 11889 C 1103.32 -4.27208 -0.260187 0
M  V30 11890 C 1102.65 -5.17968 -1.32716 0
M  V30 11891 C 1103.95 -5.15192 0.858772 0
M  V30 11892 H 1105.64 -2.89477 0.764407 0
M  V30 11893 H 1103.19 -1.39191 0.369043 0
M  V30 11894 H 1105.14 -3.96594 -1.42448 0
M  V30 11895 H 1103.86 -2.76396 -1.73991 0
M  V30 11896 H 1102.52 -3.66082 0.194834 0
M  V30 11897 H 1102.17 -4.56615 -2.10979 0
M  V30 11898 H 1101.87 -5.81104 -0.871293 0
M  V30 11899 H 1103.39 -5.83359 -1.80345 0
M  V30 11900 H 1104.81 -5.71412 0.464844 0
M  V30 11901 H 1103.21 -5.87144 1.24023 0
M  V30 11902 H 1104.28 -4.53787 1.70895 0
M  V30 11903 N 1105.62 -0.414636 -1.52048 0
M  V30 11904 C 1106.55 0.443601 -2.24866 0
M  V30 11905 C 1107.56 1.00556 -1.28032 0
M  V30 11906 O 1108.75 0.903566 -1.53941 0
M  V30 11907 C 1105.85 1.63004 -2.97124 0
M  V30 11908 C 1105.03 1.191 -4.20873 0
M  V30 11909 C 1104.08 2.24497 -4.75907 0
M  V30 11910 O 1103.11 1.84861 -5.38345 0
M  V30 11911 N 1104.31 3.56727 -4.57959 0
M  V30 11912 H 1107.08 -0.180393 -2.99157 0
M  V30 11913 H 1104.64 -0.242305 -1.60077 0
M  V30 11914 H 1106.63 2.33089 -3.30835 0
M  V30 11915 H 1105.2 2.15984 -2.25986 0
M  V30 11916 H 1104.42 0.318059 -3.92915 0
M  V30 11917 H 1105.71 0.874699 -5.01225 0
M  V30 11918 H 1105.11 3.91675 -4.08175 0
M  V30 11919 H 1103.66 4.22772 -4.96092 0
M  V30 11920 N 1107.1 1.56929 -0.145233 0
M  V30 11921 C 1108.51 1.58196 0.211194 0
M  V30 11922 C 1108.71 1.15941 1.64803 0
M  V30 11923 O 1107.77 0.858888 2.37443 0
M  V30 11924 C 1109.08 3.00665 -0.0459569 0
M  V30 11925 C 1110.63 3.12995 0.0178913 0
M  V30 11926 C 1111.1 4.5751 -0.211905 0
M  V30 11927 N 1112.6 4.62928 -0.158772 0
M  V30 11928 C 1113.33 5.72555 -0.311111 0
M  V30 11929 N 1112.83 6.90838 -0.521074 0
M  V30 11930 N 1114.62 5.61549 -0.248838 0
M  V30 11931 H 1106.77 1.8269 -1.08342 0
M  V30 11932 H 1109.03 0.845514 -0.428731 0
M  V30 11933 H 1108.74 3.35962 -1.0403 0
M  V30 11934 H 1108.61 3.71125 0.674246 0
M  V30 11935 H 1111 2.7754 1.00278 0
M  V30 11936 H 1111.08 2.45025 -0.734612 0
M  V30 11937 H 1110.73 4.93669 -1.19389 0
M  V30 11938 H 1110.66 5.23604 0.560901 0
M  V30 11939 H 1113.15 3.779 -0.00107283 0
M  V30 11940 H 1113.46 7.70248 -0.62747 0
M  V30 11941 H 1111.8 6.92761 -0.557374 0
M  V30 11942 H 1115 4.68022 -0.0855821 0
M  V30 11943 H 1115.17 6.46937 -0.370997 0
M  V30 11944 N 1108.58 -0.128553 1.57075 0
M  V30 11945 C 1109.82 -0.844012 1.86161 0
M  V30 11946 C 1110.18 -1.77499 0.73198 0
M  V30 11947 O 1111.38 -2.5313 0.904357 0
M  V30 11948 C 1109.65 -1.58238 3.20462 0
M  V30 11949 S 1111.21 -2.34073 3.71154 0
M  V30 11950 H 1108.03 -0.281884 0.652734 0
M  V30 11951 H 1110.63 -0.102902 1.95229 0
M  V30 11952 H 1109.33 -0.890246 4.00628 0
M  V30 11953 H 1108.87 -2.36404 3.14446 0
M  V30 11954 H 1110.88 -3.59617 3.41892 0
M  V30 11955 N 1110.05 -1.5248 -0.398459 0
M  V30 11956 C 1111.28 -1.70925 -1.16586 0
M  V30 11957 C 1111.7 -0.42342 -1.83991 0
M  V30 11958 O 1111.05 0.601395 -1.72306 0
M  V30 11959 C 1111.1 -2.85226 -2.22099 0
M  V30 11960 O 1110.83 -4.08831 -1.57444 0
M  V30 11961 C 1112.33 -3.15272 -3.11639 0
M  V30 11962 H 1109.55 -0.572533 -0.349924 0
M  V30 11963 H 1112.09 -1.99087 -0.467416 0
M  V30 11964 H 1110.25 -2.59553 -2.87595 0
M  V30 11965 H 1110.66 -4.72603 -2.2748 0
M  V30 11966 H 1112.13 -3.98737 -3.81724 0
M  V30 11967 H 1112.61 -2.29262 -3.74614 0
M  V30 11968 H 1113.22 -3.42749 -2.518 0
M  V30 11969 N 1111.53 0.65634 -1.43283 0
M  V30 11970 C 1112.95 0.971645 -1.26614 0
M  V30 11971 C 1113.15 2.00662 -0.183612 0
M  V30 11972 O 1112.2 2.48654 0.439003 0
M  V30 11973 C 1113.52 1.45888 -2.6294 0
M  V30 11974 C 1115.06 1.57569 -2.70446 0
M  V30 11975 C 1115.54 2.09684 -4.07181 0
M  V30 11976 N 1117.03 2.16991 -4.0923 0
M  V30 11977 C 1117.77 2.5843 -5.11861 0
M  V30 11978 N 1117.26 2.99188 -6.24867 0
M  V30 11979 N 1119.05 2.58342 -4.99215 0
M  V30 11980 H 1111.21 -0.028573 -2.12381 0
M  V30 11981 H 1113.47 0.0497918 -0.946691 0
M  V30 11982 H 1113.17 0.772823 -3.43104 0
M  V30 11983 H 1113.05 2.43445 -2.88122 0
M  V30 11984 H 1115.44 2.25277 -1.90616 0
M  V30 11985 H 1115.52 0.584529 -2.49032 0
M  V30 11986 H 1115.16 1.42579 -4.87477 0
M  V30 11987 H 1115.09 3.09625 -4.25958 0
M  V30 11988 H 1117.58 1.88278 -3.27658 0
M  V30 11989 H 1117.89 3.29549 -6.99012 0
M  V30 11990 H 1116.24 2.97 -6.28344 0
M  V30 11991 H 1119.43 2.25875 -4.09998 0
M  V30 11992 H 1119.6 2.90316 -5.79328 0
M  V30 11993 N 1113.01 1.29761 0.894412 0
M  V30 11994 C 1113.92 1.1724 2.03204 0
M  V30 11995 C 1114.94 0.0944452 1.73743 0
M  V30 11996 O 1116.11 0.307549 1.99038 0
M  V30 11997 C 1113.18 0.855416 3.35981 0
M  V30 11998 C 1112.24 2.01777 3.78926 0
M  V30 11999 C 1111.47 1.71581 5.05367 0
M  V30 12000 O 1111.69 0.639245 5.66807 0
M  V30 12001 O 1110.63 2.56539 5.44492 0
M  V30 12002 H 1114.45 2.12787 2.16692 0
M  V30 12003 H 1112.04 1.09264 1.0189 0
M  V30 12004 H 1113.92 0.693429 4.15656 0
M  V30 12005 H 1112.6 -0.0702195 3.23624 0
M  V30 12006 H 1111.5 2.23502 2.99996 0
M  V30 12007 H 1112.84 2.92479 3.95875 0
M  V30 12008 N 1114.49 -1.10549 1.12324 0
M  V30 12009 C 1115.72 -1.8627 0.900618 0
M  V30 12010 C 1116.13 -1.80609 -0.550069 0
M  V30 12011 O 1115.49 -1.19396 -1.38025 0
M  V30 12012 C 1115.54 -3.34716 1.36556 0
M  V30 12013 O 1115.26 -3.40279 2.75938 0
M  V30 12014 C 1116.76 -4.27315 1.17969 0
M  V30 12015 H 1113.98 -0.588741 0.321908 0
M  V30 12016 H 1116.52 -1.39759 1.49291 0
M  V30 12017 H 1114.68 -3.78697 0.81652 0
M  V30 12018 H 1115.09 -4.32781 2.96312 0
M  V30 12019 H 1116.57 -5.29677 1.55391 0
M  V30 12020 H 1117.04 -4.39036 0.120158 0
M  V30 12021 H 1117.65 -3.89137 1.71617 0
M  V30 12022 N 1115.97 -0.914965 -1.28321 0
M  V30 12023 C 1117.38 -0.613297 -1.47346 0
M  V30 12024 C 1117.58 0.84106 -1.83108 0
M  V30 12025 O 1116.64 1.62004 -1.93678 0
M  V30 12026 C 1117.95 -1.55224 -2.57538 0
M  V30 12027 C 1119.5 -1.55909 -2.71407 0
M  V30 12028 C 1119.97 -2.48468 -3.84744 0
M  V30 12029 N 1121.46 -2.46602 -3.92099 0
M  V30 12030 C 1122.2 -3.14917 -4.79182 0
M  V30 12031 N 1121.7 -3.92566 -5.70845 0
M  V30 12032 N 1123.49 -3.03998 -4.72802 0
M  V30 12033 H 1115.64 -1.85539 -1.03388 0
M  V30 12034 H 1117.9 -0.795875 -0.515061 0
M  V30 12035 H 1117.61 -2.58917 -2.38023 0
M  V30 12036 H 1117.48 -1.28426 -3.54664 0
M  V30 12037 H 1119.87 -0.52953 -2.9031 0
M  V30 12038 H 1119.95 -1.86751 -1.74808 0
M  V30 12039 H 1119.59 -3.51526 -3.66595 0
M  V30 12040 H 1119.52 -2.14928 -4.80743 0
M  V30 12041 H 1122.02 -1.90199 -3.26547 0
M  V30 12042 H 1122.33 -4.41709 -6.34123 0
M  V30 12043 H 1120.67 -3.96671 -5.70681 0
M  V30 12044 H 1123.86 -2.42839 -4.00184 0
M  V30 12045 H 1124.04 -3.57511 -5.40454 0
M  V30 12046 N 1117.44 1.42219 -0.679077 0
M  V30 12047 C 1118.67 2.05516 -0.211342 0
M  V30 12048 C 1119.08 1.5113 1.13826 0
M  V30 12049 O 1118.42 0.647593 1.71907 0
M  V30 12050 C 1118.49 3.59425 -0.0736007 0
M  V30 12051 C 1118.15 4.36525 -1.3526 0
M  V30 12052 C 1119.15 4.66897 -2.28698 0
M  V30 12053 C 1116.83 4.76089 -1.60139 0
M  V30 12054 C 1118.83 5.35775 -3.45288 0
M  V30 12055 C 1116.51 5.44706 -2.77017 0
M  V30 12056 C 1117.51 5.74474 -3.69416 0
M  V30 12057 O 1117.2 6.41683 -4.8425 0
M  V30 12058 H 1116.93 0.668662 -0.0993318 0
M  V30 12059 H 1119.49 1.8327 -0.927434 0
M  V30 12060 H 1117.72 3.80346 0.69811 0
M  V30 12061 H 1119.4 4.04346 0.354813 0
M  V30 12062 H 1120.17 4.36828 -2.10729 0
M  V30 12063 H 1116.05 4.5231 -0.890887 0
M  V30 12064 H 1119.59 5.58927 -4.17428 0
M  V30 12065 H 1115.49 5.74194 -2.9491 0
M  V30 12066 H 1116.26 6.60175 -4.8385 0
M  V30 12067 N 1118.92 0.422693 1.51826 0
M  V30 12068 C 1119.85 -0.386913 2.30272 0
M  V30 12069 C 1120.83 -1.03411 1.35056 0
M  V30 12070 O 1122.02 -1.04055 1.6397 0
M  V30 12071 C 1119.15 -1.49645 3.13407 0
M  V30 12072 C 1118.1 -0.973532 4.16781 0
M  V30 12073 C 1117.43 -2.1777 4.88344 0
M  V30 12074 C 1118.73 -0.0181194 5.22297 0
M  V30 12075 H 1120.42 0.267697 2.98201 0
M  V30 12076 H 1117.97 0.130186 1.4341 0
M  V30 12077 H 1119.92 -2.06993 3.67059 0
M  V30 12078 H 1118.64 -2.17914 2.43272 0
M  V30 12079 H 1117.3 -0.42237 3.64159 0
M  V30 12080 H 1116.95 -2.84625 4.14726 0
M  V30 12081 H 1116.65 -1.83427 5.58237 0
M  V30 12082 H 1118.18 -2.75699 5.44814 0
M  V30 12083 H 1119.59 -0.500822 5.71108 0
M  V30 12084 H 1117.99 0.237163 5.99631 0
M  V30 12085 H 1119.06 0.923065 4.76033 0
M  V30 12086 N 1120.4 -1.5685 0.153553 0
M  V30 12087 C 1121.36 -2.15894 -0.769564 0
M  V30 12088 C 1122.36 -1.10239 -1.17064 0
M  V30 12089 O 1123.55 -1.35845 -1.09049 0
M  V30 12090 C 1120.68 -2.72738 -2.04516 0
M  V30 12091 H 1121.88 -2.98807 -0.255842 0
M  V30 12092 H 1119.43 -1.56005 -0.0959279 0
M  V30 12093 H 1120.17 -1.9351 -2.60239 0
M  V30 12094 H 1119.95 -3.50042 -1.76672 0
M  V30 12095 H 1121.44 -3.18208 -2.70432 0
M  V30 12096 N 1121.88 0.120221 -1.57141 0
M  V30 12097 C 1123.13 0.826791 -1.83976 0
M  V30 12098 C 1123.44 1.81102 -0.739014 0
M  V30 12099 O 1124.65 2.56368 -0.893736 0
M  V30 12100 C 1123.1 1.52108 -3.26176 0
M  V30 12101 C 1122.71 0.577902 -4.44257 0
M  V30 12102 C 1124.45 2.21286 -3.62261 0
M  V30 12103 C 1122.36 1.27535 -5.77485 0
M  V30 12104 H 1121.29 0.312508 -0.686189 0
M  V30 12105 H 1123.94 0.0795343 -1.83328 0
M  V30 12106 H 1122.32 2.31492 -3.2129 0
M  V30 12107 H 1123.5 -0.182629 -4.60438 0
M  V30 12108 H 1121.81 -0.00684348 -4.16399 0
M  V30 12109 H 1124.41 2.74154 -4.59068 0
M  V30 12110 H 1124.75 2.99029 -2.89634 0
M  V30 12111 H 1125.29 1.48791 -3.68925 0
M  V30 12112 H 1122.02 0.539237 -6.53278 0
M  V30 12113 H 1121.54 2.00792 -5.65192 0
M  V30 12114 H 1123.22 1.80888 -6.21199 0
M  V30 12115 N 1123.36 1.52689 0.390367 0
M  V30 12116 C 1124.29 1.80338 1.48325 0
M  V30 12117 C 1125.27 0.655338 1.56969 0
M  V30 12118 O 1126.45 0.902792 1.7194 0
M  V30 12119 C 1123.58 1.97101 2.85952 0
M  V30 12120 C 1122.54 3.12783 2.92148 0
M  V30 12121 C 1121.86 3.14798 4.32211 0
M  V30 12122 C 1123.16 4.5188 2.61919 0
M  V30 12123 H 1124.86 2.71857 1.25437 0
M  V30 12124 H 1122.4 1.30813 0.601995 0
M  V30 12125 H 1124.36 2.15027 3.62411 0
M  V30 12126 H 1123.08 1.02271 3.10174 0
M  V30 12127 H 1121.74 2.94638 2.18137 0
M  V30 12128 H 1121.39 2.17653 4.53471 0
M  V30 12129 H 1121.09 3.92507 4.37278 0
M  V30 12130 H 1122.61 3.34877 5.10578 0
M  V30 12131 H 1124.02 4.70134 3.28096 0
M  V30 12132 H 1122.42 5.31647 2.78337 0
M  V30 12133 H 1123.49 4.58689 1.57266 0
M  V30 12134 N 1124.83 -0.648732 1.43629 0
M  V30 12135 C 1125.78 -1.75473 1.45579 0
M  V30 12136 C 1126.77 -1.57611 0.323683 0
M  V30 12137 O 1127.96 -1.67646 0.56778 0
M  V30 12138 C 1125.09 -3.14083 1.38589 0
M  V30 12139 C 1124.18 -3.37477 2.56846 0
M  V30 12140 N 1124.57 -3.31322 3.82177 0
M  V30 12141 C 1122.86 -3.68212 2.51666 0
M  V30 12142 C 1123.57 -3.54921 4.60875 0
M  V30 12143 N 1122.54 -3.76951 3.91675 0
M  V30 12144 H 1126.34 -1.69146 2.40347 0
M  V30 12145 H 1123.86 -0.850566 1.38344 0
M  V30 12146 H 1125.85 -3.93374 1.38068 0
M  V30 12147 H 1124.51 -3.21588 0.448442 0
M  V30 12148 H 1125.53 -3.10633 4.144 0
M  V30 12149 H 1122.2 -3.82806 1.66631 0
M  V30 12150 H 1123.59 -3.55904 5.69897 0
M  V30 12151 N 1126.31 -1.30234 -0.887518 0
M  V30 12152 C 1127.54 -1.21829 -1.67229 0
M  V30 12153 C 1127.96 0.219251 -1.87523 0
M  V30 12154 O 1127.31 1.14526 -1.42091 0
M  V30 12155 C 1127.36 -1.94044 -3.05007 0
M  V30 12156 O 1127.08 -3.32185 -2.85631 0
M  V30 12157 C 1128.59 -1.92265 -3.99436 0
M  V30 12158 H 1125.81 -0.421716 -0.521916 0
M  V30 12159 H 1128.35 -1.71816 -1.10903 0
M  V30 12160 H 1126.5 -1.47861 -3.58072 0
M  V30 12161 H 1126.92 -3.68724 -3.73018 0
M  V30 12162 H 1128.39 -2.47336 -4.93486 0
M  V30 12163 H 1128.87 -0.900984 -4.29859 0
M  V30 12164 H 1129.48 -2.38247 -3.52305 0
M  V30 12165 N 1127.79 1.09952 -1.12909 0
M  V30 12166 C 1129.21 1.34051 -0.866172 0
M  V30 12167 C 1129.41 1.95169 0.501125 0
M  V30 12168 O 1128.46 2.19458 1.24878 0
M  V30 12169 C 1129.78 2.25738 -1.98653 0
M  V30 12170 C 1131.32 2.39261 -2.01799 0
M  V30 12171 C 1131.8 3.3428 -3.13083 0
M  V30 12172 N 1133.29 3.41851 -3.12558 0
M  V30 12173 C 1134.02 4.15358 -3.95304 0
M  V30 12174 N 1133.52 4.91709 -4.88051 0
M  V30 12175 N 1135.31 4.11027 -3.83423 0
M  V30 12176 H 1127.46 0.686521 -2.00999 0
M  V30 12177 H 1129.73 0.364913 -0.874953 0
M  V30 12178 H 1129.43 1.88048 -2.97205 0
M  V30 12179 H 1129.31 3.26085 -1.89601 0
M  V30 12180 H 1131.69 2.76218 -1.03864 0
M  V30 12181 H 1131.78 1.38712 -2.14925 0
M  V30 12182 H 1131.42 2.98048 -4.11254 0
M  V30 12183 H 1131.35 4.34721 -2.97195 0
M  V30 12184 H 1133.84 2.87405 -2.45371 0
M  V30 12185 H 1134.15 5.45212 -5.47689 0
M  V30 12186 H 1132.5 4.90816 -4.92061 0
M  V30 12187 H 1135.69 3.50477 -3.10296 0
M  V30 12188 H 1135.86 4.68054 -4.4814 0
M  V30 12189 N 1129.27 0.921757 1.27833 0
M  V30 12190 C 1130.23 0.420978 2.25301 0
M  V30 12191 C 1131.23 -0.457158 1.54165 0
M  V30 12192 O 1132.42 -0.259079 1.72263 0
M  V30 12193 C 1129.55 -0.395501 3.38598 0
M  V30 12194 H 1130.75 1.28206 2.71115 0
M  V30 12195 H 1128.3 0.701893 1.39654 0
M  V30 12196 H 1129.03 -1.27565 2.98157 0
M  V30 12197 H 1128.82 0.234029 3.91401 0
M  V30 12198 H 1130.31 -0.736444 4.11055 0
M  V30 12199 N 1130.75 -1.41857 0.686609 0
M  V30 12200 C 1131.68 -2.33481 0.0298353 0
M  V30 12201 C 1132.66 -1.51329 -0.776756 0
M  V30 12202 O 1133.84 -1.79895 -0.731535 0
M  V30 12203 C 1130.97 -3.35065 -0.913707 0
M  V30 12204 C 1129.93 -4.2746 -0.214861 0
M  V30 12205 C 1129.25 -5.19346 -1.27215 0
M  V30 12206 C 1130.55 -5.14252 0.913367 0
M  V30 12207 H 1132.25 -2.8865 0.795067 0
M  V30 12208 H 1129.79 -1.38792 0.383785 0
M  V30 12209 H 1131.75 -3.98082 -1.38234 0
M  V30 12210 H 1130.47 -2.78226 -1.7105 0
M  V30 12211 H 1129.13 -3.65855 0.233651 0
M  V30 12212 H 1128.78 -4.58827 -2.06124 0
M  V30 12213 H 1128.48 -5.81996 -0.80961 0
M  V30 12214 H 1130 -5.85239 -1.74147 0
M  V30 12215 H 1131.41 -5.70887 0.525424 0
M  V30 12216 H 1129.81 -5.85796 1.30244 0
M  V30 12217 H 1130.88 -4.51949 1.75699 0
M  V30 12218 N 1132.22 -0.430739 -1.51599 0
M  V30 12219 C 1133.64 0.0339139 -1.86669 0
M  V30 12220 C 1133.99 1.42533 -1.34829 0
M  V30 12221 O 1133.11 2.04889 -0.696376 0
M  V30 12222 C 1133.71 0.0683174 -3.38731 0
M  V30 12223 C 1132.27 0.477363 -3.73361 0
M  V30 12224 C 1131.41 -0.334258 -2.75278 0
M  V30 12225 H 1134.36 -0.646875 -1.44918 0
M  V30 12226 H 1134.38 0.879179 -3.70204 0
M  V30 12227 H 1133.9 -0.944501 -3.76432 0
M  V30 12228 H 1132 1.49603 -3.41247 0
M  V30 12229 H 1132.11 0.206744 -4.78654 0
M  V30 12230 H 1130.47 0.206503 -2.53861 0
M  V30 12231 H 1131.26 -1.34583 -3.1582 0
M  V30 12232 N 1133.7 1.56767 -0.161869 0
M  V30 12233 C 1134.93 2.00964 0.492027 0
M  V30 12234 C 1135.35 1.04206 1.57437 0
M  V30 12235 O 1134.7 0.0413998 1.82453 0
M  V30 12236 C 1134.75 3.4502 1.07904 0
M  V30 12237 O 1134.47 4.38082 0.0399085 0
M  V30 12238 C 1135.98 4.04572 1.81209 0
M  V30 12239 H 1133.2 0.658911 0.126797 0
M  V30 12240 H 1135.74 2.0283 -0.260824 0
M  V30 12241 H 1133.89 3.43959 1.78243 0
M  V30 12242 H 1134.31 5.22372 0.471985 0
M  V30 12243 H 1135.78 5.07321 2.17554 0
M  V30 12244 H 1136.26 3.46126 2.70359 0
M  V30 12245 H 1136.87 4.09307 1.15534 0
M  V30 12246 N 1135.18 -0.111886 1.57202 0
M  V30 12247 C 1136.41 -0.836317 1.89791 0
M  V30 12248 C 1136.83 -1.72304 0.754513 0
M  V30 12249 O 1136.19 -1.78889 -0.294672 0
M  V30 12250 C 1136.24 -1.63971 3.21164 0
M  V30 12251 O 1135.34 -2.74726 3.0757 0
M  V30 12252 H 1134.68 -0.230833 0.622585 0
M  V30 12253 H 1137.21 -0.0921478 2.04392 0
M  V30 12254 H 1137.22 -2.02746 3.54059 0
M  V30 12255 H 1135.9 -0.98882 4.03974 0
M  V30 12256 H 1134.47 -2.39101 2.86156 0
M  V30 12257 N 1136.66 -1.52894 -0.382264 0
M  V30 12258 C 1137.9 -1.68515 -1.12829 0
M  V30 12259 C 1138.24 -0.427211 -1.89443 0
M  V30 12260 O 1137.51 0.57516 -1.85801 0
M  V30 12261 C 1137.8 -2.92449 -2.10108 0
M  V30 12262 C 1137.65 -4.2836 -1.37214 0
M  V30 12263 C 1138.97 -3.11944 -3.1045 0
M  V30 12264 H 1136.09 -0.613223 -0.408811 0
M  V30 12265 H 1138.73 -1.85503 -0.410921 0
M  V30 12266 H 1136.88 -2.78097 -2.71283 0
M  V30 12267 H 1138.55 -4.54493 -0.789516 0
M  V30 12268 H 1136.79 -4.28532 -0.673973 0
M  V30 12269 H 1137.46 -5.11178 -2.0833 0
M  V30 12270 H 1139.94 -3.25372 -2.59369 0
M  V30 12271 H 1138.82 -4.00125 -3.75754 0
M  V30 12272 H 1139.08 -2.26465 -3.79692 0
M  V30 12273 N 1138.14 0.641106 -1.43971 0
M  V30 12274 C 1139.38 1.40291 -1.46445 0
M  V30 12275 C 1139.72 1.93978 -0.0929004 0
M  V30 12276 O 1138.99 1.73043 0.888043 0
M  V30 12277 C 1139.27 2.57551 -2.51673 0
M  V30 12278 C 1139.13 2.09279 -3.98149 0
M  V30 12279 C 1140.45 3.59752 -2.53508 0
M  V30 12280 H 1137.57 0.508771 -0.533218 0
M  V30 12281 H 1140.21 0.725767 -1.75592 0
M  V30 12282 H 1138.36 3.15319 -2.2695 0
M  V30 12283 H 1140.03 1.56418 -4.33971 0
M  V30 12284 H 1138.27 1.40545 -4.10402 0
M  V30 12285 H 1138.94 2.93655 -4.67409 0
M  V30 12286 H 1141.42 3.11766 -2.75574 0
M  V30 12287 H 1140.3 4.39332 -3.29057 0
M  V30 12288 H 1140.56 4.13156 -1.57335 0
M  V30 12289 N 1139.62 1.30703 0.880598 0
M  V30 12290 C 1140.86 1.19778 1.63277 0
M  V30 12291 C 1141.19 -0.246521 1.92931 0
M  V30 12292 O 1140.45 -1.19226 1.55189 0
M  V30 12293 C 1140.74 1.97628 2.97789 0
M  V30 12294 C 1140.41 3.47213 2.87669 0
M  V30 12295 C 1139.07 3.88004 2.84617 0
M  V30 12296 C 1141.42 4.4245 2.75477 0
M  V30 12297 C 1138.75 5.22315 2.67216 0
M  V30 12298 C 1141.1 5.76874 2.59614 0
M  V30 12299 C 1139.77 6.16898 2.54939 0
M  V30 12300 H 1139.04 0.438298 0.597475 0
M  V30 12301 H 1141.69 1.61853 1.02352 0
M  V30 12302 H 1139.99 1.48201 3.6269 0
M  V30 12303 H 1141.69 1.86563 3.54958 0
M  V30 12304 H 1138.28 3.14802 2.90857 0
M  V30 12305 H 1142.46 4.11875 2.76899 0
M  V30 12306 H 1137.72 5.52412 2.62014 0
M  V30 12307 H 1141.89 6.50304 2.49155 0
M  V30 12308 H 1139.52 7.20916 2.41214 0
M  V30 12309 N 1141.09 -1.09351 1.1349 0
M  V30 12310 C 1142.04 -2.16008 0.812981 0
M  V30 12311 C 1143.01 -1.64566 -0.225252 0
M  V30 12312 O 1144.2 -1.90552 -0.0973261 0
M  V30 12313 C 1141.34 -3.43913 0.285996 0
M  V30 12314 C 1140.45 -4.09251 1.38338 0
M  V30 12315 C 1139.58 -5.24916 0.814652 0
M  V30 12316 C 1138.62 -5.82178 1.89038 0
M  V30 12317 N 1137.76 -6.89203 1.33955 0
M  V30 12318 H 1142.6 -2.42887 1.72655 0
M  V30 12319 H 1140.14 -1.19209 0.861833 0
M  V30 12320 H 1142.09 -4.17183 -0.0376794 0
M  V30 12321 H 1140.72 -3.17349 -0.590707 0
M  V30 12322 H 1139.78 -3.33838 1.82363 0
M  V30 12323 H 1141.09 -4.4784 2.19638 0
M  V30 12324 H 1140.24 -6.05086 0.442306 0
M  V30 12325 H 1138.98 -4.87691 -0.029416 0
M  V30 12326 H 1137.99 -5.00669 2.27179 0
M  V30 12327 H 1139.21 -6.21464 2.73787 0
M  V30 12328 H 1137.16 -6.53956 0.517494 0
M  V30 12329 H 1137.07 -7.26565 2.08902 0
M  V30 12330 H 1138.34 -7.73126 0.994793 0
M  V30 12331 N 1142.57 -0.928524 -1.27343 0
M  V30 12332 C 1143.52 -0.426873 -2.26818 0
M  V30 12333 C 1144.49 0.506663 -1.58184 0
M  V30 12334 O 1145.67 0.425641 -1.85992 0
M  V30 12335 C 1142.81 0.313523 -3.43673 0
M  V30 12336 C 1141.93 -0.65422 -4.27018 0
M  V30 12337 C 1141.06 0.106102 -5.31094 0
M  V30 12338 C 1140.1 -0.854293 -6.06109 0
M  V30 12339 N 1139.24 -0.126545 -7.01986 0
M  V30 12340 H 1144.08 -1.28014 -2.69103 0
M  V30 12341 H 1141.61 -0.642515 -1.32326 0
M  V30 12342 H 1143.57 0.75912 -4.10236 0
M  V30 12343 H 1142.2 1.13102 -3.02337 0
M  V30 12344 H 1141.25 -1.21834 -3.60362 0
M  V30 12345 H 1142.57 -1.38817 -4.79094 0
M  V30 12346 H 1141.72 0.611577 -6.0361 0
M  V30 12347 H 1140.46 0.873009 -4.79823 0
M  V30 12348 H 1139.46 -1.37101 -5.32432 0
M  V30 12349 H 1140.69 -1.621 -6.5947 0
M  V30 12350 H 1138.64 0.622102 -6.53044 0
M  V30 12351 H 1138.55 -0.800046 -7.51755 0
M  V30 12352 H 1139.82 0.358251 -7.78676 0
M  V30 12353 N 1144.05 1.41491 -0.694123 0
M  V30 12354 C 1144.98 2.33462 -0.0422169 0
M  V30 12355 C 1145.96 1.51739 0.76872 0
M  V30 12356 O 1147.15 1.8028 0.721985 0
M  V30 12357 C 1144.28 3.35545 0.895925 0
M  V30 12358 C 1143.23 4.27568 0.192188 0
M  V30 12359 C 1142.56 5.20014 1.24459 0
M  V30 12360 C 1143.86 5.1376 -0.940626 0
M  V30 12361 H 1145.55 2.88225 -0.810363 0
M  V30 12362 H 1143.1 1.38586 -0.39114 0
M  V30 12363 H 1145.05 3.9881 1.36121 0
M  V30 12364 H 1143.77 2.79129 1.69572 0
M  V30 12365 H 1142.43 3.65726 -0.25305 0
M  V30 12366 H 1142.08 4.59913 2.03687 0
M  V30 12367 H 1141.78 5.82417 0.778734 0
M  V30 12368 H 1143.3 5.86155 1.71041 0
M  V30 12369 H 1144.72 5.70601 -0.555692 0
M  V30 12370 H 1143.11 5.85097 -1.33349 0
M  V30 12371 H 1144.18 4.51011 -1.78093 0
M  V30 12372 N 1145.53 0.438773 1.51369 0
M  V30 12373 C 1146.77 -0.127213 2.021 0
M  V30 12374 C 1147.1 -1.42587 1.32284 0
M  V30 12375 O 1146.36 -1.90986 0.426949 0
M  V30 12376 C 1146.66 -0.39186 3.55245 0
M  V30 12377 C 1146.32 0.821158 4.4336 0
M  V30 12378 C 1144.98 1.15381 4.67162 0
M  V30 12379 C 1147.34 1.6303 4.95046 0
M  V30 12380 C 1144.66 2.29626 5.39897 0
M  V30 12381 C 1147.02 2.76376 5.69033 0
M  V30 12382 C 1145.68 3.10094 5.91099 0
M  V30 12383 H 1144.95 -0.0465505 0.739536 0
M  V30 12384 H 1147.6 0.586261 1.82305 0
M  V30 12385 H 1145.9 -1.18724 3.73379 0
M  V30 12386 H 1147.6 -0.843228 3.92034 0
M  V30 12387 H 1144.19 0.551946 4.25031 0
M  V30 12388 H 1148.37 1.38651 4.76539 0
M  V30 12389 H 1143.63 2.56062 5.55196 0
M  V30 12390 H 1147.8 3.39442 6.08072 0
M  V30 12391 H 1145.43 3.98731 6.47238 0
M  V30 12392 N 1147.01 -1.56678 0.170181 0
M  V30 12393 C 1148.28 -1.88524 -0.521362 0
M  V30 12394 C 1148.66 -1.07989 -1.81388 0
M  V30 12395 O 1148.01 -0.17347 -2.27841 0
M  V30 12396 C 1148.22 -3.40527 -0.764367 0
M  V30 12397 C 1149.57 -4.10241 -1.09487 0
M  V30 12398 O 1150.59 -3.45837 -0.852945 0
M  V30 12399 O 1149.45 -5.24022 -1.55124 0
M  V30 12400 H 1146.55 -0.782161 -0.268614 0
M  V30 12401 H 1149.09 -1.68414 0.208531 0
M  V30 12402 H 1147.86 -3.91015 0.149416 0
M  V30 12403 H 1147.49 -3.66244 -1.54762 0
M  V30 12404 N 1148.48 0.103547 -1.57259 0
M  V30 12405 C 1149.73 0.806979 -1.8529 0
M  V30 12406 C 1150.05 1.79679 -0.757653 0
M  V30 12407 O 1149.32 1.94695 0.216913 0
M  V30 12408 H 1147.9 0.301012 -0.683667 0
M  V30 12409 H 1150.56 0.0871886 -1.94705 0
M  V30 12410 H 1149.66 1.34275 -2.81738 0
M  V30 12411 N 1149.96 1.53094 0.37415 0
M  V30 12412 C 1151.38 1.42676 0.715246 0
M  V30 12413 C 1151.58 0.558992 1.93591 0
M  V30 12414 O 1150.63 0.0381328 2.52471 0
M  V30 12415 C 1151.95 2.85746 0.936459 0
M  V30 12416 C 1153.49 2.95322 1.03701 0
M  V30 12417 C 1153.97 4.39436 1.29075 0
M  V30 12418 N 1155.46 4.42826 1.35864 0
M  V30 12419 C 1156.2 5.51433 1.57191 0
M  V30 12420 N 1155.69 6.701 1.75891 0
M  V30 12421 N 1157.48 5.38998 1.59491 0
M  V30 12422 H 1149.64 2.08025 -0.428854 0
M  V30 12423 H 1151.9 0.939078 -0.129758 0
M  V30 12424 H 1151.6 3.51523 0.111448 0
M  V30 12425 H 1151.48 3.28887 1.84698 0
M  V30 12426 H 1153.87 2.29704 1.85257 0
M  V30 12427 H 1153.95 2.55588 0.104066 0
M  V30 12428 H 1153.59 5.05625 0.480231 0
M  V30 12429 H 1153.52 4.76735 2.23677 0
M  V30 12430 H 1156.01 3.57301 1.23061 0
M  V30 12431 H 1156.32 7.48643 1.91713 0
M  V30 12432 H 1154.67 6.73102 1.73086 0
M  V30 12433 H 1157.86 4.45257 1.44444 0
M  V30 12434 H 1158.03 6.23705 1.75771 0
M  V30 12435 N 1151.44 -0.633461 1.44309 0
M  V30 12436 C 1152.39 -1.74554 1.50995 0
M  V30 12437 C 1153.36 -1.62199 0.357873 0
M  V30 12438 O 1154.54 -1.82156 0.567787 0
M  V30 12439 C 1151.68 -3.12792 1.45791 0
M  V30 12440 C 1150.79 -3.3614 2.71356 0
M  V30 12441 C 1149.93 -4.64337 2.58002 0
M  V30 12442 C 1148.97 -4.80855 3.78741 0
M  V30 12443 N 1148.11 -6.00327 3.64077 0
M  V30 12444 H 1152.95 -1.68174 2.46011 0
M  V30 12445 H 1150.48 -0.820407 1.22097 0
M  V30 12446 H 1152.44 -3.92735 1.40765 0
M  V30 12447 H 1151.07 -3.18193 0.543445 0
M  V30 12448 H 1150.12 -2.50154 2.86579 0
M  V30 12449 H 1151.43 -3.44226 3.60985 0
M  V30 12450 H 1150.59 -5.52437 2.50795 0
M  V30 12451 H 1149.33 -4.58605 1.65929 0
M  V30 12452 H 1148.33 -3.91185 3.86334 0
M  V30 12453 H 1149.56 -4.88403 4.71847 0
M  V30 12454 H 1147.5 -5.9569 2.74754 0
M  V30 12455 H 1147.42 -6.09459 4.47321 0
M  V30 12456 H 1148.69 -6.90995 3.60758 0
M  V30 12457 N 1152.92 -1.31168 -0.873655 0
M  V30 12458 C 1153.85 -1.14325 -1.98651 0
M  V30 12459 C 1154.86 -0.0833421 -1.62587 0
M  V30 12460 O 1156.05 -0.330477 -1.75414 0
M  V30 12461 C 1153.15 -0.723747 -3.31082 0
M  V30 12462 C 1152.33 -1.86787 -3.95512 0
M  V30 12463 C 1151.38 -1.43503 -5.06254 0
M  V30 12464 O 1150.41 -2.14409 -5.27273 0
M  V30 12465 N 1151.61 -0.320362 -5.79615 0
M  V30 12466 H 1154.38 -2.10179 -2.13647 0
M  V30 12467 H 1151.94 -1.23454 -1.04742 0
M  V30 12468 H 1153.93 -0.416971 -4.02546 0
M  V30 12469 H 1152.5 0.143073 -3.12272 0
M  V30 12470 H 1151.72 -2.34216 -3.17075 0
M  V30 12471 H 1153.01 -2.6343 -4.35296 0
M  V30 12472 H 1152.41 0.270215 -5.65054 0
M  V30 12473 H 1150.96 -0.0731 -6.51759 0
M  V30 12474 N 1154.4 1.08748 -1.14068 0
M  V30 12475 C 1155.31 2.19123 -0.837998 0
M  V30 12476 C 1156.32 1.73065 0.180164 0
M  V30 12477 O 1157.5 2.01398 0.00952285 0
M  V30 12478 C 1154.56 3.45257 -0.316 0
M  V30 12479 C 1153.62 4.05959 -1.39628 0
M  V30 12480 C 1152.86 5.26072 -0.899095 0
M  V30 12481 O 1153.08 5.69804 0.260744 0
M  V30 12482 O 1152.01 5.7808 -1.67652 0
M  V30 12483 H 1155.84 2.4748 -1.76033 0
M  V30 12484 H 1153.43 1.17816 -0.918675 0
M  V30 12485 H 1155.31 4.21389 -0.0306425 0
M  V30 12486 H 1153.98 3.18486 0.578654 0
M  V30 12487 H 1152.89 3.31432 -1.73505 0
M  V30 12488 H 1154.22 4.36971 -2.26533 0
M  V30 12489 N 1155.87 0.935264 1.26849 0
M  V30 12490 C 1157.15 0.497797 1.8916 0
M  V30 12491 C 1157.53 -1.02441 1.84578 0
M  V30 12492 O 1156.88 -1.88185 1.29609 0
M  V30 12493 C 1157.09 1.05244 3.32753 0
M  V30 12494 C 1158.44 1.11751 4.0963 0
M  V30 12495 O 1159.46 1.0026 3.41799 0
M  V30 12496 O 1158.32 1.29548 5.30923 0
M  V30 12497 H 1155.41 0.161322 0.811113 0
M  V30 12498 H 1157.96 1.02744 1.35062 0
M  V30 12499 H 1156.73 2.09617 3.30419 0
M  V30 12500 H 1156.36 0.504889 3.94381 0
M  V30 12501 N 1157.35 -1.41121 0.701616 0
M  V30 12502 C 1158.6 -2.01428 0.235495 0
M  V30 12503 C 1158.93 -1.55463 -1.16382 0
M  V30 12504 O 1158.21 -0.768477 -1.78675 0
M  V30 12505 C 1158.49 -3.58849 0.299919 0
M  V30 12506 C 1158.34 -4.14924 1.73661 0
M  V30 12507 C 1159.66 -4.38809 -0.336856 0
M  V30 12508 H 1156.78 -0.731842 0.0870456 0
M  V30 12509 H 1159.42 -1.67787 0.891479 0
M  V30 12510 H 1157.57 -3.87638 -0.258611 0
M  V30 12511 H 1159.24 -3.96987 2.34945 0
M  V30 12512 H 1157.49 -3.69738 2.26884 0
M  V30 12513 H 1158.16 -5.24085 1.73318 0
M  V30 12514 H 1160.63 -4.15868 0.138886 0
M  V30 12515 H 1159.51 -5.48278 -0.261264 0
M  V30 12516 H 1159.77 -4.18728 -1.41843 0
M  V30 12517 N 1158.83 -0.446794 -1.51134 0
M  V30 12518 C 1160.08 0.116666 -2.02464 0
M  V30 12519 C 1160.41 1.41532 -1.32975 0
M  V30 12520 O 1159.68 1.89278 -0.447651 0
M  V30 12521 C 1159.97 0.325659 -3.58624 0
M  V30 12522 C 1159.82 -0.992307 -4.38718 0
M  V30 12523 C 1161.14 1.09121 -4.26357 0
M  V30 12524 H 1158.26 0.0409262 -0.735863 0
M  V30 12525 H 1160.9 -0.587641 -1.80684 0
M  V30 12526 H 1159.05 0.925585 -3.77313 0
M  V30 12527 H 1160.72 -1.62694 -4.31658 0
M  V30 12528 H 1158.97 -1.5947 -4.03425 0
M  V30 12529 H 1159.64 -0.800005 -5.46172 0
M  V30 12530 H 1162.11 0.582944 -4.11996 0
M  V30 12531 H 1160.99 1.20621 -5.35483 0
M  V30 12532 H 1161.25 2.12171 -3.87861 0
M  V30 12533 N 1160.31 1.56586 -0.178487 0
M  V30 12534 C 1161.22 2.21903 0.761321 0
M  V30 12535 C 1162.23 1.21289 1.2476 0
M  V30 12536 O 1163.41 1.53974 1.29823 0
M  V30 12537 C 1160.48 2.85259 1.97048 0
M  V30 12538 C 1159.54 4.01095 1.53039 0
M  V30 12539 C 1158.77 4.61421 2.68191 0
M  V30 12540 O 1158.99 4.20644 3.85247 0
M  V30 12541 O 1157.93 5.51171 2.41855 0
M  V30 12542 H 1161.75 3.02788 0.235141 0
M  V30 12543 H 1159.34 1.49316 0.0500442 0
M  V30 12544 H 1161.22 3.25404 2.6775 0
M  V30 12545 H 1159.89 2.07366 2.48558 0
M  V30 12546 H 1158.8 3.65606 0.792661 0
M  V30 12547 H 1160.13 4.80603 1.06213 0
M  V30 12548 N 1161.79 -0.095206 1.57312 0
M  V30 12549 C 1162.72 -1.14662 1.97301 0
M  V30 12550 C 1163.7 -1.38845 0.846212 0
M  V30 12551 O 1164.88 -1.52607 1.1065 0
M  V30 12552 C 1162.01 -2.49582 2.28968 0
M  V30 12553 C 1161.05 -2.41681 3.51415 0
M  V30 12554 S 1161.89 -1.83343 5.03136 0
M  V30 12555 C 1163.04 -3.19888 5.3798 0
M  V30 12556 H 1163.28 -0.805726 2.86174 0
M  V30 12557 H 1160.81 -0.302881 1.514 0
M  V30 12558 H 1162.77 -3.27202 2.47889 0
M  V30 12559 H 1161.43 -2.80841 1.40667 0
M  V30 12560 H 1160.62 -3.41122 3.71015 0
M  V30 12561 H 1160.22 -1.7219 3.32004 0
M  V30 12562 H 1162.52 -4.16161 5.34618 0
M  V30 12563 H 1163.46 -3.05093 6.39002 0
M  V30 12564 H 1163.87 -3.19414 4.6544 0
M  V30 12565 N 1163.26 -1.53291 -0.366026 0
M  V30 12566 C 1164.21 -1.80367 -1.4687 0
M  V30 12567 C 1165.21 -0.672767 -1.55468 0
M  V30 12568 O 1166.41 -0.8557 -1.5836 0
M  V30 12569 H 1162.79 -0.571076 -0.48926 0
M  V30 12570 H 1164.76 -2.72661 -1.21237 0
M  V30 12571 C 1163.51 -2.01008 -2.8371 0
M  V30 12572 H 1162.83 -2.87468 -2.77853 0
M  V30 12573 H 1164.27 -2.2393 -3.60043 0
M  V30 12574 C 1162.73 -0.789054 -3.27529 0
M  V30 12575 O 1163.26 0.0224712 -4.01694 0
M  V30 12576 N 1161.47 -0.612621 -2.84069 0
M  V30 12577 H 1161.01 -1.27416 -2.23881 0
M  V30 12578 H 1160.97 0.202943 -3.13744 0
M  V30 12579 N 1164.74 0.6258 -1.44643 0
M  V30 12580 C 1166.02 1.38439 -1.38181 0
M  V30 12581 C 1166.4 2.11056 -0.0431928 0
M  V30 12582 O 1165.75 2.06683 0.974383 0
M  V30 12583 C 1165.96 2.34639 -2.58352 0
M  V30 12584 C 1167.31 2.97807 -3.02649 0
M  V30 12585 O 1168.33 2.44963 -2.58595 0
M  V30 12586 O 1167.19 3.93682 -3.79048 0
M  V30 12587 H 1164.28 0.619852 -0.54746 0
M  V30 12588 H 1166.83 0.650409 -1.56741 0
M  V30 12589 H 1165.6 1.80116 -3.47382 0
M  V30 12590 H 1165.22 3.15446 -2.42032 0
M  V30 12591 N 1166.22 1.31629 0.866686 0
M  V30 12592 C 1167.17 1.19492 1.99561 0
M  V30 12593 C 1168.16 0.102456 1.6909 0
M  V30 12594 O 1169.37 0.264571 1.78045 0
M  V30 12595 H 1165.74 0.370071 0.654638 0
M  V30 12596 H 1167.71 2.14996 2.06928 0
M  V30 12597 C 1166.46 0.92246 3.3524 0
M  V30 12598 H 1165.79 1.75524 3.59209 0
M  V30 12599 H 1167.23 0.877726 4.14816 0
M  V30 12600 C 1165.69 -0.374803 3.34809 0
M  V30 12601 O 1166.22 -1.39055 3.76864 0
M  V30 12602 N 1164.42 -0.392506 2.87937 0
M  V30 12603 H 1163.97 0.434591 2.53908 0
M  V30 12604 H 1163.93 -1.26038 2.88031 0
M  V30 12605 N 1167.7 -1.08142 1.14644 0
M  V30 12606 C 1168.95 -1.80582 0.916327 0
M  V30 12607 C 1169.27 -1.86355 -0.556969 0
M  V30 12608 O 1168.53 -1.33736 -1.42875 0
M  V30 12609 C 1168.83 -3.25962 1.46573 0
M  V30 12610 C 1168.49 -3.40302 2.95814 0
M  V30 12611 C 1167.16 -3.43922 3.36557 0
M  V30 12612 C 1169.51 -3.43758 3.91765 0
M  V30 12613 C 1166.84 -3.48594 4.7191 0
M  V30 12614 C 1169.19 -3.49965 5.26979 0
M  V30 12615 C 1167.85 -3.5186 5.67231 0
M  V30 12616 H 1167.12 -0.660795 0.335308 0
M  V30 12617 H 1169.77 -1.27309 1.43055 0
M  V30 12618 H 1168.07 -3.81961 0.872507 0
M  V30 12619 H 1169.77 -3.80571 1.2636 0
M  V30 12620 H 1166.36 -3.38176 2.63315 0
M  V30 12621 H 1170.55 -3.40189 3.61366 0
M  V30 12622 H 1165.8 -3.48355 5.02453 0
M  V30 12623 H 1169.98 -3.51585 6.01133 0
M  V30 12624 H 1167.6 -3.55233 6.72097 0
M  V30 12625 N 1169.18 -0.941978 -1.26351 0
M  V30 12626 C 1170.09 -0.45833 -2.30079 0
M  V30 12627 C 1171.1 0.468084 -1.67586 0
M  V30 12628 O 1172.28 0.347418 -1.98381 0
M  V30 12629 C 1169.34 0.26797 -3.45663 0
M  V30 12630 C 1168.41 -0.695102 -4.23635 0
M  V30 12631 C 1167.64 -0.003369 -5.337 0
M  V30 12632 O 1167.86 1.21342 -5.57344 0
M  V30 12633 O 1166.8 -0.682476 -5.98018 0
M  V30 12634 H 1170.62 -1.31998 -2.73514 0
M  V30 12635 H 1168.21 -0.707897 -1.31564 0
M  V30 12636 H 1170.09 0.677061 -4.15925 0
M  V30 12637 H 1168.76 1.105 -3.04256 0
M  V30 12638 H 1167.67 -1.15415 -3.55851 0
M  V30 12639 H 1169 -1.49977 -4.68794 0
M  V30 12640 N 1170.66 1.40747 -0.709091 0
M  V30 12641 C 1171.9 2.01003 -0.24581 0
M  V30 12642 C 1172.23 1.56203 1.15891 0
M  V30 12643 O 1171.49 0.770166 1.79908 0
M  V30 12644 C 1171.78 3.56404 -0.266685 0
M  V30 12645 C 1171.45 4.20762 -1.6208 0
M  V30 12646 C 1170.11 4.38056 -1.99148 0
M  V30 12647 C 1172.46 4.56723 -2.51105 0
M  V30 12648 C 1169.79 4.88591 -3.248 0
M  V30 12649 C 1172.14 5.08654 -3.76103 0
M  V30 12650 C 1170.81 5.24158 -4.13297 0
M  V30 12651 H 1170.08 0.73552 -0.0899481 0
M  V30 12652 H 1172.73 1.68451 -0.910844 0
M  V30 12653 H 1171.03 3.88825 0.481915 0
M  V30 12654 H 1172.73 4.0085 0.109509 0
M  V30 12655 H 1169.32 4.07685 -1.32252 0
M  V30 12656 H 1173.5 4.43004 -2.23744 0
M  V30 12657 H 1168.76 4.98779 -3.53595 0
M  V30 12658 H 1172.93 5.35457 -4.45262 0
M  V30 12659 H 1170.56 5.63079 -5.10731 0
M  V30 12660 N 1172.13 0.454803 1.50895 0
M  V30 12661 C 1173.38 -0.105562 2.01824 0
M  V30 12662 C 1173.7 -1.41673 1.33992 0
M  V30 12663 O 1172.97 -1.89929 0.479994 0
M  V30 12664 H 1171.55 -0.0420011 0.745818 0
M  V30 12665 H 1174.21 0.601504 1.85386 0
M  V30 12666 H 1173.31 -0.268872 3.1094 0
M  V30 12667 N 1173.61 -1.56489 0.186789 0
M  V30 12668 C 1174.54 -2.21705 -0.732739 0
M  V30 12669 C 1175.52 -1.17751 -1.22755 0
M  V30 12670 O 1176.71 -1.46231 -1.27789 0
M  V30 12671 C 1173.84 -2.86992 -1.95584 0
M  V30 12672 C 1172.79 -3.97118 -1.59628 0
M  V30 12673 C 1172.12 -4.49529 -2.89531 0
M  V30 12674 C 1173.42 -5.15941 -0.812518 0
M  V30 12675 H 1175.11 -2.98802 -0.189094 0
M  V30 12676 H 1172.66 -1.43722 -0.0895099 0
M  V30 12677 H 1174.61 -3.31295 -2.60426 0
M  V30 12678 H 1173.33 -2.07287 -2.52388 0
M  V30 12679 H 1171.99 -3.53494 -0.971475 0
M  V30 12680 H 1171.64 -3.66596 -3.44407 0
M  V30 12681 H 1171.34 -5.23832 -2.66221 0
M  V30 12682 H 1172.87 -4.96528 -3.55376 0
M  V30 12683 H 1174.28 -5.56841 -1.36386 0
M  V30 12684 H 1172.68 -5.96259 -0.677862 0
M  V30 12685 H 1173.75 -4.84535 0.188095 0
M  V30 12686 N 1175.09 0.086862 -1.5736 0
M  V30 12687 C 1176.33 0.794358 -1.88333 0
M  V30 12688 C 1176.69 1.75496 -0.778783 0
M  V30 12689 O 1177.89 2.50643 -0.971152 0
M  V30 12690 C 1176.17 1.49686 -3.24544 0
M  V30 12691 S 1177.72 2.2415 -3.7723 0
M  V30 12692 H 1174.54 0.264479 -0.659979 0
M  V30 12693 H 1177.14 0.0511046 -1.95433 0
M  V30 12694 H 1175.85 0.783713 -4.02847 0
M  V30 12695 H 1175.38 2.27984 -3.20604 0
M  V30 12696 H 1177.39 3.50426 -3.51306 0
M  V30 12697 N 1176.57 1.53483 0.357892 0
M  V30 12698 C 1177.98 1.61641 0.934289 0
M  V30 12699 C 1178.33 0.488655 1.90017 0
M  V30 12700 O 1177.45 -0.38378 2.1297 0
M  V30 12701 C 1178.05 2.92987 1.7013 0
M  V30 12702 C 1176.61 3.03456 2.22692 0
M  V30 12703 C 1175.76 2.56992 1.04165 0
M  V30 12704 H 1178.71 1.58112 0.136452 0
M  V30 12705 H 1178.73 2.81221 2.5631 0
M  V30 12706 H 1178.24 3.75047 0.998056 0
M  V30 12707 H 1176.34 2.25999 2.96235 0
M  V30 12708 H 1176.45 4.08673 2.50046 0
M  V30 12709 H 1174.82 2.12052 1.41088 0
M  V30 12710 H 1175.6 3.41477 0.353272 0
M  V30 12711 N 1178.05 -0.61812 1.44973 0
M  V30 12712 C 1179.29 -1.38882 1.4997 0
M  V30 12713 C 1179.65 -1.91533 0.133841 0
M  V30 12714 O 1180.85 -2.68736 0.0585012 0
M  V30 12715 C 1179.12 -2.5136 2.54073 0
M  V30 12716 S 1180.68 -3.39324 2.78216 0
M  V30 12717 H 1177.5 -0.473631 0.530278 0
M  V30 12718 H 1180.1 -0.714299 1.81984 0
M  V30 12719 H 1178.8 -2.11012 3.51997 0
M  V30 12720 H 1178.34 -3.23625 2.23675 0
M  V30 12721 H 1180.35 -4.49198 2.10797 0
M  V30 12722 N 1179.52 -1.32087 -0.859693 0
M  V30 12723 C 1180.8 -1.12984 -1.59668 0
M  V30 12724 C 1181.18 0.311661 -2.08787 0
M  V30 12725 O 1180.53 1.30746 -1.87397 0
M  V30 12726 C 1180.74 -2.15305 -2.74672 0
M  V30 12727 C 1182.09 -2.48371 -3.44379 0
M  V30 12728 O 1183.11 -2.13811 -2.84891 0
M  V30 12729 O 1181.97 -3.07594 -4.51717 0
M  V30 12730 H 1179.06 -0.435657 -0.702945 0
M  V30 12731 H 1181.61 -1.43601 -0.90426 0
M  V30 12732 H 1180.38 -3.12223 -2.35866 0
M  V30 12733 H 1180 -1.85653 -3.51594 0
M  V30 12734 N 1181 1.07532 -1.15215 0
M  V30 12735 C 1181.96 2.1286 -0.84989 0
M  V30 12736 C 1182.96 1.60103 0.149524 0
M  V30 12737 O 1184.15 1.74017 -0.0798918 0
M  V30 12738 C 1181.29 3.3984 -0.268617 0
M  V30 12739 H 1182.48 2.41106 -1.78347 0
M  V30 12740 H 1180.03 1.23392 -0.959386 0
M  V30 12741 H 1180.77 3.17235 0.67325 0
M  V30 12742 H 1180.55 3.79433 -0.988592 0
M  V30 12743 H 1182.04 4.17533 -0.0746554 0
M  V30 12744 N 1182.48 0.948665 1.2585 0
M  V30 12745 C 1183.43 0.462904 2.2611 0
M  V30 12746 C 1184.4 -0.481433 1.5897 0
M  V30 12747 O 1185.58 -0.395997 1.86645 0
M  V30 12748 C 1182.72 -0.258808 3.44128 0
M  V30 12749 C 1181.84 0.722072 4.25923 0
M  V30 12750 C 1180.97 -0.0215958 5.31196 0
M  V30 12751 C 1180.01 0.950612 6.04673 0
M  V30 12752 N 1179.15 0.238209 7.01696 0
M  V30 12753 H 1183.99 1.32279 2.67032 0
M  V30 12754 H 1181.52 0.663485 1.31287 0
M  V30 12755 H 1183.48 -0.693759 4.11391 0
M  V30 12756 H 1182.11 -1.08278 3.04098 0
M  V30 12757 H 1181.16 1.27552 3.58378 0
M  V30 12758 H 1182.48 1.46421 4.76825 0
M  V30 12759 H 1181.63 -0.51547 6.04506 0
M  V30 12760 H 1180.37 -0.796563 4.81151 0
M  V30 12761 H 1179.37 1.45554 5.30183 0
M  V30 12762 H 1180.6 1.72571 6.56808 0
M  V30 12763 H 1178.54 -0.518129 6.53951 0
M  V30 12764 H 1178.46 0.919542 7.50387 0
M  V30 12765 H 1179.73 -0.234325 7.79148 0
M  V30 12766 N 1183.96 -1.40369 0.716545 0
M  V30 12767 C 1185.37 -1.83783 0.328719 0
M  V30 12768 C 1185.72 -1.5991 -1.13681 0
M  V30 12769 O 1184.85 -1.08048 -1.87496 0
M  V30 12770 C 1185.44 -3.33626 0.589848 0
M  V30 12771 C 1184 -3.7553 0.25572 0
M  V30 12772 C 1183.15 -2.63571 0.861733 0
M  V30 12773 H 1186.1 -1.29623 0.915621 0
M  V30 12774 H 1186.12 -3.80225 -0.14459 0
M  V30 12775 H 1185.63 -3.5097 1.65655 0
M  V30 12776 H 1183.73 -3.63781 -0.805883 0
M  V30 12777 H 1183.84 -4.73577 0.725388 0
M  V30 12778 H 1182.21 -2.53047 0.289706 0
M  V30 12779 H 1182.99 -2.83727 1.93272 0
M  V30 12780 N 1185.44 -0.462799 -1.50652 0
M  V30 12781 C 1186.69 0.0966838 -2.01468 0
M  V30 12782 C 1187 1.41529 -1.35014 0
M  V30 12783 O 1188.2 2.05923 -1.76941 0
M  V30 12784 C 1186.66 0.222826 -3.5921 0
M  V30 12785 C 1186.27 -1.08686 -4.34616 0
M  V30 12786 C 1188.01 0.734711 -4.18094 0
M  V30 12787 C 1185.92 -0.924964 -5.84122 0
M  V30 12788 H 1184.85 0.0399078 -0.752943 0
M  V30 12789 H 1187.5 -0.596437 -1.73536 0
M  V30 12790 H 1185.88 0.979539 -3.83694 0
M  V30 12791 H 1187.06 -1.85388 -4.21862 0
M  V30 12792 H 1185.37 -1.52922 -3.87303 0
M  V30 12793 H 1187.97 0.872734 -5.2753 0
M  V30 12794 H 1188.31 1.72389 -3.7893 0
M  V30 12795 H 1188.84 0.0356139 -3.97784 0
M  V30 12796 H 1185.58 -1.88727 -6.27744 0
M  V30 12797 H 1185.1 -0.198181 -5.99473 0
M  V30 12798 H 1186.78 -0.588262 -6.4432 0
M  V30 12799 N 1186.91 1.56388 -0.195085 0
M  V30 12800 C 1188.16 1.97872 0.444344 0
M  V30 12801 C 1188.49 1.0819 1.61271 0
M  V30 12802 O 1187.77 0.133904 1.94039 0
M  V30 12803 C 1188.05 3.48556 0.90449 0
M  V30 12804 C 1187.9 4.49015 -0.265693 0
M  V30 12805 C 1189.22 4.02938 1.76999 0
M  V30 12806 H 1186.34 0.719413 0.160041 0
M  V30 12807 H 1188.98 1.87835 -0.286005 0
M  V30 12808 H 1187.13 3.5724 1.52682 0
M  V30 12809 H 1188.81 4.52368 -0.903363 0
M  V30 12810 H 1187.05 4.23987 -0.917462 0
M  V30 12811 H 1187.72 5.51912 0.0987834 0
M  V30 12812 H 1190.2 3.97033 1.24514 0
M  V30 12813 H 1189.07 5.08741 2.06092 0
M  V30 12814 H 1189.33 3.48197 2.72418 0
M  V30 12815 N 1188.39 -0.0785156 1.57404 0
M  V30 12816 C 1189.81 -0.433143 1.5361 0
M  V30 12817 C 1190.01 -1.79564 0.914283 0
M  V30 12818 O 1189.06 -2.47215 0.513899 0
M  V30 12819 C 1190.38 -0.380387 2.98284 0
M  V30 12820 C 1191.93 -0.461056 3.09586 0
M  V30 12821 C 1192.4 -0.438276 4.55898 0
M  V30 12822 N 1193.89 -0.498548 4.60509 0
M  V30 12823 C 1194.63 -0.503028 5.71189 0
M  V30 12824 N 1194.12 -0.462724 6.91253 0
M  V30 12825 N 1195.92 -0.549083 5.59412 0
M  V30 12826 H 1188.07 0.813724 1.96195 0
M  V30 12827 H 1190.33 0.304644 0.897717 0
M  V30 12828 H 1190.04 0.553932 3.4731 0
M  V30 12829 H 1189.91 -1.19313 3.57833 0
M  V30 12830 H 1192.3 -1.3858 2.60537 0
M  V30 12831 H 1192.38 0.380138 2.5296 0
M  V30 12832 H 1192.02 0.482588 5.05602 0
M  V30 12833 H 1191.95 -1.29691 5.1038 0
M  V30 12834 H 1194.44 -0.534219 3.74105 0
M  V30 12835 H 1194.76 -0.469883 7.7137 0
M  V30 12836 H 1193.1 -0.429515 6.93672 0
M  V30 12837 H 1196.29 -0.578215 4.64515 0
M  V30 12838 H 1196.46 -0.549105 6.45669 0
M  V30 12839 N 1189.87 -1.5367 -0.349747 0
M  V30 12840 C 1191.12 -1.70281 -1.08853 0
M  V30 12841 C 1191.44 -0.465438 -1.89364 0
M  V30 12842 O 1190.71 0.520615 -1.88856 0
M  V30 12843 H 1189.29 -0.627775 -0.404854 0
M  V30 12844 H 1191.95 -1.90906 -0.392523 0
M  V30 12845 H 1191.05 -2.57096 -1.76941 0
M  V30 12846 N 1191.35 0.610423 -1.45298 0
M  V30 12847 C 1192.3 1.7213 -1.53753 0
M  V30 12848 C 1193.27 1.61609 -0.383632 0
M  V30 12849 O 1194.45 1.8123 -0.596694 0
M  V30 12850 C 1191.59 3.10433 -1.50749 0
M  V30 12851 C 1190.7 3.3178 -2.76669 0
M  V30 12852 C 1189.84 4.60173 -2.65356 0
M  V30 12853 C 1188.88 4.74769 -3.86343 0
M  V30 12854 N 1188.01 5.94459 -3.73581 0
M  V30 12855 H 1192.85 1.64239 -2.48655 0
M  V30 12856 H 1190.39 0.800879 -1.23387 0
M  V30 12857 H 1192.35 3.90446 -1.46996 0
M  V30 12858 H 1190.98 3.17288 -0.593998 0
M  V30 12859 H 1190.03 2.45563 -2.90522 0
M  V30 12860 H 1191.34 3.38439 -3.66416 0
M  V30 12861 H 1190.5 5.48377 -2.59553 0
M  V30 12862 H 1189.24 4.55907 -1.73204 0
M  V30 12863 H 1188.24 3.8499 -3.92509 0
M  V30 12864 H 1189.47 4.80834 -4.79557 0
M  V30 12865 H 1187.41 5.91243 -2.84196 0
M  V30 12866 H 1187.33 6.02265 -4.5696 0
M  V30 12867 H 1188.6 6.85168 -3.71705 0
M  V30 12868 N 1192.83 1.32541 0.852676 0
M  V30 12869 C 1194.07 1.23214 1.607 0
M  V30 12870 C 1194.4 -0.205542 1.93411 0
M  V30 12871 O 1193.66 -1.15907 1.57683 0
M  V30 12872 C 1193.96 2.039 2.9353 0
M  V30 12873 C 1193.62 3.53237 2.8024 0
M  V30 12874 C 1192.28 3.93953 2.76323 0
M  V30 12875 C 1194.64 4.48194 2.6603 0
M  V30 12876 C 1191.96 5.27865 2.56077 0
M  V30 12877 C 1194.32 5.82251 2.47319 0
M  V30 12878 C 1192.98 6.22166 2.41796 0
M  V30 12879 H 1192.25 0.450873 0.588043 0
M  V30 12880 H 1194.9 1.63988 0.988954 0
M  V30 12881 H 1193.2 1.55861 3.59464 0
M  V30 12882 H 1194.9 1.94051 3.50921 0
M  V30 12883 H 1191.49 3.209 2.84114 0
M  V30 12884 H 1195.67 4.17656 2.681 0
M  V30 12885 H 1190.93 5.57845 2.50237 0
M  V30 12886 H 1195.1 6.55442 2.35305 0
M  V30 12887 H 1192.73 7.2587 2.25868 0
M  V30 12888 N 1194.3 -1.0692 1.15784 0
M  V30 12889 C 1195.25 -2.16335 0.854506 0
M  V30 12890 C 1196.25 -1.68505 -0.173868 0
M  V30 12891 O 1197.45 -1.79977 -0.0284722 0
M  V30 12892 H 1193.83 -0.706103 0.258694 0
M  V30 12893 H 1195.8 -2.39135 1.78486 0
M  V30 12894 C 1194.55 -3.45778 0.365042 0
M  V30 12895 H 1193.87 -3.82971 1.14776 0
M  V30 12896 H 1195.31 -4.23567 0.191504 0
M  V30 12897 C 1193.77 -3.24258 -0.914253 0
M  V30 12898 O 1194.3 -3.49236 -1.98487 0
M  V30 12899 N 1192.51 -2.77722 -0.855501 0
M  V30 12900 H 1192.05 -2.57595 0.0159233 0
M  V30 12901 H 1192.01 -2.63702 -1.71198 0
M  V30 12902 N 1195.78 -0.955326 -1.25345 0
M  V30 12903 C 1197.01 -0.627693 -1.97149 0
M  V30 12904 C 1197.43 0.800349 -1.70997 0
M  V30 12905 O 1196.78 1.53545 -0.986417 0
M  V30 12906 C 1196.83 -0.877675 -3.50684 0
M  V30 12907 O 1196.55 -2.24957 -3.75934 0
M  V30 12908 C 1198.06 -0.562524 -4.39716 0
M  V30 12909 H 1195.28 -0.235269 -0.628402 0
M  V30 12910 H 1197.82 -1.27989 -1.59496 0
M  V30 12911 H 1195.97 -0.271878 -3.86445 0
M  V30 12912 H 1196.39 -2.32022 -4.70389 0
M  V30 12913 H 1197.86 -0.787972 -5.46347 0
M  V30 12914 H 1198.34 0.50293 -4.36311 0
M  V30 12915 H 1198.95 -1.14767 -4.09522 0
M  V30 12916 N 1197.26 1.39987 -0.723979 0
M  V30 12917 C 1198.49 2.05037 -0.27702 0
M  V30 12918 C 1198.9 1.54565 1.08421 0
M  V30 12919 O 1198.26 0.705795 1.683 0
M  V30 12920 C 1198.31 3.60582 -0.25751 0
M  V30 12921 O 1198.03 4.09194 -1.565 0
M  V30 12922 C 1199.53 4.42817 0.206972 0
M  V30 12923 H 1196.75 0.659637 -0.122963 0
M  V30 12924 H 1199.3 1.7924 -0.98454 0
M  V30 12925 H 1197.45 3.85319 0.401037 0
M  V30 12926 H 1197.87 5.03447 -1.47112 0
M  V30 12927 H 1199.34 5.5174 0.16947 0
M  V30 12928 H 1199.82 4.21023 1.25045 0
M  V30 12929 H 1200.42 4.23205 -0.421604 0
M  V30 12930 N 1198.74 0.470782 1.50404 0
M  V30 12931 C 1199.67 -0.313458 2.31386 0
M  V30 12932 C 1200.65 -0.990623 1.38278 0
M  V30 12933 O 1201.84 -0.987854 1.67198 0
M  V30 12934 C 1198.97 -1.39599 3.18009 0
M  V30 12935 C 1197.92 -0.840443 4.19667 0
M  V30 12936 C 1197.25 -2.02124 4.95025 0
M  V30 12937 C 1198.55 0.148055 5.2209 0
M  V30 12938 H 1200.24 0.362432 2.97198 0
M  V30 12939 H 1197.79 0.175745 1.42924 0
M  V30 12940 H 1199.74 -1.9521 3.73458 0
M  V30 12941 H 1198.46 -2.10064 2.50081 0
M  V30 12942 H 1197.12 -0.306302 3.65318 0
M  V30 12943 H 1196.77 -2.71286 4.23571 0
M  V30 12944 H 1196.47 -1.65574 5.6379 0
M  V30 12945 H 1197.99 -2.58226 5.5331 0
M  V30 12946 H 1199.41 -0.318874 5.72413 0
M  V30 12947 H 1197.8 0.427811 5.98573 0
M  V30 12948 H 1198.87 1.07404 4.72855 0
M  V30 12949 N 1200.22 -1.56282 0.203376 0
M  V30 12950 C 1201.15 -2.2247 -0.709183 0
M  V30 12951 C 1202.13 -1.19046 -1.21499 0
M  V30 12952 O 1203.31 -1.47578 -1.26231 0
M  V30 12953 C 1200.44 -2.8905 -1.92529 0
M  V30 12954 C 1199.4 -3.98789 -1.55407 0
M  V30 12955 C 1198.72 -4.52574 -2.84747 0
M  V30 12956 C 1200.02 -5.16774 -0.75775 0
M  V30 12957 H 1201.72 -2.98986 -0.157392 0
M  V30 12958 H 1199.26 -1.43808 -0.0742613 0
M  V30 12959 H 1201.22 -3.34038 -2.56898 0
M  V30 12960 H 1199.94 -2.09952 -2.50175 0
M  V30 12961 H 1198.6 -3.54504 -0.933928 0
M  V30 12962 H 1198.25 -3.70229 -3.40499 0
M  V30 12963 H 1197.95 -5.26627 -2.6065 0
M  V30 12964 H 1199.47 -5.00269 -3.5009 0
M  V30 12965 H 1200.89 -5.58256 -1.30472 0
M  V30 12966 H 1199.28 -5.96945 -0.614583 0
M  V30 12967 H 1200.35 -4.84308 0.239476 0
M  V30 12968 N 1201.7 0.070167 -1.57444 0
M  V30 12969 C 1202.64 1.10193 -2.04842 0
M  V30 12970 C 1203.64 1.39978 -0.954069 0
M  V30 12971 O 1204.84 1.39366 -1.13917 0
M  V30 12972 H 1201.22 0.372699 -0.653146 0
M  V30 12973 H 1203.19 0.676033 -2.90641 0
M  V30 12974 C 1201.94 2.40679 -2.50936 0
M  V30 12975 H 1201.26 2.1861 -3.34738 0
M  V30 12976 H 1202.7 3.11315 -2.87852 0
M  V30 12977 C 1201.16 3.06754 -1.39297 0
M  V30 12978 O 1201.69 3.949 -0.735989 0
M  V30 12979 N 1199.9 2.67404 -1.13769 0
M  V30 12980 H 1199.44 1.95813 -1.67376 0
M  V30 12981 H 1199.4 3.11937 -0.392787 0
M  V30 12982 N 1203.17 1.53854 0.341593 0
M  V30 12983 C 1204.42 1.70856 1.07948 0
M  V30 12984 C 1204.74 0.475474 1.89114 0
M  V30 12985 O 1204.01 -0.510592 1.89129 0
M  V30 12986 H 1202.59 0.629914 0.401519 0
M  V30 12987 H 1205.25 1.91112 0.382393 0
M  V30 12988 H 1204.35 2.5803 1.75575 0
M  V30 12989 N 1204.65 -0.602709 1.4562 0
M  V30 12990 C 1206.06 -1.1847 1.44297 0
M  V30 12991 C 1206.41 -1.95434 0.17316 0
M  V30 12992 O 1205.54 -2.03894 -0.724986 0
M  V30 12993 C 1206.13 -2.15508 2.61422 0
M  V30 12994 C 1204.69 -2.69073 2.63204 0
M  V30 12995 C 1203.84 -1.44568 2.36633 0
M  V30 12996 H 1206.79 -0.391745 1.53789 0
M  V30 12997 H 1206.81 -2.98628 2.35799 0
M  V30 12998 H 1206.32 -1.59464 3.53826 0
M  V30 12999 H 1204.42 -3.29042 1.7482 0
M  V30 13000 H 1204.54 -3.13173 3.62573 0
M  V30 13001 H 1202.9 -1.73692 1.86287 0
M  V30 13002 H 1203.68 -0.903852 3.31188 0
M  V30 13003 N 1206.13 -1.32992 -0.845635 0
M  V30 13004 C 1207.09 -1.22607 -1.9365 0
M  V30 13005 C 1208.09 -0.146812 -1.60128 0
M  V30 13006 O 1209.28 -0.397863 -1.69596 0
M  V30 13007 C 1206.41 -0.887677 -3.2914 0
M  V30 13008 H 1207.61 -2.19563 -2.04285 0
M  V30 13009 H 1205.16 -1.16952 -1.03691 0
M  V30 13010 H 1205.9 0.0796777 -3.24202 0
M  V30 13011 H 1205.68 -1.66808 -3.54849 0
M  V30 13012 H 1207.17 -0.83958 -4.09073 0
M  V30 13013 N 1207.61 1.06304 -1.1635 0
M  V30 13014 C 1208.85 1.79101 -0.94494 0
M  V30 13015 C 1209.18 1.87217 0.527251 0
M  V30 13016 O 1208.44 1.35992 1.40729 0
M  V30 13017 C 1208.74 3.23589 -1.51741 0
M  V30 13018 C 1208.4 3.35552 -3.0119 0
M  V30 13019 C 1207.06 3.38525 -3.41986 0
M  V30 13020 C 1209.42 3.37482 -3.97184 0
M  V30 13021 C 1206.74 3.41042 -4.77396 0
M  V30 13022 C 1209.1 3.41537 -5.3248 0
M  V30 13023 C 1207.76 3.42792 -5.72757 0
M  V30 13024 H 1207.03 0.655377 -0.345778 0
M  V30 13025 H 1209.68 1.25017 -1.45062 0
M  V30 13026 H 1207.98 3.80525 -0.933164 0
M  V30 13027 H 1209.68 3.78512 -1.32399 0
M  V30 13028 H 1206.27 3.33944 -2.68662 0
M  V30 13029 H 1210.45 3.34397 -3.66732 0
M  V30 13030 H 1205.71 3.40317 -5.07931 0
M  V30 13031 H 1209.88 3.41977 -6.0665 0
M  V30 13032 H 1207.51 3.44495 -6.77663 0
M  V30 13033 N 1209.09 0.96196 1.24836 0
M  V30 13034 C 1210.02 0.445329 2.24832 0
M  V30 13035 C 1211.03 -0.442797 1.56663 0
M  V30 13036 O 1212.22 -0.249896 1.76742 0
M  V30 13037 C 1209.32 -0.376953 3.36797 0
M  V30 13038 C 1208.49 0.499908 4.34534 0
M  V30 13039 C 1207.55 -0.265402 5.2553 0
M  V30 13040 O 1206.58 0.338707 5.68191 0
M  V30 13041 N 1207.78 -1.55654 5.59243 0
M  V30 13042 H 1210.54 1.30505 2.69793 0
M  V30 13043 H 1208.11 0.833137 1.38818 0
M  V30 13044 H 1210.1 -0.896831 3.94638 0
M  V30 13045 H 1208.67 -1.13757 2.91167 0
M  V30 13046 H 1207.89 1.20082 3.75465 0
M  V30 13047 H 1209.18 1.09814 4.96808 0
M  V30 13048 H 1208.57 -2.06916 5.265 0
M  V30 13049 H 1207.13 -2.02223 6.19636 0
M  V30 13050 N 1210.56 -1.39601 0.731392 0
M  V30 13051 C 1211.5 -2.28169 0.0378735 0
M  V30 13052 C 1212.47 -1.44195 -0.751434 0
M  V30 13053 O 1213.66 -1.7359 -0.734753 0
M  V30 13054 C 1210.79 -3.24999 -0.953589 0
M  V30 13055 C 1209.83 -4.25748 -0.253203 0
M  V30 13056 S 1210.66 -5.25496 1.03025 0
M  V30 13057 C 1211.82 -6.25886 0.0412927 0
M  V30 13058 H 1212.05 -2.8664 0.788973 0
M  V30 13059 H 1209.59 -1.45271 0.523044 0
M  V30 13060 H 1211.54 -3.81308 -1.52035 0
M  V30 13061 H 1210.21 -2.65554 -1.6775 0
M  V30 13062 H 1209.4 -4.93913 -1.00328 0
M  V30 13063 H 1209 -3.7322 0.241426 0
M  V30 13064 H 1211.29 -6.72757 -0.800305 0
M  V30 13065 H 1212.24 -7.0473 0.68999 0
M  V30 13066 H 1212.64 -5.63538 -0.329495 0
M  V30 13067 N 1212.04 -0.478751 -1.50152 0
M  V30 13068 C 1213.29 0.073694 -2.02666 0
M  V30 13069 C 1213.62 1.38679 -1.35947 0
M  V30 13070 O 1212.9 1.88286 -0.4877 0
M  V30 13071 C 1213.18 0.249516 -3.59235 0
M  V30 13072 C 1213.03 -1.08514 -4.36514 0
M  V30 13073 C 1214.35 1.00053 -4.28576 0
M  V30 13074 H 1211.47 0.0253082 -0.736565 0
M  V30 13075 H 1214.11 -0.625834 -1.79397 0
M  V30 13076 H 1212.26 0.845343 -3.79192 0
M  V30 13077 H 1213.93 -1.71814 -4.28109 0
M  V30 13078 H 1212.18 -1.67992 -3.99952 0
M  V30 13079 H 1212.85 -0.915676 -5.44352 0
M  V30 13080 H 1215.32 0.495422 -4.1314 0
M  V30 13081 H 1214.2 1.09236 -5.37921 0
M  V30 13082 H 1214.46 2.03896 -3.92274 0
M  V30 13083 N 1213.52 1.56172 -0.211661 0
M  V30 13084 C 1214.76 1.9994 0.424672 0
M  V30 13085 C 1215.12 1.09598 1.57646 0
M  V30 13086 O 1216.33 1.4267 2.27813 0
M  V30 13087 C 1214.6 3.46961 0.857497 0
M  V30 13088 S 1216.16 4.12752 1.48933 0
M  V30 13089 H 1212.97 0.698031 0.135179 0
M  V30 13090 H 1215.58 1.92886 -0.318625 0
M  V30 13091 H 1214.28 4.10399 0.009398 0
M  V30 13092 H 1213.81 3.57867 1.63385 0
M  V30 13093 H 1215.83 4.11125 2.77833 0
M  V30 13094 N 1215 -0.0618163 1.57479 0
M  V30 13095 C 1216.41 -0.612461 1.76368 0
M  V30 13096 C 1216.76 -1.77381 0.838466 0
M  V30 13097 O 1215.89 -2.16386 0.0250211 0
M  V30 13098 C 1216.48 -1.11782 3.19829 0
M  V30 13099 C 1215.04 -1.61424 3.40028 0
M  V30 13100 C 1214.19 -0.53795 2.72032 0
M  V30 13101 H 1217.14 0.164382 1.57846 0
M  V30 13102 H 1217.16 -1.98634 3.24538 0
M  V30 13103 H 1216.67 -0.272353 3.87143 0
M  V30 13104 H 1214.77 -2.48263 2.77842 0
M  V30 13105 H 1214.88 -1.68431 4.48517 0
M  V30 13106 H 1213.25 -0.985355 2.34868 0
M  V30 13107 H 1214.03 0.297495 3.42009 0
M  V30 13108 N 1216.48 -1.54033 -0.333429 0
M  V30 13109 C 1217.73 -1.70979 -1.07 0
M  V30 13110 C 1218.04 -0.485095 -1.89489 0
M  V30 13111 O 1219.24 -0.535712 -2.66162 0
M  V30 13112 C 1217.7 -3.02382 -1.95175 0
M  V30 13113 C 1217.31 -4.32223 -1.17844 0
M  V30 13114 C 1219.05 -3.28693 -2.68628 0
M  V30 13115 C 1216.96 -5.54693 -2.05109 0
M  V30 13116 H 1215.89 -0.637152 -0.403179 0
M  V30 13117 H 1218.54 -1.80529 -0.328839 0
M  V30 13118 H 1216.92 -2.86714 -2.73151 0
M  V30 13119 H 1218.1 -4.58626 -0.447089 0
M  V30 13120 H 1216.41 -4.12601 -0.561166 0
M  V30 13121 H 1219.01 -4.17385 -3.34207 0
M  V30 13122 H 1219.35 -2.46141 -3.35738 0
M  V30 13123 H 1219.88 -3.45183 -1.9772 0
M  V30 13124 H 1216.62 -6.39818 -1.42523 0
M  V30 13125 H 1216.14 -5.32524 -2.76005 0
M  V30 13126 H 1217.82 -5.90722 -2.63926 0
M  V30 13127 N 1217.95 0.594978 -1.45938 0
M  V30 13128 C 1219.2 1.35093 -1.50314 0
M  V30 13129 C 1219.52 1.94412 -0.151315 0
M  V30 13130 O 1218.79 1.77876 0.820787 0
M  V30 13131 H 1217.37 0.501549 -0.553586 0
M  V30 13132 H 1220.04 0.697735 -1.81983 0
M  V30 13133 H 1219.13 2.16393 -2.24901 0
M  V30 13134 N 1219.43 1.33438 0.838571 0
M  V30 13135 C 1220.68 1.26106 1.59589 0
M  V30 13136 C 1221.03 -0.171524 1.91634 0
M  V30 13137 O 1220.33 -1.11368 1.55909 0
M  V30 13138 C 1220.52 2.07002 2.9135 0
M  V30 13139 C 1220.35 3.57981 2.72175 0
M  V30 13140 C 1219.12 4.27293 2.69719 0
M  V30 13141 C 1221.32 4.52308 2.4479 0
M  V30 13142 N 1219.3 5.64221 2.41925 0
M  V30 13143 C 1220.67 5.77127 2.26549 0
M  V30 13144 C 1222.73 4.4139 2.3039 0
M  V30 13145 C 1221.43 6.9226 1.95368 0
M  V30 13146 C 1223.45 5.56339 2.00602 0
M  V30 13147 C 1222.82 6.80167 1.83173 0
M  V30 13148 H 1218.92 0.516656 0.587018 0
M  V30 13149 H 1221.5 1.67982 0.984382 0
M  V30 13150 H 1219.67 1.67446 3.50452 0
M  V30 13151 H 1221.4 1.91437 3.56558 0
M  V30 13152 H 1218.16 3.79571 2.83236 0
M  V30 13153 H 1218.58 6.36403 2.30911 0
M  V30 13154 H 1223.22 3.46289 2.42577 0
M  V30 13155 H 1220.94 7.87357 1.81918 0
M  V30 13156 H 1224.53 5.49827 1.90214 0
M  V30 13157 H 1223.41 7.67609 1.60455 0
M  V30 13158 N 1220.91 -1.05686 1.16912 0
M  V30 13159 C 1222.14 -1.82282 0.978811 0
M  V30 13160 C 1222.55 -1.8278 -0.472972 0
M  V30 13161 O 1221.91 -1.25143 -1.32836 0
M  V30 13162 C 1221.96 -3.28623 1.50629 0
M  V30 13163 O 1221.68 -3.28269 2.90122 0
M  V30 13164 C 1223.18 -4.21927 1.35987 0
M  V30 13165 H 1220.4 -0.574558 0.346588 0
M  V30 13166 H 1222.95 -1.33301 1.55084 0
M  V30 13167 H 1221.1 -3.74893 0.976404 0
M  V30 13168 H 1221.52 -4.19824 3.14401 0
M  V30 13169 H 1222.99 -5.2261 1.77716 0
M  V30 13170 H 1223.47 -4.38131 0.30626 0
M  V30 13171 H 1224.07 -3.81508 1.87968 0
M  V30 13172 N 1222.39 -0.968567 -1.24324 0
M  V30 13173 C 1223.64 -0.629682 -1.9204 0
M  V30 13174 C 1223.96 0.837906 -1.7608 0
M  V30 13175 O 1223.23 1.5982 -1.13289 0
M  V30 13176 H 1221.81 -0.229901 -0.710742 0
M  V30 13177 H 1224.47 -1.22982 -1.512 0
M  V30 13178 H 1223.57 -0.871034 -2.99699 0
M  V30 13179 N 1223.87 1.39211 -0.738786 0
M  V30 13180 C 1225.09 2.04732 -0.298751 0
M  V30 13181 C 1225.51 1.55706 1.06776 0
M  V30 13182 O 1224.87 0.723605 1.67542 0
M  V30 13183 C 1224.92 3.60288 -0.29574 0
M  V30 13184 O 1224.64 4.07511 -1.60831 0
M  V30 13185 C 1226.14 4.43011 0.159994 0
M  V30 13186 H 1223.36 0.658296 -0.129952 0
M  V30 13187 H 1225.9 1.78186 -1.0035 0
M  V30 13188 H 1224.06 3.85722 0.360146 0
M  V30 13189 H 1224.47 5.01858 -1.52443 0
M  V30 13190 H 1225.95 5.51889 0.110941 0
M  V30 13191 H 1226.42 4.22325 1.20573 0
M  V30 13192 H 1227.03 4.22734 -0.466467 0
M  V30 13193 N 1225.34 0.486708 1.49896 0
M  V30 13194 C 1226.59 -0.0629451 2.02702 0
M  V30 13195 C 1226.92 -1.37956 1.36681 0
M  V30 13196 O 1226.2 -1.88025 0.497678 0
M  V30 13197 C 1226.48 -0.230461 3.59362 0
M  V30 13198 C 1226.33 1.10828 4.35933 0
M  V30 13199 C 1227.65 -0.977785 4.29101 0
M  V30 13200 H 1224.77 -0.0214017 0.736689 0
M  V30 13201 H 1227.41 0.635339 1.79063 0
M  V30 13202 H 1225.56 -0.825222 3.79634 0
M  V30 13203 H 1227.24 1.74082 4.27192 0
M  V30 13204 H 1225.48 1.7011 3.99055 0
M  V30 13205 H 1226.15 0.944532 5.43859 0
M  V30 13206 H 1228.63 -0.473505 4.13397 0
M  V30 13207 H 1227.5 -1.06382 5.38492 0
M  V30 13208 H 1227.76 -2.01813 3.9335 0
M  V30 13209 N 1226.82 -1.56058 0.219941 0
M  V30 13210 C 1228.05 -2.031 -0.42014 0
M  V30 13211 C 1228.47 -1.09875 -1.52673 0
M  V30 13212 O 1227.83 -0.0866458 -1.81093 0
M  V30 13213 C 1227.88 -3.48389 -0.93047 0
M  V30 13214 O 1226.98 -3.583 -2.04192 0
M  V30 13215 H 1226.32 -0.657129 -0.0952772 0
M  V30 13216 H 1228.85 -2.01787 0.338105 0
M  V30 13217 H 1228.86 -3.88678 -1.2407 0
M  V30 13218 H 1227.54 -4.15725 -0.120539 0
M  V30 13219 H 1226.12 -3.29898 -1.73845 0
M  V30 13220 N 1228.3 0.053464 -1.57509 0
M  V30 13221 C 1229.54 0.754231 -1.89976 0
M  V30 13222 C 1229.91 1.73805 -0.815833 0
M  V30 13223 O 1231.11 2.48527 -1.0241 0
M  V30 13224 C 1229.38 1.42768 -3.27646 0
M  V30 13225 S 1230.94 2.16098 -3.81899 0
M  V30 13226 H 1227.75 0.250421 -0.66544 0
M  V30 13227 H 1230.36 0.00963883 -1.95498 0
M  V30 13228 H 1229.06 0.698087 -4.04419 0
M  V30 13229 H 1228.59 2.21133 -3.25367 0
M  V30 13230 H 1230.61 3.42895 -3.5866 0
M  V30 13231 N 1229.78 1.54207 0.325255 0
M  V30 13232 C 1231.01 1.76293 1.08298 0
M  V30 13233 C 1231.42 0.510722 1.81761 0
M  V30 13234 O 1230.78 -0.5185 1.7498 0
M  V30 13235 C 1230.83 2.95498 2.08238 0
M  V30 13236 O 1230.55 4.15877 1.37759 0
M  V30 13237 C 1232.05 3.29781 2.96242 0
M  V30 13238 H 1229.27 0.588576 0.322209 0
M  V30 13239 H 1231.82 2.0109 0.371896 0
M  V30 13240 H 1229.97 2.72979 2.74884 0
M  V30 13241 H 1230.39 4.82918 2.04672 0
M  V30 13242 H 1231.86 4.16495 3.62265 0
M  V30 13243 H 1232.34 2.46874 3.63249 0
M  V30 13244 H 1232.94 3.54372 2.3516 0
M  V30 13245 N 1231.26 -0.58723 1.46251 0
M  V30 13246 C 1232.48 -1.37661 1.55126 0
M  V30 13247 C 1232.91 -1.87123 0.191489 0
M  V30 13248 O 1232.27 -1.6131 -0.827576 0
M  V30 13249 C 1232.31 -2.54324 2.5564 0
M  V30 13250 O 1231.42 -3.55617 2.0883 0
M  V30 13251 H 1230.76 -0.410154 0.522178 0
M  V30 13252 H 1233.29 -0.712738 1.91784 0
M  V30 13253 H 1233.3 -3.01301 2.75103 0
M  V30 13254 H 1231.97 -2.17675 3.54387 0
M  V30 13255 H 1230.55 -3.15151 1.99335 0
M  V30 13256 N 1232.74 -1.33881 -0.831482 0
M  V30 13257 C 1233.98 -1.25755 -1.58719 0
M  V30 13258 C 1234.31 0.174746 -1.93713 0
M  V30 13259 O 1233.57 1.13384 -1.59507 0
M  V30 13260 C 1233.86 -2.08544 -2.90249 0
M  V30 13261 C 1233.53 -3.57651 -2.74585 0
M  V30 13262 C 1232.19 -3.983 -2.7002 0
M  V30 13263 C 1234.54 -4.52369 -2.58866 0
M  V30 13264 C 1231.87 -5.31872 -2.47647 0
M  V30 13265 C 1234.22 -5.86112 -2.38025 0
M  V30 13266 C 1232.89 -6.25934 -2.31867 0
M  V30 13267 H 1232.16 -0.460171 -0.580796 0
M  V30 13268 H 1234.81 -1.6554 -0.96274 0
M  V30 13269 H 1233.11 -1.6156 -3.56939 0
M  V30 13270 H 1234.81 -1.99609 -3.47789 0
M  V30 13271 H 1231.4 -3.2538 -2.78973 0
M  V30 13272 H 1235.58 -4.21868 -2.61421 0
M  V30 13273 H 1230.84 -5.61756 -2.41331 0
M  V30 13274 H 1235.01 -6.59103 -2.24847 0
M  V30 13275 H 1232.64 -7.29372 -2.14291 0
M  V30 13276 N 1234.21 1.05064 -1.1747 0
M  V30 13277 C 1235.16 2.14948 -0.888815 0
M  V30 13278 C 1236.16 1.68761 0.147038 0
M  V30 13279 O 1237.36 1.8 -0.000164278 0
M  V30 13280 H 1233.74 0.701898 -0.269894 0
M  V30 13281 H 1235.71 2.36265 -1.82268 0
M  V30 13282 C 1234.46 3.45154 -0.420006 0
M  V30 13283 H 1233.78 3.81096 -1.20854 0
M  V30 13284 H 1235.22 4.23209 -0.258866 0
M  V30 13285 C 1233.68 3.25671 0.862551 0
M  V30 13286 O 1234.21 3.5235 1.92906 0
M  V30 13287 N 1232.41 2.79048 0.81121 0
M  V30 13288 H 1231.96 2.57537 -0.0569025 0
M  V30 13289 H 1231.92 2.66392 1.66981 0
M  V30 13290 N 1235.69 0.975146 1.23809 0
M  V30 13291 C 1236.62 0.45593 2.23599 0
M  V30 13292 C 1237.6 -0.474069 1.55536 0
M  V30 13293 O 1238.79 -0.40373 1.84126 0
M  V30 13294 C 1235.91 -0.341008 3.36979 0
M  V30 13295 C 1234.96 0.532362 4.23164 0
M  V30 13296 S 1235.79 1.97706 4.97667 0
M  V30 13297 C 1236.95 1.18912 6.145 0
M  V30 13298 H 1237.18 1.30157 2.67295 0
M  V30 13299 H 1234.71 0.78074 1.33206 0
M  V30 13300 H 1236.67 -0.794817 4.02732 0
M  V30 13301 H 1235.33 -1.16171 2.91827 0
M  V30 13302 H 1234.53 -0.0798928 5.03937 0
M  V30 13303 H 1234.13 0.922202 3.62452 0
M  V30 13304 H 1236.42 0.447823 6.76018 0
M  V30 13305 H 1237.36 1.97148 6.80102 0
M  V30 13306 H 1237.77 0.710216 5.60014 0
M  V30 13307 N 1237.17 -1.38817 0.746158 0
M  V30 13308 C 1238.45 -1.94303 0.224841 0
M  V30 13309 C 1238.83 -1.68207 -1.27552 0
M  V30 13310 O 1238.17 -1.01647 -2.04646 0
M  V30 13311 C 1238.38 -3.44306 0.5705 0
M  V30 13312 C 1239.73 -4.21329 0.526015 0
M  V30 13313 O 1240.76 -3.52554 0.508351 0
M  V30 13314 O 1239.62 -5.4392 0.530383 0
M  V30 13315 H 1236.71 -0.825785 0.0448047 0
M  V30 13316 H 1239.26 -1.48253 0.825775 0
M  V30 13317 H 1238.03 -3.56779 1.60701 0
M  V30 13318 H 1237.65 -3.97556 -0.0588271 0
M  V30 13319 N 1238.65 -0.49465 -1.49636 0
M  V30 13320 C 1239.88 0.0491129 -2.06842 0
M  V30 13321 C 1240.29 1.31395 -1.35576 0
M  V30 13322 O 1239.65 1.7731 -0.432135 0
M  V30 13323 C 1239.7 0.313171 -3.60141 0
M  V30 13324 O 1239.42 -0.90152 -4.28724 0
M  V30 13325 C 1240.92 0.901284 -4.34041 0
M  V30 13326 H 1238.14 -0.0176186 -0.670769 0
M  V30 13327 H 1240.68 -0.690188 -1.92501 0
M  V30 13328 H 1238.84 1.00244 -3.74206 0
M  V30 13329 H 1239.25 -0.660477 -5.20325 0
M  V30 13330 H 1240.73 1.03567 -5.42197 0
M  V30 13331 H 1241.2 1.89746 -3.96097 0
M  V30 13332 H 1241.81 0.249677 -4.24566 0
M  V30 13333 N 1240.13 1.55939 -0.228214 0
M  V30 13334 C 1241.06 2.2357 0.6737 0
M  V30 13335 C 1242.04 1.20964 1.1959 0
M  V30 13336 O 1243.22 1.49568 1.23867 0
M  V30 13337 C 1240.35 2.92076 1.87906 0
M  V30 13338 C 1239.31 4.01211 1.49043 0
M  V30 13339 C 1238.63 4.57047 2.77511 0
M  V30 13340 C 1239.93 5.17914 0.67544 0
M  V30 13341 H 1241.63 2.99199 0.109806 0
M  V30 13342 H 1239.17 1.43908 0.0513732 0
M  V30 13343 H 1241.12 3.38083 2.51551 0
M  V30 13344 H 1239.85 2.13906 2.46803 0
M  V30 13345 H 1238.51 3.55945 0.877411 0
M  V30 13346 H 1238.16 3.75599 3.34566 0
M  V30 13347 H 1237.86 5.30707 2.52239 0
M  V30 13348 H 1239.38 5.05776 3.42087 0
M  V30 13349 H 1240.79 5.60261 1.21575 0
M  V30 13350 H 1239.19 5.97847 0.519536 0
M  V30 13351 H 1240.26 4.83866 -0.316495 0
M  V30 13352 N 1241.6 -0.0451101 1.57535 0
M  V30 13353 C 1242.57 -1.03521 2.0449 0
M  V30 13354 C 1243.57 -1.30009 0.946265 0
M  V30 13355 O 1244.76 -1.25282 1.21038 0
M  V30 13356 C 1241.89 -2.37221 2.44824 0
M  V30 13357 H 1243.08 -0.629943 2.93209 0
M  V30 13358 H 1240.64 -0.291544 1.53557 0
M  V30 13359 H 1241.37 -2.82528 1.59212 0
M  V30 13360 H 1241.16 -2.19329 3.25018 0
M  V30 13361 H 1242.65 -3.08337 2.81635 0
M  V30 13362 N 1243.08 -1.54377 -0.317073 0
M  V30 13363 C 1244.31 -1.76865 -1.07362 0
M  V30 13364 C 1244.73 -0.520354 -1.81488 0
M  V30 13365 O 1244.08 0.509213 -1.75252 0
M  V30 13366 C 1244.13 -2.96598 -2.06668 0
M  V30 13367 O 1243.85 -4.16602 -1.35552 0
M  V30 13368 C 1245.36 -3.31348 -2.94489 0
M  V30 13369 H 1242.58 -0.590277 -0.319083 0
M  V30 13370 H 1245.12 -2.01284 -0.361227 0
M  V30 13371 H 1243.27 -2.74433 -2.73432 0
M  V30 13372 H 1243.69 -4.83996 -2.02108 0
M  V30 13373 H 1245.16 -4.1841 -3.60051 0
M  V30 13374 H 1245.64 -2.48797 -3.61935 0
M  V30 13375 H 1246.25 -3.55614 -2.33278 0
M  V30 13376 N 1244.56 0.579466 -1.4656 0
M  V30 13377 C 1245.79 1.36351 -1.55615 0
M  V30 13378 C 1246.2 1.87755 -0.198405 0
M  V30 13379 O 1245.56 1.63795 0.804834 0
M  V30 13380 C 1245.61 2.54881 -2.56355 0
M  V30 13381 O 1245.33 2.05607 -3.86856 0
M  V30 13382 C 1246.83 3.47391 -2.75381 0
M  V30 13383 H 1244.05 0.416426 -0.526147 0
M  V30 13384 H 1246.6 0.704134 -1.91995 0
M  V30 13385 H 1244.75 3.16802 -2.2297 0
M  V30 13386 H 1245.17 2.82823 -4.41714 0
M  V30 13387 H 1246.64 4.27031 -3.49783 0
M  V30 13388 H 1247.12 3.99532 -1.82403 0
M  V30 13389 H 1247.72 2.91303 -3.09875 0
M  V30 13390 N 1246.04 1.3432 0.824371 0
M  V30 13391 C 1247.28 1.26783 1.58284 0
M  V30 13392 C 1247.62 -0.162282 1.93521 0
M  V30 13393 O 1246.89 -1.1073 1.59903 0
M  V30 13394 C 1247.18 2.15725 2.88331 0
M  V30 13395 C 1247.03 3.67266 2.59684 0
M  V30 13396 C 1248.35 2.04141 3.8989 0
M  V30 13397 H 1245.47 0.461893 0.574303 0
M  V30 13398 H 1248.11 1.64558 0.949769 0
M  V30 13399 H 1246.26 1.83639 3.42358 0
M  V30 13400 H 1247.93 4.09711 2.11978 0
M  V30 13401 H 1246.17 3.88426 1.93151 0
M  V30 13402 H 1246.84 4.24863 3.52414 0
M  V30 13403 H 1249.32 2.3231 3.45212 0
M  V30 13404 H 1248.2 2.68601 4.7869 0
M  V30 13405 H 1248.46 1.01795 4.30221 0
M  V30 13406 N 1247.52 -1.0444 1.18026 0
M  V30 13407 C 1248.76 -1.77838 0.974756 0
M  V30 13408 C 1249.1 -1.87792 -0.494755 0
M  V30 13409 O 1248.37 -1.38327 -1.36733 0
M  V30 13410 C 1248.65 -3.21315 1.62569 0
M  V30 13411 C 1248.51 -3.19327 3.16781 0
M  V30 13412 C 1249.83 -4.19337 1.33583 0
M  V30 13413 H 1246.94 -0.645575 0.35553 0
M  V30 13414 H 1249.59 -1.22023 1.45638 0
M  V30 13415 H 1247.74 -3.68974 1.21617 0
M  V30 13416 H 1249.41 -2.79687 3.66842 0
M  V30 13417 H 1247.65 -2.57461 3.49137 0
M  V30 13418 H 1248.32 -4.20626 3.5746 0
M  V30 13419 H 1250.8 -3.80208 1.69059 0
M  V30 13420 H 1249.67 -5.17953 1.81702 0
M  V30 13421 H 1249.94 -4.41346 0.258016 0
M  V30 13422 N 1248.99 -0.981699 -1.2329 0
M  V30 13423 C 1250.41 -0.690539 -1.43888 0
M  V30 13424 C 1250.61 0.742816 -1.87309 0
M  V30 13425 O 1249.67 1.5151 -2.01993 0
M  V30 13426 C 1250.98 -1.68657 -2.48948 0
M  V30 13427 C 1252.53 -1.70076 -2.62761 0
M  V30 13428 C 1253 -2.68513 -3.71032 0
M  V30 13429 N 1254.49 -2.67039 -3.78476 0
M  V30 13430 C 1255.23 -3.39874 -4.61815 0
M  V30 13431 N 1254.72 -4.22273 -5.49233 0
M  V30 13432 N 1256.52 -3.28633 -4.56023 0
M  V30 13433 H 1248.67 -1.90758 -0.934077 0
M  V30 13434 H 1250.93 -0.822058 -0.472149 0
M  V30 13435 H 1250.64 -2.7117 -2.23964 0
M  V30 13436 H 1250.51 -1.47045 -3.47358 0
M  V30 13437 H 1252.9 -0.682673 -2.87095 0
M  V30 13438 H 1252.98 -1.95754 -1.64663 0
M  V30 13439 H 1252.62 -3.70464 -3.47446 0
M  V30 13440 H 1252.55 -2.40109 -4.68674 0
M  V30 13441 H 1255.04 -2.07241 -3.16006 0
M  V30 13442 H 1255.36 -4.74702 -6.09818 0
M  V30 13443 H 1253.7 -4.26364 -5.48852 0
M  V30 13444 H 1256.89 -2.6371 -3.86749 0
M  V30 13445 H 1257.07 -3.85656 -5.20743 0
M  V30 13446 N 1250.47 1.3842 -0.753509 0
M  V30 13447 C 1251.7 2.04403 -0.320449 0
M  V30 13448 C 1252.12 1.5683 1.05118 0
M  V30 13449 O 1251.47 0.741335 1.66765 0
M  V30 13450 C 1251.52 3.59954 -0.333937 0
M  V30 13451 O 1251.24 4.05782 -1.65144 0
M  V30 13452 C 1252.75 4.43156 0.112997 0
M  V30 13453 H 1249.97 0.656881 -0.136927 0
M  V30 13454 H 1252.51 1.77112 -1.02234 0
M  V30 13455 H 1250.66 3.86083 0.319215 0
M  V30 13456 H 1251.08 5.00213 -1.57757 0
M  V30 13457 H 1252.55 5.51975 0.0523995 0
M  V30 13458 H 1253.03 4.23581 1.16087 0
M  V30 13459 H 1253.64 4.22216 -0.511278 0
M  V30 13460 N 1251.95 0.502579 1.49372 0
M  V30 13461 C 1253.18 -0.0380876 2.06565 0
M  V30 13462 C 1253.59 -1.31224 1.36297 0
M  V30 13463 O 1252.93 -1.78463 0.435517 0
M  V30 13464 C 1252.99 -0.360462 3.57688 0
M  V30 13465 C 1252.66 0.816203 4.49652 0
M  V30 13466 C 1253.65 1.70713 4.91073 0
M  V30 13467 C 1251.34 1.01545 4.91929 0
M  V30 13468 C 1253.33 2.78144 5.73511 0
M  V30 13469 C 1251.02 2.09294 5.74142 0
M  V30 13470 C 1252.02 2.97428 6.14838 0
M  V30 13471 O 1251.71 4.03317 6.95407 0
M  V30 13472 H 1251.44 0.0179548 0.675762 0
M  V30 13473 H 1253.99 0.699609 1.93118 0
M  V30 13474 H 1252.22 -1.15177 3.69149 0
M  V30 13475 H 1253.91 -0.839931 3.97115 0
M  V30 13476 H 1254.68 1.56502 4.59056 0
M  V30 13477 H 1250.56 0.338822 4.59753 0
M  V30 13478 H 1254.1 3.46965 6.05195 0
M  V30 13479 H 1250 2.235 6.05572 0
M  V30 13480 H 1250.77 4.00689 7.13716 0
M  V30 13481 N 1253.43 -1.55816 0.23648 0
M  V30 13482 C 1254.84 -1.59159 -0.118601 0
M  V30 13483 C 1255.04 -1.25352 -1.57763 0
M  V30 13484 O 1254.1 -0.995863 -2.32032 0
M  V30 13485 C 1255.41 -2.99885 0.221175 0
M  V30 13486 C 1256.96 -3.12567 0.164624 0
M  V30 13487 C 1257.44 -4.55496 0.478285 0
M  V30 13488 N 1258.93 -4.61215 0.428402 0
M  V30 13489 C 1259.66 -5.69768 0.644398 0
M  V30 13490 N 1259.16 -6.86624 0.922966 0
M  V30 13491 N 1260.95 -5.59143 0.575814 0
M  V30 13492 H 1253.1 -1.76063 1.18809 0
M  V30 13493 H 1255.37 -0.819079 0.477297 0
M  V30 13494 H 1255.07 -3.29326 1.2344 0
M  V30 13495 H 1254.95 -3.74425 -0.456723 0
M  V30 13496 H 1257.33 -2.82914 -0.839263 0
M  V30 13497 H 1257.41 -2.40325 0.876219 0
M  V30 13498 H 1257.06 -4.85868 1.47968 0
M  V30 13499 H 1256.99 -5.25984 -0.254671 0
M  V30 13500 H 1259.48 -3.77251 0.221398 0
M  V30 13501 H 1259.79 -7.6528 1.07548 0
M  V30 13502 H 1258.14 -6.88333 0.960325 0
M  V30 13503 H 1261.33 -4.66727 0.358307 0
M  V30 13504 H 1261.5 -6.43674 0.747548 0
M  V30 13505 N 1254.91 0.036755 -1.57557 0
M  V30 13506 C 1256.32 0.392264 -1.54704 0
M  V30 13507 C 1256.52 1.77076 -0.96157 0
M  V30 13508 O 1255.58 2.45766 -0.579263 0
M  V30 13509 C 1256.89 0.301168 -2.99188 0
M  V30 13510 C 1258.44 0.378813 -3.10699 0
M  V30 13511 C 1258.91 0.317249 -4.569 0
M  V30 13512 N 1260.41 0.376277 -4.61669 0
M  V30 13513 C 1261.14 0.351411 -5.72322 0
M  V30 13514 N 1260.64 0.279288 -6.92237 0
M  V30 13515 N 1262.43 0.400571 -5.60671 0
M  V30 13516 H 1254.58 -0.865455 -1.93968 0
M  V30 13517 H 1256.84 -0.328339 -0.889324 0
M  V30 13518 H 1256.55 -0.64582 -3.4572 0
M  V30 13519 H 1256.42 1.09784 -3.6087 0
M  V30 13520 H 1258.81 1.31623 -2.6412 0
M  V30 13521 H 1258.89 -0.447072 -2.51863 0
M  V30 13522 H 1258.54 -0.616469 -5.04145 0
M  V30 13523 H 1258.47 1.16114 -5.13639 0
M  V30 13524 H 1260.96 0.434843 -3.7539 0
M  V30 13525 H 1261.27 0.265202 -7.72345 0
M  V30 13526 H 1259.61 0.24545 -6.94566 0
M  V30 13527 H 1262.81 0.454854 -4.65885 0
M  V30 13528 H 1262.98 0.377724 -6.46898 0
M  V30 13529 N 1256.39 1.54543 0.308881 0
M  V30 13530 C 1257.61 1.77753 1.06857 0
M  V30 13531 C 1258.04 0.531616 1.80431 0
M  V30 13532 O 1257.39 -0.517513 1.73757 0
M  V30 13533 C 1257.44 2.97968 2.03094 0
M  V30 13534 O 1256.55 2.70541 3.11257 0
M  V30 13535 H 1255.89 0.588576 0.307368 0
M  V30 13536 H 1258.42 2.01607 0.348703 0
M  V30 13537 H 1258.43 3.25722 2.45702 0
M  V30 13538 H 1257.1 3.88314 1.48948 0
M  V30 13539 H 1255.68 2.53781 2.7322 0
M  V30 13540 N 1257.86 -0.571685 1.46866 0
M  V30 13541 C 1258.81 -1.67992 1.58263 0
M  V30 13542 C 1259.78 -1.60535 0.426345 0
M  V30 13543 O 1260.97 -1.79584 0.644534 0
M  V30 13544 C 1258.11 -3.06327 1.58927 0
M  V30 13545 C 1257.22 -3.24328 2.85369 0
M  V30 13546 C 1256.35 -4.52976 2.77464 0
M  V30 13547 C 1255.39 -4.64359 3.98795 0
M  V30 13548 N 1254.53 -5.84345 3.89211 0
M  V30 13549 H 1259.37 -1.57589 2.52922 0
M  V30 13550 H 1256.91 -0.767883 1.25467 0
M  V30 13551 H 1258.86 -3.86411 1.57296 0
M  V30 13552 H 1257.49 -3.15601 0.677912 0
M  V30 13553 H 1256.55 -2.37774 2.96931 0
M  V30 13554 H 1257.86 -3.28605 3.7526 0
M  V30 13555 H 1257.01 -5.41303 2.74001 0
M  V30 13556 H 1255.75 -4.51155 1.85231 0
M  V30 13557 H 1254.76 -3.74448 4.02578 0
M  V30 13558 H 1255.98 -4.6795 4.92137 0
M  V30 13559 H 1253.93 -5.835 2.99772 0
M  V30 13560 H 1253.84 -5.89938 4.72768 0
M  V30 13561 H 1255.11 -6.75072 3.89741 0
M  V30 13562 N 1259.34 -1.34755 -0.817236 0
M  V30 13563 C 1260.75 -1.24594 -1.39044 0
M  V30 13564 C 1261.1 0.126184 -1.95794 0
M  V30 13565 O 1260.23 1.02675 -1.90491 0
M  V30 13566 C 1260.82 -2.25592 -2.52772 0
M  V30 13567 C 1259.38 -2.19204 -3.05984 0
M  V30 13568 C 1258.53 -2.11884 -1.78886 0
M  V30 13569 H 1261.48 -1.46039 -0.621155 0
M  V30 13570 H 1261.5 -1.87622 -3.31026 0
M  V30 13571 H 1261.01 -3.25447 -2.11438 0
M  V30 13572 H 1259.11 -1.22725 -3.51809 0
M  V30 13573 H 1259.23 -3.10707 -3.64689 0
M  V30 13574 H 1257.59 -1.57694 -2.00012 0
M  V30 13575 H 1258.37 -3.13582 -1.39719 0
M  V30 13576 N 1260.82 1.03812 -1.18578 0
M  V30 13577 C 1262.07 1.77056 -0.982718 0
M  V30 13578 C 1262.39 1.88294 0.487421 0
M  V30 13579 O 1261.65 1.38946 1.37813 0
M  V30 13580 C 1261.95 3.20297 -1.5857 0
M  V30 13581 C 1261.61 3.29088 -3.0824 0
M  V30 13582 C 1260.28 3.31194 -3.4909 0
M  V30 13583 C 1262.63 3.28981 -4.04253 0
M  V30 13584 C 1259.96 3.30839 -4.84523 0
M  V30 13585 C 1262.31 3.30166 -5.39605 0
M  V30 13586 C 1260.97 3.30565 -5.79899 0
M  V30 13587 H 1260.24 0.647895 -0.359602 0
M  V30 13588 H 1262.89 1.21911 -1.47682 0
M  V30 13589 H 1261.19 3.7846 -1.01367 0
M  V30 13590 H 1262.89 3.75619 -1.40398 0
M  V30 13591 H 1259.48 3.28171 -2.75685 0
M  V30 13592 H 1263.67 3.26543 -3.73743 0
M  V30 13593 H 1258.92 3.29467 -5.15035 0
M  V30 13594 H 1263.1 3.29033 -6.13767 0
M  V30 13595 H 1260.72 3.30044 -6.84818 0
M  V30 13596 N 1262.3 0.988223 1.22768 0
M  V30 13597 C 1263.71 0.697281 1.7319 0
M  V30 13598 C 1264.06 -0.786111 1.79763 0
M  V30 13599 O 1263.18 -1.61465 1.44077 0
M  V30 13600 C 1263.78 1.25905 3.14537 0
M  V30 13601 C 1262.34 1.01759 3.62384 0
M  V30 13602 C 1261.49 1.38207 2.40404 0
M  V30 13603 H 1264.44 1.16114 1.08181 0
M  V30 13604 H 1264.46 0.635315 3.75159 0
M  V30 13605 H 1263.97 2.33869 3.09721 0
M  V30 13606 H 1262.07 -0.045627 3.72572 0
M  V30 13607 H 1262.18 1.67767 4.48766 0
M  V30 13608 H 1260.55 0.800607 2.4179 0
M  V30 13609 H 1261.33 2.47165 2.38253 0
M  V30 13610 N 1263.78 -1.38018 0.760839 0
M  V30 13611 C 1264.73 -2.27717 0.113521 0
M  V30 13612 C 1265.71 -1.45562 -0.685613 0
M  V30 13613 O 1266.9 -1.68226 -0.550377 0
M  V30 13614 C 1264.03 -3.34478 -0.77325 0
M  V30 13615 C 1263.12 -4.24087 0.0331238 0
M  V30 13616 N 1263.51 -4.94283 1.07323 0
M  V30 13617 C 1261.81 -4.45584 -0.192565 0
M  V30 13618 C 1262.51 -5.60344 1.56172 0
M  V30 13619 N 1261.48 -5.36499 0.875768 0
M  V30 13620 H 1265.28 -2.79456 0.910021 0
M  V30 13621 H 1262.8 -1.51006 0.597561 0
M  V30 13622 H 1264.8 -3.97635 -1.25268 0
M  V30 13623 H 1263.46 -2.84296 -1.56862 0
M  V30 13624 H 1264.47 -4.97036 1.45517 0
M  V30 13625 H 1261.14 -4.06296 -0.960704 0
M  V30 13626 H 1262.53 -6.26477 2.42851 0
M  V30 13627 N 1265.25 -0.510493 -1.49103 0
M  V30 13628 C 1266.67 -0.167061 -1.58723 0
M  V30 13629 C 1266.87 1.32886 -1.51471 0
M  V30 13630 O 1265.93 2.10559 -1.39359 0
M  V30 13631 C 1267.24 -0.752293 -2.91137 0
M  V30 13632 C 1268.79 -0.719258 -3.04624 0
M  V30 13633 C 1269.26 -1.28272 -4.39671 0
M  V30 13634 N 1270.75 -1.24383 -4.46187 0
M  V30 13635 C 1271.49 -1.6499 -5.4915 0
M  V30 13636 N 1270.98 -2.13235 -6.59168 0
M  V30 13637 N 1272.78 -1.56348 -5.39918 0
M  V30 13638 H 1264.93 -1.48296 -1.5206 0
M  V30 13639 H 1267.19 -0.615683 -0.72086 0
M  V30 13640 H 1266.9 -1.80178 -3.02041 0
M  V30 13641 H 1266.77 -0.218152 -3.76569 0
M  V30 13642 H 1269.16 0.321413 -2.93344 0
M  V30 13643 H 1269.24 -1.29065 -2.20852 0
M  V30 13644 H 1268.88 -2.32222 -4.51703 0
M  V30 13645 H 1268.81 -0.687179 -5.22097 0
M  V30 13646 H 1271.3 -0.890446 -3.67259 0
M  V30 13647 H 1271.62 -2.42266 -7.33844 0
M  V30 13648 H 1269.96 -2.17216 -6.60183 0
M  V30 13649 H 1273.15 -1.18469 -4.52861 0
M  V30 13650 H 1273.33 -1.88317 -6.20033 0
M  V30 13651 N 1266.73 1.55688 -0.24474 0
M  V30 13652 C 1267.66 2.18616 0.68844 0
M  V30 13653 C 1268.68 1.16185 1.14039 0
M  V30 13654 O 1269.87 1.43059 1.06754 0
M  V30 13655 C 1266.97 2.77375 1.94721 0
M  V30 13656 C 1266.14 4.05204 1.64706 0
M  V30 13657 C 1265.2 4.48302 2.75521 0
M  V30 13658 O 1264.22 5.14723 2.42999 0
M  V30 13659 N 1265.43 4.15907 4.04971 0
M  V30 13660 H 1268.19 2.99324 0.150018 0
M  V30 13661 H 1265.75 1.61771 -0.0646183 0
M  V30 13662 H 1267.74 3.03165 2.68091 0
M  V30 13663 H 1266.31 2.00837 2.39548 0
M  V30 13664 H 1265.53 3.87026 0.74865 0
M  V30 13665 H 1266.82 4.8855 1.42114 0
M  V30 13666 H 1266.22 3.62579 4.34227 0
M  V30 13667 H 1264.78 4.46538 4.74813 0
M  V30 13668 N 1268.21 -0.0283989 1.57574 0
M  V30 13669 C 1269.46 -0.717656 1.88929 0
M  V30 13670 C 1269.78 -1.7586 0.842517 0
M  V30 13671 O 1269.05 -1.95509 -0.123774 0
M  V30 13672 H 1267.63 -0.268051 0.69725 0
M  V30 13673 H 1270.29 0.00580691 1.94899 0
M  V30 13674 H 1269.39 -1.2068 2.87824 0
M  V30 13675 N 1269.69 -1.54705 -0.300681 0
M  V30 13676 C 1270.93 -1.75738 -1.04381 0
M  V30 13677 C 1271.29 -0.532138 -1.84478 0
M  V30 13678 O 1272.49 -0.620213 -2.61547 0
M  V30 13679 C 1270.76 -3.01095 -1.92553 0
M  V30 13680 S 1272.32 -3.43132 -2.73507 0
M  V30 13681 H 1269.14 -0.617737 -0.352025 0
M  V30 13682 H 1271.74 -1.9291 -0.317187 0
M  V30 13683 H 1270.45 -3.88393 -1.32585 0
M  V30 13684 H 1269.98 -2.86512 -2.69582 0
M  V30 13685 H 1271.99 -3.00227 -3.95067 0
M  V30 13686 N 1271.17 0.563888 -1.47167 0
M  V30 13687 C 1272.42 1.31766 -1.5271 0
M  V30 13688 C 1272.73 1.94664 -0.191164 0
M  V30 13689 O 1273.93 2.71214 -0.124543 0
M  V30 13690 C 1272.39 2.38907 -2.69168 0
M  V30 13691 C 1272 1.8223 -4.09263 0
M  V30 13692 C 1273.74 3.15508 -2.83999 0
M  V30 13693 C 1271.65 2.87111 -5.17031 0
M  V30 13694 H 1270.58 0.495421 -0.568396 0
M  V30 13695 H 1273.23 0.599665 -1.73425 0
M  V30 13696 H 1271.61 3.13591 -2.4182 0
M  V30 13697 H 1272.79 1.13963 -4.46485 0
M  V30 13698 H 1271.1 1.18235 -3.99261 0
M  V30 13699 H 1273.7 3.93816 -3.61681 0
M  V30 13700 H 1274.04 3.69277 -1.92197 0
M  V30 13701 H 1274.57 2.47934 -3.11085 0
M  V30 13702 H 1271.31 2.38204 -6.10687 0
M  V30 13703 H 1270.83 3.53809 -4.84334 0
M  V30 13704 H 1272.51 3.50724 -5.43692 0
M  V30 13705 N 1272.64 1.35187 0.810078 0
M  V30 13706 C 1273.87 1.31371 1.59841 0
M  V30 13707 C 1274.29 -0.109547 1.88482 0
M  V30 13708 O 1273.64 -1.06047 1.48527 0
M  V30 13709 C 1273.7 2.11496 2.93175 0
M  V30 13710 O 1273.42 3.48273 2.65777 0
M  V30 13711 C 1274.92 2.15226 3.87547 0
M  V30 13712 H 1272.14 0.451428 0.496441 0
M  V30 13713 H 1274.68 1.7799 1.00697 0
M  V30 13714 H 1272.84 1.68486 3.48843 0
M  V30 13715 H 1273.25 3.89845 3.50886 0
M  V30 13716 H 1274.72 2.75687 4.78226 0
M  V30 13717 H 1275.2 1.15007 4.23875 0
M  V30 13718 H 1275.81 2.58382 3.37815 0
M  V30 13719 N 1274.12 -1.03182 1.19127 0
M  V30 13720 C 1275.05 -2.11462 0.884098 0
M  V30 13721 C 1276.07 -1.62342 -0.121984 0
M  V30 13722 O 1277.26 -1.78179 0.107038 0
M  V30 13723 C 1274.36 -3.37559 0.301227 0
M  V30 13724 C 1273.53 -4.15878 1.35514 0
M  V30 13725 C 1272.59 -5.20291 0.786349 0
M  V30 13726 O 1271.61 -5.50069 1.46331 0
M  V30 13727 N 1272.82 -5.79038 -0.411803 0
M  V30 13728 H 1275.58 -2.38405 1.81613 0
M  V30 13729 H 1273.14 -1.19449 1.09287 0
M  V30 13730 H 1275.13 -4.04593 -0.0930685 0
M  V30 13731 H 1273.7 -3.07987 -0.535022 0
M  V30 13732 H 1272.92 -3.44036 1.9244 0
M  V30 13733 H 1274.21 -4.64993 2.06539 0
M  V30 13734 H 1273.61 -5.57158 -0.979353 0
M  V30 13735 H 1272.17 -6.47495 -0.747912 0
M  V30 13736 N 1275.6 -0.99472 -1.22242 0
M  V30 13737 C 1276.55 -0.546504 -2.24236 0
M  V30 13738 C 1277.52 0.422101 -1.60647 0
M  V30 13739 O 1278.7 0.326452 -1.87987 0
M  V30 13740 C 1275.84 0.130909 -3.44852 0
M  V30 13741 C 1274.96 -0.879653 -4.22949 0
M  V30 13742 C 1274.09 -0.175569 -5.3091 0
M  V30 13743 C 1273.13 -1.17438 -6.00729 0
M  V30 13744 N 1272.27 -0.498474 -7.00328 0
M  V30 13745 H 1277.11 -1.42099 -2.61939 0
M  V30 13746 H 1274.64 -0.711755 -1.28734 0
M  V30 13747 H 1276.6 0.540596 -4.13683 0
M  V30 13748 H 1275.23 0.96917 -3.07907 0
M  V30 13749 H 1274.28 -1.40765 -3.53397 0
M  V30 13750 H 1275.6 -1.64017 -4.71062 0
M  V30 13751 H 1274.75 0.290756 -6.06003 0
M  V30 13752 H 1273.49 0.617438 -4.83776 0
M  V30 13753 H 1272.49 -1.65131 -5.24416 0
M  V30 13754 H 1273.72 -1.96829 -6.4995 0
M  V30 13755 H 1271.66 0.275063 -6.55423 0
M  V30 13756 H 1271.58 -1.19741 -7.46457 0
M  V30 13757 H 1272.85 -0.0550119 -7.79481 0
M  V30 13758 N 1277.08 1.37613 -0.768148 0
M  V30 13759 C 1278.03 2.3218 -0.13974 0
M  V30 13760 C 1279.02 1.54754 0.689023 0
M  V30 13761 O 1280.23 1.70177 0.586489 0
M  V30 13762 H 1276.6 0.751536 -0.0264001 0
M  V30 13763 H 1278.57 2.82768 -0.953139 0
M  V30 13764 C 1277.32 3.39997 0.727829 0
M  V30 13765 H 1276.64 3.99676 0.0994851 0
M  V30 13766 H 1278.08 4.08538 1.13456 0
M  V30 13767 C 1276.54 2.79778 1.87686 0
M  V30 13768 O 1277.07 2.70241 2.97208 0
M  V30 13769 N 1275.28 2.37373 1.67637 0
M  V30 13770 H 1274.83 2.4533 0.785552 0
M  V30 13771 H 1274.78 1.97426 2.44684 0
M  V30 13772 N 1278.56 0.518393 1.4883 0
M  V30 13773 C 1279.49 -0.239685 2.32267 0
M  V30 13774 C 1280.47 -0.94613 1.41359 0
M  V30 13775 O 1281.65 -0.934162 1.70256 0
M  V30 13776 C 1278.78 -1.29411 3.22289 0
M  V30 13777 C 1277.74 -0.706504 4.22129 0
M  V30 13778 C 1277.06 -1.86273 5.01205 0
M  V30 13779 C 1278.36 0.314079 5.21355 0
M  V30 13780 H 1280.06 0.4568 2.95895 0
M  V30 13781 H 1277.6 0.221126 1.42292 0
M  V30 13782 H 1279.56 -1.8323 3.7948 0
M  V30 13783 H 1278.28 -2.02001 2.56638 0
M  V30 13784 H 1276.94 -0.189924 3.66108 0
M  V30 13785 H 1276.59 -2.57674 4.31988 0
M  V30 13786 H 1276.29 -1.47554 5.68772 0
M  V30 13787 H 1277.81 -2.40492 5.61245 0
M  V30 13788 H 1279.22 -0.136604 5.73137 0
M  V30 13789 H 1277.62 0.618026 5.96909 0
M  V30 13790 H 1278.69 1.22394 4.69199 0
M  V30 13791 N 1280.03 -1.55556 0.252993 0
M  V30 13792 C 1281.28 -1.98697 -0.369319 0
M  V30 13793 C 1281.6 -1.14256 -1.58021 0
M  V30 13794 O 1280.87 -0.226779 -1.94583 0
M  V30 13795 H 1279.45 -0.733869 -0.139444 0
M  V30 13796 H 1282.12 -1.91673 0.353197 0
M  V30 13797 H 1281.21 -3.04728 -0.674312 0
M  V30 13798 N 1281.51 0.0200419 -1.57587 0
M  V30 13799 C 1282.42 1.0346 -2.10555 0
M  V30 13800 C 1283.44 1.39035 -1.0462 0
M  V30 13801 O 1284.61 1.48172 -1.36407 0
M  V30 13802 C 1281.68 2.31389 -2.58186 0
M  V30 13803 C 1280.74 2.02311 -3.7864 0
M  V30 13804 C 1279.97 3.24141 -4.23991 0
M  V30 13805 O 1280.2 4.35132 -3.68803 0
M  V30 13806 O 1279.13 3.09312 -5.16342 0
M  V30 13807 H 1282.96 0.614419 -2.9742 0
M  V30 13808 H 1280.54 0.237604 -1.47498 0
M  V30 13809 H 1282.42 3.06582 -2.89112 0
M  V30 13810 H 1281.1 2.72684 -1.74428 0
M  V30 13811 H 1280.01 1.24658 -3.5272 0
M  V30 13812 H 1281.34 1.65866 -4.6341 0
M  V30 13813 N 1282.99 1.54862 0.292472 0
M  V30 13814 C 1284.27 1.65237 1.04671 0
M  V30 13815 C 1284.65 0.506168 2.04942 0
M  V30 13816 O 1284 -0.496123 2.23049 0
M  V30 13817 C 1284.21 3.03618 1.72095 0
M  V30 13818 C 1285.55 3.6072 2.23979 0
M  V30 13819 O 1286.58 3.06126 1.82114 0
M  V30 13820 O 1285.44 4.56328 3.0071 0
M  V30 13821 H 1282.53 0.670347 0.484319 0
M  V30 13822 H 1285.08 1.67206 0.28988 0
M  V30 13823 H 1283.85 3.78482 0.993324 0
M  V30 13824 H 1283.47 3.05464 2.54514 0
M  V30 13825 N 1284.47 -0.556076 1.47464 0
M  V30 13826 C 1285.4 -1.67275 1.62915 0
M  V30 13827 C 1286.38 -1.63229 0.478562 0
M  V30 13828 O 1287.56 -1.80833 0.708032 0
M  V30 13829 C 1284.69 -3.05911 1.64426 0
M  V30 13830 C 1283.65 -3.24804 2.78722 0
M  V30 13831 C 1282.97 -4.64238 2.65307 0
M  V30 13832 C 1284.27 -3.10071 4.20302 0
M  V30 13833 H 1285.97 -1.54601 2.56396 0
M  V30 13834 H 1283.51 -0.742337 1.23391 0
M  V30 13835 H 1285.47 -3.83878 1.73826 0
M  V30 13836 H 1284.19 -3.19547 0.675053 0
M  V30 13837 H 1282.85 -2.49246 2.68835 0
M  V30 13838 H 1282.5 -4.74675 1.66412 0
M  V30 13839 H 1282.2 -4.77828 3.41986 0
M  V30 13840 H 1283.72 -5.44339 2.76637 0
M  V30 13841 H 1285.14 -3.77855 4.3116 0
M  V30 13842 H 1283.53 -3.3517 4.97776 0
M  V30 13843 H 1284.6 -2.06803 4.38589 0
M  V30 13844 N 1285.95 -1.35615 -0.802897 0
M  V30 13845 C 1286.9 -1.25378 -1.90432 0
M  V30 13846 C 1287.88 -0.148217 -1.60216 0
M  V30 13847 O 1289.07 -0.379783 -1.72878 0
M  V30 13848 C 1286.2 -1.03172 -3.2743 0
M  V30 13849 C 1285.29 -2.18135 -3.637 0
M  V30 13850 N 1285.68 -3.43382 -3.71379 0
M  V30 13851 C 1283.98 -2.09603 -3.93678 0
M  V30 13852 C 1284.68 -4.19004 -4.03498 0
M  V30 13853 N 1283.65 -3.47799 -4.17776 0
M  V30 13854 H 1287.46 -2.20267 -1.94576 0
M  V30 13855 H 1284.97 -1.2814 -0.997687 0
M  V30 13856 H 1286.97 -0.939264 -4.06182 0
M  V30 13857 H 1285.63 -0.0917091 -3.2457 0
M  V30 13858 H 1286.64 -3.77687 -3.54363 0
M  V30 13859 H 1283.32 -1.23479 -3.98822 0
M  V30 13860 H 1284.71 -5.27255 -4.16476 0
M  V30 13861 N 1287.43 1.02549 -1.19673 0
M  V30 13862 C 1288.37 2.13015 -0.934209 0
M  V30 13863 C 1289.37 1.69035 0.111208 0
M  V30 13864 O 1290.57 1.79959 -0.0383449 0
M  V30 13865 H 1286.95 0.696015 -0.284722 0
M  V30 13866 H 1288.92 2.32346 -1.87238 0
M  V30 13867 C 1287.67 3.44185 -0.493124 0
M  V30 13868 H 1286.99 3.78447 -1.28911 0
M  V30 13869 H 1288.43 4.22565 -0.348577 0
M  V30 13870 C 1286.89 3.27427 0.793277 0
M  V30 13871 O 1287.42 3.56362 1.85388 0
M  V30 13872 N 1285.63 2.80706 0.751837 0
M  V30 13873 H 1285.17 2.57359 -0.111517 0
M  V30 13874 H 1285.13 2.69874 1.61292 0
M  V30 13875 N 1288.9 1.00119 1.21713 0
M  V30 13876 C 1290.14 0.690044 1.924 0
M  V30 13877 C 1290.51 -0.764695 1.76115 0
M  V30 13878 O 1291.71 -1.18764 2.4114 0
M  V30 13879 C 1289.98 1.09491 3.40215 0
M  V30 13880 S 1291.54 0.903392 4.294 0
M  V30 13881 H 1288.36 0.252037 0.66483 0
M  V30 13882 H 1290.96 1.28521 1.47318 0
M  V30 13883 H 1289.66 2.14987 3.49584 0
M  V30 13884 H 1289.19 0.491878 3.90313 0
M  V30 13885 H 1291.21 -0.201597 4.9579 0
M  V30 13886 N 1290.38 -1.37203 0.775435 0
M  V30 13887 C 1291.63 -1.98846 0.338093 0
M  V30 13888 C 1291.94 -1.6225 -1.09244 0
M  V30 13889 O 1293.15 -2.17024 -1.63135 0
M  V30 13890 C 1291.61 -3.55618 0.553541 0
M  V30 13891 C 1291.21 -4.01149 1.99457 0
M  V30 13892 C 1292.96 -4.24118 0.180006 0
M  V30 13893 C 1290.86 -5.50644 2.15742 0
M  V30 13894 H 1289.79 -0.743955 0.122669 0
M  V30 13895 H 1292.45 -1.56685 0.955087 0
M  V30 13896 H 1290.83 -3.95777 -0.132964 0
M  V30 13897 H 1292 -3.72226 2.71633 0
M  V30 13898 H 1290.32 -3.45443 2.32504 0
M  V30 13899 H 1292.91 -5.33966 0.280145 0
M  V30 13900 H 1293.26 -4.07104 -0.870192 0
M  V30 13901 H 1293.79 -3.89274 0.819201 0
M  V30 13902 H 1290.53 -5.7259 3.19094 0
M  V30 13903 H 1290.05 -5.8124 1.48054 0
M  V30 13904 H 1291.73 -6.16668 1.95781 0
M  V30 13905 N 1291.86 -0.526279 -1.48553 0
M  V30 13906 C 1292.79 0.227364 -2.3239 0
M  V30 13907 C 1293.77 0.93862 -1.41859 0
M  V30 13908 O 1294.96 0.925119 -1.70749 0
M  V30 13909 C 1292.09 1.277 -3.22971 0
M  V30 13910 C 1291.04 0.684107 -4.22497 0
M  V30 13911 C 1290.37 1.83612 -5.02186 0
M  V30 13912 C 1291.67 -0.341723 -5.21181 0
M  V30 13913 H 1293.36 -0.472486 -2.95648 0
M  V30 13914 H 1290.91 -0.228669 -1.42173 0
M  V30 13915 H 1292.86 1.81215 -3.80446 0
M  V30 13916 H 1291.58 2.00638 -2.57705 0
M  V30 13917 H 1290.24 0.170505 -3.66203 0
M  V30 13918 H 1289.89 2.55379 -4.33348 0
M  V30 13919 H 1289.59 1.44536 -5.69547 0
M  V30 13920 H 1291.11 2.37513 -5.62512 0
M  V30 13921 H 1292.53 0.106207 -5.73202 0
M  V30 13922 H 1290.92 -0.649673 -5.96573 0
M  V30 13923 H 1291.99 -1.2488 -4.68543 0
M  V30 13924 N 1293.34 1.5542 -0.261239 0
M  V30 13925 C 1294.59 1.9889 0.358777 0
M  V30 13926 C 1294.91 1.15092 1.57413 0
M  V30 13927 O 1294.18 0.237095 1.9446 0
M  V30 13928 H 1292.76 0.734599 0.13555 0
M  V30 13929 H 1295.42 1.91483 -0.363357 0
M  V30 13930 H 1294.51 3.05082 0.658142 0
M  V30 13931 N 1294.82 -0.0116844 1.57596 0
M  V30 13932 C 1296.06 -0.697577 1.89679 0
M  V30 13933 C 1296.38 -1.74956 0.861122 0
M  V30 13934 O 1295.65 -1.95629 -0.103031 0
M  V30 13935 H 1294.23 -0.26064 0.700054 0
M  V30 13936 H 1296.9 0.0264782 1.94882 0
M  V30 13937 H 1295.99 -1.17621 2.89088 0
M  V30 13938 N 1296.29 -1.55015 -0.284256 0
M  V30 13939 C 1297.24 -1.87898 -1.37102 0
M  V30 13940 C 1298.24 -0.754231 -1.51683 0
M  V30 13941 O 1299.44 -0.93844 -1.53601 0
M  V30 13942 H 1295.82 -0.596208 -0.458301 0
M  V30 13943 H 1297.79 -2.78704 -1.06613 0
M  V30 13944 C 1296.54 -2.15764 -2.72656 0
M  V30 13945 H 1295.86 -3.01792 -2.62224 0
M  V30 13946 H 1297.3 -2.42701 -3.47667 0
M  V30 13947 C 1295.76 -0.961561 -3.22886 0
M  V30 13948 O 1296.29 -0.190489 -4.01248 0
M  V30 13949 N 1294.49 -0.762338 -2.80422 0
M  V30 13950 H 1294.04 -1.39104 -2.16813 0
M  V30 13951 H 1294 0.0363482 -3.14379 0
M  V30 13952 N 1297.77 0.548248 -1.47757 0
M  V30 13953 C 1299.02 1.30458 -1.56052 0
M  V30 13954 C 1299.37 1.91096 -0.22363 0
M  V30 13955 O 1298.67 1.75375 0.771644 0
M  V30 13956 C 1298.86 2.42911 -2.62162 0
M  V30 13957 C 1298.69 1.93293 -4.06039 0
M  V30 13958 C 1297.46 1.76727 -4.73387 0
M  V30 13959 C 1299.66 1.47214 -4.9278 0
M  V30 13960 N 1297.64 1.21543 -6.01748 0
M  V30 13961 C 1299.01 1.03855 -6.1124 0
M  V30 13962 C 1301.06 1.35348 -4.79151 0
M  V30 13963 C 1299.77 0.498086 -7.17573 0
M  V30 13964 C 1301.79 0.827023 -5.85589 0
M  V30 13965 C 1301.16 0.40341 -7.03244 0
M  V30 13966 H 1297.25 0.469075 -0.625694 0
M  V30 13967 H 1299.84 0.620405 -1.84551 0
M  V30 13968 H 1298.01 3.08847 -2.35516 0
M  V30 13969 H 1299.74 3.09924 -2.60249 0
M  V30 13970 H 1296.5 1.99709 -4.29433 0
M  V30 13971 H 1296.92 0.960132 -6.70157 0
M  V30 13972 H 1301.56 1.66708 -3.88546 0
M  V30 13973 H 1299.28 0.172123 -8.07917 0
M  V30 13974 H 1302.87 0.738641 -5.77092 0
M  V30 13975 H 1301.75 0.00236338 -7.842 0
M  V30 13976 N 1299.25 1.36039 0.795694 0
M  V30 13977 C 1300.48 1.33059 1.58439 0
M  V30 13978 C 1300.89 -0.0895496 1.88588 0
M  V30 13979 O 1300.25 -1.04466 1.49643 0
M  V30 13980 C 1300.3 2.14594 2.90915 0
M  V30 13981 O 1300.02 3.51072 2.62069 0
M  V30 13982 C 1301.52 2.19324 3.85242 0
M  V30 13983 H 1298.74 0.456668 0.491625 0
M  V30 13984 H 1301.29 1.79048 0.988035 0
M  V30 13985 H 1299.44 1.72177 3.47036 0
M  V30 13986 H 1299.86 3.93545 3.46732 0
M  V30 13987 H 1301.33 2.80744 4.75276 0
M  V30 13988 H 1301.81 1.19496 4.22631 0
M  V30 13989 H 1302.41 2.6195 3.35056 0
M  V30 13990 N 1300.73 -1.01913 1.20215 0
M  V30 13991 C 1301.97 -1.77015 1.02202 0
M  V30 13992 C 1302.33 -1.86927 -0.43845 0
M  V30 13993 O 1303.53 -2.58451 -0.73869 0
M  V30 13994 C 1301.8 -3.15244 1.68393 0
M  V30 13995 S 1303.36 -4.06414 1.65449 0
M  V30 13996 H 1300.18 -0.609242 0.366531 0
M  V30 13997 H 1302.78 -1.22044 1.52727 0
M  V30 13998 H 1301.49 -3.05653 2.73869 0
M  V30 13999 H 1301.02 -3.7529 1.17988 0
M  V30 14000 H 1303.03 -4.91441 0.685571 0
M  V30 14001 N 1302.21 -1.00763 -1.2118 0
M  V30 14002 C 1303.45 -0.692851 -1.90598 0
M  V30 14003 C 1303.79 0.774698 -1.78079 0
M  V30 14004 O 1303.06 1.56186 -1.15914 0
M  V30 14005 C 1303.34 -1.11792 -3.42308 0
M  V30 14006 C 1303.2 -2.64511 -3.63805 0
M  V30 14007 C 1304.52 -0.682314 -4.34779 0
M  V30 14008 H 1301.63 -0.253175 -0.69215 0
M  V30 14009 H 1304.28 -1.25378 -1.4276 0
M  V30 14010 H 1302.43 -0.640665 -3.83181 0
M  V30 14011 H 1304.1 -3.20021 -3.32242 0
M  V30 14012 H 1302.34 -3.05903 -3.0758 0
M  V30 14013 H 1303.01 -2.89306 -4.70113 0
M  V30 14014 H 1305.49 -1.09247 -4.01503 0
M  V30 14015 H 1304.36 -1.00787 -5.39568 0
M  V30 14016 H 1304.63 0.416441 -4.40134 0
M  V30 14017 N 1303.68 1.3679 -0.7827 0
M  V30 14018 C 1305.1 1.82006 -0.41603 0
M  V30 14019 C 1305.45 1.65151 1.05922 0
M  V30 14020 O 1304.57 1.1687 1.82127 0
M  V30 14021 C 1305.17 3.30432 -0.748353 0
M  V30 14022 C 1303.73 3.73883 -0.4346 0
M  V30 14023 C 1302.87 2.59159 -0.986505 0
M  V30 14024 H 1305.82 1.25107 -0.976423 0
M  V30 14025 H 1305.84 3.80482 -0.036985 0
M  V30 14026 H 1305.36 3.42667 -1.82212 0
M  V30 14027 H 1303.46 3.67211 0.631401 0
M  V30 14028 H 1303.57 4.69577 -0.950511 0
M  V30 14029 H 1301.93 2.51377 -0.410108 0
M  V30 14030 H 1302.72 2.74182 -2.06589 0
M  V30 14031 N 1305.16 0.53415 1.48272 0
M  V30 14032 C 1306.41 0.00156948 2.021 0
M  V30 14033 C 1306.73 -1.34371 1.41313 0
M  V30 14034 O 1306 -1.87117 0.579996 0
M  V30 14035 H 1304.58 -0.00240789 0.746996 0
M  V30 14036 H 1307.24 0.698928 1.81937 0
M  V30 14037 H 1306.34 -0.103671 3.11928 0
M  V30 14038 N 1306.64 -1.55279 0.269478 0
M  V30 14039 C 1307.92 -1.91458 -0.400412 0
M  V30 14040 C 1308.3 -1.19306 -1.74153 0
M  V30 14041 O 1307.65 -0.318017 -2.26276 0
M  V30 14042 C 1307.86 -3.44698 -0.546258 0
M  V30 14043 C 1309.2 -4.16374 -0.831758 0
M  V30 14044 O 1310.23 -3.50561 -0.631279 0
M  V30 14045 O 1309.09 -5.32826 -1.21484 0
M  V30 14046 H 1306.18 -0.79766 -0.218328 0
M  V30 14047 H 1308.73 -1.66747 0.315214 0
M  V30 14048 H 1307.5 -3.89273 0.397784 0
M  V30 14049 H 1307.12 -3.75345 -1.31157 0
M  V30 14050 N 1308.12 0.00332656 -1.576 0
M  V30 14051 C 1309.05 1.02391 -2.05058 0
M  V30 14052 C 1310.06 1.30903 -0.967901 0
M  V30 14053 O 1311.25 1.27937 -1.24476 0
M  V30 14054 C 1308.35 2.35947 -2.43274 0
M  V30 14055 C 1307.53 2.26423 -3.74234 0
M  V30 14056 C 1306.58 3.4264 -3.99355 0
M  V30 14057 O 1305.61 3.20977 -4.70067 0
M  V30 14058 N 1306.81 4.65379 -3.46991 0
M  V30 14059 H 1309.58 0.619216 -2.93233 0
M  V30 14060 H 1307.14 0.190777 -1.60772 0
M  V30 14061 H 1309.13 3.12462 -2.57196 0
M  V30 14062 H 1307.7 2.6817 -1.60635 0
M  V30 14063 H 1306.92 1.34841 -3.70421 0
M  V30 14064 H 1308.21 2.17229 -4.60097 0
M  V30 14065 H 1307.61 4.85878 -2.89723 0
M  V30 14066 H 1306.16 5.39171 -3.66249 0
M  V30 14067 N 1309.6 1.55164 0.276031 0
M  V30 14068 C 1310.53 1.90844 1.34539 0
M  V30 14069 C 1311.51 0.769968 1.51676 0
M  V30 14070 O 1312.69 1.02785 1.64769 0
M  V30 14071 C 1309.82 2.17769 2.70543 0
M  V30 14072 C 1308.78 3.33592 2.68142 0
M  V30 14073 C 1308.1 3.45991 4.07669 0
M  V30 14074 C 1309.4 4.70064 2.27678 0
M  V30 14075 H 1311.1 2.80412 1.04926 0
M  V30 14076 H 1308.64 1.34918 0.503303 0
M  V30 14077 H 1310.6 2.41317 3.45462 0
M  V30 14078 H 1309.32 1.24997 3.01734 0
M  V30 14079 H 1307.98 3.10007 1.95681 0
M  V30 14080 H 1307.63 2.50691 4.36077 0
M  V30 14081 H 1307.33 4.23862 4.06958 0
M  V30 14082 H 1308.85 3.71828 4.84331 0
M  V30 14083 H 1310.26 4.93176 2.92319 0
M  V30 14084 H 1308.66 5.50829 2.38134 0
M  V30 14085 H 1309.73 4.69091 1.22808 0
M  V30 14086 N 1311.07 -0.540404 1.48045 0
M  V30 14087 C 1312 -1.65538 1.6468 0
M  V30 14088 C 1312.99 -1.62713 0.495847 0
M  V30 14089 O 1314.17 -1.80072 0.727172 0
M  V30 14090 C 1311.3 -3.0415 1.67661 0
M  V30 14091 C 1310.25 -3.2183 2.82152 0
M  V30 14092 C 1309.58 -4.61397 2.70216 0
M  V30 14093 C 1310.88 -3.05596 4.23567 0
M  V30 14094 H 1312.57 -1.51873 2.58021 0
M  V30 14095 H 1310.12 -0.729208 1.24171 0
M  V30 14096 H 1312.07 -3.82013 1.77887 0
M  V30 14097 H 1310.8 -3.18814 0.708907 0
M  V30 14098 H 1309.46 -2.4638 2.71463 0
M  V30 14099 H 1309.1 -4.72883 1.71437 0
M  V30 14100 H 1308.8 -4.74174 3.47035 0
M  V30 14101 H 1310.33 -5.41374 2.82395 0
M  V30 14102 H 1311.74 -3.73261 4.35143 0
M  V30 14103 H 1310.14 -3.29871 5.01303 0
M  V30 14104 H 1311.21 -2.0214 4.40758 0
M  V30 14105 N 1312.55 -1.36459 -0.788468 0
M  V30 14106 C 1313.78 -1.33703 -1.57502 0
M  V30 14107 C 1314.19 0.0834961 -1.89016 0
M  V30 14108 O 1313.53 1.05107 -1.50659 0
M  V30 14109 C 1313.6 -2.09424 -2.92201 0
M  V30 14110 C 1313.26 -3.58507 -2.83411 0
M  V30 14111 C 1314.26 -4.52736 -2.5559 0
M  V30 14112 C 1311.94 -4.01405 -3.01959 0
M  V30 14113 C 1313.94 -5.87841 -2.46419 0
M  V30 14114 C 1311.62 -5.366 -2.92409 0
M  V30 14115 C 1312.62 -6.29631 -2.64677 0
M  V30 14116 O 1312.31 -7.62343 -2.55124 0
M  V30 14117 H 1312.04 -0.460221 -0.495149 0
M  V30 14118 H 1314.59 -1.80163 -0.986437 0
M  V30 14119 H 1312.82 -1.5763 -3.53114 0
M  V30 14120 H 1314.51 -1.99515 -3.53481 0
M  V30 14121 H 1315.28 -4.20906 -2.40962 0
M  V30 14122 H 1311.16 -3.29367 -3.2255 0
M  V30 14123 H 1314.7 -6.60423 -2.24694 0
M  V30 14124 H 1310.6 -5.68038 -3.066 0
M  V30 14125 H 1311.37 -7.72476 -2.70598 0
M  V30 14126 N 1314.03 1.01274 -1.20754 0
M  V30 14127 C 1314.98 2.09894 -0.959852 0
M  V30 14128 C 1315.95 1.65726 0.111351 0
M  V30 14129 O 1317.13 1.90769 -0.0341721 0
M  V30 14130 C 1314.27 3.41126 -0.52223 0
M  V30 14131 C 1313.39 3.98749 -1.66202 0
M  V30 14132 C 1312.52 5.18057 -1.17432 0
M  V30 14133 C 1311.56 5.67772 -2.28694 0
M  V30 14134 N 1310.7 6.78338 -1.81114 0
M  V30 14135 H 1315.54 2.30416 -1.88977 0
M  V30 14136 H 1313.07 1.12989 -0.941906 0
M  V30 14137 H 1315.03 4.16451 -0.249799 0
M  V30 14138 H 1313.66 3.20665 0.370688 0
M  V30 14139 H 1312.71 3.20483 -2.04927 0
M  V30 14140 H 1314.03 4.31646 -2.49967 0
M  V30 14141 H 1313.18 6.00601 -0.858086 0
M  V30 14142 H 1311.92 4.86735 -0.306614 0
M  V30 14143 H 1310.92 4.8383 -2.61129 0
M  V30 14144 H 1312.15 6.01127 -3.15948 0
M  V30 14145 H 1310.09 6.48837 -0.966761 0
M  V30 14146 H 1310.01 7.10448 -2.58457 0
M  V30 14147 H 1311.28 7.64437 -1.52502 0
M  V30 14148 N 1315.51 1.01404 1.20644 0
M  V30 14149 C 1316.76 0.700523 1.89571 0
M  V30 14150 C 1317.08 -0.771978 1.79068 0
M  V30 14151 O 1316.35 -1.55506 1.19142 0
M  V30 14152 H 1314.93 0.256122 0.70172 0
M  V30 14153 H 1317.59 1.28509 1.46531 0
M  V30 14154 H 1316.69 0.981665 2.9626 0
M  V30 14155 N 1316.99 -1.36373 0.789944 0
M  V30 14156 C 1318.24 -1.98834 0.361866 0
M  V30 14157 C 1318.56 -1.63006 -1.07024 0
M  V30 14158 O 1317.83 -0.904312 -1.73779 0
M  V30 14159 H 1316.41 -0.735457 0.130812 0
M  V30 14160 H 1319.07 -1.66561 1.0121 0
M  V30 14161 H 1318.16 -3.08778 0.454122 0
M  V30 14162 N 1318.47 -0.542005 -1.47987 0
M  V30 14163 C 1319.69 -0.0146835 -2.07395 0
M  V30 14164 C 1320.12 1.26266 -1.39422 0
M  V30 14165 O 1319.47 1.75259 -0.464118 0
M  V30 14166 C 1319.52 0.179937 -3.60151 0
M  V30 14167 O 1318.63 1.24596 -3.93128 0
M  V30 14168 H 1317.97 -0.0445076 -0.662507 0
M  V30 14169 H 1320.5 -0.753352 -1.90226 0
M  V30 14170 H 1320.51 0.398876 -4.06046 0
M  V30 14171 H 1319.18 -0.753093 -4.09025 0
M  V30 14172 H 1317.76 1.00872 -3.58997 0
M  V30 14173 N 1319.94 1.55134 -0.277709 0
M  V30 14174 C 1321.19 1.98831 0.338982 0
M  V30 14175 C 1321.51 1.16958 1.56781 0
M  V30 14176 O 1322.71 1.50811 2.25762 0
M  V30 14177 C 1321.17 3.53899 0.654465 0
M  V30 14178 C 1320.78 4.44553 -0.554703 0
M  V30 14179 C 1322.52 4.06179 1.23364 0
M  V30 14180 C 1320.43 5.91014 -0.213663 0
M  V30 14181 H 1319.36 0.742632 0.130434 0
M  V30 14182 H 1322.01 1.79463 -0.382768 0
M  V30 14183 H 1320.39 3.69078 1.43519 0
M  V30 14184 H 1321.56 4.41143 -1.33151 0
M  V30 14185 H 1319.88 4.02921 -1.0509 0
M  V30 14186 H 1322.48 5.13152 1.50265 0
M  V30 14187 H 1322.82 3.5537 2.16836 0
M  V30 14188 H 1323.35 3.9445 0.515147 0
M  V30 14189 H 1320.09 6.45924 -1.11633 0
M  V30 14190 H 1319.61 5.97486 0.526329 0
M  V30 14191 H 1321.29 6.46712 0.19319 0
M  V30 14192 N 1321.42 0.00503138 1.57599 0
M  V30 14193 C 1322.33 -1.00097 2.12174 0
M  V30 14194 C 1323.35 -1.37353 1.06818 0
M  V30 14195 O 1324.52 -1.45984 1.38747 0
M  V30 14196 C 1321.59 -2.27252 2.61835 0
M  V30 14197 C 1320.65 -1.96262 3.81811 0
M  V30 14198 C 1319.88 -3.17355 4.29094 0
M  V30 14199 O 1320.11 -4.2921 3.75679 0
M  V30 14200 O 1319.04 -3.01059 5.21198 0
M  V30 14201 H 1322.87 -0.567024 2.9836 0
M  V30 14202 H 1320.45 -0.214109 1.47858 0
M  V30 14203 H 1322.33 -3.01944 2.93952 0
M  V30 14204 H 1321.01 -2.69875 1.78744 0
M  V30 14205 H 1319.91 -1.19031 3.54658 0
M  V30 14206 H 1321.25 -1.58473 4.65991 0
M  V30 14207 N 1322.9 -1.55308 -0.267798 0
M  V30 14208 C 1324.12 -1.80524 -1.02107 0
M  V30 14209 C 1324.55 -0.579268 -1.78958 0
M  V30 14210 O 1323.91 0.471262 -1.75068 0
M  V30 14211 C 1323.96 -3.03248 -1.95123 0
M  V30 14212 O 1323.06 -2.78699 -3.03975 0
M  V30 14213 H 1322.4 -0.596518 -0.291655 0
M  V30 14214 H 1324.93 -2.0246 -0.295128 0
M  V30 14215 H 1324.94 -3.32121 -2.3698 0
M  V30 14216 H 1323.62 -3.92126 -1.386 0
M  V30 14217 H 1322.19 -2.60936 -2.66396 0
M  V30 14218 N 1324.38 0.532545 -1.4833 0
M  V30 14219 C 1325.62 1.29902 -1.57812 0
M  V30 14220 C 1325.98 1.90427 -0.245283 0
M  V30 14221 O 1327.18 2.67938 -0.215083 0
M  V30 14222 C 1325.45 2.36119 -2.68296 0
M  V30 14223 S 1327.01 3.22526 -2.97527 0
M  V30 14224 H 1323.83 0.441908 -0.55699 0
M  V30 14225 H 1326.43 0.606983 -1.85839 0
M  V30 14226 H 1325.14 1.90131 -3.63701 0
M  V30 14227 H 1324.67 3.10033 -2.42163 0
M  V30 14228 H 1326.68 4.36144 -2.36628 0
M  V30 14229 N 1325.86 1.36875 0.78122 0
M  V30 14230 C 1326.8 1.31869 1.89418 0
M  V30 14231 C 1327.77 0.185904 1.65056 0
M  V30 14232 O 1328.96 0.373745 1.87104 0
M  V30 14233 C 1326.1 1.12205 3.2635 0
M  V30 14234 C 1325.21 2.34631 3.62729 0
M  V30 14235 C 1324.35 2.07914 4.8882 0
M  V30 14236 C 1323.38 3.26257 5.17902 0
M  V30 14237 N 1322.52 2.99152 6.35179 0
M  V30 14238 H 1327.36 2.2703 1.93032 0
M  V30 14239 H 1324.9 1.12826 0.943857 0
M  V30 14240 H 1326.86 0.988282 4.05326 0
M  V30 14241 H 1325.49 0.206959 3.22136 0
M  V30 14242 H 1324.54 2.58782 2.78812 0
M  V30 14243 H 1325.85 3.22919 3.80164 0
M  V30 14244 H 1325 1.91514 5.7568 0
M  V30 14245 H 1323.74 1.1695 4.7347 0
M  V30 14246 H 1322.75 3.43207 4.29522 0
M  V30 14247 H 1323.97 4.1806 5.35166 0
M  V30 14248 H 1321.92 2.10807 6.21205 0
M  V30 14249 H 1321.84 3.80981 6.52985 0
M  V30 14250 H 1323.1 2.86349 7.25 0
M  V30 14251 N 1327.33 -1.00632 1.21289 0
M  V30 14252 C 1328.58 -1.74749 1.04089 0
M  V30 14253 C 1328.93 -1.8773 -0.421349 0
M  V30 14254 O 1328.23 -1.39958 -1.30852 0
M  V30 14255 C 1328.42 -3.1598 1.67007 0
M  V30 14256 C 1328.25 -3.1677 3.19197 0
M  V30 14257 C 1327.02 -3.23425 3.88233 0
M  V30 14258 C 1329.22 -3.01991 4.163 0
M  V30 14259 N 1327.2 -3.13827 5.27623 0
M  V30 14260 C 1328.57 -3.00276 5.42433 0
M  V30 14261 C 1330.63 -2.86284 4.07365 0
M  V30 14262 C 1329.33 -2.84463 6.60661 0
M  V30 14263 C 1331.36 -2.71827 5.25228 0
M  V30 14264 C 1330.72 -2.70787 6.50272 0
M  V30 14265 H 1326.82 -0.649702 0.435213 0
M  V30 14266 H 1329.4 -1.19617 1.53622 0
M  V30 14267 H 1327.57 -3.69384 1.20042 0
M  V30 14268 H 1329.3 -3.78584 1.43025 0
M  V30 14269 H 1326.06 -3.30566 3.3915 0
M  V30 14270 H 1326.48 -3.12374 6.00626 0
M  V30 14271 H 1331.12 -2.85894 3.11487 0
M  V30 14272 H 1328.84 -2.836 7.56701 0
M  V30 14273 H 1332.43 -2.60675 5.20134 0
M  V30 14274 H 1331.31 -2.59732 7.39938 0
M  V30 14275 N 1328.81 -1.02043 -1.20104 0
M  V30 14276 C 1330.05 -0.720566 -1.91278 0
M  V30 14277 C 1330.42 0.73658 -1.77309 0
M  V30 14278 O 1331.62 1.14913 -2.42999 0
M  V30 14279 C 1329.89 -1.1489 -3.3843 0
M  V30 14280 S 1331.45 -0.971591 -4.27908 0
M  V30 14281 H 1328.26 -0.262582 -0.660736 0
M  V30 14282 H 1330.87 -1.30849 -1.45254 0
M  V30 14283 H 1329.57 -2.20521 -3.46119 0
M  V30 14284 H 1329.1 -0.553911 -3.89481 0
M  V30 14285 H 1331.12 0.122695 -4.96048 0
M  V30 14286 N 1330.29 1.35952 -0.797165 0
M  V30 14287 C 1331.54 1.98639 -0.372405 0
M  V30 14288 C 1331.86 1.63571 1.06158 0
M  V30 14289 O 1331.13 0.913516 1.73297 0
M  V30 14290 H 1329.71 0.734753 -0.13471 0
M  V30 14291 H 1332.37 1.66022 -1.02092 0
M  V30 14292 H 1331.47 3.08533 -0.47049 0
M  V30 14293 N 1331.77 0.549846 1.47697 0
M  V30 14294 C 1333 0.0276487 2.06581 0
M  V30 14295 C 1333.41 -1.26821 1.40403 0
M  V30 14296 O 1332.75 -1.76987 0.492073 0
M  V30 14297 C 1332.81 -0.246484 3.58654 0
M  V30 14298 C 1332.48 0.958843 4.46828 0
M  V30 14299 C 1333.47 1.86249 4.85394 0
M  V30 14300 C 1331.16 1.17144 4.88449 0
M  V30 14301 C 1333.15 2.96249 5.64372 0
M  V30 14302 C 1330.84 2.27454 5.67193 0
M  V30 14303 C 1331.84 3.16838 6.05064 0
M  V30 14304 O 1331.52 4.25237 6.82224 0
M  V30 14305 H 1331.26 0.0394446 0.674848 0
M  V30 14306 H 1333.81 0.760694 1.90795 0
M  V30 14307 H 1332.04 -1.03375 3.72627 0
M  V30 14308 H 1333.73 -0.713167 3.99586 0
M  V30 14309 H 1334.5 1.71027 4.53844 0
M  V30 14310 H 1330.37 0.484917 4.58443 0
M  V30 14311 H 1333.92 3.66043 5.9385 0
M  V30 14312 H 1329.82 2.42653 5.98155 0
M  V30 14313 H 1330.58 4.23193 7.00607 0
M  V30 14314 N 1333.25 -1.54984 0.285932 0
M  V30 14315 C 1334.18 -2.20365 -0.630236 0
M  V30 14316 C 1335.19 -1.19168 -1.10918 0
M  V30 14317 O 1336.38 -1.45839 -1.02923 0
M  V30 14318 C 1333.48 -2.8244 -1.87299 0
M  V30 14319 C 1332.65 -4.09429 -1.53905 0
M  V30 14320 C 1331.71 -4.55449 -2.63538 0
M  V30 14321 O 1330.74 -5.20985 -2.29267 0
M  V30 14322 N 1331.94 -4.26498 -3.93802 0
M  V30 14323 H 1334.71 -2.99617 -0.0706044 0
M  V30 14324 H 1332.27 -1.61543 0.107486 0
M  V30 14325 H 1334.26 -3.10167 -2.59959 0
M  V30 14326 H 1332.83 -2.07117 -2.34139 0
M  V30 14327 H 1332.05 -3.88875 -0.645774 0
M  V30 14328 H 1333.34 -4.92146 -1.29111 0
M  V30 14329 H 1332.73 -3.73964 -4.24461 0
M  V30 14330 H 1331.29 -4.5897 -4.62807 0
M  V30 14331 N 1334.72 -0.0133892 -1.57594 0
M  V30 14332 C 1335.97 0.668634 -1.91143 0
M  V30 14333 C 1336.3 1.7303 -0.888299 0
M  V30 14334 O 1335.55 1.95418 0.105056 0
M  V30 14335 C 1335.85 1.33729 -3.31438 0
M  V30 14336 C 1335.52 0.407527 -4.49055 0
M  V30 14337 C 1334.18 0.151573 -4.80961 0
M  V30 14338 C 1336.53 -0.231835 -5.20684 0
M  V30 14339 C 1333.86 -0.751812 -5.81863 0
M  V30 14340 C 1336.21 -1.12318 -6.22549 0
M  V30 14341 C 1334.88 -1.38818 -6.52906 0
M  V30 14342 H 1334.15 0.24467 -0.699441 0
M  V30 14343 H 1336.79 -0.0717876 -1.91365 0
M  V30 14344 H 1335.1 2.15209 -3.27403 0
M  V30 14345 H 1336.8 1.87128 -3.5466 0
M  V30 14346 H 1333.39 0.617192 -4.24133 0
M  V30 14347 H 1337.57 -0.0471268 -4.96278 0
M  V30 14348 H 1332.83 -0.964991 -6.03737 0
M  V30 14349 H 1337 -1.62488 -6.77179 0
M  V30 14350 H 1334.63 -2.08986 -7.3091 0
M  V30 14351 N 1336.2 1.55448 0.259558 0
M  V30 14352 C 1337.15 1.89248 1.32113 0
M  V30 14353 C 1338.12 0.745348 1.48438 0
M  V30 14354 O 1339.3 0.997854 1.62627 0
M  V30 14355 C 1336.44 2.18161 2.67394 0
M  V30 14356 C 1335.56 3.45614 2.59182 0
M  V30 14357 C 1334.69 3.6416 3.86731 0
M  V30 14358 C 1333.73 4.85258 3.73084 0
M  V30 14359 N 1332.87 5.00391 4.92497 0
M  V30 14360 H 1337.71 2.79785 1.02589 0
M  V30 14361 H 1335.25 1.38509 0.495338 0
M  V30 14362 H 1337.2 2.32927 3.46122 0
M  V30 14363 H 1335.83 1.30843 2.95093 0
M  V30 14364 H 1334.89 3.39248 1.72091 0
M  V30 14365 H 1336.2 4.34483 2.45002 0
M  V30 14366 H 1335.35 3.78817 4.73902 0
M  V30 14367 H 1334.09 2.73501 4.03793 0
M  V30 14368 H 1333.1 4.70591 2.84296 0
M  V30 14369 H 1334.32 5.77365 3.57528 0
M  V30 14370 H 1332.27 4.12666 5.09944 0
M  V30 14371 H 1332.18 5.83328 4.809 0
M  V30 14372 H 1333.45 5.19446 5.81202 0
M  V30 14373 N 1337.68 -0.524672 1.4861 0
M  V30 14374 C 1338.59 -1.65554 1.6622 0
M  V30 14375 C 1339.61 -1.65254 0.54471 0
M  V30 14376 O 1340.78 -1.84109 0.816454 0
M  V30 14377 C 1337.85 -3.02003 1.7028 0
M  V30 14378 C 1336.91 -3.13116 2.93695 0
M  V30 14379 C 1336.14 -4.43055 2.97553 0
M  V30 14380 O 1336.36 -5.30468 2.09667 0
M  V30 14381 O 1335.3 -4.58646 3.89779 0
M  V30 14382 H 1339.12 -1.53633 2.61974 0
M  V30 14383 H 1336.71 -0.698354 1.32073 0
M  V30 14384 H 1338.59 -3.83143 1.75441 0
M  V30 14385 H 1337.27 -3.14236 0.777002 0
M  V30 14386 H 1336.17 -2.31251 2.94064 0
M  V30 14387 H 1337.51 -3.058 3.85677 0
M  V30 14388 N 1339.16 -1.37287 -0.77395 0
M  V30 14389 C 1340.38 -1.35734 -1.56815 0
M  V30 14390 C 1340.81 0.0555546 -1.88018 0
M  V30 14391 O 1340.17 1.03197 -1.49064 0
M  V30 14392 C 1340.21 -2.2008 -2.85652 0
M  V30 14393 O 1339.32 -1.60391 -3.79932 0
M  V30 14394 H 1338.66 -0.463881 -0.47509 0
M  V30 14395 H 1341.19 -1.80781 -0.958087 0
M  V30 14396 H 1341.2 -2.33215 -3.34776 0
M  V30 14397 H 1339.87 -3.22781 -2.6227 0
M  V30 14398 H 1338.45 -1.56285 -3.3857 0
M  V30 14399 N 1340.64 0.999871 -1.21821 0
M  V30 14400 C 1341.55 2.12303 -0.99823 0
M  V30 14401 C 1342.56 1.73924 0.0512923 0
M  V30 14402 O 1343.74 2.00914 -0.139895 0
M  V30 14403 C 1340.8 3.41962 -0.571232 0
M  V30 14404 C 1339.86 3.94483 -1.69356 0
M  V30 14405 C 1339.1 5.17954 -1.28685 0
M  V30 14406 O 1339.32 5.70168 -0.162641 0
M  V30 14407 O 1338.25 5.64051 -2.10071 0
M  V30 14408 H 1342.08 2.3374 -1.93905 0
M  V30 14409 H 1339.67 1.10677 -1.00354 0
M  V30 14410 H 1341.55 4.20001 -0.343134 0
M  V30 14411 H 1340.22 3.21901 0.340814 0
M  V30 14412 H 1339.13 3.17648 -1.97612 0
M  V30 14413 H 1340.46 4.18964 -2.58322 0
M  V30 14414 N 1342.11 1.02678 1.19562 0
M  V30 14415 C 1343.36 0.72059 1.88817 0
M  V30 14416 C 1343.68 -0.752942 1.79877 0
M  V30 14417 O 1342.95 -1.54233 1.20785 0
M  V30 14418 H 1341.53 0.26355 0.698964 0
M  V30 14419 H 1344.2 1.30056 1.4516 0
M  V30 14420 H 1343.29 1.01303 2.95202 0
M  V30 14421 N 1343.59 -1.35528 0.804364 0
M  V30 14422 C 1344.52 -2.32388 0.227604 0
M  V30 14423 C 1345.5 -1.57368 -0.645709 0
M  V30 14424 O 1346.69 -1.85448 -0.576441 0
M  V30 14425 C 1343.82 -3.41603 -0.62645 0
M  V30 14426 C 1342.77 -4.27743 0.148187 0
M  V30 14427 C 1342.1 -5.28259 -0.827425 0
M  V30 14428 C 1343.4 -5.04661 1.34591 0
M  V30 14429 H 1345.09 -2.80874 1.03684 0
M  V30 14430 H 1342.64 -1.3504 0.500031 0
M  V30 14431 H 1344.59 -4.08365 -1.03999 0
M  V30 14432 H 1343.32 -2.91721 -1.46855 0
M  V30 14433 H 1341.97 -3.62558 0.542874 0
M  V30 14434 H 1341.62 -4.74645 -1.66496 0
M  V30 14435 H 1341.32 -5.86763 -0.313453 0
M  V30 14436 H 1342.85 -5.97893 -1.23921 0
M  V30 14437 H 1344.26 -5.6438 1.00736 0
M  V30 14438 H 1342.66 -5.7265 1.79422 0
M  V30 14439 H 1343.73 -4.35432 2.1337 0
M  V30 14440 N 1345.07 -0.557671 -1.47404 0
M  V30 14441 C 1346.48 -0.124411 -1.86285 0
M  V30 14442 C 1346.83 1.30593 -1.46424 0
M  V30 14443 O 1345.96 1.9825 -0.867515 0
M  V30 14444 C 1346.55 -0.219005 -3.38091 0
M  V30 14445 C 1345.11 0.159221 -3.76063 0
M  V30 14446 C 1344.26 -0.566355 -2.71455 0
M  V30 14447 H 1347.21 -0.767367 -1.38914 0
M  V30 14448 H 1347.23 0.562267 -3.76323 0
M  V30 14449 H 1346.74 -1.26013 -3.67073 0
M  V30 14450 H 1344.84 1.20144 -3.52698 0
M  V30 14451 H 1344.96 -0.199662 -4.78684 0
M  V30 14452 H 1343.32 -0.00938921 -2.54698 0
M  V30 14453 H 1344.1 -1.60865 -3.03278 0
M  V30 14454 N 1346.55 1.54831 -0.294147 0
M  V30 14455 C 1347.5 2.19966 0.599919 0
M  V30 14456 C 1348.48 1.1704 1.1041 0
M  V30 14457 O 1349.68 1.42785 1.04601 0
M  V30 14458 C 1346.8 2.93875 1.77461 0
M  V30 14459 C 1345.89 4.0411 1.28671 0
M  V30 14460 N 1346.28 5.03158 0.516316 0
M  V30 14461 C 1344.58 4.17527 1.56804 0
M  V30 14462 C 1345.28 5.8113 0.257361 0
M  V30 14463 N 1344.26 5.37145 0.835221 0
M  V30 14464 H 1348.06 2.939 0.00369516 0
M  V30 14465 H 1345.57 1.621 -0.0985855 0
M  V30 14466 H 1347.57 3.39001 2.4266 0
M  V30 14467 H 1346.23 2.21456 2.3746 0
M  V30 14468 H 1347.24 5.17647 0.161855 0
M  V30 14469 H 1343.92 3.56309 2.17601 0
M  V30 14470 H 1345.31 6.7093 -0.360924 0
M  V30 14471 N 1348.03 0.0217466 1.57585 0
M  V30 14472 C 1349.26 -0.667911 1.95506 0
M  V30 14473 C 1349.67 -1.66616 0.89642 0
M  V30 14474 O 1349.01 -1.83232 -0.131059 0
M  V30 14475 C 1349.07 -1.43696 3.29533 0
M  V30 14476 C 1348.73 -0.59787 4.53072 0
M  V30 14477 C 1349.73 0.12372 5.19753 0
M  V30 14478 C 1347.42 -0.53744 4.99417 0
M  V30 14479 C 1349.41 0.894491 6.31092 0
M  V30 14480 C 1347.1 0.237041 6.1064 0
M  V30 14481 C 1348.1 0.95172 6.76337 0
M  V30 14482 O 1347.78 1.71352 7.85426 0
M  V30 14483 H 1347.52 -0.189544 0.648883 0
M  V30 14484 H 1350.07 0.0755682 2.05261 0
M  V30 14485 H 1348.3 -2.22541 3.16247 0
M  V30 14486 H 1349.99 -2.01402 3.52409 0
M  V30 14487 H 1350.75 0.0863208 4.84923 0
M  V30 14488 H 1346.63 -1.08327 4.48092 0
M  V30 14489 H 1350.18 1.45285 6.82304 0
M  V30 14490 H 1346.07 0.276183 6.44909 0
M  V30 14491 H 1346.84 1.63252 8.02054 0
M  V30 14492 N 1349.51 -1.55583 -0.251311 0
M  V30 14493 C 1350.92 -1.67693 -0.820719 0
M  V30 14494 C 1351.27 -0.618393 -1.862 0
M  V30 14495 O 1350.39 0.236158 -2.15108 0
M  V30 14496 C 1350.99 -3.04011 -1.49542 0
M  V30 14497 C 1349.55 -3.18075 -2.01259 0
M  V30 14498 C 1348.69 -2.63557 -0.862138 0
M  V30 14499 H 1351.64 -1.58677 -0.0272072 0
M  V30 14500 H 1351.67 -2.9821 -2.36328 0
M  V30 14501 H 1351.18 -3.81032 -0.737323 0
M  V30 14502 H 1349.28 -2.45869 -2.79963 0
M  V30 14503 H 1349.39 -4.24927 -2.213 0
M  V30 14504 H 1347.76 -2.21268 -1.26145 0
M  V30 14505 H 1348.54 -3.431 -0.117196 0
M  V30 14506 N 1350.98 0.516783 -1.48886 0
M  V30 14507 C 1352.23 1.26841 -1.56825 0
M  V30 14508 C 1352.55 1.93957 -0.252998 0
M  V30 14509 O 1353.75 2.70681 -0.210765 0
M  V30 14510 C 1352.21 2.30223 -2.76633 0
M  V30 14511 C 1351.82 1.69117 -4.14853 0
M  V30 14512 C 1353.56 3.06313 -2.93893 0
M  V30 14513 C 1351.47 2.70516 -5.25904 0
M  V30 14514 H 1350.4 0.477087 -0.58387 0
M  V30 14515 H 1353.05 0.544187 -1.75245 0
M  V30 14516 H 1351.43 3.05739 -2.51674 0
M  V30 14517 H 1352.6 0.997003 -4.49885 0
M  V30 14518 H 1350.92 1.05473 -4.0282 0
M  V30 14519 H 1353.52 3.8211 -3.74027 0
M  V30 14520 H 1353.86 3.62976 -2.03848 0
M  V30 14521 H 1354.39 2.37911 -3.18815 0
M  V30 14522 H 1351.13 2.18655 -6.17956 0
M  V30 14523 H 1350.65 3.38221 -4.95345 0
M  V30 14524 H 1352.33 3.3325 -5.54575 0
M  V30 14525 N 1352.46 1.37696 0.766659 0
M  V30 14526 C 1353.71 1.32922 1.52237 0
M  V30 14527 C 1354.03 -0.0842833 1.94818 0
M  V30 14528 O 1353.3 -1.02934 1.66677 0
M  V30 14529 H 1351.88 0.489049 0.564659 0
M  V30 14530 H 1354.54 1.72238 0.912142 0
M  V30 14531 H 1353.64 1.97158 2.4194 0
M  V30 14532 N 1353.94 -0.993397 1.22349 0
M  V30 14533 C 1354.89 -2.0834 0.993123 0
M  V30 14534 C 1355.86 -1.65883 -0.0849717 0
M  V30 14535 O 1357.04 -1.90691 0.0645176 0
M  V30 14536 C 1354.18 -3.40252 0.576434 0
M  V30 14537 C 1353.29 -3.96055 1.72524 0
M  V30 14538 C 1352.43 -5.16123 1.25659 0
M  V30 14539 C 1351.47 -5.64062 2.37698 0
M  V30 14540 N 1350.61 -6.7537 1.91883 0
M  V30 14541 H 1355.45 -2.27381 1.92619 0
M  V30 14542 H 1352.98 -1.11476 0.959763 0
M  V30 14543 H 1354.94 -4.16001 0.316021 0
M  V30 14544 H 1353.57 -3.21214 -0.319626 0
M  V30 14545 H 1352.62 -3.17182 2.1 0
M  V30 14546 H 1353.93 -4.27614 2.56802 0
M  V30 14547 H 1353.09 -5.9916 0.953528 0
M  V30 14548 H 1351.83 -4.86186 0.384011 0
M  V30 14549 H 1350.83 -4.79614 2.68794 0
M  V30 14550 H 1352.06 -5.96025 3.25471 0
M  V30 14551 H 1350 -6.47217 1.06986 0
M  V30 14552 H 1349.92 -7.06246 2.69727 0
M  V30 14553 H 1351.19 -7.61914 1.64644 0
M  V30 14554 N 1355.42 -1.03311 -1.19015 0
M  V30 14555 C 1356.66 -0.740813 -1.90503 0
M  V30 14556 C 1357.02 0.717732 -1.7808 0
M  V30 14557 O 1358.22 1.12329 -2.44204 0
M  V30 14558 C 1356.49 -1.18473 -3.37193 0
M  V30 14559 S 1358.05 -1.01692 -4.26854 0
M  V30 14560 H 1354.87 -0.269575 -0.657913 0
M  V30 14561 H 1357.47 -1.32382 -1.43858 0
M  V30 14562 H 1356.18 -2.2418 -3.43761 0
M  V30 14563 H 1355.71 -0.59519 -3.88872 0
M  V30 14564 H 1357.72 0.070076 -4.96151 0
M  V30 14565 N 1356.9 1.35099 -0.81154 0
M  V30 14566 C 1357.84 2.29717 -0.223372 0
M  V30 14567 C 1358.81 1.53049 0.645396 0
M  V30 14568 O 1360 1.81467 0.589436 0
M  V30 14569 C 1357.14 3.3952 0.618057 0
M  V30 14570 C 1356.25 4.31145 -0.271693 0
M  V30 14571 C 1355.39 5.28044 0.578214 0
M  V30 14572 C 1354.42 6.11306 -0.311628 0
M  V30 14573 N 1353.56 7.00328 0.498539 0
M  V30 14574 H 1358.4 2.79426 -1.03563 0
M  V30 14575 H 1355.94 1.37518 -0.522231 0
M  V30 14576 H 1357.9 4.01854 1.12111 0
M  V30 14577 H 1356.53 2.91075 1.39554 0
M  V30 14578 H 1355.58 3.69773 -0.892885 0
M  V30 14579 H 1356.89 4.89545 -0.956392 0
M  V30 14580 H 1356.04 5.95774 1.1462 0
M  V30 14581 H 1354.78 4.70152 1.29646 0
M  V30 14582 H 1353.79 5.42518 -0.891849 0
M  V30 14583 H 1355.01 6.71277 -1.02781 0
M  V30 14584 H 1352.96 6.44919 1.20067 0
M  V30 14585 H 1352.88 7.55892 -0.12801 0
M  V30 14586 H 1354.14 7.72401 1.04965 0
M  V30 14587 N 1358.37 0.56548 1.47106 0
M  V30 14588 C 1359.3 -0.16567 2.32912 0
M  V30 14589 C 1360.28 -0.900678 1.44298 0
M  V30 14590 O 1361.47 -0.879523 1.73142 0
M  V30 14591 C 1358.6 -1.19092 3.26243 0
M  V30 14592 C 1357.55 -0.571849 4.24163 0
M  V30 14593 C 1356.88 -1.70233 5.06878 0
M  V30 14594 C 1358.18 0.479785 5.20092 0
M  V30 14595 H 1359.87 0.550705 2.94292 0
M  V30 14596 H 1357.42 0.266284 1.41517 0
M  V30 14597 H 1359.37 -1.71064 3.85117 0
M  V30 14598 H 1358.1 -1.93734 2.62934 0
M  V30 14599 H 1356.76 -0.073353 3.66527 0
M  V30 14600 H 1356.4 -2.438 4.39967 0
M  V30 14601 H 1356.1 -1.29384 5.73178 0
M  V30 14602 H 1357.63 -2.22515 5.68612 0
M  V30 14603 H 1359.04 0.0458042 5.73282 0
M  V30 14604 H 1357.44 0.807615 5.94641 0
M  V30 14605 H 1358.51 1.37259 4.65068 0
M  V30 14606 N 1359.85 -1.54672 0.302354 0
M  V30 14607 C 1360.76 -2.27251 -0.582578 0
M  V30 14608 C 1361.78 -1.30819 -1.14727 0
M  V30 14609 O 1362.95 -1.63803 -1.17177 0
M  V30 14610 C 1360.02 -3.00016 -1.73757 0
M  V30 14611 C 1359.08 -4.11988 -1.20682 0
M  V30 14612 C 1358.31 -4.81273 -2.30676 0
M  V30 14613 O 1358.54 -4.49927 -3.50602 0
M  V30 14614 O 1357.47 -5.68647 -1.97291 0
M  V30 14615 H 1361.3 -3.03699 0.00621365 0
M  V30 14616 H 1358.88 -1.49242 0.0687684 0
M  V30 14617 H 1360.76 -3.45652 -2.41045 0
M  V30 14618 H 1359.44 -2.26462 -2.31294 0
M  V30 14619 H 1358.35 -3.70749 -0.499625 0
M  V30 14620 H 1359.68 -4.87524 -0.676858 0
M  V30 14621 N 1361.33 -0.0301034 -1.57571 0
M  V30 14622 C 1362.28 0.969425 -2.11435 0
M  V30 14623 C 1363.27 1.33627 -1.04116 0
M  V30 14624 O 1364.48 1.31839 -1.2255 0
M  V30 14625 H 1360.85 0.330407 -0.675526 0
M  V30 14626 H 1362.82 0.489828 -2.94352 0
M  V30 14627 C 1361.57 2.24233 -2.65734 0
M  V30 14628 H 1360.9 1.9688 -3.47963 0
M  V30 14629 H 1362.34 2.92378 -3.07068 0
M  V30 14630 C 1360.8 2.97274 -1.58524 0
M  V30 14631 O 1361.33 3.8942 -0.985641 0
M  V30 14632 N 1359.53 2.59627 -1.30545 0
M  V30 14633 H 1359.08 1.84773 -1.79491 0
M  V30 14634 H 1359.04 3.08807 -0.590372 0
M  V30 14635 N 1362.81 1.55714 0.243056 0
M  V30 14636 C 1363.72 1.93777 1.32241 0
M  V30 14637 C 1364.73 0.838709 1.52452 0
M  V30 14638 O 1365.91 1.14044 1.66 0
M  V30 14639 C 1362.98 2.22808 2.65627 0
M  V30 14640 C 1362.04 3.46166 2.53904 0
M  V30 14641 C 1361.27 3.73802 3.8093 0
M  V30 14642 O 1361.49 3.0345 4.82985 0
M  V30 14643 O 1360.43 4.67323 3.79332 0
M  V30 14644 H 1364.25 2.85718 1.02951 0
M  V30 14645 H 1361.84 1.42646 0.444135 0
M  V30 14646 H 1363.72 2.4277 3.44442 0
M  V30 14647 H 1362.39 1.34045 2.94642 0
M  V30 14648 H 1361.3 3.31506 1.73362 0
M  V30 14649 H 1362.63 4.35244 2.29834 0
M  V30 14650 N 1364.29 -0.50888 1.49158 0
M  V30 14651 C 1365.51 -1.28771 1.61943 0
M  V30 14652 C 1365.93 -1.86594 0.287759 0
M  V30 14653 O 1365.29 -1.67448 -0.725769 0
M  V30 14654 C 1365.34 -2.4236 2.68224 0
M  V30 14655 O 1365.06 -1.86915 3.96225 0
M  V30 14656 C 1366.56 -3.33856 2.91642 0
M  V30 14657 H 1363.78 -0.390849 0.545416 0
M  V30 14658 H 1366.32 -0.611729 1.95136 0
M  V30 14659 H 1364.48 -3.05803 2.37831 0
M  V30 14660 H 1364.89 -2.61426 4.54705 0
M  V30 14661 H 1366.37 -4.09856 3.69759 0
M  V30 14662 H 1366.84 -3.90374 2.01258 0
M  V30 14663 H 1367.45 -2.76187 3.23421 0
M  V30 14664 N 1365.76 -1.381 -0.759346 0
M  V30 14665 C 1367.01 -1.33727 -1.5153 0
M  V30 14666 C 1367.33 0.0739504 -1.9486 0
M  V30 14667 O 1366.6 1.02049 -1.67221 0
M  V30 14668 H 1365.18 -0.492037 -0.562058 0
M  V30 14669 H 1367.85 -1.72719 -0.902995 0
M  V30 14670 H 1366.94 -1.98439 -2.40891 0
M  V30 14671 N 1367.24 0.986894 -1.22875 0
M  V30 14672 C 1368.47 1.7601 -1.08185 0
M  V30 14673 C 1368.88 1.85545 0.370088 0
M  V30 14674 O 1368.22 1.32915 1.26804 0
M  V30 14675 C 1368.29 3.20661 -1.62532 0
M  V30 14676 C 1367.95 3.34655 -3.11216 0
M  V30 14677 C 1368.95 3.21493 -4.08581 0
M  V30 14678 C 1366.63 3.59512 -3.50794 0
M  V30 14679 C 1368.63 3.32983 -5.43508 0
M  V30 14680 C 1366.31 3.70642 -4.85868 0
M  V30 14681 C 1367.31 3.57387 -5.82034 0
M  V30 14682 O 1367 3.68135 -7.14655 0
M  V30 14683 H 1366.73 0.559402 -0.379533 0
M  V30 14684 H 1369.28 1.24905 -1.63058 0
M  V30 14685 H 1367.51 3.72985 -1.02073 0
M  V30 14686 H 1369.2 3.7972 -1.43415 0
M  V30 14687 H 1369.97 3.02193 -3.79347 0
M  V30 14688 H 1365.85 3.68904 -2.76461 0
M  V30 14689 H 1369.39 3.22553 -6.18551 0
M  V30 14690 H 1365.29 3.89451 -5.1478 0
M  V30 14691 H 1366.06 3.84971 -7.22316 0
M  V30 14692 N 1368.72 1.0394 1.18466 0
M  V30 14693 C 1370.14 0.758404 1.40429 0
M  V30 14694 C 1370.34 -0.652603 1.90639 0
M  V30 14695 O 1369.39 -1.417 2.08991 0
M  V30 14696 C 1370.71 1.80343 2.40618 0
M  V30 14697 C 1372.25 1.82419 2.54347 0
M  V30 14698 C 1372.73 2.8591 3.57798 0
M  V30 14699 N 1374.22 2.84793 3.65304 0
M  V30 14700 C 1374.95 3.61521 4.45073 0
M  V30 14701 N 1374.45 4.47997 5.28461 0
M  V30 14702 N 1376.24 3.50016 4.39824 0
M  V30 14703 H 1368.39 1.94998 0.842 0
M  V30 14704 H 1370.66 0.843649 0.43239 0
M  V30 14705 H 1370.36 2.81547 2.10771 0
M  V30 14706 H 1370.24 1.63451 3.39947 0
M  V30 14707 H 1372.62 0.818872 2.83511 0
M  V30 14708 H 1372.71 2.03388 1.55136 0
M  V30 14709 H 1372.35 3.8662 3.29375 0
M  V30 14710 H 1372.28 2.62196 4.56684 0
M  V30 14711 H 1374.77 2.22082 3.05758 0
M  V30 14712 H 1375.08 5.03257 5.86475 0
M  V30 14713 H 1373.43 4.52065 5.27885 0
M  V30 14714 H 1376.62 2.81862 3.73726 0
M  V30 14715 H 1376.79 4.10063 5.0175 0
M  V30 14716 N 1370.2 -1.34667 0.818693 0
M  V30 14717 C 1371.13 -2.32134 0.252239 0
M  V30 14718 C 1372.11 -1.58044 -0.628982 0
M  V30 14719 O 1373.29 -1.86049 -0.55674 0
M  V30 14720 C 1370.42 -3.42249 -0.590183 0
M  V30 14721 C 1369.38 -4.27562 0.193547 0
M  V30 14722 C 1368.7 -5.29107 -0.771349 0
M  V30 14723 C 1370 -5.03205 1.39936 0
M  V30 14724 H 1371.7 -2.79758 1.06657 0
M  V30 14725 H 1369.24 -1.34502 0.514325 0
M  V30 14726 H 1371.2 -4.09445 -0.996616 0
M  V30 14727 H 1369.92 -2.93262 -1.43752 0
M  V30 14728 H 1368.58 -3.61962 0.581297 0
M  V30 14729 H 1368.23 -4.76384 -1.61453 0
M  V30 14730 H 1367.93 -5.87063 -0.251201 0
M  V30 14731 H 1369.45 -5.99174 -1.17573 0
M  V30 14732 H 1370.87 -5.6328 1.06717 0
M  V30 14733 H 1369.26 -5.70715 1.85485 0
M  V30 14734 H 1370.33 -4.33145 2.17976 0
M  V30 14735 N 1371.68 -0.573274 -1.46804 0
M  V30 14736 C 1372.92 -0.0553432 -2.02724 0
M  V30 14737 C 1373.26 1.29753 -1.44492 0
M  V30 14738 O 1372.53 1.84804 -0.606455 0
M  V30 14739 C 1372.81 0.0205511 -3.60094 0
M  V30 14740 C 1372.67 -1.36055 -4.2873 0
M  V30 14741 C 1373.99 0.725944 -4.34071 0
M  V30 14742 H 1371.1 -0.0215858 -0.736684 0
M  V30 14743 H 1373.75 -0.738657 -1.75054 0
M  V30 14744 H 1371.9 0.602481 -3.838 0
M  V30 14745 H 1373.57 -1.98692 -4.16316 0
M  V30 14746 H 1371.81 -1.93087 -3.88458 0
M  V30 14747 H 1372.48 -1.26001 -5.37427 0
M  V30 14748 H 1374.96 0.231677 -4.15455 0
M  V30 14749 H 1373.83 0.74805 -5.43779 0
M  V30 14750 H 1374.1 1.78536 -4.04447 0
M  V30 14751 N 1373.15 1.5451 -0.310553 0
M  V30 14752 C 1374.43 1.92452 0.34951 0
M  V30 14753 C 1374.81 1.23881 1.70929 0
M  V30 14754 O 1374.16 0.377898 2.25353 0
M  V30 14755 C 1374.37 3.46026 0.454675 0
M  V30 14756 C 1375.72 4.18432 0.721071 0
M  V30 14757 O 1376.74 3.52112 0.538112 0
M  V30 14758 O 1375.6 5.3586 1.07314 0
M  V30 14759 H 1372.69 0.803168 0.197103 0
M  V30 14760 H 1375.24 1.65852 -0.359313 0
M  V30 14761 H 1374.01 3.88081 -0.500853 0
M  V30 14762 H 1373.64 3.7869 1.21159 0
M  V30 14763 N 1374.63 0.0384594 1.57553 0
M  V30 14764 C 1375.86 -0.651613 1.96898 0
M  V30 14765 C 1376.28 -1.64328 0.915308 0
M  V30 14766 O 1375.64 -1.80883 -0.122824 0
M  V30 14767 C 1375.69 -1.32613 3.3533 0
M  V30 14768 O 1374.79 -2.44159 3.32355 0
M  V30 14769 H 1374.13 -0.170441 0.641752 0
M  V30 14770 H 1376.66 0.103086 2.0434 0
M  V30 14771 H 1376.67 -1.68076 3.71772 0
M  V30 14772 H 1375.35 -0.599275 4.1156 0
M  V30 14773 H 1373.93 -2.10738 3.07642 0
M  V30 14774 N 1376.11 -1.55841 -0.234795 0
M  V30 14775 C 1377.34 -1.82307 -0.978355 0
M  V30 14776 C 1377.75 -0.615825 -1.78474 0
M  V30 14777 O 1377.11 0.4156 -1.77705 0
M  V30 14778 C 1377.16 -3.07136 -1.90655 0
M  V30 14779 O 1376.88 -4.23202 -1.13278 0
M  V30 14780 C 1378.38 -3.46492 -2.76511 0
M  V30 14781 H 1375.6 -0.606361 -0.287345 0
M  V30 14782 H 1378.15 -2.02916 -0.254023 0
M  V30 14783 H 1376.3 -2.88542 -2.58501 0
M  V30 14784 H 1376.72 -4.94029 -1.76168 0
M  V30 14785 H 1378.19 -4.36908 -3.37366 0
M  V30 14786 H 1378.67 -2.67633 -3.48238 0
M  V30 14787 H 1379.27 -3.6748 -2.14099 0
M  V30 14788 N 1377.59 0.500963 -1.49426 0
M  V30 14789 C 1378.81 1.28383 -1.62888 0
M  V30 14790 C 1379.24 1.85688 -0.300262 0
M  V30 14791 O 1378.6 1.6586 0.73212 0
M  V30 14792 C 1378.65 2.38987 -2.70033 0
M  V30 14793 O 1377.75 3.42837 -2.29208 0
M  V30 14794 H 1377.09 0.379012 -0.545202 0
M  V30 14795 H 1379.62 0.59971 -1.95613 0
M  V30 14796 H 1379.63 2.84749 -2.92202 0
M  V30 14797 H 1378.31 1.96643 -3.66475 0
M  V30 14798 H 1376.88 3.02993 -2.1737 0
M  V30 14799 N 1379.07 1.38501 0.752011 0
M  V30 14800 C 1380.31 1.36212 1.52399 0
M  V30 14801 C 1380.67 -0.0472831 1.91942 0
M  V30 14802 O 1381.87 -0.195055 2.68091 0
M  V30 14803 C 1380.14 2.2925 2.74188 0
M  V30 14804 S 1381.7 2.44995 3.64037 0
M  V30 14805 H 1378.52 0.483276 0.521503 0
M  V30 14806 H 1381.12 1.74441 0.882647 0
M  V30 14807 H 1379.83 3.30541 2.4325 0
M  V30 14808 H 1379.36 1.92176 3.43266 0
M  V30 14809 H 1381.37 1.67519 4.67067 0
M  V30 14810 N 1380.55 -0.980364 1.23396 0
M  V30 14811 C 1381.49 -2.09401 1.01262 0
M  V30 14812 C 1382.49 -1.69331 -0.0483957 0
M  V30 14813 O 1383.69 -1.79693 0.105109 0
M  V30 14814 H 1380.07 -0.684969 0.310358 0
M  V30 14815 H 1382.04 -2.25236 1.95732 0
M  V30 14816 C 1380.79 -3.42118 0.620526 0
M  V30 14817 H 1380.11 -3.73402 1.42868 0
M  V30 14818 H 1381.55 -4.2098 0.505169 0
M  V30 14819 C 1380.01 -3.30146 -0.671208 0
M  V30 14820 O 1380.54 -3.62997 -1.72034 0
M  V30 14821 N 1378.75 -2.83303 -0.647137 0
M  V30 14822 H 1378.29 -2.56767 0.206957 0
M  V30 14823 H 1378.25 -2.75675 -1.51165 0
M  V30 14824 N 1382.02 -1.04567 -1.17913 0
M  V30 14825 C 1383.44 -0.76584 -1.40025 0
M  V30 14826 C 1383.64 0.642484 -1.90983 0
M  V30 14827 O 1382.7 1.40589 -2.0974 0
M  V30 14828 C 1384.01 -1.81616 -2.39658 0
M  V30 14829 C 1385.56 -1.83765 -2.53376 0
M  V30 14830 C 1386.03 -2.87803 -3.56277 0
M  V30 14831 N 1387.52 -2.86726 -3.63789 0
M  V30 14832 C 1388.26 -3.63876 -4.4315 0
M  V30 14833 N 1387.75 -4.50793 -5.26077 0
M  V30 14834 N 1389.55 -3.52344 -4.37962 0
M  V30 14835 H 1381.7 -1.95442 -0.831647 0
M  V30 14836 H 1383.96 -0.84593 -0.42791 0
M  V30 14837 H 1383.67 -2.8266 -2.09275 0
M  V30 14838 H 1383.54 -1.65251 -3.39075 0
M  V30 14839 H 1385.93 -0.833896 -2.83073 0
M  V30 14840 H 1386.01 -2.04208 -1.54055 0
M  V30 14841 H 1385.65 -3.88361 -3.2732 0
M  V30 14842 H 1385.58 -2.64614 -4.55288 0
M  V30 14843 H 1388.07 -2.237 -3.04576 0
M  V30 14844 H 1388.39 -5.0636 -5.83798 0
M  V30 14845 H 1386.73 -4.54858 -5.2548 0
M  V30 14846 H 1389.92 -2.8384 -3.72226 0
M  V30 14847 H 1390.1 -4.12718 -4.99568 0
M  V30 14848 N 1383.5 1.34231 -0.825823 0
M  V30 14849 C 1384.41 2.33245 -0.251803 0
M  V30 14850 C 1385.43 1.62756 0.615334 0
M  V30 14851 O 1386.6 1.94503 0.522547 0
M  V30 14852 C 1383.67 3.41908 0.574456 0
M  V30 14853 C 1382.73 4.2814 -0.315422 0
M  V30 14854 C 1381.96 5.31613 0.471496 0
M  V30 14855 O 1382.19 5.44337 1.70449 0
M  V30 14856 O 1381.12 6.01719 -0.147691 0
M  V30 14857 H 1384.95 2.84174 -1.07139 0
M  V30 14858 H 1382.53 1.37341 -0.588032 0
M  V30 14859 H 1384.41 4.08252 1.04444 0
M  V30 14860 H 1383.09 2.93217 1.37132 0
M  V30 14861 H 1381.99 3.64709 -0.832963 0
M  V30 14862 H 1383.33 4.80279 -1.07672 0
M  V30 14863 N 1384.98 0.581051 1.46498 0
M  V30 14864 C 1386.23 0.0658652 2.01993 0
M  V30 14865 C 1386.55 -1.29807 1.45516 0
M  V30 14866 O 1385.82 -1.85177 0.639233 0
M  V30 14867 H 1384.4 0.0213584 0.746695 0
M  V30 14868 H 1387.06 0.756456 1.79621 0
M  V30 14869 H 1386.16 -0.00438128 3.121 0
M  V30 14870 N 1386.46 -1.54343 0.318742 0
M  V30 14871 C 1387.7 -2.00777 -0.285699 0
M  V30 14872 C 1388.04 -1.20664 -1.52164 0
M  V30 14873 O 1387.31 -0.287674 -1.92361 0
M  V30 14874 C 1387.59 -3.54641 -0.624649 0
M  V30 14875 C 1387.45 -4.45483 0.621663 0
M  V30 14876 C 1388.77 -4.15729 -1.4442 0
M  V30 14877 H 1385.89 -0.729856 -0.102367 0
M  V30 14878 H 1388.53 -1.84968 0.434364 0
M  V30 14879 H 1386.68 -3.68243 -1.23811 0
M  V30 14880 H 1388.35 -4.43759 1.25998 0
M  V30 14881 H 1386.59 -4.15356 1.25148 0
M  V30 14882 H 1387.26 -5.50951 0.340106 0
M  V30 14883 H 1389.74 -4.05672 -0.925699 0
M  V30 14884 H 1388.62 -5.23509 -1.65013 0
M  V30 14885 H 1388.88 -3.68743 -2.43887 0
M  V30 14886 N 1387.94 -0.0468143 -1.5753 0
M  V30 14887 C 1388.9 0.914225 -2.10177 0
M  V30 14888 C 1389.9 1.24271 -1.02045 0
M  V30 14889 O 1391.09 1.18012 -1.28136 0
M  V30 14890 C 1388.22 2.22544 -2.58238 0
M  V30 14891 H 1389.41 0.457922 -2.96383 0
M  V30 14892 H 1386.97 0.20152 -1.54995 0
M  V30 14893 H 1387.7 2.72765 -1.75413 0
M  V30 14894 H 1387.49 2.00007 -3.37253 0
M  V30 14895 H 1388.98 2.91392 -2.99133 0
M  V30 14896 N 1389.41 1.55964 0.226527 0
M  V30 14897 C 1390.66 1.77944 0.94967 0
M  V30 14898 C 1390.98 0.614478 1.85697 0
M  V30 14899 O 1392.18 0.717793 2.6184 0
M  V30 14900 C 1390.64 3.15108 1.73881 0
M  V30 14901 C 1390.25 4.39314 0.877894 0
M  V30 14902 C 1391.99 3.46418 2.45347 0
M  V30 14903 C 1389.9 5.67505 1.6641 0
M  V30 14904 H 1388.83 0.663412 0.35833 0
M  V30 14905 H 1391.48 1.82366 0.203695 0
M  V30 14906 H 1389.86 3.04849 2.52751 0
M  V30 14907 H 1391.03 4.60616 0.130089 0
M  V30 14908 H 1389.35 4.15487 0.2756 0
M  V30 14909 H 1391.95 4.39416 3.0466 0
M  V30 14910 H 1392.29 2.68685 3.17985 0
M  V30 14911 H 1392.82 3.57984 1.73471 0
M  V30 14912 H 1389.56 6.48116 0.981089 0
M  V30 14913 H 1389.08 5.50272 2.38665 0
M  V30 14914 H 1390.76 6.075 2.22605 0
M  V30 14915 N 1390.89 -0.493031 1.4969 0
M  V30 14916 C 1392.14 -1.24849 1.59814 0
M  V30 14917 C 1392.47 -1.92059 0.287555 0
M  V30 14918 O 1391.75 -1.81099 -0.709471 0
M  V30 14919 C 1392.03 -2.30929 2.76304 0
M  V30 14920 C 1391.88 -1.68167 4.17181 0
M  V30 14921 C 1393.2 -3.32427 2.8841 0
M  V30 14922 H 1390.32 -0.452553 0.581691 0
M  V30 14923 H 1392.96 -0.545455 1.82002 0
M  V30 14924 H 1391.11 -2.9089 2.57517 0
M  V30 14925 H 1392.78 -1.11971 4.47504 0
M  V30 14926 H 1391.03 -0.985496 4.22458 0
M  V30 14927 H 1391.7 -2.45148 4.94577 0
M  V30 14928 H 1394.17 -2.82464 3.05537 0
M  V30 14929 H 1393.05 -4.04004 3.71581 0
M  V30 14930 H 1393.31 -3.95234 1.98097 0
M  V30 14931 N 1392.37 -1.38898 -0.744656 0
M  V30 14932 C 1393.78 -1.31789 -1.32244 0
M  V30 14933 C 1394.13 0.0222208 -1.96187 0
M  V30 14934 O 1393.26 0.924328 -1.95666 0
M  V30 14935 C 1393.85 -2.38674 -2.40458 0
M  V30 14936 C 1392.41 -2.35116 -2.93935 0
M  V30 14937 C 1391.56 -2.21069 -1.67403 0
M  V30 14938 H 1394.51 -1.49126 -0.54287 0
M  V30 14939 H 1394.53 -2.04905 -3.20615 0
M  V30 14940 H 1394.04 -3.36197 -1.9389 0
M  V30 14941 H 1392.14 -1.41201 -3.44809 0
M  V30 14942 H 1392.26 -3.29602 -3.47706 0
M  V30 14943 H 1390.62 -1.68074 -1.91372 0
M  V30 14944 H 1391.4 -3.20547 -1.229 0
M  V30 14945 N 1393.85 0.973806 -1.23914 0
M  V30 14946 C 1394.78 2.07003 -0.983982 0
M  V30 14947 C 1395.79 1.62739 0.0443893 0
M  V30 14948 O 1396.98 1.77465 -0.191927 0
M  V30 14949 C 1394.08 3.35737 -0.461937 0
M  V30 14950 C 1393.26 4.08939 -1.55202 0
M  V30 14951 C 1392.31 5.15947 -1.03369 0
M  V30 14952 O 1391.34 5.42461 -1.72409 0
M  V30 14953 N 1392.54 5.80343 0.135067 0
M  V30 14954 H 1395.31 2.29468 -1.92781 0
M  V30 14955 H 1392.87 1.14098 -1.14861 0
M  V30 14956 H 1394.86 4.04576 -0.100074 0
M  V30 14957 H 1393.43 3.10189 0.387467 0
M  V30 14958 H 1392.65 3.34462 -2.08635 0
M  V30 14959 H 1393.94 4.5461 -2.2849 0
M  V30 14960 H 1393.34 5.61196 0.71241 0
M  V30 14961 H 1391.89 6.50326 0.438132 0
M  V30 14962 N 1395.33 1.05191 1.17357 0
M  V30 14963 C 1396.57 0.760479 1.87246 0
M  V30 14964 C 1396.9 -0.714618 1.81434 0
M  V30 14965 O 1396.17 -1.51636 1.24029 0
M  V30 14966 H 1394.75 0.278317 0.693216 0
M  V30 14967 H 1397.41 1.33106 1.42369 0
M  V30 14968 H 1396.5 1.07542 2.92987 0
M  V30 14969 N 1396.8 -1.33791 0.83293 0
M  V30 14970 C 1398.03 -2.02187 0.439077 0
M  V30 14971 C 1398.45 -1.62692 -0.957958 0
M  V30 14972 O 1397.8 -0.837302 -1.62159 0
M  V30 14973 C 1397.86 -3.57395 0.543232 0
M  V30 14974 O 1397.58 -3.95463 1.88522 0
M  V30 14975 C 1399.08 -4.43061 0.145567 0
M  V30 14976 H 1396.3 -0.64778 0.174992 0
M  V30 14977 H 1398.84 -1.7085 1.12386 0
M  V30 14978 H 1397 -3.87287 -0.0935746 0
M  V30 14979 H 1397.41 -4.90164 1.86653 0
M  V30 14980 H 1398.88 -5.51342 0.269507 0
M  V30 14981 H 1399.36 -4.29628 -0.911934 0
M  V30 14982 H 1399.97 -4.18517 0.756572 0
M  V30 14983 N 1398.28 -0.588812 -1.46187 0
M  V30 14984 C 1399.21 0.128595 -2.33146 0
M  V30 14985 C 1400.19 0.877608 -1.45712 0
M  V30 14986 O 1401.38 0.851866 -1.74519 0
M  V30 14987 C 1398.51 1.13886 -3.28096 0
M  V30 14988 C 1397.46 0.504296 -4.25019 0
M  V30 14989 C 1396.79 1.62147 -5.09522 0
M  V30 14990 C 1398.09 -0.562466 -5.19263 0
M  V30 14991 H 1399.78 -0.597455 -2.93378 0
M  V30 14992 H 1397.33 -0.288764 -1.41075 0
M  V30 14993 H 1399.28 1.64916 -3.8779 0
M  V30 14994 H 1398.01 1.89527 -2.65983 0
M  V30 14995 H 1396.66 0.0150325 -3.66597 0
M  V30 14996 H 1396.31 2.36769 -4.4379 0
M  V30 14997 H 1396.01 1.20249 -5.75164 0
M  V30 14998 H 1397.54 2.13441 -5.7208 0
M  V30 14999 H 1398.95 -0.137003 -5.73136 0
M  V30 15000 H 1397.35 -0.902115 -5.93281 0
M  V30 15001 H 1398.42 -1.4464 -4.62825 0
M  V30 15002 N 1399.76 1.54172 -0.326923 0
M  V30 15003 C 1400.71 2.24454 0.537501 0
M  V30 15004 C 1401.68 1.23658 1.10896 0
M  V30 15005 O 1402.86 1.52348 1.14868 0
M  V30 15006 C 1400 3.00839 1.69085 0
M  V30 15007 C 1399.12 4.16459 1.1483 0
M  V30 15008 C 1398.25 4.80368 2.26761 0
M  V30 15009 C 1397.29 5.88085 1.69771 0
M  V30 15010 N 1396.43 6.45842 2.75378 0
M  V30 15011 H 1401.27 2.97921 -0.0684022 0
M  V30 15012 H 1398.8 1.4703 -0.0455287 0
M  V30 15013 H 1400.76 3.43375 2.36959 0
M  V30 15014 H 1399.39 2.297 2.26799 0
M  V30 15015 H 1398.44 3.78683 0.361004 0
M  V30 15016 H 1399.76 4.93986 0.69132 0
M  V30 15017 H 1398.91 5.25889 3.02533 0
M  V30 15018 H 1397.65 4.02228 2.75796 0
M  V30 15019 H 1396.65 5.41963 0.924985 0
M  V30 15020 H 1397.88 6.68123 1.21609 0
M  V30 15021 H 1395.82 5.70574 3.23699 0
M  V30 15022 H 1395.74 7.18792 2.34253 0
M  V30 15023 H 1397.01 6.96018 3.50969 0
M  V30 15024 N 1401.24 0.0551678 1.57503 0
M  V30 15025 C 1402.48 -0.621569 1.9472 0
M  V30 15026 C 1402.84 -1.67772 0.933626 0
M  V30 15027 O 1404.04 -2.40882 1.19287 0
M  V30 15028 C 1402.31 -1.19858 3.36703 0
M  V30 15029 S 1403.87 -1.89276 3.95879 0
M  V30 15030 H 1400.69 -0.203985 0.68111 0
M  V30 15031 H 1403.29 0.125058 1.951 0
M  V30 15032 H 1402 -0.417833 4.08267 0
M  V30 15033 H 1401.53 -1.98193 3.39828 0
M  V30 15034 H 1403.54 -3.17373 3.8143 0
M  V30 15035 N 1402.72 -1.56081 -0.218252 0
M  V30 15036 C 1403.66 -1.92684 -1.27049 0
M  V30 15037 C 1404.63 -0.784441 -1.46409 0
M  V30 15038 O 1405.82 -1.04062 -1.59924 0
M  V30 15039 C 1402.96 -2.25174 -2.61516 0
M  V30 15040 C 1402.07 -3.52364 -2.49927 0
M  V30 15041 C 1401.21 -3.74286 -3.7694 0
M  V30 15042 C 1400.25 -4.94979 -3.60087 0
M  V30 15043 N 1399.38 -5.13273 -4.79057 0
M  V30 15044 H 1404.22 -2.82406 -0.951347 0
M  V30 15045 H 1401.76 -1.39774 -0.458441 0
M  V30 15046 H 1403.72 -2.42022 -3.39825 0
M  V30 15047 H 1402.35 -1.38621 -2.9152 0
M  V30 15048 H 1401.4 -3.43691 -1.63036 0
M  V30 15049 H 1402.71 -4.40826 -2.33397 0
M  V30 15050 H 1401.87 -3.91248 -4.63692 0
M  V30 15051 H 1400.6 -2.84111 -3.96399 0
M  V30 15052 H 1399.61 -4.77963 -2.71719 0
M  V30 15053 H 1400.83 -5.86641 -3.42095 0
M  V30 15054 H 1398.78 -4.26041 -4.98824 0
M  V30 15055 H 1398.7 -5.95873 -4.65265 0
M  V30 15056 H 1399.97 -5.34673 -5.67226 0
M  V30 15057 N 1404.2 0.485086 -1.49949 0
M  V30 15058 C 1405.44 1.23486 -1.5948 0
M  V30 15059 C 1405.76 1.93377 -0.294082 0
M  V30 15060 O 1406.96 2.70173 -0.268133 0
M  V30 15061 C 1405.42 2.24303 -2.81454 0
M  V30 15062 C 1405.03 1.60279 -4.18347 0
M  V30 15063 C 1406.77 3.0001 -3.00324 0
M  V30 15064 C 1404.68 2.593 -5.31524 0
M  V30 15065 H 1403.61 0.464595 -0.593858 0
M  V30 15066 H 1406.26 0.506893 -1.7636 0
M  V30 15067 H 1404.64 3.00332 -2.58102 0
M  V30 15068 H 1405.82 0.901352 -4.51899 0
M  V30 15069 H 1404.13 0.969053 -4.04967 0
M  V30 15070 H 1406.73 3.74091 -3.82048 0
M  V30 15071 H 1407.07 3.5857 -2.11502 0
M  V30 15072 H 1407.6 2.31095 -3.2379 0
M  V30 15073 H 1404.34 2.05498 -6.22455 0
M  V30 15074 H 1403.86 3.27638 -5.02408 0
M  V30 15075 H 1405.54 3.21411 -5.61519 0
M  V30 15076 N 1405.67 1.39291 0.737279 0
M  V30 15077 C 1406.92 1.36121 1.49384 0
M  V30 15078 C 1407.24 -0.0429406 1.94953 0
M  V30 15079 O 1406.51 -0.993756 1.68823 0
M  V30 15080 H 1405.09 0.500916 0.554159 0
M  V30 15081 H 1407.75 1.74134 0.875402 0
M  V30 15082 H 1406.85 2.02246 2.37704 0
M  V30 15083 N 1407.15 -0.967221 1.24429 0
M  V30 15084 C 1408.1 -2.06187 1.03709 0
M  V30 15085 C 1409.07 -1.66025 -0.0497665 0
M  V30 15086 O 1410.25 -1.90511 0.104951 0
M  V30 15087 C 1407.39 -3.38952 0.648477 0
M  V30 15088 C 1406.51 -3.92306 1.80886 0
M  V30 15089 C 1405.64 -5.13342 1.36579 0
M  V30 15090 C 1404.68 -5.58893 2.49609 0
M  V30 15091 N 1403.82 -6.71148 2.06165 0
M  V30 15092 H 1408.66 -2.23244 1.97399 0
M  V30 15093 H 1406.19 -1.09415 0.983192 0
M  V30 15094 H 1408.15 -4.15237 0.40419 0
M  V30 15095 H 1406.78 -3.21819 -0.25142 0
M  V30 15096 H 1405.83 -3.12656 2.1668 0
M  V30 15097 H 1407.15 -4.22071 2.65815 0
M  V30 15098 H 1406.3 -5.97003 1.0804 0
M  V30 15099 H 1405.04 -4.85262 0.487051 0
M  V30 15100 H 1404.04 -4.73805 2.78906 0
M  V30 15101 H 1405.27 -5.88987 3.3804 0
M  V30 15102 H 1403.22 -6.44802 1.20691 0
M  V30 15103 H 1403.13 -7.00366 2.84647 0
M  V30 15104 H 1404.4 -7.5825 1.80769 0
M  V30 15105 N 1408.63 -1.05812 -1.16797 0
M  V30 15106 C 1409.86 -0.792519 -1.9112 0
M  V30 15107 C 1410.27 0.652549 -1.77164 0
M  V30 15108 O 1409.63 1.44633 -1.113 0
M  V30 15109 C 1409.68 -1.17172 -3.41984 0
M  V30 15110 O 1409.4 -2.56008 -3.55516 0
M  V30 15111 C 1410.9 -0.933162 -4.33367 0
M  V30 15112 H 1408.12 -0.28768 -0.606202 0
M  V30 15113 H 1410.67 -1.41046 -1.48075 0
M  V30 15114 H 1408.82 -0.598413 -3.8275 0
M  V30 15115 H 1409.24 -2.71053 -4.49033 0
M  V30 15116 H 1410.71 -1.24817 -5.37703 0
M  V30 15117 H 1411.19 0.131345 -4.39004 0
M  V30 15118 H 1411.79 -1.49062 -3.98322 0
M  V30 15119 N 1410.11 1.33347 -0.840014 0
M  V30 15120 C 1411.34 2.01952 -0.449793 0
M  V30 15121 C 1411.75 1.63197 0.949317 0
M  V30 15122 O 1411.11 0.84589 1.61713 0
M  V30 15123 C 1411.16 3.57102 -0.562178 0
M  V30 15124 O 1410.88 3.94458 -1.90616 0
M  V30 15125 C 1412.38 4.42978 -0.169062 0
M  V30 15126 H 1409.6 0.646843 -0.178425 0
M  V30 15127 H 1412.14 1.70251 -1.1329 0
M  V30 15128 H 1410.3 3.87331 0.0730345 0
M  V30 15129 H 1410.71 4.89167 -1.8925 0
M  V30 15130 H 1412.19 5.51191 -0.298742 0
M  V30 15131 H 1412.66 4.30106 0.889137 0
M  V30 15132 H 1413.27 4.18109 -0.778756 0
M  V30 15133 N 1411.59 0.596556 1.45873 0
M  V30 15134 C 1412.83 0.0875879 2.02611 0
M  V30 15135 C 1413.16 -1.27438 1.46538 0
M  V30 15136 O 1412.44 -1.83815 0.635779 0
M  V30 15137 C 1412.72 0.0367394 3.60081 0
M  V30 15138 C 1412.58 1.42859 4.26511 0
M  V30 15139 C 1413.89 -0.656795 4.35171 0
M  V30 15140 H 1411.01 0.0333031 0.736247 0
M  V30 15141 H 1413.66 0.766413 1.73857 0
M  V30 15142 H 1411.81 -0.541345 3.8471 0
M  V30 15143 H 1413.48 2.0529 4.13102 0
M  V30 15144 H 1411.72 1.99243 3.85337 0
M  V30 15145 H 1412.39 1.34535 5.35354 0
M  V30 15146 H 1414.87 -0.165553 4.15771 0
M  V30 15147 H 1413.74 -0.661445 5.449 0
M  V30 15148 H 1414 -1.72079 4.07236 0
M  V30 15149 N 1413.06 -1.53996 0.335095 0
M  V30 15150 C 1414 -2.22258 -0.559809 0
M  V30 15151 C 1415.01 -1.22636 -1.07071 0
M  V30 15152 O 1416.2 -1.4904 -0.982312 0
M  V30 15153 C 1413.3 -2.88256 -1.78218 0
M  V30 15154 C 1412.47 -4.14118 -1.40801 0
M  V30 15155 C 1411.53 -4.63603 -2.48915 0
M  V30 15156 O 1410.56 -5.28015 -2.12576 0
M  V30 15157 N 1411.76 -4.3881 -3.80034 0
M  V30 15158 H 1414.52 -2.9969 0.0247521 0
M  V30 15159 H 1412.08 -1.61119 0.158826 0
M  V30 15160 H 1414.08 -3.1828 -2.4996 0
M  V30 15161 H 1412.65 -2.14461 -2.27431 0
M  V30 15162 H 1411.87 -3.90732 -0.521729 0
M  V30 15163 H 1413.15 -4.96005 -1.13388 0
M  V30 15164 H 1412.55 -3.87278 -4.12349 0
M  V30 15165 H 1411.11 -4.73461 -4.47971 0
M  V30 15166 N 1414.54 -0.0635198 -1.57472 0
M  V30 15167 C 1415.79 0.608384 -1.93459 0
M  V30 15168 C 1416.12 1.6976 -0.943141 0
M  V30 15169 O 1415.4 1.94478 0.0289567 0
M  V30 15170 C 1415.68 1.19302 -3.39763 0
M  V30 15171 C 1415.53 0.11102 -4.49663 0
M  V30 15172 C 1416.85 2.101 -3.86712 0
M  V30 15173 H 1413.97 0.219688 -0.703496 0
M  V30 15174 H 1416.61 -0.127803 -1.8957 0
M  V30 15175 H 1414.76 1.82044 -3.43209 0
M  V30 15176 H 1416.43 -0.521606 -4.58342 0
M  V30 15177 H 1414.68 -0.559408 -4.30178 0
M  V30 15178 H 1415.35 0.560332 -5.49149 0
M  V30 15179 H 1417.82 1.57305 -3.8522 0
M  V30 15180 H 1416.7 2.47945 -4.89708 0
M  V30 15181 H 1416.96 3.00603 -3.24177 0
M  V30 15182 N 1416.02 1.56195 0.209972 0
M  V30 15183 C 1417.27 1.78941 0.930744 0
M  V30 15184 C 1417.58 0.634139 1.85035 0
M  V30 15185 O 1418.79 0.745524 2.61064 0
M  V30 15186 C 1417.24 3.16935 1.70529 0
M  V30 15187 C 1416.85 4.40221 0.83125 0
M  V30 15188 C 1418.6 3.49 2.41659 0
M  V30 15189 C 1416.5 5.69238 1.60381 0
M  V30 15190 H 1415.43 0.667176 0.351273 0
M  V30 15191 H 1418.08 1.82572 0.184341 0
M  V30 15192 H 1416.47 3.07513 2.49503 0
M  V30 15193 H 1417.64 4.60728 0.081227 0
M  V30 15194 H 1415.95 4.15756 0.231517 0
M  V30 15195 H 1418.55 4.42623 2.99982 0
M  V30 15196 H 1418.89 2.72042 3.15117 0
M  V30 15197 H 1419.43 3.59804 1.69665 0
M  V30 15198 H 1416.17 6.49121 0.912292 0
M  V30 15199 H 1415.69 5.52772 2.32815 0
M  V30 15200 H 1417.37 6.09827 2.16149 0
M  V30 15201 N 1417.5 -0.477127 1.50204 0
M  V30 15202 C 1418.46 -1.55824 1.68082 0
M  V30 15203 C 1419.46 -1.51039 0.551719 0
M  V30 15204 O 1420.65 -1.53766 0.818638 0
M  V30 15205 C 1417.78 -2.95462 1.70044 0
M  V30 15206 H 1418.98 -1.41292 2.64531 0
M  V30 15207 H 1416.53 -0.70308 1.39594 0
M  V30 15208 H 1417.26 -3.15445 0.752663 0
M  V30 15209 H 1417.05 -3.00343 2.52065 0
M  V30 15210 H 1418.54 -3.73964 1.85851 0
M  V30 15211 N 1418.98 -1.3968 -0.729882 0
M  V30 15212 C 1419.91 -1.33201 -1.85291 0
M  V30 15213 C 1420.89 -0.204787 -1.61305 0
M  V30 15214 O 1422.07 -0.386087 -1.84504 0
M  V30 15215 C 1419.2 -1.06955 -3.21369 0
M  V30 15216 C 1418.24 -2.21937 -3.64207 0
M  V30 15217 S 1419.08 -3.84249 -3.72979 0
M  V30 15218 C 1420.23 -3.60239 -5.11839 0
M  V30 15219 H 1420.47 -2.28244 -1.90504 0
M  V30 15220 H 1418 -1.25796 -0.895252 0
M  V30 15221 H 1419.96 -0.924975 -3.99943 0
M  V30 15222 H 1418.62 -0.135902 -3.13806 0
M  V30 15223 H 1417.81 -1.99179 -4.62973 0
M  V30 15224 H 1417.41 -2.32624 -2.92852 0
M  V30 15225 H 1419.71 -3.17821 -5.98328 0
M  V30 15226 H 1420.65 -4.58485 -5.39627 0
M  V30 15227 H 1421.06 -2.94229 -4.81757 0
M  V30 15228 N 1420.45 0.960609 -1.2494 0
M  V30 15229 C 1421.73 1.68035 -1.00118 0
M  V30 15230 C 1422.11 2.057 0.474399 0
M  V30 15231 O 1421.46 1.76569 1.45036 0
M  V30 15232 C 1421.67 2.90708 -1.93106 0
M  V30 15233 C 1423.02 3.62792 -2.20606 0
M  V30 15234 O 1424.04 3.00778 -1.90816 0
M  V30 15235 O 1422.9 4.74443 -2.71231 0
M  V30 15236 H 1419.99 0.734939 -0.379202 0
M  V30 15237 H 1422.54 1.01407 -1.36069 0
M  V30 15238 H 1421.31 2.59619 -2.92769 0
M  V30 15239 H 1420.94 3.65068 -1.57515 0
M  V30 15240 N 1421.93 1.0643 1.16234 0
M  V30 15241 C 1423.16 0.802644 1.90697 0
M  V30 15242 C 1423.58 -0.643145 1.77508 0
M  V30 15243 O 1422.93 -1.4404 1.12065 0
M  V30 15244 C 1422.98 1.18984 3.41358 0
M  V30 15245 O 1422.7 2.5789 3.54153 0
M  V30 15246 C 1424.21 0.956132 4.32866 0
M  V30 15247 H 1421.43 0.290891 0.604668 0
M  V30 15248 H 1423.97 1.41829 1.47325 0
M  V30 15249 H 1422.12 0.618703 3.82428 0
M  V30 15250 H 1422.54 2.73431 4.47589 0
M  V30 15251 H 1424.01 1.27667 5.37034 0
M  V30 15252 H 1424.49 -0.108062 4.39067 0
M  V30 15253 H 1425.1 1.51172 3.97526 0
M  V30 15254 N 1423.41 -1.329 0.847073 0
M  V30 15255 C 1424.36 -2.29044 0.284199 0
M  V30 15256 C 1425.33 -1.54706 -0.604591 0
M  V30 15257 O 1426.51 -1.82966 -0.541116 0
M  V30 15258 C 1423.65 -3.4104 -0.527822 0
M  V30 15259 C 1422.77 -4.30273 0.385907 0
M  V30 15260 C 1421.9 -5.29391 -0.438009 0
M  V30 15261 C 1420.94 -6.10265 0.473596 0
M  V30 15262 N 1420.08 -7.01403 -0.312684 0
M  V30 15263 H 1424.92 -2.76582 1.10935 0
M  V30 15264 H 1422.45 -1.36085 0.558508 0
M  V30 15265 H 1424.41 -4.04686 -1.01417 0
M  V30 15266 H 1423.04 -2.94673 -1.31787 0
M  V30 15267 H 1422.09 -3.67275 0.99061 0
M  V30 15268 H 1423.41 -4.86837 1.08585 0
M  V30 15269 H 1422.56 -5.98604 -0.987842 0
M  V30 15270 H 1421.3 -4.73424 -1.17135 0
M  V30 15271 H 1420.3 -5.39963 1.03537 0
M  V30 15272 H 1421.53 -6.68316 1.20543 0
M  V30 15273 H 1419.47 -6.47875 -1.02926 0
M  V30 15274 H 1419.39 -7.55286 0.328376 0
M  V30 15275 H 1420.66 -7.74912 -0.844489 0
M  V30 15276 N 1424.89 -0.604284 -1.45555 0
M  V30 15277 C 1425.82 0.103859 -2.33269 0
M  V30 15278 C 1426.8 0.862104 -1.46635 0
M  V30 15279 O 1427.98 0.833308 -1.75413 0
M  V30 15280 C 1425.11 1.104 -3.29286 0
M  V30 15281 C 1424.07 0.459189 -4.2553 0
M  V30 15282 C 1423.39 1.56734 -5.11213 0
M  V30 15283 C 1424.69 -0.617509 -5.18637 0
M  V30 15284 H 1426.39 -0.628538 -2.92728 0
M  V30 15285 H 1423.93 -0.303711 -1.40761 0
M  V30 15286 H 1425.89 1.60794 -3.89517 0
M  V30 15287 H 1424.61 1.86695 -2.67979 0
M  V30 15288 H 1423.27 -0.0238508 -3.66592 0
M  V30 15289 H 1422.92 2.32049 -4.46276 0
M  V30 15290 H 1422.62 1.14142 -5.76407 0
M  V30 15291 H 1424.14 2.07361 -5.74312 0
M  V30 15292 H 1425.56 -0.197784 -5.72959 0
M  V30 15293 H 1423.95 -0.96499 -5.9229 0
M  V30 15294 H 1425.02 -1.49541 -4.61265 0
M  V30 15295 N 1426.37 1.53816 -0.343257 0
M  V30 15296 C 1427.61 2.00512 0.252845 0
M  V30 15297 C 1427.94 1.23274 1.51091 0
M  V30 15298 O 1427.21 0.339841 1.9293 0
M  V30 15299 H 1425.79 0.740751 0.0964202 0
M  V30 15300 H 1428.45 1.89288 -0.464347 0
M  V30 15301 H 1427.54 3.08142 0.495499 0
M  V30 15302 N 1427.84 0.0718701 1.57436 0
M  V30 15303 C 1429.26 -0.460784 1.80924 0
M  V30 15304 C 1429.61 -1.69637 0.985781 0
M  V30 15305 O 1428.73 -2.15395 0.208319 0
M  V30 15306 C 1429.33 -0.842738 3.28151 0
M  V30 15307 C 1427.89 -1.32026 3.52486 0
M  V30 15308 C 1427.03 -0.305466 2.75612 0
M  V30 15309 H 1429.98 0.297566 1.55885 0
M  V30 15310 H 1430 -1.70414 3.40205 0
M  V30 15311 H 1429.52 0.056733 3.88059 0
M  V30 15312 H 1427.62 -2.23822 2.97883 0
M  V30 15313 H 1427.73 -1.29813 4.61178 0
M  V30 15314 H 1426.09 -0.782758 2.42374 0
M  V30 15315 H 1426.88 0.586279 3.38257 0
M  V30 15316 N 1429.32 -1.56304 -0.201686 0
M  V30 15317 C 1430.26 -1.8907 -1.27781 0
M  V30 15318 C 1431.23 -0.75009 -1.44265 0
M  V30 15319 O 1432.42 -1.00044 -1.59761 0
M  V30 15320 C 1429.54 -2.11513 -2.64537 0
M  V30 15321 C 1428.59 -3.34214 -2.64959 0
M  V30 15322 S 1429.42 -4.89541 -2.17047 0
M  V30 15323 C 1430.58 -5.15044 -3.55641 0
M  V30 15324 H 1430.81 -2.8005 -0.997971 0
M  V30 15325 H 1428.35 -1.48997 -0.404872 0
M  V30 15326 H 1430.3 -2.25126 -3.43262 0
M  V30 15327 H 1428.96 -1.21295 -2.89735 0
M  V30 15328 H 1428.16 -3.47023 -3.65501 0
M  V30 15329 H 1427.76 -3.1956 -1.94312 0
M  V30 15330 H 1430.05 -5.05161 -4.51463 0
M  V30 15331 H 1430.99 -6.16838 -3.47731 0
M  V30 15332 H 1431.4 -4.42704 -3.50248 0
M  V30 15333 N 1430.8 0.469154 -1.50455 0
M  V30 15334 C 1432.21 1.04997 -1.54378 0
M  V30 15335 C 1432.56 1.93082 -0.348414 0
M  V30 15336 O 1431.69 2.09594 0.538469 0
M  V30 15337 C 1432.28 1.91096 -2.79764 0
M  V30 15338 C 1430.84 2.44283 -2.86361 0
M  V30 15339 C 1429.99 1.22676 -2.48688 0
M  V30 15340 H 1432.94 0.251692 -1.56691 0
M  V30 15341 H 1432.96 2.76186 -2.61728 0
M  V30 15342 H 1432.47 1.26961 -3.66746 0
M  V30 15343 H 1430.57 3.11966 -2.03735 0
M  V30 15344 H 1430.69 2.79258 -3.89297 0
M  V30 15345 H 1429.05 1.56215 -2.01169 0
M  V30 15346 H 1429.83 0.602002 -3.37981 0
M  V30 15347 N 1432.28 1.40065 0.722464 0
M  V30 15348 C 1433.52 1.39414 1.49476 0
M  V30 15349 C 1433.88 -0.00655879 1.91999 0
M  V30 15350 O 1435.08 -0.138145 2.68445 0
M  V30 15351 C 1433.35 2.35014 2.69264 0
M  V30 15352 S 1434.91 2.52662 3.58758 0
M  V30 15353 H 1431.73 0.494229 0.511135 0
M  V30 15354 H 1434.33 1.76274 0.845447 0
M  V30 15355 H 1433.04 3.35627 2.36184 0
M  V30 15356 H 1432.57 1.99414 3.39113 0
M  V30 15357 H 1434.58 1.77389 4.63409 0
M  V30 15358 N 1433.76 -0.95397 1.25448 0
M  V30 15359 C 1435.17 -1.22516 1.02284 0
M  V30 15360 C 1435.37 -1.99816 -0.259933 0
M  V30 15361 O 1434.43 -2.33022 -0.972479 0
M  V30 15362 C 1435.74 -1.9989 2.24643 0
M  V30 15363 C 1437.29 -2.1293 2.29412 0
M  V30 15364 C 1437.77 -2.93703 3.51429 0
M  V30 15365 N 1439.26 -3.01281 3.51829 0
M  V30 15366 C 1439.99 -3.64174 4.42905 0
M  V30 15367 N 1439.49 -4.28673 5.44253 0
M  V30 15368 N 1441.28 -3.61321 4.30585 0
M  V30 15369 H 1433.43 -0.436859 2.07859 0
M  V30 15370 H 1435.69 -0.255744 0.912852 0
M  V30 15371 H 1435.4 -1.50489 3.17877 0
M  V30 15372 H 1435.27 -3.00593 2.27868 0
M  V30 15373 H 1437.66 -2.61528 1.367 0
M  V30 15374 H 1437.74 -1.1153 2.30206 0
M  V30 15375 H 1437.39 -2.45795 4.44463 0
M  V30 15376 H 1437.32 -3.95331 3.47881 0
M  V30 15377 H 1439.81 -2.55414 2.78517 0
M  V30 15378 H 1440.12 -4.74522 6.09958 0
M  V30 15379 H 1438.47 -4.27299 5.48125 0
M  V30 15380 H 1441.66 -3.10118 3.50634 0
M  V30 15381 H 1441.83 -4.1005 5.0176 0
M  V30 15382 N 1435.24 -1.07045 -1.15668 0
M  V30 15383 C 1436.65 -0.814932 -1.67975 0
M  V30 15384 C 1437 0.660408 -1.84751 0
M  V30 15385 O 1436.12 1.51156 -1.54857 0
M  V30 15386 C 1436.72 -1.47274 -3.05116 0
M  V30 15387 C 1435.28 -1.26481 -3.54513 0
M  V30 15388 C 1434.42 -1.54439 -2.30312 0
M  V30 15389 H 1437.37 -1.23291 -0.999251 0
M  V30 15390 H 1437.4 -0.892244 -3.69891 0
M  V30 15391 H 1436.91 -2.54649 -2.92874 0
M  V30 15392 H 1435.01 -0.211138 -3.72001 0
M  V30 15393 H 1435.12 -1.98283 -4.36143 0
M  V30 15394 H 1433.49 -0.965269 -2.357 0
M  V30 15395 H 1434.27 -2.6299 -2.20661 0
M  V30 15396 N 1436.71 1.32449 -0.85411 0
M  V30 15397 C 1437.94 2.01171 -0.470505 0
M  V30 15398 C 1438.35 1.64356 0.937218 0
M  V30 15399 O 1437.69 0.860565 1.62296 0
M  V30 15400 C 1437.76 3.55583 -0.529241 0
M  V30 15401 C 1437.42 4.15824 -1.89576 0
M  V30 15402 C 1438.42 4.34091 -2.86114 0
M  V30 15403 C 1436.1 4.51911 -2.19276 0
M  V30 15404 C 1438.1 4.87612 -4.10504 0
M  V30 15405 C 1435.78 5.05137 -3.43919 0
M  V30 15406 C 1436.78 5.22936 -4.39349 0
M  V30 15407 O 1436.47 5.75024 -5.61785 0
M  V30 15408 H 1436.2 0.650645 -0.183405 0
M  V30 15409 H 1438.76 1.70015 -1.15257 0
M  V30 15410 H 1436.99 3.86131 0.209671 0
M  V30 15411 H 1438.67 4.05579 -0.161315 0
M  V30 15412 H 1439.44 4.06545 -2.64473 0
M  V30 15413 H 1435.32 4.37343 -1.45782 0
M  V30 15414 H 1438.86 5.0142 -4.84999 0
M  V30 15415 H 1434.76 5.32114 -3.6541 0
M  V30 15416 H 1435.53 5.93418 -5.63736 0
M  V30 15417 N 1438.19 0.611994 1.45232 0
M  V30 15418 C 1439.1 -0.105981 2.3436 0
M  V30 15419 C 1440.12 -0.855785 1.515 0
M  V30 15420 O 1441.29 -0.812376 1.84289 0
M  V30 15421 C 1438.36 -1.08794 3.29188 0
M  V30 15422 C 1437.42 -0.339611 4.27955 0
M  V30 15423 C 1436.65 -1.27479 5.18252 0
M  V30 15424 O 1436.88 -2.51279 5.12069 0
M  V30 15425 O 1435.81 -0.769469 5.96961 0
M  V30 15426 H 1439.64 0.626584 2.97166 0
M  V30 15427 H 1437.22 0.37224 1.44688 0
M  V30 15428 H 1439.1 -1.65338 3.8761 0
M  V30 15429 H 1437.78 -1.80145 2.68941 0
M  V30 15430 H 1436.68 0.268408 3.73136 0
M  V30 15431 H 1438.02 0.333501 4.91069 0
M  V30 15432 N 1439.67 -1.53632 0.351409 0
M  V30 15433 C 1440.92 -2.00222 -0.243731 0
M  V30 15434 C 1441.23 -1.24305 -1.51022 0
M  V30 15435 O 1442.44 -1.61411 -2.18309 0
M  V30 15436 C 1440.89 -3.56619 -0.48487 0
M  V30 15437 C 1440.5 -4.414 0.766173 0
M  V30 15438 C 1442.25 -4.11603 -1.03844 0
M  V30 15439 C 1440.15 -5.89321 0.4954 0
M  V30 15440 H 1439.08 -0.74801 -0.0948534 0
M  V30 15441 H 1441.73 -1.77433 0.467957 0
M  V30 15442 H 1440.12 -3.75505 -1.25746 0
M  V30 15443 H 1441.29 -4.34288 1.54047 0
M  V30 15444 H 1439.6 -3.97448 1.24194 0
M  V30 15445 H 1442.2 -5.19736 -1.25611 0
M  V30 15446 H 1442.54 -3.65311 -1.99634 0
M  V30 15447 H 1443.08 -3.96459 -0.326363 0
M  V30 15448 H 1439.82 -6.39863 1.42324 0
M  V30 15449 H 1439.34 -5.99317 -0.240662 0
M  V30 15450 H 1441.02 -6.46897 0.115584 0
M  V30 15451 N 1441.15 -0.0802183 -1.57396 0
M  V30 15452 C 1442.4 0.586573 -1.92982 0
M  V30 15453 C 1442.71 1.70256 -0.962918 0
M  V30 15454 O 1443.92 2.4295 -1.21193 0
M  V30 15455 C 1442.37 1.09475 -3.42846 0
M  V30 15456 C 1441.98 0.0093098 -4.47999 0
M  V30 15457 C 1443.72 1.73512 -3.87419 0
M  V30 15458 C 1441.63 0.532002 -5.89002 0
M  V30 15459 H 1440.56 0.222878 -0.720306 0
M  V30 15460 H 1443.21 -0.153816 -1.82854 0
M  V30 15461 H 1441.59 1.88836 -3.48076 0
M  V30 15462 H 1442.77 -0.765609 -4.54395 0
M  V30 15463 H 1441.08 -0.535345 -4.12944 0
M  V30 15464 H 1443.68 2.13665 -4.90154 0
M  V30 15465 H 1444.02 2.59845 -3.25248 0
M  V30 15466 H 1444.56 1.00758 -3.84828 0
M  V30 15467 H 1441.29 -0.294364 -6.54839 0
M  V30 15468 H 1440.81 1.27425 -5.86108 0
M  V30 15469 H 1442.49 1.00573 -6.39135 0
M  V30 15470 N 1442.63 1.56409 0.193394 0
M  V30 15471 C 1443.85 1.8519 0.933775 0
M  V30 15472 C 1444.28 0.663991 1.75991 0
M  V30 15473 O 1443.63 -0.387198 1.77117 0
M  V30 15474 C 1443.68 3.12212 1.80432 0
M  V30 15475 O 1442.79 2.92884 2.90332 0
M  V30 15476 H 1442.13 0.609754 0.262862 0
M  V30 15477 H 1444.66 2.03638 0.198195 0
M  V30 15478 H 1444.67 3.4305 2.20864 0
M  V30 15479 H 1443.34 3.98292 1.19733 0
M  V30 15480 H 1441.92 2.73349 2.53643 0
M  V30 15481 N 1444.1 -0.461169 1.50702 0
M  V30 15482 C 1445.33 -1.24019 1.66235 0
M  V30 15483 C 1445.75 -1.84827 0.349388 0
M  V30 15484 O 1445.11 -1.67743 -0.687888 0
M  V30 15485 C 1445.16 -2.31743 2.76274 0
M  V30 15486 O 1444.26 -3.3664 2.38217 0
M  V30 15487 H 1443.6 -0.364424 0.55506 0
M  V30 15488 H 1446.13 -0.547636 1.97135 0
M  V30 15489 H 1446.14 -2.76902 2.99649 0
M  V30 15490 H 1444.82 -1.86858 3.7156 0
M  V30 15491 H 1443.4 -2.97123 2.25327 0
M  V30 15492 N 1445.58 -1.40446 -0.715026 0
M  V30 15493 C 1446.49 -1.43074 -1.85922 0
M  V30 15494 C 1447.51 -0.323294 -1.7097 0
M  V30 15495 O 1448.68 -0.567966 -1.93226 0
M  V30 15496 C 1445.75 -1.29206 -3.21725 0
M  V30 15497 C 1444.81 -2.50097 -3.48927 0
M  V30 15498 C 1444.04 -2.36881 -4.7825 0
M  V30 15499 O 1444.27 -1.38292 -5.53382 0
M  V30 15500 O 1443.2 -3.26266 -5.058 0
M  V30 15501 H 1447.03 -2.39565 -1.86661 0
M  V30 15502 H 1444.61 -1.21775 -0.865522 0
M  V30 15503 H 1446.49 -1.23681 -4.02841 0
M  V30 15504 H 1445.17 -0.358207 -3.21712 0
M  V30 15505 H 1444.07 -2.61199 -2.67817 0
M  V30 15506 H 1445.41 -3.42244 -3.53737 0
M  V30 15507 N 1447.06 0.947303 -1.25952 0
M  V30 15508 C 1448.31 1.68945 -1.10915 0
M  V30 15509 C 1448.63 1.91848 0.349216 0
M  V30 15510 O 1447.9 1.5108 1.24706 0
M  V30 15511 H 1446.48 0.626086 -0.407462 0
M  V30 15512 H 1449.14 1.13854 -1.58187 0
M  V30 15513 H 1448.24 2.6657 -1.62317 0
M  V30 15514 N 1448.54 1.07657 1.15099 0
M  V30 15515 C 1449.95 0.823828 1.67541 0
M  V30 15516 C 1450.3 -0.650601 1.85099 0
M  V30 15517 O 1449.43 -1.50333 1.55657 0
M  V30 15518 C 1450.02 1.4889 3.04331 0
M  V30 15519 C 1448.58 1.28359 3.53837 0
M  V30 15520 C 1447.73 1.55659 2.2949 0
M  V30 15521 H 1450.68 1.23819 0.992699 0
M  V30 15522 H 1450.7 0.911848 3.69412 0
M  V30 15523 H 1450.21 2.56199 2.9152 0
M  V30 15524 H 1448.31 0.230864 3.71884 0
M  V30 15525 H 1448.42 2.00593 4.35085 0
M  V30 15526 H 1446.79 0.977755 2.35185 0
M  V30 15527 H 1447.57 2.64157 2.19263 0
M  V30 15528 N 1450.02 -1.31994 0.861122 0
M  V30 15529 C 1451.26 -1.97317 0.468371 0
M  V30 15530 C 1451.6 -1.67954 -0.974941 0
M  V30 15531 O 1450.87 -0.971243 -1.68514 0
M  V30 15532 C 1451.15 -3.52918 0.715607 0
M  V30 15533 C 1451.01 -3.91888 2.20781 0
M  V30 15534 C 1452.33 -4.39747 0.17624 0
M  V30 15535 H 1449.44 -0.716733 0.171646 0
M  V30 15536 H 1452.09 -1.56269 1.08074 0
M  V30 15537 H 1450.24 -3.88013 0.194387 0
M  V30 15538 H 1451.91 -3.66938 2.7956 0
M  V30 15539 H 1450.15 -3.40813 2.68382 0
M  V30 15540 H 1450.82 -5.00346 2.33147 0
M  V30 15541 H 1453.3 -4.11424 0.622043 0
M  V30 15542 H 1452.17 -5.47592 0.378748 0
M  V30 15543 H 1452.44 -4.32393 -0.921358 0
M  V30 15544 N 1451.49 -0.619688 -1.44906 0
M  V30 15545 C 1452.4 0.0935512 -2.34413 0
M  V30 15546 C 1453.42 0.847738 -1.51952 0
M  V30 15547 O 1454.6 0.802591 -1.84717 0
M  V30 15548 C 1451.66 1.07047 -3.2976 0
M  V30 15549 C 1450.72 0.31691 -4.28129 0
M  V30 15550 C 1449.96 1.24729 -5.1892 0
M  V30 15551 O 1450.18 2.4856 -5.13395 0
M  V30 15552 O 1449.11 0.737799 -5.97361 0
M  V30 15553 H 1452.94 -0.642335 -2.96829 0
M  V30 15554 H 1450.52 -0.379908 -1.44489 0
M  V30 15555 H 1452.41 1.63281 -3.88481 0
M  V30 15556 H 1451.08 1.78717 -2.69893 0
M  V30 15557 H 1449.99 -0.288192 -3.72988 0
M  V30 15558 H 1451.32 -0.359539 -4.90885 0
M  V30 15559 N 1452.97 1.53444 -0.359552 0
M  V30 15560 C 1453.92 2.25544 0.48977 0
M  V30 15561 C 1454.89 1.25982 1.08248 0
M  V30 15562 O 1456.07 1.54751 1.1161 0
M  V30 15563 C 1453.21 3.04358 1.62666 0
M  V30 15564 C 1452.33 4.18801 1.0597 0
M  V30 15565 C 1451.46 4.85069 2.1652 0
M  V30 15566 C 1450.5 5.91554 1.57259 0
M  V30 15567 N 1449.64 6.51537 2.61617 0
M  V30 15568 H 1454.48 2.97709 -0.13158 0
M  V30 15569 H 1452.02 1.469 -0.0767056 0
M  V30 15570 H 1453.97 3.48324 2.29623 0
M  V30 15571 H 1452.6 2.34459 2.21876 0
M  V30 15572 H 1451.66 3.79364 0.280599 0
M  V30 15573 H 1452.97 4.95341 0.586383 0
M  V30 15574 H 1452.12 5.32187 2.9131 0
M  V30 15575 H 1450.86 4.07988 2.67202 0
M  V30 15576 H 1449.87 5.43803 0.809818 0
M  V30 15577 H 1451.09 6.70552 1.07409 0
M  V30 15578 H 1449.04 5.77312 3.11523 0
M  V30 15579 H 1448.95 7.23599 2.18954 0
M  V30 15580 H 1450.22 7.03306 3.36127 0
M  V30 15581 N 1454.45 0.0885642 1.57351 0
M  V30 15582 C 1455.68 -0.585238 1.9845 0
M  V30 15583 C 1456.09 -1.62127 0.967483 0
M  V30 15584 O 1455.45 -1.82448 -0.0437565 0
M  V30 15585 C 1455.5 -1.23881 3.39611 0
M  V30 15586 O 1455.22 -0.244223 4.37419 0
M  V30 15587 C 1456.72 -1.99885 3.95678 0
M  V30 15588 H 1453.94 -0.157396 0.652279 0
M  V30 15589 H 1456.49 0.165923 2.03826 0
M  V30 15590 H 1454.64 -1.94094 3.3527 0
M  V30 15591 H 1455.06 -0.715149 5.19602 0
M  V30 15592 H 1456.53 -2.40983 4.9662 0
M  V30 15593 H 1457.01 -2.8621 3.33137 0
M  V30 15594 H 1457.61 -1.34501 4.03472 0
M  V30 15595 N 1455.93 -1.56509 -0.185096 0
M  V30 15596 C 1456.89 -1.94468 -1.21305 0
M  V30 15597 C 1457.89 -0.826838 -1.37913 0
M  V30 15598 O 1459.08 -1.09411 -1.35554 0
M  V30 15599 C 1456.21 -2.22747 -2.58063 0
M  V30 15600 H 1457.41 -2.86442 -0.888323 0
M  V30 15601 H 1454.96 -1.50354 -0.427012 0
M  V30 15602 H 1455.69 -1.33443 -2.95573 0
M  V30 15603 H 1455.48 -3.04215 -2.47378 0
M  V30 15604 H 1456.97 -2.53084 -3.32172 0
M  V30 15605 N 1457.41 0.45317 -1.50944 0
M  V30 15606 C 1458.65 1.21354 -1.64476 0
M  V30 15607 C 1459.01 1.88859 -0.345879 0
M  V30 15608 O 1460.21 2.66421 -0.356808 0
M  V30 15609 C 1458.48 2.21565 -2.80435 0
M  V30 15610 S 1460.04 3.06302 -3.14205 0
M  V30 15611 H 1456.86 0.411762 -0.579632 0
M  V30 15612 H 1459.46 0.50762 -1.88795 0
M  V30 15613 H 1458.17 1.70585 -3.73268 0
M  V30 15614 H 1457.7 2.96761 -2.58257 0
M  V30 15615 H 1459.71 4.22988 -2.59414 0
M  V30 15616 N 1458.88 1.40823 0.707568 0
M  V30 15617 C 1460.11 1.42866 1.49656 0
M  V30 15618 C 1460.53 0.0305663 1.88775 0
M  V30 15619 O 1459.88 -0.947376 1.55984 0
M  V30 15620 C 1459.94 2.32661 2.76679 0
M  V30 15621 O 1459.66 3.67028 2.39211 0
M  V30 15622 C 1461.16 2.4338 3.70514 0
M  V30 15623 H 1458.38 0.487009 0.461588 0
M  V30 15624 H 1460.92 1.84969 0.872167 0
M  V30 15625 H 1459.08 1.93898 3.35384 0
M  V30 15626 H 1459.49 4.14799 3.21002 0
M  V30 15627 H 1460.96 3.10401 4.56459 0
M  V30 15628 H 1461.44 1.46132 4.14176 0
M  V30 15629 H 1462.05 2.82728 3.17718 0
M  V30 15630 N 1460.36 -0.94061 1.26453 0
M  V30 15631 C 1461.61 -1.68687 1.12031 0
M  V30 15632 C 1461.94 -1.91571 -0.336252 0
M  V30 15633 O 1461.19 -1.49458 -1.26336 0
M  V30 15634 C 1461.49 -3.06683 1.83521 0
M  V30 15635 C 1461.16 -3.03553 3.33416 0
M  V30 15636 C 1459.82 -3.02407 3.74304 0
M  V30 15637 C 1462.17 -2.95817 4.29118 0
M  V30 15638 C 1459.5 -2.9129 5.09281 0
M  V30 15639 C 1461.85 -2.86242 5.64135 0
M  V30 15640 C 1460.52 -2.83438 6.04333 0
M  V30 15641 H 1459.79 -0.61727 0.40995 0
M  V30 15642 H 1462.43 -1.0979 1.56902 0
M  V30 15643 H 1460.74 -3.69208 1.31121 0
M  V30 15644 H 1462.43 -3.63274 1.69802 0
M  V30 15645 H 1459.02 -3.05226 3.00891 0
M  V30 15646 H 1463.21 -2.9581 3.9851 0
M  V30 15647 H 1458.46 -2.87498 5.39588 0
M  V30 15648 H 1462.64 -2.79219 6.37973 0
M  V30 15649 H 1460.27 -2.74581 7.08879 0
M  V30 15650 N 1461.84 -1.08266 -1.14527 0
M  V30 15651 C 1462.79 -0.705807 -2.21633 0
M  V30 15652 C 1463.78 0.287758 -1.66938 0
M  V30 15653 O 1464.99 0.150479 -1.7937 0
M  V30 15654 H 1461.36 -0.210206 -0.722023 0
M  V30 15655 H 1463.33 -1.61855 -2.5069 0
M  V30 15656 C 1462.08 -0.129673 -3.47458 0
M  V30 15657 H 1461.41 -0.885365 -3.89873 0
M  V30 15658 H 1462.85 0.0962264 -4.23891 0
M  V30 15659 C 1461.31 1.13208 -3.1731 0
M  V30 15660 O 1461.84 2.21717 -3.34969 0
M  V30 15661 N 1460.04 1.0419 -2.7128 0
M  V30 15662 H 1459.59 0.15883 -2.5711 0
M  V30 15663 H 1459.55 1.88689 -2.51483 0
M  V30 15664 N 1463.32 1.31536 -0.86811 0
M  V30 15665 C 1464.55 2.00661 -0.491815 0
M  V30 15666 C 1464.96 1.65341 0.919733 0
M  V30 15667 O 1464.3 0.87773 1.61374 0
M  V30 15668 C 1464.36 3.55002 -0.566926 0
M  V30 15669 C 1464.03 4.1379 -1.93976 0
M  V30 15670 C 1465.02 4.31032 -2.90702 0
M  V30 15671 C 1462.71 4.4956 -2.24056 0
M  V30 15672 C 1464.7 4.8323 -4.15653 0
M  V30 15673 C 1462.39 5.01461 -3.49257 0
M  V30 15674 C 1463.39 5.18246 -4.44871 0
M  V30 15675 O 1463.08 5.69033 -5.67852 0
M  V30 15676 H 1462.81 0.648663 -0.190296 0
M  V30 15677 H 1465.36 1.68783 -1.17053 0
M  V30 15678 H 1463.59 3.86332 0.168704 0
M  V30 15679 H 1465.28 4.05385 -0.204323 0
M  V30 15680 H 1466.05 4.03717 -2.6877 0
M  V30 15681 H 1461.93 4.35772 -1.50412 0
M  V30 15682 H 1465.47 4.96247 -4.9029 0
M  V30 15683 H 1461.37 5.28209 -3.71033 0
M  V30 15684 H 1462.13 5.87405 -5.69998 0
M  V30 15685 N 1464.8 0.627364 1.44575 0
M  V30 15686 C 1466.03 0.137313 2.06444 0
M  V30 15687 C 1466.44 -1.18655 1.46855 0
M  V30 15688 O 1465.8 -1.72699 0.590018 0
M  V30 15689 C 1465.85 0.0123481 3.61498 0
M  V30 15690 O 1465.57 1.28385 4.18866 0
M  V30 15691 C 1467.07 -0.506841 4.40393 0
M  V30 15692 H 1464.29 0.0779387 0.666458 0
M  V30 15693 H 1466.83 0.860701 1.85505 0
M  V30 15694 H 1464.99 -0.66146 3.81711 0
M  V30 15695 H 1465.4 1.12626 5.12265 0
M  V30 15696 H 1466.88 -0.543304 5.4932 0
M  V30 15697 H 1467.35 -1.53314 4.11572 0
M  V30 15698 H 1467.96 0.133589 4.2509 0
M  V30 15699 N 1466.28 -1.53251 0.367684 0
M  V30 15700 C 1467.22 -2.258 -0.477802 0
M  V30 15701 C 1468.19 -1.26554 -1.07579 0
M  V30 15702 O 1469.38 -1.5534 -1.10788 0
M  V30 15703 C 1466.52 -3.05216 -1.6105 0
M  V30 15704 C 1465.63 -4.19357 -1.03748 0
M  V30 15705 C 1464.77 -4.86211 -2.13945 0
M  V30 15706 C 1463.8 -5.9238 -1.5412 0
M  V30 15707 N 1462.94 -6.52916 -2.58158 0
M  V30 15708 H 1467.78 -2.97635 0.147367 0
M  V30 15709 H 1465.32 -1.46857 0.084495 0
M  V30 15710 H 1467.28 -3.49536 -2.27772 0
M  V30 15711 H 1465.91 -2.35632 -2.20629 0
M  V30 15712 H 1464.96 -3.79507 -0.260476 0
M  V30 15713 H 1466.27 -4.95645 -0.560105 0
M  V30 15714 H 1465.42 -5.33725 -2.88483 0
M  V30 15715 H 1464.16 -4.09399 -2.65035 0
M  V30 15716 H 1463.17 -5.44225 -0.780968 0
M  V30 15717 H 1464.39 -6.71112 -1.03852 0
M  V30 15718 H 1462.34 -5.78956 -3.08457 0
M  V30 15719 H 1462.26 -7.2475 -2.15113 0
M  V30 15720 H 1463.52 -7.05079 -3.32392 0
M  V30 15721 N 1467.75 -0.0969077 -1.57302 0
M  V30 15722 C 1468.98 0.574705 -1.98758 0
M  V30 15723 C 1469.4 1.61612 -0.976067 0
M  V30 15724 O 1468.75 1.82468 0.0340803 0
M  V30 15725 C 1468.8 1.22078 -3.40263 0
M  V30 15726 O 1468.53 0.221022 -4.37542 0
M  V30 15727 C 1470.03 1.97783 -3.96732 0
M  V30 15728 H 1467.25 0.153934 -0.653104 0
M  V30 15729 H 1469.79 -0.17673 -2.03735 0
M  V30 15730 H 1467.95 1.92314 -3.36295 0
M  V30 15731 H 1468.36 0.687583 -5.19974 0
M  V30 15732 H 1469.83 2.38346 -4.97891 0
M  V30 15733 H 1470.31 2.8444 -3.3465 0
M  V30 15734 H 1470.92 1.3236 -4.04179 0
M  V30 15735 N 1469.23 1.56605 0.176793 0
M  V30 15736 C 1470.16 1.99014 1.2213 0
M  V30 15737 C 1471.14 0.86487 1.46472 0
M  V30 15738 O 1472.33 1.13055 1.57899 0
M  V30 15739 C 1469.46 2.34534 2.56146 0
M  V30 15740 C 1468.41 3.4997 2.46384 0
M  V30 15741 C 1467.74 3.71217 3.8484 0
M  V30 15742 C 1469.04 4.83592 1.97323 0
M  V30 15743 H 1470.73 2.86517 0.8688 0
M  V30 15744 H 1468.28 1.37846 0.416481 0
M  V30 15745 H 1470.23 2.62799 3.29416 0
M  V30 15746 H 1468.95 1.43933 2.93174 0
M  V30 15747 H 1467.61 3.21824 1.75569 0
M  V30 15748 H 1467.26 2.77916 4.19251 0
M  V30 15749 H 1466.96 4.48885 3.79178 0
M  V30 15750 H 1468.49 4.01877 4.59704 0
M  V30 15751 H 1469.9 5.10768 2.60363 0
M  V30 15752 H 1468.3 5.64858 2.02622 0
M  V30 15753 H 1469.37 4.75951 0.927275 0
M  V30 15754 N 1470.71 -0.445159 1.51182 0
M  V30 15755 C 1471.66 -1.53975 1.71931 0
M  V30 15756 C 1472.63 -1.56344 0.560865 0
M  V30 15757 O 1473.81 -1.73475 0.794414 0
M  V30 15758 C 1470.95 -2.91756 1.84316 0
M  V30 15759 C 1470.06 -2.98976 3.11829 0
M  V30 15760 C 1469.2 -4.27831 3.14855 0
M  V30 15761 C 1468.24 -4.2889 4.36715 0
M  V30 15762 N 1467.38 -5.49257 4.37334 0
M  V30 15763 H 1472.22 -1.35586 2.65368 0
M  V30 15764 H 1469.75 -0.658787 1.31523 0
M  V30 15765 H 1471.71 -3.7169 1.89479 0
M  V30 15766 H 1470.34 -3.08721 0.942947 0
M  V30 15767 H 1469.39 -2.11753 3.16014 0
M  V30 15768 H 1470.7 -2.95619 4.01759 0
M  V30 15769 H 1469.86 -5.16134 3.1889 0
M  V30 15770 H 1468.6 -4.33833 2.228 0
M  V30 15771 H 1467.6 -3.38982 4.32864 0
M  V30 15772 H 1468.83 -4.24558 5.30026 0
M  V30 15773 H 1466.77 -5.55995 3.48145 0
M  V30 15774 H 1466.69 -5.47748 5.21064 0
M  V30 15775 H 1467.96 -6.39613 4.45551 0
M  V30 15776 N 1472.19 -1.41197 -0.700089 0
M  V30 15777 C 1473.14 -1.42885 -1.83539 0
M  V30 15778 C 1474.13 -0.307431 -1.66587 0
M  V30 15779 O 1475.34 -0.479238 -1.73503 0
M  V30 15780 H 1471.71 -0.446973 -0.604747 0
M  V30 15781 H 1473.68 -2.38576 -1.79231 0
M  V30 15782 C 1472.43 -1.3235 -3.21526 0
M  V30 15783 H 1471.75 -2.17926 -3.35184 0
M  V30 15784 H 1473.19 -1.37592 -4.01054 0
M  V30 15785 C 1471.65 -0.0353528 -3.36881 0
M  V30 15786 O 1472.18 0.921676 -3.90983 0
M  V30 15787 N 1470.39 0.0392479 -2.90573 0
M  V30 15788 H 1469.94 -0.740299 -2.46733 0
M  V30 15789 H 1469.89 0.900559 -3.01226 0
M  V30 15790 N 1473.67 0.933891 -1.2695 0
M  V30 15791 C 1474.61 2.03365 -1.09139 0
M  V30 15792 C 1475.58 1.66099 0.00573029 0
M  V30 15793 O 1476.77 1.90166 -0.155425 0
M  V30 15794 C 1473.91 3.37114 -0.738117 0
M  V30 15795 C 1473.02 3.87372 -1.91224 0
M  V30 15796 C 1472.16 5.0954 -1.50141 0
M  V30 15797 C 1471.19 5.52079 -2.64339 0
M  V30 15798 N 1470.33 6.65446 -2.23887 0
M  V30 15799 H 1475.17 2.17932 -2.03248 0
M  V30 15800 H 1472.71 1.0677 -1.01186 0
M  V30 15801 H 1474.67 4.1402 -0.514141 0
M  V30 15802 H 1473.3 3.22373 0.166007 0
M  V30 15803 H 1472.35 3.06801 -2.24894 0
M  V30 15804 H 1473.66 4.14875 -2.76912 0
M  V30 15805 H 1472.81 5.93928 -1.23831 0
M  V30 15806 H 1471.55 4.838 -0.615539 0
M  V30 15807 H 1470.56 4.66244 -2.9137 0
M  V30 15808 H 1471.78 5.79817 -3.53537 0
M  V30 15809 H 1469.73 6.41376 -1.37744 0
M  V30 15810 H 1469.65 6.92573 -3.03116 0
M  V30 15811 H 1470.91 7.53191 -2.00809 0
M  V30 15812 N 1475.14 1.08871 1.13951 0
M  V30 15813 C 1476.37 0.841691 1.88677 0
M  V30 15814 C 1476.78 -0.610213 1.79089 0
M  V30 15815 O 1476.12 -1.4314 1.15138 0
M  V30 15816 C 1476.19 1.19077 3.39206 0
M  V30 15817 C 1475.85 2.64642 3.72577 0
M  V30 15818 C 1476.85 3.62892 3.72297 0
M  V30 15819 C 1474.53 3.00618 4.0241 0
M  V30 15820 C 1476.53 4.95148 4.01382 0
M  V30 15821 C 1474.21 4.33066 4.31158 0
M  V30 15822 C 1475.21 5.3014 4.30628 0
M  V30 15823 O 1474.9 6.60207 4.58675 0
M  V30 15824 H 1474.63 0.302896 0.604343 0
M  V30 15825 H 1477.19 1.4527 1.45209 0
M  V30 15826 H 1475.42 0.522784 3.8315 0
M  V30 15827 H 1477.1 0.923805 3.95248 0
M  V30 15828 H 1477.87 3.36442 3.4933 0
M  V30 15829 H 1473.75 2.25696 4.01973 0
M  V30 15830 H 1477.29 5.7091 4.00884 0
M  V30 15831 H 1473.19 4.59262 4.53595 0
M  V30 15832 H 1473.96 6.65593 4.7637 0
M  V30 15833 N 1476.62 -1.31073 0.875073 0
M  V30 15834 C 1477.87 -1.96518 0.488549 0
M  V30 15835 C 1478.2 -1.69144 -0.960243 0
M  V30 15836 O 1477.45 -0.983344 -1.69201 0
M  V30 15837 C 1477.75 -3.50511 0.698351 0
M  V30 15838 C 1477.42 -3.97915 2.12071 0
M  V30 15839 C 1476.08 -4.10571 2.50968 0
M  V30 15840 C 1478.43 -4.22777 3.0481 0
M  V30 15841 C 1475.76 -4.45442 3.81836 0
M  V30 15842 C 1478.11 -4.59114 4.35198 0
M  V30 15843 C 1476.77 -4.69977 4.74002 0
M  V30 15844 H 1476.04 -0.719111 0.178773 0
M  V30 15845 H 1478.69 -1.56117 1.10904 0
M  V30 15846 H 1477 -3.918 -0.00523937 0
M  V30 15847 H 1478.69 -3.99205 0.379031 0
M  V30 15848 H 1475.28 -3.88565 1.80874 0
M  V30 15849 H 1479.47 -4.12489 2.75983 0
M  V30 15850 H 1474.72 -4.52051 4.11655 0
M  V30 15851 H 1478.9 -4.77303 5.07105 0
M  V30 15852 H 1476.52 -4.96753 5.75448 0
M  V30 15853 N 1478.1 -0.635022 -1.4424 0
M  V30 15854 C 1479.01 0.0686832 -2.34499 0
M  V30 15855 C 1480.03 0.831574 -1.52843 0
M  V30 15856 O 1481.2 0.782954 -1.85558 0
M  V30 15857 C 1478.27 1.03543 -3.30877 0
M  V30 15858 C 1477.33 0.271484 -4.28441 0
M  V30 15859 C 1476.56 1.19218 -5.20214 0
M  V30 15860 O 1476.78 2.43101 -5.16002 0
M  V30 15861 O 1475.72 0.6744 -5.9811 0
M  V30 15862 H 1479.54 -0.673781 -2.96132 0
M  V30 15863 H 1477.13 -0.395211 -1.44078 0
M  V30 15864 H 1479.01 1.59151 -3.90191 0
M  V30 15865 H 1477.69 1.75844 -2.71773 0
M  V30 15866 H 1476.59 -0.327736 -3.72662 0
M  V30 15867 H 1477.93 -0.411584 -4.90476 0
M  V30 15868 N 1479.58 1.53054 -0.375806 0
M  V30 15869 C 1480.99 1.86426 0.101188 0
M  V30 15870 C 1481.34 1.29603 1.47301 0
M  V30 15871 O 1480.47 0.622059 2.07266 0
M  V30 15872 C 1481.06 3.38265 0.190389 0
M  V30 15873 C 1479.62 3.71397 0.611653 0
M  V30 15874 C 1478.77 2.76304 -0.234801 0
M  V30 15875 H 1481.72 1.47156 -0.594211 0
M  V30 15876 H 1481.74 3.66793 1.01207 0
M  V30 15877 H 1481.25 3.79592 -0.80818 0
M  V30 15878 H 1479.35 3.35632 1.61808 0
M  V30 15879 H 1479.46 4.77597 0.379168 0
M  V30 15880 H 1477.83 2.52952 0.297888 0
M  V30 15881 H 1478.61 3.20467 -1.2311 0
M  V30 15882 N 1481.06 0.105248 1.57248 0
M  V30 15883 C 1482.47 -0.251385 1.57608 0
M  V30 15884 C 1482.67 -1.677 1.11709 0
M  V30 15885 O 1481.73 -2.39552 0.798182 0
M  V30 15886 C 1483.04 -0.0305755 3.00684 0
M  V30 15887 C 1484.59 -0.0975409 3.12848 0
M  V30 15888 C 1485.06 0.0954024 4.57901 0
M  V30 15889 N 1486.56 0.040908 4.63182 0
M  V30 15890 C 1487.29 0.165298 5.73162 0
M  V30 15891 N 1486.79 0.345091 6.9194 0
M  V30 15892 N 1488.58 0.105847 5.62 0
M  V30 15893 H 1480.73 1.03658 1.85388 0
M  V30 15894 H 1482.99 0.407074 0.856151 0
M  V30 15895 H 1482.7 0.954461 3.38501 0
M  V30 15896 H 1482.57 -0.768477 3.69289 0
M  V30 15897 H 1484.96 -1.07309 2.74898 0
M  V30 15898 H 1485.04 0.672017 2.46815 0
M  V30 15899 H 1484.69 1.06786 4.96547 0
M  V30 15900 H 1484.62 -0.693974 5.22007 0
M  V30 15901 H 1487.11 -0.0951009 3.7778 0
M  V30 15902 H 1487.42 0.431243 7.71596 0
M  V30 15903 H 1485.76 0.38089 6.93955 0
M  V30 15904 H 1488.96 -0.0335544 4.68088 0
M  V30 15905 H 1489.13 0.206235 6.47672 0
M  V30 15906 N 1482.53 -1.56697 -0.168486 0
M  V30 15907 C 1483.81 -1.73032 -0.912097 0
M  V30 15908 C 1484.19 -0.667424 -2.00271 0
M  V30 15909 O 1483.54 0.317307 -2.26286 0
M  V30 15910 C 1483.75 -3.16334 -1.47424 0
M  V30 15911 C 1485.1 -3.77378 -1.94606 0
M  V30 15912 O 1486.12 -3.19629 -1.57212 0
M  V30 15913 O 1484.98 -4.78781 -2.63497 0
M  V30 15914 H 1482.07 -0.706713 -0.429518 0
M  V30 15915 H 1484.62 -1.68981 -0.156093 0
M  V30 15916 H 1483.39 -3.85179 -0.689421 0
M  V30 15917 H 1483.02 -3.24723 -2.29435 0
M  V30 15918 N 1484.01 0.437135 -1.51416 0
M  V30 15919 C 1485.24 1.21359 -1.68187 0
M  V30 15920 C 1485.66 1.84247 -0.378748 0
M  V30 15921 O 1485.02 1.68816 0.661115 0
M  V30 15922 C 1485.07 2.27319 -2.79926 0
M  V30 15923 O 1484.17 3.32807 -2.43543 0
M  V30 15924 H 1483.51 0.355547 -0.560787 0
M  V30 15925 H 1486.04 0.516204 -1.97981 0
M  V30 15926 H 1486.05 2.721 -3.04016 0
M  V30 15927 H 1484.73 1.80923 -3.74486 0
M  V30 15928 H 1483.31 2.93501 -2.30025 0
M  V30 15929 N 1485.49 1.41566 0.692592 0
M  V30 15930 C 1486.72 1.44236 1.47917 0
M  V30 15931 C 1487.13 0.0469112 1.89142 0
M  V30 15932 O 1486.47 -0.944788 1.57542 0
M  V30 15933 C 1486.53 2.29056 2.7708 0
M  V30 15934 C 1486.2 3.77179 2.58041 0
M  V30 15935 C 1487.19 4.69267 2.23795 0
M  V30 15936 C 1484.88 4.21253 2.73589 0
M  V30 15937 C 1486.87 6.03419 2.05338 0
M  V30 15938 C 1484.56 5.55469 2.54749 0
M  V30 15939 C 1485.56 6.46368 2.20675 0
M  V30 15940 O 1485.25 7.78107 2.02002 0
M  V30 15941 H 1484.98 0.493237 0.462269 0
M  V30 15942 H 1487.53 1.8653 0.859984 0
M  V30 15943 H 1485.76 1.8158 3.41417 0
M  V30 15944 H 1487.45 2.23392 3.38897 0
M  V30 15945 H 1488.22 4.36506 2.11395 0
M  V30 15946 H 1484.1 3.50804 2.99094 0
M  V30 15947 H 1487.64 6.74333 1.78665 0
M  V30 15948 H 1483.54 5.87809 2.66741 0
M  V30 15949 H 1484.31 7.89282 2.16741 0
M  V30 15950 N 1486.97 -0.927146 1.27443 0
M  V30 15951 C 1488.22 -1.67489 1.13814 0
M  V30 15952 C 1488.54 -1.91917 -0.315914 0
M  V30 15953 O 1487.8 -1.5079 -1.24743 0
M  V30 15954 C 1488.1 -3.0472 1.86764 0
M  V30 15955 C 1487.76 -3 3.36617 0
M  V30 15956 C 1486.43 -2.9842 3.77491 0
M  V30 15957 C 1488.78 -2.91249 4.32231 0
M  V30 15958 C 1486.11 -2.85872 5.12342 0
M  V30 15959 C 1488.46 -2.80242 5.67139 0
M  V30 15960 C 1487.12 -2.77013 6.07306 0
M  V30 15961 H 1486.39 -0.612887 0.416474 0
M  V30 15962 H 1489.04 -1.0812 1.58058 0
M  V30 15963 H 1487.34 -3.67797 1.35029 0
M  V30 15964 H 1489.04 -3.61453 1.73646 0
M  V30 15965 H 1485.63 -3.02017 3.04111 0
M  V30 15966 H 1489.81 -2.91567 4.01625 0
M  V30 15967 H 1485.07 -2.81758 5.42607 0
M  V30 15968 H 1489.24 -2.72437 6.40899 0
M  V30 15969 H 1486.87 -2.67047 7.11751 0
M  V30 15970 N 1488.45 -1.09474 -1.13372 0
M  V30 15971 C 1489.38 -0.692446 -2.1849 0
M  V30 15972 C 1490.39 0.265942 -1.60613 0
M  V30 15973 O 1491.58 0.0519189 -1.78424 0
M  V30 15974 C 1488.68 0.000306083 -3.389 0
M  V30 15975 C 1487.85 -0.979745 -4.26286 0
M  V30 15976 C 1486.91 -0.320309 -5.25224 0
M  V30 15977 O 1485.94 -0.968089 -5.60907 0
M  V30 15978 N 1487.14 0.92536 -5.73077 0
M  V30 15979 H 1489.91 -1.59681 -2.53618 0
M  V30 15980 H 1487.47 -0.982256 -1.28699 0
M  V30 15981 H 1489.46 0.45268 -4.0216 0
M  V30 15982 H 1488.03 0.806927 -3.02006 0
M  V30 15983 H 1487.25 -1.61067 -3.59793 0
M  V30 15984 H 1488.54 -1.64348 -4.81526 0
M  V30 15985 H 1487.93 1.47119 -5.46235 0
M  V30 15986 H 1486.49 1.32105 -6.38272 0
M  V30 15987 N 1489.92 1.30607 -0.882012 0
M  V30 15988 C 1490.86 2.27177 -0.303861 0
M  V30 15989 C 1491.87 1.53587 0.539898 0
M  V30 15990 O 1493.06 1.74833 0.359931 0
M  V30 15991 C 1490.16 3.33781 0.586828 0
M  V30 15992 C 1489.33 4.3681 -0.227197 0
M  V30 15993 C 1488.39 5.22842 0.593519 0
M  V30 15994 O 1487.42 5.69197 0.0172694 0
M  V30 15995 N 1488.62 5.48414 1.90321 0
M  V30 15996 H 1491.38 2.77426 -1.13378 0
M  V30 15997 H 1488.94 1.43756 -0.744698 0
M  V30 15998 H 1490.94 3.88257 1.14186 0
M  V30 15999 H 1489.51 2.83483 1.31743 0
M  V30 16000 H 1488.73 3.82239 -0.963674 0
M  V30 16001 H 1490.01 5.02703 -0.785315 0
M  V30 16002 H 1489.41 5.1253 2.39435 0
M  V30 16003 H 1487.97 6.05778 2.40575 0
M  V30 16004 N 1491.4 0.642663 1.43901 0
M  V30 16005 C 1492.63 0.158971 2.05987 0
M  V30 16006 C 1493.04 -1.17635 1.48184 0
M  V30 16007 O 1492.38 -1.73499 0.603634 0
M  V30 16008 C 1492.45 -0.0178946 3.59496 0
M  V30 16009 C 1492.11 1.24107 4.39826 0
M  V30 16010 C 1493.11 2.16742 4.72566 0
M  V30 16011 C 1490.79 1.47971 4.8001 0
M  V30 16012 C 1492.79 3.31541 5.44389 0
M  V30 16013 C 1490.47 2.63065 5.5158 0
M  V30 16014 C 1491.47 3.54676 5.8369 0
M  V30 16015 O 1491.16 4.67763 6.53799 0
M  V30 16016 H 1490.89 0.0822826 0.670974 0
M  V30 16017 H 1493.44 0.880492 1.85571 0
M  V30 16018 H 1491.67 -0.79468 3.78446 0
M  V30 16019 H 1493.36 -0.457601 4.03312 0
M  V30 16020 H 1494.13 1.99543 4.42049 0
M  V30 16021 H 1490.01 0.775488 4.54431 0
M  V30 16022 H 1493.55 4.03069 5.69369 0
M  V30 16023 H 1489.45 2.80202 5.81513 0
M  V30 16024 H 1490.22 4.66892 6.72275 0
M  V30 16025 N 1492.88 -1.52852 0.383918 0
M  V30 16026 C 1493.81 -2.22704 -0.497825 0
M  V30 16027 C 1494.79 -1.22573 -1.06839 0
M  V30 16028 O 1495.98 -1.51541 -1.12105 0
M  V30 16029 C 1493.1 -2.93606 -1.68858 0
M  V30 16030 C 1492.15 -4.07962 -1.24376 0
M  V30 16031 S 1492.98 -5.35007 -0.229773 0
M  V30 16032 C 1494.14 -6.09429 -1.42643 0
M  V30 16033 H 1494.37 -2.97147 0.0953535 0
M  V30 16034 H 1491.9 -1.53482 0.168084 0
M  V30 16035 H 1493.86 -3.35067 -2.3715 0
M  V30 16036 H 1492.52 -2.18853 -2.25304 0
M  V30 16037 H 1491.72 -4.56654 -2.13269 0
M  V30 16038 H 1491.32 -3.68486 -0.639823 0
M  V30 16039 H 1493.61 -6.35274 -2.35443 0
M  V30 16040 H 1494.55 -7.01278 -0.980541 0
M  V30 16041 H 1494.96 -5.40128 -1.6408 0
M  V30 16042 N 1494.36 -0.113586 -1.5719 0
M  V30 16043 C 1495.29 0.835363 -2.18046 0
M  V30 16044 C 1496.27 1.28114 -1.11897 0
M  V30 16045 O 1497.46 1.34472 -1.40111 0
M  V30 16046 C 1494.59 2.08759 -2.77556 0
M  V30 16047 C 1493.54 1.77979 -3.8924 0
M  V30 16048 C 1492.87 3.10185 -4.35533 0
M  V30 16049 C 1494.17 1.05231 -5.11589 0
M  V30 16050 H 1495.86 0.328275 -2.97595 0
M  V30 16051 H 1493.41 0.156456 -1.43148 0
M  V30 16052 H 1495.36 2.75597 -3.18785 0
M  V30 16053 H 1494.08 2.61783 -1.95288 0
M  V30 16054 H 1492.74 1.13532 -3.48577 0
M  V30 16055 H 1492.39 3.61133 -3.50131 0
M  V30 16056 H 1492.09 2.90367 -5.10843 0
M  V30 16057 H 1493.61 3.78151 -4.7941 0
M  V30 16058 H 1495.03 1.62213 -5.49872 0
M  V30 16059 H 1493.42 0.955269 -5.92448 0
M  V30 16060 H 1494.49 0.038137 -4.84885 0
M  V30 16061 N 1495.84 1.56784 0.160173 0
M  V30 16062 C 1496.78 1.97267 1.1981 0
M  V30 16063 C 1497.75 0.83824 1.43397 0
M  V30 16064 O 1498.94 1.09926 1.55952 0
M  V30 16065 C 1496.08 2.34725 2.52979 0
M  V30 16066 C 1495.19 3.61397 2.36677 0
M  V30 16067 C 1494.33 3.88018 3.62789 0
M  V30 16068 C 1493.37 5.08002 3.41468 0
M  V30 16069 N 1492.5 5.30699 4.59677 0
M  V30 16070 H 1497.34 2.85743 0.845878 0
M  V30 16071 H 1494.88 1.41379 0.406249 0
M  V30 16072 H 1496.84 2.54468 3.30608 0
M  V30 16073 H 1495.47 1.49345 2.86175 0
M  V30 16074 H 1494.52 3.49505 1.50167 0
M  V30 16075 H 1495.83 4.49185 2.16875 0
M  V30 16076 H 1494.99 4.08188 4.48851 0
M  V30 16077 H 1493.73 2.98627 3.85582 0
M  V30 16078 H 1492.73 4.87718 2.53793 0
M  V30 16079 H 1493.96 5.98934 3.20086 0
M  V30 16080 H 1491.9 4.44261 4.82668 0
M  V30 16081 H 1491.82 6.1273 4.42829 0
M  V30 16082 H 1493.09 5.55357 5.46991 0
M  V30 16083 N 1497.32 -0.429099 1.51646 0
M  V30 16084 C 1498.56 -1.17551 1.64396 0
M  V30 16085 C 1498.88 -1.91526 0.366444 0
M  V30 16086 O 1498.15 -1.85896 -0.618013 0
M  V30 16087 H 1496.73 -0.436918 0.605898 0
M  V30 16088 H 1499.4 -0.491159 1.8861 0
M  V30 16089 H 1498.49 -1.90057 2.47557 0
M  V30 16090 N 1498.79 -1.41931 -0.685074 0
M  V30 16091 C 1499.7 -1.46985 -1.82846 0
M  V30 16092 C 1500.72 -0.359487 -1.70246 0
M  V30 16093 O 1501.9 -0.608824 -1.91977 0
M  V30 16094 C 1498.96 -1.36001 -3.18912 0
M  V30 16095 C 1498.02 -2.57442 -3.43543 0
M  V30 16096 C 1497.25 -2.46972 -4.73118 0
M  V30 16097 O 1497.48 -1.49999 -5.50324 0
M  V30 16098 O 1496.41 -3.36922 -4.98766 0
M  V30 16099 H 1500.24 -2.4347 -1.81538 0
M  V30 16100 H 1497.82 -1.23583 -0.839497 0
M  V30 16101 H 1499.7 -1.32198 -4.00127 0
M  V30 16102 H 1498.38 -0.426366 -3.2088 0
M  V30 16103 H 1497.29 -2.66821 -2.62217 0
M  V30 16104 H 1498.62 -3.49671 -3.46398 0
M  V30 16105 N 1500.27 0.920374 -1.27933 0
M  V30 16106 C 1501.5 1.70028 -1.17363 0
M  V30 16107 C 1501.91 1.87246 0.271214 0
M  V30 16108 O 1501.25 1.39449 1.19581 0
M  V30 16109 C 1501.31 3.11595 -1.79301 0
M  V30 16110 C 1500.98 3.17687 -3.28518 0
M  V30 16111 C 1501.98 2.99383 -4.25048 0
M  V30 16112 C 1499.66 3.40412 -3.69357 0
M  V30 16113 C 1501.65 3.03704 -5.60395 0
M  V30 16114 C 1499.34 3.44367 -5.04832 0
M  V30 16115 C 1500.34 3.26032 -6.0016 0
M  V30 16116 O 1500.03 3.29735 -7.33164 0
M  V30 16117 H 1499.76 0.538497 -0.408652 0
M  V30 16118 H 1502.31 1.16086 -1.6945 0
M  V30 16119 H 1500.54 3.6705 -1.217 0
M  V30 16120 H 1502.23 3.71584 -1.63341 0
M  V30 16121 H 1503 2.8166 -3.94833 0
M  V30 16122 H 1498.88 3.53731 -2.95627 0
M  V30 16123 H 1502.42 2.89312 -6.34779 0
M  V30 16124 H 1498.32 3.61616 -5.347 0
M  V30 16125 H 1499.09 3.46141 -7.41707 0
M  V30 16126 N 1501.75 1.10074 1.1279 0
M  V30 16127 C 1502.68 0.704023 2.1812 0
M  V30 16128 C 1503.69 -0.25742 1.60752 0
M  V30 16129 O 1504.88 -0.0424559 1.7845 0
M  V30 16130 C 1501.98 0.0176666 3.38895 0
M  V30 16131 C 1501.16 1.00234 4.2576 0
M  V30 16132 C 1500.22 0.348158 5.25047 0
M  V30 16133 O 1499.24 0.997821 5.60386 0
M  V30 16134 N 1500.44 -0.894955 5.7356 0
M  V30 16135 H 1503.21 1.61024 2.52767 0
M  V30 16136 H 1500.77 0.989068 1.28176 0
M  V30 16137 H 1502.76 -0.431346 4.02395 0
M  V30 16138 H 1501.33 -0.7909 3.02429 0
M  V30 16139 H 1500.55 1.62972 3.58934 0
M  V30 16140 H 1501.84 1.669 4.80647 0
M  V30 16141 H 1501.24 -1.4422 5.47007 0
M  V30 16142 H 1499.79 -1.28718 6.38964 0
M  V30 16143 N 1503.23 -1.30138 0.888926 0
M  V30 16144 C 1504.46 -1.99853 0.523676 0
M  V30 16145 C 1504.87 -1.66783 -0.893312 0
M  V30 16146 O 1504.21 -0.903292 -1.59957 0
M  V30 16147 C 1504.27 -3.54055 0.623332 0
M  V30 16148 C 1503.93 -4.10652 2.00534 0
M  V30 16149 C 1504.93 -4.26353 2.97522 0
M  V30 16150 C 1502.62 -4.45938 2.3118 0
M  V30 16151 C 1504.61 -4.76557 4.23288 0
M  V30 16152 C 1502.3 -4.95841 3.57191 0
M  V30 16153 C 1503.3 -5.11103 4.53059 0
M  V30 16154 O 1502.98 -5.59927 5.76833 0
M  V30 16155 H 1502.72 -0.645553 0.200591 0
M  V30 16156 H 1505.27 -1.66899 1.19724 0
M  V30 16157 H 1503.5 -3.86551 -0.107221 0
M  V30 16158 H 1505.19 -4.05009 0.26879 0
M  V30 16159 H 1505.95 -3.9939 2.75159 0
M  V30 16160 H 1501.83 -4.33324 1.57326 0
M  V30 16161 H 1505.38 -4.88385 4.98123 0
M  V30 16162 H 1501.27 -5.22239 3.7939 0
M  V30 16163 H 1502.04 -5.78263 5.79271 0
M  V30 16164 N 1504.71 -0.650285 -1.43559 0
M  V30 16165 C 1505.95 -0.171315 -2.02677 0
M  V30 16166 C 1506.31 1.20031 -1.50367 0
M  V30 16167 O 1505.6 1.78901 -0.685922 0
M  V30 16168 C 1505.79 -0.119084 -3.57202 0
M  V30 16169 C 1505.62 -1.4841 -4.24505 0
M  V30 16170 C 1504.39 -2.07575 -4.60696 0
M  V30 16171 C 1506.59 -2.42191 -4.53705 0
M  V30 16172 N 1504.57 -3.37112 -5.13058 0
M  V30 16173 C 1505.94 -3.56359 -5.07354 0
M  V30 16174 C 1508 -2.4103 -4.35671 0
M  V30 16175 C 1506.7 -4.69587 -5.44868 0
M  V30 16176 C 1508.73 -3.53336 -4.74244 0
M  V30 16177 C 1508.09 -4.66229 -5.28024 0
M  V30 16178 H 1504.19 -0.107051 -0.774638 0
M  V30 16179 H 1506.77 -0.857951 -1.74778 0
M  V30 16180 H 1504.94 0.536887 -3.84671 0
M  V30 16181 H 1506.68 0.370487 -4.03001 0
M  V30 16182 H 1503.43 -1.60315 -4.45641 0
M  V30 16183 H 1503.85 -4.03392 -5.43695 0
M  V30 16184 H 1508.5 -1.54988 -3.93368 0
M  V30 16185 H 1506.21 -5.56322 -5.86115 0
M  V30 16186 H 1509.8 -3.53636 -4.61988 0
M  V30 16187 H 1508.68 -5.51693 -5.57319 0
M  V30 16188 N 1506.18 1.52647 -0.392018 0
M  V30 16189 C 1507.43 2.01613 0.1893 0
M  V30 16190 C 1507.76 1.27837 1.46588 0
M  V30 16191 O 1507.01 0.368018 1.92209 0
M  V30 16192 C 1507.31 3.53872 0.500914 0
M  V30 16193 C 1506.98 4.45675 -0.684434 0
M  V30 16194 C 1505.64 4.70489 -1.00961 0
M  V30 16195 C 1507.99 4.99825 -1.4773 0
M  V30 16196 C 1505.32 5.46703 -2.12915 0
M  V30 16197 C 1507.67 5.77263 -2.58747 0
M  V30 16198 C 1506.34 6.00355 -2.9177 0
M  V30 16199 H 1505.61 0.737755 0.0692697 0
M  V30 16200 H 1508.25 1.84022 -0.529924 0
M  V30 16201 H 1506.56 3.69551 1.3015 0
M  V30 16202 H 1508.26 3.89256 0.963382 0
M  V30 16203 H 1504.85 4.26527 -0.420985 0
M  V30 16204 H 1509.03 4.80577 -1.23932 0
M  V30 16205 H 1504.29 5.62807 -2.38868 0
M  V30 16206 H 1508.46 6.18223 -3.20583 0
M  V30 16207 H 1506.09 6.59194 -3.7864 0
M  V30 16208 N 1507.66 0.121921 1.57128 0
M  V30 16209 C 1508.94 -0.579087 1.86831 0
M  V30 16210 C 1509.32 -1.84623 1.0236 0
M  V30 16211 O 1508.67 -2.28266 0.103326 0
M  V30 16212 C 1508.88 -0.86872 3.38015 0
M  V30 16213 C 1510.23 -1.22051 4.0668 0
M  V30 16214 O 1511.25 -0.958889 3.43051 0
M  V30 16215 O 1510.11 -1.71164 5.19004 0
M  V30 16216 H 1507.2 -0.292539 0.773531 0
M  V30 16217 H 1509.75 0.156644 1.68975 0
M  V30 16218 H 1508.52 0.0291056 3.91289 0
M  V30 16219 H 1508.14 -1.65951 3.61312 0
M  V30 16220 N 1509.14 -1.56867 -0.151857 0
M  V30 16221 C 1510.07 -2.00932 -1.18949 0
M  V30 16222 C 1511.05 -0.888062 -1.45077 0
M  V30 16223 O 1512.24 -1.15553 -1.56081 0
M  V30 16224 C 1509.37 -2.3858 -2.52383 0
M  V30 16225 C 1508.32 -3.53845 -2.40785 0
M  V30 16226 C 1507.65 -3.77292 -3.78886 0
M  V30 16227 C 1508.95 -4.8667 -1.89605 0
M  V30 16228 H 1510.64 -2.87863 -0.823107 0
M  V30 16229 H 1508.19 -1.38491 -0.394499 0
M  V30 16230 H 1510.14 -2.68006 -3.25193 0
M  V30 16231 H 1508.86 -1.48579 -2.90847 0
M  V30 16232 H 1507.52 -3.24577 -1.70427 0
M  V30 16233 H 1507.17 -2.84551 -4.14777 0
M  V30 16234 H 1506.87 -4.54861 -3.71989 0
M  V30 16235 H 1508.39 -4.09139 -4.53252 0
M  V30 16236 H 1509.81 -5.14846 -2.52204 0
M  V30 16237 H 1508.21 -5.6801 -1.93609 0
M  V30 16238 H 1509.28 -4.77366 -0.851438 0
M  V30 16239 N 1510.62 0.421051 -1.51871 0
M  V30 16240 C 1511.53 1.5371 -1.7723 0
M  V30 16241 C 1512.54 1.61109 -0.657256 0
M  V30 16242 O 1513.72 1.78047 -0.941343 0
M  V30 16243 C 1510.79 2.89555 -1.9068 0
M  V30 16244 C 1509.85 2.9214 -3.14567 0
M  V30 16245 C 1509.08 4.21505 -3.27367 0
M  V30 16246 O 1509.3 5.14764 -2.45712 0
M  V30 16247 O 1508.24 4.30706 -4.20448 0
M  V30 16248 H 1512.06 1.35221 -2.71935 0
M  V30 16249 H 1509.65 0.605712 -1.3657 0
M  V30 16250 H 1511.53 3.70147 -2.01418 0
M  V30 16251 H 1510.2 3.08137 -0.991627 0
M  V30 16252 H 1509.11 2.10444 -3.09296 0
M  V30 16253 H 1510.44 2.78505 -4.05827 0
M  V30 16254 N 1512.1 1.42293 0.677538 0
M  V30 16255 C 1513.34 1.42827 1.43973 0
M  V30 16256 C 1513.68 0.0435041 1.94151 0
M  V30 16257 O 1512.95 -0.931794 1.70727 0
M  V30 16258 C 1513.23 2.45037 2.63873 0
M  V30 16259 C 1513.09 3.92694 2.19344 0
M  V30 16260 C 1514.41 2.4427 3.66087 0
M  V30 16261 H 1511.52 0.520097 0.522176 0
M  V30 16262 H 1514.17 1.73688 0.770219 0
M  V30 16263 H 1512.32 2.18851 3.20993 0
M  V30 16264 H 1513.99 4.2985 1.67412 0
M  V30 16265 H 1512.23 4.06692 1.50944 0
M  V30 16266 H 1512.9 4.59784 3.05455 0
M  V30 16267 H 1515.38 2.67551 3.18678 0
M  V30 16268 H 1514.25 3.17769 4.47564 0
M  V30 16269 H 1514.52 1.46769 4.17027 0
M  V30 16270 N 1513.57 -0.913576 1.28419 0
M  V30 16271 C 1514.8 -1.69649 1.18435 0
M  V30 16272 C 1515.22 -1.87043 -0.256987 0
M  V30 16273 O 1514.57 -1.39755 -1.17366 0
M  V30 16274 C 1514.63 -3.08855 1.87859 0
M  V30 16275 O 1514.35 -2.92265 3.26363 0
M  V30 16276 C 1515.85 -4.03229 1.84178 0
M  V30 16277 H 1513.07 -0.530307 0.411115 0
M  V30 16278 H 1515.61 -1.14342 1.69547 0
M  V30 16279 H 1513.77 -3.60979 1.40617 0
M  V30 16280 H 1514.18 -3.80372 3.61134 0
M  V30 16281 H 1515.65 -4.98369 2.37344 0
M  V30 16282 H 1516.13 -4.31587 0.814195 0
M  V30 16283 H 1516.74 -3.57033 2.311 0
M  V30 16284 N 1515.05 -1.1067 -1.12204 0
M  V30 16285 C 1516.33 -0.762632 -1.8012 0
M  V30 16286 C 1516.71 0.750529 -1.97308 0
M  V30 16287 O 1516.06 1.67764 -1.55137 0
M  V30 16288 C 1516.27 -1.51651 -3.14329 0
M  V30 16289 C 1517.62 -1.69061 -3.89491 0
M  V30 16290 O 1518.64 -1.48009 -3.23994 0
M  V30 16291 O 1517.5 -2.03984 -5.07004 0
M  V30 16292 H 1514.59 -0.275417 -0.779791 0
M  V30 16293 H 1517.14 -1.20966 -1.19018 0
M  V30 16294 H 1515.91 -2.54622 -2.97125 0
M  V30 16295 H 1515.53 -1.0625 -3.83141 0
M  V30 16296 N 1516.53 1.29665 -0.895815 0
M  V30 16297 C 1517.48 2.2542 -0.34201 0
M  V30 16298 C 1518.46 1.5172 0.535712 0
M  V30 16299 O 1519.66 1.72909 0.378364 0
M  V30 16300 C 1516.79 3.4056 0.43287 0
M  V30 16301 C 1515.87 4.21603 -0.459552 0
M  V30 16302 N 1516.26 4.8098 -1.565 0
M  V30 16303 C 1514.56 4.45261 -0.256632 0
M  V30 16304 C 1515.26 5.41792 -2.11746 0
M  V30 16305 N 1514.24 5.24968 -1.411 0
M  V30 16306 H 1518.04 2.68885 -1.18651 0
M  V30 16307 H 1515.55 1.4423 -0.74643 0
M  V30 16308 H 1517.55 4.08219 0.846334 0
M  V30 16309 H 1516.21 2.98633 1.27468 0
M  V30 16310 H 1517.22 4.79877 -1.94777 0
M  V30 16311 H 1513.9 4.13899 0.547131 0
M  V30 16312 H 1515.29 5.9887 -3.04637 0
M  V30 16313 N 1518.01 0.657889 1.43212 0
M  V30 16314 C 1518.96 -0.0532813 2.27938 0
M  V30 16315 C 1519.94 -0.790207 1.40159 0
M  V30 16316 O 1521.13 -0.671904 1.63751 0
M  V30 16317 C 1518.26 -1.01574 3.27929 0
M  V30 16318 C 1517.35 -0.277042 4.23194 0
M  V30 16319 N 1517.74 0.708959 5.00807 0
M  V30 16320 C 1516.04 -0.517845 4.42983 0
M  V30 16321 C 1516.74 1.14784 5.70263 0
M  V30 16322 N 1515.72 0.481156 5.41466 0
M  V30 16323 H 1519.52 0.703257 2.85362 0
M  V30 16324 H 1517.03 0.485552 1.54971 0
M  V30 16325 H 1519.03 -1.54006 3.87412 0
M  V30 16326 H 1517.69 -1.77229 2.72066 0
M  V30 16327 H 1518.7 1.08786 5.06346 0
M  V30 16328 H 1515.38 -1.2552 3.98185 0
M  V30 16329 H 1516.77 1.96395 6.42556 0
M  V30 16330 N 1519.49 -1.52437 0.400108 0
M  V30 16331 C 1520.9 -1.5952 0.0505611 0
M  V30 16332 C 1521.1 -1.4135 -1.43606 0
M  V30 16333 O 1520.16 -1.23591 -2.20185 0
M  V30 16334 C 1521.47 -2.95859 0.537411 0
M  V30 16335 C 1523.02 -3.09067 0.494603 0
M  V30 16336 C 1523.49 -4.47873 0.957815 0
M  V30 16337 N 1524.99 -4.54087 0.914267 0
M  V30 16338 C 1525.72 -5.59744 1.24397 0
M  V30 16339 N 1525.22 -6.72995 1.64469 0
M  V30 16340 N 1527.01 -5.49905 1.16452 0
M  V30 16341 H 1519.16 -1.62496 1.36781 0
M  V30 16342 H 1521.42 -0.763947 0.561328 0
M  V30 16343 H 1521.13 -3.14407 1.57611 0
M  V30 16344 H 1521 -3.77156 -0.0577652 0
M  V30 16345 H 1523.39 -2.90209 -0.535035 0
M  V30 16346 H 1523.47 -2.29698 1.12572 0
M  V30 16347 H 1523.12 -4.67473 1.98574 0
M  V30 16348 H 1523.05 -5.25724 0.303602 0
M  V30 16349 H 1525.54 -3.72787 0.619536 0
M  V30 16350 H 1525.85 -7.49594 1.87961 0
M  V30 16351 H 1524.19 -6.74298 1.68364 0
M  V30 16352 H 1527.39 -4.60311 0.850401 0
M  V30 16353 H 1527.56 -6.32142 1.42478 0
M  V30 16354 N 1520.96 -0.130252 -1.57061 0
M  V30 16355 C 1522.24 0.569171 -1.87136 0
M  V30 16356 C 1522.62 1.84078 -1.03337 0
M  V30 16357 O 1521.97 2.28208 -0.11543 0
M  V30 16358 C 1522.18 0.850782 -3.38471 0
M  V30 16359 C 1523.53 1.19892 -4.07322 0
M  V30 16360 O 1524.55 0.940682 -3.43554 0
M  V30 16361 O 1523.41 1.6841 -5.19904 0
M  V30 16362 H 1520.5 0.288433 -0.775071 0
M  V30 16363 H 1523.05 -0.165603 -1.6889 0
M  V30 16364 H 1521.82 -0.0498562 -3.91268 0
M  V30 16365 H 1521.45 1.64032 -3.62187 0
M  V30 16366 N 1522.44 1.56945 0.143535 0
M  V30 16367 C 1523.67 1.87429 0.869139 0
M  V30 16368 C 1524.08 0.716856 1.75094 0
M  V30 16369 O 1523.42 -0.322379 1.80849 0
M  V30 16370 C 1523.49 3.12657 1.77442 0
M  V30 16371 C 1523.15 4.44311 1.06943 0
M  V30 16372 C 1524.15 5.18187 0.421706 0
M  V30 16373 C 1521.83 4.91033 1.05791 0
M  V30 16374 C 1523.83 6.36992 -0.228127 0
M  V30 16375 C 1521.51 6.09761 0.404266 0
M  V30 16376 C 1522.51 6.82587 -0.237621 0
M  V30 16377 O 1522.2 7.99059 -0.880893 0
M  V30 16378 H 1521.93 0.625443 0.256508 0
M  V30 16379 H 1524.49 2.04922 0.139979 0
M  V30 16380 H 1522.72 2.91181 2.54461 0
M  V30 16381 H 1524.4 3.29359 2.37228 0
M  V30 16382 H 1525.17 4.83157 0.422395 0
M  V30 16383 H 1521.05 4.3427 1.54694 0
M  V30 16384 H 1524.59 6.93773 -0.729732 0
M  V30 16385 H 1520.49 6.44252 0.401256 0
M  V30 16386 H 1521.26 8.14747 -0.782907 0
M  V30 16387 N 1523.92 -0.412991 1.52093 0
M  V30 16388 C 1525.17 -1.1603 1.65962 0
M  V30 16389 C 1525.5 -1.90598 0.387652 0
M  V30 16390 O 1524.75 -1.85308 -0.629243 0
M  V30 16391 C 1525.05 -2.18321 2.82968 0
M  V30 16392 C 1524.72 -1.60589 4.21334 0
M  V30 16393 C 1523.38 -1.44568 4.5897 0
M  V30 16394 C 1525.73 -1.18388 5.07576 0
M  V30 16395 C 1523.06 -0.848584 5.80531 0
M  V30 16396 C 1525.41 -0.600985 6.29739 0
M  V30 16397 C 1524.07 -0.42788 6.66127 0
M  V30 16398 H 1523.34 -0.424583 0.607297 0
M  V30 16399 H 1525.99 -0.448028 1.86185 0
M  V30 16400 H 1524.3 -2.95678 2.57063 0
M  V30 16401 H 1525.99 -2.76009 2.90895 0
M  V30 16402 H 1522.58 -1.7404 3.91673 0
M  V30 16403 H 1526.77 -1.29576 4.79086 0
M  V30 16404 H 1522.02 -0.702447 6.07351 0
M  V30 16405 H 1526.2 -0.265583 6.95893 0
M  V30 16406 H 1523.82 0.0369013 7.60191 0
M  V30 16407 N 1525.4 -1.4265 -0.669982 0
M  V30 16408 C 1526.36 -1.46196 -1.7652 0
M  V30 16409 C 1527.36 -0.348884 -1.5697 0
M  V30 16410 O 1528.55 -0.609921 -1.63174 0
M  V30 16411 C 1525.68 -1.29829 -3.1521 0
M  V30 16412 H 1526.88 -2.43718 -1.74762 0
M  V30 16413 H 1524.43 -1.29168 -0.88007 0
M  V30 16414 H 1525.17 -0.332493 -3.22591 0
M  V30 16415 H 1524.95 -2.10501 -3.30804 0
M  V30 16416 H 1526.44 -1.35205 -3.95107 0
M  V30 16417 N 1526.88 0.906753 -1.28902 0
M  V30 16418 C 1527.79 2.04313 -1.15296 0
M  V30 16419 C 1528.8 1.73826 -0.0778619 0
M  V30 16420 O 1529.98 1.99322 -0.288543 0
M  V30 16421 C 1527.04 3.36782 -0.823317 0
M  V30 16422 C 1526.11 3.80834 -1.98152 0
M  V30 16423 C 1525.34 5.06981 -1.66751 0
M  V30 16424 O 1525.56 5.67391 -0.58513 0
M  V30 16425 O 1524.5 5.46915 -2.51332 0
M  V30 16426 H 1528.32 2.18713 -2.10709 0
M  V30 16427 H 1525.91 1.02928 -1.08287 0
M  V30 16428 H 1527.79 4.16298 -0.653735 0
M  V30 16429 H 1526.46 3.23542 0.101097 0
M  V30 16430 H 1525.37 3.02115 -2.2063 0
M  V30 16431 H 1526.7 3.98648 -2.88688 0
M  V30 16432 N 1528.36 1.11264 1.11616 0
M  V30 16433 C 1529.58 0.88306 1.87661 0
M  V30 16434 C 1530.01 -0.561586 1.79521 0
M  V30 16435 O 1529.36 -1.3964 1.1563 0
M  V30 16436 C 1529.41 1.34698 3.34498 0
M  V30 16437 O 1528.52 0.517512 4.0914 0
M  V30 16438 H 1527.86 0.318233 0.582772 0
M  V30 16439 H 1530.39 1.48164 1.41098 0
M  V30 16440 H 1530.4 1.34068 3.85344 0
M  V30 16441 H 1529.07 2.39896 3.39739 0
M  V30 16442 H 1527.65 0.589751 3.68207 0
M  V30 16443 N 1529.83 -1.29188 0.902679 0
M  V30 16444 C 1531.08 -1.94718 0.526082 0
M  V30 16445 C 1531.4 -1.71924 -0.932816 0
M  V30 16446 O 1532.6 -2.31585 -1.41707 0
M  V30 16447 C 1531.06 -3.48723 0.889974 0
M  V30 16448 C 1530.67 -3.80312 2.36784 0
M  V30 16449 C 1532.41 -4.20472 0.58343 0
M  V30 16450 C 1530.32 -5.27574 2.67244 0
M  V30 16451 H 1529.25 -0.728875 0.193019 0
M  V30 16452 H 1531.9 -1.46869 1.10008 0
M  V30 16453 H 1530.28 -3.95242 0.244872 0
M  V30 16454 H 1531.45 -3.44641 3.05875 0
M  V30 16455 H 1529.77 -3.21709 2.64371 0
M  V30 16456 H 1532.37 -5.28864 0.787813 0
M  V30 16457 H 1532.71 -4.13544 -0.478204 0
M  V30 16458 H 1533.24 -3.79693 1.1865 0
M  V30 16459 H 1529.98 -5.39569 3.72217 0
M  V30 16460 H 1529.5 -5.64482 2.0278 0
M  V30 16461 H 1531.18 -5.95199 2.53666 0
M  V30 16462 N 1531.31 -0.665475 -1.42861 0
M  V30 16463 C 1532.24 0.00482845 -2.335 0
M  V30 16464 C 1533.22 0.799135 -1.50159 0
M  V30 16465 O 1534.41 0.75816 -1.78789 0
M  V30 16466 C 1531.54 0.963347 -3.33672 0
M  V30 16467 C 1530.49 0.278294 -4.27094 0
M  V30 16468 C 1529.82 1.34911 -5.174 0
M  V30 16469 C 1531.12 -0.836925 -5.15551 0
M  V30 16470 H 1532.81 -0.752129 -2.89799 0
M  V30 16471 H 1530.36 -0.363139 -1.39346 0
M  V30 16472 H 1532.31 1.44128 -3.95986 0
M  V30 16473 H 1531.03 1.75161 -2.75656 0
M  V30 16474 H 1529.69 -0.179314 -3.66161 0
M  V30 16475 H 1529.34 2.12912 -4.55716 0
M  V30 16476 H 1529.04 0.895919 -5.8073 0
M  V30 16477 H 1530.57 1.82816 -5.8259 0
M  V30 16478 H 1531.98 -0.440617 -5.71604 0
M  V30 16479 H 1530.38 -1.21533 -5.87665 0
M  V30 16480 H 1531.45 -1.6897 -4.54507 0
M  V30 16481 N 1532.79 1.52222 -0.408187 0
M  V30 16482 C 1534.04 2.02102 0.168154 0
M  V30 16483 C 1534.37 1.2933 1.4487 0
M  V30 16484 O 1533.64 0.399336 1.90356 0
M  V30 16485 C 1533.93 3.57679 0.416821 0
M  V30 16486 C 1533.78 4.41101 -0.880335 0
M  V30 16487 C 1535.1 4.23442 1.19936 0
M  V30 16488 H 1532.22 0.734583 0.0596402 0
M  V30 16489 H 1534.86 1.82121 -0.541467 0
M  V30 16490 H 1533.01 3.74835 1.02131 0
M  V30 16491 H 1534.68 4.35658 -1.51656 0
M  V30 16492 H 1532.92 4.07353 -1.49152 0
M  V30 16493 H 1533.6 5.48031 -0.660748 0
M  V30 16494 H 1536.07 4.10379 0.687605 0
M  V30 16495 H 1534.95 5.32239 1.3421 0
M  V30 16496 H 1535.21 3.82335 2.21973 0
M  V30 16497 N 1534.27 0.138579 1.5699 0
M  V30 16498 C 1535.51 -0.51539 1.96142 0
M  V30 16499 C 1535.85 -1.65067 1.02306 0
M  V30 16500 O 1535.12 -1.94395 0.0638645 0
M  V30 16501 C 1535.4 -1.02956 3.45068 0
M  V30 16502 C 1535.26 0.103646 4.49681 0
M  V30 16503 C 1536.58 -1.91411 3.96295 0
M  V30 16504 H 1533.7 -0.185873 0.713176 0
M  V30 16505 H 1536.34 0.218103 1.88744 0
M  V30 16506 H 1534.49 -1.65462 3.51503 0
M  V30 16507 H 1536.16 0.739693 4.55331 0
M  V30 16508 H 1534.4 0.764014 4.27019 0
M  V30 16509 H 1535.07 -0.297688 5.51197 0
M  V30 16510 H 1537.55 -1.38746 3.92286 0
M  V30 16511 H 1536.43 -2.24298 5.0098 0
M  V30 16512 H 1536.69 -2.84793 3.38149 0
M  V30 16513 N 1535.75 -1.57019 -0.13521 0
M  V30 16514 C 1536.99 -1.84262 -0.847071 0
M  V30 16515 C 1537.32 -0.721946 -1.80282 0
M  V30 16516 O 1536.6 0.273535 -1.92567 0
M  V30 16517 C 1536.88 -3.22043 -1.61123 0
M  V30 16518 C 1536.74 -4.44689 -0.67617 0
M  V30 16519 C 1538.05 -3.57188 -2.57108 0
M  V30 16520 H 1535.17 -0.670246 -0.306496 0
M  V30 16521 H 1537.82 -1.89671 -0.111843 0
M  V30 16522 H 1535.97 -3.17563 -2.23799 0
M  V30 16523 H 1537.64 -4.61262 -0.0595009 0
M  V30 16524 H 1535.88 -4.33798 0.0134526 0
M  V30 16525 H 1536.55 -5.37727 -1.24714 0
M  V30 16526 H 1539.03 -3.62354 -2.04545 0
M  V30 16527 H 1537.9 -4.54602 -3.07617 0
M  V30 16528 H 1538.16 -2.83758 -3.39019 0
M  V30 16529 N 1537.22 0.404919 -1.52309 0
M  V30 16530 C 1538.47 1.15319 -1.66822 0
M  V30 16531 C 1538.8 1.90056 -0.399041 0
M  V30 16532 O 1538.08 1.84927 0.602679 0
M  V30 16533 C 1538.36 2.14426 -2.89298 0
M  V30 16534 C 1538.21 1.43558 -4.26276 0
M  V30 16535 C 1539.53 3.15046 -3.07301 0
M  V30 16536 H 1536.65 0.417869 -0.607087 0
M  V30 16537 H 1539.29 0.438414 -1.84873 0
M  V30 16538 H 1537.44 2.75382 -2.74039 0
M  V30 16539 H 1539.12 0.856899 -4.53271 0
M  V30 16540 H 1537.36 0.737515 -4.27485 0
M  V30 16541 H 1538.03 2.15895 -5.08029 0
M  V30 16542 H 1540.51 2.6417 -3.21486 0
M  V30 16543 H 1539.38 3.81652 -3.94503 0
M  V30 16544 H 1539.64 3.83012 -2.20803 0
M  V30 16545 N 1538.7 1.43003 0.662408 0
M  V30 16546 C 1539.67 1.4713 1.75743 0
M  V30 16547 C 1540.67 0.357203 1.56782 0
M  V30 16548 O 1541.86 0.618566 1.62848 0
M  V30 16549 C 1538.99 1.31499 3.14517 0
M  V30 16550 H 1540.18 2.44641 1.73467 0
M  V30 16551 H 1537.73 1.29633 0.873208 0
M  V30 16552 H 1538.47 0.349596 3.2241 0
M  V30 16553 H 1538.25 2.12253 3.29683 0
M  V30 16554 H 1539.74 1.37298 3.94384 0
M  V30 16555 N 1540.18 -0.899904 1.29381 0
M  V30 16556 C 1541.11 -2.02045 1.17047 0
M  V30 16557 C 1542.09 -1.69977 0.0647354 0
M  V30 16558 O 1543.28 -1.92659 0.244173 0
M  V30 16559 C 1540.41 -3.36839 0.845991 0
M  V30 16560 C 1539.36 -3.83117 1.90802 0
M  V30 16561 C 1538.69 -5.15032 1.43686 0
M  V30 16562 C 1539.99 -4.03464 3.31684 0
M  V30 16563 H 1541.68 -2.12623 2.10789 0
M  V30 16564 H 1539.23 -1.02162 1.01484 0
M  V30 16565 H 1541.18 -4.14737 0.746413 0
M  V30 16566 H 1539.9 -3.26352 -0.127125 0
M  V30 16567 H 1538.56 -3.07435 1.99698 0
M  V30 16568 H 1538.21 -5.00961 0.452422 0
M  V30 16569 H 1537.91 -5.46967 2.14711 0
M  V30 16570 H 1539.43 -5.95472 1.35078 0
M  V30 16571 H 1540.85 -4.71845 3.25631 0
M  V30 16572 H 1539.25 -4.46752 4.00665 0
M  V30 16573 H 1540.32 -3.07807 3.74677 0
M  V30 16574 N 1541.66 -1.11854 -1.11024 0
M  V30 16575 C 1542.59 -0.803129 -2.19253 0
M  V30 16576 C 1543.57 0.230417 -1.68532 0
M  V30 16577 O 1544.75 0.0929421 -1.93977 0
M  V30 16578 C 1541.88 -0.250265 -3.46397 0
M  V30 16579 C 1540.84 -1.21617 -4.10357 0
M  V30 16580 C 1540.16 -0.523821 -5.32128 0
M  V30 16581 C 1541.46 -2.56852 -4.54779 0
M  V30 16582 H 1543.16 -1.7081 -2.45895 0
M  V30 16583 H 1540.7 -0.822712 -1.18184 0
M  V30 16584 H 1542.66 -0.0173732 -4.21396 0
M  V30 16585 H 1541.38 0.690018 -3.19228 0
M  V30 16586 H 1540.04 -1.43477 -3.37357 0
M  V30 16587 H 1539.69 0.421408 -5.01232 0
M  V30 16588 H 1539.39 -1.16809 -5.75873 0
M  V30 16589 H 1540.91 -0.299823 -6.09863 0
M  V30 16590 H 1542.33 -2.39056 -5.21081 0
M  V30 16591 H 1540.72 -3.17301 -5.09353 0
M  V30 16592 H 1541.79 -3.15751 -3.68007 0
M  V30 16593 N 1543.14 1.28707 -0.909517 0
M  V30 16594 C 1544.38 1.94768 -0.539413 0
M  V30 16595 C 1544.71 1.7198 0.919133 0
M  V30 16596 O 1543.98 1.0571 1.64931 0
M  V30 16597 H 1542.56 0.720693 -0.196496 0
M  V30 16598 H 1545.22 1.56772 -1.15795 0
M  V30 16599 H 1544.31 3.03436 -0.730281 0
M  V30 16600 N 1544.61 0.673042 1.42506 0
M  V30 16601 C 1545.86 0.194192 2.01165 0
M  V30 16602 C 1546.18 -1.2029 1.53477 0
M  V30 16603 O 1545.45 -1.80737 0.755704 0
M  V30 16604 H 1544.03 0.0688022 0.743825 0
M  V30 16605 H 1546.7 0.869157 1.74447 0
M  V30 16606 H 1545.79 0.194111 3.11496 0
M  V30 16607 N 1546.09 -1.52004 0.416254 0
M  V30 16608 C 1547.51 -1.59457 0.0674775 0
M  V30 16609 C 1547.71 -1.42865 -1.42098 0
M  V30 16610 O 1546.76 -1.2592 -2.18862 0
M  V30 16611 C 1548.08 -2.95272 0.56876 0
M  V30 16612 C 1549.63 -3.08525 0.527356 0
M  V30 16613 C 1550.1 -4.46832 1.00526 0
M  V30 16614 N 1551.59 -4.53092 0.962377 0
M  V30 16615 C 1552.33 -5.58393 1.30327 0
M  V30 16616 N 1551.82 -6.71212 1.71597 0
M  V30 16617 N 1553.62 -5.48639 1.22278 0
M  V30 16618 H 1545.77 -1.61036 1.38496 0
M  V30 16619 H 1548.03 -0.75795 0.569399 0
M  V30 16620 H 1547.74 -3.12717 1.60937 0
M  V30 16621 H 1547.61 -3.77196 -0.0177595 0
M  V30 16622 H 1550 -2.9076 -0.504225 0
M  V30 16623 H 1550.08 -2.28491 1.15002 0
M  V30 16624 H 1549.72 -4.6534 2.03521 0
M  V30 16625 H 1549.65 -5.25373 0.359345 0
M  V30 16626 H 1552.14 -3.72109 0.65904 0
M  V30 16627 H 1552.46 -7.47558 1.95901 0
M  V30 16628 H 1550.8 -6.72475 1.75507 0
M  V30 16629 H 1553.99 -4.59383 0.899175 0
M  V30 16630 H 1554.16 -6.30596 1.49175 0
M  V30 16631 N 1547.57 -0.146903 -1.56914 0
M  V30 16632 C 1548.8 0.51044 -2.00195 0
M  V30 16633 C 1549.21 1.58966 -1.02599 0
M  V30 16634 O 1548.55 1.83694 -0.0149611 0
M  V30 16635 C 1548.61 1.17055 -3.39909 0
M  V30 16636 C 1548.28 0.235944 -4.56391 0
M  V30 16637 C 1549.27 -0.536351 -5.17126 0
M  V30 16638 C 1546.96 0.138878 -5.02108 0
M  V30 16639 C 1548.95 -1.39316 -6.21989 0
M  V30 16640 C 1546.64 -0.721538 -6.06825 0
M  V30 16641 C 1547.64 -1.48616 -6.66635 0
M  V30 16642 O 1547.33 -2.33224 -7.69325 0
M  V30 16643 H 1547.06 0.137381 -0.661893 0
M  V30 16644 H 1549.61 -0.23844 -2.04011 0
M  V30 16645 H 1547.84 1.96707 -3.32931 0
M  V30 16646 H 1549.53 1.72761 -3.67299 0
M  V30 16647 H 1550.3 -0.471393 -4.82704 0
M  V30 16648 H 1546.18 0.723769 -4.55283 0
M  V30 16649 H 1549.72 -1.99044 -6.68601 0
M  V30 16650 H 1545.62 -0.787788 -6.40675 0
M  V30 16651 H 1546.39 -2.26471 -7.86545 0
M  V30 16652 N 1549.05 1.57088 0.126881 0
M  V30 16653 C 1550.29 1.84709 0.837287 0
M  V30 16654 C 1550.63 0.731496 1.79897 0
M  V30 16655 O 1549.9 -0.263319 1.92709 0
M  V30 16656 C 1550.19 3.22893 1.59412 0
M  V30 16657 C 1550.04 4.45041 0.652578 0
M  V30 16658 C 1551.36 3.58547 2.5521 0
M  V30 16659 H 1548.48 0.671862 0.302937 0
M  V30 16660 H 1551.12 1.89727 0.101783 0
M  V30 16661 H 1549.27 3.18746 2.22112 0
M  V30 16662 H 1550.94 4.61287 0.0350382 0
M  V30 16663 H 1549.18 4.33785 -0.0364578 0
M  V30 16664 H 1549.85 5.38381 1.21861 0
M  V30 16665 H 1552.33 3.63434 2.0262 0
M  V30 16666 H 1551.21 4.56227 3.05202 0
M  V30 16667 H 1551.47 2.85552 3.37509 0
M  V30 16668 N 1550.53 -0.396836 1.52522 0
M  V30 16669 C 1551.46 -1.49088 1.79708 0
M  V30 16670 C 1552.44 -1.57246 0.648678 0
M  V30 16671 O 1553.62 -1.72321 0.895495 0
M  V30 16672 C 1550.75 -2.86785 1.95887 0
M  V30 16673 C 1549.71 -2.93472 3.11542 0
M  V30 16674 C 1549.03 -4.33542 3.12963 0
M  V30 16675 C 1550.33 -2.63832 4.50766 0
M  V30 16676 H 1552.03 -1.26588 2.71322 0
M  V30 16677 H 1549.57 -0.607535 1.30557 0
M  V30 16678 H 1551.53 -3.63319 2.13489 0
M  V30 16679 H 1550.25 -3.10605 1.00955 0
M  V30 16680 H 1548.91 -2.19384 2.93711 0
M  V30 16681 H 1548.56 -4.5439 2.15729 0
M  V30 16682 H 1548.26 -4.38938 3.9065 0
M  V30 16683 H 1549.78 -5.11993 3.32709 0
M  V30 16684 H 1551.19 -3.30086 4.68739 0
M  V30 16685 H 1549.59 -2.80589 5.30462 0
M  V30 16686 H 1550.66 -1.59209 4.58018 0
M  V30 16687 N 1552.01 -1.43353 -0.654814 0
M  V30 16688 C 1553.25 -1.46096 -1.41518 0
M  V30 16689 C 1553.61 -0.0833089 -1.9222 0
M  V30 16690 O 1552.9 0.897806 -1.69263 0
M  V30 16691 C 1553.09 -2.437 -2.61429 0
M  V30 16692 C 1552.92 -3.90819 -2.22464 0
M  V30 16693 C 1551.69 -4.59199 -2.10867 0
M  V30 16694 C 1553.89 -4.80698 -1.8285 0
M  V30 16695 N 1551.87 -5.91251 -1.65215 0
M  V30 16696 C 1553.24 -6.0201 -1.48269 0
M  V30 16697 C 1555.3 -4.67972 -1.70019 0
M  V30 16698 C 1554 -7.12011 -1.02142 0
M  V30 16699 C 1556.03 -5.77975 -1.25297 0
M  V30 16700 C 1555.39 -6.98412 -0.916516 0
M  V30 16701 H 1551.49 -0.589722 -0.513568 0
M  V30 16702 H 1554.07 -1.79521 -0.753681 0
M  V30 16703 H 1552.24 -2.12304 -3.25241 0
M  V30 16704 H 1553.98 -2.36892 -3.28123 0
M  V30 16705 H 1550.73 -4.13682 -2.30573 0
M  V30 16706 H 1551.15 -6.61343 -1.44756 0
M  V30 16707 H 1555.8 -3.75317 -1.94671 0
M  V30 16708 H 1553.51 -8.04496 -0.762381 0
M  V30 16709 H 1557.1 -5.70147 -1.15861 0
M  V30 16710 H 1555.98 -7.82084 -0.575735 0
M  V30 16711 N 1553.48 0.89303 -1.29857 0
M  V30 16712 C 1554.41 2.01422 -1.18117 0
M  V30 16713 C 1555.39 1.6994 -0.0737487 0
M  V30 16714 O 1556.58 1.92527 -0.254387 0
M  V30 16715 C 1553.71 3.36385 -0.863842 0
M  V30 16716 C 1552.66 3.821 -1.92831 0
M  V30 16717 C 1551.99 5.14263 -1.46415 0
M  V30 16718 C 1553.29 4.01699 -3.33819 0
M  V30 16719 H 1554.98 2.11502 -2.11913 0
M  V30 16720 H 1552.53 1.01622 -1.02024 0
M  V30 16721 H 1554.48 4.14335 -0.768397 0
M  V30 16722 H 1553.21 3.26415 0.109816 0
M  V30 16723 H 1551.87 3.06372 -2.01325 0
M  V30 16724 H 1551.51 5.00714 -0.478983 0
M  V30 16725 H 1551.21 5.45821 -2.17609 0
M  V30 16726 H 1552.74 5.94747 -1.38234 0
M  V30 16727 H 1554.15 4.70111 -3.28129 0
M  V30 16728 H 1552.55 4.44621 -4.03029 0
M  V30 16729 H 1553.62 3.05816 -3.76304 0
M  V30 16730 N 1554.96 1.12442 1.10429 0
M  V30 16731 C 1555.89 0.814745 2.18824 0
M  V30 16732 C 1556.87 -0.221476 1.68652 0
M  V30 16733 O 1558.06 -0.0826537 1.94024 0
M  V30 16734 C 1555.19 0.268632 3.4626 0
M  V30 16735 C 1554.14 1.23792 4.09707 0
M  V30 16736 C 1553.47 0.552034 5.31843 0
M  V30 16737 C 1554.77 2.5926 4.53411 0
M  V30 16738 H 1556.46 1.72111 2.44986 0
M  V30 16739 H 1554.01 0.828968 1.17746 0
M  V30 16740 H 1555.96 0.0397207 4.21381 0
M  V30 16741 H 1554.68 -0.673079 3.19589 0
M  V30 16742 H 1553.34 1.45264 3.36592 0
M  V30 16743 H 1552.99 -0.394821 5.01448 0
M  V30 16744 H 1552.69 1.19861 5.75245 0
M  V30 16745 H 1554.22 0.332161 6.09696 0
M  V30 16746 H 1555.63 2.41816 5.19806 0
M  V30 16747 H 1554.03 3.19997 5.07663 0
M  V30 16748 H 1555.1 3.17699 3.66327 0
M  V30 16749 N 1556.44 -1.28223 0.91633 0
M  V30 16750 C 1557.69 -1.95153 0.551639 0
M  V30 16751 C 1558.02 -1.71938 -0.902829 0
M  V30 16752 O 1557.29 -1.04184 -1.64243 0
M  V30 16753 C 1557.58 -3.49565 0.864647 0
M  V30 16754 C 1557.43 -3.82171 2.37203 0
M  V30 16755 C 1558.75 -4.38604 0.362593 0
M  V30 16756 H 1555.87 -0.708808 0.20189 0
M  V30 16757 H 1558.51 -1.51545 1.14604 0
M  V30 16758 H 1556.66 -3.8684 0.358782 0
M  V30 16759 H 1558.33 -3.54751 2.94872 0
M  V30 16760 H 1556.57 -3.29124 2.82595 0
M  V30 16761 H 1557.25 -4.90007 2.54159 0
M  V30 16762 H 1559.72 -4.08416 0.795983 0
M  V30 16763 H 1558.6 -5.45493 0.61066 0
M  V30 16764 H 1558.86 -4.35911 -0.737137 0
M  V30 16765 N 1557.92 -0.68059 -1.42147 0
M  V30 16766 C 1559.15 -0.213839 -2.05792 0
M  V30 16767 C 1559.56 1.13123 -1.51158 0
M  V30 16768 O 1558.92 1.7039 -0.653708 0
M  V30 16769 C 1558.97 -0.146507 -3.61203 0
M  V30 16770 O 1558.69 -1.43843 -4.13813 0
M  V30 16771 C 1560.19 0.343043 -4.41971 0
M  V30 16772 H 1557.41 -0.10262 -0.663106 0
M  V30 16773 H 1559.95 -0.928957 -1.82183 0
M  V30 16774 H 1558.11 0.519335 -3.83903 0
M  V30 16775 H 1558.52 -1.31561 -5.07732 0
M  V30 16776 H 1560 0.339053 -5.50958 0
M  V30 16777 H 1560.47 1.37933 -4.16979 0
M  V30 16778 H 1561.08 -0.291267 -4.24301 0
M  V30 16779 N 1559.4 1.51781 -0.424309 0
M  V30 16780 C 1560.63 2.06088 0.145337 0
M  V30 16781 C 1561.03 1.29297 1.38127 0
M  V30 16782 O 1560.38 0.342227 1.80484 0
M  V30 16783 C 1560.44 3.55333 0.545777 0
M  V30 16784 C 1560.1 4.53285 -0.581528 0
M  V30 16785 C 1561.1 4.99278 -1.44973 0
M  V30 16786 C 1558.78 4.96539 -0.758549 0
M  V30 16787 C 1560.78 5.87185 -2.47977 0
M  V30 16788 C 1558.47 5.84239 -1.79188 0
M  V30 16789 C 1559.46 6.29458 -2.65089 0
M  V30 16790 O 1559.15 7.15418 -3.6665 0
M  V30 16791 H 1558.88 0.675782 0.0171719 0
M  V30 16792 H 1561.44 1.96492 -0.598349 0
M  V30 16793 H 1559.67 3.62668 1.34197 0
M  V30 16794 H 1561.36 3.92215 1.04508 0
M  V30 16795 H 1562.12 4.66566 -1.32445 0
M  V30 16796 H 1558 4.60893 -0.0995452 0
M  V30 16797 H 1561.55 6.22401 -3.15059 0
M  V30 16798 H 1557.44 6.16365 -1.91742 0
M  V30 16799 H 1558.21 7.33566 -3.63074 0
M  V30 16800 N 1560.87 0.155222 1.56834 0
M  V30 16801 C 1561.81 -0.819563 2.12975 0
M  V30 16802 C 1562.78 -1.23685 1.05549 0
M  V30 16803 O 1563.97 -1.3315 1.33429 0
M  V30 16804 C 1561.1 -2.10155 2.65617 0
M  V30 16805 C 1560.14 -1.82954 3.85266 0
M  V30 16806 S 1560.97 -1.01317 5.25828 0
M  V30 16807 C 1562.13 -2.30617 5.81865 0
M  V30 16808 H 1562.36 -0.342172 2.95324 0
M  V30 16809 H 1559.9 -0.0591958 1.54286 0
M  V30 16810 H 1561.85 -2.83797 2.96597 0
M  V30 16811 H 1560.52 -2.55008 1.83383 0
M  V30 16812 H 1559.71 -2.78035 4.20372 0
M  V30 16813 H 1559.31 -1.17417 3.55091 0
M  V30 16814 H 1561.6 -3.26206 5.93798 0
M  V30 16815 H 1562.55 -2.00004 6.79267 0
M  V30 16816 H 1562.95 -2.41642 5.10166 0
M  V30 16817 N 1562.35 -1.57153 -0.118549 0
M  V30 16818 C 1563.6 -1.8515 -0.82748 0
M  V30 16819 C 1563.93 -0.741026 -1.79506 0
M  V30 16820 O 1563.21 0.253095 -1.92846 0
M  V30 16821 C 1563.49 -3.23734 -1.57698 0
M  V30 16822 C 1563.34 -4.45381 -0.628967 0
M  V30 16823 C 1564.66 -3.59895 -2.53305 0
M  V30 16824 H 1561.78 -0.673459 -0.29937 0
M  V30 16825 H 1564.42 -1.89778 -0.0917198 0
M  V30 16826 H 1562.57 -3.19919 -2.20418 0
M  V30 16827 H 1564.24 -4.61299 -0.0105746 0
M  V30 16828 H 1562.49 -4.33759 0.059462 0
M  V30 16829 H 1563.16 -5.3902 -1.19004 0
M  V30 16830 H 1565.63 -3.64503 -2.0069 0
M  V30 16831 H 1564.51 -4.57839 -3.02778 0
M  V30 16832 H 1564.77 -2.87338 -3.3599 0
M  V30 16833 N 1563.83 0.388742 -1.5273 0
M  V30 16834 C 1564.76 1.48133 -1.80496 0
M  V30 16835 C 1565.74 1.56899 -0.657008 0
M  V30 16836 O 1566.93 1.71844 -0.904621 0
M  V30 16837 C 1564.06 2.85742 -1.97405 0
M  V30 16838 C 1563.01 2.91815 -3.13094 0
M  V30 16839 C 1562.34 4.31876 -3.15258 0
M  V30 16840 C 1563.64 2.61438 -4.52159 0
M  V30 16841 H 1565.33 1.25147 -2.7199 0
M  V30 16842 H 1562.88 0.600603 -1.30877 0
M  V30 16843 H 1564.83 3.62182 -2.15412 0
M  V30 16844 H 1563.55 3.10065 -1.02601 0
M  V30 16845 H 1562.21 2.17824 -2.9487 0
M  V30 16846 H 1561.86 4.53239 -2.18135 0
M  V30 16847 H 1561.56 4.3686 -3.92972 0
M  V30 16848 H 1563.08 5.10221 -3.3542 0
M  V30 16849 H 1564.5 3.27596 -4.70483 0
M  V30 16850 H 1562.89 2.77771 -5.31943 0
M  V30 16851 H 1563.96 1.56778 -4.58856 0
M  V30 16852 N 1565.31 1.43698 0.647203 0
M  V30 16853 C 1566.53 1.49301 1.43958 0
M  V30 16854 C 1566.96 0.11395 1.87755 0
M  V30 16855 O 1566.32 -0.893571 1.5775 0
M  V30 16856 C 1566.36 2.44905 2.64677 0
M  V30 16857 O 1565.47 1.93947 3.63948 0
M  V30 16858 H 1564.81 0.504771 0.431396 0
M  V30 16859 H 1567.34 1.88673 0.791432 0
M  V30 16860 H 1567.35 2.62409 3.12419 0
M  V30 16861 H 1566.02 3.45083 2.32143 0
M  V30 16862 H 1564.6 1.86133 3.23124 0
M  V30 16863 N 1566.79 -0.886131 1.30328 0
M  V30 16864 C 1567.7 -2.02453 1.18532 0
M  V30 16865 C 1568.71 -1.7368 0.105506 0
M  V30 16866 O 1569.89 -1.98838 0.320217 0
M  V30 16867 C 1566.95 -3.3543 0.876792 0
M  V30 16868 C 1566.01 -3.77633 2.04185 0
M  V30 16869 C 1565.25 -5.04264 1.74795 0
M  V30 16870 O 1565.47 -5.66388 0.675323 0
M  V30 16871 O 1564.4 -5.42847 2.60001 0
M  V30 16872 H 1568.23 -2.15333 2.14162 0
M  V30 16873 H 1565.82 -1.01193 1.09911 0
M  V30 16874 H 1567.7 -4.15206 0.719882 0
M  V30 16875 H 1566.37 -3.23662 -0.0496117 0
M  V30 16876 H 1565.28 -2.98567 2.25408 0
M  V30 16877 H 1566.61 -3.94004 2.94994 0
M  V30 16878 N 1568.26 -1.13026 -1.09832 0
M  V30 16879 C 1569.2 -0.761606 -2.16176 0
M  V30 16880 C 1570.21 0.214709 -1.61378 0
M  V30 16881 O 1571.4 -0.00487178 -1.78499 0
M  V30 16882 C 1568.5 -0.107513 -3.38729 0
M  V30 16883 C 1567.67 -1.11487 -4.22953 0
M  V30 16884 C 1566.73 -0.487243 -5.23939 0
M  V30 16885 O 1565.76 -1.14605 -5.57543 0
M  V30 16886 N 1566.96 0.742571 -5.75731 0
M  V30 16887 H 1569.72 -1.67669 -2.48409 0
M  V30 16888 H 1567.28 -1.0227 -1.25509 0
M  V30 16889 H 1569.28 0.324507 -4.03397 0
M  V30 16890 H 1567.85 0.710438 -3.0442 0
M  V30 16891 H 1567.07 -1.72432 -3.54487 0
M  V30 16892 H 1568.35 -1.79584 -4.76053 0
M  V30 16893 H 1567.75 1.29667 -5.50639 0
M  V30 16894 H 1566.31 1.11731 -6.42152 0
M  V30 16895 N 1569.74 1.27735 -0.923117 0
M  V30 16896 C 1570.69 2.26997 -0.417254 0
M  V30 16897 C 1571.66 1.57968 0.513364 0
M  V30 16898 O 1572.84 1.8581 0.433521 0
M  V30 16899 C 1569.98 3.43537 0.328089 0
M  V30 16900 C 1569.1 4.27291 -0.636112 0
M  V30 16901 C 1568.23 5.31044 0.128614 0
M  V30 16902 C 1567.27 6.06466 -0.828592 0
M  V30 16903 N 1566.41 7.02033 -0.0967858 0
M  V30 16904 H 1571.25 2.69643 -1.26872 0
M  V30 16905 H 1568.79 1.32597 -0.6369 0
M  V30 16906 H 1570.74 4.0991 0.776504 0
M  V30 16907 H 1569.37 3.01855 1.14383 0
M  V30 16908 H 1568.43 3.60875 -1.20306 0
M  V30 16909 H 1569.74 4.79679 -1.36784 0
M  V30 16910 H 1568.89 6.03345 0.637159 0
M  V30 16911 H 1567.63 4.79448 0.893341 0
M  V30 16912 H 1566.64 5.33008 -1.34843 0
M  V30 16913 H 1567.86 6.60151 -1.59303 0
M  V30 16914 H 1565.81 6.52774 0.649779 0
M  V30 16915 H 1565.72 7.52087 -0.768171 0
M  V30 16916 H 1566.99 7.78517 0.391257 0
M  V30 16917 N 1571.22 0.688118 1.41784 0
M  V30 16918 C 1572.18 0.0271411 2.29184 0
M  V30 16919 C 1573.18 -0.715537 1.44002 0
M  V30 16920 O 1574.37 -0.551542 1.65238 0
M  V30 16921 C 1571.51 -0.97206 3.26747 0
M  V30 16922 H 1572.7 0.79658 2.89127 0
M  V30 16923 H 1570.25 0.451198 1.49646 0
M  V30 16924 H 1570.99 -1.76953 2.71769 0
M  V30 16925 H 1570.77 -0.442746 3.89592 0
M  V30 16926 H 1572.26 -1.43256 3.92259 0
M  V30 16927 N 1572.7 -1.51554 0.432352 0
M  V30 16928 C 1573.63 -2.30514 -0.372243 0
M  V30 16929 C 1574.61 -1.35712 -1.02549 0
M  V30 16930 O 1575.79 -1.6463 -1.03009 0
M  V30 16931 C 1572.92 -3.14353 -1.47646 0
M  V30 16932 C 1571.88 -4.17392 -0.946974 0
M  V30 16933 C 1571.2 -4.89721 -2.14656 0
M  V30 16934 C 1572.5 -5.22298 0.0151377 0
M  V30 16935 H 1574.2 -2.98024 0.28668 0
M  V30 16936 H 1571.74 -1.43325 0.139315 0
M  V30 16937 H 1573.7 -3.68369 -2.04651 0
M  V30 16938 H 1572.42 -2.44654 -2.1636 0
M  V30 16939 H 1571.08 -3.6442 -0.399174 0
M  V30 16940 H 1570.73 -4.1653 -2.81978 0
M  V30 16941 H 1570.43 -5.59393 -1.79869 0
M  V30 16942 H 1571.95 -5.46559 -2.72224 0
M  V30 16943 H 1573.37 -5.71416 -0.464447 0
M  V30 16944 H 1571.76 -5.99468 0.275339 0
M  V30 16945 H 1572.83 -4.75436 0.953357 0
M  V30 16946 N 1574.18 -0.163538 -1.56749 0
M  V30 16947 C 1575.42 0.482449 -1.96257 0
M  V30 16948 C 1575.75 1.64302 -1.05023 0
M  V30 16949 O 1575.02 1.95562 -0.115027 0
M  V30 16950 H 1573.6 0.181222 -0.724684 0
M  V30 16951 H 1576.26 -0.242903 -1.9338 0
M  V30 16952 H 1575.35 0.847634 -3.00369 0
M  V30 16953 N 1575.65 1.57214 0.110213 0
M  V30 16954 C 1576.9 1.84498 0.815059 0
M  V30 16955 C 1577.22 0.750531 1.80628 0
M  V30 16956 O 1578.42 0.910042 2.55794 0
M  V30 16957 C 1576.88 3.27138 1.50028 0
M  V30 16958 C 1576.49 4.44616 0.549603 0
M  V30 16959 C 1578.23 3.63662 2.18975 0
M  V30 16960 C 1576.14 5.78285 1.23855 0
M  V30 16961 H 1575.07 0.688165 0.308132 0
M  V30 16962 H 1577.72 1.83374 0.0678595 0
M  V30 16963 H 1576.1 3.22758 2.29441 0
M  V30 16964 H 1577.27 4.60312 -0.211944 0
M  V30 16965 H 1575.59 4.16387 -0.0333571 0
M  V30 16966 H 1578.19 4.60804 2.71226 0
M  V30 16967 H 1578.53 2.91532 2.97178 0
M  V30 16968 H 1579.06 3.69865 1.46439 0
M  V30 16969 H 1575.8 6.53608 0.497629 0
M  V30 16970 H 1575.32 5.66459 1.9719 0
M  V30 16971 H 1577 6.22338 1.76929 0
M  V30 16972 N 1577.13 -0.380637 1.52934 0
M  V30 16973 C 1578.06 -1.48518 1.74571 0
M  V30 16974 C 1579.08 -1.50272 0.626263 0
M  V30 16975 O 1580.27 -1.54023 0.902167 0
M  V30 16976 C 1577.37 -2.87339 1.79693 0
M  V30 16977 C 1576.54 -3.09454 3.09123 0
M  V30 16978 C 1575.6 -4.28305 3.05682 0
M  V30 16979 O 1574.62 -4.24205 3.79524 0
M  V30 16980 N 1575.83 -5.34932 2.2545 0
M  V30 16981 H 1578.59 -1.30341 2.69873 0
M  V30 16982 H 1576.15 -0.57023 1.51526 0
M  V30 16983 H 1578.14 -3.64961 1.74887 0
M  V30 16984 H 1576.71 -2.98835 0.917414 0
M  V30 16985 H 1575.93 -2.19623 3.27352 0
M  V30 16986 H 1577.22 -3.21089 3.94689 0
M  V30 16987 H 1576.62 -5.41121 1.64939 0
M  V30 16988 H 1575.18 -6.11189 2.26476 0
M  V30 16989 N 1578.61 -1.44039 -0.639573 0
M  V30 16990 C 1579.84 -1.49626 -1.42462 0
M  V30 16991 C 1580.25 -0.117078 -1.88837 0
M  V30 16992 O 1579.59 0.885666 -1.6094 0
M  V30 16993 C 1579.65 -2.39182 -2.68388 0
M  V30 16994 C 1579.32 -3.86496 -2.43865 0
M  V30 16995 C 1580.31 -4.7725 -2.06224 0
M  V30 16996 C 1578 -4.31117 -2.57766 0
M  V30 16997 C 1579.99 -6.10625 -1.82801 0
M  V30 16998 C 1577.68 -5.64541 -2.33958 0
M  V30 16999 C 1578.68 -6.54113 -1.96533 0
M  V30 17000 O 1578.37 -7.85068 -1.72983 0
M  V30 17001 H 1578.1 -0.510054 -0.443645 0
M  V30 17002 H 1580.65 -1.89593 -0.790162 0
M  V30 17003 H 1578.88 -1.94127 -3.34442 0
M  V30 17004 H 1580.57 -2.35816 -3.30372 0
M  V30 17005 H 1581.34 -4.44051 -1.95048 0
M  V30 17006 H 1577.22 -3.61663 -2.85868 0
M  V30 17007 H 1580.76 -6.80499 -1.53514 0
M  V30 17008 H 1576.66 -5.97304 -2.44741 0
M  V30 17009 H 1577.43 -7.96782 -1.87298 0
M  V30 17010 N 1580.09 0.879207 -1.30796 0
M  V30 17011 C 1581.34 1.62828 -1.19715 0
M  V30 17012 C 1581.66 1.93429 0.247031 0
M  V30 17013 O 1580.93 1.57478 1.16522 0
M  V30 17014 H 1579.51 0.603607 -0.440077 0
M  V30 17015 H 1582.17 1.05309 -1.64 0
M  V30 17016 H 1581.27 2.57591 -1.76219 0
M  V30 17017 N 1581.57 1.13606 1.09231 0
M  V30 17018 C 1582.79 0.922667 1.85746 0
M  V30 17019 C 1583.22 -0.523381 1.80672 0
M  V30 17020 O 1582.58 -1.37156 1.18566 0
M  V30 17021 C 1582.62 1.41762 3.31566 0
M  V30 17022 O 1581.73 0.60418 4.0795 0
M  V30 17023 H 1581.07 0.330523 0.575891 0
M  V30 17024 H 1583.6 1.51123 1.37924 0
M  V30 17025 H 1583.61 1.42212 3.82413 0
M  V30 17026 H 1582.28 2.47048 3.34574 0
M  V30 17027 H 1580.86 0.667721 3.66873 0
M  V30 17028 N 1583.05 -1.27244 0.929878 0
M  V30 17029 C 1584.29 -1.93886 0.570331 0
M  V30 17030 C 1584.61 -1.7342 -0.891656 0
M  V30 17031 O 1583.88 -1.0832 -1.63228 0
M  V30 17032 H 1582.46 -0.717476 0.207937 0
M  V30 17033 H 1585.13 -1.5491 1.18275 0
M  V30 17034 H 1584.22 -3.02236 0.778463 0
M  V30 17035 N 1584.52 -0.695628 -1.41417 0
M  V30 17036 C 1585.43 -0.0308378 -2.3458 0
M  V30 17037 C 1586.45 0.766 -1.56232 0
M  V30 17038 O 1587.63 0.703548 -1.88712 0
M  V30 17039 C 1584.69 0.894162 -3.34971 0
M  V30 17040 C 1583.75 0.0895231 -4.29207 0
M  V30 17041 C 1582.98 0.970467 -5.24802 0
M  V30 17042 O 1583.21 2.20997 -5.25848 0
M  V30 17043 O 1582.14 0.420114 -6.00432 0
M  V30 17044 H 1585.97 -0.798775 -2.93007 0
M  V30 17045 H 1583.55 -0.455964 -1.42272 0
M  V30 17046 H 1585.43 1.42458 -3.9659 0
M  V30 17047 H 1584.11 1.64159 -2.78987 0
M  V30 17048 H 1583.02 -0.4855 -3.70936 0
M  V30 17049 H 1584.35 -0.619241 -4.88289 0
M  V30 17050 N 1586 1.51322 -0.440383 0
M  V30 17051 C 1587.25 2.02413 0.125248 0
M  V30 17052 C 1587.58 1.32374 1.42094 0
M  V30 17053 O 1586.86 0.439624 1.89467 0
M  V30 17054 C 1587.14 3.58483 0.340858 0
M  V30 17055 C 1586.99 4.39134 -0.973701 0
M  V30 17056 C 1588.31 4.25891 1.10927 0
M  V30 17057 H 1585.43 0.735683 0.0440452 0
M  V30 17058 H 1588.07 1.80932 -0.579976 0
M  V30 17059 H 1586.22 3.76917 0.941572 0
M  V30 17060 H 1587.89 4.32343 -1.60863 0
M  V30 17061 H 1586.14 4.04097 -1.57759 0
M  V30 17062 H 1586.81 5.46506 -0.776845 0
M  V30 17063 H 1589.28 4.11746 0.600403 0
M  V30 17064 H 1588.16 5.34967 1.2289 0
M  V30 17065 H 1588.42 3.86958 2.13813 0
M  V30 17066 N 1587.48 0.171848 1.5666 0
M  V30 17067 C 1588.73 -0.473669 1.97191 0
M  V30 17068 C 1589.06 -1.6286 1.05784 0
M  V30 17069 O 1588.33 -1.94216 0.105084 0
M  V30 17070 C 1588.62 -0.956134 3.47174 0
M  V30 17071 C 1588.47 0.199007 4.4936 0
M  V30 17072 C 1589.79 -1.82962 4.00266 0
M  V30 17073 H 1586.91 -0.170704 0.716958 0
M  V30 17074 H 1589.55 0.25809 1.88239 0
M  V30 17075 H 1587.7 -1.57969 3.54934 0
M  V30 17076 H 1589.37 0.836109 4.53659 0
M  V30 17077 H 1587.61 0.85442 4.25302 0
M  V30 17078 H 1588.29 -0.180704 5.51704 0
M  V30 17079 H 1590.76 -1.30394 3.95141 0
M  V30 17080 H 1589.64 -2.13621 5.05625 0
M  V30 17081 H 1589.9 -2.77557 3.44114 0
M  V30 17082 N 1588.96 -1.5727 -0.101874 0
M  V30 17083 C 1589.89 -1.96813 -1.15498 0
M  V30 17084 C 1590.87 -0.840319 -1.39203 0
M  V30 17085 O 1592.05 -1.10002 -1.53075 0
M  V30 17086 C 1589.18 -2.27908 -2.5055 0
M  V30 17087 C 1588.23 -3.50388 -2.43168 0
M  V30 17088 S 1589.06 -5.02354 -1.85475 0
M  V30 17089 C 1590.21 -5.36619 -3.22166 0
M  V30 17090 H 1590.45 -2.8583 -0.81785 0
M  V30 17091 H 1587.98 -1.5127 -0.309296 0
M  V30 17092 H 1589.94 -2.465 -3.2825 0
M  V30 17093 H 1588.6 -1.39475 -2.81435 0
M  V30 17094 H 1587.79 -3.69565 -3.42692 0
M  V30 17095 H 1587.39 -3.31271 -1.73596 0
M  V30 17096 H 1589.69 -5.32849 -4.18423 0
M  V30 17097 H 1590.63 -6.37703 -3.07799 0
M  V30 17098 H 1591.04 -4.64082 -3.21385 0
M  V30 17099 N 1590.44 0.372521 -1.53134 0
M  V30 17100 C 1591.37 1.47817 -1.73855 0
M  V30 17101 C 1592.35 1.51645 -0.586723 0
M  V30 17102 O 1593.53 1.69803 -0.818496 0
M  V30 17103 C 1590.66 2.86213 -1.81107 0
M  V30 17104 C 1589.7 3.00139 -3.03016 0
M  V30 17105 S 1590.54 2.69617 -4.62674 0
M  V30 17106 C 1591.69 4.10176 -4.72765 0
M  V30 17107 H 1591.93 1.30019 -2.67362 0
M  V30 17108 H 1589.46 0.566429 -1.43635 0
M  V30 17109 H 1591.42 3.65958 -1.85971 0
M  V30 17110 H 1590.08 3.01326 -0.886632 0
M  V30 17111 H 1589.27 4.0148 -3.0468 0
M  V30 17112 H 1588.87 2.28309 -2.96228 0
M  V30 17113 H 1591.16 5.04328 -4.52393 0
M  V30 17114 H 1592.11 4.1352 -5.7481 0
M  V30 17115 H 1592.52 3.96853 -4.01458 0
M  V30 17116 N 1591.91 1.44376 0.631925 0
M  V30 17117 C 1593.16 1.46827 1.38875 0
M  V30 17118 C 1593.48 0.101789 1.94734 0
M  V30 17119 O 1592.75 -0.86579 1.7573 0
M  V30 17120 H 1591.33 0.540642 0.515475 0
M  V30 17121 H 1593.99 1.80148 0.743822 0
M  V30 17122 H 1593.09 2.19321 2.22047 0
M  V30 17123 N 1593.39 -0.872258 1.31261 0
M  V30 17124 C 1594.34 -2.00065 1.18645 0
M  V30 17125 C 1595.33 -1.69132 0.0952872 0
M  V30 17126 O 1596.54 -1.78156 0.257022 0
M  V30 17127 H 1592.91 -0.656201 0.367293 0
M  V30 17128 H 1594.89 -2.07837 2.14117 0
M  V30 17129 C 1593.63 -3.35628 0.908241 0
M  V30 17130 H 1592.96 -3.5995 1.74 0
M  V30 17131 H 1594.4 -4.15184 0.860134 0
M  V30 17132 C 1592.86 -3.34647 -0.388993 0
M  V30 17133 O 1593.39 -3.76271 -1.40651 0
M  V30 17134 N 1591.59 -2.87768 -0.404708 0
M  V30 17135 H 1591.14 -2.5409 0.423824 0
M  V30 17136 H 1591.1 -2.87494 -1.27258 0
M  V30 17137 N 1594.87 -1.14184 -1.08627 0
M  V30 17138 C 1595.8 -0.849455 -2.17501 0
M  V30 17139 C 1596.78 0.194617 -1.68983 0
M  V30 17140 O 1597.97 0.0517757 -1.94131 0
M  V30 17141 C 1595.1 -0.323685 -3.45788 0
M  V30 17142 C 1594.05 -1.30294 -4.07685 0
M  V30 17143 C 1593.38 -0.636575 -5.30897 0
M  V30 17144 C 1594.68 -2.66441 -4.49229 0
M  V30 17145 H 1596.37 -1.75987 -2.42217 0
M  V30 17146 H 1593.92 -0.847595 -1.16412 0
M  V30 17147 H 1595.87 -0.106754 -4.21265 0
M  V30 17148 H 1594.59 0.62215 -3.20619 0
M  V30 17149 H 1593.25 -1.50601 -3.34238 0
M  V30 17150 H 1592.9 0.314995 -5.02013 0
M  V30 17151 H 1592.6 -1.28998 -5.73266 0
M  V30 17152 H 1594.12 -0.429117 -6.0909 0
M  V30 17153 H 1595.54 -2.50055 -5.15893 0
M  V30 17154 H 1593.93 -3.28033 -5.02508 0
M  V30 17155 H 1595 -3.23486 -3.61226 0
M  V30 17156 N 1596.35 1.26749 -0.936613 0
M  V30 17157 C 1597.28 2.2892 -0.460213 0
M  V30 17158 C 1598.26 1.63065 0.484135 0
M  V30 17159 O 1599.44 1.90305 0.386973 0
M  V30 17160 C 1596.57 3.46172 0.279648 0
M  V30 17161 C 1595.53 4.24083 -0.57771 0
M  V30 17162 C 1594.85 5.33903 0.291843 0
M  V30 17163 C 1596.15 4.88562 -1.84673 0
M  V30 17164 H 1597.85 2.69019 -1.31412 0
M  V30 17165 H 1595.39 1.29325 -0.633333 0
M  V30 17166 H 1597.35 4.16755 0.623931 0
M  V30 17167 H 1596.07 3.05014 1.16765 0
M  V30 17168 H 1594.73 3.55258 -0.904824 0
M  V30 17169 H 1594.38 4.88986 1.17906 0
M  V30 17170 H 1594.08 5.8694 -0.278372 0
M  V30 17171 H 1595.6 6.07326 0.631498 0
M  V30 17172 H 1597.02 5.51384 -1.56997 0
M  V30 17173 H 1595.41 5.51697 -2.36115 0
M  V30 17174 H 1596.48 4.11761 -2.56088 0
M  V30 17175 N 1597.83 0.703118 1.41046 0
M  V30 17176 C 1599.05 0.246552 2.05426 0
M  V30 17177 C 1599.47 -1.10704 1.52938 0
M  V30 17178 O 1598.83 -1.69329 0.680733 0
M  V30 17179 C 1598.88 0.203953 3.60924 0
M  V30 17180 O 1598.6 1.50408 4.11472 0
M  V30 17181 C 1600.1 -0.272686 4.42461 0
M  V30 17182 H 1597.32 0.113157 0.66139 0
M  V30 17183 H 1599.86 0.957823 1.80682 0
M  V30 17184 H 1598.02 -0.458194 3.84681 0
M  V30 17185 H 1598.43 1.39622 5.05575 0
M  V30 17186 H 1599.91 -0.251357 5.51427 0
M  V30 17187 H 1600.38 -1.31282 4.1912 0
M  V30 17188 H 1600.99 0.358733 4.23784 0
M  V30 17189 N 1599.3 -1.51086 0.448402 0
M  V30 17190 C 1600.25 -2.24885 -0.375609 0
M  V30 17191 C 1601.24 -1.27553 -0.980769 0
M  V30 17192 O 1602.43 -1.52583 -0.897076 0
M  V30 17193 C 1599.56 -3.10235 -1.47 0
M  V30 17194 C 1598.65 -4.15003 -0.873686 0
M  V30 17195 N 1599.04 -5.05799 -0.00756268 0
M  V30 17196 C 1597.33 -4.31182 -1.14009 0
M  V30 17197 C 1598.04 -5.80772 0.328514 0
M  V30 17198 N 1597.01 -5.42822 -0.290661 0
M  V30 17199 H 1600.81 -2.92446 0.291962 0
M  V30 17200 H 1598.33 -1.60287 0.261145 0
M  V30 17201 H 1600.32 -3.61691 -2.07328 0
M  V30 17202 H 1598.98 -2.44219 -2.13979 0
M  V30 17203 H 1600 -5.1665 0.359676 0
M  V30 17204 H 1596.67 -3.7639 -1.80656 0
M  V30 17205 H 1598.06 -6.63896 1.03399 0
M  V30 17206 N 1600.78 -0.180154 -1.56567 0
M  V30 17207 C 1601.73 0.763484 -2.19713 0
M  V30 17208 C 1602.72 1.23095 -1.16378 0
M  V30 17209 O 1603.93 1.19558 -1.34558 0
M  V30 17210 H 1600.31 0.264515 -0.703943 0
M  V30 17211 H 1602.28 0.207039 -2.97681 0
M  V30 17212 C 1601.03 1.97884 -2.85897 0
M  V30 17213 H 1600.35 1.62818 -3.65144 0
M  V30 17214 H 1601.79 2.61779 -3.33538 0
M  V30 17215 C 1600.25 2.80811 -1.86136 0
M  V30 17216 O 1600.78 3.78253 -1.35232 0
M  V30 17217 N 1598.98 2.46003 -1.54697 0
M  V30 17218 H 1598.53 1.66823 -1.96285 0
M  V30 17219 H 1598.49 3.01774 -0.88202 0
M  V30 17220 N 1602.26 1.57322 0.0935319 0
M  V30 17221 C 1603.21 2.03184 1.13222 0
M  V30 17222 C 1604.2 0.933184 1.41379 0
M  V30 17223 O 1605.41 1.11836 1.41042 0
M  V30 17224 H 1601.78 0.647541 0.382354 0
M  V30 17225 H 1603.75 2.89606 0.719105 0
M  V30 17226 C 1602.5 2.47336 2.44378 0
M  V30 17227 H 1601.83 3.31456 2.23556 0
M  V30 17228 H 1603.27 2.83199 3.15554 0
M  V30 17229 C 1601.73 1.34728 3.08788 0
M  V30 17230 O 1602.26 0.677285 3.95949 0
M  V30 17231 N 1600.46 1.09787 2.69063 0
M  V30 17232 H 1600.01 1.64451 1.98277 0
M  V30 17233 H 1599.97 0.346436 3.12485 0
M  V30 17234 N 1603.74 -0.364395 1.53329 0
M  V30 17235 C 1604.99 -1.10423 1.68789 0
M  V30 17236 C 1605.3 -1.90428 0.446819 0
M  V30 17237 O 1606.51 -2.67188 0.481978 0
M  V30 17238 C 1604.96 -2.01228 2.98388 0
M  V30 17239 C 1604.57 -1.26529 4.29761 0
M  V30 17240 C 1606.31 -2.75196 3.23214 0
M  V30 17241 C 1604.22 -2.16243 5.50448 0
M  V30 17242 H 1603.15 -0.415935 0.628899 0
M  V30 17243 H 1605.8 -0.365145 1.7983 0
M  V30 17244 H 1604.18 -2.78872 2.81152 0
M  V30 17245 H 1605.36 -0.5394 4.57632 0
M  V30 17246 H 1603.67 -0.644181 4.11387 0
M  V30 17247 H 1606.27 -3.42548 4.10567 0
M  V30 17248 H 1606.61 -3.40629 2.39327 0
M  V30 17249 H 1607.15 -2.04635 3.4113 0
M  V30 17250 H 1603.89 -1.55385 6.36817 0
M  V30 17251 H 1603.41 -2.86678 5.26855 0
M  V30 17252 H 1605.08 -2.75774 5.85284 0
M  V30 17253 N 1605.22 -1.44709 -0.62426 0
M  V30 17254 C 1606.13 -1.54608 -1.76447 0
M  V30 17255 C 1607.14 -0.43137 -1.68568 0
M  V30 17256 O 1608.32 -0.6897 -1.89222 0
M  V30 17257 C 1605.38 -1.49404 -3.12857 0
M  V30 17258 C 1604.44 -2.71782 -3.32315 0
M  V30 17259 C 1603.68 -2.66817 -4.62217 0
M  V30 17260 O 1603.9 -1.73205 -5.43467 0
M  V30 17261 O 1602.83 -3.57773 -4.84027 0
M  V30 17262 H 1606.66 -2.50951 -1.71048 0
M  V30 17263 H 1604.25 -1.27033 -0.786326 0
M  V30 17264 H 1606.13 -1.4905 -3.9416 0
M  V30 17265 H 1604.8 -0.562078 -3.18783 0
M  V30 17266 H 1603.71 -2.77702 -2.50664 0
M  V30 17267 H 1605.04 -3.64048 -3.31255 0
M  V30 17268 N 1606.69 0.865285 -1.31722 0
M  V30 17269 C 1607.94 1.62108 -1.21855 0
M  V30 17270 C 1608.27 1.9293 0.221714 0
M  V30 17271 O 1607.55 1.56423 1.15595 0
M  V30 17272 C 1607.83 2.94828 -2.06756 0
M  V30 17273 C 1607.68 2.70855 -3.59107 0
M  V30 17274 C 1609 3.95983 -1.92055 0
M  V30 17275 H 1606.12 0.588234 -0.444015 0
M  V30 17276 H 1608.76 0.999922 -1.6156 0
M  V30 17277 H 1606.91 3.47843 -1.73025 0
M  V30 17278 H 1608.59 2.24477 -4.02999 0
M  V30 17279 H 1606.83 2.05004 -3.82303 0
M  V30 17280 H 1607.5 3.65312 -4.13825 0
M  V30 17281 H 1609.98 3.52193 -2.21584 0
M  V30 17282 H 1608.85 4.86724 -2.53754 0
M  V30 17283 H 1609.11 4.33148 -0.885174 0
M  V30 17284 N 1608.17 1.14759 1.0802 0
M  V30 17285 C 1609.42 0.919609 1.80751 0
M  V30 17286 C 1609.75 -0.552268 1.86182 0
M  V30 17287 O 1609.03 -1.40922 1.34057 0
M  V30 17288 C 1609.31 1.52611 3.26162 0
M  V30 17289 C 1609.16 3.06811 3.28918 0
M  V30 17290 C 1610.48 1.20625 4.23246 0
M  V30 17291 H 1607.6 0.33551 0.656203 0
M  V30 17292 H 1610.24 1.41816 1.26444 0
M  V30 17293 H 1608.39 1.10213 3.72539 0
M  V30 17294 H 1610.06 3.58068 2.90835 0
M  V30 17295 H 1608.31 3.41055 2.68075 0
M  V30 17296 H 1608.98 3.44357 4.31419 0
M  V30 17297 H 1611.45 1.57287 3.85227 0
M  V30 17298 H 1610.33 1.65689 5.23296 0
M  V30 17299 H 1610.59 0.122177 4.41931 0
M  V30 17300 N 1609.65 -1.26251 0.943322 0
M  V30 17301 C 1610.88 -1.97739 0.608852 0
M  V30 17302 C 1611.29 -1.70225 -0.81663 0
M  V30 17303 O 1610.65 -0.97172 -1.54479 0
M  V30 17304 C 1610.7 -3.51505 0.844172 0
M  V30 17305 O 1610.42 -3.78063 2.21359 0
M  V30 17306 C 1611.92 -4.40233 0.52054 0
M  V30 17307 H 1609.14 -0.630619 0.229262 0
M  V30 17308 H 1611.69 -1.6071 1.26461 0
M  V30 17309 H 1609.84 -3.86687 0.23499 0
M  V30 17310 H 1610.26 -4.72582 2.27523 0
M  V30 17311 H 1611.73 -5.47074 0.735802 0
M  V30 17312 H 1612.21 -4.35811 -0.544541 0
M  V30 17313 H 1612.81 -4.10599 1.10854 0
M  V30 17314 N 1611.13 -0.710588 -1.40671 0
M  V30 17315 C 1612.36 -0.257069 -2.04994 0
M  V30 17316 C 1612.77 1.10431 -1.53628 0
M  V30 17317 O 1612.11 1.70422 -0.685726 0
M  V30 17318 C 1612.17 -0.153646 -3.59172 0
M  V30 17319 C 1611.84 -1.4495 -4.33403 0
M  V30 17320 C 1612.83 -2.39042 -4.61687 0
M  V30 17321 C 1610.52 -1.70704 -4.72404 0
M  V30 17322 C 1612.51 -3.57137 -5.27951 0
M  V30 17323 C 1610.2 -2.89082 -5.384 0
M  V30 17324 C 1611.2 -3.82121 -5.66103 0
M  V30 17325 O 1610.89 -4.98424 -6.30737 0
M  V30 17326 H 1610.62 -0.114202 -0.666284 0
M  V30 17327 H 1613.17 -0.968028 -1.81158 0
M  V30 17328 H 1611.4 0.613213 -3.81807 0
M  V30 17329 H 1613.09 0.264655 -4.05036 0
M  V30 17330 H 1613.86 -2.20407 -4.32025 0
M  V30 17331 H 1609.74 -0.99142 -4.50213 0
M  V30 17332 H 1613.28 -4.29775 -5.4949 0
M  V30 17333 H 1609.18 -3.07627 -5.67482 0
M  V30 17334 H 1609.94 -4.98436 -6.49233 0
M  V30 17335 N 1612.61 1.50847 -0.456408 0
M  V30 17336 C 1613.85 2.02235 0.103618 0
M  V30 17337 C 1614.18 1.33939 1.41034 0
M  V30 17338 O 1613.44 0.449209 1.90475 0
M  V30 17339 C 1613.74 3.55678 0.350374 0
M  V30 17340 C 1613.4 4.42371 -0.872844 0
M  V30 17341 C 1612.06 4.65784 -1.20825 0
M  V30 17342 C 1614.42 4.9311 -1.68797 0
M  V30 17343 C 1611.74 5.3718 -2.35911 0
M  V30 17344 C 1614.1 5.65769 -2.82998 0
M  V30 17345 C 1612.76 5.8744 -3.16971 0
M  V30 17346 H 1612.03 0.740029 0.0379167 0
M  V30 17347 H 1614.68 1.81609 -0.607497 0
M  V30 17348 H 1612.98 3.74739 1.14359 0
M  V30 17349 H 1614.68 3.92991 0.797418 0
M  V30 17350 H 1611.27 4.24358 -0.601511 0
M  V30 17351 H 1615.45 4.74889 -1.44203 0
M  V30 17352 H 1610.71 5.52169 -2.62524 0
M  V30 17353 H 1614.88 6.04069 -3.46516 0
M  V30 17354 H 1612.51 6.42541 -4.06258 0
M  V30 17355 N 1614.09 0.188454 1.56469 0
M  V30 17356 C 1615.02 -0.730379 2.21783 0
M  V30 17357 C 1616 -1.22629 1.17882 0
M  V30 17358 O 1617.18 -1.27634 1.46367 0
M  V30 17359 C 1614.31 -1.95278 2.872 0
M  V30 17360 C 1613.27 -1.59205 3.97288 0
M  V30 17361 C 1612.59 -2.89052 4.49836 0
M  V30 17362 C 1613.89 -0.807027 5.16027 0
M  V30 17363 H 1615.59 -0.185914 2.98822 0
M  V30 17364 H 1613.13 -0.0879804 1.43731 0
M  V30 17365 H 1615.08 -2.60074 3.31571 0
M  V30 17366 H 1613.81 -2.52167 2.07556 0
M  V30 17367 H 1612.47 -0.967713 3.53597 0
M  V30 17368 H 1612.12 -3.44017 3.66963 0
M  V30 17369 H 1611.82 -2.65663 5.24115 0
M  V30 17370 H 1613.34 -3.54847 4.96906 0
M  V30 17371 H 1614.75 -1.35794 5.56986 0
M  V30 17372 H 1613.15 -0.671516 5.96331 0
M  V30 17373 H 1614.22 0.193251 4.84515 0
M  V30 17374 N 1615.56 -1.5737 -0.0851874 0
M  V30 17375 C 1616.49 -2.05796 -1.10319 0
M  V30 17376 C 1617.47 -0.948796 -1.4118 0
M  V30 17377 O 1618.66 -1.22069 -1.51039 0
M  V30 17378 C 1615.79 -2.49069 -2.42037 0
M  V30 17379 C 1614.74 -3.6374 -2.25561 0
M  V30 17380 C 1614.07 -3.93023 -3.62543 0
M  V30 17381 C 1615.37 -4.94274 -1.68793 0
M  V30 17382 H 1617.06 -2.91095 -0.700274 0
M  V30 17383 H 1614.61 -1.40039 -0.335405 0
M  V30 17384 H 1616.56 -2.81558 -3.13534 0
M  V30 17385 H 1615.29 -1.60781 -2.84283 0
M  V30 17386 H 1613.95 -3.31513 -1.56507 0
M  V30 17387 H 1613.59 -3.01887 -4.02335 0
M  V30 17388 H 1613.29 -4.70229 -3.52362 0
M  V30 17389 H 1614.82 -4.27995 -4.35491 0
M  V30 17390 H 1616.23 -5.25079 -2.30141 0
M  V30 17391 H 1614.63 -5.75711 -1.69344 0
M  V30 17392 H 1615.7 -4.80548 -0.648204 0
M  V30 17393 N 1617.04 0.356258 -1.53521 0
M  V30 17394 C 1617.97 1.44271 -1.83598 0
M  V30 17395 C 1618.95 1.5547 -0.690141 0
M  V30 17396 O 1620.14 1.69886 -0.940868 0
M  V30 17397 C 1617.27 2.8149 -2.03422 0
M  V30 17398 C 1616.22 2.85108 -3.19213 0
M  V30 17399 C 1615.55 4.25091 -3.24348 0
M  V30 17400 C 1616.85 2.51788 -4.57602 0
M  V30 17401 H 1618.54 1.1935 -2.74583 0
M  V30 17402 H 1616.09 0.572707 -1.32121 0
M  V30 17403 H 1618.04 3.57531 -2.23046 0
M  V30 17404 H 1616.76 3.07819 -1.09155 0
M  V30 17405 H 1615.42 2.1152 -2.99424 0
M  V30 17406 H 1615.07 4.4851 -2.277 0
M  V30 17407 H 1614.77 4.28426 -4.0215 0
M  V30 17408 H 1616.3 5.02992 -3.46167 0
M  V30 17409 H 1617.71 3.17542 -4.77326 0
M  V30 17410 H 1616.11 2.66426 -5.37715 0
M  V30 17411 H 1617.18 1.4701 -4.62078 0
M  V30 17412 N 1618.52 1.45038 0.616577 0
M  V30 17413 C 1619.75 1.51874 1.40064 0
M  V30 17414 C 1620.16 0.147105 1.88627 0
M  V30 17415 O 1619.5 -0.85995 1.62329 0
M  V30 17416 C 1619.56 2.43421 2.64549 0
M  V30 17417 C 1619.23 3.90326 2.37685 0
M  V30 17418 C 1620.22 4.80471 1.98605 0
M  V30 17419 C 1617.91 4.35163 2.50875 0
M  V30 17420 C 1619.9 6.13456 1.73064 0
M  V30 17421 C 1617.59 5.68192 2.24947 0
M  V30 17422 C 1618.59 6.57157 1.86102 0
M  V30 17423 O 1618.28 7.87721 1.60472 0
M  V30 17424 H 1618.01 0.517048 0.435474 0
M  V30 17425 H 1620.56 1.90826 0.759899 0
M  V30 17426 H 1618.79 1.99423 3.31312 0
M  V30 17427 H 1620.48 2.41042 3.26579 0
M  V30 17428 H 1621.25 4.47098 1.87959 0
M  V30 17429 H 1617.13 3.66165 2.80078 0
M  V30 17430 H 1620.67 6.82855 1.42669 0
M  V30 17431 H 1616.57 6.01122 2.35207 0
M  V30 17432 H 1617.33 7.99661 1.74598 0
M  V30 17433 N 1620 -0.858287 1.32179 0
M  V30 17434 C 1620.93 -1.98219 1.23415 0
M  V30 17435 C 1621.91 -1.69685 0.118779 0
M  V30 17436 O 1623.09 -1.91785 0.305342 0
M  V30 17437 C 1620.22 -3.33977 0.952725 0
M  V30 17438 C 1619.18 -3.76853 2.02894 0
M  V30 17439 C 1618.5 -5.10201 1.59999 0
M  V30 17440 C 1619.8 -3.92707 3.44352 0
M  V30 17441 H 1621.5 -2.05809 2.17446 0
M  V30 17442 H 1619.04 -0.988817 1.04682 0
M  V30 17443 H 1621 -4.12152 0.87798 0
M  V30 17444 H 1619.72 -3.26592 -0.023234 0
M  V30 17445 H 1618.38 -3.00926 2.09378 0
M  V30 17446 H 1618.03 -4.99268 0.61157 0
M  V30 17447 H 1617.73 -5.39859 2.32004 0
M  V30 17448 H 1619.25 -5.90873 1.53954 0
M  V30 17449 H 1620.67 -4.61246 3.40477 0
M  V30 17450 H 1619.06 -4.33779 4.14675 0
M  V30 17451 H 1620.13 -2.95731 3.8428 0
M  V30 17452 N 1621.48 -1.1533 -1.07409 0
M  V30 17453 C 1622.41 -0.872476 -2.16587 0
M  V30 17454 C 1623.39 0.176683 -1.6918 0
M  V30 17455 O 1624.57 0.0311826 -1.94175 0
M  V30 17456 C 1621.7 -0.360342 -3.45426 0
M  V30 17457 C 1620.66 -1.34611 -4.06281 0
M  V30 17458 C 1619.98 -0.692848 -5.30192 0
M  V30 17459 C 1621.28 -2.71191 -4.46378 0
M  V30 17460 H 1622.98 -1.78546 -2.40336 0
M  V30 17461 H 1620.52 -0.859895 -1.15507 0
M  V30 17462 H 1622.47 -0.151429 -4.21128 0
M  V30 17463 H 1621.2 0.588109 -3.21261 0
M  V30 17464 H 1619.86 -1.54137 -3.32622 0
M  V30 17465 H 1619.51 0.261732 -5.02319 0
M  V30 17466 H 1619.21 -1.35071 -5.71865 0
M  V30 17467 H 1620.73 -0.493695 -6.08601 0
M  V30 17468 H 1622.14 -2.55513 -5.13212 0
M  V30 17469 H 1620.54 -3.33345 -4.99 0
M  V30 17470 H 1621.61 -3.273 -3.57775 0
M  V30 17471 N 1622.95 1.25748 -0.950004 0
M  V30 17472 C 1623.88 2.28419 -0.484467 0
M  V30 17473 C 1624.86 1.63569 0.466813 0
M  V30 17474 O 1626.05 1.90705 0.366766 0
M  V30 17475 C 1623.18 3.46449 0.242916 0
M  V30 17476 C 1622.13 4.23447 -0.622657 0
M  V30 17477 C 1621.46 5.34182 0.235199 0
M  V30 17478 C 1622.76 4.86576 -1.89845 0
M  V30 17479 H 1624.45 2.6761 -1.34257 0
M  V30 17480 H 1622 1.28646 -0.647014 0
M  V30 17481 H 1623.95 4.17394 0.579693 0
M  V30 17482 H 1622.68 3.06235 1.13523 0
M  V30 17483 H 1621.34 3.54279 -0.942453 0
M  V30 17484 H 1620.98 4.90209 1.12713 0
M  V30 17485 H 1620.68 5.86612 -0.340609 0
M  V30 17486 H 1622.21 6.07961 0.567048 0
M  V30 17487 H 1623.62 5.49688 -1.62837 0
M  V30 17488 H 1622.02 5.49162 -2.41954 0
M  V30 17489 H 1623.09 4.09021 -2.60441 0
M  V30 17490 N 1624.43 0.718038 1.40292 0
M  V30 17491 C 1625.85 0.391848 1.54715 0
M  V30 17492 C 1626.05 -1.09911 1.68884 0
M  V30 17493 O 1625.1 -1.88518 1.6798 0
M  V30 17494 C 1626.42 1.16005 2.77423 0
M  V30 17495 C 1627.96 1.14659 2.91243 0
M  V30 17496 C 1628.44 1.897 4.16867 0
M  V30 17497 N 1629.93 1.86781 4.23872 0
M  V30 17498 C 1630.67 2.41665 5.19986 0
M  V30 17499 N 1630.16 3.05116 6.21994 0
M  V30 17500 N 1631.95 2.31794 5.12082 0
M  V30 17501 H 1624.11 1.68477 1.29342 0
M  V30 17502 H 1626.37 0.712248 0.625625 0
M  V30 17503 H 1626.07 2.21435 2.73239 0
M  V30 17504 H 1625.95 0.75328 3.69602 0
M  V30 17505 H 1628.34 0.100477 2.94929 0
M  V30 17506 H 1628.42 1.5926 2.00175 0
M  V30 17507 H 1628.06 2.94303 4.13942 0
M  V30 17508 H 1627.99 1.42518 5.06948 0
M  V30 17509 H 1630.48 1.40541 3.50794 0
M  V30 17510 H 1630.79 3.44505 6.91763 0
M  V30 17511 H 1629.14 3.09201 6.22431 0
M  V30 17512 H 1632.33 1.81879 4.31321 0
M  V30 17513 H 1632.5 2.74868 5.86815 0
M  V30 17514 N 1625.91 -1.50602 0.464402 0
M  V30 17515 C 1626.82 -2.32142 -0.338721 0
M  V30 17516 C 1627.84 -1.4223 -1.00233 0
M  V30 17517 O 1629.01 -1.75288 -0.99177 0
M  V30 17518 C 1626.08 -3.16725 -1.41019 0
M  V30 17519 C 1625.14 -4.22449 -0.76388 0
M  V30 17520 C 1624.37 -5.0299 -1.78429 0
M  V30 17521 O 1624.59 -4.84516 -3.00999 0
M  V30 17522 O 1623.53 -5.86338 -1.35982 0
M  V30 17523 H 1627.35 -3.01927 0.327695 0
M  V30 17524 H 1624.94 -1.47675 0.226379 0
M  V30 17525 H 1626.82 -3.69228 -2.03097 0
M  V30 17526 H 1625.5 -2.49675 -2.06019 0
M  V30 17527 H 1624.4 -3.73955 -0.104318 0
M  V30 17528 H 1625.74 -4.9195 -0.156929 0
M  V30 17529 N 1627.39 -0.19675 -1.56367 0
M  V30 17530 C 1628.3 0.735372 -2.22777 0
M  V30 17531 C 1629.31 1.23336 -1.22737 0
M  V30 17532 O 1630.49 1.28017 -1.55479 0
M  V30 17533 C 1627.56 1.93706 -2.8754 0
M  V30 17534 C 1626.62 1.48348 -4.02854 0
M  V30 17535 C 1625.85 2.62788 -4.64519 0
M  V30 17536 O 1626.07 3.80311 -4.25111 0
M  V30 17537 O 1625.01 2.35406 -5.53956 0
M  V30 17538 H 1628.83 0.199788 -3.03042 0
M  V30 17539 H 1626.42 0.0326149 -1.49364 0
M  V30 17540 H 1628.3 2.63934 -3.28507 0
M  V30 17541 H 1626.97 2.46121 -2.10252 0
M  V30 17542 H 1625.88 0.749939 -3.66506 0
M  V30 17543 H 1627.21 1.00597 -4.8181 0
M  V30 17544 N 1628.87 1.57413 0.0768405 0
M  V30 17545 C 1630.09 1.91607 0.793833 0
M  V30 17546 C 1630.52 0.792708 1.70581 0
M  V30 17547 O 1629.87 -0.25475 1.79501 0
M  V30 17548 C 1629.92 3.24736 1.56776 0
M  V30 17549 O 1629.03 3.13613 2.67807 0
M  V30 17550 H 1628.37 0.627572 0.216908 0
M  V30 17551 H 1630.9 2.04547 0.0465957 0
M  V30 17552 H 1630.91 3.58488 1.94809 0
M  V30 17553 H 1629.58 4.06077 0.898588 0
M  V30 17554 H 1628.16 2.91411 2.32668 0
M  V30 17555 N 1630.34 -0.348112 1.53707 0
M  V30 17556 C 1631.59 -1.09048 1.70987 0
M  V30 17557 C 1631.92 -1.88444 0.469305 0
M  V30 17558 O 1631.2 -1.87037 -0.533629 0
M  V30 17559 C 1631.48 -2.03542 2.97057 0
M  V30 17560 C 1631.33 -1.27638 4.3131 0
M  V30 17561 C 1632.65 -3.03424 3.18782 0
M  V30 17562 H 1629.77 -0.395049 0.622178 0
M  V30 17563 H 1632.41 -0.369498 1.86373 0
M  V30 17564 H 1630.56 -2.65021 2.8407 0
M  V30 17565 H 1632.24 -0.688079 4.56139 0
M  V30 17566 H 1630.48 -0.578349 4.29927 0
M  V30 17567 H 1631.15 -1.96891 5.15692 0
M  V30 17568 H 1633.63 -2.52056 3.31069 0
M  V30 17569 H 1632.5 -3.66748 4.08396 0
M  V30 17570 H 1632.76 -3.74553 2.34866 0
M  V30 17571 N 1631.82 -1.45363 -0.608876 0
M  V30 17572 C 1632.77 -1.53936 -1.71966 0
M  V30 17573 C 1633.74 -0.385352 -1.61568 0
M  V30 17574 O 1634.92 -0.598622 -1.81166 0
M  V30 17575 C 1632.06 -1.51079 -3.10272 0
M  V30 17576 C 1631.18 -2.77022 -3.31486 0
M  V30 17577 C 1630.31 -2.65846 -4.59891 0
M  V30 17578 C 1629.35 -3.86848 -4.74357 0
M  V30 17579 N 1628.49 -3.74214 -5.94061 0
M  V30 17580 H 1633.33 -2.4883 -1.63974 0
M  V30 17581 H 1630.87 -1.23472 -0.799565 0
M  V30 17582 H 1632.82 -1.47411 -3.90289 0
M  V30 17583 H 1631.45 -0.597374 -3.17224 0
M  V30 17584 H 1630.51 -2.90783 -2.45253 0
M  V30 17585 H 1631.82 -3.66776 -3.38049 0
M  V30 17586 H 1630.97 -2.60136 -5.48101 0
M  V30 17587 H 1629.71 -1.73689 -4.55723 0
M  V30 17588 H 1628.72 -3.92918 -3.84572 0
M  V30 17589 H 1629.94 -4.80069 -4.80324 0
M  V30 17590 H 1627.89 -2.84825 -5.9094 0
M  V30 17591 H 1627.8 -4.57601 -6.01779 0
M  V30 17592 H 1629.07 -3.72434 -6.84772 0
M  V30 17593 N 1633.3 0.851265 -1.32632 0
M  V30 17594 C 1634.25 1.96012 -1.21852 0
M  V30 17595 C 1635.22 1.65799 -0.0999141 0
M  V30 17596 O 1636.4 1.88793 -0.276049 0
M  V30 17597 C 1633.54 3.31737 -0.951014 0
M  V30 17598 C 1632.66 3.74427 -2.15472 0
M  V30 17599 C 1631.79 4.9896 -1.82242 0
M  V30 17600 C 1630.83 5.3415 -2.98914 0
M  V30 17601 N 1629.97 6.49861 -2.65754 0
M  V30 17602 H 1634.81 2.04565 -2.16696 0
M  V30 17603 H 1632.34 1.00119 -1.07771 0
M  V30 17604 H 1634.3 4.09912 -0.776401 0
M  V30 17605 H 1632.93 3.22776 -0.0393461 0
M  V30 17606 H 1631.98 2.91878 -2.4395 0
M  V30 17607 H 1633.3 3.96425 -3.02736 0
M  V30 17608 H 1632.45 5.84851 -1.61352 0
M  V30 17609 H 1631.19 4.78906 -0.921971 0
M  V30 17610 H 1630.19 4.4677 -3.20432 0
M  V30 17611 H 1631.42 5.5616 -3.89696 0
M  V30 17612 H 1629.36 6.31317 -1.78254 0
M  V30 17613 H 1629.28 6.71894 -3.46547 0
M  V30 17614 H 1630.55 7.38895 -2.48302 0
M  V30 17615 N 1634.78 1.15898 1.06796 0
M  V30 17616 C 1636.02 0.94871 1.7992 0
M  V30 17617 C 1636.38 -0.518297 1.85287 0
M  V30 17618 O 1635.67 -1.37946 1.32972 0
M  V30 17619 C 1635.87 1.50368 3.24229 0
M  V30 17620 C 1635.7 3.02311 3.32923 0
M  V30 17621 C 1634.47 3.70908 3.43155 0
M  V30 17622 C 1636.66 4.00051 3.23209 0
M  V30 17623 N 1634.65 5.10609 3.4081 0
M  V30 17624 C 1636.02 5.26103 3.28048 0
M  V30 17625 C 1638.07 3.91944 3.07058 0
M  V30 17626 C 1636.77 6.44993 3.18397 0
M  V30 17627 C 1638.8 5.10398 2.98743 0
M  V30 17628 C 1638.16 6.35328 3.042 0
M  V30 17629 H 1634.26 0.400877 0.671433 0
M  V30 17630 H 1636.85 1.47202 1.27436 0
M  V30 17631 H 1635.02 1.00693 3.75121 0
M  V30 17632 H 1636.75 1.23166 3.85502 0
M  V30 17633 H 1633.5 3.21521 3.47737 0
M  V30 17634 H 1633.93 5.83589 3.43151 0
M  V30 17635 H 1638.57 2.96216 3.01688 0
M  V30 17636 H 1636.29 7.40948 3.22524 0
M  V30 17637 H 1639.87 5.05891 2.87342 0
M  V30 17638 H 1638.75 7.25448 2.97818 0
M  V30 17639 N 1636.26 -1.25243 0.956659 0
M  V30 17640 C 1637.5 -1.93299 0.613446 0
M  V30 17641 C 1637.84 -1.74723 -0.847671 0
M  V30 17642 O 1637.11 -1.09357 -1.60846 0
M  V30 17643 C 1637.39 -3.46637 0.975421 0
M  V30 17644 C 1637.25 -3.74431 2.49242 0
M  V30 17645 C 1638.57 -4.37228 0.501948 0
M  V30 17646 H 1635.68 -0.702027 0.224338 0
M  V30 17647 H 1638.33 -1.47822 1.19368 0
M  V30 17648 H 1636.48 -3.85503 0.48167 0
M  V30 17649 H 1638.15 -3.4519 3.06009 0
M  V30 17650 H 1636.39 -3.19967 2.92923 0
M  V30 17651 H 1637.06 -4.81674 2.69619 0
M  V30 17652 H 1639.54 -4.05677 0.925514 0
M  V30 17653 H 1638.41 -5.43274 0.783895 0
M  V30 17654 H 1638.68 -4.38036 -0.598082 0
M  V30 17655 N 1637.73 -0.725468 -1.3991 0
M  V30 17656 C 1638.66 -0.094211 -2.3331 0
M  V30 17657 C 1639.65 0.734728 -1.53414 0
M  V30 17658 O 1640.83 0.681647 -1.81844 0
M  V30 17659 C 1637.96 0.820958 -3.37457 0
M  V30 17660 C 1636.91 0.0968983 -4.2789 0
M  V30 17661 C 1636.24 1.12845 -5.22657 0
M  V30 17662 C 1637.54 -1.05483 -5.11537 0
M  V30 17663 H 1639.23 -0.874365 -2.86348 0
M  V30 17664 H 1636.78 -0.421913 -1.3768 0
M  V30 17665 H 1638.73 1.27203 -4.01743 0
M  V30 17666 H 1637.46 1.63312 -2.82837 0
M  V30 17667 H 1636.12 -0.334454 -3.65071 0
M  V30 17668 H 1635.76 1.93392 -4.64337 0
M  V30 17669 H 1635.46 0.648805 -5.84007 0
M  V30 17670 H 1636.99 1.57942 -5.89819 0
M  V30 17671 H 1638.4 -0.682657 -5.69221 0
M  V30 17672 H 1636.8 -1.46349 -5.81981 0
M  V30 17673 H 1637.87 -1.88095 -4.46932 0
M  V30 17674 N 1639.21 1.50354 -0.472382 0
M  V30 17675 C 1640.14 2.3142 0.310995 0
M  V30 17676 C 1641.12 1.38383 0.989151 0
M  V30 17677 O 1642.31 1.67303 0.986074 0
M  V30 17678 C 1639.44 3.18157 1.3926 0
M  V30 17679 C 1638.39 4.19756 0.835977 0
M  V30 17680 C 1637.72 4.9524 2.01597 0
M  V30 17681 C 1639.02 5.22074 -0.15361 0
M  V30 17682 H 1640.71 2.97159 -0.365595 0
M  V30 17683 H 1638.26 1.42905 -0.177266 0
M  V30 17684 H 1640.21 3.73666 1.94813 0
M  V30 17685 H 1638.94 2.50305 2.09798 0
M  V30 17686 H 1637.59 3.65351 0.302414 0
M  V30 17687 H 1637.24 4.2386 2.70836 0
M  V30 17688 H 1636.94 5.63966 1.64974 0
M  V30 17689 H 1638.47 5.53584 2.57637 0
M  V30 17690 H 1639.88 5.72446 0.312783 0
M  V30 17691 H 1638.28 5.98527 -0.43418 0
M  V30 17692 H 1639.35 4.72741 -1.07908 0
M  V30 17693 N 1640.69 0.205039 1.56261 0
M  V30 17694 C 1641.62 -0.706815 2.22545 0
M  V30 17695 C 1642.6 -1.21372 1.19176 0
M  V30 17696 O 1643.79 -1.26074 1.47712 0
M  V30 17697 C 1640.92 -1.92221 2.89255 0
M  V30 17698 C 1639.87 -1.54982 3.98954 0
M  V30 17699 C 1639.2 -2.84265 4.52877 0
M  V30 17700 C 1640.5 -0.75225 5.16854 0
M  V30 17701 H 1642.19 -0.15421 2.99003 0
M  V30 17702 H 1639.74 -0.0727309 1.43816 0
M  V30 17703 H 1641.69 -2.56542 3.34311 0
M  V30 17704 H 1640.41 -2.49952 2.10218 0
M  V30 17705 H 1639.07 -0.930155 3.54604 0
M  V30 17706 H 1638.72 -3.40105 3.70591 0
M  V30 17707 H 1638.42 -2.60089 5.26904 0
M  V30 17708 H 1639.95 -3.49557 5.00642 0
M  V30 17709 H 1641.36 -1.29878 5.58395 0
M  V30 17710 H 1639.76 -0.60823 5.9701 0
M  V30 17711 H 1640.83 0.24463 4.84283 0
M  V30 17712 N 1642.17 -1.57451 -0.0684915 0
M  V30 17713 C 1643.4 -1.91362 -0.778724 0
M  V30 17714 C 1643.81 -0.799579 -1.71474 0
M  V30 17715 O 1643.15 0.235727 -1.82181 0
M  V30 17716 C 1643.21 -3.20767 -1.62323 0
M  V30 17717 C 1642.88 -4.48907 -0.85623 0
M  V30 17718 C 1643.87 -5.19609 -0.173992 0
M  V30 17719 C 1641.56 -4.95521 -0.822427 0
M  V30 17720 C 1643.55 -6.35178 0.531784 0
M  V30 17721 C 1641.24 -6.10996 -0.11288 0
M  V30 17722 C 1642.24 -6.80675 0.563022 0
M  V30 17723 O 1641.93 -7.93946 1.26113 0
M  V30 17724 H 1641.66 -0.636969 -0.226376 0
M  V30 17725 H 1644.21 -2.05357 -0.0420481 0
M  V30 17726 H 1642.44 -3.0299 -2.40279 0
M  V30 17727 H 1644.13 -3.40303 -2.21244 0
M  V30 17728 H 1644.9 -4.84622 -0.191393 0
M  V30 17729 H 1640.78 -4.41156 -1.33798 0
M  V30 17730 H 1644.32 -6.89501 1.05991 0
M  V30 17731 H 1640.22 -6.45432 -0.0934182 0
M  V30 17732 H 1640.98 -8.10084 1.17074 0
M  V30 17733 N 1643.65 0.339955 -1.5389 0
M  V30 17734 C 1644.6 1.41838 -1.78511 0
M  V30 17735 C 1645.58 1.47604 -0.640447 0
M  V30 17736 O 1646.77 1.52414 -0.899951 0
M  V30 17737 C 1643.9 2.78929 -2.00134 0
M  V30 17738 C 1642.99 2.7754 -3.20675 0
M  V30 17739 N 1643.38 2.45779 -4.42071 0
M  V30 17740 C 1641.68 3.08684 -3.21917 0
M  V30 17741 C 1642.38 2.52714 -5.23938 0
M  V30 17742 N 1641.35 2.88484 -4.60736 0
M  V30 17743 H 1645.16 1.16185 -2.6996 0
M  V30 17744 H 1642.67 0.548339 -1.52863 0
M  V30 17745 H 1644.67 3.56637 -2.15907 0
M  V30 17746 H 1643.33 3.05525 -1.09929 0
M  V30 17747 H 1644.34 2.18913 -4.69358 0
M  V30 17748 H 1641.02 3.40429 -2.41691 0
M  V30 17749 H 1642.41 2.31287 -6.30838 0
M  V30 17750 N 1645.13 1.45684 0.601159 0
M  V30 17751 C 1646.37 1.49308 1.3561 0
M  V30 17752 C 1646.69 0.141561 1.95087 0
M  V30 17753 O 1647.89 0.0554805 2.71443 0
M  V30 17754 C 1646.35 2.63001 2.4568 0
M  V30 17755 C 1645.96 4.04493 1.92586 0
M  V30 17756 C 1647.7 2.75877 3.22633 0
M  V30 17757 C 1645.61 5.09557 3.00176 0
M  V30 17758 H 1644.54 0.555604 0.509726 0
M  V30 17759 H 1647.19 1.71843 0.643606 0
M  V30 17760 H 1645.57 2.33761 3.19643 0
M  V30 17761 H 1646.75 4.4344 1.25289 0
M  V30 17762 H 1645.06 3.96123 1.28358 0
M  V30 17763 H 1647.66 3.51541 4.02893 0
M  V30 17764 H 1648 1.82737 3.74049 0
M  V30 17765 H 1648.53 3.04674 2.5577 0
M  V30 17766 H 1645.27 6.04427 2.53669 0
M  V30 17767 H 1644.79 4.75173 3.6602 0
M  V30 17768 H 1646.47 5.34591 3.64447 0
M  V30 17769 N 1646.6 -0.84422 1.33082 0
M  V30 17770 C 1647.53 -1.96899 1.25511 0
M  V30 17771 C 1648.51 -1.69549 0.13677 0
M  V30 17772 O 1649.7 -1.9145 0.325667 0
M  V30 17773 C 1646.83 -3.32947 0.988094 0
M  V30 17774 C 1645.78 -3.7468 2.06879 0
M  V30 17775 C 1645.11 -5.08475 1.65401 0
M  V30 17776 C 1646.41 -3.89033 3.48498 0
M  V30 17777 H 1648.1 -2.03491 2.19617 0
M  V30 17778 H 1645.65 -0.977659 1.05725 0
M  V30 17779 H 1647.6 -4.11198 0.921645 0
M  V30 17780 H 1646.33 -3.26598 0.0114067 0
M  V30 17781 H 1644.99 -2.98689 2.12557 0
M  V30 17782 H 1644.63 -4.98592 0.66449 0
M  V30 17783 H 1644.33 -5.37368 2.37717 0
M  V30 17784 H 1645.86 -5.89207 1.60212 0
M  V30 17785 H 1647.27 -4.57609 3.4535 0
M  V30 17786 H 1645.67 -4.29357 4.19253 0
M  V30 17787 H 1646.74 -2.91639 3.87395 0
M  V30 17788 N 1648.08 -1.16463 -1.0618 0
M  V30 17789 C 1649.33 -0.948248 -1.79265 0
M  V30 17790 C 1649.66 0.522578 -1.87037 0
M  V30 17791 O 1648.94 1.38772 -1.36282 0
M  V30 17792 C 1649.22 -1.57781 -3.23693 0
M  V30 17793 C 1649.07 -3.12005 -3.23995 0
M  V30 17794 C 1650.39 -1.27343 -4.21274 0
M  V30 17795 H 1647.51 -0.345907 -0.650782 0
M  V30 17796 H 1650.15 -1.4381 -1.24172 0
M  V30 17797 H 1648.3 -1.16126 -3.70738 0
M  V30 17798 H 1649.97 -3.62649 -2.85102 0
M  V30 17799 H 1648.22 -3.45276 -2.62615 0
M  V30 17800 H 1648.89 -3.51176 -4.25886 0
M  V30 17801 H 1651.36 -1.63396 -3.82676 0
M  V30 17802 H 1650.24 -1.73993 -5.20594 0
M  V30 17803 H 1650.5 -0.192469 -4.41681 0
M  V30 17804 N 1649.56 1.24734 -0.963288 0
M  V30 17805 C 1650.81 1.92971 -0.623688 0
M  V30 17806 C 1651.14 1.7517 0.838393 0
M  V30 17807 O 1650.41 1.10208 1.60264 0
M  V30 17808 C 1650.7 3.46115 -0.99379 0
M  V30 17809 C 1650.55 3.73104 -2.51224 0
M  V30 17810 C 1651.87 4.36956 -0.525128 0
M  V30 17811 H 1648.99 0.700827 -0.228058 0
M  V30 17812 H 1651.63 1.47187 -1.2015 0
M  V30 17813 H 1649.78 3.85242 -0.502108 0
M  V30 17814 H 1651.45 3.43563 -3.07835 0
M  V30 17815 H 1649.69 3.18409 -2.94616 0
M  V30 17816 H 1650.37 4.80237 -2.7217 0
M  V30 17817 H 1652.84 4.0518 -0.947015 0
M  V30 17818 H 1651.72 5.4285 -0.812695 0
M  V30 17819 H 1651.98 4.38347 0.574843 0
M  V30 17820 N 1651.04 0.732878 1.39523 0
M  V30 17821 C 1651.99 0.0676184 2.279 0
M  V30 17822 C 1652.97 -0.7148 1.44151 0
M  V30 17823 O 1654.16 -0.584158 1.67083 0
M  V30 17824 C 1651.29 -0.840482 3.32853 0
M  V30 17825 C 1650.38 -0.052326 4.24068 0
M  V30 17826 N 1650.77 0.973429 4.96345 0
M  V30 17827 C 1649.07 -0.282301 4.45106 0
M  V30 17828 C 1649.77 1.44851 5.63376 0
M  V30 17829 N 1648.74 0.767499 5.38155 0
M  V30 17830 H 1652.55 0.853533 2.81233 0
M  V30 17831 H 1650.06 0.567016 1.5218 0
M  V30 17832 H 1652.06 -1.33254 3.95031 0
M  V30 17833 H 1650.72 -1.62558 2.81078 0
M  V30 17834 H 1651.73 1.35474 4.99867 0
M  V30 17835 H 1648.41 -1.04237 4.04278 0
M  V30 17836 H 1649.8 2.30179 6.31242 0
M  V30 17837 N 1652.52 -1.50101 0.480349 0
M  V30 17838 C 1653.93 -1.8668 0.0274773 0
M  V30 17839 C 1654.28 -1.39442 -1.38023 0
M  V30 17840 O 1653.4 -0.763363 -2.02489 0
M  V30 17841 C 1654 -3.38773 0.043087 0
M  V30 17842 C 1652.56 -3.74728 -0.354352 0
M  V30 17843 C 1651.7 -2.7403 0.424583 0
M  V30 17844 H 1654.65 -1.42713 0.694172 0
M  V30 17845 H 1654.68 -3.72894 -0.756989 0
M  V30 17846 H 1654.19 -3.73123 1.06775 0
M  V30 17847 H 1652.29 -3.45981 -1.38303 0
M  V30 17848 H 1652.4 -4.79075 -0.0492608 0
M  V30 17849 H 1650.77 -2.54403 -0.122927 0
M  V30 17850 H 1651.55 -3.11225 1.44894 0
M  V30 17851 N 1653.99 -0.213323 -1.5615 0
M  V30 17852 C 1655.24 0.420909 -1.97259 0
M  V30 17853 C 1655.56 1.61483 -1.10375 0
M  V30 17854 O 1656.76 2.31804 -1.41347 0
M  V30 17855 C 1655.22 0.800243 -3.5089 0
M  V30 17856 C 1654.83 -0.370405 -4.46466 0
M  V30 17857 C 1656.57 1.40054 -4.00731 0
M  V30 17858 C 1654.48 0.0309052 -5.91392 0
M  V30 17859 H 1653.41 0.16103 -0.736604 0
M  V30 17860 H 1656.06 -0.308232 -1.80893 0
M  V30 17861 H 1654.44 1.58657 -3.62828 0
M  V30 17862 H 1655.61 -1.14796 -4.46272 0
M  V30 17863 H 1653.93 -0.883391 -4.06922 0
M  V30 17864 H 1656.53 1.71355 -5.06499 0
M  V30 17865 H 1656.87 2.31345 -3.461 0
M  V30 17866 H 1657.4 0.677813 -3.91983 0
M  V30 17867 H 1654.14 -0.848284 -6.49988 0
M  V30 17868 H 1653.66 0.772941 -5.94799 0
M  V30 17869 H 1655.34 0.460441 -6.4536 0
M  V30 17870 N 1655.47 1.57485 0.0601405 0
M  V30 17871 C 1656.42 2.04487 1.07023 0
M  V30 17872 C 1657.39 0.927738 1.37776 0
M  V30 17873 O 1658.57 1.19621 1.48645 0
M  V30 17874 C 1655.71 2.50338 2.37539 0
M  V30 17875 C 1654.83 3.75717 2.13215 0
M  V30 17876 C 1653.96 4.10304 3.37378 0
M  V30 17877 C 1653 5.2869 3.0847 0
M  V30 17878 N 1652.14 5.58858 4.24996 0
M  V30 17879 H 1656.98 2.90544 0.662444 0
M  V30 17880 H 1654.52 1.43676 0.315515 0
M  V30 17881 H 1656.47 2.74978 3.13756 0
M  V30 17882 H 1655.1 1.67242 2.76098 0
M  V30 17883 H 1654.16 3.58348 1.27636 0
M  V30 17884 H 1655.47 4.62068 1.87869 0
M  V30 17885 H 1654.62 4.35907 4.21983 0
M  V30 17886 H 1653.36 3.22544 3.6581 0
M  V30 17887 H 1652.37 5.02871 2.22262 0
M  V30 17888 H 1653.59 6.18077 2.81349 0
M  V30 17889 H 1651.54 4.74058 4.53437 0
M  V30 17890 H 1651.45 6.39652 4.02965 0
M  V30 17891 H 1652.72 5.89019 5.10565 0
M  V30 17892 N 1656.95 -0.331789 1.54068 0
M  V30 17893 C 1658.18 -1.09484 1.76148 0
M  V30 17894 C 1658.6 -1.81201 0.504772 0
M  V30 17895 O 1657.96 -1.7297 -0.54325 0
M  V30 17896 C 1658.01 -2.07495 2.94921 0
M  V30 17897 O 1657.11 -3.15239 2.65891 0
M  V30 17898 H 1656.45 -0.316071 0.583948 0
M  V30 17899 H 1658.98 -0.378593 2.01067 0
M  V30 17900 H 1658.99 -2.5051 3.22038 0
M  V30 17901 H 1657.67 -1.54696 3.8606 0
M  V30 17902 H 1656.24 -2.76958 2.49697 0
M  V30 17903 N 1658.43 -1.46001 -0.593424 0
M  V30 17904 C 1659.67 -1.50978 -1.35401 0
M  V30 17905 C 1660.01 -0.156626 -1.93567 0
M  V30 17906 O 1659.28 0.83067 -1.7587 0
M  V30 17907 C 1659.57 -2.60005 -2.49137 0
M  V30 17908 C 1659.42 -4.04814 -1.96075 0
M  V30 17909 C 1660.74 -2.65199 -3.51223 0
M  V30 17910 H 1657.86 -0.549657 -0.490965 0
M  V30 17911 H 1660.5 -1.77883 -0.667644 0
M  V30 17912 H 1658.65 -2.37194 -3.07687 0
M  V30 17913 H 1660.32 -4.38879 -1.42066 0
M  V30 17914 H 1658.56 -4.148 -1.26976 0
M  V30 17915 H 1659.23 -4.76811 -2.78128 0
M  V30 17916 H 1661.71 -2.85675 -3.02537 0
M  V30 17917 H 1660.59 -3.43323 -4.28276 0
M  V30 17918 H 1660.85 -1.70833 -4.0776 0
M  V30 17919 N 1659.91 0.83715 -1.33527 0
M  V30 17920 C 1661.16 1.58747 -1.24428 0
M  V30 17921 C 1661.47 1.94696 0.187885 0
M  V30 17922 O 1662.67 2.68524 0.400903 0
M  V30 17923 C 1661.13 2.86337 -2.18035 0
M  V30 17924 C 1660.74 2.57745 -3.66431 0
M  V30 17925 C 1662.48 3.6436 -2.17812 0
M  V30 17926 C 1660.39 3.81443 -4.51946 0
M  V30 17927 H 1659.32 0.595749 -0.462168 0
M  V30 17928 H 1661.97 0.922901 -1.58603 0
M  V30 17929 H 1660.35 3.54344 -1.76795 0
M  V30 17930 H 1661.53 1.97939 -4.16121 0
M  V30 17931 H 1659.84 1.93023 -3.68959 0
M  V30 17932 H 1662.44 4.56181 -2.78932 0
M  V30 17933 H 1662.78 3.99414 -1.17364 0
M  V30 17934 H 1663.31 3.03279 -2.57423 0
M  V30 17935 H 1660.05 3.51519 -5.53276 0
M  V30 17936 H 1659.57 4.40582 -4.06998 0
M  V30 17937 H 1661.25 4.49004 -4.65837 0
M  V30 17938 N 1661.38 1.17024 1.05561 0
M  V30 17939 C 1662.63 0.957742 1.7876 0
M  V30 17940 C 1662.96 -0.512652 1.87311 0
M  V30 17941 O 1662.24 -1.38047 1.37016 0
M  V30 17942 C 1662.52 1.59495 3.22852 0
M  V30 17943 C 1662.37 3.13719 3.22336 0
M  V30 17944 C 1663.69 1.29576 4.20593 0
M  V30 17945 H 1660.81 0.349354 0.648938 0
M  V30 17946 H 1663.45 1.44467 1.23408 0
M  V30 17947 H 1661.6 1.18091 3.70117 0
M  V30 17948 H 1663.28 3.64156 2.83175 0
M  V30 17949 H 1661.52 3.46664 2.60781 0
M  V30 17950 H 1662.19 3.5343 4.24018 0
M  V30 17951 H 1664.67 1.65423 3.81804 0
M  V30 17952 H 1663.54 1.76751 5.19663 0
M  V30 17953 H 1663.8 0.21589 4.41573 0
M  V30 17954 N 1662.86 -1.24221 0.969889 0
M  V30 17955 C 1664.11 -1.91656 0.628559 0
M  V30 17956 C 1664.42 -1.76627 -0.840371 0
M  V30 17957 O 1665.63 -2.38771 -1.29232 0
M  V30 17958 C 1664.09 -3.43515 1.07357 0
M  V30 17959 C 1663.69 -3.67226 2.56611 0
M  V30 17960 C 1665.44 -4.16788 0.805493 0
M  V30 17961 C 1663.35 -5.12667 2.94834 0
M  V30 17962 H 1662.28 -0.717619 0.231384 0
M  V30 17963 H 1664.93 -1.40831 1.17639 0
M  V30 17964 H 1663.31 -3.93388 0.454037 0
M  V30 17965 H 1664.48 -3.27942 3.23713 0
M  V30 17966 H 1662.8 -3.07243 2.81053 0
M  V30 17967 H 1665.39 -5.23945 1.06705 0
M  V30 17968 H 1665.74 -4.15498 -0.258321 0
M  V30 17969 H 1666.27 -3.7287 1.3861 0
M  V30 17970 H 1663.01 -5.1908 4.00295 0
M  V30 17971 H 1662.53 -5.5294 2.32417 0
M  V30 17972 H 1664.21 -5.80916 2.8486 0
M  V30 17973 N 1664.34 -0.740267 -1.39132 0
M  V30 17974 C 1665.27 -0.118951 -2.33197 0
M  V30 17975 C 1666.25 0.718416 -1.54184 0
M  V30 17976 O 1667.44 0.662322 -1.82557 0
M  V30 17977 C 1664.57 0.78512 -3.38309 0
M  V30 17978 C 1663.52 0.0515093 -4.27969 0
M  V30 17979 C 1662.85 1.07295 -5.23824 0
M  V30 17980 C 1664.15 -1.10903 -5.1039 0
M  V30 17981 H 1665.84 -0.904687 -2.85405 0
M  V30 17982 H 1663.39 -0.436493 -1.37225 0
M  V30 17983 H 1665.34 1.22935 -4.03069 0
M  V30 17984 H 1664.06 1.60303 -2.84553 0
M  V30 17985 H 1662.72 -0.373156 -3.64696 0
M  V30 17986 H 1662.37 1.88456 -4.66362 0
M  V30 17987 H 1662.07 0.586827 -5.84662 0
M  V30 17988 H 1663.59 1.51677 -5.91461 0
M  V30 17989 H 1665.01 -0.742993 -5.68465 0
M  V30 17990 H 1663.41 -1.52513 -5.80396 0
M  V30 17991 H 1664.48 -1.92825 -4.44912 0
M  V30 17992 N 1665.82 1.49844 -0.488302 0
M  V30 17993 C 1666.75 2.31737 0.286432 0
M  V30 17994 C 1667.73 1.39424 0.974418 0
M  V30 17995 O 1668.91 1.68339 0.968274 0
M  V30 17996 C 1666.04 3.19616 1.35878 0
M  V30 17997 C 1665 4.20619 0.791409 0
M  V30 17998 C 1664.32 4.9735 1.96333 0
M  V30 17999 C 1665.62 5.21882 -0.208975 0
M  V30 18000 H 1667.32 2.96755 -0.397092 0
M  V30 18001 H 1664.86 1.42709 -0.192413 0
M  V30 18002 H 1666.82 3.75711 1.90838 0
M  V30 18003 H 1665.54 2.52516 2.07131 0
M  V30 18004 H 1664.2 3.65651 0.263647 0
M  V30 18005 H 1663.85 4.26708 2.66325 0
M  V30 18006 H 1663.55 5.65684 1.58983 0
M  V30 18007 H 1665.07 5.56286 2.51751 0
M  V30 18008 H 1666.49 5.72746 0.252049 0
M  V30 18009 H 1664.88 5.98033 -0.497638 0
M  V30 18010 H 1665.95 4.7157 -1.12916 0
M  V30 18011 N 1667.3 0.221601 1.56034 0
M  V30 18012 C 1668.23 -0.728495 2.1626 0
M  V30 18013 C 1669.21 -1.19097 1.107 0
M  V30 18014 O 1670.39 -1.27371 1.38957 0
M  V30 18015 C 1667.52 -1.987 2.74292 0
M  V30 18016 C 1666.56 -1.66449 3.92679 0
M  V30 18017 S 1667.4 -0.78924 5.29652 0
M  V30 18018 C 1668.55 -2.05731 5.91122 0
M  V30 18019 H 1668.79 -0.216607 2.9651 0
M  V30 18020 H 1666.32 0.0062956 1.54399 0
M  V30 18021 H 1668.28 -2.70962 3.08366 0
M  V30 18022 H 1666.94 -2.47001 1.94034 0
M  V30 18023 H 1666.13 -2.59955 4.31786 0
M  V30 18024 H 1665.73 -1.0225 3.59751 0
M  V30 18025 H 1668.03 -3.00728 6.07099 0
M  V30 18026 H 1668.97 -1.71014 6.87139 0
M  V30 18027 H 1669.38 -2.19786 5.19956 0
M  V30 18028 N 1668.77 -1.57515 -0.0517878 0
M  V30 18029 C 1670.02 -1.87396 -0.746022 0
M  V30 18030 C 1670.34 -0.817053 -1.77718 0
M  V30 18031 O 1671.54 -1.00435 -2.5224 0
M  V30 18032 C 1670 -3.32481 -1.37783 0
M  V30 18033 C 1669.61 -4.46349 -0.384208 0
M  V30 18034 C 1671.35 -3.71539 -2.05327 0
M  V30 18035 C 1669.26 -5.82484 -1.02307 0
M  V30 18036 H 1668.19 -0.699127 -0.282379 0
M  V30 18037 H 1670.84 -1.835 0.000245524 0
M  V30 18038 H 1669.22 -3.31051 -2.17304 0
M  V30 18039 H 1670.39 -4.59209 0.382639 0
M  V30 18040 H 1668.71 -4.15976 0.187873 0
M  V30 18041 H 1671.31 -4.70553 -2.53936 0
M  V30 18042 H 1671.65 -3.02361 -2.86153 0
M  V30 18043 H 1672.18 -3.75046 -1.32611 0
M  V30 18044 H 1668.92 -6.55005 -0.254704 0
M  V30 18045 H 1668.44 -5.73388 -1.7603 0
M  V30 18046 H 1670.12 -6.28476 -1.5371 0
M  V30 18047 N 1670.25 0.323614 -1.54242 0
M  V30 18048 C 1671.5 1.05947 -1.72104 0
M  V30 18049 C 1671.82 1.88547 -0.497512 0
M  V30 18050 O 1671.09 1.89712 0.488485 0
M  V30 18051 H 1669.67 0.394141 -0.634557 0
M  V30 18052 H 1672.33 0.360063 -1.91545 0
M  V30 18053 H 1671.43 1.72552 -2.60062 0
M  V30 18054 N 1671.73 1.46313 0.585673 0
M  V30 18055 C 1673.01 1.41946 1.34576 0
M  V30 18056 C 1673.39 0.101379 2.10856 0
M  V30 18057 O 1672.74 -0.917016 2.09292 0
M  V30 18058 C 1672.95 2.64724 2.27425 0
M  V30 18059 C 1674.29 3.10746 2.89347 0
M  V30 18060 O 1675.32 2.65252 2.37739 0
M  V30 18061 O 1674.18 3.8976 3.83079 0
M  V30 18062 H 1671.27 0.564346 0.604519 0
M  V30 18063 H 1673.82 1.58475 0.606937 0
M  V30 18064 H 1672.59 3.52217 1.70467 0
M  V30 18065 H 1672.21 2.50639 3.08652 0
M  V30 18066 N 1673.21 -0.830057 1.33969 0
M  V30 18067 C 1674.46 -1.58821 1.26111 0
M  V30 18068 C 1674.79 -1.9345 -0.170484 0
M  V30 18069 O 1674.06 -1.59433 -1.11407 0
M  V30 18070 C 1674.35 -2.89243 2.14501 0
M  V30 18071 C 1674.2 -2.61239 3.66162 0
M  V30 18072 C 1675.52 -3.90752 2.02487 0
M  V30 18073 H 1672.64 -0.576255 0.459455 0
M  V30 18074 H 1675.28 -0.956736 1.64154 0
M  V30 18075 H 1673.43 -3.43133 1.82186 0
M  V30 18076 H 1675.1 -2.13713 4.08809 0
M  V30 18077 H 1673.34 -1.94796 3.87604 0
M  V30 18078 H 1674.02 -3.54212 4.23365 0
M  V30 18079 H 1676.49 -3.46194 2.30844 0
M  V30 18080 H 1675.37 -4.79825 2.6657 0
M  V30 18081 H 1675.63 -4.30649 0.999704 0
M  V30 18082 N 1674.69 -1.17582 -1.04939 0
M  V30 18083 C 1675.93 -0.967208 -1.7825 0
M  V30 18084 C 1676.27 0.502711 -1.87581 0
M  V30 18085 O 1675.54 1.37318 -1.37746 0
M  V30 18086 C 1675.82 -1.61205 -3.22001 0
M  V30 18087 C 1675.68 -3.15424 -3.20667 0
M  V30 18088 C 1677 -1.31804 -4.199 0
M  V30 18089 H 1674.12 -0.35279 -0.647077 0
M  V30 18090 H 1676.76 -1.45119 -1.2264 0
M  V30 18091 H 1674.91 -1.20052 -3.69486 0
M  V30 18092 H 1676.58 -3.65653 -2.8124 0
M  V30 18093 H 1674.82 -3.48042 -2.58938 0
M  V30 18094 H 1675.49 -3.55674 -4.22138 0
M  V30 18095 H 1677.97 -1.67446 -3.80921 0
M  V30 18096 H 1676.85 -1.79505 -5.18719 0
M  V30 18097 H 1677.11 -0.239304 -4.41452 0
M  V30 18098 N 1676.17 1.23705 -0.976463 0
M  V30 18099 C 1677.11 2.25023 -0.513156 0
M  V30 18100 C 1678.08 1.60003 0.445903 0
M  V30 18101 O 1679.27 1.87481 0.354323 0
M  V30 18102 C 1676.41 3.44619 0.182088 0
M  V30 18103 C 1675.52 4.24209 -0.816769 0
M  V30 18104 C 1674.66 5.31112 -0.0967355 0
M  V30 18105 C 1673.69 6.02406 -1.08507 0
M  V30 18106 N 1672.83 7.00991 -0.394455 0
M  V30 18107 H 1677.67 2.64019 -1.38194 0
M  V30 18108 H 1675.21 1.29777 -0.692566 0
M  V30 18109 H 1677.17 4.12835 0.601948 0
M  V30 18110 H 1675.8 3.06435 1.01477 0
M  V30 18111 H 1674.85 3.55448 -1.35503 0
M  V30 18112 H 1676.16 4.73445 -1.57006 0
M  V30 18113 H 1675.31 6.05504 0.380686 0
M  V30 18114 H 1674.05 4.82806 0.689187 0
M  V30 18115 H 1673.06 5.26809 -1.57328 0
M  V30 18116 H 1674.28 6.528 -1.87159 0
M  V30 18117 H 1672.23 6.54943 0.372331 0
M  V30 18118 H 1672.15 7.48152 -1.08647 0
M  V30 18119 H 1673.41 7.79476 0.0607087 0
M  V30 18120 N 1677.64 0.747635 1.38738 0
M  V30 18121 C 1678.61 0.124321 2.28863 0
M  V30 18122 C 1679.61 -0.653816 1.46908 0
M  V30 18123 O 1680.8 -0.480963 1.67429 0
M  V30 18124 C 1677.93 -0.832601 3.30576 0
M  V30 18125 H 1679.12 0.918492 2.85489 0
M  V30 18126 H 1676.67 0.514262 1.47598 0
M  V30 18127 H 1677.41 -1.65267 2.79029 0
M  V30 18128 H 1677.19 -0.277109 3.9112 0
M  V30 18129 H 1678.68 -1.2649 3.97982 0
M  V30 18130 N 1679.12 -1.49583 0.496242 0
M  V30 18131 C 1680.4 -1.95275 -0.112751 0
M  V30 18132 C 1680.78 -1.43758 -1.54586 0
M  V30 18133 O 1680.13 -0.649285 -2.19081 0
M  V30 18134 C 1680.34 -3.48987 -0.0302774 0
M  V30 18135 C 1681.68 -4.24097 -0.206595 0
M  V30 18136 O 1682.71 -3.56043 -0.105689 0
M  V30 18137 O 1681.57 -5.44936 -0.413172 0
M  V30 18138 H 1678.66 -0.821183 -0.0979145 0
M  V30 18139 H 1681.21 -1.60248 0.558441 0
M  V30 18140 H 1679.98 -3.79104 0.969322 0
M  V30 18141 H 1679.6 -3.90618 -0.741825 0
M  V30 18142 N 1680.6 -0.229873 -1.55915 0
M  V30 18143 C 1681.82 0.4072 -2.03363 0
M  V30 18144 C 1682.25 1.5197 -1.10845 0
M  V30 18145 O 1681.61 1.81034 -0.098175 0
M  V30 18146 C 1681.66 0.908268 -3.48974 0
M  V30 18147 O 1680.76 2.01907 -3.59593 0
M  V30 18148 H 1680.1 0.091091 -0.657722 0
M  V30 18149 H 1682.63 -0.350947 -2.01568 0
M  V30 18150 H 1682.64 1.21593 -3.8946 0
M  V30 18151 H 1681.32 0.0940655 -4.15794 0
M  V30 18152 H 1679.89 1.71741 -3.30998 0
M  V30 18153 N 1682.08 1.5754 0.0434337 0
M  V30 18154 C 1683.33 1.88235 0.735652 0
M  V30 18155 C 1683.65 0.825698 1.76656 0
M  V30 18156 O 1682.92 -0.142424 1.95382 0
M  V30 18157 H 1681.5 0.694661 0.274692 0
M  V30 18158 H 1684.16 1.94896 0.0127911 0
M  V30 18159 H 1683.25 2.86659 1.23421 0
M  V30 18160 N 1683.56 -0.31543 1.54411 0
M  V30 18161 C 1684.8 -1.05033 1.72663 0
M  V30 18162 C 1685.12 -1.8828 0.507504 0
M  V30 18163 O 1684.39 -1.89968 -0.478418 0
M  V30 18164 H 1682.97 -0.39077 0.636638 0
M  V30 18165 H 1685.64 -0.3499 1.91733 0
M  V30 18166 H 1684.73 -1.71171 2.60973 0
M  V30 18167 N 1685.03 -1.46622 -0.577906 0
M  V30 18168 C 1685.97 -1.53587 -1.70128 0
M  V30 18169 C 1686.98 -0.423789 -1.57187 0
M  V30 18170 O 1688.17 -0.692392 -1.64524 0
M  V30 18171 C 1685.27 -1.40459 -3.08422 0
M  V30 18172 C 1684.44 -2.65872 -3.47319 0
M  V30 18173 C 1683.5 -2.46875 -4.64693 0
M  V30 18174 O 1682.53 -3.20617 -4.70312 0
M  V30 18175 N 1683.73 -1.53352 -5.59878 0
M  V30 18176 H 1686.49 -2.50449 -1.64606 0
M  V30 18177 H 1684.05 -1.42739 -0.764014 0
M  V30 18178 H 1686.05 -1.25516 -3.84744 0
M  V30 18179 H 1684.62 -0.517603 -3.08285 0
M  V30 18180 H 1683.84 -2.95724 -2.60655 0
M  V30 18181 H 1685.12 -3.49173 -3.70075 0
M  V30 18182 H 1684.52 -0.925526 -5.58078 0
M  V30 18183 H 1683.08 -1.4437 -6.3561 0
M  V30 18184 N 1686.51 0.822941 -1.34408 0
M  V30 18185 C 1687.42 1.96567 -1.28056 0
M  V30 18186 C 1688.44 1.72979 -0.188251 0
M  V30 18187 O 1689.61 1.97084 -0.41472 0
M  V30 18188 C 1686.68 3.30865 -1.03583 0
M  V30 18189 C 1685.74 3.67461 -2.2197 0
M  V30 18190 C 1684.97 4.9535 -1.98655 0
M  V30 18191 O 1685.2 5.62521 -0.944785 0
M  V30 18192 O 1684.13 5.29824 -2.85605 0
M  V30 18193 H 1687.96 2.0487 -2.24192 0
M  V30 18194 H 1685.54 0.958334 -1.14614 0
M  V30 18195 H 1687.42 4.11298 -0.917162 0
M  V30 18196 H 1686.1 3.2353 -0.104868 0
M  V30 18197 H 1685.01 2.87472 -2.39396 0
M  V30 18198 H 1686.34 3.79481 -3.13456 0
M  V30 18199 N 1687.99 1.18137 1.04314 0
M  V30 18200 C 1689.22 0.998567 1.80865 0
M  V30 18201 C 1689.63 -0.456239 1.83617 0
M  V30 18202 O 1688.97 -1.32867 1.26855 0
M  V30 18203 C 1689.03 1.47397 3.27894 0
M  V30 18204 C 1688.7 2.95266 3.48808 0
M  V30 18205 C 1689.69 3.93139 3.40202 0
M  V30 18206 C 1687.38 3.33641 3.75485 0
M  V30 18207 C 1689.37 5.27383 3.57974 0
M  V30 18208 C 1687.06 4.68049 3.92904 0
M  V30 18209 C 1688.06 5.64729 3.84149 0
M  V30 18210 O 1687.75 6.96704 4.01072 0
M  V30 18211 H 1687.48 0.353025 0.576498 0
M  V30 18212 H 1690.03 1.57054 1.32375 0
M  V30 18213 H 1688.26 0.845625 3.77341 0
M  V30 18214 H 1689.95 1.25546 3.85996 0
M  V30 18215 H 1690.72 3.64838 3.1956 0
M  V30 18216 H 1686.6 2.58951 3.81399 0
M  V30 18217 H 1690.14 6.02831 3.51056 0
M  V30 18218 H 1686.04 4.96052 4.1304 0
M  V30 18219 H 1686.81 7.03571 4.18246 0
M  V30 18220 N 1689.47 -1.23186 0.98301 0
M  V30 18221 C 1690.4 -2.27054 0.544858 0
M  V30 18222 C 1691.38 -1.64749 -0.423281 0
M  V30 18223 O 1692.56 -1.91611 -0.316075 0
M  V30 18224 C 1689.69 -3.46972 -0.150976 0
M  V30 18225 C 1688.65 -4.21647 0.734707 0
M  V30 18226 C 1687.97 -5.34618 -0.0934874 0
M  V30 18227 C 1689.27 -4.81372 2.02679 0
M  V30 18228 H 1690.97 -2.63957 1.41305 0
M  V30 18229 H 1688.51 -1.26885 0.680895 0
M  V30 18230 H 1690.47 -4.18784 -0.468825 0
M  V30 18231 H 1689.19 -3.09137 -1.05364 0
M  V30 18232 H 1687.85 -3.51655 1.03605 0
M  V30 18233 H 1687.5 -4.93025 -0.996768 0
M  V30 18234 H 1687.2 -5.85503 0.496019 0
M  V30 18235 H 1688.72 -6.09251 -0.405658 0
M  V30 18236 H 1690.14 -5.45178 1.77353 0
M  V30 18237 H 1688.53 -5.42554 2.56429 0
M  V30 18238 H 1689.6 -4.01972 2.71194 0
M  V30 18239 N 1690.95 -0.754982 -1.38339 0
M  V30 18240 C 1692.19 -0.311146 -1.9969 0
M  V30 18241 C 1692.52 1.11138 -1.60229 0
M  V30 18242 O 1691.79 1.76024 -0.859794 0
M  V30 18243 H 1690.37 -0.112052 -0.738548 0
M  V30 18244 H 1693.03 -0.969386 -1.69083 0
M  V30 18245 H 1692.12 -0.375392 -3.09834 0
M  V30 18246 N 1692.42 1.49318 -0.504168 0
M  V30 18247 C 1693.37 2.29185 0.272566 0
M  V30 18248 C 1694.34 1.35726 0.957476 0
M  V30 18249 O 1695.53 1.64684 0.963524 0
M  V30 18250 C 1692.67 3.18477 1.32916 0
M  V30 18251 C 1691.78 4.26995 0.655704 0
M  V30 18252 C 1690.91 5.03498 1.69301 0
M  V30 18253 C 1689.95 6.0385 1.0016 0
M  V30 18254 N 1689.09 6.73507 1.98325 0
M  V30 18255 H 1693.93 2.951 -0.41474 0
M  V30 18256 H 1691.47 1.455 -0.216372 0
M  V30 18257 H 1693.43 3.68624 1.95377 0
M  V30 18258 H 1692.06 2.54539 1.98519 0
M  V30 18259 H 1691.11 3.80311 -0.0822653 0
M  V30 18260 H 1692.42 4.98675 0.111584 0
M  V30 18261 H 1691.57 5.5753 2.39259 0
M  V30 18262 H 1690.31 4.31599 2.27099 0
M  V30 18263 H 1689.32 5.49046 0.287811 0
M  V30 18264 H 1690.54 6.77737 0.430073 0
M  V30 18265 H 1688.49 6.04376 2.55079 0
M  V30 18266 H 1688.41 7.41174 1.48988 0
M  V30 18267 H 1689.67 7.32141 2.67561 0
M  V30 18268 N 1693.9 0.238138 1.5579 0
M  V30 18269 C 1695.15 -0.389474 1.97904 0
M  V30 18270 C 1695.46 -1.59707 1.1293 0
M  V30 18271 O 1696.67 -2.29526 1.45017 0
M  V30 18272 C 1695.13 -0.744319 3.52119 0
M  V30 18273 C 1694.73 0.441387 4.4582 0
M  V30 18274 C 1696.48 -1.33661 4.02908 0
M  V30 18275 C 1694.39 0.063184 5.91366 0
M  V30 18276 H 1693.32 -0.149291 0.739072 0
M  V30 18277 H 1695.97 0.336972 1.80379 0
M  V30 18278 H 1694.35 -1.52865 3.65306 0
M  V30 18279 H 1695.52 1.21881 4.44389 0
M  V30 18280 H 1693.84 0.948017 4.05465 0
M  V30 18281 H 1696.43 -1.63276 5.09161 0
M  V30 18282 H 1696.78 -2.2581 3.49737 0
M  V30 18283 H 1697.31 -0.615366 3.93012 0
M  V30 18284 H 1694.05 0.951584 6.48556 0
M  V30 18285 H 1693.57 -0.678216 5.95953 0
M  V30 18286 H 1695.25 -0.357712 6.4601 0
M  V30 18287 N 1695.38 -1.57561 -0.0350783 0
M  V30 18288 C 1696.66 -1.8014 -0.76217 0
M  V30 18289 C 1697.04 -0.834754 -1.93894 0
M  V30 18290 O 1696.39 0.124387 -2.28161 0
M  V30 18291 C 1696.6 -3.2769 -1.20084 0
M  V30 18292 C 1697.94 -3.92513 -1.61923 0
M  V30 18293 O 1698.97 -3.31803 -1.29558 0
M  V30 18294 O 1697.83 -4.9939 -2.21972 0
M  V30 18295 H 1694.92 -0.740572 -0.368078 0
M  V30 18296 H 1697.47 -1.69696 -0.0123195 0
M  V30 18297 H 1696.24 -3.89636 -0.3605 0
M  V30 18298 H 1695.86 -3.43 -2.01089 0
M  V30 18299 N 1696.86 0.307236 -1.54576 0
M  V30 18300 C 1697.79 1.38357 -1.88095 0
M  V30 18301 C 1698.77 1.53196 -0.739253 0
M  V30 18302 O 1699.95 1.66807 -0.99444 0
M  V30 18303 C 1697.08 2.74876 -2.12274 0
M  V30 18304 C 1696.04 2.74809 -3.28122 0
M  V30 18305 C 1695.36 4.14557 -3.37707 0
M  V30 18306 C 1696.66 2.37103 -4.65381 0
M  V30 18307 H 1698.36 1.10554 -2.78241 0
M  V30 18308 H 1695.9 0.530383 -1.33877 0
M  V30 18309 H 1697.86 3.50254 -2.34308 0
M  V30 18310 H 1696.58 3.04191 -1.18893 0
M  V30 18311 H 1695.24 2.01887 -3.06002 0
M  V30 18312 H 1694.89 4.41039 -2.41854 0
M  V30 18313 H 1694.59 4.15415 -4.15577 0
M  V30 18314 H 1696.11 4.91724 -3.61994 0
M  V30 18315 H 1697.53 3.02196 -4.87186 0
M  V30 18316 H 1695.92 2.49184 -5.45919 0
M  V30 18317 H 1696.99 1.32235 -4.66521 0
M  V30 18318 N 1698.34 1.46926 0.570122 0
M  V30 18319 C 1699.58 1.54455 1.33876 0
M  V30 18320 C 1699.94 0.196741 1.90989 0
M  V30 18321 O 1701.14 0.146824 2.68399 0
M  V30 18322 C 1699.41 2.622 2.42871 0
M  V30 18323 S 1700.97 2.89222 3.29994 0
M  V30 18324 H 1697.79 0.545564 0.45594 0
M  V30 18325 H 1700.39 1.84234 0.654081 0
M  V30 18326 H 1699.1 3.58744 1.99325 0
M  V30 18327 H 1698.63 2.34194 3.16096 0
M  V30 18328 H 1700.64 2.25452 4.42025 0
M  V30 18329 N 1699.82 -0.815801 1.34842 0
M  V30 18330 C 1701.06 -1.57241 1.27599 0
M  V30 18331 C 1701.39 -1.93904 -0.152127 0
M  V30 18332 O 1700.65 -1.60819 -1.11515 0
M  V30 18333 C 1700.94 -2.87795 2.11917 0
M  V30 18334 C 1700.61 -2.70392 3.60831 0
M  V30 18335 C 1699.27 -2.65353 4.01424 0
M  V30 18336 C 1701.62 -2.53569 4.55359 0
M  V30 18337 C 1698.95 -2.41422 5.34726 0
M  V30 18338 C 1701.3 -2.31169 5.8885 0
M  V30 18339 C 1699.97 -2.24546 6.28598 0
M  V30 18340 H 1699.24 -0.575386 0.466918 0
M  V30 18341 H 1701.89 -0.943355 1.66653 0
M  V30 18342 H 1700.19 -3.5503 1.65714 0
M  V30 18343 H 1701.89 -3.45436 2.03654 0
M  V30 18344 H 1698.48 -2.75157 3.28613 0
M  V30 18345 H 1702.66 -2.5648 4.2489 0
M  V30 18346 H 1697.92 -2.34758 5.64534 0
M  V30 18347 H 1702.09 -2.1714 6.61682 0
M  V30 18348 H 1699.72 -2.05765 7.31823 0
M  V30 18349 N 1701.29 -1.18689 -1.03686 0
M  V30 18350 C 1702.52 -1.00961 -1.80595 0
M  V30 18351 C 1702.94 0.44188 -1.83556 0
M  V30 18352 O 1702.29 1.30693 -1.27379 0
M  V30 18353 C 1702.34 -1.56185 -3.26019 0
M  V30 18354 O 1702.07 -2.95652 -3.23298 0
M  V30 18355 C 1703.57 -1.43129 -4.19558 0
M  V30 18356 H 1700.79 -0.356291 -0.568593 0
M  V30 18357 H 1703.33 -1.57324 -1.3065 0
M  V30 18358 H 1701.49 -1.03989 -3.73182 0
M  V30 18359 H 1701.9 -3.21481 -4.14427 0
M  V30 18360 H 1703.37 -1.86561 -5.19518 0
M  V30 18361 H 1703.85 -0.380581 -4.37548 0
M  V30 18362 H 1704.46 -1.94416 -3.78262 0
M  V30 18363 N 1702.77 1.22662 -0.989529 0
M  V30 18364 C 1704 1.95343 -0.681822 0
M  V30 18365 C 1704.41 1.73139 0.752889 0
M  V30 18366 O 1703.77 1.02838 1.50766 0
M  V30 18367 C 1703.82 3.4813 -0.974049 0
M  V30 18368 O 1703.54 3.69587 -2.35238 0
M  V30 18369 C 1705.04 4.37998 -0.683571 0
M  V30 18370 H 1702.26 0.621675 -0.252509 0
M  V30 18371 H 1704.81 1.55906 -1.32339 0
M  V30 18372 H 1702.96 3.85548 -0.378344 0
M  V30 18373 H 1703.38 4.63812 -2.44906 0
M  V30 18374 H 1704.85 5.43966 -0.938338 0
M  V30 18375 H 1705.33 4.37532 0.382417 0
M  V30 18376 H 1705.93 4.06202 -1.26017 0
M  V30 18377 N 1704.25 0.762308 1.37937 0
M  V30 18378 C 1705.5 0.322846 2.00214 0
M  V30 18379 C 1705.83 -1.09513 1.60376 0
M  V30 18380 O 1705.1 -1.75165 0.845432 0
M  V30 18381 C 1705.39 0.455651 3.57206 0
M  V30 18382 C 1705.24 1.91537 4.06981 0
M  V30 18383 C 1706.56 -0.145758 4.39859 0
M  V30 18384 H 1703.68 0.118781 0.727365 0
M  V30 18385 H 1706.32 0.963585 1.63753 0
M  V30 18386 H 1704.47 -0.0898341 3.88396 0
M  V30 18387 H 1706.14 2.51983 3.86397 0
M  V30 18388 H 1704.38 2.42744 3.59524 0
M  V30 18389 H 1705.06 1.9594 5.16054 0
M  V30 18390 H 1707.53 0.31956 4.14871 0
M  V30 18391 H 1706.41 -0.0226441 5.48895 0
M  V30 18392 H 1706.67 -1.23504 4.24499 0
M  V30 18393 N 1705.73 -1.49049 0.51208 0
M  V30 18394 C 1706.97 -2.0278 -0.0285311 0
M  V30 18395 C 1707.31 -1.39003 -1.35617 0
M  V30 18396 O 1706.58 -0.52952 -1.87153 0
M  V30 18397 C 1706.86 -3.59701 -0.169433 0
M  V30 18398 C 1706.72 -4.33989 1.18211 0
M  V30 18399 C 1708.04 -4.30698 -0.904812 0
M  V30 18400 H 1705.16 -0.736946 -0.00889467 0
M  V30 18401 H 1707.8 -1.77959 0.66564 0
M  V30 18402 H 1705.95 -3.8098 -0.760667 0
M  V30 18403 H 1707.62 -4.24176 1.81307 0
M  V30 18404 H 1705.86 -3.9611 1.76859 0
M  V30 18405 H 1706.53 -5.42177 1.03671 0
M  V30 18406 H 1709.01 -4.14141 -0.40327 0
M  V30 18407 H 1707.89 -5.40221 -0.972264 0
M  V30 18408 H 1708.15 -3.96718 -1.95108 0
M  V30 18409 N 1707.21 -0.246397 -1.55662 0
M  V30 18410 C 1708.14 0.647563 -2.24341 0
M  V30 18411 C 1709.12 1.1817 -1.22352 0
M  V30 18412 O 1710.3 1.22114 -1.51003 0
M  V30 18413 C 1707.43 1.84485 -2.94249 0
M  V30 18414 C 1706.39 1.4435 -4.02923 0
M  V30 18415 C 1705.71 2.72158 -4.60255 0
M  V30 18416 C 1707.01 0.614951 -5.18667 0
M  V30 18417 H 1708.71 0.0748803 -2.99306 0
M  V30 18418 H 1706.25 0.034575 -1.43958 0
M  V30 18419 H 1708.2 2.47588 -3.40995 0
M  V30 18420 H 1706.93 2.4429 -2.16772 0
M  V30 18421 H 1705.59 0.835811 -3.56945 0
M  V30 18422 H 1705.24 3.3016 -3.79478 0
M  V30 18423 H 1704.94 2.46028 -5.33614 0
M  V30 18424 H 1706.46 3.36161 -5.09734 0
M  V30 18425 H 1707.87 1.15028 -5.61642 0
M  V30 18426 H 1706.27 0.449729 -5.98412 0
M  V30 18427 H 1707.34 -0.372943 -4.83464 0
M  V30 18428 N 1708.68 1.57577 0.026722 0
M  V30 18429 C 1709.93 1.8856 0.716115 0
M  V30 18430 C 1710.25 0.845223 1.76395 0
M  V30 18431 O 1711.45 1.04435 2.5061 0
M  V30 18432 C 1709.91 3.34631 1.32476 0
M  V30 18433 C 1709.52 4.46904 0.313149 0
M  V30 18434 C 1711.26 3.74759 1.9939 0
M  V30 18435 C 1709.17 5.84038 0.930274 0
M  V30 18436 H 1708.1 0.703531 0.271221 0
M  V30 18437 H 1710.75 1.83476 -0.0294388 0
M  V30 18438 H 1709.13 3.34466 2.1201 0
M  V30 18439 H 1710.3 4.58542 -0.455647 0
M  V30 18440 H 1708.62 4.15624 -0.254028 0
M  V30 18441 H 1711.22 4.74534 2.46418 0
M  V30 18442 H 1711.56 3.06875 2.81307 0
M  V30 18443 H 1712.09 3.77108 1.26628 0
M  V30 18444 H 1708.83 6.55327 0.150466 0
M  V30 18445 H 1708.35 5.76116 1.66886 0
M  V30 18446 H 1710.03 6.30842 1.43692 0
M  V30 18447 N 1710.16 -0.299034 1.54737 0
M  V30 18448 C 1711.41 -1.03553 1.74369 0
M  V30 18449 C 1711.74 -1.86856 0.529019 0
M  V30 18450 O 1711.02 -1.8864 -0.473854 0
M  V30 18451 C 1711.3 -1.93988 3.03382 0
M  V30 18452 C 1711.15 -1.13852 4.35153 0
M  V30 18453 C 1712.47 -2.93128 3.28274 0
M  V30 18454 H 1709.59 -0.375055 0.634431 0
M  V30 18455 H 1712.23 -0.310018 1.87454 0
M  V30 18456 H 1710.38 -2.5585 2.92358 0
M  V30 18457 H 1712.05 -0.542614 4.58098 0
M  V30 18458 H 1710.3 -0.441278 4.3155 0
M  V30 18459 H 1710.97 -1.80385 5.21694 0
M  V30 18460 H 1713.44 -2.41396 3.38921 0
M  V30 18461 H 1712.32 -3.53569 4.19857 0
M  V30 18462 H 1712.58 -3.66892 2.46663 0
M  V30 18463 N 1711.64 -1.47227 -0.562322 0
M  V30 18464 C 1712.89 -1.52851 -1.31604 0
M  V30 18465 C 1713.2 -0.193236 -1.94643 0
M  V30 18466 O 1714.41 -0.127429 -2.71201 0
M  V30 18467 C 1712.86 -2.69422 -2.3862 0
M  V30 18468 C 1712.47 -4.09457 -1.81794 0
M  V30 18469 C 1714.22 -2.84334 -3.15205 0
M  V30 18470 C 1712.12 -5.17337 -2.8656 0
M  V30 18471 H 1711.05 -0.568923 -0.494816 0
M  V30 18472 H 1713.7 -1.73489 -0.597819 0
M  V30 18473 H 1712.09 -2.42153 -3.13333 0
M  V30 18474 H 1713.26 -4.46606 -1.13487 0
M  V30 18475 H 1711.57 -3.99387 -1.17811 0
M  V30 18476 H 1714.17 -3.621 -3.93431 0
M  V30 18477 H 1714.51 -1.9259 -3.69073 0
M  V30 18478 H 1715.05 -3.11348 -2.47603 0
M  V30 18479 H 1711.79 -6.1094 -2.37554 0
M  V30 18480 H 1711.31 -4.8471 -3.53293 0
M  V30 18481 H 1712.99 -5.44065 -3.50146 0
M  V30 18482 N 1713.12 0.808639 -1.35273 0
M  V30 18483 C 1714.37 1.56253 -1.28177 0
M  V30 18484 C 1714.69 1.94466 0.144151 0
M  V30 18485 O 1713.96 1.63433 1.08011 0
M  V30 18486 H 1712.54 0.579431 -0.471454 0
M  V30 18487 H 1715.2 0.964675 -1.69352 0
M  V30 18488 H 1714.29 2.47888 -1.89625 0
M  V30 18489 N 1714.6 1.19237 1.03055 0
M  V30 18490 C 1715.53 0.95226 2.132 0
M  V30 18491 C 1716.51 -0.113771 1.69719 0
M  V30 18492 O 1717.69 0.0409057 1.94157 0
M  V30 18493 C 1714.82 0.488296 3.4385 0
M  V30 18494 C 1713.78 1.49597 4.01005 0
M  V30 18495 C 1713.1 0.889148 5.27255 0
M  V30 18496 C 1714.4 2.87571 4.36005 0
M  V30 18497 H 1716.1 1.87343 2.33544 0
M  V30 18498 H 1713.64 0.902172 1.12236 0
M  V30 18499 H 1715.6 0.307623 4.20276 0
M  V30 18500 H 1714.32 -0.468469 3.23223 0
M  V30 18501 H 1712.98 1.66376 3.26672 0
M  V30 18502 H 1712.63 -0.0751191 5.02944 0
M  V30 18503 H 1712.33 1.56202 5.66458 0
M  V30 18504 H 1713.85 0.719233 6.06349 0
M  V30 18505 H 1715.26 2.74384 5.03375 0
M  V30 18506 H 1713.66 3.51635 4.86285 0
M  V30 18507 H 1714.73 3.40353 3.45381 0
M  V30 18508 N 1716.07 -1.22136 0.99602 0
M  V30 18509 C 1717.32 -1.9028 0.66907 0
M  V30 18510 C 1717.64 -1.7837 -0.802717 0
M  V30 18511 O 1718.84 -2.41458 -1.24138 0
M  V30 18512 C 1717.3 -3.4116 1.1462 0
M  V30 18513 C 1716.91 -3.617 2.64343 0
M  V30 18514 C 1718.65 -4.14985 0.893718 0
M  V30 18515 C 1716.56 -5.06297 3.05642 0
M  V30 18516 H 1715.49 -0.71255 0.246554 0
M  V30 18517 H 1718.14 -1.38304 1.20599 0
M  V30 18518 H 1716.52 -3.92337 0.537378 0
M  V30 18519 H 1717.69 -3.21002 3.30597 0
M  V30 18520 H 1716.01 -3.01212 2.87507 0
M  V30 18521 H 1718.61 -5.21564 1.17794 0
M  V30 18522 H 1718.95 -4.15952 -0.17013 0
M  V30 18523 H 1719.48 -3.69846 1.46488 0
M  V30 18524 H 1716.22 -5.10472 4.11216 0
M  V30 18525 H 1715.74 -5.47885 2.44094 0
M  V30 18526 H 1717.42 -5.74743 2.97118 0
M  V30 18527 N 1717.55 -0.769612 -1.37531 0
M  V30 18528 C 1718.8 -0.329661 -1.98988 0
M  V30 18529 C 1719.11 1.0993 -1.61786 0
M  V30 18530 O 1720.32 1.64053 -2.1633 0
M  V30 18531 C 1718.78 -0.538461 -3.55849 0
M  V30 18532 C 1718.38 -1.97755 -4.01991 0
M  V30 18533 C 1720.13 -0.162026 -4.24191 0
M  V30 18534 C 1718.04 -2.13406 -5.51554 0
M  V30 18535 H 1716.97 -0.119514 -0.744468 0
M  V30 18536 H 1719.62 -0.948436 -1.57089 0
M  V30 18537 H 1718 0.14974 -3.95717 0
M  V30 18538 H 1719.17 -2.70053 -3.73374 0
M  V30 18539 H 1717.49 -2.31038 -3.46425 0
M  V30 18540 H 1720.08 -0.257508 -5.3408 0
M  V30 18541 H 1720.43 0.887442 -4.06731 0
M  V30 18542 H 1720.96 -0.802692 -3.89617 0
M  V30 18543 H 1717.7 -3.16664 -5.73937 0
M  V30 18544 H 1717.22 -1.45589 -5.81862 0
M  V30 18545 H 1718.9 -1.93165 -6.17492 0
M  V30 18546 N 1719.03 1.48775 -0.519977 0
M  V30 18547 C 1719.99 2.27967 0.237405 0
M  V30 18548 C 1720.99 1.34787 0.876868 0
M  V30 18549 O 1722.18 1.57773 0.738463 0
M  V30 18550 C 1719.32 3.13353 1.34248 0
M  V30 18551 H 1720.51 2.96386 -0.457753 0
M  V30 18552 H 1718.06 1.53852 -0.275569 0
M  V30 18553 H 1718.8 2.49543 2.0712 0
M  V30 18554 H 1718.58 3.81885 0.889187 0
M  V30 18555 H 1720.07 3.73116 1.87547 0
M  V30 18556 N 1720.51 0.254649 1.55529 0
M  V30 18557 C 1721.92 -0.100019 1.59286 0
M  V30 18558 C 1722.12 -1.56289 1.27185 0
M  V30 18559 O 1721.18 -2.30854 1.02287 0
M  V30 18560 C 1722.49 0.256158 2.99607 0
M  V30 18561 C 1724.04 0.201091 3.12353 0
M  V30 18562 C 1724.52 0.531411 4.54907 0
M  V30 18563 N 1726.01 0.482199 4.60683 0
M  V30 18564 C 1726.74 0.710848 5.68977 0
M  V30 18565 N 1726.24 1.00304 6.85501 0
M  V30 18566 N 1728.03 0.641029 5.58433 0
M  V30 18567 H 1720.18 1.20856 1.74664 0
M  V30 18568 H 1722.45 0.486824 0.813453 0
M  V30 18569 H 1722.15 1.27275 3.27863 0
M  V30 18570 H 1722.03 -0.412994 3.74932 0
M  V30 18571 H 1724.41 -0.806189 2.83874 0
M  V30 18572 H 1724.49 0.904206 2.39286 0
M  V30 18573 H 1724.14 1.53628 4.84108 0
M  V30 18574 H 1724.07 -0.193269 5.26245 0
M  V30 18575 H 1726.56 0.265409 3.76967 0
M  V30 18576 H 1726.87 1.16472 7.63973 0
M  V30 18577 H 1725.22 1.04059 6.87166 0
M  V30 18578 H 1728.41 0.412751 4.66277 0
M  V30 18579 H 1728.58 0.822617 6.42757 0
M  V30 18580 N 1721.99 -1.57589 -0.0183649 0
M  V30 18581 C 1723.4 -1.55152 -0.374183 0
M  V30 18582 C 1723.6 -0.98217 -1.75942 0
M  V30 18583 O 1722.66 -0.607905 -2.45073 0
M  V30 18584 C 1723.97 -2.99519 -0.266231 0
M  V30 18585 C 1725.52 -3.1112 -0.342527 0
M  V30 18586 C 1725.99 -4.57239 -0.263905 0
M  V30 18587 N 1727.49 -4.62077 -0.322372 0
M  V30 18588 C 1728.22 -5.72693 -0.284594 0
M  V30 18589 N 1727.72 -6.92516 -0.198482 0
M  V30 18590 N 1729.51 -5.611 -0.335111 0
M  V30 18591 H 1721.66 -1.92945 0.888033 0
M  V30 18592 H 1723.92 -0.885432 0.338695 0
M  V30 18593 H 1723.63 -3.44942 0.686123 0
M  V30 18594 H 1723.5 -3.62127 -1.05565 0
M  V30 18595 H 1725.89 -2.65638 -1.28532 0
M  V30 18596 H 1725.97 -2.51324 0.476435 0
M  V30 18597 H 1725.62 -5.03391 0.675263 0
M  V30 18598 H 1725.55 -5.14959 -1.10111 0
M  V30 18599 H 1728.04 -3.75872 -0.391004 0
M  V30 18600 H 1728.35 -7.72602 -0.175048 0
M  V30 18601 H 1726.69 -6.94806 -0.164374 0
M  V30 18602 H 1729.89 -4.66384 -0.400452 0
M  V30 18603 H 1730.06 -6.47295 -0.302203 0
M  V30 18604 N 1723.46 0.290824 -1.54893 0
M  V30 18605 C 1724.74 1.04495 -1.65348 0
M  V30 18606 C 1725.12 2.04888 -0.508348 0
M  V30 18607 O 1724.47 2.23102 0.493749 0
M  V30 18608 C 1724.68 1.71772 -3.03801 0
M  V30 18609 C 1726.03 2.23595 -3.60958 0
M  V30 18610 O 1727.05 1.81788 -3.06319 0
M  V30 18611 O 1725.91 3.00225 -4.56648 0
M  V30 18612 H 1723 0.483605 -0.670862 0
M  V30 18613 H 1725.55 0.288101 -1.67237 0
M  V30 18614 H 1724.32 0.989296 -3.78588 0
M  V30 18615 H 1723.95 2.54188 -3.05735 0
M  V30 18616 N 1724.94 1.47523 0.554506 0
M  V30 18617 C 1726.35 1.48114 1.13662 0
M  V30 18618 C 1726.7 0.237321 1.94759 0
M  V30 18619 O 1725.83 -0.657558 2.06168 0
M  V30 18620 C 1726.42 2.68366 2.06797 0
M  V30 18621 C 1724.98 2.71908 2.60274 0
M  V30 18622 C 1724.13 2.41258 1.3671 0
M  V30 18623 H 1727.08 1.54994 0.34097 0
M  V30 18624 H 1727.1 2.4549 2.90714 0
M  V30 18625 H 1726.61 3.58877 1.47745 0
M  V30 18626 H 1724.72 1.85543 3.23117 0
M  V30 18627 H 1724.83 3.72673 3.01084 0
M  V30 18628 H 1723.19 1.91897 1.67474 0
M  V30 18629 H 1723.98 3.3398 0.794476 0
M  V30 18630 N 1726.42 -0.801453 1.357 0
M  V30 18631 C 1727.65 -1.59001 1.32386 0
M  V30 18632 C 1728.06 -1.88548 -0.0975432 0
M  V30 18633 O 1727.42 -1.49199 -1.05099 0
M  V30 18634 C 1727.47 -2.91822 2.13359 0
M  V30 18635 O 1727.19 -2.63554 3.49958 0
M  V30 18636 C 1728.69 -3.86169 2.17689 0
M  V30 18637 H 1725.91 -0.493557 0.45458 0
M  V30 18638 H 1728.46 -0.995616 1.78627 0
M  V30 18639 H 1726.61 -3.47763 1.70704 0
M  V30 18640 H 1727.03 -3.48397 3.92071 0
M  V30 18641 H 1728.5 -4.76461 2.78727 0
M  V30 18642 H 1728.98 -4.23134 1.17704 0
M  V30 18643 H 1729.58 -3.36163 2.60527 0
M  V30 18644 N 1727.9 -1.19782 -1.02421 0
M  V30 18645 C 1729.15 -0.997598 -1.75302 0
M  V30 18646 C 1729.46 0.471843 -1.89824 0
M  V30 18647 O 1730.67 0.790999 -2.59722 0
M  V30 18648 C 1729.12 -1.73608 -3.15259 0
M  V30 18649 C 1728.73 -3.24594 -3.08776 0
M  V30 18650 C 1730.47 -1.61927 -3.92403 0
M  V30 18651 C 1728.38 -3.91012 -4.43693 0
M  V30 18652 H 1727.31 -0.369643 -0.657176 0
M  V30 18653 H 1729.96 -1.43325 -1.14587 0
M  V30 18654 H 1728.34 -1.22826 -3.7647 0
M  V30 18655 H 1729.52 -3.82531 -2.56918 0
M  V30 18656 H 1727.83 -3.36603 -2.45127 0
M  V30 18657 H 1730.43 -2.08896 -4.92206 0
M  V30 18658 H 1730.77 -0.574192 -4.12321 0
M  V30 18659 H 1731.31 -2.10081 -3.37803 0
M  V30 18660 H 1728.05 -4.95639 -4.28979 0
M  V30 18661 H 1727.57 -3.37864 -4.95588 0
M  V30 18662 H 1729.24 -3.94828 -5.12562 0
M  V30 18663 N 1729.38 1.21606 -1.00248 0
M  V30 18664 C 1730.62 1.9089 -0.684765 0
M  V30 18665 C 1730.96 1.77749 0.78224 0
M  V30 18666 O 1730.23 1.15251 1.56676 0
M  V30 18667 C 1730.51 3.42778 -1.1034 0
M  V30 18668 C 1730.37 3.64923 -2.62967 0
M  V30 18669 C 1731.69 4.35064 -0.663877 0
M  V30 18670 H 1728.81 0.693217 -0.250239 0
M  V30 18671 H 1731.45 1.4329 -1.24772 0
M  V30 18672 H 1729.6 3.83449 -0.624415 0
M  V30 18673 H 1731.27 3.33595 -3.18609 0
M  V30 18674 H 1729.51 3.08874 -3.04596 0
M  V30 18675 H 1730.18 4.71335 -2.87311 0
M  V30 18676 H 1732.66 4.01962 -1.07544 0
M  V30 18677 H 1731.54 5.3999 -0.984987 0
M  V30 18678 H 1731.8 4.39954 0.435095 0
M  V30 18679 N 1730.86 0.776895 1.37121 0
M  V30 18680 C 1732.27 0.408311 1.8218 0
M  V30 18681 C 1732.62 -1.06621 1.64701 0
M  V30 18682 O 1731.74 -1.82621 1.16097 0
M  V30 18683 C 1732.34 0.734339 3.30746 0
M  V30 18684 C 1730.9 0.418746 3.74063 0
M  V30 18685 C 1730.04 0.97551 2.59575 0
M  V30 18686 H 1732.99 0.971111 1.25519 0
M  V30 18687 H 1733.02 0.0208557 3.80494 0
M  V30 18688 H 1732.53 1.80757 3.43436 0
M  V30 18689 H 1730.63 -0.646961 3.6694 0
M  V30 18690 H 1730.74 0.930597 4.69975 0
M  V30 18691 H 1729.11 0.399449 2.51548 0
M  V30 18692 H 1729.89 2.05425 2.75056 0
M  V30 18693 N 1732.33 -1.48497 0.527859 0
M  V30 18694 C 1733.26 -2.32414 -0.224891 0
M  V30 18695 C 1734.24 -1.41959 -0.93711 0
M  V30 18696 O 1735.43 -1.70847 -0.923302 0
M  V30 18697 C 1732.56 -3.23106 -1.27356 0
M  V30 18698 C 1731.51 -4.2257 -0.679611 0
M  V30 18699 C 1730.84 -5.02381 -1.83077 0
M  V30 18700 C 1732.14 -5.21144 0.347269 0
M  V30 18701 H 1733.83 -2.95598 0.475632 0
M  V30 18702 H 1731.38 -1.42148 0.230182 0
M  V30 18703 H 1733.33 -3.80639 -1.8081 0
M  V30 18704 H 1732.06 -2.57919 -2.00363 0
M  V30 18705 H 1730.72 -3.66221 -0.166608 0
M  V30 18706 H 1730.36 -4.3362 -2.54918 0
M  V30 18707 H 1730.06 -5.697 -1.43929 0
M  V30 18708 H 1731.59 -5.62765 -2.36914 0
M  V30 18709 H 1733 -5.73213 -0.100107 0
M  V30 18710 H 1731.4 -5.96503 0.656021 0
M  V30 18711 H 1732.47 -4.6841 1.25379 0
M  V30 18712 N 1733.81 -0.262893 -1.55392 0
M  V30 18713 C 1735.06 0.357895 -1.99617 0
M  V30 18714 C 1735.39 1.56415 -1.151 0
M  V30 18715 O 1734.67 1.93273 -0.218139 0
M  V30 18716 C 1734.95 0.752095 -3.52158 0
M  V30 18717 C 1734.8 -0.460658 -4.47435 0
M  V30 18718 C 1736.12 1.59314 -4.10253 0
M  V30 18719 H 1733.24 0.128612 -0.725691 0
M  V30 18720 H 1735.88 -0.367399 -1.86414 0
M  V30 18721 H 1734.03 1.37006 -3.6354 0
M  V30 18722 H 1735.7 -1.09918 -4.48013 0
M  V30 18723 H 1733.95 -1.10093 -4.19597 0
M  V30 18724 H 1734.62 -0.141262 -5.51819 0
M  V30 18725 H 1737.09 1.07135 -4.02071 0
M  V30 18726 H 1735.97 1.83779 -5.1722 0
M  V30 18727 H 1736.23 2.57022 -3.59711 0
M  V30 18728 N 1735.29 1.57597 0.0100073 0
M  V30 18729 C 1736.52 1.94402 0.708192 0
M  V30 18730 C 1736.93 0.864205 1.6786 0
M  V30 18731 O 1736.29 -0.157763 1.81817 0
M  V30 18732 C 1736.34 3.312 1.44876 0
M  V30 18733 O 1736.06 4.35035 0.517281 0
M  V30 18734 C 1737.56 3.82404 2.24237 0
M  V30 18735 H 1734.78 0.64116 0.197877 0
M  V30 18736 H 1737.33 2.04464 -0.0381373 0
M  V30 18737 H 1735.48 3.22476 2.1468 0
M  V30 18738 H 1735.9 5.14113 1.03868 0
M  V30 18739 H 1737.37 4.80578 2.71567 0
M  V30 18740 H 1737.85 3.14587 3.06483 0
M  V30 18741 H 1738.45 3.94271 1.59469 0
M  V30 18742 N 1736.77 -0.282606 1.55045 0
M  V30 18743 C 1738.02 -1.0132 1.74405 0
M  V30 18744 C 1738.33 -1.87792 0.547133 0
M  V30 18745 O 1739.54 -2.64257 0.622931 0
M  V30 18746 C 1737.99 -1.85128 3.08635 0
M  V30 18747 C 1737.6 -1.0357 4.35864 0
M  V30 18748 C 1739.34 -2.57676 3.37347 0
M  V30 18749 C 1737.25 -1.86761 5.61137 0
M  V30 18750 H 1736.18 -0.382013 0.650063 0
M  V30 18751 H 1738.83 -0.269307 1.81513 0
M  V30 18752 H 1737.21 -2.63576 2.95539 0
M  V30 18753 H 1738.39 -0.296061 4.59848 0
M  V30 18754 H 1736.7 -0.425208 4.14223 0
M  V30 18755 H 1739.3 -3.20303 4.28147 0
M  V30 18756 H 1739.64 -3.27464 2.57046 0
M  V30 18757 H 1740.18 -1.86264 3.51497 0
M  V30 18758 H 1736.91 -1.2141 6.44158 0
M  V30 18759 H 1736.43 -2.58348 5.4131 0
M  V30 18760 H 1738.11 -2.44361 5.9908 0
M  V30 18761 N 1738.25 -1.47815 -0.546675 0
M  V30 18762 C 1739.18 -1.55643 -1.66884 0
M  V30 18763 C 1740.16 -0.407884 -1.57401 0
M  V30 18764 O 1741.34 -0.617164 -1.7811 0
M  V30 18765 C 1738.47 -1.46883 -3.05193 0
M  V30 18766 C 1737.51 -2.66372 -3.33089 0
M  V30 18767 S 1738.35 -4.28485 -3.21187 0
M  V30 18768 C 1739.5 -4.22295 -4.61971 0
M  V30 18769 H 1739.74 -2.5058 -1.59991 0
M  V30 18770 H 1737.27 -1.36142 -0.728331 0
M  V30 18771 H 1739.23 -1.42516 -3.84967 0
M  V30 18772 H 1737.89 -0.533133 -3.09542 0
M  V30 18773 H 1737.08 -2.56335 -4.33945 0
M  V30 18774 H 1736.68 -2.67915 -2.60955 0
M  V30 18775 H 1738.97 -3.91199 -5.53145 0
M  V30 18776 H 1739.92 -5.23274 -4.77064 0
M  V30 18777 H 1740.33 -3.53001 -4.40512 0
M  V30 18778 N 1739.72 0.794246 -1.36123 0
M  V30 18779 C 1740.69 1.88828 -1.2991 0
M  V30 18780 C 1741.69 1.59451 -0.207839 0
M  V30 18781 O 1742.88 1.67953 -0.462321 0
M  V30 18782 C 1740.01 3.25511 -1.01269 0
M  V30 18783 H 1741.2 1.95753 -2.27202 0
M  V30 18784 H 1738.75 0.991505 -1.20826 0
M  V30 18785 H 1739.49 3.2427 -0.0441535 0
M  V30 18786 H 1739.27 3.48221 -1.80234 0
M  V30 18787 H 1740.76 4.0557 -0.995142 0
M  V30 18788 N 1741.2 1.20323 1.01785 0
M  V30 18789 C 1742.16 0.9527 2.08462 0
M  V30 18790 C 1743.16 -0.0712564 1.60642 0
M  V30 18791 O 1744.35 0.164672 1.7342 0
M  V30 18792 C 1741.49 0.434052 3.38125 0
M  V30 18793 H 1742.68 1.89895 2.32121 0
M  V30 18794 H 1740.23 1.01843 1.18565 0
M  V30 18795 H 1740.97 -0.51772 3.20141 0
M  V30 18796 H 1740.75 1.17248 3.74159 0
M  V30 18797 H 1742.24 0.278215 4.16672 0
M  V30 18798 N 1742.68 -1.21073 1.00892 0
M  V30 18799 C 1743.61 -2.25847 0.592897 0
M  V30 18800 C 1744.59 -1.6561 -0.38824 0
M  V30 18801 O 1745.78 -1.92238 -0.275361 0
M  V30 18802 C 1742.91 -3.47214 -0.0773439 0
M  V30 18803 C 1741.86 -4.19994 0.82398 0
M  V30 18804 C 1741.19 -5.34696 0.0199341 0
M  V30 18805 C 1742.49 -4.76964 2.12844 0
M  V30 18806 H 1744.18 -2.609 1.46873 0
M  V30 18807 H 1741.73 -1.25412 0.707656 0
M  V30 18808 H 1743.68 -4.19684 -0.379889 0
M  V30 18809 H 1742.4 -3.11303 -0.987833 0
M  V30 18810 H 1741.06 -3.49379 1.11041 0
M  V30 18811 H 1740.71 -4.95028 -0.891966 0
M  V30 18812 H 1740.41 -5.84319 0.620102 0
M  V30 18813 H 1741.93 -6.09974 -0.276336 0
M  V30 18814 H 1743.35 -5.41293 1.88878 0
M  V30 18815 H 1741.74 -5.36992 2.67879 0
M  V30 18816 H 1742.81 -3.96129 2.79659 0
M  V30 18817 N 1744.16 -0.784156 -1.36707 0
M  V30 18818 C 1745.57 -0.465219 -1.52669 0
M  V30 18819 C 1745.77 1.01729 -1.73935 0
M  V30 18820 O 1744.83 1.80289 -1.76783 0
M  V30 18821 C 1746.14 -1.29109 -2.71572 0
M  V30 18822 C 1747.69 -1.28424 -2.8544 0
M  V30 18823 C 1748.17 -2.09373 -4.07341 0
M  V30 18824 N 1749.66 -2.06792 -4.14477 0
M  V30 18825 C 1750.39 -2.66199 -5.07864 0
M  V30 18826 N 1749.89 -3.34445 -6.06728 0
M  V30 18827 N 1751.68 -2.55962 -5.0044 0
M  V30 18828 H 1743.83 -1.74456 -1.21156 0
M  V30 18829 H 1746.1 -0.741286 -0.59093 0
M  V30 18830 H 1745.8 -2.34219 -2.62363 0
M  V30 18831 H 1745.68 -0.928764 -3.65587 0
M  V30 18832 H 1748.06 -0.241077 -2.94114 0
M  V30 18833 H 1748.14 -1.68629 -1.92348 0
M  V30 18834 H 1747.79 -3.13718 -3.99429 0
M  V30 18835 H 1747.72 -1.66542 -4.99571 0
M  V30 18836 H 1750.21 -1.57118 -3.43689 0
M  V30 18837 H 1750.52 -3.77118 -6.74538 0
M  V30 18838 H 1748.87 -3.38546 -6.06969 0
M  V30 18839 H 1752.06 -2.02251 -4.22152 0
M  V30 18840 H 1752.23 -3.02553 -5.73032 0
M  V30 18841 N 1745.64 1.48215 -0.535727 0
M  V30 18842 C 1746.88 2.028 -0.00373305 0
M  V30 18843 C 1747.22 1.41143 1.33388 0
M  V30 18844 O 1746.49 0.559227 1.86287 0
M  V30 18845 C 1746.77 3.59925 0.112186 0
M  V30 18846 C 1746.63 4.32053 -1.251 0
M  V30 18847 C 1747.95 4.32083 0.836177 0
M  V30 18848 H 1745.06 0.736995 -0.00283063 0
M  V30 18849 H 1747.71 1.76877 -0.693868 0
M  V30 18850 H 1745.86 3.82142 0.69996 0
M  V30 18851 H 1747.53 4.21238 -1.88033 0
M  V30 18852 H 1745.77 3.93246 -1.83139 0
M  V30 18853 H 1746.44 5.4046 -1.12283 0
M  V30 18854 H 1748.92 4.1473 0.337333 0
M  V30 18855 H 1747.79 5.41699 0.886196 0
M  V30 18856 H 1748.06 3.99772 1.88771 0
M  V30 18857 N 1747.11 0.27113 1.5525 0
M  V30 18858 C 1748.34 -0.350248 2.03914 0
M  V30 18859 C 1748.76 -1.49763 1.14963 0
M  V30 18860 O 1748.11 -1.81717 0.168923 0
M  V30 18861 C 1748.17 -0.835056 3.51723 0
M  V30 18862 O 1747.89 0.266625 4.37288 0
M  V30 18863 C 1749.39 -1.52466 4.16256 0
M  V30 18864 H 1746.61 -0.0803955 0.666166 0
M  V30 18865 H 1749.15 0.402063 2.00509 0
M  V30 18866 H 1747.31 -1.53747 3.55585 0
M  V30 18867 H 1747.72 -0.105433 5.24394 0
M  V30 18868 H 1749.19 -1.81534 5.21296 0
M  V30 18869 H 1749.67 -2.45485 3.64189 0
M  V30 18870 H 1750.28 -0.8662 4.16386 0
M  V30 18871 N 1748.59 -1.576 -0.00164943 0
M  V30 18872 C 1749.5 -2.11748 -1.00995 0
M  V30 18873 C 1750.52 -1.06235 -1.37805 0
M  V30 18874 O 1751.69 -1.38127 -1.4657 0
M  V30 18875 C 1748.76 -2.60869 -2.2836 0
M  V30 18876 C 1747.82 -3.80976 -1.97879 0
M  V30 18877 C 1747.05 -4.27745 -3.19171 0
M  V30 18878 O 1747.28 -3.73856 -4.30799 0
M  V30 18879 O 1746.21 -5.19917 -3.03265 0
M  V30 18880 H 1750.04 -2.98117 -0.579667 0
M  V30 18881 H 1747.62 -1.47766 -0.220375 0
M  V30 18882 H 1749.5 -2.9267 -3.03187 0
M  V30 18883 H 1748.18 -1.77598 -2.7063 0
M  V30 18884 H 1747.09 -3.54151 -1.20533 0
M  V30 18885 H 1748.42 -4.65315 -1.60447 0
M  V30 18886 N 1750.07 0.274379 -1.55193 0
M  V30 18887 C 1751 1.34336 -1.90987 0
M  V30 18888 C 1751.98 1.51594 -0.771582 0
M  V30 18889 O 1753.17 1.6466 -1.0296 0
M  V30 18890 C 1750.3 2.70312 -2.18057 0
M  V30 18891 C 1749.25 2.67787 -3.33878 0
M  V30 18892 C 1748.58 4.07301 -3.46425 0
M  V30 18893 C 1749.88 2.27178 -4.70306 0
M  V30 18894 H 1751.57 1.04627 -2.80524 0
M  V30 18895 H 1749.12 0.501867 -1.34971 0
M  V30 18896 H 1751.07 3.45205 -2.41685 0
M  V30 18897 H 1749.79 3.01601 -1.25318 0
M  V30 18898 H 1748.45 1.95351 -3.10216 0
M  V30 18899 H 1748.1 4.3581 -2.51155 0
M  V30 18900 H 1747.8 4.06507 -4.24295 0
M  V30 18901 H 1749.32 4.83935 -3.72343 0
M  V30 18902 H 1750.74 2.91794 -4.93487 0
M  V30 18903 H 1749.14 2.37548 -5.51082 0
M  V30 18904 H 1750.21 1.22309 -4.69221 0
M  V30 18905 N 1751.55 1.48103 0.538828 0
M  V30 18906 C 1752.78 1.59316 1.32008 0
M  V30 18907 C 1753.19 0.250107 1.87136 0
M  V30 18908 O 1752.55 -0.759358 1.65952 0
M  V30 18909 C 1752.6 2.63287 2.47714 0
M  V30 18910 O 1752.32 3.92379 1.9486 0
M  V30 18911 C 1753.82 2.84856 3.39664 0
M  V30 18912 H 1751.04 0.53743 0.401758 0
M  V30 18913 H 1753.59 1.93864 0.65092 0
M  V30 18914 H 1751.74 2.31621 3.10532 0
M  V30 18915 H 1752.15 4.49346 2.70534 0
M  V30 18916 H 1753.63 3.61426 4.17223 0
M  V30 18917 H 1754.11 1.93352 3.9435 0
M  V30 18918 H 1754.71 3.17791 2.82647 0
M  V30 18919 N 1753.03 -0.787016 1.36542 0
M  V30 18920 C 1753.98 -1.88956 1.27592 0
M  V30 18921 C 1754.96 -1.60032 0.166904 0
M  V30 18922 O 1756.15 -1.72423 0.399932 0
M  V30 18923 C 1753.28 -3.26204 1.06986 0
M  V30 18924 C 1752.37 -3.6113 2.22365 0
M  V30 18925 N 1752.76 -3.67346 3.47693 0
M  V30 18926 C 1751.06 -3.91205 2.14183 0
M  V30 18927 C 1751.76 -3.98581 4.23684 0
M  V30 18928 N 1750.73 -4.13688 3.52651 0
M  V30 18929 H 1754.54 -1.91992 2.22522 0
M  V30 18930 H 1752.05 -0.982664 1.29296 0
M  V30 18931 H 1754.05 -4.05058 0.986603 0
M  V30 18932 H 1752.71 -3.24441 0.129582 0
M  V30 18933 H 1753.72 -3.49931 3.81797 0
M  V30 18934 H 1750.39 -3.97354 1.28125 0
M  V30 18935 H 1751.78 -4.10294 5.32079 0
M  V30 18936 N 1754.5 -1.20861 -1.01145 0
M  V30 18937 C 1755.44 -0.919862 -2.09931 0
M  V30 18938 C 1756.45 0.0944116 -1.62526 0
M  V30 18939 O 1757.64 -0.137265 -1.77971 0
M  V30 18940 C 1754.74 -0.358478 -3.36999 0
M  V30 18941 C 1753.91 -1.42553 -4.13518 0
M  V30 18942 C 1752.97 -0.874546 -5.18882 0
M  V30 18943 O 1752 -1.55646 -5.47506 0
M  V30 18944 N 1753.2 0.313462 -5.79653 0
M  V30 18945 H 1755.96 -1.85633 -2.35288 0
M  V30 18946 H 1753.52 -1.11299 -1.17577 0
M  V30 18947 H 1755.52 0.0243829 -4.04693 0
M  V30 18948 H 1754.09 0.482669 -3.08851 0
M  V30 18949 H 1753.31 -1.98251 -3.4072 0
M  V30 18950 H 1754.59 -2.14402 -4.61421 0
M  V30 18951 H 1753.99 0.884644 -5.5874 0
M  V30 18952 H 1752.55 0.637904 -6.48671 0
M  V30 18953 N 1755.98 1.20536 -1.01532 0
M  V30 18954 C 1757.39 1.71594 -0.735687 0
M  V30 18955 C 1757.74 1.81469 0.745873 0
M  V30 18956 O 1756.87 1.47638 1.58215 0
M  V30 18957 C 1757.46 3.11654 -1.3288 0
M  V30 18958 C 1756.02 3.60027 -1.09806 0
M  V30 18959 C 1755.17 2.37266 -1.43528 0
M  V30 18960 H 1758.12 1.05568 -1.18495 0
M  V30 18961 H 1758.14 3.7365 -0.718725 0
M  V30 18962 H 1757.65 3.04434 -2.4071 0
M  V30 18963 H 1755.76 3.72581 -0.0373763 0
M  V30 18964 H 1755.87 4.44918 -1.77722 0
M  V30 18965 H 1754.23 2.39947 -0.854268 0
M  V30 18966 H 1755.02 2.32688 -2.5241 0
M  V30 18967 N 1757.46 0.791395 1.36289 0
M  V30 18968 C 1758.71 0.363981 1.98795 0
M  V30 18969 C 1759.03 -1.0685 1.6312 0
M  V30 18970 O 1758.3 -1.73682 0.906161 0
M  V30 18971 H 1756.88 0.131594 0.735318 0
M  V30 18972 H 1759.54 1.01387 1.66453 0
M  V30 18973 H 1758.64 0.457407 3.0873 0
M  V30 18974 N 1758.94 -1.47929 0.54358 0
M  V30 18975 C 1760.19 -2.02795 0.014488 0
M  V30 18976 C 1760.52 -1.41848 -1.32638 0
M  V30 18977 O 1759.79 -0.569099 -1.85988 0
M  V30 18978 C 1760.08 -3.5998 -0.093097 0
M  V30 18979 C 1759.93 -4.31384 1.2739 0
M  V30 18980 C 1761.25 -4.32521 -0.813251 0
M  V30 18981 H 1758.37 -0.736969 0.00673905 0
M  V30 18982 H 1761.01 -1.76507 0.703238 0
M  V30 18983 H 1759.16 -3.82508 -0.679685 0
M  V30 18984 H 1760.83 -4.20235 1.90264 0
M  V30 18985 H 1759.07 -3.9227 1.85221 0
M  V30 18986 H 1759.75 -5.39856 1.15148 0
M  V30 18987 H 1762.22 -4.14903 -0.315334 0
M  V30 18988 H 1761.1 -5.42161 -0.857456 0
M  V30 18989 H 1761.36 -4.00768 -1.86649 0
M  V30 18990 N 1760.42 -0.27936 -1.55104 0
M  V30 18991 C 1761.69 0.388213 -1.91709 0
M  V30 18992 C 1762.07 1.7339 -1.20412 0
M  V30 18993 O 1761.42 2.26069 -0.332419 0
M  V30 18994 C 1761.63 0.524298 -3.45039 0
M  V30 18995 C 1762.98 0.805229 -4.16895 0
M  V30 18996 O 1764 0.608944 -3.50956 0
M  V30 18997 O 1762.86 1.18089 -5.33589 0
M  V30 18998 H 1759.96 0.213245 -0.799034 0
M  V30 18999 H 1762.5 -0.325825 -1.66543 0
M  V30 19000 H 1761.28 -0.422562 -3.89012 0
M  V30 19001 H 1760.9 1.28764 -3.76172 0
M  V30 19002 N 1761.9 1.57599 -0.0067085 0
M  V30 19003 C 1763.14 1.90036 0.675957 0
M  V30 19004 C 1763.46 0.882449 1.74563 0
M  V30 19005 O 1764.66 1.09728 2.48339 0
M  V30 19006 C 1763.12 3.37366 1.25349 0
M  V30 19007 C 1762.73 4.47468 0.218284 0
M  V30 19008 C 1764.47 3.78904 1.91396 0
M  V30 19009 C 1762.38 5.85879 0.806182 0
M  V30 19010 H 1761.31 0.709125 0.256237 0
M  V30 19011 H 1763.96 1.83373 -0.0683502 0
M  V30 19012 H 1762.34 3.38888 2.04868 0
M  V30 19013 H 1763.52 4.57472 -0.552808 0
M  V30 19014 H 1761.83 4.14992 -0.342131 0
M  V30 19015 H 1764.43 4.79654 2.36297 0
M  V30 19016 H 1764.77 3.12773 2.74734 0
M  V30 19017 H 1765.3 3.79709 1.186 0
M  V30 19018 H 1762.04 6.55499 0.0114275 0
M  V30 19019 H 1761.56 5.79526 1.54628 0
M  V30 19020 H 1763.24 6.33748 1.30278 0
M  V30 19021 N 1763.37 -0.266145 1.55336 0
M  V30 19022 C 1764.34 -1.31242 1.87904 0
M  V30 19023 C 1765.34 -1.42022 0.754083 0
M  V30 19024 O 1766.53 -1.41054 1.02222 0
M  V30 19025 C 1763.66 -2.69285 2.09041 0
M  V30 19026 H 1764.85 -1.03592 2.81441 0
M  V30 19027 H 1762.4 -0.504537 1.47933 0
M  V30 19028 H 1763.14 -3.02106 1.17909 0
M  V30 19029 H 1762.92 -2.62846 2.90954 0
M  V30 19030 H 1764.41 -3.4487 2.35488 0
M  V30 19031 N 1764.85 -1.48386 -0.530967 0
M  V30 19032 C 1766.1 -1.56585 -1.28875 0
M  V30 19033 C 1766.43 -0.238583 -1.92729 0
M  V30 19034 O 1765.71 0.75533 -1.79235 0
M  V30 19035 C 1765.99 -2.70338 -2.37886 0
M  V30 19036 C 1765.84 -4.12766 -1.78729 0
M  V30 19037 C 1767.16 -2.79857 -3.39659 0
M  V30 19038 H 1764.28 -0.569986 -0.46721 0
M  V30 19039 H 1766.92 -1.80555 -0.591596 0
M  V30 19040 H 1765.07 -2.50031 -2.9735 0
M  V30 19041 H 1766.74 -4.4451 -1.23324 0
M  V30 19042 H 1764.99 -4.19813 -1.09269 0
M  V30 19043 H 1765.66 -4.88178 -2.57655 0
M  V30 19044 H 1768.13 -2.9825 -2.90149 0
M  V30 19045 H 1767.01 -3.61179 -4.13329 0
M  V30 19046 H 1767.27 -1.87974 -4.00148 0
M  V30 19047 N 1766.33 0.779763 -1.36958 0
M  V30 19048 C 1767.29 1.87439 -1.31906 0
M  V30 19049 C 1768.29 1.59222 -0.224739 0
M  V30 19050 O 1769.48 1.67453 -0.480109 0
M  V30 19051 C 1766.61 3.24419 -1.04716 0
M  V30 19052 H 1767.81 1.93333 -2.29265 0
M  V30 19053 H 1765.36 0.978634 -1.21871 0
M  V30 19054 H 1766.1 3.24205 -0.0785442 0
M  V30 19055 H 1765.88 3.4629 -1.83917 0
M  V30 19056 H 1767.37 4.04491 -1.0381 0
M  V30 19057 N 1767.81 1.21396 1.00503 0
M  V30 19058 C 1769.05 1.0327 1.74537 0
M  V30 19059 C 1769.39 -0.432746 1.89317 0
M  V30 19060 O 1768.66 -1.32111 1.42747 0
M  V30 19061 C 1768.94 1.73045 3.15797 0
M  V30 19062 C 1768.8 3.27108 3.0874 0
M  V30 19063 C 1770.12 1.47298 4.14718 0
M  V30 19064 H 1767.24 0.376563 0.633537 0
M  V30 19065 H 1769.88 1.49571 1.17169 0
M  V30 19066 H 1768.03 1.33682 3.64776 0
M  V30 19067 H 1769.7 3.75839 2.67475 0
M  V30 19068 H 1767.94 3.57413 2.45843 0
M  V30 19069 H 1768.61 3.71096 4.08646 0
M  V30 19070 H 1771.09 1.81468 3.74444 0
M  V30 19071 H 1769.97 1.98633 5.11699 0
M  V30 19072 H 1770.23 0.402981 4.4026 0
M  V30 19073 N 1769.29 -1.19996 1.0217 0
M  V30 19074 C 1770.22 -2.21695 0.540962 0
M  V30 19075 C 1771.2 -1.57232 -0.414343 0
M  V30 19076 O 1772.38 -1.85533 -0.33314 0
M  V30 19077 C 1769.51 -3.38035 -0.212109 0
M  V30 19078 C 1768.55 -4.20824 0.693529 0
M  V30 19079 S 1769.39 -4.89756 2.16562 0
M  V30 19080 C 1770.54 -6.09513 1.42286 0
M  V30 19081 H 1770.78 -2.62131 1.40267 0
M  V30 19082 H 1768.31 -1.30128 0.831026 0
M  V30 19083 H 1770.27 -4.05473 -0.640484 0
M  V30 19084 H 1768.93 -2.96049 -1.04945 0
M  V30 19085 H 1768.12 -5.03874 0.112557 0
M  V30 19086 H 1767.72 -3.58667 1.05991 0
M  V30 19087 H 1770.01 -6.73816 0.705585 0
M  V30 19088 H 1770.96 -6.72079 2.22969 0
M  V30 19089 H 1771.37 -5.56895 0.923499 0
M  V30 19090 N 1770.76 -0.798611 -1.35867 0
M  V30 19091 C 1771.99 -0.387479 -2.03239 0
M  V30 19092 C 1772.41 0.999052 -1.60201 0
M  V30 19093 O 1771.76 1.64237 -0.795763 0
M  V30 19094 C 1771.81 -0.452101 -3.58662 0
M  V30 19095 O 1771.54 -1.78396 -4.00133 0
M  V30 19096 C 1773.04 -0.0327638 -4.43288 0
M  V30 19097 H 1770.26 -0.15845 -0.652024 0
M  V30 19098 H 1772.8 -1.08002 -1.73655 0
M  V30 19099 H 1770.96 0.192107 -3.86923 0
M  V30 19100 H 1771.37 -1.74118 -4.94756 0
M  V30 19101 H 1772.84 -0.129106 -5.51849 0
M  V30 19102 H 1773.32 1.02098 -4.27168 0
M  V30 19103 H 1773.93 -0.649817 -4.20306 0
M  V30 19104 N 1772.24 1.47639 -0.551417 0
M  V30 19105 C 1773.49 2.01687 -0.0230887 0
M  V30 19106 C 1773.8 1.43178 1.33265 0
M  V30 19107 O 1775.01 1.88853 1.95056 0
M  V30 19108 C 1773.47 3.59899 0.00918719 0
M  V30 19109 C 1773.07 4.27398 -1.34295 0
M  V30 19110 C 1774.82 4.21718 0.485213 0
M  V30 19111 C 1772.72 5.77601 -1.2701 0
M  V30 19112 H 1771.65 0.753984 -0.00486122 0
M  V30 19113 H 1774.31 1.6969 -0.698405 0
M  V30 19114 H 1772.69 3.88832 0.75003 0
M  V30 19115 H 1773.86 4.10113 -2.10105 0
M  V30 19116 H 1772.18 3.77542 -1.75644 0
M  V30 19117 H 1774.77 5.3178 0.558025 0
M  V30 19118 H 1775.12 3.88495 1.4959 0
M  V30 19119 H 1775.65 3.97294 -0.200594 0
M  V30 19120 H 1772.39 6.15433 -2.2566 0
M  V30 19121 H 1771.91 5.97239 -0.553709 0
M  V30 19122 H 1773.59 6.39692 -0.969726 0
M  V30 19123 N 1773.72 0.287581 1.54954 0
M  V30 19124 C 1774.95 -0.328601 2.04274 0
M  V30 19125 C 1775.36 -1.48535 1.16545 0
M  V30 19126 O 1774.72 -1.81527 0.188187 0
M  V30 19127 C 1774.77 -0.797705 3.52589 0
M  V30 19128 O 1774.49 0.31299 4.36981 0
M  V30 19129 C 1775.99 -1.48042 4.1785 0
M  V30 19130 H 1773.21 -0.0733253 0.666982 0
M  V30 19131 H 1775.76 0.423307 2.00071 0
M  V30 19132 H 1773.91 -1.49967 3.57196 0
M  V30 19133 H 1774.33 -0.0498078 5.24476 0
M  V30 19134 H 1775.8 -1.75995 5.23192 0
M  V30 19135 H 1776.28 -2.41608 3.66772 0
M  V30 19136 H 1776.88 -0.821988 4.17281 0
M  V30 19137 N 1775.2 -1.57593 0.0150662 0
M  V30 19138 C 1776.13 -2.12395 -0.970081 0
M  V30 19139 C 1777.11 -1.03666 -1.34861 0
M  V30 19140 O 1778.29 -1.31427 -1.4297 0
M  V30 19141 C 1775.42 -2.63958 -2.25707 0
M  V30 19142 C 1774.38 -3.77348 -2.01971 0
M  V30 19143 C 1773.7 -4.15284 -3.36814 0
M  V30 19144 C 1775 -5.04008 -1.37017 0
M  V30 19145 H 1776.7 -2.9496 -0.513731 0
M  V30 19146 H 1774.24 -1.41889 -0.245666 0
M  V30 19147 H 1776.2 -3.00927 -2.94993 0
M  V30 19148 H 1774.92 -1.78535 -2.73483 0
M  V30 19149 H 1773.58 -3.40795 -1.35107 0
M  V30 19150 H 1773.23 -3.26863 -3.82321 0
M  V30 19151 H 1772.93 -4.91686 -3.21744 0
M  V30 19152 H 1774.45 -4.54824 -4.07391 0
M  V30 19153 H 1775.87 -5.38652 -1.96282 0
M  V30 19154 H 1774.26 -5.85315 -1.32388 0
M  V30 19155 H 1775.33 -4.83698 -0.341281 0
M  V30 19156 N 1776.68 0.257904 -1.55475 0
M  V30 19157 C 1777.61 1.32303 -1.92401 0
M  V30 19158 C 1778.59 1.50767 -0.787617 0
M  V30 19159 O 1779.77 1.63559 -1.047 0
M  V30 19160 C 1776.9 2.67984 -2.20912 0
M  V30 19161 C 1775.86 2.64231 -3.36699 0
M  V30 19162 C 1775.18 4.03604 -3.50725 0
M  V30 19163 C 1776.48 2.22177 -4.72689 0
M  V30 19164 H 1778.18 1.01646 -2.81618 0
M  V30 19165 H 1775.72 0.487523 -1.35496 0
M  V30 19166 H 1777.68 3.42622 -2.45332 0
M  V30 19167 H 1776.4 3.00254 -1.2851 0
M  V30 19168 H 1775.06 1.92049 -3.1227 0
M  V30 19169 H 1774.71 4.33122 -2.55763 0
M  V30 19170 H 1774.41 4.01983 -4.28583 0
M  V30 19171 H 1775.93 4.79959 -3.77455 0
M  V30 19172 H 1777.34 2.86543 -4.96554 0
M  V30 19173 H 1775.74 2.3169 -5.5357 0
M  V30 19174 H 1776.81 1.17326 -4.70492 0
M  V30 19175 N 1778.15 1.48666 0.52309 0
M  V30 19176 C 1779.09 1.58279 1.64387 0
M  V30 19177 C 1780.07 0.432873 1.56732 0
M  V30 19178 O 1781.25 0.645422 1.77106 0
M  V30 19179 C 1778.38 1.5172 3.02818 0
M  V30 19180 C 1777.42 2.71637 3.28809 0
M  V30 19181 S 1778.26 4.3354 3.14329 0
M  V30 19182 C 1779.41 4.29591 4.55195 0
M  V30 19183 H 1779.64 2.53093 1.55984 0
M  V30 19184 H 1777.18 1.37284 0.70658 0
M  V30 19185 H 1779.14 1.48623 3.82651 0
M  V30 19186 H 1777.8 0.582311 3.08655 0
M  V30 19187 H 1776.99 2.63206 4.29812 0
M  V30 19188 H 1776.59 2.72033 2.56659 0
M  V30 19189 H 1778.88 3.99949 5.46852 0
M  V30 19190 H 1779.83 5.30797 4.68679 0
M  V30 19191 H 1780.23 3.59964 4.3484 0
M  V30 19192 N 1779.63 -0.772489 1.37369 0
M  V30 19193 C 1780.88 -1.53329 1.32733 0
M  V30 19194 C 1781.21 -1.93999 -0.0882815 0
M  V30 19195 O 1780.49 -1.64014 -1.04545 0
M  V30 19196 C 1780.77 -2.79885 2.26575 0
M  V30 19197 C 1780.62 -2.45474 3.76912 0
M  V30 19198 C 1781.94 -3.81812 2.18878 0
M  V30 19199 H 1779.06 -0.55625 0.483482 0
M  V30 19200 H 1781.7 -0.886251 1.68064 0
M  V30 19201 H 1779.85 -3.35097 1.96576 0
M  V30 19202 H 1781.52 -1.96182 4.17505 0
M  V30 19203 H 1779.77 -1.78181 3.95517 0
M  V30 19204 H 1780.44 -3.35937 4.38007 0
M  V30 19205 H 1782.91 -3.36091 2.4532 0
M  V30 19206 H 1781.79 -4.68087 2.86681 0
M  V30 19207 H 1782.05 -4.26021 1.18146 0
M  V30 19208 N 1781.11 -1.21927 -0.998575 0
M  V30 19209 C 1782.34 -1.06735 -1.77827 0
M  V30 19210 C 1782.76 0.378154 -1.8426 0
M  V30 19211 O 1782.12 1.27301 -1.2909 0
M  V30 19212 C 1782.17 -1.67662 -3.19252 0
M  V30 19213 O 1781.27 -0.926448 -4.01859 0
M  V30 19214 H 1780.61 -0.375241 -0.547805 0
M  V30 19215 H 1783.14 -1.61605 -1.25478 0
M  V30 19216 H 1783.15 -1.72151 -3.69903 0
M  V30 19217 H 1781.83 -2.72854 -3.13885 0
M  V30 19218 H 1780.4 -0.957145 -3.60407 0
M  V30 19219 N 1782.59 1.19452 -1.02805 0
M  V30 19220 C 1783.82 1.92795 -0.742546 0
M  V30 19221 C 1784.23 1.75678 0.702418 0
M  V30 19222 O 1783.57 1.07547 1.48927 0
M  V30 19223 C 1783.63 3.44934 -1.01296 0
M  V30 19224 C 1783.3 3.85821 -2.44931 0
M  V30 19225 C 1784.29 3.90645 -3.43063 0
M  V30 19226 C 1781.98 4.17483 -2.79309 0
M  V30 19227 C 1783.97 4.26561 -4.73629 0
M  V30 19228 C 1781.66 4.53071 -4.10085 0
M  V30 19229 C 1782.66 4.57584 -5.07056 0
M  V30 19230 O 1782.34 4.9235 -6.35489 0
M  V30 19231 H 1782.08 0.619261 -0.271094 0
M  V30 19232 H 1784.63 1.5256 -1.37531 0
M  V30 19233 H 1782.86 3.85348 -0.323051 0
M  V30 19234 H 1784.55 3.99513 -0.717246 0
M  V30 19235 H 1785.32 3.66335 -3.17842 0
M  V30 19236 H 1781.19 4.13154 -2.0451 0
M  V30 19237 H 1784.74 4.29998 -5.49315 0
M  V30 19238 H 1780.64 4.76839 -4.3508 0
M  V30 19239 H 1781.4 5.10301 -6.39949 0
M  V30 19240 N 1784.07 0.805805 1.35442 0
M  V30 19241 C 1785.31 0.386379 1.99085 0
M  V30 19242 C 1785.65 -1.04356 1.63779 0
M  V30 19243 O 1784.92 -1.72386 0.900731 0
M  V30 19244 C 1785.2 0.569062 3.55575 0
M  V30 19245 C 1785.06 2.04387 4.00682 0
M  V30 19246 C 1786.38 -0.00574668 4.401 0
M  V30 19247 H 1783.49 0.141862 0.723218 0
M  V30 19248 H 1786.14 1.01519 1.60605 0
M  V30 19249 H 1784.29 0.0337767 3.88485 0
M  V30 19250 H 1785.96 2.64148 3.78184 0
M  V30 19251 H 1784.2 2.54059 3.5162 0
M  V30 19252 H 1784.87 2.12258 5.09559 0
M  V30 19253 H 1787.35 0.451387 4.13644 0
M  V30 19254 H 1786.22 0.151994 5.4869 0
M  V30 19255 H 1786.49 -1.09937 4.28213 0
M  V30 19256 N 1785.54 -1.47344 0.559239 0
M  V30 19257 C 1786.77 -2.0686 0.0408612 0
M  V30 19258 C 1787.19 -1.4116 -1.25376 0
M  V30 19259 O 1786.54 -0.508814 -1.75264 0
M  V30 19260 C 1786.6 -3.61162 -0.156298 0
M  V30 19261 O 1786.32 -4.24399 1.08706 0
M  V30 19262 C 1787.82 -4.37549 -0.711725 0
M  V30 19263 H 1785.04 -0.669368 0.0467647 0
M  V30 19264 H 1787.58 -1.89318 0.773229 0
M  V30 19265 H 1785.74 -3.7821 -0.838802 0
M  V30 19266 H 1786.15 -5.16961 0.886072 0
M  V30 19267 H 1787.62 -5.46187 -0.798961 0
M  V30 19268 H 1788.1 -4.03972 -1.72346 0
M  V30 19269 H 1788.71 -4.25251 -0.0648534 0
M  V30 19270 N 1787.02 -0.295795 -1.54799 0
M  V30 19271 C 1788.3 0.367858 -1.9211 0
M  V30 19272 C 1788.68 1.72103 -1.22244 0
M  V30 19273 O 1788.03 2.25704 -0.356377 0
M  V30 19274 C 1788.24 0.487673 -3.45576 0
M  V30 19275 C 1789.59 0.760966 -4.17725 0
M  V30 19276 O 1790.61 0.571687 -3.51582 0
M  V30 19277 O 1789.47 1.12423 -5.34812 0
M  V30 19278 H 1786.56 0.204758 -0.801251 0
M  V30 19279 H 1789.11 -0.343471 -1.66188 0
M  V30 19280 H 1787.88 -0.463798 -3.88542 0
M  V30 19281 H 1787.5 1.24767 -3.77517 0
M  V30 19282 N 1788.5 1.57583 -0.0234236 0
M  V30 19283 C 1789.73 1.95577 0.66583 0
M  V30 19284 C 1790.14 0.898193 1.66521 0
M  V30 19285 O 1789.48 -0.129109 1.83246 0
M  V30 19286 C 1789.54 3.29685 1.43345 0
M  V30 19287 C 1789.21 4.53136 0.593048 0
M  V30 19288 C 1790.21 5.19739 -0.129251 0
M  V30 19289 C 1787.89 4.99473 0.532125 0
M  V30 19290 C 1789.88 6.30997 -0.901206 0
M  V30 19291 C 1787.57 6.10615 -0.24354 0
M  V30 19292 C 1788.57 6.76235 -0.958917 0
M  V30 19293 O 1788.26 7.85243 -1.72188 0
M  V30 19294 H 1787.99 0.649084 0.188853 0
M  V30 19295 H 1790.54 2.05253 -0.0777525 0
M  V30 19296 H 1788.77 3.16484 2.22205 0
M  V30 19297 H 1790.46 3.52623 2.01027 0
M  V30 19298 H 1791.23 4.84914 -0.0914812 0
M  V30 19299 H 1787.11 4.48207 1.0785 0
M  V30 19300 H 1790.65 6.82149 -1.46011 0
M  V30 19301 H 1786.55 6.44879 -0.283046 0
M  V30 19302 H 1787.32 8.0188 -1.64105 0
M  V30 19303 N 1789.98 -0.249655 1.5561 0
M  V30 19304 C 1791.23 -0.97808 1.77313 0
M  V30 19305 C 1791.55 -1.85423 0.587253 0
M  V30 19306 O 1790.81 -1.90928 -0.429527 0
M  V30 19307 C 1791.11 -1.87138 3.0449 0
M  V30 19308 C 1790.77 -1.15081 4.35967 0
M  V30 19309 C 1789.44 -0.95166 4.71696 0
M  V30 19310 C 1791.79 -0.639877 5.17257 0
M  V30 19311 C 1789.12 -0.229227 5.86252 0
M  V30 19312 C 1791.47 0.0690756 6.32562 0
M  V30 19313 C 1790.13 0.279731 6.66914 0
M  V30 19314 H 1789.4 -0.357905 0.648834 0
M  V30 19315 H 1792.05 -0.248402 1.89882 0
M  V30 19316 H 1790.35 -2.66802 2.86921 0
M  V30 19317 H 1792.05 -2.43662 3.18481 0
M  V30 19318 H 1788.64 -1.31597 4.07897 0
M  V30 19319 H 1792.83 -0.78129 4.90112 0
M  V30 19320 H 1788.08 -0.0555172 6.11375 0
M  V30 19321 H 1792.26 0.472628 6.94794 0
M  V30 19322 H 1789.88 0.841482 7.55528 0
M  V30 19323 N 1791.46 -1.48941 -0.515198 0
M  V30 19324 C 1792.87 -1.35389 -0.8451 0
M  V30 19325 C 1793.07 -0.376141 -1.97958 0
M  V30 19326 O 1792.13 0.197324 -2.51728 0
M  V30 19327 C 1793.44 -2.75775 -1.19868 0
M  V30 19328 C 1794.99 -2.84373 -1.30772 0
M  V30 19329 C 1795.47 -4.25494 -1.69466 0
M  V30 19330 N 1796.96 -4.28237 -1.76542 0
M  V30 19331 C 1797.69 -5.34384 -2.07898 0
M  V30 19332 N 1797.19 -6.50792 -2.37575 0
M  V30 19333 N 1798.98 -5.21789 -2.09029 0
M  V30 19334 H 1791.13 -2.11117 0.233118 0
M  V30 19335 H 1793.39 -0.947083 0.0416757 0
M  V30 19336 H 1793.1 -3.48955 -0.438565 0
M  V30 19337 H 1792.97 -3.10243 -2.14545 0
M  V30 19338 H 1795.36 -2.11439 -2.05858 0
M  V30 19339 H 1795.44 -2.53506 -0.341808 0
M  V30 19340 H 1795.09 -4.98949 -0.949358 0
M  V30 19341 H 1795.02 -4.53814 -2.67133 0
M  V30 19342 H 1797.51 -3.44278 -1.55824 0
M  V30 19343 H 1797.82 -7.27518 -2.60649 0
M  V30 19344 H 1796.17 -6.54042 -2.35062 0
M  V30 19345 H 1799.36 -4.29858 -1.85311 0
M  V30 19346 H 1799.53 -6.0461 -2.33133 0
M  V30 19347 N 1792.94 0.765193 -1.37777 0
M  V30 19348 C 1794.17 1.5521 -1.36358 0
M  V30 19349 C 1794.57 1.8913 0.0514021 0
M  V30 19350 O 1793.92 1.52422 1.02535 0
M  V30 19351 C 1793.98 2.88605 -2.14354 0
M  V30 19352 C 1793.64 2.77286 -3.63265 0
M  V30 19353 C 1794.64 2.47869 -4.57009 0
M  V30 19354 C 1792.32 2.95102 -4.06473 0
M  V30 19355 C 1794.32 2.36406 -5.91938 0
M  V30 19356 C 1792.01 2.83259 -5.41486 0
M  V30 19357 C 1793 2.53952 -6.34032 0
M  V30 19358 O 1792.69 2.42148 -7.66564 0
M  V30 19359 H 1792.42 0.487266 -0.468559 0
M  V30 19360 H 1794.98 0.955716 -1.81811 0
M  V30 19361 H 1793.21 3.50388 -1.636 0
M  V30 19362 H 1794.9 3.50043 -2.05486 0
M  V30 19363 H 1795.66 2.33784 -4.24936 0
M  V30 19364 H 1791.54 3.16913 -3.34794 0
M  V30 19365 H 1795.09 2.13452 -6.64142 0
M  V30 19366 H 1790.98 2.96914 -5.7316 0
M  V30 19367 H 1791.75 2.57448 -7.76957 0
M  V30 19368 N 1794.41 1.22455 0.992094 0
M  V30 19369 C 1795.36 0.99534 2.08235 0
M  V30 19370 C 1796.33 -0.0832064 1.65891 0
M  V30 19371 O 1797.52 0.0665468 1.90684 0
M  V30 19372 C 1794.66 0.580055 3.4019 0
M  V30 19373 C 1793.77 1.72946 3.95871 0
M  V30 19374 C 1792.9 1.26208 5.15989 0
M  V30 19375 C 1791.94 2.38298 5.63809 0
M  V30 19376 N 1791.08 1.92602 6.75166 0
M  V30 19377 H 1795.92 1.92861 2.27175 0
M  V30 19378 H 1793.46 0.960948 1.11374 0
M  V30 19379 H 1795.41 0.320448 4.15968 0
M  V30 19380 H 1794.04 -0.316208 3.21248 0
M  V30 19381 H 1793.1 2.10337 3.16958 0
M  V30 19382 H 1794.41 2.57257 4.27341 0
M  V30 19383 H 1793.56 0.959904 5.99058 0
M  V30 19384 H 1792.3 0.389184 4.86145 0
M  V30 19385 H 1791.31 2.69304 4.79328 0
M  V30 19386 H 1792.53 3.26105 5.95678 0
M  V30 19387 H 1790.48 1.07675 6.47103 0
M  V30 19388 H 1790.39 2.70478 7.05959 0
M  V30 19389 H 1791.66 1.65455 7.61738 0
M  V30 19390 N 1795.89 -1.18905 1.03437 0
M  V30 19391 C 1796.84 -2.22318 0.619933 0
M  V30 19392 C 1797.81 -1.61948 -0.369056 0
M  V30 19393 O 1798.99 -1.88958 -0.26447 0
M  V30 19394 C 1796.13 -3.45096 -0.0174579 0
M  V30 19395 C 1795.25 -4.19829 1.01823 0
M  V30 19396 C 1794.38 -5.30046 0.350026 0
M  V30 19397 C 1793.42 -5.96543 1.37125 0
M  V30 19398 N 1792.56 -6.98311 0.728458 0
M  V30 19399 H 1797.4 -2.57125 1.50634 0
M  V30 19400 H 1794.93 -1.26324 0.753695 0
M  V30 19401 H 1796.89 -4.15236 -0.404294 0
M  V30 19402 H 1795.52 -3.10927 -0.867412 0
M  V30 19403 H 1794.57 -3.48578 1.52308 0
M  V30 19404 H 1795.89 -4.65415 1.79416 0
M  V30 19405 H 1795.04 -6.06631 -0.0913585 0
M  V30 19406 H 1793.78 -4.85544 -0.458049 0
M  V30 19407 H 1792.78 -5.18703 1.82284 0
M  V30 19408 H 1794.01 -6.43127 2.18091 0
M  V30 19409 H 1791.96 -6.55973 -0.0594251 0
M  V30 19410 H 1791.87 -7.42117 1.44218 0
M  V30 19411 H 1793.14 -7.78878 0.311259 0
M  V30 19412 N 1797.37 -0.812977 -1.35013 0
M  V30 19413 C 1798.62 -0.406082 -1.99305 0
M  V30 19414 C 1798.97 1.01711 -1.63317 0
M  V30 19415 O 1798.26 1.697 -0.889514 0
M  V30 19416 C 1798.46 -0.534083 -3.53387 0
M  V30 19417 C 1798.29 -1.96817 -4.04343 0
M  V30 19418 C 1797.06 -2.59792 -4.33401 0
M  V30 19419 C 1799.25 -2.93359 -4.22428 0
M  V30 19420 N 1797.24 -3.94544 -4.70328 0
M  V30 19421 C 1798.61 -4.12996 -4.62422 0
M  V30 19422 C 1800.66 -2.90106 -4.04651 0
M  V30 19423 C 1799.37 -5.29821 -4.865 0
M  V30 19424 C 1801.39 -4.06139 -4.29889 0
M  V30 19425 C 1800.75 -5.24525 -4.70162 0
M  V30 19426 H 1796.85 -0.196497 -0.75691 0
M  V30 19427 H 1799.44 -1.05557 -1.63602 0
M  V30 19428 H 1797.61 0.0854508 -3.88306 0
M  V30 19429 H 1799.34 -0.101154 -4.04574 0
M  V30 19430 H 1796.09 -2.11101 -4.2395 0
M  V30 19431 H 1796.52 -4.63939 -4.93041 0
M  V30 19432 H 1801.16 -1.99725 -3.72652 0
M  V30 19433 H 1798.88 -6.20768 -5.17371 0
M  V30 19434 H 1802.46 -4.0501 -4.17681 0
M  V30 19435 H 1801.34 -6.12819 -4.89309 0
M  V30 19436 N 1798.85 1.47045 -0.567045 0
M  V30 19437 C 1799.78 2.32929 0.163191 0
M  V30 19438 C 1800.76 1.44393 0.899142 0
M  V30 19439 O 1801.94 1.73235 0.87768 0
M  V30 19440 C 1799.07 3.26369 1.18745 0
M  V30 19441 C 1798.03 4.24223 0.567335 0
M  V30 19442 C 1797.35 5.07058 1.69693 0
M  V30 19443 C 1798.65 5.2004 -0.485319 0
M  V30 19444 H 1800.35 2.94233 -0.553837 0
M  V30 19445 H 1797.89 1.41488 -0.267789 0
M  V30 19446 H 1799.85 3.85299 1.70654 0
M  V30 19447 H 1798.57 2.6314 1.93455 0
M  V30 19448 H 1797.23 3.66534 0.0694525 0
M  V30 19449 H 1796.88 4.40226 2.43331 0
M  V30 19450 H 1796.58 5.73316 1.28774 0
M  V30 19451 H 1798.1 5.68848 2.2191 0
M  V30 19452 H 1799.52 5.73277 -0.0519049 0
M  V30 19453 H 1797.91 5.94554 -0.813942 0
M  V30 19454 H 1798.98 4.64921 -1.37754 0
M  V30 19455 N 1800.33 0.304 1.5464 0
M  V30 19456 C 1801.26 -0.604475 2.21085 0
M  V30 19457 C 1802.27 -1.0952 1.20454 0
M  V30 19458 O 1803.46 -1.01214 1.47031 0
M  V30 19459 C 1800.56 -1.8399 2.84607 0
M  V30 19460 C 1799.73 -1.49116 4.11197 0
M  V30 19461 C 1798.79 -2.58205 4.58494 0
M  V30 19462 O 1797.82 -2.23171 5.23625 0
M  V30 19463 N 1799.02 -3.88798 4.31065 0
M  V30 19464 H 1801.78 -0.035633 2.99679 0
M  V30 19465 H 1799.35 0.126332 1.61406 0
M  V30 19466 H 1801.34 -2.56322 3.13179 0
M  V30 19467 H 1799.91 -2.31706 2.09836 0
M  V30 19468 H 1799.13 -0.600347 3.89602 0
M  V30 19469 H 1800.42 -1.23358 4.93619 0
M  V30 19470 H 1799.81 -4.20068 3.78892 0
M  V30 19471 H 1798.37 -4.57419 4.6434 0
M  V30 19472 N 1801.8 -1.57568 0.0317802 0
M  V30 19473 C 1803.04 -1.93776 -0.650407 0
M  V30 19474 C 1803.41 -0.908617 -1.69139 0
M  V30 19475 O 1804.61 -1.15698 -2.42626 0
M  V30 19476 C 1802.88 -3.34887 -1.24843 0
M  V30 19477 S 1804.44 -3.93025 -1.95132 0
M  V30 19478 H 1801.26 -0.678007 -0.214074 0
M  V30 19479 H 1803.86 -1.95264 0.0960817 0
M  V30 19480 H 1802.56 -4.07602 -0.478395 0
M  V30 19481 H 1802.09 -3.36848 -2.03216 0
M  V30 19482 H 1804.11 -3.76676 -3.23001 0
M  V30 19483 N 1803.28 0.241399 -1.5574 0
M  V30 19484 C 1804.53 0.966607 -1.7703 0
M  V30 19485 C 1804.84 1.86275 -0.59673 0
M  V30 19486 O 1806.05 2.62513 -0.692775 0
M  V30 19487 C 1804.51 1.7688 -3.13435 0
M  V30 19488 C 1804.11 0.919775 -4.38457 0
M  V30 19489 C 1805.86 2.48641 -3.44061 0
M  V30 19490 C 1803.77 1.71817 -5.65891 0
M  V30 19491 H 1802.7 0.364644 -0.659963 0
M  V30 19492 H 1805.35 0.221088 -1.82163 0
M  V30 19493 H 1803.73 2.55648 -3.02424 0
M  V30 19494 H 1804.9 0.174036 -4.60471 0
M  V30 19495 H 1803.22 0.315234 -4.15205 0
M  V30 19496 H 1805.81 3.08839 -4.36489 0
M  V30 19497 H 1806.16 3.20534 -2.65638 0
M  V30 19498 H 1806.69 1.7688 -3.56312 0
M  V30 19499 H 1803.43 1.04289 -6.47151 0
M  V30 19500 H 1802.95 2.43905 -5.47969 0
M  V30 19501 H 1804.63 2.28392 -6.05348 0
M  V30 19502 N 1804.76 1.49212 0.507292 0
M  V30 19503 C 1805.69 1.68326 1.61829 0
M  V30 19504 C 1806.67 0.531969 1.61568 0
M  V30 19505 O 1807.86 0.767104 1.78407 0
M  V30 19506 C 1804.99 1.74394 3.0034 0
M  V30 19507 C 1803.94 2.89251 3.15465 0
M  V30 19508 C 1803.27 2.80426 4.55264 0
M  V30 19509 C 1804.57 4.30269 2.96085 0
M  V30 19510 H 1806.26 2.6134 1.46087 0
M  V30 19511 H 1803.81 1.25765 0.701367 0
M  V30 19512 H 1805.76 1.86353 3.77956 0
M  V30 19513 H 1804.48 0.779748 3.17155 0
M  V30 19514 H 1803.14 2.76884 2.40272 0
M  V30 19515 H 1802.79 1.81928 4.68947 0
M  V30 19516 H 1802.49 3.57511 4.66326 0
M  V30 19517 H 1804.01 2.94384 5.34949 0
M  V30 19518 H 1805.43 4.4335 3.63475 0
M  V30 19519 H 1803.83 5.08527 3.18623 0
M  V30 19520 H 1804.9 4.45151 1.92272 0
M  V30 19521 N 1806.24 -0.757876 1.38181 0
M  V30 19522 C 1807.46 -1.55221 1.37555 0
M  V30 19523 C 1807.89 -1.8807 -0.0336083 0
M  V30 19524 O 1807.25 -1.50258 -1.0145 0
M  V30 19525 C 1807.29 -2.83064 2.23399 0
M  V30 19526 O 1806.4 -3.78034 1.64814 0
M  V30 19527 H 1805.74 -0.469644 0.469394 0
M  V30 19528 H 1808.27 -0.936923 1.81887 0
M  V30 19529 H 1808.28 -3.32031 2.37106 0
M  V30 19530 H 1806.95 -2.58485 3.2582 0
M  V30 19531 H 1805.53 -3.36723 1.60225 0
M  V30 19532 N 1807.72 -1.22979 -0.985586 0
M  V30 19533 C 1808.65 -1.03073 -2.09519 0
M  V30 19534 C 1809.63 0.0507025 -1.70024 0
M  V30 19535 O 1810.81 -0.112938 -1.93871 0
M  V30 19536 C 1807.94 -0.615578 -3.41801 0
M  V30 19537 C 1806.9 -1.64377 -3.95176 0
M  V30 19538 C 1806.22 -1.08422 -5.23592 0
M  V30 19539 C 1807.52 -3.03555 -4.25032 0
M  V30 19540 H 1809.22 -1.95882 -2.2643 0
M  V30 19541 H 1806.76 -0.943206 -1.0881 0
M  V30 19542 H 1808.72 -0.463394 -4.18844 0
M  V30 19543 H 1807.44 0.348185 -3.24739 0
M  V30 19544 H 1806.1 -1.78386 -3.20272 0
M  V30 19545 H 1805.75 -0.111597 -5.02876 0
M  V30 19546 H 1805.45 -1.77118 -5.6027 0
M  V30 19547 H 1806.97 -0.94378 -6.03262 0
M  V30 19548 H 1808.38 -2.92878 -4.92844 0
M  V30 19549 H 1806.78 -3.69441 -4.72899 0
M  V30 19550 H 1807.85 -3.52937 -3.32511 0
M  V30 19551 N 1809.19 1.18355 -1.04066 0
M  V30 19552 C 1810.44 1.88614 -0.745148 0
M  V30 19553 C 1810.77 1.80147 0.725294 0
M  V30 19554 O 1810.05 1.20177 1.5293 0
M  V30 19555 C 1810.33 3.39095 -1.2119 0
M  V30 19556 C 1810.18 3.56372 -2.74444 0
M  V30 19557 C 1811.5 4.32732 -0.801953 0
M  V30 19558 H 1808.62 0.684905 -0.272166 0
M  V30 19559 H 1811.26 1.39248 -1.29267 0
M  V30 19560 H 1809.41 3.81269 -0.746091 0
M  V30 19561 H 1811.09 3.2329 -3.29061 0
M  V30 19562 H 1809.33 2.99028 -3.14269 0
M  V30 19563 H 1810 4.61956 -3.0216 0
M  V30 19564 H 1812.48 3.98337 -1.20278 0
M  V30 19565 H 1811.35 5.36583 -1.15628 0
M  V30 19566 H 1811.61 4.41115 0.294907 0
M  V30 19567 N 1810.67 0.820125 1.3458 0
M  V30 19568 C 1811.9 0.418747 2.03129 0
M  V30 19569 C 1812.32 -0.966605 1.61364 0
M  V30 19570 O 1811.68 -1.62847 0.796903 0
M  V30 19571 C 1811.73 0.525681 3.56748 0
M  V30 19572 O 1810.83 -0.455592 4.09876 0
M  V30 19573 H 1810.17 0.172819 0.641116 0
M  V30 19574 H 1812.7 1.10977 1.71888 0
M  V30 19575 H 1812.71 0.400422 4.0603 0
M  V30 19576 H 1811.39 1.53609 3.86493 0
M  V30 19577 H 1809.97 -0.289449 3.71775 0
M  V30 19578 N 1812.15 -1.46743 0.574835 0
M  V30 19579 C 1813.11 -2.28691 -0.152633 0
M  V30 19580 C 1814.11 -1.37949 -0.826238 0
M  V30 19581 O 1815.3 -1.60405 -0.679398 0
M  V30 19582 C 1812.44 -3.1812 -1.22525 0
M  V30 19583 H 1813.63 -2.94483 0.567439 0
M  V30 19584 H 1811.18 -1.52723 0.33248 0
M  V30 19585 H 1811.92 -2.57058 -1.97716 0
M  V30 19586 H 1811.7 -3.84922 -0.746841 0
M  V30 19587 H 1813.19 -3.7982 -1.7357 0
M  V30 19588 N 1813.63 -0.312197 -1.54477 0
M  V30 19589 C 1814.87 0.294208 -2.00655 0
M  V30 19590 C 1815.21 1.52674 -1.20018 0
M  V30 19591 O 1814.48 1.92481 -0.279517 0
M  V30 19592 C 1814.77 0.639677 -3.54373 0
M  V30 19593 C 1814.62 -0.602773 -4.45743 0
M  V30 19594 C 1815.94 1.46181 -4.15113 0
M  V30 19595 H 1813.06 0.10546 -0.729416 0
M  V30 19596 H 1815.7 -0.426519 -1.85151 0
M  V30 19597 H 1813.85 1.25371 -3.67715 0
M  V30 19598 H 1815.52 -1.24116 -4.44289 0
M  V30 19599 H 1813.76 -1.23386 -4.15882 0
M  V30 19600 H 1814.43 -0.316748 -5.5109 0
M  V30 19601 H 1816.91 0.942887 -4.05276 0
M  V30 19602 H 1815.79 1.67231 -5.22805 0
M  V30 19603 H 1816.05 2.45448 -3.67706 0
M  V30 19604 N 1815.11 1.57549 -0.040136 0
M  V30 19605 C 1816.35 1.9225 0.636094 0
M  V30 19606 C 1816.68 0.917539 1.71498 0
M  V30 19607 O 1815.94 -0.0718721 1.95568 0
M  V30 19608 C 1816.24 3.3366 1.28084 0
M  V30 19609 C 1815.9 4.49682 0.331249 0
M  V30 19610 C 1814.56 4.81149 0.0699171 0
M  V30 19611 C 1816.92 5.20216 -0.320179 0
M  V30 19612 C 1814.24 5.80503 -0.850464 0
M  V30 19613 C 1816.6 6.20553 -1.22868 0
M  V30 19614 C 1815.26 6.50455 -1.4988 0
M  V30 19615 H 1814.53 0.703493 0.232763 0
M  V30 19616 H 1817.18 1.91216 -0.104258 0
M  V30 19617 H 1815.48 3.31008 2.0962 0
M  V30 19618 H 1817.18 3.57785 1.81082 0
M  V30 19619 H 1813.77 4.25119 0.545114 0
M  V30 19620 H 1817.95 4.96126 -0.131354 0
M  V30 19621 H 1813.21 6.02012 -1.06733 0
M  V30 19622 H 1817.38 6.74323 -1.73958 0
M  V30 19623 H 1815.01 7.27257 -2.21362 0
M  V30 19624 N 1816.58 -0.233136 1.55866 0
M  V30 19625 C 1817.51 -1.29225 1.94482 0
M  V30 19626 C 1818.5 -1.49495 0.811503 0
M  V30 19627 O 1819.68 -1.61872 1.07289 0
M  V30 19628 C 1816.81 -2.64435 2.25147 0
M  V30 19629 C 1815.76 -2.5884 3.4086 0
M  V30 19630 C 1815.09 -3.97973 3.57102 0
M  V30 19631 C 1816.39 -2.14629 4.76164 0
M  V30 19632 H 1818.08 -0.971527 2.83199 0
M  V30 19633 H 1815.63 -0.465905 1.36255 0
M  V30 19634 H 1817.58 -3.38676 2.50752 0
M  V30 19635 H 1816.31 -2.98172 1.33271 0
M  V30 19636 H 1814.97 -1.87057 3.15286 0
M  V30 19637 H 1814.61 -4.28998 2.62621 0
M  V30 19638 H 1814.31 -3.95114 4.34924 0
M  V30 19639 H 1815.84 -4.73893 3.85043 0
M  V30 19640 H 1817.25 -2.78607 5.0105 0
M  V30 19641 H 1815.65 -2.22853 5.57186 0
M  V30 19642 H 1816.72 -1.09826 4.72299 0
M  V30 19643 N 1818.06 -1.49479 -0.499372 0
M  V30 19644 C 1819.31 -1.58295 -1.25003 0
M  V30 19645 C 1819.63 -0.275616 -1.93648 0
M  V30 19646 O 1820.83 -0.24234 -2.70416 0
M  V30 19647 C 1819.29 -2.793 -2.26979 0
M  V30 19648 C 1818.9 -4.16799 -1.64264 0
M  V30 19649 C 1820.64 -2.97447 -3.02862 0
M  V30 19650 C 1818.55 -5.29025 -2.6436 0
M  V30 19651 H 1817.48 -0.589398 -0.470241 0
M  V30 19652 H 1820.13 -1.75868 -0.523698 0
M  V30 19653 H 1818.51 -2.55225 -3.02781 0
M  V30 19654 H 1819.68 -4.51018 -0.944432 0
M  V30 19655 H 1818 -4.04024 -1.00765 0
M  V30 19656 H 1820.6 -3.78461 -3.77719 0
M  V30 19657 H 1820.94 -2.08071 -3.60572 0
M  V30 19658 H 1821.47 -3.2157 -2.34175 0
M  V30 19659 H 1818.21 -6.20466 -2.11429 0
M  V30 19660 H 1817.73 -4.99258 -3.32417 0
M  V30 19661 H 1819.41 -5.58427 -3.26755 0
M  V30 19662 N 1819.54 0.750537 -1.38581 0
M  V30 19663 C 1820.96 1.05401 -1.19845 0
M  V30 19664 C 1821.16 2.0144 -0.0492317 0
M  V30 19665 O 1820.21 2.45169 0.604037 0
M  V30 19666 C 1821.53 1.63117 -2.52613 0
M  V30 19667 C 1823.07 1.75274 -2.59322 0
M  V30 19668 C 1823.55 2.36401 -3.92273 0
M  V30 19669 N 1825.04 2.43829 -3.9383 0
M  V30 19670 C 1825.78 2.92028 -4.93465 0
M  V30 19671 N 1825.27 3.4024 -6.03497 0
M  V30 19672 N 1827.06 2.91096 -4.80853 0
M  V30 19673 H 1819.22 0.113286 -2.12098 0
M  V30 19674 H 1821.48 0.112886 -0.941255 0
M  V30 19675 H 1821.18 1.00017 -3.37179 0
M  V30 19676 H 1821.06 2.62138 -2.71226 0
M  V30 19677 H 1823.45 2.375 -1.7515 0
M  V30 19678 H 1823.53 0.74949 -2.44574 0
M  V30 19679 H 1823.17 1.74807 -4.7687 0
M  V30 19680 H 1823.1 3.37373 -4.04335 0
M  V30 19681 H 1825.59 2.09734 -3.14357 0
M  V30 19682 H 1825.9 3.75482 -6.7545 0
M  V30 19683 H 1824.25 3.38289 -6.07113 0
M  V30 19684 H 1827.44 2.52744 -3.94003 0
M  V30 19685 H 1827.61 3.28346 -5.58653 0
M  V30 19686 N 1821.02 1.235 0.979051 0
M  V30 19687 C 1822.24 1.09551 1.76106 0
M  V30 19688 C 1822.67 -0.348792 1.84838 0
M  V30 19689 O 1822.03 -1.25231 1.31099 0
M  V30 19690 C 1822.08 1.7272 3.16544 0
M  V30 19691 O 1821.18 0.990263 4.00334 0
M  V30 19692 H 1820.52 0.383909 0.541766 0
M  V30 19693 H 1823.05 1.63581 1.22892 0
M  V30 19694 H 1823.06 1.78014 3.67117 0
M  V30 19695 H 1821.74 2.77813 3.09504 0
M  V30 19696 H 1820.31 1.01436 3.58839 0
M  V30 19697 N 1822.5 -1.17802 1.04693 0
M  V30 19698 C 1823.43 -2.23847 0.664448 0
M  V30 19699 C 1824.41 -1.66761 -0.335356 0
M  V30 19700 O 1825.59 -1.93017 -0.214062 0
M  V30 19701 C 1822.72 -3.47284 0.0331587 0
M  V30 19702 C 1821.68 -4.1716 0.95718 0
M  V30 19703 C 1821 -5.34362 0.190034 0
M  V30 19704 C 1822.3 -4.69951 2.2791 0
M  V30 19705 H 1824 -2.56095 1.55099 0
M  V30 19706 H 1821.54 -1.23097 0.747196 0
M  V30 19707 H 1823.5 -4.2068 -0.246178 0
M  V30 19708 H 1822.22 -3.14288 -0.888294 0
M  V30 19709 H 1820.88 -3.45669 1.221 0
M  V30 19710 H 1820.53 -4.97615 -0.734025 0
M  V30 19711 H 1820.23 -5.8205 0.805684 0
M  V30 19712 H 1821.75 -6.10545 -0.0821372 0
M  V30 19713 H 1823.17 -5.3501 2.06003 0
M  V30 19714 H 1821.56 -5.28198 2.84828 0
M  V30 19715 H 1822.63 -3.87032 2.9212 0
M  V30 19716 N 1823.98 -0.827251 -1.34143 0
M  V30 19717 C 1825.22 -0.413762 -1.9741 0
M  V30 19718 C 1825.54 1.0297 -1.66303 0
M  V30 19719 O 1826.74 1.5473 -2.23094 0
M  V30 19720 C 1825.2 -0.688904 -3.53245 0
M  V30 19721 C 1824.81 -2.14627 -3.93242 0
M  V30 19722 C 1826.55 -0.341794 -4.23122 0
M  V30 19723 C 1824.46 -2.36607 -5.42006 0
M  V30 19724 H 1823.39 -0.150982 -0.738729 0
M  V30 19725 H 1826.04 -1.01421 -1.52925 0
M  V30 19726 H 1824.42 -0.0182319 -3.95996 0
M  V30 19727 H 1825.6 -2.85646 -3.61584 0
M  V30 19728 H 1823.91 -2.45523 -3.36314 0
M  V30 19729 H 1826.51 -0.483797 -5.32507 0
M  V30 19730 H 1826.85 0.714135 -4.10129 0
M  V30 19731 H 1827.38 -0.96722 -3.85862 0
M  V30 19732 H 1824.12 -3.40722 -5.5999 0
M  V30 19733 H 1823.64 -1.70137 -5.75164 0
M  V30 19734 H 1825.32 -2.19181 -6.08744 0
M  V30 19735 N 1825.45 1.46436 -0.582609 0
M  V30 19736 C 1826.68 2.06469 -0.0736587 0
M  V30 19737 C 1827.09 1.43193 1.23662 0
M  V30 19738 O 1826.43 0.531376 1.75847 0
M  V30 19739 C 1826.5 3.59114 0.166531 0
M  V30 19740 C 1826.16 4.44581 -1.05814 0
M  V30 19741 C 1827.16 4.81125 -1.97016 0
M  V30 19742 C 1824.84 4.85718 -1.27996 0
M  V30 19743 C 1826.84 5.57632 -3.08747 0
M  V30 19744 C 1824.52 5.61986 -2.40032 0
M  V30 19745 C 1825.52 5.97856 -3.30237 0
M  V30 19746 O 1825.21 6.72582 -4.40328 0
M  V30 19747 H 1824.94 0.673802 -0.0544673 0
M  V30 19748 H 1827.5 1.89053 -0.803005 0
M  V30 19749 H 1825.73 3.74837 0.950489 0
M  V30 19750 H 1827.41 4.01075 0.62398 0
M  V30 19751 H 1828.18 4.49922 -1.81094 0
M  V30 19752 H 1824.06 4.57249 -0.586917 0
M  V30 19753 H 1827.6 5.85549 -3.7918 0
M  V30 19754 H 1823.5 5.92602 -2.55917 0
M  V30 19755 H 1824.27 6.91006 -4.38694 0
M  V30 19756 N 1826.93 0.320385 1.54309 0
M  V30 19757 C 1827.86 -0.539789 2.27175 0
M  V30 19758 C 1828.84 -1.12198 1.2785 0
M  V30 19759 O 1830.03 -1.1477 1.56657 0
M  V30 19760 C 1827.16 -1.70236 3.02716 0
M  V30 19761 C 1826.11 -1.24962 4.09351 0
M  V30 19762 C 1825.44 -2.49888 4.72715 0
M  V30 19763 C 1826.74 -0.366788 5.21011 0
M  V30 19764 H 1828.43 0.0680079 2.99323 0
M  V30 19765 H 1825.98 0.0341488 1.4396 0
M  V30 19766 H 1827.93 -2.31037 3.5242 0
M  V30 19767 H 1826.65 -2.33669 2.2818 0
M  V30 19768 H 1825.31 -0.664556 3.60526 0
M  V30 19769 H 1824.96 -3.11679 3.94798 0
M  V30 19770 H 1824.66 -2.20288 5.44745 0
M  V30 19771 H 1826.19 -3.11458 5.25192 0
M  V30 19772 H 1827.6 -0.881001 5.6649 0
M  V30 19773 H 1826 -0.163707 5.99877 0
M  V30 19774 H 1827.07 0.603185 4.81134 0
M  V30 19775 N 1828.41 -1.57525 0.0484906 0
M  V30 19776 C 1829.66 -1.92204 -0.624654 0
M  V30 19777 C 1829.98 -0.927289 -1.71541 0
M  V30 19778 O 1829.25 0.0282687 -1.9588 0
M  V30 19779 H 1827.83 -0.709494 -0.233724 0
M  V30 19780 H 1830.49 -1.94639 0.100861 0
M  V30 19781 H 1829.59 -2.93368 -1.06498 0
M  V30 19782 N 1829.89 0.224867 -1.55988 0
M  V30 19783 C 1831.3 0.574415 -1.48905 0
M  V30 19784 C 1831.5 1.87303 -0.74296 0
M  V30 19785 O 1830.56 2.50929 -0.28127 0
M  V30 19786 C 1831.87 0.656717 -2.93441 0
M  V30 19787 C 1833.42 0.747568 -3.03941 0
M  V30 19788 C 1833.9 0.861243 -4.4983 0
M  V30 19789 N 1835.39 0.92555 -4.53859 0
M  V30 19790 C 1836.12 1.03316 -5.64015 0
M  V30 19791 N 1835.62 1.10492 -6.83932 0
M  V30 19792 N 1837.41 1.06804 -5.5186 0
M  V30 19793 H 1829.56 -0.627339 -2.02924 0
M  V30 19794 H 1831.82 -0.219656 -0.922201 0
M  V30 19795 H 1831.53 -0.227845 -3.50961 0
M  V30 19796 H 1831.4 1.52142 -3.45156 0
M  V30 19797 H 1833.79 1.62257 -2.46489 0
M  V30 19798 H 1833.87 -0.142737 -2.55401 0
M  V30 19799 H 1833.52 -0.00929123 -5.07899 0
M  V30 19800 H 1833.45 1.76692 -4.96072 0
M  V30 19801 H 1835.94 0.880541 -3.67498 0
M  V30 19802 H 1836.25 1.18672 -7.63634 0
M  V30 19803 H 1834.6 1.07411 -6.8665 0
M  V30 19804 H 1837.79 1.0086 -4.57105 0
M  V30 19805 H 1837.96 1.14845 -6.37742 0
M  V30 19806 N 1831.37 1.49742 0.491438 0
M  V30 19807 C 1832.61 1.58956 1.24161 0
M  V30 19808 C 1832.93 0.285882 1.935 0
M  V30 19809 O 1834.13 0.256678 2.70284 0
M  V30 19810 C 1832.59 2.805 2.25494 0
M  V30 19811 C 1832.2 4.17664 1.62051 0
M  V30 19812 C 1833.94 2.99049 3.0128 0
M  V30 19813 C 1831.85 5.3042 2.61551 0
M  V30 19814 H 1830.78 0.591883 0.467108 0
M  V30 19815 H 1833.43 1.76144 0.514364 0
M  V30 19816 H 1831.81 2.56827 3.01423 0
M  V30 19817 H 1832.99 4.51512 0.9205 0
M  V30 19818 H 1831.3 4.04553 0.986211 0
M  V30 19819 H 1833.9 3.80458 3.75707 0
M  V30 19820 H 1834.24 2.0998 3.59464 0
M  V30 19821 H 1834.77 3.22807 2.32466 0
M  V30 19822 H 1831.51 6.21579 2.08135 0
M  V30 19823 H 1831.03 5.01014 3.29765 0
M  V30 19824 H 1832.71 5.60152 3.23789 0
M  V30 19825 N 1832.84 -0.743177 1.38977 0
M  V30 19826 C 1833.75 -1.88767 1.39299 0
M  V30 19827 C 1834.77 -1.71587 0.288782 0
M  V30 19828 O 1835.95 -1.94331 0.52892 0
M  V30 19829 C 1833.01 -3.24263 1.22697 0
M  V30 19830 C 1832.07 -3.53895 2.43017 0
M  V30 19831 C 1831.31 -4.82925 2.27198 0
M  V30 19832 O 1831.53 -5.56056 1.27114 0
M  V30 19833 O 1830.46 -5.12271 3.16009 0
M  V30 19834 H 1834.29 -1.9145 2.35755 0
M  V30 19835 H 1831.87 -0.889881 1.20006 0
M  V30 19836 H 1833.76 -4.05251 1.1554 0
M  V30 19837 H 1832.43 -3.22368 0.293317 0
M  V30 19838 H 1831.34 -2.73026 2.5575 0
M  V30 19839 H 1832.67 -3.6056 3.35048 0
M  V30 19840 N 1834.32 -1.24018 -0.972487 0
M  V30 19841 C 1835.26 -0.97157 -2.06484 0
M  V30 19842 C 1836.23 0.0929652 -1.62334 0
M  V30 19843 O 1837.42 -0.0429642 -1.88451 0
M  V30 19844 C 1834.54 -0.465235 -3.3549 0
M  V30 19845 C 1833.59 -1.51759 -3.98587 0
M  V30 19846 S 1834.42 -3.09746 -4.36827 0
M  V30 19847 C 1835.58 -2.60803 -5.68975 0
M  V30 19848 H 1835.81 -1.89654 -2.28951 0
M  V30 19849 H 1833.35 -1.0735 -1.10975 0
M  V30 19850 H 1835.3 -0.17972 -4.10106 0
M  V30 19851 H 1833.96 0.438944 -3.11018 0
M  V30 19852 H 1833.16 -1.11362 -4.91543 0
M  V30 19853 H 1832.76 -1.75286 -3.3038 0
M  V30 19854 H 1835.05 -2.03316 -6.46273 0
M  V30 19855 H 1835.99 -3.52329 -6.14223 0
M  V30 19856 H 1836.4 -2.0139 -5.27354 0
M  V30 19857 N 1835.8 1.17245 -1.05316 0
M  V30 19858 C 1837.21 1.69167 -0.789906 0
M  V30 19859 C 1837.56 1.83751 0.687762 0
M  V30 19860 O 1836.69 1.52596 1.53438 0
M  V30 19861 C 1837.28 3.07269 -1.42728 0
M  V30 19862 C 1835.84 3.56352 -1.21204 0
M  V30 19863 C 1834.99 2.3258 -1.51003 0
M  V30 19864 H 1837.94 1.01744 -1.21794 0
M  V30 19865 H 1837.96 3.71175 -0.837236 0
M  V30 19866 H 1837.47 2.96622 -2.50273 0
M  V30 19867 H 1835.57 3.72274 -0.155891 0
M  V30 19868 H 1835.69 4.39038 -1.91787 0
M  V30 19869 H 1834.05 2.37107 -0.930172 0
M  V30 19870 H 1834.83 2.2454 -2.59685 0
M  V30 19871 N 1837.28 0.834353 1.33702 0
M  V30 19872 C 1838.19 0.266649 2.3308 0
M  V30 19873 C 1839.2 -0.604958 1.63145 0
M  V30 19874 O 1840.38 -0.510151 1.94832 0
M  V30 19875 C 1837.45 -0.552673 3.42267 0
M  V30 19876 C 1836.51 0.342677 4.2793 0
M  V30 19877 C 1835.74 -0.437637 5.31903 0
M  V30 19878 O 1835.96 -1.6698 5.45412 0
M  V30 19879 O 1834.9 0.186001 6.01613 0
M  V30 19880 H 1838.72 1.08946 2.83486 0
M  V30 19881 H 1836.31 0.596765 1.36964 0
M  V30 19882 H 1838.19 -1.01842 4.08908 0
M  V30 19883 H 1836.86 -1.35263 2.94085 0
M  V30 19884 H 1835.77 0.856168 3.64171 0
M  V30 19885 H 1837.1 1.10728 4.79583 0
M  V30 19886 N 1838.76 -1.46125 0.590367 0
M  V30 19887 C 1840 -2.02646 0.0789983 0
M  V30 19888 C 1840.34 -1.45996 -1.28058 0
M  V30 19889 O 1839.61 -0.627981 -1.84083 0
M  V30 19890 C 1839.89 -3.60094 0.0214749 0
M  V30 19891 C 1839.75 -4.27112 1.41049 0
M  V30 19892 C 1841.07 -4.34889 -0.675236 0
M  V30 19893 H 1838.18 -0.736382 0.0301818 0
M  V30 19894 H 1840.83 -1.7418 0.759037 0
M  V30 19895 H 1838.98 -3.84477 -0.557648 0
M  V30 19896 H 1840.65 -4.13969 2.03537 0
M  V30 19897 H 1838.89 -3.86178 1.97607 0
M  V30 19898 H 1839.56 -5.3592 1.32264 0
M  V30 19899 H 1842.04 -4.15697 -0.183176 0
M  V30 19900 H 1840.91 -5.44615 -0.684538 0
M  V30 19901 H 1841.18 -4.06503 -1.73804 0
M  V30 19902 N 1840.23 -0.328564 -1.54137 0
M  V30 19903 C 1841.46 0.274326 -2.05073 0
M  V30 19904 C 1841.88 1.45393 -1.20442 0
M  V30 19905 O 1841.23 1.80964 -0.23625 0
M  V30 19906 C 1841.29 0.703941 -3.5458 0
M  V30 19907 O 1841.01 -0.428738 -4.35997 0
M  V30 19908 C 1842.51 1.36912 -4.21628 0
M  V30 19909 H 1839.73 0.0556157 -0.668691 0
M  V30 19910 H 1842.27 -0.476204 -1.98878 0
M  V30 19911 H 1840.43 1.40444 -3.61046 0
M  V30 19912 H 1840.84 -0.0892654 -5.24424 0
M  V30 19913 H 1842.31 1.62062 -5.27674 0
M  V30 19914 H 1842.79 2.31799 -3.73049 0
M  V30 19915 H 1843.4 0.711064 -4.19314 0
M  V30 19916 N 1841.71 1.57497 -0.0568439 0
M  V30 19917 C 1842.96 1.9209 0.615157 0
M  V30 19918 C 1843.27 0.937538 1.71667 0
M  V30 19919 O 1844.48 1.17573 2.44722 0
M  V30 19920 C 1842.94 3.41183 1.14552 0
M  V30 19921 C 1842.54 4.47936 0.0758146 0
M  V30 19922 C 1844.29 3.84801 1.79244 0
M  V30 19923 C 1842.2 5.88148 0.619381 0
M  V30 19924 H 1841.13 0.716918 0.233547 0
M  V30 19925 H 1843.78 1.83062 -0.126654 0
M  V30 19926 H 1842.16 3.45234 1.93983 0
M  V30 19927 H 1843.33 4.55482 -0.69807 0
M  V30 19928 H 1841.65 4.13694 -0.473984 0
M  V30 19929 H 1844.24 4.86929 2.20918 0
M  V30 19930 H 1844.59 3.21355 2.64645 0
M  V30 19931 H 1845.12 3.8329 1.0646 0
M  V30 19932 H 1841.86 6.55204 -0.19712 0
M  V30 19933 H 1841.38 5.84152 1.36112 0
M  V30 19934 H 1843.06 6.37572 1.1005 0
M  V30 19935 N 1843.19 -0.216591 1.56105 0
M  V30 19936 C 1844.6 -0.783161 1.6948 0
M  V30 19937 C 1844.95 -1.84776 0.659716 0
M  V30 19938 O 1844.08 -2.1558 -0.188184 0
M  V30 19939 C 1844.67 -1.42733 3.07267 0
M  V30 19940 C 1843.23 -1.94123 3.2248 0
M  V30 19941 C 1842.38 -0.803216 2.65412 0
M  V30 19942 H 1845.33 0.00814542 1.58698 0
M  V30 19943 H 1845.35 -2.29627 3.034 0
M  V30 19944 H 1844.86 -0.652264 3.8258 0
M  V30 19945 H 1842.96 -2.74416 2.52045 0
M  V30 19946 H 1843.08 -2.1178 4.29751 0
M  V30 19947 H 1841.44 -1.21185 2.24023 0
M  V30 19948 H 1842.22 -0.0407398 3.43276 0
M  V30 19949 N 1844.67 -1.5 -0.48349 0
M  V30 19950 C 1845.62 -1.68467 -1.6038 0
M  V30 19951 C 1846.61 -0.550508 -1.60205 0
M  V30 19952 O 1847.82 -0.730656 -1.64504 0
M  V30 19953 H 1844.19 -0.531525 -0.531964 0
M  V30 19954 H 1846.16 -2.62468 -1.41962 0
M  V30 19955 C 1844.91 -1.78462 -2.98407 0
M  V30 19956 H 1844.23 -2.65117 -2.99254 0
M  V30 19957 H 1845.67 -1.95413 -3.76284 0
M  V30 19958 C 1844.13 -0.533368 -3.32651 0
M  V30 19959 O 1844.66 0.333087 -4.00317 0
M  V30 19960 N 1842.87 -0.391077 -2.87957 0
M  V30 19961 H 1842.42 -1.09719 -2.33066 0
M  V30 19962 H 1842.37 0.444995 -3.11235 0
M  V30 19963 N 1846.15 0.735796 -1.39369 0
M  V30 19964 C 1847.39 1.49649 -1.37756 0
M  V30 19965 C 1847.75 1.92381 0.0268551 0
M  V30 19966 O 1847.04 1.63847 0.993221 0
M  V30 19967 C 1847.23 2.7495 -2.28336 0
M  V30 19968 C 1847.06 2.4447 -3.77445 0
M  V30 19969 C 1845.83 2.36806 -4.46376 0
M  V30 19970 C 1848.03 2.10066 -4.69443 0
M  V30 19971 N 1846.01 1.98788 -5.80824 0
M  V30 19972 C 1847.38 1.82485 -5.92536 0
M  V30 19973 C 1849.44 1.96527 -4.57473 0
M  V30 19974 C 1848.14 1.4273 -7.04997 0
M  V30 19975 C 1850.17 1.58175 -5.69855 0
M  V30 19976 C 1849.53 1.31479 -6.92021 0
M  V30 19977 H 1845.63 0.546482 -0.559358 0
M  V30 19978 H 1848.21 0.855204 -1.74912 0
M  V30 19979 H 1846.38 3.3686 -1.93339 0
M  V30 19980 H 1848.12 3.41144 -2.17721 0
M  V30 19981 H 1844.87 2.53875 -3.99806 0
M  V30 19982 H 1845.3 1.82374 -6.51973 0
M  V30 19983 H 1849.94 2.15835 -3.63559 0
M  V30 19984 H 1847.66 1.22163 -7.98813 0
M  V30 19985 H 1851.24 1.48307 -5.6258 0
M  V30 19986 H 1850.12 1.02246 -7.77506 0
M  V30 19987 N 1847.63 1.24532 0.965897 0
M  V30 19988 C 1849.04 1.0111 1.23486 0
M  V30 19989 C 1849.24 -0.278989 1.99559 0
M  V30 19990 O 1848.3 -0.99467 2.32083 0
M  V30 19991 C 1849.61 2.22726 2.02024 0
M  V30 19992 C 1851.16 2.27369 2.1511 0
M  V30 19993 C 1851.63 3.48611 2.97043 0
M  V30 19994 N 1853.12 3.48938 3.04625 0
M  V30 19995 C 1853.86 4.3941 3.68384 0
M  V30 19996 N 1853.36 5.40138 4.33847 0
M  V30 19997 N 1855.15 4.27117 3.65414 0
M  V30 19998 H 1847.3 2.07433 0.456674 0
M  V30 19999 H 1849.56 0.91037 0.264443 0
M  V30 20000 H 1849.27 3.16427 1.53515 0
M  V30 20001 H 1849.14 2.24989 3.02754 0
M  V30 20002 H 1851.53 1.34198 2.62821 0
M  V30 20003 H 1851.61 2.29131 1.13722 0
M  V30 20004 H 1851.25 4.42097 2.50025 0
M  V30 20005 H 1851.18 3.44093 3.98632 0
M  V30 20006 H 1853.68 2.76067 2.58061 0
M  V30 20007 H 1853.99 6.05402 4.80321 0
M  V30 20008 H 1852.33 5.44022 4.3251 0
M  V30 20009 H 1855.52 3.47659 3.1345 0
M  V30 20010 H 1855.7 4.97824 4.1482 0
M  V30 20011 N 1849.1 -1.16685 1.05936 0
M  V30 20012 C 1850.51 -1.68745 0.798866 0
M  V30 20013 C 1850.87 -1.84113 -0.678008 0
M  V30 20014 O 1849.99 -1.53408 -1.52627 0
M  V30 20015 C 1850.59 -3.06508 1.44356 0
M  V30 20016 C 1849.14 -3.55704 1.23092 0
M  V30 20017 C 1848.29 -2.31776 1.52235 0
M  V30 20018 H 1851.24 -1.01097 1.22332 0
M  V30 20019 H 1851.26 -3.70725 0.856908 0
M  V30 20020 H 1850.78 -2.95291 2.51843 0
M  V30 20021 H 1848.88 -3.72186 0.175632 0
M  V30 20022 H 1848.99 -4.38015 1.94112 0
M  V30 20023 H 1847.35 -2.36611 0.942734 0
M  V30 20024 H 1848.14 -2.2316 2.60873 0
M  V30 20025 N 1850.58 -0.841432 -1.33258 0
M  V30 20026 C 1851.51 -0.291603 -2.31672 0
M  V30 20027 C 1852.49 0.602066 -1.59089 0
M  V30 20028 O 1853.68 0.525081 -1.86967 0
M  V30 20029 C 1850.81 0.532008 -3.43201 0
M  V30 20030 C 1849.76 -0.26609 -4.27172 0
M  V30 20031 C 1849.09 0.681432 -5.3034 0
M  V30 20032 C 1850.39 -1.48457 -5.00757 0
M  V30 20033 H 1852.08 -1.1139 -2.77908 0
M  V30 20034 H 1849.63 -0.53708 -1.33609 0
M  V30 20035 H 1851.58 0.926977 -4.11078 0
M  V30 20036 H 1850.3 1.38754 -2.9566 0
M  V30 20037 H 1848.96 -0.64265 -3.60923 0
M  V30 20038 H 1848.61 1.53344 -4.79056 0
M  V30 20039 H 1848.31 0.151522 -5.87405 0
M  V30 20040 H 1849.84 1.07386 -6.01083 0
M  V30 20041 H 1851.25 -1.16262 -5.61388 0
M  V30 20042 H 1849.65 -1.95145 -5.67484 0
M  V30 20043 H 1850.72 -2.25296 -4.29383 0
M  V30 20044 N 1852.06 1.4581 -0.598108 0
M  V30 20045 C 1853.29 2.06679 -0.0956921 0
M  V30 20046 C 1853.7 1.44435 1.2159 0
M  V30 20047 O 1853.06 0.555104 1.73853 0
M  V30 20048 C 1853.11 3.61449 0.0604873 0
M  V30 20049 O 1852.83 4.21368 -1.1992 0
M  V30 20050 C 1854.33 4.39282 0.595466 0
M  V30 20051 H 1851.55 0.667893 -0.0644954 0
M  V30 20052 H 1854.1 1.87202 -0.823151 0
M  V30 20053 H 1852.25 3.80301 0.738231 0
M  V30 20054 H 1852.67 5.1443 -1.02282 0
M  V30 20055 H 1854.14 5.48114 0.653868 0
M  V30 20056 H 1854.62 4.084 1.61575 0
M  V30 20057 H 1855.22 4.25273 -0.0479171 0
M  V30 20058 N 1853.54 0.336733 1.53961 0
M  V30 20059 C 1854.47 -0.515664 2.27735 0
M  V30 20060 C 1855.45 -1.10835 1.29033 0
M  V30 20061 O 1856.63 -1.13102 1.57866 0
M  V30 20062 C 1853.76 -1.67015 3.04505 0
M  V30 20063 C 1852.72 -1.20613 4.10654 0
M  V30 20064 C 1852.04 -2.44861 4.75339 0
M  V30 20065 C 1853.34 -0.311507 5.2137 0
M  V30 20066 H 1855.04 0.0997513 2.99234 0
M  V30 20067 H 1852.58 0.0494157 1.43915 0
M  V30 20068 H 1854.54 -2.27286 3.54851 0
M  V30 20069 H 1853.26 -2.31236 2.30646 0
M  V30 20070 H 1851.92 -0.62628 3.61211 0
M  V30 20071 H 1851.57 -3.07474 3.98081 0
M  V30 20072 H 1851.27 -2.14498 5.47051 0
M  V30 20073 H 1852.79 -3.0587 5.28466 0
M  V30 20074 H 1854.21 -0.820868 5.67393 0
M  V30 20075 H 1852.6 -0.100073 6.00017 0
M  V30 20076 H 1853.67 0.654181 4.80467 0
M  V30 20077 N 1855.02 -1.57465 0.0651956 0
M  V30 20078 C 1856.26 -1.92414 -0.604961 0
M  V30 20079 C 1856.58 -0.946628 -1.71167 0
M  V30 20080 O 1857.78 -1.18869 -2.44095 0
M  V30 20081 C 1856.24 -3.41786 -1.12741 0
M  V30 20082 C 1855.85 -4.4797 -0.0520584 0
M  V30 20083 C 1857.59 -3.85746 -1.77201 0
M  V30 20084 C 1855.5 -5.88468 -0.588181 0
M  V30 20085 H 1854.43 -0.718147 -0.229742 0
M  V30 20086 H 1857.08 -1.82993 0.136361 0
M  V30 20087 H 1855.46 -3.46258 -1.92149 0
M  V30 20088 H 1856.64 -4.55105 0.722215 0
M  V30 20089 H 1854.95 -4.13436 0.495917 0
M  V30 20090 H 1857.55 -4.88093 -2.18332 0
M  V30 20091 H 1857.89 -3.22754 -2.62937 0
M  V30 20092 H 1858.42 -3.83849 -1.04426 0
M  V30 20093 H 1855.16 -6.5509 0.231865 0
M  V30 20094 H 1854.68 -5.84866 -1.33012 0
M  V30 20095 H 1856.36 -6.38147 -1.06667 0
M  V30 20096 N 1856.49 0.20831 -1.56217 0
M  V30 20097 C 1857.42 1.26115 -1.96513 0
M  V30 20098 C 1858.4 1.48185 -0.835183 0
M  V30 20099 O 1859.59 1.60145 -1.09851 0
M  V30 20100 C 1856.72 2.6082 -2.29326 0
M  V30 20101 C 1855.67 2.53385 -3.44935 0
M  V30 20102 C 1855 3.92241 -3.63388 0
M  V30 20103 C 1856.3 2.07026 -4.79518 0
M  V30 20104 H 1857.99 0.92635 -2.84709 0
M  V30 20105 H 1855.54 0.444169 -1.36979 0
M  V30 20106 H 1857.49 3.34644 -2.56109 0
M  V30 20107 H 1856.22 2.96014 -1.37997 0
M  V30 20108 H 1854.88 1.82018 -3.18222 0
M  V30 20109 H 1854.52 4.24766 -2.69413 0
M  V30 20110 H 1854.22 3.88145 -4.41154 0
M  V30 20111 H 1855.75 4.67707 -3.92533 0
M  V30 20112 H 1857.16 2.70601 -5.05419 0
M  V30 20113 H 1855.56 2.13961 -5.60661 0
M  V30 20114 H 1856.63 1.02298 -4.73986 0
M  V30 20115 N 1857.97 1.50255 0.475528 0
M  V30 20116 C 1858.9 1.71721 1.58222 0
M  V30 20117 C 1859.88 0.56612 1.60403 0
M  V30 20118 O 1861.07 0.804774 1.7674 0
M  V30 20119 C 1858.2 1.80726 2.96573 0
M  V30 20120 C 1857.15 2.95877 3.09258 0
M  V30 20121 C 1856.48 2.9002 4.49213 0
M  V30 20122 C 1857.78 4.36452 2.86891 0
M  V30 20123 H 1859.47 2.6438 1.40511 0
M  V30 20124 H 1857.02 1.27224 0.674533 0
M  V30 20125 H 1858.97 1.94328 3.73918 0
M  V30 20126 H 1857.69 0.846846 3.1543 0
M  V30 20127 H 1856.35 2.81918 2.34345 0
M  V30 20128 H 1856 1.91834 4.64982 0
M  V30 20129 H 1855.7 3.67322 4.58637 0
M  V30 20130 H 1857.23 3.05665 5.28584 0
M  V30 20131 H 1858.64 4.5096 3.53989 0
M  V30 20132 H 1857.04 5.15171 3.07765 0
M  V30 20133 H 1858.11 4.49129 1.82786 0
M  V30 20134 N 1859.45 -0.728395 1.39758 0
M  V30 20135 C 1860.68 -1.5154 1.40425 0
M  V30 20136 C 1861.09 -1.892 -0.00123953 0
M  V30 20137 O 1860.43 -1.55086 -0.984575 0
M  V30 20138 C 1860.49 -2.8282 2.2193 0
M  V30 20139 C 1860.16 -2.67557 3.70489 0
M  V30 20140 C 1861.15 -2.35665 4.6342 0
M  V30 20141 C 1858.84 -2.84221 4.14154 0
M  V30 20142 C 1860.83 -2.20628 5.97998 0
M  V30 20143 C 1858.52 -2.68803 5.48806 0
M  V30 20144 C 1859.52 -2.37053 6.40543 0
M  V30 20145 O 1859.21 -2.21738 7.72714 0
M  V30 20146 H 1858.94 -0.474672 0.481313 0
M  V30 20147 H 1861.49 -0.907176 1.84281 0
M  V30 20148 H 1859.72 -3.45927 1.72833 0
M  V30 20149 H 1861.41 -3.44472 2.14695 0
M  V30 20150 H 1862.18 -2.22435 4.30985 0
M  V30 20151 H 1858.06 -3.07925 3.43079 0
M  V30 20152 H 1861.6 -1.95768 6.69567 0
M  V30 20153 H 1857.5 -2.81614 5.8083 0
M  V30 20154 H 1858.26 -2.36758 7.8351 0
M  V30 20155 N 1860.93 -1.25042 -0.959279 0
M  V30 20156 C 1861.86 -1.07494 -2.07285 0
M  V30 20157 C 1862.84 0.0146264 -1.70094 0
M  V30 20158 O 1864.02 -0.154035 -1.93588 0
M  V30 20159 C 1861.15 -0.68794 -3.40418 0
M  V30 20160 C 1860.11 -1.72722 -3.91601 0
M  V30 20161 C 1859.43 -1.19504 -5.21175 0
M  V30 20162 C 1860.73 -3.12502 -4.18497 0
M  V30 20163 H 1862.43 -2.00641 -2.22224 0
M  V30 20164 H 1859.97 -0.966074 -1.06785 0
M  V30 20165 H 1861.93 -0.552133 -4.17767 0
M  V30 20166 H 1860.65 0.279224 -3.25404 0
M  V30 20167 H 1859.31 -1.85139 -3.16416 0
M  V30 20168 H 1858.96 -0.218239 -5.02526 0
M  V30 20169 H 1858.66 -1.88962 -5.56387 0
M  V30 20170 H 1860.18 -1.07153 -6.01124 0
M  V30 20171 H 1861.6 -3.03266 -4.86521 0
M  V30 20172 H 1859.99 -3.79389 -4.64956 0
M  V30 20173 H 1861.06 -3.5991 -3.2495 0
M  V30 20174 N 1862.41 1.16121 -1.06553 0
M  V30 20175 C 1863.66 1.86055 -0.778871 0
M  V30 20176 C 1863.97 1.82747 0.697357 0
M  V30 20177 O 1865.17 2.48285 1.09849 0
M  V30 20178 C 1863.63 3.33897 -1.34315 0
M  V30 20179 C 1863.24 3.45673 -2.84981 0
M  V30 20180 C 1864.98 4.09069 -1.13415 0
M  V30 20181 C 1862.89 4.87616 -3.34641 0
M  V30 20182 H 1861.82 0.696963 -0.287678 0
M  V30 20183 H 1864.47 1.31038 -1.28458 0
M  V30 20184 H 1862.85 3.88536 -0.765208 0
M  V30 20185 H 1864.03 3.01181 -3.4875 0
M  V30 20186 H 1862.34 2.83938 -3.04579 0
M  V30 20187 H 1864.94 5.13809 -1.48002 0
M  V30 20188 H 1865.28 4.16237 -0.0726719 0
M  V30 20189 H 1865.81 3.60676 -1.67802 0
M  V30 20190 H 1862.55 4.85629 -4.40278 0
M  V30 20191 H 1862.07 5.32722 -2.75622 0
M  V30 20192 H 1863.75 5.56443 -3.30122 0
M  V30 20193 N 1863.88 0.848487 1.3281 0
M  V30 20194 C 1865.11 0.46174 2.02195 0
M  V30 20195 C 1865.53 -0.932159 1.63378 0
M  V30 20196 O 1864.89 -1.6112 0.831266 0
M  V30 20197 C 1864.94 0.601234 3.55552 0
M  V30 20198 O 1864.04 -0.368549 4.1075 0
M  V30 20199 H 1863.39 0.186379 0.637306 0
M  V30 20200 H 1865.92 1.14598 1.69495 0
M  V30 20201 H 1865.93 0.486456 4.0509 0
M  V30 20202 H 1864.6 1.61773 3.83148 0
M  V30 20203 H 1863.18 -0.210525 3.72305 0
M  V30 20204 N 1865.36 -1.4549 0.605832 0
M  V30 20205 C 1866.59 -2.06625 0.106651 0
M  V30 20206 C 1867.01 -1.45077 -1.20822 0
M  V30 20207 O 1866.36 -0.564316 -1.73556 0
M  V30 20208 C 1866.41 -3.61476 -0.0413179 0
M  V30 20209 O 1866.13 -4.20726 1.22153 0
M  V30 20210 C 1867.64 -4.39592 -0.572162 0
M  V30 20211 H 1864.86 -0.667542 0.0680365 0
M  V30 20212 H 1867.4 -1.86763 0.833067 0
M  V30 20213 H 1865.55 -3.80687 -0.718053 0
M  V30 20214 H 1865.97 -5.13881 1.05009 0
M  V30 20215 H 1867.44 -5.48453 -0.624791 0
M  V30 20216 H 1867.92 -4.09251 -1.59407 0
M  V30 20217 H 1868.53 -4.25242 0.0704697 0
M  V30 20218 N 1866.84 -0.344893 -1.5378 0
M  V30 20219 C 1868.07 0.252559 -2.05353 0
M  V30 20220 C 1868.48 1.44107 -1.21978 0
M  V30 20221 O 1867.84 1.80704 -0.25543 0
M  V30 20222 C 1867.89 0.666294 -3.55307 0
M  V30 20223 O 1867.61 -0.474957 -4.35518 0
M  V30 20224 C 1869.11 1.32432 -4.23056 0
M  V30 20225 H 1866.33 0.0485202 -0.669243 0
M  V30 20226 H 1868.88 -0.497271 -1.98362 0
M  V30 20227 H 1867.03 1.36606 -3.62515 0
M  V30 20228 H 1867.45 -0.144883 -5.243 0
M  V30 20229 H 1868.92 1.56456 -5.29363 0
M  V30 20230 H 1869.4 2.27829 -3.75487 0
M  V30 20231 H 1870 0.66655 -4.20044 0
M  V30 20232 N 1868.32 1.57428 -0.0735454 0
M  V30 20233 C 1869.57 1.92732 0.594748 0
M  V30 20234 C 1869.88 0.955693 1.70663 0
M  V30 20235 O 1871.09 1.20162 2.43461 0
M  V30 20236 C 1869.54 3.42379 1.10927 0
M  V30 20237 C 1869.15 4.47991 0.0283008 0
M  V30 20238 C 1870.89 3.8668 1.75153 0
M  V30 20239 C 1868.8 5.88771 0.556965 0
M  V30 20240 H 1867.73 0.719355 0.22593 0
M  V30 20241 H 1870.38 1.82918 -0.146063 0
M  V30 20242 H 1868.76 3.47272 1.9031 0
M  V30 20243 H 1869.94 4.54716 -0.74634 0
M  V30 20244 H 1868.25 4.13168 -0.517835 0
M  V30 20245 H 1870.85 4.89244 2.15741 0
M  V30 20246 H 1871.19 3.24144 2.61221 0
M  V30 20247 H 1871.73 3.84397 1.02389 0
M  V30 20248 H 1868.47 6.54958 -0.266602 0
M  V30 20249 H 1867.99 5.85563 1.29909 0
M  V30 20250 H 1869.66 6.38703 1.03281 0
M  V30 20251 N 1869.8 -0.200022 1.56326 0
M  V30 20252 C 1871.04 -0.922539 1.80602 0
M  V30 20253 C 1871.38 -1.83113 0.646781 0
M  V30 20254 O 1870.65 -1.91271 -0.352928 0
M  V30 20255 C 1870.93 -1.74301 3.15105 0
M  V30 20256 C 1870.79 -0.859471 4.41512 0
M  V30 20257 C 1872.11 -2.71658 3.46251 0
M  V30 20258 H 1869.22 -0.333949 0.656999 0
M  V30 20259 H 1871.87 -0.190177 1.89046 0
M  V30 20260 H 1870.02 -2.36739 3.08037 0
M  V30 20261 H 1871.69 -0.250183 4.60621 0
M  V30 20262 H 1869.93 -0.165935 4.33483 0
M  V30 20263 H 1870.6 -1.46842 5.3211 0
M  V30 20264 H 1873.08 -2.19353 3.53586 0
M  V30 20265 H 1871.95 -3.26152 4.41493 0
M  V30 20266 H 1872.22 -3.50462 2.69497 0
M  V30 20267 N 1871.27 -1.50505 -0.467553 0
M  V30 20268 C 1872.5 -1.65433 -1.24256 0
M  V30 20269 C 1872.92 -0.339107 -1.8573 0
M  V30 20270 O 1872.27 0.679316 -1.69386 0
M  V30 20271 C 1872.33 -2.74805 -2.34871 0
M  V30 20272 O 1872.05 -4.01229 -1.75917 0
M  V30 20273 C 1873.55 -3.00738 -3.25687 0
M  V30 20274 H 1870.77 -0.555987 -0.375659 0
M  V30 20275 H 1873.31 -1.96749 -0.557684 0
M  V30 20276 H 1871.47 -2.46174 -2.99128 0
M  V30 20277 H 1871.88 -4.61742 -2.48787 0
M  V30 20278 H 1873.35 -3.80921 -3.99504 0
M  V30 20279 H 1873.83 -2.11947 -3.84675 0
M  V30 20280 H 1874.44 -3.30914 -2.67163 0
M  V30 20281 N 1872.75 0.720973 -1.40142 0
M  V30 20282 C 1874.17 1.02835 -1.22054 0
M  V30 20283 C 1874.37 2.0129 -0.091949 0
M  V30 20284 O 1873.42 2.46395 0.551897 0
M  V30 20285 C 1874.74 1.57722 -2.56016 0
M  V30 20286 C 1876.29 1.69734 -2.62982 0
M  V30 20287 C 1876.76 2.28027 -3.972 0
M  V30 20288 N 1878.25 2.3542 -3.98913 0
M  V30 20289 C 1878.99 2.81495 -4.99548 0
M  V30 20290 N 1878.48 3.27362 -6.10578 0
M  V30 20291 N 1880.28 2.80831 -4.86919 0
M  V30 20292 H 1872.43 0.068271 -2.1229 0
M  V30 20293 H 1874.69 0.0928952 -0.943438 0
M  V30 20294 H 1874.4 0.928424 -3.39224 0
M  V30 20295 H 1874.27 2.56326 -2.76725 0
M  V30 20296 H 1876.66 2.33732 -1.80148 0
M  V30 20297 H 1876.74 0.697443 -2.46108 0
M  V30 20298 H 1876.38 1.64653 -4.80471 0
M  V30 20299 H 1876.31 3.28721 -4.114 0
M  V30 20300 H 1878.8 2.03019 -3.18735 0
M  V30 20301 H 1879.12 3.61071 -6.83263 0
M  V30 20302 H 1877.46 3.25335 -6.14152 0
M  V30 20303 H 1880.65 2.4433 -3.99275 0
M  V30 20304 H 1880.82 3.16423 -5.65492 0
M  V30 20305 N 1874.23 1.25549 0.952634 0
M  V30 20306 C 1875.48 1.11588 1.70058 0
M  V30 20307 C 1875.83 -0.339332 1.89384 0
M  V30 20308 O 1875.12 -1.24644 1.45515 0
M  V30 20309 C 1875.32 1.80586 3.08421 0
M  V30 20310 C 1875.15 3.32667 3.02593 0
M  V30 20311 C 1873.92 4.01927 3.0624 0
M  V30 20312 C 1876.12 4.29036 2.83607 0
M  V30 20313 N 1874.1 5.40768 2.90591 0
M  V30 20314 C 1875.47 5.54976 2.76409 0
M  V30 20315 C 1877.52 4.19426 2.68302 0
M  V30 20316 C 1876.23 6.72404 2.55471 0
M  V30 20317 C 1878.25 5.36549 2.48735 0
M  V30 20318 C 1877.61 6.6143 2.4226 0
M  V30 20319 H 1873.71 0.463049 0.630166 0
M  V30 20320 H 1876.3 1.58678 1.12825 0
M  V30 20321 H 1874.47 1.35989 3.63815 0
M  V30 20322 H 1876.2 1.59349 3.72008 0
M  V30 20323 H 1872.96 3.53201 3.15509 0
M  V30 20324 H 1873.38 6.13639 2.85965 0
M  V30 20325 H 1878.02 3.23622 2.72081 0
M  V30 20326 H 1875.74 7.68316 2.50433 0
M  V30 20327 H 1879.33 5.30976 2.37815 0
M  V30 20328 H 1878.21 7.50531 2.27317 0
M  V30 20329 N 1875.71 -1.15554 1.07168 0
M  V30 20330 C 1876.66 -2.20234 0.690348 0
M  V30 20331 C 1877.63 -1.6304 -0.317346 0
M  V30 20332 O 1878.81 -1.89704 -0.20422 0
M  V30 20333 C 1875.95 -3.44976 0.0923404 0
M  V30 20334 C 1875.06 -4.16377 1.15128 0
M  V30 20335 C 1874.2 -5.28664 0.518478 0
M  V30 20336 C 1873.24 -5.91878 1.56034 0
M  V30 20337 N 1872.37 -6.9564 0.950251 0
M  V30 20338 H 1877.21 -2.52203 1.58738 0
M  V30 20339 H 1874.75 -1.23863 0.793502 0
M  V30 20340 H 1876.71 -4.16312 -0.271985 0
M  V30 20341 H 1875.34 -3.1353 -0.768054 0
M  V30 20342 H 1874.39 -3.43556 1.63321 0
M  V30 20343 H 1875.7 -4.59472 1.94132 0
M  V30 20344 H 1874.86 -6.06615 0.101683 0
M  V30 20345 H 1873.6 -4.86756 -0.303345 0
M  V30 20346 H 1872.6 -5.12641 1.98694 0
M  V30 20347 H 1873.83 -6.35864 2.38442 0
M  V30 20348 H 1871.77 -6.5583 0.149298 0
M  V30 20349 H 1871.69 -7.37153 1.67755 0
M  V30 20350 H 1872.96 -7.77494 0.558895 0
M  V30 20351 N 1877.19 -0.855519 -1.32358 0
M  V30 20352 C 1878.43 -0.460002 -1.97514 0
M  V30 20353 C 1878.77 0.982052 -1.67539 0
M  V30 20354 O 1878.04 1.68925 -0.964091 0
M  V30 20355 C 1878.32 -0.70064 -3.53218 0
M  V30 20356 C 1878.18 -2.19118 -3.9282 0
M  V30 20357 C 1879.5 -0.157597 -4.39818 0
M  V30 20358 H 1876.62 -0.168606 -0.717455 0
M  V30 20359 H 1879.26 -1.0741 -1.56726 0
M  V30 20360 H 1877.41 -0.177937 -3.88092 0
M  V30 20361 H 1879.08 -2.78002 -3.6812 0
M  V30 20362 H 1877.32 -2.66934 -3.41948 0
M  V30 20363 H 1877.99 -2.31024 -5.0133 0
M  V30 20364 H 1880.47 -0.604597 -4.11684 0
M  V30 20365 H 1879.35 -0.355532 -5.47747 0
M  V30 20366 H 1879.61 0.939679 -4.31998 0
M  V30 20367 N 1878.67 1.45167 -0.61354 0
M  V30 20368 C 1879.94 1.95553 -0.042781 0
M  V30 20369 C 1880.32 1.55588 1.42673 0
M  V30 20370 O 1879.67 0.821325 2.13229 0
M  V30 20371 C 1879.88 3.48124 -0.247141 0
M  V30 20372 C 1881.23 4.24398 -0.131068 0
M  V30 20373 O 1882.25 3.55757 -0.177576 0
M  V30 20374 O 1881.11 5.46496 -0.0211683 0
M  V30 20375 H 1878.21 0.826367 0.0323494 0
M  V30 20376 H 1880.75 1.55304 -0.684017 0
M  V30 20377 H 1879.52 3.70202 -1.26751 0
M  V30 20378 H 1879.15 3.95278 0.429074 0
M  V30 20379 N 1880.14 0.353044 1.53595 0
M  V30 20380 C 1881.39 -0.240904 2.01364 0
M  V30 20381 C 1881.72 -1.49438 1.24023 0
M  V30 20382 O 1881 -1.91672 0.330451 0
M  V30 20383 C 1881.28 -0.545497 3.55944 0
M  V30 20384 C 1881.13 0.720742 4.43988 0
M  V30 20385 C 1882.45 -1.35124 4.18843 0
M  V30 20386 H 1879.57 -0.0860838 0.731955 0
M  V30 20387 H 1882.21 0.475459 1.83955 0
M  V30 20388 H 1880.36 -1.15578 3.7091 0
M  V30 20389 H 1882.04 1.35852 4.40842 0
M  V30 20390 H 1880.28 1.34369 4.12465 0
M  V30 20391 H 1880.95 0.462749 5.50057 0
M  V30 20392 H 1883.43 -0.835104 4.07634 0
M  V30 20393 H 1882.3 -1.53311 5.27055 0
M  V30 20394 H 1882.56 -2.35612 3.74085 0
M  V30 20395 N 1881.62 -1.57387 0.0818932 0
M  V30 20396 C 1882.58 -2.12162 -0.86718 0
M  V30 20397 C 1883.58 -1.04788 -1.21967 0
M  V30 20398 O 1884.77 -1.30733 -1.15128 0
M  V30 20399 C 1881.91 -2.63132 -2.16736 0
M  V30 20400 H 1883.1 -2.9733 -0.391788 0
M  V30 20401 H 1880.65 -1.55406 -0.166944 0
M  V30 20402 H 1881.39 -1.81446 -2.6879 0
M  V30 20403 H 1881.17 -3.41625 -1.92445 0
M  V30 20404 H 1882.66 -3.05549 -2.84657 0
M  V30 20405 N 1883.1 0.191729 -1.56429 0
M  V30 20406 C 1884.35 0.909797 -1.80464 0
M  V30 20407 C 1884.67 1.83652 -0.655516 0
M  V30 20408 O 1883.94 1.93169 0.325946 0
M  V30 20409 H 1882.52 0.338944 -0.665677 0
M  V30 20410 H 1885.18 0.196432 -1.93908 0
M  V30 20411 H 1884.28 1.49891 -2.7375 0
M  V30 20412 N 1884.58 1.50751 0.459565 0
M  V30 20413 C 1885.51 1.73389 1.56392 0
M  V30 20414 C 1886.49 0.583101 1.59793 0
M  V30 20415 O 1887.67 0.823474 1.75876 0
M  V30 20416 C 1884.8 1.83861 2.94639 0
M  V30 20417 C 1883.76 2.9914 3.06103 0
M  V30 20418 C 1883.08 2.94768 4.46112 0
M  V30 20419 C 1884.38 4.39471 2.82246 0
M  V30 20420 H 1886.08 2.65856 1.37699 0
M  V30 20421 H 1883.62 1.27933 0.661001 0
M  V30 20422 H 1885.58 1.98283 3.71836 0
M  V30 20423 H 1884.3 0.880254 3.14514 0
M  V30 20424 H 1882.96 2.84388 2.31342 0
M  V30 20425 H 1882.61 1.96755 4.62922 0
M  V30 20426 H 1882.31 3.72166 4.54716 0
M  V30 20427 H 1883.83 3.11254 5.25313 0
M  V30 20428 H 1885.25 4.54689 3.49186 0
M  V30 20429 H 1883.64 5.18406 3.02283 0
M  V30 20430 H 1884.71 4.51043 1.78012 0
M  V30 20431 N 1886.06 -0.713531 1.40522 0
M  V30 20432 C 1886.99 -1.8404 1.43707 0
M  V30 20433 C 1887.97 -1.67474 0.297751 0
M  V30 20434 O 1889.15 -1.87474 0.506662 0
M  V30 20435 C 1886.28 -3.22014 1.30094 0
M  V30 20436 C 1885.24 -3.53255 2.4165 0
M  V30 20437 C 1884.56 -4.90395 2.13113 0
M  V30 20438 C 1885.86 -3.54045 3.83991 0
M  V30 20439 H 1887.56 -1.81632 2.38013 0
M  V30 20440 H 1885.1 -0.872437 1.14562 0
M  V30 20441 H 1887.05 -4.00541 1.30938 0
M  V30 20442 H 1885.78 -3.25002 0.322648 0
M  V30 20443 H 1884.44 -2.77069 2.40059 0
M  V30 20444 H 1884.09 -4.89988 1.13669 0
M  V30 20445 H 1883.79 -5.12264 2.87853 0
M  V30 20446 H 1885.31 -5.71254 2.15642 0
M  V30 20447 H 1886.72 -4.22609 3.87395 0
M  V30 20448 H 1885.12 -3.87441 4.58268 0
M  V30 20449 H 1886.19 -2.53387 4.13428 0
M  V30 20450 N 1887.53 -1.26053 -0.945962 0
M  V30 20451 C 1888.46 -1.09687 -2.06134 0
M  V30 20452 C 1889.44 -0.00341513 -1.701 0
M  V30 20453 O 1890.63 -0.174559 -1.93414 0
M  V30 20454 C 1887.76 -0.724007 -3.3967 0
M  V30 20455 C 1886.71 -1.76866 -3.89747 0
M  V30 20456 C 1886.04 -1.25025 -5.19878 0
M  V30 20457 C 1887.34 -3.16923 -4.15159 0
M  V30 20458 H 1889.03 -2.02986 -2.20084 0
M  V30 20459 H 1886.58 -0.977346 -1.05754 0
M  V30 20460 H 1888.53 -0.596411 -4.17158 0
M  V30 20461 H 1887.26 0.244695 -3.25682 0
M  V30 20462 H 1885.92 -1.88485 -3.14435 0
M  V30 20463 H 1885.56 -0.271527 -5.02267 0
M  V30 20464 H 1885.26 -1.94853 -5.54352 0
M  V30 20465 H 1886.79 -1.13523 -5.99954 0
M  V30 20466 H 1888.2 -3.08409 -4.83277 0
M  V30 20467 H 1886.6 -3.84299 -4.60906 0
M  V30 20468 H 1887.67 -3.63337 -3.21114 0
M  V30 20469 N 1889.01 1.14984 -1.07779 0
M  V30 20470 C 1889.94 2.19494 -0.659934 0
M  V30 20471 C 1890.96 1.60201 0.289756 0
M  V30 20472 O 1892.15 1.78328 0.0784004 0
M  V30 20473 C 1889.25 3.38862 0.0506161 0
M  V30 20474 C 1888.42 4.27693 -0.916355 0
M  V30 20475 C 1887.48 5.25642 -0.242303 0
M  V30 20476 O 1886.5 5.62282 -0.884715 0
M  V30 20477 N 1887.71 5.7164 1.01033 0
M  V30 20478 H 1890.47 2.5596 -1.55899 0
M  V30 20479 H 1888.03 1.30143 -0.963043 0
M  V30 20480 H 1890.02 4.01444 0.512331 0
M  V30 20481 H 1888.59 3.00775 0.851671 0
M  V30 20482 H 1887.81 3.62145 -1.55708 0
M  V30 20483 H 1889.1 4.83913 -1.57182 0
M  V30 20484 H 1888.5 5.43991 1.55212 0
M  V30 20485 H 1887.06 6.36241 1.41565 0
M  V30 20486 N 1890.49 0.862526 1.31902 0
M  V30 20487 C 1891.73 0.47617 1.98776 0
M  V30 20488 C 1892.09 -0.952142 1.66728 0
M  V30 20489 O 1893.29 -1.44346 2.26754 0
M  V30 20490 C 1891.57 0.71747 3.50124 0
M  V30 20491 S 1893.12 0.429862 4.36689 0
M  V30 20492 H 1889.94 0.178053 0.688344 0
M  V30 20493 H 1892.54 1.11694 1.60451 0
M  V30 20494 H 1891.25 1.75592 3.70939 0
M  V30 20495 H 1890.78 0.0634148 3.93349 0
M  V30 20496 H 1892.79 -0.740921 4.90637 0
M  V30 20497 N 1891.97 -1.4484 0.62123 0
M  V30 20498 C 1893.21 -2.02433 0.121965 0
M  V30 20499 C 1893.55 -1.48679 -1.24932 0
M  V30 20500 O 1892.82 -0.666887 -1.8271 0
M  V30 20501 C 1893.11 -3.59967 0.0978513 0
M  V30 20502 C 1892.96 -4.24025 1.50077 0
M  V30 20503 C 1894.28 -4.36224 -0.582838 0
M  V30 20504 H 1891.4 -0.735576 0.0457947 0
M  V30 20505 H 1894.04 -1.72531 0.795812 0
M  V30 20506 H 1892.19 -3.85573 -0.47597 0
M  V30 20507 H 1893.86 -4.09558 2.12272 0
M  V30 20508 H 1892.1 -3.819 2.05754 0
M  V30 20509 H 1892.77 -5.32994 1.43602 0
M  V30 20510 H 1895.25 -4.15992 -0.0949595 0
M  V30 20511 H 1894.13 -5.45944 -0.568863 0
M  V30 20512 H 1894.39 -4.10098 -1.65142 0
M  V30 20513 N 1893.45 -0.361184 -1.53405 0
M  V30 20514 C 1894.86 0.118972 -1.86321 0
M  V30 20515 C 1895.21 1.48531 -1.28191 0
M  V30 20516 O 1894.33 2.07851 -0.602253 0
M  V30 20517 C 1894.93 0.222658 -3.38068 0
M  V30 20518 C 1893.49 0.647065 -3.70796 0
M  V30 20519 C 1892.63 -0.208424 -2.76516 0
M  V30 20520 H 1895.59 -0.580142 -1.47716 0
M  V30 20521 H 1895.61 1.04702 -3.65811 0
M  V30 20522 H 1895.12 -0.771922 -3.80346 0
M  V30 20523 H 1893.22 1.65003 -3.34073 0
M  V30 20524 H 1893.33 0.424724 -4.77214 0
M  V30 20525 H 1891.7 0.322011 -2.52656 0
M  V30 20526 H 1892.48 -1.20046 -3.21627 0
M  V30 20527 N 1894.92 1.57341 -0.0902386 0
M  V30 20528 C 1896.17 1.93352 0.574273 0
M  V30 20529 C 1896.49 0.97374 1.6964 0
M  V30 20530 O 1897.69 1.22737 2.42173 0
M  V30 20531 C 1896.15 3.43536 1.07289 0
M  V30 20532 C 1895.76 4.47996 -0.0192163 0
M  V30 20533 C 1897.5 3.88516 1.71042 0
M  V30 20534 C 1895.41 5.89329 0.494487 0
M  V30 20535 H 1894.34 0.721711 0.218287 0
M  V30 20536 H 1896.99 1.82753 -0.165456 0
M  V30 20537 H 1895.37 3.49271 1.86616 0
M  V30 20538 H 1896.54 4.53899 -0.794527 0
M  V30 20539 H 1894.86 4.12595 -0.561628 0
M  V30 20540 H 1897.46 4.91505 2.1054 0
M  V30 20541 H 1897.8 3.26896 2.57769 0
M  V30 20542 H 1898.33 3.85462 0.983058 0
M  V30 20543 H 1895.07 6.54638 -0.336054 0
M  V30 20544 H 1894.59 5.86908 1.23691 0
M  V30 20545 H 1896.27 6.39763 0.965014 0
M  V30 20546 N 1896.4 -0.183431 1.56529 0
M  V30 20547 C 1897.33 -1.22973 1.98494 0
M  V30 20548 C 1898.31 -1.46837 0.858653 0
M  V30 20549 O 1899.5 -1.58377 1.12385 0
M  V30 20550 C 1896.63 -2.57138 2.33446 0
M  V30 20551 C 1895.58 -2.47865 3.48922 0
M  V30 20552 C 1894.91 -3.8641 3.69582 0
M  V30 20553 C 1896.21 -1.99371 4.82751 0
M  V30 20554 H 1897.9 -0.880938 2.86147 0
M  V30 20555 H 1895.45 -0.422321 1.37668 0
M  V30 20556 H 1897.4 -3.30527 2.614 0
M  V30 20557 H 1896.13 -2.93781 1.42689 0
M  V30 20558 H 1894.78 -1.76932 3.21077 0
M  V30 20559 H 1894.43 -4.20426 2.76136 0
M  V30 20560 H 1894.13 -3.81077 4.47274 0
M  V30 20561 H 1895.66 -4.61403 3.99924 0
M  V30 20562 H 1897.07 -2.62526 5.0966 0
M  V30 20563 H 1895.47 -2.05014 5.63994 0
M  V30 20564 H 1896.54 -0.947442 4.75554 0
M  V30 20565 N 1897.88 -1.50992 -0.451564 0
M  V30 20566 C 1898.81 -1.74216 -1.5547 0
M  V30 20567 C 1899.79 -0.591568 -1.59482 0
M  V30 20568 O 1900.98 -0.83279 -1.75437 0
M  V30 20569 C 1898.11 -1.85421 -2.9366 0
M  V30 20570 C 1897.06 -3.0076 -3.04512 0
M  V30 20571 C 1896.39 -2.9713 -4.44542 0
M  V30 20572 C 1897.69 -4.40961 -2.79911 0
M  V30 20573 H 1899.38 -2.66582 -1.36287 0
M  V30 20574 H 1896.93 -1.28281 -0.654207 0
M  V30 20575 H 1898.88 -2.00252 -3.70779 0
M  V30 20576 H 1897.6 -0.896921 -3.14043 0
M  V30 20577 H 1896.26 -2.85611 -2.2983 0
M  V30 20578 H 1895.91 -1.99207 -4.61872 0
M  V30 20579 H 1895.61 -3.74572 -4.52736 0
M  V30 20580 H 1897.13 -3.14035 -5.23655 0
M  V30 20581 H 1898.55 -4.56534 -3.4677 0
M  V30 20582 H 1896.95 -5.20002 -2.9953 0
M  V30 20583 H 1898.02 -4.51981 -1.75618 0
M  V30 20584 N 1899.36 0.706069 -1.40899 0
M  V30 20585 C 1900.29 1.83275 -1.44681 0
M  V30 20586 C 1901.27 1.67313 -0.306629 0
M  V30 20587 O 1902.45 1.87203 -0.516597 0
M  V30 20588 C 1899.58 3.21319 -1.318 0
M  V30 20589 C 1898.54 3.51969 -2.4352 0
M  V30 20590 C 1897.86 4.89258 -2.1571 0
M  V30 20591 C 1899.16 3.52004 -3.85864 0
M  V30 20592 H 1900.86 1.80367 -2.38973 0
M  V30 20593 H 1898.4 0.866349 -1.15023 0
M  V30 20594 H 1900.36 3.99841 -1.3306 0
M  V30 20595 H 1899.08 3.24827 -0.339879 0
M  V30 20596 H 1897.74 2.75792 -2.41525 0
M  V30 20597 H 1897.39 4.89378 -1.16266 0
M  V30 20598 H 1897.09 5.1073 -2.90566 0
M  V30 20599 H 1898.61 5.70102 -2.18669 0
M  V30 20600 H 1900.03 4.20548 -3.8963 0
M  V30 20601 H 1898.42 3.85005 -4.60316 0
M  V30 20602 H 1899.49 2.51191 -4.14766 0
M  V30 20603 N 1900.84 1.26553 0.939264 0
M  V30 20604 C 1902.08 1.12376 1.68818 0
M  V30 20605 C 1902.42 -0.331784 1.91345 0
M  V30 20606 O 1901.69 -1.24359 1.4955 0
M  V30 20607 C 1901.97 1.89541 3.0618 0
M  V30 20608 C 1901.83 3.43014 2.90966 0
M  V30 20609 C 1903.15 1.69074 4.06327 0
M  V30 20610 H 1900.26 0.409616 0.612686 0
M  V30 20611 H 1902.91 1.55571 1.09076 0
M  V30 20612 H 1901.06 1.5283 3.57177 0
M  V30 20613 H 1902.73 3.89489 2.47176 0
M  V30 20614 H 1900.97 3.69942 2.26551 0
M  V30 20615 H 1901.64 3.92236 3.88401 0
M  V30 20616 H 1904.12 2.01061 3.64299 0
M  V30 20617 H 1902.99 2.25478 5.00451 0
M  V30 20618 H 1903.26 0.635787 4.37504 0
M  V30 20619 N 1902.31 -1.14411 1.08387 0
M  V30 20620 C 1903.54 -1.89307 0.834895 0
M  V30 20621 C 1903.96 -1.78574 -0.612923 0
M  V30 20622 O 1903.31 -1.14494 -1.42118 0
M  V30 20623 C 1903.37 -3.39289 1.24761 0
M  V30 20624 O 1903.09 -3.49725 2.63863 0
M  V30 20625 C 1904.59 -4.31181 1.02947 0
M  V30 20626 H 1901.81 -0.599644 0.301112 0
M  V30 20627 H 1904.35 -1.44897 1.44309 0
M  V30 20628 H 1902.51 -3.81322 0.683524 0
M  V30 20629 H 1902.92 -4.42884 2.80988 0
M  V30 20630 H 1904.39 -5.34789 1.36763 0
M  V30 20631 H 1904.87 -4.39187 -0.0335224 0
M  V30 20632 H 1905.48 -3.94903 1.57898 0
M  V30 20633 N 1903.79 -0.869509 -1.31443 0
M  V30 20634 C 1905.02 -0.494667 -2.009 0
M  V30 20635 C 1905.44 0.912728 -1.65272 0
M  V30 20636 O 1904.79 1.59788 -0.881702 0
M  V30 20637 C 1904.84 -0.641585 -3.55761 0
M  V30 20638 O 1904.56 -1.99356 -3.90114 0
M  V30 20639 C 1906.07 -0.267695 -4.42491 0
M  V30 20640 H 1903.29 -0.192789 -0.642708 0
M  V30 20641 H 1905.83 -1.17055 -1.67686 0
M  V30 20642 H 1903.98 -0.0132632 -3.87398 0
M  V30 20643 H 1904.4 -2.00099 -4.8483 0
M  V30 20644 H 1905.87 -0.421448 -5.50389 0
M  V30 20645 H 1906.35 0.793108 -4.3198 0
M  V30 20646 H 1906.96 -0.871698 -4.16271 0
M  V30 20647 N 1905.27 1.44508 -0.628902 0
M  V30 20648 C 1906.2 2.33412 0.0642512 0
M  V30 20649 C 1907.18 1.48077 0.837091 0
M  V30 20650 O 1908.37 1.76802 0.803415 0
M  V30 20651 C 1905.5 3.31112 1.04795 0
M  V30 20652 C 1904.45 4.26248 0.386897 0
M  V30 20653 C 1903.78 5.13799 1.48035 0
M  V30 20654 C 1905.08 5.17514 -0.705449 0
M  V30 20655 H 1906.77 2.91619 -0.678133 0
M  V30 20656 H 1904.32 1.40225 -0.327558 0
M  V30 20657 H 1906.27 3.9219 1.54159 0
M  V30 20658 H 1904.99 2.71109 1.8212 0
M  V30 20659 H 1903.65 3.66499 -0.0860697 0
M  V30 20660 H 1903.3 4.5015 2.24441 0
M  V30 20661 H 1903 5.78262 1.04342 0
M  V30 20662 H 1904.52 5.77748 1.97583 0
M  V30 20663 H 1905.94 5.7254 -0.295004 0
M  V30 20664 H 1904.34 5.90567 -1.06538 0
M  V30 20665 H 1905.41 4.5866 -1.57349 0
M  V30 20666 N 1906.75 0.369315 1.53212 0
M  V30 20667 C 1908 -0.212093 2.02291 0
M  V30 20668 C 1908.35 -1.46118 1.25169 0
M  V30 20669 O 1907.64 -1.88595 0.337991 0
M  V30 20670 C 1907.84 -0.553392 3.5309 0
M  V30 20671 C 1907.67 0.661066 4.44815 0
M  V30 20672 C 1906.44 1.17428 4.91466 0
M  V30 20673 C 1908.63 1.52741 4.91095 0
M  V30 20674 N 1906.62 2.34837 5.67208 0
M  V30 20675 C 1907.99 2.54812 5.65218 0
M  V30 20676 C 1910.04 1.54985 4.73164 0
M  V30 20677 C 1908.75 3.58988 6.23314 0
M  V30 20678 C 1910.77 2.58056 5.32129 0
M  V30 20679 C 1910.13 3.58851 6.0614 0
M  V30 20680 H 1906.23 -0.0402269 0.780965 0
M  V30 20681 H 1908.82 0.514701 1.87774 0
M  V30 20682 H 1906.99 -1.24926 3.67761 0
M  V30 20683 H 1908.72 -1.12021 3.88887 0
M  V30 20684 H 1905.47 0.738332 4.67809 0
M  V30 20685 H 1905.9 2.94189 6.09739 0
M  V30 20686 H 1910.54 0.78411 4.15465 0
M  V30 20687 H 1908.26 4.36441 6.80106 0
M  V30 20688 H 1911.84 2.60651 5.20146 0
M  V30 20689 H 1910.72 4.37299 6.50953 0
M  V30 20690 N 1908.23 -1.57291 0.0985816 0
M  V30 20691 C 1909.19 -2.1307 -0.844628 0
M  V30 20692 C 1910.19 -1.06076 -1.20849 0
M  V30 20693 O 1911.38 -1.31947 -1.13735 0
M  V30 20694 C 1908.51 -2.65416 -2.13933 0
M  V30 20695 H 1909.71 -2.97729 -0.36023 0
M  V30 20696 H 1907.26 -1.55574 -0.150451 0
M  V30 20697 H 1907.99 -1.84287 -2.6685 0
M  V30 20698 H 1907.78 -3.43647 -1.88811 0
M  V30 20699 H 1909.27 -3.08551 -2.814 0
M  V30 20700 N 1909.71 0.175127 -1.56624 0
M  V30 20701 C 1910.98 0.919424 -1.72644 0
M  V30 20702 C 1911.36 2.00553 -0.658929 0
M  V30 20703 O 1910.71 2.2615 0.326897 0
M  V30 20704 C 1910.92 1.48764 -3.15706 0
M  V30 20705 C 1912.27 1.96204 -3.76549 0
M  V30 20706 O 1913.29 1.58565 -3.1896 0
M  V30 20707 O 1912.15 2.65525 -4.7766 0
M  V30 20708 H 1909.25 0.43251 -0.704886 0
M  V30 20709 H 1911.79 0.163255 -1.68913 0
M  V30 20710 H 1910.56 0.705743 -3.84883 0
M  V30 20711 H 1910.19 2.3081 -3.23748 0
M  V30 20712 N 1911.18 1.5123 0.44355 0
M  V30 20713 C 1912.43 1.6359 1.1935 0
M  V30 20714 C 1912.76 0.349172 1.9134 0
M  V30 20715 O 1912.01 -0.66645 1.84003 0
M  V30 20716 C 1912.31 2.78511 2.23978 0
M  V30 20717 C 1911.98 4.18013 1.69045 0
M  V30 20718 C 1910.64 4.55964 1.53786 0
M  V30 20719 C 1912.99 5.05088 1.28591 0
M  V30 20720 C 1910.32 5.78703 0.965374 0
M  V30 20721 C 1912.67 6.284 0.72774 0
M  V30 20722 C 1911.34 6.6513 0.562001 0
M  V30 20723 H 1910.61 0.59862 0.436733 0
M  V30 20724 H 1913.25 1.85245 0.485449 0
M  V30 20725 H 1911.56 2.51054 3.00798 0
M  V30 20726 H 1913.26 2.85275 2.81814 0
M  V30 20727 H 1909.85 3.88087 1.81896 0
M  V30 20728 H 1914.03 4.76378 1.39202 0
M  V30 20729 H 1909.29 6.05813 0.824671 0
M  V30 20730 H 1913.46 6.95217 0.405735 0
M  V30 20731 H 1911.09 7.60111 0.116266 0
M  V30 20732 N 1912.66 -0.698586 1.41271 0
M  V30 20733 C 1913.59 -1.82505 1.4565 0
M  V30 20734 C 1914.57 -1.67149 0.315497 0
M  V30 20735 O 1915.76 -1.86926 0.526518 0
M  V30 20736 C 1912.89 -3.20616 1.33502 0
M  V30 20737 C 1911.84 -3.50672 2.45383 0
M  V30 20738 C 1911.17 -4.88107 2.18302 0
M  V30 20739 C 1912.47 -3.49952 3.87725 0
M  V30 20740 H 1914.16 -1.79098 2.39926 0
M  V30 20741 H 1911.71 -0.860237 1.15481 0
M  V30 20742 H 1913.66 -3.9913 1.35179 0
M  V30 20743 H 1912.38 -3.24642 0.357101 0
M  V30 20744 H 1911.04 -2.74507 2.42984 0
M  V30 20745 H 1910.69 -4.88755 1.1886 0
M  V30 20746 H 1910.39 -5.09182 2.9327 0
M  V30 20747 H 1911.92 -5.68934 2.21689 0
M  V30 20748 H 1913.33 -4.18476 3.91855 0
M  V30 20749 H 1911.73 -3.82559 4.62351 0
M  V30 20750 H 1912.8 -2.48988 4.16093 0
M  V30 20751 N 1914.14 -1.27049 -0.93254 0
M  V30 20752 C 1915.37 -1.15903 -1.71389 0
M  V30 20753 C 1915.78 0.284726 -1.86641 0
M  V30 20754 O 1915.14 1.19428 -1.37997 0
M  V30 20755 C 1915.19 -1.83254 -3.11609 0
M  V30 20756 O 1914.91 -3.21988 -2.97078 0
M  V30 20757 C 1916.41 -1.78172 -4.05918 0
M  V30 20758 H 1913.63 -0.403197 -0.536352 0
M  V30 20759 H 1916.18 -1.67831 -1.16846 0
M  V30 20760 H 1914.33 -1.35243 -3.63026 0
M  V30 20761 H 1914.75 -3.55447 -3.85691 0
M  V30 20762 H 1916.22 -2.29919 -5.01838 0
M  V30 20763 H 1916.7 -0.750036 -4.32748 0
M  V30 20764 H 1917.3 -2.25774 -3.60425 0
M  V30 20765 N 1915.62 1.13835 -1.08993 0
M  V30 20766 C 1916.55 2.21226 -0.74707 0
M  V30 20767 C 1917.53 1.67891 0.273232 0
M  V30 20768 O 1918.71 1.93678 0.142278 0
M  V30 20769 C 1915.84 3.46922 -0.162028 0
M  V30 20770 C 1914.8 4.1332 -1.11135 0
M  V30 20771 C 1914.12 5.33289 -0.388228 0
M  V30 20772 C 1915.42 4.61169 -2.45195 0
M  V30 20773 H 1917.12 2.50162 -1.64497 0
M  V30 20774 H 1914.66 1.20239 -0.792368 0
M  V30 20775 H 1916.62 4.21304 0.0898753 0
M  V30 20776 H 1915.34 3.17368 0.771036 0
M  V30 20777 H 1914 3.40899 -1.34845 0
M  V30 20778 H 1913.65 4.99997 0.548832 0
M  V30 20779 H 1913.35 5.78659 -1.02115 0
M  V30 20780 H 1914.87 6.10429 -0.144519 0
M  V30 20781 H 1916.29 5.26996 -2.25717 0
M  V30 20782 H 1914.68 5.17263 -3.04235 0
M  V30 20783 H 1915.75 3.75923 -3.06284 0
M  V30 20784 N 1917.1 0.876467 1.3098 0
M  V30 20785 C 1918.34 0.486745 1.95739 0
M  V30 20786 C 1918.66 -0.967265 1.7001 0
M  V30 20787 O 1919.86 -1.46344 2.28683 0
M  V30 20788 C 1918.32 0.819534 3.50445 0
M  V30 20789 C 1917.93 2.29074 3.85005 0
M  V30 20790 C 1919.67 0.498597 4.21562 0
M  V30 20791 C 1917.58 2.5656 5.32851 0
M  V30 20792 H 1916.51 0.178295 0.732616 0
M  V30 20793 H 1919.16 1.07027 1.49055 0
M  V30 20794 H 1917.54 0.165191 3.95655 0
M  V30 20795 H 1918.72 2.98869 3.50733 0
M  V30 20796 H 1917.03 2.57836 3.2697 0
M  V30 20797 H 1919.63 0.6811 5.30344 0
M  V30 20798 H 1919.97 -0.561426 4.12497 0
M  V30 20799 H 1920.5 1.10976 3.82007 0
M  V30 20800 H 1917.24 3.61271 5.46959 0
M  V30 20801 H 1916.76 1.91366 5.68453 0
M  V30 20802 H 1918.44 2.41623 6.00189 0
M  V30 20803 N 1918.57 -1.44173 0.636557 0
M  V30 20804 C 1919.5 -2.33442 -0.0518719 0
M  V30 20805 C 1920.48 -1.48519 -0.829226 0
M  V30 20806 O 1921.67 -1.77225 -0.794028 0
M  V30 20807 C 1918.8 -3.31663 -1.03038 0
M  V30 20808 C 1917.75 -4.26447 -0.364286 0
M  V30 20809 C 1917.08 -5.14577 -1.45308 0
M  V30 20810 C 1918.38 -5.17133 0.732884 0
M  V30 20811 H 1920.07 -2.91255 0.693589 0
M  V30 20812 H 1917.62 -1.40049 0.33499 0
M  V30 20813 H 1919.57 -3.93002 -1.52077 0
M  V30 20814 H 1918.3 -2.72071 -1.80679 0
M  V30 20815 H 1916.96 -3.66448 0.105505 0
M  V30 20816 H 1916.6 -4.51334 -2.22051 0
M  V30 20817 H 1916.3 -5.78807 -1.01274 0
M  V30 20818 H 1917.83 -5.78788 -1.94517 0
M  V30 20819 H 1919.24 -5.72376 0.325363 0
M  V30 20820 H 1917.64 -5.89994 1.09669 0
M  V30 20821 H 1918.71 -4.5782 1.59779 0
M  V30 20822 N 1920.05 -0.377435 -1.53014 0
M  V30 20823 C 1921.3 0.209712 -2.00607 0
M  V30 20824 C 1921.61 1.48891 -1.2685 0
M  V30 20825 O 1922.82 2.15538 -1.65093 0
M  V30 20826 C 1921.28 0.424271 -3.5739 0
M  V30 20827 C 1920.88 -0.840982 -4.40036 0
M  V30 20828 C 1922.63 0.968428 -4.13306 0
M  V30 20829 C 1920.53 -0.595355 -5.88396 0
M  V30 20830 H 1919.46 0.0821436 -0.749512 0
M  V30 20831 H 1922.12 -0.498005 -1.76613 0
M  V30 20832 H 1920.5 1.19354 -3.77585 0
M  V30 20833 H 1921.67 -1.61396 -4.31611 0
M  V30 20834 H 1919.99 -1.30922 -3.95283 0
M  V30 20835 H 1922.58 1.16771 -5.21794 0
M  V30 20836 H 1922.93 1.93405 -3.68647 0
M  V30 20837 H 1923.46 0.259025 -3.96956 0
M  V30 20838 H 1920.2 -1.53164 -6.37355 0
M  V30 20839 H 1919.72 0.138904 -5.99639 0
M  V30 20840 H 1921.4 -0.225366 -6.46607 0
M  V30 20841 N 1921.53 1.57237 -0.106922 0
M  V30 20842 C 1922.46 2.1769 0.844599 0
M  V30 20843 C 1923.44 1.11352 1.28587 0
M  V30 20844 O 1924.63 1.39539 1.35065 0
M  V30 20845 C 1921.76 2.76668 2.09933 0
M  V30 20846 C 1920.71 3.88482 1.79627 0
M  V30 20847 C 1920.04 4.34214 3.12029 0
M  V30 20848 C 1921.34 5.11139 1.07399 0
M  V30 20849 H 1923.03 2.97453 0.340887 0
M  V30 20850 H 1920.58 1.4308 0.162523 0
M  V30 20851 H 1922.53 3.17614 2.76946 0
M  V30 20852 H 1921.25 1.94176 2.62608 0
M  V30 20853 H 1919.91 3.48093 1.15008 0
M  V30 20854 H 1919.56 3.48597 3.62614 0
M  V30 20855 H 1919.26 5.09608 2.9253 0
M  V30 20856 H 1920.78 4.77803 3.8018 0
M  V30 20857 H 1922.2 5.4918 1.64543 0
M  V30 20858 H 1920.6 5.92038 0.980375 0
M  V30 20859 H 1921.67 4.84864 0.0586914 0
M  V30 20860 N 1923.01 -0.166818 1.56715 0
M  V30 20861 C 1924.42 -0.728845 1.71886 0
M  V30 20862 C 1924.77 -1.82584 0.718168 0
M  V30 20863 O 1923.9 -2.1607 -0.119503 0
M  V30 20864 C 1924.49 -1.32885 3.11652 0
M  V30 20865 C 1923.05 -1.83766 3.28492 0
M  V30 20866 C 1922.2 -0.718371 2.67833 0
M  V30 20867 H 1925.15 0.0586298 1.58592 0
M  V30 20868 H 1925.17 -2.19858 3.10552 0
M  V30 20869 H 1924.68 -0.530219 3.84461 0
M  V30 20870 H 1922.78 -2.66259 2.60647 0
M  V30 20871 H 1922.89 -1.98 4.36271 0
M  V30 20872 H 1921.26 -1.13996 2.27765 0
M  V30 20873 H 1922.04 0.0684914 3.43232 0
M  V30 20874 N 1924.49 -1.51463 -0.435524 0
M  V30 20875 C 1925.71 -1.68031 -1.20719 0
M  V30 20876 C 1926.13 -0.378427 -1.84969 0
M  V30 20877 O 1925.49 0.643234 -1.70789 0
M  V30 20878 C 1925.54 -2.79726 -2.28989 0
M  V30 20879 O 1925.26 -4.0487 -1.67367 0
M  V30 20880 C 1926.76 -3.07578 -3.19234 0
M  V30 20881 H 1923.98 -0.56383 -0.363781 0
M  V30 20882 H 1926.52 -1.97888 -0.515825 0
M  V30 20883 H 1924.68 -2.52463 -2.93839 0
M  V30 20884 H 1925.09 -4.66915 -2.38937 0
M  V30 20885 H 1926.57 -3.89309 -3.91334 0
M  V30 20886 H 1927.04 -2.20059 -3.80093 0
M  V30 20887 H 1927.65 -3.36507 -2.60083 0
M  V30 20888 N 1925.96 0.691085 -1.4164 0
M  V30 20889 C 1927.19 1.47764 -1.44393 0
M  V30 20890 C 1927.6 1.89137 -0.0489239 0
M  V30 20891 O 1926.95 1.57642 0.943111 0
M  V30 20892 C 1927.01 2.76837 -2.29351 0
M  V30 20893 C 1926.67 2.5764 -3.77453 0
M  V30 20894 C 1927.67 2.23295 -4.69505 0
M  V30 20895 C 1925.35 2.73141 -4.21544 0
M  V30 20896 C 1927.35 2.04696 -6.03638 0
M  V30 20897 C 1925.03 2.54158 -5.5574 0
M  V30 20898 C 1926.03 2.19987 -6.46603 0
M  V30 20899 O 1925.72 2.01173 -7.78322 0
M  V30 20900 H 1925.45 0.461744 -0.493729 0
M  V30 20901 H 1928.01 0.857998 -1.86621 0
M  V30 20902 H 1926.24 3.41223 -1.81944 0
M  V30 20903 H 1927.93 3.38659 -2.23752 0
M  V30 20904 H 1928.69 2.1093 -4.36731 0
M  V30 20905 H 1924.57 2.98721 -3.51122 0
M  V30 20906 H 1928.11 1.77947 -6.74523 0
M  V30 20907 H 1924.01 2.66115 -5.88093 0
M  V30 20908 H 1924.78 2.15901 -7.89512 0
M  V30 20909 N 1927.44 1.27542 0.925789 0
M  V30 20910 C 1928.35 1.1225 2.06002 0
M  V30 20911 C 1929.37 0.0520487 1.73922 0
M  V30 20912 O 1930.54 0.258921 1.99729 0
M  V30 20913 C 1927.61 0.773231 3.37967 0
M  V30 20914 C 1926.67 1.92476 3.83733 0
M  V30 20915 C 1925.9 1.59206 5.09401 0
M  V30 20916 O 1926.13 0.500836 5.68197 0
M  V30 20917 O 1925.06 2.43185 5.50586 0
M  V30 20918 H 1928.89 2.07439 2.21817 0
M  V30 20919 H 1926.47 1.06747 1.04525 0
M  V30 20920 H 1928.35 0.591863 4.17223 0
M  V30 20921 H 1927.03 -0.149116 3.23356 0
M  V30 20922 H 1925.94 2.1612 3.05357 0
M  V30 20923 H 1927.27 2.82738 4.02889 0
M  V30 20924 N 1928.92 -1.13255 1.09595 0
M  V30 20925 C 1929.85 -2.20827 0.758791 0
M  V30 20926 C 1930.83 -1.68034 -0.264325 0
M  V30 20927 O 1932.02 -1.93751 -0.132005 0
M  V30 20928 C 1929.15 -3.46831 0.180424 0
M  V30 20929 C 1928.1 -4.12724 1.13325 0
M  V30 20930 C 1927.43 -5.33075 0.416504 0
M  V30 20931 C 1928.73 -4.59862 2.47637 0
M  V30 20932 H 1930.42 -2.49287 1.65821 0
M  V30 20933 H 1927.97 -1.19818 0.798734 0
M  V30 20934 H 1929.92 -4.21346 -0.0675313 0
M  V30 20935 H 1928.64 -3.17773 -0.754194 0
M  V30 20936 H 1927.3 -3.40179 1.36651 0
M  V30 20937 H 1926.95 -5.00281 -0.522308 0
M  V30 20938 H 1926.65 -5.78109 1.05183 0
M  V30 20939 H 1928.17 -6.10344 0.17689 0
M  V30 20940 H 1929.59 -5.25791 2.28509 0
M  V30 20941 H 1927.99 -5.15642 3.06974 0
M  V30 20942 H 1929.06 -3.74294 3.08273 0
M  V30 20943 N 1930.4 -0.883401 -1.30514 0
M  V30 20944 C 1931.64 -0.501795 -1.96494 0
M  V30 20945 C 1931.98 0.946294 -1.69585 0
M  V30 20946 O 1931.25 1.66842 -0.999705 0
M  V30 20947 C 1931.54 -0.775405 -3.51653 0
M  V30 20948 C 1931.39 -2.27401 -3.88084 0
M  V30 20949 C 1932.71 -0.250854 -4.39384 0
M  V30 20950 H 1929.83 -0.183786 -0.713717 0
M  V30 20951 H 1932.47 -1.1071 -1.54412 0
M  V30 20952 H 1930.62 -0.260217 -3.87628 0
M  V30 20953 H 1932.29 -2.85748 -3.62141 0
M  V30 20954 H 1930.53 -2.74128 -3.36209 0
M  V30 20955 H 1931.2 -2.41606 -4.96317 0
M  V30 20956 H 1933.68 -0.691785 -4.10309 0
M  V30 20957 H 1932.56 -0.471637 -5.4687 0
M  V30 20958 H 1932.82 0.847835 -4.33894 0
M  V30 20959 N 1931.88 1.43833 -0.644194 0
M  V30 20960 C 1932.82 2.30739 0.0528797 0
M  V30 20961 C 1933.79 1.44234 0.823751 0
M  V30 20962 O 1934.98 1.73118 0.802171 0
M  V30 20963 C 1932.12 3.29695 1.01956 0
M  V30 20964 C 1931.23 4.31301 0.245734 0
M  V30 20965 C 1930.37 5.17343 1.2054 0
M  V30 20966 C 1929.41 6.10647 0.421486 0
M  V30 20967 N 1928.54 6.89344 1.33228 0
M  V30 20968 H 1933.38 2.89803 -0.694123 0
M  V30 20969 H 1930.92 1.42775 -0.354069 0
M  V30 20970 H 1932.88 3.85568 1.59353 0
M  V30 20971 H 1931.51 2.72302 1.73354 0
M  V30 20972 H 1930.56 3.77795 -0.44438 0
M  V30 20973 H 1931.87 4.97468 -0.364231 0
M  V30 20974 H 1931.03 5.77797 1.85029 0
M  V30 20975 H 1929.76 4.51279 1.84928 0
M  V30 20976 H 1928.77 5.4929 -0.236816 0
M  V30 20977 H 1929.99 6.7875 -0.217862 0
M  V30 20978 H 1927.94 6.25937 1.96312 0
M  V30 20979 H 1927.86 7.52 0.776653 0
M  V30 20980 H 1929.13 7.54311 1.9656 0
M  V30 20981 N 1933.35 0.385544 1.52811 0
M  V30 20982 C 1934.28 -0.442951 2.2926 0
M  V30 20983 C 1935.27 -1.06674 1.32494 0
M  V30 20984 O 1936.45 -1.08022 1.61384 0
M  V30 20985 C 1933.58 -1.57243 3.09664 0
M  V30 20986 C 1932.53 -1.07488 4.14283 0
M  V30 20987 C 1931.86 -2.29614 4.82889 0
M  V30 20988 C 1933.16 -0.145479 5.22097 0
M  V30 20989 H 1934.85 0.1949 2.98765 0
M  V30 20990 H 1932.4 0.0951762 1.43685 0
M  V30 20991 H 1934.35 -2.15882 3.61902 0
M  V30 20992 H 1933.08 -2.23781 2.37885 0
M  V30 20993 H 1931.74 -0.511047 3.6302 0
M  V30 20994 H 1931.38 -2.94653 4.07662 0
M  V30 20995 H 1931.08 -1.96985 5.53598 0
M  V30 20996 H 1932.61 -2.88902 5.37929 0
M  V30 20997 H 1934.02 -0.639941 5.69717 0
M  V30 20998 H 1932.42 0.0908687 6.00031 0
M  V30 20999 H 1933.49 0.806707 4.78142 0
M  V30 21000 N 1934.83 -1.57178 0.115259 0
M  V30 21001 C 1936.06 -1.99126 -0.550671 0
M  V30 21002 C 1936.47 -0.993751 -1.61001 0
M  V30 21003 O 1935.81 0.0220518 -1.83687 0
M  V30 21004 C 1935.88 -3.37482 -1.2388 0
M  V30 21005 C 1935.54 -4.55823 -0.327848 0
M  V30 21006 C 1936.54 -5.18102 0.432054 0
M  V30 21007 C 1934.22 -5.01726 -0.240012 0
M  V30 21008 C 1936.22 -6.24669 1.26756 0
M  V30 21009 C 1933.9 -6.08156 0.599131 0
M  V30 21010 C 1934.9 -6.69494 1.35155 0
M  V30 21011 O 1934.59 -7.73868 2.17677 0
M  V30 21012 H 1934.32 -0.658991 -0.150689 0
M  V30 21013 H 1936.87 -2.0445 0.197288 0
M  V30 21014 H 1935.1 -3.28901 -2.03375 0
M  V30 21015 H 1936.79 -3.63744 -1.80126 0
M  V30 21016 H 1937.56 -4.83555 0.374044 0
M  V30 21017 H 1933.44 -4.53732 -0.81535 0
M  V30 21018 H 1936.98 -6.72475 1.85533 0
M  V30 21019 H 1932.88 -6.42132 0.658548 0
M  V30 21020 H 1933.65 -7.90948 2.10578 0
M  V30 21021 N 1936.31 0.158505 -1.56801 0
M  V30 21022 C 1937.54 0.886984 -1.86591 0
M  V30 21023 C 1937.95 1.7577 -0.700115 0
M  V30 21024 O 1937.29 1.80533 0.339622 0
M  V30 21025 C 1937.35 1.80418 -3.1095 0
M  V30 21026 C 1937.02 1.11178 -4.4327 0
M  V30 21027 C 1938.02 0.471134 -5.17761 0
M  V30 21028 C 1935.7 1.10472 -4.90001 0
M  V30 21029 C 1937.69 -0.167333 -6.3718 0
M  V30 21030 C 1935.38 0.462432 -6.09348 0
M  V30 21031 C 1936.38 -0.172477 -6.82782 0
M  V30 21032 O 1936.07 -0.804604 -7.99863 0
M  V30 21033 H 1935.8 0.262465 -0.622967 0
M  V30 21034 H 1938.35 0.159526 -2.0478 0
M  V30 21035 H 1936.58 2.57228 -2.8874 0
M  V30 21036 H 1938.27 2.4036 -3.27081 0
M  V30 21037 H 1939.04 0.468479 -4.82732 0
M  V30 21038 H 1934.92 1.58831 -4.32774 0
M  V30 21039 H 1938.46 -0.663498 -6.94438 0
M  V30 21040 H 1934.36 0.462714 -6.43839 0
M  V30 21041 H 1935.13 -0.705126 -8.15457 0
M  V30 21042 N 1937.79 1.51692 0.427485 0
M  V30 21043 C 1938.72 1.76668 1.52679 0
M  V30 21044 C 1939.7 0.616865 1.58521 0
M  V30 21045 O 1940.89 0.860595 1.7409 0
M  V30 21046 C 1938.02 1.9007 2.90673 0
M  V30 21047 C 1936.97 3.05566 2.99689 0
M  V30 21048 C 1936.3 3.04165 4.39759 0
M  V30 21049 C 1937.6 4.45359 2.72861 0
M  V30 21050 H 1939.29 2.68717 1.32029 0
M  V30 21051 H 1936.84 1.29306 0.633716 0
M  V30 21052 H 1938.79 2.06125 3.67546 0
M  V30 21053 H 1937.51 0.946769 3.12576 0
M  V30 21054 H 1936.17 2.89231 2.25257 0
M  V30 21055 H 1935.82 2.0653 4.58644 0
M  V30 21056 H 1935.52 3.81727 4.46719 0
M  V30 21057 H 1937.04 3.22326 5.18592 0
M  V30 21058 H 1938.46 4.61993 3.39463 0
M  V30 21059 H 1936.85 5.24701 2.91219 0
M  V30 21060 H 1937.92 4.54717 1.68405 0
M  V30 21061 N 1939.27 -0.683564 1.42004 0
M  V30 21062 C 1940.21 -1.7973 1.44796 0
M  V30 21063 C 1941.18 -1.63352 0.300905 0
M  V30 21064 O 1942.37 -1.84031 0.503707 0
M  V30 21065 C 1939.51 -3.17701 1.34758 0
M  V30 21066 C 1938.62 -3.45428 2.59429 0
M  V30 21067 C 1937.76 -4.73079 2.41598 0
M  V30 21068 C 1936.8 -4.93812 3.61685 0
M  V30 21069 N 1935.93 -6.12698 3.4285 0
M  V30 21070 H 1940.77 -1.76679 2.39976 0
M  V30 21071 H 1938.31 -0.862624 1.19152 0
M  V30 21072 H 1940.27 -3.9742 1.26938 0
M  V30 21073 H 1938.9 -3.19899 0.431785 0
M  V30 21074 H 1937.95 -2.60027 2.77651 0
M  V30 21075 H 1939.26 -3.56645 3.48721 0
M  V30 21076 H 1938.42 -5.60873 2.31314 0
M  V30 21077 H 1937.16 -4.6413 1.49782 0
M  V30 21078 H 1936.16 -4.04463 3.72411 0
M  V30 21079 H 1937.39 -5.04612 4.5447 0
M  V30 21080 H 1935.33 -6.04938 2.53744 0
M  V30 21081 H 1935.25 -6.24736 4.25724 0
M  V30 21082 H 1936.52 -7.03194 3.36361 0
M  V30 21083 N 1940.75 -1.28031 -0.919012 0
M  V30 21084 C 1941.97 -1.17714 -1.7015 0
M  V30 21085 C 1942.39 0.264914 -1.86932 0
M  V30 21086 O 1941.75 1.17957 -1.39256 0
M  V30 21087 C 1941.8 -1.86548 -3.09648 0
M  V30 21088 O 1941.52 -3.25121 -2.93646 0
M  V30 21089 C 1943.02 -1.82467 -4.04006 0
M  V30 21090 H 1940.24 -0.408863 -0.532045 0
M  V30 21091 H 1942.78 -1.69061 -1.1506 0
M  V30 21092 H 1940.94 -1.39085 -3.61572 0
M  V30 21093 H 1941.35 -3.59518 -3.81899 0
M  V30 21094 H 1942.83 -2.35229 -4.99371 0
M  V30 21095 H 1943.3 -0.795892 -4.31928 0
M  V30 21096 H 1943.91 -2.29585 -3.5801 0
M  V30 21097 N 1942.22 1.12672 -1.10194 0
M  V30 21098 C 1943.47 1.84399 -0.844081 0
M  V30 21099 C 1943.8 1.83739 0.628782 0
M  V30 21100 O 1943.08 1.28115 1.46345 0
M  V30 21101 C 1943.36 3.32194 -1.38994 0
M  V30 21102 C 1943.21 3.41323 -2.92948 0
M  V30 21103 C 1944.53 4.27872 -1.03021 0
M  V30 21104 H 1941.65 0.669515 -0.308089 0
M  V30 21105 H 1944.29 1.322 -1.36467 0
M  V30 21106 H 1942.44 3.76778 -0.947144 0
M  V30 21107 H 1944.12 3.05393 -3.45735 0
M  V30 21108 H 1942.36 2.81948 -3.29678 0
M  V30 21109 H 1943.03 4.45289 -3.26223 0
M  V30 21110 H 1945.51 3.91401 -1.41224 0
M  V30 21111 H 1944.38 5.29699 -1.43909 0
M  V30 21112 H 1944.64 4.42058 0.0606669 0
M  V30 21113 N 1943.7 0.89031 1.30043 0
M  V30 21114 C 1945.12 0.585066 1.4849 0
M  V30 21115 C 1945.32 -0.87585 1.81469 0
M  V30 21116 O 1944.37 -1.6567 1.90551 0
M  V30 21117 C 1945.69 1.50281 2.60454 0
M  V30 21118 C 1947.23 1.50701 2.74332 0
M  V30 21119 C 1947.71 2.41081 3.89415 0
M  V30 21120 N 1949.2 2.39074 3.96734 0
M  V30 21121 C 1949.94 3.05715 4.85104 0
M  V30 21122 N 1949.43 3.81601 5.78232 0
M  V30 21123 N 1951.22 2.9492 4.78517 0
M  V30 21124 H 1943.38 1.83532 1.0691 0
M  V30 21125 H 1945.64 0.785901 0.530155 0
M  V30 21126 H 1945.34 2.54327 2.42921 0
M  V30 21127 H 1945.22 1.21634 3.5705 0
M  V30 21128 H 1947.61 0.474032 2.91268 0
M  V30 21129 H 1947.69 1.83381 1.7834 0
M  V30 21130 H 1947.33 3.44466 3.73236 0
M  V30 21131 H 1947.26 2.05714 4.84757 0
M  V30 21132 H 1949.75 1.83932 3.30117 0
M  V30 21133 H 1950.06 4.29528 6.42437 0
M  V30 21134 H 1948.41 3.85708 5.78147 0
M  V30 21135 H 1951.6 2.35158 4.04745 0
M  V30 21136 H 1951.77 3.47132 5.47178 0
M  V30 21137 N 1945.18 -1.43489 0.651812 0
M  V30 21138 C 1946.41 -2.06181 0.172334 0
M  V30 21139 C 1946.82 -1.48848 -1.16145 0
M  V30 21140 O 1946.18 -0.619246 -1.71673 0
M  V30 21141 C 1946.23 -3.61425 0.0737039 0
M  V30 21142 O 1945.95 -4.16627 1.35476 0
M  V30 21143 C 1947.45 -4.4119 -0.432019 0
M  V30 21144 H 1944.67 -0.665039 0.0892394 0
M  V30 21145 H 1947.22 -1.84018 0.892063 0
M  V30 21146 H 1945.37 -3.82779 -0.596577 0
M  V30 21147 H 1945.79 -5.1028 1.21305 0
M  V30 21148 H 1947.26 -5.50163 -0.449989 0
M  V30 21149 H 1947.74 -4.14115 -1.46306 0
M  V30 21150 H 1948.34 -4.24802 0.205721 0
M  V30 21151 N 1946.66 -0.393643 -1.52605 0
M  V30 21152 C 1947.93 0.244939 -1.9406 0
M  V30 21153 C 1948.31 1.63981 -1.32942 0
M  V30 21154 O 1947.66 2.2298 -0.499195 0
M  V30 21155 C 1947.87 0.266912 -3.47978 0
M  V30 21156 C 1949.22 0.493768 -4.21719 0
M  V30 21157 O 1950.24 0.346936 -3.54506 0
M  V30 21158 O 1949.1 0.78183 -5.40879 0
M  V30 21159 H 1946.2 0.153387 -0.812651 0
M  V30 21160 H 1948.74 -0.448465 -1.63667 0
M  V30 21161 H 1947.52 -0.709958 -3.84806 0
M  V30 21162 H 1947.14 1.00506 -3.84687 0
M  V30 21163 N 1948.14 1.57115 -0.123593 0
M  V30 21164 C 1949.36 1.99705 0.540887 0
M  V30 21165 C 1949.78 1.00336 1.59932 0
M  V30 21166 O 1949.14 -0.00310477 1.825 0
M  V30 21167 C 1949.19 3.42286 1.16285 0
M  V30 21168 O 1948.91 4.37854 0.146725 0
M  V30 21169 C 1950.41 4.00032 1.91021 0
M  V30 21170 H 1947.63 0.655623 0.142827 0
M  V30 21171 H 1950.17 2.03406 -0.211285 0
M  V30 21172 H 1948.33 3.39511 1.86578 0
M  V30 21173 H 1948.74 5.21066 0.599228 0
M  V30 21174 H 1950.22 5.01865 2.29861 0
M  V30 21175 H 1950.69 3.3943 2.78719 0
M  V30 21176 H 1951.3 4.06368 1.25481 0
M  V30 21177 N 1949.61 -0.150187 1.56883 0
M  V30 21178 C 1950.52 -1.20504 2.01286 0
M  V30 21179 C 1951.54 -1.47204 0.927733 0
M  V30 21180 O 1952.72 -1.58937 1.23697 0
M  V30 21181 C 1949.78 -2.51932 2.38184 0
M  V30 21182 C 1948.84 -2.32906 3.60629 0
M  V30 21183 C 1948.07 -3.58067 3.95757 0
M  V30 21184 O 1948.3 -4.64119 3.31587 0
M  V30 21185 O 1947.23 -3.5092 4.89018 0
M  V30 21186 H 1951.06 -0.858075 2.91326 0
M  V30 21187 H 1948.64 -0.358669 1.45031 0
M  V30 21188 H 1950.52 -3.29423 2.6279 0
M  V30 21189 H 1949.2 -2.86165 1.513 0
M  V30 21190 H 1948.11 -1.53377 3.41213 0
M  V30 21191 H 1949.44 -2.0359 4.4812 0
M  V30 21192 N 1951.09 -1.51916 -0.419434 0
M  V30 21193 C 1952.51 -1.4049 -0.757287 0
M  V30 21194 C 1952.71 -0.501274 -1.95165 0
M  V30 21195 O 1951.76 0.0368349 -2.52473 0
M  V30 21196 C 1953.08 -2.8284 -1.02088 0
M  V30 21197 C 1954.63 -2.92113 -1.12422 0
M  V30 21198 C 1955.1 -4.3541 -1.42064 0
M  V30 21199 N 1956.59 -4.38598 -1.4895 0
M  V30 21200 C 1957.33 -5.46524 -1.73492 0
M  V30 21201 N 1956.82 -6.64583 -1.95706 0
M  V30 21202 N 1958.62 -5.34026 -1.75422 0
M  V30 21203 H 1950.77 -2.09207 0.366909 0
M  V30 21204 H 1953.03 -0.942516 0.101822 0
M  V30 21205 H 1952.74 -3.51038 -0.215755 0
M  V30 21206 H 1952.61 -3.23259 -1.9438 0
M  V30 21207 H 1955 -2.24103 -1.91994 0
M  V30 21208 H 1955.08 -2.55167 -0.179896 0
M  V30 21209 H 1954.72 -5.03976 -0.630123 0
M  V30 21210 H 1954.65 -4.69884 -2.37731 0
M  V30 21211 H 1957.14 -3.53491 -1.33614 0
M  V30 21212 H 1957.46 -7.42621 -2.13854 0
M  V30 21213 H 1955.8 -6.67667 -1.92992 0
M  V30 21214 H 1958.99 -4.40773 -1.57598 0
M  V30 21215 H 1959.16 -6.18212 -1.9421 0
M  V30 21216 N 1952.57 0.676023 -1.42365 0
M  V30 21217 C 1953.8 1.46937 -1.46371 0
M  V30 21218 C 1954.22 1.87946 -0.076099 0
M  V30 21219 O 1953.58 1.55917 0.925172 0
M  V30 21220 C 1953.63 2.69558 -2.39523 0
M  V30 21221 O 1952.73 3.67782 -1.86575 0
M  V30 21222 H 1952.07 0.441478 -0.495977 0
M  V30 21223 H 1954.6 0.829284 -1.8704 0
M  V30 21224 H 1954.61 3.17642 -2.56061 0
M  V30 21225 H 1953.29 2.39049 -3.40336 0
M  V30 21226 H 1951.86 3.26808 -1.79585 0
M  V30 21227 N 1954.05 1.28517 0.912209 0
M  V30 21228 C 1955.29 1.16942 1.66422 0
M  V30 21229 C 1955.65 -0.278909 1.90368 0
M  V30 21230 O 1954.94 -1.19951 1.49407 0
M  V30 21231 C 1955.14 1.90307 3.02519 0
M  V30 21232 C 1954.97 3.42126 2.91856 0
M  V30 21233 C 1953.74 4.11466 2.93298 0
M  V30 21234 C 1955.93 4.37841 2.69814 0
M  V30 21235 N 1953.92 5.49739 2.73239 0
M  V30 21236 C 1955.29 5.63488 2.58613 0
M  V30 21237 C 1957.34 4.2775 2.54822 0
M  V30 21238 C 1956.04 6.80191 2.3395 0
M  V30 21239 C 1958.07 5.44191 2.31539 0
M  V30 21240 C 1957.43 6.68803 2.21094 0
M  V30 21241 H 1953.53 0.482863 0.615116 0
M  V30 21242 H 1956.12 1.62187 1.0772 0
M  V30 21243 H 1954.29 1.47494 3.59305 0
M  V30 21244 H 1956.02 1.71104 3.6675 0
M  V30 21245 H 1952.77 3.6306 3.04112 0
M  V30 21246 H 1953.2 6.22426 2.66298 0
M  V30 21247 H 1957.84 3.32115 2.61648 0
M  V30 21248 H 1955.56 7.75894 2.25863 0
M  V30 21249 H 1959.14 5.38273 2.20802 0
M  V30 21250 H 1958.02 7.57383 2.03324 0
M  V30 21251 N 1955.53 -1.12086 1.1079 0
M  V30 21252 C 1956.46 -2.2001 0.78217 0
M  V30 21253 C 1957.44 -1.68305 -0.246488 0
M  V30 21254 O 1958.62 -1.9388 -0.111448 0
M  V30 21255 C 1955.75 -3.4662 0.2172 0
M  V30 21256 C 1954.71 -4.11499 1.17696 0
M  V30 21257 C 1954.03 -5.32604 0.47302 0
M  V30 21258 C 1955.33 -4.5721 2.52501 0
M  V30 21259 H 1957.03 -2.47514 1.68456 0
M  V30 21260 H 1954.57 -1.18964 0.811397 0
M  V30 21261 H 1956.53 -4.21394 -0.0228381 0
M  V30 21262 H 1955.25 -3.18555 -0.720448 0
M  V30 21263 H 1953.91 -3.38711 1.40252 0
M  V30 21264 H 1953.56 -5.00807 -0.469217 0
M  V30 21265 H 1953.26 -5.76961 1.11308 0
M  V30 21266 H 1954.78 -6.10122 0.241615 0
M  V30 21267 H 1956.19 -5.23338 2.34073 0
M  V30 21268 H 1954.59 -5.12357 3.12426 0
M  V30 21269 H 1955.66 -3.71003 3.12226 0
M  V30 21270 N 1957 -0.897194 -1.29569 0
M  V30 21271 C 1958.25 -0.520803 -1.95274 0
M  V30 21272 C 1958.57 0.935501 -1.71095 0
M  V30 21273 O 1957.84 1.65932 -1.04131 0
M  V30 21274 H 1956.42 -0.18961 -0.722535 0
M  V30 21275 H 1959.09 -1.14294 -1.5787 0
M  V30 21276 H 1958.18 -0.701293 -3.04119 0
M  V30 21277 N 1958.48 1.43142 -0.659413 0
M  V30 21278 C 1959.73 2.01341 -0.174987 0
M  V30 21279 C 1960.05 1.52322 1.21749 0
M  V30 21280 O 1959.32 0.738424 1.8145 0
M  V30 21281 H 1957.9 0.744447 -0.0617013 0
M  V30 21282 H 1960.56 1.75268 -0.852471 0
M  V30 21283 H 1959.66 3.11667 -0.164379 0
M  V30 21284 N 1959.96 0.40173 1.52394 0
M  V30 21285 C 1961.21 -0.177771 2.00915 0
M  V30 21286 C 1961.52 -1.46854 1.29203 0
M  V30 21287 O 1962.73 -2.12884 1.68501 0
M  V30 21288 C 1961.18 -0.367359 3.5802 0
M  V30 21289 C 1960.79 0.910882 4.38642 0
M  V30 21290 C 1962.54 -0.902552 4.14794 0
M  V30 21291 C 1960.44 0.688888 5.87374 0
M  V30 21292 H 1959.37 -0.0702091 0.750724 0
M  V30 21293 H 1962.02 0.52604 1.75798 0
M  V30 21294 H 1960.41 -1.13332 3.79436 0
M  V30 21295 H 1961.58 1.68242 4.28989 0
M  V30 21296 H 1959.9 1.37194 3.9315 0
M  V30 21297 H 1962.49 -1.08455 5.23585 0
M  V30 21298 H 1962.84 -1.87515 3.71677 0
M  V30 21299 H 1963.37 -0.19584 3.97318 0
M  V30 21300 H 1960.11 1.63284 6.34837 0
M  V30 21301 H 1959.63 -0.0434889 5.99784 0
M  V30 21302 H 1961.31 0.328207 6.46167 0
M  V30 21303 N 1961.44 -1.57047 0.131923 0
M  V30 21304 C 1962.72 -1.87196 -0.567179 0
M  V30 21305 C 1963.1 -1.03533 -1.83968 0
M  V30 21306 O 1962.44 -0.117858 -2.28196 0
M  V30 21307 C 1962.65 -3.38561 -0.847179 0
M  V30 21308 C 1964 -4.07449 -1.19459 0
M  V30 21309 O 1965.03 -3.43654 -0.937026 0
M  V30 21310 O 1963.88 -5.20083 -1.67856 0
M  V30 21311 H 1960.98 -0.775378 -0.287608 0
M  V30 21312 H 1963.52 -1.68872 0.167401 0
M  V30 21313 H 1962.3 -3.91263 0.05402 0
M  V30 21314 H 1961.92 -3.62361 -1.63647 0
M  V30 21315 N 1962.92 0.141865 -1.5696 0
M  V30 21316 C 1964.15 0.867144 -1.87521 0
M  V30 21317 C 1964.55 1.75017 -0.718719 0
M  V30 21318 O 1963.9 1.80883 0.320455 0
M  V30 21319 C 1963.96 1.77109 -3.12846 0
M  V30 21320 C 1963.62 1.06471 -4.44424 0
M  V30 21321 C 1964.62 0.416192 -5.18231 0
M  V30 21322 C 1962.31 1.05268 -4.91145 0
M  V30 21323 C 1964.3 -0.234905 -6.36967 0
M  V30 21324 C 1961.99 0.397777 -6.09804 0
M  V30 21325 C 1962.98 -0.244885 -6.82561 0
M  V30 21326 O 1962.67 -0.889395 -7.98965 0
M  V30 21327 H 1962.4 0.255843 -0.625716 0
M  V30 21328 H 1964.96 0.137798 -2.04937 0
M  V30 21329 H 1963.19 2.54151 -2.91452 0
M  V30 21330 H 1964.88 2.36878 -3.29612 0
M  V30 21331 H 1965.64 0.417253 -4.83202 0
M  V30 21332 H 1961.52 1.54232 -4.34435 0
M  V30 21333 H 1965.07 -0.737115 -6.93695 0
M  V30 21334 H 1960.96 0.3944 -6.44294 0
M  V30 21335 H 1961.73 -0.791577 -8.14663 0
M  V30 21336 N 1964.39 1.52136 0.411372 0
M  V30 21337 C 1965.62 1.6993 1.18031 0
M  V30 21338 C 1966.04 0.407806 1.84343 0
M  V30 21339 O 1965.39 -0.615981 1.7179 0
M  V30 21340 C 1965.45 2.83333 2.2451 0
M  V30 21341 O 1965.17 4.07482 1.60905 0
M  V30 21342 C 1966.67 3.12618 3.143 0
M  V30 21343 H 1963.89 0.569546 0.354765 0
M  V30 21344 H 1966.43 1.98683 0.484277 0
M  V30 21345 H 1964.59 2.57106 2.89785 0
M  V30 21346 H 1965 4.70657 2.31478 0
M  V30 21347 H 1966.47 3.95486 3.85091 0
M  V30 21348 H 1966.95 2.26078 3.76544 0
M  V30 21349 H 1967.56 3.40602 2.54697 0
M  V30 21350 N 1965.87 -0.668464 1.42721 0
M  V30 21351 C 1967.29 -0.982344 1.25786 0
M  V30 21352 C 1967.49 -2.0081 0.166593 0
M  V30 21353 O 1966.55 -2.48273 -0.460069 0
M  V30 21354 C 1967.86 -1.48112 2.61693 0
M  V30 21355 C 1969.41 -1.59856 2.691 0
M  V30 21356 C 1969.88 -2.13128 4.05389 0
M  V30 21357 N 1971.37 -2.20452 4.07376 0
M  V30 21358 C 1972.11 -2.62761 5.09651 0
M  V30 21359 N 1971.6 -3.04475 6.22308 0
M  V30 21360 N 1973.4 -2.62565 4.97007 0
M  V30 21361 H 1965.55 0.0105662 2.12397 0
M  V30 21362 H 1967.81 -0.0578161 0.946235 0
M  V30 21363 H 1967.52 -0.801884 3.42436 0
M  V30 21364 H 1967.39 -2.45879 2.86048 0
M  V30 21365 H 1969.78 -2.26885 1.88699 0
M  V30 21366 H 1969.86 -0.605621 2.48527 0
M  V30 21367 H 1969.5 -1.46707 4.8625 0
M  V30 21368 H 1969.43 -3.13225 4.23317 0
M  V30 21369 H 1971.92 -1.91049 3.2605 0
M  V30 21370 H 1972.24 -3.35463 6.96193 0
M  V30 21371 H 1970.58 -3.02317 6.25803 0
M  V30 21372 H 1973.77 -2.29343 4.08068 0
M  V30 21373 H 1973.95 -2.95217 5.76846 0
M  V30 21374 N 1967.35 -1.28999 -0.905381 0
M  V30 21375 C 1968.6 -1.16813 -1.65779 0
M  V30 21376 C 1968.93 0.280936 -1.92157 0
M  V30 21377 O 1968.21 1.2035 -1.52794 0
M  V30 21378 C 1968.49 -1.97593 -3.01047 0
M  V30 21379 C 1968.34 -3.50608 -2.8177 0
M  V30 21380 C 1969.66 -1.79788 -4.01702 0
M  V30 21381 H 1966.78 -0.425716 -0.60161 0
M  V30 21382 H 1969.42 -1.58409 -1.04913 0
M  V30 21383 H 1967.57 -1.62246 -3.52999 0
M  V30 21384 H 1969.24 -3.95905 -2.36763 0
M  V30 21385 H 1967.49 -3.75818 -2.16663 0
M  V30 21386 H 1968.16 -4.02396 -3.77865 0
M  V30 21387 H 1970.63 -2.10649 -3.5884 0
M  V30 21388 H 1969.51 -2.38667 -4.94297 0
M  V30 21389 H 1969.77 -0.75156 -4.35665 0
M  V30 21390 N 1968.83 1.11497 -1.11383 0
M  V30 21391 C 1970.11 1.79631 -0.774086 0
M  V30 21392 C 1970.49 1.97781 0.737951 0
M  V30 21393 O 1969.83 1.56202 1.66773 0
M  V30 21394 C 1970.04 3.13357 -1.53649 0
M  V30 21395 C 1971.39 3.88407 -1.71538 0
M  V30 21396 O 1972.42 3.23045 -1.50069 0
M  V30 21397 O 1971.28 5.05694 -2.07209 0
M  V30 21398 H 1968.37 0.778022 -0.280376 0
M  V30 21399 H 1970.92 1.18245 -1.21722 0
M  V30 21400 H 1969.69 2.95498 -2.56509 0
M  V30 21401 H 1969.31 3.82456 -1.08688 0
M  V30 21402 N 1970.31 0.904053 1.29092 0
M  V30 21403 C 1971.53 0.547082 2.00054 0
M  V30 21404 C 1971.96 -0.862026 1.67185 0
M  V30 21405 O 1971.32 -1.57449 0.898855 0
M  V30 21406 C 1971.36 0.751495 3.52682 0
M  V30 21407 O 1970.47 -0.194004 4.11943 0
M  V30 21408 H 1969.81 0.213241 0.628828 0
M  V30 21409 H 1972.34 1.21683 1.64482 0
M  V30 21410 H 1972.35 0.657831 4.02662 0
M  V30 21411 H 1971.02 1.77878 3.75942 0
M  V30 21412 H 1969.6 -0.0524281 3.72863 0
M  V30 21413 N 1971.79 -1.4279 0.666995 0
M  V30 21414 C 1973.03 -2.00866 0.183286 0
M  V30 21415 C 1973.35 -1.53315 -1.21465 0
M  V30 21416 O 1974.55 -2.03756 -1.79432 0
M  V30 21417 C 1973.01 -3.58834 0.276836 0
M  V30 21418 C 1972.62 -4.15374 1.67834 0
M  V30 21419 C 1974.36 -4.2424 -0.14856 0
M  V30 21420 C 1972.27 -5.65681 1.72507 0
M  V30 21421 H 1971.2 -0.751214 0.0647613 0
M  V30 21422 H 1973.85 -1.63603 0.83104 0
M  V30 21423 H 1972.23 -3.93563 -0.438672 0
M  V30 21424 H 1973.41 -3.9212 2.4203 0
M  V30 21425 H 1971.72 -3.62391 2.0509 0
M  V30 21426 H 1974.32 -5.34533 -0.133681 0
M  V30 21427 H 1974.66 -3.99154 -1.18245 0
M  V30 21428 H 1975.19 -3.94444 0.51567 0
M  V30 21429 H 1971.93 -5.95555 2.73852 0
M  V30 21430 H 1971.45 -5.9095 1.02655 0
M  V30 21431 H 1973.13 -6.29963 1.47499 0
M  V30 21432 N 1973.26 -0.409806 -1.52179 0
M  V30 21433 C 1974.49 0.164995 -2.0594 0
M  V30 21434 C 1974.9 1.39354 -1.27973 0
M  V30 21435 O 1974.24 1.80802 -0.324989 0
M  V30 21436 C 1974.31 0.579659 -3.54796 0
M  V30 21437 C 1973.97 -0.538248 -4.53819 0
M  V30 21438 C 1974.97 -1.40203 -5.00639 0
M  V30 21439 C 1972.65 -0.711133 -4.97241 0
M  V30 21440 C 1974.65 -2.42363 -5.89524 0
M  V30 21441 C 1972.33 -1.73605 -5.85922 0
M  V30 21442 C 1973.33 -2.5907 -6.31959 0
M  V30 21443 O 1973.02 -3.59806 -7.18884 0
M  V30 21444 H 1972.75 0.0236196 -0.675587 0
M  V30 21445 H 1975.31 -0.579572 -1.97054 0
M  V30 21446 H 1973.54 1.37652 -3.61371 0
M  V30 21447 H 1975.22 1.08246 -3.912 0
M  V30 21448 H 1975.99 -1.27987 -4.67808 0
M  V30 21449 H 1971.87 -0.0555613 -4.60967 0
M  V30 21450 H 1975.41 -3.09106 -6.25379 0
M  V30 21451 H 1971.31 -1.85851 -6.18166 0
M  V30 21452 H 1972.08 -3.56058 -7.36997 0
M  V30 21453 N 1974.74 1.56975 -0.14025 0
M  V30 21454 C 1976.02 1.87494 0.557244 0
M  V30 21455 C 1976.4 1.04507 1.83416 0
M  V30 21456 O 1975.75 0.129958 2.2813 0
M  V30 21457 C 1975.96 3.39006 0.829213 0
M  V30 21458 C 1977.3 4.08077 1.17296 0
M  V30 21459 O 1978.33 3.44146 0.918788 0
M  V30 21460 O 1977.19 5.20966 1.65096 0
M  V30 21461 H 1974.28 0.776892 0.283492 0
M  V30 21462 H 1976.83 1.68781 -0.176354 0
M  V30 21463 H 1975.6 3.91229 -0.0747688 0
M  V30 21464 H 1975.22 3.63224 1.61723 0
M  V30 21465 N 1976.22 -0.133539 1.57033 0
M  V30 21466 C 1977.47 -0.845109 1.84352 0
M  V30 21467 C 1977.8 -1.80205 0.723864 0
M  V30 21468 O 1977.07 -1.92596 -0.271485 0
M  V30 21469 C 1977.36 -1.6078 3.22214 0
M  V30 21470 C 1977.21 -0.671438 4.4476 0
M  V30 21471 C 1978.53 -2.56728 3.57462 0
M  V30 21472 H 1975.65 -0.305783 0.670571 0
M  V30 21473 H 1978.29 -0.109825 1.89682 0
M  V30 21474 H 1976.44 -2.23461 3.17801 0
M  V30 21475 H 1978.11 -0.0545922 4.61268 0
M  V30 21476 H 1976.35 0.018069 4.33796 0
M  V30 21477 H 1977.03 -1.24142 5.37859 0
M  V30 21478 H 1979.5 -2.04159 3.62572 0
M  V30 21479 H 1978.38 -3.07133 4.54929 0
M  V30 21480 H 1978.64 -3.38717 2.84119 0
M  V30 21481 N 1977.7 -1.52352 -0.403298 0
M  V30 21482 C 1978.97 -1.57265 -1.16305 0
M  V30 21483 C 1979.35 -0.357181 -2.08056 0
M  V30 21484 O 1978.7 0.655551 -2.18894 0
M  V30 21485 C 1978.91 -2.90429 -1.93525 0
M  V30 21486 C 1980.26 -3.43643 -2.49388 0
M  V30 21487 O 1981.28 -2.92208 -2.03699 0
M  V30 21488 O 1980.14 -4.33474 -3.32809 0
M  V30 21489 H 1977.24 -0.633707 -0.531361 0
M  V30 21490 H 1979.78 -1.64682 -0.409607 0
M  V30 21491 H 1978.56 -3.70341 -1.26346 0
M  V30 21492 H 1978.18 -2.86331 -2.75862 0
M  V30 21493 N 1979.18 0.660885 -1.43074 0
M  V30 21494 C 1980.09 1.80324 -1.50068 0
M  V30 21495 C 1981.1 1.69611 -0.388331 0
M  V30 21496 O 1982.28 1.90916 -0.641321 0
M  V30 21497 C 1979.34 3.16557 -1.41394 0
M  V30 21498 C 1978.4 3.39124 -2.63236 0
M  V30 21499 C 1977.64 4.68858 -2.54967 0
M  V30 21500 O 1977.86 5.47699 -1.59318 0
M  V30 21501 O 1976.79 4.92975 -3.45339 0
M  V30 21502 H 1980.62 1.77379 -2.46516 0
M  V30 21503 H 1978.2 0.8184 -1.2499 0
M  V30 21504 H 1980.09 3.97825 -1.38971 0
M  V30 21505 H 1978.76 3.2011 -0.480768 0
M  V30 21506 H 1977.67 2.5765 -2.71233 0
M  V30 21507 H 1979 3.40413 -3.555 0
M  V30 21508 N 1980.65 1.29477 0.898527 0
M  V30 21509 C 1981.88 1.20529 1.68783 0
M  V30 21510 C 1982.3 -0.230536 1.86682 0
M  V30 21511 O 1981.66 -1.1664 1.38798 0
M  V30 21512 C 1981.71 1.92501 3.04919 0
M  V30 21513 O 1980.81 1.24286 3.93226 0
M  V30 21514 H 1980.16 0.417586 0.516254 0
M  V30 21515 H 1982.69 1.71066 1.1224 0
M  V30 21516 H 1982.7 2.01001 3.55053 0
M  V30 21517 H 1981.37 2.96934 2.9121 0
M  V30 21518 H 1979.95 1.24052 3.51661 0
M  V30 21519 N 1982.13 -1.10905 1.11972 0
M  V30 21520 C 1983.38 -1.82401 0.870296 0
M  V30 21521 C 1983.7 -1.85356 -0.605649 0
M  V30 21522 O 1982.97 -1.32812 -1.44006 0
M  V30 21523 H 1981.55 -0.675471 0.318979 0
M  V30 21524 H 1984.21 -1.34216 1.41323 0
M  V30 21525 H 1983.31 -2.86086 1.24746 0
M  V30 21526 N 1983.61 -0.910886 -1.2861 0
M  V30 21527 C 1984.52 -0.402088 -2.31129 0
M  V30 21528 C 1985.54 0.508811 -1.66394 0
M  V30 21529 O 1986.71 0.395691 -1.97475 0
M  V30 21530 C 1983.78 0.352182 -3.44907 0
M  V30 21531 C 1982.84 -0.59159 -4.25204 0
M  V30 21532 C 1982.07 0.126778 -5.33549 0
M  V30 21533 O 1982.29 1.34897 -5.54219 0
M  V30 21534 O 1981.23 -0.536442 -5.99505 0
M  V30 21535 H 1985.05 -1.25289 -2.76652 0
M  V30 21536 H 1982.64 -0.675604 -1.33251 0
M  V30 21537 H 1984.52 0.778285 -4.14151 0
M  V30 21538 H 1983.2 1.17886 -3.01471 0
M  V30 21539 H 1982.1 -1.06703 -3.5856 0
M  V30 21540 H 1983.44 -1.38501 -4.72312 0
M  V30 21541 N 1985.09 1.42434 -0.674558 0
M  V30 21542 C 1986.34 2.01144 -0.196332 0
M  V30 21543 C 1986.66 1.53605 1.20127 0
M  V30 21544 O 1985.93 0.757627 1.80657 0
M  V30 21545 H 1984.51 0.743751 -0.0695937 0
M  V30 21546 H 1987.17 1.74354 -0.871013 0
M  V30 21547 H 1986.27 3.11475 -0.197426 0
M  V30 21548 N 1986.57 0.417871 1.51959 0
M  V30 21549 C 1987.81 -0.155282 2.02205 0
M  V30 21550 C 1988.15 -1.44044 1.3025 0
M  V30 21551 O 1987.42 -1.90098 0.411449 0
M  V30 21552 C 1987.7 -0.394038 3.57938 0
M  V30 21553 C 1987.56 0.908404 4.40532 0
M  V30 21554 C 1988.88 -1.17238 4.24197 0
M  V30 21555 H 1985.99 -0.0549616 0.734948 0
M  V30 21556 H 1988.64 0.553053 1.81773 0
M  V30 21557 H 1986.79 -0.997422 3.75478 0
M  V30 21558 H 1988.46 1.54427 4.34684 0
M  V30 21559 H 1986.7 1.51743 4.06395 0
M  V30 21560 H 1987.37 0.69563 5.47599 0
M  V30 21561 H 1989.85 -0.661461 4.10809 0
M  V30 21562 H 1988.72 -1.30818 5.33083 0
M  V30 21563 H 1988.99 -2.19534 3.83741 0
M  V30 21564 N 1988.04 -1.56898 0.148573 0
M  V30 21565 C 1989.27 -2.00249 -0.508309 0
M  V30 21566 C 1989.68 -1.02768 -1.58857 0
M  V30 21567 O 1989.03 -0.0169159 -1.83692 0
M  V30 21568 C 1989.09 -3.40034 -1.16693 0
M  V30 21569 C 1988.75 -4.56415 -0.231088 0
M  V30 21570 C 1989.75 -5.17069 0.541853 0
M  V30 21571 C 1987.43 -5.02122 -0.133535 0
M  V30 21572 C 1989.43 -6.2184 1.39978 0
M  V30 21573 C 1987.11 -6.06748 0.727995 0
M  V30 21574 C 1988.11 -6.66476 1.49326 0
M  V30 21575 O 1987.8 -7.69077 2.34043 0
M  V30 21576 H 1987.53 -0.662039 -0.136677 0
M  V30 21577 H 1990.09 -2.03986 0.240611 0
M  V30 21578 H 1988.32 -3.3314 -1.96352 0
M  V30 21579 H 1990.01 -3.67482 -1.7237 0
M  V30 21580 H 1990.77 -4.82653 0.476529 0
M  V30 21581 H 1986.65 -4.5536 -0.718923 0
M  V30 21582 H 1990.19 -6.68389 1.99756 0
M  V30 21583 H 1986.09 -6.40591 0.794605 0
M  V30 21584 H 1986.86 -7.86304 2.27308 0
M  V30 21585 N 1989.52 0.125209 -1.57102 0
M  V30 21586 C 1990.45 1.15521 -2.02922 0
M  V30 21587 C 1991.43 1.43549 -0.912559 0
M  V30 21588 O 1992.62 1.54097 -1.18185 0
M  V30 21589 C 1989.75 2.48297 -2.42829 0
M  V30 21590 C 1988.7 2.34744 -3.57881 0
M  V30 21591 C 1988.03 3.72427 -3.83669 0
M  V30 21592 C 1989.33 1.81317 -4.89818 0
M  V30 21593 H 1991.02 0.774129 -2.89219 0
M  V30 21594 H 1988.57 0.370935 -1.3914 0
M  V30 21595 H 1990.52 3.20597 -2.73487 0
M  V30 21596 H 1989.25 2.88283 -1.53495 0
M  V30 21597 H 1987.9 1.64893 -3.27423 0
M  V30 21598 H 1987.55 4.09887 -2.9155 0
M  V30 21599 H 1987.25 3.64215 -4.61109 0
M  V30 21600 H 1988.78 4.46242 -4.16773 0
M  V30 21601 H 1990.19 2.43429 -5.19052 0
M  V30 21602 H 1988.59 1.83941 -5.71214 0
M  V30 21603 H 1989.66 0.770291 -4.78743 0
M  V30 21604 N 1991 1.52564 0.395213 0
M  V30 21605 C 1992.25 1.67305 1.14085 0
M  V30 21606 C 1992.58 0.409869 1.90132 0
M  V30 21607 O 1991.83 -0.607574 1.8603 0
M  V30 21608 C 1992.13 2.85496 2.15004 0
M  V30 21609 C 1991.8 4.23179 1.55661 0
M  V30 21610 C 1990.46 4.60626 1.39202 0
M  V30 21611 C 1992.81 5.08923 1.12457 0
M  V30 21612 C 1990.14 5.81482 0.780775 0
M  V30 21613 C 1992.49 6.30397 0.527451 0
M  V30 21614 C 1991.15 6.66581 0.350111 0
M  V30 21615 H 1990.42 0.612211 0.417467 0
M  V30 21616 H 1993.07 1.86695 0.426269 0
M  V30 21617 H 1991.38 2.60496 2.92658 0
M  V30 21618 H 1993.07 2.94096 2.72595 0
M  V30 21619 H 1989.66 3.93678 1.69457 0
M  V30 21620 H 1993.85 4.80566 1.23976 0
M  V30 21621 H 1989.1 6.0813 0.631518 0
M  V30 21622 H 1993.28 6.96156 0.184351 0
M  V30 21623 H 1990.9 7.60096 -0.125616 0
M  V30 21624 N 1992.48 -0.653289 1.43422 0
M  V30 21625 C 1993.89 -1.23446 1.40064 0
M  V30 21626 C 1994.24 -1.95921 0.104677 0
M  V30 21627 O 1993.37 -2.01233 -0.79588 0
M  V30 21628 C 1993.96 -2.24523 2.53722 0
M  V30 21629 C 1992.52 -2.78117 2.53629 0
M  V30 21630 C 1991.67 -1.52759 2.3143 0
M  V30 21631 H 1994.62 -0.445312 1.52324 0
M  V30 21632 H 1994.64 -3.06696 2.25207 0
M  V30 21633 H 1994.15 -1.71746 3.4803 0
M  V30 21634 H 1992.25 -3.34957 1.632 0
M  V30 21635 H 1992.36 -3.25667 3.51394 0
M  V30 21636 H 1990.73 -1.80104 1.80096 0
M  V30 21637 H 1991.51 -1.01917 3.27823 0
M  V30 21638 N 1993.96 -1.29952 -0.891648 0
M  V30 21639 C 1995.18 -1.21422 -1.68141 0
M  V30 21640 C 1995.61 0.220633 -1.86802 0
M  V30 21641 O 1994.96 1.15902 -1.39414 0
M  V30 21642 C 1995.01 -1.94116 -3.03894 0
M  V30 21643 O 1994.12 -1.26369 -3.92562 0
M  V30 21644 H 1993.46 -0.420318 -0.514032 0
M  V30 21645 H 1995.99 -1.71658 -1.11331 0
M  V30 21646 H 1996 -2.02881 -3.53982 0
M  V30 21647 H 1994.67 -2.98474 -2.89631 0
M  V30 21648 H 1993.25 -1.25915 -3.50998 0
M  V30 21649 N 1995.44 1.1031 -1.12559 0
M  V30 21650 C 1996.85 1.34325 -0.861911 0
M  V30 21651 C 1997.05 1.95009 0.507319 0
M  V30 21652 O 1996.11 2.1906 1.25574 0
M  V30 21653 C 1997.42 2.26367 -1.97935 0
M  V30 21654 C 1998.97 2.39901 -2.01039 0
M  V30 21655 C 1999.44 3.35273 -3.1202 0
M  V30 21656 N 2000.93 3.42841 -3.11471 0
M  V30 21657 C 2001.67 4.16611 -3.93983 0
M  V30 21658 N 2001.17 4.93256 -4.86488 0
M  V30 21659 N 2002.96 4.12243 -3.82116 0
M  V30 21660 H 1995.11 0.692899 -2.0078 0
M  V30 21661 H 1997.37 0.367689 -0.87379 0
M  V30 21662 H 1997.08 1.8899 -2.96607 0
M  V30 21663 H 1996.95 3.26685 -1.88565 0
M  V30 21664 H 1999.34 2.76546 -1.02986 0
M  V30 21665 H 1999.42 1.39393 -2.14484 0
M  V30 21666 H 1999.06 2.99352 -4.10306 0
M  V30 21667 H 1998.99 4.35663 -2.95813 0
M  V30 21668 H 2001.49 2.88182 -2.44457 0
M  V30 21669 H 2001.8 5.46948 -5.45956 0
M  V30 21670 H 2000.14 4.92376 -4.90501 0
M  V30 21671 H 2003.33 3.5146 -3.09182 0
M  V30 21672 H 2003.51 4.69475 -4.46651 0
M  V30 21673 N 1996.91 0.917694 1.28125 0
M  V30 21674 C 1997.85 0.366394 2.26253 0
M  V30 21675 C 1998.86 -0.497338 1.55017 0
M  V30 21676 O 2000.05 -0.31158 1.7576 0
M  V30 21677 C 1997.15 -0.494558 3.35272 0
M  V30 21678 C 1996.32 0.34757 4.36017 0
M  V30 21679 C 1995.38 -0.449109 5.2428 0
M  V30 21680 O 1994.41 0.139705 5.69029 0
M  V30 21681 N 1995.61 -1.75125 5.53454 0
M  V30 21682 H 1998.37 1.20986 2.74194 0
M  V30 21683 H 1995.93 0.784058 1.41648 0
M  V30 21684 H 1997.93 -1.03436 3.91258 0
M  V30 21685 H 1996.5 -1.23875 2.87008 0
M  V30 21686 H 1995.72 1.06872 3.79437 0
M  V30 21687 H 1997 0.923647 5.00346 0
M  V30 21688 H 1996.4 -2.2521 5.18938 0
M  V30 21689 H 1994.96 -2.23778 6.12182 0
M  V30 21690 N 1998.39 -1.42074 0.682102 0
M  V30 21691 C 1999.34 -2.30799 0.00831535 0
M  V30 21692 C 2000.31 -1.46368 -0.785221 0
M  V30 21693 O 2001.49 -1.75184 -0.755989 0
M  V30 21694 C 1998.63 -3.32283 -0.931784 0
M  V30 21695 C 1997.75 -4.318 -0.131295 0
M  V30 21696 C 1996.88 -5.20357 -1.06781 0
M  V30 21697 C 1995.92 -6.1155 -0.259435 0
M  V30 21698 N 1995.06 -6.92634 -1.14904 0
M  V30 21699 H 1999.9 -2.87861 0.770715 0
M  V30 21700 H 1997.43 -1.41786 0.391799 0
M  V30 21701 H 1999.39 -3.89657 -1.49074 0
M  V30 21702 H 1998.02 -2.76802 -1.66073 0
M  V30 21703 H 1997.07 -3.76484 0.54439 0
M  V30 21704 H 1998.39 -4.96328 0.495998 0
M  V30 21705 H 1997.54 -5.82499 -1.69645 0
M  V30 21706 H 1996.28 -4.56024 -1.72898 0
M  V30 21707 H 1995.28 -5.48469 0.382368 0
M  V30 21708 H 1996.51 -6.77934 0.397744 0
M  V30 21709 H 1994.46 -6.30922 -1.79648 0
M  V30 21710 H 1994.37 -7.53795 -0.577001 0
M  V30 21711 H 1995.64 -7.59257 -1.76492 0
M  V30 21712 N 1999.87 -0.425924 -1.51735 0
M  V30 21713 C 2000.83 0.379497 -2.26036 0
M  V30 21714 C 2001.83 0.95944 -1.2904 0
M  V30 21715 O 2003.02 0.83568 -1.52846 0
M  V30 21716 C 2000.15 1.5358 -3.04345 0
M  V30 21717 H 2001.35 -0.271515 -2.98668 0
M  V30 21718 H 1998.9 -0.17882 -1.55274 0
M  V30 21719 H 1999.64 2.2232 -2.36103 0
M  V30 21720 H 1999.42 1.12626 -3.75577 0
M  V30 21721 H 2000.91 2.10513 -3.60658 0
M  V30 21722 N 2001.35 1.56817 -0.156891 0
M  V30 21723 C 2002.28 2.14404 0.810167 0
M  V30 21724 C 2003.29 1.09595 1.20386 0
M  V30 21725 O 2004.48 1.36836 1.14622 0
M  V30 21726 C 2001.58 2.65998 2.09996 0
M  V30 21727 C 2000.75 3.95312 1.87209 0
M  V30 21728 C 1999.81 4.32116 3.00271 0
M  V30 21729 O 1998.84 5.00259 2.71532 0
M  V30 21730 N 2000.04 3.925 4.27696 0
M  V30 21731 H 2002.81 2.98009 0.317935 0
M  V30 21732 H 2000.37 1.61879 0.0263634 0
M  V30 21733 H 2002.36 2.87626 2.84699 0
M  V30 21734 H 2000.93 1.87062 2.50453 0
M  V30 21735 H 2000.15 3.82209 0.964891 0
M  V30 21736 H 2001.44 4.79795 1.69335 0
M  V30 21737 H 2000.84 3.37612 4.5391 0
M  V30 21738 H 1999.39 4.19159 4.99148 0
M  V30 21739 N 2002.83 -0.116876 1.57166 0
M  V30 21740 C 2004.07 -0.822659 1.84599 0
M  V30 21741 C 2004.39 -1.80315 0.742392 0
M  V30 21742 O 2003.66 -1.94505 -0.233411 0
M  V30 21743 H 2002.24 -0.306797 0.681091 0
M  V30 21744 H 2004.91 -0.103693 1.94624 0
M  V30 21745 H 2004 -1.36659 2.8059 0
M  V30 21746 N 2004.3 -1.52772 -0.387116 0
M  V30 21747 C 2005.25 -1.78325 -1.49341 0
M  V30 21748 C 2006.25 -0.651278 -1.5638 0
M  V30 21749 O 2007.45 -0.833795 -1.59524 0
M  V30 21750 H 2003.83 -0.56428 -0.497084 0
M  V30 21751 H 2005.8 -2.70965 -1.24983 0
M  V30 21752 C 2004.55 -1.97079 -2.86453 0
M  V30 21753 H 2003.87 -2.83612 -2.81788 0
M  V30 21754 H 2005.31 -2.18947 -3.63095 0
M  V30 21755 C 2003.77 -0.743842 -3.28586 0
M  V30 21756 O 2004.3 0.0778266 -4.01625 0
M  V30 21757 N 2002.5 -0.573415 -2.84886 0
M  V30 21758 H 2002.05 -1.24319 -2.25616 0
M  V30 21759 H 2002.01 0.24616 -3.13435 0
M  V30 21760 N 2005.78 0.645673 -1.43767 0
M  V30 21761 C 2007.03 1.40547 -1.45783 0
M  V30 21762 C 2007.36 1.94314 -0.0849322 0
M  V30 21763 O 2006.61 1.73193 0.911191 0
M  V30 21764 C 2006.91 2.59872 -2.45359 0
M  V30 21765 C 2006.58 2.2448 -3.91049 0
M  V30 21766 C 2005.24 2.1454 -4.30728 0
M  V30 21767 C 2007.59 1.9628 -4.82829 0
M  V30 21768 C 2004.92 1.74567 -5.60128 0
M  V30 21769 C 2007.27 1.57804 -6.12602 0
M  V30 21770 C 2005.93 1.46395 -6.51249 0
M  V30 21771 H 2005.2 0.5143 -0.533458 0
M  V30 21772 H 2007.85 0.733575 -1.76892 0
M  V30 21773 H 2006.16 3.32229 -2.07681 0
M  V30 21774 H 2007.85 3.1809 -2.44171 0
M  V30 21775 H 2004.44 2.33129 -3.59651 0
M  V30 21776 H 2008.63 2.02877 -4.5294 0
M  V30 21777 H 2003.88 1.64326 -5.88903 0
M  V30 21778 H 2008.06 1.35018 -6.83186 0
M  V30 21779 H 2005.68 1.15193 -7.51422 0
M  V30 21780 N 2007.26 1.30423 0.884744 0
M  V30 21781 C 2008.48 1.22312 1.67495 0
M  V30 21782 C 2008.91 -0.210723 1.86916 0
M  V30 21783 O 2008.27 -1.15161 1.40027 0
M  V30 21784 C 2008.32 1.95725 3.0286 0
M  V30 21785 O 2007.42 1.28449 3.91886 0
M  V30 21786 H 2006.76 0.423038 0.511796 0
M  V30 21787 H 2009.29 1.72246 1.10419 0
M  V30 21788 H 2009.3 2.04755 3.52901 0
M  V30 21789 H 2007.98 3.00006 2.88044 0
M  V30 21790 H 2006.55 1.27775 3.50326 0
M  V30 21791 N 2008.74 -1.09711 1.13142 0
M  V30 21792 C 2009.99 -1.81198 0.886021 0
M  V30 21793 C 2010.3 -1.86501 -0.589624 0
M  V30 21794 O 2011.51 -2.54267 -0.951866 0
M  V30 21795 C 2009.96 -3.25498 1.53554 0
M  V30 21796 C 2009.57 -3.2847 3.0465 0
M  V30 21797 C 2011.31 -4.01761 1.37072 0
M  V30 21798 C 2009.22 -4.67276 3.62501 0
M  V30 21799 H 2008.15 -0.679005 0.327824 0
M  V30 21800 H 2010.8 -1.23325 1.35879 0
M  V30 21801 H 2009.18 -3.83414 0.990434 0
M  V30 21802 H 2010.36 -2.80336 3.65716 0
M  V30 21803 H 2008.67 -2.65697 3.20615 0
M  V30 21804 H 2011.27 -5.04306 1.77707 0
M  V30 21805 H 2011.61 -4.15105 0.315226 0
M  V30 21806 H 2012.15 -3.50279 1.88545 0
M  V30 21807 H 2008.88 -4.59133 4.67843 0
M  V30 21808 H 2008.4 -5.15746 3.06212 0
M  V30 21809 H 2010.08 -5.36249 3.62002 0
M  V30 21810 N 2010.22 -0.924476 -1.27637 0
M  V30 21811 C 2011.15 -0.438348 -2.29349 0
M  V30 21812 C 2012.13 0.499673 -1.62595 0
M  V30 21813 O 2013.31 0.405114 -1.89928 0
M  V30 21814 C 2010.44 0.312668 -3.4589 0
M  V30 21815 C 2009.4 -0.537216 -4.24615 0
M  V30 21816 C 2008.72 0.342776 -5.336 0
M  V30 21817 C 2010.02 -1.80003 -4.90302 0
M  V30 21818 H 2011.72 -1.28838 -2.70261 0
M  V30 21819 H 2009.26 -0.620964 -1.29923 0
M  V30 21820 H 2011.22 0.66367 -4.16141 0
M  V30 21821 H 2009.94 1.1967 -3.03886 0
M  V30 21822 H 2008.6 -0.870883 -3.56106 0
M  V30 21823 H 2008.25 1.22567 -4.87838 0
M  V30 21824 H 2007.95 -0.222352 -5.87179 0
M  V30 21825 H 2009.47 0.689422 -6.06695 0
M  V30 21826 H 2010.88 -1.51729 -5.52857 0
M  V30 21827 H 2009.28 -2.3084 -5.53925 0
M  V30 21828 H 2010.35 -2.52148 -4.14186 0
M  V30 21829 N 2011.69 1.41711 -0.689627 0
M  V30 21830 C 2012.62 2.33474 -0.0348045 0
M  V30 21831 C 2013.61 1.51494 0.773533 0
M  V30 21832 O 2014.79 1.8005 0.727705 0
M  V30 21833 C 2011.92 3.35259 0.906573 0
M  V30 21834 C 2010.87 4.27505 0.205762 0
M  V30 21835 C 2010.2 5.19616 1.26109 0
M  V30 21836 C 2011.5 5.14056 -0.92431 0
M  V30 21837 H 2013.19 2.88481 -0.801208 0
M  V30 21838 H 2010.74 1.3871 -0.386738 0
M  V30 21839 H 2012.69 3.98375 1.37386 0
M  V30 21840 H 2011.42 2.78589 1.70457 0
M  V30 21841 H 2010.08 3.65804 -0.241437 0
M  V30 21842 H 2009.72 4.59264 2.05147 0
M  V30 21843 H 2009.42 5.82167 0.797221 0
M  V30 21844 H 2010.95 5.85609 1.72901 0
M  V30 21845 H 2012.36 5.70774 -0.537573 0
M  V30 21846 H 2010.76 5.85517 -1.3149 0
M  V30 21847 H 2011.83 4.51574 -1.7666 0
M  V30 21848 N 2013.17 0.433965 1.51507 0
M  V30 21849 C 2014.58 -0.0299408 1.86676 0
M  V30 21850 C 2014.93 -1.42245 1.35132 0
M  V30 21851 O 2014.06 -2.0474 0.700735 0
M  V30 21852 C 2014.65 -0.0611079 3.38745 0
M  V30 21853 C 2013.21 -0.469416 3.73461 0
M  V30 21854 C 2012.36 0.340116 2.75206 0
M  V30 21855 H 2015.31 0.649958 1.4478 0
M  V30 21856 H 2015.33 -0.871298 3.7039 0
M  V30 21857 H 2014.84 0.952511 3.7623 0
M  V30 21858 H 2012.95 -1.48876 3.41565 0
M  V30 21859 H 2013.06 -0.196556 4.78697 0
M  V30 21860 H 2011.42 -0.201099 2.53905 0
M  V30 21861 H 2012.21 1.35255 3.15533 0
M  V30 21862 N 2014.65 -1.56732 0.165206 0
M  V30 21863 C 2015.58 -2.20674 -0.763223 0
M  V30 21864 C 2016.56 -1.16048 -1.24366 0
M  V30 21865 O 2017.75 -1.44456 -1.29793 0
M  V30 21866 C 2014.88 -2.84269 -1.9952 0
M  V30 21867 C 2013.83 -3.94881 -1.65085 0
M  V30 21868 C 2013.16 -4.45496 -2.95698 0
M  V30 21869 C 2014.46 -5.14773 -0.883543 0
M  V30 21870 H 2016.15 -2.98513 -0.230254 0
M  V30 21871 H 2013.7 -1.43585 -0.109308 0
M  V30 21872 H 2015.65 -3.27674 -2.64967 0
M  V30 21873 H 2014.37 -2.03789 -2.55221 0
M  V30 21874 H 2013.03 -3.52122 -1.0201 0
M  V30 21875 H 2012.68 -3.61815 -3.49426 0
M  V30 21876 H 2012.38 -5.20114 -2.73414 0
M  V30 21877 H 2013.9 -4.91584 -3.62185 0
M  V30 21878 H 2015.32 -5.54908 -1.44047 0
M  V30 21879 H 2013.72 -5.95268 -0.759968 0
M  V30 21880 H 2014.79 -4.84748 0.121303 0
M  V30 21881 N 2016.13 0.10854 -1.57226 0
M  V30 21882 C 2017.38 0.813095 -1.84585 0
M  V30 21883 C 2017.69 1.80548 -0.752453 0
M  V30 21884 O 2018.9 2.55697 -0.912763 0
M  V30 21885 C 2017.35 1.4968 -3.27298 0
M  V30 21886 C 2016.96 0.544871 -4.44674 0
M  V30 21887 C 2018.7 2.18587 -3.63895 0
M  V30 21888 C 2016.61 1.2324 -5.78417 0
M  V30 21889 H 2015.54 0.3074 -0.688492 0
M  V30 21890 H 2018.19 0.065908 -1.83382 0
M  V30 21891 H 2016.57 2.29098 -3.23002 0
M  V30 21892 H 2017.75 -0.216842 -4.6029 0
M  V30 21893 H 2016.06 -0.0377882 -4.16383 0
M  V30 21894 H 2018.66 2.70735 -4.61093 0
M  V30 21895 H 2019 2.96868 -2.91848 0
M  V30 21896 H 2019.54 1.46046 -3.70021 0
M  V30 21897 H 2016.28 0.490673 -6.53661 0
M  V30 21898 H 2015.8 1.96587 -5.66669 0
M  V30 21899 H 2017.47 1.76267 -6.22526 0
M  V30 21900 N 2017.61 1.52975 0.379009 0
M  V30 21901 C 2018.55 1.78463 1.46355 0
M  V30 21902 C 2019.52 0.628308 1.53758 0
M  V30 21903 O 2020.71 0.869084 1.69858 0
M  V30 21904 C 2017.85 1.96827 2.83467 0
M  V30 21905 C 2016.96 3.24533 2.85136 0
M  V30 21906 C 2016.1 3.33158 4.13738 0
M  V30 21907 C 2015.14 4.54948 4.09498 0
M  V30 21908 N 2014.27 4.60801 5.29724 0
M  V30 21909 H 2019.11 2.71012 1.23921 0
M  V30 21910 H 2016.65 1.34263 0.600982 0
M  V30 21911 H 2018.61 2.05459 3.63101 0
M  V30 21912 H 2017.24 1.07628 3.04329 0
M  V30 21913 H 2016.29 3.24921 1.97814 0
M  V30 21914 H 2017.6 4.14232 2.77873 0
M  V30 21915 H 2016.76 3.41029 5.01781 0
M  V30 21916 H 2015.49 2.41451 4.23737 0
M  V30 21917 H 2014.5 4.47193 3.19842 0
M  V30 21918 H 2015.72 5.47983 4.01113 0
M  V30 21919 H 2013.67 3.71989 5.40333 0
M  V30 21920 H 2013.59 5.44386 5.24576 0
M  V30 21921 H 2014.86 4.72938 6.19637 0
M  V30 21922 N 2019.08 -0.63804 1.44107 0
M  V30 21923 C 2020.05 -1.7322 1.50092 0
M  V30 21924 C 2021.05 -1.56153 0.383763 0
M  V30 21925 O 2022.24 -1.61774 0.646118 0
M  V30 21926 C 2019.37 -3.1224 1.36818 0
M  V30 21927 H 2020.56 -1.6929 2.4755 0
M  V30 21928 H 2018.12 -0.851079 1.31097 0
M  V30 21929 H 2018.85 -3.2177 0.404269 0
M  V30 21930 H 2018.64 -3.26033 2.17818 0
M  V30 21931 H 2020.13 -3.91997 1.43972 0
M  V30 21932 N 2020.56 -1.3089 -0.877815 0
M  V30 21933 C 2021.79 -1.23068 -1.66319 0
M  V30 21934 C 2022.21 0.205309 -1.8768 0
M  V30 21935 O 2021.56 1.13467 -1.42939 0
M  V30 21936 C 2021.61 -1.96305 -3.03557 0
M  V30 21937 O 2021.33 -3.34298 -2.83154 0
M  V30 21938 C 2022.84 -1.95228 -3.97996 0
M  V30 21939 H 2020.06 -0.425583 -0.518768 0
M  V30 21940 H 2022.6 -1.72636 -1.09623 0
M  V30 21941 H 2020.75 -1.50518 -3.56964 0
M  V30 21942 H 2021.17 -3.71486 -3.70268 0
M  V30 21943 H 2022.64 -2.50997 -4.91635 0
M  V30 21944 H 2023.12 -0.932904 -4.29178 0
M  V30 21945 H 2023.73 -2.40858 -3.50525 0
M  V30 21946 N 2022.04 1.0911 -1.13723 0
M  V30 21947 C 2022.97 2.17859 -0.840227 0
M  V30 21948 C 2023.95 1.68899 0.201778 0
M  V30 21949 O 2025.14 1.94107 0.0600046 0
M  V30 21950 C 2022.27 3.45922 -0.309024 0
M  V30 21951 C 2021.22 4.08234 -1.28565 0
M  V30 21952 C 2020.55 5.31162 -0.614064 0
M  V30 21953 C 2021.85 4.50354 -2.64534 0
M  V30 21954 H 2023.54 2.4296 -1.74959 0
M  V30 21955 H 2021.09 1.16771 -0.842653 0
M  V30 21956 H 2023.04 4.21306 -0.088895 0
M  V30 21957 H 2021.76 3.20353 0.635735 0
M  V30 21958 H 2020.42 3.34873 -1.49183 0
M  V30 21959 H 2020.07 5.01875 0.336272 0
M  V30 21960 H 2019.77 5.73807 -1.26566 0
M  V30 21961 H 2021.29 6.09267 -0.403293 0
M  V30 21962 H 2022.71 5.16948 -2.47866 0
M  V30 21963 H 2021.11 5.03894 -3.259 0
M  V30 21964 H 2022.18 3.62594 -3.21952 0
M  V30 21965 N 2023.52 0.931232 1.27145 0
M  V30 21966 C 2024.77 0.569326 1.93498 0
M  V30 21967 C 2025.08 -0.894288 1.73959 0
M  V30 21968 O 2026.29 -1.36513 2.34684 0
M  V30 21969 C 2024.74 0.967432 3.46654 0
M  V30 21970 C 2024.35 2.45197 3.74943 0
M  V30 21971 C 2026.09 0.676947 4.19068 0
M  V30 21972 C 2024 2.7893 5.2149 0
M  V30 21973 H 2022.93 0.209208 0.724395 0
M  V30 21974 H 2025.58 1.13252 1.44382 0
M  V30 21975 H 2023.96 0.332853 3.94599 0
M  V30 21976 H 2025.14 3.13476 3.37742 0
M  V30 21977 H 2023.45 2.71472 3.1574 0
M  V30 21978 H 2026.05 0.905425 5.26978 0
M  V30 21979 H 2026.39 -0.385967 4.14507 0
M  V30 21980 H 2026.93 1.27079 3.76956 0
M  V30 21981 H 2023.67 3.84144 5.31144 0
M  V30 21982 H 2023.19 2.15304 5.59825 0
M  V30 21983 H 2024.86 2.66862 5.89401 0
M  V30 21984 N 2025 -1.41343 0.697132 0
M  V30 21985 C 2026.22 -2.06049 0.236356 0
M  V30 21986 C 2026.65 -1.52124 -1.10634 0
M  V30 21987 O 2026.01 -0.648852 -1.69291 0
M  V30 21988 C 2026.05 -3.6001 0.206185 0
M  V30 21989 O 2025.16 -4.04197 -0.818466 0
M  V30 21990 H 2024.5 -0.65395 0.115091 0
M  V30 21991 H 2027.03 -1.8108 0.952431 0
M  V30 21992 H 2027.04 -4.07983 0.0375737 0
M  V30 21993 H 2025.71 -3.98628 1.18612 0
M  V30 21994 H 2024.29 -3.67725 -0.619082 0
M  V30 21995 N 2026.48 -0.441993 -1.51275 0
M  V30 21996 C 2027.72 0.122024 -2.04035 0
M  V30 21997 C 2028.08 1.39557 -1.31863 0
M  V30 21998 O 2029.28 2.04012 -1.75022 0
M  V30 21999 C 2027.55 0.330958 -3.55864 0
M  V30 22000 S 2029.11 0.857712 -4.30336 0
M  V30 22001 H 2025.93 0.0296645 -0.710381 0
M  V30 22002 H 2028.53 -0.602467 -1.85985 0
M  V30 22003 H 2027.23 -0.602196 -4.05958 0
M  V30 22004 H 2026.77 1.0824 -3.78217 0
M  V30 22005 H 2028.78 2.13474 -4.47932 0
M  V30 22006 N 2027.95 1.56642 -0.173515 0
M  V30 22007 C 2029.2 1.97241 0.47157 0
M  V30 22008 C 2029.53 1.05958 1.62747 0
M  V30 22009 O 2028.81 0.107151 1.94205 0
M  V30 22010 C 2029.09 3.47276 0.952439 0
M  V30 22011 C 2028.94 4.49338 -0.203789 0
M  V30 22012 C 2030.26 4.00461 1.82535 0
M  V30 22013 H 2027.38 0.71714 0.169941 0
M  V30 22014 H 2030.02 1.88211 -0.260093 0
M  V30 22015 H 2028.17 3.55102 1.57591 0
M  V30 22016 H 2029.85 4.5357 -0.840936 0
M  V30 22017 H 2028.09 4.25211 -0.858945 0
M  V30 22018 H 2028.76 5.51723 0.174833 0
M  V30 22019 H 2031.24 3.9528 1.29974 0
M  V30 22020 H 2030.11 5.05853 2.13083 0
M  V30 22021 H 2030.37 3.44409 2.7719 0
M  V30 22022 N 2029.43 -0.1002 1.57281 0
M  V30 22023 C 2030.66 -0.82219 1.90407 0
M  V30 22024 C 2031.08 -1.71739 0.767297 0
M  V30 22025 O 2030.44 -1.79103 -0.281369 0
M  V30 22026 C 2030.49 -1.61579 3.22373 0
M  V30 22027 O 2029.59 -2.72433 3.09603 0
M  V30 22028 H 2028.93 -0.2262 0.624283 0
M  V30 22029 H 2031.46 -0.0769557 2.04455 0
M  V30 22030 H 2031.47 -2.00109 3.55556 0
M  V30 22031 H 2030.15 -0.958772 4.04698 0
M  V30 22032 H 2028.72 -2.36968 2.87925 0
M  V30 22033 N 2030.91 -1.53174 -0.370891 0
M  V30 22034 C 2032.13 -1.73304 -1.13932 0
M  V30 22035 C 2032.56 -0.458494 -1.82427 0
M  V30 22036 O 2031.92 0.587094 -1.71531 0
M  V30 22037 C 2031.97 -2.89544 -2.14933 0
M  V30 22038 O 2031.07 -2.57782 -3.21904 0
M  V30 22039 H 2030.41 -0.575715 -0.33083 0
M  V30 22040 H 2032.94 -2.00038 -0.429641 0
M  V30 22041 H 2032.95 -3.15559 -2.58625 0
M  V30 22042 H 2031.63 -3.81998 -1.64471 0
M  V30 22043 H 2030.2 -2.42568 -2.83223 0
M  V30 22044 N 2032.39 0.630389 -1.44443 0
M  V30 22045 C 2033.33 1.74232 -1.51367 0
M  V30 22046 C 2034.3 1.62122 -0.361324 0
M  V30 22047 O 2035.49 1.82035 -0.571662 0
M  V30 22048 C 2032.63 3.12481 -1.46457 0
M  V30 22049 C 2031.74 3.35561 -2.72071 0
M  V30 22050 C 2030.88 4.63787 -2.58989 0
M  V30 22051 C 2029.92 4.80048 -3.79764 0
M  V30 22052 N 2029.05 5.99551 -3.65354 0
M  V30 22053 H 2033.89 1.6765 -2.46368 0
M  V30 22054 H 2031.43 0.817807 -1.22272 0
M  V30 22055 H 2033.39 3.92435 -1.41601 0
M  V30 22056 H 2032.02 3.18076 -0.550216 0
M  V30 22057 H 2031.07 2.49543 -2.8711 0
M  V30 22058 H 2032.38 3.43456 -3.61717 0
M  V30 22059 H 2031.54 5.51902 -2.51971 0
M  V30 22060 H 2030.28 4.58251 -1.66905 0
M  V30 22061 H 2029.28 3.90362 -3.87166 0
M  V30 22062 H 2030.51 4.87397 -4.72886 0
M  V30 22063 H 2028.45 5.95104 -2.76021 0
M  V30 22064 H 2028.37 6.08505 -4.48617 0
M  V30 22065 H 2029.64 6.90226 -3.62228 0
M  V30 22066 N 2033.87 1.31354 0.870861 0
M  V30 22067 C 2035.11 1.22177 1.62617 0
M  V30 22068 C 2035.47 -0.218204 1.91159 0
M  V30 22069 O 2034.76 -1.15137 1.53147 0
M  V30 22070 C 2034.95 1.99835 2.96312 0
M  V30 22071 C 2034.78 3.51238 2.80824 0
M  V30 22072 C 2033.55 4.20589 2.80059 0
M  V30 22073 C 2035.75 4.46204 2.55747 0
M  V30 22074 N 2033.73 5.58154 2.55612 0
M  V30 22075 C 2035.1 5.71431 2.40555 0
M  V30 22076 C 2037.16 4.3564 2.41085 0
M  V30 22077 C 2035.86 6.8729 2.12192 0
M  V30 22078 C 2037.89 5.51282 2.14109 0
M  V30 22079 C 2037.25 6.75498 1.99705 0
M  V30 22080 H 2033.35 0.502188 0.599443 0
M  V30 22081 H 2035.93 1.65532 1.02505 0
M  V30 22082 H 2034.1 1.58851 3.54431 0
M  V30 22083 H 2035.84 1.82685 3.61121 0
M  V30 22084 H 2032.59 3.72551 2.92408 0
M  V30 22085 H 2033.01 6.30583 2.46361 0
M  V30 22086 H 2037.66 3.40271 2.5095 0
M  V30 22087 H 2035.37 7.82687 2.01064 0
M  V30 22088 H 2038.96 5.45025 2.03565 0
M  V30 22089 H 2037.84 7.63468 1.79126 0
M  V30 22090 N 2035.34 -1.08505 1.143 0
M  V30 22091 C 2036.28 -2.15273 0.786783 0
M  V30 22092 C 2037.29 -1.61618 -0.195861 0
M  V30 22093 O 2038.48 -1.78481 0.0257031 0
M  V30 22094 C 2035.58 -3.38581 0.147036 0
M  V30 22095 C 2034.75 -4.21623 1.16415 0
M  V30 22096 C 2033.81 -5.23335 0.548355 0
M  V30 22097 O 2032.84 -5.56168 1.21104 0
M  V30 22098 N 2034.04 -5.76558 -0.67533 0
M  V30 22099 H 2036.8 -2.46436 1.70557 0
M  V30 22100 H 2034.36 -1.24306 1.03728 0
M  V30 22101 H 2036.36 -4.03748 -0.277407 0
M  V30 22102 H 2034.93 -3.05228 -0.674862 0
M  V30 22103 H 2034.15 -3.5245 1.76557 0
M  V30 22104 H 2035.43 -4.73925 1.85128 0
M  V30 22105 H 2034.83 -5.52115 -1.23232 0
M  V30 22106 H 2033.39 -6.43412 -1.0423 0
M  V30 22107 N 2036.82 -0.937962 -1.26649 0
M  V30 22108 C 2037.75 -0.462649 -2.28871 0
M  V30 22109 C 2038.73 0.4824 -1.63116 0
M  V30 22110 O 2039.92 0.384947 -1.90347 0
M  V30 22111 C 2037.05 0.275964 -3.46202 0
M  V30 22112 C 2036 -0.582222 -4.24021 0
M  V30 22113 C 2035.33 0.286161 -5.33934 0
M  V30 22114 C 2036.63 -1.85193 -4.88365 0
M  V30 22115 H 2038.32 -1.31698 -2.68879 0
M  V30 22116 H 2035.87 -0.634709 -1.29257 0
M  V30 22117 H 2037.82 0.619496 -4.16822 0
M  V30 22118 H 2036.54 1.1644 -3.05138 0
M  V30 22119 H 2035.2 -0.908604 -3.55162 0
M  V30 22120 H 2034.85 1.17386 -4.89111 0
M  V30 22121 H 2034.55 -0.284618 -5.8691 0
M  V30 22122 H 2036.08 0.625035 -6.07393 0
M  V30 22123 H 2037.49 -1.57584 -5.51217 0
M  V30 22124 H 2035.89 -2.36702 -5.51445 0
M  V30 22125 H 2036.96 -2.56526 -4.11488 0
M  V30 22126 N 2038.3 1.40971 -0.704618 0
M  V30 22127 C 2039.55 2.00309 -0.236478 0
M  V30 22128 C 2039.86 1.56482 1.17358 0
M  V30 22129 O 2041.07 2.08442 1.73966 0
M  V30 22130 C 2039.52 3.57974 -0.371877 0
M  V30 22131 C 2039.13 4.10779 -1.78788 0
M  V30 22132 C 2040.88 4.24485 0.0360284 0
M  V30 22133 C 2038.78 5.60909 -1.87445 0
M  V30 22134 H 2037.71 0.749233 -0.0846557 0
M  V30 22135 H 2040.36 1.61342 -0.874125 0
M  V30 22136 H 2038.75 3.94587 0.334172 0
M  V30 22137 H 2039.92 3.85565 -2.52342 0
M  V30 22138 H 2038.23 3.56826 -2.14626 0
M  V30 22139 H 2040.83 5.34699 -0.00808813 0
M  V30 22140 H 2041.17 4.02149 1.07621 0
M  V30 22141 H 2041.71 3.92938 -0.620069 0
M  V30 22142 H 2038.45 5.88084 -2.89546 0
M  V30 22143 H 2037.97 5.88021 -1.18287 0
M  V30 22144 H 2039.65 6.25831 -1.6415 0
M  V30 22145 N 2039.78 0.45001 1.51039 0
M  V30 22146 C 2041.01 -0.110336 2.06305 0
M  V30 22147 C 2041.42 -1.35912 1.31623 0
M  V30 22148 O 2040.76 -1.79877 0.372811 0
M  V30 22149 C 2040.82 -0.485388 3.56208 0
M  V30 22150 C 2040.49 0.658381 4.52233 0
M  V30 22151 C 2041.48 1.53427 4.96746 0
M  V30 22152 C 2039.17 0.842718 4.9518 0
M  V30 22153 C 2041.16 2.57908 5.82891 0
M  V30 22154 C 2038.85 1.89078 5.81113 0
M  V30 22155 C 2039.85 2.75734 6.24868 0
M  V30 22156 O 2039.53 3.7874 7.09092 0
M  V30 22157 H 2039.27 -0.0056993 0.675976 0
M  V30 22158 H 2041.82 0.631614 1.95448 0
M  V30 22159 H 2040.05 -1.28022 3.64893 0
M  V30 22160 H 2041.74 -0.978357 3.93933 0
M  V30 22161 H 2042.51 1.40345 4.6425 0
M  V30 22162 H 2038.38 0.177759 4.60657 0
M  V30 22163 H 2041.93 3.25578 6.16964 0
M  V30 22164 H 2037.83 2.02176 6.13021 0
M  V30 22165 H 2038.59 3.75473 7.27298 0
M  V30 22166 N 2041.26 -1.56548 0.18182 0
M  V30 22167 C 2042.19 -2.14336 -0.783296 0
M  V30 22168 C 2043.17 -1.07634 -1.21876 0
M  V30 22169 O 2044.35 -1.3567 -1.30866 0
M  V30 22170 C 2041.48 -2.69146 -2.05616 0
M  V30 22171 C 2040.52 -3.88316 -1.76389 0
M  V30 22172 S 2041.36 -5.27472 -0.923777 0
M  V30 22173 C 2042.51 -5.85695 -2.20708 0
M  V30 22174 H 2042.75 -2.95863 -0.291996 0
M  V30 22175 H 2040.28 -1.54365 -0.033 0
M  V30 22176 H 2042.24 -3.01371 -2.78722 0
M  V30 22177 H 2040.9 -1.87685 -2.51859 0
M  V30 22178 H 2040.09 -4.25031 -2.7086 0
M  V30 22179 H 2039.69 -3.57032 -1.11373 0
M  V30 22180 H 2041.99 -5.99249 -3.16081 0
M  V30 22181 H 2042.93 -6.82564 -1.88446 0
M  V30 22182 H 2043.34 -5.14194 -2.32948 0
M  V30 22183 N 2042.73 0.0918577 -1.57332 0
M  V30 22184 C 2043.96 0.81208 -1.9084 0
M  V30 22185 C 2044.38 1.71329 -0.776394 0
M  V30 22186 O 2043.74 1.7925 0.271867 0
M  V30 22187 C 2043.79 1.59867 -3.23226 0
M  V30 22188 O 2042.89 2.70787 -3.11044 0
M  V30 22189 H 2042.24 0.222886 -0.625474 0
M  V30 22190 H 2044.77 0.0661119 -2.04493 0
M  V30 22191 H 2044.78 1.98221 -3.56613 0
M  V30 22192 H 2043.45 0.937296 -4.05201 0
M  V30 22193 H 2042.03 2.35438 -2.89177 0
M  V30 22194 N 2044.21 1.53368 0.362763 0
M  V30 22195 C 2045.44 1.73348 1.12402 0
M  V30 22196 C 2045.85 0.463567 1.83433 0
M  V30 22197 O 2045.19 -0.573438 1.7452 0
M  V30 22198 C 2045.26 2.84605 2.19637 0
M  V30 22199 C 2044.92 4.24862 1.68348 0
M  V30 22200 C 2045.92 5.07111 1.14605 0
M  V30 22201 C 2043.6 4.71283 1.73776 0
M  V30 22202 C 2045.6 6.33872 0.669702 0
M  V30 22203 C 2043.28 5.98021 1.25753 0
M  V30 22204 C 2044.28 6.79148 0.724405 0
M  V30 22205 O 2043.97 8.03507 0.251275 0
M  V30 22206 H 2043.7 0.583168 0.341893 0
M  V30 22207 H 2046.25 2.00919 0.426694 0
M  V30 22208 H 2044.48 2.52514 2.92871 0
M  V30 22209 H 2046.17 2.92735 2.81177 0
M  V30 22210 H 2046.94 4.7242 1.09748 0
M  V30 22211 H 2042.82 4.08208 2.14213 0
M  V30 22212 H 2046.36 6.97141 0.252909 0
M  V30 22213 H 2042.26 6.32211 1.30304 0
M  V30 22214 H 2043.03 8.17662 0.370343 0
M  V30 22215 N 2045.69 -0.62272 1.44776 0
M  V30 22216 C 2046.62 -1.74528 1.5512 0
M  V30 22217 C 2047.6 -1.65241 0.403656 0
M  V30 22218 O 2048.79 -1.83873 0.624863 0
M  V30 22219 C 2045.92 -3.13088 1.5031 0
M  V30 22220 C 2044.87 -3.37172 2.63626 0
M  V30 22221 C 2044.2 -4.75849 2.43868 0
M  V30 22222 C 2045.5 -3.28908 4.0573 0
M  V30 22223 H 2047.19 -1.66128 2.49082 0
M  V30 22224 H 2044.74 -0.797813 1.19879 0
M  V30 22225 H 2046.69 -3.91403 1.56146 0
M  V30 22226 H 2045.41 -3.22293 0.528684 0
M  V30 22227 H 2044.07 -2.61241 2.57194 0
M  V30 22228 H 2043.72 -4.81767 1.446 0
M  V30 22229 H 2043.42 -4.92921 3.19849 0
M  V30 22230 H 2044.94 -5.56383 2.51535 0
M  V30 22231 H 2046.36 -3.97117 4.13487 0
M  V30 22232 H 2044.76 -3.57513 4.8198 0
M  V30 22233 H 2045.83 -2.26581 4.28706 0
M  V30 22234 N 2047.17 -1.31814 -0.863883 0
M  V30 22235 C 2048.4 -1.24825 -1.65004 0
M  V30 22236 C 2048.81 0.185391 -1.87888 0
M  V30 22237 O 2048.17 1.11945 -1.44134 0
M  V30 22238 C 2048.22 -1.99514 -3.01457 0
M  V30 22239 O 2047.94 -3.37283 -2.79593 0
M  V30 22240 C 2049.44 -1.99438 -3.95903 0
M  V30 22241 H 2046.66 -0.431061 -0.514225 0
M  V30 22242 H 2049.21 -1.73789 -1.07786 0
M  V30 22243 H 2047.36 -1.54296 -3.55347 0
M  V30 22244 H 2047.77 -3.75392 -3.66307 0
M  V30 22245 H 2049.25 -2.56197 -4.88945 0
M  V30 22246 H 2049.73 -0.978372 -4.28164 0
M  V30 22247 H 2050.33 -2.44562 -3.4795 0
M  V30 22248 N 2048.65 1.07897 -1.14873 0
M  V30 22249 C 2049.58 2.16955 -0.863287 0
M  V30 22250 C 2050.56 1.69103 0.183853 0
M  V30 22251 O 2051.74 1.9416 0.0394136 0
M  V30 22252 C 2048.87 3.45575 -0.345696 0
M  V30 22253 C 2047.83 4.06847 -1.32888 0
M  V30 22254 C 2047.15 5.30481 -0.670367 0
M  V30 22255 C 2048.45 4.47523 -2.69296 0
M  V30 22256 H 2050.15 2.41091 -1.77526 0
M  V30 22257 H 2047.69 1.1587 -0.854991 0
M  V30 22258 H 2049.65 4.21188 -0.133575 0
M  V30 22259 H 2048.37 3.21009 0.601722 0
M  V30 22260 H 2047.03 3.33272 -1.52726 0
M  V30 22261 H 2046.68 5.02203 0.283023 0
M  V30 22262 H 2046.38 5.72433 -1.32645 0
M  V30 22263 H 2047.9 6.08805 -0.467891 0
M  V30 22264 H 2049.31 5.1429 -2.53335 0
M  V30 22265 H 2047.71 5.00409 -3.31226 0
M  V30 22266 H 2048.78 3.59159 -3.2578 0
M  V30 22267 N 2050.12 0.944665 1.2615 0
M  V30 22268 C 2051.4 0.511841 1.88784 0
M  V30 22269 C 2051.78 -1.01066 1.85335 0
M  V30 22270 O 2051.13 -1.87217 1.31004 0
M  V30 22271 C 2051.34 1.07714 3.31962 0
M  V30 22272 C 2052.69 1.14792 4.08788 0
M  V30 22273 O 2053.71 1.02798 3.41044 0
M  V30 22274 O 2052.57 1.3349 5.29946 0
M  V30 22275 H 2049.66 0.167346 0.809892 0
M  V30 22276 H 2052.21 1.03745 1.34294 0
M  V30 22277 H 2050.98 2.12066 3.28852 0
M  V30 22278 H 2050.61 0.534184 3.93995 0
M  V30 22279 N 2051.6 -1.40596 0.712085 0
M  V30 22280 C 2052.85 -2.0095 0.250087 0
M  V30 22281 C 2053.18 -1.5645 -1.15558 0
M  V30 22282 O 2052.43 -0.773994 -1.79744 0
M  V30 22283 C 2052.73 -3.56346 0.27427 0
M  V30 22284 C 2052.4 -4.20416 1.62975 0
M  V30 22285 C 2051.06 -4.37632 2.0008 0
M  V30 22286 C 2053.41 -4.56187 2.52076 0
M  V30 22287 C 2050.74 -4.87899 3.2584 0
M  V30 22288 C 2053.09 -5.07853 3.77185 0
M  V30 22289 C 2051.76 -5.23277 4.14412 0
M  V30 22290 H 2051.03 -0.735327 0.0915134 0
M  V30 22291 H 2053.67 -1.68257 0.914427 0
M  V30 22292 H 2051.98 -3.88927 -0.473638 0
M  V30 22293 H 2053.67 -4.00873 -0.100977 0
M  V30 22294 H 2050.26 -4.07403 1.3312 0
M  V30 22295 H 2054.45 -4.42527 2.24686 0
M  V30 22296 H 2049.7 -4.98026 3.54655 0
M  V30 22297 H 2053.88 -5.34509 4.46401 0
M  V30 22298 H 2051.51 -5.6199 5.11929 0
M  V30 22299 N 2053.08 -0.458013 -1.50798 0
M  V30 22300 C 2054.01 0.38861 -2.24867 0
M  V30 22301 C 2054.99 1.00734 -1.27638 0
M  V30 22302 O 2056.18 1.04581 -1.56828 0
M  V30 22303 C 2053.3 1.54336 -3.01493 0
M  V30 22304 C 2052.35 1.0433 -4.13543 0
M  V30 22305 S 2053.18 -0.0314457 -5.35491 0
M  V30 22306 C 2054.34 1.12749 -6.15661 0
M  V30 22307 H 2054.57 -0.240171 -2.96328 0
M  V30 22308 H 2052.1 -0.242743 -1.5248 0
M  V30 22309 H 2054.06 2.20525 -3.46235 0
M  V30 22310 H 2052.72 2.14362 -2.29582 0
M  V30 22311 H 2051.92 1.90742 -4.66512 0
M  V30 22312 H 2051.52 0.459335 -3.71169 0
M  V30 22313 H 2053.81 2.04177 -6.46001 0
M  V30 22314 H 2054.75 0.637331 -7.05226 0
M  V30 22315 H 2055.16 1.37541 -5.47488 0
M  V30 22316 N 2054.56 1.56449 -0.190119 0
M  V30 22317 C 2055.79 2.01527 0.455038 0
M  V30 22318 C 2056.2 1.06944 1.56076 0
M  V30 22319 O 2055.54 0.0656127 1.83583 0
M  V30 22320 C 2055.6 3.43008 1.07637 0
M  V30 22321 C 2055.27 4.56868 0.109996 0
M  V30 22322 C 2056.26 5.1545 -0.678755 0
M  V30 22323 C 2053.95 5.023 0.000358787 0
M  V30 22324 C 2055.94 6.1791 -1.56416 0
M  V30 22325 C 2053.63 6.04605 -0.888608 0
M  V30 22326 C 2054.63 6.62283 -1.66944 0
M  V30 22327 O 2054.32 7.62601 -2.54351 0
M  V30 22328 H 2054.05 0.66543 0.119076 0
M  V30 22329 H 2056.6 2.03276 -0.29461 0
M  V30 22330 H 2054.83 3.38229 1.87451 0
M  V30 22331 H 2056.52 3.71923 1.62566 0
M  V30 22332 H 2057.29 4.8122 -0.604329 0
M  V30 22333 H 2053.17 4.57106 0.59794 0
M  V30 22334 H 2056.71 6.62858 -2.17407 0
M  V30 22335 H 2052.61 6.38259 -0.964167 0
M  V30 22336 H 2053.37 7.80001 -2.48075 0
M  V30 22337 N 2056.04 -0.0835127 1.57379 0
M  V30 22338 C 2057.27 -0.796949 1.9061 0
M  V30 22339 C 2057.68 -1.72229 0.78318 0
M  V30 22340 O 2057.02 -1.81948 -0.2531 0
M  V30 22341 C 2057.08 -1.65376 3.19204 0
M  V30 22342 C 2056.74 -0.899027 4.4807 0
M  V30 22343 C 2057.74 -0.223567 5.19419 0
M  V30 22344 C 2055.43 -0.869673 4.94714 0
M  V30 22345 C 2057.42 0.47115 6.35656 0
M  V30 22346 C 2055.11 -0.171178 6.1086 0
M  V30 22347 C 2056.11 0.498044 6.81182 0
M  V30 22348 O 2055.79 1.18531 7.95114 0
M  V30 22349 H 2055.53 -0.232443 0.63478 0
M  V30 22350 H 2058.08 -0.0616418 2.05307 0
M  V30 22351 H 2056.31 -2.43159 3.00684 0
M  V30 22352 H 2058 -2.24481 3.38176 0
M  V30 22353 H 2058.76 -0.237628 4.84418 0
M  V30 22354 H 2054.64 -1.38002 4.3986 0
M  V30 22355 H 2058.19 0.994067 6.90481 0
M  V30 22356 H 2054.08 -0.155003 6.45314 0
M  V30 22357 H 2054.85 1.09339 8.11164 0
M  V30 22358 N 2057.52 -1.53558 -0.354624 0
M  V30 22359 C 2058.45 -1.75568 -1.45778 0
M  V30 22360 C 2059.43 -0.604381 -1.5095 0
M  V30 22361 O 2060.61 -0.838257 -1.68836 0
M  V30 22362 C 2057.74 -1.84435 -2.8408 0
M  V30 22363 C 2056.78 -3.06498 -2.96583 0
M  V30 22364 S 2057.62 -4.65789 -2.64199 0
M  V30 22365 C 2058.77 -4.7752 -4.0463 0
M  V30 22366 H 2059.01 -2.68861 -1.2689 0
M  V30 22367 H 2056.54 -1.44286 -0.549628 0
M  V30 22368 H 2058.5 -1.90229 -3.63762 0
M  V30 22369 H 2057.16 -0.921738 -3.00271 0
M  V30 22370 H 2056.35 -3.09344 -3.97897 0
M  V30 22371 H 2055.95 -2.98873 -2.24836 0
M  V30 22372 H 2058.24 -4.58248 -4.99014 0
M  V30 22373 H 2059.19 -5.79597 -4.06784 0
M  V30 22374 H 2059.6 -4.06062 -3.9214 0
M  V30 22375 N 2058.99 0.615033 -1.45104 0
M  V30 22376 C 2059.94 1.72028 -1.49635 0
M  V30 22377 C 2060.93 1.56812 -0.36038 0
M  V30 22378 O 2062.12 1.66275 -0.606753 0
M  V30 22379 C 2059.25 3.10763 -1.45881 0
M  V30 22380 C 2058.33 3.31391 -2.64653 0
M  V30 22381 N 2058.73 3.22312 -3.89806 0
M  V30 22382 C 2057.02 3.62238 -2.60191 0
M  V30 22383 C 2057.72 3.44068 -4.69033 0
M  V30 22384 N 2056.7 3.67706 -4.00366 0
M  V30 22385 H 2060.5 1.63491 -2.44229 0
M  V30 22386 H 2058.02 0.818045 -1.40292 0
M  V30 22387 H 2060.01 3.90044 -1.47212 0
M  V30 22388 H 2058.67 3.20454 -0.523376 0
M  V30 22389 H 2059.68 3.00877 -4.21537 0
M  V30 22390 H 2056.36 3.78813 -1.7552 0
M  V30 22391 H 2057.75 3.42506 -5.78048 0
M  V30 22392 N 2060.47 1.3227 0.85688 0
M  V30 22393 C 2061.89 1.11212 1.14473 0
M  V30 22394 C 2062.09 -0.108857 2.01206 0
M  V30 22395 O 2061.14 -0.7944 2.39678 0
M  V30 22396 C 2062.46 2.39046 1.82421 0
M  V30 22397 C 2064 2.44782 1.95066 0
M  V30 22398 C 2064.48 3.72531 2.66429 0
M  V30 22399 N 2065.97 3.735 2.73956 0
M  V30 22400 C 2066.71 4.69049 3.29819 0
M  V30 22401 N 2066.2 5.74963 3.86509 0
M  V30 22402 N 2067.99 4.5655 3.27901 0
M  V30 22403 H 2060.15 2.10557 0.279231 0
M  V30 22404 H 2062.41 0.929507 0.186337 0
M  V30 22405 H 2062.11 3.28299 1.26145 0
M  V30 22406 H 2061.99 2.49838 2.82596 0
M  V30 22407 H 2064.38 1.5599 2.50502 0
M  V30 22408 H 2064.46 2.37944 0.938939 0
M  V30 22409 H 2064.1 4.61696 2.11658 0
M  V30 22410 H 2064.03 3.76639 3.68036 0
M  V30 22411 H 2066.52 2.96945 2.33735 0
M  V30 22412 H 2066.83 6.43931 4.27285 0
M  V30 22413 H 2065.18 5.7872 3.84848 0
M  V30 22414 H 2068.37 3.72973 2.82858 0
M  V30 22415 H 2068.54 5.31189 3.71136 0
M  V30 22416 N 2061.95 -1.07287 1.15444 0
M  V30 22417 C 2062.9 -2.14506 0.85181 0
M  V30 22418 C 2063.87 -1.64945 -0.195533 0
M  V30 22419 O 2065.05 -1.90696 -0.0629401 0
M  V30 22420 C 2062.19 -3.43341 0.347981 0
M  V30 22421 C 2061.3 -4.0669 1.45697 0
M  V30 22422 C 2060.44 -5.23361 0.9092 0
M  V30 22423 C 2059.48 -5.78673 1.99508 0
M  V30 22424 N 2058.62 -6.86675 1.46364 0
M  V30 22425 H 2063.46 -2.39733 1.77008 0
M  V30 22426 H 2060.99 -1.17635 0.883195 0
M  V30 22427 H 2062.95 -4.17183 0.0375747 0
M  V30 22428 H 2061.58 -3.18363 -0.53337 0
M  V30 22429 H 2060.63 -3.30495 1.88355 0
M  V30 22430 H 2061.94 -4.43806 2.2768 0
M  V30 22431 H 2061.1 -6.04189 0.551375 0
M  V30 22432 H 2059.84 -4.87665 0.0585544 0
M  V30 22433 H 2058.84 -4.9649 2.36173 0
M  V30 22434 H 2060.07 -6.16425 2.84952 0
M  V30 22435 H 2058.01 -6.52916 0.635365 0
M  V30 22436 H 2057.93 -7.22678 2.21973 0
M  V30 22437 H 2059.2 -7.71206 1.13408 0
M  V30 22438 N 2063.43 -0.951342 -1.25647 0
M  V30 22439 C 2064.67 -0.605246 -1.93558 0
M  V30 22440 C 2065.01 0.85507 -1.74362 0
M  V30 22441 O 2064.28 1.61308 -1.08674 0
M  V30 22442 C 2064.56 -0.960718 -3.47048 0
M  V30 22443 C 2064.42 -2.47652 -3.75484 0
M  V30 22444 C 2065.74 -0.483409 -4.37437 0
M  V30 22445 H 2062.86 -0.22136 -0.702971 0
M  V30 22446 H 2065.5 -1.1874 -1.48327 0
M  V30 22447 H 2063.65 -0.465324 -3.85703 0
M  V30 22448 H 2065.32 -3.04543 -3.46484 0
M  V30 22449 H 2063.56 -2.91564 -3.21205 0
M  V30 22450 H 2064.23 -2.67575 -4.82812 0
M  V30 22451 H 2066.71 -0.908309 -4.06065 0
M  V30 22452 H 2065.59 -0.760858 -5.43601 0
M  V30 22453 H 2065.85 0.616645 -4.37778 0
M  V30 22454 N 2064.91 1.40216 -0.719531 0
M  V30 22455 C 2066.15 2.00047 -0.25771 0
M  V30 22456 C 2066.47 1.57718 1.15692 0
M  V30 22457 O 2067.67 2.10275 1.71746 0
M  V30 22458 C 2066.13 3.57559 -0.409824 0
M  V30 22459 C 2065.74 4.08859 -1.83134 0
M  V30 22460 C 2067.48 4.24499 -0.00899594 0
M  V30 22461 C 2065.39 5.58889 -1.93383 0
M  V30 22462 H 2064.32 0.748293 -0.0925975 0
M  V30 22463 H 2066.97 1.60406 -0.891188 0
M  V30 22464 H 2065.35 3.9492 0.292302 0
M  V30 22465 H 2066.53 3.82867 -2.56417 0
M  V30 22466 H 2064.84 3.54529 -2.18399 0
M  V30 22467 H 2067.44 5.34661 -0.0647997 0
M  V30 22468 H 2067.78 4.03267 1.0335 0
M  V30 22469 H 2068.31 3.92258 -0.66171 0
M  V30 22470 H 2065.05 5.8498 -2.95767 0
M  V30 22471 H 2064.57 5.86733 -1.24517 0
M  V30 22472 H 2066.25 6.24054 -1.70778 0
M  V30 22473 N 2066.38 0.466004 1.50553 0
M  V30 22474 C 2067.29 -0.33625 2.32178 0
M  V30 22475 C 2068.31 -1.00081 1.42337 0
M  V30 22476 O 2069.49 -0.989904 1.75393 0
M  V30 22477 C 2066.55 -1.40682 3.16875 0
M  V30 22478 C 2065.61 -0.759384 4.2253 0
M  V30 22479 C 2064.84 -1.77894 5.03179 0
M  V30 22480 O 2065.07 -3.00483 4.84836 0
M  V30 22481 O 2064 -1.35358 5.86483 0
M  V30 22482 H 2067.83 0.330908 3.01892 0
M  V30 22483 H 2065.41 0.22795 1.47651 0
M  V30 22484 H 2067.29 -2.02704 3.69444 0
M  V30 22485 H 2065.97 -2.05753 2.49894 0
M  V30 22486 H 2064.88 -0.100338 3.73965 0
M  V30 22487 H 2066.21 -0.151694 4.91966 0
M  V30 22488 N 2067.86 -1.56346 0.198413 0
M  V30 22489 C 2068.77 -2.22855 -0.733001 0
M  V30 22490 C 2069.79 -1.22868 -1.23205 0
M  V30 22491 O 2070.96 -1.55615 -1.27852 0
M  V30 22492 C 2068.03 -2.87746 -1.93399 0
M  V30 22493 C 2067.09 -4.03012 -1.47919 0
M  V30 22494 C 2066.32 -4.64799 -2.62293 0
M  V30 22495 O 2066.55 -4.25516 -3.79859 0
M  V30 22496 O 2065.48 -5.54206 -2.34817 0
M  V30 22497 H 2069.31 -3.03063 -0.196563 0
M  V30 22498 H 2066.89 -1.49368 -0.0310254 0
M  V30 22499 H 2068.77 -3.28788 -2.63584 0
M  V30 22500 H 2067.45 -2.10514 -2.45897 0
M  V30 22501 H 2066.35 -3.66586 -0.746038 0
M  V30 22502 H 2067.69 -4.81917 -1.00084 0
M  V30 22503 N 2069.34 0.0751653 -1.57421 0
M  V30 22504 C 2070.59 0.773759 -1.86268 0
M  V30 22505 C 2070.9 1.78911 -0.79058 0
M  V30 22506 O 2072.11 2.53703 -0.966795 0
M  V30 22507 C 2070.56 1.42704 -3.30399 0
M  V30 22508 C 2070.17 0.450427 -4.4573 0
M  V30 22509 C 2071.92 2.10819 -3.6845 0
M  V30 22510 C 2069.82 1.10943 -5.80901 0
M  V30 22511 H 2068.75 0.292727 -0.694858 0
M  V30 22512 H 2071.4 0.0269952 -1.8348 0
M  V30 22513 H 2069.79 2.22195 -3.27789 0
M  V30 22514 H 2070.96 -0.314427 -4.59726 0
M  V30 22515 H 2069.28 -0.126101 -4.16209 0
M  V30 22516 H 2071.87 2.60894 -4.66732 0
M  V30 22517 H 2072.22 2.90611 -2.98079 0
M  V30 22518 H 2072.75 1.38164 -3.73036 0
M  V30 22519 H 2069.49 0.351912 -6.54555 0
M  V30 22520 H 2069.01 1.84523 -5.70711 0
M  V30 22521 H 2070.69 1.63022 -6.26125 0
M  V30 22522 N 2070.82 1.53744 0.346476 0
M  V30 22523 C 2072.04 1.75095 1.1116 0
M  V30 22524 C 2072.47 0.487459 1.81674 0
M  V30 22525 O 2071.83 -0.55973 1.72443 0
M  V30 22526 C 2071.87 2.92927 2.103 0
M  V30 22527 O 2070.98 2.62871 3.17762 0
M  V30 22528 H 2070.32 0.580905 0.321629 0
M  V30 22529 H 2072.85 2.00696 0.397762 0
M  V30 22530 H 2072.86 3.19633 2.53572 0
M  V30 22531 H 2071.53 3.84566 1.58372 0
M  V30 22532 H 2070.11 2.47043 2.79328 0
M  V30 22533 N 2072.3 -0.607329 1.45428 0
M  V30 22534 C 2073.54 -1.36363 1.49163 0
M  V30 22535 C 2073.87 -1.94533 0.134827 0
M  V30 22536 O 2073.14 -1.77174 -0.835838 0
M  V30 22537 H 2071.72 -0.506225 0.549314 0
M  V30 22538 H 2074.38 -0.713138 1.81385 0
M  V30 22539 H 2073.47 -2.18292 2.23058 0
M  V30 22540 N 2073.77 -1.32722 -0.849853 0
M  V30 22541 C 2075.02 -1.23312 -1.60121 0
M  V30 22542 C 2075.34 0.203882 -1.93931 0
M  V30 22543 O 2074.61 1.12986 -1.60035 0
M  V30 22544 H 2073.19 -0.453413 -0.593654 0
M  V30 22545 H 2075.86 -1.66305 -1.0163 0
M  V30 22546 H 2074.95 -1.81913 -2.53602 0
M  V30 22547 N 2075.25 1.06673 -1.16011 0
M  V30 22548 C 2076.48 1.83106 -0.963322 0
M  V30 22549 C 2076.9 1.82372 0.488451 0
M  V30 22550 O 2076.25 1.24012 1.33893 0
M  V30 22551 C 2076.3 3.29888 -1.47838 0
M  V30 22552 O 2076.02 3.30717 -2.87328 0
M  V30 22553 C 2077.53 4.23065 -1.32405 0
M  V30 22554 H 2074.75 0.577476 -0.341705 0
M  V30 22555 H 2077.29 1.34611 -1.53948 0
M  V30 22556 H 2075.44 3.75708 -0.944585 0
M  V30 22557 H 2075.86 4.22475 -3.1083 0
M  V30 22558 H 2077.33 5.24098 -1.73279 0
M  V30 22559 H 2077.81 4.38375 -0.269104 0
M  V30 22560 H 2078.42 3.83088 -1.84726 0
M  V30 22561 N 2076.73 0.957992 1.25141 0
M  V30 22562 C 2077.68 0.472054 2.2776 0
M  V30 22563 C 2078.67 -0.459404 1.63052 0
M  V30 22564 O 2079.88 -0.335763 1.76841 0
M  V30 22565 H 2076.25 0.134161 0.739936 0
M  V30 22566 H 2078.22 1.34973 2.6613 0
M  V30 22567 C 2076.97 -0.231515 3.46928 0
M  V30 22568 H 2076.3 0.476093 3.96955 0
M  V30 22569 H 2077.74 -0.535494 4.20605 0
M  V30 22570 C 2076.2 -1.45518 3.03852 0
M  V30 22571 O 2076.73 -2.55274 3.10159 0
M  V30 22572 N 2074.93 -1.31773 2.59006 0
M  V30 22573 H 2074.48 -0.424725 2.54074 0
M  V30 22574 H 2074.44 -2.13762 2.30549 0
M  V30 22575 N 2078.21 -1.39832 0.726957 0
M  V30 22576 C 2079.46 -1.99907 0.268315 0
M  V30 22577 C 2079.77 -1.58329 -1.14854 0
M  V30 22578 O 2080.98 -2.11183 -1.70628 0
M  V30 22579 C 2079.43 -3.57337 0.428781 0
M  V30 22580 C 2079.04 -4.07882 1.853 0
M  V30 22581 C 2080.78 -4.24488 0.031508 0
M  V30 22582 C 2078.69 -5.57856 1.96344 0
M  V30 22583 H 2077.62 -0.747791 0.0965646 0
M  V30 22584 H 2080.27 -1.59931 0.899682 0
M  V30 22585 H 2078.65 -3.95069 -0.271354 0
M  V30 22586 H 2079.83 -3.81502 2.58444 0
M  V30 22587 H 2078.14 -3.53366 2.20276 0
M  V30 22588 H 2080.74 -5.34619 0.0931531 0
M  V30 22589 H 2081.08 -4.0381 -1.01209 0
M  V30 22590 H 2081.62 -3.91901 0.682503 0
M  V30 22591 H 2078.36 -5.83404 2.98865 0
M  V30 22592 H 2077.88 -5.86064 1.27627 0
M  V30 22593 H 2079.55 -6.2314 1.74085 0
M  V30 22594 N 2079.69 -0.473982 -1.50304 0
M  V30 22595 C 2080.94 0.0817089 -2.01534 0
M  V30 22596 C 2081.25 1.40522 -1.36062 0
M  V30 22597 O 2082.45 2.04602 -1.78466 0
M  V30 22598 C 2080.91 0.196125 -3.59365 0
M  V30 22599 C 2080.52 -1.11913 -4.33797 0
M  V30 22600 C 2082.26 0.70362 -4.18628 0
M  V30 22601 C 2080.17 -0.968348 -5.83418 0
M  V30 22602 H 2079.1 0.0343111 -0.753219 0
M  V30 22603 H 2081.75 -0.609316 -1.73088 0
M  V30 22604 H 2080.13 0.950997 -3.84411 0
M  V30 22605 H 2081.31 -1.88518 -4.20473 0
M  V30 22606 H 2079.62 -1.55796 -3.86156 0
M  V30 22607 H 2082.22 0.833506 -5.28164 0
M  V30 22608 H 2082.56 1.69569 -3.802 0
M  V30 22609 H 2083.09 0.00605141 -3.978 0
M  V30 22610 H 2079.83 -1.93387 -6.26324 0
M  V30 22611 H 2079.35 -0.242725 -5.99309 0
M  V30 22612 H 2081.03 -0.636128 -6.43865 0
M  V30 22613 N 2081.16 1.56239 -0.206702 0
M  V30 22614 C 2082.39 2.02736 0.437344 0
M  V30 22615 C 2082.81 1.08577 1.53599 0
M  V30 22616 O 2082.17 0.0712895 1.8116 0
M  V30 22617 C 2082.22 3.47587 0.959974 0
M  V30 22618 O 2081.32 3.56556 2.07223 0
M  V30 22619 H 2080.67 0.656297 0.100845 0
M  V30 22620 H 2083.2 2.02066 -0.320985 0
M  V30 22621 H 2083.21 3.87612 1.27361 0
M  V30 22622 H 2081.88 4.15608 0.15578 0
M  V30 22623 H 2080.46 3.28412 1.76635 0
M  V30 22624 N 2082.64 -0.0668159 1.57458 0
M  V30 22625 C 2084.06 -0.421716 1.53928 0
M  V30 22626 C 2084.26 -1.78879 0.927602 0
M  V30 22627 O 2083.31 -2.46826 0.532256 0
M  V30 22628 C 2084.63 -0.358209 2.98559 0
M  V30 22629 C 2086.18 -0.438036 3.0992 0
M  V30 22630 C 2086.65 -0.404384 4.56211 0
M  V30 22631 N 2088.14 -0.464311 4.60867 0
M  V30 22632 C 2088.88 -0.460566 5.71547 0
M  V30 22633 N 2088.37 -0.41134 6.91578 0
M  V30 22634 N 2090.17 -0.507495 5.59804 0
M  V30 22635 H 2082.32 0.828281 1.95584 0
M  V30 22636 H 2084.58 0.311307 0.895428 0
M  V30 22637 H 2084.29 0.579727 3.46889 0
M  V30 22638 H 2084.16 -1.16651 3.58709 0
M  V30 22639 H 2086.55 -1.3664 2.6156 0
M  V30 22640 H 2086.63 0.398926 2.5267 0
M  V30 22641 H 2086.27 0.520148 5.0523 0
M  V30 22642 H 2086.2 -1.25895 5.1133 0
M  V30 22643 H 2088.69 -0.506402 3.74492 0
M  V30 22644 H 2089.01 -0.412545 7.71698 0
M  V30 22645 H 2087.35 -0.377953 6.93972 0
M  V30 22646 H 2090.54 -0.543679 4.64932 0
M  V30 22647 H 2090.71 -0.501107 6.4606 0
M  V30 22648 N 2084.12 -1.53926 -0.338317 0
M  V30 22649 C 2085.05 -1.85269 -1.42119 0
M  V30 22650 C 2086.03 -0.708238 -1.54654 0
M  V30 22651 O 2087.22 -0.960631 -1.68777 0
M  V30 22652 C 2084.35 -2.06693 -2.79097 0
M  V30 22653 C 2083.3 -3.22519 -2.81364 0
M  V30 22654 C 2082.63 -3.29286 -4.21277 0
M  V30 22655 C 2083.93 -4.6051 -2.46431 0
M  V30 22656 H 2085.62 -2.75957 -1.16137 0
M  V30 22657 H 2083.17 -1.32781 -0.557249 0
M  V30 22658 H 2085.12 -2.27204 -3.54903 0
M  V30 22659 H 2083.84 -1.1274 -3.06524 0
M  V30 22660 H 2082.5 -3.01872 -2.08011 0
M  V30 22661 H 2082.15 -2.32919 -4.45823 0
M  V30 22662 H 2081.85 -4.07123 -4.23704 0
M  V30 22663 H 2083.38 -3.52014 -4.98918 0
M  V30 22664 H 2084.79 -4.80999 -3.1195 0
M  V30 22665 H 2083.19 -5.40788 -2.60132 0
M  V30 22666 H 2084.26 -4.63762 -1.41607 0
M  V30 22667 N 2085.6 0.599608 -1.45748 0
M  V30 22668 C 2086.85 1.3604 -1.50403 0
M  V30 22669 C 2087.18 1.93632 -0.148419 0
M  V30 22670 O 2086.45 1.75516 0.838118 0
M  V30 22671 C 2086.74 2.50237 -2.58946 0
M  V30 22672 C 2086.59 1.9779 -4.03979 0
M  V30 22673 C 2087.91 3.52344 -2.63708 0
M  V30 22674 H 2085.03 0.49329 -0.547571 0
M  V30 22675 H 2087.67 0.675178 -1.77599 0
M  V30 22676 H 2085.82 3.0869 -2.35888 0
M  V30 22677 H 2087.49 1.43925 -4.38273 0
M  V30 22678 H 2085.73 1.28734 -4.14258 0
M  V30 22679 H 2086.41 2.80147 -4.75628 0
M  V30 22680 H 2088.88 3.03746 -2.8439 0
M  V30 22681 H 2087.76 4.29728 -3.41504 0
M  V30 22682 H 2088.02 4.08481 -1.69103 0
M  V30 22683 N 2087.08 1.33171 0.842803 0
M  V30 22684 C 2088.04 1.23019 1.93388 0
M  V30 22685 C 2089.04 0.15022 1.60097 0
M  V30 22686 O 2090.23 0.401472 1.69511 0
M  V30 22687 C 2087.36 0.89468 3.2895 0
M  V30 22688 H 2088.56 2.19997 2.03817 0
M  V30 22689 H 2086.11 1.17173 1.03442 0
M  V30 22690 H 2086.84 -0.0727774 3.24218 0
M  V30 22691 H 2086.63 1.67563 3.54493 0
M  V30 22692 H 2088.12 0.848284 4.08894 0
M  V30 22693 N 2088.56 -1.06056 1.16576 0
M  V30 22694 C 2089.52 -2.11761 0.876928 0
M  V30 22695 C 2090.52 -1.60281 -0.129123 0
M  V30 22696 O 2091.71 -1.73901 0.102046 0
M  V30 22697 C 2088.84 -3.3947 0.311872 0
M  V30 22698 H 2090.03 -2.38816 1.81403 0
M  V30 22699 H 2087.59 -1.2216 0.975021 0
M  V30 22700 H 2088.32 -3.18066 -0.632797 0
M  V30 22701 H 2088.11 -3.78143 1.03683 0
M  V30 22702 H 2089.6 -4.17404 0.12782 0
M  V30 22703 N 2090.03 -0.964615 -1.24631 0
M  V30 22704 C 2090.96 -0.511091 -2.27838 0
M  V30 22705 C 2091.94 0.447692 -1.64103 0
M  V30 22706 O 2093.13 0.344485 -1.9112 0
M  V30 22707 C 2090.26 0.202467 -3.46709 0
M  V30 22708 C 2089.21 -0.672032 -4.22691 0
M  V30 22709 C 2088.54 0.172842 -5.34421 0
M  V30 22710 C 2089.84 -1.9551 -4.84327 0
M  V30 22711 H 2091.53 -1.37371 -2.66025 0
M  V30 22712 H 2089.08 -0.661983 -1.27882 0
M  V30 22713 H 2091.03 0.530942 -4.18042 0
M  V30 22714 H 2089.76 1.09942 -3.07539 0
M  V30 22715 H 2088.42 -0.983734 -3.53155 0
M  V30 22716 H 2088.06 1.06985 -4.91491 0
M  V30 22717 H 2087.76 -0.409046 -5.86175 0
M  V30 22718 H 2089.29 0.496057 -6.08582 0
M  V30 22719 H 2090.7 -1.69241 -5.4775 0
M  V30 22720 H 2089.1 -2.48346 -5.46301 0
M  V30 22721 H 2090.17 -2.65197 -4.05954 0
M  V30 22722 N 2091.51 1.39445 -0.734362 0
M  V30 22723 C 2092.76 1.99762 -0.278913 0
M  V30 22724 C 2093.07 1.58936 1.14012 0
M  V30 22725 O 2094.28 2.12085 1.69506 0
M  V30 22726 C 2092.74 3.57104 -0.447725 0
M  V30 22727 C 2092.34 4.06894 -1.87461 0
M  V30 22728 C 2094.09 4.24466 -0.0540192 0
M  V30 22729 C 2091.99 5.56806 -1.993 0
M  V30 22730 H 2090.92 0.747268 -0.100529 0
M  V30 22731 H 2093.58 1.59452 -0.908151 0
M  V30 22732 H 2091.96 3.95208 0.250399 0
M  V30 22733 H 2093.13 3.80126 -2.60463 0
M  V30 22734 H 2091.45 3.52193 -2.22147 0
M  V30 22735 H 2094.04 5.34562 -0.121504 0
M  V30 22736 H 2094.39 4.04341 0.990665 0
M  V30 22737 H 2094.92 3.91534 -0.703277 0
M  V30 22738 H 2091.66 5.8181 -3.01955 0
M  V30 22739 H 2091.18 5.85379 -1.30734 0
M  V30 22740 H 2092.86 6.22208 -1.77387 0
M  V30 22741 N 2092.99 0.481946 1.5005 0
M  V30 22742 C 2093.9 -0.311606 2.32521 0
M  V30 22743 C 2094.92 -0.985661 1.4339 0
M  V30 22744 O 2096.09 -0.971246 1.76433 0
M  V30 22745 C 2093.16 -1.37313 3.18349 0
M  V30 22746 C 2092.22 -0.714526 4.23312 0
M  V30 22747 C 2091.45 -1.72547 5.05038 0
M  V30 22748 O 2091.67 -2.95324 4.87996 0
M  V30 22749 O 2090.61 -1.2913 5.87885 0
M  V30 22750 H 2094.43 0.362909 3.01524 0
M  V30 22751 H 2092.02 0.243598 1.47401 0
M  V30 22752 H 2093.9 -1.98774 3.71573 0
M  V30 22753 H 2092.58 -2.03091 2.52063 0
M  V30 22754 H 2091.48 -0.0606687 3.74051 0
M  V30 22755 H 2092.82 -0.099506 4.92099 0
M  V30 22756 N 2094.47 -1.56127 0.214985 0
M  V30 22757 C 2095.4 -2.22991 -0.69263 0
M  V30 22758 C 2096.38 -1.19946 -1.20611 0
M  V30 22759 O 2097.56 -1.48512 -1.25131 0
M  V30 22760 C 2094.69 -2.90473 -1.90376 0
M  V30 22761 C 2093.65 -3.99933 -1.52439 0
M  V30 22762 C 2092.97 -4.54678 -2.81375 0
M  V30 22763 C 2094.27 -5.17323 -0.719325 0
M  V30 22764 H 2095.97 -2.99095 -0.135168 0
M  V30 22765 H 2093.51 -1.4386 -0.0635721 0
M  V30 22766 H 2095.47 -3.35938 -2.54408 0
M  V30 22767 H 2094.19 -2.11806 -2.48608 0
M  V30 22768 H 2092.85 -3.55189 -0.907557 0
M  V30 22769 H 2092.5 -3.72749 -3.37739 0
M  V30 22770 H 2092.2 -5.28549 -2.56729 0
M  V30 22771 H 2093.72 -5.02857 -3.46362 0
M  V30 22772 H 2095.14 -5.5921 -1.2632 0
M  V30 22773 H 2093.53 -5.97385 -0.570203 0
M  V30 22774 H 2094.6 -4.84117 0.275461 0
M  V30 22775 N 2095.95 0.0584645 -1.57492 0
M  V30 22776 C 2096.89 1.08667 -2.05655 0
M  V30 22777 C 2097.89 1.39265 -0.964446 0
M  V30 22778 O 2099.09 1.38515 -1.1495 0
M  V30 22779 H 2095.47 0.367834 -0.655898 0
M  V30 22780 H 2097.44 0.654416 -2.91136 0
M  V30 22781 C 2096.19 2.38807 -2.52718 0
M  V30 22782 H 2095.51 2.16117 -3.36353 0
M  V30 22783 H 2096.95 3.09167 -2.90158 0
M  V30 22784 C 2095.41 3.0571 -1.41573 0
M  V30 22785 O 2095.94 3.94342 -0.765316 0
M  V30 22786 N 2094.15 2.66551 -1.15754 0
M  V30 22787 H 2093.69 1.94564 -1.68827 0
M  V30 22788 H 2093.65 3.11636 -0.415957 0
M  V30 22789 N 2097.42 1.54103 0.330149 0
M  V30 22790 C 2098.67 1.73185 1.0667 0
M  V30 22791 C 2099.02 0.496012 1.85896 0
M  V30 22792 O 2098.32 -0.511524 1.84646 0
M  V30 22793 C 2098.51 2.94358 2.02702 0
M  V30 22794 C 2098.34 4.29608 1.32916 0
M  V30 22795 C 2097.11 4.93876 1.06841 0
M  V30 22796 C 2099.31 5.08825 0.748462 0
M  V30 22797 N 2097.29 6.1297 0.337775 0
M  V30 22798 C 2098.66 6.19821 0.149089 0
M  V30 22799 C 2100.72 4.93631 0.650627 0
M  V30 22800 C 2099.42 7.17281 -0.538618 0
M  V30 22801 C 2101.45 5.91395 -0.0233663 0
M  V30 22802 C 2100.81 7.01739 -0.611712 0
M  V30 22803 H 2096.91 0.686626 0.374258 0
M  V30 22804 H 2099.49 1.91553 0.348664 0
M  V30 22805 H 2097.66 2.77468 2.71783 0
M  V30 22806 H 2099.39 3.02098 2.69293 0
M  V30 22807 H 2096.15 4.53682 1.35903 0
M  V30 22808 H 2096.57 6.76999 -0.0132085 0
M  V30 22809 H 2101.21 4.08475 1.09122 0
M  V30 22810 H 2098.93 8.02 -0.991066 0
M  V30 22811 H 2102.52 5.81716 -0.0986164 0
M  V30 22812 H 2101.4 7.76089 -1.12497 0
M  V30 22813 N 2098.9 -0.59187 1.46064 0
M  V30 22814 C 2100.13 -1.38153 1.54688 0
M  V30 22815 C 2100.55 -1.87183 0.185547 0
M  V30 22816 O 2099.91 -1.61046 -0.832694 0
M  V30 22817 C 2099.96 -2.55134 2.54831 0
M  V30 22818 O 2099.06 -3.56279 2.077 0
M  V30 22819 H 2098.4 -0.41181 0.520873 0
M  V30 22820 H 2100.93 -0.718824 1.91557 0
M  V30 22821 H 2100.94 -3.02173 2.74145 0
M  V30 22822 H 2099.62 -2.188 3.53694 0
M  V30 22823 H 2098.2 -3.15782 1.98333 0
M  V30 22824 N 2100.38 -1.33616 -0.835729 0
M  V30 22825 C 2101.31 -1.18471 -1.95038 0
M  V30 22826 C 2102.29 -0.0794148 -1.62406 0
M  V30 22827 O 2103.48 -0.242229 -1.86937 0
M  V30 22828 C 2100.6 -0.817792 -3.28679 0
M  V30 22829 C 2099.65 -1.93103 -3.80281 0
M  V30 22830 S 2100.48 -3.5425 -4.0158 0
M  V30 22831 C 2101.64 -3.19572 -5.38167 0
M  V30 22832 H 2101.87 -2.12826 -2.07587 0
M  V30 22833 H 2099.4 -1.18495 -0.989865 0
M  V30 22834 H 2101.36 -0.612875 -4.05899 0
M  V30 22835 H 2100.02 0.107213 -3.13917 0
M  V30 22836 H 2099.22 -1.62774 -4.76991 0
M  V30 22837 H 2098.82 -2.09277 -3.09966 0
M  V30 22838 H 2101.11 -2.70592 -6.21117 0
M  V30 22839 H 2102.05 -4.15375 -5.73471 0
M  V30 22840 H 2102.46 -2.56087 -5.0307 0
M  V30 22841 N 2101.86 1.05436 -1.17136 0
M  V30 22842 C 2102.77 2.16633 -0.900413 0
M  V30 22843 C 2103.78 1.7351 0.130523 0
M  V30 22844 O 2104.96 2.01342 -0.0481629 0
M  V30 22845 C 2102.03 3.4421 -0.414754 0
M  V30 22846 C 2101.09 4.01793 -1.51198 0
M  V30 22847 C 2100.32 5.23281 -1.0494 0
M  V30 22848 O 2100.54 5.70317 0.0974405 0
M  V30 22849 O 2099.48 5.73041 -1.8414 0
M  V30 22850 H 2103.3 2.42336 -1.83049 0
M  V30 22851 H 2100.89 1.15137 -0.952042 0
M  V30 22852 H 2102.77 4.21128 -0.151319 0
M  V30 22853 H 2101.44 3.20013 0.487199 0
M  V30 22854 H 2100.35 3.26326 -1.82926 0
M  V30 22855 H 2101.68 4.30304 -2.38955 0
M  V30 22856 N 2103.34 0.971211 1.24118 0
M  V30 22857 C 2104.25 0.511904 2.28947 0
M  V30 22858 C 2105.26 -0.428843 1.68633 0
M  V30 22859 O 2106.44 -0.301023 1.99138 0
M  V30 22860 C 2103.5 -0.187222 3.46194 0
M  V30 22861 C 2102.56 0.793786 4.21898 0
M  V30 22862 C 2101.8 0.12793 5.33547 0
M  V30 22863 O 2102.02 -1.08301 5.60024 0
M  V30 22864 O 2100.95 0.821863 5.96263 0
M  V30 22865 H 2104.78 1.38346 2.70359 0
M  V30 22866 H 2102.37 0.738411 1.29876 0
M  V30 22867 H 2104.25 -0.579802 4.17392 0
M  V30 22868 H 2102.92 -1.03369 3.06752 0
M  V30 22869 H 2101.83 1.23689 3.53061 0
M  V30 22870 H 2103.16 1.60877 4.65166 0
M  V30 22871 N 2104.81 -1.39054 0.741747 0
M  V30 22872 C 2105.72 -2.34352 0.107946 0
M  V30 22873 C 2106.74 -1.58666 -0.71422 0
M  V30 22874 O 2107.92 -1.90923 -0.641124 0
M  V30 22875 C 2104.98 -3.3773 -0.783547 0
M  V30 22876 C 2104.04 -4.29269 0.0516392 0
M  V30 22877 C 2103.28 -5.27709 -0.797398 0
M  V30 22878 O 2103.5 -5.3283 -2.03588 0
M  V30 22879 O 2102.43 -6.01489 -0.222478 0
M  V30 22880 H 2106.26 -2.90223 0.894677 0
M  V30 22881 H 2103.84 -1.40696 0.502494 0
M  V30 22882 H 2105.73 -4.01059 -1.29342 0
M  V30 22883 H 2104.4 -2.84233 -1.54898 0
M  V30 22884 H 2103.31 -3.6914 0.607193 0
M  V30 22885 H 2104.64 -4.85989 0.779446 0
M  V30 22886 N 2106.29 -0.489897 -1.49792 0
M  V30 22887 C 2107.2 0.29927 -2.32683 0
M  V30 22888 C 2108.22 0.978042 -1.43911 0
M  V30 22889 O 2109.39 0.961875 -1.76946 0
M  V30 22890 C 2106.46 1.35623 -3.19073 0
M  V30 22891 C 2105.52 0.692067 -4.23685 0
M  V30 22892 C 2104.75 1.69866 -5.05946 0
M  V30 22893 O 2104.98 2.92732 -4.89555 0
M  V30 22894 O 2103.91 1.2601 -5.88562 0
M  V30 22895 H 2107.74 -0.378894 -3.01327 0
M  V30 22896 H 2105.32 -0.251411 -1.47269 0
M  V30 22897 H 2107.2 1.96801 -3.72622 0
M  V30 22898 H 2105.88 2.01752 -2.53136 0
M  V30 22899 H 2104.79 0.040831 -3.74078 0
M  V30 22900 H 2106.12 0.0734074 -4.92145 0
M  V30 22901 N 2107.77 1.56011 -0.223262 0
M  V30 22902 C 2109 2.03189 0.415817 0
M  V30 22903 C 2109.42 1.102 1.52439 0
M  V30 22904 O 2108.78 0.0904999 1.81074 0
M  V30 22905 C 2108.83 3.48586 0.923053 0
M  V30 22906 O 2107.93 3.58734 2.03429 0
M  V30 22907 H 2107.27 0.65733 0.0938783 0
M  V30 22908 H 2109.8 2.01715 -0.342399 0
M  V30 22909 H 2109.81 3.88941 1.23243 0
M  V30 22910 H 2108.49 4.1575 0.11169 0
M  V30 22911 H 2107.06 3.30267 1.73142 0
M  V30 22912 N 2109.25 -0.0501116 1.5752 0
M  V30 22913 C 2110.2 -1.05718 2.05164 0
M  V30 22914 C 2111.17 -1.37182 0.936492 0
M  V30 22915 O 2112.35 -1.4788 1.20565 0
M  V30 22916 C 2109.49 -2.3594 2.51846 0
M  V30 22917 C 2108.6 -2.10818 3.77067 0
M  V30 22918 C 2107.74 -3.34759 4.12444 0
M  V30 22919 C 2106.78 -3.05097 5.30643 0
M  V30 22920 N 2105.91 -4.21429 5.61553 0
M  V30 22921 H 2110.75 -0.643931 2.9096 0
M  V30 22922 H 2108.29 -0.30636 1.43874 0
M  V30 22923 H 2110.25 -3.11999 2.7697 0
M  V30 22924 H 2108.88 -2.75027 1.68997 0
M  V30 22925 H 2107.93 -1.25352 3.59153 0
M  V30 22926 H 2109.24 -1.84923 4.63255 0
M  V30 22927 H 2108.4 -4.19199 4.38585 0
M  V30 22928 H 2107.14 -3.63748 3.24867 0
M  V30 22929 H 2106.14 -2.19056 5.04276 0
M  V30 22930 H 2107.37 -2.77407 6.19856 0
M  V30 22931 H 2105.31 -4.5041 4.76935 0
M  V30 22932 H 2105.23 -3.98884 6.42205 0
M  V30 22933 H 2106.5 -5.06804 5.92258 0
M  V30 22934 N 2110.73 -1.54276 -0.321972 0
M  V30 22935 C 2111.97 -1.72216 -1.05764 0
M  V30 22936 C 2112.3 -0.499518 -1.88494 0
M  V30 22937 O 2111.57 0.486466 -1.89764 0
M  V30 22938 H 2110.15 -0.634976 -0.393465 0
M  V30 22939 H 2112.81 -1.91583 -0.358025 0
M  V30 22940 H 2111.9 -2.60245 -1.72275 0
M  V30 22941 N 2112.2 0.584116 -1.46376 0
M  V30 22942 C 2113.13 1.70354 -1.59693 0
M  V30 22943 C 2114.12 1.64113 -0.447325 0
M  V30 22944 O 2115.3 1.82151 -0.673394 0
M  V30 22945 C 2112.43 3.08993 -1.58558 0
M  V30 22946 C 2111.38 3.30064 -2.72473 0
M  V30 22947 C 2110.71 4.69216 -2.56399 0
M  V30 22948 C 2112.01 3.18035 -4.14308 0
M  V30 22949 H 2113.7 1.59465 -2.53399 0
M  V30 22950 H 2111.25 0.765749 -1.21952 0
M  V30 22951 H 2113.2 3.87126 -1.66468 0
M  V30 22952 H 2111.93 3.20778 -0.613949 0
M  V30 22953 H 2110.59 2.5433 -2.64029 0
M  V30 22954 H 2110.23 4.77764 -1.57323 0
M  V30 22955 H 2109.93 4.84267 -3.32805 0
M  V30 22956 H 2111.46 5.49519 -2.66198 0
M  V30 22957 H 2112.87 3.86014 -4.2387 0
M  V30 22958 H 2111.27 3.44608 -4.91289 0
M  V30 22959 H 2112.34 2.15135 -4.34563 0
M  V30 22960 N 2113.68 1.34058 0.828631 0
M  V30 22961 C 2114.63 1.25161 1.93916 0
M  V30 22962 C 2115.6 0.128041 1.65606 0
M  V30 22963 O 2116.79 0.308053 1.88297 0
M  V30 22964 C 2113.93 1.00718 3.30075 0
M  V30 22965 C 2113.04 2.21797 3.70716 0
M  V30 22966 C 2112.17 1.90684 4.95795 0
M  V30 22967 C 2111.21 3.07938 5.29 0
M  V30 22968 N 2110.35 2.76746 6.45257 0
M  V30 22969 H 2115.19 2.20137 2.00857 0
M  V30 22970 H 2112.73 1.09455 0.982754 0
M  V30 22971 H 2114.68 0.845864 4.08535 0
M  V30 22972 H 2113.31 0.0941257 3.22663 0
M  V30 22973 H 2112.37 2.48869 2.87695 0
M  V30 22974 H 2113.68 3.09421 3.91229 0
M  V30 22975 H 2112.83 1.71255 5.82028 0
M  V30 22976 H 2111.57 1.00312 4.77272 0
M  V30 22977 H 2110.58 3.27969 4.41267 0
M  V30 22978 H 2111.8 3.9908 5.49465 0
M  V30 22979 H 2109.75 1.88944 6.28201 0
M  V30 22980 H 2109.66 3.57901 6.65915 0
M  V30 22981 H 2110.93 2.60808 7.34574 0
M  V30 22982 N 2115.16 -1.04814 1.17694 0
M  V30 22983 C 2116.11 -2.12651 0.897118 0
M  V30 22984 C 2117.08 -1.65323 -0.160501 0
M  V30 22985 O 2118.26 -1.90787 -0.0224765 0
M  V30 22986 C 2115.4 -3.42526 0.420731 0
M  V30 22987 C 2114.52 -4.03508 1.54291 0
M  V30 22988 C 2113.65 -5.21315 1.02001 0
M  V30 22989 C 2112.69 -5.74311 2.11738 0
M  V30 22990 N 2111.83 -6.83415 1.60897 0
M  V30 22991 H 2116.67 -2.35925 1.82054 0
M  V30 22992 H 2114.2 -1.15736 0.907948 0
M  V30 22993 H 2116.16 -4.1701 0.126057 0
M  V30 22994 H 2114.79 -3.19423 -0.46572 0
M  V30 22995 H 2113.84 -3.26425 1.95323 0
M  V30 22996 H 2115.16 -4.38876 2.37042 0
M  V30 22997 H 2114.31 -6.02884 0.679408 0
M  V30 22998 H 2113.05 -4.87431 0.161982 0
M  V30 22999 H 2112.05 -4.91369 2.46651 0
M  V30 23000 H 2113.28 -6.10242 2.97963 0
M  V30 23001 H 2111.23 -6.51421 0.773715 0
M  V30 23002 H 2111.14 -7.17807 2.37252 0
M  V30 23003 H 2112.41 -7.68627 1.29741 0
M  V30 23004 N 2116.64 -0.977779 -1.23601 0
M  V30 23005 C 2117.89 -0.645211 -1.91946 0
M  V30 23006 C 2118.21 0.82092 -1.76327 0
M  V30 23007 O 2117.47 1.60733 -1.1164 0
M  V30 23008 C 2117.77 -0.978335 -3.43749 0
M  V30 23009 C 2117.43 -2.43425 -3.79546 0
M  V30 23010 C 2116.1 -2.83215 -3.89028 0
M  V30 23011 C 2118.45 -3.37865 -3.96859 0
M  V30 23012 C 2115.78 -4.16465 -4.13248 0
M  V30 23013 C 2118.13 -4.70755 -4.22578 0
M  V30 23014 C 2116.79 -5.10308 -4.30281 0
M  V30 23015 H 2116.06 -0.236099 -0.70238 0
M  V30 23016 H 2118.71 -1.23115 -1.4668 0
M  V30 23017 H 2117.01 -0.310278 -3.90569 0
M  V30 23018 H 2118.71 -0.699263 -3.94856 0
M  V30 23019 H 2115.3 -2.11576 -3.72738 0
M  V30 23020 H 2119.49 -3.08303 -3.88926 0
M  V30 23021 H 2114.74 -4.4672 -4.17434 0
M  V30 23022 H 2118.92 -5.43893 -4.34918 0
M  V30 23023 H 2116.54 -6.13581 -4.48801 0
M  V30 23024 N 2118.12 1.38658 -0.749111 0
M  V30 23025 C 2119.35 2.04208 -0.313503 0
M  V30 23026 C 2119.76 1.56615 1.06153 0
M  V30 23027 O 2119.1 0.732462 1.68466 0
M  V30 23028 C 2119.16 3.58611 -0.252636 0
M  V30 23029 C 2118.82 4.29241 -1.56847 0
M  V30 23030 C 2119.82 4.5492 -2.51683 0
M  V30 23031 C 2117.51 4.67517 -1.83667 0
M  V30 23032 C 2119.5 5.17901 -3.71561 0
M  V30 23033 C 2117.19 5.30223 -3.0382 0
M  V30 23034 C 2118.19 5.5535 -3.97587 0
M  V30 23035 O 2117.87 6.16752 -5.15628 0
M  V30 23036 H 2117.61 0.662881 -0.132533 0
M  V30 23037 H 2120.16 1.7842 -1.01762 0
M  V30 23038 H 2118.39 3.83353 0.507689 0
M  V30 23039 H 2120.08 4.05612 0.152857 0
M  V30 23040 H 2120.84 4.25783 -2.32237 0
M  V30 23041 H 2116.72 4.47308 -1.1152 0
M  V30 23042 H 2120.27 5.37429 -4.44765 0
M  V30 23043 H 2116.16 5.58783 -3.2316 0
M  V30 23044 H 2116.93 6.35241 -5.1615 0
M  V30 23045 N 2119.6 0.497834 1.49531 0
M  V30 23046 C 2120.53 -0.271671 2.31914 0
M  V30 23047 C 2121.51 -0.965521 1.40042 0
M  V30 23048 O 2122.69 -0.957536 1.68952 0
M  V30 23049 C 2119.82 -1.3384 3.20475 0
M  V30 23050 C 2118.78 -0.76461 4.21115 0
M  V30 23051 C 2118.1 -1.93162 4.98591 0
M  V30 23052 C 2119.4 0.242201 5.21738 0
M  V30 23053 H 2121.1 0.415979 2.96496 0
M  V30 23054 H 2118.64 0.201496 1.42583 0
M  V30 23055 H 2120.59 -1.88442 3.76918 0
M  V30 23056 H 2119.32 -2.05519 2.5383 0
M  V30 23057 H 2117.98 -0.240359 3.65811 0
M  V30 23058 H 2117.63 -2.63602 4.28396 0
M  V30 23059 H 2117.33 -1.55378 5.66685 0
M  V30 23060 H 2118.85 -2.48204 5.57877 0
M  V30 23061 H 2120.26 -0.215575 5.72895 0
M  V30 23062 H 2118.66 0.535707 5.97704 0
M  V30 23063 H 2119.73 1.15916 4.70841 0
M  V30 23064 N 2121.07 -1.5589 0.231532 0
M  V30 23065 C 2122 -2.23713 -0.66894 0
M  V30 23066 C 2122.98 -1.21219 -1.19332 0
M  V30 23067 O 2124.17 -1.49831 -1.23549 0
M  V30 23068 C 2121.3 -2.92476 -1.87284 0
M  V30 23069 C 2120.25 -4.01527 -1.48189 0
M  V30 23070 C 2119.58 -4.57637 -2.76537 0
M  V30 23071 C 2120.88 -5.18057 -0.664415 0
M  V30 23072 H 2122.57 -2.99221 -0.103437 0
M  V30 23073 H 2120.12 -1.43919 -0.0483103 0
M  V30 23074 H 2122.07 -3.38617 -2.50831 0
M  V30 23075 H 2120.8 -2.14431 -2.46347 0
M  V30 23076 H 2119.46 -3.56131 -0.869833 0
M  V30 23077 H 2119.1 -3.7631 -3.33766 0
M  V30 23078 H 2118.8 -5.31242 -2.51108 0
M  V30 23079 H 2120.33 -5.06503 -3.41009 0
M  V30 23080 H 2121.74 -5.60519 -1.20382 0
M  V30 23081 H 2120.14 -5.97956 -0.506811 0
M  V30 23082 H 2121.21 -4.83798 0.326792 0
M  V30 23083 N 2122.55 0.0417572 -1.57545 0
M  V30 23084 C 2123.78 0.750955 -1.93327 0
M  V30 23085 C 2124.2 1.68773 -0.830508 0
M  V30 23086 O 2123.56 1.80024 0.214702 0
M  V30 23087 C 2123.61 1.49503 -3.28148 0
M  V30 23088 O 2122.71 2.60754 -3.19501 0
M  V30 23089 H 2122.05 0.202874 -0.632248 0
M  V30 23090 H 2124.58 0.00102047 -2.046 0
M  V30 23091 H 2124.59 1.86775 -3.62738 0
M  V30 23092 H 2123.27 0.80791 -4.07977 0
M  V30 23093 H 2121.84 2.26119 -2.96521 0
M  V30 23094 N 2124.03 1.54445 0.313786 0
M  V30 23095 C 2125.28 1.72775 1.04849 0
M  V30 23096 C 2125.6 0.509507 1.88226 0
M  V30 23097 O 2124.87 -0.476396 1.90019 0
M  V30 23098 H 2123.45 0.637053 0.390092 0
M  V30 23099 H 2126.11 1.91771 0.347859 0
M  V30 23100 H 2125.21 2.61155 1.70893 0
M  V30 23101 N 2125.51 -0.576345 1.46683 0
M  V30 23102 C 2126.92 -0.900361 1.31779 0
M  V30 23103 C 2127.12 -1.99344 0.293964 0
M  V30 23104 O 2126.18 -2.50697 -0.301245 0
M  V30 23105 C 2127.49 -1.31169 2.70583 0
M  V30 23106 C 2129.04 -1.42419 2.78722 0
M  V30 23107 C 2129.52 -1.86916 4.18123 0
M  V30 23108 N 2131.01 -1.94099 4.20571 0
M  V30 23109 C 2131.74 -2.29817 5.2533 0
M  V30 23110 N 2131.24 -2.64282 6.40411 0
M  V30 23111 N 2133.03 -2.30426 5.12699 0
M  V30 23112 H 2125.18 0.145622 2.119 0
M  V30 23113 H 2127.44 0.00247797 0.947997 0
M  V30 23114 H 2127.15 -0.582484 3.46843 0
M  V30 23115 H 2127.02 -2.2719 3.01106 0
M  V30 23116 H 2129.41 -2.14425 2.02746 0
M  V30 23117 H 2129.49 -0.446341 2.51876 0
M  V30 23118 H 2129.14 -1.15486 4.94596 0
M  V30 23119 H 2129.07 -2.8567 4.4238 0
M  V30 23120 H 2131.56 -1.69927 3.3754 0
M  V30 23121 H 2131.87 -2.90509 7.16118 0
M  V30 23122 H 2130.22 -2.61906 6.43762 0
M  V30 23123 H 2133.41 -2.02927 4.21827 0
M  V30 23124 H 2133.58 -2.57934 5.94453 0
M  V30 23125 N 2126.99 -1.34495 -0.82151 0
M  V30 23126 C 2127.92 -1.28835 -1.94741 0
M  V30 23127 C 2128.9 -0.165528 -1.69293 0
M  V30 23128 O 2130.08 -0.358115 -1.9087 0
M  V30 23129 C 2127.21 -1.04446 -3.31222 0
M  V30 23130 C 2126.17 -2.13209 -3.71114 0
M  V30 23131 C 2125.49 -1.74007 -5.05594 0
M  V30 23132 C 2126.79 -3.55051 -3.83062 0
M  V30 23133 H 2128.49 -2.23039 -1.99734 0
M  V30 23134 H 2126.03 -1.07369 -0.959573 0
M  V30 23135 H 2127.98 -0.991306 -4.09574 0
M  V30 23136 H 2126.71 -0.0668391 -3.26532 0
M  V30 23137 H 2125.37 -2.17597 -2.95038 0
M  V30 23138 H 2125.02 -0.749021 -4.97392 0
M  V30 23139 H 2124.72 -2.46803 -5.33256 0
M  V30 23140 H 2126.24 -1.7019 -5.86402 0
M  V30 23141 H 2127.65 -3.53068 -4.51681 0
M  V30 23142 H 2126.05 -4.2648 -4.22179 0
M  V30 23143 H 2127.12 -3.92289 -2.85021 0
M  V30 23144 N 2128.46 1.04188 -1.18248 0
M  V30 23145 C 2129.88 1.29568 -0.931902 0
M  V30 23146 C 2130.08 1.97424 0.403235 0
M  V30 23147 O 2129.14 2.25409 1.13785 0
M  V30 23148 C 2130.45 2.15557 -2.09656 0
M  V30 23149 C 2132 2.28907 -2.13473 0
M  V30 23150 C 2132.47 3.18262 -3.29353 0
M  V30 23151 N 2133.96 3.25849 -3.29206 0
M  V30 23152 C 2134.7 3.95141 -4.15513 0
M  V30 23153 N 2134.19 4.66775 -5.1195 0
M  V30 23154 N 2135.99 3.91408 -4.03431 0
M  V30 23155 H 2128.14 0.585496 -2.04171 0
M  V30 23156 H 2130.4 0.320854 -0.892052 0
M  V30 23157 H 2130.11 1.73002 -3.06208 0
M  V30 23158 H 2129.98 3.16231 -2.05616 0
M  V30 23159 H 2132.37 2.70698 -1.175 0
M  V30 23160 H 2132.45 1.27828 -2.21571 0
M  V30 23161 H 2132.09 2.77182 -4.25597 0
M  V30 23162 H 2132.02 4.1937 -3.18491 0
M  V30 23163 H 2134.51 2.74819 -2.59389 0
M  V30 23164 H 2134.83 5.17239 -5.74181 0
M  V30 23165 H 2133.17 4.65683 -5.15911 0
M  V30 23166 H 2136.36 3.34577 -3.27377 0
M  V30 23167 H 2136.54 4.45139 -4.70909 0
M  V30 23168 N 2129.94 0.98432 1.23081 0
M  V30 23169 C 2130.89 0.520259 2.26707 0
M  V30 23170 C 2131.88 -0.424715 1.63989 0
M  V30 23171 O 2133.09 -0.298177 1.77513 0
M  V30 23172 H 2129.47 0.149826 0.736923 0
M  V30 23173 H 2131.44 1.40587 2.63207 0
M  V30 23174 C 2130.19 -0.157874 3.47341 0
M  V30 23175 H 2129.51 0.560186 3.95856 0
M  V30 23176 H 2130.95 -0.446157 4.21646 0
M  V30 23177 C 2129.41 -1.3904 3.0687 0
M  V30 23178 O 2129.94 -2.48637 3.15503 0
M  V30 23179 N 2128.14 -1.26249 2.61743 0
M  V30 23180 H 2127.69 -0.370736 2.54918 0
M  V30 23181 H 2127.65 -2.08824 2.35032 0
M  V30 23182 N 2131.42 -1.38259 0.756453 0
M  V30 23183 C 2132.35 -2.33042 0.146158 0
M  V30 23184 C 2133.33 -1.55012 -0.700373 0
M  V30 23185 O 2134.52 -1.83317 -0.640972 0
M  V30 23186 C 2131.65 -3.39202 -0.745585 0
M  V30 23187 C 2130.6 -4.28 -0.00155995 0
M  V30 23188 C 2129.93 -5.25041 -1.01174 0
M  V30 23189 C 2131.23 -5.09061 1.16852 0
M  V30 23190 H 2132.92 -2.84329 0.937934 0
M  V30 23191 H 2130.47 -1.36706 0.452478 0
M  V30 23192 H 2132.42 -4.04477 -1.18223 0
M  V30 23193 H 2131.14 -2.86405 -1.56971 0
M  V30 23194 H 2129.8 -3.64236 0.415692 0
M  V30 23195 H 2129.45 -4.68529 -1.83001 0
M  V30 23196 H 2129.15 -5.85307 -0.518554 0
M  V30 23197 H 2130.67 -5.93191 -1.44764 0
M  V30 23198 H 2132.09 -5.67559 0.809284 0
M  V30 23199 H 2130.49 -5.78577 1.59276 0
M  V30 23200 H 2131.56 -4.42631 1.98004 0
M  V30 23201 N 2132.9 -0.505757 -1.49264 0
M  V30 23202 C 2134.15 0.0389421 -2.01662 0
M  V30 23203 C 2134.46 1.37604 -1.39012 0
M  V30 23204 O 2135.67 2.00771 -1.82766 0
M  V30 23205 C 2134.12 0.119854 -3.597 0
M  V30 23206 C 2133.73 -1.21089 -4.31325 0
M  V30 23207 C 2135.47 0.614665 -4.20026 0
M  V30 23208 C 2133.38 -1.09188 -5.81233 0
M  V30 23209 H 2132.31 0.0183265 -0.753777 0
M  V30 23210 H 2134.96 -0.645894 -1.71757 0
M  V30 23211 H 2133.34 0.869244 -3.86342 0
M  V30 23212 H 2134.52 -1.97394 -4.1638 0
M  V30 23213 H 2132.83 -1.63951 -3.82765 0
M  V30 23214 H 2135.43 0.721287 -5.29813 0
M  V30 23215 H 2135.77 1.61466 -3.83711 0
M  V30 23216 H 2136.31 -0.0783291 -3.97723 0
M  V30 23217 H 2133.05 -2.06629 -6.22081 0
M  V30 23218 H 2132.57 -0.369793 -5.98659 0
M  V30 23219 H 2134.24 -0.772559 -6.42371 0
M  V30 23220 N 2134.38 1.55765 -0.239796 0
M  V30 23221 C 2135.63 1.97945 0.387367 0
M  V30 23222 C 2135.94 1.131 1.59586 0
M  V30 23223 O 2137.14 1.45261 2.29372 0
M  V30 23224 C 2135.6 3.52198 0.740571 0
M  V30 23225 C 2135.21 4.45773 -0.446131 0
M  V30 23226 C 2136.95 4.0305 1.33232 0
M  V30 23227 C 2134.86 5.91359 -0.0694771 0
M  V30 23228 H 2133.79 0.739231 0.148505 0
M  V30 23229 H 2136.44 1.80343 -0.338891 0
M  V30 23230 H 2134.82 3.65468 1.52476 0
M  V30 23231 H 2136 4.44259 -1.22354 0
M  V30 23232 H 2134.31 4.05364 -0.952332 0
M  V30 23233 H 2136.91 5.09335 1.62734 0
M  V30 23234 H 2137.25 3.49977 2.25437 0
M  V30 23235 H 2137.78 3.93077 0.611183 0
M  V30 23236 H 2134.52 6.48455 -0.958485 0
M  V30 23237 H 2134.04 5.96025 0.671873 0
M  V30 23238 H 2135.72 6.46048 0.350837 0
M  V30 23239 N 2135.85 -0.0334016 1.57565 0
M  V30 23240 C 2136.8 -1.03536 2.06274 0
M  V30 23241 C 2137.77 -1.36182 0.950989 0
M  V30 23242 O 2138.96 -1.46593 1.22127 0
M  V30 23243 C 2136.1 -2.33256 2.54334 0
M  V30 23244 C 2135.21 -2.06807 3.79282 0
M  V30 23245 C 2134.34 -3.30365 4.15971 0
M  V30 23246 C 2133.38 -2.99452 5.33849 0
M  V30 23247 N 2132.52 -4.15449 5.65991 0
M  V30 23248 H 2137.36 -0.613034 2.91626 0
M  V30 23249 H 2134.9 -0.291083 1.44191 0
M  V30 23250 H 2136.86 -3.09044 2.80264 0
M  V30 23251 H 2135.49 -2.73219 1.71905 0
M  V30 23252 H 2134.54 -1.21536 3.60463 0
M  V30 23253 H 2135.85 -1.8 4.6519 0
M  V30 23254 H 2135 -4.14524 4.43007 0
M  V30 23255 H 2133.74 -3.60282 3.28706 0
M  V30 23256 H 2132.75 -2.13695 5.06571 0
M  V30 23257 H 2133.97 -2.70817 6.22764 0
M  V30 23258 H 2131.92 -4.45326 4.81686 0
M  V30 23259 H 2131.84 -3.9205 6.464 0
M  V30 23260 H 2133.1 -5.00494 5.976 0
M  V30 23261 N 2137.33 -1.54609 -0.305591 0
M  V30 23262 C 2138.28 -1.81626 -1.37826 0
M  V30 23263 C 2139.27 -0.673168 -1.46141 0
M  V30 23264 O 2140.46 -0.933678 -1.50371 0
M  V30 23265 C 2137.59 -2.06297 -2.74402 0
M  V30 23266 C 2136.67 -3.26778 -2.70328 0
M  V30 23267 N 2137.06 -4.47436 -2.3587 0
M  V30 23268 C 2135.36 -3.28713 -3.01436 0
M  V30 23269 C 2136.06 -5.29437 -2.4098 0
M  V30 23270 N 2135.04 -4.67048 -2.78149 0
M  V30 23271 H 2138.84 -2.72481 -1.10142 0
M  V30 23272 H 2136.36 -1.54046 -0.514153 0
M  V30 23273 H 2138.35 -2.23798 -3.51739 0
M  V30 23274 H 2137.01 -1.16707 -3.03001 0
M  V30 23275 H 2138.02 -4.74118 -2.08404 0
M  V30 23276 H 2134.7 -2.49214 -3.3496 0
M  V30 23277 H 2136.09 -6.35833 -2.17177 0
M  V30 23278 N 2138.81 0.568558 -1.46987 0
M  V30 23279 C 2139.76 1.67655 -1.5862 0
M  V30 23280 C 2140.73 1.60444 -0.429761 0
M  V30 23281 O 2141.91 1.79446 -0.648355 0
M  V30 23282 C 2139.05 3.05988 -1.59578 0
M  V30 23283 C 2138.17 3.2372 -2.86058 0
M  V30 23284 C 2137.3 4.52385 -2.78427 0
M  V30 23285 C 2136.34 4.63509 -3.99782 0
M  V30 23286 N 2135.48 5.83515 -3.90454 0
M  V30 23287 H 2140.32 1.5705 -2.53257 0
M  V30 23288 H 2137.85 0.765211 -1.2563 0
M  V30 23289 H 2139.81 3.86076 -1.58118 0
M  V30 23290 H 2138.44 3.15456 -0.684628 0
M  V30 23291 H 2137.49 2.37141 -2.97436 0
M  V30 23292 H 2138.81 3.27806 -3.75959 0
M  V30 23293 H 2137.96 5.40718 -2.75152 0
M  V30 23294 H 2136.7 4.5076 -1.86191 0
M  V30 23295 H 2135.7 3.7359 -4.03374 0
M  V30 23296 H 2136.93 4.66902 -4.93132 0
M  V30 23297 H 2134.87 5.82861 -3.01013 0
M  V30 23298 H 2134.79 5.8893 -4.74022 0
M  V30 23299 H 2136.06 6.74241 -3.91177 0
M  V30 23300 N 2140.29 1.34929 0.814366 0
M  V30 23301 C 2141.53 1.27956 1.57338 0
M  V30 23302 C 2141.87 -0.147896 1.93636 0
M  V30 23303 O 2141.14 -1.09539 1.60722 0
M  V30 23304 C 2141.43 2.17862 2.8672 0
M  V30 23305 C 2141.28 3.69185 2.56948 0
M  V30 23306 C 2142.6 2.07033 3.88362 0
M  V30 23307 H 2139.72 0.466149 0.570854 0
M  V30 23308 H 2142.36 1.65259 0.937513 0
M  V30 23309 H 2140.51 1.86178 3.40984 0
M  V30 23310 H 2142.18 4.11275 2.08927 0
M  V30 23311 H 2140.42 3.89851 1.90259 0
M  V30 23312 H 2141.09 4.2747 3.49247 0
M  V30 23313 H 2143.57 2.34869 3.43476 0
M  V30 23314 H 2142.45 2.72151 4.76681 0
M  V30 23315 H 2142.71 1.04989 4.29453 0
M  V30 23316 N 2141.77 -1.0356 1.18799 0
M  V30 23317 C 2143.18 -1.29071 0.938761 0
M  V30 23318 C 2143.38 -1.97635 -0.39276 0
M  V30 23319 O 2142.44 -2.26009 -1.12588 0
M  V30 23320 C 2143.75 -2.14442 2.10797 0
M  V30 23321 C 2145.3 -2.27772 2.14684 0
M  V30 23322 C 2145.77 -3.16511 3.31036 0
M  V30 23323 N 2147.27 -3.24099 3.30929 0
M  V30 23324 C 2148 -3.92932 4.17603 0
M  V30 23325 N 2147.5 -4.64053 5.14419 0
M  V30 23326 N 2149.29 -3.89263 4.05501 0
M  V30 23327 H 2141.44 -0.57466 2.04478 0
M  V30 23328 H 2143.7 -0.316119 0.893741 0
M  V30 23329 H 2143.41 -1.71376 3.07121 0
M  V30 23330 H 2143.28 -3.15136 2.0729 0
M  V30 23331 H 2145.67 -2.70072 1.18934 0
M  V30 23332 H 2145.75 -1.26651 2.22246 0
M  V30 23333 H 2145.4 -2.74921 4.27061 0
M  V30 23334 H 2145.33 -4.17675 3.20711 0
M  V30 23335 H 2147.82 -2.7344 2.60843 0
M  V30 23336 H 2148.13 -5.14187 5.76916 0
M  V30 23337 H 2146.47 -4.62941 5.18373 0
M  V30 23338 H 2149.67 -3.32836 3.29147 0
M  V30 23339 H 2149.84 -4.42635 4.73263 0
M  V30 23340 N 2143.25 -0.990834 -1.22557 0
M  V30 23341 C 2144.19 -0.532274 -2.26428 0
M  V30 23342 C 2145.19 0.416012 -1.64212 0
M  V30 23343 O 2146.39 0.288758 -1.77669 0
M  V30 23344 H 2142.77 -0.153732 -0.736118 0
M  V30 23345 H 2144.74 -1.41981 -2.62457 0
M  V30 23346 C 2143.49 0.139451 -3.4742 0
M  V30 23347 H 2142.81 -0.581172 -3.95553 0
M  V30 23348 H 2144.25 0.42379 -4.21877 0
M  V30 23349 C 2142.71 1.37411 -3.07604 0
M  V30 23350 O 2143.24 2.4696 -3.16818 0
M  V30 23351 N 2141.45 1.2486 -2.62409 0
M  V30 23352 H 2140.99 0.357212 -2.55111 0
M  V30 23353 H 2140.95 2.07575 -2.36136 0
M  V30 23354 N 2144.72 1.37856 -0.763775 0
M  V30 23355 C 2145.63 2.3415 -0.145216 0
M  V30 23356 C 2146.65 1.59782 0.688888 0
M  V30 23357 O 2147.83 1.91919 0.610668 0
M  V30 23358 C 2144.89 3.38934 0.729718 0
M  V30 23359 C 2143.95 4.29132 -0.119926 0
M  V30 23360 C 2143.18 5.28911 0.713343 0
M  V30 23361 O 2143.41 5.36002 1.95086 0
M  V30 23362 O 2142.34 6.01767 0.126758 0
M  V30 23363 H 2146.17 2.88763 -0.940736 0
M  V30 23364 H 2143.75 1.39879 -0.524814 0
M  V30 23365 H 2145.63 4.03066 1.22946 0
M  V30 23366 H 2144.31 2.86661 1.50356 0
M  V30 23367 H 2143.22 3.68127 -0.665843 0
M  V30 23368 H 2144.55 4.84688 -0.856664 0
M  V30 23369 N 2146.2 0.513665 1.48994 0
M  V30 23370 C 2147.43 -0.0227686 2.06887 0
M  V30 23371 C 2147.84 -1.29658 1.37238 0
M  V30 23372 O 2147.2 -1.76745 0.454679 0
M  V30 23373 C 2147.25 -0.267284 3.60511 0
M  V30 23374 O 2146.97 0.956043 4.27541 0
M  V30 23375 C 2148.47 -0.845937 4.35154 0
M  V30 23376 H 2145.69 0.0261591 0.67049 0
M  V30 23377 H 2148.24 0.714646 1.91607 0
M  V30 23378 H 2146.39 -0.954707 3.75452 0
M  V30 23379 H 2146.81 0.726684 5.19442 0
M  V30 23380 H 2148.28 -0.966539 5.43472 0
M  V30 23381 H 2148.76 -1.84687 3.98481 0
M  V30 23382 H 2149.36 -0.19559 4.2485 0
M  V30 23383 N 2147.68 -1.55636 0.248053 0
M  V30 23384 C 2148.93 -1.99266 -0.376927 0
M  V30 23385 C 2149.26 -1.13602 -1.57506 0
M  V30 23386 O 2148.53 -0.199686 -1.93472 0
M  V30 23387 C 2148.82 -3.51425 -0.785664 0
M  V30 23388 C 2148.67 -4.47854 0.417942 0
M  V30 23389 C 2149.99 -4.08714 -1.63221 0
M  V30 23390 H 2147.11 -0.724431 -0.135531 0
M  V30 23391 H 2149.75 -1.86756 0.349594 0
M  V30 23392 H 2147.9 -3.62216 -1.40469 0
M  V30 23393 H 2149.57 -4.49041 1.05638 0
M  V30 23394 H 2147.81 -4.20629 1.06084 0
M  V30 23395 H 2148.49 -5.51929 0.0886002 0
M  V30 23396 H 2150.96 -4.01031 -1.10966 0
M  V30 23397 H 2149.84 -5.15443 -1.88706 0
M  V30 23398 H 2150.1 -3.57242 -2.60443 0
M  V30 23399 N 2149.16 0.0250451 -1.5758 0
M  V30 23400 C 2150.12 1.00908 -2.05791 0
M  V30 23401 C 2151.12 1.28794 -0.962744 0
M  V30 23402 O 2152.31 1.2373 -1.22623 0
M  V30 23403 C 2149.44 2.34084 -2.47825 0
M  V30 23404 H 2150.64 0.592553 -2.93988 0
M  V30 23405 H 2148.19 0.271965 -1.53916 0
M  V30 23406 H 2148.92 2.80477 -1.62797 0
M  V30 23407 H 2148.71 2.15173 -3.27785 0
M  V30 23408 H 2150.2 3.04725 -2.85539 0
M  V30 23409 N 2150.64 1.54769 0.297388 0
M  V30 23410 C 2151.86 1.78543 1.05533 0
M  V30 23411 C 2152.29 0.54501 1.80031 0
M  V30 23412 O 2151.64 -0.504585 1.74137 0
M  V30 23413 C 2151.69 2.99469 2.00874 0
M  V30 23414 O 2150.8 2.72847 3.09238 0
M  V30 23415 H 2150.14 0.590843 0.302985 0
M  V30 23416 H 2152.67 2.0186 0.333711 0
M  V30 23417 H 2152.68 3.27538 2.43275 0
M  V30 23418 H 2151.35 3.8941 1.46058 0
M  V30 23419 H 2149.93 2.55805 2.71327 0
M  V30 23420 N 2152.11 -0.560755 1.47286 0
M  V30 23421 C 2153.36 -1.31776 1.54941 0
M  V30 23422 C 2153.71 -1.91279 0.20742 0
M  V30 23423 O 2153.01 -1.74714 -0.786485 0
M  V30 23424 C 2153.2 -2.45125 2.60093 0
M  V30 23425 C 2153.03 -1.96729 4.04386 0
M  V30 23426 C 2151.8 -1.80734 4.71872 0
M  V30 23427 C 2154 -1.51386 4.91515 0
M  V30 23428 N 2151.98 -1.2664 6.00696 0
M  V30 23429 C 2153.35 -1.09033 6.10337 0
M  V30 23430 C 2155.41 -1.39405 4.77986 0
M  V30 23431 C 2154.11 -0.558905 7.17125 0
M  V30 23432 C 2156.14 -0.87664 5.84867 0
M  V30 23433 C 2155.5 -0.463017 7.02877 0
M  V30 23434 H 2151.6 -0.474363 0.621694 0
M  V30 23435 H 2154.18 -0.636029 1.84018 0
M  V30 23436 H 2152.35 -3.10833 2.32889 0
M  V30 23437 H 2154.08 -3.12119 2.57612 0
M  V30 23438 H 2150.84 -2.03343 4.27725 0
M  V30 23439 H 2151.26 -1.01691 6.69319 0
M  V30 23440 H 2155.9 -1.69996 3.87119 0
M  V30 23441 H 2153.62 -0.240613 8.07742 0
M  V30 23442 H 2157.21 -0.78754 5.76445 0
M  V30 23443 H 2156.09 -0.0688485 7.8417 0
M  V30 23444 N 2153.59 -1.35359 -0.807199 0
M  V30 23445 C 2154.82 -1.3152 -1.5933 0
M  V30 23446 C 2155.23 0.109536 -1.88883 0
M  V30 23447 O 2154.57 1.07173 -1.49196 0
M  V30 23448 C 2154.63 -2.05378 -2.9506 0
M  V30 23449 C 2154.3 -3.54567 -2.88325 0
M  V30 23450 C 2155.3 -4.49171 -2.61805 0
M  V30 23451 C 2152.98 -3.97206 -3.07462 0
M  V30 23452 C 2154.97 -5.84389 -2.54496 0
M  V30 23453 C 2152.66 -5.3252 -2.99776 0
M  V30 23454 C 2153.66 -6.25923 -2.73329 0
M  V30 23455 O 2153.35 -7.58755 -2.65605 0
M  V30 23456 H 2153.08 -0.453354 -0.501444 0
M  V30 23457 H 2155.63 -1.78786 -1.01117 0
M  V30 23458 H 2153.86 -1.52748 -3.55253 0
M  V30 23459 H 2155.55 -1.94625 -3.56197 0
M  V30 23460 H 2156.32 -4.17546 -2.4674 0
M  V30 23461 H 2152.2 -3.24891 -3.27058 0
M  V30 23462 H 2155.74 -6.57264 -2.33774 0
M  V30 23463 H 2151.64 -5.63758 -3.14399 0
M  V30 23464 H 2152.41 -7.68673 -2.81218 0
M  V30 23465 N 2155.07 1.02928 -1.19346 0
M  V30 23466 C 2156.32 1.75973 -0.993881 0
M  V30 23467 C 2156.64 1.89088 0.476523 0
M  V30 23468 O 2155.91 1.42417 1.34515 0
M  V30 23469 H 2154.49 0.651893 -0.364753 0
M  V30 23470 H 2157.15 1.24161 -1.50233 0
M  V30 23471 H 2156.25 2.76812 -1.44157 0
M  V30 23472 N 2156.55 0.997319 1.2203 0
M  V30 23473 C 2157.46 0.560352 2.2781 0
M  V30 23474 C 2158.47 -0.392977 1.69504 0
M  V30 23475 O 2159.65 -0.258715 1.99731 0
M  V30 23476 C 2156.71 -0.113747 3.46513 0
M  V30 23477 C 2155.78 0.883099 4.20119 0
M  V30 23478 C 2155.01 0.241074 5.33155 0
M  V30 23479 O 2155.23 -0.963972 5.62195 0
M  V30 23480 O 2154.17 0.948154 5.94385 0
M  V30 23481 H 2157.99 1.44049 2.67364 0
M  V30 23482 H 2155.58 0.765793 1.28281 0
M  V30 23483 H 2157.46 -0.491137 4.18528 0
M  V30 23484 H 2156.13 -0.968387 3.08875 0
M  V30 23485 H 2155.04 1.3115 3.50358 0
M  V30 23486 H 2156.37 1.70708 4.61649 0
M  V30 23487 N 2158.03 -1.37449 0.771075 0
M  V30 23488 C 2158.94 -2.3407 0.157631 0
M  V30 23489 C 2159.95 -1.60145 -0.680404 0
M  V30 23490 O 2161.13 -1.9224 -0.600482 0
M  V30 23491 C 2158.19 -3.39316 -0.711733 0
M  V30 23492 C 2157.25 -4.29063 0.142682 0
M  V30 23493 C 2156.49 -5.29282 -0.685284 0
M  V30 23494 O 2156.71 -5.37029 -1.92241 0
M  V30 23495 O 2155.64 -6.01825 -0.0948431 0
M  V30 23496 H 2159.47 -2.8826 0.956036 0
M  V30 23497 H 2157.06 -1.39598 0.532224 0
M  V30 23498 H 2158.94 -4.03713 -1.20806 0
M  V30 23499 H 2157.61 -2.87455 -1.48834 0
M  V30 23500 H 2156.52 -3.67769 0.685357 0
M  V30 23501 H 2157.85 -4.84227 0.882356 0
M  V30 23502 N 2159.5 -0.52156 -1.4872 0
M  V30 23503 C 2160.41 0.249847 -2.33266 0
M  V30 23504 C 2161.43 0.947297 -1.45953 0
M  V30 23505 O 2162.61 0.924126 -1.78947 0
M  V30 23506 C 2159.67 1.28824 -3.21878 0
M  V30 23507 C 2158.73 0.602041 -4.25058 0
M  V30 23508 C 2157.97 1.59096 -5.09435 0
M  V30 23509 O 2158.19 2.82282 -4.95654 0
M  V30 23510 O 2157.12 1.13498 -5.91102 0
M  V30 23511 H 2160.95 -0.442725 -3.00456 0
M  V30 23512 H 2158.53 -0.282593 -1.46703 0
M  V30 23513 H 2160.42 1.88853 -3.76713 0
M  V30 23514 H 2159.09 1.96337 -2.57359 0
M  V30 23515 H 2158 -0.0385256 -3.7408 0
M  V30 23516 H 2159.33 -0.0310005 -4.9219 0
M  V30 23517 N 2160.98 1.55502 -0.256304 0
M  V30 23518 C 2162.23 1.99463 0.366354 0
M  V30 23519 C 2162.56 1.14436 1.56902 0
M  V30 23520 O 2161.84 0.209944 1.93364 0
M  V30 23521 C 2162.12 3.51836 0.767016 0
M  V30 23522 C 2161.97 4.47626 -0.441687 0
M  V30 23523 C 2163.29 4.09574 1.61051 0
M  V30 23524 H 2160.41 0.72514 0.131688 0
M  V30 23525 H 2163.05 1.86568 -0.359494 0
M  V30 23526 H 2161.2 3.62956 1.38546 0
M  V30 23527 H 2162.87 4.48475 -1.08018 0
M  V30 23528 H 2161.12 4.2006 -1.08313 0
M  V30 23529 H 2161.79 5.51874 -0.117869 0
M  V30 23530 H 2164.26 4.01614 1.08838 0
M  V30 23531 H 2163.14 5.16436 1.85969 0
M  V30 23532 H 2163.4 3.58619 2.58544 0
M  V30 23533 N 2162.46 -0.0166879 1.57591 0
M  V30 23534 C 2163.69 -0.715388 1.93819 0
M  V30 23535 C 2164.1 -1.68753 0.855524 0
M  V30 23536 O 2163.44 -1.82858 -0.175702 0
M  V30 23537 C 2163.5 -1.51689 3.2593 0
M  V30 23538 C 2163.17 -0.708176 4.5148 0
M  V30 23539 C 2164.16 -0.00306199 5.199 0
M  V30 23540 C 2161.85 -0.659065 4.97957 0
M  V30 23541 C 2163.84 0.740329 6.33086 0
M  V30 23542 C 2161.53 0.0880628 6.11037 0
M  V30 23543 C 2162.53 0.786509 6.78456 0
M  V30 23544 O 2162.22 1.52148 7.89371 0
M  V30 23545 H 2161.95 -0.205311 0.644068 0
M  V30 23546 H 2164.5 0.0254916 2.05384 0
M  V30 23547 H 2162.73 -2.30187 3.10726 0
M  V30 23548 H 2164.42 -2.09936 3.47393 0
M  V30 23549 H 2165.19 -0.0319562 4.84989 0
M  V30 23550 H 2161.07 -1.19222 4.45317 0
M  V30 23551 H 2164.61 1.28603 6.85644 0
M  V30 23552 H 2160.51 0.118837 6.45391 0
M  V30 23553 H 2161.28 1.43645 8.05797 0
M  V30 23554 N 2163.94 -1.54924 -0.289176 0
M  V30 23555 C 2165.19 -1.74421 -1.02087 0
M  V30 23556 C 2165.51 -0.539388 -1.87392 0
M  V30 23557 O 2164.78 0.446105 -1.90753 0
M  V30 23558 H 2163.36 -0.643179 -0.379908 0
M  V30 23559 H 2166.02 -1.923 -0.317306 0
M  V30 23560 H 2165.12 -2.63841 -1.66716 0
M  V30 23561 N 2165.42 0.552936 -1.47582 0
M  V30 23562 C 2166.35 1.67543 -1.54934 0
M  V30 23563 C 2167.33 1.57572 -0.401207 0
M  V30 23564 O 2168.51 1.7837 -0.609608 0
M  V30 23565 C 2165.64 3.05813 -1.45588 0
M  V30 23566 C 2164.68 3.34215 -2.64957 0
M  V30 23567 S 2165.52 3.23 -4.27119 0
M  V30 23568 C 2166.67 4.63757 -4.20333 0
M  V30 23569 H 2166.91 1.61052 -2.49899 0
M  V30 23570 H 2164.44 0.734096 -1.35832 0
M  V30 23571 H 2166.4 3.85567 -1.40883 0
M  V30 23572 H 2165.06 3.09766 -0.520006 0
M  V30 23573 H 2164.25 4.35028 -2.54493 0
M  V30 23574 H 2163.85 2.62088 -2.66807 0
M  V30 23575 H 2166.15 5.54799 -3.8885 0
M  V30 23576 H 2167.09 4.79278 -5.21247 0
M  V30 23577 H 2167.5 4.42004 -3.5113 0
M  V30 23578 N 2166.89 1.35785 0.800009 0
M  V30 23579 C 2168.31 1.26354 1.37446 0
M  V30 23580 C 2168.66 -0.101241 1.95939 0
M  V30 23581 O 2167.78 -1.00241 1.91783 0
M  V30 23582 C 2168.38 2.28793 2.49878 0
M  V30 23583 C 2166.94 2.23083 3.03168 0
M  V30 23584 C 2166.08 2.14145 1.76174 0
M  V30 23585 H 2169.03 1.46818 0.602508 0
M  V30 23586 H 2169.05 1.91822 3.2861 0
M  V30 23587 H 2168.57 3.28113 2.07277 0
M  V30 23588 H 2166.67 1.27195 3.50217 0
M  V30 23589 H 2166.78 3.15326 3.60703 0
M  V30 23590 H 2165.14 1.60228 1.97987 0
M  V30 23591 H 2165.93 3.15335 1.35715 0
M  V30 23592 N 2168.37 -1.02294 1.19891 0
M  V30 23593 C 2169.32 -2.107 0.942023 0
M  V30 23594 C 2170.29 -1.65626 -0.125398 0
M  V30 23595 O 2171.47 -1.90792 0.0179973 0
M  V30 23596 C 2168.61 -3.41556 0.493291 0
M  V30 23597 C 2167.73 -4.00144 1.62815 0
M  V30 23598 C 2166.86 -5.19034 1.13036 0
M  V30 23599 C 2165.9 -5.69691 2.23872 0
M  V30 23600 N 2165.04 -6.79849 1.75357 0
M  V30 23601 H 2169.88 -2.3201 1.87017 0
M  V30 23602 H 2167.42 -1.13784 0.932293 0
M  V30 23603 H 2169.37 -4.16648 0.214483 0
M  V30 23604 H 2168 -3.20339 -0.397861 0
M  V30 23605 H 2167.06 -3.22208 2.02203 0
M  V30 23606 H 2168.37 -4.3375 2.46298 0
M  V30 23607 H 2167.52 -6.01307 0.807136 0
M  V30 23608 H 2166.26 -4.86978 0.265337 0
M  V30 23609 H 2165.27 -4.86027 2.57018 0
M  V30 23610 H 2166.49 -6.03784 3.1084 0
M  V30 23611 H 2164.44 -6.49634 0.911717 0
M  V30 23612 H 2164.35 -7.12613 2.52425 0
M  V30 23613 H 2165.62 -7.65702 1.46016 0
M  V30 23614 N 2169.85 -1.00378 -1.21499 0
M  V30 23615 C 2171.1 -0.681173 -1.8985 0
M  V30 23616 C 2171.41 0.791343 -1.78877 0
M  V30 23617 O 2172.62 1.22598 -2.42244 0
M  V30 23618 C 2171.07 -1.1679 -3.40424 0
M  V30 23619 C 2170.68 -2.6664 -3.6001 0
M  V30 23620 C 2172.43 -0.920124 -4.14408 0
M  V30 23621 C 2170.33 -3.0886 -5.04341 0
M  V30 23622 H 2169.26 -0.251086 -0.710965 0
M  V30 23623 H 2171.91 -1.21478 -1.37533 0
M  V30 23624 H 2170.3 -0.562349 -3.91987 0
M  V30 23625 H 2171.47 -3.32634 -3.18891 0
M  V30 23626 H 2169.79 -2.89419 -2.99376 0
M  V30 23627 H 2172.38 -1.21113 -5.20803 0
M  V30 23628 H 2172.73 0.143641 -4.16052 0
M  V30 23629 H 2173.26 -1.4884 -3.68906 0
M  V30 23630 H 2170 -4.14458 -5.07844 0
M  V30 23631 H 2169.52 -2.47577 -5.4632 0
M  V30 23632 H 2171.2 -3.00772 -5.7284 0
M  V30 23633 N 2171.33 1.37038 -0.778354 0
M  V30 23634 C 2172.26 2.27909 -0.115295 0
M  V30 23635 C 2173.24 1.46663 0.702059 0
M  V30 23636 O 2174.42 1.75984 0.67541 0
M  V30 23637 C 2171.55 3.28048 0.84273 0
M  V30 23638 C 2170.6 4.26362 0.108552 0
M  V30 23639 S 2171.43 5.21696 -1.20802 0
M  V30 23640 C 2172.59 6.25386 -0.253704 0
M  V30 23641 H 2172.82 2.83797 -0.885808 0
M  V30 23642 H 2170.35 1.43412 -0.572049 0
M  V30 23643 H 2172.31 3.86248 1.39005 0
M  V30 23644 H 2170.97 2.71094 1.5864 0
M  V30 23645 H 2170.16 4.97034 0.835063 0
M  V30 23646 H 2169.77 3.72185 -0.367963 0
M  V30 23647 H 2172.06 6.75085 0.5715 0
M  V30 23648 H 2173 7.01982 -0.928788 0
M  V30 23649 H 2173.41 5.64331 0.138033 0
M  V30 23650 N 2172.81 0.529439 1.48441 0
M  V30 23651 C 2174.04 -0.000824174 2.069 0
M  V30 23652 C 2174.45 -1.28195 1.38605 0
M  V30 23653 O 2173.81 -1.76253 0.4734 0
M  V30 23654 C 2173.86 -0.229032 3.60774 0
M  V30 23655 O 2173.58 1.00134 4.26503 0
M  V30 23656 C 2175.08 -0.799736 4.36027 0
M  V30 23657 H 2172.3 0.0332691 0.670175 0
M  V30 23658 H 2174.84 0.734929 1.90838 0
M  V30 23659 H 2173 -0.914832 3.76443 0
M  V30 23660 H 2173.41 0.781737 5.18642 0
M  V30 23661 H 2174.89 -0.908842 5.44467 0
M  V30 23662 H 2175.36 -1.8045 4.00418 0
M  V30 23663 H 2175.97 -0.150518 4.25034 0
M  V30 23664 N 2174.29 -1.55364 0.264547 0
M  V30 23665 C 2175.53 -1.98537 -0.355827 0
M  V30 23666 C 2175.85 -1.15624 -1.57767 0
M  V30 23667 O 2177.05 -1.48892 -2.27032 0
M  V30 23668 C 2175.51 -3.53332 -0.684446 0
M  V30 23669 C 2175.12 -4.45007 0.516993 0
M  V30 23670 C 2176.86 -4.05119 -1.26803 0
M  V30 23671 C 2174.77 -5.91174 0.163548 0
M  V30 23672 H 2173.7 -0.7415 -0.136725 0
M  V30 23673 H 2176.35 -1.79782 0.367539 0
M  V30 23674 H 2174.73 -3.67848 -1.46643 0
M  V30 23675 H 2175.91 -4.42256 1.29406 0
M  V30 23676 H 2174.22 -4.03797 1.0167 0
M  V30 23677 H 2176.82 -5.11859 -1.5461 0
M  V30 23678 H 2177.16 -3.53519 -2.19841 0
M  V30 23679 H 2177.69 -3.93999 -0.548571 0
M  V30 23680 H 2174.43 -6.46848 1.06153 0
M  V30 23681 H 2173.95 -5.97019 -0.576966 0
M  V30 23682 H 2175.63 -6.46524 -0.248012 0
M  V30 23683 N 2175.76 0.00833021 -1.57598 0
M  V30 23684 C 2177.01 0.69406 -1.89382 0
M  V30 23685 C 2177.33 1.75397 -0.865751 0
M  V30 23686 O 2178.53 2.49374 -1.07353 0
M  V30 23687 C 2176.99 1.28562 -3.36154 0
M  V30 23688 C 2176.6 0.260972 -4.47239 0
M  V30 23689 C 2178.34 1.95003 -3.7706 0
M  V30 23690 C 2176.25 0.862051 -5.85083 0
M  V30 23691 H 2175.18 0.262992 -0.706648 0
M  V30 23692 H 2177.83 -0.0508492 -1.8343 0
M  V30 23693 H 2176.21 2.08092 -3.36918 0
M  V30 23694 H 2177.38 -0.50913 -4.57979 0
M  V30 23695 H 2175.7 -0.302516 -4.153 0
M  V30 23696 H 2178.3 2.40863 -4.77377 0
M  V30 23697 H 2178.64 2.77706 -3.10137 0
M  V30 23698 H 2179.17 1.22218 -3.7856 0
M  V30 23699 H 2175.91 0.0739761 -6.55458 0
M  V30 23700 H 2175.43 1.60151 -5.78024 0
M  V30 23701 H 2177.11 1.3632 -6.32476 0
M  V30 23702 N 2177.24 1.55075 0.280956 0
M  V30 23703 C 2178.19 1.87409 1.34709 0
M  V30 23704 C 2179.16 0.72482 1.49451 0
M  V30 23705 O 2180.34 0.975348 1.63987 0
M  V30 23706 C 2177.48 2.14456 2.70375 0
M  V30 23707 C 2176.6 3.42009 2.6392 0
M  V30 23708 C 2175.73 3.58796 3.91713 0
M  V30 23709 C 2174.77 4.8007 3.79736 0
M  V30 23710 N 2173.91 4.93556 4.99346 0
M  V30 23711 H 2178.75 2.78344 1.06435 0
M  V30 23712 H 2176.28 1.37813 0.514379 0
M  V30 23713 H 2178.24 2.28135 3.493 0
M  V30 23714 H 2176.87 1.26764 2.96868 0
M  V30 23715 H 2175.92 3.36844 1.7675 0
M  V30 23716 H 2177.24 4.31065 2.50967 0
M  V30 23717 H 2176.39 3.7225 4.79077 0
M  V30 23718 H 2175.13 2.6791 4.07524 0
M  V30 23719 H 2174.13 4.66628 2.90754 0
M  V30 23720 H 2175.36 5.72383 3.65451 0
M  V30 23721 H 2173.31 4.05599 5.15582 0
M  V30 23722 H 2173.22 5.76645 4.88893 0
M  V30 23723 H 2174.49 5.11387 5.88305 0
M  V30 23724 N 2178.72 -0.545102 1.47873 0
M  V30 23725 C 2179.68 -1.63324 1.60804 0
M  V30 23726 C 2180.68 -1.53397 0.482294 0
M  V30 23727 O 2181.87 -1.57338 0.747692 0
M  V30 23728 C 2179 -3.02906 1.56399 0
M  V30 23729 H 2180.2 -1.53204 2.57815 0
M  V30 23730 H 2177.75 -0.765983 1.36244 0
M  V30 23731 H 2178.49 -3.18548 0.608084 0
M  V30 23732 H 2178.27 -3.11521 2.38112 0
M  V30 23733 H 2179.76 -3.82048 1.6861 0
M  V30 23734 N 2180.2 -1.36208 -0.792797 0
M  V30 23735 C 2181.42 -1.3356 -1.58671 0
M  V30 23736 C 2181.85 0.0814602 -1.87924 0
M  V30 23737 O 2181.21 1.05241 -1.47628 0
M  V30 23738 C 2181.25 -2.16123 -2.88658 0
M  V30 23739 O 2180.36 -1.5514 -3.82106 0
M  V30 23740 H 2179.7 -0.45729 -0.481438 0
M  V30 23741 H 2182.23 -1.79444 -0.982909 0
M  V30 23742 H 2182.24 -2.28579 -3.37958 0
M  V30 23743 H 2180.91 -3.19136 -2.66693 0
M  V30 23744 H 2179.49 -1.51604 -3.40691 0
M  V30 23745 N 2181.68 1.01656 -1.20431 0
M  V30 23746 C 2182.9 1.78855 -1.04012 0
M  V30 23747 C 2183.32 1.8428 0.410661 0
M  V30 23748 O 2182.68 1.29579 1.28512 0
M  V30 23749 C 2182.73 3.23321 -1.61696 0
M  V30 23750 O 2182.45 3.18233 -3.01097 0
M  V30 23751 C 2183.95 4.17068 -1.5023 0
M  V30 23752 H 2181.17 0.562464 -0.36589 0
M  V30 23753 H 2183.71 1.27961 -1.59519 0
M  V30 23754 H 2181.87 3.71363 -1.10309 0
M  V30 23755 H 2182.28 4.08911 -3.28469 0
M  V30 23756 H 2183.76 5.16277 -1.95352 0
M  V30 23757 H 2184.23 4.36839 -0.454792 0
M  V30 23758 H 2184.84 3.74908 -2.00808 0
M  V30 23759 N 2183.15 1.01021 1.20965 0
M  V30 23760 C 2184.08 0.5953 2.25784 0
M  V30 23761 C 2185.06 -0.386477 1.65651 0
M  V30 23762 O 2186.25 -0.273315 1.92267 0
M  V30 23763 C 2183.38 -0.0736489 3.47222 0
M  V30 23764 C 2182.33 0.828449 4.19906 0
M  V30 23765 C 2181.66 0.0256242 5.34694 0
M  V30 23766 C 2182.96 2.13351 4.76737 0
M  V30 23767 H 2184.65 1.4715 2.60744 0
M  V30 23768 H 2182.2 0.70899 1.25337 0
M  V30 23769 H 2184.15 -0.375423 4.19724 0
M  V30 23770 H 2182.88 -0.984519 3.11408 0
M  V30 23771 H 2181.54 1.11413 3.4926 0
M  V30 23772 H 2181.18 -0.886697 4.95123 0
M  V30 23773 H 2180.88 0.626319 5.84253 0
M  V30 23774 H 2182.41 -0.269844 6.10003 0
M  V30 23775 H 2183.82 1.89453 5.41092 0
M  V30 23776 H 2182.22 2.68451 5.36707 0
M  V30 23777 H 2183.29 2.80081 3.95832 0
M  V30 23778 N 2184.63 -1.36623 0.78561 0
M  V30 23779 C 2185.86 -2.04129 0.366917 0
M  V30 23780 C 2186.28 -1.58852 -1.00736 0
M  V30 23781 O 2185.64 -0.755202 -1.64822 0
M  V30 23782 C 2185.69 -3.5797 0.43472 0
M  V30 23783 O 2184.79 -4.08584 -0.559755 0
M  V30 23784 H 2184.13 -0.645306 0.156447 0
M  V30 23785 H 2186.66 -1.74656 1.06566 0
M  V30 23786 H 2186.67 -4.06918 0.296959 0
M  V30 23787 H 2185.35 -3.90277 1.43724 0
M  V30 23788 H 2183.92 -3.70918 -0.38397 0
M  V30 23789 N 2186.11 -0.537304 -1.48158 0
M  V30 23790 C 2187.06 0.221446 -2.29735 0
M  V30 23791 C 2188.03 0.927005 -1.37825 0
M  V30 23792 O 2189.21 0.926601 -1.6679 0
M  V30 23793 C 2186.35 1.25789 -3.21358 0
M  V30 23794 C 2185.46 0.560427 -4.28349 0
M  V30 23795 C 2184.6 1.58043 -5.07145 0
M  V30 23796 C 2183.64 0.86684 -6.05931 0
M  V30 23797 N 2182.78 1.83273 -6.77758 0
M  V30 23798 H 2187.62 -0.480372 -2.94103 0
M  V30 23799 H 2185.15 -0.248729 -1.44982 0
M  V30 23800 H 2187.11 1.87117 -3.72885 0
M  V30 23801 H 2185.74 1.92799 -2.58898 0
M  V30 23802 H 2184.79 -0.166961 -3.80033 0
M  V30 23803 H 2186.1 0.000474239 -4.988 0
M  V30 23804 H 2185.26 2.2678 -5.62722 0
M  V30 23805 H 2184 2.17429 -4.3655 0
M  V30 23806 H 2183 0.165438 -5.49551 0
M  V30 23807 H 2184.23 0.278998 -6.78527 0
M  V30 23808 H 2182.17 2.41553 -6.09908 0
M  V30 23809 H 2182.09 1.32441 -7.44309 0
M  V30 23810 H 2183.36 2.51186 -7.3792 0
M  V30 23811 N 2187.59 1.55221 -0.272782 0
M  V30 23812 C 2188.81 2.04409 0.350963 0
M  V30 23813 C 2189.24 1.14994 1.48856 0
M  V30 23814 O 2188.6 0.148061 1.80694 0
M  V30 23815 C 2188.64 3.51346 0.811686 0
M  V30 23816 O 2187.75 3.65025 1.91914 0
M  V30 23817 H 2187.09 0.659984 0.0729184 0
M  V30 23818 H 2189.62 2.00523 -0.4064 0
M  V30 23819 H 2189.63 3.92665 1.10806 0
M  V30 23820 H 2188.3 4.15895 -0.0206338 0
M  V30 23821 H 2186.88 3.35608 1.62547 0
M  V30 23822 N 2189.07 2.77022e-05 1.576 0
M  V30 23823 C 2190.48 -0.35605 1.55578 0
M  V30 23824 C 2190.68 -1.74784 1.00264 0
M  V30 23825 O 2189.74 -2.44347 0.636465 0
M  V30 23826 C 2191.05 -0.231258 2.99809 0
M  V30 23827 C 2192.6 -0.306194 3.11499 0
M  V30 23828 C 2193.07 -0.210525 4.57516 0
M  V30 23829 N 2194.57 -0.268424 4.62422 0
M  V30 23830 C 2195.3 -0.217739 5.72986 0
M  V30 23831 N 2194.8 -0.117649 6.927 0
M  V30 23832 N 2196.59 -0.269606 5.61453 0
M  V30 23833 H 2188.74 0.91049 1.91895 0
M  V30 23834 H 2191 0.349005 0.881419 0
M  V30 23835 H 2190.71 0.726333 3.44118 0
M  V30 23836 H 2190.58 -1.01332 3.63334 0
M  V30 23837 H 2192.97 -1.25423 2.6712 0
M  V30 23838 H 2193.05 0.505733 2.50751 0
M  V30 23839 H 2192.7 0.733965 5.02569 0
M  V30 23840 H 2192.63 -1.04094 5.16209 0
M  V30 23841 H 2195.12 -0.347112 3.76302 0
M  V30 23842 H 2195.43 -0.0848705 7.72753 0
M  V30 23843 H 2193.77 -0.0832758 6.9495 0
M  V30 23844 H 2196.97 -0.345996 4.6682 0
M  V30 23845 H 2197.14 -0.22664 6.47604 0
M  V30 23846 N 2190.54 -1.55222 -0.272728 0
M  V30 23847 C 2191.49 -1.84508 -1.33943 0
M  V30 23848 C 2192.48 -0.704015 -1.4468 0
M  V30 23849 O 2193.67 -0.965364 -1.48357 0
M  V30 23850 C 2190.8 -2.12071 -2.69964 0
M  V30 23851 C 2189.89 -3.32438 -2.63336 0
M  V30 23852 N 2190.28 -4.52338 -2.26327 0
M  V30 23853 C 2188.57 -3.35033 -2.94396 0
M  V30 23854 C 2189.28 -5.34429 -2.29696 0
M  V30 23855 N 2188.25 -4.72843 -2.6818 0
M  V30 23856 H 2192.05 -2.74756 -1.04338 0
M  V30 23857 H 2189.57 -1.55102 -0.481361 0
M  V30 23858 H 2191.56 -2.31209 -3.46912 0
M  V30 23859 H 2190.22 -1.23108 -3.00457 0
M  V30 23860 H 2191.24 -4.78432 -1.983 0
M  V30 23861 H 2187.91 -2.56263 -3.29599 0
M  V30 23862 H 2189.3 -6.40297 -2.03641 0
M  V30 23863 N 2192.02 0.537252 -1.4816 0
M  V30 23864 C 2193.26 1.30403 -1.57399 0
M  V30 23865 C 2193.63 1.90504 -0.239236 0
M  V30 23866 O 2194.83 2.68005 -0.206575 0
M  V30 23867 C 2193.1 2.3697 -2.67545 0
M  V30 23868 S 2194.66 3.23469 -2.96501 0
M  V30 23869 H 2191.48 0.443674 -0.555584 0
M  V30 23870 H 2194.08 0.61288 -1.85645 0
M  V30 23871 H 2192.78 1.91285 -3.63096 0
M  V30 23872 H 2192.31 3.10801 -2.41177 0
M  V30 23873 H 2194.33 4.36893 -2.35242 0
M  V30 23874 N 2193.5 1.36626 0.785562 0
M  V30 23875 C 2194.75 1.30398 1.5388 0
M  V30 23876 C 2195.06 -0.113418 1.95271 0
M  V30 23877 O 2196.27 -0.298094 2.69859 0
M  V30 23878 C 2194.72 2.28807 2.77804 0
M  V30 23879 C 2194.33 3.76004 2.43568 0
M  V30 23880 C 2196.08 2.31564 3.55779 0
M  V30 23881 C 2193.98 4.66179 3.6391 0
M  V30 23882 H 2192.91 0.484576 0.57767 0
M  V30 23883 H 2195.56 1.6201 0.861677 0
M  V30 23884 H 2193.95 1.90194 3.47336 0
M  V30 23885 H 2195.12 4.23375 1.81908 0
M  V30 23886 H 2193.44 3.76059 1.78797 0
M  V30 23887 H 2196.03 2.96144 4.452 0
M  V30 23888 H 2196.38 1.32527 3.94642 0
M  V30 23889 H 2196.91 2.68814 2.9323 0
M  V30 23890 H 2193.65 5.66293 3.3014 0
M  V30 23891 H 2193.17 4.23522 4.24722 0
M  V30 23892 H 2194.85 4.82639 4.30892 0
M  V30 23893 N 2194.98 -1.01016 1.20969 0
M  V30 23894 C 2196.23 -1.74126 1.01799 0
M  V30 23895 C 2196.54 -1.90361 -0.449657 0
M  V30 23896 O 2197.75 -2.60627 -0.760634 0
M  V30 23897 C 2196.2 -3.13211 1.77276 0
M  V30 23898 C 2195.81 -3.04967 3.28176 0
M  V30 23899 C 2197.55 -3.90486 1.66496 0
M  V30 23900 C 2195.46 -4.391 3.96164 0
M  V30 23901 H 2194.39 -0.652817 0.377288 0
M  V30 23902 H 2197.04 -1.12906 1.44653 0
M  V30 23903 H 2195.42 -3.75011 1.27211 0
M  V30 23904 H 2196.6 -2.52436 3.85503 0
M  V30 23905 H 2194.91 -2.41182 3.39441 0
M  V30 23906 H 2197.51 -4.89734 2.14626 0
M  V30 23907 H 2197.85 -4.11623 0.622272 0
M  V30 23908 H 2198.39 -3.35328 2.14009 0
M  V30 23909 H 2195.13 -4.23165 5.00611 0
M  V30 23910 H 2194.65 -4.91611 3.43625 0
M  V30 23911 H 2196.32 -5.07919 4.00783 0
M  V30 23912 N 2196.46 -1.01661 -1.20428 0
M  V30 23913 C 2197.7 -0.714489 -1.91506 0
M  V30 23914 C 2198.06 0.742205 -1.77074 0
M  V30 23915 O 2199.26 1.15684 -2.42633 0
M  V30 23916 C 2197.53 -1.13815 -3.38793 0
M  V30 23917 S 2199.09 -0.958001 -4.28215 0
M  V30 23918 H 2195.91 -0.260483 -0.661566 0
M  V30 23919 H 2198.51 -1.30387 -1.45669 0
M  V30 23920 H 2197.22 -2.19421 -3.46818 0
M  V30 23921 H 2196.75 -0.541543 -3.89655 0
M  V30 23922 H 2198.76 0.138444 -4.96007 0
M  V30 23923 N 2197.93 1.36205 -0.792844 0
M  V30 23924 C 2199.16 2.03402 -0.37886 0
M  V30 23925 C 2199.58 1.59776 1.00583 0
M  V30 23926 O 2198.93 0.788793 1.64573 0
M  V30 23927 C 2198.99 3.5885 -0.436893 0
M  V30 23928 O 2198.71 4.00886 -1.76698 0
M  V30 23929 C 2200.21 4.43298 -0.0139722 0
M  V30 23930 H 2197.43 0.652689 -0.155684 0
M  V30 23931 H 2199.97 1.74111 -1.07264 0
M  V30 23932 H 2198.13 3.86838 0.208507 0
M  V30 23933 H 2198.54 4.95489 -1.72019 0
M  V30 23934 H 2200.01 5.51899 -0.105712 0
M  V30 23935 H 2200.49 4.26732 1.03908 0
M  V30 23936 H 2201.1 4.20578 -0.631994 0
M  V30 23937 N 2199.41 0.545154 1.47871 0
M  V30 23938 C 2200.66 0.016646 2.02793 0
M  V30 23939 C 2200.99 -1.32487 1.41989 0
M  V30 23940 O 2200.27 -1.85927 0.571078 0
M  V30 23941 C 2200.55 -0.0892662 3.59989 0
M  V30 23942 C 2200.4 1.27849 4.31248 0
M  V30 23943 C 2201.72 -0.808648 4.32607 0
M  V30 23944 H 2198.84 0.00752331 0.736962 0
M  V30 23945 H 2201.48 0.705116 1.76432 0
M  V30 23946 H 2199.63 -0.675614 3.8258 0
M  V30 23947 H 2201.3 1.90711 4.20032 0
M  V30 23948 H 2199.55 1.85639 3.92072 0
M  V30 23949 H 2200.22 1.15722 5.39734 0
M  V30 23950 H 2202.69 -0.310919 4.14937 0
M  V30 23951 H 2201.57 -0.851686 5.42252 0
M  V30 23952 H 2201.83 -1.86222 4.00966 0
M  V30 23953 N 2200.89 -1.55074 0.28101 0
M  V30 23954 C 2202.13 -2.01633 -0.335198 0
M  V30 23955 C 2202.49 -1.16511 -1.52608 0
M  V30 23956 O 2203.7 -1.52676 -2.21232 0
M  V30 23957 C 2201.97 -3.50436 -0.70211 0
M  V30 23958 S 2203.53 -4.18976 -1.30402 0
M  V30 23959 H 2200.34 -0.703359 -0.103955 0
M  V30 23960 H 2202.95 -1.91275 0.40422 0
M  V30 23961 H 2201.65 -4.10034 0.173402 0
M  V30 23962 H 2201.18 -3.64789 -1.47284 0
M  V30 23963 H 2203.2 -4.23091 -2.59245 0
M  V30 23964 N 2202.37 -0.00838561 -1.57598 0
M  V30 23965 C 2203.28 0.99645 -2.12387 0
M  V30 23966 C 2204.3 1.37125 -1.0711 0
M  V30 23967 O 2205.47 1.45688 -1.39058 0
M  V30 23968 C 2202.54 2.26694 -2.62318 0
M  V30 23969 C 2201.6 1.95449 -3.82228 0
M  V30 23970 C 2200.83 3.16441 -4.29768 0
M  V30 23971 O 2201.05 4.2841 -3.76592 0
M  V30 23972 O 2199.99 2.99949 -5.21837 0
M  V30 23973 H 2203.81 0.560673 -2.9848 0
M  V30 23974 H 2201.4 0.210961 -1.47903 0
M  V30 23975 H 2203.28 3.01317 -2.94594 0
M  V30 23976 H 2201.96 2.69494 -1.79318 0
M  V30 23977 H 2200.86 1.18275 -3.54911 0
M  V30 23978 H 2202.2 1.57481 -4.66327 0
M  V30 23979 N 2203.85 1.55365 0.264492 0
M  V30 23980 C 2205.1 1.76023 0.99299 0
M  V30 23981 C 2205.42 0.569132 1.8651 0
M  V30 23982 O 2204.69 -0.415701 1.91439 0
M  V30 23983 H 2203.27 0.649141 0.369627 0
M  V30 23984 H 2205.93 1.9278 0.286673 0
M  V30 23985 H 2205.02 2.6646 1.62498 0
M  V30 23986 N 2205.33 -0.529387 1.48443 0
M  V30 23987 C 2206.74 -0.85798 1.34577 0
M  V30 23988 C 2206.94 -1.98308 0.357235 0
M  V30 23989 O 2206 -2.51528 -0.221335 0
M  V30 23990 C 2207.31 -1.22495 2.74619 0
M  V30 23991 C 2208.86 -1.33479 2.83112 0
M  V30 23992 C 2209.33 -1.73519 4.23858 0
M  V30 23993 N 2210.82 -1.8062 4.26533 0
M  V30 23994 C 2211.56 -2.12987 5.32376 0
M  V30 23995 N 2211.06 -2.43774 6.48495 0
M  V30 23996 N 2212.85 -2.13998 5.1977 0
M  V30 23997 H 2205 0.212962 2.1133 0
M  V30 23998 H 2207.26 0.0326365 0.947438 0
M  V30 23999 H 2206.97 -0.471843 3.4852 0
M  V30 24000 H 2206.84 -2.17495 3.08181 0
M  V30 24001 H 2209.23 -2.07866 2.09465 0
M  V30 24002 H 2209.31 -0.365983 2.53168 0
M  V30 24003 H 2208.95 -0.996925 4.9802 0
M  V30 24004 H 2208.88 -2.71451 4.51245 0
M  V30 24005 H 2211.38 -1.59102 3.42775 0
M  V30 24006 H 2211.69 -2.67579 7.24998 0
M  V30 24007 H 2210.03 -2.41293 6.51769 0
M  V30 24008 H 2213.22 -1.89404 4.2807 0
M  V30 24009 H 2213.4 -2.38891 6.02358 0
M  V30 24010 N 2206.8 -1.37041 -0.778305 0
M  V30 24011 C 2207.71 -1.3445 -1.92251 0
M  V30 24012 C 2208.73 -0.245021 -1.72266 0
M  V30 24013 O 2209.91 -0.479293 -1.95614 0
M  V30 24014 C 2206.97 -1.14405 -3.2728 0
M  V30 24015 C 2206.03 -2.33931 -3.59965 0
M  V30 24016 C 2205.26 -2.14834 -4.88551 0
M  V30 24017 O 2205.49 -1.12922 -5.59111 0
M  V30 24018 O 2204.42 -3.0287 -5.20147 0
M  V30 24019 H 2208.25 -2.30807 -1.97388 0
M  V30 24020 H 2205.83 -1.17703 -0.920134 0
M  V30 24021 H 2207.71 -1.05189 -4.0806 0
M  V30 24022 H 2206.39 -0.211181 -3.2301 0
M  V30 24023 H 2205.3 -2.48718 -2.79446 0
M  V30 24024 H 2206.63 -3.25763 -3.6897 0
M  V30 24025 N 2208.28 1.00373 -1.21503 0
M  V30 24026 C 2209.53 1.74527 -1.04461 0
M  V30 24027 C 2209.88 1.87819 0.417353 0
M  V30 24028 O 2209.18 1.40236 1.30554 0
M  V30 24029 C 2209.37 3.15624 -1.67679 0
M  V30 24030 C 2209.2 3.1609 -3.1987 0
M  V30 24031 C 2207.97 3.22598 -3.8892 0
M  V30 24032 C 2210.17 3.01105 -4.16942 0
M  V30 24033 N 2208.15 3.12703 -5.2829 0
M  V30 24034 C 2209.52 2.99121 -5.43071 0
M  V30 24035 C 2211.57 2.85416 -4.07973 0
M  V30 24036 C 2210.28 2.83057 -6.61265 0
M  V30 24037 C 2212.3 2.70709 -5.25805 0
M  V30 24038 C 2211.67 2.69403 -6.50847 0
M  V30 24039 H 2207.76 0.648775 -0.436595 0
M  V30 24040 H 2210.35 1.1929 -1.53877 0
M  V30 24041 H 2208.52 3.69127 -1.20828 0
M  V30 24042 H 2210.25 3.78279 -1.43831 0
M  V30 24043 H 2207.01 3.29844 -3.39853 0
M  V30 24044 H 2207.43 3.11095 -6.0129 0
M  V30 24045 H 2212.07 2.85231 -3.12095 0
M  V30 24046 H 2209.79 2.81989 -7.57303 0
M  V30 24047 H 2213.38 2.59567 -5.20688 0
M  V30 24048 H 2212.26 2.58157 -7.40489 0
M  V30 24049 N 2209.76 1.02298 1.19887 0
M  V30 24050 C 2210.71 0.598691 2.229 0
M  V30 24051 C 2211.68 -0.384492 1.61589 0
M  V30 24052 O 2212.86 -0.282489 1.88697 0
M  V30 24053 C 2210 -0.0503869 3.45063 0
M  V30 24054 C 2209.11 0.978127 4.20781 0
M  V30 24055 C 2208.25 0.299432 5.30355 0
M  V30 24056 C 2207.29 1.31426 5.97824 0
M  V30 24057 N 2206.43 0.66179 6.98974 0
M  V30 24058 H 2211.27 1.48173 2.58551 0
M  V30 24059 H 2208.8 0.741606 1.27038 0
M  V30 24060 H 2210.76 -0.443898 4.14832 0
M  V30 24061 H 2209.39 -0.897042 3.10085 0
M  V30 24062 H 2208.44 1.48975 3.50015 0
M  V30 24063 H 2209.75 1.74967 4.67106 0
M  V30 24064 H 2208.91 -0.14924 6.06516 0
M  V30 24065 H 2207.65 -0.50436 4.85085 0
M  V30 24066 H 2206.65 1.77326 5.20419 0
M  V30 24067 H 2207.88 2.11945 6.45179 0
M  V30 24068 H 2205.82 -0.122017 6.55887 0
M  V30 24069 H 2205.74 1.3713 7.43459 0
M  V30 24070 H 2207.01 0.236922 7.7914 0
M  V30 24071 N 2211.24 -1.35782 0.800057 0
M  V30 24072 C 2212.49 -1.9856 0.376632 0
M  V30 24073 C 2212.81 -1.63797 -1.0581 0
M  V30 24074 O 2212.08 -0.917202 -1.73102 0
M  V30 24075 H 2210.66 -0.734465 0.136274 0
M  V30 24076 H 2213.32 -1.65804 1.02445 0
M  V30 24077 H 2212.41 -3.08432 0.477056 0
M  V30 24078 N 2212.72 -0.552988 -1.4758 0
M  V30 24079 C 2213.96 -0.0273058 -2.02082 0
M  V30 24080 C 2214.28 1.32561 -1.43013 0
M  V30 24081 O 2213.55 1.86363 -0.603778 0
M  V30 24082 H 2212.13 -0.00710495 -0.746966 0
M  V30 24083 H 2214.8 -0.72204 -1.81032 0
M  V30 24084 H 2213.89 0.0639403 -3.12034 0
M  V30 24085 N 2214.19 1.54923 -0.28923 0
M  V30 24086 C 2215.42 2.04309 0.326427 0
M  V30 24087 C 2215.84 1.16703 1.48411 0
M  V30 24088 O 2215.19 0.190119 1.81507 0
M  V30 24089 C 2215.24 3.52674 0.793952 0
M  V30 24090 O 2214.97 4.36947 -0.317641 0
M  V30 24091 C 2216.47 4.18007 1.47598 0
M  V30 24092 H 2213.69 0.667059 0.0726155 0
M  V30 24093 H 2216.23 2.00026 -0.425436 0
M  V30 24094 H 2214.39 3.57355 1.49587 0
M  V30 24095 H 2214.8 5.24481 0.0442264 0
M  V30 24096 H 2216.27 5.23379 1.75438 0
M  V30 24097 H 2216.75 3.67029 2.41218 0
M  V30 24098 H 2217.36 4.17368 0.817547 0
M  V30 24099 N 2215.67 0.0167433 1.57591 0
M  V30 24100 C 2216.91 -0.668868 1.93146 0
M  V30 24101 C 2217.28 -1.69999 0.892436 0
M  V30 24102 O 2218.48 -2.43719 1.13378 0
M  V30 24103 C 2216.75 -1.28033 3.3368 0
M  V30 24104 S 2218.31 -1.98874 3.91145 0
M  V30 24105 H 2215.12 -0.220534 0.675933 0
M  V30 24106 H 2217.73 0.0774449 1.95347 0
M  V30 24107 H 2216.43 -0.517267 4.07127 0
M  V30 24108 H 2215.96 -2.06421 3.34894 0
M  V30 24109 H 2217.98 -3.2658 3.73577 0
M  V30 24110 N 2217.15 -1.55503 -0.256249 0
M  V30 24111 C 2218.56 -1.67432 -0.826039 0
M  V30 24112 C 2218.91 -0.612478 -1.86395 0
M  V30 24113 O 2218.04 0.242987 -2.15031 0
M  V30 24114 C 2218.63 -3.03535 -1.50507 0
M  V30 24115 C 2217.19 -3.17435 -2.02267 0
M  V30 24116 C 2216.34 -2.63282 -0.870502 0
M  V30 24117 H 2219.29 -1.58667 -0.0322449 0
M  V30 24118 H 2219.31 -2.97458 -2.37274 0
M  V30 24119 H 2218.82 -3.80796 -0.749417 0
M  V30 24120 H 2216.92 -2.44979 -2.80742 0
M  V30 24121 H 2217.04 -4.24223 -2.22648 0
M  V30 24122 H 2215.4 -2.20866 -1.26847 0
M  V30 24123 H 2216.18 -3.43061 -0.128088 0
M  V30 24124 N 2218.63 0.521507 -1.48721 0
M  V30 24125 C 2219.58 1.62524 -1.63874 0
M  V30 24126 C 2220.55 1.58996 -0.480587 0
M  V30 24127 O 2221.73 1.77293 -0.705116 0
M  V30 24128 C 2218.87 3.00756 -1.69232 0
M  V30 24129 C 2217.98 3.14455 -2.96212 0
M  V30 24130 C 2217.12 4.43298 -2.92678 0
M  V30 24131 C 2216.16 4.50556 -4.14326 0
M  V30 24132 N 2215.29 5.70798 -4.0882 0
M  V30 24133 H 2220.13 1.48913 -2.58126 0
M  V30 24134 H 2217.67 0.724856 -1.28001 0
M  V30 24135 H 2219.63 3.8085 -1.70321 0
M  V30 24136 H 2218.26 3.13119 -0.784641 0
M  V30 24137 H 2217.31 2.27558 -3.0483 0
M  V30 24138 H 2218.62 3.15679 -3.86197 0
M  V30 24139 H 2217.78 5.31691 -2.92215 0
M  V30 24140 H 2216.52 4.44608 -2.00437 0
M  V30 24141 H 2215.52 3.60568 -4.15055 0
M  V30 24142 H 2216.75 4.50977 -5.07737 0
M  V30 24143 H 2214.69 5.7299 -3.19404 0
M  V30 24144 H 2214.61 5.73552 -4.92519 0
M  V30 24145 H 2215.88 6.61455 -4.12429 0
M  V30 24146 N 2220.11 1.37452 0.771027 0
M  V30 24147 C 2221.35 1.34099 1.54262 0
M  V30 24148 C 2221.71 -0.0737302 1.91858 0
M  V30 24149 O 2222.91 -0.231983 2.67797 0
M  V30 24150 C 2221.18 2.25449 2.77322 0
M  V30 24151 S 2222.74 2.39955 3.67379 0
M  V30 24152 H 2219.56 0.476043 0.528114 0
M  V30 24153 H 2222.16 1.73208 0.906603 0
M  V30 24154 H 2220.87 3.27158 2.47782 0
M  V30 24155 H 2220.4 1.87427 3.45882 0
M  V30 24156 H 2222.41 1.61067 4.69331 0
M  V30 24157 N 2221.58 -0.997276 1.22033 0
M  V30 24158 C 2222.83 -1.73276 1.04019 0
M  V30 24159 C 2223.15 -1.90285 -0.426222 0
M  V30 24160 O 2222.42 -1.45933 -1.30691 0
M  V30 24161 H 2221 -0.641993 0.381908 0
M  V30 24162 H 2223.67 -1.20135 1.53472 0
M  V30 24163 H 2222.76 -2.72893 1.51446 0
M  V30 24164 N 2223.06 -1.02932 -1.19343 0
M  V30 24165 C 2224.48 -0.746471 -1.41067 0
M  V30 24166 C 2224.68 0.668742 -1.90079 0
M  V30 24167 O 2223.73 1.43467 -2.07783 0
M  V30 24168 C 2225.05 -1.78296 -2.42138 0
M  V30 24169 C 2226.6 -1.80256 -2.55884 0
M  V30 24170 C 2227.07 -2.82866 -3.60209 0
M  V30 24171 N 2228.56 -2.81686 -3.67706 0
M  V30 24172 C 2229.3 -3.57735 -4.48122 0
M  V30 24173 N 2228.79 -4.435 -5.3224 0
M  V30 24174 N 2230.59 -3.46275 -4.42776 0
M  V30 24175 H 2222.74 -1.94277 -0.858502 0
M  V30 24176 H 2225 -0.839953 -0.439527 0
M  V30 24177 H 2224.71 -2.7975 -2.1315 0
M  V30 24178 H 2224.58 -1.60563 -3.4132 0
M  V30 24179 H 2226.97 -0.794807 -2.84195 0
M  V30 24180 H 2227.05 -2.02065 -1.56854 0
M  V30 24181 H 2226.69 -3.83813 -3.32641 0
M  V30 24182 H 2226.62 -2.58315 -4.58891 0
M  V30 24183 H 2229.11 -2.19482 -3.0763 0
M  V30 24184 H 2229.43 -4.98266 -5.9072 0
M  V30 24185 H 2227.77 -4.47573 -5.31699 0
M  V30 24186 H 2230.96 -2.78684 -3.76102 0
M  V30 24187 H 2231.13 -4.05794 -5.05208 0
M  V30 24188 N 2224.54 1.35356 -0.807246 0
M  V30 24189 C 2225.49 2.27201 -0.190746 0
M  V30 24190 C 2226.47 1.47805 0.635812 0
M  V30 24191 O 2227.67 1.69997 0.492961 0
M  V30 24192 C 2224.8 3.3691 0.659277 0
M  V30 24193 C 2223.88 4.2373 -0.177046 0
M  V30 24194 N 2224.27 4.90355 -1.24038 0
M  V30 24195 C 2222.57 4.45981 0.0412169 0
M  V30 24196 C 2223.27 5.5472 -1.75101 0
M  V30 24197 N 2222.25 5.33217 -1.05736 0
M  V30 24198 H 2226.05 2.76207 -1.00435 0
M  V30 24199 H 2223.56 1.48891 -0.648471 0
M  V30 24200 H 2225.56 4.01658 1.11699 0
M  V30 24201 H 2224.22 2.89457 1.47122 0
M  V30 24202 H 2225.23 4.91811 -1.62304 0
M  V30 24203 H 2221.91 4.09323 0.822248 0
M  V30 24204 H 2223.3 6.17873 -2.63974 0
M  V30 24205 N 2226.02 0.560807 1.47284 0
M  V30 24206 C 2227.27 0.0380223 2.02064 0
M  V30 24207 C 2227.59 -1.31801 1.43714 0
M  V30 24208 O 2226.86 -1.86041 0.613652 0
M  V30 24209 H 2225.44 0.0110662 0.746918 0
M  V30 24210 H 2228.1 0.73163 1.80647 0
M  V30 24211 H 2227.2 -0.0473914 3.12064 0
M  V30 24212 N 2227.5 -1.54768 0.297442 0
M  V30 24213 C 2228.44 -2.23387 -0.580237 0
M  V30 24214 C 2229.41 -1.21519 -1.13236 0
M  V30 24215 O 2230.6 -1.50129 -1.17754 0
M  V30 24216 C 2227.74 -2.97558 -1.74796 0
M  V30 24217 C 2226.85 -4.14192 -1.22757 0
M  V30 24218 C 2225.99 -4.75953 -2.35887 0
M  V30 24219 C 2225.03 -5.84738 -1.80963 0
M  V30 24220 N 2224.16 -6.40469 -2.87653 0
M  V30 24221 H 2229 -2.97998 0.0115357 0
M  V30 24222 H 2226.54 -1.4709 0.0174619 0
M  V30 24223 H 2228.5 -3.3879 -2.43469 0
M  V30 24224 H 2227.13 -2.2533 -2.31141 0
M  V30 24225 H 2226.18 -3.77925 -0.433205 0
M  V30 24226 H 2227.49 -4.92577 -0.785464 0
M  V30 24227 H 2226.65 -5.20019 -3.12514 0
M  V30 24228 H 2225.38 -3.96892 -2.83422 0
M  V30 24229 H 2224.39 -5.40099 -1.02824 0
M  V30 24230 H 2225.61 -6.6568 -1.34337 0
M  V30 24231 H 2223.56 -5.64293 -3.34528 0
M  V30 24232 H 2223.48 -7.1419 -2.47927 0
M  V30 24233 H 2224.75 -6.89193 -3.64188 0
M  V30 24234 N 2228.97 -0.0251005 -1.5758 0
M  V30 24235 C 2230.39 0.514292 -1.79477 0
M  V30 24236 C 2230.74 1.72489 -0.934987 0
M  V30 24237 O 2229.86 2.15918 -0.144283 0
M  V30 24238 C 2230.46 0.939785 -3.25505 0
M  V30 24239 C 2229.02 1.42432 -3.48411 0
M  V30 24240 C 2228.16 0.387152 -2.74584 0
M  V30 24241 H 2231.11 -0.251157 -1.567 0
M  V30 24242 H 2231.13 1.80439 -3.34996 0
M  V30 24243 H 2230.65 0.0584946 -3.88056 0
M  V30 24244 H 2228.75 2.32567 -2.91107 0
M  V30 24245 H 2228.86 1.43447 -4.57121 0
M  V30 24246 H 2227.22 0.854367 -2.39943 0
M  V30 24247 H 2228.01 -0.485603 -3.39848 0
M  V30 24248 N 2230.45 1.55637 0.247999 0
M  V30 24249 C 2231.7 1.76619 0.974103 0
M  V30 24250 C 2232.01 0.588829 1.86527 0
M  V30 24251 O 2233.22 0.681641 2.62804 0
M  V30 24252 C 2231.68 3.12682 1.78207 0
M  V30 24253 C 2231.28 4.38063 0.938353 0
M  V30 24254 C 2233.03 3.43004 2.50098 0
M  V30 24255 C 2230.94 5.65158 1.74215 0
M  V30 24256 H 2229.87 0.658411 0.367438 0
M  V30 24257 H 2232.52 1.82068 0.228808 0
M  V30 24258 H 2230.9 3.01337 2.56928 0
M  V30 24259 H 2232.07 4.60393 0.193554 0
M  V30 24260 H 2230.39 4.15068 0.332832 0
M  V30 24261 H 2232.98 4.35176 3.10687 0
M  V30 24262 H 2233.33 2.64277 3.21657 0
M  V30 24263 H 2233.86 3.55559 1.78388 0
M  V30 24264 H 2230.6 6.46703 1.07031 0
M  V30 24265 H 2230.12 5.46931 2.46226 0
M  V30 24266 H 2231.8 6.04374 2.30956 0
M  V30 24267 N 2231.93 -0.513613 1.48996 0
M  V30 24268 C 2233.16 -1.29285 1.61533 0
M  V30 24269 C 2233.57 -1.86685 0.281834 0
M  V30 24270 O 2232.93 -1.67217 -0.731082 0
M  V30 24271 C 2232.98 -2.4321 2.67453 0
M  V30 24272 O 2232.7 -1.88172 3.9563 0
M  V30 24273 C 2234.2 -3.3478 2.9058 0
M  V30 24274 H 2231.42 -0.392578 0.544172 0
M  V30 24275 H 2233.97 -0.617922 1.94941 0
M  V30 24276 H 2232.12 -3.06556 2.36859 0
M  V30 24277 H 2232.54 -2.62868 4.53873 0
M  V30 24278 H 2234.01 -4.11028 3.68456 0
M  V30 24279 H 2234.49 -3.91011 2.00018 0
M  V30 24280 H 2235.09 -2.77212 3.22542 0
M  V30 24281 N 2233.41 -1.37859 -0.763727 0
M  V30 24282 C 2234.65 -1.34915 -1.53549 0
M  V30 24283 C 2235.01 0.0635544 -1.91895 0
M  V30 24284 O 2236.21 0.217777 -2.67916 0
M  V30 24285 C 2234.49 -2.26917 -2.76122 0
M  V30 24286 S 2236.04 -2.419 -3.66101 0
M  V30 24287 H 2232.86 -0.478837 -0.525582 0
M  V30 24288 H 2235.46 -1.73686 -0.897405 0
M  V30 24289 H 2234.17 -3.28467 -2.46044 0
M  V30 24290 H 2233.7 -1.89259 -3.44883 0
M  V30 24291 H 2235.71 -1.63554 -4.68471 0
M  V30 24292 N 2234.89 0.990791 -1.22561 0
M  V30 24293 C 2236.14 1.72722 -1.04936 0
M  V30 24294 C 2236.46 1.90508 0.416125 0
M  V30 24295 O 2235.73 1.46624 1.29916 0
M  V30 24296 H 2234.31 0.639959 -0.385308 0
M  V30 24297 H 2236.97 1.19319 -1.54107 0
M  V30 24298 H 2236.06 2.72086 -1.52891 0
M  V30 24299 N 2236.37 1.03564 1.18795 0
M  V30 24300 C 2237.3 0.566798 2.21049 0
M  V30 24301 C 2238.28 -0.395965 1.57705 0
M  V30 24302 O 2239.46 -0.311465 1.85909 0
M  V30 24303 C 2236.59 -0.172644 3.3826 0
M  V30 24304 C 2235.63 0.742594 4.19985 0
M  V30 24305 S 2236.47 2.22263 4.87195 0
M  V30 24306 C 2237.62 1.49389 6.07811 0
M  V30 24307 H 2237.86 1.43317 2.60476 0
M  V30 24308 H 2235.39 0.846156 1.29149 0
M  V30 24309 H 2237.35 -0.59312 4.06192 0
M  V30 24310 H 2236.01 -1.01483 2.97254 0
M  V30 24311 H 2235.2 0.171354 5.03709 0
M  V30 24312 H 2234.8 1.10169 3.57406 0
M  V30 24313 H 2237.09 0.784175 6.72946 0
M  V30 24314 H 2238.04 2.30798 6.69431 0
M  V30 24315 H 2238.45 0.988428 5.55779 0
M  V30 24316 N 2237.84 -1.34926 0.814413 0
M  V30 24317 C 2239.07 -2.03304 0.410133 0
M  V30 24318 C 2239.49 -1.60953 -0.973436 0
M  V30 24319 O 2238.85 -0.789993 -1.63183 0
M  V30 24320 C 2238.9 -3.56967 0.510553 0
M  V30 24321 O 2238 -4.09679 -0.472963 0
M  V30 24322 H 2237.34 -0.641843 0.170099 0
M  V30 24323 H 2239.87 -1.72356 1.10247 0
M  V30 24324 H 2239.88 -4.06196 0.383206 0
M  V30 24325 H 2238.56 -3.87141 1.5197 0
M  V30 24326 H 2237.14 -3.71649 -0.305206 0
M  V30 24327 N 2239.32 -0.56861 -1.46985 0
M  V30 24328 C 2240.25 0.160712 -2.32946 0
M  V30 24329 C 2241.23 0.897605 -1.44489 0
M  V30 24330 O 2242.42 0.875836 -1.73328 0
M  V30 24331 C 2239.55 1.18397 -3.26496 0
M  V30 24332 C 2238.5 0.56282 -4.24283 0
M  V30 24333 C 2237.83 1.69154 -5.07239 0
M  V30 24334 C 2239.13 -0.490853 -5.19988 0
M  V30 24335 H 2240.82 -0.556968 -2.94174 0
M  V30 24336 H 2238.37 -0.269295 -1.4146 0
M  V30 24337 H 2240.32 1.70244 -3.8548 0
M  V30 24338 H 2239.04 1.93174 -2.63346 0
M  V30 24339 H 2237.7 0.0655519 -3.66541 0
M  V30 24340 H 2237.35 2.42863 -4.40485 0
M  V30 24341 H 2237.05 1.28164 -5.73452 0
M  V30 24342 H 2238.58 2.21304 -5.69084 0
M  V30 24343 H 2239.99 -0.0580055 -5.73271 0
M  V30 24344 H 2238.39 -0.820269 -5.94467 0
M  V30 24345 H 2239.46 -1.38248 -4.64775 0
M  V30 24346 N 2240.8 1.54608 -0.305646 0
M  V30 24347 C 2241.76 2.22365 0.555551 0
M  V30 24348 C 2242.76 1.21121 1.05766 0
M  V30 24349 O 2243.95 1.45824 0.952946 0
M  V30 24350 C 2241.08 2.91367 1.76969 0
M  V30 24351 H 2242.28 2.99878 -0.0365099 0
M  V30 24352 H 2239.83 1.56198 -0.0565281 0
M  V30 24353 H 2240.57 2.17945 2.40147 0
M  V30 24354 H 2240.35 3.6559 1.41726 0
M  V30 24355 H 2241.84 3.43043 2.38142 0
M  V30 24356 N 2242.28 0.033457 1.57564 0
M  V30 24357 C 2243.55 -0.683131 1.83283 0
M  V30 24358 C 2243.93 -1.90082 0.918264 0
M  V30 24359 O 2243.28 -2.28486 -0.0250729 0
M  V30 24360 C 2243.49 -1.05724 3.32601 0
M  V30 24361 C 2244.84 -1.44704 3.99181 0
M  V30 24362 O 2245.86 -1.15009 3.37122 0
M  V30 24363 O 2244.72 -2.00051 5.08569 0
M  V30 24364 H 2241.82 -0.335533 0.755875 0
M  V30 24365 H 2244.36 0.06147 1.69589 0
M  V30 24366 H 2243.14 -0.190759 3.90835 0
M  V30 24367 H 2242.76 -1.85987 3.51418 0
M  V30 24368 N 2243.76 -1.55766 -0.239741 0
M  V30 24369 C 2245 -1.77932 -0.96677 0
M  V30 24370 C 2245.33 -0.599047 -1.85045 0
M  V30 24371 O 2244.59 0.417362 -1.91198 0
M  V30 24372 C 2244.88 -3.05676 -1.85195 0
M  V30 24373 C 2244.55 -4.36691 -1.12303 0
M  V30 24374 C 2243.21 -4.72292 -0.921606 0
M  V30 24375 C 2245.56 -5.17654 -0.606928 0
M  V30 24376 C 2242.89 -5.86386 -0.191893 0
M  V30 24377 C 2245.24 -6.32505 0.109352 0
M  V30 24378 C 2243.91 -6.66722 0.32219 0
M  V30 24379 H 2243.18 -0.651099 -0.353766 0
M  V30 24380 H 2245.83 -1.90036 -0.236307 0
M  V30 24381 H 2244.13 -2.88614 -2.6497 0
M  V30 24382 H 2245.83 -3.20026 -2.41629 0
M  V30 24383 H 2242.42 -4.08727 -1.28997 0
M  V30 24384 H 2246.6 -4.90599 -0.750067 0
M  V30 24385 H 2241.86 -6.11398 -0.0165874 0
M  V30 24386 H 2246.03 -6.94479 0.516859 0
M  V30 24387 H 2243.66 -7.54977 0.889573 0
M  V30 24388 N 2245.23 0.505704 -1.49266 0
M  V30 24389 C 2246.14 1.63424 -1.68315 0
M  V30 24390 C 2247.16 1.64547 -0.56571 0
M  V30 24391 O 2248.34 1.83054 -0.839833 0
M  V30 24392 C 2245.4 2.9981 -1.74112 0
M  V30 24393 C 2244.46 3.0935 -2.97659 0
M  V30 24394 C 2243.69 4.3923 -3.03171 0
M  V30 24395 O 2243.92 5.27755 -2.16405 0
M  V30 24396 O 2242.85 4.53645 -3.95588 0
M  V30 24397 H 2246.68 1.50284 -2.6391 0
M  V30 24398 H 2244.26 0.681478 -1.32952 0
M  V30 24399 H 2246.14 3.80877 -1.80306 0
M  V30 24400 H 2244.82 3.13221 -0.816956 0
M  V30 24401 H 2243.73 2.27488 -2.96985 0
M  V30 24402 H 2245.06 3.00864 -3.8954 0
M  V30 24403 N 2246.71 1.38262 0.756405 0
M  V30 24404 C 2247.62 1.37491 1.90088 0
M  V30 24405 C 2248.64 0.272396 1.71855 0
M  V30 24406 O 2249.81 0.510353 1.94826 0
M  V30 24407 C 2246.88 1.19598 3.25419 0
M  V30 24408 C 2245.94 2.39629 3.56197 0
M  V30 24409 C 2245.17 2.22579 4.85071 0
M  V30 24410 O 2245.4 1.21803 5.57243 0
M  V30 24411 O 2244.33 3.11107 5.15263 0
M  V30 24412 H 2248.16 2.33918 1.93691 0
M  V30 24413 H 2245.74 1.19152 0.901292 0
M  V30 24414 H 2247.62 1.11668 4.06335 0
M  V30 24415 H 2246.3 0.262543 3.22634 0
M  V30 24416 H 2245.21 2.53133 2.75453 0
M  V30 24417 H 2246.54 3.31592 3.63741 0
M  V30 24418 N 2248.19 -0.984277 1.23084 0
M  V30 24419 C 2249.61 -1.24974 0.992659 0
M  V30 24420 C 2249.81 -1.99123 -0.308583 0
M  V30 24421 O 2248.86 -2.30581 -1.02901 0
M  V30 24422 C 2250.18 -2.05308 2.19702 0
M  V30 24423 C 2251.72 -2.18461 2.24151 0
M  V30 24424 C 2252.2 -3.02185 3.44163 0
M  V30 24425 N 2253.69 -3.09771 3.44378 0
M  V30 24426 C 2254.42 -3.74867 4.33892 0
M  V30 24427 N 2253.92 -4.41817 5.33638 0
M  V30 24428 N 2255.71 -3.71714 4.21646 0
M  V30 24429 H 2247.86 -0.487417 2.06732 0
M  V30 24430 H 2250.13 -0.277928 0.906344 0
M  V30 24431 H 2249.83 -1.58195 3.14113 0
M  V30 24432 H 2249.71 -3.0606 2.2047 0
M  V30 24433 H 2252.09 -2.64784 1.30282 0
M  V30 24434 H 2252.18 -1.17111 2.27417 0
M  V30 24435 H 2251.82 -2.56561 4.38337 0
M  V30 24436 H 2251.75 -4.03697 3.38137 0
M  V30 24437 H 2254.24 -2.6213 2.72206 0
M  V30 24438 H 2254.55 -4.89255 5.98205 0
M  V30 24439 H 2252.9 -4.40538 5.37542 0
M  V30 24440 H 2256.09 -3.18576 3.42968 0
M  V30 24441 H 2256.26 -4.22164 4.91611 0
M  V30 24442 N 2249.67 -1.04192 -1.18244 0
M  V30 24443 C 2250.62 -0.60443 -2.19842 0
M  V30 24444 C 2251.6 0.353787 -1.56962 0
M  V30 24445 O 2252.79 0.172639 -1.76156 0
M  V30 24446 C 2249.92 0.0298372 -3.43287 0
M  V30 24447 C 2249.01 -0.951603 -4.13286 0
M  V30 24448 N 2249.4 -2.11914 -4.59267 0
M  V30 24449 C 2247.7 -0.777878 -4.39164 0
M  V30 24450 C 2248.4 -2.73921 -5.13169 0
M  V30 24451 N 2247.38 -2.01788 -5.0476 0
M  V30 24452 H 2251.18 -1.49414 -2.53086 0
M  V30 24453 H 2248.69 -0.910681 -1.34463 0
M  V30 24454 H 2250.69 0.360964 -4.15334 0
M  V30 24455 H 2249.35 0.915072 -3.11539 0
M  V30 24456 H 2250.36 -2.49797 -4.53676 0
M  V30 24457 H 2247.04 0.0571598 -4.17461 0
M  V30 24458 H 2248.43 -3.72874 -5.58941 0
M  V30 24459 N 2251.15 1.34492 -0.821557 0
M  V30 24460 C 2252.38 2.02259 -0.421308 0
M  V30 24461 C 2252.78 1.62022 0.977018 0
M  V30 24462 O 2252.13 0.820732 1.64346 0
M  V30 24463 C 2252.19 3.56768 -0.442373 0
M  V30 24464 C 2251.85 4.20324 -1.7938 0
M  V30 24465 C 2252.85 4.40939 -2.75443 0
M  V30 24466 C 2250.54 4.57124 -2.0819 0
M  V30 24467 C 2252.53 4.97477 -3.98491 0
M  V30 24468 C 2250.22 5.13373 -3.31498 0
M  V30 24469 C 2251.21 5.33494 -4.26466 0
M  V30 24470 O 2250.9 5.88553 -5.47596 0
M  V30 24471 H 2250.63 0.654924 -0.167484 0
M  V30 24472 H 2253.19 1.72775 -1.11076 0
M  V30 24473 H 2251.42 3.85505 0.303769 0
M  V30 24474 H 2253.11 4.05852 -0.0623638 0
M  V30 24475 H 2253.87 4.12874 -2.5448 0
M  V30 24476 H 2249.75 4.40768 -1.35074 0
M  V30 24477 H 2253.3 5.13098 -4.72627 0
M  V30 24478 H 2249.19 5.40867 -3.52325 0
M  V30 24479 H 2249.96 6.06988 -5.49097 0
M  V30 24480 N 2252.62 0.576397 1.46681 0
M  V30 24481 C 2253.57 -0.160458 2.30242 0
M  V30 24482 C 2254.54 -0.890137 1.40235 0
M  V30 24483 O 2255.73 -0.882054 1.69188 0
M  V30 24484 C 2252.87 -1.17224 3.2458 0
M  V30 24485 C 2251.98 -0.44666 4.29685 0
M  V30 24486 C 2251.11 -1.44542 5.11157 0
M  V30 24487 C 2250.15 -0.705883 6.08016 0
M  V30 24488 N 2249.29 -1.65239 6.82378 0
M  V30 24489 H 2254.13 0.558179 2.92726 0
M  V30 24490 H 2251.67 0.287081 1.44271 0
M  V30 24491 H 2253.63 -1.77165 3.77715 0
M  V30 24492 H 2252.26 -1.85867 2.63919 0
M  V30 24493 H 2251.31 0.267661 3.79457 0
M  V30 24494 H 2252.62 0.131774 4.98626 0
M  V30 24495 H 2251.77 -2.11781 5.68536 0
M  V30 24496 H 2250.51 -2.05778 4.42162 0
M  V30 24497 H 2249.52 -0.0196759 5.49796 0
M  V30 24498 H 2250.74 -0.0990007 6.79028 0
M  V30 24499 H 2248.69 -2.25298 6.16098 0
M  V30 24500 H 2248.61 -1.1266 7.47558 0
M  V30 24501 H 2249.87 -2.31533 7.4432 0
M  V30 24502 N 2254.1 -1.54444 0.313841 0
M  V30 24503 C 2255.52 -1.59552 -0.0391338 0
M  V30 24504 C 2255.72 -1.33059 -1.51319 0
M  V30 24505 O 2254.77 -1.11026 -2.26781 0
M  V30 24506 C 2256.09 -2.98411 0.370354 0
M  V30 24507 C 2257.64 -3.11358 0.320194 0
M  V30 24508 C 2258.11 -4.52546 0.704697 0
M  V30 24509 N 2259.6 -4.58506 0.657726 0
M  V30 24510 C 2260.34 -5.65848 0.927553 0
M  V30 24511 N 2259.83 -6.81171 1.26401 0
M  V30 24512 N 2261.63 -5.55578 0.853759 0
M  V30 24513 H 2253.78 -1.69923 1.27436 0
M  V30 24514 H 2256.04 -0.794275 0.517525 0
M  V30 24515 H 2255.75 -3.22764 1.397 0
M  V30 24516 H 2255.62 -3.76236 -0.269553 0
M  V30 24517 H 2258.01 -2.86745 -0.697224 0
M  V30 24518 H 2258.09 -2.35659 0.994901 0
M  V30 24519 H 2257.73 -4.7789 1.71998 0
M  V30 24520 H 2257.66 -5.26599 0.00778099 0
M  V30 24521 H 2260.15 -3.75679 0.409133 0
M  V30 24522 H 2260.47 -7.58969 1.45554 0
M  V30 24523 H 2258.81 -6.82692 1.30218 0
M  V30 24524 H 2262 -4.64361 0.590464 0
M  V30 24525 H 2262.17 -6.39148 1.06741 0
M  V30 24526 N 2255.58 -0.0418125 -1.57545 0
M  V30 24527 C 2256.83 0.633458 -1.91495 0
M  V30 24528 C 2257.14 1.72554 -0.921114 0
M  V30 24529 O 2258.35 2.45833 -1.15232 0
M  V30 24530 C 2256.8 1.17803 -3.40074 0
M  V30 24531 C 2256.41 0.118554 -4.47843 0
M  V30 24532 C 2258.16 1.82908 -3.83073 0
M  V30 24533 C 2256.06 0.675475 -5.8753 0
M  V30 24534 H 2254.99 0.240377 -0.714657 0
M  V30 24535 H 2257.64 -0.10918 -1.83175 0
M  V30 24536 H 2256.03 1.97268 -3.43368 0
M  V30 24537 H 2257.2 -0.654575 -4.56127 0
M  V30 24538 H 2255.52 -0.434487 -4.14127 0
M  V30 24539 H 2258.11 2.25554 -4.84798 0
M  V30 24540 H 2258.46 2.67699 -3.18815 0
M  V30 24541 H 2258.99 1.10112 -3.82257 0
M  V30 24542 H 2255.73 -0.13459 -6.55362 0
M  V30 24543 H 2255.25 1.4168 -5.82827 0
M  V30 24544 H 2256.93 1.16129 -6.36493 0
M  V30 24545 N 2257.06 1.55891 0.231477 0
M  V30 24546 C 2258.31 1.78442 0.95732 0
M  V30 24547 C 2258.63 0.608852 1.84725 0
M  V30 24548 O 2257.89 -0.407216 1.91416 0
M  V30 24549 C 2258.19 3.06653 1.83571 0
M  V30 24550 C 2257.85 4.3728 1.09985 0
M  V30 24551 C 2256.52 4.72774 0.896546 0
M  V30 24552 C 2258.87 5.17969 0.579467 0
M  V30 24553 C 2256.2 5.8648 0.160793 0
M  V30 24554 C 2258.55 6.32439 -0.142894 0
M  V30 24555 C 2257.21 6.66542 -0.357544 0
M  V30 24556 H 2256.48 0.652966 0.350308 0
M  V30 24557 H 2259.13 1.90159 0.226225 0
M  V30 24558 H 2257.43 2.90015 2.63436 0
M  V30 24559 H 2259.13 3.21302 2.39929 0
M  V30 24560 H 2255.72 4.09405 1.26828 0
M  V30 24561 H 2259.9 4.9099 0.724038 0
M  V30 24562 H 2255.16 6.11398 -0.0158367 0
M  V30 24563 H 2259.33 6.94195 -0.553681 0
M  V30 24564 H 2256.96 7.54495 -0.929599 0
M  V30 24565 N 2258.54 -0.497781 1.49532 0
M  V30 24566 C 2259.79 -1.24834 1.58428 0
M  V30 24567 C 2260.1 -1.93619 0.277677 0
M  V30 24568 O 2261.3 -2.7039 0.245218 0
M  V30 24569 C 2259.76 -2.26681 2.79542 0
M  V30 24570 C 2259.37 -1.63821 4.16973 0
M  V30 24571 C 2261.11 -3.02545 2.97769 0
M  V30 24572 C 2259.02 -2.63797 5.29306 0
M  V30 24573 H 2257.95 -0.469613 0.589898 0
M  V30 24574 H 2260.6 -0.521826 1.75924 0
M  V30 24575 H 2258.98 -3.02509 2.55547 0
M  V30 24576 H 2260.16 -0.939632 4.51118 0
M  V30 24577 H 2258.47 -1.00335 4.04131 0
M  V30 24578 H 2261.07 -3.77316 3.78862 0
M  V30 24579 H 2261.41 -3.60351 2.08454 0
M  V30 24580 H 2261.94 -2.33832 3.21819 0
M  V30 24581 H 2258.68 -2.10768 6.20691 0
M  V30 24582 H 2258.2 -3.31886 4.99612 0
M  V30 24583 H 2259.88 -3.2616 5.58774 0
M  V30 24584 N 2260.01 -1.38661 -0.749062 0
M  V30 24585 C 2261.43 -1.19957 -1.05273 0
M  V30 24586 C 2261.63 -0.0513754 -2.01434 0
M  V30 24587 O 2260.69 0.601427 -2.45233 0
M  V30 24588 C 2262 -2.52786 -1.62848 0
M  V30 24589 C 2263.55 -2.59509 -1.74998 0
M  V30 24590 C 2264.02 -3.92525 -2.35984 0
M  V30 24591 N 2265.51 -3.94089 -2.43409 0
M  V30 24592 C 2266.25 -4.93775 -2.91502 0
M  V30 24593 N 2265.74 -6.03859 -3.39597 0
M  V30 24594 N 2267.54 -4.81163 -2.90584 0
M  V30 24595 H 2259.69 -2.1211 -0.111028 0
M  V30 24596 H 2261.95 -0.941374 -0.111884 0
M  V30 24597 H 2261.66 -3.37285 -0.996581 0
M  V30 24598 H 2261.53 -2.71505 -2.61849 0
M  V30 24599 H 2263.92 -1.75403 -2.37314 0
M  V30 24600 H 2264 -2.44653 -0.746887 0
M  V30 24601 H 2263.64 -4.77056 -1.743 0
M  V30 24602 H 2263.57 -4.04694 -3.36943 0
M  V30 24603 H 2266.06 -3.1458 -2.09399 0
M  V30 24604 H 2266.38 -6.75849 -3.74763 0
M  V30 24605 H 2264.72 -6.07472 -3.37642 0
M  V30 24606 H 2267.91 -3.94271 -2.52325 0
M  V30 24607 H 2268.09 -5.59002 -3.27752 0
M  V30 24608 N 2261.49 0.977736 -1.23605 0
M  V30 24609 C 2262.4 2.10468 -1.03636 0
M  V30 24610 C 2263.42 1.73989 0.0199129 0
M  V30 24611 O 2264.6 2.00629 -0.176112 0
M  V30 24612 C 2261.66 3.40876 -0.63282 0
M  V30 24613 C 2260.72 3.91364 -1.76444 0
M  V30 24614 C 2259.95 5.15548 -1.38006 0
M  V30 24615 O 2260.18 5.69782 -0.265457 0
M  V30 24616 O 2259.11 5.6017 -2.2021 0
M  V30 24617 H 2262.94 2.30204 -1.9809 0
M  V30 24618 H 2260.52 1.08849 -1.02334 0
M  V30 24619 H 2262.4 4.19313 -0.418834 0
M  V30 24620 H 2261.08 3.22463 0.282697 0
M  V30 24621 H 2259.99 3.14032 -2.03309 0
M  V30 24622 H 2261.32 4.14236 -2.65837 0
M  V30 24623 N 2262.97 1.04818 1.1769 0
M  V30 24624 C 2264.22 0.75453 1.87487 0
M  V30 24625 C 2264.54 -0.720375 1.81206 0
M  V30 24626 O 2263.81 -1.52029 1.23547 0
M  V30 24627 H 2262.39 0.276114 0.694096 0
M  V30 24628 H 2265.05 1.32653 1.4279 0
M  V30 24629 H 2264.15 1.06611 2.93326 0
M  V30 24630 N 2264.45 -1.34055 0.828678 0
M  V30 24631 C 2265.4 -2.31327 0.243014 0
M  V30 24632 C 2266.39 -1.57669 -0.619412 0
M  V30 24633 O 2267.6 -1.72621 -0.51011 0
M  V30 24634 H 2263.97 -0.749615 0.0598471 0
M  V30 24635 H 2265.94 -2.78242 1.07814 0
M  V30 24636 C 2264.69 -3.42901 -0.575673 0
M  V30 24637 H 2264.02 -3.99723 0.0786284 0
M  V30 24638 H 2265.46 -4.13186 -0.951475 0
M  V30 24639 C 2263.91 -2.8786 -1.75039 0
M  V30 24640 O 2264.44 -2.8321 -2.84877 0
M  V30 24641 N 2262.65 -2.44604 -1.56898 0
M  V30 24642 H 2262.2 -2.48585 -0.675503 0
M  V30 24643 H 2262.16 -2.08128 -2.35648 0
M  V30 24644 N 2265.93 -0.584167 -1.46374 0
M  V30 24645 C 2267.17 -0.070303 -2.02378 0
M  V30 24646 C 2267.5 1.2902 -1.45548 0
M  V30 24647 O 2266.76 1.85917 -0.610999 0
M  V30 24648 C 2267.06 0.0438714 -3.57373 0
M  V30 24649 C 2266.72 -1.24923 -4.3325 0
M  V30 24650 C 2265.38 -1.60349 -4.53698 0
M  V30 24651 C 2267.74 -2.10488 -4.76806 0
M  V30 24652 C 2265.06 -2.81137 -5.14955 0
M  V30 24653 C 2267.42 -3.30503 -5.39398 0
M  V30 24654 C 2266.08 -3.6621 -5.58074 0
M  V30 24655 H 2265.35 -0.0257257 -0.740553 0
M  V30 24656 H 2268 -0.761096 -1.75726 0
M  V30 24657 H 2266.3 0.817801 -3.8317 0
M  V30 24658 H 2268 0.457248 -3.98385 0
M  V30 24659 H 2264.59 -0.963437 -4.17631 0
M  V30 24660 H 2268.77 -1.84422 -4.60763 0
M  V30 24661 H 2264.03 -3.08938 -5.27605 0
M  V30 24662 H 2268.2 -3.97073 -5.72107 0
M  V30 24663 H 2265.83 -4.59896 -6.0531 0
M  V30 24664 N 2267.41 1.54275 -0.322027 0
M  V30 24665 C 2268.32 2.27975 0.553591 0
M  V30 24666 C 2269.33 1.3227 1.13052 0
M  V30 24667 O 2270.51 1.65282 1.15081 0
M  V30 24668 C 2267.57 3.02204 1.69922 0
M  V30 24669 C 2266.63 4.13492 1.15426 0
M  V30 24670 C 2265.87 4.84172 2.24529 0
M  V30 24671 O 2266.09 4.54356 3.44844 0
M  V30 24672 O 2265.02 5.71114 1.90034 0
M  V30 24673 H 2268.85 3.03667 -0.0448878 0
M  V30 24674 H 2266.43 1.49142 -0.087768 0
M  V30 24675 H 2268.32 3.48694 2.36624 0
M  V30 24676 H 2266.99 2.29389 2.28391 0
M  V30 24677 H 2265.9 3.71355 0.452371 0
M  V30 24678 H 2267.23 4.88346 0.614719 0
M  V30 24679 N 2268.88 0.0501669 1.5752 0
M  V30 24680 C 2270.13 -0.622608 1.92271 0
M  V30 24681 C 2270.45 -1.71442 0.929113 0
M  V30 24682 O 2269.72 -1.95883 -0.0261842 0
M  V30 24683 H 2268.3 -0.232968 0.709743 0
M  V30 24684 H 2270.96 0.102932 1.94628 0
M  V30 24685 H 2270.06 -1.06186 2.93481 0
M  V30 24686 N 2270.36 -1.56011 -0.223207 0
M  V30 24687 C 2271.29 -1.87291 -1.30374 0
M  V30 24688 C 2272.27 -0.730138 -1.45285 0
M  V30 24689 O 2273.46 -0.97833 -1.61124 0
M  V30 24690 C 2270.58 -2.07847 -2.67427 0
M  V30 24691 C 2269.63 -3.30531 -2.6954 0
M  V30 24692 S 2270.46 -4.86504 -2.23773 0
M  V30 24693 C 2271.62 -5.10094 -3.62705 0
M  V30 24694 H 2271.85 -2.78648 -1.03647 0
M  V30 24695 H 2269.38 -1.48425 -0.425367 0
M  V30 24696 H 2271.34 -2.20374 -3.46332 0
M  V30 24697 H 2270 -1.1729 -2.91379 0
M  V30 24698 H 2269.2 -3.41953 -3.70248 0
M  V30 24699 H 2268.8 -3.16852 -1.98697 0
M  V30 24700 H 2271.09 -4.98891 -4.58382 0
M  V30 24701 H 2272.03 -6.11987 -3.56199 0
M  V30 24702 H 2272.44 -4.37835 -3.56316 0
M  V30 24703 N 2271.84 0.489844 -1.49794 0
M  V30 24704 C 2273.08 1.25329 -1.61468 0
M  V30 24705 C 2273.44 1.89646 -0.299722 0
M  V30 24706 O 2274.64 2.67212 -0.291734 0
M  V30 24707 C 2272.92 2.28338 -2.74948 0
M  V30 24708 S 2274.47 3.13873 -3.06642 0
M  V30 24709 H 2271.29 0.425774 -0.569418 0
M  V30 24710 H 2273.89 0.553508 -1.87501 0
M  V30 24711 H 2272.6 1.79636 -3.68997 0
M  V30 24712 H 2272.13 3.0297 -2.50943 0
M  V30 24713 H 2274.14 4.29188 -2.49022 0
M  V30 24714 N 2273.32 1.39056 0.741698 0
M  V30 24715 C 2274.54 1.39357 1.53605 0
M  V30 24716 C 2274.97 -0.0116574 1.88096 0
M  V30 24717 O 2274.33 -0.996898 1.51432 0
M  V30 24718 C 2274.37 2.26687 2.80438 0
M  V30 24719 O 2273.48 1.69215 3.76085 0
M  V30 24720 H 2272.82 0.474843 0.464134 0
M  V30 24721 H 2275.35 1.82968 0.915633 0
M  V30 24722 H 2275.36 2.40965 3.29241 0
M  V30 24723 H 2274.03 3.28814 2.54665 0
M  V30 24724 H 2272.61 1.64144 3.3483 0
M  V30 24725 N 2274.8 -0.971167 1.24121 0
M  V30 24726 C 2276.21 -1.23914 1.00586 0
M  V30 24727 C 2276.41 -1.99439 -0.287446 0
M  V30 24728 O 2275.47 -2.31659 -1.0045 0
M  V30 24729 C 2276.78 -2.02966 2.21867 0
M  V30 24730 C 2278.33 -2.16072 2.26455 0
M  V30 24731 C 2278.8 -2.98518 3.47348 0
M  V30 24732 N 2280.29 -3.06101 3.47644 0
M  V30 24733 C 2281.03 -3.70243 4.37844 0
M  V30 24734 N 2280.53 -4.36133 5.38294 0
M  V30 24735 N 2282.32 -3.67221 4.25565 0
M  V30 24736 H 2274.47 -0.465463 2.07237 0
M  V30 24737 H 2276.73 -0.268299 0.909241 0
M  V30 24738 H 2276.44 -1.54855 3.15773 0
M  V30 24739 H 2276.31 -3.03705 2.23704 0
M  V30 24740 H 2278.7 -2.63387 1.33083 0
M  V30 24741 H 2278.78 -1.14692 2.28647 0
M  V30 24742 H 2278.42 -2.51897 4.41033 0
M  V30 24743 H 2278.35 -4.00087 3.424 0
M  V30 24744 H 2280.85 -2.59228 2.74971 0
M  V30 24745 H 2281.16 -4.82883 6.03361 0
M  V30 24746 H 2279.5 -4.34812 5.42184 0
M  V30 24747 H 2282.69 -3.14921 3.46327 0
M  V30 24748 H 2282.87 -4.16926 4.96061 0
M  V30 24749 N 2276.27 -1.05441 -1.17133 0
M  V30 24750 C 2277.51 -0.775054 -1.89136 0
M  V30 24751 C 2277.88 0.685495 -1.79346 0
M  V30 24752 O 2279.08 1.07906 -2.4619 0
M  V30 24753 C 2277.35 -1.24535 -3.35001 0
M  V30 24754 S 2278.91 -1.09375 -4.2495 0
M  V30 24755 H 2275.73 -0.281398 -0.652944 0
M  V30 24756 H 2278.33 -1.34955 -1.41447 0
M  V30 24757 H 2277.03 -2.30344 -3.39661 0
M  V30 24758 H 2276.56 -0.665234 -3.87735 0
M  V30 24759 H 2278.58 -0.0194269 -4.96196 0
M  V30 24760 N 2277.75 1.33613 -0.835776 0
M  V30 24761 C 2278.68 2.28101 -0.224192 0
M  V30 24762 C 2279.7 1.51604 0.593304 0
M  V30 24763 O 2280.89 1.73467 0.42088 0
M  V30 24764 C 2277.99 3.31523 0.70325 0
M  V30 24765 C 2277.16 4.37337 -0.0742297 0
M  V30 24766 C 2276.22 5.20445 0.776085 0
M  V30 24767 O 2275.24 5.68788 0.216406 0
M  V30 24768 N 2276.45 5.4142 2.09392 0
M  V30 24769 H 2279.21 2.81223 -1.03603 0
M  V30 24770 H 2276.77 1.46274 -0.693946 0
M  V30 24771 H 2278.76 3.84024 1.277 0
M  V30 24772 H 2277.33 2.787 1.4158 0
M  V30 24773 H 2276.55 3.85377 -0.829348 0
M  V30 24774 H 2277.84 5.05143 -0.608952 0
M  V30 24775 H 2277.24 5.03839 2.5722 0
M  V30 24776 H 2275.8 5.9699 2.61623 0
M  V30 24777 N 2279.23 0.591922 1.46062 0
M  V30 24778 C 2280.48 0.0808746 2.01938 0
M  V30 24779 C 2280.8 -1.28722 1.46477 0
M  V30 24780 O 2280.07 -1.84697 0.652976 0
M  V30 24781 H 2278.65 0.0269069 0.746515 0
M  V30 24782 H 2281.31 0.769783 1.79054 0
M  V30 24783 H 2280.41 0.0188126 3.12094 0
M  V30 24784 N 2280.71 -1.54102 0.330204 0
M  V30 24785 C 2281.66 -2.24568 -0.532722 0
M  V30 24786 C 2282.63 -1.23893 -1.10633 0
M  V30 24787 O 2283.81 -1.52593 -1.14543 0
M  V30 24788 C 2280.95 -3.01198 -1.68445 0
M  V30 24789 C 2280.06 -4.16702 -1.13943 0
M  V30 24790 C 2279.2 -4.80849 -2.25738 0
M  V30 24791 C 2278.24 -5.88445 -1.68519 0
M  V30 24792 N 2277.37 -6.46426 -2.74003 0
M  V30 24793 H 2282.21 -2.97906 0.0747429 0
M  V30 24794 H 2279.75 -1.4702 0.0486579 0
M  V30 24795 H 2281.71 -3.43878 -2.36228 0
M  V30 24796 H 2280.34 -2.30182 -2.2631 0
M  V30 24797 H 2279.39 -3.78759 -0.352944 0
M  V30 24798 H 2280.7 -4.94132 -0.680805 0
M  V30 24799 H 2279.86 -5.26531 -3.01413 0
M  V30 24800 H 2278.6 -4.02814 -2.7494 0
M  V30 24801 H 2277.6 -5.42159 -0.913448 0
M  V30 24802 H 2278.83 -6.6838 -1.20186 0
M  V30 24803 H 2276.77 -5.71262 -3.22484 0
M  V30 24804 H 2276.69 -7.19289 -2.32723 0
M  V30 24805 H 2277.96 -6.96763 -3.49487 0
M  V30 24806 N 2282.19 -0.0585199 -1.57491 0
M  V30 24807 C 2283.14 0.923151 -2.08475 0
M  V30 24808 C 2284.12 1.2672 -0.991501 0
M  V30 24809 O 2285.31 1.2484 -1.25475 0
M  V30 24810 C 2282.44 2.19543 -2.63923 0
M  V30 24811 C 2281.53 1.87845 -3.8023 0
M  V30 24812 N 2281.92 1.26538 -4.89716 0
M  V30 24813 C 2280.22 2.17672 -3.89275 0
M  V30 24814 C 2280.92 1.12634 -5.70691 0
M  V30 24815 N 2279.89 1.63167 -5.18534 0
M  V30 24816 H 2283.7 0.444602 -2.90518 0
M  V30 24817 H 2281.21 0.145736 -1.61745 0
M  V30 24818 H 2283.21 2.90775 -2.98757 0
M  V30 24819 H 2281.87 2.67998 -1.83322 0
M  V30 24820 H 2282.88 0.936668 -5.09359 0
M  V30 24821 H 2279.55 2.68597 -3.19628 0
M  V30 24822 H 2280.94 0.649782 -6.68751 0
M  V30 24823 N 2283.66 1.56128 0.21493 0
M  V30 24824 C 2285.08 1.49268 0.564922 0
M  V30 24825 C 2285.28 0.754871 1.86826 0
M  V30 24826 O 2284.34 0.297242 2.50744 0
M  V30 24827 C 2285.65 2.93853 0.638019 0
M  V30 24828 C 2287.2 3.04411 0.7282 0
M  V30 24829 C 2287.67 4.50369 0.832584 0
M  V30 24830 N 2289.16 4.54439 0.896632 0
M  V30 24831 C 2289.9 5.64662 0.997225 0
M  V30 24832 N 2289.39 6.84622 1.06135 0
M  V30 24833 N 2291.19 5.52529 1.03288 0
M  V30 24834 H 2283.34 2.02521 -0.640247 0
M  V30 24835 H 2285.6 0.920784 -0.225523 0
M  V30 24836 H 2285.31 3.50809 -0.250188 0
M  V30 24837 H 2285.18 3.46118 1.49941 0
M  V30 24838 H 2287.57 2.47517 1.60685 0
M  V30 24839 H 2287.65 2.55305 -0.158997 0
M  V30 24840 H 2287.29 5.07883 -0.041631 0
M  V30 24841 H 2287.22 4.97187 1.73529 0
M  V30 24842 H 2289.71 3.68051 0.857123 0
M  V30 24843 H 2290.03 7.64374 1.13807 0
M  V30 24844 H 2288.37 6.8732 1.03037 0
M  V30 24845 H 2291.56 4.57738 0.979478 0
M  V30 24846 H 2291.74 6.3846 1.10782 0
M  V30 24847 N 2285.14 -0.481893 1.50052 0
M  V30 24848 C 2286.56 -0.814732 1.37238 0
M  V30 24849 C 2286.76 -1.97071 0.420144 0
M  V30 24850 O 2285.81 -2.52105 -0.141201 0
M  V30 24851 C 2287.13 -1.13696 2.78377 0
M  V30 24852 C 2288.68 -1.24405 2.87215 0
M  V30 24853 C 2289.15 -1.59946 4.29163 0
M  V30 24854 N 2290.64 -1.66959 4.32064 0
M  V30 24855 C 2291.38 -1.95942 5.38882 0
M  V30 24856 N 2290.87 -2.2302 6.55922 0
M  V30 24857 N 2292.67 -1.97354 5.26315 0
M  V30 24858 H 2284.82 0.280087 2.10545 0
M  V30 24859 H 2287.08 0.062762 0.94592 0
M  V30 24860 H 2286.79 -0.360725 3.49845 0
M  V30 24861 H 2286.66 -2.07581 3.14945 0
M  V30 24862 H 2289.05 -2.01097 2.15972 0
M  V30 24863 H 2289.13 -0.285254 2.54205 0
M  V30 24864 H 2288.77 -0.837979 5.00939 0
M  V30 24865 H 2288.7 -2.56958 4.59652 0
M  V30 24866 H 2291.19 -1.48117 3.47663 0
M  V30 24867 H 2291.51 -2.44378 7.33143 0
M  V30 24868 H 2289.85 -2.20435 6.59116 0
M  V30 24869 H 2293.04 -1.75689 4.33879 0
M  V30 24870 H 2293.21 -2.19607 6.09653 0
M  V30 24871 N 2286.62 -1.39448 -0.734313 0
M  V30 24872 C 2287.87 -1.36709 -1.49389 0
M  V30 24873 C 2288.2 0.0367471 -1.94465 0
M  V30 24874 O 2287.45 1.01771 -1.67156 0
M  V30 24875 C 2287.75 -2.28628 -2.74707 0
M  V30 24876 C 2287.42 -3.76246 -2.48494 0
M  V30 24877 C 2286.08 -4.16468 -2.41055 0
M  V30 24878 C 2288.43 -4.69609 -2.26089 0
M  V30 24879 C 2285.76 -5.48115 -2.09253 0
M  V30 24880 C 2288.11 -6.01534 -1.95804 0
M  V30 24881 C 2286.77 -6.40819 -1.86834 0
M  V30 24882 H 2286.04 -0.500252 -0.546652 0
M  V30 24883 H 2288.69 -1.71959 -0.842758 0
M  V30 24884 H 2287 -1.86499 -3.44566 0
M  V30 24885 H 2288.69 -2.23802 -3.32737 0
M  V30 24886 H 2285.28 -3.44368 -2.55163 0
M  V30 24887 H 2289.47 -4.39367 -2.30804 0
M  V30 24888 H 2284.72 -5.77475 -2.00831 0
M  V30 24889 H 2288.9 -6.73406 -1.77476 0
M  V30 24890 H 2286.52 -7.42748 -1.61957 0
M  V30 24891 N 2288.1 0.964571 -1.24635 0
M  V30 24892 C 2289.01 2.09357 -1.05863 0
M  V30 24893 C 2290.02 1.74 0.00145797 0
M  V30 24894 O 2291.2 2.0043 -0.197381 0
M  V30 24895 C 2288.27 3.40185 -0.668938 0
M  V30 24896 C 2287.33 3.89471 -1.80585 0
M  V30 24897 C 2286.56 5.14056 -1.43466 0
M  V30 24898 O 2286.78 5.69468 -0.325875 0
M  V30 24899 O 2285.72 5.57803 -2.26139 0
M  V30 24900 H 2289.54 2.28091 -2.0052 0
M  V30 24901 H 2287.13 1.07758 -1.03482 0
M  V30 24902 H 2289.01 4.18846 -0.463285 0
M  V30 24903 H 2287.68 3.22745 0.24848 0
M  V30 24904 H 2286.59 3.11858 -2.06628 0
M  V30 24905 H 2287.92 4.11393 -2.70216 0
M  V30 24906 N 2289.58 1.0606 1.16572 0
M  V30 24907 C 2290.51 0.613559 2.19797 0
M  V30 24908 C 2291.49 -0.362425 1.58509 0
M  V30 24909 O 2292.67 -0.271961 1.86528 0
M  V30 24910 C 2289.8 -0.100855 3.3855 0
M  V30 24911 C 2288.84 0.831512 4.18316 0
M  V30 24912 S 2289.68 2.32547 4.82371 0
M  V30 24913 C 2290.83 1.62248 6.04505 0
M  V30 24914 H 2291.07 1.4881 2.57377 0
M  V30 24915 H 2288.6 0.87336 1.27326 0
M  V30 24916 H 2290.56 -0.506827 4.07359 0
M  V30 24917 H 2289.22 -0.951551 2.9934 0
M  V30 24918 H 2288.41 0.278159 5.03232 0
M  V30 24919 H 2288.01 1.17725 3.54988 0
M  V30 24920 H 2290.31 0.92674 6.71132 0
M  V30 24921 H 2291.25 2.44945 6.64385 0
M  V30 24922 H 2291.66 1.10609 5.53557 0
M  V30 24923 N 2291.06 -1.33168 0.84285 0
M  V30 24924 C 2292.33 -1.92216 0.36225 0
M  V30 24925 C 2292.71 -1.7684 -1.15286 0
M  V30 24926 O 2292.06 -1.15922 -1.96912 0
M  V30 24927 C 2292.27 -3.39385 0.813554 0
M  V30 24928 C 2293.62 -4.1653 0.823877 0
M  V30 24929 O 2294.64 -3.48054 0.757419 0
M  V30 24930 O 2293.5 -5.38781 0.915288 0
M  V30 24931 H 2290.6 -0.820519 0.103331 0
M  V30 24932 H 2293.14 -1.42015 0.928967 0
M  V30 24933 H 2291.91 -3.44466 1.8563 0
M  V30 24934 H 2291.54 -3.96971 0.22363 0
M  V30 24935 N 2292.53 -0.599659 -1.45746 0
M  V30 24936 C 2293.95 -0.262668 -1.57424 0
M  V30 24937 C 2294.15 1.2349 -1.59224 0
M  V30 24938 O 2293.21 2.01753 -1.51828 0
M  V30 24939 C 2294.52 -0.926845 -2.8606 0
M  V30 24940 C 2296.07 -0.90202 -2.99721 0
M  V30 24941 C 2296.54 -1.54606 -4.31116 0
M  V30 24942 N 2298.03 -1.51118 -4.37856 0
M  V30 24943 C 2298.77 -1.97873 -5.38177 0
M  V30 24944 N 2298.26 -2.52677 -6.45078 0
M  V30 24945 N 2300.06 -1.88688 -5.29484 0
M  V30 24946 H 2292.21 -1.57213 -1.42821 0
M  V30 24947 H 2294.47 -0.658117 -0.682338 0
M  V30 24948 H 2294.18 -1.981 -2.90602 0
M  V30 24949 H 2294.05 -0.445304 -3.74562 0
M  V30 24950 H 2296.44 0.143565 -2.94751 0
M  V30 24951 H 2296.52 -1.42175 -2.1265 0
M  V30 24952 H 2296.16 -2.59093 -4.36845 0
M  V30 24953 H 2296.09 -1.00141 -5.16991 0
M  V30 24954 H 2298.58 -1.11074 -3.61208 0
M  V30 24955 H 2298.9 -2.86167 -7.17864 0
M  V30 24956 H 2297.24 -2.56712 -6.45851 0
M  V30 24957 H 2300.43 -1.45617 -4.44874 0
M  V30 24958 H 2300.61 -2.2544 -6.0752 0
M  V30 24959 N 2294.01 1.53925 -0.338371 0
M  V30 24960 C 2294.92 2.28549 0.52938 0
M  V30 24961 C 2295.94 1.33461 1.11642 0
M  V30 24962 O 2297.11 1.66494 1.13322 0
M  V30 24963 C 2294.18 3.03989 1.66707 0
M  V30 24964 C 2293.24 4.14693 1.11034 0
M  V30 24965 C 2292.47 4.86526 2.19381 0
M  V30 24966 O 2292.7 4.57988 3.40005 0
M  V30 24967 O 2291.63 5.73097 1.83966 0
M  V30 24968 H 2295.46 3.03602 -0.0770932 0
M  V30 24969 H 2293.04 1.4904 -0.103582 0
M  V30 24970 H 2294.92 3.51184 2.32912 0
M  V30 24971 H 2293.6 2.31798 2.25945 0
M  V30 24972 H 2292.5 3.71814 0.412958 0
M  V30 24973 H 2293.84 4.88971 0.562889 0
M  V30 24974 N 2295.49 0.0668712 1.57458 0
M  V30 24975 C 2296.9 -0.466526 1.80777 0
M  V30 24976 C 2297.25 -1.69949 0.98039 0
M  V30 24977 O 2296.38 -2.1546 0.201479 0
M  V30 24978 C 2296.97 -0.853153 3.27882 0
M  V30 24979 C 2295.53 -1.33144 3.52065 0
M  V30 24980 C 2294.68 -0.314215 2.75514 0
M  V30 24981 H 2297.63 0.292615 1.55979 0
M  V30 24982 H 2297.65 -1.71494 3.39662 0
M  V30 24983 H 2297.16 0.0444121 3.88075 0
M  V30 24984 H 2295.26 -2.24767 2.97171 0
M  V30 24985 H 2295.38 -1.31276 4.60764 0
M  V30 24986 H 2293.74 -0.79045 2.42124 0
M  V30 24987 H 2294.52 0.575537 3.38441 0
M  V30 24988 N 2296.97 -1.56239 -0.206647 0
M  V30 24989 C 2297.91 -1.93623 -1.25614 0
M  V30 24990 C 2298.88 -0.7953 -1.45822 0
M  V30 24991 O 2300.07 -1.05248 -1.59146 0
M  V30 24992 C 2297.21 -2.27111 -2.59835 0
M  V30 24993 C 2296.32 -3.54212 -2.47302 0
M  V30 24994 C 2295.46 -3.77076 -3.74148 0
M  V30 24995 C 2294.5 -4.97641 -3.56398 0
M  V30 24996 N 2293.63 -5.16819 -4.75229 0
M  V30 24997 H 2298.47 -2.83106 -0.930333 0
M  V30 24998 H 2296.01 -1.40111 -0.448041 0
M  V30 24999 H 2297.97 -2.44541 -3.38017 0
M  V30 25000 H 2296.6 -1.40784 -2.90482 0
M  V30 25001 H 2295.65 -3.44893 -1.60477 0
M  V30 25002 H 2296.96 -4.42548 -2.30114 0
M  V30 25003 H 2296.12 -3.94683 -4.60771 0
M  V30 25004 H 2294.86 -2.87049 -3.94277 0
M  V30 25005 H 2293.86 -4.79969 -2.6816 0
M  V30 25006 H 2295.09 -5.89167 -3.37726 0
M  V30 25007 H 2293.03 -4.29736 -4.95644 0
M  V30 25008 H 2292.95 -5.99314 -4.60824 0
M  V30 25009 H 2294.22 -5.38874 -5.63236 0
M  V30 25010 N 2298.45 0.473929 -1.50305 0
M  V30 25011 C 2299.67 1.25424 -1.65178 0
M  V30 25012 C 2300.1 1.85116 -0.333706 0
M  V30 25013 O 2299.45 1.67154 0.702085 0
M  V30 25014 C 2299.5 2.34077 -2.74299 0
M  V30 25015 O 2298.61 3.38647 -2.35355 0
M  V30 25016 H 2297.95 0.369117 -0.55195 0
M  V30 25017 H 2300.48 0.56433 -1.96663 0
M  V30 25018 H 2300.49 2.79432 -2.9729 0
M  V30 25019 H 2299.16 1.90001 -3.69963 0
M  V30 25020 H 2297.74 2.99023 -2.228 0
M  V30 25021 N 2299.92 1.39835 0.726907 0
M  V30 25022 C 2300.89 1.38966 1.82267 0
M  V30 25023 C 2301.89 0.285362 1.58248 0
M  V30 25024 O 2303.08 0.543689 1.65498 0
M  V30 25025 C 2300.21 1.17025 3.20184 0
M  V30 25026 H 2301.4 2.36479 1.84439 0
M  V30 25027 H 2298.95 1.25518 0.931393 0
M  V30 25028 H 2299.69 0.202261 3.23669 0
M  V30 25029 H 2299.47 1.97003 3.39016 0
M  V30 25030 H 2300.96 1.19177 4.00233 0
M  V30 25031 N 2301.4 -0.957948 1.25144 0
M  V30 25032 C 2302.82 -1.2284 1.01894 0
M  V30 25033 C 2303.02 -1.99733 -0.266276 0
M  V30 25034 O 2302.07 -2.32712 -0.979872 0
M  V30 25035 C 2303.39 -2.00602 2.24008 0
M  V30 25036 C 2304.93 -2.13658 2.28734 0
M  V30 25037 C 2305.41 -2.94817 3.50495 0
M  V30 25038 N 2306.9 -3.02397 3.50871 0
M  V30 25039 C 2307.64 -3.65579 4.41746 0
M  V30 25040 N 2307.13 -4.30399 5.42889 0
M  V30 25041 N 2308.92 -3.62687 4.29435 0
M  V30 25042 H 2301.08 -0.443456 2.07719 0
M  V30 25043 H 2303.34 -0.258641 0.912036 0
M  V30 25044 H 2303.04 -1.51497 3.17398 0
M  V30 25045 H 2302.92 -3.01315 2.26912 0
M  V30 25046 H 2305.31 -2.61961 1.35869 0
M  V30 25047 H 2305.39 -1.12261 2.2985 0
M  V30 25048 H 2305.03 -2.47205 4.4368 0
M  V30 25049 H 2304.96 -3.96433 3.46624 0
M  V30 25050 H 2307.45 -2.56297 2.77705 0
M  V30 25051 H 2307.76 -4.76456 6.08448 0
M  V30 25052 H 2306.11 -4.29037 5.46765 0
M  V30 25053 H 2309.3 -3.1123 3.49648 0
M  V30 25054 H 2309.47 -4.11641 5.00455 0
M  V30 25055 N 2302.88 -1.06677 -1.16008 0
M  V30 25056 C 2304.11 -0.805531 -1.90249 0
M  V30 25057 C 2304.52 0.644279 -1.77892 0
M  V30 25058 O 2303.86 1.45311 -1.12385 0
M  V30 25059 C 2303.92 -1.12582 -3.41417 0
M  V30 25060 C 2303.59 -2.57484 -3.77559 0
M  V30 25061 C 2304.58 -3.55721 -3.79155 0
M  V30 25062 C 2302.27 -2.92884 -4.08074 0
M  V30 25063 C 2304.26 -4.87398 -4.10758 0
M  V30 25064 C 2301.95 -4.24759 -4.39344 0
M  V30 25065 C 2302.95 -5.21826 -4.40666 0
M  V30 25066 O 2302.64 -6.51333 -4.7119 0
M  V30 25067 H 2302.37 -0.291308 -0.610013 0
M  V30 25068 H 2304.92 -1.42472 -1.47955 0
M  V30 25069 H 2303.15 -0.44957 -3.84078 0
M  V30 25070 H 2304.84 -0.84821 -3.96939 0
M  V30 25071 H 2305.61 -3.29714 -3.55687 0
M  V30 25072 H 2301.49 -2.17984 -4.06207 0
M  V30 25073 H 2305.03 -5.63156 -4.11706 0
M  V30 25074 H 2300.93 -4.50522 -4.62277 0
M  V30 25075 H 2301.69 -6.56381 -4.88985 0
M  V30 25076 N 2304.36 1.32719 -0.8499 0
M  V30 25077 C 2305.6 1.99222 -0.457181 0
M  V30 25078 C 2305.96 1.65812 0.968009 0
M  V30 25079 O 2307.16 2.25367 1.46503 0
M  V30 25080 C 2305.43 3.50793 -0.684027 0
M  V30 25081 S 2306.99 4.3708 -0.388172 0
M  V30 25082 H 2303.81 0.690012 -0.171477 0
M  V30 25083 H 2306.41 1.6151 -1.10158 0
M  V30 25084 H 2305.12 3.72597 -1.72045 0
M  V30 25085 H 2304.65 3.93391 -0.0258777 0
M  V30 25086 H 2306.66 4.89908 0.787705 0
M  V30 25087 N 2305.84 0.60738 1.45426 0
M  V30 25088 C 2306.8 -0.101653 2.28974 0
M  V30 25089 C 2307.8 -0.795304 1.39755 0
M  V30 25090 O 2308.99 -0.643499 1.61879 0
M  V30 25091 C 2306.12 -1.15409 3.2077 0
M  V30 25092 H 2307.31 0.632896 2.93146 0
M  V30 25093 H 2304.87 0.366417 1.51944 0
M  V30 25094 H 2305.6 -1.91941 2.61399 0
M  V30 25095 H 2305.39 -0.660912 3.8649 0
M  V30 25096 H 2306.88 -1.65066 3.83592 0
M  V30 25097 N 2307.31 -1.53743 0.34653 0
M  V30 25098 C 2308.22 -2.28827 -0.517252 0
M  V30 25099 C 2309.24 -1.34052 -1.10933 0
M  V30 25100 O 2310.42 -1.67092 -1.12437 0
M  V30 25101 C 2307.48 -3.04869 -1.65093 0
M  V30 25102 C 2306.54 -4.15276 -1.08833 0
M  V30 25103 C 2305.78 -4.87683 -2.16798 0
M  V30 25104 O 2306 -4.59784 -3.37572 0
M  V30 25105 O 2304.93 -5.74065 -1.80924 0
M  V30 25106 H 2308.76 -3.03557 0.0931929 0
M  V30 25107 H 2306.34 -1.48983 0.111484 0
M  V30 25108 H 2308.23 -3.52414 -2.31046 0
M  V30 25109 H 2306.9 -2.32993 -2.24713 0
M  V30 25110 H 2305.81 -3.72028 -0.393234 0
M  V30 25111 H 2307.14 -4.89262 -0.53695 0
M  V30 25112 N 2308.79 -0.0752207 -1.5742 0
M  V30 25113 C 2310.03 0.596722 -1.95496 0
M  V30 25114 C 2310.4 1.66569 -0.954915 0
M  V30 25115 O 2311.6 2.39343 -1.22345 0
M  V30 25116 C 2309.87 1.1556 -3.38202 0
M  V30 25117 S 2311.43 1.84219 -3.98257 0
M  V30 25118 H 2308.25 0.195295 -0.683653 0
M  V30 25119 H 2310.85 -0.149893 -1.94925 0
M  V30 25120 H 2309.55 0.365808 -4.08766 0
M  V30 25121 H 2309.08 1.9385 -3.42324 0
M  V30 25122 H 2311.1 3.1249 -3.8544 0
M  V30 25123 N 2310.27 1.56347 0.198358 0
M  V30 25124 C 2311.22 1.95171 1.26534 0
M  V30 25125 C 2312.21 0.836711 1.47294 0
M  V30 25126 O 2313.42 1.0217 1.48194 0
M  V30 25127 H 2309.79 0.620569 0.424733 0
M  V30 25128 H 2311.76 2.84158 0.910854 0
M  V30 25129 C 2310.51 2.30468 2.60346 0
M  V30 25130 H 2309.84 3.15791 2.45186 0
M  V30 25131 H 2311.28 2.61499 3.33757 0
M  V30 25132 C 2309.74 1.13812 3.17094 0
M  V30 25133 O 2310.27 0.41142 3.99588 0
M  V30 25134 N 2308.47 0.915784 2.75793 0
M  V30 25135 H 2308.02 1.50846 2.08814 0
M  V30 25136 H 2307.98 0.137034 3.14101 0
M  V30 25137 N 2311.75 -0.465951 1.50554 0
M  V30 25138 C 2313.16 -0.80013 1.38094 0
M  V30 25139 C 2313.36 -1.96614 0.441023 0
M  V30 25140 O 2312.42 -2.5224 -0.114454 0
M  V30 25141 C 2313.73 -1.10737 2.79567 0
M  V30 25142 C 2315.28 -1.21352 2.88518 0
M  V30 25143 C 2315.76 -1.55385 4.30836 0
M  V30 25144 N 2317.25 -1.62367 4.3381 0
M  V30 25145 C 2317.98 -1.90216 5.4093 0
M  V30 25146 N 2317.48 -2.1605 6.58251 0
M  V30 25147 N 2319.27 -1.91761 5.28379 0
M  V30 25148 H 2311.42 0.302403 2.10236 0
M  V30 25149 H 2313.69 0.0727912 0.945201 0
M  V30 25150 H 2313.39 -0.323599 3.50208 0
M  V30 25151 H 2313.27 -2.04228 3.17129 0
M  V30 25152 H 2315.65 -1.98795 2.18093 0
M  V30 25153 H 2315.73 -0.258276 2.54493 0
M  V30 25154 H 2315.38 -0.784801 5.018 0
M  V30 25155 H 2315.31 -2.52068 4.62352 0
M  V30 25156 H 2317.8 -1.44421 3.49215 0
M  V30 25157 H 2318.11 -2.36588 7.35694 0
M  V30 25158 H 2316.46 -2.13432 6.61417 0
M  V30 25159 H 2319.65 -1.71078 4.35718 0
M  V30 25160 H 2319.82 -2.13128 6.11948 0
M  V30 25161 N 2313.23 -1.40218 -0.719481 0
M  V30 25162 C 2314.16 -1.42925 -1.84647 0
M  V30 25163 C 2315.14 -0.290649 -1.67598 0
M  V30 25164 O 2316.32 -0.49871 -1.87687 0
M  V30 25165 C 2313.45 -1.28728 -3.22562 0
M  V30 25166 C 2312.41 -2.4015 -3.54277 0
M  V30 25167 C 2311.73 -2.11032 -4.91294 0
M  V30 25168 C 2313.03 -3.82487 -3.5567 0
M  V30 25169 H 2314.73 -2.37241 -1.8264 0
M  V30 25170 H 2312.27 -1.14192 -0.877285 0
M  V30 25171 H 2314.23 -1.29239 -4.01093 0
M  V30 25172 H 2312.95 -0.308868 -3.25136 0
M  V30 25173 H 2311.61 -2.38882 -2.78084 0
M  V30 25174 H 2311.26 -1.11591 -4.90466 0
M  V30 25175 H 2310.96 -2.85679 -5.1348 0
M  V30 25176 H 2312.48 -2.13219 -5.72163 0
M  V30 25177 H 2313.89 -3.856 -4.24247 0
M  V30 25178 H 2312.29 -4.56621 -3.8938 0
M  V30 25179 H 2313.36 -4.12351 -2.55137 0
M  V30 25180 N 2314.7 0.951297 -1.25651 0
M  V30 25181 C 2315.65 2.03405 -1.03008 0
M  V30 25182 C 2316.64 1.60864 0.0341587 0
M  V30 25183 O 2317.83 1.76066 -0.18158 0
M  V30 25184 C 2314.96 3.37007 -0.654314 0
M  V30 25185 C 2314.05 3.86062 -1.75548 0
M  V30 25186 N 2314.44 4.07874 -2.9912 0
M  V30 25187 C 2312.73 4.14881 -1.63676 0
M  V30 25188 C 2313.44 4.48349 -3.70618 0
M  V30 25189 N 2312.41 4.54472 -2.98255 0
M  V30 25190 H 2316.21 2.18267 -1.96817 0
M  V30 25191 H 2313.73 1.13637 -1.16019 0
M  V30 25192 H 2315.72 4.14205 -0.473279 0
M  V30 25193 H 2314.38 3.23521 0.276411 0
M  V30 25194 H 2315.4 3.94852 -3.35131 0
M  V30 25195 H 2312.07 4.10239 -0.775234 0
M  V30 25196 H 2313.46 4.73501 -4.76704 0
M  V30 25197 N 2316.18 1.07291 1.1544 0
M  V30 25198 C 2317.59 0.818505 1.67802 0
M  V30 25199 C 2317.94 -0.656475 1.84891 0
M  V30 25200 O 2317.07 -1.50826 1.55179 0
M  V30 25201 C 2317.66 1.47923 3.04802 0
M  V30 25202 C 2316.22 1.27235 3.54243 0
M  V30 25203 C 2315.37 1.54929 2.29983 0
M  V30 25204 H 2318.32 1.23503 0.996625 0
M  V30 25205 H 2318.34 0.900115 3.697 0
M  V30 25206 H 2317.85 2.55272 2.92332 0
M  V30 25207 H 2315.96 0.219055 3.71956 0
M  V30 25208 H 2316.07 1.99211 4.3572 0
M  V30 25209 H 2314.43 0.970283 2.35494 0
M  V30 25210 H 2315.22 2.63459 2.201 0
M  V30 25211 N 2317.66 -1.32267 0.856927 0
M  V30 25212 C 2318.62 -2.27118 0.308211 0
M  V30 25213 C 2319.62 -1.51696 -0.533394 0
M  V30 25214 O 2320.81 -1.70758 -0.344577 0
M  V30 25215 C 2317.95 -3.36207 -0.563698 0
M  V30 25216 H 2319.14 -2.77165 1.1454 0
M  V30 25217 H 2316.69 -1.42977 0.631446 0
M  V30 25218 H 2317.43 -2.91432 -1.42261 0
M  V30 25219 H 2317.21 -3.92081 0.0387439 0
M  V30 25220 H 2318.7 -4.06876 -0.940315 0
M  V30 25221 N 2319.14 -0.615084 -1.45102 0
M  V30 25222 C 2320.05 0.100993 -2.34383 0
M  V30 25223 C 2321.06 0.852559 -1.51682 0
M  V30 25224 O 2322.24 0.808452 -1.84461 0
M  V30 25225 C 2319.31 1.08093 -3.29419 0
M  V30 25226 C 2318.37 0.330502 -4.28026 0
M  V30 25227 C 2317.6 1.26376 -5.18522 0
M  V30 25228 O 2317.82 2.50189 -5.12603 0
M  V30 25229 O 2316.76 0.756761 -5.97124 0
M  V30 25230 H 2320.58 -0.632907 -2.97032 0
M  V30 25231 H 2318.17 -0.375319 -1.44609 0
M  V30 25232 H 2320.05 1.64513 -3.87961 0
M  V30 25233 H 2318.72 1.79573 -2.69324 0
M  V30 25234 H 2317.63 -0.276349 -3.73078 0
M  V30 25235 H 2318.96 -0.343952 -4.90997 0
M  V30 25236 N 2320.62 1.53557 -0.354678 0
M  V30 25237 C 2321.53 2.29098 0.50511 0
M  V30 25238 C 2322.54 1.34638 1.10221 0
M  V30 25239 O 2323.72 1.67686 1.1155 0
M  V30 25240 C 2320.78 3.0574 1.63474 0
M  V30 25241 C 2319.85 4.15847 1.06629 0
M  V30 25242 C 2319.08 4.88826 2.14208 0
M  V30 25243 O 2319.3 4.61568 3.35129 0
M  V30 25244 O 2318.24 5.75016 1.77877 0
M  V30 25245 H 2322.06 3.03503 -0.10929 0
M  V30 25246 H 2319.65 1.48922 -0.119384 0
M  V30 25247 H 2321.53 3.53634 2.29174 0
M  V30 25248 H 2320.2 2.34182 2.23474 0
M  V30 25249 H 2319.11 3.72231 0.373499 0
M  V30 25250 H 2320.44 4.8954 0.510995 0
M  V30 25251 N 2322.1 0.083568 1.57378 0
M  V30 25252 C 2323.34 -0.581684 1.93548 0
M  V30 25253 C 2323.66 -1.69433 0.96527 0
M  V30 25254 O 2322.93 -1.95894 0.0153713 0
M  V30 25255 H 2321.51 -0.217861 0.714525 0
M  V30 25256 H 2324.18 0.144192 1.94366 0
M  V30 25257 H 2323.27 -0.999371 2.95667 0
M  V30 25258 N 2323.57 -1.5645 -0.190064 0
M  V30 25259 C 2324.85 -1.71759 -0.935856 0
M  V30 25260 C 2325.23 -0.639761 -2.01172 0
M  V30 25261 O 2324.58 0.348462 -2.25827 0
M  V30 25262 C 2324.79 -3.14272 -1.51769 0
M  V30 25263 C 2326.14 -3.7466 -1.99788 0
M  V30 25264 O 2327.16 -3.17432 -1.61602 0
M  V30 25265 O 2326.02 -4.75104 -2.7007 0
M  V30 25266 H 2323.11 -0.700727 -0.439216 0
M  V30 25267 H 2325.66 -1.68749 -0.179365 0
M  V30 25268 H 2324.43 -3.84192 -0.742438 0
M  V30 25269 H 2324.05 -3.21531 -2.33888 0
M  V30 25270 N 2325.05 0.45796 -1.50799 0
M  V30 25271 C 2326.3 1.20906 -1.62444 0
M  V30 25272 C 2326.63 1.91665 -0.330898 0
M  V30 25273 O 2325.88 1.83358 0.683978 0
M  V30 25274 C 2326.18 2.26625 -2.76362 0
M  V30 25275 C 2325.85 1.73026 -4.16381 0
M  V30 25276 C 2324.51 1.5813 -4.54476 0
M  V30 25277 C 2326.86 1.33405 -5.03838 0
M  V30 25278 C 2324.19 1.02055 -5.77756 0
M  V30 25279 C 2326.54 0.78767 -6.27677 0
M  V30 25280 C 2325.2 0.625444 -6.64563 0
M  V30 25281 H 2324.47 0.442425 -0.594425 0
M  V30 25282 H 2327.12 0.503103 -1.84773 0
M  V30 25283 H 2325.43 3.03179 -2.48172 0
M  V30 25284 H 2327.12 2.84523 -2.82573 0
M  V30 25285 H 2323.71 1.85591 -3.86334 0
M  V30 25286 H 2327.9 1.43742 -4.75028 0
M  V30 25287 H 2323.15 0.882441 -6.04998 0
M  V30 25288 H 2327.33 0.472055 -6.94798 0
M  V30 25289 H 2324.95 0.188792 -7.59966 0
M  V30 25290 N 2326.53 1.40598 0.712035 0
M  V30 25291 C 2327.78 1.40276 1.47289 0
M  V30 25292 C 2328.13 0.00580194 1.92399 0
M  V30 25293 O 2327.42 -0.965268 1.65509 0
M  V30 25294 C 2327.62 2.3297 2.71035 0
M  V30 25295 C 2327.45 3.8154 2.38028 0
M  V30 25296 C 2326.22 4.50331 2.29195 0
M  V30 25297 C 2328.41 4.72941 2.02067 0
M  V30 25298 N 2326.4 5.84115 1.88901 0
M  V30 25299 C 2327.77 5.95548 1.72401 0
M  V30 25300 C 2329.82 4.60743 1.88734 0
M  V30 25301 C 2328.53 7.07318 1.30743 0
M  V30 25302 C 2330.55 5.72458 1.4848 0
M  V30 25303 C 2329.91 6.94153 1.19714 0
M  V30 25304 H 2326.01 0.568553 0.536909 0
M  V30 25305 H 2328.6 1.76339 0.825393 0
M  V30 25306 H 2326.77 1.99029 3.3353 0
M  V30 25307 H 2328.5 2.2348 3.374 0
M  V30 25308 H 2325.25 4.04057 2.47052 0
M  V30 25309 H 2325.68 6.54975 1.71282 0
M  V30 25310 H 2330.32 3.6717 2.09633 0
M  V30 25311 H 2328.04 8.00771 1.08587 0
M  V30 25312 H 2331.62 5.65016 1.38737 0
M  V30 25313 H 2330.5 7.79129 0.890345 0
M  V30 25314 N 2328.01 -0.94462 1.26153 0
M  V30 25315 C 2328.97 -2.02438 1.07477 0
M  V30 25316 C 2329.97 -1.60782 0.0242347 0
M  V30 25317 O 2331.16 -1.72136 0.267333 0
M  V30 25318 C 2328.29 -3.34952 0.634015 0
M  V30 25319 H 2329.49 -2.20438 2.0334 0
M  V30 25320 H 2327.04 -1.1231 1.08702 0
M  V30 25321 H 2327.77 -3.2265 -0.326754 0
M  V30 25322 H 2327.56 -3.66539 1.39253 0
M  V30 25323 H 2329.05 -4.14286 0.525083 0
M  V30 25324 N 2329.49 -1.07901 -1.1487 0
M  V30 25325 C 2330.4 -0.715954 -2.23408 0
M  V30 25326 C 2331.41 0.275275 -1.71809 0
M  V30 25327 O 2332.59 0.12051 -2.01039 0
M  V30 25328 C 2329.65 -0.125229 -3.46474 0
M  V30 25329 C 2328.71 -1.17041 -4.13037 0
M  V30 25330 C 2327.95 -0.607781 -5.30228 0
M  V30 25331 O 2328.17 0.574397 -5.67501 0
M  V30 25332 O 2327.1 -1.35536 -5.86441 0
M  V30 25333 H 2330.93 -1.62125 -2.56805 0
M  V30 25334 H 2328.51 -0.852344 -1.22701 0
M  V30 25335 H 2330.4 0.201655 -4.20917 0
M  V30 25336 H 2329.07 0.753309 -3.14813 0
M  V30 25337 H 2327.98 -1.54974 -3.40491 0
M  V30 25338 H 2329.31 -2.02105 -4.48792 0
M  V30 25339 N 2330.96 1.31811 -0.863929 0
M  V30 25340 C 2332.19 2.01642 -0.485305 0
M  V30 25341 C 2332.61 1.64455 0.913029 0
M  V30 25342 O 2331.97 0.850013 1.60139 0
M  V30 25343 C 2332.02 3.54827 -0.642687 0
M  V30 25344 O 2331.12 4.11152 0.320587 0
M  V30 25345 H 2330.46 0.635087 -0.193804 0
M  V30 25346 H 2332.99 1.68146 -1.16568 0
M  V30 25347 H 2333 4.04494 -0.533699 0
M  V30 25348 H 2331.68 3.81234 -1.66233 0
M  V30 25349 H 2330.26 3.72526 0.167061 0
M  V30 25350 N 2332.44 0.62277 1.44773 0
M  V30 25351 C 2333.67 0.129004 2.06998 0
M  V30 25352 C 2334.09 -1.18387 1.46172 0
M  V30 25353 O 2333.45 -1.72433 0.560037 0
M  V30 25354 C 2333.5 0.0188985 3.60595 0
M  V30 25355 O 2332.6 -1.02732 3.99399 0
M  V30 25356 H 2331.94 0.0809659 0.659045 0
M  V30 25357 H 2334.47 0.857083 1.85783 0
M  V30 25358 H 2334.48 -0.174404 4.07627 0
M  V30 25359 H 2333.16 0.977455 4.04251 0
M  V30 25360 H 2331.73 -0.809262 3.64013 0
M  V30 25361 N 2333.92 -1.53367 0.362817 0
M  V30 25362 C 2334.85 -2.21997 -0.528468 0
M  V30 25363 C 2335.83 -1.21089 -1.08518 0
M  V30 25364 O 2337.01 -1.49982 -1.14183 0
M  V30 25365 C 2334.14 -2.91252 -1.72888 0
M  V30 25366 C 2333.19 -4.06209 -1.29987 0
M  V30 25367 S 2334.02 -5.34639 -0.303481 0
M  V30 25368 C 2335.18 -6.07405 -1.51028 0
M  V30 25369 H 2335.41 -2.9725 0.0543945 0
M  V30 25370 H 2332.94 -1.53699 0.146916 0
M  V30 25371 H 2334.9 -3.31767 -2.41745 0
M  V30 25372 H 2333.56 -2.15728 -2.28299 0
M  V30 25373 H 2332.75 -4.53671 -2.19542 0
M  V30 25374 H 2332.36 -3.6757 -0.690543 0
M  V30 25375 H 2334.65 -6.31969 -2.44175 0
M  V30 25376 H 2335.59 -6.9986 -1.07709 0
M  V30 25377 H 2336 -5.37815 -1.71508 0
M  V30 25378 N 2335.4 -0.091913 -1.57332 0
M  V30 25379 C 2336.33 0.865333 -2.16874 0
M  V30 25380 C 2337.31 1.29644 -1.1012 0
M  V30 25381 O 2338.49 1.3639 -1.38244 0
M  V30 25382 C 2335.62 2.12564 -2.74652 0
M  V30 25383 C 2334.58 1.83326 -3.8675 0
M  V30 25384 C 2333.9 3.16158 -4.31217 0
M  V30 25385 C 2335.2 1.12271 -5.10091 0
M  V30 25386 H 2336.9 0.369255 -2.97114 0
M  V30 25387 H 2334.44 0.176168 -1.42918 0
M  V30 25388 H 2336.4 2.79964 -3.14957 0
M  V30 25389 H 2335.12 2.64449 -1.91662 0
M  V30 25390 H 2333.78 1.18325 -3.4698 0
M  V30 25391 H 2333.43 3.65924 -3.45121 0
M  V30 25392 H 2333.13 2.97379 -5.06793 0
M  V30 25393 H 2334.65 3.84722 -4.74153 0
M  V30 25394 H 2336.07 1.69776 -5.47585 0
M  V30 25395 H 2334.46 1.03682 -5.91075 0
M  V30 25396 H 2335.53 0.104956 -4.84786 0
M  V30 25397 N 2336.88 1.56548 0.181765 0
M  V30 25398 C 2338.12 1.81039 0.898288 0
M  V30 25399 C 2338.45 0.667196 1.83231 0
M  V30 25400 O 2337.72 -0.31364 1.93373 0
M  V30 25401 H 2336.3 0.667822 0.334698 0
M  V30 25402 H 2338.96 1.94029 0.184081 0
M  V30 25403 H 2338.05 2.74699 1.48145 0
M  V30 25404 N 2338.35 -0.449957 1.5104 0
M  V30 25405 C 2339.28 -1.55284 1.74382 0
M  V30 25406 C 2340.27 -1.59419 0.593264 0
M  V30 25407 O 2341.45 -1.75349 0.834656 0
M  V30 25408 C 2338.58 -2.93463 1.85734 0
M  V30 25409 C 2337.53 -3.04192 3.01083 0
M  V30 25410 C 2336.86 -4.44226 2.97603 0
M  V30 25411 C 2338.16 -2.79442 4.41259 0
M  V30 25412 H 2339.85 -1.36003 2.66727 0
M  V30 25413 H 2337.4 -0.652842 1.28351 0
M  V30 25414 H 2339.35 -3.70566 2.00646 0
M  V30 25415 H 2338.08 -3.13947 0.900262 0
M  V30 25416 H 2336.74 -2.29526 2.85855 0
M  V30 25417 H 2336.38 -4.61659 1.99699 0
M  V30 25418 H 2336.08 -4.52337 3.75054 0
M  V30 25419 H 2337.61 -5.2332 3.14592 0
M  V30 25420 H 2339.02 -3.46284 4.56903 0
M  V30 25421 H 2337.42 -2.98976 5.2032 0
M  V30 25422 H 2338.49 -1.75137 4.52167 0
M  V30 25423 N 2339.83 -1.40974 -0.704569 0
M  V30 25424 C 2340.78 -1.42112 -1.8186 0
M  V30 25425 C 2341.75 -0.276622 -1.6378 0
M  V30 25426 O 2342.93 -0.476332 -1.84759 0
M  V30 25427 C 2340.07 -1.30027 -3.19667 0
M  V30 25428 C 2339.19 -2.54273 -3.49241 0
M  V30 25429 C 2338.32 -2.34548 -4.76614 0
M  V30 25430 C 2337.36 -3.54315 -4.99127 0
M  V30 25431 N 2336.5 -3.33717 -6.1772 0
M  V30 25432 H 2341.34 -2.37327 -1.80222 0
M  V30 25433 H 2338.88 -1.17858 -0.880217 0
M  V30 25434 H 2340.83 -1.21025 -3.9926 0
M  V30 25435 H 2339.46 -0.384248 -3.20505 0
M  V30 25436 H 2338.52 -2.7376 -2.6412 0
M  V30 25437 H 2339.83 -3.43388 -3.61782 0
M  V30 25438 H 2338.98 -2.22962 -5.64245 0
M  V30 25439 H 2337.72 -1.42875 -4.66302 0
M  V30 25440 H 2336.73 -3.66366 -4.09947 0
M  V30 25441 H 2337.95 -4.46929 -5.11303 0
M  V30 25442 H 2335.9 -2.44736 -6.08638 0
M  V30 25443 H 2335.81 -4.16403 -6.30987 0
M  V30 25444 H 2337.08 -3.25885 -7.0811 0
M  V30 25445 N 2341.31 0.937917 -1.26653 0
M  V30 25446 C 2342.56 1.67895 -1.11778 0
M  V30 25447 C 2342.87 1.92659 0.337906 0
M  V30 25448 O 2344.08 2.64619 0.607387 0
M  V30 25449 C 2342.53 3.02343 -1.95235 0
M  V30 25450 C 2342.14 2.85314 -3.45398 0
M  V30 25451 C 2343.89 3.80115 -1.88979 0
M  V30 25452 C 2341.79 4.15255 -4.2109 0
M  V30 25453 H 2340.72 0.62971 -0.414707 0
M  V30 25454 H 2343.37 1.0428 -1.5099 0
M  V30 25455 H 2341.76 3.66956 -1.48859 0
M  V30 25456 H 2342.93 2.2953 -3.99565 0
M  V30 25457 H 2341.25 2.20982 -3.52925 0
M  V30 25458 H 2343.84 4.76388 -2.42814 0
M  V30 25459 H 2344.19 4.07295 -0.861202 0
M  V30 25460 H 2344.72 3.22281 -2.33195 0
M  V30 25461 H 2341.46 3.93258 -5.24431 0
M  V30 25462 H 2340.98 4.70741 -3.71703 0
M  V30 25463 H 2342.66 4.83689 -4.29714 0
M  V30 25464 N 2342.79 1.08509 1.14296 0
M  V30 25465 C 2344.02 0.836909 1.89218 0
M  V30 25466 C 2344.43 -0.611022 1.78639 0
M  V30 25467 O 2343.79 -1.41996 1.14645 0
M  V30 25468 C 2343.84 1.25122 3.39156 0
M  V30 25469 O 2343.56 2.64235 3.49444 0
M  V30 25470 C 2345.06 1.03405 4.31071 0
M  V30 25471 H 2342.28 0.30175 0.599323 0
M  V30 25472 H 2344.83 1.44463 1.44743 0
M  V30 25473 H 2342.98 0.687581 3.81249 0
M  V30 25474 H 2343.39 2.81459 4.42584 0
M  V30 25475 H 2344.87 1.37332 5.34644 0
M  V30 25476 H 2345.35 -0.0288487 4.39191 0
M  V30 25477 H 2345.95 1.58318 3.94735 0
M  V30 25478 N 2344.27 -1.31351 0.870907 0
M  V30 25479 C 2345.5 -2.00556 0.496085 0
M  V30 25480 C 2345.9 -1.65536 -0.916212 0
M  V30 25481 O 2345.25 -0.881163 -1.61187 0
M  V30 25482 C 2345.31 -3.5488 0.57448 0
M  V30 25483 C 2344.97 -4.13377 1.94856 0
M  V30 25484 C 2345.97 -4.30412 2.91618 0
M  V30 25485 C 2343.66 -4.49082 2.25013 0
M  V30 25486 C 2345.65 -4.82345 4.1668 0
M  V30 25487 C 2343.34 -5.00716 3.50324 0
M  V30 25488 C 2344.33 -5.17298 4.45973 0
M  V30 25489 O 2344.02 -5.67823 5.69062 0
M  V30 25490 H 2343.75 -0.648256 0.191676 0
M  V30 25491 H 2346.31 -1.68533 1.17412 0
M  V30 25492 H 2344.54 -3.86367 -0.160482 0
M  V30 25493 H 2346.23 -4.05341 0.21295 0
M  V30 25494 H 2346.99 -4.03144 2.69629 0
M  V30 25495 H 2342.87 -4.35451 1.5134 0
M  V30 25496 H 2346.42 -4.95203 4.91345 0
M  V30 25497 H 2342.31 -5.27418 3.72157 0
M  V30 25498 H 2343.08 -5.86191 5.71247 0
M  V30 25499 N 2345.74 -0.630439 -1.44441 0
M  V30 25500 C 2346.99 -0.134652 -2.02052 0
M  V30 25501 C 2347.32 1.24324 -1.49579 0
M  V30 25502 O 2346.57 1.83879 -0.669838 0
M  V30 25503 C 2346.87 -0.0698463 -3.57332 0
M  V30 25504 C 2346.54 -1.38643 -4.29056 0
M  V30 25505 C 2345.2 -1.74702 -4.48367 0
M  V30 25506 C 2347.55 -2.25551 -4.69868 0
M  V30 25507 C 2344.88 -2.97378 -5.0575 0
M  V30 25508 C 2347.23 -3.47497 -5.2861 0
M  V30 25509 C 2345.9 -3.8378 -5.4614 0
M  V30 25510 H 2345.17 -0.0492728 -0.73936 0
M  V30 25511 H 2347.81 -0.816617 -1.73216 0
M  V30 25512 H 2346.12 0.695485 -3.85578 0
M  V30 25513 H 2347.82 0.330273 -3.99638 0
M  V30 25514 H 2344.41 -1.09582 -4.14355 0
M  V30 25515 H 2348.59 -1.98987 -4.54662 0
M  V30 25516 H 2343.85 -3.25567 -5.1751 0
M  V30 25517 H 2348.02 -4.15073 -5.59184 0
M  V30 25518 H 2345.65 -4.78921 -5.90372 0
M  V30 25519 N 2347.22 1.53172 -0.370945 0
M  V30 25520 C 2348.19 2.24521 0.460739 0
M  V30 25521 C 2349.19 1.25498 1.00534 0
M  V30 25522 O 2350.38 1.49734 0.89024 0
M  V30 25523 C 2347.51 2.98611 1.64452 0
M  V30 25524 H 2348.7 2.99453 -0.163665 0
M  V30 25525 H 2346.25 1.55817 -0.122726 0
M  V30 25526 H 2346.99 2.27934 2.30687 0
M  V30 25527 H 2346.77 3.71272 1.26092 0
M  V30 25528 H 2348.26 3.52834 2.23378 0
M  V30 25529 N 2348.7 0.100255 1.57281 0
M  V30 25530 C 2349.63 -0.853819 2.1733 0
M  V30 25531 C 2350.61 -1.29058 1.10806 0
M  V30 25532 O 2351.8 -1.35655 1.38966 0
M  V30 25533 C 2348.93 -2.11104 2.75776 0
M  V30 25534 C 2347.88 -1.81273 3.87717 0
M  V30 25535 C 2347.21 -3.13867 4.32888 0
M  V30 25536 C 2348.51 -1.09565 5.10679 0
M  V30 25537 H 2350.2 -0.353493 2.97306 0
M  V30 25538 H 2347.75 -0.168587 1.4301 0
M  V30 25539 H 2349.7 -2.7829 3.16437 0
M  V30 25540 H 2348.42 -2.63429 1.93061 0
M  V30 25541 H 2347.08 -1.16483 3.47602 0
M  V30 25542 H 2346.73 -3.64089 3.47057 0
M  V30 25543 H 2346.43 -2.94687 5.08363 0
M  V30 25544 H 2347.95 -3.82202 4.76187 0
M  V30 25545 H 2349.37 -1.66869 5.48477 0
M  V30 25546 H 2347.77 -1.00546 5.91617 0
M  V30 25547 H 2348.84 -0.0792447 4.84835 0
M  V30 25548 N 2350.18 -1.56643 -0.17346 0
M  V30 25549 C 2351.11 -1.91344 -1.24349 0
M  V30 25550 C 2352.09 -0.77599 -1.42889 0
M  V30 25551 O 2353.27 -1.02909 -1.5793 0
M  V30 25552 C 2350.4 -2.1625 -2.60679 0
M  V30 25553 C 2349.45 -3.38939 -2.58888 0
M  V30 25554 S 2350.28 -4.93377 -2.08182 0
M  V30 25555 C 2351.44 -5.21375 -3.46293 0
M  V30 25556 H 2351.67 -2.81804 -0.947296 0
M  V30 25557 H 2349.2 -1.49703 -0.377931 0
M  V30 25558 H 2351.16 -2.3128 -3.39145 0
M  V30 25559 H 2349.82 -1.26501 -2.875 0
M  V30 25560 H 2349.01 -3.53559 -3.59182 0
M  V30 25561 H 2348.62 -3.23013 -1.88516 0
M  V30 25562 H 2350.91 -5.13221 -4.42278 0
M  V30 25563 H 2351.85 -6.23009 -3.36549 0
M  V30 25564 H 2352.26 -4.48949 -3.42206 0
M  V30 25565 N 2351.66 0.44194 -1.51277 0
M  V30 25566 C 2352.93 1.2027 -1.54255 0
M  V30 25567 C 2353.31 2.08898 -0.304116 0
M  V30 25568 O 2352.66 2.17155 0.711046 0
M  V30 25569 C 2352.87 2.00854 -2.8541 0
M  V30 25570 C 2354.22 2.58053 -3.37185 0
M  V30 25571 O 2355.24 2.11069 -2.86929 0
M  V30 25572 O 2354.1 3.43733 -4.24864 0
M  V30 25573 H 2351.2 0.547317 -0.619978 0
M  V30 25574 H 2353.74 0.451385 -1.63587 0
M  V30 25575 H 2352.52 1.3573 -3.67006 0
M  V30 25576 H 2352.14 2.8306 -2.79218 0
M  V30 25577 N 2353.14 1.41345 0.697083 0
M  V30 25578 C 2354.38 1.40344 1.45424 0
M  V30 25579 C 2354.7 0.012913 1.94996 0
M  V30 25580 O 2353.97 -0.944996 1.716 0
M  V30 25581 H 2352.55 0.516582 0.539585 0
M  V30 25582 H 2355.22 1.7657 0.82517 0
M  V30 25583 H 2354.31 2.08971 2.31814 0
M  V30 25584 N 2354.61 -0.931187 1.27148 0
M  V30 25585 C 2355.56 -2.03132 1.09572 0
M  V30 25586 C 2356.53 -1.661 -0.00219513 0
M  V30 25587 O 2357.72 -1.90132 0.159472 0
M  V30 25588 C 2354.86 -3.36956 0.74529 0
M  V30 25589 C 2353.97 -3.86964 1.92048 0
M  V30 25590 C 2353.1 -5.09219 1.51225 0
M  V30 25591 C 2352.14 -5.51515 2.65514 0
M  V30 25592 N 2351.28 -6.64968 2.25303 0
M  V30 25593 H 2356.12 -2.17498 2.03712 0
M  V30 25594 H 2353.66 -1.06555 1.01413 0
M  V30 25595 H 2355.61 -4.13909 0.522951 0
M  V30 25596 H 2354.24 -3.22407 -0.159145 0
M  V30 25597 H 2353.3 -3.06322 2.25546 0
M  V30 25598 H 2354.61 -4.14285 2.77794 0
M  V30 25599 H 2353.76 -5.93663 1.25095 0
M  V30 25600 H 2352.5 -4.83668 0.625834 0
M  V30 25601 H 2351.51 -4.65623 2.92362 0
M  V30 25602 H 2352.73 -5.79064 3.54771 0
M  V30 25603 H 2350.68 -6.41081 1.39109 0
M  V30 25604 H 2350.59 -6.91926 3.04589 0
M  V30 25605 H 2351.86 -7.52762 2.02411 0
M  V30 25606 N 2356.09 -1.09114 -1.13719 0
M  V30 25607 C 2357.34 -0.826447 -1.85196 0
M  V30 25608 C 2357.67 0.646287 -1.8313 0
M  V30 25609 O 2356.95 1.47561 -1.26712 0
M  V30 25610 C 2357.23 -1.35818 -3.33505 0
M  V30 25611 C 2357.08 -2.89678 -3.44103 0
M  V30 25612 C 2358.4 -0.989332 -4.28836 0
M  V30 25613 H 2355.52 -0.301686 -0.672424 0
M  V30 25614 H 2358.16 -1.35199 -1.33496 0
M  V30 25615 H 2356.31 -0.911148 -3.77664 0
M  V30 25616 H 2357.98 -3.42806 -3.08678 0
M  V30 25617 H 2356.23 -3.26972 -2.85082 0
M  V30 25618 H 2356.9 -3.21959 -4.48382 0
M  V30 25619 H 2359.37 -1.37482 -3.92731 0
M  V30 25620 H 2358.25 -1.38848 -5.31049 0
M  V30 25621 H 2358.51 0.102846 -4.4198 0
M  V30 25622 N 2357.57 1.30887 -0.877861 0
M  V30 25623 C 2358.8 2.0029 -0.506714 0
M  V30 25624 C 2359.21 1.6602 0.90742 0
M  V30 25625 O 2358.55 0.889698 1.60717 0
M  V30 25626 C 2358.61 3.54571 -0.593292 0
M  V30 25627 C 2358.28 4.12337 -1.97046 0
M  V30 25628 C 2359.27 4.2886 -2.93897 0
M  V30 25629 C 2356.96 4.47882 -2.27391 0
M  V30 25630 C 2358.95 4.80128 -4.19232 0
M  V30 25631 C 2356.64 4.98851 -3.52974 0
M  V30 25632 C 2357.64 5.14926 -4.4871 0
M  V30 25633 O 2357.33 5.64798 -5.72066 0
M  V30 25634 H 2357.06 0.647231 -0.195111 0
M  V30 25635 H 2359.61 1.67908 -1.18304 0
M  V30 25636 H 2357.84 3.86447 0.139989 0
M  V30 25637 H 2359.53 4.05222 -0.234443 0
M  V30 25638 H 2360.3 4.01709 -2.71763 0
M  V30 25639 H 2356.18 4.34642 -1.53647 0
M  V30 25640 H 2359.72 4.9259 -4.93964 0
M  V30 25641 H 2355.62 5.25437 -3.74948 0
M  V30 25642 H 2356.38 5.83153 -5.74347 0
M  V30 25643 N 2359.05 0.638091 1.44105 0
M  V30 25644 C 2360.32 0.0759664 1.95452 0
M  V30 25645 C 2360.7 -1.40012 1.57987 0
M  V30 25646 O 2360.05 -2.11804 0.857398 0
M  V30 25647 C 2360.26 0.306193 3.47654 0
M  V30 25648 C 2361.61 0.203083 4.24114 0
M  V30 25649 O 2362.63 0.237933 3.55404 0
M  V30 25650 O 2361.49 0.113923 5.46381 0
M  V30 25651 H 2358.59 -0.0183187 0.826797 0
M  V30 25652 H 2361.13 0.710278 1.54121 0
M  V30 25653 H 2359.91 1.33016 3.67998 0
M  V30 25654 H 2359.53 -0.361921 3.95949 0
M  V30 25655 N 2360.53 -1.52973 0.379063 0
M  V30 25656 C 2361.77 -2.00629 -0.207577 0
M  V30 25657 C 2362.09 -1.27008 -1.48756 0
M  V30 25658 O 2363.29 -1.65322 -2.15362 0
M  V30 25659 C 2361.75 -3.57435 -0.420467 0
M  V30 25660 C 2361.36 -4.39946 0.845664 0
M  V30 25661 C 2363.1 -4.13409 -0.964029 0
M  V30 25662 C 2361.01 -5.88332 0.601616 0
M  V30 25663 H 2359.94 -0.749599 -0.0813459 0
M  V30 25664 H 2362.59 -1.7656 0.499884 0
M  V30 25665 H 2360.97 -3.77712 -1.18952 0
M  V30 25666 H 2362.15 -4.31439 1.61855 0
M  V30 25667 H 2360.46 -3.95143 1.31343 0
M  V30 25668 H 2363.06 -5.21918 -1.16216 0
M  V30 25669 H 2363.4 -3.68852 -1.93012 0
M  V30 25670 H 2363.93 -3.96983 -0.2548 0
M  V30 25671 H 2360.67 -6.37191 1.53842 0
M  V30 25672 H 2360.19 -5.99654 -0.132523 0
M  V30 25673 H 2361.87 -6.46583 0.232247 0
M  V30 25674 N 2362 -0.108595 -1.57225 0
M  V30 25675 C 2363.23 0.559919 -1.9918 0
M  V30 25676 C 2363.65 1.60882 -0.988051 0
M  V30 25677 O 2363 1.82488 0.0205192 0
M  V30 25678 C 2363.05 1.19546 -3.41161 0
M  V30 25679 O 2362.78 0.1885 -4.37694 0
M  V30 25680 C 2364.28 1.9483 -3.98191 0
M  V30 25681 H 2361.5 0.149076 -0.65423 0
M  V30 25682 H 2364.04 -0.191866 -2.03598 0
M  V30 25683 H 2362.2 1.89809 -3.37715 0
M  V30 25684 H 2362.61 0.648922 -5.2047 0
M  V30 25685 H 2364.08 2.34639 -4.99648 0
M  V30 25686 H 2364.56 2.81945 -3.36755 0
M  V30 25687 H 2365.17 1.29353 -4.05152 0
M  V30 25688 N 2363.48 1.56732 0.16515 0
M  V30 25689 C 2364.39 2.00127 1.22419 0
M  V30 25690 C 2365.41 0.913645 1.48083 0
M  V30 25691 O 2366.58 1.22175 1.6011 0
M  V30 25692 C 2363.65 2.35769 2.54193 0
M  V30 25693 C 2362.71 3.5839 2.36337 0
M  V30 25694 C 2361.94 3.92322 3.61827 0
M  V30 25695 O 2362.17 3.27143 4.67262 0
M  V30 25696 O 2361.1 4.85647 3.5557 0
M  V30 25697 H 2364.93 2.90494 0.885835 0
M  V30 25698 H 2362.51 1.44682 0.372492 0
M  V30 25699 H 2364.39 2.59635 3.31915 0
M  V30 25700 H 2363.07 1.48562 2.87595 0
M  V30 25701 H 2361.97 3.39734 1.56626 0
M  V30 25702 H 2363.31 4.46157 2.07857 0
M  V30 25703 N 2364.96 -0.433911 1.51509 0
M  V30 25704 C 2366.21 -1.18171 1.65551 0
M  V30 25705 C 2366.56 -1.88833 0.368784 0
M  V30 25706 O 2365.85 -1.80751 -0.635584 0
M  V30 25707 C 2366.05 -2.222 2.79932 0
M  V30 25708 C 2365.88 -1.61749 4.19604 0
M  V30 25709 C 2364.65 -1.40093 4.85492 0
M  V30 25710 C 2366.85 -1.09186 5.02576 0
M  V30 25711 N 2364.83 -0.752751 6.09267 0
M  V30 25712 C 2366.2 -0.569147 6.17382 0
M  V30 25713 C 2368.25 -0.983939 4.88081 0
M  V30 25714 C 2366.96 0.0508736 7.19282 0
M  V30 25715 C 2368.98 -0.377809 5.90192 0
M  V30 25716 C 2368.34 0.13434 7.04272 0
M  V30 25717 H 2364.44 -0.419967 0.65966 0
M  V30 25718 H 2367.03 -0.477784 1.88747 0
M  V30 25719 H 2365.2 -2.89977 2.58395 0
M  V30 25720 H 2366.93 -2.89163 2.83137 0
M  V30 25721 H 2363.68 -1.66362 4.43419 0
M  V30 25722 H 2364.11 -0.446004 6.75529 0
M  V30 25723 H 2368.75 -1.36576 4.00133 0
M  V30 25724 H 2366.47 0.444818 8.06875 0
M  V30 25725 H 2370.05 -0.296167 5.81046 0
M  V30 25726 H 2368.93 0.595987 7.81932 0
M  V30 25727 N 2366.44 -1.41713 -0.689577 0
M  V30 25728 C 2367.4 -1.43749 -1.78518 0
M  V30 25729 C 2368.4 -0.327218 -1.57435 0
M  V30 25730 O 2369.59 -0.587377 -1.63999 0
M  V30 25731 C 2366.72 -1.25473 -3.16969 0
M  V30 25732 H 2367.92 -2.41286 -1.78104 0
M  V30 25733 H 2365.47 -1.27943 -0.897787 0
M  V30 25734 H 2366.2 -0.288005 -3.23019 0
M  V30 25735 H 2365.99 -2.05923 -3.33674 0
M  V30 25736 H 2367.48 -1.29747 -3.96933 0
M  V30 25737 N 2367.92 0.924431 -1.2764 0
M  V30 25738 C 2369.16 1.66916 -1.13944 0
M  V30 25739 C 2369.49 1.92446 0.314555 0
M  V30 25740 O 2368.76 1.53305 1.21961 0
M  V30 25741 H 2367.34 0.618635 -0.418689 0
M  V30 25742 H 2370 1.10982 -1.60215 0
M  V30 25743 H 2369.09 2.63599 -1.67098 0
M  V30 25744 N 2369.39 1.09715 1.13139 0
M  V30 25745 C 2370.63 0.844716 1.86129 0
M  V30 25746 C 2371 -0.618459 1.81767 0
M  V30 25747 O 2372.2 -0.986946 2.50026 0
M  V30 25748 C 2370.47 1.36883 3.30148 0
M  V30 25749 S 2372.03 1.25071 4.20598 0
M  V30 25750 H 2368.85 0.305438 0.64205 0
M  V30 25751 H 2371.45 1.40112 1.36341 0
M  V30 25752 H 2370.15 2.42791 3.30878 0
M  V30 25753 H 2369.68 0.808681 3.84999 0
M  V30 25754 H 2371.7 0.203574 4.95782 0
M  V30 25755 N 2370.87 -1.30419 0.88479 0
M  V30 25756 C 2371.8 -2.27112 0.308695 0
M  V30 25757 C 2372.82 -1.53701 -0.536628 0
M  V30 25758 O 2374.01 -1.7491 -0.356209 0
M  V30 25759 C 2371.11 -3.33905 -0.579723 0
M  V30 25760 C 2370.28 -4.3676 0.236493 0
M  V30 25761 C 2369.34 -5.22967 -0.58239 0
M  V30 25762 O 2368.36 -5.692 -0.00515497 0
M  V30 25763 N 2369.57 -5.48818 -1.89153 0
M  V30 25764 H 2372.33 -2.77184 1.13969 0
M  V30 25765 H 2369.89 -1.43597 0.747756 0
M  V30 25766 H 2371.88 -3.88499 -1.13359 0
M  V30 25767 H 2370.45 -2.83763 -1.31139 0
M  V30 25768 H 2369.67 -3.82033 0.971807 0
M  V30 25769 H 2370.96 -5.02535 0.796013 0
M  V30 25770 H 2370.36 -5.13039 -2.38343 0
M  V30 25771 H 2368.92 -6.06288 -2.39286 0
M  V30 25772 N 2372.35 -0.645724 -1.43764 0
M  V30 25773 C 2373.77 -0.312618 -1.56508 0
M  V30 25774 C 2373.97 1.18362 -1.63072 0
M  V30 25775 O 2373.02 1.96821 -1.5817 0
M  V30 25776 C 2374.34 -1.01738 -2.82966 0
M  V30 25777 C 2375.88 -0.996917 -2.96699 0
M  V30 25778 C 2376.36 -1.68243 -4.25979 0
M  V30 25779 N 2377.85 -1.64971 -4.32826 0
M  V30 25780 C 2378.58 -2.14894 -5.31609 0
M  V30 25781 N 2378.08 -2.73072 -6.36713 0
M  V30 25782 N 2379.87 -2.05437 -5.23213 0
M  V30 25783 H 2372.02 -1.61677 -1.37747 0
M  V30 25784 H 2374.29 -0.679492 -0.661055 0
M  V30 25785 H 2373.99 -2.07245 -2.84152 0
M  V30 25786 H 2373.87 -0.564243 -3.72956 0
M  V30 25787 H 2376.25 0.04972 -2.95058 0
M  V30 25788 H 2376.34 -1.48868 -2.08019 0
M  V30 25789 H 2375.98 -2.7286 -4.28381 0
M  V30 25790 H 2375.91 -1.16538 -5.13543 0
M  V30 25791 H 2378.4 -1.2251 -3.57491 0
M  V30 25792 H 2378.71 -3.08861 -7.08396 0
M  V30 25793 H 2377.06 -2.7713 -6.37357 0
M  V30 25794 H 2380.25 -1.59697 -4.40016 0
M  V30 25795 H 2380.42 -2.44653 -6.00041 0
M  V30 25796 N 2373.83 1.5277 -0.38717 0
M  V30 25797 C 2375.07 2.01851 0.19599 0
M  V30 25798 C 2375.41 1.27321 1.46639 0
M  V30 25799 O 2374.68 0.373065 1.90889 0
M  V30 25800 C 2374.97 3.57071 0.466073 0
M  V30 25801 C 2374.82 4.42272 -0.819463 0
M  V30 25802 C 2376.14 4.21749 1.2576 0
M  V30 25803 H 2373.26 0.733691 0.0697579 0
M  V30 25804 H 2375.9 1.8285 -0.516318 0
M  V30 25805 H 2374.05 3.73392 1.07287 0
M  V30 25806 H 2375.72 4.37707 -1.45638 0
M  V30 25807 H 2373.96 4.09369 -1.43524 0
M  V30 25808 H 2374.63 5.4889 -0.585161 0
M  V30 25809 H 2377.11 4.09393 0.744095 0
M  V30 25810 H 2375.99 5.30339 1.41532 0
M  V30 25811 H 2376.25 3.7924 2.27221 0
M  V30 25812 N 2375.31 0.116931 1.57166 0
M  V30 25813 C 2376.55 -0.540499 1.94738 0
M  V30 25814 C 2376.88 -1.67347 1.00099 0
M  V30 25815 O 2376.15 -1.95817 0.0569199 0
M  V30 25816 H 2374.73 -0.202656 0.718985 0
M  V30 25817 H 2377.39 0.185388 1.94016 0
M  V30 25818 H 2376.48 -0.936431 2.9772 0
M  V30 25819 N 2376.78 -1.56818 -0.156836 0
M  V30 25820 C 2378.03 -1.81997 -0.869472 0
M  V30 25821 C 2378.35 -0.696577 -1.82776 0
M  V30 25822 O 2379.55 -0.833703 -2.58383 0
M  V30 25823 C 2378.01 -3.2254 -1.59674 0
M  V30 25824 C 2377.62 -4.42788 -0.681354 0
M  V30 25825 C 2379.36 -3.57002 -2.29674 0
M  V30 25826 C 2377.27 -5.74354 -1.40968 0
M  V30 25827 H 2376.2 -0.678714 -0.328426 0
M  V30 25828 H 2378.85 -1.83092 -0.122268 0
M  V30 25829 H 2377.23 -3.15804 -2.38922 0
M  V30 25830 H 2378.4 -4.60739 0.0751976 0
M  V30 25831 H 2376.72 -4.16302 -0.0902699 0
M  V30 25832 H 2379.32 -4.52549 -2.84786 0
M  V30 25833 H 2379.66 -2.82581 -3.05702 0
M  V30 25834 H 2380.19 -3.65355 -1.57355 0
M  V30 25835 H 2376.93 -6.51843 -0.691446 0
M  V30 25836 H 2376.45 -5.60356 -2.13919 0
M  V30 25837 H 2378.13 -6.16812 -1.95326 0
M  V30 25838 N 2378.26 0.425871 -1.51737 0
M  V30 25839 C 2379.49 1.20105 -1.69084 0
M  V30 25840 C 2379.91 1.83961 -0.39243 0
M  V30 25841 O 2379.27 1.69303 0.648551 0
M  V30 25842 C 2379.32 2.25232 -2.81608 0
M  V30 25843 O 2378.42 3.30988 -2.4601 0
M  V30 25844 H 2377.76 0.35137 -0.563414 0
M  V30 25845 H 2380.29 0.501477 -1.98359 0
M  V30 25846 H 2380.3 2.69833 -3.0603 0
M  V30 25847 H 2378.98 1.78135 -3.7582 0
M  V30 25848 H 2377.56 2.91783 -2.322 0
M  V30 25849 N 2379.74 1.42077 0.682052 0
M  V30 25850 C 2381.15 1.37548 1.26243 0
M  V30 25851 C 2381.5 0.0651826 1.96092 0
M  V30 25852 O 2380.63 -0.836262 1.99589 0
M  V30 25853 C 2381.22 2.49147 2.29589 0
M  V30 25854 C 2379.78 2.47974 2.83171 0
M  V30 25855 C 2378.93 2.28305 1.57391 0
M  V30 25856 H 2381.88 1.51396 0.475911 0
M  V30 25857 H 2381.9 2.18982 3.11171 0
M  V30 25858 H 2381.41 3.44499 1.78723 0
M  V30 25859 H 2379.51 1.56419 3.38177 0
M  V30 25860 H 2379.63 3.44761 3.32681 0
M  V30 25861 H 2377.99 1.76431 1.83696 0
M  V30 25862 H 2378.77 3.25703 1.08501 0
M  V30 25863 N 2381.22 -0.917649 1.28129 0
M  V30 25864 C 2382.5 -1.6454 1.05764 0
M  V30 25865 C 2382.88 -2.07192 -0.404308 0
M  V30 25866 O 2382.22 -1.8139 -1.3896 0
M  V30 25867 C 2382.43 -2.83986 2.02862 0
M  V30 25868 C 2383.78 -3.55096 2.32792 0
M  V30 25869 O 2384.81 -2.94128 2.00915 0
M  V30 25870 O 2383.67 -4.64964 2.87178 0
M  V30 25871 H 2380.76 -0.721645 0.403928 0
M  V30 25872 H 2383.31 -0.967298 1.39433 0
M  V30 25873 H 2382.08 -2.49533 3.01412 0
M  V30 25874 H 2381.7 -3.59511 1.69816 0
M  V30 25875 N 2382.7 -1.10314 -1.12555 0
M  V30 25876 C 2383.93 -0.866906 -1.87863 0
M  V30 25877 C 2384.34 0.582525 -1.79589 0
M  V30 25878 O 2383.7 1.40154 -1.1689 0
M  V30 25879 C 2383.75 -1.30502 -3.37122 0
M  V30 25880 O 2383.47 -2.69761 -3.45196 0
M  V30 25881 C 2384.97 -1.1025 -4.29371 0
M  V30 25882 H 2382.19 -0.311246 -0.594447 0
M  V30 25883 H 2384.73 -1.46748 -1.42426 0
M  V30 25884 H 2382.89 -0.748148 -3.80107 0
M  V30 25885 H 2383.3 -2.88465 -4.3805 0
M  V30 25886 H 2384.78 -1.45821 -5.32391 0
M  V30 25887 H 2385.25 -0.0410263 -4.39181 0
M  V30 25888 H 2385.86 -1.64578 -3.92166 0
M  V30 25889 N 2384.18 1.29948 -0.891694 0
M  V30 25890 C 2385.13 2.25528 -0.334851 0
M  V30 25891 C 2386.11 1.51549 0.540526 0
M  V30 25892 O 2387.3 1.72788 0.383852 0
M  V30 25893 C 2384.43 3.40421 0.44368 0
M  V30 25894 C 2383.52 4.21747 -0.446164 0
M  V30 25895 N 2383.91 4.81474 -1.54972 0
M  V30 25896 C 2382.21 4.4534 -0.242494 0
M  V30 25897 C 2382.91 5.42461 -2.10025 0
M  V30 25898 N 2381.88 5.25414 -1.39433 0
M  V30 25899 H 2385.68 2.6926 -1.17797 0
M  V30 25900 H 2383.2 1.44466 -0.741848 0
M  V30 25901 H 2385.2 4.07948 0.859291 0
M  V30 25902 H 2383.86 2.98227 1.28416 0
M  V30 25903 H 2384.87 4.80493 -1.93252 0
M  V30 25904 H 2381.54 4.13724 0.56027 0
M  V30 25905 H 2382.93 5.99835 -3.02734 0
M  V30 25906 N 2385.65 0.653339 1.4342 0
M  V30 25907 C 2387.07 0.320914 1.5634 0
M  V30 25908 C 2387.27 -1.17496 1.63698 0
M  V30 25909 O 2386.33 -1.95979 1.59212 0
M  V30 25910 C 2387.64 1.03238 2.82423 0
M  V30 25911 C 2389.19 1.01264 2.96167 0
M  V30 25912 C 2389.66 1.705 4.25081 0
M  V30 25913 N 2391.15 1.67264 4.31945 0
M  V30 25914 C 2391.89 2.1771 5.30462 0
M  V30 25915 N 2391.38 2.76445 6.35256 0
M  V30 25916 N 2393.18 2.08209 5.22116 0
M  V30 25917 H 2385.33 1.62406 1.36887 0
M  V30 25918 H 2387.59 0.682989 0.657442 0
M  V30 25919 H 2387.3 2.08749 2.83049 0
M  V30 25920 H 2387.17 0.584013 3.72651 0
M  V30 25921 H 2389.56 -0.0340717 2.9508 0
M  V30 25922 H 2389.64 1.49969 2.07227 0
M  V30 25923 H 2389.28 2.75128 4.26928 0
M  V30 25924 H 2389.21 1.1926 5.12918 0
M  V30 25925 H 2391.7 1.24404 3.56836 0
M  V30 25926 H 2392.02 3.12613 7.06748 0
M  V30 25927 H 2390.36 2.80506 6.35879 0
M  V30 25928 H 2393.55 1.62028 4.39163 0
M  V30 25929 H 2393.73 2.47832 5.98735 0
M  V30 25930 N 2387.13 -1.52563 0.395266 0
M  V30 25931 C 2388.38 -2.01952 -0.185282 0
M  V30 25932 C 2388.71 -1.28097 -1.45961 0
M  V30 25933 O 2387.99 -0.383183 -1.90688 0
M  V30 25934 C 2388.27 -3.57313 -0.447131 0
M  V30 25935 C 2388.12 -4.41832 0.842906 0
M  V30 25936 C 2389.44 -4.2241 -1.23522 0
M  V30 25937 H 2386.56 -0.734051 -0.0658659 0
M  V30 25938 H 2389.2 -1.82574 0.526007 0
M  V30 25939 H 2387.35 -3.73956 -1.05305 0
M  V30 25940 H 2389.02 -4.36928 1.47957 0
M  V30 25941 H 2387.27 -4.08603 1.45693 0
M  V30 25942 H 2387.94 -5.48572 0.614262 0
M  V30 25943 H 2390.41 -4.09782 -0.722373 0
M  V30 25944 H 2389.29 -5.31083 -1.38718 0
M  V30 25945 H 2389.55 -3.8044 -2.25207 0
M  V30 25946 N 2388.61 -0.125265 -1.57101 0
M  V30 25947 C 2390.02 0.39911 -1.82384 0
M  V30 25948 C 2390.37 1.66194 -1.04279 0
M  V30 25949 O 2389.5 2.14564 -0.281307 0
M  V30 25950 C 2390.09 0.730873 -3.30823 0
M  V30 25951 C 2388.65 1.19986 -3.56764 0
M  V30 25952 C 2387.8 0.211744 -2.7649 0
M  V30 25953 H 2390.75 -0.350304 -1.54786 0
M  V30 25954 H 2390.77 1.58769 -3.45793 0
M  V30 25955 H 2390.28 -0.188413 -3.87642 0
M  V30 25956 H 2388.38 2.13583 -3.05308 0
M  V30 25957 H 2388.5 1.14085 -4.65319 0
M  V30 25958 H 2386.86 0.700042 -2.44891 0
M  V30 25959 H 2387.64 -0.70075 -3.36072 0
M  V30 25960 N 2390.09 1.56899 0.148518 0
M  V30 25961 C 2391.33 1.85072 0.867618 0
M  V30 25962 C 2391.69 0.709348 1.78416 0
M  V30 25963 O 2392.89 0.872094 2.5426 0
M  V30 25964 C 2391.16 3.18423 1.623 0
M  V30 25965 S 2392.72 3.68148 2.38774 0
M  V30 25966 H 2389.54 0.649097 0.290162 0
M  V30 25967 H 2392.14 1.95082 0.127721 0
M  V30 25968 H 2390.85 3.99463 0.941122 0
M  V30 25969 H 2390.38 3.11415 2.40384 0
M  V30 25970 H 2392.39 3.37291 3.63936 0
M  V30 25971 N 2391.57 -0.417818 1.51961 0
M  V30 25972 C 2392.52 -1.50737 1.71062 0
M  V30 25973 C 2393.5 -1.50672 0.564513 0
M  V30 25974 O 2394.69 -1.56795 0.821233 0
M  V30 25975 C 2391.82 -2.88751 1.85682 0
M  V30 25976 C 2390.91 -2.93497 3.06138 0
M  V30 25977 N 2391.3 -2.67954 4.28992 0
M  V30 25978 C 2389.6 -3.24664 3.05793 0
M  V30 25979 C 2390.3 -2.79046 5.104 0
M  V30 25980 N 2389.27 -3.11554 4.45461 0
M  V30 25981 H 2393.07 -1.2977 2.63698 0
M  V30 25982 H 2390.59 -0.625409 1.49875 0
M  V30 25983 H 2392.59 -3.6716 1.97481 0
M  V30 25984 H 2391.25 -3.10723 0.942403 0
M  V30 25985 H 2392.26 -2.42512 4.57612 0
M  V30 25986 H 2388.93 -3.52286 2.24056 0
M  V30 25987 H 2390.32 -2.63086 6.18252 0
M  V30 25988 N 2393.04 -1.42436 -0.674508 0
M  V30 25989 C 2394.29 -1.42214 -1.43032 0
M  V30 25990 C 2394.61 -0.0421131 -1.95555 0
M  V30 25991 O 2395.81 0.0827081 -2.71374 0
M  V30 25992 C 2394.27 -2.50159 -2.58744 0
M  V30 25993 C 2393.88 -3.9417 -2.12918 0
M  V30 25994 C 2395.62 -2.59104 -3.36252 0
M  V30 25995 C 2393.53 -4.93623 -3.25714 0
M  V30 25996 H 2392.46 -0.528948 -0.537336 0
M  V30 25997 H 2395.11 -1.68345 -0.73021 0
M  V30 25998 H 2393.49 -2.17194 -3.31124 0
M  V30 25999 H 2394.66 -4.36491 -1.4769 0
M  V30 26000 H 2392.98 -3.89078 -1.48348 0
M  V30 26001 H 2395.58 -3.30586 -4.20258 0
M  V30 26002 H 2395.92 -1.63468 -3.82863 0
M  V30 26003 H 2396.45 -2.91265 -2.70942 0
M  V30 26004 H 2393.19 -5.90737 -2.84095 0
M  V30 26005 H 2392.71 -4.55933 -3.89724 0
M  V30 26006 H 2394.39 -5.15354 -3.91177 0
M  V30 26007 N 2394.52 0.910841 -1.28614 0
M  V30 26008 C 2395.75 1.69925 -1.18913 0
M  V30 26009 C 2396.17 1.86453 0.248339 0
M  V30 26010 O 2395.53 1.37679 1.17959 0
M  V30 26011 C 2395.58 3.06742 -1.89583 0
M  V30 26012 O 2394.68 3.94394 -1.20528 0
M  V30 26013 H 2394.02 0.520215 -0.412641 0
M  V30 26014 H 2396.55 1.13867 -1.69987 0
M  V30 26015 H 2396.56 3.56955 -1.97603 0
M  V30 26016 H 2395.24 2.9403 -2.94142 0
M  V30 26017 H 2393.81 3.52829 -1.2069 0
M  V30 26018 N 2396 1.10909 1.11969 0
M  V30 26019 C 2397.25 0.85454 1.83586 0
M  V30 26020 C 2397.58 -0.619867 1.84358 0
M  V30 26021 O 2396.83 -1.47329 1.28812 0
M  V30 26022 C 2397.13 1.35431 3.30746 0
M  V30 26023 C 2396.8 2.84099 3.50141 0
M  V30 26024 C 2395.46 3.24696 3.55142 0
M  V30 26025 C 2397.81 3.79878 3.5685 0
M  V30 26026 C 2395.14 4.59813 3.64402 0
M  V30 26027 C 2397.49 5.14804 3.67641 0
M  V30 26028 C 2396.15 5.54968 3.709 0
M  V30 26029 H 2395.42 0.312698 0.671789 0
M  V30 26030 H 2398.07 1.38654 1.32088 0
M  V30 26031 H 2396.38 0.742429 3.84701 0
M  V30 26032 H 2398.07 1.13377 3.84638 0
M  V30 26033 H 2394.66 2.51691 3.46914 0
M  V30 26034 H 2398.85 3.49617 3.52252 0
M  V30 26035 H 2394.1 4.90346 3.652 0
M  V30 26036 H 2398.28 5.8886 3.71776 0
M  V30 26037 H 2395.9 6.59659 3.77828 0
M  V30 26038 N 2397.48 -1.29474 0.898573 0
M  V30 26039 C 2398.73 -1.95219 0.522881 0
M  V30 26040 C 2399.05 -1.71194 -0.93368 0
M  V30 26041 O 2398.32 -1.04308 -1.65821 0
M  V30 26042 H 2396.9 -0.722333 0.190379 0
M  V30 26043 H 2399.56 -1.57748 1.14462 0
M  V30 26044 H 2398.66 -3.04044 0.704529 0
M  V30 26045 N 2398.96 -0.660936 -1.43071 0
M  V30 26046 C 2400.18 -0.183841 -2.06584 0
M  V30 26047 C 2400.61 1.1447 -1.49259 0
M  V30 26048 O 2399.96 1.70888 -0.605558 0
M  V30 26049 C 2400.01 -0.114497 -3.60418 0
M  V30 26050 O 2399.12 0.921067 -4.01983 0
M  V30 26051 H 2398.46 -0.0984109 -0.656667 0
M  V30 26052 H 2400.99 -0.906039 -1.83445 0
M  V30 26053 H 2401 0.0662677 -4.07946 0
M  V30 26054 H 2399.67 -1.08429 -4.01517 0
M  V30 26055 H 2398.25 0.712466 -3.66031 0
M  V30 26056 N 2400.43 1.52351 -0.403352 0
M  V30 26057 C 2401.85 1.59509 -0.0539561 0
M  V30 26058 C 2402.05 1.41655 1.43304 0
M  V30 26059 O 2401.11 1.24059 2.19922 0
M  V30 26060 C 2402.42 2.95744 -0.543706 0
M  V30 26061 C 2403.97 3.08961 -0.50118 0
M  V30 26062 C 2404.44 4.47668 -0.967345 0
M  V30 26063 N 2405.93 4.53892 -0.923929 0
M  V30 26064 C 2406.67 5.59478 -1.25588 0
M  V30 26065 N 2406.16 6.72643 -1.65901 0
M  V30 26066 N 2407.96 5.49656 -1.17623 0
M  V30 26067 H 2400.11 1.62204 -1.37126 0
M  V30 26068 H 2402.37 0.76275 -0.562953 0
M  V30 26069 H 2402.08 3.14071 -1.5828 0
M  V30 26070 H 2401.95 3.77167 0.0497379 0
M  V30 26071 H 2404.34 2.90322 0.528858 0
M  V30 26072 H 2404.42 2.29458 -1.1306 0
M  V30 26073 H 2404.06 4.67049 -1.99568 0
M  V30 26074 H 2403.99 5.25658 -0.31479 0
M  V30 26075 H 2406.48 3.72654 -0.627469 0
M  V30 26076 H 2406.8 7.49192 -1.89556 0
M  V30 26077 H 2405.14 6.73939 -1.69799 0
M  V30 26078 H 2408.33 4.60129 -0.860196 0
M  V30 26079 H 2408.51 6.31838 -1.43823 0
M  V30 26080 N 2401.91 0.133594 1.57033 0
M  V30 26081 C 2402.85 -0.848835 2.11825 0
M  V30 26082 C 2403.82 -1.25128 1.03835 0
M  V30 26083 O 2405.01 -1.34976 1.31582 0
M  V30 26084 C 2402.13 -2.13796 2.62696 0
M  V30 26085 C 2401.18 -1.88246 3.82708 0
M  V30 26086 S 2402.01 -1.08554 5.24382 0
M  V30 26087 C 2403.17 -2.38614 5.78631 0
M  V30 26088 H 2403.4 -0.382838 2.94825 0
M  V30 26089 H 2400.94 -0.0804525 1.5419 0
M  V30 26090 H 2402.89 -2.87858 2.92657 0
M  V30 26091 H 2401.55 -2.57511 1.79852 0
M  V30 26092 H 2400.75 -2.83802 4.16501 0
M  V30 26093 H 2400.35 -1.22299 3.53439 0
M  V30 26094 H 2402.64 -3.34359 5.89246 0
M  V30 26095 H 2403.58 -2.09346 6.76447 0
M  V30 26096 H 2403.99 -2.48649 5.06788 0
M  V30 26097 N 2403.39 -1.56975 -0.140195 0
M  V30 26098 C 2404.8 -1.73098 -0.699566 0
M  V30 26099 C 2405.15 -0.749054 -1.81338 0
M  V30 26100 O 2404.28 0.0828122 -2.16241 0
M  V30 26101 C 2404.87 -3.13862 -1.27577 0
M  V30 26102 C 2403.43 -3.31564 -1.78164 0
M  V30 26103 C 2402.58 -2.69014 -0.672807 0
M  V30 26104 H 2405.53 -1.58469 0.0855394 0
M  V30 26105 H 2405.55 -3.14239 -2.14556 0
M  V30 26106 H 2405.06 -3.85306 -0.464887 0
M  V30 26107 H 2403.16 -2.65129 -2.61796 0
M  V30 26108 H 2403.28 -4.39569 -1.90567 0
M  V30 26109 H 2401.64 -2.29667 -1.10114 0
M  V30 26110 H 2402.42 -3.43066 0.126739 0
M  V30 26111 N 2404.87 0.409753 -1.5218 0
M  V30 26112 C 2406.12 1.15676 -1.66208 0
M  V30 26113 C 2406.44 1.90515 -0.391707 0
M  V30 26114 O 2405.7 1.85441 0.625297 0
M  V30 26115 C 2406 2.17718 -2.83432 0
M  V30 26116 C 2405.66 1.59691 -4.21675 0
M  V30 26117 C 2404.33 1.43591 -4.59277 0
M  V30 26118 C 2406.68 1.17308 -5.07827 0
M  V30 26119 C 2404.01 0.836226 -5.8071 0
M  V30 26120 C 2406.36 0.58758 -6.29865 0
M  V30 26121 C 2405.02 0.413701 -6.66217 0
M  V30 26122 H 2404.29 0.42329 -0.6082 0
M  V30 26123 H 2406.94 0.444064 -1.8628 0
M  V30 26124 H 2405.24 2.95131 -2.57692 0
M  V30 26125 H 2406.94 2.75389 -2.91482 0
M  V30 26126 H 2403.53 1.73206 -3.92043 0
M  V30 26127 H 2407.71 1.28556 -4.79361 0
M  V30 26128 H 2402.97 0.689519 -6.07499 0
M  V30 26129 H 2407.14 0.250772 -6.95948 0
M  V30 26130 H 2404.77 -0.0530807 -7.60181 0
M  V30 26131 N 2406.35 1.42792 0.666944 0
M  V30 26132 C 2407.76 1.25891 0.981005 0
M  V30 26133 C 2407.96 0.16873 2.00792 0
M  V30 26134 O 2407.02 -0.457426 2.48322 0
M  V30 26135 C 2408.33 2.61851 1.47833 0
M  V30 26136 C 2409.88 2.6927 1.5957 0
M  V30 26137 C 2410.35 4.05616 2.12697 0
M  V30 26138 N 2411.85 4.0761 2.20019 0
M  V30 26139 C 2412.58 5.09931 2.62218 0
M  V30 26140 N 2412.08 6.22631 3.03813 0
M  V30 26141 N 2413.87 4.97286 2.62036 0
M  V30 26142 H 2406.02 2.12396 -0.0128264 0
M  V30 26143 H 2408.28 0.946296 0.0568091 0
M  V30 26144 H 2407.99 3.42522 0.798239 0
M  V30 26145 H 2407.86 2.86309 2.45574 0
M  V30 26146 H 2410.25 1.8894 2.26684 0
M  V30 26147 H 2410.33 2.48592 0.602976 0
M  V30 26148 H 2409.98 4.86406 1.46189 0
M  V30 26149 H 2409.91 4.2365 3.12775 0
M  V30 26150 H 2412.4 3.26253 1.90702 0
M  V30 26151 H 2412.71 6.96549 3.34722 0
M  V30 26152 H 2411.05 6.26124 3.01651 0
M  V30 26153 H 2414.25 4.08312 2.28908 0
M  V30 26154 H 2414.42 5.7716 2.94603 0
M  V30 26155 N 2407.82 -0.904008 1.29095 0
M  V30 26156 C 2408.76 -2.01264 1.09661 0
M  V30 26157 C 2409.77 -1.62737 0.0454015 0
M  V30 26158 O 2410.96 -1.76137 0.289477 0
M  V30 26159 C 2408.06 -3.3268 0.646337 0
M  V30 26160 C 2407.23 -3.9976 1.77512 0
M  V30 26161 C 2406.29 -5.09463 1.31658 0
M  V30 26162 O 2405.32 -5.3213 2.02054 0
M  V30 26163 N 2406.52 -5.80205 0.185099 0
M  V30 26164 H 2409.28 -2.18491 2.05139 0
M  V30 26165 H 2406.84 -1.07592 1.20977 0
M  V30 26166 H 2408.84 -4.03409 0.322977 0
M  V30 26167 H 2407.41 -3.11854 -0.215861 0
M  V30 26168 H 2406.63 -3.22451 2.26758 0
M  V30 26169 H 2407.91 -4.41321 2.53206 0
M  V30 26170 H 2407.31 -5.6427 -0.401922 0
M  V30 26171 H 2405.87 -6.51752 -0.0789213 0
M  V30 26172 N 2409.3 -1.11501 -1.11379 0
M  V30 26173 C 2410.21 -0.786667 -2.21017 0
M  V30 26174 C 2411.23 0.220477 -1.72598 0
M  V30 26175 O 2412.4 0.0564897 -2.01321 0
M  V30 26176 C 2409.47 -0.235394 -3.459 0
M  V30 26177 C 2408.53 -1.30122 -4.09105 0
M  V30 26178 C 2407.76 -0.776161 -5.28026 0
M  V30 26179 O 2407.99 0.393561 -5.69041 0
M  V30 26180 O 2406.92 -1.54125 -5.81833 0
M  V30 26181 H 2410.75 -1.70213 -2.51518 0
M  V30 26182 H 2408.33 -0.890949 -1.19927 0
M  V30 26183 H 2410.21 0.067641 -4.21346 0
M  V30 26184 H 2408.89 0.652773 -3.1705 0
M  V30 26185 H 2407.8 -1.65728 -3.35388 0
M  V30 26186 H 2409.13 -2.1628 -4.42135 0
M  V30 26187 N 2410.78 1.28995 -0.905426 0
M  V30 26188 C 2412.01 1.9917 -0.549084 0
M  V30 26189 C 2412.42 1.67907 0.872001 0
M  V30 26190 O 2411.76 0.923589 1.58794 0
M  V30 26191 C 2411.82 3.53232 -0.668368 0
M  V30 26192 C 2411.49 4.08065 -2.05747 0
M  V30 26193 C 2412.49 4.22529 -3.02928 0
M  V30 26194 C 2410.17 4.42958 -2.3684 0
M  V30 26195 C 2412.16 4.71128 -4.29322 0
M  V30 26196 C 2409.85 4.91252 -3.63476 0
M  V30 26197 C 2410.85 5.05292 -4.59531 0
M  V30 26198 O 2410.54 5.52536 -5.83917 0
M  V30 26199 H 2410.27 0.642947 -0.208796 0
M  V30 26200 H 2412.82 1.65361 -1.21839 0
M  V30 26201 H 2411.05 3.86657 0.0579868 0
M  V30 26202 H 2412.74 4.04634 -0.320344 0
M  V30 26203 H 2413.51 3.95854 -2.80223 0
M  V30 26204 H 2409.39 4.31285 -1.62832 0
M  V30 26205 H 2412.93 4.82002 -5.04302 0
M  V30 26206 H 2408.83 5.17365 -3.86009 0
M  V30 26207 H 2409.6 5.70839 -5.86588 0
M  V30 26208 N 2412.26 0.668514 1.42719 0
M  V30 26209 C 2413.21 -0.0254448 2.32586 0
M  V30 26210 C 2414.2 -0.79715 1.49472 0
M  V30 26211 O 2415.41 -0.705823 1.65584 0
M  V30 26212 H 2411.78 -0.0270207 0.751514 0
M  V30 26213 H 2413.75 0.749987 2.88821 0
M  V30 26214 C 2412.5 -0.967368 3.33972 0
M  V30 26215 H 2411.83 -0.382978 3.97961 0
M  V30 26216 H 2413.27 -1.42174 3.99453 0
M  V30 26217 C 2411.72 -2.07075 2.65747 0
M  V30 26218 O 2412.25 -3.15644 2.48459 0
M  V30 26219 N 2410.46 -1.84066 2.24873 0
M  V30 26220 H 2410.01 -0.957738 2.39134 0
M  V30 26221 H 2409.97 -2.58083 1.79557 0
M  V30 26222 N 2413.74 -1.52135 0.411426 0
M  V30 26223 C 2414.99 -2.01439 -0.163287 0
M  V30 26224 C 2415.31 -1.29882 -1.4545 0
M  V30 26225 O 2414.58 -0.425434 -1.91225 0
M  V30 26226 H 2413.16 -0.74431 -0.0633316 0
M  V30 26227 H 2415.82 -1.87032 0.548194 0
M  V30 26228 H 2414.91 -3.10043 -0.357762 0
M  V30 26229 N 2415.22 -0.14192 -1.5696 0
M  V30 26230 C 2416.46 0.510458 -1.95961 0
M  V30 26231 C 2416.79 1.65206 -1.02651 0
M  V30 26232 O 2416.05 1.95623 -0.0547291 0
M  V30 26233 C 2416.34 1.06243 -3.41244 0
M  V30 26234 C 2416.01 0.0397998 -4.50882 0
M  V30 26235 C 2414.67 -0.241332 -4.80594 0
M  V30 26236 C 2417.02 -0.655871 -5.17057 0
M  V30 26237 C 2414.35 -1.22403 -5.7379 0
M  V30 26238 C 2416.7 -1.62735 -6.1131 0
M  V30 26239 C 2415.37 -1.91623 -6.39403 0
M  V30 26240 H 2414.64 0.18679 -0.717071 0
M  V30 26241 H 2417.29 -0.227677 -1.90142 0
M  V30 26242 H 2415.59 1.87779 -3.43869 0
M  V30 26243 H 2417.29 1.57569 -3.68745 0
M  V30 26244 H 2413.88 0.269099 -4.27754 0
M  V30 26245 H 2418.06 -0.451866 -4.94239 0
M  V30 26246 H 2413.32 -1.45434 -5.93851 0
M  V30 26247 H 2417.49 -2.17195 -6.61664 0
M  V30 26248 H 2415.12 -2.67922 -7.11422 0
M  V30 26249 N 2416.69 1.57047 0.131868 0
M  V30 26250 C 2417.94 1.84442 0.843147 0
M  V30 26251 C 2418.27 0.725781 1.80128 0
M  V30 26252 O 2417.55 -0.269436 1.92625 0
M  V30 26253 C 2417.83 3.22385 1.60437 0
M  V30 26254 C 2417.68 4.44832 0.666704 0
M  V30 26255 C 2419 3.57735 2.56347 0
M  V30 26256 H 2416.12 0.670896 0.305069 0
M  V30 26257 H 2418.76 1.89694 0.107806 0
M  V30 26258 H 2416.91 3.18039 2.23122 0
M  V30 26259 H 2418.59 4.61273 0.0496835 0
M  V30 26260 H 2416.83 4.33794 -0.0226853 0
M  V30 26261 H 2417.5 5.37991 1.23569 0
M  V30 26262 H 2419.98 3.62789 2.03773 0
M  V30 26263 H 2418.85 4.55256 3.06649 0
M  V30 26264 H 2419.11 2.84479 3.38414 0
M  V30 26265 N 2418.17 -0.401677 1.52395 0
M  V30 26266 C 2419.1 -1.50909 1.72508 0
M  V30 26267 C 2420.12 -1.51121 0.605494 0
M  V30 26268 O 2421.31 -1.55252 0.880855 0
M  V30 26269 C 2418.41 -2.89788 1.75716 0
M  V30 26270 C 2417.58 -3.13684 3.04829 0
M  V30 26271 C 2416.64 -4.32476 2.99751 0
M  V30 26272 O 2415.66 -4.29395 3.73642 0
M  V30 26273 N 2416.87 -5.37989 2.18056 0
M  V30 26274 H 2419.63 -1.34048 2.68051 0
M  V30 26275 H 2417.19 -0.591058 1.50725 0
M  V30 26276 H 2419.18 -3.67337 1.69841 0
M  V30 26277 H 2417.75 -3.00071 0.876144 0
M  V30 26278 H 2416.97 -2.24113 3.24294 0
M  V30 26279 H 2418.26 -3.26498 3.90227 0
M  V30 26280 H 2417.66 -5.43342 1.57466 0
M  V30 26281 H 2416.22 -6.14252 2.18032 0
M  V30 26282 N 2419.65 -1.43144 -0.659362 0
M  V30 26283 C 2420.88 -1.47649 -1.44511 0
M  V30 26284 C 2421.29 -0.0910428 -1.88981 0
M  V30 26285 O 2420.63 0.907761 -1.59704 0
M  V30 26286 C 2420.69 -2.3546 -2.71659 0
M  V30 26287 C 2420.36 -3.83098 -2.49168 0
M  V30 26288 C 2421.35 -4.74363 -2.12781 0
M  V30 26289 C 2419.04 -4.27524 -2.63683 0
M  V30 26290 C 2421.03 -6.08047 -1.91199 0
M  V30 26291 C 2418.72 -5.61264 -2.41716 0
M  V30 26292 C 2419.72 -6.51342 -2.05529 0
M  V30 26293 O 2419.41 -7.8261 -1.83786 0
M  V30 26294 H 2419.14 -0.503892 -0.450632 0
M  V30 26295 H 2421.69 -1.88486 -0.816215 0
M  V30 26296 H 2419.92 -1.89499 -3.37086 0
M  V30 26297 H 2421.61 -2.3124 -3.33591 0
M  V30 26298 H 2422.38 -4.41321 -2.01149 0
M  V30 26299 H 2418.26 -3.57689 -2.90825 0
M  V30 26300 H 2421.8 -6.78319 -1.62878 0
M  V30 26301 H 2417.7 -5.93875 -2.52949 0
M  V30 26302 H 2418.46 -7.94125 -1.98261 0
M  V30 26303 N 2421.13 0.897149 -1.29572 0
M  V30 26304 C 2422.36 1.68127 -1.20585 0
M  V30 26305 C 2422.77 1.87355 0.233148 0
M  V30 26306 O 2422.13 1.41238 1.15577 0
M  V30 26307 C 2422.18 3.06437 -1.91777 0
M  V30 26308 O 2421.9 2.88086 -3.30058 0
M  V30 26309 C 2423.4 4.00851 -1.89298 0
M  V30 26310 H 2420.62 0.525029 -0.417835 0
M  V30 26311 H 2423.16 1.12174 -1.70989 0
M  V30 26312 H 2421.32 3.59159 -1.45202 0
M  V30 26313 H 2421.73 3.75742 -3.65948 0
M  V30 26314 H 2423.21 4.95306 -2.43671 0
M  V30 26315 H 2423.68 4.30515 -0.869089 0
M  V30 26316 H 2424.29 3.54061 -2.35628 0
M  V30 26317 N 2422.61 1.1209 1.10786 0
M  V30 26318 C 2423.57 0.788615 2.15206 0
M  V30 26319 C 2424.57 -0.195289 1.5961 0
M  V30 26320 O 2425.76 0.0300499 1.74174 0
M  V30 26321 C 2422.89 0.171234 3.4047 0
M  V30 26322 H 2424.08 1.71373 2.46113 0
M  V30 26323 H 2421.64 0.923674 1.26087 0
M  V30 26324 H 2422.37 -0.763777 3.15178 0
M  V30 26325 H 2422.16 0.879581 3.82107 0
M  V30 26326 H 2423.65 -0.0448866 4.17576 0
M  V30 26327 N 2424.08 -1.28513 0.912254 0
M  V30 26328 C 2425.5 -1.47475 0.610185 0
M  V30 26329 C 2425.7 -1.8293 -0.844923 0
M  V30 26330 O 2424.76 -1.93335 -1.62412 0
M  V30 26331 C 2426.07 -2.57865 1.5468 0
M  V30 26332 C 2427.62 -2.71735 1.55335 0
M  V30 26333 C 2428.09 -3.85267 2.47655 0
M  V30 26334 N 2429.58 -3.92619 2.45774 0
M  V30 26335 C 2430.32 -4.79845 3.13905 0
M  V30 26336 N 2429.81 -5.71672 3.9136 0
M  V30 26337 N 2431.61 -4.73443 3.02999 0
M  V30 26338 H 2423.76 -1.03779 1.8532 0
M  V30 26339 H 2426.02 -0.516739 0.794786 0
M  V30 26340 H 2425.73 -2.38569 2.58414 0
M  V30 26341 H 2425.6 -3.54934 1.27677 0
M  V30 26342 H 2427.99 -2.90421 0.523401 0
M  V30 26343 H 2428.07 -1.75202 1.86381 0
M  V30 26344 H 2427.71 -3.67336 3.50752 0
M  V30 26345 H 2427.64 -4.81195 2.13912 0
M  V30 26346 H 2430.13 -3.26948 1.89509 0
M  V30 26347 H 2430.45 -6.35054 4.4037 0
M  V30 26348 H 2428.79 -5.71517 3.95465 0
M  V30 26349 H 2431.98 -4.00695 2.41994 0
M  V30 26350 H 2432.16 -5.41207 3.56369 0
M  V30 26351 N 2425.56 -0.676073 -1.42362 0
M  V30 26352 C 2426.81 -0.198473 -2.01123 0
M  V30 26353 C 2427.13 1.19963 -1.53733 0
M  V30 26354 O 2426.4 1.80576 -0.759549 0
M  V30 26355 H 2424.98 -0.0703852 -0.743677 0
M  V30 26356 H 2427.64 -0.872867 -1.74261 0
M  V30 26357 H 2426.74 -0.200741 -3.11454 0
M  V30 26358 N 2427.04 1.51915 -0.419488 0
M  V30 26359 C 2427.97 2.25007 0.43642 0
M  V30 26360 C 2428.99 1.28353 1.00147 0
M  V30 26361 O 2430.17 1.54229 0.898647 0
M  V30 26362 C 2427.27 2.97643 1.62055 0
M  V30 26363 C 2426.45 4.21251 1.17756 0
M  V30 26364 C 2425.51 4.76621 2.22977 0
M  V30 26365 O 2424.53 5.38932 1.83142 0
M  V30 26366 N 2425.73 4.59095 3.55263 0
M  V30 26367 H 2428.5 2.99097 -0.189943 0
M  V30 26368 H 2426.06 1.59998 -0.247414 0
M  V30 26369 H 2428.05 3.31577 2.32032 0
M  V30 26370 H 2426.62 2.26674 2.15262 0
M  V30 26371 H 2425.84 3.93014 0.305513 0
M  V30 26372 H 2427.13 5.01502 0.858693 0
M  V30 26373 H 2426.53 4.09423 3.9037 0
M  V30 26374 H 2425.09 4.97439 4.21186 0
M  V30 26375 N 2428.52 0.150242 1.56882 0
M  V30 26376 C 2429.45 -0.784245 2.19936 0
M  V30 26377 C 2430.43 -1.25467 1.14856 0
M  V30 26378 O 2431.61 -1.31165 1.43211 0
M  V30 26379 C 2428.74 -2.02224 2.82352 0
M  V30 26380 C 2427.7 -1.68846 3.93287 0
M  V30 26381 C 2427.02 -2.99936 4.42654 0
M  V30 26382 C 2428.32 -0.932623 5.13906 0
M  V30 26383 H 2430.02 -0.258729 2.9828 0
M  V30 26384 H 2427.56 -0.123004 1.43474 0
M  V30 26385 H 2429.52 -2.68082 3.25131 0
M  V30 26386 H 2428.24 -2.57154 2.01345 0
M  V30 26387 H 2426.9 -1.05365 3.51132 0
M  V30 26388 H 2426.55 -3.52863 3.58464 0
M  V30 26389 H 2426.25 -2.78365 5.17481 0
M  V30 26390 H 2427.77 -3.66859 4.88105 0
M  V30 26391 H 2429.19 -1.49336 5.53509 0
M  V30 26392 H 2427.58 -0.816735 5.94516 0
M  V30 26393 H 2428.65 0.0750421 4.84842 0
M  V30 26394 N 2430 -1.57115 -0.123538 0
M  V30 26395 C 2431.24 -1.84613 -0.832121 0
M  V30 26396 C 2431.57 -0.734659 -1.80092 0
M  V30 26397 O 2430.83 0.274386 -1.93767 0
M  V30 26398 C 2431.13 -3.18571 -1.6201 0
M  V30 26399 C 2430.79 -4.43818 -0.796006 0
M  V30 26400 C 2429.45 -4.77827 -0.568732 0
M  V30 26401 C 2431.81 -5.2073 -0.221273 0
M  V30 26402 C 2429.13 -5.86194 0.243602 0
M  V30 26403 C 2431.49 -6.29952 0.578228 0
M  V30 26404 C 2430.15 -6.62495 0.815861 0
M  V30 26405 H 2429.42 -0.675547 -0.304495 0
M  V30 26406 H 2432.07 -1.91266 -0.0946912 0
M  V30 26407 H 2430.37 -3.07474 -2.42831 0
M  V30 26408 H 2432.07 -3.37067 -2.17225 0
M  V30 26409 H 2428.66 -4.1717 -0.983234 0
M  V30 26410 H 2432.84 -4.94812 -0.384086 0
M  V30 26411 H 2428.1 -6.09836 0.436978 0
M  V30 26412 H 2432.27 -6.88732 1.03058 0
M  V30 26413 H 2429.9 -7.46299 1.44715 0
M  V30 26414 N 2431.47 0.393589 -1.52606 0
M  V30 26415 C 2432.4 1.48705 -1.80025 0
M  V30 26416 C 2433.39 1.57107 -0.652023 0
M  V30 26417 O 2434.57 1.7213 -0.899161 0
M  V30 26418 C 2431.7 2.86367 -1.96497 0
M  V30 26419 C 2430.65 2.92808 -3.12166 0
M  V30 26420 C 2429.98 4.32874 -3.13885 0
M  V30 26421 C 2431.28 2.62872 -4.51326 0
M  V30 26422 H 2432.97 1.2601 -2.71591 0
M  V30 26423 H 2430.52 0.604755 -1.30686 0
M  V30 26424 H 2432.47 3.62864 -2.14261 0
M  V30 26425 H 2431.2 3.1039 -1.01616 0
M  V30 26426 H 2429.86 2.18759 -2.94177 0
M  V30 26427 H 2429.5 4.5393 -2.16695 0
M  V30 26428 H 2429.2 4.38105 -3.91583 0
M  V30 26429 H 2430.73 5.11284 -3.33798 0
M  V30 26430 H 2432.14 3.29088 -4.6944 0
M  V30 26431 H 2430.54 2.79459 -5.31058 0
M  V30 26432 H 2431.61 1.58234 -4.58356 0
M  V30 26433 N 2432.95 1.43492 0.651762 0
M  V30 26434 C 2434.37 1.26924 0.967598 0
M  V30 26435 C 2434.57 0.190017 2.00602 0
M  V30 26436 O 2433.62 -0.431063 2.48793 0
M  V30 26437 C 2434.94 2.63404 1.45048 0
M  V30 26438 C 2436.49 2.70948 1.56705 0
M  V30 26439 C 2436.96 4.07849 2.08383 0
M  V30 26440 N 2438.45 4.09921 2.15683 0
M  V30 26441 C 2439.19 5.12683 2.56795 0
M  V30 26442 N 2438.68 6.25819 2.97192 0
M  V30 26443 N 2440.48 5.00037 2.56747 0
M  V30 26444 H 2432.63 2.12371 -0.0353532 0
M  V30 26445 H 2434.89 0.946846 0.0467692 0
M  V30 26446 H 2434.6 3.43349 0.761865 0
M  V30 26447 H 2434.47 2.88898 2.42524 0
M  V30 26448 H 2436.86 1.91334 2.24667 0
M  V30 26449 H 2436.94 2.49217 0.576576 0
M  V30 26450 H 2436.58 4.87929 1.41022 0
M  V30 26451 H 2436.51 4.26944 3.08264 0
M  V30 26452 H 2439 3.28257 1.87231 0
M  V30 26453 H 2439.32 7.0006 3.27315 0
M  V30 26454 H 2437.66 6.29289 2.94993 0
M  V30 26455 H 2440.85 4.10717 2.24565 0
M  V30 26456 H 2441.02 5.80252 2.88465 0
M  V30 26457 N 2434.43 -0.890264 1.30046 0
M  V30 26458 C 2435.38 -2.01681 1.15877 0
M  V30 26459 C 2436.37 -1.69247 0.07197 0
M  V30 26460 O 2437.58 -1.78493 0.232446 0
M  V30 26461 H 2433.95 -0.661201 0.358215 0
M  V30 26462 H 2435.92 -2.10768 2.11233 0
M  V30 26463 C 2434.67 -3.36848 0.861901 0
M  V30 26464 H 2434 -3.62314 1.69023 0
M  V30 26465 H 2435.44 -4.1633 0.802835 0
M  V30 26466 C 2433.9 -3.34079 -0.435074 0
M  V30 26467 O 2434.43 -3.74297 -1.45823 0
M  V30 26468 N 2432.63 -2.87183 -0.444327 0
M  V30 26469 H 2432.18 -2.54649 0.388768 0
M  V30 26470 H 2432.14 -2.85713 -1.31208 0
M  V30 26471 N 2435.91 -1.12676 -1.1019 0
M  V30 26472 C 2436.84 -0.8194 -2.18651 0
M  V30 26473 C 2437.82 0.217886 -1.68699 0
M  V30 26474 O 2439 0.078524 -1.94041 0
M  V30 26475 C 2436.13 -0.276001 -3.46202 0
M  V30 26476 C 2435.09 -1.24664 -4.09442 0
M  V30 26477 C 2434.41 -0.563352 -5.31724 0
M  V30 26478 C 2435.71 -2.60225 -4.52858 0
M  V30 26479 H 2437.41 -1.72632 -2.44619 0
M  V30 26480 H 2434.95 -0.831472 -1.17569 0
M  V30 26481 H 2436.91 -0.048689 -4.21372 0
M  V30 26482 H 2435.63 0.666275 -3.19732 0
M  V30 26483 H 2434.29 -1.4598 -3.36282 0
M  V30 26484 H 2433.94 0.384147 -5.01531 0
M  V30 26485 H 2433.64 -1.21085 -5.74989 0
M  V30 26486 H 2435.16 -0.345137 -6.09624 0
M  V30 26487 H 2436.58 -2.42922 -5.1929 0
M  V30 26488 H 2434.97 -3.21077 -5.06981 0
M  V30 26489 H 2436.04 -3.18478 -3.6565 0
M  V30 26490 N 2437.39 1.28028 -0.919057 0
M  V30 26491 C 2438.8 1.7677 -0.600766 0
M  V30 26492 C 2439.15 1.75157 0.883993 0
M  V30 26493 O 2438.27 1.34958 1.6916 0
M  V30 26494 C 2438.87 3.20998 -1.08378 0
M  V30 26495 C 2437.43 3.67442 -0.816312 0
M  V30 26496 C 2436.57 2.47656 -1.24747 0
M  V30 26497 H 2439.53 1.14416 -1.09976 0
M  V30 26498 H 2439.55 3.7809 -0.427579 0
M  V30 26499 H 2439.06 3.2214 -2.16443 0
M  V30 26500 H 2437.16 3.71754 0.250903 0
M  V30 26501 H 2437.27 4.57331 -1.42778 0
M  V30 26502 H 2435.64 2.45835 -0.666126 0
M  V30 26503 H 2436.42 2.51514 -2.33657 0
M  V30 26504 N 2438.86 0.683613 1.42002 0
M  V30 26505 C 2440.11 0.20986 2.01711 0
M  V30 26506 C 2440.44 -1.1835 1.53971 0
M  V30 26507 O 2439.72 -1.79638 0.745692 0
M  V30 26508 C 2440 0.25426 3.59201 0
M  V30 26509 C 2439.85 1.68371 4.17099 0
M  V30 26510 C 2441.17 -0.392632 4.38345 0
M  V30 26511 H 2438.29 0.0777317 0.732889 0
M  V30 26512 H 2440.93 0.87007 1.68908 0
M  V30 26513 H 2439.08 -0.307885 3.87278 0
M  V30 26514 H 2440.76 2.29878 3.99942 0
M  V30 26515 H 2439 2.22164 3.72593 0
M  V30 26516 H 2439.67 1.66639 5.26246 0
M  V30 26517 H 2442.15 0.0859893 4.16011 0
M  V30 26518 H 2441.02 -0.330967 5.47901 0
M  V30 26519 H 2441.28 -1.47157 4.1689 0
M  V30 26520 N 2440.34 -1.5169 0.427538 0
M  V30 26521 C 2441.27 -2.30394 -0.379559 0
M  V30 26522 C 2442.25 -1.35385 -1.0298 0
M  V30 26523 O 2443.44 -1.64302 -1.03531 0
M  V30 26524 C 2440.57 -3.13883 -1.48644 0
M  V30 26525 C 2439.52 -4.1709 -0.960221 0
M  V30 26526 C 2438.85 -4.89037 -2.1621 0
M  V30 26527 C 2440.15 -5.223 -0.00144499 0
M  V30 26528 H 2441.84 -2.98114 0.277216 0
M  V30 26529 H 2439.39 -1.43368 0.134764 0
M  V30 26530 H 2441.34 -3.67718 -2.0582 0
M  V30 26531 H 2440.07 -2.43966 -2.17136 0
M  V30 26532 H 2438.73 -3.64292 -0.410742 0
M  V30 26533 H 2438.37 -4.15633 -2.83299 0
M  V30 26534 H 2438.07 -5.58819 -1.81644 0
M  V30 26535 H 2439.6 -5.45692 -2.73958 0
M  V30 26536 H 2441.01 -5.71265 -0.482586 0
M  V30 26537 H 2439.41 -5.99552 0.256305 0
M  V30 26538 H 2440.48 -4.75736 0.938258 0
M  V30 26539 N 2441.82 -0.15856 -1.568 0
M  V30 26540 C 2442.78 0.762667 -2.16139 0
M  V30 26541 C 2443.78 1.16711 -1.10612 0
M  V30 26542 O 2444.97 1.08615 -1.36193 0
M  V30 26543 C 2442.11 2.03644 -2.7339 0
M  V30 26544 H 2443.3 0.246301 -2.98887 0
M  V30 26545 H 2440.85 0.090947 -1.56035 0
M  V30 26546 H 2441.59 2.5962 -1.9434 0
M  V30 26547 H 2441.37 1.75553 -3.50604 0
M  V30 26548 H 2442.86 2.69415 -3.1907 0
M  V30 26549 N 2443.3 1.57178 0.115204 0
M  V30 26550 C 2444.53 1.8924 0.836403 0
M  V30 26551 C 2444.94 0.750206 1.73255 0
M  V30 26552 O 2444.3 -0.2788 1.80358 0
M  V30 26553 C 2444.35 3.20788 1.66665 0
M  V30 26554 O 2444.07 4.30611 0.806576 0
M  V30 26555 C 2445.57 3.6658 2.49267 0
M  V30 26556 H 2442.79 0.626518 0.240242 0
M  V30 26557 H 2445.34 2.04263 0.0984573 0
M  V30 26558 H 2443.49 3.07424 2.35731 0
M  V30 26559 H 2443.91 5.06031 1.37961 0
M  V30 26560 H 2445.38 4.61375 3.03046 0
M  V30 26561 H 2445.86 2.93423 3.26802 0
M  V30 26562 H 2446.46 3.82745 1.85436 0
M  V30 26563 N 2444.78 -0.38549 1.52813 0
M  V30 26564 C 2445.72 -1.4711 1.77841 0
M  V30 26565 C 2446.69 -1.54023 0.621784 0
M  V30 26566 O 2447.88 -1.70224 0.861876 0
M  V30 26567 C 2445.02 -2.84298 1.95623 0
M  V30 26568 C 2444.13 -2.86509 3.23321 0
M  V30 26569 C 2443.27 -4.15146 3.31401 0
M  V30 26570 C 2442.31 -4.11423 4.53208 0
M  V30 26571 N 2441.44 -5.31672 4.58551 0
M  V30 26572 H 2446.28 -1.25069 2.70484 0
M  V30 26573 H 2443.82 -0.606668 1.34007 0
M  V30 26574 H 2445.78 -3.63969 2.03918 0
M  V30 26575 H 2444.41 -3.04782 1.06337 0
M  V30 26576 H 2443.46 -1.99189 3.2408 0
M  V30 26577 H 2444.77 -2.79626 4.1305 0
M  V30 26578 H 2443.93 -5.03222 3.38898 0
M  V30 26579 H 2442.67 -4.24756 2.39652 0
M  V30 26580 H 2441.67 -3.21734 4.45833 0
M  V30 26581 H 2442.9 -4.03432 5.46278 0
M  V30 26582 H 2440.84 -5.41905 3.69695 0
M  V30 26583 H 2440.76 -5.26879 5.42157 0
M  V30 26584 H 2442.03 -6.21636 4.70307 0
M  V30 26585 N 2446.26 -1.43835 -0.644143 0
M  V30 26586 C 2447.5 -1.46149 -1.406 0
M  V30 26587 C 2447.83 -0.0888058 -1.93997 0
M  V30 26588 O 2447.11 0.891693 -1.72856 0
M  V30 26589 C 2447.39 -2.51129 -2.58082 0
M  V30 26590 C 2447.25 -3.97706 -2.10119 0
M  V30 26591 C 2448.56 -2.52748 -3.60287 0
M  V30 26592 H 2445.68 -0.532143 -0.509895 0
M  V30 26593 H 2448.33 -1.75439 -0.729472 0
M  V30 26594 H 2446.48 -2.26284 -3.15797 0
M  V30 26595 H 2448.15 -4.3364 -1.57334 0
M  V30 26596 H 2446.39 -4.10104 -1.41411 0
M  V30 26597 H 2447.06 -4.66788 -2.9464 0
M  V30 26598 H 2449.54 -2.74915 -3.12347 0
M  V30 26599 H 2448.41 -3.28128 -4.40026 0
M  V30 26600 H 2448.67 -1.56462 -4.13488 0
M  V30 26601 N 2447.73 0.883355 -1.30517 0
M  V30 26602 C 2448.68 1.98925 -1.17036 0
M  V30 26603 C 2449.65 1.65994 -0.0594533 0
M  V30 26604 O 2450.84 1.8941 -0.229929 0
M  V30 26605 C 2447.98 3.33958 -0.869835 0
M  V30 26606 C 2447.09 3.7957 -2.06278 0
M  V30 26607 C 2446.22 5.03256 -1.7002 0
M  V30 26608 C 2445.26 5.41281 -2.858 0
M  V30 26609 N 2444.4 6.56148 -2.49828 0
M  V30 26610 H 2449.24 2.09788 -2.11644 0
M  V30 26611 H 2446.78 1.02717 -1.05297 0
M  V30 26612 H 2448.73 4.11683 -0.676211 0
M  V30 26613 H 2447.36 3.22776 0.0393764 0
M  V30 26614 H 2446.42 2.9774 -2.3676 0
M  V30 26615 H 2447.73 4.03689 -2.92979 0
M  V30 26616 H 2446.88 5.88612 -1.47042 0
M  V30 26617 H 2445.62 4.81012 -0.804913 0
M  V30 26618 H 2444.63 4.54451 -3.09442 0
M  V30 26619 H 2445.85 5.65497 -3.76018 0
M  V30 26620 H 2443.8 6.35476 -1.62806 0
M  V30 26621 H 2443.71 6.80145 -3.3006 0
M  V30 26622 H 2444.98 7.44731 -2.3021 0
M  V30 26623 N 2449.21 1.13259 1.09591 0
M  V30 26624 C 2450.14 0.752099 2.1545 0
M  V30 26625 C 2451.12 -0.260885 1.60493 0
M  V30 26626 O 2452.31 -0.152786 1.8788 0
M  V30 26627 C 2449.43 0.114654 3.38506 0
M  V30 26628 C 2448.48 1.09586 4.12181 0
M  V30 26629 S 2449.31 2.62753 4.66606 0
M  V30 26630 C 2450.47 2.00364 5.92963 0
M  V30 26631 H 2450.7 1.64877 2.47392 0
M  V30 26632 H 2448.23 0.952566 1.21514 0
M  V30 26633 H 2450.19 -0.246736 4.09758 0
M  V30 26634 H 2448.85 -0.759256 3.04785 0
M  V30 26635 H 2448.05 0.597633 5.00444 0
M  V30 26636 H 2447.65 1.40063 3.46783 0
M  V30 26637 H 2449.94 1.35168 6.63879 0
M  V30 26638 H 2450.88 2.86702 6.47462 0
M  V30 26639 H 2451.29 1.4559 5.45402 0
M  V30 26640 N 2450.69 -1.27539 0.925834 0
M  V30 26641 C 2451.62 -2.29302 0.440788 0
M  V30 26642 C 2452.6 -1.62649 -0.497942 0
M  V30 26643 O 2453.79 -1.89971 -0.403093 0
M  V30 26644 C 2450.92 -3.45923 -0.308987 0
M  V30 26645 C 2449.87 -4.24558 0.541735 0
M  V30 26646 C 2449.2 -5.33636 -0.337097 0
M  V30 26647 C 2450.5 -4.9011 1.80524 0
M  V30 26648 H 2452.19 -2.70124 1.29126 0
M  V30 26649 H 2449.74 -1.29857 0.622346 0
M  V30 26650 H 2451.69 -4.16211 -0.659242 0
M  V30 26651 H 2450.41 -3.04013 -1.19347 0
M  V30 26652 H 2449.07 -3.56013 0.874672 0
M  V30 26653 H 2448.72 -4.87969 -1.22048 0
M  V30 26654 H 2448.42 -5.87155 0.228601 0
M  V30 26655 H 2449.94 -6.06768 -0.682965 0
M  V30 26656 H 2451.36 -5.52696 1.52317 0
M  V30 26657 H 2449.75 -5.53679 2.3143 0
M  V30 26658 H 2450.82 -4.13917 2.52588 0
M  V30 26659 N 2452.17 -0.691135 -1.41637 0
M  V30 26660 C 2453.1 0.0274512 -2.28183 0
M  V30 26661 C 2454.08 0.792399 -1.41985 0
M  V30 26662 O 2455.26 0.784139 -1.71416 0
M  V30 26663 C 2452.39 1.04622 -3.22136 0
M  V30 26664 C 2451.44 0.374962 -4.24849 0
M  V30 26665 S 2452.27 -0.879414 -5.2823 0
M  V30 26666 C 2453.42 0.137873 -6.25748 0
M  V30 26667 H 2453.66 -0.706604 -2.88781 0
M  V30 26668 H 2451.19 -0.481248 -1.46708 0
M  V30 26669 H 2453.15 1.62887 -3.768 0
M  V30 26670 H 2451.81 1.75282 -2.60643 0
M  V30 26671 H 2451 1.14424 -4.90839 0
M  V30 26672 H 2450.6 -0.1345 -3.73758 0
M  V30 26673 H 2452.9 0.992541 -6.7019 0
M  V30 26674 H 2453.84 -0.487991 -7.06416 0
M  V30 26675 H 2454.25 0.490663 -5.62364 0
M  V30 26676 N 2453.65 1.51461 -0.435577 0
M  V30 26677 C 2454.89 2.02372 0.131673 0
M  V30 26678 C 2455.22 1.31922 1.42514 0
M  V30 26679 O 2454.5 0.433606 1.89605 0
M  V30 26680 C 2454.78 3.58373 0.352238 0
M  V30 26681 C 2454.64 4.39441 -0.959754 0
M  V30 26682 C 2455.95 4.25537 1.12279 0
M  V30 26683 H 2453.07 0.735539 0.0463807 0
M  V30 26684 H 2455.72 1.81115 -0.574229 0
M  V30 26685 H 2453.87 3.76616 0.953534 0
M  V30 26686 H 2455.54 4.32852 -1.5949 0
M  V30 26687 H 2453.78 4.04596 -1.56475 0
M  V30 26688 H 2454.45 5.4675 -0.75949 0
M  V30 26689 H 2456.93 4.11553 0.613473 0
M  V30 26690 H 2455.8 5.34574 1.24588 0
M  V30 26691 H 2456.06 3.86277 2.15041 0
M  V30 26692 N 2455.12 0.166873 1.56714 0
M  V30 26693 C 2456.37 -0.478271 1.96359 0
M  V30 26694 C 2456.69 -1.64078 1.05373 0
M  V30 26695 O 2455.96 -1.95537 0.119189 0
M  V30 26696 H 2454.54 -0.17968 0.725068 0
M  V30 26697 H 2457.21 0.247018 1.93328 0
M  V30 26698 H 2456.3 -0.84124 3.00549 0
M  V30 26699 N 2456.6 -1.57237 -0.106866 0
M  V30 26700 C 2457.55 -2.02217 -1.1494 0
M  V30 26701 C 2458.54 -0.921165 -1.42165 0
M  V30 26702 O 2459.75 -1.10636 -1.41985 0
M  V30 26703 H 2456.13 -0.644276 -0.38783 0
M  V30 26704 H 2458.1 -2.88986 -0.743632 0
M  V30 26705 C 2456.85 -2.45255 -2.46466 0
M  V30 26706 H 2456.17 -3.29549 -2.26358 0
M  V30 26707 H 2457.61 -2.80514 -3.17944 0
M  V30 26708 C 2456.07 -1.32105 -3.09919 0
M  V30 26709 O 2456.6 -0.643691 -3.96509 0
M  V30 26710 N 2454.8 -1.07502 -2.69985 0
M  V30 26711 H 2454.35 -1.62764 -1.99664 0
M  V30 26712 H 2454.31 -0.319931 -3.12768 0
M  V30 26713 N 2458.08 0.377381 -1.53015 0
M  V30 26714 C 2459.01 1.46788 -1.81592 0
M  V30 26715 C 2459.99 1.56407 -0.66865 0
M  V30 26716 O 2461.18 1.71167 -0.917367 0
M  V30 26717 C 2458.31 2.84267 -1.99524 0
M  V30 26718 C 2457.26 2.8948 -3.15254 0
M  V30 26719 C 2456.59 4.29521 -3.18459 0
M  V30 26720 C 2457.89 2.58071 -4.54089 0
M  V30 26721 H 2459.58 1.23123 -2.72912 0
M  V30 26722 H 2457.13 0.59086 -1.3132 0
M  V30 26723 H 2459.08 3.60571 -2.18098 0
M  V30 26724 H 2457.8 3.09294 -1.04903 0
M  V30 26725 H 2456.46 2.15626 -2.96481 0
M  V30 26726 H 2456.11 4.51606 -2.21498 0
M  V30 26727 H 2455.81 4.33927 -3.96208 0
M  V30 26728 H 2457.33 5.07715 -3.39202 0
M  V30 26729 H 2458.75 3.2409 -4.72904 0
M  V30 26730 H 2457.15 2.73811 -5.33992 0
M  V30 26731 H 2458.22 1.53364 -4.60008 0
M  V30 26732 N 2459.56 1.44175 0.636506 0
M  V30 26733 C 2460.81 1.46385 1.39341 0
M  V30 26734 C 2461.13 0.0956057 1.94765 0
M  V30 26735 O 2460.4 -0.871365 1.75454 0
M  V30 26736 H 2458.98 0.539003 0.517189 0
M  V30 26737 H 2461.64 1.79911 0.749538 0
M  V30 26738 H 2460.74 2.18615 2.22742 0
M  V30 26739 N 2461.04 -0.876421 1.30983 0
M  V30 26740 C 2461.95 -2.01567 1.20033 0
M  V30 26741 C 2462.96 -1.73597 0.11841 0
M  V30 26742 O 2464.14 -1.98595 0.334984 0
M  V30 26743 C 2461.2 -3.34769 0.901696 0
M  V30 26744 C 2460.26 -3.76105 2.06986 0
M  V30 26745 C 2459.5 -5.02951 1.78538 0
M  V30 26746 O 2459.72 -5.65871 0.717396 0
M  V30 26747 O 2458.65 -5.409 2.64028 0
M  V30 26748 H 2462.48 -2.13735 2.15757 0
M  V30 26749 H 2460.07 -1.00373 1.1066 0
M  V30 26750 H 2461.95 -4.14659 0.750718 0
M  V30 26751 H 2460.62 -3.2369 -0.0255572 0
M  V30 26752 H 2459.53 -2.96883 2.27621 0
M  V30 26753 H 2460.86 -3.91801 2.97914 0
M  V30 26754 N 2462.51 -1.13839 -1.08989 0
M  V30 26755 C 2463.42 -0.833371 -2.19299 0
M  V30 26756 C 2464.44 0.183816 -1.73026 0
M  V30 26757 O 2465.62 0.0137738 -2.01395 0
M  V30 26758 C 2462.68 -0.308711 -3.45323 0
M  V30 26759 C 2461.74 -1.38771 -4.06253 0
M  V30 26760 C 2460.98 -0.887989 -5.26261 0
M  V30 26761 O 2461.2 0.27277 -5.69747 0
M  V30 26762 O 2460.13 -1.66432 -5.78432 0
M  V30 26763 H 2463.96 -1.7551 -2.47851 0
M  V30 26764 H 2461.54 -0.916186 -1.1801 0
M  V30 26765 H 2463.43 -0.0217479 -4.21394 0
M  V30 26766 H 2462.1 0.585375 -3.18363 0
M  V30 26767 H 2461.01 -1.72805 -3.31797 0
M  V30 26768 H 2462.34 -2.2561 -4.37448 0
M  V30 26769 N 2463.99 1.27046 -0.932584 0
M  V30 26770 C 2465.24 1.93438 -0.571385 0
M  V30 26771 C 2465.55 1.74054 0.892436 0
M  V30 26772 O 2466.76 2.34829 1.36263 0
M  V30 26773 C 2465.22 3.46551 -0.971121 0
M  V30 26774 C 2464.82 3.74682 -2.45596 0
M  V30 26775 C 2466.57 4.18995 -0.681406 0
M  V30 26776 C 2464.48 5.21193 -2.79484 0
M  V30 26777 H 2463.41 0.724172 -0.209978 0
M  V30 26778 H 2466.06 1.44261 -1.13406 0
M  V30 26779 H 2464.44 3.94563 -0.337052 0
M  V30 26780 H 2465.61 3.37408 -3.13835 0
M  V30 26781 H 2463.93 3.15451 -2.71808 0
M  V30 26782 H 2466.52 5.26882 -0.911032 0
M  V30 26783 H 2466.87 4.14548 0.381555 0
M  V30 26784 H 2467.4 3.76821 -1.2748 0
M  V30 26785 H 2464.14 5.30735 -3.84709 0
M  V30 26786 H 2463.66 5.59596 -2.159 0
M  V30 26787 H 2465.34 5.89117 -2.67489 0
M  V30 26788 N 2465.47 0.698636 1.41269 0
M  V30 26789 C 2466.72 0.230445 2.00782 0
M  V30 26790 C 2467.04 -1.17503 1.55622 0
M  V30 26791 O 2466.31 -1.79345 0.788181 0
M  V30 26792 H 2464.89 0.0822075 0.742463 0
M  V30 26793 H 2467.55 0.90048 1.72851 0
M  V30 26794 H 2466.65 0.250265 3.11095 0
M  V30 26795 N 2466.95 -1.51228 0.443603 0
M  V30 26796 C 2467.9 -2.29492 -0.378999 0
M  V30 26797 C 2468.89 -1.35604 -1.01527 0
M  V30 26798 O 2470.1 -1.52918 -0.949523 0
M  V30 26799 H 2466.47 -0.738655 -0.14104 0
M  V30 26800 H 2468.44 -2.96869 0.301851 0
M  V30 26801 C 2467.19 -3.15367 -1.4642 0
M  V30 26802 H 2466.51 -3.87502 -0.983969 0
M  V30 26803 H 2467.95 -3.73173 -2.0129 0
M  V30 26804 C 2466.41 -2.3115 -2.45095 0
M  V30 26805 O 2466.94 -1.97546 -3.49769 0
M  V30 26806 N 2465.15 -1.94252 -2.16135 0
M  V30 26807 H 2464.7 -2.2178 -1.3104 0
M  V30 26808 H 2464.65 -1.38203 -2.82396 0
M  V30 26809 N 2468.43 -0.175182 -1.56623 0
M  V30 26810 C 2469.36 0.749156 -2.21156 0
M  V30 26811 C 2470.34 1.23624 -1.16838 0
M  V30 26812 O 2471.52 1.2887 -1.4528 0
M  V30 26813 C 2468.65 1.97706 -2.85534 0
M  V30 26814 C 2467.61 1.62568 -3.95924 0
M  V30 26815 C 2466.93 2.92856 -4.4737 0
M  V30 26816 C 2468.23 0.850747 -5.15325 0
M  V30 26817 H 2469.93 0.211242 -2.98654 0
M  V30 26818 H 2467.47 0.100163 -1.43651 0
M  V30 26819 H 2469.43 2.62875 -3.29355 0
M  V30 26820 H 2468.15 2.53918 -2.0541 0
M  V30 26821 H 2466.81 0.997657 -3.52764 0
M  V30 26822 H 2466.46 3.47115 -3.64033 0
M  V30 26823 H 2466.16 2.70097 -5.21844 0
M  V30 26824 H 2467.68 3.59048 -4.9388 0
M  V30 26825 H 2469.09 1.40511 -5.55814 0
M  V30 26826 H 2467.49 0.72205 -5.9574 0
M  V30 26827 H 2468.56 -0.152167 -4.84661 0
M  V30 26828 N 2469.91 1.57292 0.0985263 0
M  V30 26829 C 2470.82 2.05139 1.13821 0
M  V30 26830 C 2471.83 0.975629 1.44075 0
M  V30 26831 O 2473.01 1.28856 1.54784 0
M  V30 26832 C 2470.07 2.46338 2.43964 0
M  V30 26833 C 2469.13 3.68091 2.20924 0
M  V30 26834 C 2468.37 4.07316 3.44862 0
M  V30 26835 O 2468.59 3.46667 4.52966 0
M  V30 26836 O 2467.52 5.00291 3.34652 0
M  V30 26837 H 2471.35 2.9399 0.761829 0
M  V30 26838 H 2468.93 1.46132 0.310792 0
M  V30 26839 H 2470.82 2.73479 3.20605 0
M  V30 26840 H 2469.49 1.60626 2.81035 0
M  V30 26841 H 2468.4 3.46071 1.42075 0
M  V30 26842 H 2469.73 4.54572 1.88747 0
M  V30 26843 N 2471.38 -0.369261 1.53213 0
M  V30 26844 C 2472.33 -1.45219 1.75771 0
M  V30 26845 C 2473.32 -1.488 0.612162 0
M  V30 26846 O 2474.51 -1.54103 0.870701 0
M  V30 26847 C 2471.64 -2.82697 1.94774 0
M  V30 26848 C 2470.72 -2.83609 3.1532 0
M  V30 26849 N 2471.12 -2.5417 4.373 0
M  V30 26850 C 2469.41 -3.14771 3.15967 0
M  V30 26851 C 2470.11 -2.62666 5.1902 0
M  V30 26852 N 2469.09 -2.97224 4.55147 0
M  V30 26853 H 2472.89 -1.21315 2.67694 0
M  V30 26854 H 2470.41 -0.577411 1.51788 0
M  V30 26855 H 2472.4 -3.60692 2.09062 0
M  V30 26856 H 2471.06 -3.07568 1.04078 0
M  V30 26857 H 2472.07 -2.27831 4.65095 0
M  V30 26858 H 2468.75 -3.44979 2.3515 0
M  V30 26859 H 2470.14 -2.43283 6.26309 0
M  V30 26860 N 2472.86 -1.4451 -0.628851 0
M  V30 26861 C 2473.79 -1.54379 -1.75184 0
M  V30 26862 C 2474.77 -0.396647 -1.65411 0
M  V30 26863 O 2475.96 -0.617063 -1.84136 0
M  V30 26864 C 2473.09 -1.48981 -3.13723 0
M  V30 26865 C 2472.04 -2.62195 -3.38287 0
M  V30 26866 C 2471.37 -2.41849 -4.76879 0
M  V30 26867 C 2472.67 -4.04332 -3.30625 0
M  V30 26868 H 2474.36 -2.48376 -1.67182 0
M  V30 26869 H 2471.91 -1.1954 -0.802888 0
M  V30 26870 H 2473.86 -1.54485 -3.92062 0
M  V30 26871 H 2472.58 -0.515017 -3.22514 0
M  V30 26872 H 2471.24 -2.56084 -2.62329 0
M  V30 26873 H 2470.89 -1.42557 -4.82376 0
M  V30 26874 H 2470.59 -3.17756 -4.94272 0
M  V30 26875 H 2472.12 -2.49174 -5.57445 0
M  V30 26876 H 2473.53 -4.118 -3.98866 0
M  V30 26877 H 2471.93 -4.8046 -3.59553 0
M  V30 26878 H 2473 -4.27742 -2.28397 0
M  V30 26879 N 2474.34 0.869463 -1.31446 0
M  V30 26880 C 2475.59 1.61933 -1.20921 0
M  V30 26881 C 2475.91 1.93607 0.232649 0
M  V30 26882 O 2475.18 1.5834 1.15349 0
M  V30 26883 H 2473.76 0.60032 -0.44455 0
M  V30 26884 H 2476.42 1.04087 -1.64778 0
M  V30 26885 H 2475.52 2.56275 -1.78128 0
M  V30 26886 N 2475.82 1.14415 1.08383 0
M  V30 26887 C 2477.06 0.923825 1.8121 0
M  V30 26888 C 2477.42 -0.543782 1.84556 0
M  V30 26889 O 2476.71 -1.39765 1.31058 0
M  V30 26890 C 2476.91 1.45885 3.2627 0
M  V30 26891 C 2476.73 2.97695 3.37058 0
M  V30 26892 C 2475.5 3.66144 3.48234 0
M  V30 26893 C 2477.7 3.95559 3.28691 0
M  V30 26894 N 2475.68 5.05864 3.47815 0
M  V30 26895 C 2477.06 5.21532 3.35267 0
M  V30 26896 C 2479.11 3.87675 3.1243 0
M  V30 26897 C 2477.81 6.40544 3.27256 0
M  V30 26898 C 2479.84 5.06233 3.05749 0
M  V30 26899 C 2479.2 6.31075 3.12927 0
M  V30 26900 H 2475.3 0.391586 0.676893 0
M  V30 26901 H 2477.88 1.45431 1.29452 0
M  V30 26902 H 2476.06 0.955136 3.76473 0
M  V30 26903 H 2477.79 1.17842 3.87163 0
M  V30 26904 H 2474.54 3.16698 3.52135 0
M  V30 26905 H 2474.97 5.78805 3.51161 0
M  V30 26906 H 2479.61 2.9203 3.05742 0
M  V30 26907 H 2477.33 7.36433 3.32705 0
M  V30 26908 H 2480.91 5.01883 2.94286 0
M  V30 26909 H 2479.79 7.21274 3.07787 0
M  V30 26910 N 2477.3 -1.26549 0.939309 0
M  V30 26911 C 2478.54 -1.93132 0.581635 0
M  V30 26912 C 2478.86 -1.74525 -0.883193 0
M  V30 26913 O 2480.06 -2.35548 -1.35016 0
M  V30 26914 C 2478.52 -3.46031 0.989486 0
M  V30 26915 C 2478.13 -3.73374 2.4758 0
M  V30 26916 C 2479.87 -4.18628 0.703617 0
M  V30 26917 C 2477.78 -5.19704 2.82245 0
M  V30 26918 H 2476.71 -0.723048 0.213816 0
M  V30 26919 H 2479.36 -1.43658 1.14169 0
M  V30 26920 H 2477.74 -3.94379 0.357972 0
M  V30 26921 H 2478.92 -3.35739 3.1562 0
M  V30 26922 H 2477.23 -3.14005 2.73477 0
M  V30 26923 H 2479.83 -5.26391 0.938961 0
M  V30 26924 H 2480.17 -4.14744 -0.359566 0
M  V30 26925 H 2480.7 -3.76139 1.29476 0
M  V30 26926 H 2477.44 -5.28687 3.87518 0
M  V30 26927 H 2476.96 -5.58443 2.18864 0
M  V30 26928 H 2478.64 -5.8769 2.70609 0
M  V30 26929 N 2478.77 -0.706118 -1.40896 0
M  V30 26930 C 2479.7 -0.0620496 -2.33418 0
M  V30 26931 C 2480.68 0.755801 -1.52387 0
M  V30 26932 O 2481.87 0.706642 -1.80887 0
M  V30 26933 C 2479 0.867386 -3.36294 0
M  V30 26934 C 2477.95 0.155857 -4.27716 0
M  V30 26935 C 2477.28 1.20037 -5.21052 0
M  V30 26936 C 2478.58 -0.984239 -5.12943 0
M  V30 26937 H 2480.27 -0.834821 -2.87526 0
M  V30 26938 H 2477.82 -0.4029 -1.38249 0
M  V30 26939 H 2479.77 1.32728 -3.99952 0
M  V30 26940 H 2478.5 1.67194 -2.80559 0
M  V30 26941 H 2477.16 -0.284111 -3.65497 0
M  V30 26942 H 2476.8 1.99773 -4.61627 0
M  V30 26943 H 2476.5 0.729226 -5.83058 0
M  V30 26944 H 2478.03 1.66055 -5.87587 0
M  V30 26945 H 2479.44 -0.604148 -5.70108 0
M  V30 26946 H 2477.84 -1.38314 -5.83943 0
M  V30 26947 H 2478.91 -1.81918 -4.49482 0
M  V30 26948 N 2480.25 1.50991 -0.451617 0
M  V30 26949 C 2481.67 1.59256 -0.104675 0
M  V30 26950 C 2481.87 1.46142 1.38725 0
M  V30 26951 O 2480.92 1.30993 2.15863 0
M  V30 26952 C 2482.24 2.93864 -0.63752 0
M  V30 26953 C 2483.78 3.07211 -0.59922 0
M  V30 26954 C 2484.26 4.44364 -1.10928 0
M  V30 26955 N 2485.75 4.50723 -1.06786 0
M  V30 26956 C 2486.49 5.55199 -1.43324 0
M  V30 26957 N 2485.98 6.67025 -1.87216 0
M  V30 26958 N 2487.77 5.45635 -1.3505 0
M  V30 26959 H 2479.93 1.57759 -1.42217 0
M  V30 26960 H 2482.19 0.744454 -0.586934 0
M  V30 26961 H 2481.89 3.08876 -1.68192 0
M  V30 26962 H 2481.77 3.77135 -0.0702802 0
M  V30 26963 H 2484.16 2.91858 0.436226 0
M  V30 26964 H 2484.24 2.25745 -1.20303 0
M  V30 26965 H 2483.88 4.60464 -2.14326 0
M  V30 26966 H 2483.81 5.24391 -0.481865 0
M  V30 26967 H 2486.3 3.70469 -0.745708 0
M  V30 26968 H 2486.61 7.42782 -2.13295 0
M  V30 26969 H 2484.96 6.68195 -1.91154 0
M  V30 26970 H 2488.15 4.57159 -1.00615 0
M  V30 26971 H 2488.32 6.26942 -1.63852 0
M  V30 26972 N 2481.73 0.183486 1.56528 0
M  V30 26973 C 2482.98 -0.457417 1.96856 0
M  V30 26974 C 2483.3 -1.62951 1.07107 0
M  V30 26975 O 2482.57 -1.954 0.139921 0
M  V30 26976 H 2481.15 -0.171979 0.726933 0
M  V30 26977 H 2483.81 0.26751 1.93055 0
M  V30 26978 H 2482.91 -0.809315 3.01424 0
M  V30 26979 N 2483.21 -1.57342 -0.0901833 0
M  V30 26980 C 2484.62 -1.75236 -0.644142 0
M  V30 26981 C 2484.97 -0.806367 -1.78864 0
M  V30 26982 O 2484.09 0.0139747 -2.16395 0
M  V30 26983 C 2484.69 -3.17762 -1.17527 0
M  V30 26984 C 2483.25 -3.37064 -1.67525 0
M  V30 26985 C 2482.4 -2.71018 -0.586882 0
M  V30 26986 H 2485.35 -1.58117 0.135912 0
M  V30 26987 H 2485.37 -3.20906 -2.0445 0
M  V30 26988 H 2484.88 -3.8659 -0.34207 0
M  V30 26989 H 2482.98 -2.73324 -2.53229 0
M  V30 26990 H 2483.09 -4.45409 -1.76486 0
M  V30 26991 H 2481.46 -2.33054 -1.02752 0
M  V30 26992 H 2482.24 -3.42489 0.235818 0
M  V30 26993 N 2484.69 0.36113 -1.53407 0
M  V30 26994 C 2485.65 1.42545 -1.79481 0
M  V30 26995 C 2486.65 1.46389 -0.665353 0
M  V30 26996 O 2487.84 1.47071 -0.933575 0
M  V30 26997 C 2484.97 2.81626 -1.92092 0
M  V30 26998 H 2486.16 1.20696 -2.7454 0
M  V30 26999 H 2483.72 0.594521 -1.44552 0
M  V30 27000 H 2484.45 3.08783 -0.991153 0
M  V30 27001 H 2484.24 2.80235 -2.74246 0
M  V30 27002 H 2485.73 3.58694 -2.13842 0
M  V30 27003 N 2486.16 1.44842 0.621179 0
M  V30 27004 C 2487.41 1.48367 1.38257 0
M  V30 27005 C 2487.74 0.119658 1.93831 0
M  V30 27006 O 2487.02 -0.864081 1.74252 0
M  V30 27007 C 2487.3 2.55203 2.54054 0
M  V30 27008 C 2487.15 4.00999 2.03765 0
M  V30 27009 C 2488.47 2.58448 3.5622 0
M  V30 27010 H 2485.59 0.540187 0.501365 0
M  V30 27011 H 2488.23 1.76577 0.701469 0
M  V30 27012 H 2486.38 2.31279 3.12157 0
M  V30 27013 H 2488.06 4.36088 1.50415 0
M  V30 27014 H 2486.3 4.12302 1.34869 0
M  V30 27015 H 2486.97 4.71416 2.87177 0
M  V30 27016 H 2489.45 2.7985 3.07934 0
M  V30 27017 H 2488.32 3.35087 4.3475 0
M  V30 27018 H 2488.58 1.63021 4.10946 0
M  V30 27019 N 2487.64 -0.862479 1.31905 0
M  V30 27020 C 2488.88 -1.63002 1.23327 0
M  V30 27021 C 2489.25 -1.90916 -0.203691 0
M  V30 27022 O 2490.45 -2.65607 -0.413085 0
M  V30 27023 C 2488.72 -2.91974 2.06121 0
M  V30 27024 S 2490.28 -3.82808 2.14484 0
M  V30 27025 H 2487.1 -0.559186 0.439127 0
M  V30 27026 H 2489.7 -1.022 1.6666 0
M  V30 27027 H 2488.4 -2.69402 3.09598 0
M  V30 27028 H 2487.93 -3.57798 1.63536 0
M  V30 27029 H 2489.95 -4.79175 1.28863 0
M  V30 27030 N 2489.12 -1.14988 -1.07775 0
M  V30 27031 C 2490.07 -0.842709 -2.14865 0
M  V30 27032 C 2491.04 0.202523 -1.64861 0
M  V30 27033 O 2492.22 0.0710233 -1.90668 0
M  V30 27034 C 2489.36 -0.333423 -3.43486 0
M  V30 27035 C 2488.48 -1.43972 -4.07304 0
M  V30 27036 C 2487.61 -0.887006 -5.23742 0
M  V30 27037 C 2486.65 -1.97053 -5.79514 0
M  V30 27038 N 2485.79 -1.43452 -6.87289 0
M  V30 27039 H 2490.63 -1.7599 -2.40482 0
M  V30 27040 H 2488.16 -0.8782 -1.18009 0
M  V30 27041 H 2490.12 -0.0198897 -4.17195 0
M  V30 27042 H 2488.75 0.546861 -3.18134 0
M  V30 27043 H 2487.8 -1.86952 -3.3129 0
M  V30 27044 H 2489.12 -2.25796 -4.44767 0
M  V30 27045 H 2488.27 -0.525758 -6.04418 0
M  V30 27046 H 2487.01 -0.0378814 -4.87685 0
M  V30 27047 H 2486.01 -2.34066 -4.97487 0
M  V30 27048 H 2487.24 -2.82336 -6.17627 0
M  V30 27049 H 2485.18 -0.607682 -6.53179 0
M  V30 27050 H 2485.1 -2.18908 -7.23613 0
M  V30 27051 H 2486.37 -1.10138 -7.7168 0
M  V30 27052 N 2490.6 1.26049 -0.946007 0
M  V30 27053 C 2491.55 2.26207 -0.45813 0
M  V30 27054 C 2492.52 1.58868 0.484788 0
M  V30 27055 O 2493.7 1.86561 0.399936 0
M  V30 27056 C 2490.84 3.44073 0.266071 0
M  V30 27057 C 2489.95 4.26074 -0.71308 0
M  V30 27058 C 2489.09 5.3119 0.032808 0
M  V30 27059 C 2488.13 6.04873 -0.937846 0
M  V30 27060 N 2487.26 7.01745 -0.223397 0
M  V30 27061 H 2492.1 2.67311 -1.31715 0
M  V30 27062 H 2489.64 1.31427 -0.660713 0
M  V30 27063 H 2491.6 4.11244 0.702441 0
M  V30 27064 H 2490.23 3.03869 1.0892 0
M  V30 27065 H 2489.28 3.58646 -1.26795 0
M  V30 27066 H 2490.59 4.77133 -1.45414 0
M  V30 27067 H 2489.75 6.04396 0.528229 0
M  V30 27068 H 2488.49 4.80982 0.806717 0
M  V30 27069 H 2487.49 5.30489 -1.44435 0
M  V30 27070 H 2488.72 6.5717 -1.71184 0
M  V30 27071 H 2486.66 6.5384 0.531931 0
M  V30 27072 H 2486.58 7.50579 -0.903701 0
M  V30 27073 H 2487.85 7.79097 0.250771 0
M  V30 27074 N 2492.08 0.71358 1.4052 0
M  V30 27075 C 2493.33 0.249228 2.00154 0
M  V30 27076 C 2493.64 -1.16359 1.57226 0
M  V30 27077 O 2494.84 -1.72635 2.09545 0
M  V30 27078 C 2493.3 0.394663 3.5773 0
M  V30 27079 C 2492.91 1.814 4.09632 0
M  V30 27080 C 2494.65 -0.00899903 4.24499 0
M  V30 27081 C 2492.56 1.91012 5.59704 0
M  V30 27082 H 2491.49 0.0894246 0.748678 0
M  V30 27083 H 2494.14 0.88438 1.60782 0
M  V30 27084 H 2492.52 -0.30904 3.94792 0
M  V30 27085 H 2493.7 2.54791 3.8395 0
M  V30 27086 H 2492.01 2.16894 3.55452 0
M  V30 27087 H 2494.61 0.0421344 5.34683 0
M  V30 27088 H 2494.95 -1.05058 4.02826 0
M  V30 27089 H 2495.48 0.645076 3.92535 0
M  V30 27090 H 2492.22 2.93285 5.86229 0
M  V30 27091 H 2491.74 1.22029 5.87255 0
M  V30 27092 H 2493.42 1.68131 6.24773 0
M  V30 27093 N 2493.55 -1.50749 0.459618 0
M  V30 27094 C 2494.78 -2.06671 -0.0973386 0
M  V30 27095 C 2495.2 -1.32475 -1.34521 0
M  V30 27096 O 2494.55 -0.390665 -1.7827 0
M  V30 27097 C 2494.61 -3.59313 -0.397077 0
M  V30 27098 O 2494.33 -4.3071 0.801289 0
M  V30 27099 C 2495.83 -4.31821 -1.00226 0
M  V30 27100 H 2493.05 -0.670997 0.00197033 0
M  V30 27101 H 2495.59 -1.94058 0.645106 0
M  V30 27102 H 2493.75 -3.71766 -1.08944 0
M  V30 27103 H 2494.16 -5.21724 0.538949 0
M  V30 27104 H 2495.63 -5.39634 -1.16184 0
M  V30 27105 H 2496.11 -3.91564 -1.98933 0
M  V30 27106 H 2496.72 -4.23869 -0.348625 0
M  V30 27107 N 2495.03 -0.191784 -1.56429 0
M  V30 27108 C 2495.94 0.742442 -2.22542 0
M  V30 27109 C 2496.96 1.23725 -1.22345 0
M  V30 27110 O 2498.13 1.2851 -1.55071 0
M  V30 27111 C 2495.2 1.94617 -2.86923 0
M  V30 27112 C 2494.26 1.49626 -4.02381 0
M  V30 27113 C 2493.49 2.64261 -4.63683 0
M  V30 27114 O 2493.72 3.81659 -4.23902 0
M  V30 27115 O 2492.65 2.37164 -5.53206 0
M  V30 27116 H 2496.48 0.209409 -3.02977 0
M  V30 27117 H 2494.06 0.037357 -1.49353 0
M  V30 27118 H 2495.94 2.64976 -3.27667 0
M  V30 27119 H 2494.62 2.46787 -2.0947 0
M  V30 27120 H 2493.53 0.761571 -3.66266 0
M  V30 27121 H 2494.86 1.02126 -4.81488 0
M  V30 27122 N 2496.51 1.57387 0.0818378 0
M  V30 27123 C 2497.46 1.99435 1.10498 0
M  V30 27124 C 2498.44 0.874821 1.3504 0
M  V30 27125 O 2499.64 1.1387 1.35509 0
M  V30 27126 C 2496.77 2.43343 2.42155 0
M  V30 27127 C 2495.85 3.62009 2.2093 0
M  V30 27128 N 2496.24 4.76515 1.69608 0
M  V30 27129 C 2494.54 3.68364 2.51444 0
M  V30 27130 C 2495.24 5.58406 1.62964 0
M  V30 27131 N 2494.22 5.0196 2.08655 0
M  V30 27132 H 2498.02 2.8541 0.701322 0
M  V30 27133 H 2495.53 1.59807 0.289068 0
M  V30 27134 H 2497.53 2.71701 3.16203 0
M  V30 27135 H 2496.19 1.58751 2.83246 0
M  V30 27136 H 2497.2 4.99005 1.38615 0
M  V30 27137 H 2493.88 2.94462 2.9597 0
M  V30 27138 H 2495.27 6.60317 1.24222 0
M  V30 27139 N 2497.99 -0.35299 1.53596 0
M  V30 27140 C 2498.9 -1.45664 1.839 0
M  V30 27141 C 2499.91 -1.58022 0.728362 0
M  V30 27142 O 2501.09 -1.73677 1.01971 0
M  V30 27143 C 2498.16 -2.80775 2.03388 0
M  V30 27144 C 2497.22 -2.77839 3.27267 0
M  V30 27145 C 2496.45 -4.06506 3.45816 0
M  V30 27146 O 2496.67 -5.03309 2.68396 0
M  V30 27147 O 2495.61 -4.11551 4.39214 0
M  V30 27148 H 2499.43 -1.22975 2.77688 0
M  V30 27149 H 2497.02 -0.544283 1.39133 0
M  V30 27150 H 2498.9 -3.60808 2.17705 0
M  V30 27151 H 2497.57 -3.03415 1.12789 0
M  V30 27152 H 2496.48 -1.9646 3.18362 0
M  V30 27153 H 2497.81 -2.60154 4.17829 0
M  V30 27154 N 2499.47 -1.45169 -0.613489 0
M  V30 27155 C 2500.41 -1.5339 -1.72454 0
M  V30 27156 C 2501.38 -0.38022 -1.6169 0
M  V30 27157 O 2502.57 -0.592868 -1.81355 0
M  V30 27158 C 2499.71 -1.50094 -3.10751 0
M  V30 27159 C 2498.82 -2.75968 -3.32363 0
M  V30 27160 C 2497.96 -2.64384 -4.60732 0
M  V30 27161 C 2497 -3.8534 -4.75583 0
M  V30 27162 N 2496.13 -3.72326 -5.95246 0
M  V30 27163 H 2500.97 -2.48308 -1.64764 0
M  V30 27164 H 2498.51 -1.23218 -0.803481 0
M  V30 27165 H 2500.47 -1.46171 -3.90755 0
M  V30 27166 H 2499.1 -0.587299 -3.17412 0
M  V30 27167 H 2498.15 -2.90003 -2.46175 0
M  V30 27168 H 2499.46 -3.65701 -3.39212 0
M  V30 27169 H 2498.62 -2.58394 -5.48924 0
M  V30 27170 H 2497.36 -1.72241 -4.56272 0
M  V30 27171 H 2496.36 -3.91695 -3.85817 0
M  V30 27172 H 2497.59 -4.78541 -4.81845 0
M  V30 27173 H 2495.53 -2.82948 -5.91842 0
M  V30 27174 H 2495.45 -4.55688 -6.03228 0
M  V30 27175 H 2496.72 -3.70258 -6.85951 0
M  V30 27176 N 2500.95 0.855472 -1.32361 0
M  V30 27177 C 2502.19 1.62346 -1.2419 0
M  V30 27178 C 2502.55 1.91022 0.193563 0
M  V30 27179 O 2503.75 2.65822 0.398993 0
M  V30 27180 C 2502.02 2.90877 -2.07666 0
M  V30 27181 S 2503.58 3.81665 -2.16512 0
M  V30 27182 H 2500.4 0.556849 -0.442086 0
M  V30 27183 H 2503 1.01314 -1.67199 0
M  V30 27184 H 2501.7 2.67756 -3.11022 0
M  V30 27185 H 2501.24 3.56926 -1.65431 0
M  V30 27186 H 2503.25 4.78485 -1.31402 0
M  V30 27187 N 2502.42 1.15558 1.07164 0
M  V30 27188 C 2503.37 0.822507 2.12647 0
M  V30 27189 C 2504.36 -0.194101 1.59725 0
M  V30 27190 O 2505.55 0.00543513 1.76999 0
M  V30 27191 C 2502.68 0.315632 3.41846 0
M  V30 27192 C 2501.76 1.36251 4.01617 0
M  V30 27193 N 2502.16 2.57038 4.35621 0
M  V30 27194 C 2500.45 1.21569 4.29112 0
M  V30 27195 C 2501.15 3.24153 4.83011 0
M  V30 27196 N 2500.13 2.51539 4.81901 0
M  V30 27197 H 2503.93 1.74115 2.36772 0
M  V30 27198 H 2501.45 1.04132 1.2462 0
M  V30 27199 H 2503.44 0.0586588 4.16859 0
M  V30 27200 H 2502.1 -0.597049 3.19164 0
M  V30 27201 H 2503.11 2.94166 4.26247 0
M  V30 27202 H 2499.79 0.363061 4.15918 0
M  V30 27203 H 2501.18 4.27208 5.18597 0
M  V30 27204 N 2503.9 -1.25546 0.952678 0
M  V30 27205 C 2505.15 -1.92504 0.602087 0
M  V30 27206 C 2505.46 -1.75452 -0.864633 0
M  V30 27207 O 2506.67 -2.36967 -1.3251 0
M  V30 27208 C 2505.13 -3.44962 1.02613 0
M  V30 27209 C 2504.73 -3.70727 2.51526 0
M  V30 27210 C 2506.48 -4.17858 0.747979 0
M  V30 27211 C 2504.38 -5.16681 2.87741 0
M  V30 27212 H 2503.31 -0.72074 0.221473 0
M  V30 27213 H 2505.97 -1.42439 1.15687 0
M  V30 27214 H 2504.35 -3.93977 0.399781 0
M  V30 27215 H 2505.52 -3.32372 3.19163 0
M  V30 27216 H 2503.84 -3.11087 2.76792 0
M  V30 27217 H 2506.43 -5.25366 0.994739 0
M  V30 27218 H 2506.78 -4.15102 -0.315556 0
M  V30 27219 H 2507.31 -3.74745 1.33459 0
M  V30 27220 H 2504.05 -5.24547 3.93104 0
M  V30 27221 H 2503.57 -5.5609 2.24775 0
M  V30 27222 H 2505.25 -5.84787 2.76827 0
M  V30 27223 N 2505.38 -0.721022 -1.40139 0
M  V30 27224 C 2506.33 -0.0608955 -2.3252 0
M  V30 27225 C 2507.32 0.741125 -1.52328 0
M  V30 27226 O 2508.53 0.643882 -1.6809 0
M  V30 27227 H 2504.9 -0.000889883 -0.751999 0
M  V30 27228 H 2506.87 -0.856665 -2.85839 0
M  V30 27229 C 2505.62 0.84275 -3.37332 0
M  V30 27230 H 2504.95 0.235013 -3.99109 0
M  V30 27231 H 2506.39 1.2725 -4.04454 0
M  V30 27232 C 2504.84 1.97069 -2.7325 0
M  V30 27233 O 2505.37 3.06205 -2.60003 0
M  V30 27234 N 2503.58 1.75593 -2.3155 0
M  V30 27235 H 2503.13 0.868325 -2.42524 0
M  V30 27236 H 2503.09 2.51241 -1.89012 0
M  V30 27237 N 2506.86 1.50503 -0.467606 0
M  V30 27238 C 2508.11 2.01498 0.0902514 0
M  V30 27239 C 2508.42 1.35465 1.41098 0
M  V30 27240 O 2509.63 1.77597 2.05357 0
M  V30 27241 C 2508.08 3.59279 0.211357 0
M  V30 27242 C 2507.69 4.34267 -1.10073 0
M  V30 27243 C 2509.43 4.18326 0.72136 0
M  V30 27244 C 2507.34 5.83824 -0.943607 0
M  V30 27245 H 2506.27 0.753067 0.0375038 0
M  V30 27246 H 2508.92 1.73345 -0.601974 0
M  V30 27247 H 2507.3 3.84005 0.967284 0
M  V30 27248 H 2508.48 4.21268 -1.86734 0
M  V30 27249 H 2506.79 3.86813 -1.54157 0
M  V30 27250 H 2509.39 5.27806 0.855888 0
M  V30 27251 H 2509.73 3.79478 1.71179 0
M  V30 27252 H 2510.27 3.97793 0.0229144 0
M  V30 27253 H 2507 6.27138 -1.9073 0
M  V30 27254 H 2506.52 5.99406 -0.217318 0
M  V30 27255 H 2508.2 6.44129 -0.608829 0
M  V30 27256 N 2508.34 0.200077 1.56325 0
M  V30 27257 C 2509.27 -0.713877 2.2232 0
M  V30 27258 C 2510.25 -1.2175 1.1879 0
M  V30 27259 O 2511.43 -1.26543 1.47311 0
M  V30 27260 C 2508.56 -1.93139 2.88643 0
M  V30 27261 C 2507.52 -1.56248 3.9846 0
M  V30 27262 C 2506.84 -2.85701 4.51972 0
M  V30 27263 C 2508.14 -0.768656 5.16613 0
M  V30 27264 H 2509.84 -0.163702 2.98952 0
M  V30 27265 H 2507.38 -0.0772966 1.43792 0
M  V30 27266 H 2509.33 -2.57602 3.33495 0
M  V30 27267 H 2508.06 -2.50618 2.09424 0
M  V30 27268 H 2506.72 -0.941409 3.54306 0
M  V30 27269 H 2506.37 -3.4128 3.69509 0
M  V30 27270 H 2506.07 -2.61761 5.26075 0
M  V30 27271 H 2507.59 -3.51145 4.99529 0
M  V30 27272 H 2509 -1.3165 5.57979 0
M  V30 27273 H 2507.4 -0.627181 5.96814 0
M  V30 27274 H 2508.47 0.229253 4.84358 0
M  V30 27275 N 2509.81 -1.57429 -0.0734901 0
M  V30 27276 C 2511.09 -1.78228 -0.805872 0
M  V30 27277 C 2511.47 -0.787224 -1.95872 0
M  V30 27278 O 2510.82 0.179989 -2.2779 0
M  V30 27279 C 2511.03 -3.24664 -1.28039 0
M  V30 27280 C 2512.38 -3.88447 -1.71446 0
M  V30 27281 O 2513.4 -3.28545 -1.3761 0
M  V30 27282 O 2512.26 -4.93829 -2.34084 0
M  V30 27283 H 2509.35 -0.731376 -0.386028 0
M  V30 27284 H 2511.9 -1.69615 -0.0536971 0
M  V30 27285 H 2510.67 -3.88641 -0.455408 0
M  V30 27286 H 2510.29 -3.37994 -2.09394 0
M  V30 27287 N 2511.29 0.344839 -1.53781 0
M  V30 27288 C 2512.24 1.42343 -1.81679 0
M  V30 27289 C 2513.21 1.5232 -0.662402 0
M  V30 27290 O 2514.39 1.67879 -0.906705 0
M  V30 27291 C 2511.53 2.79012 -2.03092 0
M  V30 27292 C 2510.65 2.77836 -3.30804 0
M  V30 27293 C 2509.78 4.06214 -3.42292 0
M  V30 27294 C 2508.82 3.99262 -4.63957 0
M  V30 27295 N 2507.96 5.19328 -4.72486 0
M  V30 27296 H 2512.8 1.17853 -2.73705 0
M  V30 27297 H 2510.33 0.570925 -1.35569 0
M  V30 27298 H 2512.29 3.58434 -2.13497 0
M  V30 27299 H 2510.92 3.01856 -1.1438 0
M  V30 27300 H 2509.97 1.90527 -3.29247 0
M  V30 27301 H 2511.29 2.68577 -4.20319 0
M  V30 27302 H 2510.44 4.9406 -3.52121 0
M  V30 27303 H 2509.18 4.18253 -2.5083 0
M  V30 27304 H 2508.18 3.09801 -4.54206 0
M  V30 27305 H 2509.41 3.88807 -5.56782 0
M  V30 27306 H 2507.36 5.31913 -3.83933 0
M  V30 27307 H 2507.27 5.1232 -5.55936 0
M  V30 27308 H 2508.54 6.08948 -4.86623 0
M  V30 27309 N 2512.77 1.45492 0.605781 0
M  V30 27310 C 2513.7 1.57146 1.72706 0
M  V30 27311 C 2514.68 0.422913 1.64759 0
M  V30 27312 O 2515.87 0.646279 1.83131 0
M  V30 27313 C 2513 1.53953 3.11313 0
M  V30 27314 C 2511.95 2.67543 3.34073 0
M  V30 27315 C 2511.28 2.49405 4.72971 0
M  V30 27316 C 2512.58 4.09541 3.24151 0
M  V30 27317 H 2514.27 2.51004 1.6321 0
M  V30 27318 H 2511.82 1.20802 0.783769 0
M  V30 27319 H 2513.77 1.60703 3.89554 0
M  V30 27320 H 2512.49 0.566261 3.21654 0
M  V30 27321 H 2511.15 2.60225 2.58222 0
M  V30 27322 H 2510.8 1.50213 4.80047 0
M  V30 27323 H 2510.5 3.25579 4.89154 0
M  V30 27324 H 2512.02 2.58011 5.5341 0
M  V30 27325 H 2513.44 4.18093 3.92264 0
M  V30 27326 H 2511.83 4.86119 3.51863 0
M  V30 27327 H 2512.9 4.31321 2.21563 0
M  V30 27328 N 2514.25 -0.848441 1.32813 0
M  V30 27329 C 2515.48 -1.63536 1.26742 0
M  V30 27330 C 2515.89 -1.88091 -0.163451 0
M  V30 27331 O 2515.25 -1.45431 -1.10255 0
M  V30 27332 C 2515.3 -2.99108 2.03018 0
M  V30 27333 O 2515.02 -2.75637 3.40523 0
M  V30 27334 C 2516.52 -3.93549 2.04045 0
M  V30 27335 H 2513.74 -0.509159 0.437033 0
M  V30 27336 H 2516.29 -1.0575 1.75035 0
M  V30 27337 H 2514.44 -3.53522 1.58432 0
M  V30 27338 H 2514.85 -3.61901 3.79642 0
M  V30 27339 H 2516.33 -4.85922 2.61886 0
M  V30 27340 H 2516.81 -4.26993 1.02827 0
M  V30 27341 H 2517.41 -3.45072 2.48606 0
M  V30 27342 N 2515.73 -1.16125 -1.06549 0
M  V30 27343 C 2516.69 -0.867944 -2.12131 0
M  V30 27344 C 2517.69 0.135916 -1.60225 0
M  V30 27345 O 2518.88 -0.0946728 -1.73943 0
M  V30 27346 C 2516.01 -0.297479 -3.396 0
M  V30 27347 H 2517.2 -1.80389 -2.39583 0
M  V30 27348 H 2514.76 -0.969834 -1.22572 0
M  V30 27349 H 2515.49 0.646274 -3.17795 0
M  V30 27350 H 2515.28 -1.02079 -3.78579 0
M  V30 27351 H 2516.77 -0.110125 -4.17455 0
M  V30 27352 N 2517.2 1.25039 -0.959323 0
M  V30 27353 C 2518.45 1.92883 -0.616645 0
M  V30 27354 C 2518.78 1.75089 0.847006 0
M  V30 27355 O 2518.03 1.09242 1.62372 0
M  V30 27356 C 2518.33 3.45163 -0.927197 0
M  V30 27357 C 2518 3.83118 -2.37764 0
M  V30 27358 C 2516.66 3.93189 -2.77408 0
M  V30 27359 C 2519.01 4.01831 -3.31936 0
M  V30 27360 C 2516.34 4.19385 -4.10285 0
M  V30 27361 C 2518.69 4.2952 -4.6443 0
M  V30 27362 C 2517.36 4.37809 -5.03865 0
M  V30 27363 H 2516.63 0.705808 -0.225646 0
M  V30 27364 H 2519.27 1.48491 -1.20924 0
M  V30 27365 H 2517.58 3.90987 -0.252263 0
M  V30 27366 H 2519.28 3.95851 -0.640569 0
M  V30 27367 H 2515.87 3.75838 -2.0602 0
M  V30 27368 H 2520.05 3.9346 -3.02495 0
M  V30 27369 H 2515.31 4.24019 -4.40474 0
M  V30 27370 H 2519.48 4.42944 -5.37377 0
M  V30 27371 H 2517.11 4.5786 -6.06851 0
M  V30 27372 N 2518.68 0.728444 1.39755 0
M  V30 27373 C 2519.93 0.273522 2.00644 0
M  V30 27374 C 2520.26 -1.13725 1.57788 0
M  V30 27375 O 2519.51 -1.78828 0.794918 0
M  V30 27376 C 2519.81 0.315839 3.56002 0
M  V30 27377 C 2519.48 1.6787 4.18486 0
M  V30 27378 C 2518.14 2.05174 4.35267 0
M  V30 27379 C 2520.49 2.57383 4.53214 0
M  V30 27380 C 2517.82 3.31511 4.84063 0
M  V30 27381 C 2520.17 3.83086 5.03416 0
M  V30 27382 C 2518.84 4.2049 5.18405 0
M  V30 27383 H 2518.11 0.100089 0.734209 0
M  V30 27384 H 2520.75 0.934001 1.67179 0
M  V30 27385 H 2519.06 -0.428216 3.89453 0
M  V30 27386 H 2520.75 -0.054187 4.00963 0
M  V30 27387 H 2517.34 1.37865 4.05822 0
M  V30 27388 H 2521.53 2.29835 4.39874 0
M  V30 27389 H 2516.78 3.60443 4.93853 0
M  V30 27390 H 2520.96 4.52608 5.29262 0
M  V30 27391 H 2518.59 5.18452 5.55978 0
M  V30 27392 N 2520.16 -1.50253 0.475581 0
M  V30 27393 C 2521.41 -2.01951 -0.0777025 0
M  V30 27394 C 2521.73 -1.35934 -1.39811 0
M  V30 27395 O 2521 -0.506156 -1.89248 0
M  V30 27396 H 2519.58 -0.746327 -0.0317059 0
M  V30 27397 H 2522.24 -1.84538 0.627028 0
M  V30 27398 H 2521.34 -3.11281 -0.225941 0
M  V30 27399 N 2521.64 -0.208365 -1.56217 0
M  V30 27400 C 2522.89 0.42717 -1.97125 0
M  V30 27401 C 2523.2 1.61833 -1.09861 0
M  V30 27402 O 2524.41 2.32252 -1.4061 0
M  V30 27403 C 2522.86 0.81138 -3.50635 0
M  V30 27404 C 2522.47 -0.356228 -4.46581 0
M  V30 27405 C 2524.21 1.41325 -4.00284 0
M  V30 27406 C 2522.12 0.0496813 -5.91379 0
M  V30 27407 H 2521.05 0.163368 -0.736089 0
M  V30 27408 H 2523.7 -0.302488 -1.8099 0
M  V30 27409 H 2522.08 1.59808 -3.62322 0
M  V30 27410 H 2523.26 -1.13378 -4.46634 0
M  V30 27411 H 2521.57 -0.870467 -4.072 0
M  V30 27412 H 2524.17 1.72963 -5.05953 0
M  V30 27413 H 2524.51 2.32443 -3.45364 0
M  V30 27414 H 2525.05 0.690255 -3.91766 0
M  V30 27415 H 2521.79 -0.827643 -6.50254 0
M  V30 27416 H 2521.31 0.791821 -5.9455 0
M  V30 27417 H 2522.98 0.480929 -6.4521 0
M  V30 27418 N 2523.12 1.57465 0.0651402 0
M  V30 27419 C 2524.05 1.99455 1.10873 0
M  V30 27420 C 2525.03 0.872579 1.37204 0
M  V30 27421 O 2526.21 1.13544 1.50466 0
M  V30 27422 C 2523.34 2.33694 2.45163 0
M  V30 27423 C 2522.38 3.55968 2.34924 0
M  V30 27424 S 2523.22 5.06546 1.737 0
M  V30 27425 C 2524.37 5.43992 3.09554 0
M  V30 27426 H 2524.61 2.8766 0.750916 0
M  V30 27427 H 2522.14 1.51951 0.273906 0
M  V30 27428 H 2524.1 2.54094 3.22407 0
M  V30 27429 H 2522.76 1.46006 2.78103 0
M  V30 27430 H 2521.95 3.77463 3.33973 0
M  V30 27431 H 2521.55 3.35232 1.65817 0
M  V30 27432 H 2523.85 5.4247 4.05873 0
M  V30 27433 H 2524.79 6.44713 2.92831 0
M  V30 27434 H 2525.2 4.71457 3.10466 0
M  V30 27435 N 2524.59 -0.336679 1.53962 0
M  V30 27436 C 2526.01 -0.911896 1.62915 0
M  V30 27437 C 2526.36 -1.89325 0.514828 0
M  V30 27438 O 2525.48 -2.13479 -0.354357 0
M  V30 27439 C 2526.08 -1.66071 2.95307 0
M  V30 27440 C 2524.64 -2.18483 3.06499 0
M  V30 27441 C 2523.78 -1.00609 2.58405 0
M  V30 27442 H 2526.73 -0.114621 1.58286 0
M  V30 27443 H 2526.75 -2.52405 2.84731 0
M  V30 27444 H 2526.27 -0.94621 3.76389 0
M  V30 27445 H 2524.37 -2.93088 2.30065 0
M  V30 27446 H 2524.48 -2.44384 4.12084 0
M  V30 27447 H 2522.84 -1.38149 2.13979 0
M  V30 27448 H 2523.63 -0.306119 3.41932 0
M  V30 27449 N 2526.07 -1.45812 -0.598057 0
M  V30 27450 C 2527.49 -1.30428 -0.919824 0
M  V30 27451 C 2527.69 -0.264339 -1.99759 0
M  V30 27452 O 2526.74 0.338428 -2.50222 0
M  V30 27453 C 2528.06 -2.68606 -1.35172 0
M  V30 27454 C 2529.61 -2.76577 -1.46541 0
M  V30 27455 C 2530.08 -4.15302 -1.93102 0
M  V30 27456 N 2531.57 -4.17643 -2.00321 0
M  V30 27457 C 2532.31 -5.21861 -2.3759 0
M  V30 27458 N 2531.8 -6.36417 -2.7376 0
M  V30 27459 N 2533.6 -5.09222 -2.38012 0
M  V30 27460 H 2525.75 -2.12093 0.114149 0
M  V30 27461 H 2528.01 -0.947929 -0.0115954 0
M  V30 27462 H 2527.72 -3.4594 -0.633909 0
M  V30 27463 H 2527.59 -2.977 -2.31635 0
M  V30 27464 H 2529.98 -1.99541 -2.17411 0
M  V30 27465 H 2530.06 -2.51185 -0.483683 0
M  V30 27466 H 2529.7 -4.92827 -1.22816 0
M  V30 27467 H 2529.63 -4.38091 -2.92206 0
M  V30 27468 H 2532.12 -3.3498 -1.74919 0
M  V30 27469 H 2532.44 -7.11726 -3.01107 0
M  V30 27470 H 2530.78 -6.39804 -2.71434 0
M  V30 27471 H 2533.97 -4.18768 -2.09167 0
M  V30 27472 H 2534.14 -5.90558 -2.6673 0
M  V30 27473 N 2527.55 0.841385 -1.33261 0
M  V30 27474 C 2528.8 1.59332 -1.24329 0
M  V30 27475 C 2529.12 1.94057 0.19153 0
M  V30 27476 O 2528.39 1.60751 1.11964 0
M  V30 27477 H 2526.97 0.590755 -0.457184 0
M  V30 27478 H 2529.63 1.00569 -1.66949 0
M  V30 27479 H 2528.73 2.52439 -1.83524 0
M  V30 27480 N 2529.03 1.16688 1.05932 0
M  V30 27481 C 2530.26 0.974961 1.82489 0
M  V30 27482 C 2530.67 -0.476829 1.82679 0
M  V30 27483 O 2530.03 -1.331 1.24862 0
M  V30 27484 C 2530.08 1.49935 3.2894 0
M  V30 27485 O 2529.8 2.89428 3.28881 0
M  V30 27486 C 2531.3 1.35096 4.22213 0
M  V30 27487 H 2528.52 0.345375 0.575289 0
M  V30 27488 H 2531.07 1.54802 1.33628 0
M  V30 27489 H 2529.22 0.968489 3.75099 0
M  V30 27490 H 2529.64 3.13514 4.20487 0
M  V30 27491 H 2531.11 1.76613 5.22984 0
M  V30 27492 H 2531.59 0.297012 4.38195 0
M  V30 27493 H 2532.19 1.87162 3.81904 0
M  V30 27494 N 2530.51 -1.24529 0.96594 0
M  V30 27495 C 2531.74 -1.96608 0.64442 0
M  V30 27496 C 2532.15 -1.7167 -0.785793 0
M  V30 27497 O 2531.51 -0.999426 -1.52701 0
M  V30 27498 C 2531.56 -3.49925 0.907436 0
M  V30 27499 O 2531.28 -3.74009 2.28142 0
M  V30 27500 C 2532.78 -4.39223 0.599861 0
M  V30 27501 H 2530 -0.626381 0.240599 0
M  V30 27502 H 2532.54 -1.58403 1.29339 0
M  V30 27503 H 2530.7 -3.862 0.304699 0
M  V30 27504 H 2531.11 -4.68401 2.3601 0
M  V30 27505 H 2532.59 -5.45658 0.834359 0
M  V30 27506 H 2533.06 -4.36722 -0.465844 0
M  V30 27507 H 2533.67 -4.08533 1.18242 0
M  V30 27508 N 2531.99 -0.735845 -1.39367 0
M  V30 27509 C 2533.4 -0.354048 -1.83312 0
M  V30 27510 C 2533.75 1.11464 -1.61463 0
M  V30 27511 O 2532.87 1.85987 -1.10625 0
M  V30 27512 C 2533.47 -0.635827 -3.3278 0
M  V30 27513 C 2532.03 -0.307514 -3.75142 0
M  V30 27514 C 2531.17 -0.89802 -2.62356 0
M  V30 27515 H 2534.12 -0.93342 -1.28347 0
M  V30 27516 H 2534.15 0.0921105 -3.80388 0
M  V30 27517 H 2533.66 -1.70482 -3.48651 0
M  V30 27518 H 2531.76 0.755609 -3.64858 0
M  V30 27519 H 2531.87 -0.790666 -4.72531 0
M  V30 27520 H 2530.24 -0.324596 -2.52623 0
M  V30 27521 H 2531.02 -1.97169 -2.81033 0
M  V30 27522 N 2533.46 1.49999 -0.483543 0
M  V30 27523 C 2534.88 1.58999 -0.138432 0
M  V30 27524 C 2535.08 1.49052 1.35594 0
M  V30 27525 O 2534.14 1.35543 2.13036 0
M  V30 27526 C 2535.45 2.92446 -0.699709 0
M  V30 27527 C 2537 3.0587 -0.664249 0
M  V30 27528 C 2537.47 4.41911 -1.20328 0
M  V30 27529 N 2538.96 4.48356 -1.16323 0
M  V30 27530 C 2539.7 5.52034 -1.55068 0
M  V30 27531 N 2539.19 6.62903 -2.01323 0
M  V30 27532 N 2540.99 5.42648 -1.46593 0
M  V30 27533 H 2533.14 1.54707 -1.45532 0
M  V30 27534 H 2535.4 0.731837 -0.602593 0
M  V30 27535 H 2535.11 3.05239 -1.74706 0
M  V30 27536 H 2534.98 3.76901 -0.15026 0
M  V30 27537 H 2537.37 2.92718 0.374221 0
M  V30 27538 H 2537.45 2.23142 -1.25065 0
M  V30 27539 H 2537.09 4.55814 -2.24045 0
M  V30 27540 H 2537.02 5.23251 -0.592988 0
M  V30 27541 H 2539.51 3.68804 -0.824123 0
M  V30 27542 H 2539.83 7.38091 -2.29003 0
M  V30 27543 H 2538.17 6.6399 -2.05284 0
M  V30 27544 H 2541.36 4.54922 -1.10289 0
M  V30 27545 H 2541.54 6.23326 -1.77114 0
M  V30 27546 N 2534.94 0.216646 1.56104 0
M  V30 27547 C 2535.9 -0.681923 2.18821 0
M  V30 27548 C 2536.9 -1.12526 1.14868 0
M  V30 27549 O 2538.09 -1.03485 1.4013 0
M  V30 27550 C 2535.23 -1.93357 2.80759 0
M  V30 27551 H 2536.42 -0.135201 2.99595 0
M  V30 27552 H 2533.97 -0.0329729 1.56265 0
M  V30 27553 H 2534.71 -2.52228 2.03842 0
M  V30 27554 H 2534.49 -1.6242 3.56878 0
M  V30 27555 H 2535.98 -2.57387 3.28849 0
M  V30 27556 N 2536.42 -1.57498 -0.0567885 0
M  V30 27557 C 2537.83 -1.76563 -0.606827 0
M  V30 27558 C 2538.18 -0.844125 -1.77113 0
M  V30 27559 O 2537.31 -0.0319291 -2.16376 0
M  V30 27560 C 2537.9 -3.20184 -1.1076 0
M  V30 27561 C 2536.46 -3.40542 -1.60338 0
M  V30 27562 C 2535.61 -2.72202 -0.529263 0
M  V30 27563 H 2538.56 -1.57793 0.16942 0
M  V30 27564 H 2538.58 -3.2517 -1.97597 0
M  V30 27565 H 2538.09 -3.87228 -0.259992 0
M  V30 27566 H 2536.19 -2.78633 -2.47374 0
M  V30 27567 H 2536.31 -4.49053 -1.66998 0
M  V30 27568 H 2534.67 -2.35181 -0.977852 0
M  V30 27569 H 2535.45 -3.41912 0.308412 0
M  V30 27570 N 2537.9 0.328509 -1.54138 0
M  V30 27571 C 2539.14 1.06861 -1.72361 0
M  V30 27572 C 2539.48 1.87831 -0.493264 0
M  V30 27573 O 2538.75 1.87701 0.509767 0
M  V30 27574 C 2539.03 1.99742 -2.99625 0
M  V30 27575 C 2538.89 1.22135 -4.32901 0
M  V30 27576 C 2540.21 2.9934 -3.2262 0
M  V30 27577 H 2537.33 0.387094 -0.627158 0
M  V30 27578 H 2539.97 0.345734 -1.86828 0
M  V30 27579 H 2538.12 2.61382 -2.87422 0
M  V30 27580 H 2539.79 0.629936 -4.56979 0
M  V30 27581 H 2538.03 0.523553 -4.30629 0
M  V30 27582 H 2538.7 1.90308 -5.18157 0
M  V30 27583 H 2541.18 2.4782 -3.34252 0
M  V30 27584 H 2540.06 3.61517 -4.13033 0
M  V30 27585 H 2540.32 3.71532 -2.39617 0
M  V30 27586 N 2539.38 1.46127 0.590316 0
M  V30 27587 C 2540.79 1.30914 0.912894 0
M  V30 27588 C 2540.99 0.274928 1.99616 0
M  V30 27589 O 2540.05 -0.325153 2.50398 0
M  V30 27590 C 2541.36 2.69319 1.33745 0
M  V30 27591 C 2542.91 2.7735 1.45072 0
M  V30 27592 C 2543.38 4.1632 1.90897 0
M  V30 27593 N 2544.87 4.187 1.98103 0
M  V30 27594 C 2545.61 5.23113 2.34819 0
M  V30 27595 N 2545.11 6.3786 2.70381 0
M  V30 27596 N 2546.9 5.10477 2.35308 0
M  V30 27597 H 2539.05 2.1203 -0.125395 0
M  V30 27598 H 2541.31 0.947977 0.00656814 0
M  V30 27599 H 2541.02 3.46271 0.615554 0
M  V30 27600 H 2540.89 2.98924 2.30053 0
M  V30 27601 H 2543.28 2.00691 2.1635 0
M  V30 27602 H 2543.36 2.51438 0.470355 0
M  V30 27603 H 2543 4.93472 1.202 0
M  V30 27604 H 2542.93 4.39634 2.89878 0
M  V30 27605 H 2545.43 3.35903 1.7314 0
M  V30 27606 H 2545.74 7.13313 2.97329 0
M  V30 27607 H 2544.08 6.41234 2.68037 0
M  V30 27608 H 2547.27 4.19872 2.06943 0
M  V30 27609 H 2547.45 5.91964 2.63595 0
M  V30 27610 N 2540.85 -0.834306 1.33705 0
M  V30 27611 C 2542.1 -1.58985 1.2542 0
M  V30 27612 C 2542.43 -1.93676 -0.178835 0
M  V30 27613 O 2541.68 -1.59267 -1.13721 0
M  V30 27614 C 2541.98 -2.90688 2.07931 0
M  V30 27615 C 2541.65 -2.75339 3.5707 0
M  V30 27616 C 2540.31 -2.7086 3.97729 0
M  V30 27617 C 2542.66 -2.5982 4.51822 0
M  V30 27618 C 2539.99 -2.48769 5.31348 0
M  V30 27619 C 2542.34 -2.39262 5.85608 0
M  V30 27620 C 2541.01 -2.33188 6.25444 0
M  V30 27621 H 2540.28 -0.581766 0.458944 0
M  V30 27622 H 2542.92 -0.966232 1.65337 0
M  V30 27623 H 2541.23 -3.5728 1.60806 0
M  V30 27624 H 2542.93 -3.4821 1.98874 0
M  V30 27625 H 2539.52 -2.79659 3.2479 0
M  V30 27626 H 2543.7 -2.62311 4.21315 0
M  V30 27627 H 2538.96 -2.42516 5.61245 0
M  V30 27628 H 2543.13 -2.26238 6.58627 0
M  V30 27629 H 2540.76 -2.1583 7.28918 0
M  V30 27630 N 2542.33 -1.17248 -1.05312 0
M  V30 27631 C 2543.74 -0.966258 -1.59751 0
M  V30 27632 C 2544.09 0.487344 -1.90051 0
M  V30 27633 O 2543.22 1.36242 -1.68128 0
M  V30 27634 C 2543.81 -1.74764 -2.90246 0
M  V30 27635 C 2542.37 -1.58612 -3.41349 0
M  V30 27636 C 2541.52 -1.75006 -2.151 0
M  V30 27637 H 2544.47 -1.31975 -0.881383 0
M  V30 27638 H 2544.49 -1.22931 -3.60095 0
M  V30 27639 H 2544 -2.80555 -2.68161 0
M  V30 27640 H 2542.1 -0.55305 -3.68473 0
M  V30 27641 H 2542.22 -2.37631 -4.16015 0
M  V30 27642 H 2540.58 -1.17837 -2.25802 0
M  V30 27643 H 2541.36 -2.82206 -1.95486 0
M  V30 27644 N 2543.81 1.24015 -0.972531 0
M  V30 27645 C 2545.04 1.96264 -0.654837 0
M  V30 27646 C 2545.45 1.72085 0.776678 0
M  V30 27647 O 2544.81 1.00751 1.52169 0
M  V30 27648 C 2544.86 3.49439 -0.925981 0
M  V30 27649 O 2544.58 3.72794 -2.30122 0
M  V30 27650 C 2546.08 4.38898 -0.623146 0
M  V30 27651 H 2543.3 0.625096 -0.243918 0
M  V30 27652 H 2545.85 1.57715 -1.30178 0
M  V30 27653 H 2544 3.86033 -0.325176 0
M  V30 27654 H 2544.42 4.67143 -2.38491 0
M  V30 27655 H 2545.89 5.45208 -0.863285 0
M  V30 27656 H 2546.37 4.36963 0.442677 0
M  V30 27657 H 2546.97 4.079 -1.20407 0
M  V30 27658 N 2545.29 0.743226 1.38974 0
M  V30 27659 C 2546.51 0.303972 2.0516 0
M  V30 27660 C 2546.94 -1.05573 1.55679 0
M  V30 27661 O 2546.3 -1.67067 0.704161 0
M  V30 27662 C 2546.34 0.324437 3.59138 0
M  V30 27663 O 2545.45 -0.685132 4.06669 0
M  V30 27664 H 2544.79 0.136529 0.649812 0
M  V30 27665 H 2547.32 1.01145 1.77851 0
M  V30 27666 H 2547.33 0.171689 4.07639 0
M  V30 27667 H 2546 1.31654 3.94512 0
M  V30 27668 H 2544.58 -0.497848 3.69562 0
M  V30 27669 N 2546.77 -1.4974 0.491491 0
M  V30 27670 C 2547.7 -2.31797 -0.2815 0
M  V30 27671 C 2548.68 -1.39631 -0.971448 0
M  V30 27672 O 2549.86 -1.68545 -0.964689 0
M  V30 27673 C 2546.99 -3.19905 -1.35197 0
M  V30 27674 C 2545.95 -4.20787 -0.782455 0
M  V30 27675 C 2545.27 -4.97767 -1.95274 0
M  V30 27676 C 2546.57 -5.21836 0.220082 0
M  V30 27677 H 2548.27 -2.9667 0.403407 0
M  V30 27678 H 2545.81 -1.42667 0.19545 0
M  V30 27679 H 2547.77 -3.76116 -1.90038 0
M  V30 27680 H 2546.49 -2.52956 -2.06593 0
M  V30 27681 H 2545.15 -3.65706 -0.255864 0
M  V30 27682 H 2544.8 -4.27274 -2.65416 0
M  V30 27683 H 2544.5 -5.66021 -1.57779 0
M  V30 27684 H 2546.02 -5.5682 -2.50567 0
M  V30 27685 H 2547.43 -5.72798 -0.239859 0
M  V30 27686 H 2545.83 -5.97926 0.510365 0
M  V30 27687 H 2546.9 -4.71328 1.13919 0
M  V30 27688 N 2548.24 -0.224922 -1.55987 0
M  V30 27689 C 2549.17 0.678418 -2.23427 0
M  V30 27690 C 2550.16 1.19845 -1.20712 0
M  V30 27691 O 2551.34 1.24183 -1.49306 0
M  V30 27692 C 2548.47 1.88522 -2.91679 0
M  V30 27693 C 2547.42 1.49889 -4.00895 0
M  V30 27694 C 2546.75 2.78475 -4.5646 0
M  V30 27695 C 2548.05 0.68637 -5.1777 0
M  V30 27696 H 2549.74 0.116121 -2.99175 0
M  V30 27697 H 2547.29 0.0544107 -1.43897 0
M  V30 27698 H 2549.24 2.52264 -3.37551 0
M  V30 27699 H 2547.97 2.47254 -2.13384 0
M  V30 27700 H 2546.63 0.884922 -3.55759 0
M  V30 27701 H 2546.27 3.35358 -3.74892 0
M  V30 27702 H 2545.97 2.53358 -5.30173 0
M  V30 27703 H 2547.5 3.43153 -5.05053 0
M  V30 27704 H 2548.91 1.22757 -5.60003 0
M  V30 27705 H 2547.31 0.532154 -5.97736 0
M  V30 27706 H 2548.38 -0.306281 -4.83932 0
M  V30 27707 N 2549.72 1.57526 0.0484352 0
M  V30 27708 C 2550.67 2.05276 1.055 0
M  V30 27709 C 2551.64 0.937951 1.37083 0
M  V30 27710 O 2552.82 1.20723 1.47752 0
M  V30 27711 C 2549.96 2.52097 2.35672 0
M  V30 27712 C 2549.08 3.77292 2.10417 0
M  V30 27713 C 2548.21 4.128 3.3432 0
M  V30 27714 C 2547.25 5.30968 3.04532 0
M  V30 27715 N 2546.39 5.62001 4.20831 0
M  V30 27716 H 2551.23 2.91028 0.640834 0
M  V30 27717 H 2548.77 1.43907 0.304828 0
M  V30 27718 H 2550.72 2.77302 3.11704 0
M  V30 27719 H 2549.35 1.6929 2.74847 0
M  V30 27720 H 2548.41 3.59286 1.2497 0
M  V30 27721 H 2549.72 4.63451 1.8443 0
M  V30 27722 H 2548.87 4.39031 4.18732 0
M  V30 27723 H 2547.61 3.25254 3.63403 0
M  V30 27724 H 2546.62 5.04509 2.18519 0
M  V30 27725 H 2547.84 6.20151 2.76748 0
M  V30 27726 H 2545.79 4.77414 4.49902 0
M  V30 27727 H 2545.7 6.42629 3.98201 0
M  V30 27728 H 2546.97 5.92797 5.06173 0
M  V30 27729 N 2551.2 -0.32033 1.5431 0
M  V30 27730 C 2552.45 -1.05946 1.72926 0
M  V30 27731 C 2552.78 -1.87567 0.503218 0
M  V30 27732 O 2552.05 -1.87969 -0.499806 0
M  V30 27733 C 2552.34 -1.9815 3.0068 0
M  V30 27734 C 2552.19 -1.19838 4.33542 0
M  V30 27735 C 2553.51 -2.97625 3.24203 0
M  V30 27736 H 2550.63 -0.383763 0.629202 0
M  V30 27737 H 2553.27 -0.335821 1.87009 0
M  V30 27738 H 2551.42 -2.59854 2.88804 0
M  V30 27739 H 2553.09 -0.605693 4.57306 0
M  V30 27740 H 2551.34 -0.500708 4.30901 0
M  V30 27741 H 2552.01 -1.87558 5.19159 0
M  V30 27742 H 2554.48 -2.46044 3.35562 0
M  V30 27743 H 2553.36 -3.59322 4.14945 0
M  V30 27744 H 2553.62 -3.70256 2.41584 0
M  V30 27745 N 2552.68 -1.46438 -0.582558 0
M  V30 27746 C 2554.09 -1.31396 -0.905939 0
M  V30 27747 C 2554.29 -0.285511 -1.99467 0
M  V30 27748 O 2553.35 0.311869 -2.50567 0
M  V30 27749 C 2554.66 -2.70024 -1.32315 0
M  V30 27750 C 2556.21 -2.78116 -1.43599 0
M  V30 27751 C 2556.69 -4.17326 -1.88687 0
M  V30 27752 N 2558.18 -4.19744 -1.9588 0
M  V30 27753 C 2558.91 -5.24351 -2.32042 0
M  V30 27754 N 2558.41 -6.39285 -2.66995 0
M  V30 27755 N 2560.2 -5.11718 -2.32597 0
M  V30 27756 H 2552.35 -2.1196 0.136638 0
M  V30 27757 H 2554.62 -0.947999 -0.0015407 0
M  V30 27758 H 2554.32 -3.46593 -0.597181 0
M  V30 27759 H 2554.2 -3.0014 -2.28464 0
M  V30 27760 H 2556.58 -2.01835 -2.15282 0
M  V30 27761 H 2556.66 -2.51684 -0.457014 0
M  V30 27762 H 2556.31 -4.94102 -1.17582 0
M  V30 27763 H 2556.24 -4.41165 -2.87543 0
M  V30 27764 H 2558.73 -3.36817 -1.71356 0
M  V30 27765 H 2559.04 -7.1488 -2.93542 0
M  V30 27766 H 2557.39 -6.42646 -2.64633 0
M  V30 27767 H 2560.58 -4.20963 -2.04713 0
M  V30 27768 H 2560.75 -5.93354 -2.60452 0
M  V30 27769 N 2554.16 0.827204 -1.34146 0
M  V30 27770 C 2555.57 1.11967 -1.13734 0
M  V30 27771 C 2555.77 2.01398 0.0640109 0
M  V30 27772 O 2554.83 2.41388 0.740814 0
M  V30 27773 C 2556.14 1.77051 -2.4305 0
M  V30 27774 C 2557.69 1.89565 -2.49066 0
M  V30 27775 C 2558.16 2.58065 -3.78373 0
M  V30 27776 N 2559.66 2.65568 -3.7951 0
M  V30 27777 C 2560.39 3.19288 -4.7628 0
M  V30 27778 N 2559.89 3.73606 -5.8343 0
M  V30 27779 N 2561.68 3.17649 -4.63741 0
M  V30 27780 H 2553.83 0.232259 -2.11126 0
M  V30 27781 H 2556.09 0.165586 -0.933427 0
M  V30 27782 H 2555.8 1.18801 -3.31027 0
M  V30 27783 H 2555.67 2.76961 -2.56071 0
M  V30 27784 H 2558.06 2.46965 -1.61531 0
M  V30 27785 H 2558.14 0.885703 -2.39977 0
M  V30 27786 H 2557.79 2.01321 -4.66296 0
M  V30 27787 H 2557.72 3.59555 -3.84744 0
M  V30 27788 H 2560.21 2.27063 -3.02078 0
M  V30 27789 H 2560.52 4.12835 -6.5329 0
M  V30 27790 H 2558.86 3.71861 -5.87149 0
M  V30 27791 H 2562.06 2.74479 -3.79182 0
M  V30 27792 H 2562.23 3.59212 -5.39324 0
M  V30 27793 N 2555.63 1.17805 1.04688 0
M  V30 27794 C 2556.88 0.967648 1.77429 0
M  V30 27795 C 2557.2 -0.50454 1.8836 0
M  V30 27796 O 2556.47 -1.36614 1.40404 0
M  V30 27797 H 2555.05 0.355035 0.657236 0
M  V30 27798 H 2557.72 1.48373 1.26378 0
M  V30 27799 H 2556.81 1.40032 2.78922 0
M  V30 27800 N 2557.11 -1.23497 0.979094 0
M  V30 27801 C 2558.04 -2.27226 0.537646 0
M  V30 27802 C 2559.02 -1.64614 -0.42851 0
M  V30 27803 O 2560.21 -1.91509 -0.322157 0
M  V30 27804 C 2557.34 -3.46922 -0.161991 0
M  V30 27805 C 2556.29 -4.21878 0.721317 0
M  V30 27806 C 2555.62 -5.34586 -0.110461 0
M  V30 27807 C 2556.92 -4.82013 2.01149 0
M  V30 27808 H 2558.61 -2.64404 1.40467 0
M  V30 27809 H 2556.16 -1.27101 0.676863 0
M  V30 27810 H 2558.11 -4.18633 -0.482119 0
M  V30 27811 H 2556.84 -3.08801 -1.06345 0
M  V30 27812 H 2555.49 -3.51983 1.02488 0
M  V30 27813 H 2555.14 -4.92706 -1.01242 0
M  V30 27814 H 2554.84 -5.85657 0.477428 0
M  V30 27815 H 2556.37 -6.09119 -0.424999 0
M  V30 27816 H 2557.78 -5.45738 1.75622 0
M  V30 27817 H 2556.18 -5.43365 2.54705 0
M  V30 27818 H 2557.25 -4.02831 2.69916 0
M  V30 27819 N 2558.59 -0.750586 -1.38578 0
M  V30 27820 C 2559.5 -0.122866 -2.34278 0
M  V30 27821 C 2560.52 0.704103 -1.59118 0
M  V30 27822 O 2561.69 0.628954 -1.91327 0
M  V30 27823 C 2558.76 0.762027 -3.38222 0
M  V30 27824 C 2557.82 -0.0789714 -4.29227 0
M  V30 27825 C 2557.05 0.763781 -5.28206 0
M  V30 27826 O 2557.28 2.00192 -5.34116 0
M  V30 27827 O 2556.21 0.184174 -6.01618 0
M  V30 27828 H 2560.04 -0.913139 -2.89647 0
M  V30 27829 H 2557.62 -0.511442 -1.40373 0
M  V30 27830 H 2559.5 1.26786 -4.01875 0
M  V30 27831 H 2558.18 1.53085 -2.85214 0
M  V30 27832 H 2557.08 -0.630686 -3.68745 0
M  V30 27833 H 2558.42 -0.810375 -4.85483 0
M  V30 27834 N 2560.07 1.49477 -0.499425 0
M  V30 27835 C 2561.3 2.06856 0.0425093 0
M  V30 27836 C 2561.71 1.35995 1.30962 0
M  V30 27837 O 2561.07 0.437793 1.77171 0
M  V30 27838 C 2561.12 3.60239 0.301672 0
M  V30 27839 O 2560.84 4.28434 -0.915203 0
M  V30 27840 C 2562.34 4.34327 0.887422 0
M  V30 27841 H 2559.56 0.670709 -0.0197599 0
M  V30 27842 H 2562.11 1.9228 -0.69633 0
M  V30 27843 H 2560.26 3.74524 0.99049 0
M  V30 27844 H 2560.68 5.20111 -0.677085 0
M  V30 27845 H 2562.15 5.42525 1.01835 0
M  V30 27846 H 2562.63 3.96701 1.88481 0
M  V30 27847 H 2563.23 4.24644 0.236121 0
M  V30 27848 N 2561.55 0.233191 1.55865 0
M  V30 27849 C 2562.51 -0.658676 2.19532 0
M  V30 27850 C 2563.51 -1.11301 1.16055 0
M  V30 27851 O 2564.7 -1.01993 1.4122 0
M  V30 27852 C 2561.83 -1.90368 2.82794 0
M  V30 27853 H 2563.03 -0.103418 2.99722 0
M  V30 27854 H 2560.58 -0.016397 1.56291 0
M  V30 27855 H 2561.31 -2.50052 2.06505 0
M  V30 27856 H 2561.1 -1.58626 3.58581 0
M  V30 27857 H 2562.59 -2.53885 3.3156 0
M  V30 27858 N 2563.03 -1.57549 -0.0400806 0
M  V30 27859 C 2564.27 -1.89896 -0.72876 0
M  V30 27860 C 2564.63 -0.830565 -1.73549 0
M  V30 27861 O 2563.92 0.161973 -1.90914 0
M  V30 27862 C 2564.11 -3.26711 -1.44896 0
M  V30 27863 C 2563.94 -4.46759 -0.51349 0
M  V30 27864 C 2562.71 -5.0511 -0.13861 0
M  V30 27865 C 2564.91 -5.13898 0.203432 0
M  V30 27866 N 2562.89 -6.08675 0.799266 0
M  V30 27867 C 2564.26 -6.11926 0.997353 0
M  V30 27868 C 2566.32 -4.97159 0.271546 0
M  V30 27869 C 2565.02 -6.9502 1.85311 0
M  V30 27870 C 2567.05 -5.80806 1.11439 0
M  V30 27871 C 2566.41 -6.78396 1.89627 0
M  V30 27872 H 2562.51 -0.743901 -0.241112 0
M  V30 27873 H 2565.09 -1.94697 0.0108358 0
M  V30 27874 H 2563.26 -3.22859 -2.15908 0
M  V30 27875 H 2565 -3.46607 -2.08915 0
M  V30 27876 H 2561.75 -4.7097 -0.498414 0
M  V30 27877 H 2562.17 -6.65126 1.26239 0
M  V30 27878 H 2566.82 -4.21598 -0.318635 0
M  V30 27879 H 2564.53 -7.69934 2.45414 0
M  V30 27880 H 2568.12 -5.69904 1.17048 0
M  V30 27881 H 2567 -7.41997 2.53792 0
M  V30 27882 N 2564.5 0.312142 -1.54478 0
M  V30 27883 C 2565.47 1.36763 -1.83925 0
M  V30 27884 C 2566.47 1.44198 -0.711588 0
M  V30 27885 O 2567.66 1.44027 -0.979892 0
M  V30 27886 C 2564.79 2.75373 -2.00955 0
M  V30 27887 H 2565.98 1.11901 -2.78241 0
M  V30 27888 H 2563.53 0.548232 -1.4637 0
M  V30 27889 H 2564.27 3.05473 -1.08889 0
M  V30 27890 H 2564.05 2.71368 -2.83023 0
M  V30 27891 H 2565.54 3.51709 -2.25146 0
M  V30 27892 N 2565.98 1.46745 0.574784 0
M  V30 27893 C 2567.21 1.55823 1.35657 0
M  V30 27894 C 2567.62 0.201069 1.88129 0
M  V30 27895 O 2566.96 -0.813105 1.64725 0
M  V30 27896 C 2567.02 2.50898 2.57469 0
M  V30 27897 C 2566.69 3.96974 2.26408 0
M  V30 27898 C 2567.69 4.85962 1.84763 0
M  V30 27899 C 2565.37 4.4217 2.38309 0
M  V30 27900 C 2567.36 6.18161 1.55423 0
M  V30 27901 C 2565.05 5.74401 2.08581 0
M  V30 27902 C 2566.05 6.62217 1.67204 0
M  V30 27903 O 2565.74 7.91994 1.37845 0
M  V30 27904 H 2565.47 0.529308 0.420487 0
M  V30 27905 H 2568.02 1.92924 0.704933 0
M  V30 27906 H 2566.25 2.0883 3.25464 0
M  V30 27907 H 2567.94 2.50296 3.19541 0
M  V30 27908 H 2568.71 4.52298 1.75077 0
M  V30 27909 H 2564.59 3.74037 2.69476 0
M  V30 27910 H 2568.13 6.86661 1.23053 0
M  V30 27911 H 2564.03 6.07612 2.17894 0
M  V30 27912 H 2564.8 8.04334 1.51624 0
M  V30 27913 N 2567.46 -0.820078 1.34583 0
M  V30 27914 C 2568.69 -1.60811 1.30183 0
M  V30 27915 C 2569.1 -1.88396 -0.123518 0
M  V30 27916 O 2568.46 -1.47737 -1.07145 0
M  V30 27917 C 2568.51 -2.94735 2.09317 0
M  V30 27918 O 2568.23 -2.68352 3.46293 0
M  V30 27919 C 2569.73 -3.89132 2.12347 0
M  V30 27920 H 2566.95 -0.499774 0.447735 0
M  V30 27921 H 2569.5 -1.02014 1.77238 0
M  V30 27922 H 2567.65 -3.50082 1.65895 0
M  V30 27923 H 2568.07 -3.53767 3.87233 0
M  V30 27924 H 2569.54 -4.80257 2.72134 0
M  V30 27925 H 2570.02 -4.24716 1.11861 0
M  V30 27926 H 2570.62 -3.39721 2.5587 0
M  V30 27927 N 2568.94 -1.18359 -1.04062 0
M  V30 27928 C 2569.89 -0.878598 -2.10392 0
M  V30 27929 C 2570.87 0.151685 -1.60183 0
M  V30 27930 O 2572.06 -0.0523614 -1.76923 0
M  V30 27931 C 2569.19 -0.406156 -3.40889 0
M  V30 27932 C 2568.28 -1.46851 -3.97864 0
M  V30 27933 N 2568.67 -2.68497 -4.28653 0
M  V30 27934 C 2566.97 -1.32904 -4.25738 0
M  V30 27935 C 2567.67 -3.36845 -4.74247 0
M  V30 27936 N 2566.64 -2.64228 -4.75063 0
M  V30 27937 H 2570.45 -1.80331 -2.32073 0
M  V30 27938 H 2567.96 -1.074 -1.21816 0
M  V30 27939 H 2569.96 -0.169161 -4.16557 0
M  V30 27940 H 2568.62 0.512218 -3.20634 0
M  V30 27941 H 2569.63 -3.05364 -4.18298 0
M  V30 27942 H 2566.31 -0.473207 -4.1481 0
M  V30 27943 H 2567.7 -4.40807 -5.07088 0
M  V30 27944 N 2570.42 1.22976 -0.98563 0
M  V30 27945 C 2571.35 2.2394 -0.488194 0
M  V30 27946 C 2572.36 1.5748 0.412792 0
M  V30 27947 O 2573.55 1.77187 0.21609 0
M  V30 27948 C 2570.65 3.37456 0.312552 0
M  V30 27949 C 2569.82 4.335 -0.582818 0
M  V30 27950 C 2568.88 5.25941 0.164972 0
M  V30 27951 O 2567.91 5.67441 -0.447177 0
M  V30 27952 N 2569.11 5.62114 1.44943 0
M  V30 27953 H 2571.87 2.67251 -1.35635 0
M  V30 27954 H 2569.44 1.37201 -0.859501 0
M  V30 27955 H 2571.43 3.96279 0.821287 0
M  V30 27956 H 2570 2.93286 1.08175 0
M  V30 27957 H 2569.22 3.73103 -1.27232 0
M  V30 27958 H 2570.51 4.9462 -1.19284 0
M  V30 27959 H 2569.9 5.30356 1.96821 0
M  V30 27960 H 2568.46 6.23386 1.9035 0
M  V30 27961 N 2571.89 0.757924 1.38178 0
M  V30 27962 C 2573.14 0.315396 1.99624 0
M  V30 27963 C 2573.46 -1.10796 1.60465 0
M  V30 27964 O 2572.73 -1.7584 0.863538 0
M  V30 27965 H 2571.31 0.113624 0.738308 0
M  V30 27966 H 2573.97 0.972982 1.68876 0
M  V30 27967 H 2573.07 0.381986 3.09754 0
M  V30 27968 N 2573.37 -1.4921 0.507345 0
M  V30 27969 C 2574.62 -2.0207 -0.0348484 0
M  V30 27970 C 2574.94 -1.38869 -1.36896 0
M  V30 27971 O 2574.21 -0.546184 -1.88132 0
M  V30 27972 H 2572.79 -0.746831 -0.0158681 0
M  V30 27973 H 2575.45 -1.83167 0.66603 0
M  V30 27974 H 2574.55 -3.1169 -0.159862 0
M  V30 27975 N 2574.85 -0.241454 -1.55739 0
M  V30 27976 C 2576.1 0.385261 -1.97986 0
M  V30 27977 C 2576.41 1.59466 -1.13269 0
M  V30 27978 O 2577.62 2.29217 -1.45505 0
M  V30 27979 C 2576.07 0.736823 -3.52277 0
M  V30 27980 C 2575.68 -0.450875 -4.45725 0
M  V30 27981 C 2577.43 1.32803 -4.03192 0
M  V30 27982 C 2575.33 -0.0757702 -5.91351 0
M  V30 27983 H 2574.26 0.147718 -0.739389 0
M  V30 27984 H 2576.91 -0.34081 -1.80307 0
M  V30 27985 H 2575.3 1.52087 -3.6563 0
M  V30 27986 H 2576.47 -1.22827 -4.44129 0
M  V30 27987 H 2574.79 -0.956645 -4.05262 0
M  V30 27988 H 2577.38 1.62192 -5.09508 0
M  V30 27989 H 2577.73 2.25065 -3.50216 0
M  V30 27990 H 2578.26 0.607 -3.93142 0
M  V30 27991 H 2575 -0.965386 -6.48352 0
M  V30 27992 H 2574.52 0.66553 -5.96096 0
M  V30 27993 H 2576.2 0.343962 -6.46085 0
M  V30 27994 N 2576.33 1.57568 0.0317248 0
M  V30 27995 C 2577.55 1.93802 0.73863 0
M  V30 27996 C 2577.98 0.841238 1.6824 0
M  V30 27997 O 2577.34 -0.203235 1.80157 0
M  V30 27998 C 2577.38 3.29093 1.47411 0
M  V30 27999 O 2576.49 3.21155 2.58715 0
M  V30 28000 H 2575.83 0.633527 0.198844 0
M  V30 28001 H 2578.36 2.04596 -0.0120072 0
M  V30 28002 H 2578.37 3.6392 1.84462 0
M  V30 28003 H 2577.04 4.08484 0.781916 0
M  V30 28004 H 2575.62 2.97955 2.24226 0
M  V30 28005 N 2577.81 -0.303946 1.54641 0
M  V30 28006 C 2579.03 -1.06289 1.78094 0
M  V30 28007 C 2579.46 -1.80261 0.537374 0
M  V30 28008 O 2578.81 -1.73921 -0.511963 0
M  V30 28009 C 2578.86 -2.02142 2.98615 0
M  V30 28010 O 2577.97 -3.10392 2.71534 0
M  V30 28011 H 2577.31 -0.305487 0.589554 0
M  V30 28012 H 2579.84 -0.342265 2.01717 0
M  V30 28013 H 2579.85 -2.44661 3.26504 0
M  V30 28014 H 2578.52 -1.47707 3.88787 0
M  V30 28015 H 2577.1 -2.72409 2.54652 0
M  V30 28016 N 2579.28 -1.47047 -0.566994 0
M  V30 28017 C 2580.53 -1.53396 -1.32656 0
M  V30 28018 C 2580.86 -0.191514 -1.93253 0
M  V30 28019 O 2580.14 0.798813 -1.77339 0
M  V30 28020 C 2580.42 -2.64456 -2.44407 0
M  V30 28021 C 2580.27 -4.08285 -1.88742 0
M  V30 28022 C 2581.59 -2.71491 -3.46382 0
M  V30 28023 H 2578.71 -0.558423 -0.480971 0
M  V30 28024 H 2581.35 -1.79059 -0.63545 0
M  V30 28025 H 2579.5 -2.42705 -3.03359 0
M  V30 28026 H 2581.18 -4.4137 -1.34127 0
M  V30 28027 H 2579.42 -4.17023 -1.19474 0
M  V30 28028 H 2580.09 -4.8175 -2.69483 0
M  V30 28029 H 2582.57 -2.91086 -2.97335 0
M  V30 28030 H 2581.44 -3.50992 -4.22014 0
M  V30 28031 H 2581.7 -1.7816 -4.04613 0
M  V30 28032 N 2580.76 0.812929 -1.35016 0
M  V30 28033 C 2582.04 1.55615 -1.18504 0
M  V30 28034 C 2582.42 2.0975 0.238384 0
M  V30 28035 O 2581.77 1.91859 1.24106 0
M  V30 28036 C 2581.98 2.66967 -2.24788 0
M  V30 28037 C 2583.33 3.35474 -2.60274 0
M  V30 28038 O 2584.35 2.77232 -2.23653 0
M  V30 28039 O 2583.21 4.40673 -3.23218 0
M  V30 28040 H 2580.3 0.687264 -0.459996 0
M  V30 28041 H 2582.85 0.853438 -1.46678 0
M  V30 28042 H 2581.62 2.24792 -3.20288 0
M  V30 28043 H 2581.24 3.4488 -1.97847 0
M  V30 28044 N 2582.24 1.18909 1.03433 0
M  V30 28045 C 2583.19 0.889743 2.09923 0
M  V30 28046 C 2584.17 -0.143188 1.60262 0
M  V30 28047 O 2585.37 0.0617433 1.76892 0
M  V30 28048 C 2582.5 0.424228 3.40669 0
M  V30 28049 C 2581.58 1.48959 3.97079 0
M  V30 28050 N 2581.97 2.70766 4.27223 0
M  V30 28051 C 2580.27 1.3516 4.25027 0
M  V30 28052 C 2580.97 3.39355 4.72454 0
M  V30 28053 N 2579.95 2.66743 4.73655 0
M  V30 28054 H 2583.75 1.8156 2.31113 0
M  V30 28055 H 2581.26 1.08044 1.21245 0
M  V30 28056 H 2583.26 0.19125 4.16461 0
M  V30 28057 H 2581.92 -0.495207 3.20902 0
M  V30 28058 H 2582.93 3.07578 4.16673 0
M  V30 28059 H 2579.61 0.495199 4.14553 0
M  V30 28060 H 2581 4.4349 5.04744 0
M  V30 28061 N 2583.72 -1.22452 0.992137 0
M  V30 28062 C 2584.96 -1.91463 0.668557 0
M  V30 28063 C 2585.3 -1.77079 -0.797281 0
M  V30 28064 O 2584.57 -1.13919 -1.57648 0
M  V30 28065 C 2584.86 -3.43702 1.0743 0
M  V30 28066 C 2584.71 -3.67139 2.59864 0
M  V30 28067 C 2586.03 -4.35611 0.626968 0
M  V30 28068 H 2583.15 -0.695313 0.244353 0
M  V30 28069 H 2585.79 -1.44343 1.23552 0
M  V30 28070 H 2583.94 -3.83965 0.591884 0
M  V30 28071 H 2585.61 -3.36284 3.1577 0
M  V30 28072 H 2583.85 -3.11446 3.01967 0
M  V30 28073 H 2584.52 -4.73754 2.83304 0
M  V30 28074 H 2587 -4.02859 1.04132 0
M  V30 28075 H 2585.88 -5.40806 0.939171 0
M  V30 28076 H 2586.14 -4.39569 -0.472379 0
M  V30 28077 N 2585.2 -0.765242 -1.37774 0
M  V30 28078 C 2586.42 -0.337803 -2.04124 0
M  V30 28079 C 2586.84 1.03782 -1.57717 0
M  V30 28080 O 2586.2 1.66129 -0.755476 0
M  V30 28081 C 2586.25 -0.364505 -3.59658 0
M  V30 28082 O 2585.97 -1.68586 -4.04364 0
M  V30 28083 C 2587.47 0.0753442 -4.43236 0
M  V30 28084 H 2584.69 -0.142502 -0.655694 0
M  V30 28085 H 2587.23 -1.03735 -1.76237 0
M  V30 28086 H 2585.39 0.286403 -3.8634 0
M  V30 28087 H 2585.8 -1.62001 -4.98854 0
M  V30 28088 H 2587.28 0.00550365 -5.52 0
M  V30 28089 H 2587.75 1.12484 -4.24552 0
M  V30 28090 H 2588.36 -0.547129 -4.21766 0
M  V30 28091 N 2586.67 1.48939 -0.515251 0
M  V30 28092 C 2587.64 2.27891 0.244641 0
M  V30 28093 C 2588.64 1.34508 0.881143 0
M  V30 28094 O 2589.83 1.57538 0.743469 0
M  V30 28095 C 2586.96 3.12926 1.35242 0
M  V30 28096 H 2588.15 2.9653 -0.448341 0
M  V30 28097 H 2585.71 1.53938 -0.270683 0
M  V30 28098 H 2586.44 2.48884 2.07911 0
M  V30 28099 H 2586.23 3.816 0.901307 0
M  V30 28100 H 2587.72 3.72519 1.88731 0
M  V30 28101 N 2588.15 0.249709 1.55609 0
M  V30 28102 C 2589.4 -0.373513 1.98618 0
M  V30 28103 C 2589.72 -1.58262 1.13922 0
M  V30 28104 O 2588.99 -1.9463 0.222671 0
M  V30 28105 H 2587.57 -0.140993 0.733573 0
M  V30 28106 H 2590.23 0.34915 1.91747 0
M  V30 28107 H 2589.33 -0.680743 3.04585 0
M  V30 28108 N 2589.63 -1.57583 -0.0233682 0
M  V30 28109 C 2590.58 -2.06929 -1.02221 0
M  V30 28110 C 2591.55 -0.959641 -1.35573 0
M  V30 28111 O 2592.73 -1.23058 -1.45813 0
M  V30 28112 C 2589.87 -2.55814 -2.31632 0
M  V30 28113 C 2588.99 -3.80591 -2.04388 0
M  V30 28114 C 2588.12 -4.18067 -3.2771 0
M  V30 28115 C 2587.16 -5.35745 -2.96046 0
M  V30 28116 N 2586.3 -5.68625 -4.11837 0
M  V30 28117 H 2591.14 -2.92011 -0.594453 0
M  V30 28118 H 2588.67 -1.44374 -0.281896 0
M  V30 28119 H 2590.63 -2.82226 -3.07253 0
M  V30 28120 H 2589.26 -1.73641 -2.72119 0
M  V30 28121 H 2588.31 -3.61229 -1.19238 0
M  V30 28122 H 2589.63 -4.66327 -1.77034 0
M  V30 28123 H 2588.78 -4.45637 -4.11695 0
M  V30 28124 H 2587.52 -3.30994 -3.58182 0
M  V30 28125 H 2586.52 -5.07922 -2.10465 0
M  V30 28126 H 2587.75 -6.24476 -2.66846 0
M  V30 28127 H 2585.7 -4.84511 -4.4225 0
M  V30 28128 H 2585.61 -6.48883 -3.87927 0
M  V30 28129 H 2586.88 -6.00775 -4.96678 0
M  V30 28130 N 2591.11 0.29574 -1.548 0
M  V30 28131 C 2592.39 1.0502 -1.65016 0
M  V30 28132 C 2592.77 2.05048 -0.501841 0
M  V30 28133 O 2592.11 2.22944 0.50083 0
M  V30 28134 C 2592.32 1.72736 -3.03255 0
M  V30 28135 C 2593.67 2.24739 -3.60246 0
M  V30 28136 O 2594.7 1.8276 -3.05741 0
M  V30 28137 O 2593.56 3.01673 -4.55693 0
M  V30 28138 H 2590.65 0.485732 -0.669323 0
M  V30 28139 H 2593.2 0.293409 -1.67144 0
M  V30 28140 H 2591.97 1.00131 -3.78272 0
M  V30 28141 H 2591.59 2.55158 -3.04927 0
M  V30 28142 N 2592.59 1.47346 0.559187 0
M  V30 28143 C 2593.52 1.62561 1.67619 0
M  V30 28144 C 2594.5 0.475115 1.6333 0
M  V30 28145 O 2595.68 0.704214 1.80982 0
M  V30 28146 C 2592.81 1.6378 3.06257 0
M  V30 28147 C 2591.77 2.78036 3.25392 0
M  V30 28148 C 2591.09 2.64326 4.64796 0
M  V30 28149 C 2592.39 4.19646 3.10957 0
M  V30 28150 H 2594.09 2.56069 1.55142 0
M  V30 28151 H 2591.63 1.23234 0.74494 0
M  V30 28152 H 2593.59 1.73015 3.84244 0
M  V30 28153 H 2592.31 0.668306 3.19689 0
M  V30 28154 H 2590.97 2.68308 2.49812 0
M  V30 28155 H 2590.62 1.65409 4.75025 0
M  V30 28156 H 2590.32 3.40977 4.78549 0
M  V30 28157 H 2591.84 2.75487 5.44921 0
M  V30 28158 H 2593.26 4.30361 3.78764 0
M  V30 28159 H 2591.65 4.97068 3.3622 0
M  V30 28160 H 2592.72 4.38152 2.07729 0
M  V30 28161 N 2594.07 -0.805758 1.35445 0
M  V30 28162 C 2595 -1.93224 1.31099 0
M  V30 28163 C 2595.98 -1.69088 0.185274 0
M  V30 28164 O 2597.16 -1.90439 0.380366 0
M  V30 28165 C 2594.29 -3.29981 1.08305 0
M  V30 28166 C 2593.25 -3.68601 2.17526 0
M  V30 28167 C 2592.57 -5.03529 1.79896 0
M  V30 28168 C 2593.87 -3.78892 3.59497 0
M  V30 28169 H 2595.57 -1.97118 2.25355 0
M  V30 28170 H 2593.11 -0.946977 1.08482 0
M  V30 28171 H 2595.06 -4.08389 1.03904 0
M  V30 28172 H 2593.79 -3.26431 0.104942 0
M  V30 28173 H 2592.45 -2.92478 2.21025 0
M  V30 28174 H 2592.1 -4.96484 0.807017 0
M  V30 28175 H 2591.8 -5.30339 2.5301 0
M  V30 28176 H 2593.32 -5.84376 1.77022 0
M  V30 28177 H 2594.73 -4.4753 3.58315 0
M  V30 28178 H 2593.13 -4.17173 4.31378 0
M  V30 28179 H 2594.2 -2.80424 3.95589 0
M  V30 28180 N 2595.54 -1.19456 -1.02801 0
M  V30 28181 C 2596.79 -0.999202 -1.76476 0
M  V30 28182 C 2597.12 0.468795 -1.88457 0
M  V30 28183 O 2596.4 1.34812 -1.402 0
M  V30 28184 C 2596.68 -1.66987 -3.19041 0
M  V30 28185 C 2596.53 -3.21157 -3.14926 0
M  V30 28186 C 2597.85 -1.39357 -4.17454 0
M  V30 28187 H 2594.97 -0.364404 -0.640608 0
M  V30 28188 H 2597.61 -1.47307 -1.20002 0
M  V30 28189 H 2595.76 -1.26697 -3.6726 0
M  V30 28190 H 2597.44 -3.70666 -2.74598 0
M  V30 28191 H 2595.68 -3.52656 -2.52619 0
M  V30 28192 H 2596.35 -3.6323 -4.15654 0
M  V30 28193 H 2598.83 -1.74289 -3.77839 0
M  V30 28194 H 2597.7 -1.88832 -5.15397 0
M  V30 28195 H 2597.96 -0.318891 -4.40948 0
M  V30 28196 N 2597.02 1.21924 -0.998617 0
M  V30 28197 C 2598.26 1.92545 -0.685981 0
M  V30 28198 C 2598.63 1.75953 0.76841 0
M  V30 28199 O 2599.83 2.40889 1.19273 0
M  V30 28200 C 2598.1 3.40446 -1.08773 0
M  V30 28201 S 2599.66 4.2959 -0.894326 0
M  V30 28202 H 2596.47 0.66536 -0.250633 0
M  V30 28203 H 2599.08 1.47589 -1.2821 0
M  V30 28204 H 2597.78 3.50037 -2.14248 0
M  V30 28205 H 2597.31 3.90416 -0.483638 0
M  V30 28206 H 2599.33 4.95747 0.212061 0
M  V30 28207 N 2598.5 0.772537 1.37367 0
M  V30 28208 C 2599.78 0.261914 1.93839 0
M  V30 28209 C 2600.16 -1.24316 1.70613 0
M  V30 28210 O 2599.5 -2.02668 1.05537 0
M  V30 28211 C 2599.71 0.636162 3.43153 0
M  V30 28212 C 2601.06 0.606398 4.20248 0
M  V30 28213 O 2602.09 0.5756 3.51519 0
M  V30 28214 O 2600.95 0.634182 5.42808 0
M  V30 28215 H 2598.04 0.06057 0.824779 0
M  V30 28216 H 2600.59 0.853943 1.46649 0
M  V30 28217 H 2599.36 1.67486 3.53644 0
M  V30 28218 H 2598.98 0.0171215 3.97596 0
M  V30 28219 N 2599.98 -1.48664 0.523142 0
M  V30 28220 C 2601.2 -2.07397 -0.011692 0
M  V30 28221 C 2601.63 -1.37805 -1.28029 0
M  V30 28222 O 2600.99 -0.441793 -1.75835 0
M  V30 28223 C 2601.03 -3.59893 -0.225723 0
M  V30 28224 O 2600.14 -3.91512 -1.29585 0
M  V30 28225 H 2599.48 -0.663019 0.036079 0
M  V30 28226 H 2602.01 -1.91168 0.7291 0
M  V30 28227 H 2602.02 -4.05505 -0.45048 0
M  V30 28228 H 2600.69 -4.09949 0.701016 0
M  V30 28229 H 2599.27 -3.57686 -1.05429 0
M  V30 28230 N 2601.46 -0.257958 -1.55475 0
M  V30 28231 C 2602.39 0.677823 -2.17901 0
M  V30 28232 C 2603.37 1.16481 -1.1345 0
M  V30 28233 O 2604.55 1.24093 -1.41892 0
M  V30 28234 C 2601.68 1.92244 -2.78855 0
M  V30 28235 C 2600.72 1.57239 -3.96457 0
M  V30 28236 S 2601.56 0.665408 -5.3135 0
M  V30 28237 C 2602.71 1.91878 -5.95763 0
M  V30 28238 H 2602.95 0.147344 -2.96935 0
M  V30 28239 H 2600.48 -0.0423295 -1.54342 0
M  V30 28240 H 2602.44 2.63691 -3.14606 0
M  V30 28241 H 2601.1 2.42405 -1.99746 0
M  V30 28242 H 2600.29 2.49807 -4.37736 0
M  V30 28243 H 2599.89 0.938262 -3.6204 0
M  V30 28244 H 2602.18 2.86477 -6.13952 0
M  V30 28245 H 2603.13 1.5493 -6.90943 0
M  V30 28246 H 2603.54 2.07591 -5.24944 0
M  V30 28247 N 2602.93 1.57593 0.0150108 0
M  V30 28248 C 2604.18 1.89532 0.70158 0
M  V30 28249 C 2604.5 0.857427 1.75138 0
M  V30 28250 O 2603.77 -0.10716 1.95607 0
M  V30 28251 H 2602.35 0.699502 0.262117 0
M  V30 28252 H 2605.02 1.94887 -0.0223647 0
M  V30 28253 H 2604.11 2.88839 1.18231 0
M  V30 28254 N 2604.41 -0.287527 1.54955 0
M  V30 28255 C 2605.83 -0.633938 1.4647 0
M  V30 28256 C 2606.03 -1.90144 0.666898 0
M  V30 28257 O 2605.08 -2.51858 0.17995 0
M  V30 28258 C 2606.4 -0.774402 2.90557 0
M  V30 28259 C 2607.95 -0.86941 3.00683 0
M  V30 28260 C 2608.42 -1.04177 4.45995 0
M  V30 28261 N 2609.91 -1.10764 4.49762 0
M  V30 28262 C 2610.65 -1.25954 5.59395 0
M  V30 28263 N 2610.14 -1.37956 6.78926 0
M  V30 28264 N 2611.94 -1.2895 5.47109 0
M  V30 28265 H 2604.09 0.545077 2.05287 0
M  V30 28266 H 2606.35 0.182325 0.930302 0
M  V30 28267 H 2606.06 0.0862688 3.51594 0
M  V30 28268 H 2605.93 -1.65924 3.38746 0
M  V30 28269 H 2608.32 -1.72056 2.39752 0
M  V30 28270 H 2608.4 0.0397281 2.55769 0
M  V30 28271 H 2608.04 -0.195333 5.07524 0
M  V30 28272 H 2607.97 -1.96533 4.88551 0
M  V30 28273 H 2610.46 -1.02788 3.63652 0
M  V30 28274 H 2610.78 -1.4934 7.58233 0
M  V30 28275 H 2609.12 -1.34987 6.81765 0
M  V30 28276 H 2612.31 -1.19194 4.5267 0
M  V30 28277 H 2612.48 -1.40444 6.32597 0
M  V30 28278 N 2605.89 -1.47641 -0.551365 0
M  V30 28279 C 2607.12 -1.58191 -1.33354 0
M  V30 28280 C 2607.53 -0.234232 -1.87341 0
M  V30 28281 O 2606.89 0.773401 -1.65302 0
M  V30 28282 C 2606.94 -2.61177 -2.49938 0
M  V30 28283 O 2606.66 -3.90713 -1.9818 0
M  V30 28284 C 2608.16 -2.81966 -3.42067 0
M  V30 28285 H 2605.38 -0.534005 -0.4063 0
M  V30 28286 H 2607.93 -1.93305 -0.667333 0
M  V30 28287 H 2606.08 -2.2898 -3.12485 0
M  V30 28288 H 2606.5 -4.47036 -2.74334 0
M  V30 28289 H 2607.97 -3.57876 -4.20272 0
M  V30 28290 H 2608.45 -1.90002 -3.95975 0
M  V30 28291 H 2609.05 -3.15383 -2.85331 0
M  V30 28292 N 2607.37 0.798563 -1.3587 0
M  V30 28293 C 2608.78 1.0953 -1.16084 0
M  V30 28294 C 2608.98 2.01489 0.021277 0
M  V30 28295 O 2608.04 2.42905 0.689445 0
M  V30 28296 C 2609.35 1.71856 -2.46751 0
M  V30 28297 C 2610.9 1.84239 -2.53031 0
M  V30 28298 C 2611.38 2.49981 -3.83762 0
M  V30 28299 N 2612.87 2.57458 -3.85058 0
M  V30 28300 C 2613.6 3.09114 -4.82945 0
M  V30 28301 N 2613.1 3.61146 -5.91224 0
M  V30 28302 N 2614.89 3.07741 -4.70374 0
M  V30 28303 H 2607.04 0.187424 -2.11571 0
M  V30 28304 H 2609.31 0.145749 -0.936729 0
M  V30 28305 H 2609.01 1.11753 -3.33473 0
M  V30 28306 H 2608.89 2.71467 -2.61888 0
M  V30 28307 H 2611.27 2.43483 -1.66733 0
M  V30 28308 H 2611.35 0.834601 -2.41802 0
M  V30 28309 H 2611 1.91385 -4.70462 0
M  V30 28310 H 2610.93 3.51313 -3.92284 0
M  V30 28311 H 2613.42 2.20604 -3.06826 0
M  V30 28312 H 2613.73 3.98885 -6.61899 0
M  V30 28313 H 2612.08 3.59323 -5.94905 0
M  V30 28314 H 2615.27 2.66375 -3.84918 0
M  V30 28315 H 2615.44 3.47691 -5.46823 0
M  V30 28316 N 2608.85 1.19999 1.02166 0
M  V30 28317 C 2610.09 1.00855 1.75944 0
M  V30 28318 C 2610.43 -0.458794 1.88703 0
M  V30 28319 O 2609.7 -1.34066 1.40913 0
M  V30 28320 C 2609.98 1.68677 3.18151 0
M  V30 28321 C 2609.84 3.22822 3.13218 0
M  V30 28322 C 2611.16 1.41569 4.16709 0
M  V30 28323 H 2608.27 0.367796 0.638666 0
M  V30 28324 H 2610.92 1.47942 1.19219 0
M  V30 28325 H 2609.07 1.28643 3.66583 0
M  V30 28326 H 2610.74 3.72117 2.72629 0
M  V30 28327 H 2608.98 3.53991 2.50745 0
M  V30 28328 H 2609.65 3.65429 4.13721 0
M  V30 28329 H 2612.13 1.76291 3.7691 0
M  V30 28330 H 2611 1.91563 5.14388 0
M  V30 28331 H 2611.27 0.342271 4.40773 0
M  V30 28332 N 2610.32 -1.21392 1.00507 0
M  V30 28333 C 2611.57 -1.90743 0.688826 0
M  V30 28334 C 2611.9 -1.77915 -0.778455 0
M  V30 28335 O 2611.18 -1.15584 -1.56431 0
M  V30 28336 C 2611.46 -3.42543 1.11069 0
M  V30 28337 C 2611.31 -3.64362 2.63743 0
M  V30 28338 C 2612.63 -4.34922 0.673135 0
M  V30 28339 H 2609.75 -0.692683 0.251714 0
M  V30 28340 H 2612.39 -1.43024 1.25076 0
M  V30 28341 H 2610.54 -3.83315 0.632575 0
M  V30 28342 H 2612.22 -3.32916 3.19319 0
M  V30 28343 H 2610.46 -3.08225 3.05253 0
M  V30 28344 H 2611.13 -4.70722 2.88313 0
M  V30 28345 H 2613.61 -4.01732 1.08399 0
M  V30 28346 H 2612.48 -5.39779 0.996478 0
M  V30 28347 H 2612.74 -4.40045 -0.425731 0
M  V30 28348 N 2611.8 -0.779811 -1.36955 0
M  V30 28349 C 2613.04 -0.353078 -2.01327 0
M  V30 28350 C 2613.41 1.05283 -1.6056 0
M  V30 28351 O 2614.61 1.58012 -2.17452 0
M  V30 28352 C 2612.88 -0.500884 -3.53873 0
M  V30 28353 S 2614.44 -0.160607 -4.38506 0
M  V30 28354 H 2611.26 -0.135402 -0.697988 0
M  V30 28355 H 2613.86 -1.0162 -1.67014 0
M  V30 28356 H 2612.56 -1.52458 -3.81031 0
M  V30 28357 H 2612.09 0.178505 -3.92995 0
M  V30 28358 H 2614.11 1.04113 -4.85155 0
M  V30 28359 N 2613.28 1.48384 -0.531019 0
M  V30 28360 C 2614.21 2.27624 0.268313 0
M  V30 28361 C 2615.23 1.35428 0.903501 0
M  V30 28362 O 2616.41 1.6047 0.781768 0
M  V30 28363 C 2613.51 3.08844 1.3953 0
M  V30 28364 C 2612.69 4.28825 0.861837 0
M  V30 28365 C 2611.75 4.91848 1.87008 0
M  V30 28366 O 2610.77 5.51032 1.4266 0
M  V30 28367 N 2611.97 4.84183 3.20229 0
M  V30 28368 H 2614.74 2.96865 -0.411283 0
M  V30 28369 H 2612.3 1.57722 -0.365415 0
M  V30 28370 H 2614.29 3.47875 2.06797 0
M  V30 28371 H 2612.86 2.42017 1.97854 0
M  V30 28372 H 2612.08 3.94198 0.0131433 0
M  V30 28373 H 2613.37 5.0649 0.484326 0
M  V30 28374 H 2612.77 4.37252 3.58925 0
M  V30 28375 H 2611.33 5.27311 3.83127 0
M  V30 28376 N 2614.76 0.2662 1.55336 0
M  V30 28377 C 2615.98 -0.359625 2.04258 0
M  V30 28378 C 2616.41 -1.49342 1.14362 0
M  V30 28379 O 2615.77 -1.80756 0.1404 0
M  V30 28380 C 2615.81 -0.826573 3.50999 0
M  V30 28381 O 2614.92 -1.93459 3.64208 0
M  V30 28382 H 2614.26 -0.0757154 0.659669 0
M  V30 28383 H 2616.79 0.397896 2.00694 0
M  V30 28384 H 2616.8 -1.1247 3.92192 0
M  V30 28385 H 2615.47 0.00300343 4.159 0
M  V30 28386 H 2614.05 -1.63969 3.34916 0
M  V30 28387 N 2616.24 -1.57599 -0.0066531 0
M  V30 28388 C 2617.18 -2.09117 -1.01847 0
M  V30 28389 C 2618.18 -1.00971 -1.36019 0
M  V30 28390 O 2619.38 -1.19442 -1.34661 0
M  V30 28391 H 2615.76 -0.667637 -0.346071 0
M  V30 28392 H 2617.73 -2.9313 -0.558343 0
M  V30 28393 C 2616.48 -2.60433 -2.3037 0
M  V30 28394 H 2615.8 -3.43277 -2.04941 0
M  V30 28395 H 2617.24 -3.00166 -2.9946 0
M  V30 28396 C 2615.7 -1.51548 -3.0089 0
M  V30 28397 O 2616.23 -0.894553 -3.91613 0
M  V30 28398 N 2614.44 -1.24455 -2.62601 0
M  V30 28399 H 2613.98 -1.75133 -1.88908 0
M  V30 28400 H 2613.94 -0.518192 -3.101 0
M  V30 28401 N 2617.72 0.279305 -1.55105 0
M  V30 28402 C 2618.66 1.36502 -1.88335 0
M  V30 28403 C 2619.66 1.51441 -0.75907 0
M  V30 28404 O 2620.86 1.53301 -0.943339 0
M  V30 28405 H 2617.24 0.456395 -0.597668 0
M  V30 28406 H 2619.21 1.05723 -2.79043 0
M  V30 28407 C 2617.96 2.71966 -2.16633 0
M  V30 28408 H 2617.28 2.61259 -3.02628 0
M  V30 28409 H 2618.72 3.4689 -2.43809 0
M  V30 28410 C 2617.18 3.22578 -0.971864 0
M  V30 28411 O 2617.71 4.01185 -0.203298 0
M  V30 28412 N 2615.92 2.80178 -0.771287 0
M  V30 28413 H 2615.46 2.16368 -1.39796 0
M  V30 28414 H 2615.42 3.14389 0.0263114 0
M  V30 28415 N 2619.19 1.47931 0.543528 0
M  V30 28416 C 2620.61 1.33752 0.870783 0
M  V30 28417 C 2620.81 0.338295 1.9864 0
M  V30 28418 O 2619.87 -0.245327 2.51305 0
M  V30 28419 C 2621.18 2.73438 1.25109 0
M  V30 28420 C 2622.73 2.81825 1.36175 0
M  V30 28421 C 2623.2 4.22182 1.77556 0
M  V30 28422 N 2624.69 4.2479 1.84682 0
M  V30 28423 C 2625.43 5.30319 2.18058 0
M  V30 28424 N 2624.92 6.46139 2.49951 0
M  V30 28425 N 2626.72 5.17705 2.18948 0
M  V30 28426 H 2618.87 2.11523 -0.192787 0
M  V30 28427 H 2621.13 0.947706 -0.0235944 0
M  V30 28428 H 2620.84 3.48054 0.505078 0
M  V30 28429 H 2620.71 3.06092 2.20426 0
M  V30 28430 H 2623.1 2.07472 2.09855 0
M  V30 28431 H 2623.18 2.52808 0.390124 0
M  V30 28432 H 2622.82 4.97046 1.0444 0
M  V30 28433 H 2622.75 4.48634 2.75745 0
M  V30 28434 H 2625.24 3.41241 1.62366 0
M  V30 28435 H 2625.56 7.22411 2.74485 0
M  V30 28436 H 2623.9 6.49437 2.47501 0
M  V30 28437 H 2627.09 4.26243 1.9348 0
M  V30 28438 H 2627.27 6.00051 2.44628 0
M  V30 28439 N 2620.67 -0.791347 1.36292 0
M  V30 28440 C 2621.6 -1.91822 1.33141 0
M  V30 28441 C 2622.58 -1.68882 0.203198 0
M  V30 28442 O 2623.77 -1.90024 0.400543 0
M  V30 28443 C 2620.9 -3.28814 1.11799 0
M  V30 28444 C 2619.85 -3.66273 2.21423 0
M  V30 28445 C 2619.18 -5.01593 1.85227 0
M  V30 28446 C 2620.48 -3.75058 3.63495 0
M  V30 28447 H 2622.17 -1.94716 2.27433 0
M  V30 28448 H 2619.72 -0.935418 1.0948 0
M  V30 28449 H 2621.67 -4.07264 1.08229 0
M  V30 28450 H 2620.39 -3.26302 0.139559 0
M  V30 28451 H 2619.05 -2.90118 2.24115 0
M  V30 28452 H 2618.7 -4.956 0.859631 0
M  V30 28453 H 2618.4 -5.27626 2.58621 0
M  V30 28454 H 2619.93 -5.82466 1.8321 0
M  V30 28455 H 2621.34 -4.43705 3.63042 0
M  V30 28456 H 2619.74 -4.12574 4.35778 0
M  V30 28457 H 2620.81 -2.76212 3.98541 0
M  V30 28458 N 2622.15 -1.2054 -1.01528 0
M  V30 28459 C 2623.38 -1.04202 -1.78744 0
M  V30 28460 C 2623.79 0.4087 -1.84323 0
M  V30 28461 O 2623.15 1.28374 -1.29716 0
M  V30 28462 C 2623.2 -1.6204 -3.23149 0
M  V30 28463 O 2622.92 -3.01435 -3.17913 0
M  V30 28464 C 2624.42 -1.50673 -4.16908 0
M  V30 28465 H 2621.64 -0.366488 -0.562074 0
M  V30 28466 H 2624.19 -1.59655 -1.27791 0
M  V30 28467 H 2622.34 -1.10704 -3.71246 0
M  V30 28468 H 2622.76 -3.28904 -4.08561 0
M  V30 28469 H 2624.23 -1.95901 -5.16069 0
M  V30 28470 H 2624.71 -0.45944 -4.3679 0
M  V30 28471 H 2625.31 -2.01207 -3.74694 0
M  V30 28472 N 2623.63 1.20858 -1.01149 0
M  V30 28473 C 2624.9 1.85741 -0.613169 0
M  V30 28474 C 2625.28 1.90528 0.90897 0
M  V30 28475 O 2624.63 1.40936 1.79859 0
M  V30 28476 C 2624.84 3.25652 -1.25506 0
M  V30 28477 C 2626.19 4.01984 -1.36727 0
M  V30 28478 O 2627.21 3.34987 -1.21088 0
M  V30 28479 O 2626.07 5.21953 -1.61949 0
M  V30 28480 H 2623.17 0.799658 -0.210892 0
M  V30 28481 H 2625.71 1.28488 -1.10855 0
M  V30 28482 H 2624.49 3.16904 -2.29537 0
M  V30 28483 H 2624.11 3.9053 -0.746438 0
M  V30 28484 N 2625.11 0.787064 1.3654 0
M  V30 28485 C 2626.02 0.184937 2.3387 0
M  V30 28486 C 2627.03 -0.661668 1.60928 0
M  V30 28487 O 2628.21 -0.578006 1.92928 0
M  V30 28488 C 2625.27 -0.672085 3.40123 0
M  V30 28489 C 2624.33 0.192746 4.28867 0
M  V30 28490 C 2623.57 -0.623468 5.30046 0
M  V30 28491 O 2623.79 -1.8596 5.39236 0
M  V30 28492 O 2622.72 -0.024601 6.01895 0
M  V30 28493 H 2626.55 0.989613 2.87124 0
M  V30 28494 H 2624.13 0.54848 1.38968 0
M  V30 28495 H 2626.02 -1.16087 4.05095 0
M  V30 28496 H 2624.69 -1.45469 2.89172 0
M  V30 28497 H 2623.6 0.72823 3.66944 0
M  V30 28498 H 2624.93 0.938807 4.83164 0
M  V30 28499 N 2626.58 -1.48101 0.53888 0
M  V30 28500 C 2627.81 -2.06896 0.01235 0
M  V30 28501 C 2628.23 -1.39419 -1.2731 0
M  V30 28502 O 2627.58 -0.484613 -1.75948 0
M  V30 28503 C 2627.63 -3.60912 -0.206055 0
M  V30 28504 O 2627.36 -4.25857 1.02847 0
M  V30 28505 C 2628.86 -4.36527 -0.771956 0
M  V30 28506 H 2626.08 -0.669949 0.0375357 0
M  V30 28507 H 2628.62 -1.90366 0.747065 0
M  V30 28508 H 2626.78 -3.77018 -0.890844 0
M  V30 28509 H 2627.19 -5.18133 0.814745 0
M  V30 28510 H 2628.66 -5.45034 -0.874155 0
M  V30 28511 H 2629.14 -4.01559 -1.77897 0
M  V30 28512 H 2629.75 -4.25121 -0.123451 0
M  V30 28513 N 2628.06 -0.274434 -1.55192 0
M  V30 28514 C 2628.97 0.623433 -2.26165 0
M  V30 28515 C 2629.99 1.17066 -1.28731 0
M  V30 28516 O 2631.16 1.20109 -1.61665 0
M  V30 28517 C 2628.23 1.79135 -2.96836 0
M  V30 28518 C 2627.29 1.28086 -4.09747 0
M  V30 28519 C 2626.52 2.39311 -4.77039 0
M  V30 28520 O 2626.75 3.58652 -4.43537 0
M  V30 28521 O 2625.68 2.07506 -5.65 0
M  V30 28522 H 2629.51 0.0485127 -3.03661 0
M  V30 28523 H 2627.09 -0.0418645 -1.49341 0
M  V30 28524 H 2628.97 2.47234 -3.41252 0
M  V30 28525 H 2627.65 2.35337 -2.22257 0
M  V30 28526 H 2626.55 0.566351 -3.69788 0
M  V30 28527 H 2627.89 0.764598 -4.86225 0
M  V30 28528 N 2629.54 1.576 -0.00170483 0
M  V30 28529 C 2630.77 1.94641 0.692719 0
M  V30 28530 C 2631.18 0.875159 1.67743 0
M  V30 28531 O 2630.52 -0.15435 1.8305 0
M  V30 28532 C 2630.58 3.27679 1.47875 0
M  V30 28533 C 2630.25 4.52275 0.655438 0
M  V30 28534 C 2631.24 5.19868 -0.0576128 0
M  V30 28535 C 2628.93 4.98693 0.600907 0
M  V30 28536 C 2630.92 6.32179 -0.814163 0
M  V30 28537 C 2628.61 6.10892 -0.159367 0
M  V30 28538 C 2629.61 6.77492 -0.865634 0
M  V30 28539 O 2629.3 7.87541 -1.6135 0
M  V30 28540 H 2629.03 0.64642 0.19778 0
M  V30 28541 H 2631.58 2.0534 -0.0494591 0
M  V30 28542 H 2629.81 3.13392 2.26545 0
M  V30 28543 H 2631.5 3.49819 2.05867 0
M  V30 28544 H 2632.27 4.84994 -0.0246464 0
M  V30 28545 H 2628.15 4.46678 1.14017 0
M  V30 28546 H 2631.69 6.84096 -1.36596 0
M  V30 28547 H 2627.59 6.45208 -0.194148 0
M  V30 28548 H 2628.35 8.04066 -1.53039 0
M  V30 28549 N 2631.02 -0.271076 1.55251 0
M  V30 28550 C 2632.27 -1.00044 1.75601 0
M  V30 28551 C 2632.59 -1.86749 0.56122 0
M  V30 28552 O 2631.86 -1.91261 -0.423813 0
M  V30 28553 H 2630.44 -0.372376 0.647569 0
M  V30 28554 H 2633.1 -0.294843 1.92657 0
M  V30 28555 H 2632.19 -1.63626 2.65769 0
M  V30 28556 N 2632.5 -1.48217 -0.535675 0
M  V30 28557 C 2633.74 -1.56175 -1.29372 0
M  V30 28558 C 2634.08 -0.232463 -1.92804 0
M  V30 28559 O 2633.35 0.761017 -1.78994 0
M  V30 28560 C 2633.63 -2.69581 -2.38743 0
M  V30 28561 C 2633.49 -4.12197 -1.80039 0
M  V30 28562 C 2634.81 -2.78777 -3.40546 0
M  V30 28563 H 2631.92 -0.5685 -0.469017 0
M  V30 28564 H 2634.57 -1.80366 -0.597326 0
M  V30 28565 H 2632.72 -2.49085 -2.98142 0
M  V30 28566 H 2634.39 -4.44116 -1.24734 0
M  V30 28567 H 2632.63 -4.19464 -1.10601 0
M  V30 28568 H 2633.3 -4.87358 -2.59204 0
M  V30 28569 H 2635.78 -2.97327 -2.91094 0
M  V30 28570 H 2634.65 -3.59865 -4.14474 0
M  V30 28571 H 2634.92 -1.86703 -4.00742 0
M  V30 28572 N 2633.97 0.784108 -1.3671 0
M  V30 28573 C 2634.92 1.89696 -1.31469 0
M  V30 28574 C 2635.89 1.65095 -0.182419 0
M  V30 28575 O 2637.08 1.87182 -0.369795 0
M  V30 28576 C 2634.22 3.26586 -1.11516 0
M  V30 28577 C 2633.33 3.63223 -2.33865 0
M  V30 28578 C 2632.46 4.89258 -2.06882 0
M  V30 28579 C 2631.5 5.1859 -3.25163 0
M  V30 28580 N 2630.64 6.35809 -2.97811 0
M  V30 28581 H 2635.48 1.93511 -2.26622 0
M  V30 28582 H 2633.02 0.946236 -1.12627 0
M  V30 28583 H 2634.98 4.05533 -0.979724 0
M  V30 28584 H 2633.61 3.22179 -0.200159 0
M  V30 28585 H 2632.66 2.79357 -2.58193 0
M  V30 28586 H 2633.97 3.80845 -3.22116 0
M  V30 28587 H 2633.12 5.76083 -1.90299 0
M  V30 28588 H 2631.86 4.73716 -1.1595 0
M  V30 28589 H 2630.87 4.30245 -3.423 0
M  V30 28590 H 2632.09 5.36047 -4.16929 0
M  V30 28591 H 2630.04 6.21649 -2.09496 0
M  V30 28592 H 2629.96 6.53788 -3.79602 0
M  V30 28593 H 2631.22 7.25602 -2.84818 0
M  V30 28594 N 2635.45 1.21076 1.00888 0
M  V30 28595 C 2636.68 1.05148 1.78189 0
M  V30 28596 C 2637.1 -0.398919 1.84537 0
M  V30 28597 O 2636.45 -1.27685 1.30395 0
M  V30 28598 C 2636.5 1.63752 3.22285 0
M  V30 28599 O 2636.22 3.03117 3.1631 0
M  V30 28600 C 2637.73 1.52882 4.16103 0
M  V30 28601 H 2634.95 0.369464 0.560123 0
M  V30 28602 H 2637.49 1.60331 1.26942 0
M  V30 28603 H 2635.64 1.12671 3.70654 0
M  V30 28604 H 2636.06 3.31066 4.06811 0
M  V30 28605 H 2637.53 1.98635 5.15022 0
M  V30 28606 H 2638.01 0.482598 4.36541 0
M  V30 28607 H 2638.62 2.03191 3.73622 0
M  V30 28608 N 2636.93 -1.2032 1.01789 0
M  V30 28609 C 2638.21 -1.85413 0.62301 0
M  V30 28610 C 2638.59 -1.91007 -0.898853 0
M  V30 28611 O 2637.94 -1.41887 -1.79109 0
M  V30 28612 C 2638.15 -3.24982 1.27231 0
M  V30 28613 C 2639.49 -4.01253 1.38857 0
M  V30 28614 O 2640.52 -3.3434 1.22863 0
M  V30 28615 O 2639.38 -5.21087 1.64715 0
M  V30 28616 H 2636.47 -0.798529 0.21513 0
M  V30 28617 H 2639.02 -1.27899 1.11535 0
M  V30 28618 H 2637.79 -3.15683 2.31215 0
M  V30 28619 H 2637.41 -3.90129 0.767138 0
M  V30 28620 N 2638.41 -0.794293 -1.3612 0
M  V30 28621 C 2639.63 -0.379907 -2.03891 0
M  V30 28622 C 2640.06 0.997223 -1.5949 0
M  V30 28623 O 2639.42 1.64338 -0.765681 0
M  V30 28624 C 2639.46 -0.457505 -3.57686 0
M  V30 28625 O 2638.57 0.533728 -4.08932 0
M  V30 28626 H 2637.91 -0.160552 -0.644297 0
M  V30 28627 H 2640.44 -1.07676 -1.73974 0
M  V30 28628 H 2640.45 -0.322864 -4.06721 0
M  V30 28629 H 2639.12 -1.46206 -3.89354 0
M  V30 28630 H 2637.7 0.360344 -3.71155 0
M  V30 28631 N 2639.89 1.47813 -0.546727 0
M  V30 28632 C 2641.13 2.02091 -0.0187392 0
M  V30 28633 C 2641.46 1.42449 1.33166 0
M  V30 28634 O 2640.73 0.595872 1.86618 0
M  V30 28635 H 2639.31 0.74699 -0.00393844 0
M  V30 28636 H 2641.97 1.81336 -0.714359 0
M  V30 28637 H 2641.06 3.12005 0.0771671 0
M  V30 28638 N 2641.36 0.28266 1.55044 0
M  V30 28639 C 2642.6 -0.333053 2.01668 0
M  V30 28640 C 2642.97 -1.52484 1.16673 0
M  V30 28641 O 2644.17 -2.21069 1.52911 0
M  V30 28642 C 2642.44 -0.698381 3.5051 0
M  V30 28643 S 2644 -1.29956 4.19115 0
M  V30 28644 H 2640.82 -0.103206 0.70347 0
M  V30 28645 H 2643.42 0.406255 1.91232 0
M  V30 28646 H 2642.12 0.177765 4.10015 0
M  V30 28647 H 2641.65 -1.46896 3.64946 0
M  V30 28648 H 2643.67 -2.58795 4.23367 0
M  V30 28649 N 2642.84 -1.57597 0.0100627 0
M  V30 28650 C 2644.25 -1.78978 -0.531394 0
M  V30 28651 C 2644.6 -0.918485 -1.73373 0
M  V30 28652 O 2643.73 -0.123673 -2.16046 0
M  V30 28653 C 2644.32 -3.24593 -0.970803 0
M  V30 28654 C 2642.88 -3.47036 -1.4575 0
M  V30 28655 C 2642.03 -2.74202 -0.413336 0
M  V30 28656 H 2644.98 -1.56933 0.236193 0
M  V30 28657 H 2645 -3.33259 -1.83627 0
M  V30 28658 H 2644.51 -3.87982 -0.0955211 0
M  V30 28659 H 2642.62 -2.88875 -2.35334 0
M  V30 28660 H 2642.73 -4.55732 -1.47802 0
M  V30 28661 H 2641.09 -2.39117 -0.877224 0
M  V30 28662 H 2641.88 -3.40296 0.453151 0
M  V30 28663 N 2644.32 0.262839 -1.55393 0
M  V30 28664 C 2645.6 1.01496 -1.67206 0
M  V30 28665 C 2645.98 2.03938 -0.545222 0
M  V30 28666 O 2645.33 2.23956 0.453427 0
M  V30 28667 C 2645.54 1.66265 -3.0685 0
M  V30 28668 C 2646.88 2.17048 -3.64932 0
M  V30 28669 O 2647.91 1.76234 -3.09548 0
M  V30 28670 O 2646.77 2.91939 -4.61989 0
M  V30 28671 H 2643.86 0.471426 -0.679475 0
M  V30 28672 H 2646.41 0.257889 -1.67729 0
M  V30 28673 H 2645.18 0.920848 -3.8031 0
M  V30 28674 H 2644.8 2.48633 -3.1027 0
M  V30 28675 N 2645.8 1.48499 0.527807 0
M  V30 28676 C 2647.05 1.56318 1.28098 0
M  V30 28677 C 2647.37 0.239815 1.9352 0
M  V30 28678 O 2646.64 -0.738817 1.81434 0
M  V30 28679 H 2645.22 0.575882 0.475783 0
M  V30 28680 H 2647.88 1.84975 0.614019 0
M  V30 28681 H 2646.98 2.34535 2.05912 0
M  V30 28682 N 2647.28 -0.776847 1.37123 0
M  V30 28683 C 2648.24 -1.87158 1.32304 0
M  V30 28684 C 2649.24 -1.59174 0.228127 0
M  V30 28685 O 2650.43 -1.67351 0.483672 0
M  V30 28686 C 2647.56 -3.24195 1.05406 0
M  V30 28687 H 2648.76 -1.92844 2.29676 0
M  V30 28688 H 2646.31 -0.976038 1.22079 0
M  V30 28689 H 2647.04 -3.24187 0.0854442 0
M  V30 28690 H 2646.83 -3.45898 1.84654 0
M  V30 28691 H 2648.32 -4.04269 1.04671 0
M  V30 28692 N 2648.76 -1.2161 -1.00244 0
M  V30 28693 C 2650.17 -0.973998 -1.26434 0
M  V30 28694 C 2650.37 0.338109 -1.98643 0
M  V30 28695 O 2649.43 1.06313 -2.29028 0
M  V30 28696 C 2650.74 -2.1663 -2.08547 0
M  V30 28697 C 2652.29 -2.20883 -2.21765 0
M  V30 28698 C 2652.76 -3.39639 -3.07261 0
M  V30 28699 N 2654.25 -3.39741 -3.14849 0
M  V30 28700 C 2654.99 -4.2828 -3.81266 0
M  V30 28701 N 2654.49 -5.2702 -4.49691 0
M  V30 28702 N 2656.28 -4.16081 -3.77932 0
M  V30 28703 H 2648.43 -2.05985 -0.518053 0
M  V30 28704 H 2650.69 -0.902119 -0.291352 0
M  V30 28705 H 2650.4 -3.1173 -1.62841 0
M  V30 28706 H 2650.27 -2.15902 -3.09299 0
M  V30 28707 H 2652.66 -1.26337 -2.66689 0
M  V30 28708 H 2652.74 -2.25654 -1.20474 0
M  V30 28709 H 2652.38 -4.3448 -2.63039 0
M  V30 28710 H 2652.31 -3.32107 -4.08672 0
M  V30 28711 H 2654.81 -2.68285 -2.66142 0
M  V30 28712 H 2655.12 -5.90876 -4.98082 0
M  V30 28713 H 2653.46 -5.30943 -4.4847 0
M  V30 28714 H 2656.65 -3.38201 -3.23632 0
M  V30 28715 H 2656.83 -4.8529 -4.29416 0
M  V30 28716 N 2650.23 1.19778 -1.02425 0
M  V30 28717 C 2651.47 1.91047 -0.726669 0
M  V30 28718 C 2651.84 1.77543 0.730915 0
M  V30 28719 O 2653.04 2.43364 1.14137 0
M  V30 28720 C 2651.31 3.38062 -1.1597 0
M  V30 28721 S 2652.87 4.27596 -0.985247 0
M  V30 28722 H 2649.69 0.659894 -0.26469 0
M  V30 28723 H 2652.29 1.44836 -1.31312 0
M  V30 28724 H 2650.99 3.45414 -2.21625 0
M  V30 28725 H 2650.52 3.89302 -0.566343 0
M  V30 28726 H 2652.54 4.96085 0.106858 0
M  V30 28727 N 2651.71 0.801501 1.35697 0
M  V30 28728 C 2652.94 0.391236 2.02862 0
M  V30 28729 C 2653.35 -1.00096 1.60553 0
M  V30 28730 O 2652.69 -1.65546 0.796244 0
M  V30 28731 C 2652.75 0.389362 3.57385 0
M  V30 28732 C 2652.42 1.7312 4.2294 0
M  V30 28733 C 2653.42 2.68867 4.44979 0
M  V30 28734 C 2651.1 2.01381 4.60164 0
M  V30 28735 C 2653.09 3.91062 5.03338 0
M  V30 28736 C 2650.78 3.23841 5.18238 0
M  V30 28737 C 2651.78 4.18499 5.39766 0
M  V30 28738 O 2651.47 5.38798 5.96617 0
M  V30 28739 H 2651.2 0.157743 0.657338 0
M  V30 28740 H 2653.75 1.08499 1.74405 0
M  V30 28741 H 2651.98 -0.360964 3.85012 0
M  V30 28742 H 2653.67 0.00210785 4.059 0
M  V30 28743 H 2654.44 2.48323 4.16606 0
M  V30 28744 H 2650.32 1.28516 4.42724 0
M  V30 28745 H 2653.86 4.64958 5.20057 0
M  V30 28746 H 2649.76 3.44257 5.46038 0
M  V30 28747 H 2650.53 5.40026 6.15073 0
M  V30 28748 N 2653.19 -1.47521 0.554558 0
M  V30 28749 C 2654.44 -2.02778 0.0295583 0
M  V30 28750 C 2654.77 -1.4283 -1.3158 0
M  V30 28751 O 2654.04 -0.582905 -1.8556 0
M  V30 28752 C 2654.33 -3.60039 -0.0663424 0
M  V30 28753 C 2654.18 -4.30425 1.30592 0
M  V30 28754 C 2655.5 -4.33113 -0.781086 0
M  V30 28755 H 2652.62 -0.736899 0.0122157 0
M  V30 28756 H 2655.26 -1.75979 0.716336 0
M  V30 28757 H 2653.41 -3.83003 -0.65124 0
M  V30 28758 H 2655.08 -4.18809 1.93382 0
M  V30 28759 H 2653.32 -3.90882 1.88131 0
M  V30 28760 H 2654 -5.38986 1.19156 0
M  V30 28761 H 2656.47 -4.15126 -0.284492 0
M  V30 28762 H 2655.35 -5.42784 -0.817142 0
M  V30 28763 H 2655.61 -4.02144 -1.83665 0
M  V30 28764 N 2654.67 -0.290879 -1.54892 0
M  V30 28765 C 2655.6 0.583044 -2.26104 0
M  V30 28766 C 2656.58 1.14617 -1.25686 0
M  V30 28767 O 2657.76 1.17739 -1.54439 0
M  V30 28768 C 2654.89 1.75982 -2.99412 0
M  V30 28769 C 2653.85 1.32751 -4.06892 0
M  V30 28770 C 2653.17 2.58864 -4.67861 0
M  V30 28771 C 2654.47 0.466148 -5.20216 0
M  V30 28772 H 2656.17 -0.0108741 -2.99398 0
M  V30 28773 H 2653.71 -0.00666999 -1.43998 0
M  V30 28774 H 2655.67 2.3772 -3.47947 0
M  V30 28775 H 2654.39 2.37981 -2.23679 0
M  V30 28776 H 2653.05 0.733236 -3.59192 0
M  V30 28777 H 2652.7 3.19156 -3.88778 0
M  V30 28778 H 2652.4 2.30644 -5.40442 0
M  V30 28779 H 2653.92 3.21424 -5.19152 0
M  V30 28780 H 2655.34 0.988948 -5.64706 0
M  V30 28781 H 2653.73 0.278155 -5.99455 0
M  V30 28782 H 2654.8 -0.511257 -4.82197 0
M  V30 28783 N 2656.15 1.57589 -0.0184203 0
M  V30 28784 C 2657.09 2.10711 0.985074 0
M  V30 28785 C 2658.09 1.03122 1.34395 0
M  V30 28786 O 2659.29 1.21569 1.32744 0
M  V30 28787 H 2655.67 0.673058 0.335406 0
M  V30 28788 H 2657.64 2.93981 0.511638 0
M  V30 28789 C 2656.39 2.64065 2.26197 0
M  V30 28790 H 2655.71 3.46494 1.99454 0
M  V30 28791 H 2657.15 3.04892 2.94647 0
M  V30 28792 C 2655.61 1.56315 2.98441 0
M  V30 28793 O 2656.14 0.956742 3.9014 0
M  V30 28794 N 2654.35 1.28617 2.60588 0
M  V30 28795 H 2653.89 1.78116 1.86098 0
M  V30 28796 H 2653.85 0.567461 3.09237 0
M  V30 28797 N 2657.62 -0.254594 1.5553 0
M  V30 28798 C 2659.03 -0.824256 1.6752 0
M  V30 28799 C 2659.39 -1.8633 0.614462 0
M  V30 28800 O 2658.51 -2.15057 -0.240698 0
M  V30 28801 C 2659.11 -1.50184 3.03694 0
M  V30 28802 C 2657.66 -2.01929 3.1765 0
M  V30 28803 C 2656.81 -0.8677 2.63375 0
M  V30 28804 H 2659.76 -0.0305564 1.58671 0
M  V30 28805 H 2659.78 -2.36957 2.9771 0
M  V30 28806 H 2659.3 -0.745364 3.80875 0
M  V30 28807 H 2657.4 -2.80481 2.45278 0
M  V30 28808 H 2657.51 -2.22196 4.24459 0
M  V30 28809 H 2655.87 -1.26612 2.21001 0
M  V30 28810 H 2656.66 -0.124437 3.43074 0
M  V30 28811 N 2659.1 -1.48777 -0.519925 0
M  V30 28812 C 2660.01 -1.66747 -1.65023 0
M  V30 28813 C 2661.03 -0.549983 -1.65079 0
M  V30 28814 O 2662.2 -0.822328 -1.83847 0
M  V30 28815 C 2659.27 -1.71244 -3.01457 0
M  V30 28816 C 2658.33 -2.94693 -3.12177 0
M  V30 28817 C 2657.56 -2.98965 -4.42103 0
M  V30 28818 O 2657.79 -2.1136 -5.29795 0
M  V30 28819 O 2656.72 -3.91241 -4.57399 0
M  V30 28820 H 2660.55 -2.62464 -1.52796 0
M  V30 28821 H 2658.13 -1.32296 -0.694134 0
M  V30 28822 H 2660.01 -1.76664 -3.82581 0
M  V30 28823 H 2658.69 -0.78703 -3.13987 0
M  V30 28824 H 2657.59 -2.94801 -2.30311 0
M  V30 28825 H 2658.93 -3.86652 -3.04568 0
M  V30 28826 N 2660.58 0.769564 -1.37534 0
M  V30 28827 C 2661.54 1.86454 -1.33295 0
M  V30 28828 C 2662.54 1.5905 -0.236565 0
M  V30 28829 O 2663.73 1.67092 -0.49254 0
M  V30 28830 C 2660.86 3.23631 -1.07124 0
M  V30 28831 H 2662.06 1.91623 -2.30696 0
M  V30 28832 H 2659.61 0.96955 -1.22594 0
M  V30 28833 H 2660.35 3.24138 -0.102635 0
M  V30 28834 H 2660.13 3.44914 -1.86485 0
M  V30 28835 H 2661.62 4.03709 -1.06813 0
M  V30 28836 N 2662.06 1.22139 0.995977 0
M  V30 28837 C 2663.3 1.04564 1.73765 0
M  V30 28838 C 2663.64 -0.418665 1.89633 0
M  V30 28839 O 2662.91 -1.31047 1.43725 0
M  V30 28840 C 2663.2 1.75387 3.14502 0
M  V30 28841 C 2663.05 3.29394 3.063 0
M  V30 28842 C 2664.37 1.50376 4.13612 0
M  V30 28843 H 2661.49 0.381261 0.630721 0
M  V30 28844 H 2664.13 1.50437 1.16054 0
M  V30 28845 H 2662.28 1.36389 3.63772 0
M  V30 28846 H 2663.95 3.77816 2.64674 0
M  V30 28847 H 2662.19 3.5923 2.4318 0
M  V30 28848 H 2662.86 3.74123 4.05877 0
M  V30 28849 H 2665.34 1.84246 3.73085 0
M  V30 28850 H 2664.22 2.0243 5.10209 0
M  V30 28851 H 2664.48 0.435688 4.39948 0
M  V30 28852 N 2663.54 -1.19233 1.03059 0
M  V30 28853 C 2664.48 -2.24556 0.606431 0
M  V30 28854 C 2665.48 -1.65491 -0.361797 0
M  V30 28855 O 2666.68 -1.78522 -0.230189 0
M  V30 28856 H 2663.06 -0.730666 0.177851 0
M  V30 28857 H 2665.03 -2.57648 1.50533 0
M  V30 28858 C 2663.78 -3.47691 -0.0251516 0
M  V30 28859 H 2663.1 -3.93429 0.710907 0
M  V30 28860 H 2664.54 -4.23042 -0.284856 0
M  V30 28861 C 2663 -3.11955 -1.27223 0
M  V30 28862 O 2663.53 -3.24766 -2.36411 0
M  V30 28863 N 2661.74 -2.66372 -1.16165 0
M  V30 28864 H 2661.28 -2.56148 -0.273144 0
M  V30 28865 H 2661.24 -2.42833 -1.99699 0
M  V30 28866 N 2665.01 -0.808686 -1.3527 0
M  V30 28867 C 2666.26 -0.386518 -1.97962 0
M  V30 28868 C 2666.58 1.05252 -1.64868 0
M  V30 28869 O 2667.78 1.5779 -2.2094 0
M  V30 28870 C 2666.24 -0.640158 -3.54161 0
M  V30 28871 C 2665.85 -2.09187 -3.96162 0
M  V30 28872 C 2667.59 -0.283451 -4.23553 0
M  V30 28873 C 2665.5 -2.29115 -5.45216 0
M  V30 28874 H 2664.43 -0.140787 -0.74074 0
M  V30 28875 H 2667.08 -0.993039 -1.54308 0
M  V30 28876 H 2665.46 0.0363421 -3.95983 0
M  V30 28877 H 2666.63 -2.80636 -3.65486 0
M  V30 28878 H 2664.95 -2.40865 -3.39666 0
M  V30 28879 H 2667.55 -0.410366 -5.33123 0
M  V30 28880 H 2667.89 0.770587 -4.09106 0
M  V30 28881 H 2668.42 -0.913952 -3.87159 0
M  V30 28882 H 2665.16 -3.32972 -5.64632 0
M  V30 28883 H 2664.68 -1.62194 -5.77454 0
M  V30 28884 H 2666.36 -2.10771 -6.11706 0
M  V30 28885 N 2666.49 1.47225 -0.562374 0
M  V30 28886 C 2667.72 2.07355 -0.0432997 0
M  V30 28887 C 2668.14 1.41151 1.2433 0
M  V30 28888 O 2667.5 0.488257 1.74602 0
M  V30 28889 C 2667.55 3.60365 0.130224 0
M  V30 28890 O 2666.65 3.9481 1.1916 0
M  V30 28891 H 2665.99 0.661829 -0.0536451 0
M  V30 28892 H 2668.52 1.89168 -0.779528 0
M  V30 28893 H 2668.53 4.06557 0.342809 0
M  V30 28894 H 2667.21 4.07947 -0.809461 0
M  V30 28895 H 2665.79 3.60355 0.95909 0
M  V30 28896 N 2667.97 0.299089 1.54736 0
M  V30 28897 C 2669.22 -0.310135 1.99706 0
M  V30 28898 C 2669.54 -1.54557 1.18899 0
M  V30 28899 O 2668.81 -1.93823 0.284479 0
M  V30 28900 H 2667.39 -0.117583 0.737688 0
M  V30 28901 H 2670.05 0.409976 1.90539 0
M  V30 28902 H 2669.15 -0.583496 3.06597 0
M  V30 28903 N 2669.45 -1.57577 0.0267774 0
M  V30 28904 C 2670.67 -1.96409 -0.666193 0
M  V30 28905 C 2671.1 -0.9031 -1.65002 0
M  V30 28906 O 2670.46 0.136231 -1.80787 0
M  V30 28907 C 2670.5 -3.34338 -1.35095 0
M  V30 28908 O 2669.61 -3.30536 -2.46617 0
M  V30 28909 H 2668.95 -0.640471 -0.175194 0
M  V30 28910 H 2671.48 -2.04411 0.0879336 0
M  V30 28911 H 2671.49 -3.70516 -1.70828 0
M  V30 28912 H 2670.16 -4.11104 -0.629771 0
M  V30 28913 H 2668.74 -3.06072 -2.13013 0
M  V30 28914 N 2670.93 0.246342 -1.55663 0
M  V30 28915 C 2671.87 1.30501 -1.90363 0
M  V30 28916 C 2672.84 1.47799 -0.757931 0
M  V30 28917 O 2674.03 1.61773 -1.01163 0
M  V30 28918 C 2671.17 2.65531 -2.20425 0
M  V30 28919 C 2670.28 2.56236 -3.47803 0
M  V30 28920 C 2669.42 3.83623 -3.67433 0
M  V30 28921 C 2668.46 3.68948 -4.8841 0
M  V30 28922 N 2667.59 4.88228 -5.04557 0
M  V30 28923 H 2672.43 1.00208 -2.80646 0
M  V30 28924 H 2669.97 0.483553 -1.38925 0
M  V30 28925 H 2671.93 3.44131 -2.35859 0
M  V30 28926 H 2670.56 2.93971 -1.33345 0
M  V30 28927 H 2669.61 1.69202 -3.40697 0
M  V30 28928 H 2670.92 2.41302 -4.36549 0
M  V30 28929 H 2670.08 4.70666 -3.82829 0
M  V30 28930 H 2668.81 4.01455 -2.76921 0
M  V30 28931 H 2667.82 2.80288 -4.72989 0
M  V30 28932 H 2669.04 3.5261 -5.80381 0
M  V30 28933 H 2666.99 5.0642 -4.16983 0
M  V30 28934 H 2666.91 4.75927 -5.87392 0
M  V30 28935 H 2668.18 5.76768 -5.24365 0
M  V30 28936 N 2672.4 1.4905 0.512027 0
M  V30 28937 C 2673.65 1.57668 1.26433 0
M  V30 28938 C 2673.97 0.260326 1.93254 0
M  V30 28939 O 2673.24 -0.719532 1.82207 0
M  V30 28940 H 2671.82 0.580896 0.469648 0
M  V30 28941 H 2674.49 1.85616 0.594366 0
M  V30 28942 H 2673.58 2.36706 2.03413 0
M  V30 28943 N 2673.88 -0.762259 1.3794 0
M  V30 28944 C 2674.85 -1.85744 1.34282 0
M  V30 28945 C 2675.85 -1.58923 0.244997 0
M  V30 28946 O 2677.04 -1.66828 0.501394 0
M  V30 28947 C 2674.17 -3.23059 1.08838 0
M  V30 28948 H 2675.36 -1.90397 2.31709 0
M  V30 28949 H 2672.91 -0.963035 1.23107 0
M  V30 28950 H 2673.65 -3.24079 0.119824 0
M  V30 28951 H 2673.43 -3.4392 1.88312 0
M  V30 28952 H 2674.92 -4.03137 1.08953 0
M  V30 28953 N 2675.36 -1.22666 -0.989486 0
M  V30 28954 C 2676.61 -1.05484 -1.73208 0
M  V30 28955 C 2676.94 0.408602 -1.89853 0
M  V30 28956 O 2676.21 1.30283 -1.44418 0
M  V30 28957 C 2676.5 -1.77052 -3.13567 0
M  V30 28958 C 2676.35 -3.31013 -3.04549 0
M  V30 28959 C 2677.67 -1.52567 -4.12809 0
M  V30 28960 H 2674.79 -0.3846 -0.62869 0
M  V30 28961 H 2677.43 -1.51051 -1.15255 0
M  V30 28962 H 2675.58 -1.38317 -3.63044 0
M  V30 28963 H 2677.25 -3.79215 -2.62667 0
M  V30 28964 H 2675.5 -3.60514 -2.41271 0
M  V30 28965 H 2676.17 -3.7627 -4.03887 0
M  V30 28966 H 2678.64 -1.86222 -3.72103 0
M  V30 28967 H 2677.52 -2.05133 -5.09128 0
M  V30 28968 H 2677.78 -0.459014 -4.39711 0
M  V30 28969 N 2676.84 1.18685 -1.0369 0
M  V30 28970 C 2678.09 1.8885 -0.739156 0
M  V30 28971 C 2678.42 1.79916 0.73101 0
M  V30 28972 O 2677.69 1.19691 1.53311 0
M  V30 28973 C 2677.98 3.39478 -1.20112 0
M  V30 28974 C 2677.83 3.57241 -2.73311 0
M  V30 28975 C 2679.15 4.32984 -0.78821 0
M  V30 28976 H 2676.27 0.685765 -0.269991 0
M  V30 28977 H 2678.91 1.39658 -1.28824 0
M  V30 28978 H 2677.06 3.81504 -0.733982 0
M  V30 28979 H 2678.73 3.24333 -3.28033 0
M  V30 28980 H 2676.97 3.00024 -3.13318 0
M  V30 28981 H 2677.65 4.62913 -3.00692 0
M  V30 28982 H 2680.12 3.98717 -1.19012 0
M  V30 28983 H 2679 5.36947 -1.13924 0
M  V30 28984 H 2679.26 4.41019 0.308911 0
M  V30 28985 N 2678.32 0.815849 1.34839 0
M  V30 28986 C 2679.27 0.205209 2.27075 0
M  V30 28987 C 2680.25 -0.626388 1.48207 0
M  V30 28988 O 2681.44 -0.482127 1.70307 0
M  V30 28989 C 2678.57 -0.637812 3.37323 0
M  V30 28990 C 2677.66 0.204023 4.23609 0
M  V30 28991 N 2678.05 1.27158 4.89555 0
M  V30 28992 C 2676.35 -0.0128187 4.45998 0
M  V30 28993 C 2677.05 1.7863 5.53594 0
M  V30 28994 N 2676.02 1.09129 5.32533 0
M  V30 28995 H 2679.83 1.02191 2.75561 0
M  V30 28996 H 2677.34 0.657938 1.48475 0
M  V30 28997 H 2679.34 -1.09139 4.02361 0
M  V30 28998 H 2678 -1.45276 2.90388 0
M  V30 28999 H 2679.01 1.65432 4.90767 0
M  V30 29000 H 2675.69 -0.796168 4.09838 0
M  V30 29001 H 2677.08 2.67903 6.1618 0
M  V30 29002 N 2679.8 -1.46924 0.570174 0
M  V30 29003 C 2680.73 -2.32963 -0.158233 0
M  V30 29004 C 2681.71 -1.44584 -0.896067 0
M  V30 29005 O 2682.89 -1.73422 -0.873991 0
M  V30 29006 C 2680.02 -3.26621 -1.1805 0
M  V30 29007 C 2678.98 -4.24343 -0.558305 0
M  V30 29008 C 2678.3 -5.07418 -1.68614 0
M  V30 29009 C 2679.6 -5.19936 0.496386 0
M  V30 29010 H 2681.3 -2.94114 0.560098 0
M  V30 29011 H 2678.84 -1.41431 0.2708 0
M  V30 29012 H 2680.79 -3.85661 -1.69834 0
M  V30 29013 H 2679.52 -2.63552 -1.92894 0
M  V30 29014 H 2678.18 -3.66548 -0.0616513 0
M  V30 29015 H 2677.83 -4.40743 -2.42394 0
M  V30 29016 H 2677.53 -5.73589 -1.27554 0
M  V30 29017 H 2679.05 -5.69319 -2.20699 0
M  V30 29018 H 2680.46 -5.73264 0.064106 0
M  V30 29019 H 2678.86 -5.9438 0.826595 0
M  V30 29020 H 2679.93 -4.64627 1.38743 0
M  V30 29021 N 2681.27 -0.307291 -1.54575 0
M  V30 29022 C 2682.21 0.599768 -2.21214 0
M  V30 29023 C 2683.22 1.09264 -1.20687 0
M  V30 29024 O 2684.41 1.00901 -1.47246 0
M  V30 29025 C 2681.51 1.83384 -2.84998 0
M  V30 29026 C 2680.68 1.48241 -4.11514 0
M  V30 29027 C 2679.74 2.57229 -4.59042 0
M  V30 29028 O 2678.77 2.22056 -5.24099 0
M  V30 29029 N 2679.97 3.87879 -4.31891 0
M  V30 29030 H 2682.73 0.0292548 -2.99686 0
M  V30 29031 H 2680.29 -0.129767 -1.61379 0
M  V30 29032 H 2682.29 2.55654 -3.13724 0
M  V30 29033 H 2680.86 2.31259 -2.10328 0
M  V30 29034 H 2680.08 0.592053 -3.89729 0
M  V30 29035 H 2681.36 1.22307 -4.93881 0
M  V30 29036 H 2680.76 4.19261 -3.79785 0
M  V30 29037 H 2679.32 4.56429 -4.65312 0
M  V30 29038 N 2682.75 1.57561 -0.0351337 0
M  V30 29039 C 2683.7 2.1058 0.944703 0
M  V30 29040 C 2684.67 1.0093 1.31918 0
M  V30 29041 O 2685.85 1.28385 1.41145 0
M  V30 29042 C 2682.99 2.64235 2.21978 0
M  V30 29043 C 2682.11 3.87915 1.90121 0
M  V30 29044 C 2681.24 4.29941 3.11968 0
M  V30 29045 C 2680.28 5.46364 2.75959 0
M  V30 29046 N 2679.42 5.83519 3.90449 0
M  V30 29047 H 2684.26 2.94016 0.485665 0
M  V30 29048 H 2681.79 1.4532 0.228118 0
M  V30 29049 H 2683.75 2.93435 2.96566 0
M  V30 29050 H 2682.38 1.83621 2.65487 0
M  V30 29051 H 2681.43 3.65406 1.05749 0
M  V30 29052 H 2682.75 4.72576 1.59605 0
M  V30 29053 H 2681.9 4.6061 3.94871 0
M  V30 29054 H 2680.64 3.44059 3.45651 0
M  V30 29055 H 2679.64 5.15383 1.91469 0
M  V30 29056 H 2680.87 6.33949 2.43486 0
M  V30 29057 H 2678.82 5.00591 4.23963 0
M  V30 29058 H 2678.73 6.62833 3.63576 0
M  V30 29059 H 2680 6.18795 4.74039 0
M  V30 29060 N 2684.23 -0.238084 1.55791 0
M  V30 29061 C 2685.46 -0.982201 1.821 0
M  V30 29062 C 2685.87 -1.78604 0.612057 0
M  V30 29063 O 2685.23 -1.77617 -0.41935 0
M  V30 29064 C 2685.28 -1.91303 3.06733 0
M  V30 29065 O 2685 -1.14171 4.22962 0
M  V30 29066 C 2686.5 -2.77241 3.45908 0
M  V30 29067 H 2683.72 -0.288625 0.605753 0
M  V30 29068 H 2686.27 -0.258305 2.02862 0
M  V30 29069 H 2684.42 -2.59109 2.87995 0
M  V30 29070 H 2684.84 -1.77211 4.93656 0
M  V30 29071 H 2686.31 -3.38287 4.36195 0
M  V30 29072 H 2686.79 -3.48802 2.66897 0
M  V30 29073 H 2687.39 -2.14874 3.67027 0
M  V30 29074 N 2685.71 -1.4932 -0.504115 0
M  V30 29075 C 2686.96 -1.58336 -1.25595 0
M  V30 29076 C 2687.28 -0.270572 -1.93114 0
M  V30 29077 O 2686.55 0.709859 -1.82586 0
M  V30 29078 H 2685.13 -0.583378 -0.466561 0
M  V30 29079 H 2687.79 -1.85929 -0.584514 0
M  V30 29080 H 2686.88 -2.37781 -2.02154 0
M  V30 29081 N 2687.19 0.754933 -1.38342 0
M  V30 29082 C 2688.43 1.51103 -1.3421 0
M  V30 29083 C 2688.75 1.94882 0.0677291 0
M  V30 29084 O 2688.02 1.67546 1.01515 0
M  V30 29085 H 2686.6 0.560484 -0.493828 0
M  V30 29086 H 2689.27 0.897476 -1.73007 0
M  V30 29087 H 2688.36 2.40256 -1.99207 0
M  V30 29088 N 2688.66 1.23189 0.982967 0
M  V30 29089 C 2689.57 1.02743 2.10905 0
M  V30 29090 C 2690.59 -0.0272883 1.73979 0
M  V30 29091 O 2691.77 0.167605 2.00701 0
M  V30 29092 C 2688.83 0.618364 3.41141 0
M  V30 29093 C 2687.89 1.74784 3.92109 0
M  V30 29094 C 2687.12 1.35819 5.16129 0
M  V30 29095 O 2687.35 0.241301 5.69889 0
M  V30 29096 O 2686.28 2.17834 5.61099 0
M  V30 29097 H 2690.11 1.97112 2.31042 0
M  V30 29098 H 2687.69 1.01871 1.09282 0
M  V30 29099 H 2689.57 0.401056 4.19487 0
M  V30 29100 H 2688.25 -0.296364 3.2234 0
M  V30 29101 H 2687.16 2.01976 3.14891 0
M  V30 29102 H 2688.49 2.64079 4.15359 0
M  V30 29103 N 2690.14 -1.18133 1.04318 0
M  V30 29104 C 2691.39 -1.88177 0.748053 0
M  V30 29105 C 2691.72 -1.80508 -0.724379 0
M  V30 29106 O 2690.97 -1.20168 -1.54461 0
M  V30 29107 C 2691.27 -3.37956 1.16277 0
M  V30 29108 C 2690.94 -3.65829 2.63591 0
M  V30 29109 C 2689.6 -3.73145 3.03835 0
M  V30 29110 C 2691.95 -3.7801 3.58829 0
M  V30 29111 C 2689.28 -3.90125 4.382 0
M  V30 29112 C 2691.63 -3.96506 4.92916 0
M  V30 29113 C 2690.29 -4.02059 5.32827 0
M  V30 29114 H 2689.56 -0.688587 0.273732 0
M  V30 29115 H 2692.21 -1.39808 1.30866 0
M  V30 29116 H 2690.52 -3.8832 0.521007 0
M  V30 29117 H 2692.21 -3.90497 0.911741 0
M  V30 29118 H 2688.8 -3.60753 2.31421 0
M  V30 29119 H 2692.99 -3.71687 3.28881 0
M  V30 29120 H 2688.24 -3.92669 4.68638 0
M  V30 29121 H 2692.42 -4.04873 5.66614 0
M  V30 29122 H 2690.04 -4.14968 6.3695 0
M  V30 29123 N 2691.62 -0.822988 -1.34405 0
M  V30 29124 C 2692.85 -0.424075 -2.02507 0
M  V30 29125 C 2693.26 0.969994 -1.61977 0
M  V30 29126 O 2692.62 1.62775 -0.825257 0
M  V30 29127 C 2692.67 -0.51672 -3.57788 0
M  V30 29128 O 2692.39 -1.85584 -3.9685 0
M  V30 29129 C 2693.89 -0.112715 -4.43157 0
M  V30 29130 H 2691.11 -0.170184 -0.64906 0
M  V30 29131 H 2693.66 -1.11116 -1.71678 0
M  V30 29132 H 2691.81 0.122285 -3.87207 0
M  V30 29133 H 2692.23 -1.83014 -4.91535 0
M  V30 29134 H 2693.7 -0.228623 -5.51526 0
M  V30 29135 H 2694.18 0.943761 -4.2894 0
M  V30 29136 H 2694.78 -0.725522 -4.19066 0
M  V30 29137 N 2693.1 1.4662 -0.577957 0
M  V30 29138 C 2694.34 2.04299 -0.0643456 0
M  V30 29139 C 2694.7 1.44028 1.26964 0
M  V30 29140 O 2695.9 1.92878 1.8722 0
M  V30 29141 C 2694.17 3.574 0.00541306 0
M  V30 29142 S 2695.73 4.3636 0.462139 0
M  V30 29143 H 2692.55 0.71013 -0.0351698 0
M  V30 29144 H 2695.15 1.79724 -0.769382 0
M  V30 29145 H 2693.86 3.98784 -0.969493 0
M  V30 29146 H 2693.39 3.86504 0.733367 0
M  V30 29147 H 2695.4 4.65516 1.71783 0
M  V30 29148 N 2694.58 0.315484 1.5441 0
M  V30 29149 C 2695.82 -0.289936 2.00717 0
M  V30 29150 C 2696.16 -1.52418 1.20342 0
M  V30 29151 O 2695.43 -1.92421 0.283613 0
M  V30 29152 C 2695.71 -0.632134 3.54508 0
M  V30 29153 C 2695.57 0.612258 4.45614 0
M  V30 29154 C 2696.89 -1.45297 4.15424 0
M  V30 29155 H 2694 -0.103907 0.729638 0
M  V30 29156 H 2696.65 0.430459 1.8506 0
M  V30 29157 H 2694.8 -1.24588 3.67981 0
M  V30 29158 H 2696.47 1.25061 4.44024 0
M  V30 29159 H 2694.71 1.24271 4.15619 0
M  V30 29160 H 2695.38 0.328476 5.51022 0
M  V30 29161 H 2697.86 -0.934259 4.05476 0
M  V30 29162 H 2696.73 -1.66117 5.2316 0
M  V30 29163 H 2697 -2.44665 3.68228 0
M  V30 29164 N 2696.05 -1.5754 0.0434891 0
M  V30 29165 C 2697.28 -1.96694 -0.641801 0
M  V30 29166 C 2697.7 -0.920681 -1.6483 0
M  V30 29167 O 2697.05 0.0959609 -1.82248 0
M  V30 29168 C 2697.11 -3.35926 -1.33551 0
M  V30 29169 O 2696.83 -4.3654 -0.369326 0
M  V30 29170 C 2698.33 -3.89795 -2.11128 0
M  V30 29171 H 2695.55 -0.647506 -0.176001 0
M  V30 29172 H 2698.09 -2.04217 0.107513 0
M  V30 29173 H 2696.25 -3.29577 -2.03611 0
M  V30 29174 H 2696.66 -5.17342 -0.863583 0
M  V30 29175 H 2698.13 -4.89519 -2.55099 0
M  V30 29176 H 2698.61 -3.24808 -2.95629 0
M  V30 29177 H 2699.22 -3.99457 -1.45995 0
M  V30 29178 N 2697.53 0.229818 -1.55915 0
M  V30 29179 C 2698.5 1.26821 -1.90916 0
M  V30 29180 C 2699.5 1.40223 -0.787024 0
M  V30 29181 O 2700.69 1.3863 -1.05486 0
M  V30 29182 C 2697.82 2.64333 -2.15269 0
M  V30 29183 H 2699.01 0.969948 -2.83782 0
M  V30 29184 H 2696.56 0.469873 -1.4907 0
M  V30 29185 H 2697.3 2.99272 -1.24928 0
M  V30 29186 H 2697.08 2.55984 -2.9701 0
M  V30 29187 H 2698.57 3.3928 -2.43473 0
M  V30 29188 N 2699.01 1.49585 0.49619 0
M  V30 29189 C 2700.24 1.63297 1.27862 0
M  V30 29190 C 2700.66 0.306188 1.85591 0
M  V30 29191 O 2700.02 -0.726822 1.66093 0
M  V30 29192 C 2700.07 2.70794 2.38123 0
M  V30 29193 O 2699.17 2.30302 3.42104 0
M  V30 29194 H 2698.51 0.54641 0.37727 0
M  V30 29195 H 2701.04 1.95804 0.593462 0
M  V30 29196 H 2701.05 2.93109 2.83815 0
M  V30 29197 H 2699.73 3.67101 1.95472 0
M  V30 29198 H 2698.3 2.18336 3.02297 0
M  V30 29199 N 2700.49 -0.747586 1.3874 0
M  V30 29200 C 2701.74 -1.50389 1.3501 0
M  V30 29201 C 2702.06 -1.94916 -0.0573931 0
M  V30 29202 O 2701.33 -1.68082 -1.00625 0
M  V30 29203 H 2699.91 -0.557857 0.496794 0
M  V30 29204 H 2702.57 -0.888289 1.7348 0
M  V30 29205 H 2701.67 -2.39196 2.00478 0
M  V30 29206 N 2701.97 -1.23709 -0.97642 0
M  V30 29207 C 2703.19 -1.09836 -1.75339 0
M  V30 29208 C 2703.61 0.349852 -1.8553 0
M  V30 29209 O 2702.97 1.24183 -1.33735 0
M  V30 29210 C 2703.02 -1.72239 -3.1783 0
M  V30 29211 O 2702.74 -3.11397 -3.08162 0
M  V30 29212 C 2704.24 -1.63861 -4.11904 0
M  V30 29213 H 2701.46 -0.384185 -0.55013 0
M  V30 29214 H 2704 -1.6364 -1.22647 0
M  V30 29215 H 2702.16 -1.22459 -3.67536 0
M  V30 29216 H 2702.57 -3.41736 -3.97891 0
M  V30 29217 H 2704.05 -2.1222 -5.09575 0
M  V30 29218 H 2704.52 -0.598169 -4.35108 0
M  V30 29219 H 2705.13 -2.13026 -3.68103 0
M  V30 29220 N 2703.44 1.17579 -1.04943 0
M  V30 29221 C 2704.86 1.69417 -0.784531 0
M  V30 29222 C 2705.21 1.83531 0.693593 0
M  V30 29223 O 2704.33 1.52108 1.53922 0
M  V30 29224 C 2704.93 3.0772 -1.41752 0
M  V30 29225 C 2703.49 3.56735 -1.20072 0
M  V30 29226 C 2702.63 2.33058 -1.50264 0
M  V30 29227 H 2705.58 1.02131 -1.2147 0
M  V30 29228 H 2705.6 3.71439 -0.825447 0
M  V30 29229 H 2705.12 2.97415 -2.4933 0
M  V30 29230 H 2703.22 3.72321 -0.144071 0
M  V30 29231 H 2703.33 4.39645 -1.90392 0
M  V30 29232 H 2701.69 2.37401 -0.92264 0
M  V30 29233 H 2702.48 2.25364 -2.58971 0
M  V30 29234 N 2704.92 0.830104 1.33967 0
M  V30 29235 C 2705.89 0.26239 2.27693 0
M  V30 29236 C 2706.89 -0.563849 1.5059 0
M  V30 29237 O 2708.08 -0.378911 1.70029 0
M  V30 29238 C 2705.21 -0.631321 3.35003 0
M  V30 29239 H 2706.4 1.08933 2.79417 0
M  V30 29240 H 2703.95 0.602512 1.4422 0
M  V30 29241 H 2704.69 -1.48104 2.88506 0
M  V30 29242 H 2704.47 -0.0402587 3.92079 0
M  V30 29243 H 2705.96 -1.0221 4.04899 0
M  V30 29244 N 2706.4 -1.46311 0.585725 0
M  V30 29245 C 2707.65 -2.0237 0.0724566 0
M  V30 29246 C 2707.98 -1.45685 -1.28865 0
M  V30 29247 O 2707.23 -0.612978 -1.85852 0
M  V30 29248 C 2707.53 -3.57378 -0.0400683 0
M  V30 29249 C 2707.2 -4.33116 1.25384 0
M  V30 29250 C 2705.86 -4.53527 1.60832 0
M  V30 29251 C 2708.21 -4.76582 2.10995 0
M  V30 29252 C 2705.54 -5.14656 2.81685 0
M  V30 29253 C 2707.89 -5.39046 3.31077 0
M  V30 29254 C 2706.55 -5.57684 3.66804 0
M  V30 29255 H 2705.82 -0.740526 0.0265138 0
M  V30 29256 H 2708.47 -1.75645 0.762966 0
M  V30 29257 H 2706.78 -3.83257 -0.813723 0
M  V30 29258 H 2708.47 -3.98433 -0.453008 0
M  V30 29259 H 2705.06 -4.17528 0.967881 0
M  V30 29260 H 2709.25 -4.60566 1.84912 0
M  V30 29261 H 2704.5 -5.27276 3.09499 0
M  V30 29262 H 2708.68 -5.71684 3.97682 0
M  V30 29263 H 2706.3 -6.0482 4.6054 0
M  V30 29264 N 2707.88 -0.323668 -1.54241 0
M  V30 29265 C 2709.13 0.278875 -2.00571 0
M  V30 29266 C 2709.45 1.52134 -1.21184 0
M  V30 29267 O 2708.71 1.93656 -0.282077 0
M  V30 29268 C 2709.01 0.657969 -3.51291 0
M  V30 29269 C 2708.67 -0.485331 -4.4828 0
M  V30 29270 C 2707.34 -0.799139 -4.74518 0
M  V30 29271 C 2709.69 -1.2533 -5.05907 0
M  V30 29272 C 2707.02 -1.88364 -5.5564 0
M  V30 29273 C 2709.37 -2.3279 -5.88211 0
M  V30 29274 C 2708.03 -2.64752 -6.1275 0
M  V30 29275 H 2707.3 0.102047 -0.73394 0
M  V30 29276 H 2709.95 -0.447468 -1.86199 0
M  V30 29277 H 2708.25 1.46474 -3.6339 0
M  V30 29278 H 2709.95 1.13573 -3.8458 0
M  V30 29279 H 2706.54 -0.230668 -4.27979 0
M  V30 29280 H 2710.73 -1.02412 -4.85619 0
M  V30 29281 H 2705.98 -2.13574 -5.72884 0
M  V30 29282 H 2710.16 -2.92741 -6.31883 0
M  V30 29283 H 2707.78 -3.48915 -6.75398 0
M  V30 29284 N 2709.36 1.57515 -0.0518432 0
M  V30 29285 C 2710.63 1.84068 0.661694 0
M  V30 29286 C 2711.01 0.940384 1.88997 0
M  V30 29287 O 2710.36 0.0015942 2.285 0
M  V30 29288 C 2710.57 3.33812 1.01835 0
M  V30 29289 C 2711.92 4.00843 1.40036 0
M  V30 29290 O 2712.94 3.38441 1.11067 0
M  V30 29291 O 2711.8 5.10869 1.94102 0
M  V30 29292 H 2708.9 0.759739 0.326688 0
M  V30 29293 H 2711.44 1.69505 -0.0812575 0
M  V30 29294 H 2710.22 3.91031 0.145134 0
M  V30 29295 H 2709.84 3.53565 1.81873 0
M  V30 29296 N 2710.84 -0.221546 1.56035 0
M  V30 29297 C 2711.77 -1.27776 1.95436 0
M  V30 29298 C 2712.75 -1.48887 0.82259 0
M  V30 29299 O 2713.93 -1.61071 1.08489 0
M  V30 29300 C 2711.06 -2.62755 2.27106 0
M  V30 29301 C 2710.02 -2.563 3.42774 0
M  V30 29302 C 2709.34 -3.95308 3.60049 0
M  V30 29303 C 2710.64 -2.11084 4.77745 0
M  V30 29304 H 2712.34 -0.950454 2.83913 0
M  V30 29305 H 2709.88 -0.455767 1.36597 0
M  V30 29306 H 2711.83 -3.36803 2.53262 0
M  V30 29307 H 2710.56 -2.97173 1.35483 0
M  V30 29308 H 2709.22 -1.84709 3.16667 0
M  V30 29309 H 2708.87 -4.27034 2.65802 0
M  V30 29310 H 2708.57 -3.91871 4.37848 0
M  V30 29311 H 2710.09 -4.71018 3.88554 0
M  V30 29312 H 2711.5 -2.74876 5.03106 0
M  V30 29313 H 2709.9 -2.18707 5.58827 0
M  V30 29314 H 2710.97 -1.06313 4.73102 0
M  V30 29315 N 2712.31 -1.49846 -0.48825 0
M  V30 29316 C 2713.26 -1.67453 -1.58833 0
M  V30 29317 C 2714.23 -0.515885 -1.57886 0
M  V30 29318 O 2715.42 -0.744434 -1.75678 0
M  V30 29319 C 2712.56 -1.7589 -2.96912 0
M  V30 29320 C 2711.67 -3.03144 -3.07779 0
M  V30 29321 C 2710.8 -3.0248 -4.36668 0
M  V30 29322 C 2709.84 -4.2426 -4.41214 0
M  V30 29323 N 2708.98 -4.21434 -5.6155 0
M  V30 29324 H 2713.82 -2.61379 -1.43127 0
M  V30 29325 H 2711.36 -1.29584 -0.696163 0
M  V30 29326 H 2713.31 -1.78762 -3.76962 0
M  V30 29327 H 2711.94 -0.854195 -3.11293 0
M  V30 29328 H 2711 -3.09823 -2.20712 0
M  V30 29329 H 2712.31 -3.93133 -3.06998 0
M  V30 29330 H 2711.46 -3.03986 -5.2505 0
M  V30 29331 H 2710.2 -2.10291 -4.40033 0
M  V30 29332 H 2709.21 -4.22984 -3.51233 0
M  V30 29333 H 2710.43 -5.17656 -4.39555 0
M  V30 29334 H 2708.38 -3.32088 -5.65733 0
M  V30 29335 H 2708.29 -5.05172 -5.62438 0
M  V30 29336 H 2709.56 -4.27061 -6.52104 0
M  V30 29337 N 2713.79 0.740218 -1.39135 0
M  V30 29338 C 2714.74 1.87554 -1.37573 0
M  V30 29339 C 2715.73 1.67399 -0.259623 0
M  V30 29340 O 2716.94 1.74804 -0.42938 0
M  V30 29341 H 2713.31 0.617293 -0.42948 0
M  V30 29342 H 2715.29 1.85987 -2.33349 0
M  V30 29343 C 2714.03 3.25182 -1.23093 0
M  V30 29344 H 2713.36 3.41284 -2.08243 0
M  V30 29345 H 2714.8 4.04828 -1.26056 0
M  V30 29346 C 2713.26 3.36845 0.0610879 0
M  V30 29347 O 2713.79 3.88185 1.03321 0
M  V30 29348 N 2711.99 2.90342 0.122403 0
M  V30 29349 H 2711.54 2.48751 -0.669373 0
M  V30 29350 H 2711.5 2.98525 0.98641 0
M  V30 29351 N 2715.27 1.24225 0.969846 0
M  V30 29352 C 2716.2 1.05733 2.08189 0
M  V30 29353 C 2717.18 -0.0290466 1.70075 0
M  V30 29354 O 2718.37 0.137617 1.93712 0
M  V30 29355 C 2715.5 0.659055 3.40989 0
M  V30 29356 C 2714.45 1.69396 3.93051 0
M  V30 29357 C 2713.78 1.15081 5.22169 0
M  V30 29358 C 2715.08 3.08943 4.21132 0
M  V30 29359 H 2716.77 1.9875 2.23917 0
M  V30 29360 H 2714.32 0.956986 1.076 0
M  V30 29361 H 2716.27 0.516694 4.1822 0
M  V30 29362 H 2714.99 -0.306802 3.25156 0
M  V30 29363 H 2713.65 1.8245 3.17974 0
M  V30 29364 H 2713.3 0.175627 5.02693 0
M  V30 29365 H 2713 1.84238 5.57969 0
M  V30 29366 H 2714.52 1.02053 6.02011 0
M  V30 29367 H 2715.94 2.9913 4.89075 0
M  V30 29368 H 2714.33 3.75433 4.68156 0
M  V30 29369 H 2715.4 3.57142 3.2799 0
M  V30 29370 N 2716.75 -1.1702 1.05565 0
M  V30 29371 C 2717.69 -2.21164 0.659932 0
M  V30 29372 C 2718.66 -1.62587 -0.339785 0
M  V30 29373 O 2719.85 -1.89404 -0.230344 0
M  V30 29374 C 2716.99 -3.45071 0.0447904 0
M  V30 29375 C 2716.1 -4.17924 1.09379 0
M  V30 29376 C 2715.24 -5.29328 0.445574 0
M  V30 29377 C 2714.28 -5.93972 1.47863 0
M  V30 29378 N 2713.41 -6.96883 0.854295 0
M  V30 29379 H 2718.25 -2.54367 1.55247 0
M  V30 29380 H 2715.79 -1.24944 0.776358 0
M  V30 29381 H 2717.75 -4.15898 -0.329331 0
M  V30 29382 H 2716.38 -3.12441 -0.811189 0
M  V30 29383 H 2715.43 -3.45774 1.58571 0
M  V30 29384 H 2716.74 -4.62103 1.87782 0
M  V30 29385 H 2715.9 -6.06697 0.0180755 0
M  V30 29386 H 2714.64 -4.86291 -0.370396 0
M  V30 29387 H 2713.64 -5.15331 1.9161 0
M  V30 29388 H 2714.87 -6.39089 2.29656 0
M  V30 29389 H 2712.81 -6.55974 0.0589035 0
M  V30 29390 H 2712.73 -7.39395 1.5758 0
M  V30 29391 H 2714 -7.7819 0.451696 0
M  V30 29392 N 2718.23 -0.837197 -1.33524 0
M  V30 29393 C 2719.47 -0.431246 -1.97445 0
M  V30 29394 C 2719.79 1.01252 -1.66652 0
M  V30 29395 O 2719.06 1.70507 -0.964589 0
M  V30 29396 H 2717.64 -0.156476 -0.730427 0
M  V30 29397 H 2720.31 -1.06979 -1.62916 0
M  V30 29398 H 2719.4 -0.561931 -3.07 0
M  V30 29399 N 2719.7 1.45999 -0.593476 0
M  V30 29400 C 2720.95 2.03193 -0.091686 0
M  V30 29401 C 2721.3 1.45544 1.25837 0
M  V30 29402 O 2720.6 0.615223 1.81454 0
M  V30 29403 C 2720.79 3.57394 0.0211152 0
M  V30 29404 C 2720.62 4.29999 -1.31646 0
M  V30 29405 C 2719.39 4.68483 -1.89345 0
M  V30 29406 C 2721.59 4.62855 -2.24208 0
M  V30 29407 N 2719.57 5.25886 -3.16729 0
M  V30 29408 C 2720.94 5.20942 -3.36184 0
M  V30 29409 C 2723 4.4479 -2.23756 0
M  V30 29410 C 2721.7 5.62867 -4.47854 0
M  V30 29411 C 2723.73 4.87739 -3.34462 0
M  V30 29412 C 2723.09 5.45905 -4.45159 0
M  V30 29413 H 2719.19 0.778241 -0.076585 0
M  V30 29414 H 2721.77 1.78009 -0.788736 0
M  V30 29415 H 2719.94 3.8227 0.687355 0
M  V30 29416 H 2721.67 4.01237 0.528273 0
M  V30 29417 H 2718.43 4.51586 -1.42712 0
M  V30 29418 H 2718.85 5.59099 -3.81755 0
M  V30 29419 H 2723.49 3.99145 -1.3944 0
M  V30 29420 H 2721.21 6.07485 -5.32905 0
M  V30 29421 H 2724.8 4.75503 -3.35243 0
M  V30 29422 H 2723.68 5.78529 -5.29409 0
M  V30 29423 N 2721.18 0.331843 1.54067 0
M  V30 29424 C 2722.41 -0.272669 2.056 0
M  V30 29425 C 2722.83 -1.44357 1.20593 0
M  V30 29426 O 2722.19 -1.79997 0.216939 0
M  V30 29427 C 2722.24 -0.676958 3.54189 0
M  V30 29428 O 2721.34 -1.77838 3.72085 0
M  V30 29429 H 2720.68 -0.0476685 0.662287 0
M  V30 29430 H 2723.21 0.482659 1.98825 0
M  V30 29431 H 2723.22 -0.957345 3.96609 0
M  V30 29432 H 2721.9 0.179398 4.15513 0
M  V30 29433 H 2720.48 -1.49616 3.41569 0
M  V30 29434 N 2722.66 -1.57485 0.0601958 0
M  V30 29435 C 2723.91 -1.92663 -0.610353 0
M  V30 29436 C 2724.23 -0.940011 -1.70847 0
M  V30 29437 O 2723.5 0.013711 -1.95895 0
M  V30 29438 H 2722.08 -0.711212 -0.228445 0
M  V30 29439 H 2724.74 -1.94559 0.115322 0
M  V30 29440 H 2723.84 -2.94151 -1.04315 0
M  V30 29441 N 2724.14 0.213268 -1.5615 0
M  V30 29442 C 2725.07 1.26738 -1.96111 0
M  V30 29443 C 2726.05 1.48449 -0.830475 0
M  V30 29444 O 2727.23 1.60493 -1.09342 0
M  V30 29445 C 2724.36 2.61547 -2.28497 0
M  V30 29446 C 2723.32 2.54479 -3.44129 0
M  V30 29447 C 2722.64 3.93393 -3.62141 0
M  V30 29448 C 2723.94 2.08548 -4.78858 0
M  V30 29449 H 2725.64 0.935384 -2.84413 0
M  V30 29450 H 2723.18 0.448516 -1.36837 0
M  V30 29451 H 2725.14 3.35455 -2.55045 0
M  V30 29452 H 2723.86 2.96451 -1.37057 0
M  V30 29453 H 2722.52 1.83027 -3.17642 0
M  V30 29454 H 2722.17 4.25619 -2.68063 0
M  V30 29455 H 2721.87 3.89544 -4.3992 0
M  V30 29456 H 2723.39 4.68951 -3.91046 0
M  V30 29457 H 2724.81 2.72204 -5.04557 0
M  V30 29458 H 2723.2 2.1574 -5.59979 0
M  V30 29459 H 2724.27 1.03802 -4.73659 0
M  V30 29460 N 2725.62 1.50103 0.480296 0
M  V30 29461 C 2727.03 1.53595 1.06139 0
M  V30 29462 C 2727.38 0.334089 1.93335 0
M  V30 29463 O 2726.5 -0.553993 2.09189 0
M  V30 29464 C 2727.1 2.78339 1.93165 0
M  V30 29465 C 2725.66 2.84542 2.464 0
M  V30 29466 C 2724.8 2.47772 1.24517 0
M  V30 29467 H 2727.76 1.56501 0.263302 0
M  V30 29468 H 2727.78 2.59673 2.78119 0
M  V30 29469 H 2727.29 3.65795 1.29676 0
M  V30 29470 H 2725.39 2.01416 3.13468 0
M  V30 29471 H 2725.5 3.87216 2.82136 0
M  V30 29472 H 2723.87 2.00005 1.57702 0
M  V30 29473 H 2724.65 3.37525 0.627043 0
M  V30 29474 N 2727.09 -0.732829 1.39526 0
M  V30 29475 C 2728.34 -1.4879 1.36178 0
M  V30 29476 C 2728.66 -1.95562 -0.0387851 0
M  V30 29477 O 2729.86 -2.708 -0.194851 0
M  V30 29478 C 2728.32 -2.68866 2.39246 0
M  V30 29479 C 2727.93 -2.29035 3.85028 0
M  V30 29480 C 2729.67 -3.46679 2.44978 0
M  V30 29481 C 2727.58 -3.45847 4.79733 0
M  V30 29482 H 2726.51 -0.558748 0.506277 0
M  V30 29483 H 2729.16 -0.799197 1.65182 0
M  V30 29484 H 2727.54 -3.39822 2.03316 0
M  V30 29485 H 2728.71 -1.65612 4.30011 0
M  V30 29486 H 2727.03 -1.64309 3.82611 0
M  V30 29487 H 2729.63 -4.33569 3.12925 0
M  V30 29488 H 2729.97 -3.89295 1.47497 0
M  V30 29489 H 2730.5 -2.82754 2.79813 0
M  V30 29490 H 2727.24 -3.08279 5.78484 0
M  V30 29491 H 2726.76 -4.08244 4.39428 0
M  V30 29492 H 2728.44 -4.12152 4.98738 0
M  V30 29493 N 2728.57 -1.24737 -0.963244 0
M  V30 29494 C 2729.82 -1.08973 -1.70679 0
M  V30 29495 C 2730.15 0.370718 -1.90934 0
M  V30 29496 O 2729.4 1.29008 -1.47158 0
M  V30 29497 C 2729.7 -1.77965 -3.09941 0
M  V30 29498 C 2729.37 -3.27892 -3.09512 0
M  V30 29499 C 2728.03 -3.68794 -3.09102 0
M  V30 29500 C 2730.38 -4.23717 -3.03501 0
M  V30 29501 C 2727.71 -5.03949 -3.0042 0
M  V30 29502 C 2730.06 -5.58886 -2.96361 0
M  V30 29503 C 2728.73 -5.99128 -2.94282 0
M  V30 29504 H 2728 -0.39876 -0.624557 0
M  V30 29505 H 2730.64 -1.54898 -1.126 0
M  V30 29506 H 2728.95 -1.24446 -3.71511 0
M  V30 29507 H 2730.64 -1.63229 -3.66275 0
M  V30 29508 H 2727.23 -2.95342 -3.10598 0
M  V30 29509 H 2731.42 -3.93115 -3.02943 0
M  V30 29510 H 2726.67 -5.3432 -2.97174 0
M  V30 29511 H 2730.85 -6.32838 -2.9067 0
M  V30 29512 H 2728.48 -7.03816 -2.8731 0
M  V30 29513 N 2730.05 1.16459 -1.06184 0
M  V30 29514 C 2730.96 2.24446 -0.68271 0
M  V30 29515 C 2731.98 1.71381 0.30075 0
M  V30 29516 O 2733.15 2.00838 0.150341 0
M  V30 29517 C 2730.22 3.46621 -0.0737811 0
M  V30 29518 C 2729.28 4.14729 -1.10897 0
M  V30 29519 C 2728.51 5.31072 -0.529001 0
M  V30 29520 O 2728.73 5.66585 0.65858 0
M  V30 29521 O 2727.67 5.88389 -1.26815 0
M  V30 29522 H 2731.49 2.59184 -1.58295 0
M  V30 29523 H 2729.08 1.23952 -0.834035 0
M  V30 29524 H 2730.96 4.20571 0.264118 0
M  V30 29525 H 2729.64 3.1366 0.79996 0
M  V30 29526 H 2728.54 3.42754 -1.49903 0
M  V30 29527 H 2729.88 4.51743 -1.9542 0
M  V30 29528 N 2731.53 0.844266 1.33079 0
M  V30 29529 C 2732.49 0.286525 2.27402 0
M  V30 29530 C 2733.49 -0.547845 1.5118 0
M  V30 29531 O 2734.68 -0.360856 1.70421 0
M  V30 29532 C 2731.81 -0.595754 3.35654 0
M  V30 29533 H 2733.01 1.1189 2.78246 0
M  V30 29534 H 2730.56 0.617774 1.43573 0
M  V30 29535 H 2731.29 -1.45035 2.90061 0
M  V30 29536 H 2731.08 0.00132887 3.921 0
M  V30 29537 H 2732.57 -0.979097 4.0596 0
M  V30 29538 N 2733.01 -1.45682 0.60121 0
M  V30 29539 C 2734.23 -2.07167 0.0982609 0
M  V30 29540 C 2734.66 -1.44398 -1.20544 0
M  V30 29541 O 2734.01 -0.534378 -1.73246 0
M  V30 29542 C 2734.06 -3.60583 -0.0346342 0
M  V30 29543 O 2733.17 -3.9783 -1.0865 0
M  V30 29544 H 2732.51 -0.660174 0.0711734 0
M  V30 29545 H 2735.04 -1.87035 0.829409 0
M  V30 29546 H 2735.05 -4.07323 -0.234897 0
M  V30 29547 H 2733.72 -4.05657 0.917336 0
M  V30 29548 H 2732.3 -3.62771 -0.863211 0
M  V30 29549 N 2734.48 -0.340009 -1.53889 0
M  V30 29550 C 2735.71 0.261761 -2.05742 0
M  V30 29551 C 2736.13 1.43715 -1.21357 0
M  V30 29552 O 2735.49 1.7988 -0.226481 0
M  V30 29553 C 2735.54 0.658165 -3.54543 0
M  V30 29554 O 2734.64 1.75862 -3.73023 0
M  V30 29555 H 2733.99 0.0441556 -0.66253 0
M  V30 29556 H 2736.52 -0.493196 -1.98567 0
M  V30 29557 H 2736.53 0.936298 -3.97111 0
M  V30 29558 H 2735.2 -0.201431 -4.15412 0
M  V30 29559 H 2733.78 1.47803 -3.42358 0
M  V30 29560 N 2735.96 1.57451 -0.0685468 0
M  V30 29561 C 2737.21 1.92984 0.600127 0
M  V30 29562 C 2737.53 0.949058 1.70346 0
M  V30 29563 O 2736.8 -0.00332204 1.959 0
M  V30 29564 H 2735.38 0.712413 0.22467 0
M  V30 29565 H 2738.04 1.94495 -0.125639 0
M  V30 29566 H 2737.14 2.947 1.02754 0
M  V30 29567 N 2737.44 -0.204984 1.56261 0
M  V30 29568 C 2738.86 -0.555406 1.49624 0
M  V30 29569 C 2739.06 -1.86342 0.766752 0
M  V30 29570 O 2738.11 -2.5055 0.313202 0
M  V30 29571 C 2739.43 -0.619296 2.94254 0
M  V30 29572 C 2740.97 -0.708802 3.04869 0
M  V30 29573 C 2741.45 -0.80389 4.5089 0
M  V30 29574 N 2742.94 -0.867678 4.55001 0
M  V30 29575 C 2743.68 -0.96125 5.65285 0
M  V30 29576 N 2743.17 -1.01774 6.85284 0
M  V30 29577 N 2744.96 -0.997674 5.53175 0
M  V30 29578 H 2737.12 0.653129 2.02109 0
M  V30 29579 H 2739.38 0.231382 0.919329 0
M  V30 29580 H 2739.08 0.27252 3.50643 0
M  V30 29581 H 2738.96 -1.47734 3.47065 0
M  V30 29582 H 2741.35 -1.59105 2.48535 0
M  V30 29583 H 2741.43 0.17525 2.55199 0
M  V30 29584 H 2741.07 0.073969 5.07846 0
M  V30 29585 H 2741 -1.7036 4.98282 0
M  V30 29586 H 2743.49 -0.83367 3.6859 0
M  V30 29587 H 2743.8 -1.08938 7.65083 0
M  V30 29588 H 2742.15 -0.986585 6.87962 0
M  V30 29589 H 2745.34 -0.950312 4.58352 0
M  V30 29590 H 2745.51 -1.06714 6.39153 0
M  V30 29591 N 2738.92 -1.50356 -0.472329 0
M  V30 29592 C 2740.17 -1.61522 -1.22632 0
M  V30 29593 C 2740.5 -0.314029 -1.91644 0
M  V30 29594 O 2739.77 0.684414 -1.8206 0
M  V30 29595 C 2740.06 -2.79464 -2.27094 0
M  V30 29596 C 2739.91 -4.19462 -1.62394 0
M  V30 29597 C 2741.23 -2.9297 -3.28415 0
M  V30 29598 H 2738.35 -0.587881 -0.444483 0
M  V30 29599 H 2740.99 -1.82738 -0.520289 0
M  V30 29600 H 2739.14 -2.61506 -2.87309 0
M  V30 29601 H 2740.81 -4.49007 -1.05786 0
M  V30 29602 H 2739.05 -4.23777 -0.927109 0
M  V30 29603 H 2739.73 -4.97913 -2.383 0
M  V30 29604 H 2742.2 -3.09406 -2.78221 0
M  V30 29605 H 2741.08 -3.7712 -3.98838 0
M  V30 29606 H 2741.34 -2.03532 -3.92463 0
M  V30 29607 N 2740.4 0.725419 -1.39912 0
M  V30 29608 C 2741.64 1.48735 -1.37861 0
M  V30 29609 C 2741.98 1.94187 0.0223846 0
M  V30 29610 O 2741.25 1.67468 0.989175 0
M  V30 29611 C 2741.53 2.72033 -2.35945 0
M  V30 29612 C 2741.39 2.32539 -3.85027 0
M  V30 29613 C 2742.71 3.74163 -2.31711 0
M  V30 29614 H 2739.83 0.539519 -0.502084 0
M  V30 29615 H 2742.47 0.828697 -1.70975 0
M  V30 29616 H 2740.62 3.28232 -2.07836 0
M  V30 29617 H 2742.29 1.81898 -4.23923 0
M  V30 29618 H 2740.53 1.64654 -4.01337 0
M  V30 29619 H 2741.2 3.20877 -4.49157 0
M  V30 29620 H 2743.68 3.27571 -2.56586 0
M  V30 29621 H 2742.56 4.58087 -3.02403 0
M  V30 29622 H 2742.82 4.21766 -1.32537 0
M  V30 29623 N 2741.88 1.25246 0.956615 0
M  V30 29624 C 2743.12 1.09659 1.69762 0
M  V30 29625 C 2743.44 -0.36343 1.91583 0
M  V30 29626 O 2742.71 -1.25823 1.50151 0
M  V30 29627 H 2741.29 0.402809 0.62909 0
M  V30 29628 H 2743.96 1.57339 1.15024 0
M  V30 29629 H 2743.05 1.60336 2.67766 0
M  V30 29630 N 2743.35 -1.15894 1.068 0
M  V30 29631 C 2744.77 -1.38537 0.792447 0
M  V30 29632 C 2744.97 -1.92175 -0.605887 0
M  V30 29633 O 2744.03 -2.12387 -1.36558 0
M  V30 29634 C 2745.34 -2.36145 1.86161 0
M  V30 29635 C 2746.89 -2.49819 1.88572 0
M  V30 29636 C 2747.36 -3.50715 2.94556 0
M  V30 29637 N 2748.85 -3.58246 2.93623 0
M  V30 29638 C 2749.59 -4.36118 3.72275 0
M  V30 29639 N 2749.08 -5.17371 4.6076 0
M  V30 29640 N 2750.88 -4.31152 3.60645 0
M  V30 29641 H 2743.03 -0.794164 1.96994 0
M  V30 29642 H 2745.29 -0.411673 0.853949 0
M  V30 29643 H 2745 -2.03838 2.86606 0
M  V30 29644 H 2744.87 -3.35857 1.71698 0
M  V30 29645 H 2747.26 -2.81428 0.887814 0
M  V30 29646 H 2747.34 -1.50126 2.07113 0
M  V30 29647 H 2746.98 -3.19842 3.94542 0
M  V30 29648 H 2746.91 -4.5015 2.73263 0
M  V30 29649 H 2749.4 -3.00248 2.29477 0
M  V30 29650 H 2749.72 -5.74019 5.17419 0
M  V30 29651 H 2748.06 -5.16696 4.64812 0
M  V30 29652 H 2751.25 -3.66737 2.90898 0
M  V30 29653 H 2751.43 -4.91593 4.22185 0
M  V30 29654 N 2744.83 -0.851312 -1.32629 0
M  V30 29655 C 2746.08 -0.453729 -1.97659 0
M  V30 29656 C 2746.41 0.987366 -1.67227 0
M  V30 29657 O 2745.69 1.6923 -0.958722 0
M  V30 29658 C 2745.97 -0.689422 -3.53439 0
M  V30 29659 C 2745.82 -2.17869 -3.93514 0
M  V30 29660 C 2747.14 -0.143633 -4.39866 0
M  V30 29661 H 2744.26 -0.166327 -0.717986 0
M  V30 29662 H 2746.9 -1.06912 -1.57066 0
M  V30 29663 H 2745.05 -0.165615 -3.88147 0
M  V30 29664 H 2746.72 -2.76832 -3.69001 0
M  V30 29665 H 2744.97 -2.65847 -3.42794 0
M  V30 29666 H 2745.64 -2.29431 -5.02061 0
M  V30 29667 H 2748.11 -0.591523 -4.11874 0
M  V30 29668 H 2746.99 -0.33814 -5.47857 0
M  V30 29669 H 2747.25 0.95339 -4.31698 0
M  V30 29670 N 2746.31 1.45361 -0.608928 0
M  V30 29671 C 2747.26 2.30542 0.109131 0
M  V30 29672 C 2748.23 1.42183 0.858679 0
M  V30 29673 O 2749.41 1.7111 0.844148 0
M  V30 29674 C 2746.55 3.27111 1.09965 0
M  V30 29675 C 2745.66 4.30573 0.350836 0
M  V30 29676 C 2744.8 5.1425 1.33119 0
M  V30 29677 C 2743.84 6.09438 0.57027 0
M  V30 29678 N 2742.98 6.8589 1.49998 0
M  V30 29679 H 2747.82 2.9141 -0.623246 0
M  V30 29680 H 2745.35 1.43596 -0.319147 0
M  V30 29681 H 2747.31 3.81567 1.68708 0
M  V30 29682 H 2745.94 2.67994 1.79942 0
M  V30 29683 H 2744.99 3.78767 -0.35212 0
M  V30 29684 H 2746.3 4.98209 -0.242812 0
M  V30 29685 H 2745.46 5.73113 1.99064 0
M  V30 29686 H 2744.2 4.46636 1.95877 0
M  V30 29687 H 2743.2 5.49704 -0.102798 0
M  V30 29688 H 2744.43 6.7908 -0.05228 0
M  V30 29689 H 2742.37 6.20964 2.11518 0
M  V30 29690 H 2742.29 7.49883 0.959802 0
M  V30 29691 H 2743.56 7.49293 2.14896 0
M  V30 29692 N 2747.79 0.348166 1.53706 0
M  V30 29693 C 2749.03 -0.247296 2.01287 0
M  V30 29694 C 2749.37 -1.49831 1.23548 0
M  V30 29695 O 2748.64 -1.91776 0.324364 0
M  V30 29696 C 2748.92 -0.556795 3.55769 0
M  V30 29697 C 2748.78 0.706642 4.44215 0
M  V30 29698 C 2750.1 -1.36453 4.18412 0
M  V30 29699 H 2747.22 -0.0884073 0.731678 0
M  V30 29700 H 2749.86 0.469616 1.84105 0
M  V30 29701 H 2748.01 -1.16755 3.70541 0
M  V30 29702 H 2749.68 1.34451 4.41271 0
M  V30 29703 H 2747.92 1.33059 4.12889 0
M  V30 29704 H 2748.59 0.445282 5.50201 0
M  V30 29705 H 2751.07 -0.848042 4.07366 0
M  V30 29706 H 2749.95 -1.54983 5.26566 0
M  V30 29707 H 2750.21 -2.36799 3.73335 0
M  V30 29708 N 2749.27 -1.57412 0.0768958 0
M  V30 29709 C 2750.51 -1.933 -0.589884 0
M  V30 29710 C 2750.83 -0.958079 -1.69841 0
M  V30 29711 O 2750.1 -0.00706705 -1.95899 0
M  V30 29712 H 2748.68 -0.713595 -0.220888 0
M  V30 29713 H 2751.35 -1.94425 0.135951 0
M  V30 29714 H 2750.44 -2.95241 -1.0119 0
M  V30 29715 N 2750.74 0.196695 -1.56368 0
M  V30 29716 C 2751.69 1.24378 -1.94419 0
M  V30 29717 C 2752.66 1.45313 -0.804569 0
M  V30 29718 O 2753.85 1.58473 -1.06259 0
M  V30 29719 C 2750.99 2.58384 -2.28761 0
M  V30 29720 C 2750.1 2.45041 -3.55779 0
M  V30 29721 C 2749.23 3.71739 -3.79451 0
M  V30 29722 C 2748.27 3.53223 -4.999 0
M  V30 29723 N 2747.41 4.71929 -5.19834 0
M  V30 29724 H 2752.25 0.912288 -2.83692 0
M  V30 29725 H 2749.79 0.43911 -1.40393 0
M  V30 29726 H 2751.75 3.36453 -2.46688 0
M  V30 29727 H 2750.38 2.8958 -1.4263 0
M  V30 29728 H 2749.43 1.58278 -3.45908 0
M  V30 29729 H 2750.74 2.27292 -4.44004 0
M  V30 29730 H 2749.89 4.58249 -3.97609 0
M  V30 29731 H 2748.63 3.92441 -2.89553 0
M  V30 29732 H 2747.64 2.65098 -4.81667 0
M  V30 29733 H 2748.86 3.33968 -5.91306 0
M  V30 29734 H 2746.81 4.92897 -4.32884 0
M  V30 29735 H 2746.73 4.56999 -6.02236 0
M  V30 29736 H 2747.99 5.59794 -5.42449 0
M  V30 29737 N 2752.22 1.50604 0.464349 0
M  V30 29738 C 2753.17 1.70496 1.58221 0
M  V30 29739 C 2754.16 0.570864 1.59491 0
M  V30 29740 O 2755.37 0.751545 1.6356 0
M  V30 29741 H 2751.75 0.538256 0.525152 0
M  V30 29742 H 2753.72 2.64254 1.38608 0
M  V30 29743 C 2752.47 1.82248 2.9611 0
M  V30 29744 H 2751.79 2.68907 2.95854 0
M  V30 29745 H 2753.23 2.00189 3.73765 0
M  V30 29746 C 2751.69 0.575686 3.31945 0
M  V30 29747 O 2752.22 -0.282082 4.00708 0
M  V30 29748 N 2750.42 0.427715 2.87435 0
M  V30 29749 H 2749.97 1.12678 2.3165 0
M  V30 29750 H 2749.93 -0.405325 3.11776 0
M  V30 29751 N 2753.7 -0.717989 1.40295 0
M  V30 29752 C 2754.61 -1.86224 1.42681 0
M  V30 29753 C 2755.63 -1.71038 0.319685 0
M  V30 29754 O 2756.8 -1.93345 0.563886 0
M  V30 29755 C 2753.87 -3.21997 1.28526 0
M  V30 29756 C 2752.93 -3.49454 2.4936 0
M  V30 29757 C 2752.16 -4.78749 2.35871 0
M  V30 29758 O 2752.38 -5.53673 1.37123 0
M  V30 29759 O 2751.32 -5.06488 3.25198 0
M  V30 29760 H 2755.14 -1.87167 2.3917 0
M  V30 29761 H 2752.73 -0.868091 1.21592 0
M  V30 29762 H 2754.61 -4.03101 1.22831 0
M  V30 29763 H 2753.29 -3.21787 0.351415 0
M  V30 29764 H 2752.19 -2.68368 2.60633 0
M  V30 29765 H 2753.53 -3.54458 3.41497 0
M  V30 29766 N 2755.18 -1.25752 -0.94996 0
M  V30 29767 C 2756.09 -1.08299 -2.08107 0
M  V30 29768 C 2757.1 -0.0188487 -1.7399 0
M  V30 29769 O 2758.28 -0.220759 -2.00186 0
M  V30 29770 C 2755.35 -0.708594 -3.39382 0
M  V30 29771 C 2754.41 -1.85118 -3.87337 0
M  V30 29772 C 2753.64 -1.49456 -5.12346 0
M  V30 29773 O 2753.86 -0.392312 -5.69049 0
M  V30 29774 O 2752.8 -2.32634 -5.55126 0
M  V30 29775 H 2756.62 -2.03169 -2.25735 0
M  V30 29776 H 2754.21 -1.04733 -1.06543 0
M  V30 29777 H 2756.09 -0.512134 -4.18276 0
M  V30 29778 H 2754.76 0.210797 -3.23013 0
M  V30 29779 H 2753.67 -2.10254 -3.09426 0
M  V30 29780 H 2755 -2.74998 -4.08212 0
M  V30 29781 N 2756.66 1.15326 -1.07413 0
M  V30 29782 C 2757.88 1.90549 -0.818889 0
M  V30 29783 C 2758.31 1.77513 0.622163 0
M  V30 29784 O 2757.66 1.10826 1.43482 0
M  V30 29785 C 2757.71 3.38875 -1.23273 0
M  V30 29786 O 2756.82 4.1066 -0.378418 0
M  V30 29787 H 2756.16 0.593233 -0.29828 0
M  V30 29788 H 2758.69 1.46043 -1.43292 0
M  V30 29789 H 2758.7 3.8967 -1.20919 0
M  V30 29790 H 2757.37 3.47682 -2.28232 0
M  V30 29791 H 2755.95 3.69996 -0.464502 0
M  V30 29792 N 2758.13 0.858334 1.32176 0
M  V30 29793 C 2759.08 0.303647 2.28794 0
M  V30 29794 C 2760.05 -0.591426 1.55214 0
M  V30 29795 O 2761.24 -0.525553 1.83419 0
M  V30 29796 C 2758.38 -0.49883 3.41476 0
M  V30 29797 C 2757.49 0.422448 4.2993 0
M  V30 29798 C 2756.62 -0.393018 5.29744 0
M  V30 29799 C 2755.66 0.525425 6.09841 0
M  V30 29800 N 2754.8 -0.253084 7.01644 0
M  V30 29801 H 2759.64 1.13281 2.75629 0
M  V30 29802 H 2757.18 0.570049 1.35605 0
M  V30 29803 H 2759.14 -0.979755 4.05533 0
M  V30 29804 H 2757.77 -1.29279 2.95782 0
M  V30 29805 H 2756.82 1.02178 3.6642 0
M  V30 29806 H 2758.13 1.12717 4.85897 0
M  V30 29807 H 2757.28 -0.936951 5.99421 0
M  V30 29808 H 2756.02 -1.13109 4.74402 0
M  V30 29809 H 2755.03 1.08121 5.39064 0
M  V30 29810 H 2756.25 1.26216 6.67268 0
M  V30 29811 H 2754.2 -0.974181 6.48726 0
M  V30 29812 H 2754.12 0.392531 7.5498 0
M  V30 29813 H 2755.38 -0.778625 7.75602 0
M  V30 29814 N 2759.61 -1.45036 0.616628 0
M  V30 29815 C 2761.02 -1.85632 0.199391 0
M  V30 29816 C 2761.37 -1.51568 -1.24585 0
M  V30 29817 O 2760.5 -0.946714 -1.94593 0
M  V30 29818 C 2761.09 -3.36934 0.355093 0
M  V30 29819 C 2759.65 -3.76399 -0.00752132 0
M  V30 29820 C 2758.8 -2.68952 0.675303 0
M  V30 29821 H 2761.75 -1.35709 0.822732 0
M  V30 29822 H 2761.77 -3.78283 -0.410135 0
M  V30 29823 H 2761.28 -3.61695 1.40705 0
M  V30 29824 H 2759.39 -3.57254 -1.05831 0
M  V30 29825 H 2759.5 -4.7749 0.39243 0
M  V30 29826 H 2757.86 -2.54453 0.112036 0
M  V30 29827 H 2758.65 -2.96548 1.72957 0
M  V30 29828 N 2761.09 -0.356312 -1.53519 0
M  V30 29829 C 2762.32 0.237291 -2.05535 0
M  V30 29830 C 2762.73 1.43197 -1.23045 0
M  V30 29831 O 2762.09 1.80509 -0.268852 0
M  V30 29832 C 2762.14 0.639871 -3.55792 0
M  V30 29833 O 2761.86 -0.50731 -4.35153 0
M  V30 29834 C 2763.36 1.29284 -4.24029 0
M  V30 29835 H 2760.58 0.0435454 -0.669586 0
M  V30 29836 H 2763.13 -0.511998 -1.97987 0
M  V30 29837 H 2761.28 1.33909 -3.63521 0
M  V30 29838 H 2761.7 -0.183842 -5.24178 0
M  V30 29839 H 2763.17 1.52517 -5.30511 0
M  V30 29840 H 2763.65 2.25033 -3.7717 0
M  V30 29841 H 2764.25 0.635316 -4.20528 0
M  V30 29842 N 2762.57 1.57369 -0.0852427 0
M  V30 29843 C 2763.52 2.13479 0.877231 0
M  V30 29844 C 2764.49 1.05076 1.2864 0
M  V30 29845 O 2765.67 1.3281 1.36989 0
M  V30 29846 C 2762.81 2.71163 2.13459 0
M  V30 29847 C 2761.92 3.93767 1.77684 0
M  V30 29848 C 2761.06 4.39649 2.98132 0
M  V30 29849 C 2760.1 5.54867 2.58437 0
M  V30 29850 N 2759.23 5.95645 3.71687 0
M  V30 29851 H 2764.07 2.95412 0.391881 0
M  V30 29852 H 2761.61 1.45973 0.18177 0
M  V30 29853 H 2763.57 3.02722 2.87081 0
M  V30 29854 H 2762.2 1.91974 2.59511 0
M  V30 29855 H 2761.25 3.68585 0.940703 0
M  V30 29856 H 2762.56 4.77414 1.44489 0
M  V30 29857 H 2761.72 4.72939 3.80018 0
M  V30 29858 H 2760.46 3.54882 3.3453 0
M  V30 29859 H 2759.46 5.21214 1.74975 0
M  V30 29860 H 2760.69 6.41375 2.23194 0
M  V30 29861 H 2758.63 5.13826 4.07822 0
M  V30 29862 H 2758.55 6.74065 3.42305 0
M  V30 29863 H 2759.82 6.33563 4.54112 0
M  V30 29864 N 2764.05 -0.188399 1.5647 0
M  V30 29865 C 2765.3 -0.905963 1.80209 0
M  V30 29866 C 2765.61 -1.84143 0.659611 0
M  V30 29867 O 2766.81 -2.6001 0.781476 0
M  V30 29868 C 2765.27 -1.6614 3.19258 0
M  V30 29869 C 2764.88 -0.770426 4.41326 0
M  V30 29870 C 2766.62 -2.3682 3.52302 0
M  V30 29871 C 2764.53 -1.52511 5.71397 0
M  V30 29872 H 2763.46 -0.342034 0.671959 0
M  V30 29873 H 2766.11 -0.159132 1.82809 0
M  V30 29874 H 2764.49 -2.45236 3.10926 0
M  V30 29875 H 2765.67 -0.0176451 4.60797 0
M  V30 29876 H 2763.98 -0.174126 4.16036 0
M  V30 29877 H 2766.58 -2.93846 4.4672 0
M  V30 29878 H 2766.92 -3.11333 2.76364 0
M  V30 29879 H 2767.45 -1.64684 3.62111 0
M  V30 29880 H 2764.19 -0.822636 6.50318 0
M  V30 29881 H 2763.71 -2.25165 5.55932 0
M  V30 29882 H 2765.39 -2.07714 6.12751 0
M  V30 29883 N 2765.53 -1.50848 -0.456355 0
M  V30 29884 C 2766.46 -1.65443 -1.57174 0
M  V30 29885 C 2767.44 -0.502252 -1.54649 0
M  V30 29886 O 2768.62 -0.723664 -1.74056 0
M  V30 29887 C 2765.75 -1.65057 -2.9576 0
M  V30 29888 C 2764.79 -2.86013 -3.16384 0
M  V30 29889 S 2765.63 -4.4711 -2.94708 0
M  V30 29890 C 2766.78 -4.49439 -4.35609 0
M  V30 29891 H 2767.02 -2.5979 -1.44557 0
M  V30 29892 H 2764.55 -1.40295 -0.644733 0
M  V30 29893 H 2766.51 -1.65518 -3.75651 0
M  V30 29894 H 2765.17 -0.719207 -3.05755 0
M  V30 29895 H 2764.36 -2.82089 -4.17663 0
M  V30 29896 H 2763.96 -2.83195 -2.44288 0
M  V30 29897 H 2766.25 -4.23909 -5.28495 0
M  V30 29898 H 2767.2 -5.51145 -4.44572 0
M  V30 29899 H 2767.61 -3.78975 -4.18376 0
M  V30 29900 N 2767 0.710538 -1.40674 0
M  V30 29901 C 2768.23 1.50462 -1.42744 0
M  V30 29902 C 2768.65 1.88076 -0.0302447 0
M  V30 29903 O 2768.01 1.53615 0.962918 0
M  V30 29904 C 2768.06 2.75318 -2.32878 0
M  V30 29905 O 2767.16 3.72222 -1.77551 0
M  V30 29906 H 2766.5 0.453441 -0.485064 0
M  V30 29907 H 2769.03 0.874648 -1.84962 0
M  V30 29908 H 2769.04 3.23792 -2.48239 0
M  V30 29909 H 2767.72 2.47277 -3.34405 0
M  V30 29910 H 2766.3 3.3109 -1.71562 0
M  V30 29911 N 2768.48 1.26254 0.943277 0
M  V30 29912 C 2769.73 1.11454 1.6859 0
M  V30 29913 C 2770.05 -0.343089 1.91958 0
M  V30 29914 O 2769.32 -1.24223 1.51477 0
M  V30 29915 H 2767.9 0.409459 0.624782 0
M  V30 29916 H 2770.56 1.5855 1.13348 0
M  V30 29917 H 2769.66 1.63167 2.66051 0
M  V30 29918 N 2769.96 -1.14755 1.08024 0
M  V30 29919 C 2771.21 -1.85048 0.802501 0
M  V30 29920 C 2771.52 -1.8362 -0.674028 0
M  V30 29921 O 2772.73 -2.49664 -1.06678 0
M  V30 29922 C 2771.18 -3.3216 1.38556 0
M  V30 29923 C 2770.79 -3.42016 2.8936 0
M  V30 29924 C 2772.54 -4.07591 1.18615 0
M  V30 29925 C 2770.44 -4.83315 3.40823 0
M  V30 29926 H 2769.37 -0.693243 0.29653 0
M  V30 29927 H 2772.02 -1.29391 1.30116 0
M  V30 29928 H 2770.41 -3.8753 0.814624 0
M  V30 29929 H 2771.58 -2.96716 3.52557 0
M  V30 29930 H 2769.89 -2.80036 3.0817 0
M  V30 29931 H 2772.49 -5.11882 1.54534 0
M  V30 29932 H 2772.83 -4.1611 0.125672 0
M  V30 29933 H 2773.37 -3.5851 1.72382 0
M  V30 29934 H 2770.11 -4.79983 4.46427 0
M  V30 29935 H 2769.63 -5.29169 2.82383 0
M  V30 29936 H 2771.31 -5.52194 3.37181 0
M  V30 29937 N 2771.44 -0.865331 -1.31719 0
M  V30 29938 C 2772.37 -0.274946 -2.27545 0
M  V30 29939 C 2773.38 0.559386 -1.52888 0
M  V30 29940 O 2774.57 0.382135 -1.74362 0
M  V30 29941 C 2771.67 0.629228 -3.33007 0
M  V30 29942 C 2770.84 -0.17163 -4.37063 0
M  V30 29943 C 2769.9 0.659961 -5.22045 0
M  V30 29944 O 2768.93 0.0896526 -5.69129 0
M  V30 29945 N 2770.13 1.9728 -5.4595 0
M  V30 29946 H 2772.9 -1.09841 -2.78846 0
M  V30 29947 H 2770.46 -0.726356 -1.44692 0
M  V30 29948 H 2772.45 1.19114 -3.86774 0
M  V30 29949 H 2771.02 1.35337 -2.81785 0
M  V30 29950 H 2770.24 -0.914987 -3.83434 0
M  V30 29951 H 2771.53 -0.721323 -5.03661 0
M  V30 29952 H 2770.93 2.45933 -5.09444 0
M  V30 29953 H 2769.48 2.4826 -6.02669 0
M  V30 29954 N 2772.92 1.44707 -0.624311 0
M  V30 29955 C 2774.14 2.06472 -0.132955 0
M  V30 29956 C 2774.56 1.46604 1.18965 0
M  V30 29957 O 2773.92 0.586371 1.72823 0
M  V30 29958 C 2773.97 3.615 -0.00471772 0
M  V30 29959 O 2773.69 4.19136 -1.27501 0
M  V30 29960 C 2775.19 4.40285 0.516135 0
M  V30 29961 H 2772.41 0.666621 -0.0765318 0
M  V30 29962 H 2774.95 1.85686 -0.856783 0
M  V30 29963 H 2773.11 3.81571 0.669516 0
M  V30 29964 H 2773.52 5.12502 -1.11545 0
M  V30 29965 H 2775 5.49204 0.554897 0
M  V30 29966 H 2775.47 4.11247 1.54182 0
M  V30 29967 H 2776.08 4.25117 -0.124616 0
M  V30 29968 N 2774.39 0.364449 1.53328 0
M  V30 29969 C 2775.64 -0.225933 2.01538 0
M  V30 29970 C 2775.97 -1.48513 1.2513 0
M  V30 29971 O 2775.25 -1.91421 0.344687 0
M  V30 29972 C 2775.53 -0.51903 3.5634 0
M  V30 29973 C 2775.38 0.753717 4.4344 0
M  V30 29974 C 2776.7 -1.32007 4.19836 0
M  V30 29975 H 2773.82 -0.0806419 0.732575 0
M  V30 29976 H 2776.46 0.489117 1.83596 0
M  V30 29977 H 2774.61 -1.12818 3.71758 0
M  V30 29978 H 2776.29 1.39124 4.39821 0
M  V30 29979 H 2774.53 1.37431 4.11455 0
M  V30 29980 H 2775.2 0.503613 5.49698 0
M  V30 29981 H 2777.68 -0.804787 4.08243 0
M  V30 29982 H 2776.55 -1.49389 5.2818 0
M  V30 29983 H 2776.81 -2.32826 3.75825 0
M  V30 29984 N 2775.87 -1.57322 0.0935872 0
M  V30 29985 C 2777.1 -1.99058 -0.582289 0
M  V30 29986 C 2777.52 -0.97227 -1.61023 0
M  V30 29987 O 2776.88 0.0594303 -1.81203 0
M  V30 29988 C 2776.93 -3.39767 -1.20793 0
M  V30 29989 O 2776.03 -3.40698 -2.32376 0
M  V30 29990 H 2775.37 -0.647325 -0.147872 0
M  V30 29991 H 2777.9 -2.03854 0.174552 0
M  V30 29992 H 2777.91 -3.77428 -1.54959 0
M  V30 29993 H 2776.59 -4.13405 -0.454841 0
M  V30 29994 H 2775.16 -3.14831 -1.9984 0
M  V30 29995 N 2777.35 0.180099 -1.56568 0
M  V30 29996 C 2778.3 1.22309 -1.95727 0
M  V30 29997 C 2779.27 1.44452 -0.819936 0
M  V30 29998 O 2780.45 1.57337 -1.07934 0
M  V30 29999 C 2777.59 2.55943 -2.31489 0
M  V30 30000 C 2776.7 2.41254 -3.58358 0
M  V30 30001 C 2775.84 3.67694 -3.83373 0
M  V30 30002 C 2774.88 3.47901 -5.03619 0
M  V30 30003 N 2774.02 4.66389 -5.2481 0
M  V30 30004 H 2778.86 0.882148 -2.84644 0
M  V30 30005 H 2776.39 0.424195 -1.40851 0
M  V30 30006 H 2778.35 3.33818 -2.50243 0
M  V30 30007 H 2776.98 2.88051 -1.45694 0
M  V30 30008 H 2776.03 1.546 -3.47567 0
M  V30 30009 H 2777.34 2.2257 -4.4639 0
M  V30 30010 H 2776.5 4.54006 -4.02447 0
M  V30 30011 H 2775.24 3.89348 -2.93699 0
M  V30 30012 H 2774.24 2.59975 -4.84451 0
M  V30 30013 H 2775.47 3.27677 -5.94815 0
M  V30 30014 H 2773.41 4.88278 -4.38087 0
M  V30 30015 H 2773.33 4.50585 -6.07049 0
M  V30 30016 H 2774.6 5.54009 -5.48356 0
M  V30 30017 N 2778.83 1.51088 0.448349 0
M  V30 30018 C 2779.78 1.72164 1.56404 0
M  V30 30019 C 2780.77 0.587748 1.58877 0
M  V30 30020 O 2781.98 0.768851 1.62753 0
M  V30 30021 H 2778.35 0.543796 0.519413 0
M  V30 30022 H 2780.32 2.65709 1.35798 0
M  V30 30023 C 2779.07 1.85378 2.9416 0
M  V30 30024 H 2778.39 2.72029 2.92985 0
M  V30 30025 H 2779.83 2.04142 3.71621 0
M  V30 30026 C 2778.29 0.610861 3.31316 0
M  V30 30027 O 2778.82 -0.239566 4.00985 0
M  V30 30028 N 2777.03 0.458177 2.86965 0
M  V30 30029 H 2776.58 1.15128 2.30441 0
M  V30 30030 H 2776.53 -0.372234 3.12189 0
M  V30 30031 N 2780.31 -0.703068 1.41049 0
M  V30 30032 C 2781.72 -1.01273 1.23353 0
M  V30 30033 C 2781.92 -2.01157 0.117575 0
M  V30 30034 O 2780.98 -2.47078 -0.520475 0
M  V30 30035 C 2782.29 -1.54449 2.58004 0
M  V30 30036 C 2783.84 -1.66371 2.65122 0
M  V30 30037 C 2784.31 -2.22951 4.00071 0
M  V30 30038 N 2785.81 -2.30321 4.01879 0
M  V30 30039 C 2786.54 -2.75111 5.03092 0
M  V30 30040 N 2786.04 -3.1956 6.14698 0
M  V30 30041 N 2787.83 -2.74607 4.90456 0
M  V30 30042 H 2779.98 -0.0412313 2.1236 0
M  V30 30043 H 2782.24 -0.0808734 0.944544 0
M  V30 30044 H 2781.95 -0.88515 3.40379 0
M  V30 30045 H 2781.82 -2.52781 2.79967 0
M  V30 30046 H 2784.21 -2.31419 1.8311 0
M  V30 30047 H 2784.29 -0.666046 2.46977 0
M  V30 30048 H 2783.94 -1.58521 4.82528 0
M  V30 30049 H 2783.87 -3.23455 4.15553 0
M  V30 30050 H 2786.36 -1.98943 3.21294 0
M  V30 30051 H 2786.67 -3.5234 6.87805 0
M  V30 30052 H 2785.01 -3.17488 6.18245 0
M  V30 30053 H 2788.21 -2.39225 4.02354 0
M  V30 30054 H 2788.38 -3.09196 5.69475 0
M  V30 30055 N 2781.78 -1.26752 -0.936569 0
M  V30 30056 C 2782.75 -1.08764 -2.0175 0
M  V30 30057 C 2783.75 -0.0344718 -1.60763 0
M  V30 30058 O 2784.94 -0.278288 -1.71963 0
M  V30 30059 C 2782.07 -0.65533 -3.34542 0
M  V30 30060 H 2783.26 -2.04739 -2.19139 0
M  V30 30061 H 2780.82 -1.09415 -1.11616 0
M  V30 30062 H 2781.55 0.306203 -3.22851 0
M  V30 30063 H 2781.34 -1.41584 -3.65645 0
M  V30 30064 H 2782.83 -0.551451 -4.13943 0
M  V30 30065 N 2783.26 1.1418 -1.08631 0
M  V30 30066 C 2784.54 1.81465 -0.730051 0
M  V30 30067 C 2784.92 1.95923 0.785961 0
M  V30 30068 O 2784.27 1.52089 1.70532 0
M  V30 30069 C 2784.48 3.17011 -1.45962 0
M  V30 30070 C 2785.83 3.92475 -1.62015 0
M  V30 30071 O 2786.85 3.26608 -1.42147 0
M  V30 30072 O 2785.71 5.10597 -1.94815 0
M  V30 30073 H 2782.8 0.784628 -0.26132 0
M  V30 30074 H 2785.35 1.21178 -1.18802 0
M  V30 30075 H 2784.12 3.01665 -2.49227 0
M  V30 30076 H 2783.74 3.84993 -0.993289 0
M  V30 30077 N 2784.74 0.872304 1.31258 0
M  V30 30078 C 2785.67 0.345595 2.30928 0
M  V30 30079 C 2786.65 -0.564772 1.6045 0
M  V30 30080 O 2787.84 -0.481301 1.88141 0
M  V30 30081 C 2784.97 -0.451762 3.44349 0
M  V30 30082 C 2783.92 0.365716 4.26435 0
M  V30 30083 C 2783.25 -0.557469 5.31786 0
M  V30 30084 C 2784.55 1.60104 4.97156 0
M  V30 30085 H 2786.24 1.17846 2.75232 0
M  V30 30086 H 2783.79 0.568117 1.32319 0
M  V30 30087 H 2785.74 -0.830782 4.13129 0
M  V30 30088 H 2784.46 -1.31816 2.98818 0
M  V30 30089 H 2783.12 0.726712 3.59325 0
M  V30 30090 H 2782.77 -1.42121 4.82505 0
M  V30 30091 H 2782.47 -0.0143845 5.87598 0
M  V30 30092 H 2783.99 -0.933281 6.03425 0
M  V30 30093 H 2785.41 1.29333 5.58521 0
M  V30 30094 H 2783.81 2.08337 5.62775 0
M  V30 30095 H 2784.88 2.35257 4.24007 0
M  V30 30096 N 2786.22 -1.44374 0.631976 0
M  V30 30097 C 2787.45 -2.06399 0.143903 0
M  V30 30098 C 2787.86 -1.47233 -1.18186 0
M  V30 30099 O 2787.22 -0.595528 -1.7251 0
M  V30 30100 C 2787.27 -3.61492 0.0238889 0
M  V30 30101 O 2786.99 -4.18454 1.29722 0
M  V30 30102 C 2788.49 -4.40553 -0.492779 0
M  V30 30103 H 2785.71 -0.666206 0.0800659 0
M  V30 30104 H 2788.26 -1.8523 0.866619 0
M  V30 30105 H 2786.41 -3.8192 -0.649271 0
M  V30 30106 H 2786.82 -5.11903 1.14261 0
M  V30 30107 H 2788.3 -5.4949 -0.525764 0
M  V30 30108 H 2788.78 -4.12059 -1.51999 0
M  V30 30109 H 2789.38 -4.25045 0.14716 0
M  V30 30110 N 2787.7 -0.372575 -1.53133 0
M  V30 30111 C 2788.61 0.478339 -2.29672 0
M  V30 30112 C 2789.62 1.08642 -1.35915 0
M  V30 30113 O 2790.8 1.09585 -1.68977 0
M  V30 30114 C 2787.86 1.59894 -3.07627 0
M  V30 30115 C 2786.92 1.01769 -4.17063 0
M  V30 30116 C 2786.16 2.08489 -4.91292 0
M  V30 30117 O 2786.38 3.29719 -4.65448 0
M  V30 30118 O 2785.31 1.71154 -5.77053 0
M  V30 30119 H 2789.14 -0.144703 -3.03355 0
M  V30 30120 H 2786.73 -0.136755 -1.48773 0
M  V30 30121 H 2788.61 2.25031 -3.56285 0
M  V30 30122 H 2787.28 2.20726 -2.36774 0
M  V30 30123 H 2786.19 0.330033 -3.72641 0
M  V30 30124 H 2787.52 0.453829 -4.90103 0
M  V30 30125 N 2789.17 1.5727 -0.101929 0
M  V30 30126 C 2790.11 2.10072 0.89134 0
M  V30 30127 C 2791.09 1.01293 1.27195 0
M  V30 30128 O 2792.27 1.28836 1.37599 0
M  V30 30129 C 2789.4 2.58335 2.19045 0
M  V30 30130 C 2788.44 3.78838 1.95919 0
M  V30 30131 S 2789.28 5.22088 1.19097 0
M  V30 30132 C 2790.43 5.73706 2.50224 0
M  V30 30133 H 2790.66 2.93994 0.44216 0
M  V30 30134 H 2788.2 1.53997 0.111502 0
M  V30 30135 H 2790.16 2.86798 2.93695 0
M  V30 30136 H 2788.82 1.74627 2.61083 0
M  V30 30137 H 2788.01 4.10698 2.92135 0
M  V30 30138 H 2787.61 3.50903 1.29395 0
M  V30 30139 H 2789.9 5.8239 3.46162 0
M  V30 30140 H 2790.85 6.72091 2.22932 0
M  V30 30141 H 2791.25 5.01675 2.58809 0
M  V30 30142 N 2790.65 -0.171793 1.56661 0
M  V30 30143 C 2791.9 -0.889813 1.82237 0
M  V30 30144 C 2792.23 -1.81917 0.679705 0
M  V30 30145 O 2791.51 -1.91877 -0.31837 0
M  V30 30146 C 2791.79 -1.68589 3.18198 0
M  V30 30147 C 2791.64 -0.779695 4.42991 0
M  V30 30148 C 2792.96 -2.65368 3.51095 0
M  V30 30149 H 2790.08 -0.322044 0.662915 0
M  V30 30150 H 2792.72 -0.156047 1.89358 0
M  V30 30151 H 2790.87 -2.31144 3.12257 0
M  V30 30152 H 2792.54 -0.167059 4.60997 0
M  V30 30153 H 2790.79 -0.0877201 4.33711 0
M  V30 30154 H 2791.46 -1.37221 5.34672 0
M  V30 30155 H 2793.93 -2.1294 3.57485 0
M  V30 30156 H 2792.81 -3.18136 4.47304 0
M  V30 30157 H 2793.07 -3.45544 2.75775 0
M  V30 30158 N 2792.13 -1.51324 -0.44033 0
M  V30 30159 C 2793.08 -1.72422 -1.53426 0
M  V30 30160 C 2794.05 -0.565854 -1.56164 0
M  V30 30161 O 2795.23 -0.799948 -1.73221 0
M  V30 30162 C 2792.37 -1.85247 -2.91166 0
M  V30 30163 C 2791.49 -3.12782 -2.97979 0
M  V30 30164 C 2790.62 -3.1622 -4.26824 0
M  V30 30165 C 2789.66 -4.38082 -4.27494 0
M  V30 30166 N 2788.8 -4.39086 -5.47858 0
M  V30 30167 H 2793.64 -2.658 -1.34739 0
M  V30 30168 H 2791.17 -1.31733 -0.654585 0
M  V30 30169 H 2793.13 -1.90664 -3.71084 0
M  V30 30170 H 2791.76 -0.952798 -3.08418 0
M  V30 30171 H 2790.81 -3.16688 -2.10743 0
M  V30 30172 H 2792.13 -4.02701 -2.94335 0
M  V30 30173 H 2791.28 -3.20537 -5.15113 0
M  V30 30174 H 2790.02 -2.24184 -4.3312 0
M  V30 30175 H 2789.02 -4.33944 -3.37598 0
M  V30 30176 H 2790.25 -5.31378 -4.22864 0
M  V30 30177 H 2788.19 -3.49919 -5.54881 0
M  V30 30178 H 2788.11 -5.2281 -5.46082 0
M  V30 30179 H 2789.38 -4.47591 -6.38187 0
M  V30 30180 N 2793.61 0.695578 -1.41419 0
M  V30 30181 C 2794.56 1.80951 -1.43267 0
M  V30 30182 C 2795.53 1.63601 -0.287045 0
M  V30 30183 O 2796.71 1.84451 -0.488087 0
M  V30 30184 C 2793.85 3.18833 -1.3206 0
M  V30 30185 C 2792.96 3.47615 -2.56491 0
M  V30 30186 C 2792.1 4.75111 -2.37578 0
M  V30 30187 C 2791.14 4.96861 -3.57486 0
M  V30 30188 N 2790.27 6.15582 -3.37643 0
M  V30 30189 H 2795.11 1.78707 -2.3847 0
M  V30 30190 H 2792.65 0.872694 -1.18416 0
M  V30 30191 H 2794.61 3.98482 -1.23565 0
M  V30 30192 H 2793.24 3.20254 -0.404648 0
M  V30 30193 H 2792.29 2.62372 -2.75437 0
M  V30 30194 H 2793.6 3.59588 -3.45684 0
M  V30 30195 H 2792.76 5.62814 -2.2655 0
M  V30 30196 H 2791.5 4.65383 -1.45842 0
M  V30 30197 H 2790.5 4.07605 -3.68969 0
M  V30 30198 H 2791.73 5.08447 -4.50176 0
M  V30 30199 H 2789.67 6.07067 -2.48606 0
M  V30 30200 H 2789.59 6.28323 -4.20412 0
M  V30 30201 H 2790.86 7.0602 -3.30387 0
M  V30 30202 N 2795.09 1.27247 0.929833 0
M  V30 30203 C 2796.34 1.12844 1.6718 0
M  V30 30204 C 2796.65 -0.325632 1.9287 0
M  V30 30205 O 2797.86 -0.590526 2.65 0
M  V30 30206 C 2796.31 1.97156 3.01094 0
M  V30 30207 C 2795.92 3.47208 2.83109 0
M  V30 30208 C 2797.66 1.91395 3.78904 0
M  V30 30209 C 2795.57 4.23726 4.12565 0
M  V30 30210 H 2794.5 0.418708 0.627056 0
M  V30 30211 H 2797.15 1.5165 1.03317 0
M  V30 30212 H 2795.53 1.51193 3.66001 0
M  V30 30213 H 2796.71 4.01019 2.26982 0
M  V30 30214 H 2795.02 3.54325 2.1873 0
M  V30 30215 H 2797.62 2.45842 4.74832 0
M  V30 30216 H 2797.96 0.887118 4.06738 0
M  V30 30217 H 2798.5 2.35242 3.20789 0
M  V30 30218 H 2795.23 5.26925 3.89911 0
M  V30 30219 H 2794.75 3.74693 4.68364 0
M  V30 30220 H 2796.43 4.32785 4.80943 0
M  V30 30221 N 2796.57 -1.13603 1.09235 0
M  V30 30222 C 2797.79 -1.88681 0.848941 0
M  V30 30223 C 2798.21 -1.79025 -0.599635 0
M  V30 30224 O 2797.57 -1.15547 -1.41263 0
M  V30 30225 C 2797.62 -3.38352 1.27279 0
M  V30 30226 O 2797.34 -3.47755 2.66455 0
M  V30 30227 C 2798.84 -4.30404 1.06148 0
M  V30 30228 H 2796.06 -0.597389 0.30556 0
M  V30 30229 H 2798.6 -1.4382 1.45382 0
M  V30 30230 H 2796.76 -3.80804 0.711843 0
M  V30 30231 H 2797.17 -4.40783 2.84272 0
M  V30 30232 H 2798.65 -5.33758 1.40734 0
M  V30 30233 H 2799.12 -4.392 -0.000883131 0
M  V30 30234 H 2799.73 -3.93719 1.60828 0
M  V30 30235 N 2798.04 -0.879253 -1.30793 0
M  V30 30236 C 2799.27 -0.508805 -2.01062 0
M  V30 30237 C 2799.69 0.893774 -1.65509 0
M  V30 30238 O 2799.05 1.59136 -0.868644 0
M  V30 30239 C 2799.1 -0.684053 -3.54052 0
M  V30 30240 O 2798.2 0.272582 -4.11498 0
M  V30 30241 H 2797.54 -0.201202 -0.632782 0
M  V30 30242 H 2800.07 -1.18522 -1.66774 0
M  V30 30243 H 2800.08 -0.580869 -4.03844 0
M  V30 30244 H 2798.76 -1.70671 -3.79268 0
M  V30 30245 H 2797.34 0.123574 -3.72695 0
M  V30 30246 N 2799.52 1.44037 -0.639624 0
M  V30 30247 C 2800.45 2.27936 0.109695 0
M  V30 30248 C 2801.43 1.39036 0.843071 0
M  V30 30249 O 2802.62 1.68478 0.845426 0
M  V30 30250 C 2799.74 3.18155 1.16168 0
M  V30 30251 C 2798.79 4.23221 0.52788 0
M  V30 30252 S 2799.62 5.31057 -0.688411 0
M  V30 30253 C 2800.78 6.24844 0.363371 0
M  V30 30254 H 2801.01 2.91141 -0.602037 0
M  V30 30255 H 2798.54 1.48348 -0.428046 0
M  V30 30256 H 2800.5 3.70683 1.76365 0
M  V30 30257 H 2799.16 2.54155 1.84565 0
M  V30 30258 H 2798.36 4.86395 1.32045 0
M  V30 30259 H 2797.96 3.74 0.000330704 0
M  V30 30260 H 2800.25 6.66176 1.23351 0
M  V30 30261 H 2801.19 7.07717 -0.233005 0
M  V30 30262 H 2801.6 5.60229 0.693081 0
M  V30 30263 N 2801 0.380691 1.52933 0
M  V30 30264 C 2801.95 -0.47357 2.27728 0
M  V30 30265 C 2802.94 -1.07048 1.3129 0
M  V30 30266 O 2804.15 -1.01194 1.48861 0
M  V30 30267 H 2800.52 -0.171463 0.732192 0
M  V30 30268 H 2802.49 0.178837 2.97864 0
M  V30 30269 C 2801.24 -1.59336 3.09043 0
M  V30 30270 H 2800.57 -1.14336 3.83102 0
M  V30 30271 H 2802.01 -2.16549 3.64531 0
M  V30 30272 C 2800.46 -2.54443 2.20818 0
M  V30 30273 O 2800.99 -3.57639 1.82914 0
M  V30 30274 N 2799.2 -2.23983 1.85149 0
M  V30 30275 H 2798.75 -1.40099 2.16171 0
M  V30 30276 H 2798.71 -2.87869 1.26407 0
M  V30 30277 N 2802.48 -1.57214 0.110268 0
M  V30 30278 C 2803.89 -1.57687 -0.246352 0
M  V30 30279 C 2804.09 -1.12244 -1.67343 0
M  V30 30280 O 2803.15 -0.805825 -2.39296 0
M  V30 30281 C 2804.46 -3.00693 -0.020976 0
M  V30 30282 C 2806.01 -3.12878 -0.0875527 0
M  V30 30283 C 2806.49 -4.57868 0.11002 0
M  V30 30284 N 2807.98 -4.63167 0.0556949 0
M  V30 30285 C 2808.71 -5.73106 0.183596 0
M  V30 30286 N 2808.21 -6.91826 0.36718 0
M  V30 30287 N 2810 -5.61964 0.123788 0
M  V30 30288 H 2802.15 -1.85057 1.04249 0
M  V30 30289 H 2804.41 -0.854847 0.409805 0
M  V30 30290 H 2804.12 -3.38195 0.965263 0
M  V30 30291 H 2803.99 -3.69532 -0.756683 0
M  V30 30292 H 2806.38 -2.75239 -1.06431 0
M  V30 30293 H 2806.46 -2.46599 0.679893 0
M  V30 30294 H 2806.11 -4.96204 1.08371 0
M  V30 30295 H 2806.04 -5.22226 -0.677305 0
M  V30 30296 H 2808.53 -3.77809 -0.0830398 0
M  V30 30297 H 2808.84 -7.71454 0.455874 0
M  V30 30298 H 2807.19 -6.9383 0.403042 0
M  V30 30299 H 2810.38 -4.68096 -0.0186105 0
M  V30 30300 H 2810.55 -6.47603 0.226911 0
M  V30 30301 N 2803.96 0.163482 -1.5675 0
M  V30 30302 C 2805.2 0.877098 -1.82075 0
M  V30 30303 C 2805.52 1.8244 -0.688535 0
M  V30 30304 O 2804.79 1.93726 0.291051 0
M  V30 30305 H 2803.37 0.326882 -0.671683 0
M  V30 30306 H 2806.04 0.161425 -1.9423 0
M  V30 30307 H 2805.13 1.44929 -2.76409 0
M  V30 30308 N 2805.43 1.51555 0.432299 0
M  V30 30309 C 2806.71 1.55017 1.19285 0
M  V30 30310 C 2807.09 0.317412 2.087 0
M  V30 30311 O 2806.44 -0.697204 2.17604 0
M  V30 30312 C 2806.65 2.86683 1.99032 0
M  V30 30313 C 2808 3.38822 2.55901 0
M  V30 30314 O 2809.02 2.88267 2.09238 0
M  V30 30315 O 2807.88 4.27044 3.41021 0
M  V30 30316 H 2804.97 0.623451 0.543358 0
M  V30 30317 H 2807.52 1.63871 0.440959 0
M  V30 30318 H 2806.29 3.67862 1.3339 0
M  V30 30319 H 2805.91 2.81015 2.81276 0
M  V30 30320 N 2806.91 -0.688069 1.41786 0
M  V30 30321 C 2808.16 -1.44813 1.41546 0
M  V30 30322 C 2808.49 -1.94481 0.0272088 0
M  V30 30323 O 2807.74 -1.70412 -0.962205 0
M  V30 30324 C 2808.04 -2.67042 2.37536 0
M  V30 30325 C 2807.71 -2.3599 3.84213 0
M  V30 30326 C 2806.37 -2.27232 4.24169 0
M  V30 30327 C 2808.72 -2.10527 4.76789 0
M  V30 30328 C 2806.05 -1.91119 5.54699 0
M  V30 30329 C 2808.4 -1.75921 6.07647 0
M  V30 30330 C 2807.06 -1.65664 6.46616 0
M  V30 30331 H 2806.33 -0.52991 0.517954 0
M  V30 30332 H 2808.98 -0.785766 1.74637 0
M  V30 30333 H 2807.29 -3.38248 1.97726 0
M  V30 30334 H 2808.98 -3.25199 2.34621 0
M  V30 30335 H 2805.57 -2.43703 3.52571 0
M  V30 30336 H 2809.76 -2.16234 4.46718 0
M  V30 30337 H 2805.01 -1.81736 5.83765 0
M  V30 30338 H 2809.19 -1.5524 6.78877 0
M  V30 30339 H 2806.81 -1.37449 7.47671 0
M  V30 30340 N 2808.39 -1.27739 -0.923072 0
M  V30 30341 C 2809.34 -1.10863 -2.0243 0
M  V30 30342 C 2810.31 -0.00838114 -1.66098 0
M  V30 30343 O 2811.49 -0.171575 -1.90027 0
M  V30 30344 C 2808.63 -0.76673 -3.36475 0
M  V30 30345 C 2807.74 -1.94508 -3.85734 0
M  V30 30346 C 2806.88 -1.54464 -5.08246 0
M  V30 30347 C 2805.92 -2.6902 -5.49813 0
M  V30 30348 N 2805.06 -2.29533 -6.6352 0
M  V30 30349 H 2809.9 -2.05092 -2.16197 0
M  V30 30350 H 2807.43 -1.02089 -1.05907 0
M  V30 30351 H 2809.39 -0.549296 -4.13568 0
M  V30 30352 H 2808.02 0.138613 -3.22502 0
M  V30 30353 H 2807.07 -2.27492 -3.04879 0
M  V30 30354 H 2808.38 -2.80426 -4.12508 0
M  V30 30355 H 2807.54 -1.28872 -5.92855 0
M  V30 30356 H 2806.28 -0.656619 -4.8326 0
M  V30 30357 H 2805.28 -2.95321 -4.63752 0
M  V30 30358 H 2806.51 -3.58451 -5.76793 0
M  V30 30359 H 2804.45 -1.43188 -6.40182 0
M  V30 30360 H 2804.37 -3.08989 -6.89972 0
M  V30 30361 H 2805.64 -2.072 -7.51457 0
M  V30 30362 N 2809.87 1.13022 -1.09836 0
M  V30 30363 C 2810.8 2.18268 -0.699417 0
M  V30 30364 C 2811.81 1.60697 0.260813 0
M  V30 30365 O 2813 1.7844 0.0462224 0
M  V30 30366 C 2810.1 3.38898 -0.0105133 0
M  V30 30367 C 2809.28 4.25971 -0.99335 0
M  V30 30368 C 2808.33 5.25119 -0.337075 0
M  V30 30369 O 2807.36 5.60595 -0.985991 0
M  V30 30370 N 2808.56 5.7337 0.90706 0
M  V30 30371 H 2811.33 2.53107 -1.6049 0
M  V30 30372 H 2808.89 1.28384 -0.98636 0
M  V30 30373 H 2810.88 4.02303 0.439839 0
M  V30 30374 H 2809.45 3.02262 0.797281 0
M  V30 30375 H 2808.67 3.59277 -1.62214 0
M  V30 30376 H 2809.96 4.80999 -1.65885 0
M  V30 30377 H 2809.36 5.46702 1.45375 0
M  V30 30378 H 2807.91 6.38691 1.30066 0
M  V30 30379 N 2811.35 0.886177 1.30325 0
M  V30 30380 C 2812.6 0.501278 1.95372 0
M  V30 30381 C 2812.91 -0.954604 1.70724 0
M  V30 30382 O 2814.11 -1.4464 2.29764 0
M  V30 30383 C 2812.57 0.845555 3.49826 0
M  V30 30384 C 2812.18 2.31929 3.83292 0
M  V30 30385 C 2813.92 0.529912 4.2118 0
M  V30 30386 C 2811.83 2.60513 5.3093 0
M  V30 30387 H 2810.76 0.183735 0.731271 0
M  V30 30388 H 2813.41 1.08132 1.48256 0
M  V30 30389 H 2811.79 0.194589 3.95522 0
M  V30 30390 H 2812.97 3.01467 3.48503 0
M  V30 30391 H 2811.28 2.60259 3.25045 0
M  V30 30392 H 2813.88 0.720494 5.29824 0
M  V30 30393 H 2814.22 -0.530756 4.12903 0
M  V30 30394 H 2814.75 1.13812 3.81171 0
M  V30 30395 H 2811.49 3.65325 5.44259 0
M  V30 30396 H 2811.01 1.95585 5.67015 0
M  V30 30397 H 2812.69 2.46077 5.98377 0
M  V30 30398 N 2812.82 -1.43695 0.647253 0
M  V30 30399 C 2814.05 -2.06235 0.165787 0
M  V30 30400 C 2814.47 -1.48478 -1.16617 0
M  V30 30401 O 2813.82 -0.613792 -1.71869 0
M  V30 30402 C 2813.88 -3.61446 0.0622286 0
M  V30 30403 O 2813.6 -4.17055 1.34153 0
M  V30 30404 C 2815.1 -4.4105 -0.446025 0
M  V30 30405 H 2812.32 -0.665319 0.0871275 0
M  V30 30406 H 2814.86 -1.843 0.886216 0
M  V30 30407 H 2813.02 -3.82588 -0.608727 0
M  V30 30408 H 2813.43 -5.10662 1.19684 0
M  V30 30409 H 2814.9 -5.50017 -0.467454 0
M  V30 30410 H 2815.38 -4.13648 -1.4762 0
M  V30 30411 H 2815.99 -4.24865 0.192233 0
M  V30 30412 N 2814.3 -0.388796 -1.52729 0
M  V30 30413 C 2815.23 0.43807 -2.29354 0
M  V30 30414 C 2816.21 1.06392 -1.32721 0
M  V30 30415 O 2817.4 1.07679 -1.61614 0
M  V30 30416 C 2814.53 1.56584 -3.09998 0
M  V30 30417 C 2813.48 1.06606 -4.14511 0
M  V30 30418 C 2812.81 2.28586 -4.83376 0
M  V30 30419 C 2814.11 0.134367 -5.22127 0
M  V30 30420 H 2815.8 -0.201258 -2.98723 0
M  V30 30421 H 2813.35 -0.0982341 -1.43665 0
M  V30 30422 H 2815.3 2.15111 -3.62361 0
M  V30 30423 H 2814.03 2.23274 -2.38361 0
M  V30 30424 H 2812.68 0.503319 -3.63128 0
M  V30 30425 H 2812.33 2.93785 -4.08288 0
M  V30 30426 H 2812.03 1.95807 -5.54016 0
M  V30 30427 H 2813.56 2.87757 -5.38543 0
M  V30 30428 H 2814.97 0.627814 -5.69852 0
M  V30 30429 H 2813.37 -0.103639 -6.0001 0
M  V30 30430 H 2814.44 -0.816882 -4.7797 0
M  V30 30431 N 2815.78 1.57153 -0.118604 0
M  V30 30432 C 2816.74 2.14128 0.817427 0
M  V30 30433 C 2817.74 1.07606 1.19488 0
M  V30 30434 O 2818.93 1.33384 1.12046 0
M  V30 30435 C 2816.07 2.68118 2.10536 0
M  V30 30436 H 2817.26 2.98163 0.322286 0
M  V30 30437 H 2814.81 1.55753 0.130628 0
M  V30 30438 H 2815.55 1.8767 2.64482 0
M  V30 30439 H 2815.33 3.46023 1.84419 0
M  V30 30440 H 2816.82 3.1211 2.77448 0
M  V30 30441 N 2817.26 -0.155167 1.56834 0
M  V30 30442 C 2818.49 -0.884293 1.8705 0
M  V30 30443 C 2818.9 -1.75108 0.70587 0
M  V30 30444 O 2818.26 -1.7959 -0.32461 0
M  V30 30445 C 2818.31 -1.74775 3.16443 0
M  V30 30446 O 2818.03 -0.915903 4.28419 0
M  V30 30447 C 2819.53 -2.58516 3.60117 0
M  V30 30448 H 2816.75 -0.256109 0.620201 0
M  V30 30449 H 2819.3 -0.150409 2.03946 0
M  V30 30450 H 2817.45 -2.43479 3.01325 0
M  V30 30451 H 2817.86 -1.50794 5.02356 0
M  V30 30452 H 2819.34 -3.1469 4.53513 0
M  V30 30453 H 2819.82 -3.34164 2.85011 0
M  V30 30454 H 2820.42 -1.95117 3.77901 0
M  V30 30455 N 2818.74 -1.51782 -0.424256 0
M  V30 30456 C 2819.98 -1.64771 -1.17025 0
M  V30 30457 C 2820.31 -0.372557 -1.91408 0
M  V30 30458 O 2819.58 0.612076 -1.86093 0
M  V30 30459 H 2818.16 -0.607289 -0.434981 0
M  V30 30460 H 2820.82 -1.88766 -0.485135 0
M  V30 30461 H 2819.91 -2.48163 -1.89266 0
M  V30 30462 N 2820.21 0.68054 -1.42149 0
M  V30 30463 C 2821.18 1.77599 -1.44883 0
M  V30 30464 C 2822.18 1.57224 -0.337236 0
M  V30 30465 O 2823.37 1.63621 -0.597807 0
M  V30 30466 C 2820.5 3.16164 -1.27489 0
M  V30 30467 H 2821.69 1.76564 -2.42415 0
M  V30 30468 H 2819.25 0.889622 -1.28512 0
M  V30 30469 H 2819.98 3.22829 -0.308567 0
M  V30 30470 H 2819.77 3.32356 -2.08043 0
M  V30 30471 H 2821.26 3.96098 -1.32272 0
M  V30 30472 N 2821.69 1.28226 0.916285 0
M  V30 30473 C 2822.94 1.15005 1.66188 0
M  V30 30474 C 2823.26 -0.302295 1.92643 0
M  V30 30475 O 2822.53 -1.20982 1.54078 0
M  V30 30476 H 2821.11 0.422619 0.615956 0
M  V30 30477 H 2823.77 1.60919 1.0996 0
M  V30 30478 H 2822.87 1.68774 2.6253 0
M  V30 30479 N 2823.17 -1.12438 1.10433 0
M  V30 30480 C 2824.12 -2.18166 0.753141 0
M  V30 30481 C 2825.09 -1.63882 -0.27052 0
M  V30 30482 O 2826.27 -1.90211 -0.149804 0
M  V30 30483 C 2823.41 -3.4457 0.191106 0
M  V30 30484 C 2822.53 -4.12908 1.27006 0
M  V30 30485 C 2821.66 -5.26962 0.669679 0
M  V30 30486 C 2820.7 -5.87166 1.72922 0
M  V30 30487 N 2819.84 -6.92633 1.1491 0
M  V30 30488 H 2824.68 -2.47553 1.65896 0
M  V30 30489 H 2822.21 -1.21539 0.828652 0
M  V30 30490 H 2824.17 -4.16921 -0.152638 0
M  V30 30491 H 2822.8 -3.15601 -0.677942 0
M  V30 30492 H 2821.85 -3.38737 1.73093 0
M  V30 30493 H 2823.17 -4.53723 2.07212 0
M  V30 30494 H 2822.32 -6.06075 0.27538 0
M  V30 30495 H 2821.06 -4.87425 -0.16381 0
M  V30 30496 H 2820.06 -5.0674 2.13294 0
M  V30 30497 H 2821.29 -6.28774 2.56555 0
M  V30 30498 H 2819.23 -6.55133 0.337071 0
M  V30 30499 H 2819.15 -7.32046 1.88799 0
M  V30 30500 H 2820.42 -7.75574 0.781346 0
M  V30 30501 N 2824.65 -0.893076 -1.29853 0
M  V30 30502 C 2825.88 -0.530823 -1.99975 0
M  V30 30503 C 2826.29 0.88277 -1.66891 0
M  V30 30504 O 2825.65 1.58172 -0.91038 0
M  V30 30505 C 2825.7 -0.705649 -3.54546 0
M  V30 30506 O 2825.42 -2.0636 -3.86455 0
M  V30 30507 C 2826.92 -0.347464 -4.41936 0
M  V30 30508 H 2824.14 -0.20435 -0.639126 0
M  V30 30509 H 2826.69 -1.2006 -1.65547 0
M  V30 30510 H 2824.84 -0.0831366 -3.87311 0
M  V30 30511 H 2825.26 -2.08812 -4.81142 0
M  V30 30512 H 2826.73 -0.520654 -5.49539 0
M  V30 30513 H 2827.21 0.715063 -4.3334 0
M  V30 30514 H 2827.81 -0.94664 -4.14631 0
M  V30 30515 N 2826.13 1.4335 -0.654865 0
M  V30 30516 C 2827.36 2.06144 -0.176721 0
M  V30 30517 C 2827.77 1.49095 1.15828 0
M  V30 30518 O 2827.13 0.622898 1.71541 0
M  V30 30519 C 2827.18 3.61408 -0.0813961 0
M  V30 30520 O 2826.9 4.16337 -1.36363 0
M  V30 30521 C 2828.4 4.41281 0.422628 0
M  V30 30522 H 2825.62 0.664848 -0.0906546 0
M  V30 30523 H 2828.16 1.83827 -0.895977 0
M  V30 30524 H 2826.32 3.82905 0.588428 0
M  V30 30525 H 2826.73 5.1002 -1.2239 0
M  V30 30526 H 2828.21 5.50257 0.438278 0
M  V30 30527 H 2828.68 4.14425 1.45424 0
M  V30 30528 H 2829.29 4.24757 -0.214762 0
M  V30 30529 N 2827.61 0.39689 1.52521 0
M  V30 30530 C 2828.52 -0.44174 2.30404 0
M  V30 30531 C 2829.53 -1.06466 1.37626 0
M  V30 30532 O 2830.71 -1.06883 1.70699 0
M  V30 30533 C 2827.77 -1.5498 3.10132 0
M  V30 30534 C 2826.83 -0.951206 4.18629 0
M  V30 30535 C 2826.07 -2.00646 4.94547 0
M  V30 30536 O 2826.29 -3.22272 4.70634 0
M  V30 30537 O 2825.22 -1.61952 5.79703 0
M  V30 30538 H 2829.05 0.192946 3.03086 0
M  V30 30539 H 2826.63 0.160406 1.48536 0
M  V30 30540 H 2828.52 -2.19335 3.5982 0
M  V30 30541 H 2827.19 -2.16931 2.40255 0
M  V30 30542 H 2826.1 -0.270707 3.73119 0
M  V30 30543 H 2827.43 -0.375801 4.90763 0
M  V30 30544 N 2829.08 -1.57088 0.126936 0
M  V30 30545 C 2830.01 -2.18748 -0.816808 0
M  V30 30546 C 2830.99 -1.12981 -1.27159 0
M  V30 30547 O 2832.18 -1.41248 -1.33277 0
M  V30 30548 C 2829.31 -2.79319 -2.06393 0
M  V30 30549 C 2828.26 -3.90738 -1.74666 0
M  V30 30550 C 2827.59 -4.38153 -3.06474 0
M  V30 30551 C 2828.89 -5.12465 -1.00881 0
M  V30 30552 H 2830.58 -2.97863 -0.30298 0
M  V30 30553 H 2828.13 -1.43275 -0.144289 0
M  V30 30554 H 2830.08 -3.21115 -2.72879 0
M  V30 30555 H 2828.81 -1.97505 -2.60114 0
M  V30 30556 H 2827.47 -3.49529 -1.10566 0
M  V30 30557 H 2827.11 -3.53187 -3.58145 0
M  V30 30558 H 2826.81 -5.13292 -2.86016 0
M  V30 30559 H 2828.34 -4.82605 -3.74065 0
M  V30 30560 H 2829.75 -5.51231 -1.57536 0
M  V30 30561 H 2828.15 -5.93238 -0.904902 0
M  V30 30562 H 2829.22 -4.849 0.00305858 0
M  V30 30563 N 2830.56 0.146848 -1.56914 0
M  V30 30564 C 2831.97 0.706897 -1.728 0
M  V30 30565 C 2832.32 1.81654 -0.741361 0
M  V30 30566 O 2831.45 2.16204 0.0919782 0
M  V30 30567 C 2832.04 1.28906 -3.13319 0
M  V30 30568 C 2830.6 1.79568 -3.30806 0
M  V30 30569 C 2829.75 0.684205 -2.68726 0
M  V30 30570 H 2832.7 -0.078821 -1.58504 0
M  V30 30571 H 2832.72 2.15886 -3.13327 0
M  V30 30572 H 2832.23 0.481217 -3.85105 0
M  V30 30573 H 2830.33 2.62918 -2.64017 0
M  V30 30574 H 2830.45 1.92428 -4.38757 0
M  V30 30575 H 2828.81 1.11087 -2.29198 0
M  V30 30576 H 2829.59 -0.112195 -3.43117 0
M  V30 30577 N 2832.04 1.52005 0.4162 0
M  V30 30578 C 2832.99 1.74841 1.50663 0
M  V30 30579 C 2833.96 0.590626 1.55244 0
M  V30 30580 O 2835.14 0.827405 1.71926 0
M  V30 30581 C 2832.28 1.89856 2.88182 0
M  V30 30582 C 2831.39 3.17483 2.92965 0
M  V30 30583 C 2830.53 3.2297 4.21739 0
M  V30 30584 C 2829.57 4.44827 4.2047 0
M  V30 30585 N 2828.71 4.47746 5.40803 0
M  V30 30586 H 2833.55 2.6791 1.30493 0
M  V30 30587 H 2831.08 1.32758 0.633544 0
M  V30 30588 H 2833.04 1.96544 3.68003 0
M  V30 30589 H 2831.67 1.00174 3.06863 0
M  V30 30590 H 2830.72 3.20001 2.05678 0
M  V30 30591 H 2832.03 4.07333 2.87891 0
M  V30 30592 H 2831.19 3.28691 5.09948 0
M  V30 30593 H 2829.93 2.31046 4.29499 0
M  V30 30594 H 2828.93 4.3926 3.30652 0
M  V30 30595 H 2830.16 5.38039 4.14356 0
M  V30 30596 H 2828.1 3.58702 5.49244 0
M  V30 30597 H 2828.02 5.31432 5.37695 0
M  V30 30598 H 2829.29 4.57687 6.30985 0
M  V30 30599 N 2833.52 -0.672992 1.42508 0
M  V30 30600 C 2834.48 -1.76829 1.45823 0
M  V30 30601 C 2835.48 -1.57043 0.34557 0
M  V30 30602 O 2836.67 -1.63302 0.606476 0
M  V30 30603 C 2833.8 -3.15483 1.29163 0
M  V30 30604 H 2835 -1.75276 2.43348 0
M  V30 30605 H 2832.55 -0.882794 1.28982 0
M  V30 30606 H 2833.28 -3.2266 0.325683 0
M  V30 30607 H 2833.07 -3.31248 2.09803 0
M  V30 30608 H 2834.56 -3.95391 1.3437 0
M  V30 30609 N 2835 -1.2871 -0.909472 0
M  V30 30610 C 2836.24 -1.16286 -1.66149 0
M  V30 30611 C 2836.57 0.287036 -1.92067 0
M  V30 30612 O 2835.85 1.20835 -1.52411 0
M  V30 30613 C 2836.13 -1.96636 -3.01673 0
M  V30 30614 C 2835.99 -3.49711 -2.82881 0
M  V30 30615 C 2837.3 -1.78511 -4.02271 0
M  V30 30616 H 2834.42 -0.423804 -0.602959 0
M  V30 30617 H 2837.07 -1.58075 -1.05415 0
M  V30 30618 H 2835.22 -1.61125 -3.53512 0
M  V30 30619 H 2836.89 -3.95152 -2.38019 0
M  V30 30620 H 2835.13 -3.75129 -2.17855 0
M  V30 30621 H 2835.8 -4.01194 -3.7914 0
M  V30 30622 H 2838.28 -2.09509 -3.59507 0
M  V30 30623 H 2837.15 -2.37097 -4.95052 0
M  V30 30624 H 2837.41 -0.737724 -4.35901 0
M  V30 30625 N 2836.47 1.1185 -1.11028 0
M  V30 30626 C 2837.72 1.82855 -0.851281 0
M  V30 30627 C 2838.04 1.85342 0.625108 0
M  V30 30628 O 2839.24 2.52404 1.00022 0
M  V30 30629 C 2837.7 3.28369 -1.47314 0
M  V30 30630 C 2837.31 3.34224 -2.98326 0
M  V30 30631 C 2839.05 4.04303 -1.2938 0
M  V30 30632 C 2836.96 4.74109 -3.53517 0
M  V30 30633 H 2835.89 0.685137 -0.314806 0
M  V30 30634 H 2838.54 1.25896 -1.33501 0
M  V30 30635 H 2836.92 3.85234 -0.917085 0
M  V30 30636 H 2838.09 2.87264 -3.603 0
M  V30 30637 H 2836.41 2.71767 -3.15486 0
M  V30 30638 H 2839.01 5.07605 -1.68051 0
M  V30 30639 H 2839.35 4.15631 -0.235952 0
M  V30 30640 H 2839.88 3.53814 -1.81826 0
M  V30 30641 H 2836.62 4.67978 -4.58996 0
M  V30 30642 H 2836.14 5.21496 -2.96314 0
M  V30 30643 H 2837.82 5.4306 -3.51703 0
M  V30 30644 N 2837.95 0.89995 1.29378 0
M  V30 30645 C 2838.86 0.382478 2.31461 0
M  V30 30646 C 2839.88 -0.5229 1.65957 0
M  V30 30647 O 2841.05 -0.412419 1.97132 0
M  V30 30648 C 2838.12 -0.381411 3.44596 0
M  V30 30649 C 2837.18 0.555519 4.25691 0
M  V30 30650 C 2836.41 -0.172008 5.33423 0
M  V30 30651 O 2836.64 -1.39591 5.53056 0
M  V30 30652 O 2835.57 0.485597 5.99938 0
M  V30 30653 H 2839.4 1.22939 2.77704 0
M  V30 30654 H 2836.98 0.664282 1.33819 0
M  V30 30655 H 2838.86 -0.813369 4.13476 0
M  V30 30656 H 2837.54 -1.20438 3.0046 0
M  V30 30657 H 2836.44 1.0366 3.59452 0
M  V30 30658 H 2837.78 1.34491 4.73469 0
M  V30 30659 N 2839.43 -1.43001 0.662458 0
M  V30 30660 C 2840.34 -2.34588 -0.0238786 0
M  V30 30661 C 2841.36 -1.54403 -0.802228 0
M  V30 30662 O 2842.53 -1.8702 -0.747368 0
M  V30 30663 C 2839.6 -3.32795 -0.97204 0
M  V30 30664 C 2838.66 -4.28881 -0.189597 0
M  V30 30665 C 2837.89 -5.22396 -1.0926 0
M  V30 30666 O 2838.11 -5.20551 -2.332 0
M  V30 30667 O 2837.05 -5.99289 -0.560031 0
M  V30 30668 H 2840.87 -2.9479 0.730223 0
M  V30 30669 H 2838.46 -1.43297 0.42266 0
M  V30 30670 H 2840.34 -3.9316 -1.51669 0
M  V30 30671 H 2839.02 -2.75082 -1.70621 0
M  V30 30672 H 2837.92 -3.71968 0.398859 0
M  V30 30673 H 2839.26 -4.896 0.505196 0
M  V30 30674 N 2840.91 -0.404973 -1.52308 0
M  V30 30675 C 2842.16 0.173494 -2.00952 0
M  V30 30676 C 2842.47 1.46578 -1.29515 0
M  V30 30677 O 2843.68 2.12525 -1.68954 0
M  V30 30678 C 2842.13 0.359738 -3.58098 0
M  V30 30679 C 2841.74 -0.920215 -4.38447 0
M  V30 30680 C 2843.48 0.893721 -4.14985 0
M  V30 30681 C 2841.39 -0.701388 -5.87226 0
M  V30 30682 H 2840.32 0.0686112 -0.750872 0
M  V30 30683 H 2842.97 -0.52978 -1.75686 0
M  V30 30684 H 2841.35 1.12524 -3.79677 0
M  V30 30685 H 2842.53 -1.69155 -4.2863 0
M  V30 30686 H 2840.84 -1.38031 -3.92857 0
M  V30 30687 H 2843.44 1.0734 -5.23815 0
M  V30 30688 H 2843.78 1.86724 -3.72075 0
M  V30 30689 H 2844.32 0.187383 -3.97358 0
M  V30 30690 H 2841.06 -1.64635 -6.34488 0
M  V30 30691 H 2840.58 0.0307234 -5.99792 0
M  V30 30692 H 2842.25 -0.341959 -6.46096 0
M  V30 30693 N 2842.39 1.57018 -0.135265 0
M  V30 30694 C 2843.63 1.95356 0.517735 0
M  V30 30695 C 2843.96 1.02045 1.66168 0
M  V30 30696 O 2843.23 0.0797687 1.95738 0
M  V30 30697 H 2841.81 0.721301 0.194252 0
M  V30 30698 H 2844.47 1.93787 -0.208017 0
M  V30 30699 H 2843.56 2.98793 0.901622 0
M  V30 30700 N 2843.86 -0.138524 1.5699 0
M  V30 30701 C 2845.28 -0.491446 1.51845 0
M  V30 30702 C 2845.48 -1.82922 0.845095 0
M  V30 30703 O 2844.54 -2.48996 0.419187 0
M  V30 30704 C 2845.85 -0.493935 2.96616 0
M  V30 30705 C 2847.4 -0.578859 3.07601 0
M  V30 30706 C 2847.87 -0.611929 4.53894 0
M  V30 30707 N 2849.36 -0.673916 4.58271 0
M  V30 30708 C 2850.1 -0.720629 5.68854 0
M  V30 30709 N 2849.59 -0.72617 6.88984 0
M  V30 30710 N 2851.39 -0.762155 5.56909 0
M  V30 30711 H 2843.54 0.738263 1.99157 0
M  V30 30712 H 2845.8 0.270165 0.908688 0
M  V30 30713 H 2845.51 0.420994 3.49171 0
M  V30 30714 H 2845.38 -1.32881 3.53019 0
M  V30 30715 H 2847.77 -1.48421 2.55059 0
M  V30 30716 H 2847.85 0.283331 2.54226 0
M  V30 30717 H 2847.49 0.289297 5.07075 0
M  V30 30718 H 2847.42 -1.49073 5.05059 0
M  V30 30719 H 2849.91 -0.676589 3.71794 0
M  V30 30720 H 2850.23 -0.763897 7.69015 0
M  V30 30721 H 2848.57 -0.693909 6.91527 0
M  V30 30722 H 2851.76 -0.755054 4.6197 0
M  V30 30723 H 2851.94 -0.795094 6.43104 0
M  V30 30724 N 2845.34 -1.52224 -0.408133 0
M  V30 30725 C 2846.29 -1.72019 -1.49645 0
M  V30 30726 C 2847.28 -0.574095 -1.5031 0
M  V30 30727 O 2848.47 -0.8312 -1.56269 0
M  V30 30728 C 2845.6 -1.87517 -2.87563 0
M  V30 30729 C 2844.68 -3.08 -2.91542 0
M  V30 30730 N 2845.07 -4.3069 -2.65217 0
M  V30 30731 C 2843.37 -3.07854 -3.2271 0
M  V30 30732 C 2844.07 -5.12167 -2.7579 0
M  V30 30733 N 2843.05 -4.47436 -3.08711 0
M  V30 30734 H 2846.85 -2.64519 -1.28089 0
M  V30 30735 H 2844.37 -1.5027 -0.615853 0
M  V30 30736 H 2846.36 -1.99815 -3.65896 0
M  V30 30737 H 2845.02 -0.962169 -3.10117 0
M  V30 30738 H 2846.03 -4.59146 -2.39593 0
M  V30 30739 H 2842.71 -2.26295 -3.50852 0
M  V30 30740 H 2844.1 -6.19915 -2.59144 0
M  V30 30741 N 2846.82 0.665425 -1.42863 0
M  V30 30742 C 2847.77 1.77871 -1.47073 0
M  V30 30743 C 2848.74 1.62955 -0.321682 0
M  V30 30744 O 2849.92 1.83375 -0.527102 0
M  V30 30745 C 2847.06 3.1596 -1.38793 0
M  V30 30746 C 2846.18 3.42096 -2.63807 0
M  V30 30747 C 2845.31 4.69964 -2.47603 0
M  V30 30748 C 2844.35 4.89166 -3.67944 0
M  V30 30749 N 2843.49 6.08282 -3.50625 0
M  V30 30750 H 2848.33 1.73608 -2.42207 0
M  V30 30751 H 2845.86 0.84738 -1.20241 0
M  V30 30752 H 2847.82 3.95771 -1.31989 0
M  V30 30753 H 2846.45 3.19323 -0.472487 0
M  V30 30754 H 2845.5 2.5647 -2.8094 0
M  V30 30755 H 2846.82 3.52175 -3.53234 0
M  V30 30756 H 2845.97 5.57882 -2.38437 0
M  V30 30757 H 2844.71 4.62185 -1.5568 0
M  V30 30758 H 2843.71 3.99687 -3.77532 0
M  V30 30759 H 2844.94 4.98784 -4.60859 0
M  V30 30760 H 2842.88 6.01658 -2.61427 0
M  V30 30761 H 2842.8 6.19264 -4.33645 0
M  V30 30762 H 2844.07 6.98853 -3.45289 0
M  V30 30763 N 2848.3 1.29191 0.902633 0
M  V30 30764 C 2849.71 1.07139 1.18294 0
M  V30 30765 C 2849.91 -0.179187 2.00702 0
M  V30 30766 O 2848.97 -0.877771 2.36752 0
M  V30 30767 C 2850.28 2.32517 1.90673 0
M  V30 30768 C 2851.83 2.37807 2.03511 0
M  V30 30769 C 2852.31 3.62981 2.793 0
M  V30 30770 N 2853.8 3.63686 2.86856 0
M  V30 30771 C 2854.53 4.57223 3.46027 0
M  V30 30772 N 2854.03 5.61088 4.06389 0
M  V30 30773 N 2855.82 4.44798 3.43673 0
M  V30 30774 H 2847.97 2.09451 0.352728 0
M  V30 30775 H 2850.24 0.922418 0.218744 0
M  V30 30776 H 2849.94 3.23685 1.37554 0
M  V30 30777 H 2849.82 2.39798 2.91165 0
M  V30 30778 H 2852.2 1.4713 2.55806 0
M  V30 30779 H 2852.28 2.34514 1.02161 0
M  V30 30780 H 2851.93 4.54008 2.27682 0
M  V30 30781 H 2851.86 3.63532 3.80988 0
M  V30 30782 H 2854.35 2.88585 2.43981 0
M  V30 30783 H 2854.66 6.28588 4.49553 0
M  V30 30784 H 2853.01 5.64901 4.0486 0
M  V30 30785 H 2856.2 3.62849 2.95734 0
M  V30 30786 H 2856.37 5.17879 3.89494 0
M  V30 30787 N 2849.78 -1.1126 1.1162 0
M  V30 30788 C 2851.02 -1.83309 0.867495 0
M  V30 30789 C 2851.36 -1.84525 -0.605333 0
M  V30 30790 O 2850.63 -1.29968 -1.44702 0
M  V30 30791 C 2850.91 -3.30397 1.43213 0
M  V30 30792 C 2850.77 -3.37565 2.97271 0
M  V30 30793 C 2852.09 -4.26526 1.08461 0
M  V30 30794 H 2849.2 -0.665537 0.31659 0
M  V30 30795 H 2851.85 -1.30452 1.38139 0
M  V30 30796 H 2850 -3.75541 0.995048 0
M  V30 30797 H 2851.67 -3.00965 3.49596 0
M  V30 30798 H 2849.91 -2.77727 3.33242 0
M  V30 30799 H 2850.58 -4.41099 3.31867 0
M  V30 30800 H 2853.06 -3.89571 1.46196 0
M  V30 30801 H 2851.93 -5.27824 1.50643 0
M  V30 30802 H 2852.2 -4.421 -0.00436797 0
M  V30 30803 N 2851.25 -0.906798 -1.28899 0
M  V30 30804 C 2852.18 -0.4067 -2.29931 0
M  V30 30805 C 2853.17 0.522033 -1.61891 0
M  V30 30806 O 2854.35 0.43125 -1.89351 0
M  V30 30807 C 2851.48 0.360305 -3.45426 0
M  V30 30808 C 2850.43 -0.478649 -4.25315 0
M  V30 30809 C 2849.76 0.416279 -5.33077 0
M  V30 30810 C 2851.06 -1.73229 -4.92736 0
M  V30 30811 H 2852.75 -1.25102 -2.72011 0
M  V30 30812 H 2850.3 -0.603 -1.30767 0
M  V30 30813 H 2852.25 0.720956 -4.15187 0
M  V30 30814 H 2850.98 1.23847 -3.02208 0
M  V30 30815 H 2849.64 -0.821725 -3.57272 0
M  V30 30816 H 2849.28 1.29278 -4.86103 0
M  V30 30817 H 2848.98 -0.141412 -5.8743 0
M  V30 30818 H 2850.51 0.772965 -6.05688 0
M  V30 30819 H 2851.92 -1.44095 -5.54896 0
M  V30 30820 H 2850.32 -2.23185 -5.57054 0
M  V30 30821 H 2851.39 -2.46416 -4.17621 0
M  V30 30822 N 2852.73 1.42648 -0.670032 0
M  V30 30823 C 2853.98 2.01902 -0.190603 0
M  V30 30824 C 2854.31 1.52834 1.19814 0
M  V30 30825 O 2853.59 0.728517 1.80341 0
M  V30 30826 C 2853.87 3.59428 -0.219973 0
M  V30 30827 C 2853.72 4.18686 -1.64383 0
M  V30 30828 C 2855.04 4.3795 0.434442 0
M  V30 30829 H 2852.16 0.733598 -0.0707348 0
M  V30 30830 H 2854.8 1.6973 -0.853913 0
M  V30 30831 H 2852.95 3.86967 0.344826 0
M  V30 30832 H 2854.62 4.02118 -2.26051 0
M  V30 30833 H 2852.87 3.74696 -2.18598 0
M  V30 30834 H 2853.54 5.27813 -1.6161 0
M  V30 30835 H 2856.01 4.16074 -0.0462887 0
M  V30 30836 H 2854.89 5.47561 0.383234 0
M  V30 30837 H 2855.15 4.15467 1.51128 0
M  V30 30838 N 2854.21 0.413044 1.52091 0
M  V30 30839 C 2855.14 -0.401527 2.30022 0
M  V30 30840 C 2856.12 -1.04267 1.34397 0
M  V30 30841 O 2857.31 -1.05094 1.63306 0
M  V30 30842 C 2854.44 -1.51632 3.1245 0
M  V30 30843 C 2853.39 -0.999977 4.16154 0
M  V30 30844 C 2852.72 -2.20867 4.86952 0
M  V30 30845 C 2854.02 -0.0512839 5.22275 0
M  V30 30846 H 2855.71 0.248757 2.98365 0
M  V30 30847 H 2853.26 0.121077 1.4349 0
M  V30 30848 H 2855.21 -2.09319 3.65737 0
M  V30 30849 H 2853.93 -2.19454 2.41883 0
M  V30 30850 H 2852.59 -0.445485 3.63883 0
M  V30 30851 H 2852.24 -2.87252 4.1291 0
M  V30 30852 H 2851.94 -1.86968 5.57061 0
M  V30 30853 H 2853.47 -2.79153 5.43053 0
M  V30 30854 H 2854.88 -0.537076 5.70779 0
M  V30 30855 H 2853.28 0.199082 5.9977 0
M  V30 30856 H 2854.35 0.892819 4.7661 0
M  V30 30857 N 2855.69 -1.56945 0.143591 0
M  V30 30858 C 2856.94 -1.9519 -0.508316 0
M  V30 30859 C 2857.25 -1.03076 -1.66237 0
M  V30 30860 O 2858.46 -1.30886 -2.37868 0
M  V30 30861 C 2856.91 -3.4698 -0.955674 0
M  V30 30862 C 2856.52 -4.47673 0.171261 0
M  V30 30863 C 2858.27 -3.94098 -1.57756 0
M  V30 30864 C 2856.17 -5.90668 -0.294175 0
M  V30 30865 H 2855.1 -0.728704 -0.193666 0
M  V30 30866 H 2857.75 -1.82086 0.227389 0
M  V30 30867 H 2856.14 -3.55404 -1.74654 0
M  V30 30868 H 2857.31 -4.5094 0.948129 0
M  V30 30869 H 2855.62 -4.10451 0.701345 0
M  V30 30870 H 2858.22 -4.98368 -1.93736 0
M  V30 30871 H 2858.56 -3.35457 -2.46525 0
M  V30 30872 H 2859.1 -3.88576 -0.85166 0
M  V30 30873 H 2855.84 -6.5312 0.558054 0
M  V30 30874 H 2855.36 -5.90768 -1.03699 0
M  V30 30875 H 2857.04 -6.4267 -0.747313 0
M  V30 30876 N 2857.17 0.130197 -1.57061 0
M  V30 30877 C 2858.58 0.68853 -1.7354 0
M  V30 30878 C 2858.93 1.80858 -0.760586 0
M  V30 30879 O 2858.05 2.1629 0.0690416 0
M  V30 30880 C 2858.65 1.25575 -3.14668 0
M  V30 30881 C 2857.21 1.76049 -3.32692 0
M  V30 30882 C 2856.36 0.655664 -2.69437 0
M  V30 30883 H 2859.31 -0.095628 -1.58412 0
M  V30 30884 H 2859.33 2.1255 -3.15599 0
M  V30 30885 H 2858.84 0.440344 -3.85594 0
M  V30 30886 H 2856.94 2.60103 -2.66791 0
M  V30 30887 H 2857.05 1.87764 -4.40774 0
M  V30 30888 H 2855.42 1.0865 -2.30364 0
M  V30 30889 H 2856.2 -0.148581 -3.42978 0
M  V30 30890 N 2858.65 1.52438 0.400055 0
M  V30 30891 C 2859.58 1.79393 1.49467 0
M  V30 30892 C 2860.56 0.645357 1.57382 0
M  V30 30893 O 2861.74 0.891856 1.7251 0
M  V30 30894 C 2858.87 1.95282 2.87198 0
M  V30 30895 C 2857.83 3.10922 2.94129 0
M  V30 30896 C 2857.15 3.12047 4.34201 0
M  V30 30897 C 2858.45 4.50208 2.64783 0
M  V30 30898 H 2860.15 2.71055 1.2716 0
M  V30 30899 H 2857.69 1.30428 0.61029 0
M  V30 30900 H 2859.64 2.12721 3.63769 0
M  V30 30901 H 2858.37 1.00299 3.10818 0
M  V30 30902 H 2857.03 2.93247 2.20004 0
M  V30 30903 H 2856.68 2.14769 4.54844 0
M  V30 30904 H 2856.38 3.89723 4.39761 0
M  V30 30905 H 2857.9 3.31628 5.12694 0
M  V30 30906 H 2859.31 4.68041 3.31075 0
M  V30 30907 H 2857.71 5.29869 2.81708 0
M  V30 30908 H 2858.78 4.57681 1.60176 0
M  V30 30909 N 2860.12 -0.657839 1.43214 0
M  V30 30910 C 2861.54 -0.972969 1.26513 0
M  V30 30911 C 2861.74 -2.00681 0.181512 0
M  V30 30912 O 2860.8 -2.48608 -0.441606 0
M  V30 30913 C 2862.11 -1.46163 2.62787 0
M  V30 30914 C 2863.66 -1.57852 2.70281 0
M  V30 30915 C 2864.13 -2.1011 4.06962 0
M  V30 30916 N 2865.62 -2.17419 4.09003 0
M  V30 30917 C 2866.36 -2.58966 5.1159 0
M  V30 30918 N 2865.85 -2.99842 6.24553 0
M  V30 30919 N 2867.65 -2.58865 4.98944 0
M  V30 30920 H 2859.8 0.0263503 2.12384 0
M  V30 30921 H 2862.06 -0.0507825 0.946639 0
M  V30 30922 H 2861.77 -0.776413 3.43023 0
M  V30 30923 H 2861.64 -2.43746 2.87867 0
M  V30 30924 H 2864.03 -2.25476 1.9038 0
M  V30 30925 H 2864.11 -0.587135 2.48971 0
M  V30 30926 H 2863.75 -1.43089 4.87327 0
M  V30 30927 H 2863.68 -3.10071 4.25633 0
M  V30 30928 H 2866.17 -1.88621 3.27461 0
M  V30 30929 H 2866.49 -3.3028 6.98667 0
M  V30 30930 H 2864.83 -2.97658 6.28032 0
M  V30 30931 H 2868.02 -2.26304 4.09761 0
M  V30 30932 H 2868.2 -2.90922 5.79024 0
M  V30 30933 N 2861.6 -1.29668 -0.895769 0
M  V30 30934 C 2862.56 -1.15128 -1.98187 0
M  V30 30935 C 2863.56 -0.0855999 -1.60572 0
M  V30 30936 O 2864.75 -0.332856 -1.7099 0
M  V30 30937 C 2861.89 -0.76143 -3.32288 0
M  V30 30938 H 2863.08 -2.11607 -2.12514 0
M  V30 30939 H 2860.63 -1.1291 -1.08079 0
M  V30 30940 H 2861.37 0.203336 -3.23662 0
M  V30 30941 H 2861.15 -1.53145 -3.60956 0
M  V30 30942 H 2862.64 -0.682865 -4.11979 0
M  V30 30943 N 2863.08 1.10667 -1.12208 0
M  V30 30944 C 2864.04 2.15122 -0.790905 0
M  V30 30945 C 2865.04 1.5963 0.19359 0
M  V30 30946 O 2866.23 1.74171 -0.0319034 0
M  V30 30947 C 2863.36 3.40451 -0.174857 0
M  V30 30948 H 2864.56 2.4593 -1.71635 0
M  V30 30949 H 2862.11 1.25989 -0.925015 0
M  V30 30950 H 2862.85 3.15259 0.760422 0
M  V30 30951 H 2862.63 3.82013 -0.883647 0
M  V30 30952 H 2864.12 4.1758 0.0404428 0
M  V30 30953 N 2864.56 0.913621 1.28416 0
M  V30 30954 C 2865.52 0.406663 2.25563 0
M  V30 30955 C 2866.52 -0.466938 1.53871 0
M  V30 30956 O 2867.71 -0.270012 1.72095 0
M  V30 30957 C 2864.84 -0.416993 3.3834 0
M  V30 30958 H 2866.04 1.26482 2.71923 0
M  V30 30959 H 2863.59 0.693011 1.40097 0
M  V30 30960 H 2864.32 -1.29456 2.97341 0
M  V30 30961 H 2864.11 0.209171 3.91542 0
M  V30 30962 H 2865.6 -0.76253 4.10579 0
M  V30 30963 N 2866.04 -1.4229 0.677588 0
M  V30 30964 C 2866.95 -2.346 0.00100389 0
M  V30 30965 C 2867.96 -1.55245 -0.785806 0
M  V30 30966 O 2869.14 -1.87802 -0.72749 0
M  V30 30967 C 2866.2 -3.33807 -0.936688 0
M  V30 30968 C 2865.26 -4.29058 -0.144098 0
M  V30 30969 C 2864.5 -5.23526 -1.03713 0
M  V30 30970 O 2864.72 -5.22996 -2.27666 0
M  V30 30971 O 2863.65 -5.99849 -0.496437 0
M  V30 30972 H 2867.48 -2.93999 0.761448 0
M  V30 30973 H 2865.06 -1.4284 0.437835 0
M  V30 30974 H 2866.95 -3.94746 -1.4749 0
M  V30 30975 H 2865.62 -2.76876 -1.67693 0
M  V30 30976 H 2864.53 -3.71524 0.438289 0
M  V30 30977 H 2865.86 -4.89037 0.557096 0
M  V30 30978 N 2867.51 -0.421104 -1.5187 0
M  V30 30979 C 2868.74 0.152334 -2.0684 0
M  V30 30980 C 2869.16 1.37081 -1.28804 0
M  V30 30981 O 2868.52 1.78426 -0.321513 0
M  V30 30982 C 2868.57 0.469305 -3.57533 0
M  V30 30983 O 2867.67 1.55842 -3.81821 0
M  V30 30984 H 2867.01 0.00897419 -0.663939 0
M  V30 30985 H 2869.54 -0.597759 -1.95673 0
M  V30 30986 H 2869.55 0.724482 -4.01516 0
M  V30 30987 H 2868.23 -0.421349 -4.1376 0
M  V30 30988 H 2866.81 1.29447 -3.49711 0
M  V30 30989 N 2868.99 1.56866 -0.151912 0
M  V30 30990 C 2870.24 1.96573 0.498707 0
M  V30 30991 C 2870.57 1.03705 1.64192 0
M  V30 30992 O 2869.85 0.0803774 1.94334 0
M  V30 30993 C 2870.13 3.4593 1.00021 0
M  V30 30994 C 2869.98 4.49576 -0.141846 0
M  V30 30995 C 2871.3 3.97907 1.88037 0
M  V30 30996 H 2868.42 0.71473 0.179807 0
M  V30 30997 H 2871.06 1.88552 -0.23413 0
M  V30 30998 H 2869.21 3.52896 1.6247 0
M  V30 30999 H 2870.88 4.54686 -0.778349 0
M  V30 31000 H 2869.13 4.26355 -0.800265 0
M  V30 31001 H 2869.8 5.5143 0.25085 0
M  V30 31002 H 2872.27 3.93451 1.35409 0
M  V30 31003 H 2871.15 5.02868 2.20034 0
M  V30 31004 H 2871.41 3.40557 2.8191 0
M  V30 31005 N 2870.47 -0.121866 1.57128 0
M  V30 31006 C 2871.7 -0.843193 1.8861 0
M  V30 31007 C 2872.11 -1.74088 0.740948 0
M  V30 31008 O 2871.45 -1.81277 -0.297394 0
M  V30 31009 C 2871.51 -1.73111 3.15076 0
M  V30 31010 C 2871.18 -1.00802 4.45744 0
M  V30 31011 C 2872.17 -0.350163 5.18719 0
M  V30 31012 C 2869.86 -0.990053 4.92446 0
M  V30 31013 C 2871.85 0.316001 6.36616 0
M  V30 31014 C 2869.54 -0.320089 6.10261 0
M  V30 31015 C 2870.54 0.331786 6.82194 0
M  V30 31016 O 2870.23 0.991068 7.97768 0
M  V30 31017 H 2869.96 -0.247854 0.628923 0
M  V30 31018 H 2872.51 -0.111689 2.05096 0
M  V30 31019 H 2870.74 -2.50419 2.94665 0
M  V30 31020 H 2872.43 -2.32661 3.32601 0
M  V30 31021 H 2873.2 -0.355685 4.83694 0
M  V30 31022 H 2869.08 -1.48687 4.36364 0
M  V30 31023 H 2872.62 0.825394 6.927 0
M  V30 31024 H 2868.52 -0.31232 6.44744 0
M  V30 31025 H 2869.29 0.895256 8.13589 0
M  V30 31026 N 2871.95 -1.52648 -0.391965 0
M  V30 31027 C 2872.88 -1.73465 -1.49808 0
M  V30 31028 C 2873.89 -0.615104 -1.50733 0
M  V30 31029 O 2875.08 -0.890723 -1.54688 0
M  V30 31030 C 2872.18 -1.77557 -2.88663 0
M  V30 31031 C 2871.36 -3.0682 -3.11737 0
M  V30 31032 C 2870.41 -3.02498 -4.30559 0
M  V30 31033 O 2869.44 -3.76369 -4.27007 0
M  V30 31034 N 2870.64 -2.21477 -5.36589 0
M  V30 31035 H 2873.41 -2.68899 -1.32338 0
M  V30 31036 H 2870.97 -1.51099 -0.581448 0
M  V30 31037 H 2872.96 -1.72176 -3.66248 0
M  V30 31038 H 2871.53 -0.895233 -2.99507 0
M  V30 31039 H 2870.75 -3.25715 -2.22044 0
M  V30 31040 H 2872.04 -3.92298 -3.24006 0
M  V30 31041 H 2871.44 -1.60923 -5.42329 0
M  V30 31042 H 2869.99 -2.21938 -6.12851 0
M  V30 31043 N 2873.43 0.650235 -1.43561 0
M  V30 31044 C 2874.66 1.43568 -1.48566 0
M  V30 31045 C 2875.06 1.88919 -0.103074 0
M  V30 31046 O 2874.41 1.60279 0.897574 0
M  V30 31047 C 2874.47 2.70154 -2.37185 0
M  V30 31048 C 2874.13 2.46724 -3.84677 0
M  V30 31049 C 2875.13 2.09757 -4.75708 0
M  V30 31050 C 2872.82 2.60955 -4.29194 0
M  V30 31051 C 2874.81 1.87323 -6.09253 0
M  V30 31052 C 2872.5 2.38137 -5.62791 0
M  V30 31053 C 2873.49 2.01377 -6.52638 0
M  V30 31054 O 2873.18 1.78799 -7.83764 0
M  V30 31055 H 2872.91 0.447414 -0.506751 0
M  V30 31056 H 2875.47 0.804196 -1.89002 0
M  V30 31057 H 2873.7 3.35872 -1.91642 0
M  V30 31058 H 2875.39 3.32111 -2.3336 0
M  V30 31059 H 2876.15 1.98335 -4.42593 0
M  V30 31060 H 2872.03 2.88542 -3.59534 0
M  V30 31061 H 2875.58 1.58555 -6.79342 0
M  V30 31062 H 2871.47 2.49162 -5.95473 0
M  V30 31063 H 2872.24 1.932 -7.95372 0
M  V30 31064 N 2874.9 1.30141 0.88888 0
M  V30 31065 C 2875.84 1.10517 1.99653 0
M  V30 31066 C 2876.82 0.013922 1.62594 0
M  V30 31067 O 2878 0.166722 1.87761 0
M  V30 31068 C 2875.13 0.684713 3.31707 0
M  V30 31069 C 2874.17 1.77626 3.87752 0
M  V30 31070 S 2875.01 3.37784 4.15526 0
M  V30 31071 C 2876.16 2.97632 5.50605 0
M  V30 31072 H 2876.39 2.0429 2.15992 0
M  V30 31073 H 2873.93 1.14411 1.0368 0
M  V30 31074 H 2875.89 0.448854 4.08039 0
M  V30 31075 H 2874.55 -0.233593 3.1323 0
M  V30 31076 H 2873.74 1.43425 4.83162 0
M  V30 31077 H 2873.34 1.9662 3.18146 0
M  V30 31078 H 2875.63 2.4535 6.31514 0
M  V30 31079 H 2876.58 3.91934 5.8974 0
M  V30 31080 H 2876.98 2.35612 5.12979 0
M  V30 31081 N 2876.38 -1.1007 1.12794 0
M  V30 31082 C 2877.8 -1.34141 0.864768 0
M  V30 31083 C 2878 -1.95117 -0.503167 0
M  V30 31084 O 2877.05 -2.19327 -1.25107 0
M  V30 31085 C 2878.37 -2.25945 1.98417 0
M  V30 31086 C 2879.92 -2.39473 2.01549 0
M  V30 31087 C 2880.39 -3.34608 3.12733 0
M  V30 31088 N 2881.88 -3.42178 3.122 0
M  V30 31089 C 2882.62 -4.15772 3.94869 0
M  V30 31090 N 2882.11 -4.92219 4.87537 0
M  V30 31091 N 2883.91 -4.11428 3.82992 0
M  V30 31092 H 2876.06 -0.688625 2.00927 0
M  V30 31093 H 2878.32 -0.365828 0.87457 0
M  V30 31094 H 2878.03 -1.88359 2.97008 0
M  V30 31095 H 2877.9 -3.26283 1.89259 0
M  V30 31096 H 2880.29 -2.76327 1.03574 0
M  V30 31097 H 2880.37 -1.38936 2.1478 0
M  V30 31098 H 2880.01 -2.98478 4.10942 0
M  V30 31099 H 2879.94 -4.35032 2.9674 0
M  V30 31100 H 2882.43 -2.87661 2.4507 0
M  V30 31101 H 2882.75 -5.45785 5.47119 0
M  V30 31102 H 2881.09 -4.91331 4.91547 0
M  V30 31103 H 2884.28 -3.50801 3.09929 0
M  V30 31104 H 2884.45 -4.68523 4.47649 0
M  V30 31105 N 2877.86 -0.920419 -1.2793 0
M  V30 31106 C 2878.79 -0.431064 -2.29487 0
M  V30 31107 C 2879.77 0.504833 -1.62436 0
M  V30 31108 O 2880.96 0.411142 -1.89798 0
M  V30 31109 C 2878.09 0.323648 -3.45789 0
M  V30 31110 C 2877.04 -0.523732 -4.24784 0
M  V30 31111 C 2876.37 0.359716 -5.33489 0
M  V30 31112 C 2877.67 -1.78445 -4.90871 0
M  V30 31113 H 2879.36 -1.2798 -2.70669 0
M  V30 31114 H 2876.91 -0.616836 -1.3012 0
M  V30 31115 H 2878.86 0.676879 -4.15928 0
M  V30 31116 H 2877.58 1.20634 -3.03504 0
M  V30 31117 H 2876.24 -0.859572 -3.5638 0
M  V30 31118 H 2875.89 1.24115 -4.87447 0
M  V30 31119 H 2875.59 -0.203709 -5.87247 0
M  V30 31120 H 2877.11 0.708681 -6.06473 0
M  V30 31121 H 2878.53 -1.49973 -5.53336 0
M  V30 31122 H 2876.93 -2.2908 -5.54655 0
M  V30 31123 H 2878 -2.50831 -4.14984 0
M  V30 31124 N 2879.34 1.41929 -0.685124 0
M  V30 31125 C 2880.29 2.30796 -0.0132275 0
M  V30 31126 C 2881.26 1.46534 0.782104 0
M  V30 31127 O 2882.44 1.75345 0.752259 0
M  V30 31128 C 2879.58 3.3248 0.924709 0
M  V30 31129 C 2878.69 4.31827 0.122105 0
M  V30 31130 C 2877.83 5.20583 1.05673 0
M  V30 31131 C 2876.87 6.11604 0.246419 0
M  V30 31132 N 2876 6.92877 1.1343 0
M  V30 31133 H 2880.84 2.87696 -0.77684 0
M  V30 31134 H 2878.38 1.41703 -0.394816 0
M  V30 31135 H 2880.34 3.89974 1.48244 0
M  V30 31136 H 2878.97 2.77155 1.65484 0
M  V30 31137 H 2878.02 3.76368 -0.552401 0
M  V30 31138 H 2879.33 4.96221 -0.50656 0
M  V30 31139 H 2878.49 5.82859 1.68405 0
M  V30 31140 H 2877.23 4.56391 1.71927 0
M  V30 31141 H 2876.23 5.48386 -0.39404 0
M  V30 31142 H 2877.46 6.77848 -0.412172 0
M  V30 31143 H 2875.4 6.31303 1.78305 0
M  V30 31144 H 2875.32 7.53916 0.560956 0
M  V30 31145 H 2876.59 7.59631 1.74875 0
M  V30 31146 N 2880.82 0.429152 1.51644 0
M  V30 31147 C 2881.77 -0.404177 2.24389 0
M  V30 31148 C 2882.75 -0.996911 1.26295 0
M  V30 31149 O 2883.94 -0.916408 1.5143 0
M  V30 31150 C 2881.07 -1.50933 3.08341 0
M  V30 31151 C 2880.16 -0.926391 4.13858 0
M  V30 31152 N 2880.55 -0.0718844 5.05749 0
M  V30 31153 C 2878.85 -1.19483 4.29697 0
M  V30 31154 C 2879.55 0.254631 5.81142 0
M  V30 31155 N 2878.52 -0.359668 5.42409 0
M  V30 31156 H 2882.33 0.254748 2.92794 0
M  V30 31157 H 2879.84 0.24074 1.60606 0
M  V30 31158 H 2881.84 -2.11911 3.59025 0
M  V30 31159 H 2880.5 -2.17067 2.41478 0
M  V30 31160 H 2881.51 0.293944 5.17065 0
M  V30 31161 H 2878.18 -1.85428 3.74063 0
M  V30 31162 H 2879.57 0.949481 6.65157 0
M  V30 31163 N 2882.29 -1.56783 0.160229 0
M  V30 31164 C 2883.71 -1.83228 -0.358384 0
M  V30 31165 C 2884.06 -1.07955 -1.6383 0
M  V30 31166 O 2883.18 -0.329032 -2.13884 0
M  V30 31167 C 2883.78 -3.32369 -0.657 0
M  V30 31168 C 2882.34 -3.59348 -1.12009 0
M  V30 31169 C 2881.48 -2.76893 -0.150102 0
M  V30 31170 H 2884.43 -1.53967 0.384696 0
M  V30 31171 H 2884.45 -3.49244 -1.51027 0
M  V30 31172 H 2883.97 -3.87126 0.274715 0
M  V30 31173 H 2882.07 -3.0999 -2.06729 0
M  V30 31174 H 2882.18 -4.67744 -1.03692 0
M  V30 31175 H 2880.54 -2.46389 -0.645318 0
M  V30 31176 H 2881.33 -3.34428 0.775438 0
M  V30 31177 N 2883.77 0.113531 -1.57191 0
M  V30 31178 C 2885 0.838303 -1.89703 0
M  V30 31179 C 2885.42 1.72383 -0.75271 0
M  V30 31180 O 2884.78 1.78858 0.296544 0
M  V30 31181 C 2884.83 1.64307 -3.20992 0
M  V30 31182 O 2883.93 2.75048 -3.07282 0
M  V30 31183 H 2883.27 0.231485 -0.622343 0
M  V30 31184 H 2885.8 0.0942869 -2.04383 0
M  V30 31185 H 2885.81 2.03116 -3.53847 0
M  V30 31186 H 2884.49 0.993048 -4.0387 0
M  V30 31187 H 2883.07 2.39401 -2.85905 0
M  V30 31188 N 2885.25 1.52854 0.383864 0
M  V30 31189 C 2886.5 1.67371 1.1256 0
M  V30 31190 C 2886.81 0.422567 1.90981 0
M  V30 31191 O 2888.02 0.447961 2.67779 0
M  V30 31192 C 2886.48 2.95805 2.05006 0
M  V30 31193 C 2886.08 4.28117 1.31984 0
M  V30 31194 C 2887.83 3.19689 2.79284 0
M  V30 31195 C 2885.73 5.47654 2.23225 0
M  V30 31196 H 2884.66 0.623559 0.423899 0
M  V30 31197 H 2887.32 1.79351 0.387984 0
M  V30 31198 H 2885.7 2.77583 2.82425 0
M  V30 31199 H 2886.87 4.56909 0.597553 0
M  V30 31200 H 2885.19 4.10535 0.696445 0
M  V30 31201 H 2887.78 4.06177 3.47742 0
M  V30 31202 H 2888.13 2.34976 3.43645 0
M  V30 31203 H 2888.66 3.385 2.08956 0
M  V30 31204 H 2885.4 6.34789 1.63471 0
M  V30 31205 H 2884.92 5.23166 2.93355 0
M  V30 31206 H 2886.6 5.8173 2.83195 0
M  V30 31207 N 2886.73 -0.642612 1.43904 0
M  V30 31208 C 2887.95 -1.43481 1.4976 0
M  V30 31209 C 2888.38 -1.87717 0.119944 0
M  V30 31210 O 2887.74 -1.58034 -0.88853 0
M  V30 31211 C 2887.79 -2.63894 2.45749 0
M  V30 31212 O 2886.89 -3.63327 1.95108 0
M  V30 31213 H 2886.23 -0.429782 0.506146 0
M  V30 31214 H 2888.76 -0.785404 1.88925 0
M  V30 31215 H 2888.77 -3.1158 2.63405 0
M  V30 31216 H 2887.45 -2.3104 3.45822 0
M  V30 31217 H 2886.02 -3.22528 1.87163 0
M  V30 31218 N 2888.21 -1.30611 -0.881966 0
M  V30 31219 C 2889.45 -1.19607 -1.63403 0
M  V30 31220 C 2889.78 0.24854 -1.92905 0
M  V30 31221 O 2889.04 1.19388 -1.55064 0
M  V30 31222 C 2889.34 -1.97316 -2.97995 0
M  V30 31223 C 2889 -3.46912 -2.88033 0
M  V30 31224 C 2887.66 -3.87705 -2.85023 0
M  V30 31225 C 2890.02 -4.42161 -2.7594 0
M  V30 31226 C 2887.34 -5.22035 -2.67762 0
M  V30 31227 C 2889.7 -5.76602 -2.60218 0
M  V30 31228 C 2888.36 -6.1663 -2.55584 0
M  V30 31229 H 2887.63 -0.437672 -0.597933 0
M  V30 31230 H 2890.28 -1.61746 -1.02521 0
M  V30 31231 H 2888.58 -1.47821 -3.62845 0
M  V30 31232 H 2890.28 -1.86192 -3.55153 0
M  V30 31233 H 2886.87 -3.14497 -2.91187 0
M  V30 31234 H 2891.05 -4.11585 -2.77329 0
M  V30 31235 H 2886.31 -5.52137 -2.62592 0
M  V30 31236 H 2890.48 -6.50043 -2.49835 0
M  V30 31237 H 2888.11 -7.20663 -2.41968 0
M  V30 31238 N 2889.69 1.0947 -1.13376 0
M  V30 31239 C 2890.63 2.18184 -0.806143 0
M  V30 31240 C 2891.63 1.68077 0.21133 0
M  V30 31241 O 2892.83 1.7987 0.0685242 0
M  V30 31242 H 2889.21 0.711686 -0.242913 0
M  V30 31243 H 2891.18 2.43048 -1.73119 0
M  V30 31244 C 2889.93 3.46505 -0.287989 0
M  V30 31245 H 2889.25 3.8543 -1.06224 0
M  V30 31246 H 2890.69 4.23889 -0.0971799 0
M  V30 31247 C 2889.15 3.22142 0.986199 0
M  V30 31248 O 2889.68 3.44732 2.06211 0
M  V30 31249 N 2887.89 2.75749 0.917104 0
M  V30 31250 H 2887.43 2.57567 0.0414157 0
M  V30 31251 H 2887.39 2.59826 1.77025 0
M  V30 31252 N 2891.16 0.92719 1.2744 0
M  V30 31253 C 2892.09 0.443228 2.29255 0
M  V30 31254 C 2893.07 -0.496211 1.62701 0
M  V30 31255 O 2894.26 -0.401071 1.90013 0
M  V30 31256 C 2891.39 -0.305305 3.45955 0
M  V30 31257 C 2890.34 0.546252 4.245 0
M  V30 31258 C 2889.67 -0.331418 5.33672 0
M  V30 31259 C 2890.97 1.81046 4.89918 0
M  V30 31260 H 2892.66 1.29413 2.69986 0
M  V30 31261 H 2890.21 0.623727 1.29791 0
M  V30 31262 H 2892.16 -0.654812 4.16281 0
M  V30 31263 H 2890.89 -1.19023 3.0414 0
M  V30 31264 H 2889.55 0.87846 3.55919 0
M  V30 31265 H 2889.19 -1.21528 4.88098 0
M  V30 31266 H 2888.89 0.234849 5.8713 0
M  V30 31267 H 2890.42 -0.676508 6.06841 0
M  V30 31268 H 2891.83 1.52905 5.52533 0
M  V30 31269 H 2890.23 2.32019 5.53432 0
M  V30 31270 H 2891.3 2.53028 4.13648 0
M  V30 31271 N 2892.64 -1.41564 0.692641 0
M  V30 31272 C 2894.06 -1.55396 0.363906 0
M  V30 31273 C 2894.26 -1.66876 -1.12937 0
M  V30 31274 O 2893.31 -1.64556 -1.91514 0
M  V30 31275 C 2894.63 -2.79468 1.10987 0
M  V30 31276 C 2896.17 -2.93261 1.09393 0
M  V30 31277 C 2896.65 -4.20217 1.82157 0
M  V30 31278 N 2898.14 -4.27168 1.79113 0
M  V30 31279 C 2898.88 -5.24256 2.32256 0
M  V30 31280 N 2898.37 -6.27391 2.93858 0
M  V30 31281 N 2900.16 -5.16176 2.22529 0
M  V30 31282 H 2892.32 -1.32357 1.66119 0
M  V30 31283 H 2894.58 -0.638358 0.700859 0
M  V30 31284 H 2894.28 -2.77185 2.16475 0
M  V30 31285 H 2894.16 -3.70899 0.686557 0
M  V30 31286 H 2896.55 -2.95062 0.0473156 0
M  V30 31287 H 2896.63 -2.03012 1.55627 0
M  V30 31288 H 2896.27 -4.19178 2.86796 0
M  V30 31289 H 2896.2 -5.09434 1.33359 0
M  V30 31290 H 2898.69 -3.5327 1.34197 0
M  V30 31291 H 2899 -6.97858 3.31984 0
M  V30 31292 H 2897.35 -6.27901 2.97935 0
M  V30 31293 H 2900.54 -4.34528 1.74077 0
M  V30 31294 H 2900.71 -5.91673 2.64249 0
M  V30 31295 N 2894.12 -0.437188 -1.51415 0
M  V30 31296 C 2895.37 0.13083 -2.01275 0
M  V30 31297 C 2895.68 1.43798 -1.32595 0
M  V30 31298 O 2896.89 2.08893 -1.73424 0
M  V30 31299 C 2895.34 0.2837 -3.5878 0
M  V30 31300 C 2894.95 -1.01301 -4.36397 0
M  V30 31301 C 2896.7 0.805496 -4.16788 0
M  V30 31302 C 2894.6 -0.82579 -5.85606 0
M  V30 31303 H 2893.53 0.0526686 -0.752158 0
M  V30 31304 H 2896.18 -0.566927 -1.74523 0
M  V30 31305 H 2894.57 1.04446 -3.81978 0
M  V30 31306 H 2895.74 -1.78208 -4.24945 0
M  V30 31307 H 2894.05 -1.46333 -3.89841 0
M  V30 31308 H 2896.65 0.962054 -5.25974 0
M  V30 31309 H 2896.99 1.7879 -3.75952 0
M  V30 31310 H 2897.53 0.103055 -3.97666 0
M  V30 31311 H 2894.27 -1.78056 -6.30854 0
M  V30 31312 H 2893.79 -0.0965083 -5.99722 0
M  V30 31313 H 2895.47 -0.478929 -6.45225 0
M  V30 31314 N 2895.6 1.56696 -0.168541 0
M  V30 31315 C 2896.85 1.9641 0.476181 0
M  V30 31316 C 2897.17 1.05547 1.63966 0
M  V30 31317 O 2896.44 0.12127 1.95524 0
M  V30 31318 H 2895.02 0.725259 0.178908 0
M  V30 31319 H 2897.68 1.93302 -0.249076 0
M  V30 31320 H 2896.77 3.00638 0.838041 0
M  V30 31321 N 2897.08 -0.105193 1.57249 0
M  V30 31322 C 2898.35 -0.841616 1.76568 0
M  V30 31323 C 2898.73 -1.97419 0.7476 0
M  V30 31324 O 2898.08 -2.27381 -0.225846 0
M  V30 31325 C 2898.29 -1.34555 3.22019 0
M  V30 31326 C 2899.64 -1.79238 3.84914 0
M  V30 31327 O 2900.66 -1.44202 3.25706 0
M  V30 31328 O 2899.52 -2.43986 4.89012 0
M  V30 31329 H 2896.62 -0.400685 0.72345 0
M  V30 31330 H 2899.16 -0.0878595 1.69472 0
M  V30 31331 H 2897.93 -0.533617 3.87644 0
M  V30 31332 H 2897.56 -2.16161 3.33707 0
M  V30 31333 N 2898.55 -1.53055 -0.375752 0
M  V30 31334 C 2899.49 -1.73542 -1.48184 0
M  V30 31335 C 2900.47 -0.583521 -1.51769 0
M  V30 31336 O 2901.65 -0.81491 -1.69975 0
M  V30 31337 C 2898.78 -1.80502 -2.86595 0
M  V30 31338 C 2897.82 -3.02382 -3.00778 0
M  V30 31339 S 2898.66 -4.62103 -2.70593 0
M  V30 31340 C 2899.81 -4.71898 -4.11173 0
M  V30 31341 H 2900.04 -2.67087 -1.30583 0
M  V30 31342 H 2897.58 -1.43515 -0.56946 0
M  V30 31343 H 2899.54 -1.85198 -3.66349 0
M  V30 31344 H 2898.2 -0.88027 -3.01513 0
M  V30 31345 H 2897.39 -3.03831 -4.02122 0
M  V30 31346 H 2896.99 -2.95746 -2.28933 0
M  V30 31347 H 2899.28 -4.51327 -5.05282 0
M  V30 31348 H 2900.23 -5.73936 -4.14732 0
M  V30 31349 H 2900.63 -4.00619 -3.97699 0
M  V30 31350 N 2900.03 0.634971 -1.44242 0
M  V30 31351 C 2900.98 1.74712 -1.50813 0
M  V30 31352 C 2901.95 1.62236 -0.356175 0
M  V30 31353 O 2903.13 1.82215 -0.56588 0
M  V30 31354 C 2900.27 3.12945 -1.45464 0
M  V30 31355 C 2899.39 3.36424 -2.71004 0
M  V30 31356 C 2898.52 4.64607 -2.57516 0
M  V30 31357 C 2897.56 4.81251 -3.78237 0
M  V30 31358 N 2896.7 6.00708 -3.63448 0
M  V30 31359 H 2901.54 1.68432 -2.45835 0
M  V30 31360 H 2899.08 0.821685 -1.22011 0
M  V30 31361 H 2901.03 3.92882 -1.40354 0
M  V30 31362 H 2899.66 3.18249 -0.540114 0
M  V30 31363 H 2898.72 2.50453 -2.86317 0
M  V30 31364 H 2900.03 3.44603 -3.60625 0
M  V30 31365 H 2899.18 5.52699 -2.50217 0
M  V30 31366 H 2897.92 4.58779 -1.65449 0
M  V30 31367 H 2896.93 3.91589 -3.85925 0
M  V30 31368 H 2898.15 4.88896 -4.71336 0
M  V30 31369 H 2896.1 5.95977 -2.7413 0
M  V30 31370 H 2896.01 6.09927 -4.46683 0
M  V30 31371 H 2897.28 6.91372 -3.60035 0
M  V30 31372 N 2901.51 1.31076 0.875027 0
M  V30 31373 C 2902.42 1.20248 2.01439 0
M  V30 31374 C 2903.44 0.120258 1.73584 0
M  V30 31375 O 2904.61 0.337098 1.98559 0
M  V30 31376 C 2901.68 0.905258 3.34673 0
M  V30 31377 C 2900.74 2.07386 3.75885 0
M  V30 31378 C 2899.97 1.79073 5.02761 0
M  V30 31379 O 2900.19 0.723417 5.65794 0
M  V30 31380 O 2899.13 2.64604 5.40619 0
M  V30 31381 H 2902.95 2.15984 2.13506 0
M  V30 31382 H 2900.54 1.10767 1.00255 0
M  V30 31383 H 2902.42 0.75513 4.14579 0
M  V30 31384 H 2901.1 -0.0221126 3.23692 0
M  V30 31385 H 2900 2.27937 2.96641 0
M  V30 31386 H 2901.34 2.9833 3.91484 0
M  V30 31387 N 2902.99 -1.08867 1.13955 0
M  V30 31388 C 2904.24 -1.80802 0.903055 0
M  V30 31389 C 2904.56 -1.86418 -0.572118 0
M  V30 31390 O 2903.83 -1.35388 -1.41587 0
M  V30 31391 H 2902.41 -0.669608 0.33111 0
M  V30 31392 H 2905.07 -1.31645 1.43721 0
M  V30 31393 H 2904.17 -2.83789 1.29885 0
M  V30 31394 N 2904.47 -0.933936 -1.26946 0
M  V30 31395 C 2905.74 -0.495817 -1.89212 0
M  V30 31396 C 2906.12 1.02634 -1.84471 0
M  V30 31397 O 2905.47 1.88321 -1.29412 0
M  V30 31398 C 2905.68 -1.04896 -3.32863 0
M  V30 31399 C 2907.03 -1.11322 -4.09747 0
M  V30 31400 O 2908.05 -0.999026 -3.41903 0
M  V30 31401 O 2906.91 -1.28992 -5.31059 0
M  V30 31402 H 2904.01 -0.160473 -0.811281 0
M  V30 31403 H 2906.55 -1.02603 -1.35169 0
M  V30 31404 H 2905.32 -2.09271 -3.30638 0
M  V30 31405 H 2904.95 -0.500761 -3.94434 0
M  V30 31406 N 2905.94 1.41194 -0.700139 0
M  V30 31407 C 2906.88 2.28196 0.0129213 0
M  V30 31408 C 2907.86 1.42487 0.783342 0
M  V30 31409 O 2909.04 1.71912 0.773208 0
M  V30 31410 C 2906.17 3.22796 1.02569 0
M  V30 31411 C 2905.21 4.25079 0.347903 0
M  V30 31412 S 2906.05 5.27659 -0.913031 0
M  V30 31413 C 2907.2 6.25823 0.0980262 0
M  V30 31414 H 2907.43 2.88325 -0.724978 0
M  V30 31415 H 2904.97 1.46399 -0.49058 0
M  V30 31416 H 2906.93 3.77829 1.60485 0
M  V30 31417 H 2905.59 2.61754 1.73619 0
M  V30 31418 H 2904.78 4.91558 1.11297 0
M  V30 31419 H 2904.38 3.73665 -0.158296 0
M  V30 31420 H 2906.67 6.70809 0.949847 0
M  V30 31421 H 2907.62 7.06091 -0.532962 0
M  V30 31422 H 2908.02 5.62665 0.454845 0
M  V30 31423 N 2907.42 0.445212 1.51181 0
M  V30 31424 C 2908.39 -0.350682 2.26501 0
M  V30 31425 C 2909.39 -0.942929 1.30252 0
M  V30 31426 O 2910.58 -0.816148 1.53898 0
M  V30 31427 C 2907.71 -1.49692 3.06276 0
M  V30 31428 H 2908.9 0.309527 2.98298 0
M  V30 31429 H 2906.45 0.198579 1.55033 0
M  V30 31430 H 2907.19 -2.19295 2.38915 0
M  V30 31431 H 2906.97 -1.07834 3.76981 0
M  V30 31432 H 2908.46 -2.05903 3.6331 0
M  V30 31433 N 2908.9 -1.56605 0.176849 0
M  V30 31434 C 2910.13 -2.01426 -0.472793 0
M  V30 31435 C 2910.54 -1.05706 -1.56434 0
M  V30 31436 O 2909.9 -0.05884 -1.82405 0
M  V30 31437 C 2909.95 -3.46036 -1.04601 0
M  V30 31438 O 2909.67 -4.381 0.00197309 0
M  V30 31439 C 2911.17 -4.06285 -1.77333 0
M  V30 31440 H 2908.39 -0.660093 -0.120492 0
M  V30 31441 H 2910.94 -2.02571 0.280202 0
M  V30 31442 H 2909.09 -3.45648 -1.74947 0
M  V30 31443 H 2909.51 -5.22799 -0.422026 0
M  V30 31444 H 2910.98 -5.09377 -2.12694 0
M  V30 31445 H 2911.46 -3.48694 -2.67037 0
M  V30 31446 H 2912.06 -4.10393 -1.11616 0
M  V30 31447 N 2910.38 0.0968524 -1.57302 0
M  V30 31448 C 2911.63 0.799085 -1.85631 0
M  V30 31449 C 2911.95 1.79355 -0.765294 0
M  V30 31450 O 2911.22 1.94786 0.208623 0
M  V30 31451 H 2909.8 0.298099 -0.684942 0
M  V30 31452 H 2912.46 0.0788999 -1.9474 0
M  V30 31453 H 2911.56 1.33075 -2.82307 0
M  V30 31454 N 2911.86 1.53252 0.36763 0
M  V30 31455 C 2913.11 1.68556 1.10779 0
M  V30 31456 C 2913.42 0.442799 1.90522 0
M  V30 31457 O 2914.62 0.476337 2.67289 0
M  V30 31458 C 2913.08 2.97962 2.01857 0
M  V30 31459 C 2912.69 4.29493 1.27435 0
M  V30 31460 C 2914.43 3.22633 2.75877 0
M  V30 31461 C 2912.34 5.4999 2.17404 0
M  V30 31462 H 2911.27 0.62802 0.417261 0
M  V30 31463 H 2913.92 1.79753 0.36894 0
M  V30 31464 H 2912.3 2.80563 2.79465 0
M  V30 31465 H 2913.48 4.57517 0.549058 0
M  V30 31466 H 2911.79 4.1125 0.652863 0
M  V30 31467 H 2914.39 4.09843 3.43414 0
M  V30 31468 H 2914.73 2.38607 3.41134 0
M  V30 31469 H 2915.26 3.40697 2.05354 0
M  V30 31470 H 2912 6.36487 1.56729 0
M  V30 31471 H 2911.52 5.26248 2.87789 0
M  V30 31472 H 2913.2 5.84701 2.77009 0
M  V30 31473 N 2913.34 -0.627313 1.44577 0
M  V30 31474 C 2914.56 -1.41391 1.5105 0
M  V30 31475 C 2914.98 -1.88305 0.136601 0
M  V30 31476 O 2914.34 -1.61061 -0.858223 0
M  V30 31477 C 2914.39 -2.63167 2.47841 0
M  V30 31478 O 2914.11 -2.18208 3.79891 0
M  V30 31479 C 2915.61 -3.56252 2.63817 0
M  V30 31480 H 2912.83 -0.433491 0.512179 0
M  V30 31481 H 2915.37 -0.766844 1.89578 0
M  V30 31482 H 2913.53 -3.23957 2.12439 0
M  V30 31483 H 2913.94 -2.97185 4.32182 0
M  V30 31484 H 2915.42 -4.38295 3.35562 0
M  V30 31485 H 2915.89 -4.0531 1.69176 0
M  V30 31486 H 2916.5 -3.01328 3.00136 0
M  V30 31487 N 2914.81 -1.31539 -0.868063 0
M  V30 31488 C 2916.04 -1.2412 -1.6516 0
M  V30 31489 C 2916.45 0.195525 -1.88187 0
M  V30 31490 O 2915.79 1.13863 -1.44156 0
M  V30 31491 C 2915.86 -1.91714 -3.04115 0
M  V30 31492 C 2915.52 -3.41055 -3.04188 0
M  V30 31493 C 2916.52 -4.36769 -2.82008 0
M  V30 31494 C 2914.2 -3.82777 -3.25249 0
M  V30 31495 C 2916.2 -5.7218 -2.80871 0
M  V30 31496 C 2913.88 -5.18301 -3.2374 0
M  V30 31497 C 2914.88 -6.12813 -3.01578 0
M  V30 31498 O 2914.57 -7.45858 -2.99917 0
M  V30 31499 H 2914.3 -0.430024 -0.521589 0
M  V30 31500 H 2916.86 -1.73991 -1.09162 0
M  V30 31501 H 2915.09 -1.36395 -3.61847 0
M  V30 31502 H 2916.77 -1.78185 -3.64698 0
M  V30 31503 H 2917.54 -4.05864 -2.65517 0
M  V30 31504 H 2913.42 -3.09644 -3.41529 0
M  V30 31505 H 2916.96 -6.45924 -2.63492 0
M  V30 31506 H 2912.86 -5.4884 -3.39771 0
M  V30 31507 H 2913.63 -7.55055 -3.15966 0
M  V30 31508 N 2916.29 1.08262 -1.1453 0
M  V30 31509 C 2917.25 2.13396 -0.836357 0
M  V30 31510 C 2918.25 1.60005 0.159687 0
M  V30 31511 O 2919.44 1.74064 -0.0688404 0
M  V30 31512 C 2916.58 3.40004 -0.247032 0
M  V30 31513 H 2917.77 2.42234 -1.76813 0
M  V30 31514 H 2915.32 1.23998 -0.951531 0
M  V30 31515 H 2916.06 3.16801 0.69338 0
M  V30 31516 H 2915.84 3.80053 -0.964479 0
M  V30 31517 H 2917.33 4.17572 -0.0481413 0
M  V30 31518 N 2917.77 0.940655 1.26449 0
M  V30 31519 C 2918.99 0.604155 1.98405 0
M  V30 31520 C 2919.42 -0.81379 1.69585 0
M  V30 31521 O 2918.78 -1.5481 0.943581 0
M  V30 31522 C 2918.83 0.852197 3.50385 0
M  V30 31523 O 2917.93 -0.0759406 4.1233 0
M  V30 31524 H 2917.27 0.231164 0.622462 0
M  V30 31525 H 2919.8 1.26344 1.60929 0
M  V30 31526 H 2919.81 0.772887 4.00613 0
M  V30 31527 H 2918.49 1.88572 3.70693 0
M  V30 31528 H 2917.06 0.0543843 3.7286 0
M  V30 31529 N 2919.25 -1.40821 0.707617 0
M  V30 31530 C 2920.48 -2.05048 0.252742 0
M  V30 31531 C 2920.89 -1.53394 -1.10755 0
M  V30 31532 O 2920.23 -0.682127 -1.70566 0
M  V30 31533 C 2920.29 -3.59203 0.146064 0
M  V30 31534 C 2919.95 -4.33708 1.44035 0
M  V30 31535 C 2920.95 -4.62191 2.38067 0
M  V30 31536 C 2918.64 -4.72763 1.69706 0
M  V30 31537 C 2920.63 -5.28703 3.56022 0
M  V30 31538 C 2918.32 -5.39009 2.87945 0
M  V30 31539 C 2919.32 -5.66908 3.80925 0
M  V30 31540 O 2919 -6.31788 4.97091 0
M  V30 31541 H 2918.74 -0.666523 0.112795 0
M  V30 31542 H 2921.29 -1.81362 0.964202 0
M  V30 31543 H 2919.52 -3.81677 -0.621271 0
M  V30 31544 H 2921.21 -4.0498 -0.273204 0
M  V30 31545 H 2921.97 -4.32489 2.19495 0
M  V30 31546 H 2917.85 -4.50421 0.981915 0
M  V30 31547 H 2921.4 -5.50396 4.28614 0
M  V30 31548 H 2917.29 -5.6813 3.06429 0
M  V30 31549 H 2918.06 -6.50284 4.97064 0
M  V30 31550 N 2920.73 -0.453223 -1.50943 0
M  V30 31551 C 2921.97 0.107674 -2.01813 0
M  V30 31552 C 2922.29 1.41813 -1.33843 0
M  V30 31553 O 2921.56 1.89979 -0.478006 0
M  V30 31554 H 2920.14 0.0427817 -0.745774 0
M  V30 31555 H 2922.81 -0.599564 -1.85449 0
M  V30 31556 H 2921.9 0.272126 -3.10911 0
M  V30 31557 N 2922.2 1.56509 -0.185151 0
M  V30 31558 C 2923.43 2.01381 0.461434 0
M  V30 31559 C 2923.84 1.06447 1.56415 0
M  V30 31560 O 2923.18 0.0597837 1.83603 0
M  V30 31561 C 2923.25 3.42665 1.08725 0
M  V30 31562 C 2922.91 4.5683 0.1245 0
M  V30 31563 C 2923.91 5.15663 -0.662386 0
M  V30 31564 C 2921.59 5.02297 0.0163064 0
M  V30 31565 C 2923.59 6.18404 -1.54453 0
M  V30 31566 C 2921.27 6.04884 -0.869408 0
M  V30 31567 C 2922.27 6.6281 -1.6484 0
M  V30 31568 O 2921.96 7.63405 -2.51929 0
M  V30 31569 H 2921.69 0.665049 0.121188 0
M  V30 31570 H 2924.25 2.03369 -0.288154 0
M  V30 31571 H 2922.48 3.37632 1.88524 0
M  V30 31572 H 2924.16 3.71405 1.63746 0
M  V30 31573 H 2924.93 4.8141 -0.589047 0
M  V30 31574 H 2920.81 4.56914 0.61245 0
M  V30 31575 H 2924.35 6.63544 -2.15301 0
M  V30 31576 H 2920.25 6.38562 -0.943898 0
M  V30 31577 H 2921.02 7.80784 -2.45598 0
M  V30 31578 N 2923.68 -0.0885089 1.57351 0
M  V30 31579 C 2924.93 -0.790791 1.86421 0
M  V30 31580 C 2925.26 -1.78411 0.774593 0
M  V30 31581 O 2924.51 -1.9433 -0.231156 0
M  V30 31582 C 2924.81 -1.54874 3.22101 0
M  V30 31583 C 2924.48 -0.696946 4.45481 0
M  V30 31584 C 2923.14 -0.462153 4.78976 0
M  V30 31585 C 2925.49 -0.105223 5.21094 0
M  V30 31586 C 2922.82 0.374119 5.85506 0
M  V30 31587 C 2925.17 0.718409 6.28507 0
M  V30 31588 C 2923.83 0.963232 6.60514 0
M  V30 31589 H 2923.1 -0.289371 0.682162 0
M  V30 31590 H 2925.75 -0.0520625 1.91429 0
M  V30 31591 H 2924.06 -2.35922 3.12807 0
M  V30 31592 H 2925.75 -2.09663 3.41822 0
M  V30 31593 H 2922.34 -0.890064 4.19256 0
M  V30 31594 H 2926.53 -0.273769 4.95544 0
M  V30 31595 H 2921.78 0.572713 6.08712 0
M  V30 31596 H 2925.96 1.18374 6.86266 0
M  V30 31597 H 2923.58 1.61303 7.4289 0
M  V30 31598 N 2925.16 -1.53445 -0.359498 0
M  V30 31599 C 2926.4 -1.71627 -1.11011 0
M  V30 31600 C 2926.76 -0.461353 -1.86375 0
M  V30 31601 O 2927.96 -0.519955 -2.63723 0
M  V30 31602 C 2926.24 -2.93528 -2.03902 0
M  V30 31603 S 2927.79 -3.32445 -2.86402 0
M  V30 31604 H 2924.61 -0.603854 -0.375342 0
M  V30 31605 H 2927.21 -1.91559 -0.390571 0
M  V30 31606 H 2925.92 -3.83051 -1.4731 0
M  V30 31607 H 2925.45 -2.76016 -2.80319 0
M  V30 31608 H 2927.46 -2.84933 -4.06236 0
M  V30 31609 N 2926.64 0.619637 -1.44908 0
M  V30 31610 C 2927.57 1.74455 -1.48655 0
M  V30 31611 C 2928.58 1.58336 -0.378623 0
M  V30 31612 O 2929.77 1.66439 -0.645016 0
M  V30 31613 C 2926.87 3.12316 -1.31574 0
M  V30 31614 C 2926.04 3.54787 -2.55822 0
M  V30 31615 C 2925.1 4.71568 -2.33473 0
M  V30 31616 O 2924.13 4.79296 -3.07024 0
M  V30 31617 N 2925.33 5.64038 -1.37264 0
M  V30 31618 H 2928.1 1.71707 -2.45635 0
M  V30 31619 H 2925.66 0.804558 -1.40494 0
M  V30 31620 H 2927.65 3.88179 -1.14452 0
M  V30 31621 H 2926.22 3.0964 -0.42915 0
M  V30 31622 H 2925.44 2.69013 -2.88142 0
M  V30 31623 H 2926.73 3.79918 -3.38438 0
M  V30 31624 H 2926.13 5.60498 -0.765407 0
M  V30 31625 H 2924.68 6.39482 -1.26117 0
M  V30 31626 N 2928.12 1.31997 0.861075 0
M  V30 31627 C 2929.05 1.14727 1.97264 0
M  V30 31628 C 2930.03 0.0484074 1.62528 0
M  V30 31629 O 2931.21 0.206511 1.87365 0
M  V30 31630 C 2928.34 0.754919 3.3018 0
M  V30 31631 C 2927.38 1.8581 3.83897 0
M  V30 31632 S 2928.22 3.46522 4.08268 0
M  V30 31633 C 2929.37 3.09244 5.44168 0
M  V30 31634 H 2929.61 2.08826 2.11611 0
M  V30 31635 H 2927.14 1.16584 1.0123 0
M  V30 31636 H 2929.1 0.535304 4.06995 0
M  V30 31637 H 2927.76 -0.1671 3.13655 0
M  V30 31638 H 2926.95 1.53642 4.80011 0
M  V30 31639 H 2926.55 2.03324 3.13904 0
M  V30 31640 H 2928.85 2.5869 6.26168 0
M  V30 31641 H 2929.79 4.04355 5.81294 0
M  V30 31642 H 2930.2 2.4644 5.07866 0
M  V30 31643 N 2929.59 -1.07653 1.15103 0
M  V30 31644 C 2931.01 -1.61665 0.933876 0
M  V30 31645 C 2931.36 -1.89031 -0.525536 0
M  V30 31646 O 2930.48 -1.65349 -1.39602 0
M  V30 31647 C 2931.08 -2.93708 1.68881 0
M  V30 31648 C 2929.64 -3.44475 1.51703 0
M  V30 31649 C 2928.78 -2.18583 1.70637 0
M  V30 31650 H 2931.73 -0.907794 1.30172 0
M  V30 31651 H 2931.75 -3.62498 1.15651 0
M  V30 31652 H 2931.27 -2.7376 2.75095 0
M  V30 31653 H 2929.37 -3.69512 0.4787 0
M  V30 31654 H 2929.48 -4.20718 2.29201 0
M  V30 31655 H 2927.84 -2.2813 1.13263 0
M  V30 31656 H 2928.63 -2.01132 2.7821 0
M  V30 31657 N 2931.07 -0.947348 -1.25949 0
M  V30 31658 C 2932 -0.4191 -2.25336 0
M  V30 31659 C 2933.02 0.461023 -1.56136 0
M  V30 31660 O 2934.21 0.270474 -1.76439 0
M  V30 31661 C 2931.31 0.416174 -3.36335 0
M  V30 31662 C 2930.48 -0.449238 -4.35087 0
M  V30 31663 C 2929.54 0.326624 -5.25185 0
M  V30 31664 O 2928.56 -0.272474 -5.68547 0
M  V30 31665 N 2929.77 1.6216 -5.57391 0
M  V30 31666 H 2932.53 -1.27352 -2.71296 0
M  V30 31667 H 2930.09 -0.816905 -1.39779 0
M  V30 31668 H 2932.08 0.942757 -3.93566 0
M  V30 31669 H 2930.65 1.17142 -2.89821 0
M  V30 31670 H 2929.87 -1.15698 -3.76839 0
M  V30 31671 H 2931.16 -1.04017 -4.98054 0
M  V30 31672 H 2930.56 2.13037 -5.24053 0
M  V30 31673 H 2929.12 2.0943 -6.17238 0
M  V30 31674 N 2932.55 1.40444 -0.715075 0
M  V30 31675 C 2933.96 1.83818 -0.326796 0
M  V30 31676 C 2934.31 1.59791 1.13848 0
M  V30 31677 O 2933.44 1.07852 1.87609 0
M  V30 31678 C 2934.03 3.33687 -0.586356 0
M  V30 31679 C 2932.59 3.75557 -0.25179 0
M  V30 31680 C 2931.74 2.63661 -0.858974 0
M  V30 31681 H 2934.69 1.29719 -0.914264 0
M  V30 31682 H 2934.71 3.8021 0.148569 0
M  V30 31683 H 2934.22 3.51143 -1.65288 0
M  V30 31684 H 2932.32 3.63696 0.80969 0
M  V30 31685 H 2932.44 4.73652 -0.720431 0
M  V30 31686 H 2930.8 2.53077 -0.287058 0
M  V30 31687 H 2931.58 2.83929 -1.92975 0
M  V30 31688 N 2934.03 0.461222 1.507 0
M  V30 31689 C 2934.98 -0.338054 2.28311 0
M  V30 31690 C 2935.95 -0.995933 1.3293 0
M  V30 31691 O 2937.13 -1.01027 1.61859 0
M  V30 31692 C 2934.27 -1.41977 3.14542 0
M  V30 31693 C 2933.38 -0.777655 4.24943 0
M  V30 31694 C 2932.52 -1.83643 4.98446 0
M  V30 31695 C 2931.56 -1.17403 6.00735 0
M  V30 31696 N 2930.69 -2.17522 6.67554 0
M  V30 31697 H 2935.53 0.330103 2.96166 0
M  V30 31698 H 2933.07 0.174637 1.4606 0
M  V30 31699 H 2935.03 -2.05848 3.62881 0
M  V30 31700 H 2933.66 -2.05723 2.48753 0
M  V30 31701 H 2932.71 -0.0266256 3.80391 0
M  V30 31702 H 2934.02 -0.254275 4.98151 0
M  V30 31703 H 2933.18 -2.55119 5.50454 0
M  V30 31704 H 2931.92 -2.3936 4.24921 0
M  V30 31705 H 2930.92 -0.444848 5.47997 0
M  V30 31706 H 2932.15 -0.623887 6.76228 0
M  V30 31707 H 2930.09 -2.72274 5.96827 0
M  V30 31708 H 2930.01 -1.70142 7.36606 0
M  V30 31709 H 2931.28 -2.88408 7.24183 0
M  V30 31710 N 2935.51 -1.56408 0.193449 0
M  V30 31711 C 2936.44 -2.22015 -0.723295 0
M  V30 31712 C 2937.42 -1.18272 -1.22252 0
M  V30 31713 O 2938.6 -1.46774 -1.27166 0
M  V30 31714 C 2935.73 -2.87822 -1.94361 0
M  V30 31715 C 2934.69 -3.97794 -1.57936 0
M  V30 31716 C 2934.01 -4.50757 -2.87615 0
M  V30 31717 C 2935.31 -5.16282 -0.790549 0
M  V30 31718 H 2937.01 -2.9888 -0.176373 0
M  V30 31719 H 2934.55 -1.43758 -0.0833914 0
M  V30 31720 H 2936.51 -3.324 -2.59014 0
M  V30 31721 H 2935.23 -2.08359 -2.51503 0
M  V30 31722 H 2933.89 -3.53904 -0.956419 0
M  V30 31723 H 2933.54 -3.68059 -3.42843 0
M  V30 31724 H 2933.24 -5.24961 -2.63988 0
M  V30 31725 H 2934.76 -4.98036 -3.53259 0
M  V30 31726 H 2936.17 -5.57416 -1.34015 0
M  V30 31727 H 2934.57 -5.96542 -0.652475 0
M  V30 31728 H 2935.64 -4.84451 0.208718 0
M  V30 31729 N 2936.98 0.0801629 -1.57396 0
M  V30 31730 C 2938.4 0.434751 -1.53565 0
M  V30 31731 C 2938.6 1.79659 -0.912403 0
M  V30 31732 O 2937.66 2.47269 -0.511311 0
M  V30 31733 C 2938.97 0.383508 -2.98244 0
M  V30 31734 C 2940.52 0.464296 -3.09537 0
M  V30 31735 C 2940.99 0.443047 -4.55852 0
M  V30 31736 N 2942.48 0.503367 -4.60457 0
M  V30 31737 C 2943.22 0.509006 -5.71136 0
M  V30 31738 N 2942.71 0.469958 -6.91204 0
M  V30 31739 N 2944.51 0.554937 -5.59354 0
M  V30 31740 H 2936.66 -0.81167 -1.9628 0
M  V30 31741 H 2938.92 -0.303705 -0.898035 0
M  V30 31742 H 2938.63 -0.550297 -3.47368 0
M  V30 31743 H 2938.5 1.19688 -3.57708 0
M  V30 31744 H 2940.89 1.38852 -2.60392 0
M  V30 31745 H 2940.97 -0.37749 -2.52999 0
M  V30 31746 H 2940.61 -0.477296 -5.05652 0
M  V30 31747 H 2940.54 1.30225 -5.10244 0
M  V30 31748 H 2943.03 0.538134 -3.74049 0
M  V30 31749 H 2943.35 0.477956 -7.71321 0
M  V30 31750 H 2941.69 0.436775 -6.93626 0
M  V30 31751 H 2944.88 0.583077 -4.64454 0
M  V30 31752 H 2945.06 0.555862 -6.45611 0
M  V30 31753 N 2938.46 1.53634 0.351355 0
M  V30 31754 C 2939.43 1.80385 1.41399 0
M  V30 31755 C 2940.43 0.67466 1.45962 0
M  V30 31756 O 2941.62 0.94292 1.46474 0
M  V30 31757 C 2938.75 1.93881 2.80398 0
M  V30 31758 H 2939.94 2.75303 1.18946 0
M  V30 31759 H 2937.49 1.44927 0.585304 0
M  V30 31760 H 2938.23 1.01079 3.08145 0
M  V30 31761 H 2938.01 2.76025 2.78483 0
M  V30 31762 H 2939.5 2.16122 3.57325 0
M  V30 31763 N 2939.94 -0.611943 1.45234 0
M  V30 31764 C 2940.9 -1.70485 1.53192 0
M  V30 31765 C 2941.9 -1.55436 0.411866 0
M  V30 31766 O 2943.09 -1.60583 0.675192 0
M  V30 31767 C 2940.23 -3.09721 1.42428 0
M  V30 31768 H 2941.42 -1.64797 2.50563 0
M  V30 31769 H 2938.97 -0.827294 1.3261 0
M  V30 31770 H 2939.71 -3.20989 0.462241 0
M  V30 31771 H 2939.49 -3.22051 2.23663 0
M  V30 31772 H 2940.98 -3.89337 1.51019 0
M  V30 31773 N 2941.42 -1.32452 -0.854063 0
M  V30 31774 C 2942.35 -1.15772 -1.96652 0
M  V30 31775 C 2943.33 -0.057026 -1.625 0
M  V30 31776 O 2944.51 -0.216445 -1.87253 0
M  V30 31777 C 2941.64 -0.772419 -3.29775 0
M  V30 31778 C 2940.69 -1.87844 -3.82906 0
M  V30 31779 S 2941.52 -3.48683 -4.06424 0
M  V30 31780 C 2942.68 -3.12126 -5.4252 0
M  V30 31781 H 2942.91 -2.09945 -2.105 0
M  V30 31782 H 2940.44 -1.17119 -1.0061 0
M  V30 31783 H 2942.4 -0.55688 -4.06705 0
M  V30 31784 H 2941.06 0.150464 -3.13739 0
M  V30 31785 H 2940.25 -1.56185 -4.79189 0
M  V30 31786 H 2939.86 -2.04986 -3.12821 0
M  V30 31787 H 2942.15 -2.62007 -6.24787 0
M  V30 31788 H 2943.09 -4.07432 -5.79141 0
M  V30 31789 H 2943.5 -2.4913 -5.06552 0
M  V30 31790 N 2942.9 1.07041 -1.15672 0
M  V30 31791 C 2944.14 1.79964 -0.934932 0
M  V30 31792 C 2944.48 1.86644 0.536431 0
M  V30 31793 O 2943.75 1.35249 1.39778 0
M  V30 31794 C 2944.03 3.24854 -1.55377 0
M  V30 31795 C 2943.89 3.26299 -3.09595 0
M  V30 31796 C 2945.21 4.22206 -1.24217 0
M  V30 31797 H 2942.33 0.653329 -0.341073 0
M  V30 31798 H 2944.97 1.25235 -1.42885 0
M  V30 31799 H 2943.12 3.71589 -1.13374 0
M  V30 31800 H 2944.79 2.87783 -3.60526 0
M  V30 31801 H 2943.03 2.65168 -3.4332 0
M  V30 31802 H 2943.7 4.28478 -3.48009 0
M  V30 31803 H 2946.18 3.83877 -1.60554 0
M  V30 31804 H 2945.06 5.21869 -1.70129 0
M  V30 31805 H 2945.32 4.41811 -0.159717 0
M  V30 31806 N 2944.38 0.954014 1.25445 0
M  V30 31807 C 2945.29 0.480304 2.29631 0
M  V30 31808 C 2946.3 -0.452041 1.68026 0
M  V30 31809 O 2947.48 -0.328437 1.98704 0
M  V30 31810 C 2944.54 -0.234913 3.45903 0
M  V30 31811 C 2943.6 0.735569 4.22951 0
M  V30 31812 C 2942.84 0.0543895 5.33672 0
M  V30 31813 O 2943.06 -1.16008 5.58479 0
M  V30 31814 O 2941.99 0.739614 5.97339 0
M  V30 31815 H 2945.82 1.34607 2.7224 0
M  V30 31816 H 2943.4 0.720442 1.30882 0
M  V30 31817 H 2945.29 -0.637268 4.16554 0
M  V30 31818 H 2943.96 -1.07586 3.05298 0
M  V30 31819 H 2942.87 1.18812 3.54732 0
M  V30 31820 H 2944.2 1.54452 4.67339 0
M  V30 31821 N 2945.85 -1.40063 0.722513 0
M  V30 31822 C 2947.08 -2.04769 0.274475 0
M  V30 31823 C 2947.49 -1.54561 -1.09122 0
M  V30 31824 O 2946.83 -0.700179 -1.69833 0
M  V30 31825 C 2946.9 -3.59028 0.184154 0
M  V30 31826 C 2946.56 -4.32156 1.48627 0
M  V30 31827 C 2947.56 -4.5964 2.42955 0
M  V30 31828 C 2945.24 -4.70937 1.74711 0
M  V30 31829 C 2947.24 -5.24897 3.6161 0
M  V30 31830 C 2944.92 -5.35925 2.93646 0
M  V30 31831 C 2945.92 -5.62836 3.86917 0
M  V30 31832 O 2945.61 -6.2648 5.03764 0
M  V30 31833 H 2945.34 -0.665289 0.119858 0
M  V30 31834 H 2947.9 -1.8033 0.983383 0
M  V30 31835 H 2946.13 -3.82314 -0.580754 0
M  V30 31836 H 2947.81 -4.05247 -0.230235 0
M  V30 31837 H 2948.58 -4.30137 2.24069 0
M  V30 31838 H 2944.46 -4.49355 1.02963 0
M  V30 31839 H 2948 -5.45819 4.34428 0
M  V30 31840 H 2943.9 -5.64848 3.12438 0
M  V30 31841 H 2944.67 -6.44976 5.03933 0
M  V30 31842 N 2947.33 -0.469207 -1.50453 0
M  V30 31843 C 2948.56 0.0864528 -2.0722 0
M  V30 31844 C 2948.98 1.32913 -1.331 0
M  V30 31845 O 2948.34 1.77313 -0.378115 0
M  V30 31846 C 2948.39 0.355321 -3.58845 0
M  V30 31847 O 2947.49 1.43615 -3.86586 0
M  V30 31848 H 2946.83 -0.0121531 -0.663889 0
M  V30 31849 H 2949.36 -0.659708 -1.93672 0
M  V30 31850 H 2949.37 0.596376 -4.03618 0
M  V30 31851 H 2948.05 -0.55277 -4.1221 0
M  V30 31852 H 2946.62 1.18256 -3.53652 0
M  V30 31853 N 2948.81 1.56303 -0.201741 0
M  V30 31854 C 2950.04 2.01859 0.440049 0
M  V30 31855 C 2950.45 1.081 1.55277 0
M  V30 31856 O 2949.79 0.0792539 1.83529 0
M  V30 31857 C 2949.85 3.43799 1.05085 0
M  V30 31858 C 2949.52 4.56937 0.0760405 0
M  V30 31859 C 2950.51 5.14932 -0.717042 0
M  V30 31860 C 2948.2 5.02286 -0.0369698 0
M  V30 31861 C 2950.19 6.16731 -1.61003 0
M  V30 31862 C 2947.88 6.03928 -0.933515 0
M  V30 31863 C 2948.88 6.61024 -1.71861 0
M  V30 31864 O 2948.57 7.6069 -2.60012 0
M  V30 31865 H 2948.3 0.666296 0.114127 0
M  V30 31866 H 2950.85 2.03052 -0.309708 0
M  V30 31867 H 2949.08 3.39613 1.84932 0
M  V30 31868 H 2950.77 3.73121 1.59798 0
M  V30 31869 H 2951.54 4.80758 -0.640074 0
M  V30 31870 H 2947.42 4.57538 0.563953 0
M  V30 31871 H 2950.96 6.61224 -2.22327 0
M  V30 31872 H 2946.86 6.37524 -1.01157 0
M  V30 31873 H 2947.62 7.78135 -2.53865 0
M  V30 31874 N 2950.29 -0.0718147 1.57436 0
M  V30 31875 C 2951.54 -0.769793 1.86432 0
M  V30 31876 C 2951.85 -1.78742 0.794386 0
M  V30 31877 O 2953.06 -2.53497 0.972193 0
M  V30 31878 C 2951.51 -1.42 3.30702 0
M  V30 31879 C 2951.12 -0.440939 4.45825 0
M  V30 31880 C 2952.86 -2.10035 3.68898 0
M  V30 31881 C 2950.77 -1.09706 5.81136 0
M  V30 31882 H 2949.7 -0.291247 0.695479 0
M  V30 31883 H 2952.35 -0.0230901 1.83485 0
M  V30 31884 H 2950.73 -2.21497 3.28261 0
M  V30 31885 H 2951.91 0.324211 4.59658 0
M  V30 31886 H 2950.22 0.134959 4.16181 0
M  V30 31887 H 2952.82 -2.599 4.67286 0
M  V30 31888 H 2953.16 -2.89975 2.98697 0
M  V30 31889 H 2953.7 -1.3737 3.73329 0
M  V30 31890 H 2950.43 -0.33798 6.54628 0
M  V30 31891 H 2949.95 -1.83307 5.71103 0
M  V30 31892 H 2951.63 -1.61689 6.26471 0
M  V30 31893 N 2951.77 -1.53818 -0.343203 0
M  V30 31894 C 2953.01 -1.7108 -1.08341 0
M  V30 31895 C 2953.34 -0.474166 -1.88632 0
M  V30 31896 O 2952.6 0.544083 -1.87985 0
M  V30 31897 C 2952.89 -2.92629 -2.0519 0
M  V30 31898 C 2952.56 -4.28219 -1.41208 0
M  V30 31899 C 2951.22 -4.65085 -1.23487 0
M  V30 31900 C 2953.57 -5.12447 -0.951183 0
M  V30 31901 C 2950.9 -5.83797 -0.582962 0
M  V30 31902 C 2953.25 -6.31824 -0.313181 0
M  V30 31903 C 2951.92 -6.67385 -0.123662 0
M  V30 31904 H 2951.19 -0.626028 -0.396447 0
M  V30 31905 H 2953.84 -1.88035 -0.362656 0
M  V30 31906 H 2952.14 -2.7028 -2.83648 0
M  V30 31907 H 2953.84 -3.03179 -2.62456 0
M  V30 31908 H 2950.43 -3.99203 -1.55998 0
M  V30 31909 H 2954.61 -4.84497 -1.07594 0
M  V30 31910 H 2949.87 -6.09923 -0.424747 0
M  V30 31911 H 2954.04 -6.96381 0.0520403 0
M  V30 31912 H 2951.67 -7.59232 0.383532 0
M  V30 31913 N 2953.24 0.604233 -1.45557 0
M  V30 31914 C 2954.17 1.72539 -1.5733 0
M  V30 31915 C 2955.15 1.64714 -0.424666 0
M  V30 31916 O 2956.34 1.83062 -0.648228 0
M  V30 31917 C 2953.47 3.11149 -1.54284 0
M  V30 31918 C 2952.42 3.33788 -2.67899 0
M  V30 31919 C 2951.75 4.72705 -2.49908 0
M  V30 31920 C 2953.05 3.23715 -4.09886 0
M  V30 31921 H 2954.74 1.62942 -2.51177 0
M  V30 31922 H 2952.29 0.782483 -1.20885 0
M  V30 31923 H 2954.24 3.89383 -1.61117 0
M  V30 31924 H 2952.97 3.21593 -0.569684 0
M  V30 31925 H 2951.63 2.57945 -2.60499 0
M  V30 31926 H 2951.27 4.79887 -1.50724 0
M  V30 31927 H 2950.97 4.88807 -3.261 0
M  V30 31928 H 2952.5 5.53135 -2.586 0
M  V30 31929 H 2953.91 3.91819 -4.1851 0
M  V30 31930 H 2952.31 3.51346 -4.86494 0
M  V30 31931 H 2953.38 2.21104 -4.31557 0
M  V30 31932 N 2954.72 1.32903 0.847027 0
M  V30 31933 C 2956 1.14506 1.58581 0
M  V30 31934 C 2956.38 -0.291687 2.09075 0
M  V30 31935 O 2955.73 -1.28949 1.88638 0
M  V30 31936 C 2955.94 2.17921 2.72601 0
M  V30 31937 C 2957.28 2.51652 3.41989 0
M  V30 31938 O 2958.31 2.16525 2.82834 0
M  V30 31939 O 2957.17 3.11898 4.48756 0
M  V30 31940 H 2954.26 0.442357 0.698748 0
M  V30 31941 H 2956.81 1.44459 0.890491 0
M  V30 31942 H 2955.58 3.14463 2.3287 0
M  V30 31943 H 2955.2 1.89006 3.49803 0
M  V30 31944 N 2956.2 -1.06426 1.16238 0
M  V30 31945 C 2957.11 -2.17388 0.882014 0
M  V30 31946 C 2958.13 -1.73393 -0.145228 0
M  V30 31947 O 2959.3 -2.01376 0.0310912 0
M  V30 31948 C 2956.37 -3.44549 0.385557 0
M  V30 31949 C 2955.43 -4.03061 1.47786 0
M  V30 31950 C 2954.66 -5.24152 1.005 0
M  V30 31951 O 2954.88 -5.70214 -0.145789 0
M  V30 31952 O 2953.82 -5.74582 1.79275 0
M  V30 31953 H 2957.64 -2.43879 1.80988 0
M  V30 31954 H 2955.23 -1.1594 0.942246 0
M  V30 31955 H 2957.11 -4.21241 0.11561 0
M  V30 31956 H 2955.79 -3.19588 -0.514313 0
M  V30 31957 H 2954.69 -3.27865 1.80153 0
M  V30 31958 H 2956.03 -4.32314 2.35298 0
M  V30 31959 N 2957.68 -0.960653 -1.24937 0
M  V30 31960 C 2958.91 -0.635157 -1.96594 0
M  V30 31961 C 2959.32 0.798176 -1.71539 0
M  V30 31962 O 2958.66 1.54628 -0.991754 0
M  V30 31963 C 2958.72 -0.82131 -3.49993 0
M  V30 31964 C 2958.39 -2.23294 -3.98734 0
M  V30 31965 C 2959.38 -3.21011 -4.08959 0
M  V30 31966 C 2957.07 -2.55875 -4.32242 0
M  V30 31967 C 2959.06 -4.49399 -4.52017 0
M  V30 31968 C 2956.75 -3.8449 -4.74985 0
M  V30 31969 C 2957.75 -4.81065 -4.84836 0
M  V30 31970 O 2957.43 -6.07387 -5.26627 0
M  V30 31971 H 2957.17 -0.236551 -0.633261 0
M  V30 31972 H 2959.72 -1.28913 -1.59908 0
M  V30 31973 H 2957.95 -0.110173 -3.86543 0
M  V30 31974 H 2959.64 -0.495963 -4.02859 0
M  V30 31975 H 2960.41 -2.97168 -3.83297 0
M  V30 31976 H 2956.28 -1.81428 -4.23798 0
M  V30 31977 H 2959.83 -5.24781 -4.5962 0
M  V30 31978 H 2955.73 -4.08138 -5.00094 0
M  V30 31979 H 2956.49 -6.10851 -5.44796 0
M  V30 31980 N 2959.16 1.39677 -0.729931 0
M  V30 31981 C 2960.11 2.27913 -0.0628079 0
M  V30 31982 C 2961.09 1.43999 0.717842 0
M  V30 31983 O 2962.28 1.66959 0.587684 0
M  V30 31984 C 2959.41 3.32674 0.847506 0
M  V30 31985 C 2958.5 4.24056 0.061277 0
M  V30 31986 N 2958.89 4.96549 -0.96295 0
M  V30 31987 C 2957.19 4.45045 0.291695 0
M  V30 31988 C 2957.89 5.63681 -1.43662 0
M  V30 31989 N 2956.86 5.38315 -0.756138 0
M  V30 31990 H 2960.67 2.81413 -0.847595 0
M  V30 31991 H 2958.18 1.52299 -0.563803 0
M  V30 31992 H 2960.18 3.94748 1.34087 0
M  V30 31993 H 2958.84 2.80735 1.63151 0
M  V30 31994 H 2959.85 5.00152 -1.34418 0
M  V30 31995 H 2956.52 4.04057 1.0509 0
M  V30 31996 H 2957.91 6.31727 -2.28846 0
M  V30 31997 N 2960.63 0.47718 1.50202 0
M  V30 31998 C 2961.87 -0.0743706 2.04265 0
M  V30 31999 C 2962.24 -1.36441 1.35085 0
M  V30 32000 O 2963.44 -1.99871 1.79735 0
M  V30 32001 C 2961.71 -0.247811 3.5654 0
M  V30 32002 S 2963.27 -0.757041 4.3222 0
M  V30 32003 H 2960.09 -0.0130766 0.71088 0
M  V30 32004 H 2962.69 0.64571 1.84529 0
M  V30 32005 H 2961.39 0.69678 4.04442 0
M  V30 32006 H 2960.92 -0.993829 3.8064 0
M  V30 32007 H 2962.94 -2.02962 4.52792 0
M  V30 32008 N 2962.11 -1.56194 0.210027 0
M  V30 32009 C 2963.08 -2.1853 -0.691193 0
M  V30 32010 C 2964.08 -1.1439 -1.13011 0
M  V30 32011 O 2965.27 -1.3969 -1.04078 0
M  V30 32012 C 2962.4 -2.79937 -1.94546 0
M  V30 32013 H 2963.59 -2.99535 -0.1479 0
M  V30 32014 H 2961.14 -1.5625 -0.0395968 0
M  V30 32015 H 2961.88 -2.02771 -2.5309 0
M  V30 32016 H 2961.66 -3.56187 -1.63931 0
M  V30 32017 H 2963.15 -3.27755 -2.58779 0
M  V30 32018 N 2963.59 0.0634645 -1.57472 0
M  V30 32019 C 2964.82 0.773733 -1.91888 0
M  V30 32020 C 2965.23 1.70695 -0.806763 0
M  V30 32021 O 2964.59 1.81177 0.219352 0
M  V30 32022 C 2964.64 1.56028 -3.26094 0
M  V30 32023 O 2964.36 0.664564 -4.3303 0
M  V30 32024 C 2965.86 2.3708 -3.74577 0
M  V30 32025 H 2963.08 0.219514 -0.634078 0
M  V30 32026 H 2965.63 0.0312469 -2.04476 0
M  V30 32027 H 2963.78 2.25496 -3.15008 0
M  V30 32028 H 2964.2 1.21249 -5.10293 0
M  V30 32029 H 2965.67 2.87714 -4.71089 0
M  V30 32030 H 2966.15 3.16978 -3.04009 0
M  V30 32031 H 2966.75 1.72752 -3.88634 0
M  V30 32032 N 2965.07 1.53998 0.33504 0
M  V30 32033 C 2966.48 1.63012 0.910162 0
M  V30 32034 C 2966.83 0.516843 1.8927 0
M  V30 32035 O 2965.96 -0.352085 2.13517 0
M  V30 32036 C 2966.55 2.95483 1.65756 0
M  V30 32037 C 2965.11 3.06732 2.18157 0
M  V30 32038 C 2964.26 2.58512 1.00334 0
M  V30 32039 H 2967.21 1.58298 0.112937 0
M  V30 32040 H 2967.23 2.85 2.52102 0
M  V30 32041 H 2966.74 3.76489 0.942204 0
M  V30 32042 H 2964.84 2.30377 2.92843 0
M  V30 32043 H 2964.95 4.12344 2.43945 0
M  V30 32044 H 2963.32 2.14126 1.37921 0
M  V30 32045 H 2964.1 3.41965 0.30248 0
M  V30 32046 N 2966.55 -0.596505 1.45875 0
M  V30 32047 C 2967.46 -1.73461 1.5795 0
M  V30 32048 C 2968.47 -1.67713 0.46349 0
M  V30 32049 O 2969.65 -1.8787 0.725718 0
M  V30 32050 C 2966.71 -3.09946 1.55353 0
M  V30 32051 C 2965.77 -3.27063 2.7808 0
M  V30 32052 C 2965.01 -4.57036 2.75597 0
M  V30 32053 O 2965.23 -5.40059 1.83554 0
M  V30 32054 O 2964.16 -4.77105 3.66953 0
M  V30 32055 H 2967.99 -1.66223 2.54172 0
M  V30 32056 H 2965.58 -0.761918 1.28511 0
M  V30 32057 H 2967.46 -3.91241 1.56552 0
M  V30 32058 H 2966.13 -3.17651 0.622867 0
M  V30 32059 H 2965.04 -2.45314 2.82439 0
M  V30 32060 H 2966.37 -3.24241 3.70309 0
M  V30 32061 N 2968.02 -1.3335 -0.839967 0
M  V30 32062 C 2968.96 -1.19347 -1.95675 0
M  V30 32063 C 2969.97 -0.124721 -1.62322 0
M  V30 32064 O 2971.16 -0.375042 -1.74516 0
M  V30 32065 C 2968.26 -0.807829 -3.29131 0
M  V30 32066 C 2967.43 -1.96799 -3.90626 0
M  V30 32067 C 2966.49 -1.5635 -5.02435 0
M  V30 32068 O 2965.52 -2.27768 -5.21642 0
M  V30 32069 N 2966.72 -0.467869 -5.78611 0
M  V30 32070 H 2969.48 -2.15551 -2.08225 0
M  V30 32071 H 2967.04 -1.26081 -1.01564 0
M  V30 32072 H 2969.04 -0.519352 -4.01354 0
M  V30 32073 H 2967.61 0.0635001 -3.12535 0
M  V30 32074 H 2966.83 -2.42215 -3.11007 0
M  V30 32075 H 2968.11 -2.7443 -4.28446 0
M  V30 32076 H 2967.51 0.126225 -5.65559 0
M  V30 32077 H 2966.07 -0.23906 -6.51361 0
M  V30 32078 N 2969.5 1.05808 -1.16801 0
M  V30 32079 C 2970.43 2.15363 -0.902279 0
M  V30 32080 C 2971.41 1.69408 0.153321 0
M  V30 32081 O 2972.6 1.942 0.00438619 0
M  V30 32082 C 2969.73 3.44895 -0.407972 0
M  V30 32083 C 2968.68 4.04384 -1.40204 0
M  V30 32084 C 2968.01 5.29186 -0.765941 0
M  V30 32085 C 2969.31 4.42593 -2.77324 0
M  V30 32086 H 2971 2.3785 -1.81846 0
M  V30 32087 H 2968.55 1.14309 -0.875751 0
M  V30 32088 H 2970.5 4.20879 -0.209524 0
M  V30 32089 H 2969.23 3.22042 0.543723 0
M  V30 32090 H 2967.88 3.30463 -1.58712 0
M  V30 32091 H 2967.53 5.02632 0.192394 0
M  V30 32092 H 2967.23 5.69947 -1.42949 0
M  V30 32093 H 2968.76 6.07862 -0.577626 0
M  V30 32094 H 2970.17 5.09637 -2.6257 0
M  V30 32095 H 2968.57 4.94353 -3.40198 0
M  V30 32096 H 2969.64 3.53225 -3.32205 0
M  V30 32097 N 2970.98 0.967265 1.24426 0
M  V30 32098 C 2971.94 0.501966 2.23636 0
M  V30 32099 C 2972.94 -0.401256 1.55713 0
M  V30 32100 O 2974.13 -0.196777 1.73085 0
M  V30 32101 C 2971.27 -0.273117 3.39804 0
M  V30 32102 H 2972.46 1.37901 2.66314 0
M  V30 32103 H 2970.01 0.751807 1.37031 0
M  V30 32104 H 2970.75 -1.16728 3.02564 0
M  V30 32105 H 2970.53 0.375049 3.90302 0
M  V30 32106 H 2972.02 -0.587703 4.13444 0
M  V30 32107 N 2972.46 -1.39288 0.737328 0
M  V30 32108 C 2973.71 -1.99702 0.283164 0
M  V30 32109 C 2974.02 -1.59178 -1.13674 0
M  V30 32110 O 2975.23 -2.12445 -1.69054 0
M  V30 32111 C 2973.68 -3.57008 0.455324 0
M  V30 32112 C 2973.29 -4.06494 1.88326 0
M  V30 32113 C 2975.04 -4.24453 0.0630532 0
M  V30 32114 C 2972.94 -5.56381 2.00485 0
M  V30 32115 H 2971.87 -0.747053 0.102119 0
M  V30 32116 H 2974.52 -1.59258 0.911543 0
M  V30 32117 H 2972.91 -3.9526 -0.241987 0
M  V30 32118 H 2974.08 -3.79571 2.61272 0
M  V30 32119 H 2972.39 -3.51719 2.22896 0
M  V30 32120 H 2974.99 -5.34535 0.132881 0
M  V30 32121 H 2975.33 -4.04551 -0.982057 0
M  V30 32122 H 2975.87 -3.91383 0.711608 0
M  V30 32123 H 2972.61 -5.81166 3.03193 0
M  V30 32124 H 2972.13 -5.851 1.31979 0
M  V30 32125 H 2973.81 -6.21829 1.78711 0
M  V30 32126 N 2973.94 -0.485139 -1.49947 0
M  V30 32127 C 2975.19 0.0667296 -2.0159 0
M  V30 32128 C 2975.5 1.39507 -1.37103 0
M  V30 32129 O 2976.71 2.0327 -1.79982 0
M  V30 32130 C 2975.16 0.169413 -3.59501 0
M  V30 32131 C 2974.77 -1.15133 -4.32953 0
M  V30 32132 C 2976.51 0.67249 -4.19139 0
M  V30 32133 C 2974.42 -1.01168 -5.82683 0
M  V30 32134 H 2973.35 0.0287126 -0.753453 0
M  V30 32135 H 2976 -0.622163 -1.72631 0
M  V30 32136 H 2974.38 0.922403 -3.85107 0
M  V30 32137 H 2975.56 -1.91638 -4.1906 0
M  V30 32138 H 2973.87 -1.58661 -3.84988 0
M  V30 32139 H 2976.47 0.794232 -5.28768 0
M  V30 32140 H 2976.81 1.66739 -3.8145 0
M  V30 32141 H 2977.35 -0.0235114 -3.97793 0
M  V30 32142 H 2974.08 -1.98036 -6.24869 0
M  V30 32143 H 2973.6 -0.287257 -5.99112 0
M  V30 32144 H 2975.28 -0.68396 -6.43375 0
M  V30 32145 N 2975.42 1.56081 -0.218307 0
M  V30 32146 C 2976.66 1.97826 0.413454 0
M  V30 32147 C 2976.98 1.1071 1.60525 0
M  V30 32148 O 2976.25 0.183413 1.9504 0
M  V30 32149 H 2974.83 0.730584 0.155744 0
M  V30 32150 H 2977.5 1.92412 -0.310447 0
M  V30 32151 H 2976.59 3.03152 0.741971 0
M  V30 32152 N 2976.89 -0.0551124 1.57504 0
M  V30 32153 C 2977.84 -1.06369 2.04827 0
M  V30 32154 C 2978.81 -1.37479 0.932132 0
M  V30 32155 O 2980 -1.48263 1.20095 0
M  V30 32156 C 2977.14 -2.36739 2.51095 0
M  V30 32157 C 2976.25 -2.12014 3.76396 0
M  V30 32158 C 2975.38 -3.36066 4.11379 0
M  V30 32159 C 2974.42 -3.0678 5.29672 0
M  V30 32160 N 2973.56 -4.2321 5.60212 0
M  V30 32161 H 2978.4 -0.653165 2.90754 0
M  V30 32162 H 2975.94 -0.310926 1.43776 0
M  V30 32163 H 2977.89 -3.12877 2.75978 0
M  V30 32164 H 2976.52 -2.75562 1.68123 0
M  V30 32165 H 2975.58 -1.26492 3.58753 0
M  V30 32166 H 2976.89 -1.86393 4.62665 0
M  V30 32167 H 2976.04 -4.2059 4.37252 0
M  V30 32168 H 2974.78 -3.64778 3.2371 0
M  V30 32169 H 2973.79 -2.20656 5.03578 0
M  V30 32170 H 2975.01 -2.79374 6.18973 0
M  V30 32171 H 2972.96 -4.51922 4.75503 0
M  V30 32172 H 2972.87 -4.00921 6.40935 0
M  V30 32173 H 2974.14 -5.08682 5.90646 0
M  V30 32174 N 2978.37 -1.54173 -0.326869 0
M  V30 32175 C 2979.62 -1.71433 -1.06271 0
M  V30 32176 C 2979.93 -0.493157 -1.89281 0
M  V30 32177 O 2981.14 -0.547037 -2.65932 0
M  V30 32178 C 2979.6 -3.0321 -1.93886 0
M  V30 32179 C 2979.2 -4.32721 -1.16003 0
M  V30 32180 C 2980.95 -3.29834 -2.67226 0
M  V30 32181 C 2978.85 -5.55561 -2.02746 0
M  V30 32182 H 2977.78 -0.638862 -0.400464 0
M  V30 32183 H 2980.44 -1.80668 -0.321152 0
M  V30 32184 H 2978.82 -2.87874 -2.71928 0
M  V30 32185 H 2979.99 -4.58812 -0.427562 0
M  V30 32186 H 2978.31 -4.12837 -0.543598 0
M  V30 32187 H 2980.9 -4.18804 -3.32427 0
M  V30 32188 H 2981.25 -2.47568 -3.34688 0
M  V30 32189 H 2981.78 -3.46022 -1.96249 0
M  V30 32190 H 2978.52 -6.40419 -1.39798 0
M  V30 32191 H 2978.04 -5.33694 -2.73736 0
M  V30 32192 H 2979.72 -5.9184 -2.61409 0
M  V30 32193 N 2979.85 0.58876 -1.4619 0
M  V30 32194 C 2980.8 1.69301 -1.52713 0
M  V30 32195 C 2981.78 1.56137 -0.388606 0
M  V30 32196 O 2982.98 1.65154 -0.636645 0
M  V30 32197 C 2980.1 3.08081 -1.51463 0
M  V30 32198 C 2979.19 3.26563 -2.70587 0
M  V30 32199 N 2979.58 3.15229 -3.95556 0
M  V30 32200 C 2977.88 3.57486 -2.66682 0
M  V30 32201 C 2978.58 3.35552 -4.75163 0
M  V30 32202 N 2977.56 3.60425 -4.06933 0
M  V30 32203 H 2981.36 1.59059 -2.47139 0
M  V30 32204 H 2978.87 0.792608 -1.41744 0
M  V30 32205 H 2980.87 3.87325 -1.54223 0
M  V30 32206 H 2979.53 3.19458 -0.581092 0
M  V30 32207 H 2980.54 2.93225 -4.26895 0
M  V30 32208 H 2977.22 3.75585 -1.82324 0
M  V30 32209 H 2978.61 3.32024 -5.84132 0
M  V30 32210 N 2981.33 1.33794 0.832883 0
M  V30 32211 C 2982.74 1.13259 1.12448 0
M  V30 32212 C 2982.94 -0.0725478 2.01369 0
M  V30 32213 O 2982 -0.75104 2.41072 0
M  V30 32214 C 2983.31 2.42298 1.7808 0
M  V30 32215 C 2984.86 2.48261 1.90619 0
M  V30 32216 C 2985.34 3.77276 2.59667 0
M  V30 32217 N 2986.83 3.78381 2.67175 0
M  V30 32218 C 2987.56 4.74922 3.21305 0
M  V30 32219 N 2987.06 5.81841 3.76075 0
M  V30 32220 N 2988.85 4.6239 3.19612 0
M  V30 32221 H 2981 2.11026 0.241207 0
M  V30 32222 H 2983.26 0.932716 0.169541 0
M  V30 32223 H 2982.97 3.30521 1.20203 0
M  V30 32224 H 2982.84 2.54895 2.78044 0
M  V30 32225 H 2985.23 1.60483 2.47648 0
M  V30 32226 H 2985.31 2.39599 0.895868 0
M  V30 32227 H 2984.96 4.65439 2.03296 0
M  V30 32228 H 2984.89 3.83216 3.61183 0
M  V30 32229 H 2987.38 3.01112 2.28341 0
M  V30 32230 H 2987.69 6.51534 4.156 0
M  V30 32231 H 2986.04 5.85568 3.74347 0
M  V30 32232 H 2989.23 3.78015 2.76084 0
M  V30 32233 H 2989.4 5.37797 3.61495 0
M  V30 32234 N 2982.81 -1.05187 1.1736 0
M  V30 32235 C 2984.05 -1.78189 0.962019 0
M  V30 32236 C 2984.38 -1.87713 -0.50933 0
M  V30 32237 O 2983.64 -1.37331 -1.39423 0
M  V30 32238 C 2983.93 -3.22123 1.54827 0
M  V30 32239 C 2983.6 -3.32658 3.04384 0
M  V30 32240 C 2982.26 -3.3524 3.45207 0
M  V30 32241 C 2984.61 -3.33669 4.00392 0
M  V30 32242 C 2981.94 -3.36463 4.80635 0
M  V30 32243 C 2984.29 -3.36431 5.35721 0
M  V30 32244 C 2982.96 -3.373 5.76008 0
M  V30 32245 H 2982.23 -0.652041 0.352028 0
M  V30 32246 H 2984.88 -1.23624 1.46251 0
M  V30 32247 H 2983.18 -3.79616 0.969498 0
M  V30 32248 H 2984.88 -3.77229 1.36011 0
M  V30 32249 H 2981.47 -3.31361 2.71842 0
M  V30 32250 H 2985.65 -3.30876 3.69912 0
M  V30 32251 H 2980.91 -3.35446 5.11161 0
M  V30 32252 H 2985.08 -3.36162 6.09892 0
M  V30 32253 H 2982.71 -3.38001 6.80925 0
M  V30 32254 N 2984.28 -0.97385 -1.23911 0
M  V30 32255 C 2985.51 -0.656546 -1.96734 0
M  V30 32256 C 2985.93 0.768541 -1.71683 0
M  V30 32257 O 2985.29 1.52254 -0.984294 0
M  V30 32258 C 2985.34 -0.944796 -3.48003 0
M  V30 32259 O 2984.44 -0.0334082 -4.12386 0
M  V30 32260 H 2983.78 -0.247586 -0.616114 0
M  V30 32261 H 2986.31 -1.30567 -1.57523 0
M  V30 32262 H 2986.32 -0.87883 -3.98423 0
M  V30 32263 H 2985 -1.98334 -3.65563 0
M  V30 32264 H 2983.58 -0.153222 -3.72585 0
M  V30 32265 N 2985.76 1.38895 -0.744705 0
M  V30 32266 C 2986.67 2.34328 -0.112933 0
M  V30 32267 C 2987.69 1.58818 0.710842 0
M  V30 32268 O 2988.86 1.91059 0.637059 0
M  V30 32269 C 2985.93 3.37896 0.776357 0
M  V30 32270 C 2984.99 4.29257 -0.0607754 0
M  V30 32271 C 2984.22 5.27878 0.786165 0
M  V30 32272 O 2984.45 5.33262 2.02454 0
M  V30 32273 O 2983.38 6.01535 0.209676 0
M  V30 32274 H 2987.21 2.90032 -0.900852 0
M  V30 32275 H 2984.79 1.40589 -0.505487 0
M  V30 32276 H 2986.67 4.01334 1.28489 0
M  V30 32277 H 2985.35 2.84562 1.54292 0
M  V30 32278 H 2984.25 3.69009 -0.615049 0
M  V30 32279 H 2985.59 4.85822 -0.789787 0
M  V30 32280 N 2987.24 0.493084 1.49688 0
M  V30 32281 C 2988.47 -0.053475 2.07331 0
M  V30 32282 C 2988.89 -1.30779 1.35198 0
M  V30 32283 O 2988.25 -1.76689 0.406277 0
M  V30 32284 C 2988.3 -0.298187 3.59365 0
M  V30 32285 O 2987.4 -1.37447 3.88821 0
M  V30 32286 H 2986.74 0.0227134 0.663611 0
M  V30 32287 H 2989.27 0.690436 1.92598 0
M  V30 32288 H 2989.28 -0.532088 4.04516 0
M  V30 32289 H 2987.96 0.618279 4.11279 0
M  V30 32290 H 2986.53 -1.12615 3.55489 0
M  V30 32291 N 2988.72 -1.55963 0.226582 0
M  V30 32292 C 2989.97 -1.9761 -0.404135 0
M  V30 32293 C 2990.28 -1.11743 -1.6054 0
M  V30 32294 O 2991.49 -1.43311 -2.30595 0
M  V30 32295 C 2989.94 -3.51558 -0.770404 0
M  V30 32296 C 2989.55 -4.46135 0.408322 0
M  V30 32297 C 2991.29 -4.01906 -1.36644 0
M  V30 32298 C 2989.2 -5.91397 0.0193386 0
M  V30 32299 H 2988.13 -0.737945 -0.154767 0
M  V30 32300 H 2990.78 -1.80624 0.323589 0
M  V30 32301 H 2989.16 -3.64162 -1.55569 0
M  V30 32302 H 2990.34 -4.45281 1.18583 0
M  V30 32303 H 2988.65 -4.06156 0.91793 0
M  V30 32304 H 2991.25 -5.07937 -1.67046 0
M  V30 32305 H 2991.59 -3.48053 -2.28397 0
M  V30 32306 H 2992.13 -3.92545 -0.644487 0
M  V30 32307 H 2988.87 -6.49244 0.903474 0
M  V30 32308 H 2988.39 -5.95434 -0.722381 0
M  V30 32309 H 2990.06 -6.45727 -0.405597 0
M  V30 32310 N 2990.2 0.0467589 -1.57531 0
M  V30 32311 C 2991.61 0.40208 -1.54452 0
M  V30 32312 C 2991.81 1.77683 -0.950306 0
M  V30 32313 O 2990.87 2.46129 -0.563645 0
M  V30 32314 C 2992.18 0.32016 -2.98991 0
M  V30 32315 C 2993.73 0.398534 -3.10452 0
M  V30 32316 C 2994.2 0.346255 -4.56689 0
M  V30 32317 N 2995.7 0.405584 -4.61421 0
M  V30 32318 C 2996.43 0.387745 -5.72087 0
M  V30 32319 N 2995.93 0.323238 -6.92046 0
M  V30 32320 N 2997.72 0.436165 -5.60405 0
M  V30 32321 H 2989.87 -0.853121 -1.94514 0
M  V30 32322 H 2992.13 -0.322685 -0.891391 0
M  V30 32323 H 2991.84 -0.623855 -3.46123 0
M  V30 32324 H 2991.71 1.12073 -3.60166 0
M  V30 32325 H 2994.1 1.33298 -2.63279 0
M  V30 32326 H 2994.18 -0.43107 -2.52142 0
M  V30 32327 H 2993.83 -0.584445 -5.04526 0
M  V30 32328 H 2993.76 1.19373 -5.12891 0
M  V30 32329 H 2996.25 0.458671 -3.75106 0
M  V30 32330 H 2996.56 0.31424 -7.72161 0
M  V30 32331 H 2994.9 0.289548 -6.94397 0
M  V30 32332 H 2998.1 0.484428 -4.65587 0
M  V30 32333 H 2998.27 0.418793 -6.46645 0
M  V30 32334 N 2991.67 1.54344 0.318688 0
M  V30 32335 C 2992.92 1.73038 1.05762 0
M  V30 32336 C 2993.25 0.505214 1.87513 0
M  V30 32337 O 2992.53 -0.497805 1.88022 0
M  V30 32338 C 2992.81 3.00891 1.9783 0
M  V30 32339 C 2992.66 4.3367 1.19376 0
M  V30 32340 C 2993.98 3.2452 2.97279 0
M  V30 32341 H 2991.1 0.62961 0.383093 0
M  V30 32342 H 2993.74 1.87044 0.333831 0
M  V30 32343 H 2991.89 2.89081 2.59547 0
M  V30 32344 H 2993.57 4.5737 0.600826 0
M  V30 32345 H 2991.81 4.30954 0.496122 0
M  V30 32346 H 2992.48 5.19358 1.87005 0
M  V30 32347 H 2994.96 3.35823 2.45687 0
M  V30 32348 H 2993.83 4.15327 3.5888 0
M  V30 32349 H 2994.09 2.41978 3.69999 0
M  V30 32350 N 2993.15 -0.580999 1.465 0
M  V30 32351 C 2994.4 -1.34113 1.52123 0
M  V30 32352 C 2994.73 -1.93427 0.173065 0
M  V30 32353 O 2994.01 -1.76569 -0.815698 0
M  V30 32354 C 2994.29 -2.4692 2.62112 0
M  V30 32355 C 2994.14 -1.92629 4.06465 0
M  V30 32356 C 2995.46 -3.48957 2.68173 0
M  V30 32357 H 2992.58 -0.486277 0.553808 0
M  V30 32358 H 2995.22 -0.652507 1.78444 0
M  V30 32359 H 2993.37 -3.05661 2.39799 0
M  V30 32360 H 2995.04 -1.38332 4.4007 0
M  V30 32361 H 2993.29 -1.23448 4.15864 0
M  V30 32362 H 2993.96 -2.74068 4.79157 0
M  V30 32363 H 2996.43 -3.00099 2.88235 0
M  V30 32364 H 2995.31 -4.25344 3.46949 0
M  V30 32365 H 2995.57 -4.06294 1.74291 0
M  V30 32366 N 2994.63 -1.34234 -0.825776 0
M  V30 32367 C 2995.59 -1.25471 -1.91806 0
M  V30 32368 C 2996.59 -0.170595 -1.59893 0
M  V30 32369 O 2997.78 -0.423026 -1.68986 0
M  V30 32370 C 2994.92 -0.936498 -3.27784 0
M  V30 32371 H 2996.11 -2.22575 -2.00999 0
M  V30 32372 H 2993.66 -1.18481 -1.01941 0
M  V30 32373 H 2994.4 0.0314838 -3.24285 0
M  V30 32374 H 2994.18 -1.72064 -3.5233 0
M  V30 32375 H 2995.67 -0.900286 -4.0778 0
M  V30 32376 N 2996.11 1.04563 -1.17917 0
M  V30 32377 C 2997.04 2.11976 -0.845058 0
M  V30 32378 C 2998.02 1.61476 0.190861 0
M  V30 32379 O 2999.2 1.88366 0.0709574 0
M  V30 32380 C 2996.33 3.37687 -0.261716 0
M  V30 32381 C 2995.38 4.07027 -1.27403 0
M  V30 32382 S 2996.21 4.54741 -2.82791 0
M  V30 32383 C 2997.37 5.83691 -2.25955 0
M  V30 32384 H 2997.6 2.3999 -1.75476 0
M  V30 32385 H 2995.13 1.17257 -1.0045 0
M  V30 32386 H 2997.09 4.10443 0.0683535 0
M  V30 32387 H 2995.75 3.07798 0.626028 0
M  V30 32388 H 2994.94 4.97373 -0.814644 0
M  V30 32389 H 2994.55 3.40365 -1.55008 0
M  V30 32390 H 2996.84 6.57375 -1.63903 0
M  V30 32391 H 2997.78 6.34385 -3.1458 0
M  V30 32392 H 2998.19 5.38557 -1.69164 0
M  V30 32393 N 2997.59 0.980408 1.23393 0
M  V30 32394 C 2998.81 0.667321 1.95843 0
M  V30 32395 C 2999.23 -0.765705 1.72576 0
M  V30 32396 O 2998.59 -1.51525 1.01718 0
M  V30 32397 C 2998.64 0.948212 3.48843 0
M  V30 32398 O 2998.36 2.32492 3.71321 0
M  V30 32399 C 2999.86 0.651079 4.38493 0
M  V30 32400 H 2997.08 0.247893 0.62353 0
M  V30 32401 H 2999.62 1.31179 1.56883 0
M  V30 32402 H 2997.78 0.349749 3.85818 0
M  V30 32403 H 2998.19 2.4146 4.65615 0
M  V30 32404 H 2999.67 0.897983 5.44647 0
M  V30 32405 H 3000.14 -0.414845 4.37236 0
M  V30 32406 H 3000.75 1.23002 4.07125 0
M  V30 32407 N 2999.06 -1.38498 0.75206 0
M  V30 32408 C 3000.03 -2.28822 0.131627 0
M  V30 32409 C 3001.03 -1.47116 -0.649123 0
M  V30 32410 O 3002.22 -1.67581 -0.475615 0
M  V30 32411 C 2999.35 -3.3084 -0.822043 0
M  V30 32412 H 3000.54 -2.85194 0.927601 0
M  V30 32413 H 2998.1 -1.47433 0.518971 0
M  V30 32414 H 2998.83 -2.79556 -1.64375 0
M  V30 32415 H 2998.62 -3.91206 -0.264621 0
M  V30 32416 H 3000.11 -3.98384 -1.25219 0
M  V30 32417 N 3000.54 -0.501015 -1.49424 0
M  V30 32418 C 3001.77 0.0403079 -2.06861 0
M  V30 32419 C 3002.19 1.30817 -1.36134 0
M  V30 32420 O 3001.54 1.77124 -0.439678 0
M  V30 32421 C 3001.59 0.297838 -3.60271 0
M  V30 32422 O 3001.31 -0.919761 -4.28336 0
M  V30 32423 C 3002.82 0.8828 -4.34421 0
M  V30 32424 H 3000.04 -0.0204737 -0.670688 0
M  V30 32425 H 3002.58 -0.698376 -1.92206 0
M  V30 32426 H 3000.73 0.986504 -3.74629 0
M  V30 32427 H 3001.15 -0.682619 -5.20039 0
M  V30 32428 H 3002.62 1.01258 -5.42633 0
M  V30 32429 H 3003.1 1.88059 -3.96901 0
M  V30 32430 H 3003.71 0.231602 -4.24669 0
M  V30 32431 N 3002.02 1.5584 -0.234849 0
M  V30 32432 C 3003.43 1.84729 0.270556 0
M  V30 32433 C 3003.78 1.15649 1.58492 0
M  V30 32434 O 3002.91 0.430704 2.12071 0
M  V30 32435 C 3003.5 3.35125 0.497674 0
M  V30 32436 C 3002.06 3.64283 0.947364 0
M  V30 32437 C 3001.21 2.77294 0.0178213 0
M  V30 32438 H 3004.16 1.51956 -0.457718 0
M  V30 32439 H 3004.18 3.56052 1.34192 0
M  V30 32440 H 3003.69 3.85375 -0.459105 0
M  V30 32441 H 3001.79 3.195 1.91703 0
M  V30 32442 H 3001.91 4.72159 0.812568 0
M  V30 32443 H 3000.27 2.49188 0.527028 0
M  V30 32444 H 3001.05 3.30347 -0.934114 0
M  V30 32445 N 3003.5 -0.038404 1.57553 0
M  V30 32446 C 3004.46 -1.0265 2.04929 0
M  V30 32447 C 3005.46 -1.29606 0.951791 0
M  V30 32448 O 3006.65 -1.24765 1.2157 0
M  V30 32449 C 3003.78 -2.36177 2.45832 0
M  V30 32450 H 3004.98 -0.617456 2.93475 0
M  V30 32451 H 3002.53 -0.285004 1.5368 0
M  V30 32452 H 3003.27 -2.81848 1.60413 0
M  V30 32453 H 3003.05 -2.17944 3.25949 0
M  V30 32454 H 3004.54 -3.07135 2.82945 0
M  V30 32455 N 3004.98 -1.54511 -0.310498 0
M  V30 32456 C 3006.23 -1.72998 -1.04481 0
M  V30 32457 C 3006.55 -0.513512 -1.88117 0
M  V30 32458 O 3005.82 0.47235 -1.9012 0
M  V30 32459 H 3004.4 -0.637882 -0.388735 0
M  V30 32460 H 3007.06 -1.91844 -0.343777 0
M  V30 32461 H 3006.15 -2.61518 -1.70336 0
M  V30 32462 N 3006.46 0.573222 -1.46806 0
M  V30 32463 C 3007.68 1.36172 -1.56435 0
M  V30 32464 C 3008.11 1.86931 -0.209369 0
M  V30 32465 O 3007.46 1.62094 0.812118 0
M  V30 32466 C 3007.51 2.51868 -2.58059 0
M  V30 32467 O 3006.62 3.53605 -2.1222 0
M  V30 32468 H 3005.96 0.405144 -0.526075 0
M  V30 32469 H 3008.49 0.694372 -1.92457 0
M  V30 32470 H 3008.5 2.98657 -2.77971 0
M  V30 32471 H 3007.17 2.14278 -3.56452 0
M  V30 32472 H 3005.75 3.13231 -2.02338 0
M  V30 32473 N 3007.93 1.3467 0.818645 0
M  V30 32474 C 3009.18 1.27455 1.57743 0
M  V30 32475 C 3009.51 -0.154043 1.93588 0
M  V30 32476 O 3008.79 -1.10048 1.60373 0
M  V30 32477 C 3009.07 2.1695 2.8741 0
M  V30 32478 C 3008.92 3.68368 2.58119 0
M  V30 32479 C 3010.24 2.05799 3.89018 0
M  V30 32480 H 3007.36 0.464334 0.572331 0
M  V30 32481 H 3010 1.64961 0.942755 0
M  V30 32482 H 3008.15 1.85095 3.41573 0
M  V30 32483 H 3009.83 4.1061 2.10232 0
M  V30 32484 H 3008.07 3.89245 1.91496 0
M  V30 32485 H 3008.74 4.26359 3.50602 0
M  V30 32486 H 3011.22 2.33777 3.4422 0
M  V30 32487 H 3010.09 2.70637 4.77543 0
M  V30 32488 H 3010.35 1.03625 4.29784 0
M  V30 32489 N 3009.41 -1.03936 1.1847 0
M  V30 32490 C 3010.64 -1.80808 1.00579 0
M  V30 32491 C 3011.05 -1.83462 -0.445754 0
M  V30 32492 O 3010.41 -1.27103 -1.30962 0
M  V30 32493 C 3010.46 -3.26348 1.55497 0
M  V30 32494 O 3010.18 -3.23921 2.94969 0
M  V30 32495 C 3011.68 -4.19859 1.42243 0
M  V30 32496 H 3008.9 -0.569344 0.35509 0
M  V30 32497 H 3011.45 -1.30982 1.57048 0
M  V30 32498 H 3009.6 -3.73401 1.03202 0
M  V30 32499 H 3010.02 -4.15105 3.20606 0
M  V30 32500 H 3011.49 -5.19911 1.85464 0
M  V30 32501 H 3011.97 -4.37627 0.371344 0
M  V30 32502 H 3012.57 -3.78672 1.93617 0
M  V30 32503 N 3010.89 -0.986938 -1.22871 0
M  V30 32504 C 3012.12 -0.677697 -1.95486 0
M  V30 32505 C 3012.53 0.756542 -1.72979 0
M  V30 32506 O 3011.89 1.50983 -1.0252 0
M  V30 32507 C 3011.94 -0.966699 -3.48335 0
M  V30 32508 O 3011.66 -2.34457 -3.70083 0
M  V30 32509 C 3013.16 -0.674325 -4.38141 0
M  V30 32510 H 3010.38 -0.251196 -0.622207 0
M  V30 32511 H 3012.93 -1.32009 -1.56185 0
M  V30 32512 H 3011.08 -0.370205 -3.85627 0
M  V30 32513 H 3011.5 -2.43926 -4.64328 0
M  V30 32514 H 3012.97 -0.926854 -5.44163 0
M  V30 32515 H 3013.45 0.391652 -4.3745 0
M  V30 32516 H 3014.05 -1.2516 -4.06467 0
M  V30 32517 N 3012.37 1.38098 -0.759394 0
M  V30 32518 C 3013.6 2.04265 -0.329147 0
M  V30 32519 C 3014.01 1.57276 1.0445 0
M  V30 32520 O 3013.37 0.748427 1.66448 0
M  V30 32521 C 3013.42 3.59809 -0.349256 0
M  V30 32522 O 3013.14 4.05075 -1.6687 0
M  V30 32523 C 3014.64 4.432 0.0941327 0
M  V30 32524 H 3011.86 0.656292 -0.139722 0
M  V30 32525 H 3014.4 1.76675 -1.02987 0
M  V30 32526 H 3012.56 3.86215 0.302778 0
M  V30 32527 H 3012.97 4.99537 -1.59885 0
M  V30 32528 H 3014.45 5.51992 0.0289033 0
M  V30 32529 H 3014.92 4.24071 1.14283 0
M  V30 32530 H 3015.53 4.21994 -0.529245 0
M  V30 32531 N 3013.85 0.508932 1.49156 0
M  V30 32532 C 3015.09 -0.032698 2.02074 0
M  V30 32533 C 3015.41 -1.36748 1.39014 0
M  V30 32534 O 3014.68 -1.88074 0.548186 0
M  V30 32535 H 3013.26 -0.0150733 0.746848 0
M  V30 32536 H 3015.93 0.667979 1.83096 0
M  V30 32537 H 3015.02 -0.156545 3.11707 0
M  V30 32538 N 3015.32 -1.55714 0.243111 0
M  V30 32539 C 3016.26 -2.18544 -0.690728 0
M  V30 32540 C 3017.27 -1.16066 -1.1416 0
M  V30 32541 O 3018.46 -1.42947 -1.06903 0
M  V30 32542 C 3015.56 -2.77171 -1.95011 0
M  V30 32543 C 3014.73 -4.05032 -1.6513 0
M  V30 32544 C 3013.79 -4.48013 -2.7599 0
M  V30 32545 O 3012.82 -5.14469 -2.43538 0
M  V30 32546 N 3014.02 -4.15483 -4.05406 0
M  V30 32547 H 3016.78 -2.99308 -0.15315 0
M  V30 32548 H 3014.34 -1.61778 0.0629252 0
M  V30 32549 H 3016.34 -3.02885 -2.68408 0
M  V30 32550 H 3014.91 -2.00586 -2.39758 0
M  V30 32551 H 3014.13 -3.86947 -0.7527 0
M  V30 32552 H 3015.41 -4.88401 -1.42625 0
M  V30 32553 H 3014.81 -3.62124 -4.34606 0
M  V30 32554 H 3013.37 -4.46041 -4.7528 0
M  V30 32555 N 3016.8 0.030048 -1.57571 0
M  V30 32556 C 3017.75 1.03097 -2.06494 0
M  V30 32557 C 3018.72 1.35979 -0.953886 0
M  V30 32558 O 3019.9 1.46333 -1.22439 0
M  V30 32559 C 3017.04 2.32714 -2.5483 0
M  V30 32560 C 3016.16 2.05999 -3.79721 0
M  V30 32561 C 3015.29 3.29479 -4.16674 0
M  V30 32562 C 3014.33 2.98315 -5.34485 0
M  V30 32563 N 3013.47 4.14244 -5.66874 0
M  V30 32564 H 3018.31 0.606826 -2.91756 0
M  V30 32565 H 3015.85 0.288013 -1.44253 0
M  V30 32566 H 3017.8 3.08446 -2.80921 0
M  V30 32567 H 3016.43 2.72853 -1.72486 0
M  V30 32568 H 3015.49 1.20768 -3.6072 0
M  V30 32569 H 3016.8 1.79009 -4.65572 0
M  V30 32570 H 3015.95 4.1358 -4.43888 0
M  V30 32571 H 3014.69 3.59582 -3.29472 0
M  V30 32572 H 3013.7 2.12616 -5.07025 0
M  V30 32573 H 3014.92 2.69491 -6.23339 0
M  V30 32574 H 3012.87 4.44299 -4.82632 0
M  V30 32575 H 3012.78 3.90674 -6.47233 0
M  V30 32576 H 3014.05 4.99221 -5.98664 0
M  V30 32577 N 3018.28 1.54674 0.3023 0
M  V30 32578 C 3019.23 1.81919 1.37439 0
M  V30 32579 C 3020.21 0.676277 1.45998 0
M  V30 32580 O 3021.41 0.936876 1.50172 0
M  V30 32581 C 3018.54 2.06881 2.73962 0
M  V30 32582 C 3017.62 3.27352 2.69632 0
M  V30 32583 N 3018.01 4.47937 2.34918 0
M  V30 32584 C 3016.31 3.29354 3.00736 0
M  V30 32585 C 3017.01 5.29949 2.39853 0
M  V30 32586 N 3015.99 4.67639 2.77155 0
M  V30 32587 H 3019.79 2.72715 1.09562 0
M  V30 32588 H 3017.3 1.54155 0.510873 0
M  V30 32589 H 3019.3 2.24546 3.51261 0
M  V30 32590 H 3017.96 1.17352 3.02752 0
M  V30 32591 H 3018.97 4.74561 2.07394 0
M  V30 32592 H 3015.65 2.49927 3.34429 0
M  V30 32593 H 3017.04 6.36294 2.15823 0
M  V30 32594 N 3019.76 -0.565428 1.47108 0
M  V30 32595 C 3021.17 -1.14757 1.47268 0
M  V30 32596 C 3021.52 -1.9493 0.222876 0
M  V30 32597 O 3020.65 -2.05675 -0.672825 0
M  V30 32598 C 3021.24 -2.08781 2.66826 0
M  V30 32599 C 3019.8 -2.62283 2.69971 0
M  V30 32600 C 3018.95 -1.38495 2.40238 0
M  V30 32601 H 3021.9 -0.352452 1.54737 0
M  V30 32602 H 3021.92 -2.92526 2.43328 0
M  V30 32603 H 3021.43 -1.50402 3.57772 0
M  V30 32604 H 3019.53 -3.24483 1.83143 0
M  V30 32605 H 3019.64 -3.03838 3.70431 0
M  V30 32606 H 3018.01 -1.68892 1.9065 0
M  V30 32607 H 3018.79 -0.819216 3.33382 0
M  V30 32608 N 3021.24 -1.35102 -0.811492 0
M  V30 32609 C 3022.49 -1.27438 -1.56341 0
M  V30 32610 C 3022.8 0.150662 -1.95019 0
M  V30 32611 O 3024 0.349539 -2.69241 0
M  V30 32612 C 3022.46 -2.23464 -2.8212 0
M  V30 32613 C 3022.07 -3.71287 -2.50699 0
M  V30 32614 C 3023.81 -2.24732 -3.60133 0
M  V30 32615 C 3021.72 -4.5915 -3.7274 0
M  V30 32616 H 3020.65 -0.473464 -0.586812 0
M  V30 32617 H 3023.3 -1.60337 -0.892437 0
M  V30 32618 H 3021.68 -1.83531 -3.50902 0
M  V30 32619 H 3022.86 -4.19826 -1.89955 0
M  V30 32620 H 3021.17 -3.72579 -1.85941 0
M  V30 32621 H 3023.77 -2.87594 -4.5077 0
M  V30 32622 H 3024.11 -1.24972 -3.97099 0
M  V30 32623 H 3024.64 -2.63169 -2.98307 0
M  V30 32624 H 3021.38 -5.5989 -3.40886 0
M  V30 32625 H 3020.9 -4.1534 -4.32727 0
M  V30 32626 H 3022.58 -4.74329 -4.40024 0
M  V30 32627 N 3022.71 1.03306 -1.19019 0
M  V30 32628 C 3023.62 2.14973 -0.939341 0
M  V30 32629 C 3024.64 1.73717 0.0992054 0
M  V30 32630 O 3025.82 2.01223 -0.0844715 0
M  V30 32631 C 3022.88 3.43406 -0.476773 0
M  V30 32632 C 3021.94 3.99001 -1.5842 0
M  V30 32633 C 3021.18 5.21303 -1.14361 0
M  V30 32634 O 3021.4 5.704 -0.00544434 0
M  V30 32635 O 3020.33 5.69626 -1.94446 0
M  V30 32636 H 3024.16 2.38995 -1.8739 0
M  V30 32637 H 3021.74 1.13401 -0.972655 0
M  V30 32638 H 3023.63 4.20787 -0.227254 0
M  V30 32639 H 3022.3 3.20839 0.429399 0
M  V30 32640 H 3021.21 3.22974 -1.88782 0
M  V30 32641 H 3022.54 4.25924 -2.46678 0
M  V30 32642 N 3024.19 0.99344 1.22346 0
M  V30 32643 C 3025.1 0.553116 2.27986 0
M  V30 32644 C 3026.12 -0.398357 1.69379 0
M  V30 32645 O 3027.29 -0.265055 1.99648 0
M  V30 32646 C 3024.36 -0.124748 3.46475 0
M  V30 32647 C 3023.42 0.869756 4.20397 0
M  V30 32648 C 3022.65 0.224146 5.33229 0
M  V30 32649 O 3022.88 -0.981816 5.61887 0
M  V30 32650 O 3021.81 0.929278 5.94683 0
M  V30 32651 H 3025.64 1.432 2.6782 0
M  V30 32652 H 3023.22 0.761716 1.28523 0
M  V30 32653 H 3025.1 -0.504422 4.1837 0
M  V30 32654 H 3023.78 -0.978189 3.08566 0
M  V30 32655 H 3022.69 1.30037 3.50772 0
M  V30 32656 H 3024.02 1.69242 4.62188 0
M  V30 32657 N 3025.67 -1.37693 0.766707 0
M  V30 32658 C 3026.92 -1.99814 0.328749 0
M  V30 32659 C 3027.25 -1.60864 -1.0933 0
M  V30 32660 O 3026.5 -0.843931 -1.76568 0
M  V30 32661 C 3026.8 -3.54995 0.413893 0
M  V30 32662 C 3026.47 -4.13697 1.79347 0
M  V30 32663 C 3025.13 -4.29443 2.17099 0
M  V30 32664 C 3027.48 -4.45944 2.69784 0
M  V30 32665 C 3024.81 -4.74737 3.44734 0
M  V30 32666 C 3027.16 -4.9266 3.96823 0
M  V30 32667 C 3025.82 -5.06612 4.34627 0
M  V30 32668 H 3025.09 -0.73117 0.120298 0
M  V30 32669 H 3027.74 -1.64539 0.979749 0
M  V30 32670 H 3026.05 -3.90486 -0.320654 0
M  V30 32671 H 3027.74 -4.0096 0.0564073 0
M  V30 32672 H 3024.33 -4.01865 1.49004 0
M  V30 32673 H 3028.52 -4.33369 2.41878 0
M  V30 32674 H 3023.77 -4.83725 3.73925 0
M  V30 32675 H 3027.95 -5.1658 4.67032 0
M  V30 32676 H 3025.57 -5.41469 5.33587 0
M  V30 32677 N 3027.15 -0.516835 -1.48884 0
M  V30 32678 C 3028.4 0.0239544 -2.01686 0
M  V30 32679 C 3028.71 1.36567 -1.40031 0
M  V30 32680 O 3029.92 1.99407 -1.84253 0
M  V30 32681 C 3028.37 0.0931193 -3.5978 0
M  V30 32682 C 3027.98 -1.24291 -4.30413 0
M  V30 32683 C 3029.72 0.583433 -4.20472 0
M  V30 32684 C 3027.63 -1.13505 -5.80406 0
M  V30 32685 H 3026.56 0.0127243 -0.753893 0
M  V30 32686 H 3029.21 -0.65864 -1.71272 0
M  V30 32687 H 3027.59 0.840509 -3.86977 0
M  V30 32688 H 3028.77 -2.00483 -4.14901 0
M  V30 32689 H 3027.08 -1.66791 -3.81536 0
M  V30 32690 H 3029.68 0.681894 -5.30334 0
M  V30 32691 H 3030.02 1.5861 -3.84901 0
M  V30 32692 H 3030.56 -0.107884 -3.97654 0
M  V30 32693 H 3027.3 -2.11246 -6.20528 0
M  V30 32694 H 3026.82 -0.414272 -5.98368 0
M  V30 32695 H 3028.49 -0.820275 -6.41779 0
M  V30 32696 N 3028.63 1.55583 -0.251365 0
M  V30 32697 C 3029.59 2.20285 0.633011 0
M  V30 32698 C 3030.59 1.17346 1.09939 0
M  V30 32699 O 3031.78 1.424 1.00338 0
M  V30 32700 C 3028.91 2.84997 1.87055 0
M  V30 32701 H 3030.1 2.99822 0.0684319 0
M  V30 32702 H 3027.66 1.563 -0.001844 0
M  V30 32703 H 3028.39 2.0941 2.47625 0
M  V30 32704 H 3028.18 3.60408 1.5443 0
M  V30 32705 H 3029.67 3.34501 2.49998 0
M  V30 32706 N 3030.1 -0.0216912 1.57585 0
M  V30 32707 C 3031.52 -0.567346 1.77871 0
M  V30 32708 C 3031.87 -1.75189 0.883368 0
M  V30 32709 O 3030.99 -2.16252 0.0801199 0
M  V30 32710 C 3031.59 -1.036 3.22572 0
M  V30 32711 C 3030.15 -1.52712 3.44029 0
M  V30 32712 C 3029.29 -0.468497 2.73314 0
M  V30 32713 H 3032.24 0.204527 1.57377 0
M  V30 32714 H 3032.26 -1.90304 3.29491 0
M  V30 32715 H 3031.78 -0.173671 3.87711 0
M  V30 32716 H 3029.88 -2.41106 2.84075 0
M  V30 32717 H 3029.99 -1.56954 4.52661 0
M  V30 32718 H 3028.35 -0.925222 2.37301 0
M  V30 32719 H 3029.14 0.384498 3.4114 0
M  V30 32720 N 3031.58 -1.54832 -0.294093 0
M  V30 32721 C 3032.49 -1.89327 -1.38537 0
M  V30 32722 C 3033.51 -0.78816 -1.55126 0
M  V30 32723 O 3034.69 -1.08527 -1.69658 0
M  V30 32724 C 3031.75 -2.13959 -2.72805 0
M  V30 32725 C 3030.81 -3.37636 -2.65142 0
M  V30 32726 C 3030.04 -3.61083 -3.93007 0
M  V30 32727 O 3030.27 -2.87415 -4.92695 0
M  V30 32728 O 3029.2 -4.54606 -3.94483 0
M  V30 32729 H 3033.03 -2.82181 -1.12284 0
M  V30 32730 H 3030.61 -1.41109 -0.490769 0
M  V30 32731 H 3032.49 -2.31321 -3.52234 0
M  V30 32732 H 3031.17 -1.2429 -2.98887 0
M  V30 32733 H 3030.08 -3.2563 -1.84162 0
M  V30 32734 H 3031.41 -4.27456 -2.44012 0
M  V30 32735 N 3033.06 0.557619 -1.47405 0
M  V30 32736 C 3034.31 1.31676 -1.54238 0
M  V30 32737 C 3034.64 1.93128 -0.203816 0
M  V30 32738 O 3033.92 1.77844 0.787505 0
M  V30 32739 C 3034.2 2.42718 -2.66007 0
M  V30 32740 C 3034.05 1.86138 -4.09478 0
M  V30 32741 C 3035.37 3.44647 -2.73691 0
M  V30 32742 H 3032.49 0.477405 -0.561474 0
M  V30 32743 H 3035.13 0.624036 -1.7946 0
M  V30 32744 H 3033.28 3.01807 -2.44632 0
M  V30 32745 H 3034.95 1.31313 -4.42215 0
M  V30 32746 H 3033.2 1.16816 -4.17776 0
M  V30 32747 H 3033.87 2.6641 -4.83456 0
M  V30 32748 H 3036.34 2.95476 -2.92973 0
M  V30 32749 H 3035.22 4.19771 -3.53672 0
M  V30 32750 H 3035.48 4.0347 -1.80733 0
M  V30 32751 N 3034.54 1.35531 0.804316 0
M  V30 32752 C 3035.47 1.22991 1.9222 0
M  V30 32753 C 3036.45 0.117298 1.62176 0
M  V30 32754 O 3037.63 0.285793 1.86321 0
M  V30 32755 C 3034.76 0.89428 3.26681 0
M  V30 32756 C 3033.81 2.01926 3.7567 0
M  V30 32757 S 3034.64 3.63527 3.93203 0
M  V30 32758 C 3035.8 3.32046 5.30562 0
M  V30 32759 H 3036.03 2.17613 2.02563 0
M  V30 32760 H 3033.56 1.20773 0.96194 0
M  V30 32761 H 3035.52 0.707442 4.04358 0
M  V30 32762 H 3034.18 -0.0339177 3.14082 0
M  V30 32763 H 3033.37 1.73862 4.73062 0
M  V30 32764 H 3032.98 2.16454 3.04998 0
M  V30 32765 H 3035.27 2.85015 6.14632 0
M  V30 32766 H 3036.21 4.28646 5.63621 0
M  V30 32767 H 3036.62 2.67759 4.96956 0
M  V30 32768 N 3036.02 -1.02674 1.19565 0
M  V30 32769 C 3036.96 -2.10998 0.935329 0
M  V30 32770 C 3037.93 -1.65585 -0.130656 0
M  V30 32771 O 3039.12 -1.90796 0.0119397 0
M  V30 32772 C 3036.26 -3.41711 0.482444 0
M  V30 32773 C 3035.37 -4.00659 1.61544 0
M  V30 32774 C 3034.51 -5.1939 1.11387 0
M  V30 32775 C 3033.55 -5.70399 2.22062 0
M  V30 32776 N 3032.68 -6.80402 1.73197 0
M  V30 32777 H 3037.52 -2.32603 1.86279 0
M  V30 32778 H 3035.06 -1.14079 0.928676 0
M  V30 32779 H 3037.02 -4.16714 0.201253 0
M  V30 32780 H 3035.65 -3.20211 -0.40803 0
M  V30 32781 H 3034.7 -3.22849 2.01179 0
M  V30 32782 H 3036.01 -4.34529 2.4492 0
M  V30 32783 H 3035.17 -6.0156 0.788041 0
M  V30 32784 H 3033.91 -4.87059 0.249875 0
M  V30 32785 H 3032.91 -4.8684 2.55474 0
M  V30 32786 H 3034.14 -6.04768 3.08921 0
M  V30 32787 H 3032.08 -6.4992 0.891087 0
M  V30 32788 H 3032 -7.13411 2.50161 0
M  V30 32789 H 3033.27 -7.66162 1.43584 0
M  V30 32790 N 3037.5 -0.999914 -1.21817 0
M  V30 32791 C 3038.74 -0.678385 -1.90374 0
M  V30 32792 C 3039.06 0.792792 -1.78157 0
M  V30 32793 O 3038.33 1.56883 -1.17322 0
M  V30 32794 H 3036.91 -0.247927 -0.704657 0
M  V30 32795 H 3039.58 -1.26793 -1.48019 0
M  V30 32796 H 3038.67 -0.947076 -2.97383 0
M  V30 32797 N 3038.97 1.37284 -0.773999 0
M  V30 32798 C 3039.88 2.34036 -0.162612 0
M  V30 32799 C 3040.9 1.6029 0.676994 0
M  V30 32800 O 3042.08 1.92367 0.596389 0
M  V30 32801 C 3039.14 3.39467 0.70451 0
M  V30 32802 C 3038.2 4.29031 -0.151813 0
M  V30 32803 C 3037.43 5.29427 0.674017 0
M  V30 32804 O 3037.66 5.37437 1.91097 0
M  V30 32805 O 3036.59 6.01844 0.082034 0
M  V30 32806 H 3040.42 2.88056 -0.962169 0
M  V30 32807 H 3038 1.39485 -0.535194 0
M  V30 32808 H 3039.88 4.03969 1.19947 0
M  V30 32809 H 3038.56 2.87771 1.48222 0
M  V30 32810 H 3037.47 3.67622 -0.693183 0
M  V30 32811 H 3038.8 4.84038 -0.89266 0
M  V30 32812 N 3040.45 0.524724 1.48608 0
M  V30 32813 C 3041.73 -0.0754306 1.95455 0
M  V30 32814 C 3042.11 -1.51812 1.46685 0
M  V30 32815 O 3041.46 -2.17801 0.691013 0
M  V30 32816 C 3041.67 0.0363886 3.48981 0
M  V30 32817 C 3043.01 -0.12555 4.24414 0
M  V30 32818 O 3044.04 -0.0376613 3.5618 0
M  V30 32819 O 3042.9 -0.309008 5.45626 0
M  V30 32820 H 3039.99 -0.0822111 0.822904 0
M  V30 32821 H 3042.54 0.588949 1.59152 0
M  V30 32822 H 3041.31 1.04156 3.77183 0
M  V30 32823 H 3040.93 -0.667077 3.91964 0
M  V30 32824 N 3041.93 -1.55447 0.259613 0
M  V30 32825 C 3042.86 -2.24883 -0.62848 0
M  V30 32826 C 3043.84 -1.23351 -1.17126 0
M  V30 32827 O 3045.03 -1.52035 -1.20826 0
M  V30 32828 C 3042.16 -2.95806 -1.81978 0
M  V30 32829 C 3041.11 -4.04135 -1.40922 0
M  V30 32830 C 3040.44 -4.6255 -2.68238 0
M  V30 32831 C 3041.74 -5.19171 -0.570864 0
M  V30 32832 H 3043.43 -2.99359 -0.0494495 0
M  V30 32833 H 3040.98 -1.43983 -0.0223435 0
M  V30 32834 H 3042.93 -3.43087 -2.44683 0
M  V30 32835 H 3041.65 -2.18839 -2.4244 0
M  V30 32836 H 3040.31 -3.57642 -0.805456 0
M  V30 32837 H 3039.96 -3.82269 -3.26924 0
M  V30 32838 H 3039.66 -5.35685 -2.41486 0
M  V30 32839 H 3041.18 -5.12571 -3.31818 0
M  V30 32840 H 3042.6 -5.62599 -1.10252 0
M  V30 32841 H 3040.99 -5.98773 -0.398874 0
M  V30 32842 H 3042.06 -4.83129 0.414003 0
M  V30 32843 N 3043.41 0.0133338 -1.57594 0
M  V30 32844 C 3044.66 0.699562 -1.89606 0
M  V30 32845 C 3044.98 1.75046 -0.85929 0
M  V30 32846 O 3044.25 1.95618 0.105078 0
M  V30 32847 H 3042.83 0.261373 -0.699781 0
M  V30 32848 H 3045.49 -0.0244386 -1.94885 0
M  V30 32849 H 3044.58 1.17923 -2.88965 0
M  V30 32850 N 3044.89 1.54985 0.285878 0
M  V30 32851 C 3046.11 1.79322 1.04204 0
M  V30 32852 C 3046.54 0.558374 1.79621 0
M  V30 32853 O 3045.89 -0.491631 1.74507 0
M  V30 32854 C 3045.94 3.00954 1.98643 0
M  V30 32855 O 3045.05 2.75137 3.07202 0
M  V30 32856 H 3044.39 0.593079 0.298586 0
M  V30 32857 H 3046.92 2.02103 0.3187 0
M  V30 32858 H 3046.93 3.29337 2.40834 0
M  V30 32859 H 3045.6 3.90484 1.4316 0
M  V30 32860 H 3044.18 2.57814 2.69418 0
M  V30 32861 N 3046.36 -0.549794 1.47699 0
M  V30 32862 C 3047.3 -1.67163 1.56809 0
M  V30 32863 C 3048.31 -1.56349 0.453736 0
M  V30 32864 O 3049.5 -1.63172 0.723691 0
M  V30 32865 C 3046.6 -3.05683 1.46325 0
M  V30 32866 C 3045.77 -3.42178 2.72458 0
M  V30 32867 C 3044.83 -4.59892 2.55706 0
M  V30 32868 O 3043.86 -4.64102 3.29542 0
M  V30 32869 N 3045.06 -5.56847 1.64019 0
M  V30 32870 H 3047.82 -1.59792 2.53548 0
M  V30 32871 H 3045.38 -0.73661 1.44172 0
M  V30 32872 H 3047.38 -3.82276 1.32842 0
M  V30 32873 H 3045.95 -3.0724 0.576394 0
M  V30 32874 H 3045.17 -2.54959 3.00649 0
M  V30 32875 H 3046.45 -3.63338 3.56178 0
M  V30 32876 H 3045.85 -5.56208 1.03196 0
M  V30 32877 H 3044.41 -6.32737 1.56484 0
M  V30 32878 N 3047.84 -1.35955 -0.797117 0
M  V30 32879 C 3049.09 -1.29757 -1.55465 0
M  V30 32880 C 3049.42 0.125356 -1.94096 0
M  V30 32881 O 3048.67 1.09285 -1.62343 0
M  V30 32882 C 3048.97 -2.15868 -2.84843 0
M  V30 32883 C 3048.64 -3.64528 -2.65387 0
M  V30 32884 C 3047.3 -4.05047 -2.59789 0
M  V30 32885 C 3049.65 -4.58815 -2.47262 0
M  V30 32886 C 3046.98 -5.38007 -2.34021 0
M  V30 32887 C 3049.33 -5.91983 -2.23021 0
M  V30 32888 C 3048 -6.31636 -2.15851 0
M  V30 32889 H 3047.27 -0.474813 -0.568888 0
M  V30 32890 H 3049.91 -1.67938 -0.92027 0
M  V30 32891 H 3048.22 -1.70598 -3.52709 0
M  V30 32892 H 3049.91 -2.08401 -3.42593 0
M  V30 32893 H 3046.5 -3.32379 -2.70596 0
M  V30 32894 H 3050.69 -4.28389 -2.50593 0
M  V30 32895 H 3045.94 -5.67719 -2.26946 0
M  V30 32896 H 3050.12 -6.64615 -2.07989 0
M  V30 32897 H 3047.75 -7.34593 -1.95647 0
M  V30 32898 N 3049.32 1.02038 -1.20108 0
M  V30 32899 C 3050.25 2.12383 -0.970338 0
M  V30 32900 C 3051.23 1.6981 0.0993481 0
M  V30 32901 O 3052.42 1.94115 -0.0573991 0
M  V30 32902 C 3049.55 3.43423 -0.517491 0
M  V30 32903 C 3048.5 3.99719 -1.52999 0
M  V30 32904 C 3047.83 5.26481 -0.93391 0
M  V30 32905 C 3049.13 4.33546 -2.91264 0
M  V30 32906 H 3050.82 2.31944 -1.8932 0
M  V30 32907 H 3048.37 1.11465 -0.911675 0
M  V30 32908 H 3050.32 4.19999 -0.343317 0
M  V30 32909 H 3049.04 3.23609 0.440993 0
M  V30 32910 H 3047.7 3.25247 -1.69145 0
M  V30 32911 H 3047.35 5.0299 0.0323879 0
M  V30 32912 H 3047.05 5.65111 -1.61009 0
M  V30 32913 H 3048.57 6.05716 -0.77072 0
M  V30 32914 H 3049.99 5.01026 -2.78651 0
M  V30 32915 H 3048.39 4.8328 -3.55754 0
M  V30 32916 H 3049.46 3.42477 -3.43275 0
M  V30 32917 N 3050.8 1.00636 1.21285 0
M  V30 32918 C 3052.08 0.605289 1.85999 0
M  V30 32919 C 3052.46 -0.917039 1.90141 0
M  V30 32920 O 3051.8 -1.80455 1.40172 0
M  V30 32921 C 3052.01 1.24124 3.26181 0
M  V30 32922 C 3053.36 1.35022 4.0256 0
M  V30 32923 O 3054.39 1.19667 3.35497 0
M  V30 32924 O 3053.24 1.59735 5.22635 0
M  V30 32925 H 3050.34 0.2075 0.800545 0
M  V30 32926 H 3052.88 1.10309 1.28957 0
M  V30 32927 H 3051.66 2.28192 3.17874 0
M  V30 32928 H 3051.28 0.729876 3.90843 0
M  V30 32929 N 3052.28 -1.36872 0.781268 0
M  V30 32930 C 3053.53 -1.98701 0.346555 0
M  V30 32931 C 3053.84 -1.62714 -1.08552 0
M  V30 32932 O 3055.04 -2.17716 -1.6221 0
M  V30 32933 C 3053.5 -3.55379 0.568673 0
M  V30 32934 C 3053.11 -4.00297 2.01163 0
M  V30 32935 C 3054.85 -4.24038 0.198058 0
M  V30 32936 C 3052.76 -5.49721 2.18084 0
M  V30 32937 H 3051.69 -0.743426 0.125834 0
M  V30 32938 H 3054.34 -1.56278 0.961748 0
M  V30 32939 H 3052.72 -3.9583 -0.116116 0
M  V30 32940 H 3053.9 -3.71066 2.73215 0
M  V30 32941 H 3052.21 -3.4445 2.33973 0
M  V30 32942 H 3054.81 -5.33842 0.302872 0
M  V30 32943 H 3055.15 -4.0747 -0.852855 0
M  V30 32944 H 3055.68 -3.88921 0.835764 0
M  V30 32945 H 3052.42 -5.71226 3.21529 0
M  V30 32946 H 3051.94 -5.80605 1.50527 0
M  V30 32947 H 3053.62 -6.15829 1.98404 0
M  V30 32948 N 3053.75 -0.532597 -1.48328 0
M  V30 32949 C 3054.72 0.218029 -2.28161 0
M  V30 32950 C 3055.72 0.865385 -1.35528 0
M  V30 32951 O 3056.91 0.725033 -1.58395 0
M  V30 32952 C 3054.04 1.31581 -3.14483 0
M  V30 32953 H 3055.23 -0.482917 -2.95986 0
M  V30 32954 H 3052.79 -0.28863 -1.53612 0
M  V30 32955 H 3053.52 2.04992 -2.51294 0
M  V30 32956 H 3053.31 0.856711 -3.82626 0
M  V30 32957 H 3054.8 1.8437 -3.74696 0
M  V30 32958 N 3055.23 1.55307 -0.267853 0
M  V30 32959 C 3056.48 1.99041 0.350308 0
M  V30 32960 C 3056.8 1.15761 1.56922 0
M  V30 32961 O 3056.07 0.24537 1.94357 0
M  V30 32962 H 3054.65 0.735169 0.132422 0
M  V30 32963 H 3057.31 1.91327 -0.371504 0
M  V30 32964 H 3056.41 3.05359 0.64515 0
M  V30 32965 N 3056.71 -0.00497598 1.57599 0
M  V30 32966 C 3057.64 -0.997013 2.11144 0
M  V30 32967 C 3058.62 -1.36168 1.01943 0
M  V30 32968 O 3059.81 -1.4463 1.29599 0
M  V30 32969 C 3056.94 -2.29045 2.61066 0
M  V30 32970 C 3055.89 -2.06754 3.74749 0
M  V30 32971 C 3055.22 -3.42068 4.10967 0
M  V30 32972 C 3056.52 -1.43415 5.02224 0
M  V30 32973 H 3058.21 -0.551199 2.94282 0
M  V30 32974 H 3055.76 -0.26369 1.41565 0
M  V30 32975 H 3057.71 -2.98796 2.97151 0
M  V30 32976 H 3056.43 -2.75731 1.75043 0
M  V30 32977 H 3055.09 -1.3943 3.3905 0
M  V30 32978 H 3054.74 -3.86447 3.21974 0
M  V30 32979 H 3054.44 -3.2797 4.87554 0
M  V30 32980 H 3055.96 -4.13142 4.49607 0
M  V30 32981 H 3057.38 -2.03116 5.36113 0
M  V30 32982 H 3055.78 -1.39821 5.83584 0
M  V30 32983 H 3056.85 -0.402765 4.83224 0
M  V30 32984 N 3058.19 -1.55135 -0.277654 0
M  V30 32985 C 3059.14 -1.87695 -1.3431 0
M  V30 32986 C 3060.11 -0.728 -1.49296 0
M  V30 32987 O 3061.29 -0.978835 -1.63779 0
M  V30 32988 C 3058.43 -2.15031 -2.69918 0
M  V30 32989 C 3057.54 -3.4257 -2.63191 0
M  V30 32990 C 3056.68 -3.59629 -3.90948 0
M  V30 32991 C 3055.72 -4.80877 -3.78713 0
M  V30 32992 N 3054.85 -4.94618 -4.98295 0
M  V30 32993 H 3059.69 -2.7857 -1.05842 0
M  V30 32994 H 3057.23 -1.37923 -0.511445 0
M  V30 32995 H 3059.19 -2.28878 -3.48813 0
M  V30 32996 H 3057.82 -1.27396 -2.96598 0
M  V30 32997 H 3056.87 -3.37219 -1.76032 0
M  V30 32998 H 3058.18 -4.31598 -2.50049 0
M  V30 32999 H 3057.34 -3.73268 -4.78284 0
M  V30 33000 H 3056.08 -2.68777 -4.06952 0
M  V30 33001 H 3055.08 -4.67246 -2.89761 0
M  V30 33002 H 3056.31 -5.73159 -3.64232 0
M  V30 33003 H 3054.25 -4.06696 -5.14718 0
M  V30 33004 H 3054.17 -5.77684 -4.87665 0
M  V30 33005 H 3055.44 -5.12638 -5.87216 0
M  V30 33006 N 3059.67 0.541953 -1.47989 0
M  V30 33007 C 3060.92 1.29482 -1.54652 0
M  V30 33008 C 3061.23 1.94358 -0.220075 0
M  V30 33009 O 3062.43 2.70999 -0.164839 0
M  V30 33010 C 3060.89 2.3488 -2.72689 0
M  V30 33011 C 3060.5 1.76127 -4.11926 0
M  V30 33012 C 3062.24 3.11252 -2.88657 0
M  V30 33013 C 3060.15 2.79395 -5.21241 0
M  V30 33014 H 3059.08 0.486918 -0.575697 0
M  V30 33015 H 3061.73 0.573823 -1.74297 0
M  V30 33016 H 3060.11 3.09962 -2.46454 0
M  V30 33017 H 3061.29 1.07314 -4.4813 0
M  V30 33018 H 3059.6 1.12288 -4.00974 0
M  V30 33019 H 3062.2 3.88397 -3.67494 0
M  V30 33020 H 3062.54 3.6638 -1.97665 0
M  V30 33021 H 3063.07 2.43283 -3.14735 0
M  V30 33022 H 3059.81 2.29102 -6.1416 0
M  V30 33023 H 3059.33 3.46571 -4.89539 0
M  V30 33024 H 3061.01 3.42605 -5.48845 0
M  V30 33025 N 3061.15 1.36376 0.789896 0
M  V30 33026 C 3062.56 1.27372 1.36503 0
M  V30 33027 C 3062.91 -0.0866766 1.96008 0
M  V30 33028 O 3062.03 -0.988125 1.92523 0
M  V30 33029 C 3062.63 2.30644 2.48171 0
M  V30 33030 C 3061.19 2.2533 3.01502 0
M  V30 33031 C 3060.33 2.15448 1.74577 0
M  V30 33032 H 3063.28 1.47262 0.59158 0
M  V30 33033 H 3063.31 1.94259 3.27175 0
M  V30 33034 H 3062.82 3.29644 2.04833 0
M  V30 33035 H 3060.92 1.29794 3.49262 0
M  V30 33036 H 3061.03 3.17998 3.58349 0
M  V30 33037 H 3059.4 1.61695 1.96791 0
M  V30 33038 H 3060.18 3.16335 1.33367 0
M  V30 33039 N 3062.62 -1.014 1.20647 0
M  V30 33040 C 3063.87 -1.75298 1.01973 0
M  V30 33041 C 3064.2 -1.88991 -0.44677 0
M  V30 33042 O 3063.48 -1.41764 -1.33166 0
M  V30 33043 C 3063.76 -3.17071 1.70699 0
M  V30 33044 C 3063.61 -3.11156 3.2481 0
M  V30 33045 C 3064.93 -4.15799 1.44219 0
M  V30 33046 H 3062.05 -0.636312 0.371856 0
M  V30 33047 H 3064.69 -1.18275 1.48698 0
M  V30 33048 H 3062.84 -3.65757 1.30974 0
M  V30 33049 H 3064.52 -2.70254 3.73846 0
M  V30 33050 H 3062.76 -2.48486 3.5558 0
M  V30 33051 H 3063.43 -4.11386 3.68056 0
M  V30 33052 H 3065.91 -3.75779 1.78687 0
M  V30 33053 H 3064.78 -5.13158 1.94834 0
M  V30 33054 H 3065.04 -4.40546 0.37033 0
M  V30 33055 N 3064.1 -1.01278 -1.2075 0
M  V30 33056 C 3065.38 -0.615145 -1.85675 0
M  V30 33057 C 3065.76 0.906942 -1.90625 0
M  V30 33058 O 3065.11 1.79709 -1.41127 0
M  V30 33059 C 3065.32 -1.25852 -3.25518 0
M  V30 33060 C 3066.66 -1.37155 -4.01838 0
M  V30 33061 O 3067.69 -1.21444 -3.34858 0
M  V30 33062 O 3066.55 -1.62504 -5.2178 0
M  V30 33063 H 3063.64 -0.211743 -0.799434 0
M  V30 33064 H 3066.19 -1.10992 -1.2837 0
M  V30 33065 H 3064.96 -2.29874 -3.1666 0
M  V30 33066 H 3064.58 -0.750593 -3.90451 0
M  V30 33067 N 3065.58 1.36456 -0.788516 0
M  V30 33068 C 3066.49 2.3385 -0.187426 0
M  V30 33069 C 3067.51 1.60999 0.659955 0
M  V30 33070 O 3068.68 1.92989 0.575952 0
M  V30 33071 C 3065.75 3.40195 0.668465 0
M  V30 33072 C 3064.81 4.28846 -0.197309 0
M  V30 33073 C 3064.04 5.30112 0.617827 0
M  V30 33074 O 3064.26 5.39433 1.85386 0
M  V30 33075 O 3063.2 6.01897 0.0181958 0
M  V30 33076 H 3067.02 2.87019 -0.992667 0
M  V30 33077 H 3064.61 1.38909 -0.549958 0
M  V30 33078 H 3066.49 4.05218 1.15655 0
M  V30 33079 H 3065.17 2.89327 1.45161 0
M  V30 33080 H 3064.07 3.66866 -0.732135 0
M  V30 33081 H 3065.41 4.83064 -0.943948 0
M  V30 33082 N 3067.06 0.540456 1.48043 0
M  V30 33083 C 3067.99 -0.264043 2.26667 0
M  V30 33084 C 3068.97 -0.935432 1.32998 0
M  V30 33085 O 3070.15 -0.957751 1.62356 0
M  V30 33086 C 3067.28 -1.37479 3.09543 0
M  V30 33087 C 3066.33 -0.813719 4.18666 0
M  V30 33088 S 3067.16 0.32663 5.34503 0
M  V30 33089 C 3068.31 -0.786342 6.20941 0
M  V30 33090 H 3068.55 0.403181 2.94553 0
M  V30 33091 H 3066.08 0.326441 1.5091 0
M  V30 33092 H 3068.04 -2.01101 3.57867 0
M  V30 33093 H 3066.7 -2.01378 2.41051 0
M  V30 33094 H 3065.89 -1.64732 4.76319 0
M  V30 33095 H 3065.49 -0.254 3.73136 0
M  V30 33096 H 3067.79 -1.68251 6.56276 0
M  V30 33097 H 3068.73 -0.247549 7.07667 0
M  V30 33098 H 3069.14 -1.07147 5.54238 0
M  V30 33099 N 3068.54 -1.55163 0.276085 0
M  V30 33100 C 3069.48 -2.22566 -0.610967 0
M  V30 33101 C 3070.45 -1.19947 -1.149 0
M  V30 33102 O 3071.64 -1.48492 -1.19812 0
M  V30 33103 C 3068.78 -2.9512 -1.7888 0
M  V30 33104 C 3067.89 -4.12461 -1.28453 0
M  V30 33105 C 3067.03 -4.72657 -2.42423 0
M  V30 33106 C 3066.06 -5.82189 -1.89004 0
M  V30 33107 N 3065.2 -6.36444 -2.96452 0
M  V30 33108 H 3070.04 -2.97985 -0.0295325 0
M  V30 33109 H 3067.58 -1.471 -0.00281021 0
M  V30 33110 H 3069.54 -3.35403 -2.48115 0
M  V30 33111 H 3068.17 -2.22123 -2.34225 0
M  V30 33112 H 3067.22 -3.77292 -0.485245 0
M  V30 33113 H 3068.53 -4.91448 -0.853272 0
M  V30 33114 H 3067.68 -5.15663 -3.1965 0
M  V30 33115 H 3066.42 -3.92948 -2.88865 0
M  V30 33116 H 3065.43 -5.38631 -1.10258 0
M  V30 33117 H 3066.65 -6.63766 -1.43498 0
M  V30 33118 H 3064.6 -5.59629 -3.42273 0
M  V30 33119 H 3064.52 -7.10706 -2.57746 0
M  V30 33120 H 3065.78 -6.84109 -3.73651 0
M  V30 33121 N 3070.01 -0.00338196 -1.576 0
M  V30 33122 C 3071.26 0.679413 -1.90338 0
M  V30 33123 C 3071.58 1.74125 -0.877808 0
M  V30 33124 O 3070.85 1.95718 0.0843241 0
M  V30 33125 H 3069.43 0.253936 -0.702514 0
M  V30 33126 H 3072.09 -0.0451074 -1.94848 0
M  V30 33127 H 3071.19 1.14852 -2.90199 0
M  V30 33128 N 3071.49 1.5528 0.269423 0
M  V30 33129 C 3072.44 1.892 1.353 0
M  V30 33130 C 3073.43 0.768697 1.50955 0
M  V30 33131 O 3074.64 0.953081 1.52697 0
M  V30 33132 H 3071.01 0.600562 0.45258 0
M  V30 33133 H 3072.99 2.79711 1.03944 0
M  V30 33134 C 3071.73 2.1836 2.70581 0
M  V30 33135 H 3071.06 3.04286 2.59327 0
M  V30 33136 H 3072.5 2.46013 3.45331 0
M  V30 33137 C 3070.96 0.992384 3.21952 0
M  V30 33138 O 3071.49 0.228839 4.01048 0
M  V30 33139 N 3069.69 0.789111 2.79681 0
M  V30 33140 H 3069.24 1.41171 2.15473 0
M  V30 33141 H 3069.2 -0.00629249 3.14399 0
M  V30 33142 N 3072.97 -0.534097 1.48274 0
M  V30 33143 C 3073.9 -1.65556 1.57055 0
M  V30 33144 C 3074.88 -1.57049 0.421241 0
M  V30 33145 O 3076.06 -1.7758 0.632274 0
M  V30 33146 C 3073.19 -3.03935 1.49471 0
M  V30 33147 C 3072.24 -3.30814 2.69192 0
M  V30 33148 S 3073.07 -3.17535 4.31198 0
M  V30 33149 C 3074.23 -4.58367 4.26205 0
M  V30 33150 H 3074.46 -1.57857 2.5193 0
M  V30 33151 H 3071.99 -0.716739 1.36756 0
M  V30 33152 H 3073.95 -3.83742 1.45782 0
M  V30 33153 H 3072.61 -3.09078 0.559411 0
M  V30 33154 H 3071.8 -4.31752 2.60012 0
M  V30 33155 H 3071.41 -2.58669 2.70123 0
M  V30 33156 H 3073.7 -5.49802 3.95884 0
M  V30 33157 H 3074.64 -4.72601 5.27308 0
M  V30 33158 H 3075.05 -4.37497 3.56731 0
M  V30 33159 N 3074.45 -1.36793 -0.782652 0
M  V30 33160 C 3075.38 -1.34359 -1.90971 0
M  V30 33161 C 3076.36 -0.213947 -1.68749 0
M  V30 33162 O 3077.54 -0.412634 -1.89766 0
M  V30 33163 C 3074.67 -1.1389 -3.28095 0
M  V30 33164 C 3073.63 -2.23751 -3.64856 0
M  V30 33165 C 3072.95 -1.88417 -5.00403 0
M  V30 33166 C 3074.25 -3.65876 -3.72736 0
M  V30 33167 H 3075.95 -2.28668 -1.93264 0
M  V30 33168 H 3073.49 -1.10074 -0.928428 0
M  V30 33169 H 3075.45 -1.1082 -4.06567 0
M  V30 33170 H 3074.17 -0.160333 -3.26206 0
M  V30 33171 H 3072.83 -2.25957 -2.88685 0
M  V30 33172 H 3072.48 -0.89117 -4.95043 0
M  V30 33173 H 3072.18 -2.61975 -5.25969 0
M  V30 33174 H 3073.7 -1.86915 -5.81288 0
M  V30 33175 H 3075.12 -3.65859 -4.41384 0
M  V30 33176 H 3073.51 -4.38397 -4.09791 0
M  V30 33177 H 3074.58 -4.00291 -2.73669 0
M  V30 33178 N 3075.93 1.00759 -1.21184 0
M  V30 33179 C 3077.17 1.74755 -1.02901 0
M  V30 33180 C 3077.51 1.89225 0.436741 0
M  V30 33181 O 3076.78 1.42468 1.32412 0
M  V30 33182 C 3077.06 3.16161 -1.72378 0
M  V30 33183 C 3076.92 3.0943 -3.26456 0
M  V30 33184 C 3078.24 4.15028 -1.46422 0
M  V30 33185 H 3075.35 0.634331 -0.375225 0
M  V30 33186 H 3078 1.17485 -1.49323 0
M  V30 33187 H 3076.15 3.65057 -1.32912 0
M  V30 33188 H 3077.82 2.68268 -3.75274 0
M  V30 33189 H 3076.06 2.46597 -3.56893 0
M  V30 33190 H 3076.73 4.09429 -3.70233 0
M  V30 33191 H 3079.21 3.74827 -1.80677 0
M  V30 33192 H 3078.08 5.12117 -1.97553 0
M  V30 33193 H 3078.35 4.40344 -0.393688 0
M  V30 33194 N 3077.4 1.01917 1.20211 0
M  V30 33195 C 3078.65 0.709988 1.89646 0
M  V30 33196 C 3078.98 -0.760599 1.79012 0
M  V30 33197 O 3078.23 -1.56851 1.17031 0
M  V30 33198 C 3078.53 1.09444 3.4023 0
M  V30 33199 C 3078.2 2.56167 3.71065 0
M  V30 33200 C 3076.86 2.96256 3.79191 0
M  V30 33201 C 3079.21 3.5114 3.85162 0
M  V30 33202 C 3076.54 4.30251 3.98874 0
M  V30 33203 C 3078.89 4.84827 4.06356 0
M  V30 33204 C 3077.56 5.24619 4.12712 0
M  V30 33205 H 3076.83 0.259803 0.693962 0
M  V30 33206 H 3079.47 1.28023 1.42417 0
M  V30 33207 H 3077.78 0.442664 3.89291 0
M  V30 33208 H 3079.48 0.83288 3.92255 0
M  V30 33209 H 3076.07 2.24106 3.65342 0
M  V30 33210 H 3080.25 3.21326 3.78237 0
M  V30 33211 H 3075.51 4.60631 4.02031 0
M  V30 33212 H 3079.68 5.58341 4.16207 0
M  V30 33213 H 3077.31 6.2846 4.27717 0
M  V30 33214 N 3078.88 -1.36036 0.795742 0
M  V30 33215 C 3080.13 -1.99366 0.371609 0
M  V30 33216 C 3080.46 -1.63001 -1.05567 0
M  V30 33217 O 3079.74 -0.887926 -1.7305 0
M  V30 33218 C 3080.02 -3.55987 0.542685 0
M  V30 33219 C 3079.87 -4.02186 2.01411 0
M  V30 33220 C 3081.19 -4.40083 -0.0383753 0
M  V30 33221 H 3078.31 -0.72425 0.136496 0
M  V30 33222 H 3080.95 -1.61353 1.00326 0
M  V30 33223 H 3079.1 -3.885 0.00497359 0
M  V30 33224 H 3080.77 -3.80132 2.61337 0
M  V30 33225 H 3079.02 -3.53493 2.51445 0
M  V30 33226 H 3079.69 -5.11119 2.08475 0
M  V30 33227 H 3082.16 -4.13968 0.420707 0
M  V30 33228 H 3081.04 -5.48787 0.11131 0
M  V30 33229 H 3081.3 -4.27386 -1.13108 0
M  V30 33230 N 3080.36 -0.5483 -1.47755 0
M  V30 33231 C 3081.77 -0.11258 -1.8636 0
M  V30 33232 C 3082.12 1.3152 -1.45591 0
M  V30 33233 O 3081.25 1.98797 -0.854909 0
M  V30 33234 C 3081.84 -0.197532 -3.38224 0
M  V30 33235 C 3080.4 0.183097 -3.75954 0
M  V30 33236 C 3079.55 -0.549107 -2.71809 0
M  V30 33237 H 3082.5 -0.758531 -1.39399 0
M  V30 33238 H 3082.52 0.586151 -3.75958 0
M  V30 33239 H 3082.03 -1.2368 -3.67865 0
M  V30 33240 H 3080.13 1.22381 -3.51928 0
M  V30 33241 H 3080.25 -0.169262 -4.78801 0
M  V30 33242 H 3078.61 0.00678385 -2.54699 0
M  V30 33243 H 3079.39 -1.58936 -3.04293 0
M  V30 33244 N 3081.84 1.55014 -0.28431 0
M  V30 33245 C 3083.07 2.04204 0.332912 0
M  V30 33246 C 3083.48 1.16232 1.48781 0
M  V30 33247 O 3082.84 0.184355 1.81566 0
M  V30 33248 C 3082.89 3.5242 0.805145 0
M  V30 33249 O 3082.61 4.37046 -0.303766 0
M  V30 33250 C 3084.11 4.17536 1.48924 0
M  V30 33251 H 3081.33 0.666825 0.074733 0
M  V30 33252 H 3083.88 2.0016 -0.419083 0
M  V30 33253 H 3082.03 3.56878 1.5072 0
M  V30 33254 H 3082.44 5.24465 0.0608781 0
M  V30 33255 H 3083.92 5.22819 1.77099 0
M  V30 33256 H 3084.4 3.66262 2.42382 0
M  V30 33257 H 3085 4.17107 0.830794 0
M  V30 33258 N 3083.32 0.0117398 1.57596 0
M  V30 33259 C 3084.73 -0.344479 1.55838 0
M  V30 33260 C 3084.93 -1.74034 1.0156 0
M  V30 33261 O 3083.99 -2.43867 0.654606 0
M  V30 33262 C 3085.3 -0.208971 2.99973 0
M  V30 33263 C 3086.85 -0.283037 3.11718 0
M  V30 33264 C 3087.32 -0.176519 4.5766 0
M  V30 33265 N 3088.82 -0.234052 4.62608 0
M  V30 33266 C 3089.55 -0.175151 5.73132 0
M  V30 33267 N 3089.05 -0.066167 6.92768 0
M  V30 33268 N 3090.84 -0.227874 5.61638 0
M  V30 33269 H 3082.99 0.924726 1.91213 0
M  V30 33270 H 3085.25 0.355546 0.878801 0
M  V30 33271 H 3084.96 0.751886 3.43569 0
M  V30 33272 H 3084.83 -0.986286 3.64077 0
M  V30 33273 H 3087.22 -1.23434 2.68045 0
M  V30 33274 H 3087.3 0.524354 2.50368 0
M  V30 33275 H 3086.95 0.771294 5.02009 0
M  V30 33276 H 3086.88 -1.00255 5.16969 0
M  V30 33277 H 3089.37 -0.319137 3.7655 0
M  V30 33278 H 3089.68 -0.0274407 7.72795 0
M  V30 33279 H 3088.02 -0.0316281 6.94993 0
M  V30 33280 H 3091.22 -0.311294 4.67064 0
M  V30 33281 H 3091.39 -0.178507 6.47754 0
M  V30 33282 N 3084.79 -1.55421 -0.261185 0
M  V30 33283 C 3085.74 -1.89915 -1.34294 0
M  V30 33284 C 3086.74 -0.776692 -1.50545 0
M  V30 33285 O 3087.94 -0.961165 -1.52189 0
M  V30 33286 H 3084.32 -0.602954 -0.449389 0
M  V30 33287 H 3086.29 -2.80258 -1.02459 0
M  V30 33288 C 3085.04 -2.19792 -2.69419 0
M  V30 33289 H 3084.36 -3.05657 -2.57709 0
M  V30 33290 H 3085.8 -2.47841 -3.44021 0
M  V30 33291 C 3084.26 -1.00944 -3.21422 0
M  V30 33292 O 3084.79 -0.250105 -4.00921 0
M  V30 33293 N 3083 -0.803932 -2.79258 0
M  V30 33294 H 3082.54 -1.42311 -2.14721 0
M  V30 33295 H 3082.5 -0.010381 -3.14398 0
M  V30 33296 N 3086.27 0.526227 -1.48555 0
M  V30 33297 C 3087.21 1.64721 -1.57931 0
M  V30 33298 C 3088.18 1.56823 -0.429564 0
M  V30 33299 O 3089.37 1.77242 -0.641682 0
M  V30 33300 C 3086.49 3.03138 -1.5108 0
M  V30 33301 C 3085.54 3.29382 -2.70943 0
M  V30 33302 S 3086.37 3.15244 -4.32876 0
M  V30 33303 C 3087.53 4.561 -4.2863 0
M  V30 33304 H 3087.76 1.56518 -2.52763 0
M  V30 33305 H 3085.3 0.709476 -1.37134 0
M  V30 33306 H 3087.25 3.82964 -1.47815 0
M  V30 33307 H 3085.91 3.08777 -0.575794 0
M  V30 33308 H 3085.11 4.30367 -2.62298 0
M  V30 33309 H 3084.71 2.57233 -2.71491 0
M  V30 33310 H 3087 5.47695 -3.98794 0
M  V30 33311 H 3087.94 4.69798 -5.29807 0
M  V30 33312 H 3088.35 4.35599 -3.59046 0
M  V30 33313 N 3087.75 1.37206 0.775387 0
M  V30 33314 C 3088.71 1.32504 1.87017 0
M  V30 33315 C 3089.71 0.229821 1.59149 0
M  V30 33316 O 3090.9 0.485452 1.67299 0
M  V30 33317 C 3088.04 1.05751 3.24083 0
M  V30 33318 H 3089.23 2.29881 1.926 0
M  V30 33319 H 3086.78 1.22182 0.974739 0
M  V30 33320 H 3087.52 0.0888941 3.24178 0
M  V30 33321 H 3087.3 1.85022 3.45701 0
M  V30 33322 H 3088.79 1.05101 4.04158 0
M  V30 33323 N 3089.23 -1.00115 1.21716 0
M  V30 33324 C 3090.47 -1.74206 1.03827 0
M  V30 33325 C 3090.81 -1.89454 -0.4267 0
M  V30 33326 O 3090.08 -1.43168 -1.31655 0
M  V30 33327 C 3090.37 -3.15242 1.74052 0
M  V30 33328 C 3090.22 -3.07694 3.28092 0
M  V30 33329 C 3091.54 -4.14246 1.48621 0
M  V30 33330 H 3088.66 -0.632332 0.378584 0
M  V30 33331 H 3091.3 -1.16691 1.49944 0
M  V30 33332 H 3089.45 -3.64347 1.34846 0
M  V30 33333 H 3091.12 -2.66274 3.76691 0
M  V30 33334 H 3089.36 -2.447 3.58196 0
M  V30 33335 H 3090.03 -4.07459 3.72399 0
M  V30 33336 H 3092.51 -3.73863 1.82662 0
M  V30 33337 H 3091.39 -5.11062 2.00266 0
M  V30 33338 H 3091.65 -4.40129 0.417035 0
M  V30 33339 N 3090.71 -1.02553 -1.19669 0
M  V30 33340 C 3091.62 -0.613368 -2.2644 0
M  V30 33341 C 3092.63 0.353309 -1.70375 0
M  V30 33342 O 3093.81 0.212029 -2.00281 0
M  V30 33343 C 3090.87 0.0328419 -3.46684 0
M  V30 33344 C 3089.94 -0.980911 -4.17943 0
M  V30 33345 C 3089.17 -0.365443 -5.32447 0
M  V30 33346 O 3089.39 0.832497 -5.64292 0
M  V30 33347 O 3088.33 -1.08662 -5.9201 0
M  V30 33348 H 3092.15 -1.5025 -2.63929 0
M  V30 33349 H 3089.74 -0.795524 -1.26459 0
M  V30 33350 H 3091.62 0.393321 -4.1956 0
M  V30 33351 H 3090.29 0.896034 -3.11051 0
M  V30 33352 H 3089.2 -1.39292 -3.47201 0
M  V30 33353 H 3090.53 -1.81436 -4.57539 0
M  V30 33354 N 3092.19 1.35612 -0.802945 0
M  V30 33355 C 3093.43 1.99166 -0.382176 0
M  V30 33356 C 3093.76 1.63558 1.04701 0
M  V30 33357 O 3093.04 0.89709 1.72576 0
M  V30 33358 C 3093.32 3.55694 -0.561556 0
M  V30 33359 C 3093.18 4.01112 -2.03541 0
M  V30 33360 C 3094.49 4.40097 0.0150361 0
M  V30 33361 H 3091.61 0.723516 -0.140335 0
M  V30 33362 H 3094.26 1.60818 -1.0118 0
M  V30 33363 H 3092.41 3.88492 -0.0255766 0
M  V30 33364 H 3094.08 3.78741 -2.63349 0
M  V30 33365 H 3092.32 3.52155 -2.53317 0
M  V30 33366 H 3092.99 5.10006 -2.11182 0
M  V30 33367 H 3095.47 4.13739 -0.442655 0
M  V30 33368 H 3094.34 5.4872 -0.140412 0
M  V30 33369 H 3094.6 4.2798 1.1084 0
M  V30 33370 N 3093.66 0.556128 1.47462 0
M  V30 33371 C 3094.63 -0.181703 2.28479 0
M  V30 33372 C 3095.63 -0.843714 1.36887 0
M  V30 33373 O 3096.82 -0.699742 1.59528 0
M  V30 33374 C 3093.95 -1.26561 3.16536 0
M  V30 33375 H 3095.14 0.529944 2.95181 0
M  V30 33376 H 3092.69 0.313032 1.53133 0
M  V30 33377 H 3093.43 -2.00969 2.54523 0
M  V30 33378 H 3093.21 -0.795731 3.83941 0
M  V30 33379 H 3094.7 -1.78386 3.77582 0
M  V30 33380 N 3095.14 -1.54861 0.292527 0
M  V30 33381 C 3096.09 -2.23202 -0.587326 0
M  V30 33382 C 3097.06 -1.21159 -1.13621 0
M  V30 33383 O 3098.24 -1.49754 -1.1823 0
M  V30 33384 C 3095.38 -2.97001 -1.75739 0
M  V30 33385 C 3094.5 -4.138 -1.24071 0
M  V30 33386 C 3093.63 -4.75201 -2.37397 0
M  V30 33387 C 3092.67 -5.84161 -1.82819 0
M  V30 33388 N 3091.81 -6.39552 -2.89685 0
M  V30 33389 H 3096.65 -2.98 0.00207445 0
M  V30 33390 H 3094.18 -1.47094 0.0127918 0
M  V30 33391 H 3096.14 -3.38015 -2.44544 0
M  V30 33392 H 3094.77 -2.24595 -2.31856 0
M  V30 33393 H 3093.82 -3.77786 -0.445201 0
M  V30 33394 H 3095.14 -4.92325 -0.801099 0
M  V30 33395 H 3094.29 -5.19025 -3.14163 0
M  V30 33396 H 3093.03 -3.9599 -2.84681 0
M  V30 33397 H 3092.03 -5.3977 -1.04539 0
M  V30 33398 H 3093.26 -6.65251 -1.36449 0
M  V30 33399 H 3091.21 -5.63228 -3.36318 0
M  V30 33400 H 3091.12 -7.134 -2.50194 0
M  V30 33401 H 3092.39 -6.88034 -3.66374 0
M  V30 33402 N 3096.62 -0.0200973 -1.57587 0
M  V30 33403 C 3097.57 0.964754 -2.09669 0
M  V30 33404 C 3098.54 1.32875 -0.996663 0
M  V30 33405 O 3099.72 1.42364 -1.27032 0
M  V30 33406 C 3096.86 2.24489 -2.62104 0
M  V30 33407 C 3095.97 1.93814 -3.86083 0
M  V30 33408 C 3095.11 3.16056 -4.26945 0
M  V30 33409 C 3094.15 2.8116 -5.43706 0
M  V30 33410 N 3093.29 3.95999 -5.79766 0
M  V30 33411 H 3098.13 0.513699 -2.93539 0
M  V30 33412 H 3095.66 0.241974 -1.45096 0
M  V30 33413 H 3097.62 2.99353 -2.90592 0
M  V30 33414 H 3096.25 2.67227 -1.81079 0
M  V30 33415 H 3095.3 1.09231 -3.6438 0
M  V30 33416 H 3096.61 1.64107 -4.71031 0
M  V30 33417 H 3095.77 3.99249 -4.56821 0
M  V30 33418 H 3094.51 3.48918 -3.40746 0
M  V30 33419 H 3093.51 1.96378 -5.13533 0
M  V30 33420 H 3094.74 2.49524 -6.31597 0
M  V30 33421 H 3092.68 4.2872 -4.96523 0
M  V30 33422 H 3092.6 3.69885 -6.59334 0
M  V30 33423 H 3093.87 4.79922 -6.14244 0
M  V30 33424 N 3098.1 1.55557 0.252939 0
M  V30 33425 C 3099.03 1.92822 1.31688 0
M  V30 33426 C 3100.01 0.792426 1.50515 0
M  V30 33427 O 3101.19 1.05222 1.63224 0
M  V30 33428 C 3098.32 2.21766 2.67277 0
M  V30 33429 C 3097.28 3.37541 2.63154 0
M  V30 33430 C 3096.6 3.52012 4.02482 0
M  V30 33431 C 3097.9 4.73396 2.20667 0
M  V30 33432 H 3099.6 2.81941 1.00746 0
M  V30 33433 H 3097.14 1.35651 0.483195 0
M  V30 33434 H 3099.1 2.46425 3.41837 0
M  V30 33435 H 3097.82 1.29468 2.99843 0
M  V30 33436 H 3096.48 3.12882 1.91052 0
M  V30 33437 H 3096.13 2.57144 4.32303 0
M  V30 33438 H 3095.83 4.29864 4.00613 0
M  V30 33439 H 3097.35 3.78985 4.78751 0
M  V30 33440 H 3098.77 4.97466 2.84957 0
M  V30 33441 H 3097.16 5.54307 2.29921 0
M  V30 33442 H 3098.23 4.70864 1.15823 0
M  V30 33443 N 3099.58 -0.518341 1.48832 0
M  V30 33444 C 3100.52 -1.62175 1.64219 0
M  V30 33445 C 3101.49 -1.58893 0.48397 0
M  V30 33446 O 3102.68 -1.77142 0.708888 0
M  V30 33447 C 3099.82 -3.00396 1.69872 0
M  V30 33448 C 3098.93 -3.13824 2.96881 0
M  V30 33449 C 3098.07 -4.42674 2.93621 0
M  V30 33450 C 3097.1 -4.49673 4.15284 0
M  V30 33451 N 3096.24 -5.69927 4.10034 0
M  V30 33452 H 3101.08 -1.48364 2.58442 0
M  V30 33453 H 3098.62 -0.72213 1.28155 0
M  V30 33454 H 3100.58 -3.80487 1.71131 0
M  V30 33455 H 3099.21 -3.12951 0.791304 0
M  V30 33456 H 3098.26 -2.26909 3.05314 0
M  V30 33457 H 3099.57 -3.14856 3.86868 0
M  V30 33458 H 3098.72 -5.31068 2.93346 0
M  V30 33459 H 3097.46 -4.4418 2.01383 0
M  V30 33460 H 3096.47 -3.59684 4.15822 0
M  V30 33461 H 3097.69 -4.49895 5.08695 0
M  V30 33462 H 3095.64 -5.72308 3.20623 0
M  V30 33463 H 3095.56 -5.72502 4.93738 0
M  V30 33464 H 3096.82 -6.60576 4.13836 0
M  V30 33465 N 3101.05 -1.37615 -0.7681 0
M  V30 33466 C 3102.02 -1.33493 -1.86312 0
M  V30 33467 C 3103.02 -0.238258 -1.59025 0
M  V30 33468 O 3104.21 -0.494318 -1.67039 0
M  V30 33469 C 3101.34 -1.07468 -3.23517 0
M  V30 33470 H 3102.53 -2.30899 -1.91378 0
M  V30 33471 H 3100.08 -1.22698 -0.968245 0
M  V30 33472 H 3100.82 -0.106085 -3.24126 0
M  V30 33473 H 3100.6 -1.86852 -3.44715 0
M  V30 33474 H 3102.09 -1.07243 -4.03595 0
M  V30 33475 N 3102.53 0.994677 -1.22245 0
M  V30 33476 C 3103.48 2.08444 -0.990942 0
M  V30 33477 C 3104.45 1.65874 0.0867078 0
M  V30 33478 O 3105.63 1.90698 -0.0625218 0
M  V30 33479 C 3102.77 3.40312 -0.572873 0
M  V30 33480 C 3101.89 3.96235 -1.7211 0
M  V30 33481 C 3101.02 5.16255 -1.25119 0
M  V30 33482 C 3100.06 5.64311 -2.37107 0
M  V30 33483 N 3099.2 6.75571 -1.91176 0
M  V30 33484 H 3104.04 2.27582 -1.92381 0
M  V30 33485 H 3101.57 1.11577 -0.958595 0
M  V30 33486 H 3103.53 4.16034 -0.311667 0
M  V30 33487 H 3102.16 3.2118 0.322988 0
M  V30 33488 H 3101.21 3.17401 -2.09668 0
M  V30 33489 H 3102.53 4.27883 -2.56354 0
M  V30 33490 H 3101.68 5.99259 -0.947257 0
M  V30 33491 H 3100.42 4.86226 -0.378922 0
M  V30 33492 H 3099.42 4.79896 -2.68291 0
M  V30 33493 H 3100.65 5.96365 -3.24847 0
M  V30 33494 H 3098.6 6.47329 -1.06309 0
M  V30 33495 H 3098.51 7.06528 -2.68988 0
M  V30 33496 H 3099.78 7.62086 -1.63847 0
M  V30 33497 N 3104.01 1.03186 1.19123 0
M  V30 33498 C 3105.26 0.728621 1.88509 0
M  V30 33499 C 3105.58 -0.745279 1.80196 0
M  V30 33500 O 3104.85 -1.53718 1.2144 0
M  V30 33501 H 3103.43 0.266523 0.697836 0
M  V30 33502 H 3106.09 1.30673 1.44605 0
M  V30 33503 H 3105.19 1.02559 2.94768 0
M  V30 33504 N 3105.49 -1.35184 0.810125 0
M  V30 33505 C 3106.72 -2.02609 0.404145 0
M  V30 33506 C 3107.13 -1.61187 -0.990719 0
M  V30 33507 O 3106.47 -0.806769 -1.65036 0
M  V30 33508 C 3106.53 -3.5713 0.41211 0
M  V30 33509 C 3106.2 -4.21829 1.7581 0
M  V30 33510 C 3107.19 -4.43258 2.71695 0
M  V30 33511 C 3104.88 -4.58872 2.04307 0
M  V30 33512 C 3106.87 -5.00838 3.94259 0
M  V30 33513 C 3104.56 -5.16165 3.27134 0
M  V30 33514 C 3105.56 -5.3709 4.21928 0
M  V30 33515 O 3105.24 -5.93174 5.42586 0
M  V30 33516 H 3104.98 -0.65632 0.161926 0
M  V30 33517 H 3107.53 -1.73711 1.09608 0
M  V30 33518 H 3105.76 -3.85234 -0.336441 0
M  V30 33519 H 3107.45 -4.0589 0.0279531 0
M  V30 33520 H 3108.22 -4.15016 2.50971 0
M  V30 33521 H 3104.09 -4.41897 1.31332 0
M  V30 33522 H 3107.64 -5.17086 4.6826 0
M  V30 33523 H 3103.54 -5.43835 3.47727 0
M  V30 33524 H 3104.3 -6.11622 5.43931 0
M  V30 33525 N 3106.97 -0.56394 -1.47165 0
M  V30 33526 C 3107.91 0.192968 -2.31798 0
M  V30 33527 C 3108.91 0.90278 -1.4334 0
M  V30 33528 O 3110.11 0.8233 -1.60068 0
M  V30 33529 H 3106.49 0.0811008 -0.747614 0
M  V30 33530 H 3108.46 -0.539928 -2.93475 0
M  V30 33531 C 3107.21 1.2055 -3.26134 0
M  V30 33532 H 3106.53 0.668733 -3.94167 0
M  V30 33533 H 3107.97 1.70587 -3.8817 0
M  V30 33534 C 3106.43 2.25685 -2.50136 0
M  V30 33535 O 3106.96 3.32726 -2.2507 0
M  V30 33536 N 3105.17 1.99791 -2.11026 0
M  V30 33537 H 3104.71 1.12756 -2.31612 0
M  V30 33538 H 3104.67 2.7035 -1.60494 0
M  V30 33539 N 3108.44 1.54704 -0.300735 0
M  V30 33540 C 3109.67 2.05009 0.314037 0
M  V30 33541 C 3110.09 1.1766 1.46757 0
M  V30 33542 O 3109.45 0.180629 1.80398 0
M  V30 33543 C 3109.5 3.52753 0.748181 0
M  V30 33544 O 3108.6 3.68427 1.85298 0
M  V30 33545 H 3107.95 0.661192 0.0610023 0
M  V30 33546 H 3110.48 1.99758 -0.442502 0
M  V30 33547 H 3110.49 3.946 1.03706 0
M  V30 33548 H 3109.16 4.1579 -0.095646 0
M  V30 33549 H 3107.74 3.38485 1.56467 0
M  V30 33550 N 3109.92 0.0284543 1.57574 0
M  V30 33551 C 3111.17 -0.649046 1.91394 0
M  V30 33552 C 3111.49 -1.72706 0.905399 0
M  V30 33553 O 3110.76 -1.95828 -0.0531763 0
M  V30 33554 H 3109.34 -0.242727 0.706465 0
M  V30 33555 H 3112 0.0761002 1.94751 0
M  V30 33556 H 3111.1 -1.10221 2.91989 0
M  V30 33557 N 3111.4 -1.55689 -0.244686 0
M  V30 33558 C 3112.63 -1.81419 -0.988476 0
M  V30 33559 C 3113.04 -0.602175 -1.79361 0
M  V30 33560 O 3112.38 0.438607 -1.78387 0
M  V30 33561 C 3112.44 -3.00533 -1.97282 0
M  V30 33562 C 3112.11 -4.36469 -1.3544 0
M  V30 33563 C 3113.1 -5.14377 -0.755784 0
M  V30 33564 C 3110.79 -4.83168 -1.3731 0
M  V30 33565 C 3112.78 -6.37134 -0.184106 0
M  V30 33566 C 3110.47 -6.05873 -0.797574 0
M  V30 33567 C 3111.47 -6.82695 -0.204104 0
M  V30 33568 O 3111.16 -8.03082 0.362533 0
M  V30 33569 H 3110.89 -0.607554 -0.296401 0
M  V30 33570 H 3113.44 -2.03589 -0.272149 0
M  V30 33571 H 3111.67 -2.74124 -2.72751 0
M  V30 33572 H 3113.36 -3.13336 -2.58022 0
M  V30 33573 H 3114.13 -4.79416 -0.733827 0
M  V30 33574 H 3110.01 -4.23363 -1.82442 0
M  V30 33575 H 3113.55 -6.97039 0.279747 0
M  V30 33576 H 3109.45 -6.40311 -0.816866 0
M  V30 33577 H 3110.22 -8.18104 0.254611 0
M  V30 33578 N 3112.88 0.510441 -1.49105 0
M  V30 33579 C 3114.11 1.28754 -1.61574 0
M  V30 33580 C 3114.52 1.87076 -0.282671 0
M  V30 33581 O 3113.86 1.68104 0.740719 0
M  V30 33582 C 3113.92 2.46317 -2.61855 0
M  V30 33583 C 3113.59 2.08935 -4.06442 0
M  V30 33584 C 3114.58 1.6346 -4.93535 0
M  V30 33585 C 3112.27 2.18859 -4.52113 0
M  V30 33586 C 3114.26 1.284 -6.24333 0
M  V30 33587 C 3111.95 1.83411 -5.82927 0
M  V30 33588 C 3112.95 1.38255 -6.68861 0
M  V30 33589 O 3112.63 1.03281 -7.97238 0
M  V30 33590 H 3112.37 0.397076 -0.547089 0
M  V30 33591 H 3114.92 0.62039 -1.95807 0
M  V30 33592 H 3113.15 3.16077 -2.22783 0
M  V30 33593 H 3114.84 3.08357 -2.63952 0
M  V30 33594 H 3115.61 1.55247 -4.59482 0
M  V30 33595 H 3111.48 2.5296 -3.85399 0
M  V30 33596 H 3115.03 0.930825 -6.91362 0
M  V30 33597 H 3110.93 1.91271 -6.16511 0
M  V30 33598 H 3111.69 1.16511 -8.10165 0
M  V30 33599 N 3114.36 1.38021 0.760791 0
M  V30 33600 C 3115.59 1.36852 1.54774 0
M  V30 33601 C 3115.99 -0.0453639 1.89146 0
M  V30 33602 O 3115.34 -1.02048 1.52748 0
M  V30 33603 C 3115.4 2.15274 2.87919 0
M  V30 33604 C 3115.06 3.64149 2.76124 0
M  V30 33605 C 3116.06 4.57798 2.46408 0
M  V30 33606 C 3113.75 4.07413 2.93803 0
M  V30 33607 C 3115.74 5.9269 2.34515 0
M  V30 33608 C 3113.43 5.42388 2.81529 0
M  V30 33609 C 3114.42 6.3484 2.51927 0
M  V30 33610 O 3114.11 7.67333 2.39699 0
M  V30 33611 H 3113.84 0.470112 0.485768 0
M  V30 33612 H 3116.4 1.82115 0.949907 0
M  V30 33613 H 3114.63 1.64718 3.49864 0
M  V30 33614 H 3116.32 2.06603 3.49385 0
M  V30 33615 H 3117.08 4.2568 2.32426 0
M  V30 33616 H 3112.96 3.35804 3.15843 0
M  V30 33617 H 3116.51 6.6482 2.1133 0
M  V30 33618 H 3112.4 5.74105 2.95083 0
M  V30 33619 H 3113.17 7.77775 2.54966 0
M  V30 33620 N 3115.83 -0.98818 1.22771 0
M  V30 33621 C 3117.06 -1.76914 1.08242 0
M  V30 33622 C 3117.48 -1.84574 -0.362487 0
M  V30 33623 O 3116.84 -1.30167 -1.26199 0
M  V30 33624 C 3116.89 -3.17816 1.70368 0
M  V30 33625 O 3115.99 -4.01057 0.960555 0
M  V30 33626 H 3115.34 -0.544597 0.379882 0
M  V30 33627 H 3117.87 -1.24101 1.62666 0
M  V30 33628 H 3117.88 -3.68427 1.75287 0
M  V30 33629 H 3116.55 -3.11555 2.75511 0
M  V30 33630 H 3115.13 -3.59581 0.98773 0
M  V30 33631 N 3117.31 -1.03816 -1.18575 0
M  V30 33632 C 3118.56 -0.738607 -1.8812 0
M  V30 33633 C 3118.88 0.735712 -1.80589 0
M  V30 33634 O 3118.15 1.53071 -1.22254 0
M  V30 33635 H 3116.73 -0.27022 -0.696412 0
M  V30 33636 H 3119.39 -1.31438 -1.4391 0
M  V30 33637 H 3118.49 -1.04121 -2.9422 0
M  V30 33638 N 3118.79 1.34753 -0.817283 0
M  V30 33639 C 3119.7 2.334 -0.236987 0
M  V30 33640 C 3120.72 1.62362 0.625657 0
M  V30 33641 O 3121.89 1.94167 0.534887 0
M  V30 33642 C 3118.96 3.41536 0.596155 0
M  V30 33643 C 3118.02 4.28331 -0.28823 0
M  V30 33644 C 3117.25 5.31303 0.505243 0
M  V30 33645 O 3117.47 5.43244 1.73902 0
M  V30 33646 O 3116.41 6.018 -0.10948 0
M  V30 33647 H 3120.23 2.84849 -1.05333 0
M  V30 33648 H 3117.82 1.37712 -0.579299 0
M  V30 33649 H 3119.7 4.0758 1.07034 0
M  V30 33650 H 3118.38 2.92341 1.38991 0
M  V30 33651 H 3117.28 3.6523 -0.809788 0
M  V30 33652 H 3118.62 4.80953 -1.0462 0
M  V30 33653 N 3120.27 0.571737 1.46864 0
M  V30 33654 C 3121.55 -0.0132101 1.95596 0
M  V30 33655 C 3121.93 -1.47068 1.5144 0
M  V30 33656 O 3121.27 -2.15492 0.759955 0
M  V30 33657 C 3121.48 0.147396 3.48689 0
M  V30 33658 C 3122.83 0.00953793 4.24599 0
M  V30 33659 O 3123.86 0.0756737 3.5612 0
M  V30 33660 O 3122.72 -0.135265 5.46333 0
M  V30 33661 H 3119.81 -0.0559894 0.825103 0
M  V30 33662 H 3122.36 0.639284 1.57198 0
M  V30 33663 H 3121.13 1.16103 3.73679 0
M  V30 33664 H 3120.75 -0.542039 3.93888 0
M  V30 33665 N 3121.75 -1.54542 0.308935 0
M  V30 33666 C 3123.16 -1.8581 -0.182111 0
M  V30 33667 C 3123.51 -1.23079 -1.52794 0
M  V30 33668 O 3122.63 -0.531395 -2.09774 0
M  V30 33669 C 3123.23 -3.37118 -0.337215 0
M  V30 33670 C 3121.79 -3.68388 -0.772481 0
M  V30 33671 C 3120.94 -2.77064 0.1145 0
M  V30 33672 H 3123.89 -1.49599 0.529697 0
M  V30 33673 H 3123.91 -3.62049 -1.17052 0
M  V30 33674 H 3123.42 -3.82746 0.64245 0
M  V30 33675 H 3121.52 -3.28283 -1.76241 0
M  V30 33676 H 3121.63 -4.75498 -0.586369 0
M  V30 33677 H 3120 -2.51418 -0.407537 0
M  V30 33678 H 3120.78 -3.25514 1.09066 0
M  V30 33679 N 3123.23 -0.0368104 -1.57557 0
M  V30 33680 C 3124.19 0.927552 -2.09593 0
M  V30 33681 C 3125.19 1.24917 -1.01254 0
M  V30 33682 O 3126.38 1.18823 -1.27384 0
M  V30 33683 C 3123.51 2.24179 -2.5682 0
M  V30 33684 H 3124.7 0.476732 -2.96087 0
M  V30 33685 H 3122.26 0.211357 -1.54864 0
M  V30 33686 H 3122.99 2.73873 -1.73678 0
M  V30 33687 H 3122.78 2.02144 -3.35976 0
M  V30 33688 H 3124.27 2.93286 -2.97276 0
M  V30 33689 N 3124.7 1.55817 0.236426 0
M  V30 33690 C 3125.65 1.92028 1.31256 0
M  V30 33691 C 3126.65 0.800544 1.4929 0
M  V30 33692 O 3127.85 0.985256 1.50641 0
M  V30 33693 H 3124.23 0.610027 0.43974 0
M  V30 33694 H 3126.2 2.81853 0.979877 0
M  V30 33695 C 3124.95 2.24051 2.65888 0
M  V30 33696 H 3124.27 3.09718 2.52814 0
M  V30 33697 H 3125.71 2.53283 3.40035 0
M  V30 33698 C 3124.17 1.06045 3.19775 0
M  V30 33699 O 3124.7 0.313856 4.00472 0
M  V30 33700 N 3122.9 0.848258 2.77944 0
M  V30 33701 H 3122.45 1.45709 2.1243 0
M  V30 33702 H 3122.41 0.0603977 3.14342 0
M  V30 33703 N 3126.18 -0.502526 1.49373 0
M  V30 33704 C 3127.11 -1.61291 1.68842 0
M  V30 33705 C 3128.09 -1.61397 0.537125 0
M  V30 33706 O 3129.28 -1.78161 0.772795 0
M  V30 33707 C 3126.41 -2.99781 1.75352 0
M  V30 33708 C 3125.36 -3.1454 2.90256 0
M  V30 33709 C 3124.69 -4.54366 2.81878 0
M  V30 33710 C 3125.99 -2.94709 4.31212 0
M  V30 33711 H 3127.68 -1.45252 2.61806 0
M  V30 33712 H 3125.23 -0.697348 1.25988 0
M  V30 33713 H 3127.18 -3.77359 1.87558 0
M  V30 33714 H 3125.9 -3.16905 0.789869 0
M  V30 33715 H 3124.56 -2.39387 2.7765 0
M  V30 33716 H 3124.21 -4.68364 1.83424 0
M  V30 33717 H 3123.91 -4.65182 3.58998 0
M  V30 33718 H 3125.44 -5.34007 2.9609 0
M  V30 33719 H 3126.85 -3.62058 4.44508 0
M  V30 33720 H 3125.25 -3.16998 5.09541 0
M  V30 33721 H 3126.32 -1.90849 4.45763 0
M  V30 33722 N 3127.66 -1.38422 -0.75346 0
M  V30 33723 C 3129.08 -1.19622 -1.05654 0
M  V30 33724 C 3129.28 -0.0449797 -2.0145 0
M  V30 33725 O 3128.33 0.60921 -2.45041 0
M  V30 33726 C 3129.64 -2.52268 -1.6365 0
M  V30 33727 C 3131.19 -2.58952 -1.75821 0
M  V30 33728 C 3131.67 -3.91774 -2.37229 0
M  V30 33729 N 3133.16 -3.93314 -2.44659 0
M  V30 33730 C 3133.89 -4.92847 -2.93069 0
M  V30 33731 N 3133.39 -6.02778 -3.41513 0
M  V30 33732 N 3135.18 -4.80238 -2.9211 0
M  V30 33733 H 3127.33 -2.12073 -0.117762 0
M  V30 33734 H 3129.6 -0.941015 -0.114873 0
M  V30 33735 H 3129.3 -3.36967 -1.00728 0
M  V30 33736 H 3129.18 -2.70672 -2.6271 0
M  V30 33737 H 3131.56 -1.74648 -2.3787 0
M  V30 33738 H 3131.64 -2.44415 -0.75465 0
M  V30 33739 H 3131.29 -4.765 -1.75813 0
M  V30 33740 H 3131.22 -4.03622 -3.38226 0
M  V30 33741 H 3133.71 -3.13913 -2.10397 0
M  V30 33742 H 3134.02 -6.74656 -3.76907 0
M  V30 33743 H 3132.37 -6.06397 -3.39569 0
M  V30 33744 H 3135.56 -3.93468 -2.53575 0
M  V30 33745 H 3135.73 -5.57958 -3.29525 0
M  V30 33746 N 3129.14 0.981655 -1.23294 0
M  V30 33747 C 3130.38 1.72533 -1.06585 0
M  V30 33748 C 3130.72 1.90109 0.396505 0
M  V30 33749 O 3129.99 1.45245 1.29361 0
M  V30 33750 C 3130.27 3.12434 -1.79045 0
M  V30 33751 C 3130.13 3.02435 -3.32946 0
M  V30 33752 C 3131.45 4.11829 -1.55193 0
M  V30 33753 H 3128.57 0.626229 -0.388596 0
M  V30 33754 H 3131.21 1.14291 -1.51781 0
M  V30 33755 H 3129.36 3.62156 -1.40625 0
M  V30 33756 H 3131.03 2.60247 -3.80879 0
M  V30 33757 H 3129.27 2.38971 -3.62043 0
M  V30 33758 H 3129.94 4.01483 -3.78834 0
M  V30 33759 H 3132.42 3.7091 -1.88587 0
M  V30 33760 H 3131.3 5.07812 -2.08371 0
M  V30 33761 H 3131.56 4.39409 -0.487002 0
M  V30 33762 N 3130.62 1.04444 1.18022 0
M  V30 33763 C 3131.86 0.751166 1.88376 0
M  V30 33764 C 3132.19 -0.719539 1.80378 0
M  V30 33765 O 3131.47 -1.52546 1.20665 0
M  V30 33766 C 3131.75 1.22271 3.38706 0
M  V30 33767 C 3131.61 2.7558 3.55494 0
M  V30 33768 C 3132.92 0.815764 4.32473 0
M  V30 33769 H 3130.04 0.274352 0.684032 0
M  V30 33770 H 3132.69 1.29711 1.38835 0
M  V30 33771 H 3130.84 0.758259 3.81028 0
M  V30 33772 H 3132.51 3.30092 3.22238 0
M  V30 33773 H 3130.75 3.15222 2.98023 0
M  V30 33774 H 3131.42 3.03634 4.60989 0
M  V30 33775 H 3133.9 1.21549 3.97951 0
M  V30 33776 H 3132.77 1.17341 5.36211 0
M  V30 33777 H 3133.03 -0.280823 4.41207 0
M  V30 33778 N 3132.09 -1.34317 0.824418 0
M  V30 33779 C 3133.32 -2.02462 0.42623 0
M  V30 33780 C 3133.74 -1.6208 -0.96827 0
M  V30 33781 O 3133.09 -0.826989 -1.62687 0
M  V30 33782 C 3133.14 -3.57733 0.520527 0
M  V30 33783 O 3132.87 -3.96652 1.86007 0
M  V30 33784 C 3134.37 -4.43144 0.117431 0
M  V30 33785 H 3131.59 -0.648878 0.170875 0
M  V30 33786 H 3134.13 -1.7156 1.11299 0
M  V30 33787 H 3132.29 -3.8722 -0.118165 0
M  V30 33788 H 3132.7 -4.9134 1.83537 0
M  V30 33789 H 3134.17 -5.51502 0.234492 0
M  V30 33790 H 3134.65 -4.2904 -0.939196 0
M  V30 33791 H 3135.26 -4.18988 0.729981 0
M  V30 33792 N 3133.57 -0.579517 -1.46558 0
M  V30 33793 C 3134.8 -0.067496 -2.0729 0
M  V30 33794 C 3135.22 1.22674 -1.42593 0
M  V30 33795 O 3134.58 1.7402 -0.5086 0
M  V30 33796 C 3134.63 0.0881594 -3.60492 0
M  V30 33797 O 3133.73 1.14544 -3.96174 0
M  V30 33798 H 3133.07 -0.0613652 -0.661158 0
M  V30 33799 H 3135.6 -0.801552 -1.88245 0
M  V30 33800 H 3135.61 0.295339 -4.0693 0
M  V30 33801 H 3134.29 -0.857015 -4.06974 0
M  V30 33802 H 3132.86 0.916969 -3.6145 0
M  V30 33803 N 3135.05 1.54376 -0.317127 0
M  V30 33804 C 3135.98 2.21591 0.585671 0
M  V30 33805 C 3137 1.2138 1.08493 0
M  V30 33806 O 3138.18 1.47885 0.999612 0
M  V30 33807 C 3135.28 2.8616 1.81565 0
M  V30 33808 C 3134.46 4.12449 1.45617 0
M  V30 33809 C 3133.52 4.60671 2.543 0
M  V30 33810 O 3132.54 5.25502 2.18714 0
M  V30 33811 N 3133.74 4.34352 3.85121 0
M  V30 33812 H 3136.51 2.99698 0.010172 0
M  V30 33813 H 3134.07 1.61293 -0.14004 0
M  V30 33814 H 3136.06 3.15346 2.53652 0
M  V30 33815 H 3134.63 2.11797 2.29915 0
M  V30 33816 H 3133.85 3.90098 0.567226 0
M  V30 33817 H 3135.14 4.9465 1.1916 0
M  V30 33818 H 3134.54 3.82447 4.16834 0
M  V30 33819 H 3133.1 4.68209 4.53457 0
M  V30 33820 N 3136.53 0.0451655 1.57535 0
M  V30 33821 C 3137.75 -0.643225 1.97173 0
M  V30 33822 C 3138.18 -1.63937 0.922295 0
M  V30 33823 O 3137.54 -1.80934 -0.115123 0
M  V30 33824 C 3137.58 -1.31184 3.35891 0
M  V30 33825 O 3136.69 -2.42743 3.33391 0
M  V30 33826 H 3136.03 -0.167708 0.642472 0
M  V30 33827 H 3138.56 0.111783 2.04294 0
M  V30 33828 H 3138.57 -1.66492 3.72484 0
M  V30 33829 H 3137.24 -0.581751 4.11811 0
M  V30 33830 H 3135.82 -2.09427 3.08537 0
M  V30 33831 N 3138.01 -1.5594 -0.228159 0
M  V30 33832 C 3139.42 -1.68895 -0.795704 0
M  V30 33833 C 3139.77 -0.645999 -1.8526 0
M  V30 33834 O 3138.89 0.204162 -2.15435 0
M  V30 33835 C 3139.49 -3.062 -1.45007 0
M  V30 33836 C 3138.05 -3.21032 -1.96509 0
M  V30 33837 C 3137.19 -2.6481 -0.822872 0
M  V30 33838 H 3140.15 -1.587 -0.00362061 0
M  V30 33839 H 3140.17 -3.01689 -2.3187 0
M  V30 33840 H 3139.68 -3.82085 -0.68061 0
M  V30 33841 H 3137.78 -2.50003 -2.76277 0
M  V30 33842 H 3137.89 -4.28169 -2.1496 0
M  V30 33843 H 3136.26 -2.23118 -1.22842 0
M  V30 33844 H 3137.04 -3.43236 -0.066189 0
M  V30 33845 N 3139.48 0.494597 -1.49638 0
M  V30 33846 C 3140.71 1.27033 -1.6293 0
M  V30 33847 C 3141.12 1.86766 -0.302497 0
M  V30 33848 O 3140.47 1.6888 0.722848 0
M  V30 33849 C 3140.53 2.43526 -2.64453 0
M  V30 33850 C 3140.19 2.04613 -4.08635 0
M  V30 33851 C 3141.19 1.58216 -4.95241 0
M  V30 33852 C 3138.87 2.14052 -4.54409 0
M  V30 33853 C 3140.87 1.21771 -6.2566 0
M  V30 33854 C 3138.55 1.77218 -5.84839 0
M  V30 33855 C 3139.55 1.31153 -6.70289 0
M  V30 33856 O 3139.24 0.948199 -7.98288 0
M  V30 33857 H 3138.97 0.391252 -0.55127 0
M  V30 33858 H 3141.53 0.599587 -1.96454 0
M  V30 33859 H 3139.76 3.13696 -2.26123 0
M  V30 33860 H 3141.45 3.0554 -2.67208 0
M  V30 33861 H 3142.21 1.50365 -4.61102 0
M  V30 33862 H 3138.09 2.48858 -3.8806 0
M  V30 33863 H 3141.63 0.857444 -6.9231 0
M  V30 33864 H 3137.53 1.84721 -6.18505 0
M  V30 33865 H 3138.3 1.07911 -8.11355 0
M  V30 33866 N 3140.96 1.3882 0.746109 0
M  V30 33867 C 3142.21 1.35638 1.50765 0
M  V30 33868 C 3142.54 -0.0512093 1.94132 0
M  V30 33869 O 3141.82 -1.01393 1.65981 0
M  V30 33870 C 3142.1 2.3188 2.75506 0
M  V30 33871 C 3141.95 3.81532 2.38229 0
M  V30 33872 C 3143.27 2.26131 3.77562 0
M  V30 33873 H 3140.39 0.494019 0.546913 0
M  V30 33874 H 3143.03 1.69726 0.853988 0
M  V30 33875 H 3141.18 2.02941 3.31281 0
M  V30 33876 H 3142.85 4.21176 1.88171 0
M  V30 33877 H 3141.1 3.98849 1.70594 0
M  V30 33878 H 3141.77 4.44344 3.27509 0
M  V30 33879 H 3144.24 2.51695 3.31344 0
M  V30 33880 H 3143.12 2.9557 4.62526 0
M  V30 33881 H 3143.38 1.26262 4.23687 0
M  V30 33882 N 3142.44 -0.975103 1.23812 0
M  V30 33883 C 3143.69 -1.71139 1.06744 0
M  V30 33884 C 3144 -1.91571 -0.394952 0
M  V30 33885 O 3145.21 -2.62699 -0.685677 0
M  V30 33886 C 3143.66 -3.08006 1.86173 0
M  V30 33887 C 3143.27 -2.95442 3.36776 0
M  V30 33888 C 3145.02 -3.85557 1.77611 0
M  V30 33889 C 3142.92 -4.27573 4.08577 0
M  V30 33890 H 3141.85 -0.641743 0.39583 0
M  V30 33891 H 3144.5 -1.08717 1.47827 0
M  V30 33892 H 3142.89 -3.71214 1.379 0
M  V30 33893 H 3144.06 -2.41291 3.92575 0
M  V30 33894 H 3142.38 -2.31362 3.46209 0
M  V30 33895 H 3144.97 -4.83387 2.28564 0
M  V30 33896 H 3145.32 -4.09672 0.739909 0
M  V30 33897 H 3145.85 -3.29062 2.23525 0
M  V30 33898 H 3142.59 -4.08653 5.12526 0
M  V30 33899 H 3142.11 -4.81568 3.57564 0
M  V30 33900 H 3143.79 -4.96232 4.15166 0
M  V30 33901 N 3143.92 -1.05068 -1.17467 0
M  V30 33902 C 3145.16 -0.761146 -1.87975 0
M  V30 33903 C 3145.5 0.709963 -1.80757 0
M  V30 33904 O 3144.77 1.51904 -1.21472 0
M  V30 33905 C 3145.06 -1.24066 -3.38053 0
M  V30 33906 C 3144.91 -2.77461 -3.54027 0
M  V30 33907 C 3146.23 -0.838688 -4.32035 0
M  V30 33908 H 3143.35 -0.277975 -0.682568 0
M  V30 33909 H 3145.99 -1.30445 -1.38145 0
M  V30 33910 H 3144.14 -0.778455 -3.80621 0
M  V30 33911 H 3145.81 -3.31796 -3.20483 0
M  V30 33912 H 3144.05 -3.16798 -2.96347 0
M  V30 33913 H 3144.72 -3.06074 -4.59372 0
M  V30 33914 H 3147.2 -1.23658 -3.97301 0
M  V30 33915 H 3146.08 -1.20183 -5.35581 0
M  V30 33916 H 3146.34 0.257421 -4.4135 0
M  V30 33917 N 3145.4 1.33878 -0.831529 0
M  V30 33918 C 3146.36 2.27665 -0.264813 0
M  V30 33919 C 3147.36 1.5065 0.562246 0
M  V30 33920 O 3148.55 1.70069 0.377101 0
M  V30 33921 C 3145.68 3.3507 0.627755 0
M  V30 33922 H 3146.87 2.79301 -1.0923 0
M  V30 33923 H 3144.43 1.44156 -0.604046 0
M  V30 33924 H 3145.16 2.88664 1.47797 0
M  V30 33925 H 3144.95 3.92083 0.0360862 0
M  V30 33926 H 3146.44 4.05007 1.01779 0
M  V30 33927 N 3146.87 0.587281 1.46249 0
M  V30 33928 C 3148.1 0.0803664 2.06744 0
M  V30 33929 C 3148.52 -1.22657 1.43529 0
M  V30 33930 O 3147.87 -1.7426 0.542199 0
M  V30 33931 C 3147.93 -0.0872834 3.61395 0
M  V30 33932 O 3147.65 1.16793 4.22245 0
M  V30 33933 C 3149.15 -0.628018 4.38829 0
M  V30 33934 H 3146.37 0.0595419 0.668353 0
M  V30 33935 H 3148.91 0.80925 1.87807 0
M  V30 33936 H 3147.07 -0.766407 3.79743 0
M  V30 33937 H 3147.48 0.984656 5.15175 0
M  V30 33938 H 3148.95 -0.694487 5.47614 0
M  V30 33939 H 3149.43 -1.64598 4.0719 0
M  V30 33940 H 3150.04 0.0163862 4.25297 0
M  V30 33941 N 3148.35 -1.54206 0.325309 0
M  V30 33942 C 3149.3 -2.25873 -0.55536 0
M  V30 33943 C 3150.29 -1.27346 -1.11711 0
M  V30 33944 O 3151.5 -1.45116 -1.06495 0
M  V30 33945 H 3147.88 -0.725534 -0.197747 0
M  V30 33946 H 3149.85 -2.98315 0.0713382 0
M  V30 33947 C 3148.6 -3.03098 -1.70373 0
M  V30 33948 H 3147.92 -3.78731 -1.28073 0
M  V30 33949 H 3149.36 -3.56487 -2.2955 0
M  V30 33950 C 3147.82 -2.11501 -2.62238 0
M  V30 33951 O 3148.35 -1.69902 -3.64 0
M  V30 33952 N 3146.55 -1.76954 -2.30512 0
M  V30 33953 H 3146.1 -2.1098 -1.47801 0
M  V30 33954 H 3146.06 -1.15947 -2.92239 0
M  V30 33955 N 3149.83 -0.0535194 -1.57509 0
M  V30 33956 C 3150.79 0.90527 -2.10565 0
M  V30 33957 C 3151.79 1.23836 -1.02574 0
M  V30 33958 O 3152.98 1.17465 -1.28637 0
M  V30 33959 C 3150.12 2.21442 -2.59183 0
M  V30 33960 H 3151.31 0.445302 -2.96576 0
M  V30 33961 H 3148.86 0.19492 -1.5508 0
M  V30 33962 H 3149.6 2.72016 -1.76573 0
M  V30 33963 H 3149.38 1.98569 -3.38101 0
M  V30 33964 H 3150.87 2.90116 -3.0037 0
M  V30 33965 N 3151.31 1.56059 0.219886 0
M  V30 33966 C 3152.56 1.78347 0.942087 0
M  V30 33967 C 3152.87 0.622377 1.85434 0
M  V30 33968 O 3154.08 0.728932 2.61532 0
M  V30 33969 C 3152.53 3.15846 1.72538 0
M  V30 33970 C 3152.14 4.39684 0.859186 0
M  V30 33971 C 3153.89 3.47459 2.4387 0
M  V30 33972 C 3151.79 5.68208 1.63993 0
M  V30 33973 H 3150.72 0.664932 0.355502 0
M  V30 33974 H 3153.37 1.82451 0.195931 0
M  V30 33975 H 3151.76 3.05922 2.51451 0
M  V30 33976 H 3152.93 4.60668 0.110481 0
M  V30 33977 H 3151.24 4.156 0.257912 0
M  V30 33978 H 3153.84 4.40709 3.02787 0
M  V30 33979 H 3154.18 2.70036 3.16838 0
M  V30 33980 H 3154.72 3.58719 1.71946 0
M  V30 33981 H 3151.46 6.48528 0.953492 0
M  V30 33982 H 3150.98 5.51283 2.3632 0
M  V30 33983 H 3152.66 6.08442 2.20017 0
M  V30 33984 N 3152.79 -0.486655 1.49898 0
M  V30 33985 C 3153.7 -1.61267 1.70382 0
M  V30 33986 C 3154.71 -1.63813 0.586619 0
M  V30 33987 O 3155.89 -1.8197 0.863076 0
M  V30 33988 C 3152.95 -2.97568 1.77916 0
M  V30 33989 C 3152.02 -3.05535 3.01574 0
M  V30 33990 C 3151.25 -4.35334 3.08739 0
M  V30 33991 O 3151.47 -5.24956 2.23109 0
M  V30 33992 O 3150.41 -4.48571 4.01333 0
M  V30 33993 H 3154.23 -1.46912 2.65802 0
M  V30 33994 H 3151.82 -0.664492 1.33809 0
M  V30 33995 H 3153.7 -3.7855 1.85142 0
M  V30 33996 H 3152.37 -3.12155 0.856777 0
M  V30 33997 H 3151.28 -2.23687 2.99858 0
M  V30 33998 H 3152.61 -2.95879 3.9334 0
M  V30 33999 N 3154.27 -1.39214 -0.738737 0
M  V30 34000 C 3155.49 -1.39683 -1.53308 0
M  V30 34001 C 3155.92 0.00765409 -1.88098 0
M  V30 34002 O 3155.27 0.993672 -1.51644 0
M  V30 34003 C 3155.32 -2.27284 -2.79954 0
M  V30 34004 O 3154.43 -1.70015 -3.75724 0
M  V30 34005 H 3153.77 -0.47583 -0.463122 0
M  V30 34006 H 3156.3 -1.83163 -0.911736 0
M  V30 34007 H 3156.31 -2.41665 -3.28728 0
M  V30 34008 H 3154.98 -3.29355 -2.53964 0
M  V30 34009 H 3153.56 -1.64857 -3.3448 0
M  V30 34010 N 3155.74 0.968523 -1.24328 0
M  V30 34011 C 3156.99 1.70801 -1.08035 0
M  V30 34012 C 3157.31 1.91228 0.381695 0
M  V30 34013 O 3156.58 1.48944 1.2725 0
M  V30 34014 H 3155.16 0.632905 -0.396788 0
M  V30 34015 H 3157.82 1.1652 -1.56234 0
M  V30 34016 H 3156.92 2.69284 -1.57773 0
M  V30 34017 N 3157.22 1.0569 1.16908 0
M  V30 34018 C 3158.47 0.771104 1.87568 0
M  V30 34019 C 3158.8 -0.700367 1.81131 0
M  V30 34020 O 3158.08 -1.51257 1.22276 0
M  V30 34021 C 3158.36 1.25857 3.3739 0
M  V30 34022 C 3158.21 2.79335 3.52551 0
M  V30 34023 C 3159.53 0.861588 4.31584 0
M  V30 34024 H 3156.65 0.281591 0.681084 0
M  V30 34025 H 3159.29 1.31176 1.37451 0
M  V30 34026 H 3157.44 0.798629 3.80203 0
M  V30 34027 H 3159.11 3.33491 3.18719 0
M  V30 34028 H 3157.36 3.18365 2.94663 0
M  V30 34029 H 3158.03 3.08506 4.57742 0
M  V30 34030 H 3160.5 1.25763 3.9664 0
M  V30 34031 H 3159.38 1.23021 5.34936 0
M  V30 34032 H 3159.64 -0.234011 4.4148 0
M  V30 34033 N 3158.7 -1.33435 0.838617 0
M  V30 34034 C 3159.93 -2.01999 0.44768 0
M  V30 34035 C 3160.34 -1.63098 -0.951024 0
M  V30 34036 O 3159.7 -0.844197 -1.61801 0
M  V30 34037 C 3159.75 -3.57161 0.558441 0
M  V30 34038 O 3159.47 -3.94657 1.90203 0
M  V30 34039 C 3160.97 -4.42995 0.164426 0
M  V30 34040 H 3158.19 -0.647029 0.177748 0
M  V30 34041 H 3160.74 -1.7037 1.13112 0
M  V30 34042 H 3158.89 -3.87323 -0.0770882 0
M  V30 34043 H 3159.31 -4.89365 1.88738 0
M  V30 34044 H 3160.78 -5.51222 0.292973 0
M  V30 34045 H 3161.26 -4.30013 -0.893638 0
M  V30 34046 H 3161.86 -4.18191 0.77438 0
M  V30 34047 N 3160.18 -0.595029 -1.45935 0
M  V30 34048 C 3161.11 0.118669 -2.33198 0
M  V30 34049 C 3162.09 0.871398 -1.46084 0
M  V30 34050 O 3163.27 0.84443 -1.7488 0
M  V30 34051 C 3160.4 1.12489 -3.28578 0
M  V30 34052 C 3159.36 0.4862 -4.25229 0
M  V30 34053 C 3158.68 1.59977 -5.10207 0
M  V30 34054 C 3159.98 -0.584564 -5.19018 0
M  V30 34055 H 3161.68 -0.609938 -2.93121 0
M  V30 34056 H 3159.22 -0.294766 -1.40951 0
M  V30 34057 H 3161.18 1.63264 -3.88488 0
M  V30 34058 H 3159.9 1.88393 -2.66788 0
M  V30 34059 H 3158.56 -0.000572401 -3.666 0
M  V30 34060 H 3158.21 2.34878 -4.44793 0
M  V30 34061 H 3157.91 1.178 -5.75671 0
M  V30 34062 H 3159.43 2.11004 -5.72983 0
M  V30 34063 H 3160.85 -0.161398 -5.73073 0
M  V30 34064 H 3159.24 -0.927361 -5.92891 0
M  V30 34065 H 3160.31 -1.46609 -4.62205 0
M  V30 34066 N 3161.66 1.54031 -0.333483 0
M  V30 34067 C 3163.07 1.86076 0.152527 0
M  V30 34068 C 3163.42 1.25494 1.50817 0
M  V30 34069 O 3162.54 0.564701 2.08902 0
M  V30 34070 C 3163.14 3.37611 0.28354 0
M  V30 34071 C 3161.7 3.6957 0.713776 0
M  V30 34072 C 3160.84 2.76846 -0.158564 0
M  V30 34073 H 3163.79 1.48738 -0.55343 0
M  V30 34074 H 3163.82 3.63865 1.11277 0
M  V30 34075 H 3163.33 3.81675 -0.70326 0
M  V30 34076 H 3161.43 3.31045 1.70996 0
M  V30 34077 H 3161.54 4.76371 0.510647 0
M  V30 34078 H 3159.91 2.52035 0.367487 0
M  V30 34079 H 3160.69 3.23738 -1.14231 0
M  V30 34080 N 3163.13 0.0618717 1.57479 0
M  V30 34081 C 3164.41 -0.649961 1.84485 0
M  V30 34082 C 3164.79 -1.88395 0.9524 0
M  V30 34083 O 3164.14 -2.28494 0.0161437 0
M  V30 34084 C 3164.35 -0.997074 3.34454 0
M  V30 34085 C 3165.7 -1.37481 4.01727 0
M  V30 34086 O 3166.72 -1.0891 3.39142 0
M  V30 34087 O 3165.58 -1.90845 5.12094 0
M  V30 34088 H 3162.67 -0.321844 0.761804 0
M  V30 34089 H 3165.22 0.0920489 1.6945 0
M  V30 34090 H 3163.99 -0.120232 3.91115 0
M  V30 34091 H 3163.61 -1.79618 3.54716 0
M  V30 34092 N 3164.61 -1.56173 -0.211607 0
M  V30 34093 C 3165.54 -1.96246 -1.26529 0
M  V30 34094 C 3166.52 -0.832054 -1.48361 0
M  V30 34095 O 3167.71 -1.09513 -1.60376 0
M  V30 34096 C 3164.84 -2.28775 -2.61303 0
M  V30 34097 C 3163.79 -3.44399 -2.54112 0
M  V30 34098 C 3163.12 -3.62559 -3.93007 0
M  V30 34099 C 3164.42 -4.7908 -2.08038 0
M  V30 34100 H 3166.11 -2.84513 -0.932357 0
M  V30 34101 H 3163.66 -1.36885 -0.44706 0
M  V30 34102 H 3165.61 -2.55402 -3.35184 0
M  V30 34103 H 3164.34 -1.37372 -2.96305 0
M  V30 34104 H 3162.99 -3.17837 -1.82689 0
M  V30 34105 H 3162.64 -2.68516 -4.25333 0
M  V30 34106 H 3162.34 -4.40334 -3.89075 0
M  V30 34107 H 3163.87 -3.91545 -4.68535 0
M  V30 34108 H 3165.28 -5.04846 -2.71667 0
M  V30 34109 H 3163.68 -5.60208 -2.15144 0
M  V30 34110 H 3164.75 -4.73769 -1.03298 0
M  V30 34111 N 3166.09 0.478699 -1.50154 0
M  V30 34112 C 3167.37 1.23996 -1.51276 0
M  V30 34113 C 3167.75 2.09577 -0.253085 0
M  V30 34114 O 3167.1 2.15357 0.763789 0
M  V30 34115 C 3167.31 2.07754 -2.80427 0
M  V30 34116 C 3168.65 2.66199 -3.30792 0
M  V30 34117 O 3169.68 2.18003 -2.81697 0
M  V30 34118 O 3168.54 3.53992 -4.16356 0
M  V30 34119 H 3165.63 0.562273 -0.606447 0
M  V30 34120 H 3168.18 0.491142 -1.62437 0
M  V30 34121 H 3166.95 1.44639 -3.63587 0
M  V30 34122 H 3166.57 2.89785 -2.72233 0
M  V30 34123 N 3167.57 1.39603 0.731343 0
M  V30 34124 C 3168.8 1.40308 1.52057 0
M  V30 34125 C 3169.21 -0.00144602 1.888 0
M  V30 34126 O 3168.57 -0.973688 1.54355 0
M  V30 34127 C 3168.62 2.27936 2.80584 0
M  V30 34128 O 3168.34 3.62919 2.454 0
M  V30 34129 C 3169.84 2.37063 3.74588 0
M  V30 34130 H 3167.06 0.479112 0.469779 0
M  V30 34131 H 3169.61 1.83464 0.903404 0
M  V30 34132 H 3167.76 1.88184 3.38623 0
M  V30 34133 H 3168.17 4.09296 3.27989 0
M  V30 34134 H 3169.65 3.02617 4.61657 0
M  V30 34135 H 3170.13 1.39089 4.16594 0
M  V30 34136 H 3170.73 2.773 3.22466 0
M  V30 34137 N 3169.05 -0.961916 1.2484 0
M  V30 34138 C 3170.29 -1.70815 1.09316 0
M  V30 34139 C 3170.63 -1.90716 -0.36621 0
M  V30 34140 O 3169.9 -1.47284 -1.27034 0
M  V30 34141 C 3170.18 -3.09546 1.83993 0
M  V30 34142 C 3170.04 -2.971 3.37715 0
M  V30 34143 C 3171.36 -4.09308 1.61725 0
M  V30 34144 H 3168.47 -0.619967 0.398509 0
M  V30 34145 H 3171.12 -1.11862 1.53581 0
M  V30 34146 H 3169.27 -3.59873 1.46369 0
M  V30 34147 H 3170.94 -2.54155 3.84972 0
M  V30 34148 H 3169.18 -2.33181 3.65799 0
M  V30 34149 H 3169.85 -3.95406 3.85173 0
M  V30 34150 H 3172.33 -3.67863 1.94464 0
M  V30 34151 H 3171.2 -5.04432 2.16423 0
M  V30 34152 H 3171.47 -4.38579 0.556847 0
M  V30 34153 N 3170.52 -1.06308 -1.16346 0
M  V30 34154 C 3171.77 -0.774942 -1.86219 0
M  V30 34155 C 3172.09 0.701213 -1.82599 0
M  V30 34156 O 3173.29 1.10373 -2.48053 0
M  V30 34157 C 3171.75 -1.3361 -3.3418 0
M  V30 34158 C 3171.36 -2.84251 -3.46274 0
M  V30 34159 C 3173.1 -1.12551 -4.09307 0
M  V30 34160 C 3171.01 -3.33611 -4.88322 0
M  V30 34161 H 3169.94 -0.286206 -0.697569 0
M  V30 34162 H 3172.59 -1.28181 -1.31308 0
M  V30 34163 H 3170.97 -0.757005 -3.88697 0
M  V30 34164 H 3172.14 -3.48113 -3.01917 0
M  V30 34165 H 3170.46 -3.03979 -2.8458 0
M  V30 34166 H 3173.06 -1.46918 -5.1412 0
M  V30 34167 H 3173.4 -0.063886 -4.16251 0
M  V30 34168 H 3173.93 -1.6704 -3.6103 0
M  V30 34169 H 3170.67 -4.39252 -4.86557 0
M  V30 34170 H 3170.19 -2.74497 -5.33303 0
M  V30 34171 H 3171.87 -3.28947 -5.57138 0
M  V30 34172 N 3172 1.32989 -0.845682 0
M  V30 34173 C 3173.28 1.92139 -0.36634 0
M  V30 34174 C 3173.66 1.77085 1.14909 0
M  V30 34175 O 3173.01 1.16341 1.96665 0
M  V30 34176 C 3173.22 3.39211 -0.820776 0
M  V30 34177 C 3174.57 4.16354 -0.83274 0
M  V30 34178 O 3175.59 3.47892 -0.764825 0
M  V30 34179 O 3174.45 5.38585 -0.926753 0
M  V30 34180 H 3171.54 0.820297 -0.105078 0
M  V30 34181 H 3174.09 1.41817 -0.931987 0
M  V30 34182 H 3172.86 3.44071 -1.86363 0
M  V30 34183 H 3172.48 3.96922 -0.232079 0
M  V30 34184 N 3173.48 0.60276 1.45618 0
M  V30 34185 C 3174.71 0.10229 2.06647 0
M  V30 34186 C 3175.12 -1.21128 1.44822 0
M  V30 34187 O 3174.48 -1.73675 0.560651 0
M  V30 34188 C 3174.53 -0.0489478 3.61467 0
M  V30 34189 O 3174.25 1.21265 4.20983 0
M  V30 34190 C 3175.75 -0.581439 4.3947 0
M  V30 34191 H 3172.97 0.0666273 0.667684 0
M  V30 34192 H 3175.52 0.829123 1.86938 0
M  V30 34193 H 3173.67 -0.726087 3.80535 0
M  V30 34194 H 3174.09 1.03924 5.14101 0
M  V30 34195 H 3175.56 -0.636366 5.4832 0
M  V30 34196 H 3176.04 -1.6027 4.08913 0
M  V30 34197 H 3176.64 0.0614937 4.25256 0
M  V30 34198 N 3174.96 -1.53852 0.341647 0
M  V30 34199 C 3176.21 -2.00486 -0.254944 0
M  V30 34200 C 3176.53 -1.23116 -1.5122 0
M  V30 34201 O 3175.8 -0.337821 -1.92965 0
M  V30 34202 H 3174.38 -0.74065 -0.0971954 0
M  V30 34203 H 3177.04 -1.89336 0.462366 0
M  V30 34204 H 3176.14 -3.0809 -0.498724 0
M  V30 34205 N 3176.44 -0.0702223 -1.57443 0
M  V30 34206 C 3177.37 0.895138 -2.15661 0
M  V30 34207 C 3178.35 1.31149 -1.08323 0
M  V30 34208 O 3179.53 1.38282 -1.36351 0
M  V30 34209 C 3176.66 2.16329 -2.71697 0
M  V30 34210 C 3175.62 1.88639 -3.84187 0
M  V30 34211 C 3174.94 3.22071 -4.26819 0
M  V30 34212 C 3176.24 1.1929 -5.08495 0
M  V30 34213 H 3177.94 0.410165 -2.96577 0
M  V30 34214 H 3175.48 0.195847 -1.42662 0
M  V30 34215 H 3177.44 2.84278 -3.11069 0
M  V30 34216 H 3176.16 2.67065 -1.87999 0
M  V30 34217 H 3174.82 1.23095 -3.45316 0
M  V30 34218 H 3174.47 3.70645 -3.40046 0
M  V30 34219 H 3174.17 3.04335 -5.02647 0
M  V30 34220 H 3175.69 3.9122 -4.68806 0
M  V30 34221 H 3177.1 1.77306 -5.45193 0
M  V30 34222 H 3175.5 1.11818 -5.8959 0
M  V30 34223 H 3176.57 0.171754 -4.84596 0
M  V30 34224 N 3177.91 1.56283 0.203321 0
M  V30 34225 C 3178.86 1.9389 1.25202 0
M  V30 34226 C 3179.83 0.798402 1.45653 0
M  V30 34227 O 3181.02 1.05586 1.58922 0
M  V30 34228 C 3178.16 2.27664 2.59351 0
M  V30 34229 C 3177.27 3.54737 2.46547 0
M  V30 34230 C 3176.4 3.77872 3.73345 0
M  V30 34231 C 3175.44 4.98398 3.55339 0
M  V30 34232 N 3174.58 5.17829 4.74128 0
M  V30 34233 H 3179.42 2.83303 0.924306 0
M  V30 34234 H 3176.96 1.40206 0.445058 0
M  V30 34235 H 3178.92 2.4526 3.37496 0
M  V30 34236 H 3177.55 1.41401 2.90182 0
M  V30 34237 H 3176.6 3.45234 1.59743 0
M  V30 34238 H 3177.91 4.43037 2.29172 0
M  V30 34239 H 3177.06 3.95663 4.5993 0
M  V30 34240 H 3175.8 2.87887 3.93665 0
M  V30 34241 H 3174.81 4.80539 2.67138 0
M  V30 34242 H 3176.03 5.89885 3.36471 0
M  V30 34243 H 3173.98 4.3079 4.94728 0
M  V30 34244 H 3173.9 6.00293 4.59547 0
M  V30 34245 H 3175.16 5.40071 5.62088 0
M  V30 34246 N 3179.39 -0.470729 1.50406 0
M  V30 34247 C 3180.63 -1.23263 1.63051 0
M  V30 34248 C 3181 -1.89249 0.323848 0
M  V30 34249 O 3182.2 -2.66819 0.325738 0
M  V30 34250 C 3180.47 -2.24818 2.77834 0
M  V30 34251 S 3182.03 -3.09942 3.10614 0
M  V30 34252 H 3178.85 -0.418488 0.574794 0
M  V30 34253 H 3181.45 -0.529586 1.8819 0
M  V30 34254 H 3180.15 -1.74923 3.71255 0
M  V30 34255 H 3179.68 -2.9975 2.54781 0
M  V30 34256 H 3181.7 -4.25982 2.54468 0
M  V30 34257 N 3180.87 -1.39989 -0.72393 0
M  V30 34258 C 3181.78 -1.4189 -1.86827 0
M  V30 34259 C 3182.8 -0.312431 -1.71172 0
M  V30 34260 O 3183.97 -0.555685 -1.93582 0
M  V30 34261 C 3181.04 -1.2716 -3.22539 0
M  V30 34262 C 3180.1 -2.47877 -3.50508 0
M  V30 34263 C 3179.33 -2.3384 -4.79744 0
M  V30 34264 O 3179.56 -1.34775 -5.54249 0
M  V30 34265 O 3178.49 -3.23048 -5.07862 0
M  V30 34266 H 3182.32 -2.38375 -1.88179 0
M  V30 34267 H 3179.9 -1.21223 -0.873237 0
M  V30 34268 H 3181.78 -1.21121 -4.03618 0
M  V30 34269 H 3180.46 -0.337771 -3.21933 0
M  V30 34270 H 3179.36 -2.59493 -2.69471 0
M  V30 34271 H 3180.7 -3.39991 -3.55903 0
M  V30 34272 N 3182.35 0.955282 -1.25348 0
M  V30 34273 C 3183.3 2.05186 -1.05676 0
M  V30 34274 C 3184.27 1.66065 0.0338925 0
M  V30 34275 O 3185.45 1.90402 -0.123159 0
M  V30 34276 C 3182.59 3.38317 -0.680851 0
M  V30 34277 C 3181.7 3.90559 -1.84629 0
M  V30 34278 C 3180.84 5.12013 -1.4148 0
M  V30 34279 C 3179.88 5.56482 -2.54941 0
M  V30 34280 N 3179.02 6.69147 -2.12572 0
M  V30 34281 H 3183.86 2.21346 -1.99524 0
M  V30 34282 H 3181.39 1.08471 -0.993607 0
M  V30 34283 H 3183.35 4.14832 -0.443867 0
M  V30 34284 H 3181.98 3.22045 0.220643 0
M  V30 34285 H 3181.03 3.1057 -2.19659 0
M  V30 34286 H 3182.34 4.19511 -2.69837 0
M  V30 34287 H 3181.5 5.95943 -1.13743 0
M  V30 34288 H 3180.24 4.84774 -0.533419 0
M  V30 34289 H 3179.24 4.71117 -2.83423 0
M  V30 34290 H 3180.47 5.85728 -3.43655 0
M  V30 34291 H 3178.41 6.43619 -1.26849 0
M  V30 34292 H 3178.33 6.97613 -2.91329 0
M  V30 34293 H 3179.6 7.56487 -1.88009 0
M  V30 34294 N 3183.83 1.06924 1.1578 0
M  V30 34295 C 3185.24 0.793921 1.38452 0
M  V30 34296 C 3185.44 -0.603841 1.92239 0
M  V30 34297 O 3184.5 -1.36331 2.12532 0
M  V30 34298 C 3185.81 1.86412 2.35947 0
M  V30 34299 C 3187.36 1.88837 2.49619 0
M  V30 34300 C 3187.84 2.94929 3.50401 0
M  V30 34301 N 3189.33 2.94004 3.57933 0
M  V30 34302 C 3190.06 3.72739 4.35722 0
M  V30 34303 N 3189.56 4.6131 5.1688 0
M  V30 34304 N 3191.35 3.61103 4.30768 0
M  V30 34305 H 3183.5 1.97079 0.792067 0
M  V30 34306 H 3185.76 0.854387 0.410764 0
M  V30 34307 H 3185.47 2.86823 2.03532 0
M  V30 34308 H 3185.34 1.72055 3.35674 0
M  V30 34309 H 3187.73 0.890808 2.81334 0
M  V30 34310 H 3187.81 2.07273 1.49906 0
M  V30 34311 H 3187.46 3.94882 3.19422 0
M  V30 34312 H 3187.39 2.73742 4.49859 0
M  V30 34313 H 3189.88 2.29796 3.00003 0
M  V30 34314 H 3190.19 5.18029 5.73468 0
M  V30 34315 H 3188.54 4.65362 5.16201 0
M  V30 34316 H 3191.73 2.91289 3.66427 0
M  V30 34317 H 3191.9 4.22708 4.91144 0
M  V30 34318 N 3185.31 -1.32538 0.852723 0
M  V30 34319 C 3186.55 -1.97611 0.455832 0
M  V30 34320 C 3186.88 -1.67332 -0.985586 0
M  V30 34321 O 3186.16 -0.960523 -1.69128 0
M  V30 34322 C 3186.44 -3.53365 0.693183 0
M  V30 34323 C 3186.3 -3.93282 2.18288 0
M  V30 34324 C 3187.61 -4.3985 0.148314 0
M  V30 34325 H 3184.73 -0.717809 0.167091 0
M  V30 34326 H 3187.38 -1.56952 1.07079 0
M  V30 34327 H 3185.53 -3.88129 0.169745 0
M  V30 34328 H 3187.2 -3.68706 2.77225 0
M  V30 34329 H 3185.44 -3.42511 2.66212 0
M  V30 34330 H 3186.11 -5.01817 2.29965 0
M  V30 34331 H 3188.59 -4.11811 0.595906 0
M  V30 34332 H 3187.46 -5.47821 0.34397 0
M  V30 34333 H 3187.72 -4.31799 -0.948796 0
M  V30 34334 N 3186.78 -0.610474 -1.45296 0
M  V30 34335 C 3188.2 -0.27436 -1.57224 0
M  V30 34336 C 3188.4 1.22304 -1.60138 0
M  V30 34337 O 3187.46 2.00619 -1.53323 0
M  V30 34338 C 3188.77 -0.948078 -2.85363 0
M  V30 34339 C 3190.32 -0.924269 -2.99042 0
M  V30 34340 C 3190.79 -1.57805 -4.29955 0
M  V30 34341 N 3192.28 -1.54368 -4.36721 0
M  V30 34342 C 3193.02 -2.01867 -5.36691 0
M  V30 34343 N 3192.51 -2.57464 -6.43183 0
M  V30 34344 N 3194.31 -1.92618 -5.28067 0
M  V30 34345 H 3186.46 -1.5827 -1.41648 0
M  V30 34346 H 3188.72 -0.66317 -0.677429 0
M  V30 34347 H 3188.43 -2.00254 -2.89121 0
M  V30 34348 H 3188.3 -0.473127 -3.74221 0
M  V30 34349 H 3190.69 0.121657 -2.94849 0
M  V30 34350 H 3190.77 -1.43751 -2.11587 0
M  V30 34351 H 3190.41 -2.62332 -4.34907 0
M  V30 34352 H 3190.34 -1.03981 -5.16232 0
M  V30 34353 H 3192.83 -1.13756 -3.60372 0
M  V30 34354 H 3193.15 -2.91494 -7.15717 0
M  V30 34355 H 3191.49 -2.61505 -6.43926 0
M  V30 34356 H 3194.68 -1.48919 -4.4378 0
M  V30 34357 H 3194.86 -2.29948 -6.05828 0
M  V30 34358 N 3188.26 1.53669 -0.349801 0
M  V30 34359 C 3189.51 2.01313 0.245154 0
M  V30 34360 C 3189.84 1.23708 1.497 0
M  V30 34361 O 3189.12 0.326405 1.91742 0
M  V30 34362 C 3189.4 3.55828 0.553009 0
M  V30 34363 C 3189.25 4.44139 -0.711369 0
M  V30 34364 C 3190.57 4.18557 1.36007 0
M  V30 34365 H 3187.69 0.731772 0.0876286 0
M  V30 34366 H 3190.33 1.84055 -0.471575 0
M  V30 34367 H 3188.48 3.70665 1.1636 0
M  V30 34368 H 3190.15 4.41128 -1.34921 0
M  V30 34369 H 3188.4 4.12748 -1.33499 0
M  V30 34370 H 3189.07 5.50153 -0.451137 0
M  V30 34371 H 3191.54 4.07457 0.843706 0
M  V30 34372 H 3190.42 5.2673 1.54423 0
M  V30 34373 H 3190.68 3.73586 2.36401 0
M  V30 34374 N 3189.74 0.0785709 1.57404 0
M  V30 34375 C 3190.96 -0.601257 1.98493 0
M  V30 34376 C 3191.39 -1.61944 0.956861 0
M  V30 34377 O 3190.75 -1.81138 -0.0767184 0
M  V30 34378 C 3190.8 -1.2403 3.38599 0
M  V30 34379 O 3189.9 -2.35616 3.38465 0
M  V30 34380 H 3189.24 -0.154042 0.645885 0
M  V30 34381 H 3191.77 0.155092 2.04011 0
M  V30 34382 H 3191.78 -1.58554 3.75932 0
M  V30 34383 H 3190.46 -0.494269 4.12953 0
M  V30 34384 H 3189.03 -2.02835 3.1291 0
M  V30 34385 N 3191.22 -1.56389 -0.19503 0
M  V30 34386 C 3192.44 -1.85092 -0.935713 0
M  V30 34387 C 3192.87 -0.662149 -1.7606 0
M  V30 34388 O 3192.23 0.389052 -1.77076 0
M  V30 34389 C 3192.27 -3.12023 -1.80759 0
M  V30 34390 O 3191.38 -2.9258 -2.90638 0
M  V30 34391 H 3190.72 -0.609478 -0.2635 0
M  V30 34392 H 3193.25 -2.03617 -0.200326 0
M  V30 34393 H 3193.26 -3.42818 -2.21223 0
M  V30 34394 H 3191.93 -3.98167 -1.2015 0
M  V30 34395 H 3190.51 -2.73083 -2.53929 0
M  V30 34396 N 3192.7 0.462746 -1.50653 0
M  V30 34397 C 3193.64 1.55968 -1.70125 0
M  V30 34398 C 3194.61 1.56987 -0.542609 0
M  V30 34399 O 3195.8 1.74389 -0.774145 0
M  V30 34400 C 3192.94 2.93884 -1.80904 0
M  V30 34401 C 3192.05 3.0259 -3.08324 0
M  V30 34402 C 3191.19 4.31471 -3.09848 0
M  V30 34403 C 3190.22 4.3395 -4.31687 0
M  V30 34404 N 3189.36 5.54316 -4.30904 0
M  V30 34405 H 3194.2 1.3867 -2.6377 0
M  V30 34406 H 3191.74 0.674068 -1.30747 0
M  V30 34407 H 3193.7 3.73873 -1.85135 0
M  V30 34408 H 3192.33 3.09798 -0.906908 0
M  V30 34409 H 3191.38 2.15421 -3.13525 0
M  V30 34410 H 3192.69 3.00281 -3.98287 0
M  V30 34411 H 3191.84 5.19814 -3.12854 0
M  V30 34412 H 3190.58 4.364 -2.17729 0
M  V30 34413 H 3189.59 3.44003 -4.28885 0
M  V30 34414 H 3190.81 4.30706 -5.25042 0
M  V30 34415 H 3188.76 5.60014 -3.41643 0
M  V30 34416 H 3188.68 5.53783 -5.14646 0
M  V30 34417 H 3189.94 6.44761 -4.38068 0
M  V30 34418 N 3194.17 1.40371 0.716495 0
M  V30 34419 C 3195.42 1.37905 1.47191 0
M  V30 34420 C 3195.74 -0.0159595 1.95593 0
M  V30 34421 O 3196.94 -0.163234 2.71009 0
M  V30 34422 C 3195.4 2.42368 2.66056 0
M  V30 34423 C 3195.01 3.87675 2.24526 0
M  V30 34424 C 3196.75 2.49007 3.43796 0
M  V30 34425 C 3194.66 4.83736 3.40225 0
M  V30 34426 H 3193.59 0.512763 0.552802 0
M  V30 34427 H 3196.24 1.66103 0.779865 0
M  V30 34428 H 3194.62 2.07268 3.37426 0
M  V30 34429 H 3195.79 4.31914 1.60582 0
M  V30 34430 H 3194.11 3.84503 1.59833 0
M  V30 34431 H 3196.71 3.17964 4.29887 0
M  V30 34432 H 3197.05 1.5203 3.87547 0
M  V30 34433 H 3197.58 2.83093 2.79469 0
M  V30 34434 H 3194.32 5.82043 3.01507 0
M  V30 34435 H 3193.84 4.44163 4.03088 0
M  V30 34436 H 3195.52 5.03514 4.06303 0
M  V30 34437 N 3195.65 -0.948621 1.25853 0
M  V30 34438 C 3197.06 -1.5087 1.09978 0
M  V30 34439 C 3197.41 -1.93532 -0.322462 0
M  V30 34440 O 3196.54 -1.79199 -1.21313 0
M  V30 34441 C 3197.13 -2.74179 1.99026 0
M  V30 34442 C 3195.69 -3.26479 1.87319 0
M  V30 34443 C 3194.84 -1.99289 1.92819 0
M  V30 34444 H 3197.79 -0.764883 1.39051 0
M  V30 34445 H 3197.81 -3.48218 1.53378 0
M  V30 34446 H 3197.32 -2.43098 3.02531 0
M  V30 34447 H 3195.43 -3.62368 0.8672 0
M  V30 34448 H 3195.54 -3.94089 2.72453 0
M  V30 34449 H 3193.9 -2.14858 1.36778 0
M  V30 34450 H 3194.69 -1.70549 2.97939 0
M  V30 34451 N 3197.13 -1.07536 -1.15212 0
M  V30 34452 C 3198.38 -0.799662 -1.86042 0
M  V30 34453 C 3198.71 0.674324 -1.82437 0
M  V30 34454 O 3197.96 1.51088 -1.24382 0
M  V30 34455 C 3198.26 -1.25553 -3.34621 0
M  V30 34456 C 3197.93 -2.73579 -3.5842 0
M  V30 34457 C 3196.59 -3.1401 -3.64625 0
M  V30 34458 C 3198.94 -3.69117 -3.6797 0
M  V30 34459 C 3196.27 -4.48792 -3.77892 0
M  V30 34460 C 3198.62 -5.03663 -3.82762 0
M  V30 34461 C 3197.28 -5.43712 -3.87212 0
M  V30 34462 H 3196.55 -0.292617 -0.680776 0
M  V30 34463 H 3199.2 -1.34672 -1.36146 0
M  V30 34464 H 3197.51 -0.627896 -3.86736 0
M  V30 34465 H 3199.2 -1.01908 -3.87835 0
M  V30 34466 H 3195.79 -2.41281 -3.54233 0
M  V30 34467 H 3199.98 -3.39006 -3.62476 0
M  V30 34468 H 3195.23 -4.79288 -3.79596 0
M  V30 34469 H 3199.41 -5.77563 -3.89093 0
M  V30 34470 H 3197.03 -6.48152 -3.97245 0
M  V30 34471 N 3198.61 1.32084 -0.85974 0
M  V30 34472 C 3199.86 1.96342 -0.461813 0
M  V30 34473 C 3200.17 1.68766 0.988807 0
M  V30 34474 O 3201.38 2.26803 1.4924 0
M  V30 34475 C 3199.83 3.51459 -0.774902 0
M  V30 34476 C 3199.44 3.87887 -2.24159 0
M  V30 34477 C 3201.18 4.22162 -0.444947 0
M  V30 34478 C 3199.09 5.36071 -2.49763 0
M  V30 34479 H 3198.02 0.734825 -0.168964 0
M  V30 34480 H 3200.67 1.50404 -1.05123 0
M  V30 34481 H 3199.05 3.95833 -0.114862 0
M  V30 34482 H 3200.23 3.54506 -2.94385 0
M  V30 34483 H 3198.54 3.30223 -2.53657 0
M  V30 34484 H 3201.14 5.31168 -0.613602 0
M  V30 34485 H 3201.48 4.1175 0.613838 0
M  V30 34486 H 3202.02 3.83387 -1.06109 0
M  V30 34487 H 3198.76 5.51509 -3.54286 0
M  V30 34488 H 3198.28 5.70841 -1.84122 0
M  V30 34489 H 3199.95 6.03214 -2.33971 0
M  V30 34490 N 3200.09 0.618171 1.4497 0
M  V30 34491 C 3201.33 0.117692 2.02458 0
M  V30 34492 C 3201.67 -1.25246 1.48415 0
M  V30 34493 O 3200.94 -1.8285 0.663029 0
M  V30 34494 C 3201.22 0.090253 3.59987 0
M  V30 34495 C 3201.08 1.49182 4.2434 0
M  V30 34496 C 3202.4 -0.592044 4.361 0
M  V30 34497 H 3199.51 0.044242 0.735671 0
M  V30 34498 H 3202.16 0.792168 1.72698 0
M  V30 34499 H 3200.31 -0.484107 3.85472 0
M  V30 34500 H 3201.98 2.11407 4.10006 0
M  V30 34501 H 3200.22 2.04948 3.82333 0
M  V30 34502 H 3200.89 1.42477 5.33296 0
M  V30 34503 H 3203.37 -0.10374 4.15971 0
M  V30 34504 H 3202.24 -0.580385 5.45823 0
M  V30 34505 H 3202.51 -1.66008 4.09749 0
M  V30 34506 N 3201.56 -1.53481 0.357946 0
M  V30 34507 C 3202.79 -2.0556 -0.235104 0
M  V30 34508 C 3203.21 -1.23198 -1.43066 0
M  V30 34509 O 3202.56 -0.270773 -1.8048 0
M  V30 34510 C 3202.62 -3.5586 -0.636084 0
M  V30 34511 O 3202.34 -4.35099 0.51194 0
M  V30 34512 C 3203.84 -4.24166 -1.28833 0
M  V30 34513 H 3201.06 -0.669632 -0.0428328 0
M  V30 34514 H 3203.6 -1.97932 0.514105 0
M  V30 34515 H 3201.76 -3.63663 -1.33522 0
M  V30 34516 H 3202.17 -5.24158 0.18942 0
M  V30 34517 H 3203.64 -5.30673 -1.51953 0
M  V30 34518 H 3204.12 -3.77409 -2.24631 0
M  V30 34519 H 3204.73 -4.20595 -0.630841 0
M  V30 34520 N 3203.04 -0.0869173 -1.5736 0
M  V30 34521 C 3204.29 0.577564 -1.93671 0
M  V30 34522 C 3204.61 1.69227 -0.968874 0
M  V30 34523 O 3203.88 1.9589 -0.0195405 0
M  V30 34524 H 3202.46 0.21634 -0.714987 0
M  V30 34525 H 3205.12 -0.148329 -1.94335 0
M  V30 34526 H 3204.22 0.993076 -2.95879 0
M  V30 34527 N 3204.52 1.5649 0.186734 0
M  V30 34528 C 3205.45 1.98234 1.23391 0
M  V30 34529 C 3206.43 0.855551 1.47018 0
M  V30 34530 O 3207.62 1.1205 1.58614 0
M  V30 34531 C 3204.75 2.32903 2.57631 0
M  V30 34532 C 3203.7 3.48398 2.48601 0
M  V30 34533 C 3203.03 3.68766 3.8719 0
M  V30 34534 C 3204.33 4.82329 2.0039 0
M  V30 34535 H 3206.02 2.8596 0.886976 0
M  V30 34536 H 3203.57 1.37578 0.425226 0
M  V30 34537 H 3205.52 2.60702 3.31078 0
M  V30 34538 H 3204.24 1.42069 2.94082 0
M  V30 34539 H 3202.9 3.20703 1.77609 0
M  V30 34540 H 3202.55 2.75248 4.21008 0
M  V30 34541 H 3202.25 4.46468 3.82021 0
M  V30 34542 H 3203.77 3.98949 4.62246 0
M  V30 34543 H 3205.19 5.09105 2.63601 0
M  V30 34544 H 3203.59 5.6356 2.06204 0
M  V30 34545 H 3204.66 4.75353 0.957478 0
M  V30 34546 N 3206 -0.45475 1.50897 0
M  V30 34547 C 3206.95 -1.55064 1.7095 0
M  V30 34548 C 3207.92 -1.56697 0.550926 0
M  V30 34549 O 3209.1 -1.73976 0.783382 0
M  V30 34550 C 3206.24 -2.9292 1.8246 0
M  V30 34551 C 3205.35 -3.0095 3.09924 0
M  V30 34552 C 3204.49 -4.29822 3.12132 0
M  V30 34553 C 3203.53 -4.31654 4.33983 0
M  V30 34554 N 3202.66 -5.52023 4.33838 0
M  V30 34555 H 3207.5 -1.37269 2.64502 0
M  V30 34556 H 3205.04 -0.667125 1.31102 0
M  V30 34557 H 3207 -3.72886 1.87115 0
M  V30 34558 H 3205.63 -3.09313 0.923325 0
M  V30 34559 H 3204.68 -2.13756 3.14663 0
M  V30 34560 H 3205.99 -2.98165 3.99874 0
M  V30 34561 H 3205.15 -5.18148 3.15607 0
M  V30 34562 H 3203.89 -4.35239 2.20041 0
M  V30 34563 H 3202.89 -3.41723 4.30703 0
M  V30 34564 H 3204.12 -4.27915 5.27319 0
M  V30 34565 H 3202.06 -5.58195 3.44608 0
M  V30 34566 H 3201.98 -5.51046 5.17576 0
M  V30 34567 H 3203.25 -6.42429 4.41481 0
M  V30 34568 N 3207.48 -1.40749 -0.709041 0
M  V30 34569 C 3208.89 -1.22923 -1.01795 0
M  V30 34570 C 3209.09 -0.109047 -2.01205 0
M  V30 34571 O 3208.15 0.530944 -2.46855 0
M  V30 34572 C 3209.46 -2.57347 -1.55542 0
M  V30 34573 C 3211.01 -2.64414 -1.67493 0
M  V30 34574 C 3211.48 -3.99123 -2.24645 0
M  V30 34575 N 3212.98 -4.00899 -2.32023 0
M  V30 34576 C 3213.71 -5.01921 -2.77241 0
M  V30 34577 N 3213.21 -6.13338 -3.22163 0
M  V30 34578 N 3215 -4.89288 -2.76684 0
M  V30 34579 H 3207.15 -2.12341 -0.0502331 0
M  V30 34580 H 3209.41 -0.944193 -0.0848767 0
M  V30 34581 H 3209.12 -3.40001 -0.899571 0
M  V30 34582 H 3208.99 -2.78893 -2.53966 0
M  V30 34583 H 3211.38 -1.82128 -2.32193 0
M  V30 34584 H 3211.46 -2.46692 -0.67651 0
M  V30 34585 H 3211.11 -4.81852 -1.60565 0
M  V30 34586 H 3211.04 -4.14178 -3.25214 0
M  V30 34587 H 3213.53 -3.20448 -2.00304 0
M  V30 34588 H 3213.84 -6.86306 -3.55253 0
M  V30 34589 H 3212.18 -6.16893 -3.20106 0
M  V30 34590 H 3215.38 -4.01336 -2.40929 0
M  V30 34591 H 3215.55 -5.68159 -3.11607 0
M  V30 34592 N 3208.96 0.941933 -1.26354 0
M  V30 34593 C 3209.89 2.04052 -1.02167 0
M  V30 34594 C 3210.87 1.62513 0.0533229 0
M  V30 34595 O 3212.05 1.8829 -0.0889394 0
M  V30 34596 C 3209.18 3.34254 -0.546966 0
M  V30 34597 C 3208.22 3.94765 -1.6144 0
M  V30 34598 S 3209.06 4.29138 -3.20313 0
M  V30 34599 C 3210.21 5.62441 -2.7461 0
M  V30 34600 H 3210.45 2.24255 -1.95184 0
M  V30 34601 H 3207.98 1.08322 -1.10026 0
M  V30 34602 H 3209.94 4.09546 -0.279745 0
M  V30 34603 H 3208.6 3.11996 0.362915 0
M  V30 34604 H 3207.79 4.88679 -1.23324 0
M  V30 34605 H 3207.39 3.26004 -1.83296 0
M  V30 34606 H 3209.68 6.41119 -2.19026 0
M  V30 34607 H 3210.63 6.05442 -3.67213 0
M  V30 34608 H 3211.04 5.22283 -2.14199 0
M  V30 34609 N 3210.43 1.08146 1.1464 0
M  V30 34610 C 3211.4 0.712837 2.17833 0
M  V30 34611 C 3212.4 -0.251013 1.58829 0
M  V30 34612 O 3213.59 -0.0309075 1.74173 0
M  V30 34613 C 3210.72 0.0520076 3.4086 0
M  V30 34614 H 3211.91 1.62657 2.51958 0
M  V30 34615 H 3209.46 0.878994 1.29242 0
M  V30 34616 H 3210.2 -0.873581 3.12312 0
M  V30 34617 H 3209.98 0.745353 3.84951 0
M  V30 34618 H 3211.47 -0.190958 4.17163 0
M  V30 34619 N 3211.91 -1.31626 0.866732 0
M  V30 34620 C 3213.16 -1.97116 0.476766 0
M  V30 34621 C 3213.49 -1.68367 -0.967783 0
M  V30 34622 O 3212.77 -0.978407 -1.681 0
M  V30 34623 C 3213.05 -3.5261 0.730623 0
M  V30 34624 C 3212.9 -3.90944 2.22447 0
M  V30 34625 C 3214.22 -4.39668 0.194957 0
M  V30 34626 H 3211.34 -0.715996 0.174695 0
M  V30 34627 H 3213.98 -1.55808 1.08738 0
M  V30 34628 H 3212.13 -3.87927 0.210902 0
M  V30 34629 H 3213.8 -3.65745 2.8112 0
M  V30 34630 H 3212.05 -3.39668 2.6983 0
M  V30 34631 H 3212.72 -4.99349 2.35275 0
M  V30 34632 H 3215.19 -4.11156 0.639551 0
M  V30 34633 H 3214.07 -5.47426 0.402054 0
M  V30 34634 H 3214.33 -4.32781 -0.902944 0
M  V30 34635 N 3213.39 -0.62585 -1.4464 0
M  V30 34636 C 3214.62 -0.135153 -2.06458 0
M  V30 34637 C 3215.03 1.18809 -1.46731 0
M  V30 34638 O 3214.39 1.72761 -0.58821 0
M  V30 34639 C 3214.44 -0.00856468 -3.61499 0
M  V30 34640 O 3214.16 -1.27947 -4.19 0
M  V30 34641 C 3215.66 0.51145 -4.4034 0
M  V30 34642 H 3212.88 -0.0772411 -0.666539 0
M  V30 34643 H 3215.43 -0.858759 -1.85595 0
M  V30 34644 H 3213.58 0.665455 -3.81642 0
M  V30 34645 H 3214 -1.1209 -5.12383 0
M  V30 34646 H 3215.47 0.549053 -5.49263 0
M  V30 34647 H 3215.95 1.53745 -4.11411 0
M  V30 34648 H 3216.55 -0.12914 -4.25104 0
M  V30 34649 N 3214.87 1.53289 -0.36608 0
M  V30 34650 C 3216.11 2.01561 0.223788 0
M  V30 34651 C 3216.45 1.25288 1.48379 0
M  V30 34652 O 3215.72 0.346723 1.91385 0
M  V30 34653 C 3216 3.56395 0.515237 0
M  V30 34654 C 3215.86 4.4336 -0.758435 0
M  V30 34655 C 3217.18 4.19976 1.3156 0
M  V30 34656 H 3214.3 0.73266 0.0798623 0
M  V30 34657 H 3216.94 1.83544 -0.49107 0
M  V30 34658 H 3215.09 3.71878 1.12422 0
M  V30 34659 H 3216.76 4.39672 -1.39592 0
M  V30 34660 H 3215 4.11308 -1.37869 0
M  V30 34661 H 3215.67 5.49644 -0.509463 0
M  V30 34662 H 3218.15 4.08328 0.800442 0
M  V30 34663 H 3217.03 5.28339 1.48827 0
M  V30 34664 H 3217.29 3.76073 2.32426 0
M  V30 34665 N 3216.35 0.0952613 1.57312 0
M  V30 34666 C 3217.59 -0.567285 1.93975 0
M  V30 34667 C 3217.91 -1.68711 0.977835 0
M  V30 34668 O 3217.18 -1.95877 0.0299288 0
M  V30 34669 H 3215.76 -0.212545 0.716124 0
M  V30 34670 H 3218.43 0.158632 1.94253 0
M  V30 34671 H 3217.52 -0.977371 2.96402 0
M  V30 34672 N 3217.82 -1.56587 -0.178432 0
M  V30 34673 C 3218.73 -1.99082 -1.24111 0
M  V30 34674 C 3219.75 -0.901057 -1.48852 0
M  V30 34675 O 3220.93 -1.20813 -1.6114 0
M  V30 34676 C 3217.99 -2.33605 -2.56183 0
M  V30 34677 C 3217.05 -3.56373 -2.39367 0
M  V30 34678 C 3216.28 -3.89241 -3.6514 0
M  V30 34679 O 3216.51 -3.2317 -4.70018 0
M  V30 34680 O 3215.44 -4.82615 -3.59675 0
M  V30 34681 H 3219.27 -2.89732 -0.910431 0
M  V30 34682 H 3216.85 -1.44361 -0.384745 0
M  V30 34683 H 3218.73 -2.56811 -3.34105 0
M  V30 34684 H 3217.41 -1.46118 -2.88844 0
M  V30 34685 H 3216.32 -3.38394 -1.595 0
M  V30 34686 H 3217.65 -4.44379 -2.11632 0
M  V30 34687 N 3219.3 0.446741 -1.51136 0
M  V30 34688 C 3220.23 1.55964 -1.67952 0
M  V30 34689 C 3221.25 1.52852 -0.560364 0
M  V30 34690 O 3222.44 1.57799 -0.834377 0
M  V30 34691 C 3219.54 2.94877 -1.67035 0
M  V30 34692 C 3218.71 3.22596 -2.95382 0
M  V30 34693 C 3217.77 4.41185 -2.8678 0
M  V30 34694 O 3216.79 4.40298 -3.6073 0
M  V30 34695 N 3218 5.44225 -2.01989 0
M  V30 34696 H 3220.76 1.41946 -2.63953 0
M  V30 34697 H 3218.32 0.635543 -1.48904 0
M  V30 34698 H 3220.31 3.72217 -1.58861 0
M  V30 34699 H 3218.88 3.0254 -0.786676 0
M  V30 34700 H 3218.1 2.33642 -3.17498 0
M  V30 34701 H 3219.39 3.37938 -3.80362 0
M  V30 34702 H 3218.79 5.47778 -1.41266 0
M  V30 34703 H 3217.35 6.20454 -1.997 0
M  V30 34704 N 3220.78 1.41123 0.701567 0
M  V30 34705 C 3221.74 1.42231 1.79731 0
M  V30 34706 C 3222.74 0.313859 1.57707 0
M  V30 34707 O 3223.93 0.573452 1.64491 0
M  V30 34708 C 3221.06 1.22781 3.18021 0
M  V30 34709 H 3222.26 2.39767 1.80143 0
M  V30 34710 H 3219.81 1.27177 0.908602 0
M  V30 34711 H 3220.55 0.260609 3.23251 0
M  V30 34712 H 3220.33 2.03086 3.35408 0
M  V30 34713 H 3221.82 1.26377 3.98018 0
M  V30 34714 N 3222.26 -0.935219 1.26852 0
M  V30 34715 C 3223.19 -2.03878 1.04721 0
M  V30 34716 C 3224.2 -1.62799 0.00570368 0
M  V30 34717 O 3225.39 -1.76791 0.246439 0
M  V30 34718 C 3222.49 -3.34157 0.565019 0
M  V30 34719 C 3221.66 -4.0397 1.67711 0
M  V30 34720 C 3220.72 -5.12522 1.19195 0
M  V30 34721 O 3219.75 -5.36899 1.89018 0
M  V30 34722 N 3220.95 -5.80484 0.0435574 0
M  V30 34723 H 3223.72 -2.23428 1.9975 0
M  V30 34724 H 3221.28 -1.1051 1.18318 0
M  V30 34725 H 3223.27 -4.04077 0.224507 0
M  V30 34726 H 3221.84 -3.11235 -0.291844 0
M  V30 34727 H 3221.06 -3.27885 2.18827 0
M  V30 34728 H 3222.35 -4.47364 2.42369 0
M  V30 34729 H 3221.75 -5.63122 -0.539403 0
M  V30 34730 H 3220.3 -6.51366 -0.237831 0
M  V30 34731 N 3223.74 -1.08752 -1.14065 0
M  V30 34732 C 3225.15 -0.815847 -1.37172 0
M  V30 34733 C 3225.35 0.573181 -1.93176 0
M  V30 34734 O 3224.41 1.32933 -2.14674 0
M  V30 34735 C 3225.72 -1.90142 -2.32952 0
M  V30 34736 C 3227.27 -1.92785 -2.46583 0
M  V30 34737 C 3227.74 -3.00466 -3.45665 0
M  V30 34738 N 3229.24 -2.99661 -3.5321 0
M  V30 34739 C 3229.97 -3.79623 -4.29737 0
M  V30 34740 N 3229.47 -4.69475 -5.09476 0
M  V30 34741 N 3231.26 -3.67911 -4.24968 0
M  V30 34742 H 3223.41 -1.98314 -0.760613 0
M  V30 34743 H 3225.67 -0.860814 -0.39712 0
M  V30 34744 H 3225.38 -2.90025 -1.98944 0
M  V30 34745 H 3225.25 -1.77374 -3.32894 0
M  V30 34746 H 3227.64 -0.935453 -2.79881 0
M  V30 34747 H 3227.72 -2.09631 -1.46589 0
M  V30 34748 H 3227.37 -3.99914 -3.13099 0
M  V30 34749 H 3227.3 -2.80864 -4.45447 0
M  V30 34750 H 3229.79 -2.3454 -2.96309 0
M  V30 34751 H 3230.1 -5.27087 -5.65154 0
M  V30 34752 H 3228.44 -4.73515 -5.08732 0
M  V30 34753 H 3231.64 -2.97081 -3.61746 0
M  V30 34754 H 3231.81 -4.30468 -4.84357 0
M  V30 34755 N 3225.21 1.31165 -0.873701 0
M  V30 34756 C 3226.63 1.49222 -0.566135 0
M  V30 34757 C 3226.83 1.80341 0.898857 0
M  V30 34758 O 3225.89 1.88428 1.6808 0
M  V30 34759 C 3227.2 2.62344 -1.46957 0
M  V30 34760 C 3228.75 2.76227 -1.472 0
M  V30 34761 C 3229.22 3.9245 -2.36109 0
M  V30 34762 N 3230.71 3.99742 -2.3401 0
M  V30 34763 C 3231.45 4.88953 -2.99521 0
M  V30 34764 N 3230.94 5.83039 -3.74216 0
M  V30 34765 N 3232.74 4.82229 -2.88811 0
M  V30 34766 H 3224.89 1.09235 -1.82158 0
M  V30 34767 H 3227.15 0.540106 -0.779095 0
M  V30 34768 H 3226.86 2.46135 -2.51218 0
M  V30 34769 H 3226.73 3.58568 -1.17084 0
M  V30 34770 H 3229.12 2.91847 -0.436954 0
M  V30 34771 H 3229.2 1.80657 -1.81098 0
M  V30 34772 H 3228.84 3.77587 -3.39692 0
M  V30 34773 H 3228.77 4.87334 -1.99533 0
M  V30 34774 H 3231.26 3.3243 -1.79719 0
M  V30 34775 H 3231.58 6.47848 -4.21323 0
M  V30 34776 H 3229.92 5.83006 -3.78324 0
M  V30 34777 H 3233.11 4.07703 -2.29992 0
M  V30 34778 H 3233.29 5.51548 -3.40145 0
M  V30 34779 N 3226.69 0.633512 1.44307 0
M  V30 34780 C 3227.94 0.138678 2.01624 0
M  V30 34781 C 3228.26 -1.24474 1.50104 0
M  V30 34782 O 3227.53 -1.82751 0.705607 0
M  V30 34783 H 3226.11 0.0482767 0.745438 0
M  V30 34784 H 3228.77 0.82075 1.76776 0
M  V30 34785 H 3227.87 0.108191 3.11912 0
M  V30 34786 N 3228.17 -1.53093 0.374204 0
M  V30 34787 C 3229.59 -1.59583 0.0235063 0
M  V30 34788 C 3229.79 -1.38894 -1.45982 0
M  V30 34789 O 3228.84 -1.1984 -2.22249 0
M  V30 34790 C 3230.16 -2.96727 0.487169 0
M  V30 34791 C 3231.7 -3.09862 0.442128 0
M  V30 34792 C 3232.18 -4.49432 0.881738 0
M  V30 34793 N 3233.67 -4.55572 0.837142 0
M  V30 34794 C 3234.4 -5.61772 1.14888 0
M  V30 34795 N 3233.9 -6.75687 1.53034 0
M  V30 34796 N 3235.69 -5.518 1.07112 0
M  V30 34797 H 3227.84 -1.64791 1.34006 0
M  V30 34798 H 3230.11 -0.773354 0.548294 0
M  V30 34799 H 3229.81 -3.17034 1.52258 0
M  V30 34800 H 3229.69 -3.77004 -0.121706 0
M  V30 34801 H 3232.07 -2.8926 -0.584165 0
M  V30 34802 H 3232.16 -2.31574 1.08661 0
M  V30 34803 H 3231.8 -4.70773 1.90619 0
M  V30 34804 H 3231.73 -5.26163 0.214419 0
M  V30 34805 H 3234.22 -3.73784 0.556239 0
M  V30 34806 H 3234.53 -7.52673 1.75224 0
M  V30 34807 H 3232.88 -6.77056 1.56907 0
M  V30 34808 H 3236.07 -4.61686 0.77223 0
M  V30 34809 H 3236.24 -6.34467 1.31739 0
M  V30 34810 N 3229.65 -0.103603 -1.57259 0
M  V30 34811 C 3230.89 0.558919 -1.94946 0
M  V30 34812 C 3231.23 1.67303 -0.986068 0
M  V30 34813 O 3230.5 1.94489 -0.0205806 0
M  V30 34814 C 3230.79 1.10611 -3.42691 0
M  V30 34815 C 3230.64 -0.00353152 -4.498 0
M  V30 34816 C 3231.96 2.00184 -3.91937 0
M  V30 34817 H 3229.08 0.201701 -0.708862 0
M  V30 34818 H 3231.72 -0.176039 -1.89183 0
M  V30 34819 H 3229.87 1.73244 -3.47734 0
M  V30 34820 H 3231.54 -0.638163 -4.56865 0
M  V30 34821 H 3229.78 -0.66878 -4.28614 0
M  V30 34822 H 3230.45 0.420299 -5.50398 0
M  V30 34823 H 3232.93 1.47443 -3.89101 0
M  V30 34824 H 3231.81 2.35394 -4.95864 0
M  V30 34825 H 3232.07 2.92249 -3.31727 0
M  V30 34826 N 3231.13 1.56679 0.170126 0
M  V30 34827 C 3232.37 1.81702 0.884809 0
M  V30 34828 C 3232.7 0.680795 1.8273 0
M  V30 34829 O 3231.97 -0.29926 1.93601 0
M  V30 34830 H 3230.55 0.670291 0.329726 0
M  V30 34831 H 3233.21 1.9416 0.169657 0
M  V30 34832 H 3232.3 2.75792 1.46099 0
M  V30 34833 N 3232.6 -0.43872 1.5137 0
M  V30 34834 C 3234.02 -0.775091 1.39515 0
M  V30 34835 C 3234.22 -1.95787 0.476414 0
M  V30 34836 O 3233.28 -2.52406 -0.0689388 0
M  V30 34837 C 3234.59 -1.05676 2.81519 0
M  V30 34838 C 3236.14 -1.16128 2.9066 0
M  V30 34839 C 3236.61 -1.47589 4.33568 0
M  V30 34840 N 3238.1 -1.54516 4.36668 0
M  V30 34841 C 3238.84 -1.80428 5.44273 0
M  V30 34842 N 3238.33 -2.04142 6.62041 0
M  V30 34843 N 3240.13 -1.82199 5.31752 0
M  V30 34844 H 3232.28 0.340274 2.09657 0
M  V30 34845 H 3234.54 0.0898281 0.943735 0
M  V30 34846 H 3234.25 -0.260379 3.50735 0
M  V30 34847 H 3234.12 -1.98475 3.20761 0
M  V30 34848 H 3236.51 -1.94829 2.21643 0
M  V30 34849 H 3236.59 -0.212331 2.54917 0
M  V30 34850 H 3236.23 -0.694163 5.03134 0
M  V30 34851 H 3236.16 -2.43688 4.66823 0
M  V30 34852 H 3238.65 -1.38099 3.51763 0
M  V30 34853 H 3238.97 -2.2328 7.39842 0
M  V30 34854 H 3237.31 -2.01467 6.65159 0
M  V30 34855 H 3240.5 -1.63191 4.38733 0
M  V30 34856 H 3240.68 -2.02056 6.15693 0
M  V30 34857 N 3234.08 -1.41493 -0.694073 0
M  V30 34858 C 3235.33 -1.4114 -1.45628 0
M  V30 34859 C 3235.66 -0.0208769 -1.94189 0
M  V30 34860 O 3234.94 0.951625 -1.6963 0
M  V30 34861 C 3235.22 -2.41946 -2.6671 0
M  V30 34862 C 3235.07 -3.90111 -2.23905 0
M  V30 34863 C 3236.39 -2.39988 -3.68909 0
M  V30 34864 H 3233.51 -0.513977 -0.528201 0
M  V30 34865 H 3236.15 -1.72779 -0.790406 0
M  V30 34866 H 3234.3 -2.15096 -3.23521 0
M  V30 34867 H 3235.97 -4.2787 -1.7241 0
M  V30 34868 H 3234.22 -4.04905 -1.55673 0
M  V30 34869 H 3234.89 -4.56193 -3.10792 0
M  V30 34870 H 3237.36 -2.63819 -3.21774 0
M  V30 34871 H 3236.24 -3.12532 -4.51237 0
M  V30 34872 H 3236.5 -1.419 -4.18709 0
M  V30 34873 N 3235.56 0.928479 -1.27346 0
M  V30 34874 C 3236.51 2.02898 -1.10004 0
M  V30 34875 C 3237.48 1.661 -0.00134004 0
M  V30 34876 O 3238.66 1.90098 -0.163518 0
M  V30 34877 C 3235.8 3.36797 -0.75246 0
M  V30 34878 C 3234.92 3.86555 -1.92871 0
M  V30 34879 C 3234.05 5.08896 -1.52308 0
M  V30 34880 C 3233.09 5.50949 -2.66687 0
M  V30 34881 N 3232.23 6.64487 -2.26718 0
M  V30 34882 H 3237.07 2.17064 -2.04174 0
M  V30 34883 H 3234.6 1.06339 -1.01639 0
M  V30 34884 H 3236.56 4.13797 -0.531759 0
M  V30 34885 H 3235.19 3.22441 0.152283 0
M  V30 34886 H 3234.24 3.05841 -2.26198 0
M  V30 34887 H 3235.56 4.13693 -2.78675 0
M  V30 34888 H 3234.71 5.93396 -1.26358 0
M  V30 34889 H 3233.45 4.83534 -0.636127 0
M  V30 34890 H 3232.45 4.64999 -2.93352 0
M  V30 34891 H 3233.68 5.78307 -3.56002 0
M  V30 34892 H 3231.62 6.40783 -1.40473 0
M  V30 34893 H 3231.54 6.91276 -3.06061 0
M  V30 34894 H 3232.81 7.52329 -2.04013 0
M  V30 34895 N 3237.04 1.09355 1.13486 0
M  V30 34896 C 3238.45 0.848638 1.66298 0
M  V30 34897 C 3238.8 -0.623019 1.86045 0
M  V30 34898 O 3237.93 -1.48003 1.57874 0
M  V30 34899 C 3238.52 1.53397 3.02084 0
M  V30 34900 C 3237.08 1.33604 3.5189 0
M  V30 34901 C 3236.23 1.59052 2.27151 0
M  V30 34902 H 3239.18 1.25281 0.974186 0
M  V30 34903 H 3239.2 0.966652 3.68016 0
M  V30 34904 H 3238.71 2.60503 2.8768 0
M  V30 34905 H 3236.81 0.28611 3.715 0
M  V30 34906 H 3236.92 2.07038 4.32056 0
M  V30 34907 H 3235.29 1.0126 2.33706 0
M  V30 34908 H 3236.07 2.67386 2.15312 0
M  V30 34909 N 3238.52 -1.307 0.880644 0
M  V30 34910 C 3239.77 -1.95921 0.495928 0
M  V30 34911 C 3240.09 -1.69891 -0.957184 0
M  V30 34912 O 3239.36 -1.02013 -1.67243 0
M  V30 34913 H 3237.94 -0.724888 0.180406 0
M  V30 34914 H 3240.6 -1.59311 1.12277 0
M  V30 34915 H 3239.69 -3.04986 0.662562 0
M  V30 34916 N 3240 -0.641156 -1.43969 0
M  V30 34917 C 3241.41 -0.307647 -1.56607 0
M  V30 34918 C 3241.61 1.18879 -1.62696 0
M  V30 34919 O 3240.67 1.97322 -1.57544 0
M  V30 34920 C 3241.98 -1.00839 -2.83288 0
M  V30 34921 C 3243.53 -0.987492 -2.97014 0
M  V30 34922 C 3244 -1.6689 -4.26511 0
M  V30 34923 N 3245.49 -1.63596 -4.33348 0
M  V30 34924 C 3246.23 -2.13205 -5.32289 0
M  V30 34925 N 3245.73 -2.71049 -6.37577 0
M  V30 34926 N 3247.52 -2.03775 -5.23863 0
M  V30 34927 H 3239.67 -1.61239 -1.38259 0
M  V30 34928 H 3241.93 -0.67739 -0.663209 0
M  V30 34929 H 3241.64 -2.06342 -2.84809 0
M  V30 34930 H 3241.51 -0.552399 -3.73133 0
M  V30 34931 H 3243.9 0.0590876 -2.95041 0
M  V30 34932 H 3243.98 -1.48207 -2.08491 0
M  V30 34933 H 3243.62 -2.71498 -4.29245 0
M  V30 34934 H 3243.55 -1.14907 -5.1391 0
M  V30 34935 H 3246.05 -1.21374 -3.57878 0
M  V30 34936 H 3246.36 -3.0661 -7.09373 0
M  V30 34937 H 3244.7 -2.75105 -6.38234 0
M  V30 34938 H 3247.89 -1.58299 -4.40521 0
M  V30 34939 H 3248.07 -2.42747 -6.00814 0
M  V30 34940 N 3241.47 1.52892 -0.382318 0
M  V30 34941 C 3242.7 2.05609 0.202078 0
M  V30 34942 C 3243.11 1.25441 1.41638 0
M  V30 34943 O 3242.45 0.292356 1.81359 0
M  V30 34944 C 3242.52 3.53694 0.643498 0
M  V30 34945 C 3242.18 4.54715 -0.456385 0
M  V30 34946 C 3243.18 5.03084 -1.31159 0
M  V30 34947 C 3240.86 4.98441 -0.621417 0
M  V30 34948 C 3242.86 5.93796 -2.31701 0
M  V30 34949 C 3240.54 5.88955 -1.63018 0
M  V30 34950 C 3241.54 6.36524 -2.4764 0
M  V30 34951 O 3241.23 7.25251 -3.46794 0
M  V30 34952 H 3240.96 0.675052 0.0357896 0
M  V30 34953 H 3243.52 1.98066 -0.54397 0
M  V30 34954 H 3241.75 3.58832 1.44141 0
M  V30 34955 H 3243.43 3.89186 1.15277 0
M  V30 34956 H 3244.2 4.70038 -1.19536 0
M  V30 34957 H 3240.08 4.60992 0.027512 0
M  V30 34958 H 3243.62 6.30848 -2.97787 0
M  V30 34959 H 3239.52 6.21415 -1.74682 0
M  V30 34960 H 3240.29 7.43294 -3.4272 0
M  V30 34961 N 3242.95 0.111941 1.57202 0
M  V30 34962 C 3244.18 -0.554872 1.99009 0
M  V30 34963 C 3244.59 -1.6121 0.990351 0
M  V30 34964 O 3243.93 -1.83682 -0.0259289 0
M  V30 34965 C 3243.99 -1.24592 3.3722 0
M  V30 34966 C 3243.66 -0.337469 4.55752 0
M  V30 34967 C 3244.66 0.421117 5.18192 0
M  V30 34968 C 3242.34 -0.250602 5.01674 0
M  V30 34969 C 3244.33 1.25437 6.24935 0
M  V30 34970 C 3242.02 0.586293 6.08281 0
M  V30 34971 C 3243.02 1.33742 6.69778 0
M  V30 34972 O 3242.71 2.16043 7.74326 0
M  V30 34973 H 3242.44 -0.152079 0.658671 0
M  V30 34974 H 3244.99 0.192973 2.04492 0
M  V30 34975 H 3243.22 -2.04068 3.28471 0
M  V30 34976 H 3244.91 -1.80893 3.63363 0
M  V30 34977 H 3245.68 0.363837 4.83633 0
M  V30 34978 H 3241.56 -0.824925 4.53559 0
M  V30 34979 H 3245.1 1.84114 6.72865 0
M  V30 34980 H 3241 0.644992 6.42269 0
M  V30 34981 H 3241.77 2.08908 7.91391 0
M  V30 34982 N 3244.43 -1.56767 -0.161814 0
M  V30 34983 C 3245.85 -1.51099 -0.513933 0
M  V30 34984 C 3246.05 -0.817847 -1.84156 0
M  V30 34985 O 3245.1 -0.382177 -2.49591 0
M  V30 34986 C 3246.41 -2.9585 -0.537914 0
M  V30 34987 C 3247.96 -3.06708 -0.624458 0
M  V30 34988 C 3248.44 -4.52935 -0.679242 0
M  V30 34989 N 3249.93 -4.5722 -0.741873 0
M  V30 34990 C 3250.66 -5.67721 -0.804996 0
M  V30 34991 N 3250.16 -6.8783 -0.828371 0
M  V30 34992 N 3251.95 -5.55716 -0.844745 0
M  V30 34993 H 3244.1 -2.00231 0.708616 0
M  V30 34994 H 3246.37 -0.912599 0.256646 0
M  V30 34995 H 3246.07 -3.49758 0.369113 0
M  V30 34996 H 3245.95 -3.51007 -1.38107 0
M  V30 34997 H 3248.33 -2.52828 -1.52191 0
M  V30 34998 H 3248.41 -2.54619 0.245559 0
M  V30 34999 H 3248.06 -5.07449 0.21399 0
M  V30 35000 H 3247.99 -5.02791 -1.56554 0
M  V30 35001 H 3250.48 -3.70749 -0.731707 0
M  V30 35002 H 3250.79 -7.67796 -0.877974 0
M  V30 35003 H 3249.14 -6.90421 -0.79649 0
M  V30 35004 H 3252.33 -4.60798 -0.823551 0
M  V30 35005 H 3252.5 -6.41852 -0.890475 0
M  V30 35006 N 3245.91 0.430686 -1.51601 0
M  V30 35007 C 3247.13 1.20642 -1.68702 0
M  V30 35008 C 3247.56 1.84085 -0.386587 0
M  V30 35009 O 3246.92 1.69096 0.653923 0
M  V30 35010 C 3246.96 2.26125 -2.80891 0
M  V30 35011 O 3246.07 3.31767 -2.44957 0
M  V30 35012 H 3245.41 0.353157 -0.562295 0
M  V30 35013 H 3247.94 0.507772 -1.98199 0
M  V30 35014 H 3247.95 2.70803 -3.05172 0
M  V30 35015 H 3246.62 1.79327 -3.75253 0
M  V30 35016 H 3245.2 2.92519 -2.31273 0
M  V30 35017 N 3247.39 1.4186 0.686559 0
M  V30 35018 C 3248.32 1.40355 1.81199 0
M  V30 35019 C 3249.33 0.30435 1.5993 0
M  V30 35020 O 3250.52 0.566673 1.69266 0
M  V30 35021 C 3247.62 1.16862 3.18114 0
M  V30 35022 C 3246.79 2.38993 3.66335 0
M  V30 35023 C 3245.85 2.11221 4.81946 0
M  V30 35024 O 3244.88 2.84331 4.93097 0
M  V30 35025 N 3246.08 1.10803 5.69827 0
M  V30 35026 H 3248.84 2.37358 1.82979 0
M  V30 35027 H 3246.41 1.36588 0.86922 0
M  V30 35028 H 3248.4 0.962194 3.93095 0
M  V30 35029 H 3246.97 0.284241 3.11305 0
M  V30 35030 H 3246.19 2.75279 2.82161 0
M  V30 35031 H 3247.48 3.20347 3.95292 0
M  V30 35032 H 3246.87 0.503111 5.63458 0
M  V30 35033 H 3245.43 0.961492 6.44669 0
M  V30 35034 N 3248.86 -0.921712 1.27837 0
M  V30 35035 C 3249.77 -2.05643 1.12907 0
M  V30 35036 C 3250.79 -1.73905 0.0576009 0
M  V30 35037 O 3251.97 -1.99645 0.265296 0
M  V30 35038 C 3249.03 -3.37719 0.784017 0
M  V30 35039 C 3248.09 -3.83117 1.937 0
M  V30 35040 C 3247.32 -5.0889 1.60831 0
M  V30 35041 O 3247.55 -5.68034 0.518973 0
M  V30 35042 O 3246.48 -5.49806 2.44942 0
M  V30 35043 H 3250.31 -2.21153 2.08147 0
M  V30 35044 H 3247.89 -1.04183 1.0708 0
M  V30 35045 H 3249.77 -4.17032 0.60518 0
M  V30 35046 H 3248.45 -3.23402 -0.138792 0
M  V30 35047 H 3247.36 -3.04665 2.17094 0
M  V30 35048 H 3248.69 -4.01985 2.84023 0
M  V30 35049 N 3250.34 -1.09956 -1.12905 0
M  V30 35050 C 3251.57 -0.860938 -1.88137 0
M  V30 35051 C 3251.98 0.588224 -1.79403 0
M  V30 35052 O 3251.34 1.40524 -1.16444 0
M  V30 35053 C 3251.39 -1.29431 -3.37535 0
M  V30 35054 O 3251.11 -2.68664 -3.46051 0
M  V30 35055 C 3252.61 -1.08886 -4.29719 0
M  V30 35056 H 3249.83 -0.309358 -0.595432 0
M  V30 35057 H 3252.38 -1.46295 -1.42892 0
M  V30 35058 H 3250.53 -0.736076 -3.80343 0
M  V30 35059 H 3250.95 -2.87073 -4.38964 0
M  V30 35060 H 3252.42 -1.4413 -5.32851 0
M  V30 35061 H 3252.9 -0.0270825 -4.39192 0
M  V30 35062 H 3253.5 -1.63332 -3.92687 0
M  V30 35063 N 3251.82 1.30231 -0.887563 0
M  V30 35064 C 3252.78 2.26337 -0.361135 0
M  V30 35065 C 3253.78 1.52899 0.497844 0
M  V30 35066 O 3254.97 1.71516 0.30463 0
M  V30 35067 C 3252.1 3.37431 0.485076 0
M  V30 35068 H 3253.3 2.74416 -1.20978 0
M  V30 35069 H 3250.85 1.41464 -0.664644 0
M  V30 35070 H 3251.59 2.94672 1.3542 0
M  V30 35071 H 3251.37 3.91884 -0.130242 0
M  V30 35072 H 3252.86 4.0896 0.845097 0
M  V30 35073 N 3253.3 0.648782 1.43627 0
M  V30 35074 C 3254.53 0.167981 2.06217 0
M  V30 35075 C 3254.94 -1.16459 1.48602 0
M  V30 35076 O 3254.3 -1.71803 0.615621 0
M  V30 35077 C 3254.35 0.066075 3.6144 0
M  V30 35078 O 3254.07 1.34597 4.16912 0
M  V30 35079 C 3255.57 -0.441331 4.41098 0
M  V30 35080 H 3252.79 0.0878354 0.665226 0
M  V30 35081 H 3255.34 0.888177 1.84206 0
M  V30 35082 H 3253.49 -0.604655 3.82652 0
M  V30 35083 H 3253.9 1.20227 5.10535 0
M  V30 35084 H 3255.38 -0.4616 5.50067 0
M  V30 35085 H 3255.86 -1.4718 4.13805 0
M  V30 35086 H 3256.46 0.196754 4.24845 0
M  V30 35087 N 3254.78 -1.52688 0.390421 0
M  V30 35088 C 3256.02 -2.01195 -0.191032 0
M  V30 35089 C 3256.35 -1.27865 -1.47226 0
M  V30 35090 O 3255.62 -0.399041 -1.91793 0
M  V30 35091 H 3254.2 -0.743367 -0.073583 0
M  V30 35092 H 3256.86 -1.87769 0.522367 0
M  V30 35093 H 3255.95 -3.0952 -0.400455 0
M  V30 35094 N 3256.25 -0.120276 -1.5714 0
M  V30 35095 C 3257.48 0.548419 -2.00018 0
M  V30 35096 C 3257.9 1.5935 -0.999461 0
M  V30 35097 O 3257.26 1.81277 0.028666 0
M  V30 35098 C 3257.31 1.15009 -3.41768 0
M  V30 35099 O 3256.41 2.2656 -3.44593 0
M  V30 35100 H 3255.76 0.136864 -0.649742 0
M  V30 35101 H 3258.29 -0.209127 -2.03528 0
M  V30 35102 H 3258.3 1.48531 -3.80003 0
M  V30 35103 H 3256.97 0.384608 -4.14118 0
M  V30 35104 H 3255.55 1.94467 -3.18177 0
M  V30 35105 N 3257.73 1.56851 0.153498 0
M  V30 35106 C 3258.68 1.97775 1.1897 0
M  V30 35107 C 3259.65 0.844336 1.43039 0
M  V30 35108 O 3260.83 1.10589 1.55482 0
M  V30 35109 C 3257.97 2.358 2.51977 0
M  V30 35110 C 3257.09 3.62401 2.35137 0
M  V30 35111 C 3256.22 3.89558 3.61134 0
M  V30 35112 C 3255.26 5.09451 3.39302 0
M  V30 35113 N 3254.4 5.32651 4.57414 0
M  V30 35114 H 3259.24 2.861 0.833707 0
M  V30 35115 H 3256.78 1.41551 0.400227 0
M  V30 35116 H 3258.73 2.55873 3.29522 0
M  V30 35117 H 3257.36 1.50562 2.85536 0
M  V30 35118 H 3256.42 3.50141 1.48678 0
M  V30 35119 H 3257.73 4.50104 2.14961 0
M  V30 35120 H 3256.88 4.10095 4.4711 0
M  V30 35121 H 3255.62 3.00265 3.84307 0
M  V30 35122 H 3254.63 4.88794 2.51715 0
M  V30 35123 H 3255.85 6.00291 3.17534 0
M  V30 35124 H 3253.8 4.46312 4.80772 0
M  V30 35125 H 3253.71 6.1461 4.40217 0
M  V30 35126 H 3254.98 5.5768 5.44622 0
M  V30 35127 N 3259.21 -0.42264 1.51827 0
M  V30 35128 C 3260.49 -1.18296 1.55774 0
M  V30 35129 C 3260.87 -2.08494 0.330694 0
M  V30 35130 O 3260.22 -2.18043 -0.683335 0
M  V30 35131 C 3260.43 -1.97203 2.87944 0
M  V30 35132 C 3261.77 -2.53738 3.40444 0
M  V30 35133 O 3262.8 -2.07398 2.89594 0
M  V30 35134 O 3261.66 -3.38295 4.29207 0
M  V30 35135 H 3258.75 -0.539377 0.626898 0
M  V30 35136 H 3261.3 -0.430516 1.64148 0
M  V30 35137 H 3260.07 -1.31045 3.68704 0
M  V30 35138 H 3259.69 -2.79481 2.828 0
M  V30 35139 N 3260.69 -1.42222 -0.679027 0
M  V30 35140 C 3261.92 -1.45643 -1.46532 0
M  V30 35141 C 3262.33 -0.0649906 -1.89088 0
M  V30 35142 O 3261.67 0.929684 -1.58438 0
M  V30 35143 C 3261.73 -2.31694 -2.74878 0
M  V30 35144 C 3261.4 -3.79628 -2.54424 0
M  V30 35145 C 3262.39 -4.71385 -2.19298 0
M  V30 35146 C 3260.08 -4.23849 -2.6955 0
M  V30 35147 C 3262.07 -6.05355 -1.9956 0
M  V30 35148 C 3259.76 -5.57879 -2.49428 0
M  V30 35149 C 3260.76 -6.48448 -2.14485 0
M  V30 35150 O 3260.44 -7.80003 -1.94554 0
M  V30 35151 H 3260.18 -0.497634 -0.457533 0
M  V30 35152 H 3262.73 -1.87344 -0.842112 0
M  V30 35153 H 3260.96 -1.84836 -3.39665 0
M  V30 35154 H 3262.65 -2.26621 -3.36746 0
M  V30 35155 H 3263.42 -4.38507 -2.07212 0
M  V30 35156 H 3259.29 -3.53647 -2.95727 0
M  V30 35157 H 3262.84 -6.7601 -1.7221 0
M  V30 35158 H 3258.74 -5.90332 -2.61109 0
M  V30 35159 H 3259.5 -7.91318 -2.09186 0
M  V30 35160 N 3262.17 0.91492 -1.28324 0
M  V30 35161 C 3263.12 2.00371 -1.08791 0
M  V30 35162 C 3264.1 1.60896 -0.0119279 0
M  V30 35163 O 3265.29 1.75474 -0.231933 0
M  V30 35164 C 3262.42 3.34995 -0.750567 0
M  V30 35165 C 3261.51 3.80875 -1.86533 0
M  V30 35166 N 3261.9 3.99139 -3.10679 0
M  V30 35167 C 3260.2 4.10023 -1.75492 0
M  V30 35168 C 3260.9 4.3755 -3.83307 0
M  V30 35169 N 3259.87 4.45743 -3.11149 0
M  V30 35170 H 3263.68 2.1254 -2.02988 0
M  V30 35171 H 3261.19 1.10268 -1.19226 0
M  V30 35172 H 3263.19 4.12679 -0.591716 0
M  V30 35173 H 3261.85 3.2418 0.183639 0
M  V30 35174 H 3262.86 3.85091 -3.46302 0
M  V30 35175 H 3259.53 4.07851 -0.892411 0
M  V30 35176 H 3260.92 4.59654 -4.9007 0
M  V30 35177 N 3263.64 1.10553 1.1232 0
M  V30 35178 C 3264.87 0.86964 1.87406 0
M  V30 35179 C 3265.28 -0.583528 1.79977 0
M  V30 35180 O 3264.63 -1.41413 1.17253 0
M  V30 35181 C 3264.69 1.24105 3.37399 0
M  V30 35182 C 3264.35 2.7015 3.68603 0
M  V30 35183 C 3265.35 3.68386 3.66863 0
M  V30 35184 C 3263.03 3.06566 3.97898 0
M  V30 35185 C 3265.03 5.01059 3.93979 0
M  V30 35186 C 3262.71 4.39426 4.24674 0
M  V30 35187 C 3263.71 5.36482 4.22701 0
M  V30 35188 O 3263.4 6.66951 4.48812 0
M  V30 35189 H 3263.13 0.311845 0.599774 0
M  V30 35190 H 3265.69 1.47412 1.43034 0
M  V30 35191 H 3263.92 0.579673 3.82331 0
M  V30 35192 H 3265.61 0.982447 3.93831 0
M  V30 35193 H 3266.37 3.41597 3.44291 0
M  V30 35194 H 3262.25 2.31645 3.98574 0
M  V30 35195 H 3265.79 5.76805 3.92354 0
M  V30 35196 H 3261.69 4.65953 4.46719 0
M  V30 35197 H 3262.46 6.726 4.66425 0
M  V30 35198 N 3265.12 -1.29758 0.894457 0
M  V30 35199 C 3266.4 -1.90647 0.437399 0
M  V30 35200 C 3266.78 -1.81228 -1.08258 0
M  V30 35201 O 3266.13 -1.2356 -1.92211 0
M  V30 35202 C 3266.34 -3.35931 0.946106 0
M  V30 35203 C 3267.69 -4.12976 0.986694 0
M  V30 35204 O 3268.71 -3.44814 0.893416 0
M  V30 35205 O 3267.57 -5.34774 1.12601 0
M  V30 35206 H 3264.66 -0.815832 0.13545 0
M  V30 35207 H 3267.21 -1.3826 0.98398 0
M  V30 35208 H 3265.98 -3.36917 1.99004 0
M  V30 35209 H 3265.6 -3.95787 0.379234 0
M  V30 35210 N 3266.6 -0.65639 -1.4328 0
M  V30 35211 C 3267.53 0.0196551 -2.33492 0
M  V30 35212 C 3268.51 0.808654 -1.49649 0
M  V30 35213 O 3269.7 0.769498 -1.78304 0
M  V30 35214 C 3266.83 0.984515 -3.33053 0
M  V30 35215 C 3265.78 0.305408 -4.26909 0
M  V30 35216 C 3265.11 1.38193 -5.16533 0
M  V30 35217 C 3266.41 -0.804172 -5.16072 0
M  V30 35218 H 3268.1 -0.733712 -2.90271 0
M  V30 35219 H 3265.65 -0.354283 -1.39574 0
M  V30 35220 H 3267.6 1.4664 -3.95063 0
M  V30 35221 H 3266.32 1.76908 -2.74538 0
M  V30 35222 H 3264.98 -0.156059 -3.66268 0
M  V30 35223 H 3264.63 2.15802 -4.54355 0
M  V30 35224 H 3264.33 0.932776 -5.80149 0
M  V30 35225 H 3265.85 1.86512 -5.81417 0
M  V30 35226 H 3267.27 -0.404312 -5.71873 0
M  V30 35227 H 3265.67 -1.17799 -5.88424 0
M  V30 35228 H 3266.74 -1.66081 -4.55571 0
M  V30 35229 N 3268.08 1.52478 -0.398513 0
M  V30 35230 C 3269.01 2.29628 0.423458 0
M  V30 35231 C 3269.99 1.33395 1.05545 0
M  V30 35232 O 3271.18 1.62296 1.06647 0
M  V30 35233 C 3268.31 3.10989 1.54607 0
M  V30 35234 C 3267.26 4.15181 1.03964 0
M  V30 35235 C 3266.59 4.84822 2.25503 0
M  V30 35236 C 3267.89 5.22202 0.101118 0
M  V30 35237 H 3269.58 2.98589 -0.220275 0
M  V30 35238 H 3267.13 1.43599 -0.10738 0
M  V30 35239 H 3269.08 3.63723 2.128 0
M  V30 35240 H 3267.8 2.39778 2.21752 0
M  V30 35241 H 3266.46 3.63442 0.480187 0
M  V30 35242 H 3266.11 4.10151 2.91179 0
M  V30 35243 H 3265.81 5.55251 1.92275 0
M  V30 35244 H 3267.33 5.40364 2.84322 0
M  V30 35245 H 3268.75 5.7024 0.591516 0
M  V30 35246 H 3267.14 5.99932 -0.141842 0
M  V30 35247 H 3268.21 4.7744 -0.8473 0
M  V30 35248 N 3269.56 0.128608 1.57074 0
M  V30 35249 C 3270.49 -0.84867 2.12909 0
M  V30 35250 C 3271.5 -1.22341 1.07408 0
M  V30 35251 O 3272.69 -1.17069 1.34748 0
M  V30 35252 C 3269.79 -2.14755 2.62171 0
M  V30 35253 C 3268.96 -1.94302 3.91874 0
M  V30 35254 C 3268.02 -3.08008 4.26635 0
M  V30 35255 O 3267.05 -2.80502 4.95285 0
M  V30 35256 N 3268.25 -4.347 3.84729 0
M  V30 35257 H 3271.02 -0.371584 2.97388 0
M  V30 35258 H 3268.58 -0.055529 1.61805 0
M  V30 35259 H 3270.57 -2.89836 2.82449 0
M  V30 35260 H 3269.14 -2.53783 1.82519 0
M  V30 35261 H 3268.36 -1.03361 3.80408 0
M  V30 35262 H 3269.65 -1.77953 4.76666 0
M  V30 35263 H 3269.05 -4.5992 3.29378 0
M  V30 35264 H 3267.6 -5.0662 4.10096 0
M  V30 35265 N 3271.04 -1.5693 -0.145178 0
M  V30 35266 C 3272 -1.97494 -1.16313 0
M  V30 35267 C 3273 -0.861692 -1.35763 0
M  V30 35268 O 3274.19 -1.12827 -1.32724 0
M  V30 35269 C 3271.32 -2.29247 -2.52307 0
M  V30 35270 H 3272.51 -2.88611 -0.815087 0
M  V30 35271 H 3270.07 -1.51393 -0.388583 0
M  V30 35272 H 3270.8 -1.40927 -2.92079 0
M  V30 35273 H 3270.59 -3.10416 -2.3955 0
M  V30 35274 H 3272.08 -2.61461 -3.25619 0
M  V30 35275 N 3272.51 0.414582 -1.52049 0
M  V30 35276 C 3273.45 1.52366 -1.71222 0
M  V30 35277 C 3274.46 1.51629 -0.59266 0
M  V30 35278 O 3275.65 1.55993 -0.867661 0
M  V30 35279 C 3272.75 2.91268 -1.73253 0
M  V30 35280 C 3271.92 3.16258 -3.02159 0
M  V30 35281 C 3270.98 4.35002 -2.96073 0
M  V30 35282 O 3270.01 4.32547 -3.69988 0
M  V30 35283 N 3271.21 5.39818 -2.13487 0
M  V30 35284 H 3273.97 1.36316 -2.66905 0
M  V30 35285 H 3271.53 0.603815 -1.50219 0
M  V30 35286 H 3273.53 3.68763 -1.6672 0
M  V30 35287 H 3272.1 3.00803 -0.850672 0
M  V30 35288 H 3271.32 2.26855 -3.22383 0
M  V30 35289 H 3272.6 3.29794 -3.87445 0
M  V30 35290 H 3272 5.44658 -1.52854 0
M  V30 35291 H 3270.56 6.16078 -2.12816 0
M  V30 35292 N 3273.99 1.4258 0.671475 0
M  V30 35293 C 3275.41 1.25579 0.984997 0
M  V30 35294 C 3275.61 0.162354 2.00845 0
M  V30 35295 O 3274.66 -0.465308 2.48176 0
M  V30 35296 C 3275.98 2.6138 1.48664 0
M  V30 35297 C 3277.52 2.68762 1.60424 0
M  V30 35298 C 3278 4.04938 2.13984 0
M  V30 35299 N 3279.49 4.06909 2.21312 0
M  V30 35300 C 3280.23 5.09096 2.63836 0
M  V30 35301 N 3279.72 6.21663 3.05788 0
M  V30 35302 N 3281.51 4.96452 2.63614 0
M  V30 35303 H 3273.67 2.12399 -0.00608295 0
M  V30 35304 H 3275.93 0.946111 0.0598133 0
M  V30 35305 H 3275.63 3.42266 0.80911 0
M  V30 35306 H 3275.51 2.85528 2.46482 0
M  V30 35307 H 3277.9 1.8822 2.27283 0
M  V30 35308 H 3277.98 2.48399 0.610866 0
M  V30 35309 H 3277.62 4.8594 1.47733 0
M  V30 35310 H 3277.55 4.22655 3.14118 0
M  V30 35311 H 3280.04 3.25646 1.91737 0
M  V30 35312 H 3280.35 6.95483 3.36932 0
M  V30 35313 H 3278.7 6.25164 3.03637 0
M  V30 35314 H 3281.89 4.07583 2.30204 0
M  V30 35315 H 3282.06 5.76221 2.96434 0
M  V30 35316 N 3275.47 -0.908102 1.28807 0
M  V30 35317 C 3276.7 -1.68898 1.18983 0
M  V30 35318 C 3277.11 -1.87497 -0.253301 0
M  V30 35319 O 3276.45 -1.40586 -1.18242 0
M  V30 35320 C 3276.51 -3.09867 1.82271 0
M  V30 35321 C 3276.18 -3.14532 3.3154 0
M  V30 35322 C 3277.17 -2.95306 4.27891 0
M  V30 35323 C 3274.86 -3.36866 3.72595 0
M  V30 35324 C 3276.85 -2.98333 5.63273 0
M  V30 35325 C 3274.54 -3.39525 5.08101 0
M  V30 35326 C 3275.54 -3.2028 6.03249 0
M  V30 35327 O 3275.23 -3.22711 7.36283 0
M  V30 35328 H 3274.96 -0.534566 0.413781 0
M  V30 35329 H 3277.51 -1.14461 1.70552 0
M  V30 35330 H 3275.74 -3.6587 1.25204 0
M  V30 35331 H 3277.43 -3.70005 1.66886 0
M  V30 35332 H 3278.2 -2.77872 3.97507 0
M  V30 35333 H 3274.08 -3.50889 2.98995 0
M  V30 35334 H 3277.62 -2.8323 6.37516 0
M  V30 35335 H 3273.52 -3.56488 5.38133 0
M  V30 35336 H 3274.28 -3.39035 7.44982 0
M  V30 35337 N 3276.95 -1.11147 -1.11732 0
M  V30 35338 C 3278.2 -0.856749 -1.83042 0
M  V30 35339 C 3278.52 0.619375 -1.84902 0
M  V30 35340 O 3277.79 1.44987 -1.31741 0
M  V30 35341 H 3276.37 -0.313962 -0.677818 0
M  V30 35342 H 3279.03 -1.40324 -1.3526 0
M  V30 35343 H 3278.12 -1.22621 -2.87003 0
M  V30 35344 N 3278.43 1.29282 -0.901326 0
M  V30 35345 C 3279.67 1.94773 -0.524044 0
M  V30 35346 C 3279.99 1.71826 0.934615 0
M  V30 35347 O 3281.19 2.31436 1.41949 0
M  V30 35348 C 3279.65 3.48816 -0.886324 0
M  V30 35349 C 3279.26 3.8056 -2.36386 0
M  V30 35350 C 3281 4.20532 -0.579029 0
M  V30 35351 C 3278.91 5.27854 -2.66692 0
M  V30 35352 H 3277.84 0.729077 -0.192257 0
M  V30 35353 H 3280.49 1.46984 -1.09854 0
M  V30 35354 H 3278.87 3.95268 -0.240735 0
M  V30 35355 H 3280.05 3.44961 -3.05514 0
M  V30 35356 H 3278.36 3.21986 -2.64034 0
M  V30 35357 H 3280.96 5.28947 -0.782278 0
M  V30 35358 H 3281.3 4.13494 0.482532 0
M  V30 35359 H 3281.83 3.79817 -1.18253 0
M  V30 35360 H 3278.57 5.39958 -3.71652 0
M  V30 35361 H 3278.09 5.64694 -2.02189 0
M  V30 35362 H 3279.77 5.95465 -2.53043 0
M  V30 35363 N 3279.9 0.663979 1.4293 0
M  V30 35364 C 3280.81 -0.0213822 2.3459 0
M  V30 35365 C 3281.83 -0.800584 1.54488 0
M  V30 35366 O 3283.01 -0.745377 1.87099 0
M  V30 35367 C 3280.07 -0.968498 3.32898 0
M  V30 35368 C 3279.13 -0.185033 4.28901 0
M  V30 35369 C 3278.36 -1.08704 5.22512 0
M  V30 35370 O 3278.59 -2.32646 5.20799 0
M  V30 35371 O 3277.52 -0.553653 5.99348 0
M  V30 35372 H 3281.35 0.73336 2.94713 0
M  V30 35373 H 3278.93 0.424185 1.43252 0
M  V30 35374 H 3280.81 -1.5125 3.93321 0
M  V30 35375 H 3279.49 -1.70328 2.75264 0
M  V30 35376 H 3278.4 0.402817 3.71925 0
M  V30 35377 H 3279.73 0.510405 4.89546 0
M  V30 35378 N 3281.38 -1.52265 0.406593 0
M  V30 35379 C 3282.66 -1.94261 -0.228443 0
M  V30 35380 C 3283.04 -1.3433 -1.62845 0
M  V30 35381 O 3282.39 -0.518121 -2.22548 0
M  V30 35382 C 3282.6 -3.48192 -0.23734 0
M  V30 35383 C 3283.94 -4.22123 -0.457922 0
M  V30 35384 O 3284.97 -3.54788 -0.316806 0
M  V30 35385 O 3283.83 -5.41523 -0.735851 0
M  V30 35386 H 3280.92 -0.813925 -0.146477 0
M  V30 35387 H 3283.47 -1.6328 0.462353 0
M  V30 35388 H 3282.24 -3.84188 0.742624 0
M  V30 35389 H 3281.86 -3.85527 -0.972341 0
M  V30 35390 N 3282.86 -0.136936 -1.57004 0
M  V30 35391 C 3284.11 0.515656 -1.95411 0
M  V30 35392 C 3284.43 1.66059 -1.02222 0
M  V30 35393 O 3283.7 1.95729 -0.0818516 0
M  V30 35394 H 3282.28 0.193484 -0.721507 0
M  V30 35395 H 3284.94 -0.21008 -1.93764 0
M  V30 35396 H 3284.04 0.898442 -2.98889 0
M  V30 35397 N 3284.34 1.57005 0.136853 0
M  V30 35398 C 3285.59 1.8309 0.846225 0
M  V30 35399 C 3285.9 0.719797 1.81874 0
M  V30 35400 O 3287.11 0.86654 2.573 0
M  V30 35401 C 3285.56 3.24548 1.55553 0
M  V30 35402 C 3285.17 4.4362 0.624911 0
M  V30 35403 C 3286.91 3.59897 2.25109 0
M  V30 35404 C 3284.82 5.76102 1.33643 0
M  V30 35405 H 3283.75 0.682841 0.319756 0
M  V30 35406 H 3286.4 1.83233 0.0989419 0
M  V30 35407 H 3284.78 3.18821 2.34881 0
M  V30 35408 H 3285.96 4.60606 -0.133864 0
M  V30 35409 H 3284.27 4.16383 0.0372484 0
M  V30 35410 H 3286.87 4.56139 2.79 0
M  V30 35411 H 3287.21 2.86451 3.02079 0
M  V30 35412 H 3287.75 3.67329 1.52689 0
M  V30 35413 H 3284.49 6.52671 0.608381 0
M  V30 35414 H 3284.01 5.63035 2.06766 0
M  V30 35415 H 3285.68 6.19249 1.87456 0
M  V30 35416 N 3285.82 -0.406513 1.52267 0
M  V30 35417 C 3286.76 -1.51597 1.76412 0
M  V30 35418 C 3287.76 -1.57196 0.631338 0
M  V30 35419 O 3288.96 -1.60571 0.813441 0
M  V30 35420 H 3285.34 -0.50422 0.557913 0
M  V30 35421 H 3287.31 -1.28419 2.69353 0
M  V30 35422 C 3286.06 -2.88936 1.9342 0
M  V30 35423 H 3285.38 -2.85372 2.80005 0
M  V30 35424 H 3286.82 -3.6585 2.14312 0
M  V30 35425 C 3285.28 -3.29505 0.701996 0
M  V30 35426 O 3285.81 -4.01493 -0.128895 0
M  V30 35427 N 3284.02 -2.85593 0.53714 0
M  V30 35428 H 3283.56 -2.27179 1.21439 0
M  V30 35429 H 3283.52 -3.13096 -0.286 0
M  V30 35430 N 3287.29 -1.42934 -0.663904 0
M  V30 35431 C 3288.54 -1.44197 -1.42601 0
M  V30 35432 C 3288.87 -0.0620626 -1.94101 0
M  V30 35433 O 3288.15 0.91543 -1.7161 0
M  V30 35434 C 3288.43 -2.47549 -2.61518 0
M  V30 35435 C 3288.28 -3.94773 -2.1558 0
M  V30 35436 C 3289.6 -2.47759 -3.63736 0
M  V30 35437 H 3286.72 -0.525065 -0.51718 0
M  V30 35438 H 3289.36 -1.74417 -0.75358 0
M  V30 35439 H 3287.51 -2.2191 -3.18886 0
M  V30 35440 H 3289.19 -4.31431 -1.63295 0
M  V30 35441 H 3287.43 -4.08116 -1.4705 0
M  V30 35442 H 3288.1 -4.62683 -3.01045 0
M  V30 35443 H 3290.58 -2.70585 -3.16106 0
M  V30 35444 H 3289.45 -3.22033 -4.44506 0
M  V30 35445 H 3289.71 -1.50749 -4.15605 0
M  V30 35446 N 3288.77 0.901258 -1.29287 0
M  V30 35447 C 3290 1.68509 -1.20051 0
M  V30 35448 C 3290.42 1.8728 0.239095 0
M  V30 35449 O 3289.77 1.40871 1.16024 0
M  V30 35450 C 3289.82 3.07045 -1.90803 0
M  V30 35451 O 3289.54 2.89132 -3.29142 0
M  V30 35452 C 3291.05 4.0145 -1.88024 0
M  V30 35453 H 3288.27 0.526353 -0.416166 0
M  V30 35454 H 3290.81 1.12716 -1.70632 0
M  V30 35455 H 3288.96 3.59618 -1.44061 0
M  V30 35456 H 3289.38 3.76902 -3.64754 0
M  V30 35457 H 3290.85 4.96078 -2.42097 0
M  V30 35458 H 3291.33 4.30789 -0.855416 0
M  V30 35459 H 3291.94 3.54808 -2.34503 0
M  V30 35460 N 3290.25 1.11738 1.11141 0
M  V30 35461 C 3291.2 0.778551 2.17272 0
M  V30 35462 C 3292.17 -0.251376 1.64187 0
M  V30 35463 O 3293.35 -0.127595 1.90373 0
M  V30 35464 C 3290.49 0.231306 3.44324 0
M  V30 35465 C 3289.61 1.31817 4.11398 0
M  V30 35466 C 3288.74 0.731132 5.26144 0
M  V30 35467 C 3287.78 1.79763 5.85108 0
M  V30 35468 N 3286.92 1.22985 6.91245 0
M  V30 35469 H 3291.76 1.68774 2.456 0
M  V30 35470 H 3289.29 0.84278 1.20564 0
M  V30 35471 H 3291.25 -0.103971 4.1707 0
M  V30 35472 H 3289.88 -0.641064 3.1637 0
M  V30 35473 H 3288.93 1.77035 3.36694 0
M  V30 35474 H 3290.25 2.12493 4.51274 0
M  V30 35475 H 3289.4 0.346093 6.05712 0
M  V30 35476 H 3288.14 -0.106914 4.87583 0
M  V30 35477 H 3287.14 2.19194 5.04216 0
M  V30 35478 H 3288.37 2.63876 6.25737 0
M  V30 35479 H 3286.31 0.413505 6.54695 0
M  V30 35480 H 3286.23 1.97329 7.29793 0
M  V30 35481 H 3287.5 0.871806 7.74609 0
M  V30 35482 N 3291.73 -1.28802 0.90817 0
M  V30 35483 C 3292.95 -1.99879 0.553466 0
M  V30 35484 C 3293.38 -1.67459 -0.856685 0
M  V30 35485 O 3292.74 -0.903877 -1.57162 0
M  V30 35486 C 3292.78 -3.52441 0.76275 0
M  V30 35487 O 3291.89 -4.12003 -0.180852 0
M  V30 35488 H 3291.23 -0.628144 0.215248 0
M  V30 35489 H 3293.76 -1.64093 1.22208 0
M  V30 35490 H 3293.77 -4.0245 0.670683 0
M  V30 35491 H 3292.44 -3.75372 1.79077 0
M  V30 35492 H 3291.02 -3.72878 -0.0405241 0
M  V30 35493 N 3293.21 -0.67155 -1.42576 0
M  V30 35494 C 3294.45 -0.192466 -2.01583 0
M  V30 35495 C 3294.78 1.19989 -1.53078 0
M  V30 35496 O 3294.04 1.81886 -0.722228 0
M  V30 35497 C 3294.34 -0.17216 -3.56985 0
M  V30 35498 C 3294 -1.50875 -4.24909 0
M  V30 35499 C 3292.66 -1.87472 -4.43179 0
M  V30 35500 C 3295.02 -2.38916 -4.63216 0
M  V30 35501 C 3292.34 -3.11741 -4.97026 0
M  V30 35502 C 3294.7 -3.62494 -5.18441 0
M  V30 35503 C 3293.36 -3.99264 -5.34925 0
M  V30 35504 H 3292.63 -0.0704284 -0.737645 0
M  V30 35505 H 3295.28 -0.865892 -1.70806 0
M  V30 35506 H 3293.58 0.584767 -3.87412 0
M  V30 35507 H 3295.28 0.215679 -4.0042 0
M  V30 35508 H 3291.87 -1.21404 -4.11046 0
M  V30 35509 H 3296.05 -2.11927 -4.48777 0
M  V30 35510 H 3291.31 -3.40255 -5.07973 0
M  V30 35511 H 3295.48 -4.30918 -5.47067 0
M  V30 35512 H 3293.11 -4.95633 -5.76413 0
M  V30 35513 N 3294.68 1.52047 -0.414663 0
M  V30 35514 C 3296.1 1.59464 -0.0658086 0
M  V30 35515 C 3296.3 1.42716 1.42248 0
M  V30 35516 O 3295.36 1.2569 2.18994 0
M  V30 35517 C 3296.67 2.95331 -0.56567 0
M  V30 35518 C 3298.22 3.0858 -0.524126 0
M  V30 35519 C 3298.69 4.46937 -1.00059 0
M  V30 35520 N 3300.18 4.53193 -0.957635 0
M  V30 35521 C 3300.92 5.58529 -1.29742 0
M  V30 35522 N 3300.41 6.71392 -1.70895 0
M  V30 35523 N 3302.21 5.48766 -1.21704 0
M  V30 35524 H 3294.36 1.61181 -1.38328 0
M  V30 35525 H 3296.62 0.758546 -0.568606 0
M  V30 35526 H 3296.33 3.12886 -1.6061 0
M  V30 35527 H 3296.2 3.77194 0.0217072 0
M  V30 35528 H 3298.59 2.90707 0.507268 0
M  V30 35529 H 3298.67 2.28611 -1.14763 0
M  V30 35530 H 3298.31 4.65553 -2.03034 0
M  V30 35531 H 3298.24 5.2541 -0.353846 0
M  V30 35532 H 3300.73 3.72178 -0.655145 0
M  V30 35533 H 3301.05 7.47762 -1.95119 0
M  V30 35534 H 3299.39 6.72658 -1.74803 0
M  V30 35535 H 3302.58 4.59477 -0.894367 0
M  V30 35536 H 3302.76 6.30751 -1.48515 0
M  V30 35537 N 3296.16 0.145261 1.56929 0
M  V30 35538 C 3297.07 -0.80818 2.2024 0
M  V30 35539 C 3298.09 -1.27302 1.18618 0
M  V30 35540 O 3299.26 -1.33057 1.51188 0
M  V30 35541 C 3296.33 -2.0305 2.81019 0
M  V30 35542 C 3295.39 -1.61505 3.97762 0
M  V30 35543 C 3294.62 -2.7791 4.55633 0
M  V30 35544 O 3294.85 -3.94075 4.12385 0
M  V30 35545 O 3293.78 -2.53482 5.45922 0
M  V30 35546 H 3297.61 -0.299261 3.02222 0
M  V30 35547 H 3295.19 -0.0816789 1.49177 0
M  V30 35548 H 3297.07 -2.74586 3.19656 0
M  V30 35549 H 3295.75 -2.52897 2.02051 0
M  V30 35550 H 3294.66 -0.869969 3.63844 0
M  V30 35551 H 3295.99 -1.16375 4.78244 0
M  V30 35552 N 3297.64 -1.57075 -0.128525 0
M  V30 35553 C 3298.57 -1.94827 -1.18818 0
M  V30 35554 C 3299.55 -0.816596 -1.40608 0
M  V30 35555 O 3300.74 -1.07391 -1.54918 0
M  V30 35556 C 3297.86 -2.23627 -2.54379 0
M  V30 35557 C 3296.91 -3.46214 -2.49074 0
M  V30 35558 S 3297.74 -4.99137 -1.93966 0
M  V30 35559 C 3298.9 -5.31079 -3.31218 0
M  V30 35560 H 3299.13 -2.84402 -0.866196 0
M  V30 35561 H 3296.66 -1.50724 -0.3349 0
M  V30 35562 H 3298.62 -2.40899 -3.32382 0
M  V30 35563 H 3297.28 -1.34683 -2.83759 0
M  V30 35564 H 3296.48 -3.63702 -3.48909 0
M  V30 35565 H 3296.08 -3.2828 -1.79188 0
M  V30 35566 H 3298.37 -5.25678 -4.27398 0
M  V30 35567 H 3299.31 -6.32393 -3.18567 0
M  V30 35568 H 3299.72 -4.58566 -3.29207 0
M  V30 35569 N 3299.12 0.398432 -1.5248 0
M  V30 35570 C 3300.07 1.50659 -1.77213 0
M  V30 35571 C 3301.06 1.56859 -0.639666 0
M  V30 35572 O 3302.27 1.60138 -0.821945 0
M  V30 35573 H 3298.64 0.501254 -0.560579 0
M  V30 35574 H 3300.61 1.26989 -2.70031 0
M  V30 35575 C 3299.36 2.87906 -1.94949 0
M  V30 35576 H 3298.69 2.83883 -2.81515 0
M  V30 35577 H 3300.13 3.64708 -2.16249 0
M  V30 35578 C 3298.58 3.29128 -0.71946 0
M  V30 35579 O 3299.11 4.01556 0.107601 0
M  V30 35580 N 3297.32 2.85304 -0.552278 0
M  V30 35581 H 3296.87 2.26532 -1.22642 0
M  V30 35582 H 3296.83 3.13244 0.269392 0
M  V30 35583 N 3300.6 1.43284 0.656314 0
M  V30 35584 C 3301.83 1.47956 1.44196 0
M  V30 35585 C 3302.24 0.0950647 1.88961 0
M  V30 35586 O 3301.58 -0.90436 1.59897 0
M  V30 35587 C 3301.64 2.36038 2.71157 0
M  V30 35588 C 3301.3 3.83628 2.48352 0
M  V30 35589 C 3302.3 4.74815 2.11771 0
M  V30 35590 C 3299.99 4.28084 2.62773 0
M  V30 35591 C 3301.98 6.08453 1.89904 0
M  V30 35592 C 3299.67 5.61777 2.40521 0
M  V30 35593 C 3300.67 6.51778 2.04142 0
M  V30 35594 O 3300.35 7.82999 1.8212 0
M  V30 35595 H 3300.09 0.50485 0.449558 0
M  V30 35596 H 3302.64 1.8866 0.812201 0
M  V30 35597 H 3300.87 1.90216 3.36682 0
M  V30 35598 H 3302.56 2.3195 3.33098 0
M  V30 35599 H 3303.32 4.41748 2.0021 0
M  V30 35600 H 3299.2 3.58307 2.90063 0
M  V30 35601 H 3302.75 6.78664 1.61433 0
M  V30 35602 H 3298.64 5.94412 2.51684 0
M  V30 35603 H 3299.41 7.94545 1.9657 0
M  V30 35604 N 3302.08 -0.894389 1.29763 0
M  V30 35605 C 3303.35 -1.62606 1.08714 0
M  V30 35606 C 3303.73 -2.07888 -0.366871 0
M  V30 35607 O 3303.08 -1.83867 -1.35666 0
M  V30 35608 C 3303.29 -2.80281 2.07952 0
M  V30 35609 C 3304.64 -3.50839 2.39159 0
M  V30 35610 O 3305.66 -2.90456 2.06188 0
M  V30 35611 O 3304.52 -4.59708 2.95517 0
M  V30 35612 H 3301.62 -0.714242 0.416879 0
M  V30 35613 H 3304.16 -0.941991 1.41155 0
M  V30 35614 H 3302.93 -2.44056 3.05864 0
M  V30 35615 H 3302.56 -3.5639 1.76273 0
M  V30 35616 N 3303.55 -1.12326 -1.10547 0
M  V30 35617 C 3304.8 -0.889075 -1.8294 0
M  V30 35618 C 3305.15 0.578903 -1.83484 0
M  V30 35619 O 3304.45 1.42241 -1.28367 0
M  V30 35620 C 3304.64 -1.39632 -3.28995 0
M  V30 35621 C 3304.47 -2.91208 -3.42677 0
M  V30 35622 C 3303.24 -3.59432 -3.55158 0
M  V30 35623 C 3305.44 -3.89214 -3.3618 0
M  V30 35624 N 3303.42 -4.99134 -3.57405 0
M  V30 35625 C 3304.79 -5.15039 -3.45159 0
M  V30 35626 C 3306.85 -3.81642 -3.19771 0
M  V30 35627 C 3305.55 -6.34182 -3.3942 0
M  V30 35628 C 3307.58 -5.00306 -3.15354 0
M  V30 35629 C 3306.94 -6.24989 -3.24913 0
M  V30 35630 H 3303.04 -0.378597 -0.684243 0
M  V30 35631 H 3305.62 -1.42934 -1.32204 0
M  V30 35632 H 3303.79 -0.883118 -3.78227 0
M  V30 35633 H 3305.52 -1.10432 -3.89342 0
M  V30 35634 H 3302.28 -3.0992 -3.58115 0
M  V30 35635 H 3302.7 -5.71998 -3.62143 0
M  V30 35636 H 3307.34 -2.86142 -3.11259 0
M  V30 35637 H 3305.06 -7.29949 -3.46698 0
M  V30 35638 H 3308.65 -4.96176 -3.0381 0
M  V30 35639 H 3307.53 -7.15269 -3.21495 0
M  V30 35640 N 3305.03 1.28319 -0.914988 0
M  V30 35641 C 3306.26 1.99582 -0.564058 0
M  V30 35642 C 3306.68 1.67911 0.847792 0
M  V30 35643 O 3306.04 0.912199 1.5668 0
M  V30 35644 C 3306.09 3.52031 -0.78143 0
M  V30 35645 O 3305.19 4.12093 0.159 0
M  V30 35646 H 3304.53 0.626993 -0.218576 0
M  V30 35647 H 3307.06 1.63442 -1.23076 0
M  V30 35648 H 3307.07 4.02088 -0.692016 0
M  V30 35649 H 3305.75 3.74417 -1.81065 0
M  V30 35650 H 3304.32 3.72894 0.0207489 0
M  V30 35651 N 3306.51 0.679102 1.42218 0
M  V30 35652 C 3307.44 0.0174939 2.33493 0
M  V30 35653 C 3308.42 -0.784744 1.50916 0
M  V30 35654 O 3309.61 -0.741034 1.79506 0
M  V30 35655 C 3306.74 -0.931404 3.34578 0
M  V30 35656 C 3305.69 -0.237452 4.27341 0
M  V30 35657 C 3305.02 -1.29958 5.18666 0
M  V30 35658 C 3306.32 0.886172 5.14727 0
M  V30 35659 H 3308.01 0.779798 2.89067 0
M  V30 35660 H 3305.56 0.376443 1.38992 0
M  V30 35661 H 3307.51 -1.40336 3.97346 0
M  V30 35662 H 3306.23 -1.72518 2.77318 0
M  V30 35663 H 3304.89 0.21431 3.65973 0
M  V30 35664 H 3304.54 -2.08546 4.57731 0
M  V30 35665 H 3304.24 -0.840361 5.8156 0
M  V30 35666 H 3305.76 -1.77238 5.84311 0
M  V30 35667 H 3307.18 0.495241 5.71157 0
M  V30 35668 H 3305.57 1.27146 5.86476 0
M  V30 35669 H 3306.64 1.73308 4.52871 0
M  V30 35670 N 3307.99 -1.51825 0.42272 0
M  V30 35671 C 3309.22 -2.06073 -0.147493 0
M  V30 35672 C 3309.63 -1.29152 -1.38262 0
M  V30 35673 O 3308.97 -0.340338 -1.8052 0
M  V30 35674 C 3309.03 -3.55276 -0.549496 0
M  V30 35675 C 3308.69 -4.53346 0.576784 0
M  V30 35676 C 3309.69 -4.9943 1.44451 0
M  V30 35677 C 3307.38 -4.96618 0.753351 0
M  V30 35678 C 3309.37 -5.87444 2.47363 0
M  V30 35679 C 3307.06 -5.84426 1.78576 0
M  V30 35680 C 3308.06 -6.29735 2.6443 0
M  V30 35681 O 3307.74 -7.15802 3.65901 0
M  V30 35682 H 3307.48 -0.675764 -0.0178792 0
M  V30 35683 H 3310.03 -1.96554 0.596292 0
M  V30 35684 H 3308.26 -3.62527 -1.34577 0
M  V30 35685 H 3309.95 -3.92106 -1.04918 0
M  V30 35686 H 3310.71 -4.66704 1.31956 0
M  V30 35687 H 3306.59 -4.60903 0.0947215 0
M  V30 35688 H 3310.14 -6.22731 3.14408 0
M  V30 35689 H 3306.03 -6.16565 1.91096 0
M  V30 35690 H 3306.8 -7.33946 3.62307 0
M  V30 35691 N 3309.47 -0.153581 -1.5685 0
M  V30 35692 C 3310.38 0.796489 -2.20665 0
M  V30 35693 C 3311.39 1.26671 -1.19291 0
M  V30 35694 O 3312.57 1.32253 -1.51891 0
M  V30 35695 C 3309.63 2.01556 -2.82092 0
M  V30 35696 C 3308.69 1.59394 -3.98613 0
M  V30 35697 C 3307.93 2.7549 -4.57101 0
M  V30 35698 O 3308.15 3.91883 -4.14469 0
M  V30 35699 O 3307.08 2.50584 -5.47258 0
M  V30 35700 H 3310.91 0.283229 -3.02376 0
M  V30 35701 H 3308.49 0.0737665 -1.49218 0
M  V30 35702 H 3310.38 2.72887 -3.21108 0
M  V30 35703 H 3309.05 2.51822 -2.0339 0
M  V30 35704 H 3307.96 0.850661 -3.643 0
M  V30 35705 H 3309.29 1.13837 -4.78855 0
M  V30 35706 N 3310.94 1.57141 0.120193 0
M  V30 35707 C 3311.85 2.03551 1.16637 0
M  V30 35708 C 3312.87 0.955682 1.45405 0
M  V30 35709 O 3314.05 1.26711 1.56545 0
M  V30 35710 C 3311.11 2.42952 2.47336 0
M  V30 35711 C 3310.17 3.65012 2.25976 0
M  V30 35712 C 3309.4 4.02524 3.50442 0
M  V30 35713 O 3309.63 3.40392 4.577 0
M  V30 35714 O 3308.56 4.95632 3.41515 0
M  V30 35715 H 3312.39 2.92912 0.802272 0
M  V30 35716 H 3309.97 1.45689 0.330901 0
M  V30 35717 H 3311.85 2.69035 3.24343 0
M  V30 35718 H 3310.53 1.56738 2.83222 0
M  V30 35719 H 3309.44 3.44081 1.46831 0
M  V30 35720 H 3310.77 4.51927 1.94994 0
M  V30 35721 N 3312.42 -0.39034 1.5269 0
M  V30 35722 C 3313.7 -1.14965 1.58248 0
M  V30 35723 C 3314.08 -2.07745 0.374844 0
M  V30 35724 O 3313.43 -2.19443 -0.636931 0
M  V30 35725 C 3313.64 -1.91051 2.92063 0
M  V30 35726 C 3314.99 -2.4646 3.4575 0
M  V30 35727 O 3316.01 -2.01209 2.93928 0
M  V30 35728 O 3314.87 -3.29115 4.36286 0
M  V30 35729 H 3311.96 -0.525959 0.638198 0
M  V30 35730 H 3314.51 -0.395601 1.65025 0
M  V30 35731 H 3313.28 -1.23195 3.71401 0
M  V30 35732 H 3312.9 -2.7342 2.88665 0
M  V30 35733 N 3313.9 -1.4363 -0.648706 0
M  V30 35734 C 3315.13 -1.49151 -1.44114 0
M  V30 35735 C 3315.55 -0.111985 -1.87766 0
M  V30 35736 O 3314.91 0.895221 -1.57656 0
M  V30 35737 C 3314.96 -2.44628 -2.64933 0
M  V30 35738 O 3314.06 -1.93566 -3.64151 0
M  V30 35739 H 3313.4 -0.504319 -0.431924 0
M  V30 35740 H 3315.93 -1.8859 -0.793406 0
M  V30 35741 H 3315.94 -2.62082 -3.12693 0
M  V30 35742 H 3314.62 -3.4484 -2.32504 0
M  V30 35743 H 3313.19 -1.85794 -3.23318 0
M  V30 35744 N 3315.38 0.887495 -1.30236 0
M  V30 35745 C 3316.31 2.00917 -1.18973 0
M  V30 35746 C 3317.29 1.69907 -0.0809818 0
M  V30 35747 O 3318.47 1.92417 -0.26258 0
M  V30 35748 C 3315.6 3.36015 -0.878153 0
M  V30 35749 C 3314.56 3.81275 -1.94456 0
M  V30 35750 C 3313.88 5.13635 -1.48603 0
M  V30 35751 C 3315.18 4.00275 -3.35526 0
M  V30 35752 H 3316.88 2.10598 -2.12812 0
M  V30 35753 H 3314.42 1.01187 -1.02456 0
M  V30 35754 H 3316.38 4.14004 -0.786027 0
M  V30 35755 H 3315.1 3.26459 0.0959205 0
M  V30 35756 H 3313.76 3.05512 -2.02628 0
M  V30 35757 H 3313.41 5.00506 -0.500292 0
M  V30 35758 H 3313.11 5.44889 -2.1993 0
M  V30 35759 H 3314.63 5.94153 -1.40764 0
M  V30 35760 H 3316.05 4.6871 -3.30127 0
M  V30 35761 H 3314.44 4.42901 -4.04918 0
M  V30 35762 H 3315.51 3.04211 -3.77602 0
M  V30 35763 N 3316.86 1.12911 1.0995 0
M  V30 35764 C 3317.79 0.824052 2.18476 0
M  V30 35765 C 3318.77 -0.214295 1.68745 0
M  V30 35766 O 3319.95 -0.074394 1.94057 0
M  V30 35767 C 3317.08 0.283369 3.46142 0
M  V30 35768 C 3316.04 1.25535 4.09176 0
M  V30 35769 C 3315.36 0.574667 5.31603 0
M  V30 35770 C 3316.66 2.61188 4.52303 0
M  V30 35771 H 3318.36 1.73153 2.44251 0
M  V30 35772 H 3315.9 0.833973 1.17392 0
M  V30 35773 H 3317.86 0.0576571 4.21361 0
M  V30 35774 H 3316.58 -0.659469 3.19873 0
M  V30 35775 H 3315.24 1.46696 3.3597 0
M  V30 35776 H 3314.89 -0.373472 5.01612 0
M  V30 35777 H 3314.59 1.22309 5.7473 0
M  V30 35778 H 3316.11 0.358111 6.09549 0
M  V30 35779 H 3317.52 2.44027 5.18772 0
M  V30 35780 H 3315.92 3.22155 5.06296 0
M  V30 35781 H 3316.99 3.19255 3.64971 0
M  V30 35782 N 3318.33 -1.27832 0.92178 0
M  V30 35783 C 3319.58 -1.93915 0.554965 0
M  V30 35784 C 3319.9 -1.73292 -0.90716 0
M  V30 35785 O 3321.1 -2.33665 -1.38249 0
M  V30 35786 C 3319.56 -3.47361 0.941705 0
M  V30 35787 C 3319.17 -3.76751 2.42411 0
M  V30 35788 C 3320.91 -4.19558 0.645859 0
M  V30 35789 C 3318.82 -5.23544 2.75056 0
M  V30 35790 H 3317.75 -0.725926 0.203831 0
M  V30 35791 H 3320.4 -1.45218 1.12179 0
M  V30 35792 H 3318.78 -3.94835 0.303588 0
M  V30 35793 H 3319.95 -3.40057 3.10963 0
M  V30 35794 H 3318.27 -3.17744 2.69124 0
M  V30 35795 H 3320.87 -5.27635 0.86633 0
M  V30 35796 H 3321.21 -4.14209 -0.416688 0
M  V30 35797 H 3321.74 -3.77888 1.24281 0
M  V30 35798 H 3318.48 -5.33977 3.80196 0
M  V30 35799 H 3318 -5.61406 2.11148 0
M  V30 35800 H 3319.68 -5.91364 2.62485 0
M  V30 35801 N 3319.81 -0.686634 -1.41856 0
M  V30 35802 C 3321.04 -0.222597 -2.05699 0
M  V30 35803 C 3321.46 1.12478 -1.51638 0
M  V30 35804 O 3320.81 1.70111 -0.660955 0
M  V30 35805 C 3320.86 -0.161881 -3.61137 0
M  V30 35806 O 3320.58 -1.45603 -4.13197 0
M  V30 35807 C 3322.09 0.324226 -4.42113 0
M  V30 35808 H 3319.31 -0.105442 -0.662664 0
M  V30 35809 H 3321.85 -0.936703 -1.81786 0
M  V30 35810 H 3320 0.502989 -3.84121 0
M  V30 35811 H 3320.42 -1.33721 -5.07168 0
M  V30 35812 H 3321.89 0.315597 -5.51097 0
M  V30 35813 H 3322.37 1.36157 -4.17562 0
M  V30 35814 H 3322.98 -0.309325 -4.24174 0
M  V30 35815 N 3321.29 1.51599 -0.430766 0
M  V30 35816 C 3322.22 2.25325 0.419687 0
M  V30 35817 C 3323.24 1.29093 0.991903 0
M  V30 35818 O 3324.42 1.54893 0.887161 0
M  V30 35819 C 3321.52 2.98839 1.59838 0
M  V30 35820 C 3320.7 4.22114 1.14622 0
M  V30 35821 C 3319.76 4.78265 2.19428 0
M  V30 35822 O 3318.78 5.40278 1.79131 0
M  V30 35823 N 3319.98 4.61723 3.51841 0
M  V30 35824 H 3322.75 2.98948 -0.212165 0
M  V30 35825 H 3320.31 1.5981 -0.259297 0
M  V30 35826 H 3322.3 3.33292 2.29561 0
M  V30 35827 H 3320.87 2.28268 2.13571 0
M  V30 35828 H 3320.09 3.93231 0.276298 0
M  V30 35829 H 3321.38 5.02126 0.8214 0
M  V30 35830 H 3320.78 4.12313 3.87317 0
M  V30 35831 H 3319.34 5.00555 4.17477 0
M  V30 35832 N 3322.77 0.161897 1.56766 0
M  V30 35833 C 3323.7 -0.767879 2.20513 0
M  V30 35834 C 3324.68 -1.2461 1.15785 0
M  V30 35835 O 3325.86 -1.30097 1.44182 0
M  V30 35836 C 3322.99 -2.0012 2.83847 0
M  V30 35837 C 3321.95 -1.65919 3.94531 0
M  V30 35838 C 3321.27 -2.96638 4.44871 0
M  V30 35839 C 3322.57 -0.894406 5.14585 0
M  V30 35840 H 3324.27 -0.236555 2.98464 0
M  V30 35841 H 3321.81 -0.112338 1.43561 0
M  V30 35842 H 3323.77 -2.65658 3.27114 0
M  V30 35843 H 3322.49 -2.5565 2.0325 0
M  V30 35844 H 3321.15 -1.02753 3.51905 0
M  V30 35845 H 3320.8 -3.50189 3.61077 0
M  V30 35846 H 3320.5 -2.74512 5.19536 0
M  V30 35847 H 3322.02 -3.63222 4.90818 0
M  V30 35848 H 3323.44 -1.45218 5.54603 0
M  V30 35849 H 3321.83 -0.772531 5.95107 0
M  V30 35850 H 3322.9 0.111071 4.84773 0
M  V30 35851 N 3324.25 -1.57203 -0.111858 0
M  V30 35852 C 3325.16 -2.04167 -1.15556 0
M  V30 35853 C 3326.17 -0.96338 -1.44897 0
M  V30 35854 O 3327.35 -1.27539 -1.55871 0
M  V30 35855 C 3324.41 -2.44261 -2.46044 0
M  V30 35856 C 3323.47 -3.66205 -2.24037 0
M  V30 35857 C 3322.71 -4.04377 -3.48303 0
M  V30 35858 O 3322.93 -3.42814 -4.55889 0
M  V30 35859 O 3321.86 -4.97436 -3.38882 0
M  V30 35860 H 3325.69 -2.93333 -0.786727 0
M  V30 35861 H 3323.28 -1.45863 -0.32317 0
M  V30 35862 H 3325.16 -2.70751 -3.22912 0
M  V30 35863 H 3323.83 -1.58238 -2.82387 0
M  V30 35864 H 3322.74 -3.44854 -1.45004 0
M  V30 35865 H 3324.07 -4.52955 -1.92594 0
M  V30 35866 N 3325.72 0.382237 -1.52894 0
M  V30 35867 C 3326.97 1.12382 -1.67491 0
M  V30 35868 C 3327.29 1.90936 -0.424599 0
M  V30 35869 O 3328.49 2.67731 -0.45081 0
M  V30 35870 C 3326.95 2.04691 -2.96023 0
M  V30 35871 C 3326.56 1.31528 -4.28257 0
M  V30 35872 C 3328.3 2.78943 -3.19986 0
M  V30 35873 C 3326.21 2.22642 -5.47891 0
M  V30 35874 H 3325.14 0.423235 -0.62401 0
M  V30 35875 H 3327.79 0.386075 -1.79393 0
M  V30 35876 H 3326.17 2.82129 -2.77883 0
M  V30 35877 H 3327.34 0.59269 -4.56972 0
M  V30 35878 H 3325.66 0.692075 -4.10608 0
M  V30 35879 H 3328.26 3.47309 -4.06547 0
M  V30 35880 H 3328.6 3.43395 -2.35341 0
M  V30 35881 H 3329.13 2.08596 -3.38722 0
M  V30 35882 H 3325.87 1.62795 -6.34963 0
M  V30 35883 H 3325.39 2.92798 -5.23478 0
M  V30 35884 H 3327.07 2.82575 -5.82031 0
M  V30 35885 N 3327.2 1.43972 0.64108 0
M  V30 35886 C 3328.13 1.52888 1.76487 0
M  V30 35887 C 3329.11 0.382609 1.65741 0
M  V30 35888 O 3330.3 0.60143 1.84652 0
M  V30 35889 C 3327.43 1.46316 3.14975 0
M  V30 35890 C 3326.38 2.59317 3.40498 0
M  V30 35891 C 3325.71 2.37797 4.78912 0
M  V30 35892 C 3327.01 4.01514 3.34041 0
M  V30 35893 H 3328.7 2.46949 1.69282 0
M  V30 35894 H 3326.25 1.18855 0.812994 0
M  V30 35895 H 3328.2 1.51156 3.93357 0
M  V30 35896 H 3326.93 0.487656 3.22939 0
M  V30 35897 H 3325.59 2.53851 2.64491 0
M  V30 35898 H 3325.23 1.38462 4.83567 0
M  V30 35899 H 3324.93 3.13554 4.96948 0
M  V30 35900 H 3326.46 2.44439 5.59537 0
M  V30 35901 H 3327.87 4.08403 4.02343 0
M  V30 35902 H 3326.27 4.77394 3.63613 0
M  V30 35903 H 3327.34 4.2579 2.32015 0
M  V30 35904 N 3328.68 -0.880575 1.30704 0
M  V30 35905 C 3329.63 -2.00815 1.17372 0
M  V30 35906 C 3330.62 -1.69189 0.0845457 0
M  V30 35907 O 3331.83 -1.78315 0.245704 0
M  V30 35908 H 3328.2 -0.65852 0.363119 0
M  V30 35909 H 3330.18 -2.09193 2.12793 0
M  V30 35910 C 3328.92 -3.36198 0.88691 0
M  V30 35911 H 3328.25 -3.61048 1.71711 0
M  V30 35912 H 3329.69 -4.15722 0.833753 0
M  V30 35913 C 3328.15 -3.34393 -0.410234 0
M  V30 35914 O 3328.68 -3.75371 -1.43038 0
M  V30 35915 N 3326.88 -2.87505 -0.422973 0
M  V30 35916 H 3326.43 -2.54354 0.407681 0
M  V30 35917 H 3326.39 -2.8668 -1.29081 0
M  V30 35918 N 3330.16 -1.13492 -1.09349 0
M  V30 35919 C 3331.11 -0.808465 -2.18098 0
M  V30 35920 C 3332.1 0.209542 -1.68099 0
M  V30 35921 O 3333.31 0.06661 -1.79877 0
M  V30 35922 H 3329.68 -0.24367 -0.711427 0
M  V30 35923 H 3331.65 -1.73377 -2.42864 0
M  V30 35924 C 3330.4 -0.291676 -3.46474 0
M  V30 35925 H 3329.73 -1.06634 -3.85317 0
M  V30 35926 H 3331.17 -0.101691 -4.23878 0
M  V30 35927 C 3329.62 0.982771 -3.22247 0
M  V30 35928 O 3330.15 2.05844 -3.44951 0
M  V30 35929 N 3328.36 0.914169 -2.75847 0
M  V30 35930 H 3327.91 0.0386747 -2.57571 0
M  V30 35931 H 3327.87 1.76748 -2.60014 0
M  V30 35932 N 3331.64 1.27341 -0.928546 0
M  V30 35933 C 3332.57 2.29207 -0.445668 0
M  V30 35934 C 3333.55 1.62754 0.49448 0
M  V30 35935 O 3334.73 1.90056 0.399049 0
M  V30 35936 C 3331.86 3.45988 0.301624 0
M  V30 35937 C 3330.82 4.24441 -0.550769 0
M  V30 35938 C 3330.14 5.33707 0.325739 0
M  V30 35939 C 3331.44 4.89725 -1.81567 0
M  V30 35940 H 3333.14 2.69848 -1.29701 0
M  V30 35941 H 3330.68 1.29724 -0.625108 0
M  V30 35942 H 3332.64 4.16351 0.650382 0
M  V30 35943 H 3331.36 3.04266 1.18699 0
M  V30 35944 H 3330.02 3.55826 -0.882247 0
M  V30 35945 H 3329.67 4.88227 1.21009 0
M  V30 35946 H 3329.37 5.87105 -0.241097 0
M  V30 35947 H 3330.89 6.06912 0.67005 0
M  V30 35948 H 3332.31 5.5237 -1.53493 0
M  V30 35949 H 3330.7 5.53185 -2.32607 0
M  V30 35950 H 3331.77 4.13378 -2.53469 0
M  V30 35951 N 3333.12 0.694147 1.4149 0
M  V30 35952 C 3334.05 0.042258 2.33462 0
M  V30 35953 C 3335.03 -0.768693 1.5174 0
M  V30 35954 O 3336.21 -0.721953 1.80282 0
M  V30 35955 C 3333.34 -0.895866 3.35547 0
M  V30 35956 C 3332.3 -0.192113 4.27569 0
M  V30 35957 C 3331.62 -1.2445 5.20016 0
M  V30 35958 C 3332.92 0.940716 5.13759 0
M  V30 35959 H 3334.62 0.810414 2.88223 0
M  V30 35960 H 3332.16 0.391164 1.38585 0
M  V30 35961 H 3334.11 -1.36114 3.98812 0
M  V30 35962 H 3332.84 -1.69567 2.79132 0
M  V30 35963 H 3331.5 0.253114 3.65725 0
M  V30 35964 H 3331.15 -2.03679 4.59917 0
M  V30 35965 H 3330.85 -0.778632 5.82418 0
M  V30 35966 H 3332.37 -1.71031 5.86158 0
M  V30 35967 H 3333.78 0.555792 5.706 0
M  V30 35968 H 3332.18 1.33359 5.85094 0
M  V30 35969 H 3333.25 1.78101 4.51008 0
M  V30 35970 N 3334.59 -1.51368 0.438799 0
M  V30 35971 C 3335.84 -2.01289 -0.128688 0
M  V30 35972 C 3336.16 -1.32748 -1.43657 0
M  V30 35973 O 3337.36 -1.73646 -2.08709 0
M  V30 35974 C 3335.82 -3.5881 -0.279881 0
M  V30 35975 C 3335.43 -4.36289 1.01765 0
M  V30 35976 C 3337.17 -4.16873 -0.80106 0
M  V30 35977 C 3335.08 -5.85518 0.832021 0
M  V30 35978 H 3334.01 -0.752214 -0.0518682 0
M  V30 35979 H 3336.66 -1.74462 0.568784 0
M  V30 35980 H 3335.04 -3.82089 -1.04039 0
M  V30 35981 H 3336.21 -4.24755 1.78661 0
M  V30 35982 H 3334.53 -3.89685 1.46747 0
M  V30 35983 H 3337.13 -5.26076 -0.956456 0
M  V30 35984 H 3337.47 -3.76142 -1.78389 0
M  V30 35985 H 3338 -3.97677 -0.0988234 0
M  V30 35986 H 3334.74 -6.30664 1.78728 0
M  V30 35987 H 3334.26 -5.99712 0.10289 0
M  V30 35988 H 3335.94 -6.45174 0.485795 0
M  V30 35989 N 3336.07 -0.170208 -1.56678 0
M  V30 35990 C 3337.3 0.484507 -2.01661 0
M  V30 35991 C 3337.72 1.5609 -1.04965 0
M  V30 35992 O 3337.08 1.81277 -0.0290205 0
M  V30 35993 C 3337.13 1.04078 -3.45254 0
M  V30 35994 O 3336.23 2.15482 -3.51627 0
M  V30 35995 H 3335.57 0.116123 -0.653767 0
M  V30 35996 H 3338.1 -0.273773 -2.0276 0
M  V30 35997 H 3338.11 1.36366 -3.84536 0
M  V30 35998 H 3336.79 0.252665 -4.15132 0
M  V30 35999 H 3335.36 1.84246 -3.24203 0
M  V30 36000 N 3337.55 1.5726 0.10352 0
M  V30 36001 C 3338.46 2.04777 1.14472 0
M  V30 36002 C 3339.48 0.97105 1.44384 0
M  V30 36003 O 3340.65 1.28364 1.55192 0
M  V30 36004 C 3337.72 2.45562 2.44745 0
M  V30 36005 C 3336.78 3.67388 2.22091 0
M  V30 36006 C 3336.01 4.06219 3.46153 0
M  V30 36007 O 3336.23 3.45227 4.54064 0
M  V30 36008 O 3335.17 4.99226 3.36239 0
M  V30 36009 H 3338.99 2.93746 0.771159 0
M  V30 36010 H 3336.58 1.46032 0.31543 0
M  V30 36011 H 3338.46 2.7246 3.21471 0
M  V30 36012 H 3337.14 1.59733 2.81544 0
M  V30 36013 H 3336.04 3.45619 1.43173 0
M  V30 36014 H 3337.38 4.5397 1.90189 0
M  V30 36015 N 3339.03 -0.374123 1.53095 0
M  V30 36016 C 3340.3 -1.1328 1.59458 0
M  V30 36017 C 3340.68 -2.07336 0.396857 0
M  V30 36018 O 3340.03 -2.20107 -0.61362 0
M  V30 36019 C 3340.24 -1.87942 2.94073 0
M  V30 36020 C 3341.59 -2.42779 3.48344 0
M  V30 36021 O 3342.61 -1.9808 2.96045 0
M  V30 36022 O 3341.47 -3.24469 4.39752 0
M  V30 36023 H 3338.57 -0.51916 0.643741 0
M  V30 36024 H 3341.11 -0.378076 1.65435 0
M  V30 36025 H 3339.89 -1.19249 3.72687 0
M  V30 36026 H 3339.51 -2.70343 2.91549 0
M  V30 36027 N 3340.51 -1.4431 -0.633436 0
M  V30 36028 C 3341.44 -1.53822 -1.75673 0
M  V30 36029 C 3342.42 -0.391394 -1.65536 0
M  V30 36030 O 3343.6 -0.611214 -1.84331 0
M  V30 36031 C 3340.73 -1.47984 -3.14194 0
M  V30 36032 C 3339.69 -2.61119 -3.39118 0
M  V30 36033 C 3339.01 -2.40334 -4.77644 0
M  V30 36034 C 3340.31 -4.0328 -3.31907 0
M  V30 36035 H 3342.01 -2.47844 -1.6797 0
M  V30 36036 H 3339.55 -1.19284 -0.806679 0
M  V30 36037 H 3341.5 -1.5324 -3.9255 0
M  V30 36038 H 3340.23 -0.504775 -3.22676 0
M  V30 36039 H 3338.89 -2.5525 -2.63141 0
M  V30 36040 H 3338.54 -1.41025 -4.82826 0
M  V30 36041 H 3338.24 -3.16185 -4.95278 0
M  V30 36042 H 3339.76 -2.47403 -5.58233 0
M  V30 36043 H 3341.17 -4.10531 -4.00171 0
M  V30 36044 H 3339.57 -4.79316 -3.61076 0
M  V30 36045 H 3340.64 -4.27014 -2.29754 0
M  V30 36046 N 3341.98 0.873632 -1.3117 0
M  V30 36047 C 3343.4 1.44201 -1.18587 0
M  V30 36048 C 3343.75 1.95083 0.209079 0
M  V30 36049 O 3342.87 1.85967 1.10658 0
M  V30 36050 C 3343.47 2.62109 -2.14673 0
M  V30 36051 C 3342.03 3.15003 -2.06035 0
M  V30 36052 C 3341.17 1.87709 -2.0411 0
M  V30 36053 H 3344.12 0.682511 -1.43274 0
M  V30 36054 H 3344.14 3.38683 -1.73419 0
M  V30 36055 H 3343.66 2.25046 -3.1619 0
M  V30 36056 H 3341.76 3.56695 -1.077 0
M  V30 36057 H 3341.87 3.77534 -2.94966 0
M  V30 36058 H 3340.23 2.06518 -1.49072 0
M  V30 36059 H 3341.02 1.52888 -3.07376 0
M  V30 36060 N 3343.46 1.1407 1.08746 0
M  V30 36061 C 3344.43 0.827304 2.13748 0
M  V30 36062 C 3345.43 -0.166468 1.59936 0
M  V30 36063 O 3346.62 0.0614611 1.74092 0
M  V30 36064 C 3343.75 0.232617 3.40105 0
M  V30 36065 H 3344.94 1.75784 2.42981 0
M  V30 36066 H 3342.49 0.946266 1.24401 0
M  V30 36067 H 3343.23 -0.706803 3.16504 0
M  V30 36068 H 3343.01 0.948359 3.80458 0
M  V30 36069 H 3344.5 0.0304396 4.17589 0
M  V30 36070 N 3344.94 -1.26847 0.935286 0
M  V30 36071 C 3345.9 -2.24841 0.44489 0
M  V30 36072 C 3346.9 -1.54642 -0.440754 0
M  V30 36073 O 3348.09 -1.72528 -0.240763 0
M  V30 36074 C 3345.23 -3.38999 -0.359506 0
M  V30 36075 H 3346.42 -2.69737 1.31079 0
M  V30 36076 H 3343.97 -1.389 0.71669 0
M  V30 36077 H 3344.71 -2.99495 -1.2439 0
M  V30 36078 H 3344.49 -3.9113 0.275598 0
M  V30 36079 H 3345.98 -4.11814 -0.692732 0
M  V30 36080 N 3346.42 -0.701641 -1.4112 0
M  V30 36081 C 3347.66 -0.23553 -2.01428 0
M  V30 36082 C 3348 1.1638 -1.55465 0
M  V30 36083 O 3347.27 1.78673 -0.768508 0
M  V30 36084 C 3347.56 -0.299982 -3.58848 0
M  V30 36085 C 3347.41 -1.73669 -4.14921 0
M  V30 36086 C 3348.73 0.336779 -4.3881 0
M  V30 36087 H 3345.85 -0.0870584 -0.73184 0
M  V30 36088 H 3348.49 -0.891509 -1.67786 0
M  V30 36089 H 3346.64 0.258542 -3.87639 0
M  V30 36090 H 3348.31 -2.34952 -3.96983 0
M  V30 36091 H 3346.55 -2.2689 -3.69734 0
M  V30 36092 H 3347.22 -1.73327 -5.24082 0
M  V30 36093 H 3349.7 -0.138959 -4.15868 0
M  V30 36094 H 3348.58 0.261167 -5.48278 0
M  V30 36095 H 3348.84 1.41836 -4.1873 0
M  V30 36096 N 3347.9 1.51133 -0.446821 0
M  V30 36097 C 3348.84 2.27978 0.359825 0
M  V30 36098 C 3349.81 1.31974 1.00857 0
M  V30 36099 O 3351 1.60887 1.02567 0
M  V30 36100 C 3348.14 3.13173 1.44972 0
M  V30 36101 C 3347.25 4.24182 0.818169 0
M  V30 36102 C 3346.39 4.96671 1.88391 0
M  V30 36103 C 3345.43 5.99588 1.2313 0
M  V30 36104 N 3344.56 6.65448 2.23882 0
M  V30 36105 H 3349.4 2.96468 -0.301827 0
M  V30 36106 H 3346.94 1.4622 -0.160692 0
M  V30 36107 H 3348.9 3.609 2.09302 0
M  V30 36108 H 3347.53 2.46778 2.08087 0
M  V30 36109 H 3346.58 3.80348 0.0629221 0
M  V30 36110 H 3347.89 4.97886 0.301798 0
M  V30 36111 H 3347.05 5.47994 2.6036 0
M  V30 36112 H 3345.78 4.22618 2.43403 0
M  V30 36113 H 3344.79 5.47548 0.497119 0
M  V30 36114 H 3346.01 6.75602 0.688386 0
M  V30 36115 H 3343.96 5.94202 2.77956 0
M  V30 36116 H 3343.88 7.34949 1.77163 0
M  V30 36117 H 3345.15 7.21398 2.95305 0
M  V30 36118 N 3349.37 0.178515 1.56586 0
M  V30 36119 C 3350.32 -0.765783 2.19633 0
M  V30 36120 C 3351.32 -1.23217 1.1625 0
M  V30 36121 O 3352.52 -1.19699 1.34433 0
M  V30 36122 H 3348.9 -0.265252 0.703666 0
M  V30 36123 H 3350.87 -0.210154 2.97659 0
M  V30 36124 C 3349.62 -1.98183 2.8569 0
M  V30 36125 H 3348.94 -1.632 3.64974 0
M  V30 36126 H 3350.38 -2.62128 3.33264 0
M  V30 36127 C 3348.84 -2.81006 1.85842 0
M  V30 36128 O 3349.37 -3.78394 1.34837 0
M  V30 36129 N 3347.58 -2.46164 1.54439 0
M  V30 36130 H 3347.12 -1.67029 1.9611 0
M  V30 36131 H 3347.08 -3.01867 0.878861 0
M  V30 36132 N 3350.85 -1.57312 -0.0951784 0
M  V30 36133 C 3352.1 -1.85269 -0.797384 0
M  V30 36134 C 3352.41 -0.767764 -1.79902 0
M  V30 36135 O 3353.62 -0.934454 -2.54912 0
M  V30 36136 C 3352.08 -3.28558 -1.46894 0
M  V30 36137 C 3351.68 -4.45121 -0.507074 0
M  V30 36138 C 3353.43 -3.65739 -2.15488 0
M  V30 36139 C 3351.34 -5.79443 -1.18321 0
M  V30 36140 H 3350.27 -0.691079 -0.301539 0
M  V30 36141 H 3352.92 -1.83431 -0.0503261 0
M  V30 36142 H 3351.3 -3.24937 -2.26345 0
M  V30 36143 H 3352.47 -4.60089 0.255939 0
M  V30 36144 H 3350.79 -4.16336 0.0731613 0
M  V30 36145 H 3353.38 -4.63376 -2.66808 0
M  V30 36146 H 3353.73 -2.94359 -2.94378 0
M  V30 36147 H 3354.26 -3.71248 -1.42897 0
M  V30 36148 H 3351 -6.54054 -0.435123 0
M  V30 36149 H 3350.52 -5.68319 -1.91765 0
M  V30 36150 H 3352.2 -6.24001 -1.70972 0
M  V30 36151 N 3352.33 0.365999 -1.53291 0
M  V30 36152 C 3353.26 1.47076 -1.74482 0
M  V30 36153 C 3354.24 1.51394 -0.593173 0
M  V30 36154 O 3355.43 1.69453 -0.825716 0
M  V30 36155 C 3352.55 2.8544 -1.82324 0
M  V30 36156 C 3351.6 2.98847 -3.04291 0
M  V30 36157 S 3352.43 2.67645 -4.63817 0
M  V30 36158 C 3353.59 4.0816 -4.74507 0
M  V30 36159 H 3353.82 1.28879 -2.67913 0
M  V30 36160 H 3351.35 0.56031 -1.43875 0
M  V30 36161 H 3353.31 3.65163 -1.87527 0
M  V30 36162 H 3351.97 3.00946 -0.899451 0
M  V30 36163 H 3351.17 4.0018 -3.06386 0
M  V30 36164 H 3350.77 2.27046 -2.97197 0
M  V30 36165 H 3353.06 5.02398 -4.54536 0
M  V30 36166 H 3354 4.11069 -5.76565 0
M  V30 36167 H 3354.41 3.9514 -4.03143 0
M  V30 36168 N 3353.81 1.44644 0.625774 0
M  V30 36169 C 3354.77 1.51558 1.71939 0
M  V30 36170 C 3355.77 0.397015 1.55822 0
M  V30 36171 O 3356.96 0.659838 1.6122 0
M  V30 36172 C 3354.09 1.39466 3.11066 0
M  V30 36173 H 3355.29 2.48979 1.67181 0
M  V30 36174 H 3352.84 1.31815 0.839911 0
M  V30 36175 H 3353.57 0.431591 3.21415 0
M  V30 36176 H 3353.36 2.2058 3.24171 0
M  V30 36177 H 3354.85 1.47297 3.9076 0
M  V30 36178 N 3355.29 -0.866663 1.31631 0
M  V30 36179 C 3356.7 -1.15294 1.1036 0
M  V30 36180 C 3356.9 -2.0112 -0.123772 0
M  V30 36181 O 3355.96 -2.39082 -0.812148 0
M  V30 36182 C 3357.27 -1.84188 2.37687 0
M  V30 36183 C 3358.82 -1.96876 2.43329 0
M  V30 36184 C 3359.29 -2.69184 3.70545 0
M  V30 36185 N 3360.79 -2.76718 3.71459 0
M  V30 36186 C 3361.52 -3.33287 4.66591 0
M  V30 36187 N 3361.02 -3.90761 5.72082 0
M  V30 36188 N 3362.81 -3.31276 4.54106 0
M  V30 36189 H 3354.96 -0.294833 2.10344 0
M  V30 36190 H 3357.22 -0.193223 0.9281 0
M  V30 36191 H 3356.93 -1.28576 3.27355 0
M  V30 36192 H 3356.8 -2.84441 2.47736 0
M  V30 36193 H 3359.19 -2.51652 1.54128 0
M  V30 36194 H 3359.27 -0.956554 2.37242 0
M  V30 36195 H 3358.92 -2.15075 4.60114 0
M  V30 36196 H 3358.85 -3.70818 3.739 0
M  V30 36197 H 3361.34 -2.3593 2.95204 0
M  V30 36198 H 3361.65 -4.32047 6.40746 0
M  V30 36199 H 3359.99 -3.89128 5.75851 0
M  V30 36200 H 3363.19 -2.85615 3.70866 0
M  V30 36201 H 3363.36 -3.75064 5.28423 0
M  V30 36202 N 3356.77 -1.14645 -1.0814 0
M  V30 36203 C 3357.99 -0.939958 -1.84316 0
M  V30 36204 C 3358.41 0.511604 -1.81736 0
M  V30 36205 O 3357.77 1.35459 -1.22299 0
M  V30 36206 C 3357.82 -1.4363 -3.31742 0
M  V30 36207 O 3357.54 -2.831 -3.34345 0
M  V30 36208 C 3359.04 -1.27014 -4.24714 0
M  V30 36209 H 3356.26 -0.334333 -0.581775 0
M  V30 36210 H 3358.8 -1.52224 -1.36558 0
M  V30 36211 H 3356.96 -0.89673 -3.76879 0
M  V30 36212 H 3357.37 -3.05432 -4.26393 0
M  V30 36213 H 3358.85 -1.666 -5.26259 0
M  V30 36214 H 3359.32 -0.213334 -4.38682 0
M  V30 36215 H 3359.93 -1.7984 -3.85406 0
M  V30 36216 N 3358.24 1.26349 -0.942 0
M  V30 36217 C 3359.52 1.88892 -0.507855 0
M  V30 36218 C 3359.9 1.85121 1.01457 0
M  V30 36219 O 3359.25 1.30609 1.87493 0
M  V30 36220 C 3359.46 3.32188 -1.07013 0
M  V30 36221 C 3360.81 4.0903 -1.13929 0
M  V30 36222 O 3361.83 3.4126 -1.02078 0
M  V30 36223 O 3360.69 5.30227 -1.32371 0
M  V30 36224 H 3357.78 0.810243 -0.165636 0
M  V30 36225 H 3360.33 1.34513 -1.03462 0
M  V30 36226 H 3359.1 3.29299 -2.11372 0
M  V30 36227 H 3358.72 3.94107 -0.525866 0
M  V30 36228 N 3359.72 0.709115 1.40746 0
M  V30 36229 C 3360.67 0.028967 2.27982 0
M  V30 36230 C 3361.66 -0.739139 1.42918 0
M  V30 36231 O 3362.85 -0.612404 1.66068 0
M  V30 36232 C 3359.98 -0.896798 3.3138 0
M  V30 36233 C 3359.06 -0.124222 4.23918 0
M  V30 36234 N 3359.45 0.889131 4.97924 0
M  V30 36235 C 3357.75 -0.35773 4.44563 0
M  V30 36236 C 3358.45 1.35278 5.65752 0
M  V30 36237 N 3357.43 0.676142 5.39379 0
M  V30 36238 H 3361.23 0.805725 2.8264 0
M  V30 36239 H 3358.74 0.541132 1.53119 0
M  V30 36240 H 3360.74 -1.39932 3.92714 0
M  V30 36241 H 3359.4 -1.673 2.78282 0
M  V30 36242 H 3360.41 1.26979 5.02092 0
M  V30 36243 H 3357.09 -1.11077 4.02453 0
M  V30 36244 H 3358.48 2.19443 6.35055 0
M  V30 36245 N 3361.2 -1.50894 0.454829 0
M  V30 36246 C 3362.61 -1.867 -0.00417931 0
M  V30 36247 C 3362.96 -1.37082 -1.40367 0
M  V30 36248 O 3362.09 -0.72892 -2.03754 0
M  V30 36249 C 3362.68 -3.38797 -0.0143601 0
M  V30 36250 C 3361.24 -3.74074 -0.417839 0
M  V30 36251 C 3360.39 -2.74711 0.378059 0
M  V30 36252 H 3363.34 -1.43869 0.669874 0
M  V30 36253 H 3363.36 -3.71557 -0.820106 0
M  V30 36254 H 3362.87 -3.7488 1.00433 0
M  V30 36255 H 3360.97 -3.43587 -1.44149 0
M  V30 36256 H 3361.09 -4.78922 -0.130484 0
M  V30 36257 H 3359.45 -2.54158 -0.166045 0
M  V30 36258 H 3360.23 -3.13637 1.39596 0
M  V30 36259 N 3362.68 -0.186817 -1.56489 0
M  V30 36260 C 3363.59 0.749503 -2.22305 0
M  V30 36261 C 3364.6 1.24113 -1.21951 0
M  V30 36262 O 3365.78 1.29002 -1.54663 0
M  V30 36263 C 3362.84 1.95527 -2.86304 0
M  V30 36264 C 3361.91 1.50903 -4.01904 0
M  V30 36265 C 3361.14 2.65732 -4.62841 0
M  V30 36266 O 3361.36 3.83003 -4.22688 0
M  V30 36267 O 3360.3 2.38919 -5.5245 0
M  V30 36268 H 3364.12 0.219027 -3.02909 0
M  V30 36269 H 3361.71 0.0420986 -1.49341 0
M  V30 36270 H 3363.59 2.66015 -3.26824 0
M  V30 36271 H 3362.26 2.47451 -2.08685 0
M  V30 36272 H 3361.17 0.773196 -3.66023 0
M  V30 36273 H 3362.5 1.03654 -4.81162 0
M  V30 36274 N 3364.16 1.57361 0.0868344 0
M  V30 36275 C 3365.57 1.75373 0.640411 0
M  V30 36276 C 3365.92 0.810172 1.78692 0
M  V30 36277 O 3365.04 -0.00936909 2.16398 0
M  V30 36278 C 3365.64 3.18012 1.1685 0
M  V30 36279 C 3364.2 3.3742 1.66807 0
M  V30 36280 C 3363.34 2.71143 0.581112 0
M  V30 36281 H 3366.29 1.58088 -0.139277 0
M  V30 36282 H 3366.32 3.2134 2.03766 0
M  V30 36283 H 3365.83 3.86661 0.333841 0
M  V30 36284 H 3363.93 2.73862 2.52647 0
M  V30 36285 H 3364.04 4.45784 1.75537 0
M  V30 36286 H 3362.41 2.33272 1.02255 0
M  V30 36287 H 3363.19 3.42438 -0.243107 0
M  V30 36288 N 3365.63 -0.357865 1.53483 0
M  V30 36289 C 3366.88 -1.09703 1.69257 0
M  V30 36290 C 3367.2 -1.90236 0.454921 0
M  V30 36291 O 3368.4 -2.6698 0.493347 0
M  V30 36292 C 3366.86 -1.99956 2.99242 0
M  V30 36293 C 3366.47 -1.24698 4.30296 0
M  V30 36294 C 3368.21 -2.73818 3.24383 0
M  V30 36295 C 3366.12 -2.13898 5.51364 0
M  V30 36296 H 3365.05 -0.413254 0.630664 0
M  V30 36297 H 3367.7 -0.357487 1.79984 0
M  V30 36298 H 3366.08 -2.77672 2.82337 0
M  V30 36299 H 3367.25 -0.519915 4.57858 0
M  V30 36300 H 3365.57 -0.626664 4.11657 0
M  V30 36301 H 3368.17 -3.40797 4.12021 0
M  V30 36302 H 3368.51 -3.39608 2.40775 0
M  V30 36303 H 3369.04 -2.03181 3.41998 0
M  V30 36304 H 3365.78 -1.52673 6.37473 0
M  V30 36305 H 3365.3 -2.84433 5.2807 0
M  V30 36306 H 3366.98 -2.7328 5.86453 0
M  V30 36307 N 3367.11 -1.44974 -0.618094 0
M  V30 36308 C 3368.04 -1.4884 -1.74296 0
M  V30 36309 C 3369.06 -0.380308 -1.58296 0
M  V30 36310 O 3370.25 -0.646787 -1.6637 0
M  V30 36311 C 3367.35 -1.31906 -3.12176 0
M  V30 36312 C 3366.52 -2.56199 -3.54515 0
M  V30 36313 C 3365.58 -2.33975 -4.7132 0
M  V30 36314 O 3364.6 -3.07534 -4.78969 0
M  V30 36315 N 3365.81 -1.37864 -5.63892 0
M  V30 36316 H 3368.57 -2.45818 -1.71446 0
M  V30 36317 H 3366.13 -1.40579 -0.803062 0
M  V30 36318 H 3368.12 -1.14865 -3.88057 0
M  V30 36319 H 3366.69 -0.432445 -3.09594 0
M  V30 36320 H 3365.91 -2.88428 -2.68706 0
M  V30 36321 H 3367.2 -3.38842 -3.79557 0
M  V30 36322 H 3366.6 -0.771371 -5.60416 0
M  V30 36323 H 3365.16 -1.26798 -6.39348 0
M  V30 36324 N 3368.59 0.85967 -1.32089 0
M  V30 36325 C 3369.52 1.98348 -1.23208 0
M  V30 36326 C 3370.5 1.69697 -0.117003 0
M  V30 36327 O 3371.69 1.91816 -0.303335 0
M  V30 36328 C 3368.82 3.34076 -0.949229 0
M  V30 36329 C 3367.77 3.77065 -2.02499 0
M  V30 36330 C 3367.1 5.10368 -1.59464 0
M  V30 36331 C 3368.4 3.93068 -3.43941 0
M  V30 36332 H 3370.09 2.06037 -2.17231 0
M  V30 36333 H 3367.64 0.989912 -1.04579 0
M  V30 36334 H 3369.59 4.12244 -0.873666 0
M  V30 36335 H 3368.31 3.26589 0.0266521 0
M  V30 36336 H 3366.97 3.01145 -2.09062 0
M  V30 36337 H 3366.62 4.99332 -0.606344 0
M  V30 36338 H 3366.32 5.40102 -2.31439 0
M  V30 36339 H 3367.84 5.91034 -1.53335 0
M  V30 36340 H 3369.26 4.61602 -3.39995 0
M  V30 36341 H 3367.65 4.34213 -4.14221 0
M  V30 36342 H 3368.72 2.96133 -3.8397 0
M  V30 36343 N 3370.07 1.15217 1.0753 0
M  V30 36344 C 3371.03 0.849928 2.12859 0
M  V30 36345 C 3372.03 -0.149495 1.60104 0
M  V30 36346 O 3373.22 0.0799224 1.74017 0
M  V30 36347 C 3370.35 0.268677 3.3984 0
M  V30 36348 H 3371.55 1.78351 2.41103 0
M  V30 36349 H 3369.1 0.959407 1.2339 0
M  V30 36350 H 3369.83 -0.673194 3.17236 0
M  V30 36351 H 3369.62 0.988659 3.79431 0
M  V30 36352 H 3371.11 0.0747288 4.17533 0
M  V30 36353 N 3371.55 -1.25848 0.948687 0
M  V30 36354 C 3372.78 -1.97191 0.616369 0
M  V30 36355 C 3373.18 -1.7077 -0.814508 0
M  V30 36356 O 3372.53 -0.976954 -1.55568 0
M  V30 36357 C 3372.59 -3.5076 0.787875 0
M  V30 36358 C 3372.25 -4.00846 2.19479 0
M  V30 36359 C 3373.25 -4.12004 3.17094 0
M  V30 36360 C 3370.94 -4.34664 2.51738 0
M  V30 36361 C 3372.93 -4.56284 4.45066 0
M  V30 36362 C 3370.62 -4.78632 3.7994 0
M  V30 36363 C 3371.61 -4.89404 4.76417 0
M  V30 36364 O 3371.3 -5.32399 6.02334 0
M  V30 36365 H 3371.03 -0.635489 0.230498 0
M  V30 36366 H 3373.59 -1.61131 1.27382 0
M  V30 36367 H 3371.82 -3.86631 0.0732834 0
M  V30 36368 H 3373.51 -4.03313 0.457498 0
M  V30 36369 H 3374.27 -3.86115 2.93497 0
M  V30 36370 H 3370.15 -4.2551 1.77376 0
M  V30 36371 H 3373.7 -4.64607 5.20371 0
M  V30 36372 H 3369.59 -5.03966 4.03347 0
M  V30 36373 H 3370.36 -5.506 6.05625 0
M  V30 36374 N 3373.02 -0.716569 -1.40368 0
M  V30 36375 C 3373.97 -0.0535129 -2.32538 0
M  V30 36376 C 3374.97 0.745958 -1.52092 0
M  V30 36377 O 3376.17 0.649215 -1.67884 0
M  V30 36378 H 3372.55 0.00149766 -0.751999 0
M  V30 36379 H 3374.52 -0.847585 -2.86109 0
M  V30 36380 C 3373.27 0.853456 -3.37063 0
M  V30 36381 H 3372.59 0.247684 -3.99032 0
M  V30 36382 H 3374.03 1.28534 -4.04048 0
M  V30 36383 C 3372.49 1.97936 -2.72623 0
M  V30 36384 O 3373.02 3.07029 -2.59029 0
M  V30 36385 N 3371.23 1.76328 -2.30991 0
M  V30 36386 H 3370.77 0.876021 -2.42247 0
M  V30 36387 H 3370.73 2.5184 -1.88213 0
M  V30 36388 N 3374.5 1.50651 -0.462825 0
M  V30 36389 C 3375.73 2.07181 0.0952362 0
M  V30 36390 C 3376.15 1.32535 1.33476 0
M  V30 36391 O 3375.51 0.370596 1.77472 0
M  V30 36392 C 3375.56 3.58691 0.370529 0
M  V30 36393 O 3374.66 3.85973 1.45253 0
M  V30 36394 H 3374 0.663934 -0.00933869 0
M  V30 36395 H 3376.53 1.9395 -0.651492 0
M  V30 36396 H 3376.54 4.03361 0.61348 0
M  V30 36397 H 3375.22 4.12441 -0.535291 0
M  V30 36398 H 3373.8 3.53148 1.19754 0
M  V30 36399 N 3375.98 0.195113 1.56388 0
M  V30 36400 C 3377.21 -0.448602 2.01671 0
M  V30 36401 C 3377.62 -1.55734 1.07441 0
M  V30 36402 O 3376.96 -1.83561 0.0714732 0
M  V30 36403 C 3377.02 -1.06541 3.4335 0
M  V30 36404 C 3376.69 -0.0954097 4.569 0
M  V30 36405 C 3377.68 0.695207 5.15231 0
M  V30 36406 C 3375.37 0.0156772 5.02298 0
M  V30 36407 C 3377.36 1.58388 6.17408 0
M  V30 36408 C 3375.05 0.907905 6.04318 0
M  V30 36409 C 3376.05 1.69057 6.61747 0
M  V30 36410 O 3375.74 2.56785 7.61785 0
M  V30 36411 H 3375.47 -0.116951 0.665807 0
M  V30 36412 H 3378.02 0.301098 2.03181 0
M  V30 36413 H 3376.25 -1.8637 3.38826 0
M  V30 36414 H 3377.94 -1.61378 3.7244 0
M  V30 36415 H 3378.71 0.619689 4.81025 0
M  V30 36416 H 3374.59 -0.583344 4.57294 0
M  V30 36417 H 3378.13 2.19522 6.6216 0
M  V30 36418 H 3374.03 0.984539 6.37948 0
M  V30 36419 H 3374.8 2.50564 7.79205 0
M  V30 36420 N 3377.46 -1.57404 -0.0784879 0
M  V30 36421 C 3378.37 -2.06572 -1.11199 0
M  V30 36422 C 3379.38 -0.993897 -1.4282 0
M  V30 36423 O 3380.56 -1.30817 -1.53131 0
M  V30 36424 C 3377.63 -2.49425 -2.40808 0
M  V30 36425 C 3376.69 -3.70875 -2.16218 0
M  V30 36426 C 3375.92 -4.11674 -3.39647 0
M  V30 36427 O 3376.14 -3.52407 -4.48514 0
M  V30 36428 O 3375.08 -5.04512 -3.28254 0
M  V30 36429 H 3378.9 -2.94936 -0.724329 0
M  V30 36430 H 3376.49 -1.46516 -0.292158 0
M  V30 36431 H 3378.37 -2.77539 -3.17096 0
M  V30 36432 H 3377.04 -1.64192 -2.78967 0
M  V30 36433 H 3375.95 -3.47853 -1.37657 0
M  V30 36434 H 3377.28 -4.56938 -1.82943 0
M  V30 36435 N 3378.94 0.34972 -1.53671 0
M  V30 36436 C 3380.18 1.09227 -1.70872 0
M  V30 36437 C 3380.52 1.88493 -0.467332 0
M  V30 36438 O 3379.79 1.86981 0.535586 0
M  V30 36439 C 3380.07 2.03852 -2.96844 0
M  V30 36440 C 3379.93 1.28089 -4.31176 0
M  V30 36441 C 3381.25 3.03757 -3.18464 0
M  V30 36442 H 3378.36 0.3957 -0.621764 0
M  V30 36443 H 3381.01 0.371448 -1.86334 0
M  V30 36444 H 3379.16 2.65318 -2.83793 0
M  V30 36445 H 3380.83 0.692853 -4.56067 0
M  V30 36446 H 3379.07 0.582848 -4.29867 0
M  V30 36447 H 3379.74 1.97431 -5.15485 0
M  V30 36448 H 3382.22 2.52403 -3.30805 0
M  V30 36449 H 3381.09 3.67175 -4.08012 0
M  V30 36450 H 3381.36 3.74799 -2.34474 0
M  V30 36451 N 3380.41 1.45299 0.610397 0
M  V30 36452 C 3381.35 1.49763 1.73504 0
M  V30 36453 C 3382.36 0.388698 1.58092 0
M  V30 36454 O 3383.55 0.655601 1.66024 0
M  V30 36455 C 3380.65 1.3356 3.11472 0
M  V30 36456 C 3379.82 2.58076 3.53151 0
M  V30 36457 C 3378.88 2.36471 4.70072 0
M  V30 36458 O 3377.91 3.1007 4.77332 0
M  V30 36459 N 3379.11 1.40853 5.63153 0
M  V30 36460 H 3381.87 2.46724 1.7014 0
M  V30 36461 H 3379.43 1.41003 0.795596 0
M  V30 36462 H 3381.43 1.16921 3.87442 0
M  V30 36463 H 3380 0.448857 3.09361 0
M  V30 36464 H 3379.22 2.89849 2.67172 0
M  V30 36465 H 3380.5 3.4085 3.77755 0
M  V30 36466 H 3379.9 0.801081 5.59999 0
M  V30 36467 H 3378.46 1.30187 6.38666 0
M  V30 36468 N 3381.89 -0.852653 1.32543 0
M  V30 36469 C 3383.14 -1.60936 1.234 0
M  V30 36470 C 3383.47 -1.93133 -0.20326 0
M  V30 36471 O 3382.75 -1.57521 -1.14094 0
M  V30 36472 C 3383.03 -2.92838 2.09566 0
M  V30 36473 C 3382.88 -2.6741 3.6168 0
M  V30 36474 C 3384.2 -3.94129 1.95832 0
M  V30 36475 H 3381.32 -0.583963 0.449618 0
M  V30 36476 H 3383.96 -0.984432 1.62508 0
M  V30 36477 H 3382.11 -3.46173 1.76342 0
M  V30 36478 H 3383.78 -2.20614 4.05126 0
M  V30 36479 H 3382.03 -2.0134 3.84245 0
M  V30 36480 H 3382.7 -3.61339 4.17298 0
M  V30 36481 H 3385.17 -3.50058 2.24941 0
M  V30 36482 H 3384.05 -4.84276 2.58396 0
M  V30 36483 H 3384.31 -4.32282 0.926542 0
M  V30 36484 N 3383.37 -1.15786 -1.06918 0
M  V30 36485 C 3384.78 -0.944151 -1.61067 0
M  V30 36486 C 3385.13 0.513489 -1.89361 0
M  V30 36487 O 3384.26 1.38546 -1.66234 0
M  V30 36488 C 3384.85 -1.70748 -2.92627 0
M  V30 36489 C 3383.41 -1.53893 -3.43502 0
M  V30 36490 C 3382.56 -1.72025 -2.17492 0
M  V30 36491 H 3385.51 -1.30748 -0.899487 0
M  V30 36492 H 3385.53 -1.17957 -3.61755 0
M  V30 36493 H 3385.04 -2.76833 -2.72002 0
M  V30 36494 H 3383.14 -0.502218 -3.692 0
M  V30 36495 H 3383.26 -2.31876 -4.1925 0
M  V30 36496 H 3381.62 -1.14714 -2.27405 0
M  V30 36497 H 3382.4 -2.79485 -1.99357 0
M  V30 36498 N 3384.85 1.25343 -0.955348 0
M  V30 36499 C 3386.09 1.93364 -0.611422 0
M  V30 36500 C 3386.43 1.74634 0.849499 0
M  V30 36501 O 3385.7 1.09188 1.6096 0
M  V30 36502 C 3385.99 3.46739 -0.971793 0
M  V30 36503 C 3385.84 3.74692 -2.4885 0
M  V30 36504 C 3387.16 4.3728 -0.497372 0
M  V30 36505 H 3384.28 0.702261 -0.223603 0
M  V30 36506 H 3386.92 1.47947 -1.19213 0
M  V30 36507 H 3385.07 3.85553 -0.477636 0
M  V30 36508 H 3386.74 3.4551 -3.05647 0
M  V30 36509 H 3384.98 3.20273 -2.92588 0
M  V30 36510 H 3385.65 4.81955 -2.69115 0
M  V30 36511 H 3388.13 4.05773 -0.921268 0
M  V30 36512 H 3387.01 5.43355 -0.778209 0
M  V30 36513 H 3387.27 4.37973 0.602666 0
M  V30 36514 N 3386.33 0.724003 1.39986 0
M  V30 36515 C 3387.26 0.0917692 2.3332 0
M  V30 36516 C 3388.24 -0.736334 1.53337 0
M  V30 36517 O 3389.42 -0.68355 1.81772 0
M  V30 36518 C 3386.55 -0.82449 3.37371 0
M  V30 36519 C 3385.51 -0.101376 4.2788 0
M  V30 36520 C 3384.83 -1.13392 5.22538 0
M  V30 36521 C 3386.13 1.04948 5.11648 0
M  V30 36522 H 3387.83 0.871368 2.86439 0
M  V30 36523 H 3385.37 0.420472 1.37724 0
M  V30 36524 H 3387.33 -1.27624 4.01609 0
M  V30 36525 H 3386.05 -1.63608 2.82666 0
M  V30 36526 H 3384.71 0.330633 3.65106 0
M  V30 36527 H 3384.36 -1.93878 4.64134 0
M  V30 36528 H 3384.06 -0.654917 5.83939 0
M  V30 36529 H 3385.58 -1.58559 5.89654 0
M  V30 36530 H 3387 0.6767 5.69292 0
M  V30 36531 H 3385.39 1.4574 5.82134 0
M  V30 36532 H 3386.46 1.87628 4.47128 0
M  V30 36533 N 3387.81 -1.50403 0.470808 0
M  V30 36534 C 3389.05 -2.02325 -0.0842804 0
M  V30 36535 C 3389.38 -1.35282 -1.39747 0
M  V30 36536 O 3388.64 -0.467397 -1.90037 0
M  V30 36537 C 3388.93 -3.55997 -0.316356 0
M  V30 36538 C 3388.6 -4.41517 0.915094 0
M  V30 36539 C 3387.26 -4.64608 1.25273 0
M  V30 36540 C 3389.61 -4.91473 1.73503 0
M  V30 36541 C 3386.94 -5.34901 2.41036 0
M  V30 36542 C 3389.29 -5.63038 2.88394 0
M  V30 36543 C 3387.96 -5.84383 3.22572 0
M  V30 36544 H 3387.23 -0.740358 -0.0308404 0
M  V30 36545 H 3389.88 -1.8102 0.624831 0
M  V30 36546 H 3388.18 -3.75815 -1.10771 0
M  V30 36547 H 3389.88 -3.93736 -0.759813 0
M  V30 36548 H 3386.47 -4.23764 0.642051 0
M  V30 36549 H 3390.65 -4.73488 1.48736 0
M  V30 36550 H 3385.91 -5.49635 2.67791 0
M  V30 36551 H 3390.08 -6.00729 3.52275 0
M  V30 36552 H 3387.71 -6.38628 4.12382 0
M  V30 36553 N 3389.28 -0.203404 -1.56282 0
M  V30 36554 C 3390.69 0.307719 -1.84147 0
M  V30 36555 C 3391.05 1.6079 -1.12432 0
M  V30 36556 O 3390.17 2.12895 -0.38789 0
M  V30 36557 C 3390.77 0.565093 -3.34054 0
M  V30 36558 C 3389.32 1.02057 -3.623 0
M  V30 36559 C 3388.47 0.0736856 -2.77202 0
M  V30 36560 H 3391.42 -0.42701 -1.52847 0
M  V30 36561 H 3391.44 1.41339 -3.53276 0
M  V30 36562 H 3390.96 -0.381368 -3.86222 0
M  V30 36563 H 3389.06 1.98102 -3.15573 0
M  V30 36564 H 3389.17 0.907531 -4.70426 0
M  V30 36565 H 3387.53 0.577126 -2.48075 0
M  V30 36566 H 3388.32 -0.867368 -3.32162 0
M  V30 36567 N 3390.76 1.57444 0.0701393 0
M  V30 36568 C 3391.71 2.03803 1.08319 0
M  V30 36569 C 3392.68 0.918971 1.38362 0
M  V30 36570 O 3393.86 1.18675 1.49402 0
M  V30 36571 C 3391 2.48825 2.39124 0
M  V30 36572 C 3390.12 3.74356 2.15596 0
M  V30 36573 C 3389.25 4.08154 3.39977 0
M  V30 36574 C 3388.29 5.2672 3.11821 0
M  V30 36575 N 3387.43 5.56149 4.28536 0
M  V30 36576 H 3392.27 2.90117 0.68088 0
M  V30 36577 H 3389.8 1.43473 0.324631 0
M  V30 36578 H 3391.76 2.7298 3.15496 0
M  V30 36579 H 3390.39 1.65486 2.77154 0
M  V30 36580 H 3389.44 3.5753 1.29909 0
M  V30 36581 H 3390.76 4.60865 1.908 0
M  V30 36582 H 3389.91 4.33219 4.24743 0
M  V30 36583 H 3388.65 3.20215 3.6785 0
M  V30 36584 H 3387.65 5.0145 2.25451 0
M  V30 36585 H 3388.88 6.16279 2.85268 0
M  V30 36586 H 3386.83 4.71169 4.56438 0
M  V30 36587 H 3386.74 6.3708 4.07019 0
M  V30 36588 H 3388.01 5.85766 5.14295 0
M  V30 36589 N 3392.24 -0.341566 1.53854 0
M  V30 36590 C 3393.49 -1.07902 1.70411 0
M  V30 36591 C 3393.8 -1.89743 0.475073 0
M  V30 36592 O 3395.01 -2.66442 0.521636 0
M  V30 36593 C 3393.46 -1.96771 3.01346 0
M  V30 36594 C 3393.07 -1.20127 4.31594 0
M  V30 36595 C 3394.82 -2.70362 3.27269 0
M  V30 36596 C 3392.72 -2.08038 5.53601 0
M  V30 36597 H 3391.65 -0.406542 0.635012 0
M  V30 36598 H 3394.3 -0.338377 1.80353 0
M  V30 36599 H 3392.69 -2.74662 2.85266 0
M  V30 36600 H 3393.86 -0.471324 4.58383 0
M  V30 36601 H 3392.17 -0.582967 4.12299 0
M  V30 36602 H 3394.77 -3.36408 4.15612 0
M  V30 36603 H 3395.11 -3.37035 2.44363 0
M  V30 36604 H 3395.65 -1.99542 3.44134 0
M  V30 36605 H 3392.39 -1.45903 6.39056 0
M  V30 36606 H 3391.91 -2.78816 5.31057 0
M  V30 36607 H 3393.59 -2.67044 5.89318 0
M  V30 36608 N 3393.72 -1.45621 -0.602683 0
M  V30 36609 C 3395.13 -1.30135 -0.92396 0
M  V30 36610 C 3395.33 -0.257995 -1.99842 0
M  V30 36611 O 3394.39 0.346371 -2.50113 0
M  V30 36612 C 3395.7 -2.68175 -1.36024 0
M  V30 36613 C 3397.25 -2.7611 -1.47418 0
M  V30 36614 C 3397.73 -4.14687 -1.9442 0
M  V30 36615 N 3399.22 -4.17005 -2.01646 0
M  V30 36616 C 3399.95 -5.21104 -2.39246 0
M  V30 36617 N 3399.45 -6.35545 -2.7578 0
M  V30 36618 N 3401.24 -5.08464 -2.39627 0
M  V30 36619 H 3393.39 -2.12128 0.107414 0
M  V30 36620 H 3395.65 -0.947887 -0.0146049 0
M  V30 36621 H 3395.36 -3.45737 -0.644889 0
M  V30 36622 H 3395.23 -2.96963 -2.32579 0
M  V30 36623 H 3397.62 -1.98849 -2.18043 0
M  V30 36624 H 3397.7 -2.51031 -0.491656 0
M  V30 36625 H 3397.35 -4.92435 -1.2438 0
M  V30 36626 H 3397.28 -4.37161 -2.93595 0
M  V30 36627 H 3399.77 -3.34423 -1.75982 0
M  V30 36628 H 3400.08 -7.10767 -3.03366 0
M  V30 36629 H 3398.43 -6.38939 -2.73464 0
M  V30 36630 H 3401.62 -4.18102 -2.10495 0
M  V30 36631 H 3401.79 -5.89708 -2.68604 0
M  V30 36632 N 3395.2 0.845612 -1.32993 0
M  V30 36633 C 3396.14 1.97632 -1.22655 0
M  V30 36634 C 3397.14 1.68905 -0.129373 0
M  V30 36635 O 3398.34 1.77601 -0.292895 0
M  V30 36636 H 3394.72 0.648661 -0.38045 0
M  V30 36637 H 3396.69 2.03477 -2.18265 0
M  V30 36638 C 3395.44 3.33728 -0.975736 0
M  V30 36639 H 3394.76 3.56368 -1.81223 0
M  V30 36640 H 3396.2 4.13365 -0.943681 0
M  V30 36641 C 3394.66 3.35363 0.321432 0
M  V30 36642 O 3395.19 3.79031 1.33035 0
M  V30 36643 N 3393.4 2.88526 0.346597 0
M  V30 36644 H 3392.94 2.53183 -0.474975 0
M  V30 36645 H 3392.9 2.90002 1.21435 0
M  V30 36646 N 3396.67 1.16351 1.06302 0
M  V30 36647 C 3397.92 0.943105 1.78745 0
M  V30 36648 C 3398.24 -0.53045 1.87647 0
M  V30 36649 O 3397.51 -1.38536 1.38508 0
M  V30 36650 H 3396.09 0.345944 0.662066 0
M  V30 36651 H 3398.75 1.46618 1.28411 0
M  V30 36652 H 3397.85 1.36175 2.80825 0
M  V30 36653 N 3398.15 -1.24835 0.961982 0
M  V30 36654 C 3399.06 -2.2932 0.494916 0
M  V30 36655 C 3400.08 -1.6831 -0.441333 0
M  V30 36656 O 3401.25 -1.98909 -0.315779 0
M  V30 36657 C 3398.32 -3.46046 -0.212883 0
M  V30 36658 C 3397.38 -4.22474 0.762485 0
M  V30 36659 C 3396.61 -5.33627 0.0883694 0
M  V30 36660 O 3396.84 -5.59206 -1.1245 0
M  V30 36661 O 3395.77 -5.96855 0.777634 0
M  V30 36662 H 3399.6 -2.71377 1.36338 0
M  V30 36663 H 3397.18 -1.3042 0.728761 0
M  V30 36664 H 3399.06 -4.16951 -0.610731 0
M  V30 36665 H 3397.74 -3.05977 -1.0564 0
M  V30 36666 H 3396.64 -3.53968 1.21068 0
M  V30 36667 H 3397.98 -4.66346 1.57424 0
M  V30 36668 N 3399.63 -0.731417 -1.396 0
M  V30 36669 C 3400.88 -0.278203 -2.00883 0
M  V30 36670 C 3401.21 1.13056 -1.57899 0
M  V30 36671 O 3400.48 1.77003 -0.806234 0
M  V30 36672 C 3400.77 -0.376032 -3.58131 0
M  V30 36673 C 3400.62 -1.82431 -4.11144 0
M  V30 36674 C 3401.94 0.243625 -4.39425 0
M  V30 36675 H 3399.06 -0.102562 -0.729829 0
M  V30 36676 H 3401.7 -0.926898 -1.65857 0
M  V30 36677 H 3399.85 0.17626 -3.881 0
M  V30 36678 H 3401.52 -2.4332 -3.9191 0
M  V30 36679 H 3399.76 -2.34682 -3.64838 0
M  V30 36680 H 3400.44 -1.84405 -5.20287 0
M  V30 36681 H 3402.91 -0.22714 -4.1548 0
M  V30 36682 H 3401.79 0.144811 -5.48709 0
M  V30 36683 H 3402.05 1.32922 -4.21645 0
M  V30 36684 N 3401.11 1.50152 -0.478778 0
M  V30 36685 C 3402.34 2.06778 0.0710122 0
M  V30 36686 C 3402.75 1.34177 1.32823 0
M  V30 36687 O 3402.11 0.413336 1.77758 0
M  V30 36688 C 3402.16 3.59789 0.351288 0
M  V30 36689 O 3401.88 4.29655 -0.856073 0
M  V30 36690 C 3403.38 4.33063 0.947193 0
M  V30 36691 H 3400.6 0.670918 -0.010515 0
M  V30 36692 H 3403.15 1.93221 -0.669766 0
M  V30 36693 H 3401.3 3.73123 1.04201 0
M  V30 36694 H 3401.71 5.20995 -0.605344 0
M  V30 36695 H 3403.19 5.4107 1.09302 0
M  V30 36696 H 3403.67 3.94066 1.9393 0
M  V30 36697 H 3404.27 4.24278 0.294619 0
M  V30 36698 N 3402.59 0.211689 1.56172 0
M  V30 36699 C 3403.86 -0.471161 1.89841 0
M  V30 36700 C 3404.24 -1.78459 1.12763 0
M  V30 36701 O 3403.59 -2.273 0.233857 0
M  V30 36702 C 3403.8 -0.673754 3.42435 0
M  V30 36703 C 3405.15 -0.985647 4.13001 0
M  V30 36704 O 3406.17 -0.760891 3.47978 0
M  V30 36705 O 3405.03 -1.41166 5.27953 0
M  V30 36706 H 3402.13 -0.247768 0.789012 0
M  V30 36707 H 3404.67 0.253139 1.67801 0
M  V30 36708 H 3403.44 0.253102 3.90481 0
M  V30 36709 H 3403.07 -1.44991 3.70221 0
M  V30 36710 N 3404.06 -1.57479 -0.0617887 0
M  V30 36711 C 3405.29 -1.9197 -0.771691 0
M  V30 36712 C 3405.71 -0.808579 -1.70609 0
M  V30 36713 O 3405.06 0.217423 -1.812 0
M  V30 36714 C 3405.12 -3.2626 -1.55681 0
M  V30 36715 O 3404.84 -4.33101 -0.659956 0
M  V30 36716 C 3406.34 -3.74829 -2.36682 0
M  V30 36717 H 3403.56 -0.634311 -0.218839 0
M  V30 36718 H 3406.1 -2.04479 -0.0290709 0
M  V30 36719 H 3404.26 -3.15248 -2.25161 0
M  V30 36720 H 3404.67 -5.10422 -1.20706 0
M  V30 36721 H 3406.14 -4.71395 -2.87212 0
M  V30 36722 H 3406.62 -3.04346 -3.16655 0
M  V30 36723 H 3407.23 -3.88818 -1.72339 0
M  V30 36724 N 3405.54 0.333401 -1.54033 0
M  V30 36725 C 3406.77 1.0907 -1.75463 0
M  V30 36726 C 3407.18 1.82514 -0.49852 0
M  V30 36727 O 3406.52 1.75584 0.539998 0
M  V30 36728 C 3406.59 2.14161 -2.88748 0
M  V30 36729 C 3406.25 1.60202 -4.28 0
M  V30 36730 C 3407.25 1.04898 -5.09208 0
M  V30 36731 C 3404.93 1.64742 -4.74516 0
M  V30 36732 C 3406.93 0.548503 -6.35036 0
M  V30 36733 C 3404.61 1.14307 -6.00314 0
M  V30 36734 C 3405.61 0.594548 -6.80407 0
M  V30 36735 O 3405.3 0.0977497 -8.03841 0
M  V30 36736 H 3405.03 0.330692 -0.589592 0
M  V30 36737 H 3407.58 0.388238 -2.01697 0
M  V30 36738 H 3405.81 2.87995 -2.58062 0
M  V30 36739 H 3407.5 2.75535 -2.98053 0
M  V30 36740 H 3408.27 1.00704 -4.7443 0
M  V30 36741 H 3404.15 2.06377 -4.12225 0
M  V30 36742 H 3407.69 0.1197 -6.97497 0
M  V30 36743 H 3403.59 1.18204 -6.34585 0
M  V30 36744 H 3404.36 0.214093 -8.1822 0
M  V30 36745 N 3407.02 1.45939 0.594952 0
M  V30 36746 C 3407.93 1.58135 1.73293 0
M  V30 36747 C 3408.95 0.465275 1.67664 0
M  V30 36748 O 3410.12 0.727717 1.87793 0
M  V30 36749 C 3407.19 1.55683 3.0978 0
M  V30 36750 C 3406.25 2.78427 3.26767 0
M  V30 36751 C 3405.48 2.76083 4.56743 0
M  V30 36752 O 3405.7 1.84129 5.39864 0
M  V30 36753 O 3404.64 3.67461 4.76714 0
M  V30 36754 H 3408.46 2.54349 1.65953 0
M  V30 36755 H 3406.05 1.28592 0.76055 0
M  V30 36756 H 3407.93 1.56968 3.91074 0
M  V30 36757 H 3406.61 0.626247 3.17584 0
M  V30 36758 H 3405.51 2.827 2.45013 0
M  V30 36759 H 3406.85 3.70654 3.23847 0
M  V30 36760 N 3408.5 -0.838547 1.3344 0
M  V30 36761 C 3409.45 -1.96979 1.23702 0
M  V30 36762 C 3410.44 -1.68834 0.138329 0
M  V30 36763 O 3411.65 -1.77443 0.302309 0
M  V30 36764 H 3408.02 -0.646635 0.383885 0
M  V30 36765 H 3409.99 -2.02317 2.19341 0
M  V30 36766 C 3408.74 -3.33206 0.99342 0
M  V30 36767 H 3408.06 -3.55402 1.8311 0
M  V30 36768 H 3409.5 -4.12859 0.965589 0
M  V30 36769 C 3407.96 -3.35529 -0.303642 0
M  V30 36770 O 3408.49 -3.79731 -1.31023 0
M  V30 36771 N 3406.7 -2.88705 -0.331291 0
M  V30 36772 H 3406.25 -2.52928 0.488396 0
M  V30 36773 H 3406.2 -2.90642 -1.19895 0
M  V30 36774 N 3409.98 -1.16914 -1.05683 0
M  V30 36775 C 3411.21 -0.977424 -1.82016 0
M  V30 36776 C 3411.61 0.477604 -1.83073 0
M  V30 36777 O 3410.96 1.34336 -1.25298 0
M  V30 36778 C 3411.02 -1.43566 -3.29589 0
M  V30 36779 C 3410.68 -2.91181 -3.52225 0
M  V30 36780 C 3411.68 -3.89148 -3.44761 0
M  V30 36781 C 3409.37 -3.29243 -3.79347 0
M  V30 36782 C 3411.36 -5.23176 -3.64095 0
M  V30 36783 C 3409.05 -4.63439 -3.98331 0
M  V30 36784 C 3410.04 -5.60214 -3.90703 0
M  V30 36785 O 3409.73 -6.91983 -4.09163 0
M  V30 36786 H 3409.46 -0.346283 -0.580572 0
M  V30 36787 H 3412.02 -1.55501 -1.34196 0
M  V30 36788 H 3410.25 -0.801596 -3.78301 0
M  V30 36789 H 3411.94 -1.21039 -3.87433 0
M  V30 36790 H 3412.7 -3.61089 -3.2379 0
M  V30 36791 H 3408.58 -2.54489 -3.84391 0
M  V30 36792 H 3412.13 -5.98699 -3.58057 0
M  V30 36793 H 3408.02 -4.91206 -4.18793 0
M  V30 36794 H 3408.79 -6.9865 -4.26417 0
M  V30 36795 N 3411.45 1.24323 -0.968589 0
M  V30 36796 C 3412.68 1.9701 -0.6482 0
M  V30 36797 C 3413.1 1.71356 0.775812 0
M  V30 36798 O 3412.46 0.977831 1.5267 0
M  V30 36799 C 3412.51 3.484 -0.930036 0
M  V30 36800 O 3411.61 4.12397 -0.0159264 0
M  V30 36801 H 3410.96 0.617159 -0.244972 0
M  V30 36802 H 3413.49 1.58075 -1.29898 0
M  V30 36803 H 3413.5 3.98792 -0.861933 0
M  V30 36804 H 3412.17 3.66401 -1.96783 0
M  V30 36805 H 3410.75 3.72647 -0.137427 0
M  V30 36806 N 3412.93 0.73881 1.3921 0
M  V30 36807 C 3414.18 0.288425 2.00435 0
M  V30 36808 C 3414.51 -1.12549 1.58628 0
M  V30 36809 O 3413.76 -1.78233 0.808186 0
M  V30 36810 C 3414.06 0.342286 3.55757 0
M  V30 36811 C 3413.73 1.70976 4.17227 0
M  V30 36812 C 3412.39 2.08403 4.3373 0
M  V30 36813 C 3414.74 2.60744 4.51289 0
M  V30 36814 C 3412.07 3.351 4.81586 0
M  V30 36815 C 3414.42 3.86817 5.00555 0
M  V30 36816 C 3413.09 4.24331 5.15266 0
M  V30 36817 H 3412.36 0.105542 0.733445 0
M  V30 36818 H 3415 0.946399 1.6648 0
M  V30 36819 H 3413.31 -0.399262 3.8976 0
M  V30 36820 H 3415 -0.0243878 4.00993 0
M  V30 36821 H 3411.59 1.40877 4.04786 0
M  V30 36822 H 3415.78 2.33098 4.38154 0
M  V30 36823 H 3411.03 3.64104 4.9116 0
M  V30 36824 H 3415.21 4.56529 5.25884 0
M  V30 36825 H 3412.84 5.2257 5.52109 0
M  V30 36826 N 3414.41 -1.49895 0.486734 0
M  V30 36827 C 3415.34 -2.31706 -0.288858 0
M  V30 36828 C 3416.32 -1.39322 -0.975877 0
M  V30 36829 O 3417.51 -1.68238 -0.970036 0
M  V30 36830 C 3414.64 -3.19474 -1.36212 0
M  V30 36831 C 3413.59 -4.20536 -0.795811 0
M  V30 36832 C 3412.92 -4.97145 -1.96853 0
M  V30 36833 C 3414.22 -5.21903 0.203513 0
M  V30 36834 H 3415.91 -2.96796 0.393986 0
M  V30 36835 H 3413.46 -1.42729 0.19092 0
M  V30 36836 H 3415.41 -3.75511 -1.91231 0
M  V30 36837 H 3414.13 -2.52299 -2.07395 0
M  V30 36838 H 3412.79 -3.65623 -0.267473 0
M  V30 36839 H 3412.44 -4.2643 -2.66771 0
M  V30 36840 H 3412.14 -5.65517 -1.59575 0
M  V30 36841 H 3413.66 -5.56022 -2.52333 0
M  V30 36842 H 3415.08 -5.72719 -0.258044 0
M  V30 36843 H 3413.48 -5.98085 0.491379 0
M  V30 36844 H 3414.55 -4.71688 1.12422 0
M  V30 36845 N 3415.89 -0.219968 -1.56057 0
M  V30 36846 C 3416.84 0.707282 -2.21586 0
M  V30 36847 C 3417.83 1.20091 -1.19476 0
M  V30 36848 O 3419.04 1.16093 -1.37559 0
M  V30 36849 H 3415.41 0.246502 -0.710451 0
M  V30 36850 H 3417.38 0.131162 -2.98112 0
M  V30 36851 C 3416.13 1.90539 -2.90844 0
M  V30 36852 H 3415.46 1.53466 -3.69172 0
M  V30 36853 H 3416.9 2.532 -3.40096 0
M  V30 36854 C 3415.35 2.7598 -1.93227 0
M  V30 36855 O 3415.88 3.74686 -1.44822 0
M  V30 36856 N 3414.09 2.41983 -1.60912 0
M  V30 36857 H 3413.64 1.61771 -2.0047 0
M  V30 36858 H 3413.6 2.9943 -0.958587 0
M  V30 36859 N 3417.37 1.57509 0.0534363 0
M  V30 36860 C 3418.33 2.0394 1.046 0
M  V30 36861 C 3419.33 0.93938 1.30508 0
M  V30 36862 O 3420.52 1.20374 1.2592 0
M  V30 36863 C 3417.65 2.43567 2.38512 0
M  V30 36864 H 3418.85 2.92872 0.645432 0
M  V30 36865 H 3416.4 1.53401 0.299656 0
M  V30 36866 H 3417.13 1.57717 2.83365 0
M  V30 36867 H 3416.92 3.23855 2.21044 0
M  V30 36868 H 3418.41 2.80001 3.09821 0
M  V30 36869 N 3418.85 -0.325228 1.54208 0
M  V30 36870 C 3420.26 -0.669467 1.4488 0
M  V30 36871 C 3420.46 -1.91714 0.620332 0
M  V30 36872 O 3419.52 -2.52222 0.11848 0
M  V30 36873 C 3420.83 -0.845026 2.88582 0
M  V30 36874 C 3422.38 -0.942474 2.98473 0
M  V30 36875 C 3422.85 -1.15022 4.43322 0
M  V30 36876 N 3424.34 -1.21699 4.46927 0
M  V30 36877 C 3425.08 -1.39558 5.56157 0
M  V30 36878 N 3424.58 -1.54471 6.7536 0
M  V30 36879 N 3426.37 -1.42253 5.43802 0
M  V30 36880 H 3418.52 0.494855 2.06555 0
M  V30 36881 H 3420.78 0.159585 0.934471 0
M  V30 36882 H 3420.49 0.000504816 3.517 0
M  V30 36883 H 3420.36 -1.74135 3.34599 0
M  V30 36884 H 3422.75 -1.77851 2.35485 0
M  V30 36885 H 3422.83 -0.0226545 2.5579 0
M  V30 36886 H 3422.47 -0.319038 5.06897 0
M  V30 36887 H 3422.4 -2.08388 4.83613 0
M  V30 36888 H 3424.9 -1.11625 3.61038 0
M  V30 36889 H 3425.21 -1.67785 7.54366 0
M  V30 36890 H 3423.55 -1.51572 6.7827 0
M  V30 36891 H 3426.74 -1.30197 4.49629 0
M  V30 36892 H 3426.92 -1.55829 6.28984 0
M  V30 36893 N 3420.32 -1.46252 -0.587204 0
M  V30 36894 C 3421.27 -1.56475 -1.69659 0
M  V30 36895 C 3422.24 -0.409322 -1.60978 0
M  V30 36896 O 3423.43 -0.625482 -1.80256 0
M  V30 36897 C 3420.57 -1.55674 -3.07993 0
M  V30 36898 C 3419.68 -2.81918 -3.27332 0
M  V30 36899 C 3418.81 -2.72652 -4.55889 0
M  V30 36900 C 3417.85 -3.93856 -4.68555 0
M  V30 36901 N 3416.99 -3.83002 -5.88434 0
M  V30 36902 H 3421.83 -2.5124 -1.60258 0
M  V30 36903 H 3419.37 -1.24647 -0.781126 0
M  V30 36904 H 3421.32 -1.53196 -3.88055 0
M  V30 36905 H 3419.95 -0.644456 -3.16301 0
M  V30 36906 H 3419.01 -2.94396 -2.40904 0
M  V30 36907 H 3420.32 -3.71759 -3.3256 0
M  V30 36908 H 3419.47 -2.68253 -5.44174 0
M  V30 36909 H 3418.21 -1.80443 -4.53091 0
M  V30 36910 H 3417.22 -3.98591 -3.78689 0
M  V30 36911 H 3418.44 -4.87155 -4.73135 0
M  V30 36912 H 3416.39 -2.93577 -5.86642 0
M  V30 36913 H 3416.3 -4.66494 -5.94911 0
M  V30 36914 H 3417.57 -3.82571 -6.79161 0
M  V30 36915 N 3421.8 0.831459 -1.33883 0
M  V30 36916 C 3422.73 1.9569 -1.27387 0
M  V30 36917 C 3423.71 1.69411 -0.152972 0
M  V30 36918 O 3424.9 1.9113 -0.343954 0
M  V30 36919 C 3422.03 3.31988 -1.01988 0
M  V30 36920 C 3420.98 3.72685 -2.10452 0
M  V30 36921 C 3420.31 5.0687 -1.70254 0
M  V30 36922 C 3421.61 3.85684 -3.52201 0
M  V30 36923 H 3423.3 2.01382 -2.21552 0
M  V30 36924 H 3420.85 0.967507 -1.06655 0
M  V30 36925 H 3422.8 4.10298 -0.960913 0
M  V30 36926 H 3421.52 3.26572 -0.0426283 0
M  V30 36927 H 3420.18 2.96643 -2.15403 0
M  V30 36928 H 3419.83 4.97934 -0.712124 0
M  V30 36929 H 3419.53 5.35071 -2.42843 0
M  V30 36930 H 3421.06 5.87648 -1.65837 0
M  V30 36931 H 3422.47 4.54287 -3.49709 0
M  V30 36932 H 3420.87 4.25329 -4.23338 0
M  V30 36933 H 3421.94 2.87922 -3.90165 0
M  V30 36934 N 3423.28 1.17472 1.05062 0
M  V30 36935 C 3424.53 0.96201 1.77735 0
M  V30 36936 C 3424.85 -0.510518 1.88199 0
M  V30 36937 O 3424.12 -1.37059 1.3997 0
M  V30 36938 H 3422.7 0.352947 0.65836 0
M  V30 36939 H 3425.36 1.47971 1.26848 0
M  V30 36940 H 3424.46 1.39146 2.79365 0
M  V30 36941 N 3424.76 -1.23807 0.975168 0
M  V30 36942 C 3425.67 -2.28782 0.519211 0
M  V30 36943 C 3426.68 -1.68769 -0.423457 0
M  V30 36944 O 3427.86 -1.99233 -0.294664 0
M  V30 36945 C 3424.92 -3.46252 -0.176168 0
M  V30 36946 C 3423.99 -4.21642 0.807252 0
M  V30 36947 C 3423.22 -5.33503 0.144963 0
M  V30 36948 O 3423.44 -5.60367 -1.06512 0
M  V30 36949 O 3422.38 -5.95997 0.840894 0
M  V30 36950 H 3426.2 -2.69916 1.39208 0
M  V30 36951 H 3423.79 -1.2964 0.742553 0
M  V30 36952 H 3425.67 -4.17575 -0.566474 0
M  V30 36953 H 3424.34 -3.0708 -1.02389 0
M  V30 36954 H 3423.25 -3.52664 1.24816 0
M  V30 36955 H 3424.58 -4.6465 1.62362 0
M  V30 36956 N 3426.24 -0.746182 -1.38816 0
M  V30 36957 C 3427.51 -0.224875 -1.94303 0
M  V30 36958 C 3427.89 1.27549 -1.68209 0
M  V30 36959 O 3427.24 2.04645 -1.0165 0
M  V30 36960 C 3427.45 -0.57056 -3.44305 0
M  V30 36961 C 3428.8 -0.526089 -4.21328 0
M  V30 36962 O 3429.82 -0.508413 -3.52553 0
M  V30 36963 O 3428.68 -0.530479 -5.43919 0
M  V30 36964 H 3425.78 -0.0448192 -0.825785 0
M  V30 36965 H 3428.32 -0.825801 -1.48252 0
M  V30 36966 H 3427.09 -1.60707 -3.56776 0
M  V30 36967 H 3426.72 0.0587572 -3.97557 0
M  V30 36968 N 3427.71 1.49635 -0.494676 0
M  V30 36969 C 3428.96 2.02733 0.0521588 0
M  V30 36970 C 3429.29 1.37413 1.37227 0
M  V30 36971 O 3428.57 0.507675 1.87758 0
M  V30 36972 C 3428.85 3.59479 0.211337 0
M  V30 36973 C 3428.7 4.35337 -1.13146 0
M  V30 36974 C 3430.02 4.29615 0.95494 0
M  V30 36975 H 3427.14 0.736793 0.0174816 0
M  V30 36976 H 3429.78 1.78722 -0.644858 0
M  V30 36977 H 3427.93 3.80068 0.805011 0
M  V30 36978 H 3429.61 4.2626 -1.76352 0
M  V30 36979 H 3427.85 3.98144 -1.72231 0
M  V30 36980 H 3428.52 5.43349 -0.973456 0
M  V30 36981 H 3431 4.13643 0.451502 0
M  V30 36982 H 3429.87 5.39051 1.03515 0
M  V30 36983 H 3430.13 3.94418 1.99717 0
M  V30 36984 N 3429.19 0.228241 1.55939 0
M  V30 36985 C 3430.6 -0.278384 1.84613 0
M  V30 36986 C 3430.95 -1.58981 1.14976 0
M  V30 36987 O 3430.08 -2.12251 0.421711 0
M  V30 36988 C 3430.67 -0.511876 3.34911 0
M  V30 36989 C 3429.23 -0.962797 3.63878 0
M  V30 36990 C 3428.38 -0.0295758 2.77284 0
M  V30 36991 H 3431.33 0.451272 1.52149 0
M  V30 36992 H 3431.35 -1.357 3.55479 0
M  V30 36993 H 3430.86 0.442765 3.85566 0
M  V30 36994 H 3428.96 -1.93056 3.18685 0
M  V30 36995 H 3429.08 -0.832576 4.7181 0
M  V30 36996 H 3427.44 -0.537586 2.48962 0
M  V30 36997 H 3428.22 0.920102 3.3074 0
M  V30 36998 N 3430.67 -1.57536 -0.0450825 0
M  V30 36999 C 3431.92 -1.8881 -0.740176 0
M  V30 37000 C 3432.25 -0.823987 -1.75852 0
M  V30 37001 O 3431.52 0.162826 -1.93817 0
M  V30 37002 C 3431.81 -3.3074 -1.42419 0
M  V30 37003 C 3431.66 -4.47831 -0.420441 0
M  V30 37004 C 3432.98 -3.71324 -2.36234 0
M  V30 37005 H 3430.1 -0.686695 -0.267616 0
M  V30 37006 H 3432.74 -1.9 -0.00305809 0
M  V30 37007 H 3430.89 -3.29856 -2.05249 0
M  V30 37008 H 3432.56 -4.60846 0.204706 0
M  V30 37009 H 3430.81 -4.33009 0.261815 0
M  V30 37010 H 3431.48 -5.43986 -0.937202 0
M  V30 37011 H 3433.95 -3.73472 -1.83462 0
M  V30 37012 H 3432.83 -4.7147 -2.81083 0
M  V30 37013 H 3433.09 -3.02704 -3.22215 0
M  V30 37014 N 3432.15 0.317045 -1.54378 0
M  V30 37015 C 3433.38 1.07203 -1.7661 0
M  V30 37016 C 3433.79 1.81975 -0.51785 0
M  V30 37017 O 3433.13 1.76147 0.521344 0
M  V30 37018 C 3433.19 2.11086 -2.91003 0
M  V30 37019 C 3432.86 1.55653 -4.29675 0
M  V30 37020 C 3433.85 0.994909 -5.10292 0
M  V30 37021 C 3431.54 1.597 -4.76237 0
M  V30 37022 C 3433.53 0.481118 -6.35582 0
M  V30 37023 C 3431.22 1.07934 -6.01493 0
M  V30 37024 C 3432.22 0.522348 -6.81 0
M  V30 37025 O 3431.9 0.0124861 -8.03899 0
M  V30 37026 H 3431.64 0.32442 -0.593066 0
M  V30 37027 H 3434.19 0.366824 -2.02098 0
M  V30 37028 H 3432.42 2.85241 -2.61102 0
M  V30 37029 H 3434.11 2.72358 -3.00958 0
M  V30 37030 H 3434.88 0.956668 -4.75471 0
M  V30 37031 H 3430.75 2.01993 -4.14391 0
M  V30 37032 H 3434.3 0.0457148 -6.97585 0
M  V30 37033 H 3430.2 1.11467 -6.35803 0
M  V30 37034 H 3430.96 0.127298 -8.18401 0
M  V30 37035 N 3433.63 1.46561 0.57944 0
M  V30 37036 C 3434.88 1.51307 1.33376 0
M  V30 37037 C 3435.19 0.170541 1.94855 0
M  V30 37038 O 3436.39 0.0958181 2.71331 0
M  V30 37039 C 3434.85 2.66623 2.41744 0
M  V30 37040 C 3434.46 4.07311 1.86553 0
M  V30 37041 C 3436.2 2.80642 3.18497 0
M  V30 37042 C 3434.11 5.13962 2.92569 0
M  V30 37043 H 3433.04 0.563118 0.501412 0
M  V30 37044 H 3435.69 1.7278 0.617994 0
M  V30 37045 H 3434.07 2.38486 3.16134 0
M  V30 37046 H 3435.25 4.45254 1.18684 0
M  V30 37047 H 3433.56 3.97987 1.22457 0
M  V30 37048 H 3436.16 3.5749 3.97624 0
M  V30 37049 H 3436.5 1.88277 3.71292 0
M  V30 37050 H 3437.03 3.08442 2.51214 0
M  V30 37051 H 3433.77 6.08131 2.44658 0
M  V30 37052 H 3433.29 4.8056 3.58918 0
M  V30 37053 H 3434.97 5.39948 3.56462 0
M  V30 37054 N 3435.1 -0.824347 1.34322 0
M  V30 37055 C 3436.33 -1.60989 1.29483 0
M  V30 37056 C 3436.74 -1.88728 -0.133548 0
M  V30 37057 O 3436.09 -1.47821 -1.09062 0
M  V30 37058 C 3436.15 -2.97648 2.01609 0
M  V30 37059 C 3435.81 -2.92811 3.50872 0
M  V30 37060 C 3436.81 -2.67496 4.45805 0
M  V30 37061 C 3434.49 -3.12488 3.93264 0
M  V30 37062 C 3436.49 -2.61907 5.81105 0
M  V30 37063 C 3434.17 -3.06524 5.28664 0
M  V30 37064 C 3435.17 -2.81267 6.22397 0
M  V30 37065 O 3434.86 -2.75233 7.55316 0
M  V30 37066 H 3434.59 -0.507169 0.44694 0
M  V30 37067 H 3437.15 -1.03383 1.77486 0
M  V30 37068 H 3435.38 -3.57167 1.48218 0
M  V30 37069 H 3437.07 -3.58643 1.90079 0
M  V30 37070 H 3437.83 -2.5203 4.14374 0
M  V30 37071 H 3433.71 -3.31163 3.20705 0
M  V30 37072 H 3437.25 -2.42113 6.54238 0
M  V30 37073 H 3433.15 -3.21543 5.59715 0
M  V30 37074 H 3433.92 -2.9097 7.65035 0
M  V30 37075 N 3436.58 -1.18028 -1.04437 0
M  V30 37076 C 3437.55 -0.906065 -2.10531 0
M  V30 37077 C 3438.55 0.106994 -1.60444 0
M  V30 37078 O 3439.74 -0.126032 -1.73743 0
M  V30 37079 C 3436.87 -0.358685 -3.39008 0
M  V30 37080 H 3438.06 -1.84681 -2.3629 0
M  V30 37081 H 3435.61 -0.991785 -1.20803 0
M  V30 37082 H 3436.35 0.588848 -3.18909 0
M  V30 37083 H 3436.13 -1.08891 -3.76676 0
M  V30 37084 H 3437.62 -0.185404 -4.17188 0
M  V30 37085 N 3438.06 1.23288 -0.98172 0
M  V30 37086 C 3439.29 1.95772 -0.669404 0
M  V30 37087 C 3439.7 1.72657 0.763868 0
M  V30 37088 O 3439.06 1.01879 1.51416 0
M  V30 37089 C 3439.11 3.48742 -0.951924 0
M  V30 37090 O 3438.83 3.71073 -2.32887 0
M  V30 37091 C 3440.33 4.38423 -0.655745 0
M  V30 37092 H 3437.55 0.623266 -0.248556 0
M  V30 37093 H 3440.1 1.56743 -1.31346 0
M  V30 37094 H 3438.25 3.85781 -0.353855 0
M  V30 37095 H 3438.67 4.65358 -2.41956 0
M  V30 37096 H 3440.14 5.44551 -0.903778 0
M  V30 37097 H 3440.62 4.3728 0.410192 0
M  V30 37098 H 3441.22 4.06994 -1.23435 0
M  V30 37099 N 3439.54 0.753533 1.38418 0
M  V30 37100 C 3440.45 0.127852 2.34251 0
M  V30 37101 C 3441.46 -0.700715 1.59267 0
M  V30 37102 O 3442.64 -0.62488 1.91461 0
M  V30 37103 C 3439.71 -0.754826 3.38383 0
M  V30 37104 C 3438.77 0.0881066 4.2921 0
M  V30 37105 C 3438 -0.752537 5.28368 0
M  V30 37106 O 3438.22 -1.99054 5.3454 0
M  V30 37107 O 3437.16 -0.171369 6.01656 0
M  V30 37108 H 3440.98 0.919301 2.89452 0
M  V30 37109 H 3438.57 0.514429 1.40264 0
M  V30 37110 H 3440.45 -1.25931 4.02144 0
M  V30 37111 H 3439.12 -1.52477 2.85539 0
M  V30 37112 H 3438.03 0.638532 3.6861 0
M  V30 37113 H 3439.36 0.820705 4.85309 0
M  V30 37114 N 3441.02 -1.49371 0.502605 0
M  V30 37115 C 3442.29 -1.95321 -0.104438 0
M  V30 37116 C 3442.67 -1.44415 -1.53973 0
M  V30 37117 O 3442.02 -0.658605 -2.18803 0
M  V30 37118 C 3442.23 -3.48997 -0.0154219 0
M  V30 37119 C 3443.58 -4.24181 -0.188541 0
M  V30 37120 O 3444.6 -3.56085 -0.0905324 0
M  V30 37121 O 3443.46 -5.45107 -0.389973 0
M  V30 37122 H 3440.56 -0.821592 -0.0944181 0
M  V30 37123 H 3443.1 -1.60009 0.565257 0
M  V30 37124 H 3441.87 -3.78688 0.98545 0
M  V30 37125 H 3441.5 -3.90931 -0.725191 0
M  V30 37126 N 3442.49 -0.236508 -1.55815 0
M  V30 37127 C 3443.4 0.678399 -2.24577 0
M  V30 37128 C 3444.42 1.2017 -1.25838 0
M  V30 37129 O 3445.6 1.24016 -1.58688 0
M  V30 37130 C 3442.66 1.8632 -2.92379 0
M  V30 37131 C 3441.72 1.3804 -4.06501 0
M  V30 37132 C 3440.96 2.50873 -4.71061 0
M  V30 37133 O 3441.18 3.69362 -4.34659 0
M  V30 37134 O 3440.11 2.21222 -5.59772 0
M  V30 37135 H 3443.94 0.122548 -3.03453 0
M  V30 37136 H 3441.52 -0.00543429 -1.49399 0
M  V30 37137 H 3443.41 2.55482 -3.35122 0
M  V30 37138 H 3442.08 2.40687 -2.16452 0
M  V30 37139 H 3440.99 0.656357 -3.68297 0
M  V30 37140 H 3442.32 0.882939 -4.84216 0
M  V30 37141 N 3443.97 1.57557 0.0367273 0
M  V30 37142 C 3445.25 1.8006 0.764055 0
M  V30 37143 C 3445.63 0.832724 1.93982 0
M  V30 37144 O 3444.98 -0.126775 2.28148 0
M  V30 37145 C 3445.19 3.27564 1.20427 0
M  V30 37146 C 3446.54 3.92343 1.62333 0
M  V30 37147 O 3447.56 3.31667 1.29905 0
M  V30 37148 O 3446.42 4.99158 2.22495 0
M  V30 37149 H 3443.51 0.740187 0.368853 0
M  V30 37150 H 3446.06 1.69694 0.0140956 0
M  V30 37151 H 3444.83 3.89598 0.364578 0
M  V30 37152 H 3444.45 3.42789 2.01448 0
M  V30 37153 N 3445.45 -0.308854 1.54544 0
M  V30 37154 C 3446.38 -1.38554 1.8795 0
M  V30 37155 C 3447.36 -1.53273 0.737649 0
M  V30 37156 O 3448.55 -1.66911 0.992694 0
M  V30 37157 C 3445.68 -2.75098 2.11987 0
M  V30 37158 C 3444.63 -2.75152 3.27834 0
M  V30 37159 C 3443.96 -4.14911 3.37273 0
M  V30 37160 C 3445.26 -2.3759 4.65133 0
M  V30 37161 H 3446.95 -1.10845 2.78125 0
M  V30 37162 H 3444.5 -0.531784 1.33821 0
M  V30 37163 H 3446.45 -3.50499 2.33941 0
M  V30 37164 H 3445.17 -3.04315 1.18574 0
M  V30 37165 H 3443.83 -2.02207 3.05791 0
M  V30 37166 H 3443.48 -4.41292 2.41392 0
M  V30 37167 H 3443.18 -4.1585 4.15142 0
M  V30 37168 H 3444.71 -4.92103 3.61479 0
M  V30 37169 H 3446.12 -3.02705 4.8687 0
M  V30 37170 H 3444.52 -2.49755 5.45658 0
M  V30 37171 H 3445.59 -1.32723 4.66383 0
M  V30 37172 N 3446.93 -1.46867 -0.571659 0
M  V30 37173 C 3447.89 -1.57835 -1.66195 0
M  V30 37174 C 3448.89 -0.454574 -1.54241 0
M  V30 37175 O 3450.08 -0.719219 -1.5866 0
M  V30 37176 C 3447.21 -1.50915 -3.05675 0
M  V30 37177 H 3448.41 -2.55012 -1.57825 0
M  V30 37178 H 3445.96 -1.34841 -0.79041 0
M  V30 37179 H 3446.7 -0.550585 -3.19592 0
M  V30 37180 H 3446.48 -2.32459 -3.15761 0
M  V30 37181 H 3447.97 -1.61699 -3.85024 0
M  V30 37182 N 3448.41 0.817212 -1.34757 0
M  V30 37183 C 3449.65 1.57608 -1.27623 0
M  V30 37184 C 3449.99 1.93604 0.151983 0
M  V30 37185 O 3449.26 1.6049 1.09878 0
M  V30 37186 C 3449.54 2.87179 -2.17256 0
M  V30 37187 C 3449.4 2.57726 -3.68642 0
M  V30 37188 C 3450.72 3.88798 -2.06213 0
M  V30 37189 H 3447.84 0.571837 -0.464943 0
M  V30 37190 H 3450.48 0.940999 -1.65061 0
M  V30 37191 H 3448.63 3.41376 -1.85458 0
M  V30 37192 H 3450.3 2.09795 -4.10833 0
M  V30 37193 H 3448.54 1.91082 -3.89449 0
M  V30 37194 H 3449.21 3.50148 -4.26732 0
M  V30 37195 H 3451.69 3.43971 -2.34143 0
M  V30 37196 H 3450.57 4.77254 -2.71145 0
M  V30 37197 H 3450.83 4.29673 -1.04083 0
M  V30 37198 N 3449.89 1.1858 1.0381 0
M  V30 37199 C 3451.16 0.892319 1.7406 0
M  V30 37200 C 3451.54 -0.604221 2.02268 0
M  V30 37201 O 3450.89 -1.55969 1.66991 0
M  V30 37202 C 3451.1 1.74233 3.02397 0
M  V30 37203 C 3452.45 1.97093 3.76084 0
M  V30 37204 O 3453.47 1.71307 3.12302 0
M  V30 37205 O 3452.33 2.40517 4.90728 0
M  V30 37206 H 3449.43 0.331708 0.757561 0
M  V30 37207 H 3451.97 1.29346 1.09853 0
M  V30 37208 H 3450.74 2.7567 2.77708 0
M  V30 37209 H 3450.37 1.33986 3.74344 0
M  V30 37210 N 3451.36 -1.22766 0.988245 0
M  V30 37211 C 3452.29 -2.2682 0.554518 0
M  V30 37212 C 3453.27 -1.64928 -0.416264 0
M  V30 37213 O 3454.46 -1.91743 -0.307916 0
M  V30 37214 C 3451.59 -3.47033 -0.136205 0
M  V30 37215 C 3450.54 -4.2133 0.752649 0
M  V30 37216 C 3449.87 -5.34653 -0.0707296 0
M  V30 37217 C 3451.17 -4.80505 2.04726 0
M  V30 37218 H 3452.86 -2.63353 1.42428 0
M  V30 37219 H 3450.41 -1.26594 0.68629 0
M  V30 37220 H 3452.36 -4.1898 -0.450995 0
M  V30 37221 H 3451.09 -3.09583 -1.04047 0
M  V30 37222 H 3449.75 -3.51211 1.05101 0
M  V30 37223 H 3449.39 -4.93445 -0.975772 0
M  V30 37224 H 3449.09 -5.85286 0.520938 0
M  V30 37225 H 3450.62 -6.09418 -0.379721 0
M  V30 37226 H 3452.03 -5.44418 1.79672 0
M  V30 37227 H 3450.43 -5.41457 2.58736 0
M  V30 37228 H 3451.5 -4.00814 2.72903 0
M  V30 37229 N 3452.84 -0.760864 -1.38017 0
M  V30 37230 C 3453.77 -0.153597 -2.32994 0
M  V30 37231 C 3454.75 0.69542 -1.55235 0
M  V30 37232 O 3455.94 0.635116 -1.83521 0
M  V30 37233 C 3453.07 0.734752 -3.39439 0
M  V30 37234 C 3452.02 -0.012104 -4.27998 0
M  V30 37235 C 3451.35 0.994975 -5.25361 0
M  V30 37236 C 3452.65 -1.18477 -5.08685 0
M  V30 37237 H 3454.34 -0.947006 -2.84028 0
M  V30 37238 H 3451.89 -0.45684 -1.36561 0
M  V30 37239 H 3453.84 1.16931 -4.04852 0
M  V30 37240 H 3452.56 1.56056 -2.86904 0
M  V30 37241 H 3451.22 -0.427318 -3.64101 0
M  V30 37242 H 3450.87 1.81504 -4.69111 0
M  V30 37243 H 3450.57 0.499866 -5.8547 0
M  V30 37244 H 3452.1 1.4287 -5.9365 0
M  V30 37245 H 3453.51 -0.8274 -5.67298 0
M  V30 37246 H 3451.91 -1.61123 -5.78065 0
M  V30 37247 H 3452.98 -1.99416 -4.41997 0
M  V30 37248 N 3454.32 1.49102 -0.510519 0
M  V30 37249 C 3455.57 2.02077 0.0305475 0
M  V30 37250 C 3455.89 1.3916 1.366 0
M  V30 37251 O 3455.16 0.550187 1.88015 0
M  V30 37252 H 3453.74 0.746864 0.0142785 0
M  V30 37253 H 3456.4 1.83025 -0.669927 0
M  V30 37254 H 3455.5 3.11724 0.153228 0
M  V30 37255 N 3455.8 0.244768 1.55688 0
M  V30 37256 C 3456.73 -0.64991 2.24273 0
M  V30 37257 C 3457.71 -1.18298 1.22228 0
M  V30 37258 O 3458.89 -1.22271 1.50875 0
M  V30 37259 C 3456.02 -1.84793 2.94056 0
M  V30 37260 C 3454.98 -1.44772 4.02772 0
M  V30 37261 C 3454.3 -2.72639 4.59969 0
M  V30 37262 C 3455.6 -0.620379 5.18603 0
M  V30 37263 H 3457.3 -0.0780128 2.99298 0
M  V30 37264 H 3454.84 -0.0360816 1.43955 0
M  V30 37265 H 3456.8 -2.47945 3.40736 0
M  V30 37266 H 3455.52 -2.44517 2.16516 0
M  V30 37267 H 3454.18 -0.839546 3.56857 0
M  V30 37268 H 3453.83 -3.30557 3.79132 0
M  V30 37269 H 3453.53 -2.46586 5.33356 0
M  V30 37270 H 3455.05 -3.36694 5.09382 0
M  V30 37271 H 3456.47 -1.15616 5.61521 0
M  V30 37272 H 3454.86 -0.455992 5.98365 0
M  V30 37273 H 3455.93 0.367883 4.83502 0
M  V30 37274 N 3457.28 -1.57574 -0.0283712 0
M  V30 37275 C 3458.55 -1.80463 -0.754495 0
M  V30 37276 C 3458.93 -0.843 -1.93537 0
M  V30 37277 O 3458.28 0.114674 -2.28212 0
M  V30 37278 C 3458.49 -3.28198 -1.18688 0
M  V30 37279 C 3459.84 -3.93198 -1.6025 0
M  V30 37280 O 3460.86 -3.32352 -1.28144 0
M  V30 37281 O 3459.72 -5.00331 -2.19845 0
M  V30 37282 H 3456.82 -0.742132 -0.364923 0
M  V30 37283 H 3459.36 -1.69699 -0.00509606 0
M  V30 37284 H 3458.13 -3.89786 -0.343911 0
M  V30 37285 H 3457.76 -3.43853 -1.99627 0
M  V30 37286 N 3458.75 0.300654 -1.54706 0
M  V30 37287 C 3460 1.03342 -1.75191 0
M  V30 37288 C 3460.35 1.84915 -0.53143 0
M  V30 37289 O 3459.65 1.85589 0.476161 0
M  V30 37290 C 3459.84 1.97042 -2.98176 0
M  V30 37291 C 3459.67 1.24686 -4.32069 0
M  V30 37292 C 3458.44 0.97388 -4.95826 0
M  V30 37293 C 3460.64 0.651134 -5.10161 0
M  V30 37294 N 3458.62 0.220629 -6.13503 0
M  V30 37295 C 3459.99 0.0306692 -6.19992 0
M  V30 37296 C 3462.05 0.556219 -4.94783 0
M  V30 37297 C 3460.75 -0.675529 -7.16121 0
M  V30 37298 C 3462.78 -0.136325 -5.91243 0
M  V30 37299 C 3462.14 -0.74564 -7.00442 0
M  V30 37300 H 3458.24 0.361074 -0.693649 0
M  V30 37301 H 3460.82 0.312012 -1.92184 0
M  V30 37302 H 3458.99 2.66434 -2.82609 0
M  V30 37303 H 3460.72 2.63474 -3.07187 0
M  V30 37304 H 3457.48 1.27212 -4.56195 0
M  V30 37305 H 3457.9 -0.142521 -6.7685 0
M  V30 37306 H 3462.54 1.013 -4.10485 0
M  V30 37307 H 3460.26 -1.14408 -7.9996 0
M  V30 37308 H 3463.85 -0.209713 -5.81422 0
M  V30 37309 H 3462.73 -1.27301 -7.73799 0
M  V30 37310 N 3460.23 1.47168 0.563863 0
M  V30 37311 C 3461.64 1.4739 1.146 0
M  V30 37312 C 3461.99 0.22495 1.94906 0
M  V30 37313 O 3461.12 -0.670636 2.05746 0
M  V30 37314 C 3461.71 2.67048 2.08497 0
M  V30 37315 C 3460.27 2.7025 2.61996 0
M  V30 37316 C 3459.42 2.40385 1.3824 0
M  V30 37317 H 3462.37 1.54774 0.350805 0
M  V30 37318 H 3462.39 2.43639 2.92267 0
M  V30 37319 H 3461.9 3.57932 1.50021 0
M  V30 37320 H 3460.01 1.83488 3.24288 0
M  V30 37321 H 3460.12 3.70754 3.03444 0
M  V30 37322 H 3458.48 1.9083 1.68689 0
M  V30 37323 H 3459.27 3.33469 0.815667 0
M  V30 37324 N 3461.71 -0.810054 1.35188 0
M  V30 37325 C 3462.99 -1.55363 1.18835 0
M  V30 37326 C 3463.37 -2.098 -0.233919 0
M  V30 37327 O 3462.72 -1.92123 -1.23698 0
M  V30 37328 C 3462.93 -2.66488 2.25355 0
M  V30 37329 C 3464.27 -3.34919 2.60987 0
M  V30 37330 O 3465.3 -2.76756 2.24243 0
M  V30 37331 O 3464.16 -4.39984 3.24155 0
M  V30 37332 H 3461.25 -0.686284 0.461458 0
M  V30 37333 H 3463.8 -0.850315 1.4686 0
M  V30 37334 H 3462.57 -2.2411 3.20765 0
M  V30 37335 H 3462.19 -3.44458 1.98581 0
M  V30 37336 N 3463.19 -1.19129 -1.0318 0
M  V30 37337 C 3464.6 -0.994916 -1.57982 0
M  V30 37338 C 3464.95 0.452985 -1.90899 0
M  V30 37339 O 3464.08 1.33188 -1.70558 0
M  V30 37340 C 3464.67 -1.79971 -2.87047 0
M  V30 37341 C 3463.23 -1.64743 -3.38433 0
M  V30 37342 C 3462.38 -1.78858 -2.11909 0
M  V30 37343 H 3465.33 -1.33543 -0.857435 0
M  V30 37344 H 3465.35 -1.29406 -3.57819 0
M  V30 37345 H 3464.86 -2.85346 -2.63057 0
M  V30 37346 H 3462.96 -0.619422 -3.67415 0
M  V30 37347 H 3463.07 -2.45096 -4.11661 0
M  V30 37348 H 3461.44 -1.2189 -2.2364 0
M  V30 37349 H 3462.22 -2.85686 -1.90364 0
M  V30 37350 N 3464.67 1.2224 -0.994741 0
M  V30 37351 C 3465.91 1.9066 -0.670308 0
M  V30 37352 C 3466.24 1.77819 0.800338 0
M  V30 37353 O 3465.51 1.16656 1.57379 0
M  V30 37354 H 3464.09 0.705701 -0.244938 0
M  V30 37355 H 3466.75 1.48555 -1.26164 0
M  V30 37356 H 3465.84 2.97782 -0.934461 0
M  V30 37357 N 3466.14 0.768172 1.37611 0
M  V30 37358 C 3467.09 0.139781 2.3218 0
M  V30 37359 C 3468.09 -0.688996 1.54755 0
M  V30 37360 O 3469.29 -0.586459 1.70178 0
M  V30 37361 H 3465.67 0.0264133 0.751536 0
M  V30 37362 H 3467.64 0.953189 2.82766 0
M  V30 37363 C 3466.39 -0.727769 3.39998 0
M  V30 37364 H 3465.71 -0.0994148 3.99676 0
M  V30 37365 H 3467.15 -1.13449 4.0854 0
M  V30 37366 C 3465.61 -1.87681 2.79781 0
M  V30 37367 O 3466.14 -2.97204 2.70246 0
M  V30 37368 N 3464.35 -1.67633 2.37376 0
M  V30 37369 H 3463.89 -0.785509 2.45331 0
M  V30 37370 H 3463.85 -2.44681 1.9743 0
M  V30 37371 N 3467.62 -1.48829 0.518419 0
M  V30 37372 C 3468.55 -2.27388 -0.287602 0
M  V30 37373 C 3469.57 -1.34657 -0.91495 0
M  V30 37374 O 3470.76 -1.59801 -0.795345 0
M  V30 37375 C 3467.86 -3.0765 -1.42143 0
M  V30 37376 C 3467.03 -4.28079 -0.898163 0
M  V30 37377 C 3466.09 -4.90245 -1.91171 0
M  V30 37378 O 3465.11 -5.49803 -1.47327 0
M  V30 37379 N 3466.32 -4.81451 -3.24323 0
M  V30 37380 H 3469.08 -2.97203 0.386099 0
M  V30 37381 H 3466.64 -1.58026 0.35203 0
M  V30 37382 H 3468.63 -3.46109 -2.09739 0
M  V30 37383 H 3467.2 -2.40331 -1.99899 0
M  V30 37384 H 3466.42 -3.94172 -0.0465633 0
M  V30 37385 H 3467.71 -5.06061 -0.527249 0
M  V30 37386 H 3467.11 -4.34194 -3.62619 0
M  V30 37387 H 3465.67 -5.24044 -3.87584 0
M  V30 37388 N 3469.1 -0.253021 -1.55556 0
M  V30 37389 C 3470.03 0.676798 -2.1898 0
M  V30 37390 C 3471.05 1.13419 -1.1679 0
M  V30 37391 O 3472.23 1.05991 -1.43625 0
M  V30 37392 C 3469.33 1.93243 -2.78407 0
M  V30 37393 C 3468.51 1.62548 -4.06075 0
M  V30 37394 C 3467.57 2.73132 -4.49762 0
M  V30 37395 O 3466.59 2.40257 -5.16009 0
M  V30 37396 N 3467.79 4.02752 -4.18056 0
M  V30 37397 H 3470.56 0.134089 -2.994 0
M  V30 37398 H 3468.12 -0.073225 -1.61734 0
M  V30 37399 H 3470.11 2.66474 -3.04587 0
M  V30 37400 H 3468.68 2.38476 -2.02108 0
M  V30 37401 H 3467.9 0.728047 -3.87419 0
M  V30 37402 H 3469.19 1.39512 -4.89299 0
M  V30 37403 H 3468.59 4.32292 -3.64884 0
M  V30 37404 H 3467.15 4.7243 -4.49058 0
M  V30 37405 N 3470.58 1.57587 0.0200142 0
M  V30 37406 C 3471.82 1.89964 0.710044 0
M  V30 37407 C 3472.16 0.85186 1.74519 0
M  V30 37408 O 3471.43 -0.131971 1.94052 0
M  V30 37409 C 3471.72 3.32964 1.37139 0
M  V30 37410 C 3471.57 4.48443 0.349142 0
M  V30 37411 C 3472.89 3.75035 2.30297 0
M  V30 37412 H 3470.01 0.690866 0.256658 0
M  V30 37413 H 3472.65 1.89981 -0.0271696 0
M  V30 37414 H 3470.8 3.3308 1.99975 0
M  V30 37415 H 3472.47 4.60462 -0.277997 0
M  V30 37416 H 3470.71 4.32538 -0.33067 0
M  V30 37417 H 3471.38 5.45408 0.85054 0
M  V30 37418 H 3473.86 3.76343 1.77497 0
M  V30 37419 H 3472.74 4.75882 2.73547 0
M  V30 37420 H 3473 3.07792 3.17359 0
M  V30 37421 N 3472.06 -0.292445 1.54863 0
M  V30 37422 C 3473.3 -1.0281 1.74809 0
M  V30 37423 C 3473.64 -1.86629 0.536968 0
M  V30 37424 O 3472.91 -1.8884 -0.46582 0
M  V30 37425 C 3473.19 -1.92695 3.04205 0
M  V30 37426 C 3473.05 -1.11998 4.35633 0
M  V30 37427 C 3474.37 -2.91728 3.29519 0
M  V30 37428 H 3471.48 -0.372351 0.636022 0
M  V30 37429 H 3474.13 -0.302036 1.87584 0
M  V30 37430 H 3472.28 -2.54603 2.93445 0
M  V30 37431 H 3473.95 -0.523109 4.58324 0
M  V30 37432 H 3472.19 -0.422904 4.31734 0
M  V30 37433 H 3472.86 -1.78163 5.22458 0
M  V30 37434 H 3475.34 -2.39951 3.39945 0
M  V30 37435 H 3474.21 -3.51779 4.21358 0
M  V30 37436 H 3474.48 -3.65839 2.48223 0
M  V30 37437 N 3473.53 -1.47465 -0.55605 0
M  V30 37438 C 3474.44 -1.62674 -1.6904 0
M  V30 37439 C 3475.46 -0.509564 -1.66371 0
M  V30 37440 O 3476.64 -0.777251 -1.85798 0
M  V30 37441 C 3473.7 -1.63841 -3.05544 0
M  V30 37442 C 3472.76 -2.86993 -3.1927 0
M  V30 37443 C 3472 -2.88096 -4.49262 0
M  V30 37444 O 3472.22 -1.98377 -5.34792 0
M  V30 37445 O 3471.15 -3.79971 -4.66804 0
M  V30 37446 H 3474.98 -2.58659 -1.59151 0
M  V30 37447 H 3472.56 -1.30564 -0.726189 0
M  V30 37448 H 3474.45 -1.67282 -3.86775 0
M  V30 37449 H 3473.12 -0.710229 -3.15812 0
M  V30 37450 H 3472.03 -2.89097 -2.37432 0
M  V30 37451 H 3473.36 -3.7911 -3.13906 0
M  V30 37452 N 3475.01 0.802873 -1.35616 0
M  V30 37453 C 3476.24 1.5914 -1.3222 0
M  V30 37454 C 3476.66 1.88538 0.0995164 0
M  V30 37455 O 3476.01 1.49089 1.05255 0
M  V30 37456 C 3476.06 2.92045 -2.13053 0
M  V30 37457 O 3475.79 2.63921 -3.49682 0
M  V30 37458 C 3477.29 3.86396 -2.17285 0
M  V30 37459 H 3474.51 0.494032 -0.454063 0
M  V30 37460 H 3477.05 0.997485 -1.78523 0
M  V30 37461 H 3475.21 3.47941 -1.7034 0
M  V30 37462 H 3475.62 3.48807 -3.91706 0
M  V30 37463 H 3477.09 4.76753 -2.78228 0
M  V30 37464 H 3477.57 4.23257 -1.17261 0
M  V30 37465 H 3478.18 3.36435 -2.60175 0
M  V30 37466 N 3476.49 1.19674 1.02547 0
M  V30 37467 C 3477.74 0.999494 1.75655 0
M  V30 37468 C 3478.06 -0.470484 1.89239 0
M  V30 37469 O 3477.33 -1.34059 1.42846 0
M  V30 37470 H 3475.91 0.366832 0.650725 0
M  V30 37471 H 3478.57 1.50629 1.23681 0
M  V30 37472 H 3477.67 1.4504 2.76351 0
M  V30 37473 N 3477.97 -1.21711 1.00121 0
M  V30 37474 C 3478.92 -2.23942 0.558428 0
M  V30 37475 C 3479.89 -1.60869 -0.413547 0
M  V30 37476 O 3481.07 -1.88158 -0.316445 0
M  V30 37477 C 3478.21 -3.44916 -0.112558 0
M  V30 37478 C 3477.32 -4.22475 0.902145 0
M  V30 37479 C 3476.46 -5.30809 0.203815 0
M  V30 37480 C 3475.5 -6.00095 1.20632 0
M  V30 37481 N 3474.64 -7.00053 0.53573 0
M  V30 37482 H 3479.48 -2.61179 1.4349 0
M  V30 37483 H 3477.01 -1.28354 0.718594 0
M  V30 37484 H 3478.97 -4.13965 -0.518577 0
M  V30 37485 H 3477.6 -3.08419 -0.952773 0
M  V30 37486 H 3476.65 -3.52643 1.42643 0
M  V30 37487 H 3477.96 -4.70183 1.66521 0
M  V30 37488 H 3477.12 -6.06149 -0.258508 0
M  V30 37489 H 3475.86 -4.84097 -0.591688 0
M  V30 37490 H 3474.86 -5.2353 1.67919 0
M  V30 37491 H 3476.09 -6.48894 2.00284 0
M  V30 37492 H 3474.03 -6.5556 -0.240185 0
M  V30 37493 H 3473.95 -7.45809 1.23711 0
M  V30 37494 H 3475.22 -7.7944 0.0964859 0
M  V30 37495 N 3479.45 -0.775459 -1.37202 0
M  V30 37496 C 3480.41 -0.170447 -2.28565 0
M  V30 37497 C 3481.41 0.624059 -1.48196 0
M  V30 37498 O 3482.6 0.447103 -1.68365 0
M  V30 37499 C 3479.73 0.765771 -3.32188 0
M  V30 37500 H 3480.93 -0.975874 -2.83578 0
M  V30 37501 H 3478.48 -0.543921 -1.46531 0
M  V30 37502 H 3479.21 1.59606 -2.82305 0
M  V30 37503 H 3479 0.198183 -3.91599 0
M  V30 37504 H 3480.49 1.18439 -4.00452 0
M  V30 37505 N 3480.93 1.48552 -0.526305 0
M  V30 37506 C 3481.86 2.32391 0.227323 0
M  V30 37507 C 3482.84 1.41861 0.938595 0
M  V30 37508 O 3484.02 1.70751 0.925089 0
M  V30 37509 C 3481.15 3.22973 1.27694 0
M  V30 37510 C 3480.11 4.22499 0.684033 0
M  V30 37511 C 3479.43 5.02189 1.83603 0
M  V30 37512 C 3480.73 5.2118 -0.341814 0
M  V30 37513 H 3482.43 2.95647 -0.472538 0
M  V30 37514 H 3479.97 1.42172 -0.228694 0
M  V30 37515 H 3481.92 3.80449 1.81208 0
M  V30 37516 H 3480.65 2.57709 2.00633 0
M  V30 37517 H 3479.31 3.66204 0.170441 0
M  V30 37518 H 3478.96 4.33353 2.55371 0
M  V30 37519 H 3478.66 5.69549 1.44526 0
M  V30 37520 H 3480.18 5.62516 2.37503 0
M  V30 37521 H 3481.59 5.73202 0.106107 0
M  V30 37522 H 3479.99 5.96572 -0.649777 0
M  V30 37523 H 3481.06 4.68541 -1.24888 0
M  V30 37524 N 3482.4 0.261267 1.55419 0
M  V30 37525 C 3483.35 -0.632177 2.21973 0
M  V30 37526 C 3484.32 -1.16039 1.18845 0
M  V30 37527 O 3485.51 -1.21223 1.47341 0
M  V30 37528 C 3482.65 -1.81688 2.934 0
M  V30 37529 C 3481.76 -1.32383 4.11216 0
M  V30 37530 C 3480.89 -2.46922 4.70322 0
M  V30 37531 C 3479.93 -1.94551 5.80359 0
M  V30 37532 N 3479.07 -3.02511 6.33586 0
M  V30 37533 H 3483.91 -0.0579656 2.97944 0
M  V30 37534 H 3481.45 -0.0168467 1.4709 0
M  V30 37535 H 3483.4 -2.51304 3.3302 0
M  V30 37536 H 3482.03 -2.36334 2.19878 0
M  V30 37537 H 3481.09 -0.521225 3.76812 0
M  V30 37538 H 3482.4 -0.900128 4.90611 0
M  V30 37539 H 3481.55 -3.24556 5.1259 0
M  V30 37540 H 3480.29 -2.92601 3.90174 0
M  V30 37541 H 3479.3 -1.15392 5.37554 0
M  V30 37542 H 3480.52 -1.49825 6.62366 0
M  V30 37543 H 3478.47 -3.47598 5.56338 0
M  V30 37544 H 3478.38 -2.64516 7.08214 0
M  V30 37545 H 3479.65 -3.80162 6.80512 0
M  V30 37546 N 3483.88 -1.57596 -0.0116567 0
M  V30 37547 C 3484.81 -2.04514 -1.03474 0
M  V30 37548 C 3485.83 -0.960968 -1.31412 0
M  V30 37549 O 3487.02 -1.23798 -1.28594 0
M  V30 37550 C 3484.12 -2.42023 -2.3723 0
M  V30 37551 C 3483.29 -3.73032 -2.28398 0
M  V30 37552 C 3482.35 -3.97538 -3.44746 0
M  V30 37553 O 3481.37 -4.68364 -3.23457 0
M  V30 37554 N 3482.58 -3.44526 -4.67206 0
M  V30 37555 H 3485.34 -2.92902 -0.634706 0
M  V30 37556 H 3482.9 -1.60669 -0.199272 0
M  V30 37557 H 3484.89 -2.55541 -3.13817 0
M  V30 37558 H 3483.46 -1.59215 -2.69016 0
M  V30 37559 H 3482.68 -3.69703 -1.36797 0
M  V30 37560 H 3483.97 -4.58942 -2.19658 0
M  V30 37561 H 3483.37 -2.87151 -4.87402 0
M  V30 37562 H 3481.93 -3.63394 -5.41099 0
M  V30 37563 N 3485.36 0.284228 -1.55016 0
M  V30 37564 C 3486.61 1.01881 -1.75351 0
M  V30 37565 C 3486.94 1.86341 -0.546858 0
M  V30 37566 O 3486.21 1.89084 0.455799 0
M  V30 37567 C 3486.5 1.91079 -3.05223 0
M  V30 37568 C 3486.35 1.09687 -4.36221 0
M  V30 37569 C 3487.67 2.89977 -3.31061 0
M  V30 37570 H 3484.79 0.368973 -0.637987 0
M  V30 37571 H 3487.43 0.292083 -1.87742 0
M  V30 37572 H 3485.58 2.53043 -2.94791 0
M  V30 37573 H 3487.25 0.498796 -4.58595 0
M  V30 37574 H 3485.49 0.400002 -4.31952 0
M  V30 37575 H 3486.17 1.7539 -5.23395 0
M  V30 37576 H 3488.64 2.38145 -3.41213 0
M  V30 37577 H 3487.52 3.49539 -4.23218 0
M  V30 37578 H 3487.78 3.64517 -2.5016 0
M  V30 37579 N 3486.84 1.47758 0.548222 0
M  V30 37580 C 3488.07 1.58474 1.33017 0
M  V30 37581 C 3488.48 0.238219 1.87291 0
M  V30 37582 O 3487.84 -0.769881 1.65466 0
M  V30 37583 C 3487.89 2.61708 2.49381 0
M  V30 37584 O 3487.61 3.91134 1.97348 0
M  V30 37585 C 3489.11 2.82694 3.41466 0
M  V30 37586 H 3486.33 0.534868 0.405163 0
M  V30 37587 H 3488.87 1.93447 0.663217 0
M  V30 37588 H 3487.03 2.29645 3.11997 0
M  V30 37589 H 3487.44 4.47619 2.73382 0
M  V30 37590 H 3488.92 3.5877 4.19509 0
M  V30 37591 H 3489.39 1.90844 3.95569 0
M  V30 37592 H 3490 3.1599 2.84659 0
M  V30 37593 N 3488.32 -0.79567 1.3604 0
M  V30 37594 C 3489.56 -1.5502 1.29665 0
M  V30 37595 C 3489.88 -1.94595 -0.125554 0
M  V30 37596 O 3489.15 -1.64458 -1.06444 0
M  V30 37597 H 3487.73 -0.574897 0.476972 0
M  V30 37598 H 3490.4 -0.948441 1.70266 0
M  V30 37599 H 3489.49 -2.46064 1.91987 0
M  V30 37600 N 3489.79 -1.20217 -1.0191 0
M  V30 37601 C 3490.72 -0.972598 -2.1228 0
M  V30 37602 C 3491.71 0.097541 -1.6982 0
M  V30 37603 O 3492.89 -0.0594648 -1.94109 0
M  V30 37604 C 3490.02 -0.521145 -3.43368 0
M  V30 37605 C 3488.97 -1.53424 -3.99556 0
M  V30 37606 C 3488.3 -0.939512 -5.26381 0
M  V30 37607 C 3489.6 -2.91726 -4.33236 0
M  V30 37608 H 3491.29 -1.89567 -2.31743 0
M  V30 37609 H 3488.84 -0.91286 -1.11368 0
M  V30 37610 H 3490.79 -0.347786 -4.19962 0
M  V30 37611 H 3489.52 0.437549 -3.23656 0
M  V30 37612 H 3488.18 -1.69492 -3.25066 0
M  V30 37613 H 3487.82 0.0270352 -5.02993 0
M  V30 37614 H 3487.52 -1.6161 -5.64939 0
M  V30 37615 H 3489.05 -0.777166 -6.05634 0
M  V30 37616 H 3490.46 -2.79184 -5.00729 0
M  V30 37617 H 3488.86 -3.56268 -4.82901 0
M  V30 37618 H 3489.93 -3.43639 -3.42112 0
M  V30 37619 N 3491.27 1.21178 -1.00765 0
M  V30 37620 C 3492.5 1.94849 -0.71055 0
M  V30 37621 C 3492.92 1.73737 0.720904 0
M  V30 37622 O 3492.28 1.02591 1.49482 0
M  V30 37623 C 3492.33 3.45265 -1.04041 0
M  V30 37624 O 3491.43 4.12138 -0.147119 0
M  V30 37625 H 3490.77 0.609052 -0.264483 0
M  V30 37626 H 3493.3 1.53862 -1.34861 0
M  V30 37627 H 3493.31 3.95848 -0.988369 0
M  V30 37628 H 3491.99 3.59955 -2.0834 0
M  V30 37629 H 3490.57 3.72021 -0.255912 0
M  V30 37630 N 3492.75 0.782725 1.36789 0
M  V30 37631 C 3493.98 0.362607 2.04206 0
M  V30 37632 C 3494.4 -1.01071 1.58639 0
M  V30 37633 O 3493.76 -1.64981 0.751721 0
M  V30 37634 C 3493.81 0.427163 3.58061 0
M  V30 37635 O 3492.91 -0.568378 4.08464 0
M  V30 37636 H 3492.25 0.155084 0.645635 0
M  V30 37637 H 3494.78 1.06197 1.74881 0
M  V30 37638 H 3494.79 0.28837 4.0698 0
M  V30 37639 H 3493.47 1.42899 3.9058 0
M  V30 37640 H 3492.04 -0.391798 3.70836 0
M  V30 37641 N 3494.23 -1.48271 0.534176 0
M  V30 37642 C 3495.19 -2.28184 -0.215601 0
M  V30 37643 C 3496.19 -1.3562 -0.863942 0
M  V30 37644 O 3497.38 -1.58472 -0.723347 0
M  V30 37645 C 3494.51 -3.14623 -1.31246 0
M  V30 37646 H 3495.71 -2.95935 0.486066 0
M  V30 37647 H 3493.26 -1.53581 0.290264 0
M  V30 37648 H 3493.99 -2.51512 -2.04725 0
M  V30 37649 H 3493.78 -3.82717 -0.852639 0
M  V30 37650 H 3495.27 -3.74892 -1.83972 0
M  V30 37651 N 3495.71 -0.269505 -1.55279 0
M  V30 37652 C 3496.62 0.630611 -2.25966 0
M  V30 37653 C 3497.63 1.17474 -1.28359 0
M  V30 37654 O 3498.81 1.20622 -1.61283 0
M  V30 37655 C 3495.87 1.80076 -2.96266 0
M  V30 37656 C 3494.93 1.29386 -4.09338 0
M  V30 37657 C 3494.17 2.40824 -4.76276 0
M  V30 37658 O 3494.39 3.60059 -4.42396 0
M  V30 37659 O 3493.32 2.09299 -5.64338 0
M  V30 37660 H 3497.15 0.0581535 -3.03644 0
M  V30 37661 H 3494.74 -0.0371228 -1.49354 0
M  V30 37662 H 3496.62 2.48317 -3.40466 0
M  V30 37663 H 3495.29 2.36041 -2.21509 0
M  V30 37664 H 3494.2 0.578089 -3.69606 0
M  V30 37665 H 3495.53 0.780031 -4.8598 0
M  V30 37666 N 3497.18 1.576 0.00329885 0
M  V30 37667 C 3498.13 2.09333 1.01402 0
M  V30 37668 C 3499.13 1.0126 1.35804 0
M  V30 37669 O 3500.33 1.19728 1.34407 0
M  V30 37670 H 3496.71 0.668372 0.344649 0
M  V30 37671 H 3498.68 2.93248 0.552103 0
M  V30 37672 C 3497.43 2.60922 2.29815 0
M  V30 37673 H 3496.75 3.43712 2.0421 0
M  V30 37674 H 3498.19 3.00803 2.98821 0
M  V30 37675 C 3496.65 1.52188 3.00567 0
M  V30 37676 O 3497.18 0.902886 3.91422 0
M  V30 37677 N 3495.39 1.25013 2.62336 0
M  V30 37678 H 3494.93 1.75534 1.88535 0
M  V30 37679 H 3494.89 0.524791 3.09989 0
M  V30 37680 N 3498.66 -0.276003 1.55164 0
M  V30 37681 C 3499.63 -1.32433 1.87067 0
M  V30 37682 C 3500.63 -1.42498 0.745049 0
M  V30 37683 O 3501.82 -1.41701 1.01324 0
M  V30 37684 C 3498.95 -2.70607 2.07327 0
M  V30 37685 H 3500.14 -1.05377 2.80777 0
M  V30 37686 H 3497.69 -0.513921 1.47609 0
M  V30 37687 H 3498.43 -3.02848 1.15989 0
M  V30 37688 H 3498.21 -2.64688 2.89279 0
M  V30 37689 H 3499.7 -3.46358 2.33293 0
M  V30 37690 N 3500.14 -1.48046 -0.540378 0
M  V30 37691 C 3501.07 -1.64683 -1.65535 0
M  V30 37692 C 3502.05 -0.495876 -1.62712 0
M  V30 37693 O 3503.24 -0.727204 -1.8007 0
M  V30 37694 C 3500.37 -1.67666 -3.04147 0
M  V30 37695 C 3499.32 -2.82157 -3.21825 0
M  V30 37696 C 3498.65 -2.70224 -4.61393 0
M  V30 37697 C 3499.95 -4.23572 -3.05588 0
M  V30 37698 H 3501.64 -2.58024 -1.51868 0
M  V30 37699 H 3499.19 -1.24173 -0.729186 0
M  V30 37700 H 3501.14 -1.77894 -3.8201 0
M  V30 37701 H 3499.86 -0.708963 -3.18812 0
M  V30 37702 H 3498.52 -2.71468 -2.46375 0
M  V30 37703 H 3498.17 -1.71445 -4.7288 0
M  V30 37704 H 3497.87 -3.47043 -4.74168 0
M  V30 37705 H 3499.39 -2.82404 -5.41369 0
M  V30 37706 H 3500.81 -4.3515 -3.73253 0
M  V30 37707 H 3499.21 -5.01309 -3.29863 0
M  V30 37708 H 3500.28 -4.40761 -2.02132 0
M  V30 37709 N 3501.62 0.788444 -1.3646 0
M  V30 37710 C 3502.55 1.91539 -1.33549 0
M  V30 37711 C 3503.53 1.68838 -0.206792 0
M  V30 37712 O 3504.71 1.89939 -0.404586 0
M  V30 37713 C 3501.84 3.28575 -1.12498 0
M  V30 37714 C 3500.8 3.65801 -2.22202 0
M  V30 37715 C 3500.12 5.01197 -1.86294 0
M  V30 37716 C 3501.42 3.74283 -3.64293 0
M  V30 37717 H 3503.12 1.94232 -2.27847 0
M  V30 37718 H 3500.66 0.933086 -1.09679 0
M  V30 37719 H 3502.62 4.07033 -1.09096 0
M  V30 37720 H 3501.34 3.26271 -0.146503 0
M  V30 37721 H 3500 2.8964 -2.24732 0
M  V30 37722 H 3499.65 4.95416 -0.870177 0
M  V30 37723 H 3499.35 5.27074 -2.59743 0
M  V30 37724 H 3500.87 5.82075 -1.84449 0
M  V30 37725 H 3502.29 4.42931 -3.63985 0
M  V30 37726 H 3500.68 4.11645 -4.36655 0
M  V30 37727 H 3501.75 2.75364 -3.99128 0
M  V30 37728 N 3503.1 1.20755 1.01271 0
M  V30 37729 C 3504.34 1.02159 1.75189 0
M  V30 37730 C 3504.68 -0.444758 1.89038 0
M  V30 37731 O 3503.95 -1.33015 1.41906 0
M  V30 37732 C 3504.23 1.71036 3.16889 0
M  V30 37733 C 3504.09 3.25141 3.10811 0
M  V30 37734 C 3505.41 1.44662 4.15645 0
M  V30 37735 H 3502.52 0.372533 0.635915 0
M  V30 37736 H 3505.17 1.48824 1.18117 0
M  V30 37737 H 3503.32 1.31363 3.65617 0
M  V30 37738 H 3504.99 3.74133 2.69856 0
M  V30 37739 H 3503.23 3.55844 2.48107 0
M  V30 37740 H 3503.9 3.68494 4.10994 0
M  V30 37741 H 3506.38 1.79087 3.75589 0
M  V30 37742 H 3505.25 1.9538 5.1295 0
M  V30 37743 H 3505.52 0.375017 4.40507 0
M  V30 37744 N 3504.58 -1.20642 1.01406 0
M  V30 37745 C 3505.54 -2.21556 0.58698 0
M  V30 37746 C 3506.54 -1.57132 -0.341515 0
M  V30 37747 O 3507.73 -1.7371 -0.130554 0
M  V30 37748 C 3504.86 -3.40599 -0.143188 0
M  V30 37749 H 3506.05 -2.60855 1.47968 0
M  V30 37750 H 3503.61 -1.34061 0.803574 0
M  V30 37751 H 3504.34 -3.068 -1.05092 0
M  V30 37752 H 3504.13 -3.88586 0.523784 0
M  V30 37753 H 3505.62 -4.15386 -0.429431 0
M  V30 37754 N 3506.05 -0.789968 -1.36372 0
M  V30 37755 C 3506.98 -0.202984 -2.32616 0
M  V30 37756 C 3507.96 0.662336 -1.56675 0
M  V30 37757 O 3509.15 0.596046 -1.84827 0
M  V30 37758 C 3506.28 0.662586 -3.40921 0
M  V30 37759 C 3505.23 -0.102886 -4.27876 0
M  V30 37760 C 3504.56 0.883314 -5.27353 0
M  V30 37761 C 3505.86 -1.2924 -5.06058 0
M  V30 37762 H 3507.55 -1.00704 -2.81956 0
M  V30 37763 H 3505.1 -0.485704 -1.35562 0
M  V30 37764 H 3507.05 1.08317 -4.07241 0
M  V30 37765 H 3505.78 1.49935 -2.9015 0
M  V30 37766 H 3504.44 -0.504453 -3.63113 0
M  V30 37767 H 3504.08 1.71513 -4.72856 0
M  V30 37768 H 3503.78 0.375566 -5.86399 0
M  V30 37769 H 3505.31 1.30245 -5.96547 0
M  V30 37770 H 3506.72 -0.947546 -5.65415 0
M  V30 37771 H 3505.12 -1.73348 -5.74518 0
M  V30 37772 H 3506.19 -2.08747 -4.37667 0
M  V30 37773 N 3507.53 1.47986 -0.542031 0
M  V30 37774 C 3508.78 2.02496 -0.0123472 0
M  V30 37775 C 3509.11 1.41795 1.33133 0
M  V30 37776 O 3508.36 0.557534 1.8759 0
M  V30 37777 C 3508.66 3.57101 0.146145 0
M  V30 37778 C 3508.33 4.36648 -1.12471 0
M  V30 37779 C 3506.99 4.58102 -1.47297 0
M  V30 37780 C 3509.34 4.82636 -1.96754 0
M  V30 37781 C 3506.67 5.22791 -2.66282 0
M  V30 37782 C 3509.02 5.48637 -3.14929 0
M  V30 37783 C 3507.68 5.68327 -3.50087 0
M  V30 37784 H 3506.95 0.740986 -0.00451817 0
M  V30 37785 H 3509.6 1.77832 -0.710486 0
M  V30 37786 H 3507.91 3.80672 0.927142 0
M  V30 37787 H 3509.6 3.96913 0.571091 0
M  V30 37788 H 3506.19 4.20218 -0.843503 0
M  V30 37789 H 3510.38 4.65853 -1.71158 0
M  V30 37790 H 3505.63 5.36232 -2.93709 0
M  V30 37791 H 3509.81 5.83238 -3.80535 0
M  V30 37792 H 3507.43 6.18225 -4.42382 0
M  V30 37793 N 3509.01 0.277736 1.55133 0
M  V30 37794 C 3510.26 -0.337627 1.9926 0
M  V30 37795 C 3510.58 -1.56181 1.16758 0
M  V30 37796 O 3509.85 -1.94197 0.257741 0
M  V30 37797 H 3508.43 -0.127738 0.735997 0
M  V30 37798 H 3511.09 0.383679 1.91086 0
M  V30 37799 H 3510.19 -0.625693 3.05764 0
M  V30 37800 N 3510.49 -1.57599 0.00505908 0
M  V30 37801 C 3511.72 -1.94788 -0.688575 0
M  V30 37802 C 3512.13 -0.878728 -1.67556 0
M  V30 37803 O 3511.47 0.150454 -1.83083 0
M  V30 37804 C 3511.53 -3.27993 -1.47177 0
M  V30 37805 C 3511.19 -4.52414 -0.645811 0
M  V30 37806 C 3512.19 -5.19855 0.0686772 0
M  V30 37807 C 3509.88 -4.98819 -0.590292 0
M  V30 37808 C 3511.87 -6.32004 0.827616 0
M  V30 37809 C 3509.56 -6.10857 0.172369 0
M  V30 37810 C 3510.56 -6.77307 0.880051 0
M  V30 37811 O 3510.24 -7.87196 1.63026 0
M  V30 37812 H 3509.98 -0.64684 -0.196404 0
M  V30 37813 H 3512.53 -2.05329 0.0538294 0
M  V30 37814 H 3510.76 -3.13873 -2.25877 0
M  V30 37815 H 3512.45 -3.50256 -2.05122 0
M  V30 37816 H 3513.21 -4.84987 0.0349686 0
M  V30 37817 H 3509.09 -4.4692 -1.13066 0
M  V30 37818 H 3512.64 -6.83804 1.38052 0
M  V30 37819 H 3508.53 -6.45165 0.20788 0
M  V30 37820 H 3509.3 -8.03738 1.5475 0
M  V30 37821 N 3511.97 0.267771 -1.55309 0
M  V30 37822 C 3513.21 1.00016 -1.76422 0
M  V30 37823 C 3513.54 1.85751 -0.566591 0
M  V30 37824 O 3512.82 1.89557 0.435719 0
M  V30 37825 C 3513.1 1.87831 -3.07232 0
M  V30 37826 C 3512.96 1.05054 -4.3736 0
M  V30 37827 C 3514.27 2.86449 -3.34118 0
M  V30 37828 H 3511.39 0.362186 -0.641865 0
M  V30 37829 H 3514.04 0.272154 -1.88041 0
M  V30 37830 H 3512.19 2.49902 -2.97458 0
M  V30 37831 H 3513.86 0.450128 -4.59099 0
M  V30 37832 H 3512.1 0.354166 -4.32352 0
M  V30 37833 H 3512.77 1.69829 -5.25226 0
M  V30 37834 H 3515.25 2.34513 -3.43719 0
M  V30 37835 H 3514.12 3.45031 -4.26902 0
M  V30 37836 H 3514.38 3.61843 -2.54012 0
M  V30 37837 N 3513.44 1.48331 0.532519 0
M  V30 37838 C 3514.69 1.5591 1.28594 0
M  V30 37839 C 3515.01 0.233669 1.93595 0
M  V30 37840 O 3514.28 -0.744573 1.81199 0
M  V30 37841 H 3512.86 0.574368 0.477609 0
M  V30 37842 H 3515.52 1.84779 0.619889 0
M  V30 37843 H 3514.62 2.3388 2.06655 0
M  V30 37844 N 3514.92 -0.781196 1.36876 0
M  V30 37845 C 3516.15 -1.56789 1.3454 0
M  V30 37846 C 3516.56 -1.89057 -0.0734377 0
M  V30 37847 O 3515.9 -1.51216 -1.04304 0
M  V30 37848 C 3515.96 -2.91083 2.10976 0
M  V30 37849 C 3515.63 -2.815 3.6001 0
M  V30 37850 C 3516.63 -2.53177 4.54089 0
M  V30 37851 C 3514.31 -2.99819 4.03006 0
M  V30 37852 C 3516.3 -2.43287 5.89143 0
M  V30 37853 C 3513.99 -2.8955 5.38149 0
M  V30 37854 C 3514.99 -2.61323 6.3103 0
M  V30 37855 O 3514.68 -2.51064 7.6369 0
M  V30 37856 H 3514.41 -0.492693 0.462849 0
M  V30 37857 H 3516.96 -0.976837 1.80685 0
M  V30 37858 H 3515.19 -3.52271 1.59506 0
M  V30 37859 H 3516.88 -3.52414 2.01393 0
M  V30 37860 H 3517.65 -2.38719 4.22182 0
M  V30 37861 H 3513.53 -3.20793 3.31078 0
M  V30 37862 H 3517.07 -2.21176 6.61609 0
M  V30 37863 H 3512.97 -3.03573 5.69661 0
M  V30 37864 H 3513.74 -2.66484 7.73905 0
M  V30 37865 N 3516.4 -1.21291 -1.0063 0
M  V30 37866 C 3517.33 -0.92879 -2.09538 0
M  V30 37867 C 3518.34 0.0874926 -1.62565 0
M  V30 37868 O 3519.53 -0.144839 -1.77911 0
M  V30 37869 C 3516.63 -0.372819 -3.36843 0
M  V30 37870 C 3515.81 -1.44312 -4.12908 0
M  V30 37871 C 3514.87 -0.896625 -5.18505 0
M  V30 37872 O 3513.89 -1.57975 -5.46839 0
M  V30 37873 N 3515.09 0.288786 -5.79781 0
M  V30 37874 H 3517.86 -1.86633 -2.34495 0
M  V30 37875 H 3515.42 -1.11798 -1.17102 0
M  V30 37876 H 3517.41 0.00715623 -4.04699 0
M  V30 37877 H 3515.98 0.469518 -3.09054 0
M  V30 37878 H 3515.2 -1.997 -3.39873 0
M  V30 37879 H 3516.49 -2.16364 -4.60504 0
M  V30 37880 H 3515.89 0.860853 -5.59112 0
M  V30 37881 H 3514.44 0.610286 -6.48937 0
M  V30 37882 N 3517.88 1.20103 -1.02045 0
M  V30 37883 C 3518.84 2.21242 -0.598721 0
M  V30 37884 C 3519.84 1.5731 0.333178 0
M  V30 37885 O 3521.03 1.73777 0.12134 0
M  V30 37886 C 3518.16 3.4067 0.125123 0
M  V30 37887 H 3519.36 2.60067 -1.49349 0
M  V30 37888 H 3516.91 1.33633 -0.810672 0
M  V30 37889 H 3517.64 3.07353 1.03463 0
M  V30 37890 H 3517.43 3.88303 -0.544384 0
M  V30 37891 H 3518.92 4.15608 0.407396 0
M  V30 37892 N 3519.36 0.797189 1.35951 0
M  V30 37893 C 3520.29 0.215318 2.32505 0
M  V30 37894 C 3521.27 -0.654018 1.57024 0
M  V30 37895 O 3522.45 -0.586235 1.8514 0
M  V30 37896 C 3519.58 -0.644497 3.41268 0
M  V30 37897 C 3518.54 0.125576 4.27816 0
M  V30 37898 C 3517.86 -0.855335 5.27814 0
M  V30 37899 C 3519.16 1.31922 5.05365 0
M  V30 37900 H 3520.86 1.02198 2.81418 0
M  V30 37901 H 3518.4 0.492886 1.35302 0
M  V30 37902 H 3520.36 -1.06156 4.0781 0
M  V30 37903 H 3519.08 -1.48395 2.90941 0
M  V30 37904 H 3517.74 0.523703 3.6284 0
M  V30 37905 H 3517.39 -1.69003 4.73758 0
M  V30 37906 H 3517.09 -0.344463 5.86589 0
M  V30 37907 H 3518.61 -1.2708 5.97229 0
M  V30 37908 H 3520.02 0.977518 5.64905 0
M  V30 37909 H 3518.42 1.76392 5.7359 0
M  V30 37910 H 3519.49 2.11065 4.36554 0
M  V30 37911 N 3520.83 -1.47696 0.549872 0
M  V30 37912 C 3522.06 -2.07384 0.0257184 0
M  V30 37913 C 3522.48 -1.40092 -1.25522 0
M  V30 37914 O 3521.84 -0.473436 -1.75009 0
M  V30 37915 C 3521.89 -3.60241 -0.160772 0
M  V30 37916 O 3520.99 -3.93785 -1.22502 0
M  V30 37917 H 3520.34 -0.66226 0.0480321 0
M  V30 37918 H 3522.87 -1.89822 0.763463 0
M  V30 37919 H 3522.88 -4.06252 -0.377265 0
M  V30 37920 H 3521.55 -4.08618 0.774846 0
M  V30 37921 H 3520.13 -3.59529 -0.989607 0
M  V30 37922 N 3522.31 -0.285959 -1.54984 0
M  V30 37923 C 3523.26 0.596783 -2.22951 0
M  V30 37924 C 3524.23 1.14134 -1.20676 0
M  V30 37925 O 3525.41 1.18864 -1.49251 0
M  V30 37926 C 3522.55 1.76997 -2.96253 0
M  V30 37927 C 3521.67 1.25824 -4.1327 0
M  V30 37928 C 3520.8 2.39409 -4.74191 0
M  V30 37929 C 3519.84 1.85294 -5.8338 0
M  V30 37930 N 3518.98 2.92393 -6.38319 0
M  V30 37931 H 3523.82 0.010558 -2.97998 0
M  V30 37932 H 3521.36 -0.00655626 -1.47099 0
M  V30 37933 H 3523.31 2.45974 -3.36976 0
M  V30 37934 H 3521.94 2.32806 -2.2361 0
M  V30 37935 H 3521 0.461212 -3.77594 0
M  V30 37936 H 3522.31 0.821962 -4.91981 0
M  V30 37937 H 3521.46 3.1636 -5.17688 0
M  V30 37938 H 3520.2 2.86357 -3.9478 0
M  V30 37939 H 3519.21 1.06826 -5.39322 0
M  V30 37940 H 3520.43 1.39268 -6.64666 0
M  V30 37941 H 3518.38 3.38703 -5.61797 0
M  V30 37942 H 3518.29 2.53216 -7.12333 0
M  V30 37943 H 3519.56 3.69287 -6.86474 0
M  V30 37944 N 3523.79 1.57594 -0.0134169 0
M  V30 37945 C 3525.21 1.55875 0.34282 0
M  V30 37946 C 3525.41 1.01745 1.73926 0
M  V30 37947 O 3524.46 0.657201 2.43797 0
M  V30 37948 C 3525.78 2.99995 0.205778 0
M  V30 37949 C 3527.32 3.11748 0.27972 0
M  V30 37950 C 3527.8 4.57678 0.171649 0
M  V30 37951 N 3529.29 4.62633 0.229129 0
M  V30 37952 C 3530.02 5.73151 0.169052 0
M  V30 37953 N 3529.52 6.92775 0.0587948 0
M  V30 37954 N 3531.31 5.61662 0.221897 0
M  V30 37955 H 3523.46 1.91115 -0.92676 0
M  V30 37956 H 3525.73 0.878422 -0.356481 0
M  V30 37957 H 3525.43 3.43489 -0.755542 0
M  V30 37958 H 3525.31 3.64182 0.982412 0
M  V30 37959 H 3527.69 2.68176 1.23149 0
M  V30 37960 H 3527.78 2.50312 -0.527018 0
M  V30 37961 H 3527.42 5.01927 -0.776636 0
M  V30 37962 H 3527.35 5.17075 0.997047 0
M  V30 37963 H 3529.84 3.76584 0.31513 0
M  V30 37964 H 3530.15 7.72798 0.0192168 0
M  V30 37965 H 3528.5 6.94996 0.0242321 0
M  V30 37966 H 3531.69 4.67097 0.306324 0
M  V30 37967 H 3531.86 6.47773 0.171613 0
M  V30 37968 N 3525.27 -0.259531 1.55448 0
M  V30 37969 C 3526.22 -1.3237 1.8564 0
M  V30 37970 C 3527.2 -1.44077 0.716281 0
M  V30 37971 O 3528.39 -1.47531 0.977933 0
M  V30 37972 C 3525.52 -2.68153 2.14357 0
M  V30 37973 C 3524.61 -2.60502 3.34663 0
M  V30 37974 N 3525 -2.22476 4.54245 0
M  V30 37975 C 3523.3 -2.91539 3.37522 0
M  V30 37976 C 3524 -2.25147 5.36362 0
M  V30 37977 N 3522.98 -2.64153 4.75104 0
M  V30 37978 H 3526.78 -1.02 2.75632 0
M  V30 37979 H 3524.29 -0.468167 1.55505 0
M  V30 37980 H 3526.29 -3.44936 2.34148 0
M  V30 37981 H 3524.95 -2.99401 1.25656 0
M  V30 37982 H 3525.96 -1.94229 4.801 0
M  V30 37983 H 3522.64 -3.2741 2.59054 0
M  V30 37984 H 3524.03 -1.98194 6.42004 0
M  V30 37985 N 3526.75 -1.48611 -0.524645 0
M  V30 37986 C 3527.99 -1.57132 -1.28208 0
M  V30 37987 C 3528.33 -0.246785 -1.92626 0
M  V30 37988 O 3527.6 0.747694 -1.79554 0
M  V30 37989 C 3527.88 -2.71348 -2.36733 0
M  V30 37990 C 3527.74 -4.13523 -1.76971 0
M  V30 37991 C 3529.06 -2.813 -3.38465 0
M  V30 37992 H 3526.17 -0.571969 -0.46478 0
M  V30 37993 H 3528.82 -1.80805 -0.583905 0
M  V30 37994 H 3526.97 -2.51294 -2.96283 0
M  V30 37995 H 3528.64 -4.45031 -1.2143 0
M  V30 37996 H 3526.88 -4.20274 -1.07481 0
M  V30 37997 H 3527.55 -4.89271 -2.55575 0
M  V30 37998 H 3530.03 -2.99482 -2.88876 0
M  V30 37999 H 3528.9 -3.62935 -4.11788 0
M  V30 38000 H 3529.17 -1.89676 -3.99344 0
M  V30 38001 N 3528.22 0.773926 -1.37289 0
M  V30 38002 C 3529.64 1.35008 -1.28957 0
M  V30 38003 C 3529.99 1.96096 0.0637956 0
M  V30 38004 O 3529.11 1.93663 0.96559 0
M  V30 38005 C 3529.71 2.45463 -2.33524 0
M  V30 38006 C 3528.27 2.98852 -2.28833 0
M  V30 38007 C 3527.41 1.72051 -2.17471 0
M  V30 38008 H 3530.36 0.574354 -1.47942 0
M  V30 38009 H 3530.38 3.24886 -1.98064 0
M  V30 38010 H 3529.9 2.00972 -3.32012 0
M  V30 38011 H 3528 3.47724 -1.33862 0
M  V30 38012 H 3528.11 3.54614 -3.22158 0
M  V30 38013 H 3526.47 1.94891 -1.63981 0
M  V30 38014 H 3527.26 1.29667 -3.1787 0
M  V30 38015 N 3529.7 1.21823 0.99985 0
M  V30 38016 C 3530.64 0.92537 2.08596 0
M  V30 38017 C 3531.61 -0.129074 1.62087 0
M  V30 38018 O 3532.8 0.00100845 1.885 0
M  V30 38019 C 3529.92 0.390447 3.36442 0
M  V30 38020 C 3528.97 1.42849 4.01866 0
M  V30 38021 S 3529.8 2.99946 4.43613 0
M  V30 38022 C 3530.96 2.48074 5.74639 0
M  V30 38023 H 3531.19 1.84511 2.33116 0
M  V30 38024 H 3528.73 1.04853 1.13337 0
M  V30 38025 H 3530.68 0.0883943 4.10405 0
M  V30 38026 H 3529.34 -0.508061 3.09964 0
M  V30 38027 H 3528.54 1.00394 4.939 0
M  V30 38028 H 3528.14 1.67889 3.34199 0
M  V30 38029 H 3530.43 1.88881 6.50638 0
M  V30 38030 H 3531.37 3.3857 6.21913 0
M  V30 38031 H 3531.78 1.89602 5.31706 0
M  V30 38032 N 3531.18 -1.1956 1.0268 0
M  V30 38033 C 3532.43 -1.88514 0.717312 0
M  V30 38034 C 3532.74 -1.80356 -0.757031 0
M  V30 38035 O 3533.95 -2.44541 -1.17949 0
M  V30 38036 C 3532.4 -3.38131 1.23271 0
M  V30 38037 C 3532.01 -3.54851 2.73468 0
M  V30 38038 C 3533.76 -4.12575 0.999113 0
M  V30 38039 C 3531.66 -4.98349 3.18437 0
M  V30 38040 H 3530.59 -0.70604 0.26462 0
M  V30 38041 H 3533.24 -1.35188 1.24083 0
M  V30 38042 H 3531.63 -3.90841 0.63712 0
M  V30 38043 H 3532.8 -3.12479 3.38664 0
M  V30 38044 H 3531.12 -2.93793 2.95084 0
M  V30 38045 H 3533.71 -5.18395 1.31039 0
M  V30 38046 H 3534.06 -4.16251 -0.0641438 0
M  V30 38047 H 3534.59 -3.65995 1.5586 0
M  V30 38048 H 3531.33 -4.99834 4.24082 0
M  V30 38049 H 3530.85 -5.41491 2.57967 0
M  V30 38050 H 3532.53 -5.6699 3.11659 0
M  V30 38051 N 3532.66 -0.804387 -1.35526 0
M  V30 38052 C 3533.89 -0.396127 -2.03073 0
M  V30 38053 C 3534.3 0.992224 -1.60625 0
M  V30 38054 O 3533.66 1.63897 -0.802746 0
M  V30 38055 C 3533.71 -0.467364 -3.58466 0
M  V30 38056 O 3533.43 -1.80098 -3.9937 0
M  V30 38057 C 3534.93 -0.0516328 -4.4327 0
M  V30 38058 H 3532.15 -0.161224 -0.651343 0
M  V30 38059 H 3534.7 -1.0874 -1.73193 0
M  V30 38060 H 3532.85 0.175635 -3.87002 0
M  V30 38061 H 3533.26 -1.76223 -4.9401 0
M  V30 38062 H 3534.74 -0.152596 -5.51789 0
M  V30 38063 H 3535.22 1.00278 -4.27599 0
M  V30 38064 H 3535.82 -0.667702 -4.20026 0
M  V30 38065 N 3534.14 1.47403 -0.557697 0
M  V30 38066 C 3535.41 1.95574 0.0318736 0
M  V30 38067 C 3535.79 1.5003 1.48507 0
M  V30 38068 O 3535.14 0.739358 2.16208 0
M  V30 38069 C 3535.35 3.48813 -0.114117 0
M  V30 38070 C 3536.7 4.24589 0.0309787 0
M  V30 38071 O 3537.72 3.56176 -0.0416886 0
M  V30 38072 O 3536.58 5.46179 0.187391 0
M  V30 38073 H 3533.68 0.824531 0.0638602 0
M  V30 38074 H 3536.22 1.57801 -0.624254 0
M  V30 38075 H 3535 3.7477 -1.12532 0
M  V30 38076 H 3534.62 3.93353 0.5796 0
M  V30 38077 N 3535.62 0.294175 1.5483 0
M  V30 38078 C 3536.86 -0.317839 1.9918 0
M  V30 38079 C 3537.18 -1.5553 1.18617 0
M  V30 38080 O 3538.38 -2.24147 1.53201 0
M  V30 38081 C 3536.84 -0.61683 3.54575 0
M  V30 38082 C 3536.45 0.6019 4.43938 0
M  V30 38083 C 3538.19 -1.19042 4.07467 0
M  V30 38084 C 3536.1 0.27644 5.90754 0
M  V30 38085 H 3535.03 -0.122537 0.743976 0
M  V30 38086 H 3537.68 0.401813 1.79047 0
M  V30 38087 H 3536.06 -1.39589 3.70582 0
M  V30 38088 H 3537.24 1.3783 4.39704 0
M  V30 38089 H 3535.55 1.09365 4.01781 0
M  V30 38090 H 3538.15 -1.44805 5.14719 0
M  V30 38091 H 3538.49 -2.13048 3.57654 0
M  V30 38092 H 3539.02 -0.473212 3.94975 0
M  V30 38093 H 3535.76 1.18489 6.44702 0
M  V30 38094 H 3535.28 -0.462823 5.98012 0
M  V30 38095 H 3536.96 -0.124473 6.4688 0
M  V30 38096 N 3537.09 -1.57585 0.0217743 0
M  V30 38097 C 3538.32 -1.95507 -0.667877 0
M  V30 38098 C 3538.73 -0.89645 -1.66615 0
M  V30 38099 O 3538.07 0.131027 -1.83232 0
M  V30 38100 C 3538.14 -3.29535 -1.4369 0
M  V30 38101 C 3537.8 -4.53073 -0.59779 0
M  V30 38102 C 3538.8 -5.19753 0.123811 0
M  V30 38103 C 3536.48 -4.99417 -0.537352 0
M  V30 38104 C 3538.48 -6.31091 0.894602 0
M  V30 38105 C 3536.16 -6.1064 0.237149 0
M  V30 38106 C 3537.16 -6.76335 0.951839 0
M  V30 38107 O 3536.85 -7.85423 1.71366 0
M  V30 38108 H 3536.58 -0.648886 -0.189533 0
M  V30 38109 H 3539.14 -2.05261 0.0756043 0
M  V30 38110 H 3537.37 -3.16251 -2.22536 0
M  V30 38111 H 3539.05 -3.52412 -2.01396 0
M  V30 38112 H 3539.82 -4.84923 0.086406 0
M  V30 38113 H 3535.7 -4.48094 -1.08319 0
M  V30 38114 H 3539.24 -6.82301 1.45297 0
M  V30 38115 H 3535.14 -6.44908 0.276297 0
M  V30 38116 H 3535.91 -8.02051 1.63266 0
M  V30 38117 N 3538.57 0.251283 -1.55584 0
M  V30 38118 C 3539.8 0.997604 -1.81261 0
M  V30 38119 C 3540.21 1.79116 -0.596892 0
M  V30 38120 O 3539.57 1.77255 0.434394 0
M  V30 38121 C 3539.62 1.93897 -3.051 0
M  V30 38122 O 3539.34 1.17753 -4.21979 0
M  V30 38123 C 3540.84 2.80164 -3.43545 0
M  V30 38124 H 3538.06 0.29375 -0.603284 0
M  V30 38125 H 3540.61 0.275495 -2.02636 0
M  V30 38126 H 3538.76 2.61541 -2.85788 0
M  V30 38127 H 3539.18 1.8139 -4.92136 0
M  V30 38128 H 3540.65 3.41973 -4.33311 0
M  V30 38129 H 3541.13 3.51052 -2.6393 0
M  V30 38130 H 3541.73 2.17978 -3.65192 0
M  V30 38131 N 3540.05 1.48887 0.516757 0
M  V30 38132 C 3541.3 1.56827 1.26839 0
M  V30 38133 C 3541.61 0.253032 1.93956 0
M  V30 38134 O 3542.82 0.210813 2.7068 0
M  V30 38135 C 3541.27 2.76637 2.30218 0
M  V30 38136 C 3540.88 4.14856 1.6911 0
M  V30 38137 C 3542.63 2.93898 3.06307 0
M  V30 38138 C 3540.53 5.25909 2.70507 0
M  V30 38139 H 3539.46 0.583878 0.477077 0
M  V30 38140 H 3542.11 1.75246 0.544156 0
M  V30 38141 H 3540.5 2.51679 3.05734 0
M  V30 38142 H 3541.67 4.49887 0.996924 0
M  V30 38143 H 3539.98 4.02822 1.05466 0
M  V30 38144 H 3542.58 3.74033 3.82104 0
M  V30 38145 H 3542.92 2.03855 3.62972 0
M  V30 38146 H 3543.46 3.18819 2.37906 0
M  V30 38147 H 3540.2 6.1796 2.18644 0
M  V30 38148 H 3539.72 4.95351 3.38212 0
M  V30 38149 H 3541.4 5.54581 3.3324 0
M  V30 38150 N 3541.53 -0.766635 1.37697 0
M  V30 38151 C 3542.44 -1.91102 1.36078 0
M  V30 38152 C 3543.45 -1.72052 0.259647 0
M  V30 38153 O 3544.63 -1.952 0.495894 0
M  V30 38154 C 3541.69 -3.26296 1.17182 0
M  V30 38155 C 3540.76 -3.57964 2.36981 0
M  V30 38156 C 3539.99 -4.86708 2.18977 0
M  V30 38157 O 3540.21 -5.58131 1.17668 0
M  V30 38158 O 3539.15 -5.17556 3.07278 0
M  V30 38159 H 3542.97 -1.9542 2.32475 0
M  V30 38160 H 3540.56 -0.910101 1.1848 0
M  V30 38161 H 3542.44 -4.07152 1.08652 0
M  V30 38162 H 3541.11 -3.22819 0.238615 0
M  V30 38163 H 3540.02 -2.77323 2.51084 0
M  V30 38164 H 3541.35 -3.66189 3.28886 0
M  V30 38165 N 3543.01 -1.22351 -0.993375 0
M  V30 38166 C 3544.28 -0.956305 -1.70629 0
M  V30 38167 C 3544.66 0.528734 -2.04371 0
M  V30 38168 O 3544.01 1.49664 -1.72664 0
M  V30 38169 C 3544.22 -1.85336 -2.95722 0
M  V30 38170 C 3545.57 -2.10916 -3.6851 0
M  V30 38171 O 3546.59 -1.8278 -3.05728 0
M  V30 38172 O 3545.45 -2.58565 -4.81463 0
M  V30 38173 H 3542.55 -0.359596 -0.744728 0
M  V30 38174 H 3545.09 -1.33334 -1.04976 0
M  V30 38175 H 3543.86 -2.85787 -2.67285 0
M  V30 38176 H 3543.49 -1.47787 -3.69113 0
M  V30 38177 N 3544.48 1.19014 -1.03313 0
M  V30 38178 C 3545.42 2.21852 -0.575694 0
M  V30 38179 C 3546.43 1.58978 0.350678 0
M  V30 38180 O 3547.62 1.77899 0.146394 0
M  V30 38181 C 3544.72 3.38422 0.17989 0
M  V30 38182 C 3543.89 4.30879 -0.752479 0
M  V30 38183 C 3542.95 5.26184 -0.0415409 0
M  V30 38184 O 3541.98 5.65249 -0.669503 0
M  V30 38185 N 3543.18 5.67368 1.22773 0
M  V30 38186 H 3545.94 2.61723 -1.46017 0
M  V30 38187 H 3543.5 1.33723 -0.912679 0
M  V30 38188 H 3545.5 3.99196 0.66515 0
M  V30 38189 H 3544.07 2.97305 0.965827 0
M  V30 38190 H 3543.29 3.67823 -1.41775 0
M  V30 38191 H 3544.57 4.89558 -1.38601 0
M  V30 38192 H 3543.97 5.37671 1.75858 0
M  V30 38193 H 3542.53 6.30375 1.65741 0
M  V30 38194 N 3545.96 0.811563 1.35098 0
M  V30 38195 C 3547.38 0.49591 1.517 0
M  V30 38196 C 3547.58 -0.982004 1.75951 0
M  V30 38197 O 3546.63 -1.76687 1.80383 0
M  V30 38198 C 3547.95 1.34559 2.68913 0
M  V30 38199 C 3549.49 1.34154 2.82793 0
M  V30 38200 C 3549.97 2.17545 4.03036 0
M  V30 38201 N 3551.46 2.15108 4.10223 0
M  V30 38202 C 3552.2 2.76386 5.02392 0
M  V30 38203 N 3551.69 3.46611 5.9986 0
M  V30 38204 N 3553.48 2.66001 4.95177 0
M  V30 38205 H 3545.64 1.76864 1.17614 0
M  V30 38206 H 3547.9 0.753052 0.575862 0
M  V30 38207 H 3547.6 2.39462 2.57586 0
M  V30 38208 H 3547.48 1.0023 3.6364 0
M  V30 38209 H 3549.87 0.300336 2.93568 0
M  V30 38210 H 3549.95 1.72474 1.88909 0
M  V30 38211 H 3549.59 3.21708 3.93022 0
M  V30 38212 H 3549.52 1.76583 4.96111 0
M  V30 38213 H 3552.01 1.64016 3.40451 0
M  V30 38214 H 3552.32 3.90643 6.66796 0
M  V30 38215 H 3550.67 3.50716 6.00019 0
M  V30 38216 H 3553.86 2.10723 4.17988 0
M  V30 38217 H 3554.03 3.14046 5.66815 0
M  V30 38218 N 3547.44 -1.47105 0.565506 0
M  V30 38219 C 3548.37 -2.32912 -0.165629 0
M  V30 38220 C 3549.35 -1.44299 -0.900653 0
M  V30 38221 O 3550.54 -1.73143 -0.879493 0
M  V30 38222 C 3547.67 -3.26245 -1.19086 0
M  V30 38223 C 3546.62 -4.24164 -0.571774 0
M  V30 38224 C 3545.95 -5.06881 -1.70224 0
M  V30 38225 C 3547.25 -5.20091 0.479876 0
M  V30 38226 H 3548.94 -2.94291 0.550757 0
M  V30 38227 H 3546.49 -1.41516 0.266309 0
M  V30 38228 H 3548.44 -3.8512 -1.71058 0
M  V30 38229 H 3547.16 -2.62938 -1.9373 0
M  V30 38230 H 3545.82 -3.66527 -0.0732886 0
M  V30 38231 H 3545.47 -4.39971 -2.43792 0
M  V30 38232 H 3545.17 -5.73181 -1.29374 0
M  V30 38233 H 3546.69 -5.68616 -2.22505 0
M  V30 38234 H 3548.11 -5.73282 0.045905 0
M  V30 38235 H 3546.5 -5.94639 0.807719 0
M  V30 38236 H 3547.57 -4.65065 1.37267 0
M  V30 38237 N 3548.92 -0.302382 -1.54672 0
M  V30 38238 C 3549.83 0.582538 -2.27252 0
M  V30 38239 C 3550.84 1.14725 -1.30821 0
M  V30 38240 O 3552.02 1.17174 -1.63805 0
M  V30 38241 C 3549.09 1.73751 -3.00019 0
M  V30 38242 C 3548.15 1.20675 -4.1199 0
M  V30 38243 C 3547.38 2.30668 -4.81278 0
M  V30 38244 O 3547.6 3.50594 -4.49934 0
M  V30 38245 O 3546.54 1.97281 -5.68651 0
M  V30 38246 H 3550.36 -0.00626703 -3.03699 0
M  V30 38247 H 3547.95 -0.0687946 -1.49242 0
M  V30 38248 H 3549.83 2.41039 -3.45656 0
M  V30 38249 H 3548.5 2.3129 -2.26466 0
M  V30 38250 H 3547.41 0.499559 -3.7075 0
M  V30 38251 H 3548.74 0.676772 -4.87525 0
M  V30 38252 N 3550.4 1.57571 -0.0301311 0
M  V30 38253 C 3551.67 1.83138 0.686998 0
M  V30 38254 C 3552.05 0.914249 1.90275 0
M  V30 38255 O 3551.4 -0.0298956 2.2848 0
M  V30 38256 C 3551.61 3.32377 1.06426 0
M  V30 38257 C 3552.96 3.98875 1.45547 0
M  V30 38258 O 3553.98 3.36879 1.15721 0
M  V30 38259 O 3552.84 5.08145 2.01124 0
M  V30 38260 H 3549.94 0.755165 0.337127 0
M  V30 38261 H 3552.48 1.69601 -0.0578902 0
M  V30 38262 H 3551.25 3.90794 0.199008 0
M  V30 38263 H 3550.88 3.51025 1.86728 0
M  V30 38264 N 3551.87 -0.243029 1.55715 0
M  V30 38265 C 3553.1 -0.987978 1.81787 0
M  V30 38266 C 3553.52 -1.78797 0.606383 0
M  V30 38267 O 3552.87 -1.77483 -0.424987 0
M  V30 38268 C 3552.93 -1.92276 3.06124 0
M  V30 38269 O 3552.65 -1.15513 4.22597 0
M  V30 38270 C 3554.15 -2.78338 3.45026 0
M  V30 38271 H 3551.37 -0.290546 0.604834 0
M  V30 38272 H 3553.91 -0.264744 2.02779 0
M  V30 38273 H 3552.07 -2.60022 2.87171 0
M  V30 38274 H 3552.48 -1.78777 4.93091 0
M  V30 38275 H 3553.95 -3.39671 4.35118 0
M  V30 38276 H 3554.43 -3.49647 2.65788 0
M  V30 38277 H 3555.04 -2.16039 3.66343 0
M  V30 38278 N 3553.35 -1.49159 -0.508854 0
M  V30 38279 C 3554.58 -1.61945 -1.28768 0
M  V30 38280 C 3555 -0.287792 -1.86594 0
M  V30 38281 O 3554.35 0.72574 -1.67449 0
M  V30 38282 C 3554.4 -2.68228 -2.42355 0
M  V30 38283 O 3554.12 -3.96228 -1.86908 0
M  V30 38284 C 3555.63 -2.91648 -3.33851 0
M  V30 38285 H 3552.85 -0.545423 -0.390839 0
M  V30 38286 H 3555.39 -1.95137 -0.611695 0
M  V30 38287 H 3553.54 -2.37836 -3.05798 0
M  V30 38288 H 3553.96 -4.5471 -2.61418 0
M  V30 38289 H 3555.43 -3.69766 -4.0985 0
M  V30 38290 H 3555.91 -2.01265 -3.9037 0
M  V30 38291 H 3556.52 -3.23426 -2.76181 0
M  V30 38292 N 3554.83 0.759322 -1.38102 0
M  V30 38293 C 3555.78 1.86345 -1.31376 0
M  V30 38294 C 3556.76 1.59663 -0.199141 0
M  V30 38295 O 3557.96 1.71581 -0.43462 0
M  V30 38296 C 3555.09 3.2398 -1.13542 0
M  V30 38297 C 3554.17 3.56572 -2.29602 0
M  V30 38298 N 3554.56 3.60261 -3.5503 0
M  V30 38299 C 3552.86 3.86807 -2.22028 0
M  V30 38300 C 3553.56 3.89956 -4.31636 0
M  V30 38301 N 3552.54 4.06493 -3.60922 0
M  V30 38302 H 3556.34 1.87466 -2.26349 0
M  V30 38303 H 3553.85 0.956392 -1.31251 0
M  V30 38304 H 3555.85 4.02986 -1.06808 0
M  V30 38305 H 3554.51 3.24114 -0.194979 0
M  V30 38306 H 3555.52 3.42161 -3.88775 0
M  V30 38307 H 3552.2 3.9469 -1.36111 0
M  V30 38308 H 3553.59 3.99481 -5.40245 0
M  V30 38309 N 3556.31 1.22876 0.986873 0
M  V30 38310 C 3557.24 1.02854 2.09627 0
M  V30 38311 C 3558.22 -0.0524819 1.70019 0
M  V30 38312 O 3559.4 0.110908 1.93883 0
M  V30 38313 C 3556.53 0.612 3.41865 0
M  V30 38314 C 3555.49 1.63963 3.95348 0
M  V30 38315 C 3554.81 1.07874 5.23705 0
M  V30 38316 C 3556.11 3.0311 4.25349 0
M  V30 38317 H 3557.81 1.95645 2.26635 0
M  V30 38318 H 3555.35 0.942067 1.08909 0
M  V30 38319 H 3557.31 0.45901 4.18893 0
M  V30 38320 H 3556.03 -0.351583 3.24702 0
M  V30 38321 H 3554.69 1.7805 3.20458 0
M  V30 38322 H 3554.34 0.106334 5.02888 0
M  V30 38323 H 3554.04 1.76532 5.60455 0
M  V30 38324 H 3555.56 0.937466 6.03361 0
M  V30 38325 H 3556.98 2.92362 4.93151 0
M  V30 38326 H 3555.37 3.68946 4.73285 0
M  V30 38327 H 3556.44 3.52589 3.3288 0
M  V30 38328 N 3557.79 -1.18464 1.03942 0
M  V30 38329 C 3558.72 -2.21544 0.587452 0
M  V30 38330 C 3559.73 -1.59162 -0.342242 0
M  V30 38331 O 3560.92 -1.77974 -0.136957 0
M  V30 38332 C 3558.02 -3.38513 -0.16194 0
M  V30 38333 C 3557.19 -4.30474 0.775319 0
M  V30 38334 C 3556.25 -5.26154 0.0694451 0
M  V30 38335 O 3555.28 -5.64886 0.69947 0
M  V30 38336 N 3556.48 -5.68012 -1.19763 0
M  V30 38337 H 3559.25 -2.60945 1.47403 0
M  V30 38338 H 3556.81 -1.33237 0.919757 0
M  V30 38339 H 3558.8 -3.99544 -0.64397 0
M  V30 38340 H 3557.37 -2.97813 -0.950047 0
M  V30 38341 H 3556.59 -3.67066 1.43723 0
M  V30 38342 H 3557.88 -4.88816 1.41195 0
M  V30 38343 H 3557.27 -5.38596 -1.73004 0
M  V30 38344 H 3555.83 -6.31245 -1.62396 0
M  V30 38345 N 3559.26 -0.818716 -1.34665 0
M  V30 38346 C 3560.49 -0.417038 -2.02347 0
M  V30 38347 C 3560.9 0.980436 -1.61815 0
M  V30 38348 O 3560.25 1.64519 -0.817261 0
M  V30 38349 C 3560.31 -0.434841 -3.5686 0
M  V30 38350 C 3559.97 -1.78492 -4.20701 0
M  V30 38351 C 3560.97 -2.74512 -4.41519 0
M  V30 38352 C 3558.65 -2.07225 -4.57562 0
M  V30 38353 C 3560.65 -3.9744 -4.98317 0
M  V30 38354 C 3558.33 -3.30414 -5.14072 0
M  V30 38355 C 3559.33 -4.25339 -5.34393 0
M  V30 38356 O 3559.02 -5.46352 -5.89707 0
M  V30 38357 H 3558.75 -0.166101 -0.655276 0
M  V30 38358 H 3561.31 -1.10711 -1.73009 0
M  V30 38359 H 3559.54 0.311905 -3.8544 0
M  V30 38360 H 3561.23 -0.0537971 -4.05864 0
M  V30 38361 H 3561.99 -2.53608 -4.1341 0
M  V30 38362 H 3557.87 -1.34143 -4.41052 0
M  V30 38363 H 3561.41 -4.71543 -5.14094 0
M  V30 38364 H 3557.31 -3.51183 -5.41609 0
M  V30 38365 H 3558.08 -5.47815 -6.08146 0
M  V30 38366 N 3560.74 1.46803 -0.573299 0
M  V30 38367 C 3561.71 2.28675 0.155026 0
M  V30 38368 C 3562.71 1.37863 0.827681 0
M  V30 38369 O 3563.9 1.60334 0.681077 0
M  V30 38370 C 3561.03 3.17992 1.22858 0
M  V30 38371 H 3562.22 2.94542 -0.564357 0
M  V30 38372 H 3559.77 1.52758 -0.330882 0
M  V30 38373 H 3560.51 2.56851 1.97985 0
M  V30 38374 H 3560.29 3.84843 0.750869 0
M  V30 38375 H 3561.78 3.79638 1.73967 0
M  V30 38376 N 3562.22 0.31058 1.54509 0
M  V30 38377 C 3563.63 -0.180133 1.85829 0
M  V30 38378 C 3563.98 -1.52663 1.23241 0
M  V30 38379 O 3563.11 -2.09717 0.533627 0
M  V30 38380 C 3563.7 -0.333628 3.37153 0
M  V30 38381 C 3562.26 -0.76856 3.6847 0
M  V30 38382 C 3561.41 0.117448 2.77051 0
M  V30 38383 H 3564.36 0.531289 1.49543 0
M  V30 38384 H 3564.38 -1.16666 3.62173 0
M  V30 38385 H 3563.89 0.646522 3.82677 0
M  V30 38386 H 3561.99 -1.75892 3.2847 0
M  V30 38387 H 3562.11 -0.581309 4.7556 0
M  V30 38388 H 3560.47 -0.404861 2.51462 0
M  V30 38389 H 3561.25 1.09413 3.25398 0
M  V30 38390 N 3563.7 -1.57553 0.0384871 0
M  V30 38391 C 3564.65 -2.11948 -0.958161 0
M  V30 38392 C 3565.64 -1.04825 -1.33071 0
M  V30 38393 O 3566.85 -1.2325 -1.31185 0
M  V30 38394 H 3563.22 -0.677275 -0.326808 0
M  V30 38395 H 3565.19 -2.94609 -0.474159 0
M  V30 38396 C 3563.94 -2.66924 -2.22816 0
M  V30 38397 H 3563.27 -3.49006 -1.95026 0
M  V30 38398 H 3564.71 -3.08619 -2.9074 0
M  V30 38399 C 3563.16 -1.60103 -2.96426 0
M  V30 38400 O 3563.69 -1.00635 -3.8889 0
M  V30 38401 N 3561.9 -1.31925 -2.58929 0
M  V30 38402 H 3561.45 -1.80471 -1.83815 0
M  V30 38403 H 3561.41 -0.606794 -3.08489 0
M  V30 38404 N 3565.18 0.234767 -1.55842 0
M  V30 38405 C 3566.14 1.27427 -1.90513 0
M  V30 38406 C 3567.14 1.40472 -0.782568 0
M  V30 38407 O 3568.33 1.38964 -1.05045 0
M  V30 38408 C 3565.46 2.65015 -2.14429 0
M  V30 38409 H 3566.66 0.978953 -2.83472 0
M  V30 38410 H 3564.21 0.474604 -1.4892 0
M  V30 38411 H 3564.94 2.99667 -1.23977 0
M  V30 38412 H 3564.73 2.56926 -2.96195 0
M  V30 38413 H 3566.22 3.40051 -2.42394 0
M  V30 38414 N 3566.66 1.49427 0.500936 0
M  V30 38415 C 3567.9 1.58164 1.25168 0
M  V30 38416 C 3568.22 0.27359 1.93677 0
M  V30 38417 O 3569.42 0.23951 2.70441 0
M  V30 38418 C 3567.88 2.79063 2.27271 0
M  V30 38419 C 3567.49 4.16627 1.647 0
M  V30 38420 C 3569.23 2.9713 3.03173 0
M  V30 38421 C 3567.14 5.28748 2.64914 0
M  V30 38422 H 3566.07 0.588905 0.470857 0
M  V30 38423 H 3568.72 1.75813 0.525538 0
M  V30 38424 H 3567.1 2.54908 3.03048 0
M  V30 38425 H 3568.28 4.50919 0.949152 0
M  V30 38426 H 3566.59 4.03918 1.01188 0
M  V30 38427 H 3569.19 3.78065 3.78115 0
M  V30 38428 H 3569.53 2.07693 3.6079 0
M  V30 38429 H 3570.06 3.21325 2.34511 0
M  V30 38430 H 3566.8 6.20244 2.12078 0
M  V30 38431 H 3566.32 4.9891 3.3294 0
M  V30 38432 H 3568 5.58084 3.27339 0
M  V30 38433 N 3568.13 -0.751987 1.38502 0
M  V30 38434 C 3569.08 -1.86576 1.35861 0
M  V30 38435 C 3570.05 -1.64625 0.220902 0
M  V30 38436 O 3571.24 -1.86268 0.413381 0
M  V30 38437 C 3568.38 -3.23894 1.19108 0
M  V30 38438 C 3567.49 -3.57666 2.42279 0
M  V30 38439 C 3566.62 -4.84296 2.18245 0
M  V30 38440 C 3565.66 -5.10859 3.37178 0
M  V30 38441 N 3564.8 -6.28685 3.12569 0
M  V30 38442 H 3569.64 -1.88169 2.31077 0
M  V30 38443 H 3567.18 -0.919692 1.14804 0
M  V30 38444 H 3569.13 -4.03136 1.07411 0
M  V30 38445 H 3567.76 -3.21624 0.275299 0
M  V30 38446 H 3566.82 -2.73255 2.64643 0
M  V30 38447 H 3568.13 -3.73223 3.30917 0
M  V30 38448 H 3567.28 -5.71484 2.03692 0
M  V30 38449 H 3566.02 -4.70881 1.26974 0
M  V30 38450 H 3565.03 -4.22139 3.52248 0
M  V30 38451 H 3566.25 -5.26171 4.29327 0
M  V30 38452 H 3564.2 -6.1659 2.23948 0
M  V30 38453 H 3564.11 -6.4475 3.94757 0
M  V30 38454 H 3565.38 -7.18757 3.01676 0
M  V30 38455 N 3569.61 -1.23398 -0.980343 0
M  V30 38456 C 3570.84 -1.09279 -1.75687 0
M  V30 38457 C 3571.25 0.355741 -1.85418 0
M  V30 38458 O 3570.61 1.24607 -1.3334 0
M  V30 38459 C 3570.66 -1.71229 -3.18375 0
M  V30 38460 O 3570.38 -3.10417 -3.09149 0
M  V30 38461 C 3571.88 -1.62552 -4.12422 0
M  V30 38462 H 3569.1 -0.382436 -0.551347 0
M  V30 38463 H 3571.65 -1.6325 -1.23166 0
M  V30 38464 H 3569.8 -1.21291 -3.67923 0
M  V30 38465 H 3570.22 -3.40471 -3.98974 0
M  V30 38466 H 3571.69 -2.10601 -5.10246 0
M  V30 38467 H 3572.17 -0.584352 -4.35295 0
M  V30 38468 H 3572.77 -2.11856 -3.68778 0
M  V30 38469 N 3571.09 1.17911 -1.04569 0
M  V30 38470 C 3572.37 1.83908 -0.666115 0
M  V30 38471 C 3572.75 1.93053 0.854029 0
M  V30 38472 O 3572.09 1.46029 1.75749 0
M  V30 38473 C 3572.3 3.21924 -1.34781 0
M  V30 38474 C 3573.65 3.97903 -1.48184 0
M  V30 38475 O 3574.68 3.31381 -1.30632 0
M  V30 38476 O 3573.54 5.171 -1.76832 0
M  V30 38477 H 3570.63 0.79329 -0.233708 0
M  V30 38478 H 3573.18 1.25261 -1.14489 0
M  V30 38479 H 3571.95 3.102 -2.38519 0
M  V30 38480 H 3571.57 3.88232 -0.857982 0
M  V30 38481 N 3572.57 0.825847 1.34229 0
M  V30 38482 C 3573.82 0.41449 1.97804 0
M  V30 38483 C 3574.14 -1.02662 1.65788 0
M  V30 38484 O 3573.41 -1.71318 0.950099 0
M  V30 38485 H 3571.99 0.150278 0.731728 0
M  V30 38486 H 3574.65 1.05594 1.63817 0
M  V30 38487 H 3573.74 0.535883 3.07465 0
M  V30 38488 N 3574.05 -1.46497 0.581077 0
M  V30 38489 C 3575.27 -2.06776 0.0716016 0
M  V30 38490 C 3575.69 -1.43008 -1.23265 0
M  V30 38491 O 3575.05 -0.534807 -1.74488 0
M  V30 38492 C 3575.1 -3.61354 -0.102602 0
M  V30 38493 O 3574.82 -4.22737 1.15002 0
M  V30 38494 C 3576.32 -4.38559 -0.646615 0
M  V30 38495 H 3573.54 -0.668599 0.0567081 0
M  V30 38496 H 3576.08 -1.88148 0.801281 0
M  V30 38497 H 3574.24 -3.79415 -0.782497 0
M  V30 38498 H 3574.65 -5.15587 0.962808 0
M  V30 38499 H 3576.13 -5.47314 -0.717694 0
M  V30 38500 H 3576.6 -4.06489 -1.66323 0
M  V30 38501 H 3577.21 -4.253 -0.00164263 0
M  V30 38502 N 3575.52 -0.31877 -1.54343 0
M  V30 38503 C 3576.43 0.558402 -2.27857 0
M  V30 38504 C 3577.45 1.13331 -1.32031 0
M  V30 38505 O 3578.63 1.1543 -1.65039 0
M  V30 38506 C 3575.69 1.7056 -3.01845 0
M  V30 38507 C 3574.75 1.16298 -4.13247 0
M  V30 38508 C 3573.98 2.2555 -4.83697 0
M  V30 38509 O 3574.21 3.45802 -4.53627 0
M  V30 38510 O 3573.14 1.91239 -5.70711 0
M  V30 38511 H 3576.97 -0.0384781 -3.03676 0
M  V30 38512 H 3574.55 -0.0846198 -1.4916 0
M  V30 38513 H 3576.43 2.37359 -3.48193 0
M  V30 38514 H 3575.11 2.28875 -2.28906 0
M  V30 38515 H 3574.02 0.460208 -3.71259 0
M  V30 38516 H 3575.35 0.625026 -4.88215 0
M  V30 38517 N 3577 1.5753 -0.0468419 0
M  V30 38518 C 3578.23 1.9683 0.637613 0
M  V30 38519 C 3578.64 0.924187 1.64634 0
M  V30 38520 O 3578 -0.0920819 1.82268 0
M  V30 38521 C 3578.05 3.3621 1.32836 0
M  V30 38522 O 3577.77 4.36618 0.360034 0
M  V30 38523 C 3579.27 3.90243 2.10298 0
M  V30 38524 H 3576.49 0.64788 0.174623 0
M  V30 38525 H 3579.04 2.04194 -0.11186 0
M  V30 38526 H 3577.19 3.3001 2.02909 0
M  V30 38527 H 3577.61 5.17524 0.85257 0
M  V30 38528 H 3579.08 4.90061 2.54056 0
M  V30 38529 H 3579.56 3.25437 2.94937 0
M  V30 38530 H 3580.16 3.99766 1.45144 0
M  V30 38531 N 3578.48 -0.226499 1.55964 0
M  V30 38532 C 3579.39 -1.30175 1.95171 0
M  V30 38533 C 3580.41 -1.51553 0.854858 0
M  V30 38534 O 3581.58 -1.64779 1.15801 0
M  V30 38535 C 3578.65 -2.63245 2.25617 0
M  V30 38536 C 3577.71 -2.50212 3.48844 0
M  V30 38537 C 3576.94 -3.76937 3.77828 0
M  V30 38538 O 3577.16 -4.79734 3.08564 0
M  V30 38539 O 3576.1 -3.74345 4.71327 0
M  V30 38540 H 3579.92 -0.999095 2.86796 0
M  V30 38541 H 3577.51 -0.428955 1.4311 0
M  V30 38542 H 3579.39 -3.41844 2.46416 0
M  V30 38543 H 3578.07 -2.93201 1.37167 0
M  V30 38544 H 3576.97 -1.69831 3.33329 0
M  V30 38545 H 3578.31 -2.25197 4.37661 0
M  V30 38546 N 3579.96 -1.4969 -0.493005 0
M  V30 38547 C 3580.89 -1.69866 -1.60212 0
M  V30 38548 C 3581.87 -0.547391 -1.61052 0
M  V30 38549 O 3583.05 -0.784124 -1.77666 0
M  V30 38550 C 3580.18 -1.77258 -2.98659 0
M  V30 38551 C 3579.14 -2.92253 -3.12685 0
M  V30 38552 C 3578.46 -2.84766 -4.52562 0
M  V30 38553 C 3579.76 -4.3308 -2.91958 0
M  V30 38554 H 3581.46 -2.62725 -1.43582 0
M  V30 38555 H 3579 -1.2643 -0.689312 0
M  V30 38556 H 3580.96 -1.89957 -3.76157 0
M  V30 38557 H 3579.68 -0.810032 -3.16395 0
M  V30 38558 H 3578.34 -2.79169 -2.37614 0
M  V30 38559 H 3577.99 -1.86403 -4.67186 0
M  V30 38560 H 3577.69 -3.61953 -4.62887 0
M  V30 38561 H 3579.21 -2.99484 -5.3211 0
M  V30 38562 H 3580.63 -4.46804 -3.5922 0
M  V30 38563 H 3579.02 -5.11549 -3.13747 0
M  V30 38564 H 3580.09 -4.46969 -1.88007 0
M  V30 38565 N 3581.44 0.744631 -1.38899 0
M  V30 38566 C 3582.38 1.85853 -1.36848 0
M  V30 38567 C 3583.35 1.64505 -0.229629 0
M  V30 38568 O 3584.54 1.86046 -0.423253 0
M  V30 38569 C 3581.68 3.23258 -1.20824 0
M  V30 38570 C 3580.79 3.56376 -2.44172 0
M  V30 38571 C 3579.93 4.83132 -2.2081 0
M  V30 38572 C 3578.97 5.09064 -3.39883 0
M  V30 38573 N 3578.1 6.27019 -3.15899 0
M  V30 38574 H 3582.94 1.86941 -2.32071 0
M  V30 38575 H 3580.48 0.913591 -1.15291 0
M  V30 38576 H 3582.44 4.02561 -1.09547 0
M  V30 38577 H 3581.07 3.21473 -0.292352 0
M  V30 38578 H 3580.12 2.71848 -2.66088 0
M  V30 38579 H 3581.43 3.71463 -3.32892 0
M  V30 38580 H 3580.59 5.70396 -2.0672 0
M  V30 38581 H 3579.32 4.70201 -1.2947 0
M  V30 38582 H 3578.33 4.20265 -3.54482 0
M  V30 38583 H 3579.55 5.23886 -4.32111 0
M  V30 38584 H 3577.5 6.15394 -2.27214 0
M  V30 38585 H 3577.42 6.42648 -3.98171 0
M  V30 38586 H 3578.69 7.17147 -3.05483 0
M  V30 38587 N 3582.91 1.23916 0.973785 0
M  V30 38588 C 3583.82 1.04307 2.10136 0
M  V30 38589 C 3584.84 -0.0143582 1.73994 0
M  V30 38590 O 3586.02 0.182516 2.00571 0
M  V30 38591 C 3583.08 0.643699 3.40672 0
M  V30 38592 C 3582.14 1.77693 3.90799 0
M  V30 38593 C 3581.38 1.39651 5.15105 0
M  V30 38594 O 3581.6 0.283646 5.69694 0
M  V30 38595 O 3580.53 2.21998 5.59465 0
M  V30 38596 H 3584.36 1.98824 2.29571 0
M  V30 38597 H 3581.94 1.02681 1.08522 0
M  V30 38598 H 3583.83 0.432219 4.19178 0
M  V30 38599 H 3582.5 -0.272401 3.22552 0
M  V30 38600 H 3581.41 2.04311 3.13382 0
M  V30 38601 H 3582.74 2.67158 4.13385 0
M  V30 38602 N 3584.39 -1.17355 1.05193 0
M  V30 38603 C 3585.32 -2.23562 0.673971 0
M  V30 38604 C 3586.3 -1.66903 -0.328254 0
M  V30 38605 O 3587.49 -1.93106 -0.205844 0
M  V30 38606 C 3584.62 -3.47267 0.0479411 0
M  V30 38607 C 3583.57 -4.16748 0.974929 0
M  V30 38608 C 3582.9 -5.34276 0.212778 0
M  V30 38609 C 3584.2 -4.68977 2.29908 0
M  V30 38610 H 3585.89 -2.55433 1.56187 0
M  V30 38611 H 3583.44 -1.22778 0.752429 0
M  V30 38612 H 3585.39 -4.20781 -0.228269 0
M  V30 38613 H 3584.12 -3.14663 -0.874908 0
M  V30 38614 H 3582.77 -3.45146 1.2357 0
M  V30 38615 H 3582.42 -4.97923 -0.712836 0
M  V30 38616 H 3582.12 -5.81702 0.830453 0
M  V30 38617 H 3583.65 -6.10574 -0.0561476 0
M  V30 38618 H 3585.06 -5.34128 2.08278 0
M  V30 38619 H 3583.46 -5.26981 2.87073 0
M  V30 38620 H 3584.53 -3.85785 2.93765 0
M  V30 38621 N 3585.87 -0.832954 -1.3379 0
M  V30 38622 C 3586.83 -0.267236 -2.27637 0
M  V30 38623 C 3587.83 0.560643 -1.5071 0
M  V30 38624 O 3589.02 0.375291 -1.70109 0
M  V30 38625 C 3586.16 0.624189 -3.35137 0
M  V30 38626 H 3587.35 -1.09527 -2.79184 0
M  V30 38627 H 3584.9 -0.60558 -1.44092 0
M  V30 38628 H 3585.64 1.47489 -2.88821 0
M  V30 38629 H 3585.42 0.0319138 -3.92087 0
M  V30 38630 H 3586.91 1.01348 -4.05115 0
M  V30 38631 N 3587.35 1.46186 -0.588837 0
M  V30 38632 C 3588.57 2.07243 -0.0806936 0
M  V30 38633 C 3589 1.43371 1.21764 0
M  V30 38634 O 3588.36 0.519671 1.73693 0
M  V30 38635 C 3588.4 3.60541 0.0652036 0
M  V30 38636 O 3587.51 3.96895 1.12019 0
M  V30 38637 H 3586.85 0.660754 -0.0655739 0
M  V30 38638 H 3589.38 1.87731 -0.813522 0
M  V30 38639 H 3589.39 4.07109 0.269422 0
M  V30 38640 H 3588.06 4.0642 -0.882911 0
M  V30 38641 H 3586.64 3.62027 0.893936 0
M  V30 38642 N 3588.83 0.32695 1.54171 0
M  V30 38643 C 3590.07 -0.274063 2.00233 0
M  V30 38644 C 3590.4 -1.52388 1.21668 0
M  V30 38645 O 3589.67 -1.93279 0.319393 0
M  V30 38646 H 3588.25 -0.104258 0.739689 0
M  V30 38647 H 3590.91 0.444278 1.89769 0
M  V30 38648 H 3590 -0.5281 3.076 0
M  V30 38649 N 3590.3 -1.57503 0.0551955 0
M  V30 38650 C 3591.58 -1.84208 -0.657775 0
M  V30 38651 C 3591.96 -0.944405 -1.88797 0
M  V30 38652 O 3591.31 -0.00645745 -2.28499 0
M  V30 38653 C 3591.52 -3.34028 -1.01124 0
M  V30 38654 C 3592.87 -4.0114 -1.39182 0
M  V30 38655 O 3593.89 -3.38677 -1.10347 0
M  V30 38656 O 3592.75 -5.11281 -1.93014 0
M  V30 38657 H 3589.84 -0.760433 -0.325071 0
M  V30 38658 H 3592.39 -1.69488 0.084865 0
M  V30 38659 H 3591.16 -3.91061 -0.136811 0
M  V30 38660 H 3590.79 -3.53951 -1.8112 0
M  V30 38661 N 3591.78 0.218225 -1.56082 0
M  V30 38662 C 3593.03 0.943522 -1.79515 0
M  V30 38663 C 3593.36 1.83854 -0.6254 0
M  V30 38664 O 3592.64 1.90847 0.375192 0
M  V30 38665 C 3592.92 1.77961 -3.13052 0
M  V30 38666 C 3592.77 0.910862 -4.40481 0
M  V30 38667 C 3594.09 2.75674 -3.43062 0
M  V30 38668 H 3591.21 0.341582 -0.653063 0
M  V30 38669 H 3593.85 0.212193 -1.88811 0
M  V30 38670 H 3592 2.40312 -3.05258 0
M  V30 38671 H 3593.67 0.303841 -4.60298 0
M  V30 38672 H 3591.92 0.216437 -4.3326 0
M  V30 38673 H 3592.59 1.53033 -5.30363 0
M  V30 38674 H 3595.06 2.23459 -3.51006 0
M  V30 38675 H 3593.94 3.31275 -4.37662 0
M  V30 38676 H 3594.2 3.53579 -2.65395 0
M  V30 38677 N 3593.26 1.4995 0.485059 0
M  V30 38678 C 3594.17 1.70554 1.61086 0
M  V30 38679 C 3595.19 0.588362 1.63751 0
M  V30 38680 O 3596.36 0.865012 1.81878 0
M  V30 38681 C 3593.43 1.78233 2.97379 0
M  V30 38682 C 3592.49 3.01899 3.05214 0
M  V30 38683 C 3591.72 3.09202 4.35005 0
M  V30 38684 O 3591.95 2.23667 5.24718 0
M  V30 38685 O 3590.88 4.0181 4.48144 0
M  V30 38686 H 3594.71 2.65958 1.46629 0
M  V30 38687 H 3592.29 1.3388 0.663068 0
M  V30 38688 H 3594.17 1.85545 3.78353 0
M  V30 38689 H 3592.85 0.860098 3.12064 0
M  V30 38690 H 3591.75 3.00096 2.23368 0
M  V30 38691 H 3593.09 3.93655 2.9546 0
M  V30 38692 N 3594.74 -0.737255 1.39292 0
M  V30 38693 C 3595.69 -1.85124 1.37832 0
M  V30 38694 C 3596.66 -1.64381 0.23835 0
M  V30 38695 O 3597.84 -1.85819 0.433114 0
M  V30 38696 C 3594.98 -3.22612 1.22537 0
M  V30 38697 C 3594.09 -3.55076 2.46059 0
M  V30 38698 C 3593.23 -4.81954 2.23369 0
M  V30 38699 C 3592.27 -5.07254 3.42578 0
M  V30 38700 N 3591.41 -6.25334 3.1922 0
M  V30 38701 H 3596.25 -1.85707 2.3306 0
M  V30 38702 H 3593.78 -0.907464 1.15773 0
M  V30 38703 H 3595.74 -4.01974 1.1168 0
M  V30 38704 H 3594.37 -3.21314 0.309396 0
M  V30 38705 H 3593.42 -2.70433 2.67526 0
M  V30 38706 H 3594.73 -3.69692 3.34857 0
M  V30 38707 H 3593.89 -5.69292 2.09742 0
M  V30 38708 H 3592.63 -4.69508 1.31962 0
M  V30 38709 H 3591.63 -4.18379 3.56705 0
M  V30 38710 H 3592.86 -5.21587 4.34883 0
M  V30 38711 H 3590.8 -6.1418 2.30475 0
M  V30 38712 H 3590.72 -6.40527 4.01574 0
M  V30 38713 H 3591.99 -7.15517 3.09282 0
M  V30 38714 N 3596.22 -1.24431 -0.967199 0
M  V30 38715 C 3597.47 -1.07832 -1.70456 0
M  V30 38716 C 3597.78 0.382746 -1.91819 0
M  V30 38717 O 3598.99 0.668936 -2.6313 0
M  V30 38718 C 3597.44 -1.88131 -3.06814 0
M  V30 38719 C 3597.05 -3.3865 -2.93292 0
M  V30 38720 C 3598.79 -1.80063 -3.84419 0
M  V30 38721 C 3596.7 -4.11291 -4.24963 0
M  V30 38722 H 3595.63 -0.399908 -0.63921 0
M  V30 38723 H 3598.28 -1.48516 -1.07773 0
M  V30 38724 H 3596.66 -1.40261 -3.70328 0
M  V30 38725 H 3597.84 -3.94104 -2.38787 0
M  V30 38726 H 3596.15 -3.47675 -2.29152 0
M  V30 38727 H 3598.75 -2.31637 -4.81921 0
M  V30 38728 H 3599.09 -0.765979 -4.09192 0
M  V30 38729 H 3599.63 -2.25616 -3.27632 0
M  V30 38730 H 3596.36 -5.15117 -4.05382 0
M  V30 38731 H 3595.88 -3.60623 -4.79282 0
M  V30 38732 H 3597.56 -4.18317 -4.93579 0
M  V30 38733 N 3597.7 1.16795 -1.05814 0
M  V30 38734 C 3598.63 2.19926 -0.608918 0
M  V30 38735 C 3599.61 1.58433 0.36577 0
M  V30 38736 O 3600.79 1.8647 0.275897 0
M  V30 38737 C 3597.92 3.38528 0.108001 0
M  V30 38738 C 3596.96 4.1849 -0.82268 0
M  V30 38739 S 3597.8 4.82861 -2.31528 0
M  V30 38740 C 3598.95 6.04846 -1.60972 0
M  V30 38741 H 3599.19 2.57691 -1.48266 0
M  V30 38742 H 3596.72 1.2751 -0.87067 0
M  V30 38743 H 3598.68 4.07251 0.515424 0
M  V30 38744 H 3597.34 2.99138 0.957867 0
M  V30 38745 H 3596.53 5.03289 -0.267537 0
M  V30 38746 H 3596.13 3.55236 -1.16976 0
M  V30 38747 H 3598.42 6.71326 -0.912572 0
M  V30 38748 H 3599.37 6.649 -2.43543 0
M  V30 38749 H 3599.78 5.5379 -1.09441 0
M  V30 38750 N 3599.17 0.840037 1.33346 0
M  V30 38751 C 3600.42 0.435447 1.97353 0
M  V30 38752 C 3600.74 -1.00897 1.66867 0
M  V30 38753 O 3600.01 -1.70301 0.968216 0
M  V30 38754 H 3598.59 0.15803 0.730093 0
M  V30 38755 H 3601.25 1.07325 1.62688 0
M  V30 38756 H 3600.35 0.568464 3.06879 0
M  V30 38757 N 3600.65 -1.45872 0.596582 0
M  V30 38758 C 3601.61 -2.28893 -0.118626 0
M  V30 38759 C 3602.61 -1.39162 -0.805644 0
M  V30 38760 O 3603.8 -1.61397 -0.655483 0
M  V30 38761 C 3600.94 -3.19906 -1.17784 0
M  V30 38762 H 3602.13 -2.93607 0.611145 0
M  V30 38763 H 3599.68 -1.52212 0.355142 0
M  V30 38764 H 3600.42 -2.59969 -1.93873 0
M  V30 38765 H 3600.2 -3.85989 -0.689549 0
M  V30 38766 H 3601.69 -3.82358 -1.67906 0
M  V30 38767 N 3602.13 -0.335122 -1.53996 0
M  V30 38768 C 3603.38 0.264918 -1.99953 0
M  V30 38769 C 3603.69 1.5233 -1.22699 0
M  V30 38770 O 3604.9 2.20006 -1.5909 0
M  V30 38771 C 3603.35 0.522604 -3.56085 0
M  V30 38772 C 3602.96 -0.719391 -4.42186 0
M  V30 38773 C 3604.71 1.08196 -4.1048 0
M  V30 38774 C 3602.61 -0.43297 -5.89813 0
M  V30 38775 H 3601.54 0.102769 -0.746964 0
M  V30 38776 H 3604.19 -0.449143 -1.77918 0
M  V30 38777 H 3602.58 1.29715 -3.74152 0
M  V30 38778 H 3603.75 -1.4944 -4.35895 0
M  V30 38779 H 3602.06 -1.19979 -3.98741 0
M  V30 38780 H 3604.66 1.31107 -5.18377 0
M  V30 38781 H 3605 2.03491 -3.63176 0
M  V30 38782 H 3605.54 0.368325 -3.96091 0
M  V30 38783 H 3602.28 -1.3554 -6.41334 0
M  V30 38784 H 3601.8 0.304108 -5.99029 0
M  V30 38785 H 3603.48 -0.0470794 -6.46983 0
M  V30 38786 N 3603.61 1.57472 -0.0635475 0
M  V30 38787 C 3604.83 1.97911 0.620171 0
M  V30 38788 C 3605.26 0.941364 1.62849 0
M  V30 38789 O 3604.62 -0.0939994 1.81056 0
M  V30 38790 C 3604.66 3.374 1.27255 0
M  V30 38791 O 3603.77 3.36202 2.38835 0
M  V30 38792 H 3603.11 0.644385 0.160199 0
M  V30 38793 H 3605.64 2.0415 -0.135618 0
M  V30 38794 H 3605.65 3.74402 1.62134 0
M  V30 38795 H 3604.32 4.12462 0.533651 0
M  V30 38796 H 3602.9 3.1096 2.05812 0
M  V30 38797 N 3605.09 -0.209945 1.56195 0
M  V30 38798 C 3606.36 -0.957623 1.70555 0
M  V30 38799 C 3606.74 -2.0197 0.614127 0
M  V30 38800 O 3606.09 -2.25366 -0.377152 0
M  V30 38801 C 3606.3 -1.55754 3.12317 0
M  V30 38802 C 3607.65 -2.04536 3.72089 0
M  V30 38803 O 3608.67 -1.65625 3.15352 0
M  V30 38804 O 3607.53 -2.7609 4.71632 0
M  V30 38805 H 3604.63 -0.448092 0.695085 0
M  V30 38806 H 3607.17 -0.200811 1.68508 0
M  V30 38807 H 3605.94 -0.791235 3.83217 0
M  V30 38808 H 3605.57 -2.37958 3.1853 0
M  V30 38809 N 3606.56 -1.50205 -0.4771 0
M  V30 38810 C 3607.79 -1.64402 -1.25123 0
M  V30 38811 C 3608.2 -0.324273 -1.864 0
M  V30 38812 O 3607.54 0.70309 -1.69713 0
M  V30 38813 C 3607.61 -2.67277 -2.40423 0
M  V30 38814 C 3607.27 -4.10995 -1.9983 0
M  V30 38815 C 3608.27 -4.97054 -1.52426 0
M  V30 38816 C 3605.95 -4.56876 -2.08734 0
M  V30 38817 C 3607.95 -6.27039 -1.14461 0
M  V30 38818 C 3605.63 -5.86868 -1.70381 0
M  V30 38819 C 3606.63 -6.71774 -1.23322 0
M  V30 38820 O 3606.32 -7.99341 -0.854971 0
M  V30 38821 H 3606.05 -0.555798 -0.384791 0
M  V30 38822 H 3608.61 -1.9714 -0.576619 0
M  V30 38823 H 3606.84 -2.29768 -3.11036 0
M  V30 38824 H 3608.52 -2.70756 -3.02401 0
M  V30 38825 H 3609.29 -4.62826 -1.44973 0
M  V30 38826 H 3605.17 -3.90938 -2.44312 0
M  V30 38827 H 3608.71 -6.93264 -0.77659 0
M  V30 38828 H 3604.61 -6.20619 -1.77491 0
M  V30 38829 H 3605.38 -8.12559 -0.984349 0
M  V30 38830 N 3608.04 0.729857 -1.39681 0
M  V30 38831 C 3609.01 1.8256 -1.38581 0
M  V30 38832 C 3610.01 1.58308 -0.282021 0
M  V30 38833 O 3611.2 1.65613 -0.540194 0
M  V30 38834 C 3608.33 3.20431 -1.16349 0
M  V30 38835 H 3609.52 1.84938 -2.36089 0
M  V30 38836 H 3607.07 0.934041 -1.25321 0
M  V30 38837 H 3607.81 3.23711 -0.195429 0
M  V30 38838 H 3607.59 3.39431 -1.96287 0
M  V30 38839 H 3609.08 4.00484 -1.18332 0
M  V30 38840 N 3609.52 1.24942 0.960587 0
M  V30 38841 C 3610.48 1.04894 2.03789 0
M  V30 38842 C 3611.48 0.00378618 1.608 0
M  V30 38843 O 3612.67 0.24542 1.72463 0
M  V30 38844 C 3609.81 0.591368 3.35732 0
M  V30 38845 H 3611 2.0052 2.23006 0
M  V30 38846 H 3608.55 1.07265 1.13684 0
M  V30 38847 H 3609.29 -0.367759 3.22208 0
M  V30 38848 H 3609.07 1.34581 3.6828 0
M  V30 38849 H 3610.56 0.472356 4.1492 0
M  V30 38850 N 3611 -1.16233 1.06432 0
M  V30 38851 C 3612.25 -1.86428 0.780328 0
M  V30 38852 C 3612.57 -1.82183 -0.695303 0
M  V30 38853 O 3611.84 -1.25633 -1.5031 0
M  V30 38854 H 3610.42 -0.69022 0.285666 0
M  V30 38855 H 3613.08 -1.40946 1.34611 0
M  V30 38856 H 3612.18 -2.91827 1.10649 0
M  V30 38857 N 3612.48 -0.847097 -1.32899 0
M  V30 38858 C 3613.72 -0.445907 -1.97119 0
M  V30 38859 C 3614.05 1.00011 -1.674 0
M  V30 38860 O 3613.32 1.69785 -0.977234 0
M  V30 38861 H 3611.9 -0.1619 -0.729244 0
M  V30 38862 H 3614.56 -1.08186 -1.62116 0
M  V30 38863 H 3613.65 -0.58473 -3.06574 0
M  V30 38864 N 3613.95 1.45554 -0.604309 0
M  V30 38865 C 3614.88 2.33269 0.103818 0
M  V30 38866 C 3615.87 1.46636 0.862078 0
M  V30 38867 O 3617.05 1.75414 0.833278 0
M  V30 38868 C 3614.18 3.29288 1.10394 0
M  V30 38869 C 3613.13 4.2553 0.459114 0
M  V30 38870 C 3612.46 5.11216 1.56725 0
M  V30 38871 C 3613.76 5.18636 -0.6176 0
M  V30 38872 H 3615.45 2.92727 -0.62859 0
M  V30 38873 H 3613 1.4076 -0.303735 0
M  V30 38874 H 3614.95 3.8952 1.60787 0
M  V30 38875 H 3613.68 2.67982 1.8669 0
M  V30 38876 H 3612.34 3.66592 -0.0239153 0
M  V30 38877 H 3611.98 4.4628 2.32041 0
M  V30 38878 H 3611.68 5.76409 1.14132 0
M  V30 38879 H 3613.21 5.74315 2.07351 0
M  V30 38880 H 3614.62 5.72958 -0.197884 0
M  V30 38881 H 3613.02 5.92289 -0.965094 0
M  V30 38882 H 3614.09 4.61262 -1.49549 0
M  V30 38883 N 3615.43 0.343284 1.53816 0
M  V30 38884 C 3616.34 -0.522081 2.28717 0
M  V30 38885 C 3617.36 -1.11216 1.33817 0
M  V30 38886 O 3618.53 -1.1279 1.66855 0
M  V30 38887 C 3615.6 -1.65736 3.0452 0
M  V30 38888 C 3614.66 -1.09709 4.15045 0
M  V30 38889 C 3613.89 -2.17826 4.87224 0
M  V30 38890 O 3614.12 -3.38541 4.59071 0
M  V30 38891 O 3613.05 -1.82135 5.73681 0
M  V30 38892 H 3616.88 0.0867853 3.03576 0
M  V30 38893 H 3614.46 0.108339 1.49007 0
M  V30 38894 H 3616.34 -2.3179 3.51925 0
M  V30 38895 H 3615.02 -2.25204 2.32518 0
M  V30 38896 H 3613.93 -0.401086 3.71944 0
M  V30 38897 H 3615.26 -0.547276 4.89148 0
M  V30 38898 N 3616.91 -1.57436 0.0718977 0
M  V30 38899 C 3618.16 -1.93494 -0.597197 0
M  V30 38900 C 3618.49 -0.951936 -1.69613 0
M  V30 38901 O 3617.74 0.032421 -1.95673 0
M  V30 38902 C 3618.04 -3.36175 -1.2133 0
M  V30 38903 C 3617.71 -4.50258 -0.240503 0
M  V30 38904 C 3616.37 -4.81192 0.0271214 0
M  V30 38905 C 3618.72 -5.19464 0.425016 0
M  V30 38906 C 3616.05 -5.7867 0.96735 0
M  V30 38907 C 3618.4 -6.17949 1.35357 0
M  V30 38908 C 3617.06 -6.47301 1.62966 0
M  V30 38909 H 3616.33 -0.708044 -0.21853 0
M  V30 38910 H 3618.98 -1.90967 0.142796 0
M  V30 38911 H 3617.29 -3.35168 -2.02903 0
M  V30 38912 H 3618.98 -3.61364 -1.7383 0
M  V30 38913 H 3615.57 -4.26132 -0.459278 0
M  V30 38914 H 3619.76 -4.9576 0.231372 0
M  V30 38915 H 3615.01 -5.99737 1.1885 0
M  V30 38916 H 3619.19 -6.70678 1.8752 0
M  V30 38917 H 3616.81 -7.22645 2.35982 0
M  V30 38918 N 3618.39 0.201658 -1.56305 0
M  V30 38919 C 3619.63 0.924429 -1.80505 0
M  V30 38920 C 3619.97 1.83181 -0.644865 0
M  V30 38921 O 3619.24 1.91234 0.354929 0
M  V30 38922 C 3619.53 1.74631 -3.14922 0
M  V30 38923 C 3619.38 0.864092 -4.41422 0
M  V30 38924 C 3620.7 2.7202 -3.45967 0
M  V30 38925 H 3617.82 0.334636 -0.656649 0
M  V30 38926 H 3620.46 0.192155 -1.89026 0
M  V30 38927 H 3618.61 2.37061 -3.07789 0
M  V30 38928 H 3620.28 0.255003 -4.60595 0
M  V30 38929 H 3618.52 0.170472 -4.33465 0
M  V30 38930 H 3619.19 1.47399 -5.31956 0
M  V30 38931 H 3621.67 2.19723 -3.53357 0
M  V30 38932 H 3620.55 3.26614 -4.41151 0
M  V30 38933 H 3620.81 3.50744 -2.6913 0
M  V30 38934 N 3619.87 1.50456 0.469128 0
M  V30 38935 C 3620.81 1.69462 1.56688 0
M  V30 38936 C 3621.78 0.535949 1.57216 0
M  V30 38937 O 3622.97 0.766745 1.74716 0
M  V30 38938 C 3620.11 1.79657 2.94648 0
M  V30 38939 C 3619.22 3.07038 3.03894 0
M  V30 38940 C 3618.36 3.08017 4.32781 0
M  V30 38941 C 3617.4 4.29844 4.35776 0
M  V30 38942 N 3616.53 4.28551 5.56137 0
M  V30 38943 H 3621.37 2.6318 1.39786 0
M  V30 38944 H 3618.91 1.3046 0.679605 0
M  V30 38945 H 3620.87 1.83548 3.74654 0
M  V30 38946 H 3619.5 0.893767 3.1018 0
M  V30 38947 H 3618.55 3.12609 2.16748 0
M  V30 38948 H 3619.86 3.97011 3.01967 0
M  V30 38949 H 3619.02 3.10648 5.21136 0
M  V30 38950 H 3617.75 2.15878 4.37319 0
M  V30 38951 H 3616.76 4.27423 3.45818 0
M  V30 38952 H 3617.98 5.23212 4.32927 0
M  V30 38953 H 3615.93 3.39266 5.61458 0
M  V30 38954 H 3615.85 5.12294 5.55959 0
M  V30 38955 H 3617.12 4.35331 6.46612 0
M  V30 38956 N 3621.34 -0.722439 1.40066 0
M  V30 38957 C 3622.57 -1.51667 1.41463 0
M  V30 38958 C 3622.99 -1.88095 0.0142984 0
M  V30 38959 O 3622.35 -1.52793 -0.975907 0
M  V30 38960 C 3622.4 -2.77283 2.30535 0
M  V30 38961 O 3621.5 -3.73714 1.74388 0
M  V30 38962 H 3620.85 -0.457538 0.481202 0
M  V30 38963 H 3623.38 -0.890298 1.84214 0
M  V30 38964 H 3623.39 -3.25885 2.45485 0
M  V30 38965 H 3622.06 -2.50103 3.32297 0
M  V30 38966 H 3620.64 -3.32533 1.68749 0
M  V30 38967 N 3622.82 -1.2545 -0.953947 0
M  V30 38968 C 3623.76 -1.01683 -2.0541 0
M  V30 38969 C 3624.77 0.0184646 -1.6279 0
M  V30 38970 O 3625.96 -0.220167 -1.77137 0
M  V30 38971 C 3623.06 -0.51535 -3.34959 0
M  V30 38972 C 3622.23 -1.61695 -4.06415 0
M  V30 38973 C 3621.29 -1.11573 -5.14235 0
M  V30 38974 O 3620.32 -1.81026 -5.39646 0
M  V30 38975 N 3621.52 0.0426207 -5.80484 0
M  V30 38976 H 3624.28 -1.96411 -2.26369 0
M  V30 38977 H 3621.84 -1.16664 -1.12255 0
M  V30 38978 H 3623.84 -0.164497 -4.04366 0
M  V30 38979 H 3622.41 0.338015 -3.10767 0
M  V30 38980 H 3621.63 -2.13935 -3.31097 0
M  V30 38981 H 3622.91 -2.35701 -4.50913 0
M  V30 38982 H 3622.31 0.62294 -5.6226 0
M  V30 38983 H 3620.87 0.334501 -6.50941 0
M  V30 38984 N 3624.3 1.15667 -1.07047 0
M  V30 38985 C 3625.26 2.18503 -0.692019 0
M  V30 38986 C 3626.26 1.58582 0.266157 0
M  V30 38987 O 3627.45 1.74135 0.047526 0
M  V30 38988 C 3624.59 3.40894 -0.0194796 0
M  V30 38989 H 3625.78 2.53498 -1.60245 0
M  V30 38990 H 3623.33 1.30074 -0.866621 0
M  V30 38991 H 3624.07 3.11465 0.903343 0
M  V30 38992 H 3623.85 3.85644 -0.708587 0
M  V30 38993 H 3625.34 4.16962 0.230756 0
M  V30 38994 N 3625.78 0.854133 1.32447 0
M  V30 38995 C 3626.69 0.301261 2.32658 0
M  V30 38996 C 3627.71 -0.580644 1.64026 0
M  V30 38997 O 3628.88 -0.481138 1.95568 0
M  V30 38998 C 3625.95 -0.501743 3.4305 0
M  V30 38999 C 3625.01 0.406241 4.27374 0
M  V30 39000 C 3624.24 -0.358534 5.32494 0
M  V30 39001 O 3624.46 -1.58855 5.47833 0
M  V30 39002 O 3623.4 0.275397 6.0127 0
M  V30 39003 H 3627.22 1.13148 2.81836 0
M  V30 39004 H 3624.81 0.617056 1.36062 0
M  V30 39005 H 3626.69 -0.957536 4.10377 0
M  V30 39006 H 3625.37 -1.30877 2.96062 0
M  V30 39007 H 3624.27 0.910199 3.62858 0
M  V30 39008 H 3625.61 1.17844 4.77885 0
M  V30 39009 N 3627.26 -1.45231 0.61202 0
M  V30 39010 C 3628.2 -2.30565 -0.104224 0
M  V30 39011 C 3629.17 -1.42365 -0.855651 0
M  V30 39012 O 3630.36 -1.7129 -0.840504 0
M  V30 39013 C 3627.5 -3.27344 -1.09269 0
M  V30 39014 C 3626.61 -4.30647 -0.341671 0
M  V30 39015 C 3625.75 -5.14532 -1.32025 0
M  V30 39016 C 3624.79 -6.09558 -0.557298 0
M  V30 39017 N 3623.92 -6.86208 -1.48538 0
M  V30 39018 H 3628.76 -2.91276 0.629447 0
M  V30 39019 H 3626.3 -1.43528 0.322203 0
M  V30 39020 H 3628.26 -3.81925 -1.67895 0
M  V30 39021 H 3626.89 -2.68376 -1.79371 0
M  V30 39022 H 3625.94 -3.78691 0.360181 0
M  V30 39023 H 3627.25 -4.98156 0.253415 0
M  V30 39024 H 3626.41 -5.73535 -1.97844 0
M  V30 39025 H 3625.15 -4.47051 -1.94926 0
M  V30 39026 H 3624.15 -5.49681 0.114498 0
M  V30 39027 H 3625.38 -6.79067 0.066733 0
M  V30 39028 H 3623.32 -6.21413 -2.10196 0
M  V30 39029 H 3623.24 -7.50085 -0.94384 0
M  V30 39030 H 3624.51 -7.49749 -2.13301 0
M  V30 39031 N 3628.74 -0.351436 -1.53632 0
M  V30 39032 C 3629.98 0.243696 -2.00222 0
M  V30 39033 C 3630.3 1.5102 -1.24307 0
M  V30 39034 O 3631.5 2.18306 -1.61415 0
M  V30 39035 C 3629.96 0.484807 -3.5662 0
M  V30 39036 C 3629.57 -0.766251 -4.41398 0
M  V30 39037 C 3631.31 1.03837 -4.11604 0
M  V30 39038 C 3629.22 -0.495503 -5.89321 0
M  V30 39039 H 3628.15 0.0948402 -0.748012 0
M  V30 39040 H 3630.8 -0.467988 -1.77432 0
M  V30 39041 H 3629.18 1.25739 -3.75507 0
M  V30 39042 H 3630.36 -1.54054 -4.34285 0
M  V30 39043 H 3628.67 -1.24201 -3.97446 0
M  V30 39044 H 3631.27 1.25602 -5.19739 0
M  V30 39045 H 3631.61 1.99628 -3.65314 0
M  V30 39046 H 3632.14 0.326294 -3.9646 0
M  V30 39047 H 3628.88 -1.42335 -6.3986 0
M  V30 39048 H 3628.4 0.240556 -5.99317 0
M  V30 39049 H 3630.08 -0.115698 -6.46897 0
M  V30 39050 N 3630.21 1.57396 -0.0802459 0
M  V30 39051 C 3631.16 2.13199 0.884004 0
M  V30 39052 C 3632.13 1.04667 1.28973 0
M  V30 39053 O 3633.32 1.32375 1.3741 0
M  V30 39054 C 3630.46 2.70484 2.14319 0
M  V30 39055 C 3629.57 3.93201 1.78933 0
M  V30 39056 C 3628.7 4.387 2.99526 0
M  V30 39057 C 3627.74 5.54043 2.60197 0
M  V30 39058 N 3626.88 5.94462 3.73576 0
M  V30 39059 H 3631.72 2.95286 0.401258 0
M  V30 39060 H 3629.26 1.45914 0.186403 0
M  V30 39061 H 3631.21 3.01809 2.88041 0
M  V30 39062 H 3629.84 1.91149 2.60119 0
M  V30 39063 H 3628.9 3.68285 0.9524 0
M  V30 39064 H 3630.21 4.76953 1.46004 0
M  V30 39065 H 3629.36 4.7173 3.81517 0
M  V30 39066 H 3628.1 3.53818 3.35655 0
M  V30 39067 H 3627.11 5.20656 1.76629 0
M  V30 39068 H 3628.33 6.40663 2.25229 0
M  V30 39069 H 3626.28 5.12529 4.09451 0
M  V30 39070 H 3626.19 6.72975 3.44443 0
M  V30 39071 H 3627.46 6.32118 4.56122 0
M  V30 39072 N 3631.69 -0.193366 1.56409 0
M  V30 39073 C 3632.92 -0.929643 1.84838 0
M  V30 39074 C 3633.33 -1.76778 0.662959 0
M  V30 39075 O 3632.69 -1.78745 -0.368307 0
M  V30 39076 C 3632.74 -1.8244 3.12087 0
M  V30 39077 O 3632.46 -1.0201 4.26058 0
M  V30 39078 C 3633.96 -2.67221 3.53706 0
M  V30 39079 H 3631.18 -0.271157 0.613771 0
M  V30 39080 H 3633.73 -0.200098 2.03519 0
M  V30 39081 H 3631.88 -2.50754 2.95298 0
M  V30 39082 H 3632.3 -1.62999 4.98529 0
M  V30 39083 H 3633.77 -3.25656 4.45704 0
M  V30 39084 H 3634.25 -3.41014 2.76777 0
M  V30 39085 H 3634.85 -2.04274 3.73031 0
M  V30 39086 N 3633.17 -1.50702 -0.461142 0
M  V30 39087 C 3634.13 -1.69728 -1.54029 0
M  V30 39088 C 3635.13 -0.567734 -1.50444 0
M  V30 39089 O 3636.32 -0.834928 -1.52888 0
M  V30 39090 C 3633.45 -1.73173 -2.93639 0
M  V30 39091 H 3634.65 -2.66017 -1.38474 0
M  V30 39092 H 3632.2 -1.40333 -0.68821 0
M  V30 39093 H 3632.94 -0.786133 -3.14627 0
M  V30 39094 H 3632.72 -2.55241 -2.97648 0
M  V30 39095 H 3634.21 -1.89813 -3.71969 0
M  V30 39096 N 3634.65 0.715001 -1.40447 0
M  V30 39097 C 3636.06 1.29417 -1.34567 0
M  V30 39098 C 3636.41 1.9619 -0.0194329 0
M  V30 39099 O 3635.53 1.97584 0.882582 0
M  V30 39100 C 3636.13 2.35337 -2.43725 0
M  V30 39101 C 3634.69 2.88877 -2.41303 0
M  V30 39102 C 3633.84 1.62673 -2.24573 0
M  V30 39103 H 3636.79 0.51109 -1.50245 0
M  V30 39104 H 3636.81 3.16193 -2.11665 0
M  V30 39105 H 3636.32 1.86709 -3.40237 0
M  V30 39106 H 3634.42 3.41733 -1.48489 0
M  V30 39107 H 3634.53 3.40631 -3.36909 0
M  V30 39108 H 3632.9 1.8776 -1.72099 0
M  V30 39109 H 3633.68 1.16068 -3.23084 0
M  V30 39110 N 3636.13 1.25954 0.947281 0
M  V30 39111 C 3637.06 1.09471 2.06248 0
M  V30 39112 C 3638.04 0.00163488 1.701 0
M  V30 39113 O 3639.22 0.172535 1.93432 0
M  V30 39114 C 3636.35 0.720452 3.39745 0
M  V30 39115 C 3635.31 1.76458 3.89931 0
M  V30 39116 C 3634.63 1.24481 5.20008 0
M  V30 39117 C 3635.93 3.16488 4.15491 0
M  V30 39118 H 3637.63 2.02756 2.20296 0
M  V30 39119 H 3635.17 0.976238 1.05856 0
M  V30 39120 H 3637.12 0.592045 4.1722 0
M  V30 39121 H 3635.85 -0.248104 3.25656 0
M  V30 39122 H 3634.51 1.88155 3.14632 0
M  V30 39123 H 3634.16 0.26627 5.02295 0
M  V30 39124 H 3633.86 1.94273 5.54556 0
M  V30 39125 H 3635.38 1.12895 6.00073 0
M  V30 39126 H 3636.79 3.07903 4.836 0
M  V30 39127 H 3635.19 3.83816 4.61308 0
M  V30 39128 H 3636.26 3.63 3.21495 0
M  V30 39129 N 3637.6 -1.15097 1.07659 0
M  V30 39130 C 3638.85 -1.85957 0.801641 0
M  V30 39131 C 3639.18 -1.82508 -0.672383 0
M  V30 39132 O 3638.43 -1.24542 -1.50956 0
M  V30 39133 C 3638.73 -3.34487 1.25909 0
M  V30 39134 C 3638.4 -3.58129 2.7396 0
M  V30 39135 C 3637.06 -3.6429 3.14398 0
M  V30 39136 C 3639.41 -3.67577 3.69508 0
M  V30 39137 C 3636.74 -3.77414 4.49194 0
M  V30 39138 C 3639.09 -3.82226 5.0407 0
M  V30 39139 C 3637.76 -3.86633 5.44124 0
M  V30 39140 H 3637.03 -0.680464 0.293341 0
M  V30 39141 H 3639.67 -1.36003 1.34816 0
M  V30 39142 H 3637.98 -3.86669 0.632011 0
M  V30 39143 H 3639.68 -3.87726 1.02321 0
M  V30 39144 H 3636.27 -3.53976 2.41658 0
M  V30 39145 H 3640.45 -3.62115 3.39392 0
M  V30 39146 H 3635.71 -3.79085 4.79692 0
M  V30 39147 H 3639.88 -3.88479 5.77977 0
M  V30 39148 H 3637.51 -3.96555 6.48574 0
M  V30 39149 N 3639.08 -0.861145 -1.31993 0
M  V30 39150 C 3640.03 -0.308516 -2.28729 0
M  V30 39151 C 3641 0.588121 -1.55339 0
M  V30 39152 O 3642.18 0.521648 -1.83531 0
M  V30 39153 C 3639.32 0.491561 -3.41581 0
M  V30 39154 C 3638.44 -0.431598 -4.29839 0
M  V30 39155 C 3637.57 0.381743 -5.29827 0
M  V30 39156 C 3636.61 -0.538403 -6.09728 0
M  V30 39157 N 3635.75 0.23815 -7.01696 0
M  V30 39158 H 3640.59 -1.13867 -2.75387 0
M  V30 39159 H 3638.13 -0.572934 -1.35484 0
M  V30 39160 H 3640.08 0.971122 -4.0574 0
M  V30 39161 H 3638.71 1.28649 -2.96056 0
M  V30 39162 H 3637.77 -1.02957 -3.66202 0
M  V30 39163 H 3639.08 -1.13751 -4.85656 0
M  V30 39164 H 3638.23 0.924191 -5.9962 0
M  V30 39165 H 3636.97 1.12099 -4.74642 0
M  V30 39166 H 3635.98 -1.09268 -5.38833 0
M  V30 39167 H 3637.2 -1.27636 -6.66998 0
M  V30 39168 H 3635.15 0.960372 -6.48932 0
M  V30 39169 H 3635.06 -0.408599 -7.54895 0
M  V30 39170 H 3636.33 0.762115 -7.75765 0
M  V30 39171 N 3640.56 1.44905 -0.619713 0
M  V30 39172 C 3641.47 2.34414 0.09351 0
M  V30 39173 C 3642.49 1.51953 0.847712 0
M  V30 39174 O 3643.66 1.84719 0.802559 0
M  V30 39175 C 3640.73 3.29762 1.07041 0
M  V30 39176 C 3639.79 4.28129 0.316835 0
M  V30 39177 C 3639.02 5.18923 1.2472 0
M  V30 39178 O 3639.24 5.13399 2.48551 0
M  V30 39179 O 3638.18 5.97362 0.737694 0
M  V30 39180 H 3642 2.96828 -0.642387 0
M  V30 39181 H 3639.59 1.44488 -0.379933 0
M  V30 39182 H 3641.47 3.88484 1.63274 0
M  V30 39183 H 3640.15 2.69896 1.78712 0
M  V30 39184 H 3639.05 3.72988 -0.288258 0
M  V30 39185 H 3640.39 4.90884 -0.359626 0
M  V30 39186 N 3642.04 0.359579 1.53443 0
M  V30 39187 C 3642.99 -0.504909 2.27054 0
M  V30 39188 C 3643.98 -1.08847 1.29803 0
M  V30 39189 O 3645.19 -1.03236 1.47453 0
M  V30 39190 H 3641.56 -0.181537 0.729759 0
M  V30 39191 H 3643.53 0.137771 2.98082 0
M  V30 39192 C 3642.28 -1.63579 3.06818 0
M  V30 39193 H 3641.6 -1.19605 3.8149 0
M  V30 39194 H 3643.04 -2.21552 3.61512 0
M  V30 39195 C 3641.5 -2.57462 2.1729 0
M  V30 39196 O 3642.03 -3.60126 1.77968 0
M  V30 39197 N 3640.24 -2.26513 1.82045 0
M  V30 39198 H 3639.79 -1.43065 2.1422 0
M  V30 39199 H 3639.74 -2.89584 1.22428 0
M  V30 39200 N 3643.52 -1.57351 0.0885919 0
M  V30 39201 C 3644.48 -2.12529 -0.858141 0
M  V30 39202 C 3645.48 -1.05307 -1.2152 0
M  V30 39203 O 3646.67 -1.31222 -1.14571 0
M  V30 39204 C 3643.8 -2.64052 -2.15614 0
M  V30 39205 H 3644.99 -2.97494 -0.379128 0
M  V30 39206 H 3642.55 -1.55476 -0.160327 0
M  V30 39207 H 3643.28 -1.82588 -2.68015 0
M  V30 39208 H 3643.07 -3.42441 -1.90989 0
M  V30 39209 H 3644.56 -3.06758 -2.83353 0
M  V30 39210 N 3644.99 0.185069 -1.5651 0
M  V30 39211 C 3645.9 1.24954 -1.98554 0
M  V30 39212 C 3646.92 1.49233 -0.894739 0
M  V30 39213 O 3648.1 1.61651 -1.20129 0
M  V30 39214 C 3645.16 2.57171 -2.32517 0
M  V30 39215 C 3644.22 2.40876 -3.55355 0
M  V30 39216 C 3643.46 3.66787 -3.87689 0
M  V30 39217 O 3643.68 4.71384 -3.21175 0
M  V30 39218 O 3642.61 3.61717 -4.81086 0
M  V30 39219 H 3646.44 0.922705 -2.89344 0
M  V30 39220 H 3644.02 0.390861 -1.44197 0
M  V30 39221 H 3645.91 3.3519 -2.55393 0
M  V30 39222 H 3644.58 2.89461 -1.44893 0
M  V30 39223 H 3643.49 1.60933 -3.37715 0
M  V30 39224 H 3644.82 2.13514 -4.43478 0
M  V30 39225 N 3646.47 1.50945 0.453144 0
M  V30 39226 C 3647.44 1.70542 1.53127 0
M  V30 39227 C 3648.44 0.575704 1.50141 0
M  V30 39228 O 3649.63 0.843024 1.52443 0
M  V30 39229 C 3646.76 1.74728 2.92716 0
M  V30 39230 H 3647.95 2.66748 1.37061 0
M  V30 39231 H 3645.5 1.40696 0.680758 0
M  V30 39232 H 3646.24 0.802808 3.14206 0
M  V30 39233 H 3646.02 2.56816 2.9629 0
M  V30 39234 H 3647.51 1.91783 3.70957 0
M  V30 39235 N 3647.95 -0.707543 1.40825 0
M  V30 39236 C 3648.91 -1.80332 1.41467 0
M  V30 39237 C 3649.91 -1.57839 0.307171 0
M  V30 39238 O 3651.1 -1.64732 0.566473 0
M  V30 39239 C 3648.24 -3.18539 1.21432 0
M  V30 39240 H 3649.43 -1.81158 2.39002 0
M  V30 39241 H 3646.98 -0.913985 1.26791 0
M  V30 39242 H 3647.72 -3.23359 0.246904 0
M  V30 39243 H 3647.5 -3.36266 2.01663 0
M  V30 39244 H 3648.99 -3.98551 1.24688 0
M  V30 39245 N 3649.43 -1.26454 -0.940588 0
M  V30 39246 C 3650.38 -1.08063 -2.03939 0
M  V30 39247 C 3651.35 0.0145096 -1.66094 0
M  V30 39248 O 3652.53 -0.145371 -1.90245 0
M  V30 39249 C 3649.67 -0.720287 -3.37499 0
M  V30 39250 C 3648.78 -1.89174 -3.88378 0
M  V30 39251 C 3647.92 -1.47445 -5.10327 0
M  V30 39252 C 3646.96 -2.61418 -5.53468 0
M  V30 39253 N 3646.09 -2.20367 -6.6662 0
M  V30 39254 H 3650.93 -2.02094 -2.19003 0
M  V30 39255 H 3648.47 -1.0062 -1.07304 0
M  V30 39256 H 3650.43 -0.49225 -4.14286 0
M  V30 39257 H 3649.06 0.183044 -3.22281 0
M  V30 39258 H 3648.11 -2.23269 -3.07986 0
M  V30 39259 H 3649.42 -2.74715 -4.16333 0
M  V30 39260 H 3648.58 -1.2069 -5.94575 0
M  V30 39261 H 3647.32 -0.589958 -4.84119 0
M  V30 39262 H 3646.32 -2.88902 -4.67777 0
M  V30 39263 H 3647.55 -3.50468 -5.81678 0
M  V30 39264 H 3645.49 -1.34352 -6.42095 0
M  V30 39265 H 3645.41 -2.99451 -6.94165 0
M  V30 39266 H 3646.68 -1.96825 -7.54242 0
M  V30 39267 N 3650.91 1.14525 -1.08268 0
M  V30 39268 C 3652.15 1.85163 -0.809889 0
M  V30 39269 C 3652.48 1.83266 0.666231 0
M  V30 39270 O 3651.75 1.28008 1.48292 0
M  V30 39271 H 3650.33 0.685588 -0.29661 0
M  V30 39272 H 3652.99 1.38787 -1.36836 0
M  V30 39273 H 3652.08 2.9003 -1.15277 0
M  V30 39274 N 3652.39 0.868133 1.31534 0
M  V30 39275 C 3653.62 0.49185 2.0066 0
M  V30 39276 C 3654.02 -0.919704 1.65342 0
M  V30 39277 O 3653.37 -1.61373 0.877759 0
M  V30 39278 C 3653.43 0.566988 3.55001 0
M  V30 39279 C 3653.09 1.93983 4.13787 0
M  V30 39280 C 3654.09 2.90709 4.31027 0
M  V30 39281 C 3651.77 2.24064 4.49556 0
M  V30 39282 C 3653.77 4.15661 4.83223 0
M  V30 39283 C 3651.46 3.49266 5.01454 0
M  V30 39284 C 3652.45 4.4488 5.18238 0
M  V30 39285 O 3652.14 5.67862 5.69023 0
M  V30 39286 H 3651.87 0.190307 0.64866 0
M  V30 39287 H 3654.43 1.17056 1.68781 0
M  V30 39288 H 3652.66 -0.168636 3.86332 0
M  V30 39289 H 3654.35 0.204394 4.05385 0
M  V30 39290 H 3655.11 2.68777 4.03713 0
M  V30 39291 H 3650.99 1.5042 4.35769 0
M  V30 39292 H 3654.54 4.90299 4.96239 0
M  V30 39293 H 3650.43 3.71043 5.28202 0
M  V30 39294 H 3651.2 5.70008 5.87395 0
M  V30 39295 N 3653.86 -1.44574 0.627389 0
M  V30 39296 C 3655.11 -2.02379 0.13058 0
M  V30 39297 C 3655.44 -1.4921 -1.24298 0
M  V30 39298 O 3654.72 -0.674658 -1.82424 0
M  V30 39299 C 3655 -3.59922 0.113173 0
M  V30 39300 C 3654.85 -4.23382 1.51881 0
M  V30 39301 C 3656.17 -4.36468 -0.564264 0
M  V30 39302 H 3653.29 -0.735374 0.0489254 0
M  V30 39303 H 3655.93 -1.7219 0.803149 0
M  V30 39304 H 3654.08 -3.85772 -0.459553 0
M  V30 39305 H 3655.76 -4.08651 2.14014 0
M  V30 39306 H 3654 -3.81021 2.07378 0
M  V30 39307 H 3654.67 -5.32378 1.4587 0
M  V30 39308 H 3657.15 -4.16028 -0.0772513 0
M  V30 39309 H 3656.02 -5.46181 -0.545619 0
M  V30 39310 H 3656.28 -4.10797 -1.63395 0
M  V30 39311 N 3655.34 -0.367711 -1.5325 0
M  V30 39312 C 3656.27 0.5125 -2.23397 0
M  V30 39313 C 3657.29 1.04443 -1.24882 0
M  V30 39314 O 3658.48 0.95045 -1.51092 0
M  V30 39315 C 3655.58 1.72059 -2.91974 0
M  V30 39316 C 3654.75 1.31978 -4.17014 0
M  V30 39317 C 3653.81 2.39017 -4.68783 0
M  V30 39318 O 3652.83 2.01319 -5.32409 0
M  V30 39319 N 3654.04 3.70633 -4.46779 0
M  V30 39320 H 3656.8 -0.0883678 -2.9957 0
M  V30 39321 H 3654.36 -0.192994 -1.60746 0
M  V30 39322 H 3656.35 2.43147 -3.23515 0
M  V30 39323 H 3654.92 2.22827 -2.19241 0
M  V30 39324 H 3654.14 0.438663 -3.91752 0
M  V30 39325 H 3655.43 1.02833 -4.983 0
M  V30 39326 H 3654.83 4.04035 -3.95945 0
M  V30 39327 H 3653.39 4.37818 -4.82865 0
M  V30 39328 N 3656.82 1.57302 -0.0969353 0
M  V30 39329 C 3657.77 2.14125 0.861342 0
M  V30 39330 C 3658.74 1.06029 1.27856 0
M  V30 39331 O 3659.92 1.33825 1.35998 0
M  V30 39332 C 3657.06 2.72742 2.11438 0
M  V30 39333 C 3656.17 3.95077 1.74753 0
M  V30 39334 C 3655.31 4.41852 2.94856 0
M  V30 39335 C 3654.35 5.56772 2.54306 0
M  V30 39336 N 3653.49 5.98391 3.6725 0
M  V30 39337 H 3658.33 2.95695 0.369916 0
M  V30 39338 H 3655.86 1.46104 0.170917 0
M  V30 39339 H 3657.82 3.04847 2.84823 0
M  V30 39340 H 3656.45 1.93897 2.58077 0
M  V30 39341 H 3655.5 3.69274 0.913285 0
M  V30 39342 H 3656.81 4.78475 1.40937 0
M  V30 39343 H 3655.97 4.7575 3.76492 0
M  V30 39344 H 3654.71 3.57358 3.31883 0
M  V30 39345 H 3653.71 5.225 1.71097 0
M  V30 39346 H 3654.94 6.43016 2.18421 0
M  V30 39347 H 3652.88 5.16843 4.03992 0
M  V30 39348 H 3652.8 6.7659 3.37286 0
M  V30 39349 H 3654.07 6.3692 4.49391 0
M  V30 39350 N 3658.3 -0.176766 1.56606 0
M  V30 39351 C 3659.54 -0.89427 1.81684 0
M  V30 39352 C 3659.87 -1.8248 0.673142 0
M  V30 39353 O 3659.13 -1.92725 -0.339961 0
M  V30 39354 C 3659.43 -1.72724 3.12891 0
M  V30 39355 C 3659.09 -0.946108 4.40862 0
M  V30 39356 C 3657.75 -0.730502 4.75623 0
M  V30 39357 C 3660.11 -0.397797 5.1968 0
M  V30 39358 C 3657.43 0.0446026 5.86683 0
M  V30 39359 C 3659.79 0.364191 6.31551 0
M  V30 39360 C 3658.45 0.590647 6.64882 0
M  V30 39361 H 3657.72 -0.327237 0.664829 0
M  V30 39362 H 3660.37 -0.159521 1.90834 0
M  V30 39363 H 3658.67 -2.53122 2.99059 0
M  V30 39364 H 3660.37 -2.28534 3.29504 0
M  V30 39365 H 3656.96 -1.12419 4.13594 0
M  V30 39366 H 3661.14 -0.551724 4.93224 0
M  V30 39367 H 3656.4 0.229847 6.10968 0
M  V30 39368 H 3660.57 0.796345 6.91832 0
M  V30 39369 H 3658.2 1.19314 7.50778 0
M  V30 39370 N 3659.78 -1.51183 -0.445132 0
M  V30 39371 C 3661.02 -1.627 -1.19212 0
M  V30 39372 C 3661.34 -0.345283 -1.92528 0
M  V30 39373 O 3662.54 -0.339718 -2.69366 0
M  V30 39374 C 3661 -2.87306 -2.16757 0
M  V30 39375 C 3660.61 -4.22452 -1.49124 0
M  V30 39376 C 3662.35 -3.08178 -2.91936 0
M  V30 39377 C 3660.26 -5.38216 -2.45107 0
M  V30 39378 H 3659.19 -0.605975 -0.448676 0
M  V30 39379 H 3661.84 -1.77643 -0.459924 0
M  V30 39380 H 3660.22 -2.6598 -2.93378 0
M  V30 39381 H 3661.4 -4.54131 -0.781142 0
M  V30 39382 H 3659.71 -4.07395 -0.861271 0
M  V30 39383 H 3662.31 -3.91838 -3.63823 0
M  V30 39384 H 3662.65 -2.20941 -3.52833 0
M  V30 39385 H 3663.18 -3.29807 -2.22424 0
M  V30 39386 H 3659.92 -6.27688 -1.88912 0
M  V30 39387 H 3659.44 -5.10923 -3.14193 0
M  V30 39388 H 3661.12 -5.69849 -3.06401 0
M  V30 39389 N 3661.25 0.700065 -1.41198 0
M  V30 39390 C 3662.53 1.45428 -1.30805 0
M  V30 39391 C 3662.91 2.10995 0.0664616 0
M  V30 39392 O 3662.26 2.01345 1.08039 0
M  V30 39393 C 3662.47 2.47738 -2.45819 0
M  V30 39394 C 3663.82 3.13121 -2.86776 0
M  V30 39395 O 3664.84 2.58061 -2.45526 0
M  V30 39396 O 3663.7 4.12833 -3.58093 0
M  V30 39397 H 3660.79 0.647444 -0.514535 0
M  V30 39398 H 3663.34 0.730924 -1.53152 0
M  V30 39399 H 3662.11 1.97911 -3.3756 0
M  V30 39400 H 3661.73 3.27589 -2.25325 0
M  V30 39401 N 3662.73 1.26951 0.933869 0
M  V30 39402 C 3663.96 1.15831 1.7204 0
M  V30 39403 C 3664.38 -0.281897 1.85976 0
M  V30 39404 O 3663.74 -1.20421 1.35531 0
M  V30 39405 C 3663.79 1.84025 3.10108 0
M  V30 39406 O 3662.89 1.13401 3.96502 0
M  V30 39407 H 3662.23 0.4032 0.527566 0
M  V30 39408 H 3664.76 1.67907 1.16911 0
M  V30 39409 H 3664.77 1.91139 3.60458 0
M  V30 39410 H 3663.45 2.88796 2.99282 0
M  V30 39411 H 3662.02 1.14313 3.54946 0
M  V30 39412 N 3664.21 -1.13949 1.08873 0
M  V30 39413 C 3665.14 -2.21304 0.744754 0
M  V30 39414 C 3666.12 -1.67862 -0.274989 0
M  V30 39415 O 3667.31 -1.93663 -0.144305 0
M  V30 39416 C 3664.44 -3.46939 0.158397 0
M  V30 39417 C 3663.39 -4.13436 1.10702 0
M  V30 39418 C 3662.72 -5.33329 0.382646 0
M  V30 39419 C 3664.02 -4.61425 2.44712 0
M  V30 39420 H 3665.71 -2.50334 1.64235 0
M  V30 39421 H 3663.26 -1.20322 0.79111 0
M  V30 39422 H 3665.21 -4.21295 -0.0942846 0
M  V30 39423 H 3663.93 -3.17287 -0.774357 0
M  V30 39424 H 3662.59 -3.4104 1.34488 0
M  V30 39425 H 3662.24 -4.99939 -0.554065 0
M  V30 39426 H 3661.94 -5.78766 1.0151 0
M  V30 39427 H 3663.46 -6.10444 0.13813 0
M  V30 39428 H 3664.88 -5.27232 2.25166 0
M  V30 39429 H 3663.27 -5.17581 3.03694 0
M  V30 39430 H 3664.34 -3.76244 3.0589 0
M  V30 39431 N 3665.69 -0.875096 -1.31072 0
M  V30 39432 C 3666.94 -0.484696 -1.9579 0
M  V30 39433 C 3667.25 0.969044 -1.69909 0
M  V30 39434 O 3668.46 1.46583 -2.28529 0
M  V30 39435 C 3666.91 -0.815866 -3.50531 0
M  V30 39436 C 3666.52 -2.28671 -3.85245 0
M  V30 39437 C 3668.26 -0.494185 -4.21614 0
M  V30 39438 C 3666.17 -2.56003 -5.3312 0
M  V30 39439 H 3665.1 -0.177528 -0.732803 0
M  V30 39440 H 3667.75 -1.06871 -1.49167 0
M  V30 39441 H 3666.13 -0.16105 -3.95672 0
M  V30 39442 H 3667.31 -2.98502 -3.51046 0
M  V30 39443 H 3665.62 -2.57494 -3.2724 0
M  V30 39444 H 3668.22 -0.675549 -5.30415 0
M  V30 39445 H 3668.56 0.565743 -4.12438 0
M  V30 39446 H 3669.1 -1.10577 -3.82123 0
M  V30 39447 H 3665.83 -3.60698 -5.47336 0
M  V30 39448 H 3665.35 -1.90771 -5.68653 0
M  V30 39449 H 3667.03 -2.40995 -6.00442 0
M  V30 39450 N 3667.17 1.44239 -0.635047 0
M  V30 39451 C 3668.08 2.345 0.068642 0
M  V30 39452 C 3669.09 1.52844 0.831547 0
M  V30 39453 O 3670.27 1.85559 0.782922 0
M  V30 39454 C 3667.33 3.30879 1.03537 0
M  V30 39455 C 3666.39 4.28441 0.271408 0
M  V30 39456 C 3665.63 5.20216 1.19209 0
M  V30 39457 O 3665.85 5.16006 2.43092 0
M  V30 39458 O 3664.78 5.98111 0.674295 0
M  V30 39459 H 3668.61 2.9613 -0.673833 0
M  V30 39460 H 3666.2 1.44077 -0.395237 0
M  V30 39461 H 3668.08 3.90194 1.59144 0
M  V30 39462 H 3666.75 2.71776 1.75839 0
M  V30 39463 H 3665.66 3.72661 -0.327802 0
M  V30 39464 H 3666.99 4.90475 -0.41167 0
M  V30 39465 N 3668.64 0.375833 1.53053 0
M  V30 39466 C 3669.59 -0.480798 2.27577 0
M  V30 39467 C 3670.59 -1.07464 1.3095 0
M  V30 39468 O 3671.79 -1.01666 1.48539 0
M  V30 39469 H 3668.17 -0.173786 0.731644 0
M  V30 39470 H 3670.14 0.169379 2.97919 0
M  V30 39471 C 3668.89 -1.60316 3.08535 0
M  V30 39472 H 3668.21 -1.15552 3.82737 0
M  V30 39473 H 3669.65 -2.17705 3.63841 0
M  V30 39474 C 3668.11 -2.55143 2.20009 0
M  V30 39475 O 3668.64 -3.58218 1.81777 0
M  V30 39476 N 3666.85 -2.24569 1.84437 0
M  V30 39477 H 3666.39 -1.40784 2.15726 0
M  V30 39478 H 3666.35 -2.88269 1.25493 0
M  V30 39479 N 3670.12 -1.57248 0.105276 0
M  V30 39480 C 3671.07 -2.14579 -0.849974 0
M  V30 39481 C 3672.04 -1.06705 -1.27292 0
M  V30 39482 O 3673.22 -1.34544 -1.35287 0
M  V30 39483 C 3670.36 -2.73859 -2.09988 0
M  V30 39484 C 3669.48 -3.95998 -1.72655 0
M  V30 39485 C 3668.61 -4.4341 -2.92509 0
M  V30 39486 C 3667.65 -5.58113 -2.5135 0
M  V30 39487 N 3666.79 -6.0033 -3.64072 0
M  V30 39488 H 3671.63 -2.95887 -0.35423 0
M  V30 39489 H 3669.17 -1.46192 -0.163166 0
M  V30 39490 H 3671.12 -3.06353 -2.83203 0
M  V30 39491 H 3669.75 -1.95263 -2.57045 0
M  V30 39492 H 3668.81 -3.69753 -0.893689 0
M  V30 39493 H 3670.12 -4.79216 -1.38398 0
M  V30 39494 H 3669.27 -4.7774 -3.73964 0
M  V30 39495 H 3668.01 -3.59113 -3.29983 0
M  V30 39496 H 3667.02 -5.234 -1.68324 0
M  V30 39497 H 3668.24 -6.44165 -2.15008 0
M  V30 39498 H 3666.19 -5.18978 -4.01246 0
M  V30 39499 H 3666.1 -6.78369 -3.33693 0
M  V30 39500 H 3667.37 -6.39295 -4.46007 0
M  V30 39501 N 3671.6 0.168458 -1.56697 0
M  V30 39502 C 3672.51 1.22841 -1.99868 0
M  V30 39503 C 3673.53 1.48275 -0.910517 0
M  V30 39504 O 3674.7 1.60368 -1.21837 0
M  V30 39505 C 3671.77 2.5469 -2.35232 0
M  V30 39506 C 3670.83 2.37093 -3.5789 0
M  V30 39507 C 3670.06 3.62654 -3.91558 0
M  V30 39508 O 3670.28 4.67951 -3.26156 0
M  V30 39509 O 3669.22 3.56595 -4.84896 0
M  V30 39510 H 3673.04 0.891964 -2.90306 0
M  V30 39511 H 3670.63 0.375545 -1.44603 0
M  V30 39512 H 3672.51 3.32463 -2.58934 0
M  V30 39513 H 3671.19 2.87908 -1.47955 0
M  V30 39514 H 3670.09 1.57342 -3.39403 0
M  V30 39515 H 3671.43 2.08798 -4.45717 0
M  V30 39516 N 3673.08 1.51417 0.437109 0
M  V30 39517 C 3673.99 1.75592 1.55578 0
M  V30 39518 C 3675 0.64016 1.61796 0
M  V30 39519 O 3676.18 0.922437 1.79034 0
M  V30 39520 C 3673.25 1.87603 2.91558 0
M  V30 39521 C 3672.31 3.11456 2.95455 0
M  V30 39522 C 3671.54 3.22885 4.24948 0
M  V30 39523 O 3671.76 2.40247 5.17337 0
M  V30 39524 O 3670.7 4.15864 4.35133 0
M  V30 39525 H 3674.52 2.70488 1.38093 0
M  V30 39526 H 3672.11 1.35921 0.620139 0
M  V30 39527 H 3673.99 1.97488 3.72259 0
M  V30 39528 H 3672.66 0.958944 3.0917 0
M  V30 39529 H 3671.57 3.0705 2.13708 0
M  V30 39530 H 3672.9 4.02855 2.82787 0
M  V30 39531 N 3674.56 -0.692567 1.41567 0
M  V30 39532 C 3675.81 -1.44829 1.40384 0
M  V30 39533 C 3676.12 -1.95592 0.0172411 0
M  V30 39534 O 3677.32 -2.71247 -0.117212 0
M  V30 39535 C 3675.78 -2.61904 2.46849 0
M  V30 39536 C 3675.39 -2.17914 3.9143 0
M  V30 39537 C 3677.13 -3.3952 2.54806 0
M  V30 39538 C 3675.04 -3.31966 4.89441 0
M  V30 39539 H 3673.97 -0.544019 0.522072 0
M  V30 39540 H 3676.62 -0.751559 1.67403 0
M  V30 39541 H 3675 -3.33859 2.12965 0
M  V30 39542 H 3676.18 -1.53228 4.34578 0
M  V30 39543 H 3674.49 -1.53283 3.8716 0
M  V30 39544 H 3677.09 -4.24429 3.25215 0
M  V30 39545 H 3677.43 -3.84911 1.58586 0
M  V30 39546 H 3677.96 -2.74624 2.87796 0
M  V30 39547 H 3674.7 -2.91584 5.87076 0
M  V30 39548 H 3674.22 -3.95491 4.5094 0
M  V30 39549 H 3675.9 -3.97699 5.10338 0
M  V30 39550 N 3676.03 -1.27445 -0.927123 0
M  V30 39551 C 3677.28 -1.132 -1.66939 0
M  V30 39552 C 3677.6 0.321527 -1.92939 0
M  V30 39553 O 3678.8 0.584884 -2.65125 0
M  V30 39554 C 3677.26 -1.97797 -3.00673 0
M  V30 39555 C 3676.87 -3.4781 -2.82369 0
M  V30 39556 C 3678.61 -1.92201 -3.78496 0
M  V30 39557 C 3676.52 -4.24603 -4.11663 0
M  V30 39558 H 3675.45 -0.420042 -0.626164 0
M  V30 39559 H 3678.1 -1.5187 -1.02994 0
M  V30 39560 H 3676.48 -1.51971 -3.65678 0
M  V30 39561 H 3677.65 -4.01501 -2.26128 0
M  V30 39562 H 3675.97 -3.5479 -2.17975 0
M  V30 39563 H 3678.57 -2.46852 -4.74308 0
M  V30 39564 H 3678.91 -0.895773 -4.06548 0
M  V30 39565 H 3679.44 -2.35925 -3.20288 0
M  V30 39566 H 3676.18 -5.27754 -3.88788 0
M  V30 39567 H 3675.7 -3.75689 -4.67566 0
M  V30 39568 H 3677.38 -4.33808 -4.8002 0
M  V30 39569 N 3677.51 1.1337 -1.09476 0
M  V30 39570 C 3678.93 1.3665 -0.824565 0
M  V30 39571 C 3679.13 1.93537 0.560869 0
M  V30 39572 O 3678.18 2.15516 1.31563 0
M  V30 39573 C 3679.5 2.31736 -1.91622 0
M  V30 39574 C 3681.05 2.4535 -1.94351 0
M  V30 39575 C 3681.52 3.43744 -3.02661 0
M  V30 39576 N 3683.01 3.51295 -3.01904 0
M  V30 39577 C 3683.75 4.27311 -3.82352 0
M  V30 39578 N 3683.24 5.06476 -4.72709 0
M  V30 39579 N 3685.04 4.22617 -3.70609 0
M  V30 39580 H 3677.19 0.74797 -1.98794 0
M  V30 39581 H 3679.45 0.391631 -0.863325 0
M  V30 39582 H 3679.16 1.97093 -2.91286 0
M  V30 39583 H 3679.03 3.31758 -1.7949 0
M  V30 39584 H 3681.42 2.7928 -0.953256 0
M  V30 39585 H 3681.5 1.45251 -2.1056 0
M  V30 39586 H 3681.14 3.10546 -4.019 0
M  V30 39587 H 3681.07 4.4365 -2.83694 0
M  V30 39588 H 3683.56 2.9481 -2.36422 0
M  V30 39589 H 3683.88 5.61787 -5.30675 0
M  V30 39590 H 3682.22 5.05707 -4.76745 0
M  V30 39591 H 3685.41 3.59847 -2.99379 0
M  V30 39592 H 3685.58 4.81606 -4.33543 0
M  V30 39593 N 3678.99 0.882035 1.30606 0
M  V30 39594 C 3680.22 0.513105 2.00127 0
M  V30 39595 C 3680.63 -0.902115 1.66309 0
M  V30 39596 O 3679.97 -1.60432 0.894825 0
M  V30 39597 C 3680.03 0.604609 3.54379 0
M  V30 39598 C 3679.7 1.98361 4.11706 0
M  V30 39599 C 3680.69 2.95265 4.27919 0
M  V30 39600 C 3678.38 2.2882 4.47154 0
M  V30 39601 C 3680.37 4.20763 4.78787 0
M  V30 39602 C 3678.06 3.54565 4.97722 0
M  V30 39603 C 3679.06 4.50351 5.13491 0
M  V30 39604 O 3678.75 5.73866 5.62968 0
M  V30 39605 H 3678.48 0.197176 0.646605 0
M  V30 39606 H 3681.03 1.1884 1.6753 0
M  V30 39607 H 3679.26 -0.127651 3.86489 0
M  V30 39608 H 3680.95 0.247379 4.05145 0
M  V30 39609 H 3681.72 2.73044 4.00839 0
M  V30 39610 H 3677.6 1.55034 4.34149 0
M  V30 39611 H 3681.14 4.95534 4.91011 0
M  V30 39612 H 3677.04 3.76624 5.24237 0
M  V30 39613 H 3677.81 5.76206 5.81316 0
M  V30 39614 N 3680.47 -1.439 0.642688 0
M  V30 39615 C 3681.72 -2.01531 0.151513 0
M  V30 39616 C 3682.04 -1.50893 -1.23516 0
M  V30 39617 O 3681.31 -0.717229 -1.82298 0
M  V30 39618 H 3679.89 -0.745116 0.0530222 0
M  V30 39619 H 3682.55 -1.7625 0.831989 0
M  V30 39620 H 3681.65 -3.11837 0.12805 0
M  V30 39621 N 3681.95 -0.383945 -1.52852 0
M  V30 39622 C 3682.88 0.44535 -2.29214 0
M  V30 39623 C 3683.86 1.06813 -1.32382 0
M  V30 39624 O 3685.04 1.08191 -1.61271 0
M  V30 39625 C 3682.17 1.57567 -3.09499 0
M  V30 39626 C 3681.13 1.07921 -4.1417 0
M  V30 39627 C 3680.45 2.30119 -4.82648 0
M  V30 39628 C 3681.75 0.150943 -5.22082 0
M  V30 39629 H 3683.45 -0.191773 -2.98785 0
M  V30 39630 H 3680.99 -0.0936724 -1.43695 0
M  V30 39631 H 3682.95 2.16261 -3.61676 0
M  V30 39632 H 3681.67 2.2403 -2.37651 0
M  V30 39633 H 3680.33 0.514846 -3.62967 0
M  V30 39634 H 3679.98 2.9508 -4.07353 0
M  V30 39635 H 3679.68 1.97565 -5.53391 0
M  V30 39636 H 3681.2 2.89465 -5.37627 0
M  V30 39637 H 3682.62 0.645903 -5.6965 0
M  V30 39638 H 3681.01 -0.0845887 -6.0004 0
M  V30 39639 H 3682.08 -0.801703 -4.78227 0
M  V30 39640 N 3683.43 1.5719 -0.113614 0
M  V30 39641 C 3684.67 1.96093 0.540272 0
M  V30 39642 C 3685.03 0.995707 1.64631 0
M  V30 39643 O 3684.32 0.0248094 1.91584 0
M  V30 39644 C 3684.51 3.39274 1.12374 0
M  V30 39645 C 3684.34 4.49636 0.0757593 0
M  V30 39646 C 3683.11 5.04057 -0.35419 0
M  V30 39647 C 3685.31 5.0947 -0.703166 0
M  V30 39648 N 3683.29 5.97991 -1.38851 0
M  V30 39649 C 3684.66 5.99297 -1.58882 0
M  V30 39650 C 3686.72 4.92148 -0.754648 0
M  V30 39651 C 3685.42 6.73658 -2.52147 0
M  V30 39652 C 3687.45 5.67185 -1.67498 0
M  V30 39653 C 3686.81 6.56693 -2.54822 0
M  V30 39654 H 3682.91 0.763854 0.167485 0
M  V30 39655 H 3685.49 1.93665 -0.200482 0
M  V30 39656 H 3683.66 3.4236 1.83424 0
M  V30 39657 H 3685.4 3.65313 1.74151 0
M  V30 39658 H 3682.15 4.73585 0.0371651 0
M  V30 39659 H 3682.57 6.49662 -1.90443 0
M  V30 39660 H 3687.22 4.22696 -0.0936534 0
M  V30 39661 H 3684.93 7.42359 -3.19262 0
M  V30 39662 H 3688.52 5.55789 -1.72018 0
M  V30 39663 H 3687.4 7.13739 -3.24879 0
M  V30 39664 N 3684.9 -0.160146 1.56784 0
M  V30 39665 C 3686.15 -0.873221 1.82262 0
M  V30 39666 C 3686.47 -1.82293 0.692416 0
M  V30 39667 O 3685.74 -1.93787 -0.286927 0
M  V30 39668 H 3684.32 -0.325451 0.672377 0
M  V30 39669 H 3686.98 -0.157291 1.94264 0
M  V30 39670 H 3686.08 -1.4434 2.76717 0
M  V30 39671 N 3686.38 -1.51647 -0.429072 0
M  V30 39672 C 3687.61 -1.68543 -1.20003 0
M  V30 39673 C 3688.02 -0.386297 -1.84806 0
M  V30 39674 O 3687.38 0.635958 -1.71061 0
M  V30 39675 C 3687.43 -2.80698 -2.27796 0
M  V30 39676 O 3687.15 -4.05579 -1.65642 0
M  V30 39677 C 3688.65 -3.08934 -3.17922 0
M  V30 39678 H 3685.87 -0.565373 -0.361378 0
M  V30 39679 H 3688.42 -1.98105 -0.507397 0
M  V30 39680 H 3686.57 -2.53712 -2.92761 0
M  V30 39681 H 3686.99 -4.67928 -2.36947 0
M  V30 39682 H 3688.46 -3.90972 -3.89673 0
M  V30 39683 H 3688.94 -2.21675 -3.79153 0
M  V30 39684 H 3689.54 -3.37611 -2.58648 0
M  V30 39685 N 3687.86 0.685049 -1.41932 0
M  V30 39686 C 3688.81 1.79119 -1.41069 0
M  V30 39687 C 3689.79 1.58383 -0.283495 0
M  V30 39688 O 3690.99 1.69036 -0.524961 0
M  V30 39689 C 3688.11 3.17506 -1.30556 0
M  V30 39690 C 3687.2 3.439 -2.4818 0
M  V30 39691 N 3687.59 3.40935 -3.73627 0
M  V30 39692 C 3685.89 3.74494 -2.4222 0
M  V30 39693 C 3686.59 3.66528 -4.51699 0
M  V30 39694 N 3685.57 3.8679 -3.81962 0
M  V30 39695 H 3689.37 1.75204 -2.35968 0
M  V30 39696 H 3686.88 0.885474 -1.36136 0
M  V30 39697 H 3688.88 3.96758 -1.2802 0
M  V30 39698 H 3687.54 3.22625 -0.366511 0
M  V30 39699 H 3688.55 3.21072 -4.06366 0
M  V30 39700 H 3685.23 3.8692 -1.56842 0
M  V30 39701 H 3686.62 3.70282 -5.60661 0
M  V30 39702 N 3689.34 1.27935 0.920351 0
M  V30 39703 C 3690.57 1.17536 1.70273 0
M  V30 39704 C 3690.98 -0.26687 1.86904 0
M  V30 39705 O 3690.34 -1.18103 1.39133 0
M  V30 39706 C 3690.39 1.86224 3.09843 0
M  V30 39707 O 3690.11 3.24813 2.93986 0
M  V30 39708 C 3691.61 1.82044 4.04197 0
M  V30 39709 H 3688.83 0.408306 0.532473 0
M  V30 39710 H 3691.37 1.6894 1.15237 0
M  V30 39711 H 3689.53 1.38707 3.61717 0
M  V30 39712 H 3689.94 3.59118 3.82275 0
M  V30 39713 H 3691.42 2.34706 4.99617 0
M  V30 39714 H 3691.89 0.791371 4.32012 0
M  V30 39715 H 3692.5 2.2921 3.5825 0
M  V30 39716 N 3690.82 -1.12788 1.10076 0
M  V30 39717 C 3691.78 -2.16592 0.749708 0
M  V30 39718 C 3692.78 -1.59232 -0.224018 0
M  V30 39719 O 3693.97 -1.742 -0.00134042 0
M  V30 39720 C 3691.1 -3.40723 0.109855 0
M  V30 39721 H 3692.29 -2.49161 1.6691 0
M  V30 39722 H 3689.85 -1.27731 0.900804 0
M  V30 39723 H 3690.58 -3.1375 -0.820446 0
M  V30 39724 H 3690.37 -3.8363 0.810584 0
M  V30 39725 H 3691.86 -4.17427 -0.120125 0
M  V30 39726 N 3692.29 -0.888949 -1.30136 0
M  V30 39727 C 3693.22 -0.374974 -2.3047 0
M  V30 39728 C 3694.2 0.544294 -1.61157 0
M  V30 39729 O 3695.39 0.457304 -1.88739 0
M  V30 39730 C 3692.52 0.407874 -3.44897 0
M  V30 39731 C 3691.47 -0.419991 -4.25934 0
M  V30 39732 C 3690.8 0.489703 -5.32453 0
M  V30 39733 C 3692.1 -1.66422 -4.95077 0
M  V30 39734 H 3693.79 -1.21341 -2.73709 0
M  V30 39735 H 3691.34 -0.584922 -1.31585 0
M  V30 39736 H 3693.29 0.778104 -4.14154 0
M  V30 39737 H 3692.02 1.28 -3.00472 0
M  V30 39738 H 3690.68 -0.772411 -3.5837 0
M  V30 39739 H 3690.32 1.35965 -4.84275 0
M  V30 39740 H 3690.02 -0.0604445 -5.87569 0
M  V30 39741 H 3691.55 0.856362 -6.04565 0
M  V30 39742 H 3692.96 -1.36435 -5.56829 0
M  V30 39743 H 3691.36 -2.15487 -5.60076 0
M  V30 39744 H 3692.43 -2.40637 -4.20977 0
M  V30 39745 N 3693.77 1.43557 -0.65031 0
M  V30 39746 C 3695 2.059 -0.169929 0
M  V30 39747 C 3695.41 1.48808 1.16845 0
M  V30 39748 O 3694.75 0.612857 1.73175 0
M  V30 39749 C 3694.81 3.595 -0.00123374 0
M  V30 39750 C 3694.48 4.39159 -1.26445 0
M  V30 39751 C 3695.48 4.71407 -2.19253 0
M  V30 39752 C 3693.16 4.79216 -1.50523 0
M  V30 39753 C 3695.15 5.42617 -3.34433 0
M  V30 39754 C 3692.84 5.50172 -2.65996 0
M  V30 39755 C 3693.84 5.81794 -3.57777 0
M  V30 39756 O 3693.53 6.51301 -4.71235 0
M  V30 39757 H 3693.26 0.670526 -0.0858515 0
M  V30 39758 H 3695.81 1.851 -0.890354 0
M  V30 39759 H 3694.04 3.78864 0.774532 0
M  V30 39760 H 3695.73 4.0355 0.436135 0
M  V30 39761 H 3696.5 4.40981 -2.01893 0
M  V30 39762 H 3692.38 4.54012 -0.799657 0
M  V30 39763 H 3695.92 5.67217 -4.06092 0
M  V30 39764 H 3691.82 5.80014 -2.83292 0
M  V30 39765 H 3692.59 6.69781 -4.70463 0
M  V30 39766 N 3695.25 0.392045 1.52646 0
M  V30 39767 C 3696.2 -0.441779 2.26532 0
M  V30 39768 C 3697.17 -1.05549 1.28252 0
M  V30 39769 O 3698.35 -1.083 1.57085 0
M  V30 39770 C 3695.49 -1.56168 3.07743 0
M  V30 39771 C 3694.6 -0.970558 4.20956 0
M  V30 39772 C 3693.74 -2.06174 4.89557 0
M  V30 39773 C 3692.78 -1.44666 5.94759 0
M  V30 39774 N 3691.92 -2.47726 6.56945 0
M  V30 39775 H 3696.76 0.194752 2.97363 0
M  V30 39776 H 3694.29 0.107874 1.46704 0
M  V30 39777 H 3696.25 -2.22176 3.5312 0
M  V30 39778 H 3694.88 -2.16849 2.39116 0
M  V30 39779 H 3693.93 -0.2 3.79874 0
M  V30 39780 H 3695.24 -0.481094 4.96474 0
M  V30 39781 H 3694.4 -2.79946 5.38252 0
M  V30 39782 H 3693.14 -2.58481 4.13568 0
M  V30 39783 H 3692.14 -0.694192 5.454 0
M  V30 39784 H 3693.37 -0.931499 6.72681 0
M  V30 39785 H 3691.31 -2.99197 5.83795 0
M  V30 39786 H 3691.23 -2.03543 7.28084 0
M  V30 39787 H 3692.5 -3.2112 7.10283 0
M  V30 39788 N 3696.73 -1.57127 0.121948 0
M  V30 39789 C 3697.95 -2.00076 -0.54629 0
M  V30 39790 C 3698.38 -1.00116 -1.59243 0
M  V30 39791 O 3697.74 0.0267369 -1.8128 0
M  V30 39792 C 3697.78 -3.4189 -1.14645 0
M  V30 39793 O 3696.89 -3.44834 -2.26193 0
M  V30 39794 H 3696.23 -0.649887 -0.136172 0
M  V30 39795 H 3698.76 -2.03506 0.211293 0
M  V30 39796 H 3698.77 -3.80161 -1.48126 0
M  V30 39797 H 3697.44 -4.14159 -0.380201 0
M  V30 39798 H 3696.02 -3.18384 -1.94129 0
M  V30 39799 N 3698.21 0.151829 -1.56867 0
M  V30 39800 C 3699.46 0.863657 -1.82274 0
M  V30 39801 C 3699.77 1.82553 -0.702409 0
M  V30 39802 O 3700.97 2.58115 -0.841948 0
M  V30 39803 C 3699.43 1.58643 -3.23048 0
M  V30 39804 C 3699.04 0.667214 -4.43004 0
M  V30 39805 C 3700.78 2.28533 -3.57733 0
M  V30 39806 C 3698.69 1.39134 -5.74801 0
M  V30 39807 H 3697.62 0.326257 -0.679759 0
M  V30 39808 H 3700.27 0.116422 -1.8313 0
M  V30 39809 H 3698.65 2.37912 -3.16565 0
M  V30 39810 H 3699.83 -0.0899063 -4.60712 0
M  V30 39811 H 3698.14 0.076979 -4.16329 0
M  V30 39812 H 3700.74 2.8334 -4.53456 0
M  V30 39813 H 3701.08 3.04798 -2.83556 0
M  V30 39814 H 3701.61 1.56188 -3.65856 0
M  V30 39815 H 3698.35 0.670632 -6.5206 0
M  V30 39816 H 3697.87 2.12129 -5.61036 0
M  V30 39817 H 3699.55 1.93356 -6.17432 0
M  V30 39818 N 3699.68 1.51872 0.421024 0
M  V30 39819 C 3700.65 1.73752 1.49475 0
M  V30 39820 C 3701.65 0.607422 1.48886 0
M  V30 39821 O 3702.84 0.87517 1.5062 0
M  V30 39822 C 3699.97 1.80898 2.88944 0
M  V30 39823 H 3701.16 2.69595 1.31372 0
M  V30 39824 H 3698.72 1.42108 0.650761 0
M  V30 39825 H 3699.45 0.869275 3.12433 0
M  V30 39826 H 3699.24 2.63043 2.90776 0
M  V30 39827 H 3700.73 1.99609 3.66805 0
M  V30 39828 N 3701.16 -0.677513 1.42294 0
M  V30 39829 C 3702.13 -1.77291 1.45261 0
M  V30 39830 C 3703.13 -1.57152 0.340582 0
M  V30 39831 O 3704.32 -1.63494 0.601288 0
M  V30 39832 C 3701.45 -3.15892 1.28161 0
M  V30 39833 H 3702.64 -1.76048 2.4279 0
M  V30 39834 H 3700.19 -0.886885 1.28701 0
M  V30 39835 H 3700.93 -3.22762 0.315437 0
M  V30 39836 H 3700.71 -3.31912 2.0875 0
M  V30 39837 H 3702.2 -3.95816 1.33114 0
M  V30 39838 N 3702.64 -1.28421 -0.913554 0
M  V30 39839 C 3704.06 -1.06132 -1.19198 0
M  V30 39840 C 3704.26 0.196197 -2.00543 0
M  V30 39841 O 3703.31 0.897811 -2.35999 0
M  V30 39842 C 3704.63 -2.30892 -1.92638 0
M  V30 39843 C 3706.17 -2.36073 -2.0552 0
M  V30 39844 C 3706.65 -3.606 -2.82368 0
M  V30 39845 N 3708.14 -3.61241 -2.89929 0
M  V30 39846 C 3708.87 -4.54273 -3.49891 0
M  V30 39847 N 3708.37 -5.57623 -4.11131 0
M  V30 39848 N 3710.16 -4.41868 -3.47432 0
M  V30 39849 H 3702.31 -2.09144 -0.370473 0
M  V30 39850 H 3704.58 -0.92053 -0.226556 0
M  V30 39851 H 3704.28 -3.22507 -1.40294 0
M  V30 39852 H 3704.16 -2.37321 -2.93187 0
M  V30 39853 H 3706.54 -1.44956 -2.57044 0
M  V30 39854 H 3706.63 -2.33639 -1.04146 0
M  V30 39855 H 3706.27 -4.52062 -2.31523 0
M  V30 39856 H 3706.2 -3.60289 -3.84057 0
M  V30 39857 H 3708.69 -2.86506 -2.46419 0
M  V30 39858 H 3709 -6.24754 -4.54866 0
M  V30 39859 H 3707.35 -5.61449 -4.09635 0
M  V30 39860 H 3710.54 -3.60328 -2.98799 0
M  V30 39861 H 3710.71 -5.14558 -3.93871 0
M  V30 39862 N 3704.12 1.12202 -1.10672 0
M  V30 39863 C 3705.05 2.20092 -0.779867 0
M  V30 39864 C 3706.03 1.68279 0.248249 0
M  V30 39865 O 3707.21 1.93868 0.113477 0
M  V30 39866 C 3704.34 3.46643 -0.213572 0
M  V30 39867 C 3703.3 4.11622 -1.17265 0
M  V30 39868 C 3702.62 5.32653 -0.467446 0
M  V30 39869 C 3703.92 4.57474 -2.52022 0
M  V30 39870 H 3705.62 2.4769 -1.68196 0
M  V30 39871 H 3703.16 1.19048 -0.810152 0
M  V30 39872 H 3705.12 4.21391 0.0272484 0
M  V30 39873 H 3703.84 3.18479 0.723781 0
M  V30 39874 H 3702.5 3.38857 -1.39897 0
M  V30 39875 H 3702.15 5.00757 0.474459 0
M  V30 39876 H 3701.85 5.77077 -1.10704 0
M  V30 39877 H 3703.37 6.10147 -0.235229 0
M  V30 39878 H 3704.79 5.23583 -2.33525 0
M  V30 39879 H 3703.18 5.12684 -3.11889 0
M  V30 39880 H 3704.25 3.7133 -3.11837 0
M  V30 39881 N 3705.6 0.895838 1.29663 0
M  V30 39882 C 3706.84 0.518759 1.95329 0
M  V30 39883 C 3707.17 -0.937292 1.70997 0
M  V30 39884 O 3706.44 -1.66041 1.03958 0
M  V30 39885 H 3705.02 0.188854 0.722733 0
M  V30 39886 H 3707.68 1.14129 1.57989 0
M  V30 39887 H 3706.77 0.69811 3.04192 0
M  V30 39888 N 3707.07 -1.43211 0.657914 0
M  V30 39889 C 3708.02 -2.27938 -0.0532413 0
M  V30 39890 C 3709.01 -1.4016 -0.790182 0
M  V30 39891 O 3710.2 -1.63752 -0.671875 0
M  V30 39892 C 3707.33 -3.27931 -1.01568 0
M  V30 39893 C 3706.42 -4.23195 -0.276967 0
M  V30 39894 N 3706.81 -5.00806 0.709047 0
M  V30 39895 C 3705.1 -4.42984 -0.517767 0
M  V30 39896 C 3705.81 -5.70261 1.14794 0
M  V30 39897 N 3704.78 -5.41466 0.481251 0
M  V30 39898 H 3708.58 -2.85361 0.703307 0
M  V30 39899 H 3706.1 -1.54971 0.485579 0
M  V30 39900 H 3708.09 -3.87414 -1.53999 0
M  V30 39901 H 3706.75 -2.72069 -1.77224 0
M  V30 39902 H 3707.77 -5.06344 1.08795 0
M  V30 39903 H 3704.44 -3.98187 -1.25513 0
M  V30 39904 H 3705.83 -6.42553 1.96406 0
M  V30 39905 N 3708.55 -0.400135 -1.52436 0
M  V30 39906 C 3709.46 0.436835 -2.30497 0
M  V30 39907 C 3710.48 1.06173 -1.37853 0
M  V30 39908 O 3711.65 1.06519 -1.70926 0
M  V30 39909 C 3708.72 1.5432 -3.10461 0
M  V30 39910 C 3707.78 0.942294 -4.18831 0
M  V30 39911 C 3707.01 1.99593 -4.94973 0
M  V30 39912 O 3707.24 3.2127 -4.71319 0
M  V30 39913 O 3706.17 1.60718 -5.80046 0
M  V30 39914 H 3710 -0.199396 -3.03045 0
M  V30 39915 H 3707.58 -0.163567 -1.48502 0
M  V30 39916 H 3709.46 2.18568 -3.60286 0
M  V30 39917 H 3708.14 2.16419 -2.40716 0
M  V30 39918 H 3707.05 0.262765 -3.73176 0
M  V30 39919 H 3708.38 0.365355 -4.90842 0
M  V30 39920 N 3710.03 1.57061 -0.13028 0
M  V30 39921 C 3711.26 1.99933 0.532381 0
M  V30 39922 C 3711.67 1.01016 1.59503 0
M  V30 39923 O 3711.03 0.00466366 1.82499 0
M  V30 39924 C 3711.08 3.42778 1.14827 0
M  V30 39925 O 3710.8 4.37913 0.128086 0
M  V30 39926 C 3712.3 4.00842 1.89317 0
M  V30 39927 H 3709.52 0.656225 0.140035 0
M  V30 39928 H 3712.07 2.03314 -0.219941 0
M  V30 39929 H 3710.22 3.40302 1.85131 0
M  V30 39930 H 3710.64 5.21316 0.577043 0
M  V30 39931 H 3712.11 5.02839 2.27722 0
M  V30 39932 H 3712.59 3.40613 2.77271 0
M  V30 39933 H 3713.19 4.06898 1.2375 0
M  V30 39934 N 3711.51 -0.143508 1.56945 0
M  V30 39935 C 3712.47 -1.16102 1.97618 0
M  V30 39936 C 3713.47 -1.35671 0.863136 0
M  V30 39937 O 3714.66 -1.32604 1.12969 0
M  V30 39938 C 3711.79 -2.52063 2.29515 0
M  V30 39939 H 3712.99 -0.812015 2.88698 0
M  V30 39940 H 3710.54 -0.386972 1.51434 0
M  V30 39941 H 3711.28 -2.91929 1.41238 0
M  V30 39942 H 3711.06 -2.3922 3.10671 0
M  V30 39943 H 3712.55 -3.25341 2.61808 0
M  V30 39944 N 3712.99 -1.52093 -0.412964 0
M  V30 39945 C 3714.23 -1.65964 -1.16027 0
M  V30 39946 C 3714.56 -0.387685 -1.90597 0
M  V30 39947 O 3713.82 0.62921 -1.85309 0
M  V30 39948 C 3714.12 -2.82971 -2.18316 0
M  V30 39949 C 3713.78 -4.21337 -1.60581 0
M  V30 39950 C 3712.44 -4.58973 -1.4456 0
M  V30 39951 C 3714.8 -5.07578 -1.18379 0
M  V30 39952 C 3712.12 -5.80532 -0.848482 0
M  V30 39953 C 3714.48 -6.2974 -0.600874 0
M  V30 39954 C 3713.14 -6.66128 -0.427763 0
M  V30 39955 H 3712.41 -0.607305 -0.424573 0
M  V30 39956 H 3715.06 -1.86186 -0.447995 0
M  V30 39957 H 3713.36 -2.57068 -2.95674 0
M  V30 39958 H 3715.06 -2.909 -2.76004 0
M  V30 39959 H 3711.65 -3.91676 -1.74033 0
M  V30 39960 H 3715.83 -4.79089 -1.29568 0
M  V30 39961 H 3711.09 -6.07353 -0.70234 0
M  V30 39962 H 3715.26 -6.95894 -0.265461 0
M  V30 39963 H 3712.89 -7.60191 0.037035 0
M  V30 39964 N 3714.47 0.669957 -1.42651 0
M  V30 39965 C 3715.43 1.76518 -1.46199 0
M  V30 39966 C 3716.43 1.56969 -0.348911 0
M  V30 39967 O 3717.62 1.63172 -0.60995 0
M  V30 39968 C 3714.75 3.15208 -1.29835 0
M  V30 39969 H 3715.94 1.74758 -2.43721 0
M  V30 39970 H 3713.5 0.880047 -1.2917 0
M  V30 39971 H 3714.23 3.2259 -0.33255 0
M  V30 39972 H 3714.02 3.30801 -2.10507 0
M  V30 39973 H 3715.51 3.95105 -1.35211 0
M  V30 39974 N 3715.94 1.28904 0.90673 0
M  V30 39975 C 3717.17 1.19336 1.69017 0
M  V30 39976 C 3717.59 -0.247032 1.87177 0
M  V30 39977 O 3716.94 -1.16621 1.40378 0
M  V30 39978 C 3716.99 1.895 3.07851 0
M  V30 39979 O 3716.72 3.27913 2.90525 0
M  V30 39980 C 3718.22 1.86321 4.02243 0
M  V30 39981 H 3715.44 0.413931 0.528112 0
M  V30 39982 H 3717.98 1.70153 1.13438 0
M  V30 39983 H 3716.14 1.42536 3.60225 0
M  V30 39984 H 3716.55 3.63153 3.78445 0
M  V30 39985 H 3718.02 2.39992 4.97099 0
M  V30 39986 H 3718.5 0.837147 4.31148 0
M  V30 39987 H 3719.11 2.32997 3.55799 0
M  V30 39988 N 3717.42 -1.11614 1.11266 0
M  V30 39989 C 3718.35 -2.19675 0.791528 0
M  V30 39990 C 3719.33 -1.68408 -0.239321 0
M  V30 39991 O 3720.52 -1.93926 -0.103194 0
M  V30 39992 C 3717.65 -3.46525 0.231952 0
M  V30 39993 C 3716.6 -4.10995 1.19447 0
M  V30 39994 C 3715.93 -5.32397 0.495687 0
M  V30 39995 C 3717.23 -4.56131 2.54445 0
M  V30 39996 H 3718.92 -2.46795 1.69508 0
M  V30 39997 H 3716.47 -1.18617 0.816454 0
M  V30 39998 H 3718.42 -4.214 -0.00490061 0
M  V30 39999 H 3717.14 -3.18859 -0.706882 0
M  V30 40000 H 3715.8 -3.38111 1.41692 0
M  V30 40001 H 3715.45 -5.01002 -0.447896 0
M  V30 40002 H 3715.15 -5.76482 1.13763 0
M  V30 40003 H 3716.68 -6.10013 0.267583 0
M  V30 40004 H 3718.09 -5.22337 2.36298 0
M  V30 40005 H 3716.49 -5.11023 3.14604 0
M  V30 40006 H 3717.56 -3.69671 3.13802 0
M  V30 40007 N 3718.9 -0.902701 -1.29186 0
M  V30 40008 C 3720.15 -0.530943 -1.95726 0
M  V30 40009 C 3720.48 0.920984 -1.70972 0
M  V30 40010 O 3719.75 1.65337 -1.02439 0
M  V30 40011 C 3720.04 -0.827584 -3.50461 0
M  V30 40012 C 3719.89 -2.33143 -3.84661 0
M  V30 40013 C 3721.21 -0.31613 -4.38963 0
M  V30 40014 H 3718.33 -0.194374 -0.710906 0
M  V30 40015 H 3720.97 -1.12993 -1.5275 0
M  V30 40016 H 3719.12 -0.3178 -3.87198 0
M  V30 40017 H 3720.79 -2.91099 -3.57854 0
M  V30 40018 H 3719.03 -2.79094 -3.32098 0
M  V30 40019 H 3719.71 -2.48956 -4.92671 0
M  V30 40020 H 3722.18 -0.752692 -4.09236 0
M  V30 40021 H 3721.06 -0.552865 -5.46109 0
M  V30 40022 H 3721.32 0.783253 -4.35106 0
M  V30 40023 N 3720.38 1.4286 -0.6655 0
M  V30 40024 C 3721.31 2.335 0.0047874 0
M  V30 40025 C 3722.29 1.50161 0.799109 0
M  V30 40026 O 3723.47 1.78791 0.758129 0
M  V30 40027 C 3720.6 3.33674 0.963288 0
M  V30 40028 C 3719.56 4.27095 0.278219 0
M  V30 40029 C 3718.88 5.17403 1.34902 0
M  V30 40030 C 3720.18 5.1555 -0.837016 0
M  V30 40031 H 3721.88 2.89798 -0.752179 0
M  V30 40032 H 3719.42 1.39345 -0.363163 0
M  V30 40033 H 3721.38 3.95989 1.44121 0
M  V30 40034 H 3720.1 2.75659 1.75156 0
M  V30 40035 H 3718.76 3.66161 -0.179378 0
M  V30 40036 H 3718.41 4.5572 2.12904 0
M  V30 40037 H 3718.11 5.80731 0.895817 0
M  V30 40038 H 3719.63 5.82593 1.82806 0
M  V30 40039 H 3721.05 5.71604 -0.440718 0
M  V30 40040 H 3719.44 5.87662 -1.21544 0
M  V30 40041 H 3720.51 4.54505 -1.68978 0
M  V30 40042 N 3721.86 0.408213 1.52221 0
M  V30 40043 C 3722.8 -0.417727 2.26988 0
M  V30 40044 C 3723.77 -1.04183 1.29364 0
M  V30 40045 O 3724.96 -1.06628 1.58225 0
M  V30 40046 C 3722.1 -1.52895 3.09382 0
M  V30 40047 C 3721.21 -0.925855 4.21962 0
M  V30 40048 C 3720.35 -2.0097 4.91716 0
M  V30 40049 C 3719.38 -1.38349 5.9626 0
M  V30 40050 N 3718.52 -2.40745 6.59535 0
M  V30 40051 H 3723.36 0.22628 2.9714 0
M  V30 40052 H 3720.9 0.123428 1.46581 0
M  V30 40053 H 3722.86 -2.18419 3.55456 0
M  V30 40054 H 3721.49 -2.143 2.41403 0
M  V30 40055 H 3720.54 -0.159698 3.80065 0
M  V30 40056 H 3721.85 -0.428409 4.96957 0
M  V30 40057 H 3721 -2.74222 5.41191 0
M  V30 40058 H 3719.74 -2.5408 4.16287 0
M  V30 40059 H 3718.75 -0.636306 5.46105 0
M  V30 40060 H 3719.97 -0.8601 6.73631 0
M  V30 40061 H 3717.92 -2.92989 5.86936 0
M  V30 40062 H 3717.84 -1.95809 7.30202 0
M  V30 40063 H 3719.1 -3.13569 7.13649 0
M  V30 40064 N 3723.33 -1.56989 0.138607 0
M  V30 40065 C 3724.58 -1.96928 -0.509007 0
M  V30 40066 C 3724.93 -1.02177 -1.63026 0
M  V30 40067 O 3724.23 -0.0552856 -1.9152 0
M  V30 40068 C 3724.42 -3.41019 -1.06963 0
M  V30 40069 C 3724.25 -4.497 -0.00421651 0
M  V30 40070 C 3723.02 -5.0343 0.434337 0
M  V30 40071 C 3725.22 -5.08287 0.78413 0
M  V30 40072 N 3723.2 -5.95707 1.48347 0
M  V30 40073 C 3724.57 -5.96693 1.68396 0
M  V30 40074 C 3726.63 -4.90885 0.832849 0
M  V30 40075 C 3725.33 -6.69561 2.62832 0
M  V30 40076 C 3727.36 -5.64448 1.765 0
M  V30 40077 C 3726.72 -6.52555 2.65237 0
M  V30 40078 H 3722.82 -0.766422 -0.155312 0
M  V30 40079 H 3725.4 -1.93322 0.231267 0
M  V30 40080 H 3723.57 -3.45235 -1.77954 0
M  V30 40081 H 3725.3 -3.68037 -1.68317 0
M  V30 40082 H 3722.06 -4.73585 0.038183 0
M  V30 40083 H 3722.48 -6.4655 2.00754 0
M  V30 40084 H 3727.12 -4.22494 0.160889 0
M  V30 40085 H 3724.84 -7.37186 3.31032 0
M  V30 40086 H 3728.43 -5.52982 1.80839 0
M  V30 40087 H 3727.31 -7.0848 3.36193 0
M  V30 40088 N 3724.81 0.135183 -1.57019 0
M  V30 40089 C 3725.74 1.16807 -2.02184 0
M  V30 40090 C 3726.72 1.44126 -0.903425 0
M  V30 40091 O 3727.91 1.54844 -1.17205 0
M  V30 40092 C 3725.04 2.49834 -2.41247 0
M  V30 40093 C 3723.99 2.37012 -3.56384 0
M  V30 40094 C 3723.32 3.74856 -3.81296 0
M  V30 40095 C 3724.62 1.84424 -4.88657 0
M  V30 40096 H 3726.31 0.792479 -2.88722 0
M  V30 40097 H 3723.86 0.379763 -1.38902 0
M  V30 40098 H 3725.81 3.22328 -2.71446 0
M  V30 40099 H 3724.53 2.89252 -1.51661 0
M  V30 40100 H 3723.19 1.66969 -3.26369 0
M  V30 40101 H 3722.84 4.1173 -2.88941 0
M  V30 40102 H 3722.54 3.67135 -4.58787 0
M  V30 40103 H 3724.07 4.4888 -4.13931 0
M  V30 40104 H 3725.48 2.4672 -5.17496 0
M  V30 40105 H 3723.88 1.87564 -5.70035 0
M  V30 40106 H 3724.95 0.800675 -4.78244 0
M  V30 40107 N 3726.29 1.5231 0.404892 0
M  V30 40108 C 3727.25 1.75328 1.47624 0
M  V30 40109 C 3728.25 0.623179 1.48233 0
M  V30 40110 O 3729.44 0.891096 1.49683 0
M  V30 40111 C 3726.58 1.83952 2.87009 0
M  V30 40112 H 3727.77 2.70973 1.28505 0
M  V30 40113 H 3725.32 1.42791 0.635652 0
M  V30 40114 H 3726.06 0.902364 3.11493 0
M  V30 40115 H 3725.84 2.66113 2.8797 0
M  V30 40116 H 3727.33 2.03488 3.64668 0
M  V30 40117 N 3727.77 -0.662382 1.43004 0
M  V30 40118 C 3729.02 -1.42237 1.44135 0
M  V30 40119 C 3729.34 -1.944 0.0622832 0
M  V30 40120 O 3728.6 -1.72119 -0.931311 0
M  V30 40121 C 3728.9 -2.62714 2.42314 0
M  V30 40122 C 3728.56 -2.29021 3.88407 0
M  V30 40123 C 3727.23 -2.19544 4.28198 0
M  V30 40124 C 3729.58 -2.01893 4.80509 0
M  V30 40125 C 3726.91 -1.81082 5.58056 0
M  V30 40126 C 3729.26 -1.64932 6.10721 0
M  V30 40127 C 3727.92 -1.53974 6.49499 0
M  V30 40128 H 3727.19 -0.520481 0.527428 0
M  V30 40129 H 3729.84 -0.754139 1.76026 0
M  V30 40130 H 3728.14 -3.34626 2.03795 0
M  V30 40131 H 3729.84 -3.20914 2.40448 0
M  V30 40132 H 3726.43 -2.37304 3.5691 0
M  V30 40133 H 3730.61 -2.08141 4.50545 0
M  V30 40134 H 3725.87 -1.71177 5.86948 0
M  V30 40135 H 3730.04 -1.4297 6.81566 0
M  V30 40136 H 3727.67 -1.23941 7.50028 0
M  V30 40137 N 3729.25 -1.29383 -0.899882 0
M  V30 40138 C 3730.49 -1.17112 -1.6471 0
M  V30 40139 C 3730.82 0.277738 -1.93012 0
M  V30 40140 O 3730.09 1.1901 -1.55606 0
M  V30 40141 H 3728.67 -0.430429 -0.610524 0
M  V30 40142 H 3731.33 -1.62306 -1.07902 0
M  V30 40143 H 3730.42 -1.72103 -2.60359 0
M  V30 40144 N 3730.72 1.11022 -1.11856 0
M  V30 40145 C 3731.97 1.82492 -0.868387 0
M  V30 40146 C 3732.29 1.85293 0.607589 0
M  V30 40147 O 3731.56 1.32661 1.44145 0
M  V30 40148 H 3730.14 0.675805 -0.318272 0
M  V30 40149 H 3732.81 1.34363 -1.41182 0
M  V30 40150 H 3731.9 2.86216 -1.24446 0
M  V30 40151 N 3732.2 0.90954 1.28706 0
M  V30 40152 C 3733.11 0.399668 2.31171 0
M  V30 40153 C 3734.13 -0.510552 1.66341 0
M  V30 40154 O 3735.3 -0.397758 1.97433 0
M  V30 40155 C 3732.37 -0.355792 3.4487 0
M  V30 40156 C 3731.43 0.587139 4.25266 0
M  V30 40157 C 3730.66 -0.132362 5.33536 0
M  V30 40158 O 3730.89 -1.35477 5.54078 0
M  V30 40159 O 3729.82 0.530168 5.99561 0
M  V30 40160 H 3733.65 1.25 2.76783 0
M  V30 40161 H 3731.23 0.674209 1.33322 0
M  V30 40162 H 3733.11 -0.782619 4.14069 0
M  V30 40163 H 3731.79 -1.18202 3.01347 0
M  V30 40164 H 3730.7 1.06328 3.58671 0
M  V30 40165 H 3732.03 1.38006 4.72456 0
M  V30 40166 N 3733.68 -1.42505 0.673067 0
M  V30 40167 C 3734.91 -2.0642 0.201385 0
M  V30 40168 C 3735.33 -1.50226 -1.13198 0
M  V30 40169 O 3734.69 -0.620054 -1.70367 0
M  V30 40170 C 3734.74 -3.60308 0.145113 0
M  V30 40171 O 3733.84 -4.02751 -0.886882 0
M  V30 40172 H 3733.18 -0.655807 0.103986 0
M  V30 40173 H 3735.71 -1.82669 0.921591 0
M  V30 40174 H 3735.72 -4.07988 -0.0316075 0
M  V30 40175 H 3734.4 -4.00581 1.11836 0
M  V30 40176 H 3732.97 -3.66623 -0.681343 0
M  V30 40177 N 3735.16 -0.41628 -1.52003 0
M  V30 40178 C 3736.4 0.157398 -2.02188 0
M  V30 40179 C 3736.74 1.4418 -1.30099 0
M  V30 40180 O 3736.01 1.90141 -0.409459 0
M  V30 40181 C 3736.3 0.397784 -3.57896 0
M  V30 40182 C 3736.15 -0.903792 -4.40626 0
M  V30 40183 C 3737.47 1.17681 -4.24074 0
M  V30 40184 H 3734.59 0.0557308 -0.73489 0
M  V30 40185 H 3737.23 -0.55115 -1.81831 0
M  V30 40186 H 3735.38 1.00135 -3.75373 0
M  V30 40187 H 3737.05 -1.53972 -4.34845 0
M  V30 40188 H 3735.29 -1.51317 -4.06553 0
M  V30 40189 H 3735.96 -0.689899 -5.47672 0
M  V30 40190 H 3738.44 0.66576 -4.10739 0
M  V30 40191 H 3737.32 1.31376 -5.32946 0
M  V30 40192 H 3737.58 2.19936 -3.83511 0
M  V30 40193 N 3736.64 1.56914 -0.146931 0
M  V30 40194 C 3737.86 2.0092 0.51439 0
M  V30 40195 C 3738.29 1.02636 1.57631 0
M  V30 40196 O 3737.64 0.00210665 1.813 0
M  V30 40197 C 3737.69 3.43671 1.09191 0
M  V30 40198 O 3736.8 3.48389 2.20678 0
M  V30 40199 H 3736.14 0.651971 0.125816 0
M  V30 40200 H 3738.67 2.03144 -0.243643 0
M  V30 40201 H 3738.68 3.8247 1.4206 0
M  V30 40202 H 3737.35 4.14711 0.314263 0
M  V30 40203 H 3735.93 3.21432 1.89039 0
M  V30 40204 N 3738.11 -0.126854 1.57089 0
M  V30 40205 C 3739.39 -0.865869 1.75391 0
M  V30 40206 C 3739.77 -1.9843 0.720323 0
M  V30 40207 O 3739.12 -2.27048 -0.25716 0
M  V30 40208 C 3739.33 -1.3898 3.20134 0
M  V30 40209 C 3740.68 -1.84525 3.82408 0
M  V30 40210 O 3741.7 -1.48677 3.23688 0
M  V30 40211 O 3740.56 -2.50702 4.85603 0
M  V30 40212 H 3737.65 -0.410617 0.71786 0
M  V30 40213 H 3740.2 -0.111206 1.69335 0
M  V30 40214 H 3738.97 -0.586988 3.86872 0
M  V30 40215 H 3738.6 -2.20739 3.30696 0
M  V30 40216 N 3739.59 -1.52523 -0.396809 0
M  V30 40217 C 3740.54 -1.73126 -1.48362 0
M  V30 40218 C 3741.53 -0.58525 -1.49879 0
M  V30 40219 O 3742.72 -0.842791 -1.55647 0
M  V30 40220 C 3739.85 -1.89649 -2.86161 0
M  V30 40221 C 3738.93 -3.10158 -2.89245 0
M  V30 40222 N 3739.32 -4.32649 -2.62009 0
M  V30 40223 C 3737.62 -3.10244 -3.20413 0
M  V30 40224 C 3738.32 -5.14202 -2.71976 0
M  V30 40225 N 3737.3 -4.49717 -3.05377 0
M  V30 40226 H 3741.1 -2.65464 -1.26119 0
M  V30 40227 H 3738.62 -1.50723 -0.604669 0
M  V30 40228 H 3740.61 -2.02529 -3.64401 0
M  V30 40229 H 3739.27 -0.985189 -3.09393 0
M  V30 40230 H 3740.28 -4.60914 -2.36174 0
M  V30 40231 H 3736.96 -2.28896 -3.4916 0
M  V30 40232 H 3738.35 -6.21823 -2.5453 0
M  V30 40233 N 3741.07 0.654789 -1.43354 0
M  V30 40234 C 3742.32 1.4168 -1.45102 0
M  V30 40235 C 3742.65 1.94057 -0.0744205 0
M  V30 40236 O 3741.93 1.7219 0.904484 0
M  V30 40237 C 3742.21 2.59937 -2.49209 0
M  V30 40238 C 3742.06 2.13062 -3.96137 0
M  V30 40239 C 3743.38 3.62151 -2.5007 0
M  V30 40240 H 3740.5 0.513826 -0.528348 0
M  V30 40241 H 3743.14 0.742458 -1.74893 0
M  V30 40242 H 3741.29 3.17466 -2.23936 0
M  V30 40243 H 3742.96 1.60545 -4.32462 0
M  V30 40244 H 3741.21 1.44448 -4.09044 0
M  V30 40245 H 3741.88 2.98093 -4.64591 0
M  V30 40246 H 3744.35 3.14377 -2.72592 0
M  V30 40247 H 3743.23 4.42447 -3.24857 0
M  V30 40248 H 3743.49 4.14636 -1.53392 0
M  V30 40249 N 3742.55 1.29858 0.893007 0
M  V30 40250 C 3743.5 1.15558 1.99788 0
M  V30 40251 C 3744.47 0.0471449 1.66033 0
M  V30 40252 O 3745.65 0.21588 1.89575 0
M  V30 40253 C 3742.79 0.845052 3.34594 0
M  V30 40254 C 3741.9 2.03458 3.81089 0
M  V30 40255 C 3741.04 1.66284 5.04503 0
M  V30 40256 C 3740.08 2.81779 5.43385 0
M  V30 40257 N 3739.22 2.44956 6.57982 0
M  V30 40258 H 3744.06 2.10082 2.11351 0
M  V30 40259 H 3741.59 1.04533 1.03495 0
M  V30 40260 H 3743.55 0.64567 4.12173 0
M  V30 40261 H 3742.18 -0.0633058 3.22738 0
M  V30 40262 H 3741.23 2.34546 2.99487 0
M  V30 40263 H 3742.54 2.89978 4.0585 0
M  V30 40264 H 3741.7 1.42674 5.89686 0
M  V30 40265 H 3740.44 0.769229 4.81595 0
M  V30 40266 H 3739.44 3.06064 4.56733 0
M  V30 40267 H 3740.67 3.71815 5.6827 0
M  V30 40268 H 3738.61 1.5809 6.36666 0
M  V30 40269 H 3738.53 3.25008 6.82573 0
M  V30 40270 H 3739.8 2.24682 7.46417 0
M  V30 40271 N 3744.03 -1.10427 1.12443 0
M  V30 40272 C 3744.96 -2.16576 0.750169 0
M  V30 40273 C 3745.97 -1.61262 -0.223236 0
M  V30 40274 O 3747.16 -1.78499 -0.00456317 0
M  V30 40275 C 3744.26 -3.38782 0.0896069 0
M  V30 40276 C 3743.43 -4.23537 1.0925 0
M  V30 40277 C 3742.49 -5.2419 0.459542 0
M  V30 40278 O 3741.52 -5.58141 1.11656 0
M  V30 40279 N 3742.72 -5.7533 -0.772992 0
M  V30 40280 H 3745.49 -2.49292 1.66354 0
M  V30 40281 H 3743.05 -1.26047 1.01606 0
M  V30 40282 H 3745.04 -4.0322 -0.345824 0
M  V30 40283 H 3743.61 -3.0404 -0.726519 0
M  V30 40284 H 3742.83 -3.55393 1.70555 0
M  V30 40285 H 3744.12 -4.76996 1.77066 0
M  V30 40286 H 3743.52 -5.49946 -1.32575 0
M  V30 40287 H 3742.07 -6.41553 -1.15124 0
M  V30 40288 N 3745.51 -0.916353 -1.28221 0
M  V30 40289 C 3746.47 -0.411463 -2.25476 0
M  V30 40290 C 3747.47 0.463662 -1.5397 0
M  V30 40291 O 3748.66 0.266348 -1.72152 0
M  V30 40292 C 3745.79 0.409791 -3.38428 0
M  V30 40293 H 3746.98 -1.2706 -2.71654 0
M  V30 40294 H 3744.54 -0.695991 -1.39949 0
M  V30 40295 H 3745.27 1.28823 -2.97616 0
M  V30 40296 H 3745.06 -0.217504 -3.91496 0
M  V30 40297 H 3746.55 0.75379 -4.10741 0
M  V30 40298 N 3746.98 1.42146 -0.680615 0
M  V30 40299 C 3747.95 2.29195 -0.0150268 0
M  V30 40300 C 3748.95 1.43622 0.723138 0
M  V30 40301 O 3750.14 1.64944 0.560268 0
M  V30 40302 C 3747.27 3.26229 0.989318 0
M  V30 40303 H 3748.46 2.89544 -0.781286 0
M  V30 40304 H 3746.01 1.49882 -0.443282 0
M  V30 40305 H 3746.75 2.7083 1.78387 0
M  V30 40306 H 3746.53 3.89353 0.463333 0
M  V30 40307 H 3748.02 3.91497 1.45327 0
M  V30 40308 N 3748.46 0.424336 1.5178 0
M  V30 40309 C 3749.71 -0.146674 2.02269 0
M  V30 40310 C 3750.04 -1.43488 1.30862 0
M  V30 40311 O 3749.32 -1.89921 0.419537 0
M  V30 40312 C 3749.6 -0.378798 3.58102 0
M  V30 40313 C 3749.45 0.927147 4.40141 0
M  V30 40314 C 3750.77 -1.15431 4.24693 0
M  V30 40315 H 3747.89 -0.0518327 0.735175 0
M  V30 40316 H 3750.53 0.560785 1.81536 0
M  V30 40317 H 3748.68 -0.98143 3.75899 0
M  V30 40318 H 3750.35 1.56276 4.34022 0
M  V30 40319 H 3748.6 1.53471 4.05745 0
M  V30 40320 H 3749.27 0.718933 5.47298 0
M  V30 40321 H 3751.74 -0.643968 4.11087 0
M  V30 40322 H 3750.62 -1.28548 5.33635 0
M  V30 40323 H 3750.88 -2.17899 3.84672 0
M  V30 40324 N 3749.94 -1.56833 0.15525 0
M  V30 40325 C 3751.22 -1.88019 -0.539294 0
M  V30 40326 C 3751.6 -1.06256 -1.82408 0
M  V30 40327 O 3750.94 -0.151761 -2.27995 0
M  V30 40328 C 3751.15 -3.39783 -0.796767 0
M  V30 40329 C 3752.5 -4.0918 -1.1339 0
M  V30 40330 O 3753.53 -3.45009 -0.885846 0
M  V30 40331 O 3752.39 -5.22521 -1.60108 0
M  V30 40332 H 3749.48 -0.779567 -0.276052 0
M  V30 40333 H 3752.03 -1.68605 0.192481 0
M  V30 40334 H 3750.8 -3.91139 0.112166 0
M  V30 40335 H 3750.42 -3.64753 -1.58243 0
M  V30 40336 N 3751.42 0.118521 -1.57154 0
M  V30 40337 C 3752.35 1.14656 -2.03411 0
M  V30 40338 C 3753.33 1.43159 -0.918661 0
M  V30 40339 O 3754.51 1.53592 -1.1884 0
M  V30 40340 C 3751.64 2.47261 -2.43884 0
M  V30 40341 C 3750.6 2.33219 -3.58877 0
M  V30 40342 C 3749.92 3.70791 -3.85251 0
M  V30 40343 C 3751.22 1.7923 -4.90585 0
M  V30 40344 H 3752.92 0.761811 -2.89546 0
M  V30 40345 H 3750.46 0.365009 -1.39297 0
M  V30 40346 H 3752.42 3.1943 -2.74849 0
M  V30 40347 H 3751.14 2.87627 -1.5472 0
M  V30 40348 H 3749.8 1.63498 -3.28122 0
M  V30 40349 H 3749.45 4.08643 -2.93292 0
M  V30 40350 H 3749.15 3.62249 -4.62655 0
M  V30 40351 H 3750.67 4.44464 -4.18669 0
M  V30 40352 H 3752.09 2.41217 -5.20084 0
M  V30 40353 H 3750.48 1.81508 -5.71992 0
M  V30 40354 H 3751.55 0.749905 -4.79066 0
M  V30 40355 N 3752.9 1.52731 0.388715 0
M  V30 40356 C 3754.14 1.68037 1.1354 0
M  V30 40357 C 3754.47 0.41921 1.89621 0
M  V30 40358 O 3753.75 -0.582998 1.85557 0
M  V30 40359 C 3754.03 2.9156 2.11341 0
M  V30 40360 C 3753.89 4.27777 1.39021 0
M  V30 40361 C 3755.2 3.10631 3.11764 0
M  V30 40362 H 3752.32 0.611492 0.411396 0
M  V30 40363 H 3754.97 1.85328 0.418749 0
M  V30 40364 H 3753.12 2.76949 2.72455 0
M  V30 40365 H 3754.79 4.54156 0.808695 0
M  V30 40366 H 3753.03 4.28244 0.692058 0
M  V30 40367 H 3753.7 5.10294 2.10486 0
M  V30 40368 H 3756.18 3.24275 2.6074 0
M  V30 40369 H 3755.05 3.98536 3.7744 0
M  V30 40370 H 3755.31 2.2486 3.80645 0
M  V30 40371 N 3754.37 -0.647178 1.43699 0
M  V30 40372 C 3755.62 -1.40908 1.45852 0
M  V30 40373 C 3755.95 -1.94015 0.0847108 0
M  V30 40374 O 3755.23 -1.72667 -0.89534 0
M  V30 40375 C 3755.51 -2.58611 2.50584 0
M  V30 40376 C 3755.36 -2.10958 3.97262 0
M  V30 40377 C 3756.68 -3.60819 2.51987 0
M  V30 40378 H 3753.8 -0.511017 0.531065 0
M  V30 40379 H 3756.44 -0.733173 1.75284 0
M  V30 40380 H 3754.59 -3.16274 2.25616 0
M  V30 40381 H 3756.27 -1.58249 4.33307 0
M  V30 40382 H 3754.51 -1.42277 4.09805 0
M  V30 40383 H 3755.18 -2.95625 4.66165 0
M  V30 40384 H 3757.66 -3.12927 2.74256 0
M  V30 40385 H 3756.53 -4.40718 3.27199 0
M  V30 40386 H 3756.79 -4.13817 1.55589 0
M  V30 40387 N 3755.85 -1.3033 -0.886108 0
M  V30 40388 C 3757.08 -1.21833 -1.66854 0
M  V30 40389 C 3757.49 0.221441 -1.879 0
M  V30 40390 O 3756.83 1.15839 -1.42573 0
M  V30 40391 C 3756.9 -1.87505 -3.06728 0
M  V30 40392 C 3756.56 -3.3683 -3.0886 0
M  V30 40393 C 3757.56 -4.32841 -2.88001 0
M  V30 40394 C 3755.24 -3.78259 -3.30493 0
M  V30 40395 C 3757.24 -5.68255 -2.8873 0
M  V30 40396 C 3754.92 -5.1379 -3.30852 0
M  V30 40397 C 3755.92 -6.08599 -3.09995 0
M  V30 40398 O 3755.61 -7.41654 -3.10168 0
M  V30 40399 H 3755.34 -0.422795 -0.527466 0
M  V30 40400 H 3757.89 -1.7247 -1.11549 0
M  V30 40401 H 3756.12 -1.31396 -3.63692 0
M  V30 40402 H 3757.81 -1.73142 -3.67119 0
M  V30 40403 H 3758.58 -4.02166 -2.71085 0
M  V30 40404 H 3754.46 -3.04908 -3.45763 0
M  V30 40405 H 3758 -6.42231 -2.72369 0
M  V30 40406 H 3753.9 -5.44106 -3.47302 0
M  V30 40407 H 3754.67 -7.50629 -3.26341 0
M  V30 40408 N 3757.33 1.0983 -1.13028 0
M  V30 40409 C 3758.56 1.85422 -0.91117 0
M  V30 40410 C 3758.97 1.81232 0.543293 0
M  V30 40411 O 3758.31 1.20374 1.38766 0
M  V30 40412 C 3758.37 3.34551 -1.3159 0
M  V30 40413 C 3758.04 3.62493 -2.78294 0
M  V30 40414 C 3759.03 3.58566 -3.76466 0
M  V30 40415 C 3756.72 3.9097 -3.15353 0
M  V30 40416 C 3758.71 3.8272 -5.0971 0
M  V30 40417 C 3756.4 4.1478 -4.48777 0
M  V30 40418 C 3757.4 4.10646 -5.45765 0
M  V30 40419 O 3757.09 4.33844 -6.76783 0
M  V30 40420 H 3756.82 0.592679 -0.325127 0
M  V30 40421 H 3759.37 1.39715 -1.50562 0
M  V30 40422 H 3757.6 3.80944 -0.664695 0
M  V30 40423 H 3759.29 3.91545 -1.06993 0
M  V30 40424 H 3760.06 3.36597 -3.49181 0
M  V30 40425 H 3755.94 3.93315 -2.40466 0
M  V30 40426 H 3759.48 3.79408 -5.85402 0
M  V30 40427 H 3755.38 4.36229 -4.75788 0
M  V30 40428 H 3756.15 4.51326 -6.82823 0
M  V30 40429 N 3758.81 0.92314 1.27734 0
M  V30 40430 C 3760.05 0.562015 1.94857 0
M  V30 40431 C 3760.39 -0.893668 1.72416 0
M  V30 40432 O 3759.66 -1.63687 1.05057 0
M  V30 40433 C 3759.95 0.883235 3.491 0
M  V30 40434 C 3759.8 2.39234 3.80903 0
M  V30 40435 C 3761.12 0.385926 4.38405 0
M  V30 40436 H 3758.24 0.205659 0.707724 0
M  V30 40437 H 3760.88 1.15409 1.50933 0
M  V30 40438 H 3759.03 0.37936 3.86643 0
M  V30 40439 H 3760.7 2.96755 3.53177 0
M  V30 40440 H 3758.94 2.84342 3.27615 0
M  V30 40441 H 3759.61 2.56762 4.88648 0
M  V30 40442 H 3762.09 0.817702 4.07986 0
M  V30 40443 H 3760.97 0.639676 5.4516 0
M  V30 40444 H 3761.23 -0.713932 4.36297 0
M  V30 40445 N 3760.29 -1.41783 0.688143 0
M  V30 40446 C 3761.22 -2.28177 -0.0322675 0
M  V30 40447 C 3762.2 -1.41818 -0.795394 0
M  V30 40448 O 3763.38 -1.7125 -0.787755 0
M  V30 40449 C 3760.51 -3.21915 -1.05302 0
M  V30 40450 C 3759.55 -4.24768 -0.383929 0
M  V30 40451 S 3760.39 -5.28414 0.868263 0
M  V30 40452 C 3761.54 -6.25718 -0.151081 0
M  V30 40453 H 3761.78 -2.88929 0.700507 0
M  V30 40454 H 3759.31 -1.4681 0.47815 0
M  V30 40455 H 3761.27 -3.76455 -1.63682 0
M  V30 40456 H 3759.93 -2.60273 -1.75832 0
M  V30 40457 H 3759.12 -4.90597 -1.1546 0
M  V30 40458 H 3758.72 -3.73786 0.12661 0
M  V30 40459 H 3761.02 -6.69979 -1.00669 0
M  V30 40460 H 3761.96 -7.06518 0.47308 0
M  V30 40461 H 3762.37 -5.62259 -0.502532 0
M  V30 40462 N 3761.76 -0.432379 -1.51553 0
M  V30 40463 C 3762.71 0.396003 -2.29204 0
M  V30 40464 C 3763.71 1.0253 -1.34848 0
M  V30 40465 O 3764.91 0.960834 -1.5221 0
M  V30 40466 H 3761.29 0.146512 -0.737589 0
M  V30 40467 H 3763.26 -0.279833 -2.97085 0
M  V30 40468 C 3762.01 1.48754 -3.14273 0
M  V30 40469 H 3761.33 1.01267 -3.86762 0
M  V30 40470 H 3762.77 2.04051 -3.71671 0
M  V30 40471 C 3761.23 2.46802 -2.29326 0
M  V30 40472 O 3761.76 3.51224 -1.94947 0
M  V30 40473 N 3759.97 2.17569 -1.92645 0
M  V30 40474 H 3759.51 1.32681 -2.20802 0
M  V30 40475 H 3759.47 2.83413 -1.36105 0
M  V30 40476 N 3763.24 1.56749 -0.163565 0
M  V30 40477 C 3764.19 2.17586 0.769749 0
M  V30 40478 C 3765.16 1.11356 1.23244 0
M  V30 40479 O 3766.34 1.39472 1.302 0
M  V30 40480 C 3763.48 2.81464 1.9968 0
M  V30 40481 C 3762.6 4.02133 1.57839 0
M  V30 40482 C 3761.73 4.5396 2.7585 0
M  V30 40483 C 3760.77 5.67057 2.30463 0
M  V30 40484 N 3759.91 6.13429 3.4154 0
M  V30 40485 H 3764.75 2.96998 0.244169 0
M  V30 40486 H 3762.29 1.46697 0.108795 0
M  V30 40487 H 3764.24 3.16653 2.71637 0
M  V30 40488 H 3762.87 2.04669 2.49621 0
M  V30 40489 H 3761.93 3.72815 0.755842 0
M  V30 40490 H 3763.24 4.84022 1.20517 0
M  V30 40491 H 3762.39 4.9129 3.55975 0
M  V30 40492 H 3761.13 3.71113 3.16428 0
M  V30 40493 H 3760.14 5.29286 1.48782 0
M  V30 40494 H 3761.36 6.51701 1.90952 0
M  V30 40495 H 3759.31 5.33512 3.81708 0
M  V30 40496 H 3759.22 6.90287 3.08286 0
M  V30 40497 H 3760.49 6.55407 4.21973 0
M  V30 40498 N 3764.72 -0.110185 1.57214 0
M  V30 40499 C 3766.13 -0.666375 1.74403 0
M  V30 40500 C 3766.48 -1.79875 0.783555 0
M  V30 40501 O 3765.61 -2.1636 -0.0414925 0
M  V30 40502 C 3766.2 -1.21558 3.16242 0
M  V30 40503 C 3764.76 -1.71798 3.34907 0
M  V30 40504 C 3763.91 -0.6213 2.7025 0
M  V30 40505 H 3766.86 0.115793 1.58277 0
M  V30 40506 H 3766.88 -2.08514 3.1828 0
M  V30 40507 H 3766.39 -0.391205 3.86123 0
M  V30 40508 H 3764.49 -2.56684 2.70081 0
M  V30 40509 H 3764.61 -1.82136 4.43129 0
M  V30 40510 H 3762.97 -1.05707 2.31728 0
M  V30 40511 H 3763.75 0.192245 3.42761 0
M  V30 40512 N 3766.2 -1.52935 -0.38061 0
M  V30 40513 C 3767.42 -1.72577 -1.1503 0
M  V30 40514 C 3767.85 -0.446901 -1.82714 0
M  V30 40515 O 3767.21 0.597974 -1.71155 0
M  V30 40516 C 3767.25 -2.88174 -2.16768 0
M  V30 40517 O 3766.36 -2.55733 -3.23534 0
M  V30 40518 H 3765.7 -0.573602 -0.334479 0
M  V30 40519 H 3768.23 -1.99761 -0.442334 0
M  V30 40520 H 3768.24 -3.1391 -2.60623 0
M  V30 40521 H 3766.91 -3.80946 -1.66893 0
M  V30 40522 H 3765.49 -2.40765 -2.84757 0
M  V30 40523 N 3767.68 0.639548 -1.4404 0
M  V30 40524 C 3768.92 1.39926 -1.4638 0
M  V30 40525 C 3769.25 1.94277 -0.0932027 0
M  V30 40526 O 3768.51 1.73579 0.90381 0
M  V30 40527 C 3768.81 2.58825 -2.46463 0
M  V30 40528 C 3768.47 2.22813 -3.92001 0
M  V30 40529 C 3767.13 2.12704 -4.31637 0
M  V30 40530 C 3769.49 1.94223 -4.8366 0
M  V30 40531 C 3766.81 1.72181 -5.60866 0
M  V30 40532 C 3769.17 1.55195 -6.13268 0
M  V30 40533 C 3767.83 1.43621 -6.51866 0
M  V30 40534 H 3767.1 0.512024 -0.535642 0
M  V30 40535 H 3769.75 0.726039 -1.77203 0
M  V30 40536 H 3768.05 3.31342 -2.09093 0
M  V30 40537 H 3769.75 3.17048 -2.45523 0
M  V30 40538 H 3766.34 2.31596 -3.6064 0
M  V30 40539 H 3770.52 2.00947 -4.53799 0
M  V30 40540 H 3765.78 1.61818 -5.89597 0
M  V30 40541 H 3769.95 1.32109 -6.83755 0
M  V30 40542 H 3767.58 1.11993 -7.51905 0
M  V30 40543 N 3769.15 1.30798 0.879184 0
M  V30 40544 C 3770.57 1.17975 1.44703 0
M  V30 40545 C 3770.92 -0.217347 1.94992 0
M  V30 40546 O 3770.04 -1.11446 1.85496 0
M  V30 40547 C 3770.64 2.1356 2.63016 0
M  V30 40548 C 3769.2 2.04697 3.15873 0
M  V30 40549 C 3768.34 2.03312 1.88572 0
M  V30 40550 H 3771.29 1.42984 0.688579 0
M  V30 40551 H 3771.31 1.71982 3.39415 0
M  V30 40552 H 3770.83 3.15233 2.26384 0
M  V30 40553 H 3768.93 1.06186 3.57149 0
M  V30 40554 H 3769.04 2.93363 3.78781 0
M  V30 40555 H 3767.4 1.48196 2.07148 0
M  V30 40556 H 3768.19 3.06725 1.5419 0
M  V30 40557 N 3770.63 -1.09229 1.13608 0
M  V30 40558 C 3771.88 -1.81088 0.89731 0
M  V30 40559 C 3772.2 -1.86236 -0.578034 0
M  V30 40560 O 3771.47 -1.34938 -1.42016 0
M  V30 40561 H 3770.05 -0.670656 0.328983 0
M  V30 40562 H 3772.71 -1.321 1.43302 0
M  V30 40563 H 3771.81 -2.842 1.28984 0
M  V30 40564 N 3772.11 -0.929901 -1.27242 0
M  V30 40565 C 3773.39 -0.489807 -1.89368 0
M  V30 40566 C 3773.77 1.03219 -1.84144 0
M  V30 40567 O 3773.12 1.88731 -1.28814 0
M  V30 40568 C 3773.33 -1.03839 -3.33194 0
M  V30 40569 C 3774.67 -1.10021 -4.10098 0
M  V30 40570 O 3775.7 -0.988166 -3.42219 0
M  V30 40571 O 3774.56 -1.27305 -5.31466 0
M  V30 40572 H 3771.65 -0.157897 -0.811787 0
M  V30 40573 H 3774.2 -1.02173 -1.35494 0
M  V30 40574 H 3772.97 -2.0822 -3.31301 0
M  V30 40575 H 3772.59 -0.488236 -3.94591 0
M  V30 40576 N 3773.59 1.41416 -0.695653 0
M  V30 40577 C 3774.81 2.06073 -0.234199 0
M  V30 40578 C 3775.24 1.52008 1.10793 0
M  V30 40579 O 3774.6 0.64708 1.69359 0
M  V30 40580 C 3774.65 3.60031 -0.202417 0
M  V30 40581 O 3773.75 4.04111 0.822696 0
M  V30 40582 H 3773.09 0.65407 -0.114406 0
M  V30 40583 H 3775.62 1.81179 -0.950535 0
M  V30 40584 H 3775.63 4.07986 -0.0333038 0
M  V30 40585 H 3774.31 3.98751 -1.18195 0
M  V30 40586 H 3772.88 3.6766 0.622931 0
M  V30 40587 N 3775.07 0.44041 1.51321 0
M  V30 40588 C 3775.98 -0.375569 2.31574 0
M  V30 40589 C 3776.99 -1.0248 1.40619 0
M  V30 40590 O 3778.17 -1.0195 1.7369 0
M  V30 40591 C 3775.23 -1.46034 3.14444 0
M  V30 40592 C 3774.3 -0.830917 4.21182 0
M  V30 40593 C 3773.53 -1.864 5.00091 0
M  V30 40594 O 3773.75 -3.08661 4.79671 0
M  V30 40595 O 3772.69 -1.45283 5.84103 0
M  V30 40596 H 3776.51 0.279673 3.0241 0
M  V30 40597 H 3774.1 0.202883 1.48016 0
M  V30 40598 H 3775.98 -2.08939 3.65954 0
M  V30 40599 H 3774.65 -2.09961 2.4637 0
M  V30 40600 H 3773.56 -0.163732 3.73742 0
M  V30 40601 H 3774.89 -0.235088 4.91638 0
M  V30 40602 N 3776.55 -1.5666 0.171876 0
M  V30 40603 C 3777.77 -2.01274 -0.479185 0
M  V30 40604 C 3778.19 -1.05209 -1.56769 0
M  V30 40605 O 3777.55 -0.0530485 -1.82423 0
M  V30 40606 C 3777.6 -3.45702 -1.05699 0
M  V30 40607 O 3777.32 -4.38098 -0.0119363 0
M  V30 40608 C 3778.82 -4.0572 -1.78622 0
M  V30 40609 H 3776.04 -0.659707 -0.122587 0
M  V30 40610 H 3778.58 -2.02659 0.273769 0
M  V30 40611 H 3776.74 -3.4509 -1.76044 0
M  V30 40612 H 3777.15 -5.22663 -0.438622 0
M  V30 40613 H 3778.63 -5.08699 -2.1431 0
M  V30 40614 H 3779.1 -3.47845 -2.68143 0
M  V30 40615 H 3779.71 -4.10036 -1.12918 0
M  V30 40616 N 3778.02 0.101846 -1.57271 0
M  V30 40617 C 3778.96 1.15011 -1.98255 0
M  V30 40618 C 3779.97 1.36698 -0.884172 0
M  V30 40619 O 3781.16 1.35469 -1.16234 0
M  V30 40620 C 3778.26 2.50694 -2.28047 0
M  V30 40621 C 3777.43 2.49376 -3.59347 0
M  V30 40622 C 3776.49 3.66936 -3.77153 0
M  V30 40623 O 3775.52 3.49736 -4.49081 0
M  V30 40624 N 3776.72 4.86161 -3.17218 0
M  V30 40625 H 3779.48 0.801324 -2.88789 0
M  V30 40626 H 3777.04 0.290913 -1.59265 0
M  V30 40627 H 3779.04 3.27929 -2.37159 0
M  V30 40628 H 3777.61 2.77688 -1.43555 0
M  V30 40629 H 3776.83 1.57735 -3.61266 0
M  V30 40630 H 3778.11 2.45568 -4.45616 0
M  V30 40631 H 3777.51 5.0304 -2.58781 0
M  V30 40632 H 3776.07 5.61013 -3.31825 0
M  V30 40633 N 3779.5 1.53135 0.372494 0
M  V30 40634 C 3780.43 1.75359 1.47587 0
M  V30 40635 C 3781.45 0.63425 1.49937 0
M  V30 40636 O 3782.64 0.910349 1.53541 0
M  V30 40637 C 3779.74 1.81219 2.86379 0
M  V30 40638 C 3778.91 3.10765 3.07805 0
M  V30 40639 C 3777.97 3.07957 4.26672 0
M  V30 40640 O 3776.99 3.81776 4.2218 0
M  V30 40641 N 3778.2 2.28293 5.33725 0
M  V30 40642 H 3780.96 2.70562 1.28903 0
M  V30 40643 H 3778.52 1.51827 0.56216 0
M  V30 40644 H 3780.51 1.76826 3.64026 0
M  V30 40645 H 3779.08 0.933301 2.98342 0
M  V30 40646 H 3778.3 3.28516 2.17878 0
M  V30 40647 H 3779.59 3.96392 3.18984 0
M  V30 40648 H 3778.99 1.67816 5.40235 0
M  V30 40649 H 3777.55 2.29725 6.09975 0
M  V30 40650 N 3780.98 -0.6319 1.44377 0
M  V30 40651 C 3781.89 -1.77262 1.53673 0
M  V30 40652 C 3782.91 -1.68794 0.422454 0
M  V30 40653 O 3784.08 -1.89584 0.679689 0
M  V30 40654 C 3781.15 -3.13642 1.47749 0
M  V30 40655 C 3780.21 -3.33747 2.70021 0
M  V30 40656 C 3779.44 -4.63621 2.6437 0
M  V30 40657 O 3779.66 -5.44375 1.7033 0
M  V30 40658 O 3778.6 -4.85911 3.55209 0
M  V30 40659 H 3782.42 -1.72372 2.50043 0
M  V30 40660 H 3780.01 -0.79303 1.26615 0
M  V30 40661 H 3781.89 -3.94942 1.46965 0
M  V30 40662 H 3780.57 -3.19075 0.545221 0
M  V30 40663 H 3779.47 -2.52128 2.76373 0
M  V30 40664 H 3780.81 -3.33175 3.62292 0
M  V30 40665 N 3782.46 -1.31262 -0.872235 0
M  V30 40666 C 3783.71 -1.20579 -1.62188 0
M  V30 40667 C 3784.03 0.236735 -1.93558 0
M  V30 40668 O 3783.3 1.15683 -1.58096 0
M  V30 40669 H 3781.88 -0.443282 -0.601257 0
M  V30 40670 H 3784.54 -1.64558 -1.04435 0
M  V30 40671 H 3783.63 -1.77587 -2.5665 0
M  V30 40672 N 3783.94 1.08625 -1.14186 0
M  V30 40673 C 3785.35 1.33029 -0.88178 0
M  V30 40674 C 3785.55 1.95742 0.478279 0
M  V30 40675 O 3784.61 2.20903 1.22304 0
M  V30 40676 C 3785.92 2.234 -2.01278 0
M  V30 40677 C 3787.47 2.36886 -2.04582 0
M  V30 40678 C 3787.94 3.30598 -3.16968 0
M  V30 40679 N 3789.43 3.38174 -3.16532 0
M  V30 40680 C 3790.17 4.10709 -4.00132 0
M  V30 40681 N 3789.67 4.85971 -4.93765 0
M  V30 40682 N 3791.46 4.06518 -3.88201 0
M  V30 40683 H 3783.61 0.662982 -2.01788 0
M  V30 40684 H 3785.87 0.354662 -0.879158 0
M  V30 40685 H 3785.58 1.84561 -2.99383 0
M  V30 40686 H 3785.45 3.23847 -1.93399 0
M  V30 40687 H 3787.84 2.74985 -1.07085 0
M  V30 40688 H 3787.92 1.3619 -2.16532 0
M  V30 40689 H 3787.56 2.93221 -4.14709 0
M  V30 40690 H 3787.49 4.31218 -3.02256 0
M  V30 40691 H 3789.99 2.84517 -2.48713 0
M  V30 40692 H 3790.3 5.38773 -5.54025 0
M  V30 40693 H 3788.64 4.85031 -4.97765 0
M  V30 40694 H 3791.83 3.46826 -3.14372 0
M  V30 40695 H 3792.01 4.62785 -4.5358 0
M  V30 40696 N 3785.41 0.936635 1.26747 0
M  V30 40697 C 3786.83 0.638243 1.46283 0
M  V30 40698 C 3787.03 -0.809827 1.8451 0
M  V30 40699 O 3786.09 -1.5869 1.96402 0
M  V30 40700 C 3787.4 1.59577 2.54864 0
M  V30 40701 C 3788.95 1.60497 2.68718 0
M  V30 40702 C 3789.42 2.54969 3.80466 0
M  V30 40703 N 3790.91 2.53228 3.87853 0
M  V30 40704 C 3791.65 3.23013 4.73762 0
M  V30 40705 N 3791.14 4.02208 5.64093 0
M  V30 40706 N 3792.94 3.11987 4.67568 0
M  V30 40707 H 3785.09 1.87269 1.00221 0
M  V30 40708 H 3787.35 0.804511 0.501464 0
M  V30 40709 H 3787.06 2.62924 2.3359 0
M  V30 40710 H 3786.93 1.34433 3.52431 0
M  V30 40711 H 3789.32 0.57878 2.89369 0
M  V30 40712 H 3789.4 1.89694 1.7161 0
M  V30 40713 H 3789.04 3.57704 3.60569 0
M  V30 40714 H 3788.97 2.23065 4.77022 0
M  V30 40715 H 3791.46 1.95719 3.23268 0
M  V30 40716 H 3791.78 4.5242 6.26527 0
M  V30 40717 H 3790.12 4.0631 5.63859 0
M  V30 40718 H 3793.31 2.49603 3.96 0
M  V30 40719 H 3793.49 3.66642 5.34301 0
M  V30 40720 N 3786.89 -1.41045 0.703143 0
M  V30 40721 C 3788.14 -2.01105 0.237322 0
M  V30 40722 C 3788.47 -1.55713 -1.16549 0
M  V30 40723 O 3787.72 -0.762565 -1.80232 0
M  V30 40724 C 3788.02 -3.56513 0.251637 0
M  V30 40725 C 3787.69 -4.21443 1.60302 0
M  V30 40726 C 3786.35 -4.38893 1.97297 0
M  V30 40727 C 3788.7 -4.57779 2.49175 0
M  V30 40728 C 3786.03 -4.89958 3.22735 0
M  V30 40729 C 3788.38 -5.10238 3.73952 0
M  V30 40730 C 3787.05 -5.25898 4.11081 0
M  V30 40731 H 3786.32 -0.735894 0.0868423 0
M  V30 40732 H 3788.96 -1.68834 0.903725 0
M  V30 40733 H 3787.27 -3.88618 -0.498325 0
M  V30 40734 H 3788.96 -4.00801 -0.12643 0
M  V30 40735 H 3785.55 -4.0824 1.3053 0
M  V30 40736 H 3789.74 -4.43945 2.21872 0
M  V30 40737 H 3784.99 -5.00268 3.51486 0
M  V30 40738 H 3789.17 -5.37332 4.42998 0
M  V30 40739 H 3786.8 -5.6523 5.0835 0
M  V30 40740 N 3788.37 -0.448429 -1.51086 0
M  V30 40741 C 3789.62 0.114476 -2.02477 0
M  V30 40742 C 3789.95 1.41388 -1.33128 0
M  V30 40743 O 3789.22 1.8923 -0.449699 0
M  V30 40744 C 3789.51 0.321779 -3.58659 0
M  V30 40745 C 3789.36 -0.997053 -4.3861 0
M  V30 40746 C 3790.68 1.0866 -4.26475 0
M  V30 40747 H 3787.8 0.0401301 -0.735907 0
M  V30 40748 H 3790.44 -0.589595 -1.80621 0
M  V30 40749 H 3788.59 0.921503 -3.77413 0
M  V30 40750 H 3790.26 -1.63161 -4.31481 0
M  V30 40751 H 3788.51 -1.59907 -4.03252 0
M  V30 40752 H 3789.18 -0.805913 -5.46085 0
M  V30 40753 H 3791.65 0.578486 -4.12059 0
M  V30 40754 H 3790.53 1.20042 -5.35613 0
M  V30 40755 H 3790.79 2.11751 -3.8809 0
M  V30 40756 N 3789.85 1.56567 -0.180181 0
M  V30 40757 C 3790.81 2.17171 0.732771 0
M  V30 40758 C 3791.81 1.12212 1.15174 0
M  V30 40759 O 3793 1.37678 1.06725 0
M  V30 40760 C 3790.13 2.76174 1.99852 0
M  V30 40761 H 3791.33 2.99198 0.205035 0
M  V30 40762 H 3788.88 1.56146 0.0694076 0
M  V30 40763 H 3789.61 1.97904 2.56914 0
M  V30 40764 H 3789.4 3.52993 1.70699 0
M  V30 40765 H 3790.89 3.22757 2.64987 0
M  V30 40766 N 3791.33 -0.0935042 1.57322 0
M  V30 40767 C 3792.55 -0.814077 1.90755 0
M  V30 40768 C 3792.98 -1.7141 0.774601 0
M  V30 40769 O 3792.33 -1.79221 -0.273743 0
M  V30 40770 C 3792.38 -1.60206 3.23058 0
M  V30 40771 O 3791.49 -2.71112 3.1076 0
M  V30 40772 H 3790.83 -0.223541 0.62524 0
M  V30 40773 H 3793.36 -0.068252 2.04486 0
M  V30 40774 H 3793.37 -1.98594 3.56405 0
M  V30 40775 H 3792.04 -0.941536 4.05102 0
M  V30 40776 H 3790.62 -2.3574 2.88931 0
M  V30 40777 N 3792.8 -1.5333 -0.364368 0
M  V30 40778 C 3793.73 -1.82832 -1.4524 0
M  V30 40779 C 3794.72 -0.681913 -1.55833 0
M  V30 40780 O 3795.9 -0.931875 -1.70381 0
M  V30 40781 C 3793.03 -2.01931 -2.82562 0
M  V30 40782 C 3791.98 -3.17702 -2.86792 0
M  V30 40783 C 3791.31 -3.22096 -4.268 0
M  V30 40784 C 3792.61 -4.56265 -2.54204 0
M  V30 40785 H 3794.3 -2.73949 -1.208 0
M  V30 40786 H 3791.85 -1.31817 -0.579682 0
M  V30 40787 H 3793.8 -2.21153 -3.58705 0
M  V30 40788 H 3792.53 -1.07526 -3.08392 0
M  V30 40789 H 3791.19 -2.98302 -2.131 0
M  V30 40790 H 3790.83 -2.25326 -4.49708 0
M  V30 40791 H 3790.53 -3.9988 -4.30546 0
M  V30 40792 H 3792.06 -3.43504 -5.04815 0
M  V30 40793 H 3793.47 -4.75641 -3.20061 0
M  V30 40794 H 3791.87 -5.36299 -2.69264 0
M  V30 40795 H 3792.94 -4.61295 -1.4945 0
M  V30 40796 N 3794.28 0.624234 -1.4471 0
M  V30 40797 C 3795.53 1.38365 -1.47856 0
M  V30 40798 C 3795.86 1.94167 -0.113803 0
M  V30 40799 O 3795.11 1.74528 0.885349 0
M  V30 40800 C 3795.41 2.56197 -2.49195 0
M  V30 40801 C 3795.08 2.18643 -3.94343 0
M  V30 40802 C 3793.74 2.08114 -4.33869 0
M  V30 40803 C 3796.09 1.89082 -4.85693 0
M  V30 40804 C 3793.42 1.66223 -5.62661 0
M  V30 40805 C 3795.77 1.48682 -6.14879 0
M  V30 40806 C 3794.44 1.36699 -6.53353 0
M  V30 40807 H 3793.71 0.506314 -0.541042 0
M  V30 40808 H 3796.35 0.707204 -1.77963 0
M  V30 40809 H 3794.66 3.29105 -2.12596 0
M  V30 40810 H 3796.35 3.14426 -2.48872 0
M  V30 40811 H 3792.94 2.27758 -3.63076 0
M  V30 40812 H 3797.13 1.96123 -4.55905 0
M  V30 40813 H 3792.38 1.55555 -5.9128 0
M  V30 40814 H 3796.56 1.24849 -6.85117 0
M  V30 40815 H 3794.19 1.04012 -7.53051 0
M  V30 40816 N 3795.76 1.31723 0.865262 0
M  V30 40817 C 3797.01 1.21036 1.61348 0
M  V30 40818 C 3797.32 -0.229107 1.94254 0
M  V30 40819 O 3798.53 -0.457724 2.67614 0
M  V30 40820 C 3796.98 2.11917 2.90894 0
M  V30 40821 C 3796.59 3.60886 2.65453 0
M  V30 40822 C 3798.34 2.10041 3.68894 0
M  V30 40823 C 3796.24 4.4376 3.90936 0
M  V30 40824 H 3795.17 0.449438 0.60541 0
M  V30 40825 H 3797.82 1.56611 0.956307 0
M  V30 40826 H 3796.21 1.69245 3.58011 0
M  V30 40827 H 3797.38 4.11832 2.06714 0
M  V30 40828 H 3795.7 3.64785 2.008 0
M  V30 40829 H 3798.29 2.69201 4.6199 0
M  V30 40830 H 3798.64 1.08872 4.01812 0
M  V30 40831 H 3799.17 2.50937 3.08667 0
M  V30 40832 H 3795.91 5.45702 3.63166 0
M  V30 40833 H 3795.43 3.97569 4.49109 0
M  V30 40834 H 3797.11 4.56216 4.58776 0
M  V30 40835 N 3797.24 -1.08018 1.14761 0
M  V30 40836 C 3798.46 -1.84755 0.942348 0
M  V30 40837 C 3798.89 -1.81218 -0.504157 0
M  V30 40838 O 3798.25 -1.20016 -1.35889 0
M  V30 40839 C 3798.29 -3.30041 1.45277 0
M  V30 40840 O 3797.4 -4.07285 0.647486 0
M  V30 40841 H 3796.74 -0.572347 0.336623 0
M  V30 40842 H 3799.27 -1.3631 1.5258 0
M  V30 40843 H 3799.28 -3.80881 1.46267 0
M  V30 40844 H 3797.95 -3.31931 2.50589 0
M  V30 40845 H 3796.53 -3.66143 0.706659 0
M  V30 40846 N 3798.72 -0.943344 -1.26249 0
M  V30 40847 C 3799.68 -0.459197 -2.24553 0
M  V30 40848 C 3800.68 0.430898 -1.54919 0
M  V30 40849 O 3801.87 0.229772 -1.72678 0
M  V30 40850 C 3799 0.337914 -3.39221 0
M  V30 40851 H 3800.19 -1.32794 -2.68897 0
M  V30 40852 H 3797.75 -0.725519 -1.38441 0
M  V30 40853 H 3798.48 1.22481 -3.00281 0
M  V30 40854 H 3798.27 -0.300497 -3.90947 0
M  V30 40855 H 3799.76 0.666496 -4.12247 0
M  V30 40856 N 3800.2 1.4067 -0.710613 0
M  V30 40857 C 3801.13 2.33397 -0.0695011 0
M  V30 40858 C 3802.11 1.52627 0.750932 0
M  V30 40859 O 3803.29 1.81112 0.700864 0
M  V30 40860 C 3800.42 3.36569 0.856645 0
M  V30 40861 C 3799.38 4.27764 0.142201 0
M  V30 40862 C 3798.7 5.21433 1.18373 0
M  V30 40863 C 3800 5.12626 -1.00061 0
M  V30 40864 H 3801.7 2.87258 -0.843996 0
M  V30 40865 H 3799.24 1.38119 -0.407311 0
M  V30 40866 H 3801.19 4.00373 1.3145 0
M  V30 40867 H 3799.92 2.81092 1.66298 0
M  V30 40868 H 3798.58 3.65405 -0.295779 0
M  V30 40869 H 3798.23 4.62263 1.98298 0
M  V30 40870 H 3797.93 5.83287 0.710608 0
M  V30 40871 H 3799.45 5.88114 1.64179 0
M  V30 40872 H 3800.86 5.69912 -0.622346 0
M  V30 40873 H 3799.26 5.83498 -1.40178 0
M  V30 40874 H 3800.33 4.48899 -1.83352 0
M  V30 40875 N 3801.67 0.456435 1.50846 0
M  V30 40876 C 3802.64 -0.33384 2.26756 0
M  V30 40877 C 3803.64 -0.933224 1.30949 0
M  V30 40878 O 3804.83 -0.804689 1.545 0
M  V30 40879 C 3801.96 -1.47412 3.0738 0
M  V30 40880 H 3803.15 0.331686 2.9806 0
M  V30 40881 H 3800.7 0.210095 1.54882 0
M  V30 40882 H 3801.44 -2.17513 2.40538 0
M  V30 40883 H 3801.22 -1.05029 3.77771 0
M  V30 40884 H 3802.71 -2.03197 3.6483 0
M  V30 40885 N 3803.15 -1.56469 0.188482 0
M  V30 40886 C 3804.38 -2.01771 -0.457811 0
M  V30 40887 C 3804.79 -1.06866 -1.55644 0
M  V30 40888 O 3804.15 -0.0723939 -1.82356 0
M  V30 40889 C 3804.2 -3.46804 -1.02026 0
M  V30 40890 O 3803.92 -4.38086 0.0345306 0
M  V30 40891 C 3805.42 -4.07592 -1.74309 0
M  V30 40892 H 3802.64 -0.66097 -0.115583 0
M  V30 40893 H 3805.19 -2.02357 0.295248 0
M  V30 40894 H 3803.34 -3.46938 -1.72373 0
M  V30 40895 H 3803.76 -5.23099 -0.383162 0
M  V30 40896 H 3805.23 -5.10944 -2.08903 0
M  V30 40897 H 3805.71 -3.50669 -2.64439 0
M  V30 40898 H 3806.31 -4.11211 -1.08563 0
M  V30 40899 N 3804.63 0.0851597 -1.5737 0
M  V30 40900 C 3805.86 0.798943 -1.90527 0
M  V30 40901 C 3806.27 1.72311 -0.781377 0
M  V30 40902 O 3805.61 1.81921 0.255004 0
M  V30 40903 C 3805.67 1.6571 -3.1903 0
M  V30 40904 C 3805.34 0.903716 -4.47975 0
M  V30 40905 C 3806.33 0.229003 -5.19395 0
M  V30 40906 C 3804.02 0.87485 -4.94623 0
M  V30 40907 C 3806.01 -0.464497 -6.35705 0
M  V30 40908 C 3803.7 0.177571 -6.10842 0
M  V30 40909 C 3804.7 -0.490915 -6.81233 0
M  V30 40910 O 3804.39 -1.17699 -7.95237 0
M  V30 40911 H 3804.12 0.233108 -0.634537 0
M  V30 40912 H 3806.67 0.0637905 -2.05301 0
M  V30 40913 H 3804.9 2.43473 -3.00429 0
M  V30 40914 H 3806.59 2.24835 -3.37941 0
M  V30 40915 H 3807.36 0.242698 -4.84392 0
M  V30 40916 H 3803.24 1.38462 -4.39715 0
M  V30 40917 H 3806.78 -0.98684 -6.90585 0
M  V30 40918 H 3802.68 0.161756 -6.45297 0
M  V30 40919 H 3803.44 -1.0849 -8.11278 0
M  V30 40920 N 3806.11 1.53521 0.356231 0
M  V30 40921 C 3807.34 1.74077 1.11825 0
M  V30 40922 C 3807.75 0.47403 1.82752 0
M  V30 40923 O 3807.11 -0.553618 1.739 0
M  V30 40924 C 3807.16 2.91247 2.14144 0
M  V30 40925 O 3806.88 4.1302 1.46103 0
M  V30 40926 C 3808.38 3.23751 3.0282 0
M  V30 40927 H 3805.6 0.581971 0.333992 0
M  V30 40928 H 3808.14 2.00301 0.4123 0
M  V30 40929 H 3806.3 2.67391 2.80323 0
M  V30 40930 H 3806.71 4.787 2.14352 0
M  V30 40931 H 3808.19 4.09118 3.70576 0
M  V30 40932 H 3808.66 2.39512 3.68145 0
M  V30 40933 H 3809.27 3.49567 2.42246 0
M  V30 40934 N 3807.59 -0.616551 1.45039 0
M  V30 40935 C 3808.82 -1.40061 1.51876 0
M  V30 40936 C 3809.22 -1.88627 0.147138 0
M  V30 40937 O 3808.57 -1.6233 -0.859921 0
M  V30 40938 C 3808.63 -2.64545 2.43426 0
M  V30 40939 C 3808.29 -2.37678 3.90331 0
M  V30 40940 C 3809.29 -1.98597 4.80474 0
M  V30 40941 C 3806.97 -2.50867 4.35168 0
M  V30 40942 C 3808.97 -1.73053 6.13459 0
M  V30 40943 C 3806.66 -2.24937 5.68196 0
M  V30 40944 C 3807.65 -1.8609 6.5716 0
M  V30 40945 O 3807.34 -1.60458 7.87724 0
M  V30 40946 H 3807.07 -0.435465 0.517056 0
M  V30 40947 H 3809.63 -0.759866 1.90828 0
M  V30 40948 H 3807.86 -3.31308 1.99429 0
M  V30 40949 H 3809.55 -3.26574 2.41048 0
M  V30 40950 H 3810.31 -1.87951 4.47101 0
M  V30 40951 H 3806.19 -2.80072 3.6617 0
M  V30 40952 H 3809.74 -1.42657 6.82858 0
M  V30 40953 H 3805.63 -2.35197 6.01126 0
M  V30 40954 H 3806.4 -1.74584 7.99664 0
M  V30 40955 N 3809.06 -1.3218 -0.858264 0
M  V30 40956 C 3810.01 -1.20814 -1.96654 0
M  V30 40957 C 3810.98 -0.0911491 -1.6585 0
M  V30 40958 O 3812.17 -0.266066 -1.88936 0
M  V30 40959 C 3809.31 -0.933466 -3.32235 0
M  V30 40960 C 3808.42 -2.1349 -3.75561 0
M  V30 40961 C 3807.55 -1.79602 -4.99917 0
M  V30 40962 C 3806.59 -2.96087 -5.35723 0
M  V30 40963 N 3805.73 -2.62315 -6.51257 0
M  V30 40964 H 3810.57 -2.15612 -2.05707 0
M  V30 40965 H 3808.11 -1.0724 -1.00687 0
M  V30 40966 H 3810.06 -0.754724 -4.10317 0
M  V30 40967 H 3808.69 -0.0222847 -3.22792 0
M  V30 40968 H 3807.75 -2.42404 -2.93163 0
M  V30 40969 H 3809.06 -3.00636 -3.98019 0
M  V30 40970 H 3808.21 -1.58258 -5.85695 0
M  V30 40971 H 3806.95 -0.896645 -4.79387 0
M  V30 40972 H 3805.96 -3.18066 -4.48457 0
M  V30 40973 H 3807.18 -3.86751 -5.58212 0
M  V30 40974 H 3805.13 -1.74915 -6.32251 0
M  V30 40975 H 3805.04 -3.42991 -6.73716 0
M  V30 40976 H 3806.31 -2.44393 -7.40197 0
M  V30 40977 N 3810.54 1.07407 -1.15332 0
M  V30 40978 C 3811.77 1.83714 -0.951675 0
M  V30 40979 C 3812.18 1.82058 0.500022 0
M  V30 40980 O 3811.54 1.23159 1.34677 0
M  V30 40981 C 3811.59 3.3082 -1.4574 0
M  V30 40982 O 3811.31 3.32535 -2.85223 0
M  V30 40983 C 3812.81 4.23897 -1.29716 0
M  V30 40984 H 3810.03 0.579634 -0.338031 0
M  V30 40985 H 3812.58 1.35586 -1.5309 0
M  V30 40986 H 3810.73 3.763 -0.920709 0
M  V30 40987 H 3811.15 4.2444 -3.08141 0
M  V30 40988 H 3812.62 5.25187 -1.69948 0
M  V30 40989 H 3813.1 4.38537 -0.241263 0
M  V30 40990 H 3813.7 3.84253 -1.8229 0
M  V30 40991 N 3812.02 0.950026 1.25747 0
M  V30 40992 C 3813.27 0.612768 1.9395 0
M  V30 40993 C 3813.62 -0.840309 1.7308 0
M  V30 40994 O 3812.91 -1.59441 1.0625 0
M  V30 40995 C 3813.11 0.901581 3.45841 0
M  V30 40996 C 3812.94 2.38118 3.81484 0
M  V30 40997 C 3811.71 3.03792 4.0378 0
M  V30 40998 C 3813.9 3.36024 3.89349 0
M  V30 40999 N 3811.89 4.41673 4.26378 0
M  V30 41000 C 3813.26 4.59194 4.16582 0
M  V30 41001 C 3815.31 3.30926 3.72011 0
M  V30 41002 C 3814.02 5.779 4.28281 0
M  V30 41003 C 3816.04 4.48965 3.84947 0
M  V30 41004 C 3815.4 5.70921 4.12588 0
M  V30 41005 H 3811.5 0.274758 0.732142 0
M  V30 41006 H 3814.09 1.22125 1.51636 0
M  V30 41007 H 3812.26 0.322065 3.87062 0
M  V30 41008 H 3813.99 0.524695 4.01284 0
M  V30 41009 H 3810.74 2.54379 3.99485 0
M  V30 41010 H 3811.17 5.13067 4.41692 0
M  V30 41011 H 3815.81 2.37689 3.49663 0
M  V30 41012 H 3813.53 6.71582 4.49448 0
M  V30 41013 H 3817.11 4.46563 3.72925 0
M  V30 41014 H 3815.99 6.60735 4.22374 0
M  V30 41015 N 3813.5 -1.40291 0.718063 0
M  V30 41016 C 3814.45 -2.32533 0.0559874 0
M  V30 41017 C 3815.44 -1.52171 -0.744339 0
M  V30 41018 O 3816.65 -1.67953 -0.647428 0
M  V30 41019 H 3813.02 -0.752 -0.000697409 0
M  V30 41020 H 3814.99 -2.86019 0.850629 0
M  V30 41021 C 3813.74 -3.37154 -0.849868 0
M  V30 41022 H 3813.06 -3.99058 -0.243437 0
M  V30 41023 H 3814.5 -4.04185 -1.28104 0
M  V30 41024 C 3812.96 -2.72833 -1.97645 0
M  V30 41025 O 3813.49 -2.59356 -3.06753 0
M  V30 41026 N 3811.7 -2.31179 -1.76082 0
M  V30 41027 H 3811.25 -2.4234 -0.873442 0
M  V30 41028 H 3811.2 -1.88481 -2.51639 0
M  V30 41029 N 3814.98 -0.464428 -1.50602 0
M  V30 41030 C 3816.21 0.0906086 -2.06401 0
M  V30 41031 C 3816.61 1.34648 -1.32916 0
M  V30 41032 O 3815.96 1.79513 -0.38999 0
M  V30 41033 C 3816.02 0.451313 -3.56656 0
M  V30 41034 C 3815.68 -0.701584 -4.51583 0
M  V30 41035 C 3816.68 -1.58169 -4.95256 0
M  V30 41036 C 3814.37 -0.890017 -4.94352 0
M  V30 41037 C 3816.36 -2.63469 -5.80399 0
M  V30 41038 C 3814.05 -1.94625 -5.79279 0
M  V30 41039 C 3815.04 -2.81695 -6.22203 0
M  V30 41040 O 3814.73 -3.85501 -7.05439 0
M  V30 41041 H 3814.46 -0.00076315 -0.676 0
M  V30 41042 H 3817.02 -0.650269 -1.94835 0
M  V30 41043 H 3815.25 1.24528 -3.66101 0
M  V30 41044 H 3816.94 0.940653 -3.9485 0
M  V30 41045 H 3817.7 -1.44776 -4.62887 0
M  V30 41046 H 3813.58 -0.221789 -4.60466 0
M  V30 41047 H 3817.13 -3.31461 -6.13823 0
M  V30 41048 H 3813.02 -2.08027 -6.11061 0
M  V30 41049 H 3813.79 -3.82409 -7.23675 0
M  V30 41050 N 3816.45 1.56367 -0.196777 0
M  V30 41051 C 3817.4 2.15785 0.736261 0
M  V30 41052 C 3818.39 1.09909 1.17511 0
M  V30 41053 O 3819.58 1.35967 1.13323 0
M  V30 41054 C 3816.71 2.82206 1.95486 0
M  V30 41055 C 3815.8 3.95275 1.53683 0
M  V30 41056 N 3816.19 4.98946 0.829864 0
M  V30 41057 C 3814.48 4.06907 1.826 0
M  V30 41058 C 3815.19 5.78385 0.620161 0
M  V30 41059 N 3814.16 5.30873 1.16939 0
M  V30 41060 H 3817.96 2.93302 0.187424 0
M  V30 41061 H 3815.48 1.624 0.00294716 0
M  V30 41062 H 3817.47 3.23168 2.63379 0
M  V30 41063 H 3816.13 2.06178 2.5084 0
M  V30 41064 H 3817.15 5.15623 0.485154 0
M  V30 41065 H 3813.82 3.42008 2.39451 0
M  V30 41066 H 3815.21 6.71874 0.0592256 0
M  V30 41067 N 3817.93 -0.0768128 1.57413 0
M  V30 41068 C 3818.88 -1.11057 2.04375 0
M  V30 41069 C 3819.87 -1.4038 0.948152 0
M  V30 41070 O 3821.08 -1.39846 1.13328 0
M  V30 41071 H 3817.46 -0.375453 0.651567 0
M  V30 41072 H 3819.43 -0.688297 2.90353 0
M  V30 41073 C 3818.18 -2.41736 2.49918 0
M  V30 41074 H 3817.5 -2.20022 3.33812 0
M  V30 41075 H 3818.94 -3.12527 2.86536 0
M  V30 41076 C 3817.4 -3.07339 1.38001 0
M  V30 41077 O 3817.93 -3.95207 0.719312 0
M  V30 41078 N 3816.13 -2.67882 1.1264 0
M  V30 41079 H 3815.68 -1.96518 1.66548 0
M  V30 41080 H 3815.64 -3.121 0.379615 0
M  V30 41081 N 3819.41 -1.53708 -0.348084 0
M  V30 41082 C 3820.34 -1.84363 -1.43292 0
M  V30 41083 C 3821.32 -0.698403 -1.55101 0
M  V30 41084 O 3822.51 -0.949894 -1.69383 0
M  V30 41085 C 3819.64 -2.04917 -2.80404 0
M  V30 41086 C 3818.59 -3.20726 -2.83406 0
M  V30 41087 C 3817.92 -3.26605 -4.2336 0
M  V30 41088 C 3819.22 -4.58936 -2.4935 0
M  V30 41089 H 3820.91 -2.75214 -1.17887 0
M  V30 41090 H 3818.46 -1.32424 -0.565669 0
M  V30 41091 H 3820.41 -2.24946 -3.56339 0
M  V30 41092 H 3819.13 -1.10791 -3.07234 0
M  V30 41093 H 3817.79 -3.00546 -2.09924 0
M  V30 41094 H 3817.44 -2.30083 -4.47293 0
M  V30 41095 H 3817.14 -4.04424 -4.2628 0
M  V30 41096 H 3818.66 -3.48838 -5.01143 0
M  V30 41097 H 3820.08 -4.79009 -3.14998 0
M  V30 41098 H 3818.48 -5.39125 -2.63561 0
M  V30 41099 H 3819.55 -4.62854 -1.44549 0
M  V30 41100 N 3820.89 0.608851 -1.45364 0
M  V30 41101 C 3822.11 1.39946 -1.53068 0
M  V30 41102 C 3822.54 1.87386 -0.163723 0
M  V30 41103 O 3821.9 1.60065 0.851404 0
M  V30 41104 C 3821.94 2.58086 -2.51841 0
M  V30 41105 O 3821.05 3.58675 -2.03534 0
M  V30 41106 H 3820.39 0.417852 -0.516039 0
M  V30 41107 H 3822.92 0.741097 -1.90706 0
M  V30 41108 H 3822.93 3.05347 -2.70605 0
M  V30 41109 H 3821.6 2.22906 -3.51121 0
M  V30 41110 H 3820.18 3.18072 -1.9464 0
M  V30 41111 N 3822.37 1.32633 0.851242 0
M  V30 41112 C 3823.31 1.21855 1.9601 0
M  V30 41113 C 3824.28 0.0999432 1.65799 0
M  V30 41114 O 3825.47 0.276082 1.88792 0
M  V30 41115 C 3822.61 0.951073 3.31736 0
M  V30 41116 C 3821.72 2.15479 3.74423 0
M  V30 41117 C 3820.86 1.82251 4.98957 0
M  V30 41118 C 3819.9 2.98924 5.34145 0
M  V30 41119 N 3819.03 2.65765 6.49856 0
M  V30 41120 H 3823.87 2.167 2.04561 0
M  V30 41121 H 3821.41 1.07773 1.00117 0
M  V30 41122 H 3823.37 0.776473 4.09911 0
M  V30 41123 H 3822 0.0394028 3.22776 0
M  V30 41124 H 3821.05 2.43955 2.91873 0
M  V30 41125 H 3822.36 3.02743 3.96419 0
M  V30 41126 H 3821.52 1.61362 5.84848 0
M  V30 41127 H 3820.25 0.922056 4.78904 0
M  V30 41128 H 3819.26 3.2044 4.46764 0
M  V30 41129 H 3820.48 3.89706 5.56153 0
M  V30 41130 H 3818.43 1.78265 6.31314 0
M  V30 41131 H 3818.35 3.46559 6.71888 0
M  V30 41132 H 3819.62 2.48315 7.38891 0
M  V30 41133 N 3823.84 -1.06794 1.159 0
M  V30 41134 C 3825.09 -1.79764 0.93876 0
M  V30 41135 C 3825.42 -1.86758 -0.532457 0
M  V30 41136 O 3824.7 -1.35546 -1.3949 0
M  V30 41137 C 3824.98 -3.24523 1.56068 0
M  V30 41138 C 3824.83 -3.2564 3.10288 0
M  V30 41139 C 3826.15 -4.21941 1.25115 0
M  V30 41140 H 3823.27 -0.652601 0.342463 0
M  V30 41141 H 3825.91 -1.2493 1.43152 0
M  V30 41142 H 3824.06 -3.71347 1.14165 0
M  V30 41143 H 3825.74 -2.87015 3.61137 0
M  V30 41144 H 3823.98 -2.64437 3.43883 0
M  V30 41145 H 3824.65 -4.27737 3.4892 0
M  V30 41146 H 3827.13 -3.83534 1.61371 0
M  V30 41147 H 3826 -5.21506 1.71239 0
M  V30 41148 H 3826.26 -4.41776 0.16912 0
M  V30 41149 N 3825.32 -0.956681 -1.25241 0
M  V30 41150 C 3826.57 -0.61348 -1.93298 0
M  V30 41151 C 3826.9 0.84764 -1.74725 0
M  V30 41152 O 3826.18 1.60844 -1.0936 0
M  V30 41153 C 3826.46 -0.975482 -3.46636 0
M  V30 41154 C 3826.31 -2.49248 -3.74427 0
M  V30 41155 C 3827.63 -0.502025 -4.37227 0
M  V30 41156 H 3824.75 -0.224351 -0.702023 0
M  V30 41157 H 3827.39 -1.1937 -1.4782 0
M  V30 41158 H 3825.54 -0.481738 -3.85502 0
M  V30 41159 H 3827.21 -3.06015 -3.45185 0
M  V30 41160 H 3825.46 -2.92929 -3.19961 0
M  V30 41161 H 3826.13 -2.69628 -4.81669 0
M  V30 41162 H 3828.6 -0.925585 -4.05675 0
M  V30 41163 H 3827.48 -0.783991 -5.43272 0
M  V30 41164 H 3827.74 0.598005 -4.38037 0
M  V30 41165 N 3826.8 1.39908 -0.725493 0
M  V30 41166 C 3827.71 2.34461 -0.0806299 0
M  V30 41167 C 3828.73 1.57823 0.732661 0
M  V30 41168 O 3829.9 1.90163 0.663328 0
M  V30 41169 C 3826.97 3.36794 0.822849 0
M  V30 41170 C 3826.03 4.293 -0.00161358 0
M  V30 41171 C 3825.26 5.26744 0.858837 0
M  V30 41172 O 3825.48 5.30422 2.09784 0
M  V30 41173 O 3824.42 6.01189 0.292553 0
M  V30 41174 H 3828.24 2.91246 -0.860797 0
M  V30 41175 H 3825.83 1.41272 -0.486064 0
M  V30 41176 H 3827.71 3.99525 1.34007 0
M  V30 41177 H 3826.39 2.82409 1.58199 0
M  V30 41178 H 3825.29 3.69822 -0.564137 0
M  V30 41179 H 3826.63 4.86864 -0.722761 0
M  V30 41180 N 3828.28 0.472408 1.50353 0
M  V30 41181 C 3829.69 0.0176096 1.86692 0
M  V30 41182 C 3830.04 -1.38758 1.38711 0
M  V30 41183 O 3829.17 -2.0289 0.752649 0
M  V30 41184 C 3829.76 0.02518 3.38791 0
M  V30 41185 C 3828.32 -0.374154 3.74536 0
M  V30 41186 C 3827.47 0.410093 2.74251 0
M  V30 41187 H 3830.42 0.686619 1.43078 0
M  V30 41188 H 3830.44 -0.776688 3.72489 0
M  V30 41189 H 3829.95 1.04802 3.73682 0
M  V30 41190 H 3828.05 -1.40129 3.45246 0
M  V30 41191 H 3828.16 -0.0745824 4.79042 0
M  V30 41192 H 3826.53 -0.136372 2.54335 0
M  V30 41193 H 3827.31 1.43247 3.11986 0
M  V30 41194 N 3829.76 -1.5626 0.205067 0
M  V30 41195 C 3830.72 -2.18309 -0.698128 0
M  V30 41196 C 3831.72 -1.14031 -1.13374 0
M  V30 41197 O 3832.91 -1.39359 -1.04521 0
M  V30 41198 C 3830.04 -2.79318 -1.95433 0
M  V30 41199 H 3831.24 -2.99487 -0.15741 0
M  V30 41200 H 3828.79 -1.56236 -0.0445574 0
M  V30 41201 H 3829.52 -2.01966 -2.53733 0
M  V30 41202 H 3829.31 -3.55664 -1.65061 0
M  V30 41203 H 3830.8 -3.26932 -2.59818 0
M  V30 41204 N 3831.24 0.0684638 -1.57451 0
M  V30 41205 C 3832.17 1.08127 -2.06956 0
M  V30 41206 C 3833.15 1.40164 -0.963741 0
M  V30 41207 O 3834.33 1.49734 -1.23667 0
M  V30 41208 C 3831.46 2.39377 -2.51627 0
M  V30 41209 C 3830.42 2.21684 -3.66115 0
M  V30 41210 C 3829.74 3.58347 -3.96852 0
M  V30 41211 C 3831.04 1.63532 -4.96039 0
M  V30 41212 H 3832.74 0.669309 -2.91823 0
M  V30 41213 H 3830.28 0.320508 -1.40388 0
M  V30 41214 H 3832.23 3.10525 -2.84873 0
M  V30 41215 H 3830.96 2.82559 -1.63793 0
M  V30 41216 H 3829.62 1.52976 -3.33157 0
M  V30 41217 H 3829.27 3.99105 -3.06144 0
M  V30 41218 H 3828.97 3.47346 -4.73946 0
M  V30 41219 H 3830.49 4.3092 -4.32597 0
M  V30 41220 H 3831.9 2.24549 -5.27495 0
M  V30 41221 H 3830.3 1.63218 -5.77477 0
M  V30 41222 H 3831.37 0.597115 -4.81209 0
M  V30 41223 N 3832.71 1.5389 0.339928 0
M  V30 41224 C 3833.68 1.81431 1.40055 0
M  V30 41225 C 3834.68 0.685489 1.45457 0
M  V30 41226 O 3835.87 0.95378 1.45769 0
M  V30 41227 C 3833 1.9596 2.78949 0
M  V30 41228 H 3834.19 2.7618 1.16897 0
M  V30 41229 H 3831.74 1.45358 0.574518 0
M  V30 41230 H 3832.48 1.03367 3.07385 0
M  V30 41231 H 3832.26 2.78087 2.76424 0
M  V30 41232 H 3833.75 2.18772 3.55709 0
M  V30 41233 N 3834.19 -0.601133 1.45685 0
M  V30 41234 C 3835.42 -1.38443 1.53353 0
M  V30 41235 C 3835.83 -1.8846 0.167136 0
M  V30 41236 O 3835.17 -1.63233 -0.842656 0
M  V30 41237 C 3835.23 -2.61948 2.46218 0
M  V30 41238 C 3834.9 -2.33525 3.9283 0
M  V30 41239 C 3835.9 -1.9349 4.82553 0
M  V30 41240 C 3833.58 -2.46238 4.37804 0
M  V30 41241 C 3835.57 -1.66536 6.1526 0
M  V30 41242 C 3833.26 -2.18898 5.7055 0
M  V30 41243 C 3834.26 -1.7911 6.59097 0
M  V30 41244 O 3833.95 -1.52094 7.89381 0
M  V30 41245 H 3833.68 -0.429956 0.521645 0
M  V30 41246 H 3836.23 -0.739583 1.91623 0
M  V30 41247 H 3834.46 -3.29174 2.02931 0
M  V30 41248 H 3836.15 -3.23999 2.44498 0
M  V30 41249 H 3836.92 -1.83199 4.49069 0
M  V30 41250 H 3832.8 -2.76173 3.6912 0
M  V30 41251 H 3836.34 -1.35406 6.84333 0
M  V30 41252 H 3832.24 -2.28808 6.03587 0
M  V30 41253 H 3833.01 -1.66093 8.01471 0
M  V30 41254 N 3835.67 -1.33083 -0.844196 0
M  V30 41255 C 3836.6 -1.25514 -1.96897 0
M  V30 41256 C 3837.58 -0.1368 -1.69549 0
M  V30 41257 O 3838.77 -0.3257 -1.91449 0
M  V30 41258 C 3835.9 -0.988153 -3.32946 0
M  V30 41259 C 3834.85 -2.06886 -3.74676 0
M  V30 41260 C 3834.18 -1.6541 -5.08472 0
M  V30 41261 C 3835.48 -3.48505 -3.89027 0
M  V30 41262 H 3837.17 -2.19621 -2.03487 0
M  V30 41263 H 3834.72 -1.05727 -0.97764 0
M  V30 41264 H 3836.67 -0.921717 -4.11196 0
M  V30 41265 H 3835.39 -0.0114641 -3.26598 0
M  V30 41266 H 3834.05 -2.12563 -2.98685 0
M  V30 41267 H 3833.7 -0.664577 -4.9859 0
M  V30 41268 H 3833.4 -2.37726 -5.37364 0
M  V30 41269 H 3834.92 -1.60222 -5.89204 0
M  V30 41270 H 3836.34 -3.45359 -4.57603 0
M  V30 41271 H 3834.73 -4.1926 -4.29349 0
M  V30 41272 H 3835.8 -3.874 -2.91632 0
M  V30 41273 N 3837.15 1.06178 -1.16464 0
M  V30 41274 C 3838.56 1.60463 -0.954388 0
M  V30 41275 C 3838.91 1.89684 0.501421 0
M  V30 41276 O 3838.03 1.67113 1.37485 0
M  V30 41277 C 3838.63 2.91534 -1.72608 0
M  V30 41278 C 3837.19 3.42516 -1.56077 0
M  V30 41279 C 3836.34 2.16392 -1.73407 0
M  V30 41280 H 3839.29 0.891143 -1.31318 0
M  V30 41281 H 3839.31 3.60996 -1.20258 0
M  V30 41282 H 3838.82 2.70234 -2.78559 0
M  V30 41283 H 3836.92 3.68873 -0.525717 0
M  V30 41284 H 3837.03 4.17765 -2.3454 0
M  V30 41285 H 3835.4 2.2667 -1.16159 0
M  V30 41286 H 3836.18 1.97573 -2.80748 0
M  V30 41287 N 3838.63 0.96331 1.24732 0
M  V30 41288 C 3839.86 0.63934 1.96459 0
M  V30 41289 C 3840.26 -0.794523 1.71709 0
M  V30 41290 O 3839.61 -1.54417 0.995043 0
M  V30 41291 C 3839.67 0.828757 3.49817 0
M  V30 41292 C 3839.33 2.24142 3.98258 0
M  V30 41293 C 3840.33 3.21881 4.08275 0
M  V30 41294 C 3838.01 2.56794 4.31697 0
M  V30 41295 C 3840.01 4.5036 4.51059 0
M  V30 41296 C 3837.7 3.855 4.74165 0
M  V30 41297 C 3838.69 4.82096 4.83811 0
M  V30 41298 O 3838.38 6.08507 5.25333 0
M  V30 41299 H 3838.11 0.237899 0.632756 0
M  V30 41300 H 3840.67 1.29254 1.59633 0
M  V30 41301 H 3838.9 0.1184 3.86519 0
M  V30 41302 H 3840.59 0.504536 4.02752 0
M  V30 41303 H 3841.35 2.97983 3.82663 0
M  V30 41304 H 3837.23 1.8233 4.23411 0
M  V30 41305 H 3840.78 5.25758 4.58503 0
M  V30 41306 H 3836.67 4.09201 4.99224 0
M  V30 41307 H 3837.44 6.12009 5.43495 0
M  V30 41308 N 3840.1 -1.39522 0.732902 0
M  V30 41309 C 3841.07 -2.28981 0.100081 0
M  V30 41310 C 3842.07 -1.46207 -0.669335 0
M  V30 41311 O 3843.26 -1.6691 -0.498664 0
M  V30 41312 C 3840.39 -3.29676 -0.867558 0
M  V30 41313 H 3841.58 -2.86445 0.888211 0
M  V30 41314 H 3839.13 -1.48134 0.498604 0
M  V30 41315 H 3839.87 -2.77264 -1.68212 0
M  V30 41316 H 3839.65 -3.90804 -0.318508 0
M  V30 41317 H 3841.14 -3.96621 -1.30697 0
M  V30 41318 N 3841.58 -0.480375 -1.501 0
M  V30 41319 C 3842.81 0.0688116 -2.06786 0
M  V30 41320 C 3843.22 1.3268 -1.34318 0
M  V30 41321 O 3842.58 1.77714 -0.415227 0
M  V30 41322 C 3842.63 0.347459 -3.59826 0
M  V30 41323 O 3842.35 -0.860645 -4.29563 0
M  V30 41324 C 3843.85 0.942584 -4.33163 0
M  V30 41325 H 3841.07 -0.011229 -0.670906 0
M  V30 41326 H 3843.62 -0.671822 -1.9315 0
M  V30 41327 H 3841.77 1.03804 -3.73234 0
M  V30 41328 H 3842.19 -0.610888 -5.2093 0
M  V30 41329 H 3843.66 1.08726 -5.41186 0
M  V30 41330 H 3844.14 1.93511 -3.94272 0
M  V30 41331 H 3844.74 0.290104 -4.24309 0
M  V30 41332 N 3843.06 1.56149 -0.213351 0
M  V30 41333 C 3844.28 2.02921 0.428711 0
M  V30 41334 C 3844.71 1.0923 1.53136 0
M  V30 41335 O 3844.07 0.0790002 1.81128 0
M  V30 41336 C 3844.12 3.47993 0.945169 0
M  V30 41337 O 3843.22 3.57435 2.05703 0
M  V30 41338 H 3842.56 0.656721 0.0980504 0
M  V30 41339 H 3845.09 2.01928 -0.329584 0
M  V30 41340 H 3845.1 3.88151 1.2571 0
M  V30 41341 H 3843.78 4.15671 0.138088 0
M  V30 41342 H 3842.35 3.29161 1.75236 0
M  V30 41343 N 3844.54 -0.0601128 1.57485 0
M  V30 41344 C 3845.5 -1.05464 2.03494 0
M  V30 41345 C 3846.5 -1.30905 0.933839 0
M  V30 41346 O 3847.69 -1.26429 1.19839 0
M  V30 41347 C 3844.82 -2.39542 2.42554 0
M  V30 41348 H 3846.02 -0.657841 2.92596 0
M  V30 41349 H 3843.57 -0.306156 1.53272 0
M  V30 41350 H 3844.3 -2.84032 1.56514 0
M  V30 41351 H 3844.09 -2.22415 3.22915 0
M  V30 41352 H 3845.58 -3.11005 2.78685 0
M  V30 41353 N 3846.02 -1.54068 -0.331762 0
M  V30 41354 C 3846.95 -1.85872 -1.41329 0
M  V30 41355 C 3847.93 -0.714814 -1.54352 0
M  V30 41356 O 3849.11 -0.967806 -1.68366 0
M  V30 41357 C 3846.24 -2.07879 -2.78215 0
M  V30 41358 C 3845.2 -3.23714 -2.79988 0
M  V30 41359 C 3844.52 -3.31077 -4.19872 0
M  V30 41360 C 3845.82 -4.61554 -2.44468 0
M  V30 41361 H 3847.52 -2.76449 -1.14962 0
M  V30 41362 H 3845.06 -1.33017 -0.551592 0
M  V30 41363 H 3847.02 -2.28712 -3.53933 0
M  V30 41364 H 3845.74 -1.14044 -3.06042 0
M  V30 41365 H 3844.4 -3.02755 -2.06724 0
M  V30 41366 H 3844.05 -2.34815 -4.44827 0
M  V30 41367 H 3843.75 -4.08923 -4.21967 0
M  V30 41368 H 3845.27 -3.54134 -4.97415 0
M  V30 41369 H 3846.68 -4.82323 -3.099 0
M  V30 41370 H 3845.08 -5.4189 -2.57828 0
M  V30 41371 H 3846.15 -4.64361 -1.39632 0
M  V30 41372 N 3847.49 0.593399 -1.46002 0
M  V30 41373 C 3848.44 1.70321 -1.55755 0
M  V30 41374 C 3849.41 1.6115 -0.402495 0
M  V30 41375 O 3850.6 1.8052 -0.617836 0
M  V30 41376 C 3847.74 3.0865 -1.54367 0
M  V30 41377 C 3846.85 3.28524 -2.80528 0
M  V30 41378 C 3845.98 4.5704 -2.70717 0
M  V30 41379 C 3845.02 4.70221 -3.91866 0
M  V30 41380 N 3844.16 5.90052 -3.80504 0
M  V30 41381 H 3849 1.61322 -2.50558 0
M  V30 41382 H 3846.54 0.786403 -1.24315 0
M  V30 41383 H 3848.5 3.88701 -1.51549 0
M  V30 41384 H 3847.13 3.16572 -0.631042 0
M  V30 41385 H 3846.18 2.4215 -2.93372 0
M  V30 41386 H 3847.49 3.34133 -3.70346 0
M  V30 41387 H 3846.64 5.45306 -2.65944 0
M  V30 41388 H 3845.38 4.53852 -1.78521 0
M  V30 41389 H 3844.39 3.80376 -3.96982 0
M  V30 41390 H 3845.61 4.75196 -4.85145 0
M  V30 41391 H 3843.56 5.87881 -2.91087 0
M  V30 41392 H 3843.48 5.96883 -4.63968 0
M  V30 41393 H 3844.74 6.80777 -3.79688 0
M  V30 41394 N 3848.97 1.33529 0.837127 0
M  V30 41395 C 3849.91 1.18267 1.95162 0
M  V30 41396 C 3850.88 0.077715 1.62414 0
M  V30 41397 O 3852.07 0.240273 1.86962 0
M  V30 41398 C 3849.19 0.814352 3.28764 0
M  V30 41399 C 3848.24 1.92705 3.80483 0
M  V30 41400 S 3849.07 3.5383 4.01951 0
M  V30 41401 C 3850.23 3.19009 5.38502 0
M  V30 41402 H 3850.46 2.12609 2.07809 0
M  V30 41403 H 3848 1.18391 0.991105 0
M  V30 41404 H 3849.95 0.608627 4.05963 0
M  V30 41405 H 3848.61 -0.110498 3.13906 0
M  V30 41406 H 3847.81 1.62275 4.77161 0
M  V30 41407 H 3847.41 2.08953 3.10185 0
M  V30 41408 H 3849.7 2.69942 6.214 0
M  V30 41409 H 3850.64 4.14774 5.73906 0
M  V30 41410 H 3851.05 2.5556 5.03338 0
M  V30 41411 N 3850.45 -1.05559 1.17026 0
M  V30 41412 C 3851.7 -1.78494 0.956356 0
M  V30 41413 C 3852.03 -1.8755 -0.515287 0
M  V30 41414 O 3851.28 -1.36888 -1.39858 0
M  V30 41415 C 3851.58 -3.22613 1.53804 0
M  V30 41416 C 3851.25 -3.33622 3.03326 0
M  V30 41417 C 3849.91 -3.36334 3.44141 0
M  V30 41418 C 3852.26 -3.34939 3.99331 0
M  V30 41419 C 3849.59 -3.37987 4.79564 0
M  V30 41420 C 3851.94 -3.3813 5.3465 0
M  V30 41421 C 3850.6 -3.39128 5.74934 0
M  V30 41422 H 3849.87 -0.653155 0.349956 0
M  V30 41423 H 3852.52 -1.24088 1.45858 0
M  V30 41424 H 3850.83 -3.79921 0.957441 0
M  V30 41425 H 3852.52 -3.77659 1.34813 0
M  V30 41426 H 3849.11 -3.32222 2.70788 0
M  V30 41427 H 3853.3 -3.32048 3.6886 0
M  V30 41428 H 3848.55 -3.37067 5.10094 0
M  V30 41429 H 3852.73 -3.38097 6.08821 0
M  V30 41430 H 3850.35 -3.40161 6.79849 0
M  V30 41431 N 3851.93 -0.969911 -1.2422 0
M  V30 41432 C 3853.16 -0.650693 -1.96402 0
M  V30 41433 C 3853.57 0.780308 -1.7192 0
M  V30 41434 O 3852.93 1.52382 -1.0043 0
M  V30 41435 C 3852.98 -0.918603 -3.49634 0
M  V30 41436 O 3852.7 -2.29335 -3.73279 0
M  V30 41437 C 3854.2 -0.61388 -4.39029 0
M  V30 41438 H 3851.42 -0.242598 -0.62561 0
M  V30 41439 H 3853.97 -1.29844 -1.57989 0
M  V30 41440 H 3852.12 -0.317027 -3.86101 0
M  V30 41441 H 3852.53 -2.37504 -4.67645 0
M  V30 41442 H 3854.01 -0.851775 -5.45389 0
M  V30 41443 H 3854.49 0.4519 -4.36869 0
M  V30 41444 H 3855.09 -1.19546 -4.08153 0
M  V30 41445 N 3853.41 1.39131 -0.740291 0
M  V30 41446 C 3854.82 1.83198 -0.359898 0
M  V30 41447 C 3855.17 1.61818 1.10948 0
M  V30 41448 O 3854.29 1.11218 1.85633 0
M  V30 41449 C 3854.89 3.32576 -0.646448 0
M  V30 41450 C 3853.45 3.75042 -0.319489 0
M  V30 41451 C 3852.59 2.62068 -0.906391 0
M  V30 41452 H 3855.55 1.28048 -0.937513 0
M  V30 41453 H 3855.57 3.80416 0.0799661 0
M  V30 41454 H 3855.08 3.48105 -1.71594 0
M  V30 41455 H 3853.18 3.65097 0.743958 0
M  V30 41456 H 3853.29 4.72276 -0.805747 0
M  V30 41457 H 3851.66 2.52518 -0.332659 0
M  V30 41458 H 3852.44 2.80402 -1.98065 0
M  V30 41459 N 3854.88 0.488329 1.49844 0
M  V30 41460 C 3856.11 -0.0578443 2.06819 0
M  V30 41461 C 3856.53 -1.31966 1.3502 0
M  V30 41462 O 3855.88 -1.77491 0.424646 0
M  V30 41463 C 3855.94 -0.328372 3.60006 0
M  V30 41464 O 3855.66 0.883414 4.29101 0
M  V30 41465 C 3857.16 -0.919599 4.33657 0
M  V30 41466 H 3854.38 0.0147868 0.670837 0
M  V30 41467 H 3856.92 0.682056 1.92791 0
M  V30 41468 H 3855.08 -1.01823 3.73779 0
M  V30 41469 H 3855.49 0.638505 5.20599 0
M  V30 41470 H 3856.96 -1.05855 5.41755 0
M  V30 41471 H 3857.44 -1.91417 3.95293 0
M  V30 41472 H 3858.05 -0.267597 4.24457 0
M  V30 41473 N 3856.36 -1.56034 0.221629 0
M  V30 41474 C 3857.78 -1.59039 -0.133755 0
M  V30 41475 C 3857.98 -1.23844 -1.58949 0
M  V30 41476 O 3857.03 -0.973718 -2.3297 0
M  V30 41477 C 3858.35 -3.00083 0.192602 0
M  V30 41478 C 3859.9 -3.12709 0.134846 0
M  V30 41479 C 3860.37 -4.55931 0.434879 0
M  V30 41480 N 3861.86 -4.61602 0.384453 0
M  V30 41481 C 3862.6 -5.70355 0.5901 0
M  V30 41482 N 3862.09 -6.87472 0.857526 0
M  V30 41483 N 3863.89 -5.59666 0.522532 0
M  V30 41484 H 3856.04 -1.77187 1.17127 0
M  V30 41485 H 3858.3 -0.823588 0.469474 0
M  V30 41486 H 3858.01 -3.30486 1.20298 0
M  V30 41487 H 3857.88 -3.73973 -0.492364 0
M  V30 41488 H 3860.27 -2.82102 -0.866172 0
M  V30 41489 H 3860.35 -2.41149 0.853289 0
M  V30 41490 H 3859.99 -4.87255 1.43334 0
M  V30 41491 H 3859.92 -5.25717 -0.304757 0
M  V30 41492 H 3862.41 -3.77445 0.185456 0
M  V30 41493 H 3862.73 -7.6627 1.00254 0
M  V30 41494 H 3861.07 -6.89217 0.894721 0
M  V30 41495 H 3864.26 -4.67047 0.313836 0
M  V30 41496 H 3864.43 -6.44356 0.686207 0
M  V30 41497 N 3857.84 0.0517601 -1.57515 0
M  V30 41498 C 3858.77 1.05926 -2.08091 0
M  V30 41499 C 3859.75 1.39134 -0.978553 0
M  V30 41500 O 3860.94 1.48414 -1.25248 0
M  V30 41501 C 3858.07 2.36695 -2.54151 0
M  V30 41502 C 3857.02 2.17788 -3.68446 0
M  V30 41503 C 3856.35 3.54117 -4.00631 0
M  V30 41504 C 3857.65 1.58262 -4.97745 0
M  V30 41505 H 3859.34 0.638319 -2.92516 0
M  V30 41506 H 3856.89 0.3056 -1.4072 0
M  V30 41507 H 3858.84 3.07486 -2.8815 0
M  V30 41508 H 3857.56 2.80806 -1.6678 0
M  V30 41509 H 3856.22 1.49434 -3.34761 0
M  V30 41510 H 3855.87 3.95835 -3.1036 0
M  V30 41511 H 3855.57 3.423 -4.77603 0
M  V30 41512 H 3857.09 4.26307 -4.37144 0
M  V30 41513 H 3858.51 2.18942 -5.29847 0
M  V30 41514 H 3856.91 1.57084 -5.79176 0
M  V30 41515 H 3857.98 0.546042 -4.81816 0
M  V30 41516 N 3859.32 1.54242 0.323587 0
M  V30 41517 C 3860.23 1.86649 1.42125 0
M  V30 41518 C 3861.25 0.758413 1.56602 0
M  V30 41519 O 3862.42 1.0527 1.71698 0
M  V30 41520 C 3859.49 2.08714 2.76838 0
M  V30 41521 C 3858.55 3.32515 2.71537 0
M  V30 41522 C 3857.78 3.53517 3.99826 0
M  V30 41523 O 3858 2.7796 4.98091 0
M  V30 41524 O 3856.94 4.46995 4.03087 0
M  V30 41525 H 3860.76 2.79987 1.17649 0
M  V30 41526 H 3858.35 1.40147 0.517608 0
M  V30 41527 H 3860.23 2.24557 3.56584 0
M  V30 41528 H 3858.91 1.18564 3.01205 0
M  V30 41529 H 3857.81 3.22057 1.90343 0
M  V30 41530 H 3859.15 4.22722 2.52125 0
M  V30 41531 N 3860.8 -0.585648 1.46314 0
M  V30 41532 C 3862.02 -1.37493 1.55275 0
M  V30 41533 C 3862.45 -1.87102 0.193514 0
M  V30 41534 O 3861.81 -1.61399 -0.825831 0
M  V30 41535 C 3861.85 -2.54047 2.55915 0
M  V30 41536 O 3860.96 -3.55391 2.09215 0
M  V30 41537 H 3860.3 -0.409589 0.522621 0
M  V30 41538 H 3862.83 -0.710663 1.91861 0
M  V30 41539 H 3862.84 -3.01003 2.75429 0
M  V30 41540 H 3861.51 -2.17292 3.54622 0
M  V30 41541 H 3860.09 -3.14935 1.99676 0
M  V30 41542 N 3862.28 -1.33971 -0.830033 0
M  V30 41543 C 3863.52 -1.26113 -1.58818 0
M  V30 41544 C 3863.85 0.17045 -1.93451 0
M  V30 41545 O 3863.13 1.11404 -1.59435 0
M  V30 41546 C 3863.41 -2.14506 -2.89239 0
M  V30 41547 C 3863.27 -3.66166 -2.61232 0
M  V30 41548 C 3864.58 -2.02493 -3.90749 0
M  V30 41549 H 3861.7 -0.459465 -0.576247 0
M  V30 41550 H 3864.35 -1.64156 -0.956707 0
M  V30 41551 H 3862.5 -1.82192 -3.4313 0
M  V30 41552 H 3864.17 -4.08812 -2.13706 0
M  V30 41553 H 3862.41 -3.87607 -1.94789 0
M  V30 41554 H 3863.08 -4.23371 -3.54204 0
M  V30 41555 H 3865.56 -2.3085 -3.4619 0
M  V30 41556 H 3864.43 -2.66578 -4.7982 0
M  V30 41557 H 3864.69 -0.99978 -4.30647 0
M  V30 41558 N 3863.75 1.04937 -1.17584 0
M  V30 41559 C 3865 1.78248 -0.96724 0
M  V30 41560 C 3865.33 1.87581 0.502678 0
M  V30 41561 O 3864.61 1.37748 1.37316 0
M  V30 41562 C 3864.89 3.21999 -1.61211 0
M  V30 41563 C 3864.74 3.20662 -3.1543 0
M  V30 41564 C 3866.06 4.19897 -1.31812 0
M  V30 41565 H 3863.18 0.64707 -0.352802 0
M  V30 41566 H 3865.82 1.22637 -1.45121 0
M  V30 41567 H 3863.97 3.69484 -1.20058 0
M  V30 41568 H 3865.65 2.81233 -3.65658 0
M  V30 41569 H 3863.89 2.58932 -3.48047 0
M  V30 41570 H 3864.56 4.22131 -3.55681 0
M  V30 41571 H 3867.04 3.80919 -1.67452 0
M  V30 41572 H 3865.91 5.18716 -1.79514 0
M  V30 41573 H 3866.17 4.41451 -0.239382 0
M  V30 41574 N 3865.23 0.976485 1.23703 0
M  V30 41575 C 3866.48 0.638747 1.91319 0
M  V30 41576 C 3866.79 -0.830961 1.77072 0
M  V30 41577 O 3868 -1.2796 2.39455 0
M  V30 41578 C 3866.46 1.09184 3.42939 0
M  V30 41579 C 3866.06 2.58561 3.65855 0
M  V30 41580 C 3867.81 0.827658 4.16353 0
M  V30 41581 C 3865.71 2.97558 5.1109 0
M  V30 41582 H 3864.64 0.235199 0.716378 0
M  V30 41583 H 3867.3 1.18386 1.40203 0
M  V30 41584 H 3865.68 0.474962 3.93141 0
M  V30 41585 H 3866.85 3.25454 3.26215 0
M  V30 41586 H 3865.17 2.82684 3.05743 0
M  V30 41587 H 3867.76 1.09491 5.2337 0
M  V30 41588 H 3868.11 -0.236209 4.15629 0
M  V30 41589 H 3868.64 1.40592 3.72127 0
M  V30 41590 H 3865.38 4.03052 5.16943 0
M  V30 41591 H 3864.9 2.35356 5.51695 0
M  V30 41592 H 3866.58 2.87947 5.79392 0
M  V30 41593 N 3866.71 -1.38737 0.747659 0
M  V30 41594 C 3867.64 -2.3313 0.131358 0
M  V30 41595 C 3868.62 -1.54564 -0.710202 0
M  V30 41596 O 3869.81 -1.82906 -0.652599 0
M  V30 41597 C 3866.94 -3.38722 -0.767108 0
M  V30 41598 C 3865.89 -4.2799 -0.0287371 0
M  V30 41599 C 3865.22 -5.24388 -1.04506 0
M  V30 41600 C 3866.52 -5.09793 1.13617 0
M  V30 41601 H 3868.21 -2.84919 0.91986 0
M  V30 41602 H 3865.76 -1.36991 0.443788 0
M  V30 41603 H 3867.71 -4.03718 -1.20789 0
M  V30 41604 H 3866.43 -2.85402 -1.58787 0
M  V30 41605 H 3865.09 -3.64492 0.392555 0
M  V30 41606 H 3864.74 -4.67358 -1.85972 0
M  V30 41607 H 3864.44 -5.84966 -0.55571 0
M  V30 41608 H 3865.96 -5.9226 -1.48528 0
M  V30 41609 H 3867.38 -5.68062 0.773229 0
M  V30 41610 H 3865.77 -5.79576 1.55599 0
M  V30 41611 H 3866.84 -4.43879 1.9519 0
M  V30 41612 N 3868.19 -0.496268 -1.49583 0
M  V30 41613 C 3869.41 0.0490621 -2.07342 0
M  V30 41614 C 3869.84 1.30491 -1.35476 0
M  V30 41615 O 3869.2 1.76602 -0.410036 0
M  V30 41616 C 3869.24 0.290538 -3.59428 0
M  V30 41617 O 3868.35 1.36619 -3.89113 0
M  V30 41618 H 3867.69 -0.0241258 -0.663562 0
M  V30 41619 H 3870.22 -0.694534 -1.92451 0
M  V30 41620 H 3870.23 0.523478 -4.04628 0
M  V30 41621 H 3868.9 -0.627031 -4.11146 0
M  V30 41622 H 3867.48 1.11858 -3.55728 0
M  V30 41623 N 3869.67 1.55914 -0.2299 0
M  V30 41624 C 3870.89 2.02914 0.404154 0
M  V30 41625 C 3871.31 1.10955 1.52756 0
M  V30 41626 O 3870.67 0.120717 1.821 0
M  V30 41627 C 3870.72 3.49387 0.927955 0
M  V30 41628 O 3870.44 4.37841 -0.150669 0
M  V30 41629 C 3871.94 4.1207 1.63441 0
M  V30 41630 H 3869.16 0.663802 0.0980177 0
M  V30 41631 H 3871.7 2.01504 -0.348796 0
M  V30 41632 H 3869.86 3.51386 1.63114 0
M  V30 41633 H 3870.27 5.23931 0.244337 0
M  V30 41634 H 3871.75 5.16303 1.95283 0
M  V30 41635 H 3872.22 3.57557 2.55048 0
M  V30 41636 H 3872.83 4.13944 0.97622 0
M  V30 41637 N 3871.14 -0.043406 1.5754 0
M  V30 41638 C 3872.37 -0.749234 1.92858 0
M  V30 41639 C 3872.79 -1.69654 0.828434 0
M  V30 41640 O 3872.14 -1.81442 -0.196262 0
M  V30 41641 C 3872.19 -1.51863 3.28055 0
M  V30 41642 O 3871.92 -0.609366 4.33841 0
M  V30 41643 C 3873.42 -2.32291 3.77566 0
M  V30 41644 H 3870.64 -0.211421 0.636822 0
M  V30 41645 H 3873.18 -0.00520524 2.04499 0
M  V30 41646 H 3871.34 -2.21467 3.17854 0
M  V30 41647 H 3871.75 -1.14741 5.11796 0
M  V30 41648 H 3873.22 -2.81691 4.74715 0
M  V30 41649 H 3873.7 -3.13081 3.08021 0
M  V30 41650 H 3874.31 -1.67789 3.90803 0
M  V30 41651 N 3872.62 -1.54412 -0.315402 0
M  V30 41652 C 3873.87 -1.72218 -1.04994 0
M  V30 41653 C 3874.18 -0.50721 -1.88909 0
M  V30 41654 O 3875.39 -0.566785 -2.65518 0
M  V30 41655 C 3873.85 -3.04642 -1.91628 0
M  V30 41656 C 3873.45 -4.33571 -1.12784 0
M  V30 41657 C 3875.2 -3.31811 -2.64768 0
M  V30 41658 C 3873.1 -5.57052 -1.98611 0
M  V30 41659 H 3872.03 -0.641821 -0.395705 0
M  V30 41660 H 3874.69 -1.80902 -0.307717 0
M  V30 41661 H 3873.07 -2.89887 -2.69781 0
M  V30 41662 H 3874.24 -4.59117 -0.393454 0
M  V30 41663 H 3872.56 -4.13229 -0.512902 0
M  V30 41664 H 3875.15 -4.21262 -3.29305 0
M  V30 41665 H 3875.5 -2.50048 -3.32839 0
M  V30 41666 H 3876.03 -3.47471 -1.93672 0
M  V30 41667 H 3872.77 -6.4144 -1.35035 0
M  V30 41668 H 3872.29 -5.35713 -2.69762 0
M  V30 41669 H 3873.97 -5.93766 -2.57003 0
M  V30 41670 N 3874.1 0.57788 -1.46623 0
M  V30 41671 C 3875.33 1.35985 -1.55536 0
M  V30 41672 C 3875.74 1.88171 -0.197098 0
M  V30 41673 O 3875.08 1.64553 0.81658 0
M  V30 41674 C 3875.14 2.57998 -2.50354 0
M  V30 41675 C 3874.81 2.27246 -3.96495 0
M  V30 41676 C 3875.8 1.85788 -4.85571 0
M  V30 41677 C 3873.49 2.39241 -4.41666 0
M  V30 41678 C 3875.48 1.56727 -6.17831 0
M  V30 41679 C 3873.17 2.09793 -5.7396 0
M  V30 41680 C 3874.17 1.68601 -6.61863 0
M  V30 41681 O 3873.86 1.39516 -7.91701 0
M  V30 41682 H 3873.59 0.421603 -0.528419 0
M  V30 41683 H 3876.14 0.709004 -1.92775 0
M  V30 41684 H 3874.37 3.25904 -2.08143 0
M  V30 41685 H 3876.06 3.20069 -2.49621 0
M  V30 41686 H 3876.83 1.76031 -4.51927 0
M  V30 41687 H 3872.71 2.70265 -3.73467 0
M  V30 41688 H 3876.25 1.24502 -6.864 0
M  V30 41689 H 3872.15 2.19176 -6.07151 0
M  V30 41690 H 3872.92 1.53321 -8.04012 0
M  V30 41691 N 3875.58 1.34409 0.822917 0
M  V30 41692 C 3876.53 1.25985 1.93381 0
M  V30 41693 C 3877.5 0.135089 1.6555 0
M  V30 41694 O 3878.68 0.316066 1.88164 0
M  V30 41695 C 3875.82 1.02122 3.29644 0
M  V30 41696 C 3874.93 2.23373 3.69768 0
M  V30 41697 C 3874.07 1.92793 4.94979 0
M  V30 41698 C 3873.11 3.10187 5.27684 0
M  V30 41699 N 3872.24 2.7949 6.44073 0
M  V30 41700 H 3877.08 2.2099 1.99918 0
M  V30 41701 H 3874.62 1.09872 0.978086 0
M  V30 41702 H 3876.58 0.863246 4.08171 0
M  V30 41703 H 3875.21 0.10786 3.2262 0
M  V30 41704 H 3874.26 2.50091 2.86633 0
M  V30 41705 H 3875.57 3.11083 3.89909 0
M  V30 41706 H 3874.73 1.73731 5.81294 0
M  V30 41707 H 3873.47 1.02343 4.76841 0
M  V30 41708 H 3872.47 3.29844 4.39867 0
M  V30 41709 H 3873.7 4.01415 5.47762 0
M  V30 41710 H 3871.64 1.91616 6.27391 0
M  V30 41711 H 3871.56 3.60733 6.64385 0
M  V30 41712 H 3872.83 2.63932 7.33458 0
M  V30 41713 N 3877.06 -1.04312 1.18139 0
M  V30 41714 C 3878.28 -1.81126 1.00005 0
M  V30 41715 C 3878.7 -1.8332 -0.451576 0
M  V30 41716 O 3878.06 -1.26687 -1.31365 0
M  V30 41717 C 3878.11 -3.2684 1.5446 0
M  V30 41718 O 3877.83 -3.24856 2.93939 0
M  V30 41719 C 3879.33 -4.20309 1.40909 0
M  V30 41720 H 3876.55 -0.570468 0.35328 0
M  V30 41721 H 3879.09 -1.3148 1.56631 0
M  V30 41722 H 3877.25 -3.73727 1.02015 0
M  V30 41723 H 3877.66 -4.16121 3.19286 0
M  V30 41724 H 3879.14 -5.20497 1.83812 0
M  V30 41725 H 3879.61 -4.37743 0.357448 0
M  V30 41726 H 3880.22 -3.79285 1.92414 0
M  V30 41727 N 3878.53 -0.983032 -1.23184 0
M  V30 41728 C 3879.76 -0.670514 -1.95417 0
M  V30 41729 C 3880.17 0.767105 -1.72951 0
M  V30 41730 O 3879.52 1.52814 -1.01948 0
M  V30 41731 C 3879.58 -0.884305 -3.48454 0
M  V30 41732 C 3879.24 -2.3045 -3.94641 0
M  V30 41733 C 3880.24 -3.28336 -4.03103 0
M  V30 41734 C 3877.92 -2.63629 -4.27557 0
M  V30 41735 C 3879.92 -4.57479 -4.43837 0
M  V30 41736 C 3877.6 -3.92995 -4.67972 0
M  V30 41737 C 3878.6 -4.89732 -4.7608 0
M  V30 41738 O 3878.29 -6.16787 -5.15586 0
M  V30 41739 H 3878.02 -0.247935 -0.628891 0
M  V30 41740 H 3880.58 -1.31777 -1.57556 0
M  V30 41741 H 3878.81 -0.179877 -3.86281 0
M  V30 41742 H 3880.5 -0.568546 -4.01898 0
M  V30 41743 H 3881.26 -3.04033 -3.77874 0
M  V30 41744 H 3877.14 -1.89043 -4.20457 0
M  V30 41745 H 3880.68 -5.32986 -4.5008 0
M  V30 41746 H 3876.58 -4.17092 -4.92651 0
M  V30 41747 H 3877.35 -6.20578 -5.3369 0
M  V30 41748 N 3880.01 1.38338 -0.755006 0
M  V30 41749 C 3880.94 2.33057 -0.143719 0
M  V30 41750 C 3881.92 1.54939 0.701995 0
M  V30 41751 O 3883.11 1.8325 0.64289 0
M  V30 41752 C 3880.24 3.39124 0.749134 0
M  V30 41753 C 3879.19 4.28 0.00603936 0
M  V30 41754 C 3878.52 5.24935 1.01724 0
M  V30 41755 C 3879.82 5.09183 -1.16319 0
M  V30 41756 H 3881.51 2.84427 -0.934957 0
M  V30 41757 H 3879.06 1.36754 -0.451047 0
M  V30 41758 H 3881.01 4.04353 1.18646 0
M  V30 41759 H 3879.74 2.8624 1.57271 0
M  V30 41760 H 3878.39 3.64279 -0.41188 0
M  V30 41761 H 3878.04 4.68337 1.83491 0
M  V30 41762 H 3877.74 5.85253 0.52468 0
M  V30 41763 H 3879.27 5.93039 1.45385 0
M  V30 41764 H 3880.68 5.67644 -0.803344 0
M  V30 41765 H 3879.08 5.78743 -1.58671 0
M  V30 41766 H 3880.15 4.42838 -1.97541 0
M  V30 41767 N 3881.49 0.504194 1.49317 0
M  V30 41768 C 3882.72 -0.0380656 2.07365 0
M  V30 41769 C 3883.14 -1.29771 1.36166 0
M  V30 41770 O 3882.5 -1.76382 0.419396 0
M  V30 41771 C 3882.55 -0.271472 3.59577 0
M  V30 41772 O 3881.65 -1.34554 3.89832 0
M  V30 41773 H 3880.99 0.0276445 0.663424 0
M  V30 41774 H 3883.52 0.70473 1.9208 0
M  V30 41775 H 3883.53 -0.502012 4.049 0
M  V30 41776 H 3882.21 0.648827 4.10808 0
M  V30 41777 H 3880.78 -1.0997 3.56316 0
M  V30 41778 N 3882.97 -1.5579 0.238166 0
M  V30 41779 C 3884.22 -1.97905 -0.389439 0
M  V30 41780 C 3884.53 -1.12933 -1.59705 0
M  V30 41781 O 3885.74 -1.45021 -2.29524 0
M  V30 41782 C 3884.19 -3.5212 -0.744257 0
M  V30 41783 C 3883.8 -4.4582 0.441466 0
M  V30 41784 C 3885.54 -4.02911 -1.33654 0
M  V30 41785 C 3883.45 -5.91366 0.063288 0
M  V30 41786 H 3882.38 -0.739075 -0.149278 0
M  V30 41787 H 3885.03 -1.80379 0.337004 0
M  V30 41788 H 3883.41 -3.65308 -1.52858 0
M  V30 41789 H 3884.59 -4.44387 1.21889 0
M  V30 41790 H 3882.9 -4.05463 0.948088 0
M  V30 41791 H 3885.5 -5.09164 -1.63267 0
M  V30 41792 H 3885.84 -3.4974 -2.25804 0
M  V30 41793 H 3886.38 -3.93013 -0.615297 0
M  V30 41794 H 3883.12 -6.48555 0.951698 0
M  V30 41795 H 3882.64 -5.95954 -0.678111 0
M  V30 41796 H 3884.31 -6.46011 -0.357598 0
M  V30 41797 N 3884.45 0.0350506 -1.57561 0
M  V30 41798 C 3885.86 0.39059 -1.54747 0
M  V30 41799 C 3886.06 1.76972 -0.963485 0
M  V30 41800 O 3885.12 2.45703 -0.581921 0
M  V30 41801 C 3886.43 0.297931 -2.9922 0
M  V30 41802 C 3887.98 0.375451 -3.1074 0
M  V30 41803 C 3888.45 0.312306 -4.56934 0
M  V30 41804 N 3889.95 0.371283 -4.6171 0
M  V30 41805 C 3890.68 0.345219 -5.7236 0
M  V30 41806 N 3890.18 0.271799 -6.92267 0
M  V30 41807 N 3891.97 0.394506 -5.60714 0
M  V30 41808 H 3884.12 -0.867553 -1.93874 0
M  V30 41809 H 3886.38 -0.3293 -0.888969 0
M  V30 41810 H 3886.09 -0.64956 -3.4565 0
M  V30 41811 H 3885.96 1.09394 -3.60989 0
M  V30 41812 H 3888.35 1.31337 -2.64262 0
M  V30 41813 H 3888.43 -0.449796 -2.51814 0
M  V30 41814 H 3888.08 -0.621923 -5.04078 0
M  V30 41815 H 3888.01 1.15558 -5.13764 0
M  V30 41816 H 3890.5 0.430782 -3.75437 0
M  V30 41817 H 3890.81 0.256848 -7.72373 0
M  V30 41818 H 3889.15 0.237936 -6.94593 0
M  V30 41819 H 3892.35 0.449814 -4.65934 0
M  V30 41820 H 3892.52 0.370726 -6.46939 0
M  V30 41821 N 3885.92 1.54577 0.307209 0
M  V30 41822 C 3886.87 1.85098 1.37867 0
M  V30 41823 C 3887.84 0.699376 1.50658 0
M  V30 41824 O 3889.03 0.947402 1.65617 0
M  V30 41825 C 3886.17 2.0984 2.73973 0
M  V30 41826 C 3885.28 3.37485 2.69681 0
M  V30 41827 C 3884.41 3.52103 3.9774 0
M  V30 41828 C 3883.45 4.73562 3.87821 0
M  V30 41829 N 3882.59 4.85019 5.07643 0
M  V30 41830 H 3887.43 2.765 1.11139 0
M  V30 41831 H 3884.97 1.36921 0.537672 0
M  V30 41832 H 3886.93 2.2218 3.53117 0
M  V30 41833 H 3885.56 1.21712 2.98975 0
M  V30 41834 H 3884.61 3.33799 1.82435 0
M  V30 41835 H 3885.92 4.26748 2.5824 0
M  V30 41836 H 3885.07 3.64073 4.8532 0
M  V30 41837 H 3883.81 2.60962 4.12008 0
M  V30 41838 H 3882.82 4.61631 2.98625 0
M  V30 41839 H 3884.04 5.66104 3.75104 0
M  V30 41840 H 3881.99 3.96799 5.22386 0
M  V30 41841 H 3881.91 5.68273 4.986 0
M  V30 41842 H 3883.17 5.01339 5.96892 0
M  V30 41843 N 3887.4 -0.570096 1.46927 0
M  V30 41844 C 3888.65 -1.3252 1.52587 0
M  V30 41845 C 3888.97 -1.94127 0.184325 0
M  V30 41846 O 3888.24 -1.79245 -0.790446 0
M  V30 41847 H 3886.82 -0.492071 0.562027 0
M  V30 41848 H 3889.48 -0.666714 1.83142 0
M  V30 41849 H 3888.58 -2.12541 2.28545 0
M  V30 41850 N 3888.88 -1.34844 -0.815777 0
M  V30 41851 C 3889.83 -1.27009 -1.9271 0
M  V30 41852 C 3890.8 -0.143867 -1.65476 0
M  V30 41853 O 3891.98 -0.32604 -1.87994 0
M  V30 41854 C 3889.12 -1.03869 -3.29098 0
M  V30 41855 C 3888.24 -2.2533 -3.68579 0
M  V30 41856 C 3887.37 -1.95415 -4.9395 0
M  V30 41857 C 3886.41 -3.12981 -5.26032 0
M  V30 41858 N 3885.55 -2.82902 -6.42581 0
M  V30 41859 H 3890.39 -2.22047 -1.98743 0
M  V30 41860 H 3887.92 -1.10389 -0.972245 0
M  V30 41861 H 3889.88 -0.884881 -4.07708 0
M  V30 41862 H 3888.51 -0.124967 -3.22558 0
M  V30 41863 H 3887.56 -2.51608 -2.85303 0
M  V30 41864 H 3888.88 -3.13147 -3.88253 0
M  V30 41865 H 3888.03 -1.76812 -5.80364 0
M  V30 41866 H 3886.77 -1.0487 -4.76291 0
M  V30 41867 H 3885.77 -3.32172 -4.38111 0
M  V30 41868 H 3887 -4.04314 -5.45625 0
M  V30 41869 H 3884.95 -1.94941 -6.26366 0
M  V30 41870 H 3884.86 -3.64251 -6.62463 0
M  V30 41871 H 3886.13 -2.67818 -7.32048 0
M  V30 41872 N 3890.36 1.03684 -1.1869 0
M  V30 41873 C 3891.58 1.81131 -1.01027 0
M  V30 41874 C 3892.01 1.82964 0.436551 0
M  V30 41875 O 3891.37 1.24977 1.31341 0
M  V30 41876 C 3891.42 3.24422 -1.57426 0
M  V30 41877 O 3890.52 4.04602 -0.798201 0
M  V30 41878 H 3889.86 0.559459 -0.357633 0
M  V30 41879 H 3892.39 1.30553 -1.57534 0
M  V30 41880 H 3892.4 3.7519 -1.60302 0
M  V30 41881 H 3891.08 3.22402 -2.62735 0
M  V30 41882 H 3889.65 3.63268 -0.842064 0
M  V30 41883 N 3891.84 0.989551 1.22661 0
M  V30 41884 C 3893.11 0.579599 1.86815 0
M  V30 41885 C 3893.49 -0.943155 1.88859 0
M  V30 41886 O 3892.84 -1.8237 1.37672 0
M  V30 41887 C 3893.05 1.19618 3.27861 0
M  V30 41888 C 3894.4 1.29462 4.04382 0
M  V30 41889 O 3895.42 1.15032 3.37114 0
M  V30 41890 O 3894.28 1.52517 5.24786 0
M  V30 41891 H 3891.38 0.196448 0.803329 0
M  V30 41892 H 3893.92 1.08522 1.30465 0
M  V30 41893 H 3892.7 2.2379 3.20989 0
M  V30 41894 H 3892.32 0.675944 3.91812 0
M  V30 41895 N 3893.32 -1.37936 0.762332 0
M  V30 41896 C 3894.56 -1.99522 0.321767 0
M  V30 41897 C 3894.88 -1.60818 -1.10284 0
M  V30 41898 O 3894.15 -0.869148 -1.75564 0
M  V30 41899 H 3892.73 -0.737941 0.11598 0
M  V30 41900 H 3895.4 -1.68564 0.978368 0
M  V30 41901 H 3894.49 -3.0963 0.391873 0
M  V30 41902 N 3894.79 -0.512106 -1.49048 0
M  V30 41903 C 3895.72 0.249488 -2.32163 0
M  V30 41904 C 3896.7 0.952089 -1.40958 0
M  V30 41905 O 3897.89 0.941341 -1.6986 0
M  V30 41906 C 3895.02 1.3077 -3.2174 0
M  V30 41907 C 3893.97 0.724318 -4.21827 0
M  V30 41908 C 3893.3 1.88387 -5.00414 0
M  V30 41909 C 3894.6 -0.292067 -5.21483 0
M  V30 41910 H 3896.29 -0.444305 -2.96085 0
M  V30 41911 H 3893.84 -0.215118 -1.42384 0
M  V30 41912 H 3895.79 1.8483 -3.78703 0
M  V30 41913 H 3894.52 2.03083 -2.55783 0
M  V30 41914 H 3893.18 0.205377 -3.66024 0
M  V30 41915 H 3892.82 2.59495 -4.30896 0
M  V30 41916 H 3892.52 1.49954 -5.68144 0
M  V30 41917 H 3894.05 2.4286 -5.60225 0
M  V30 41918 H 3895.46 0.160798 -5.73074 0
M  V30 41919 H 3893.86 -0.592822 -5.97165 0
M  V30 41920 H 3894.93 -1.20412 -4.69712 0
M  V30 41921 N 3896.27 1.55662 -0.246424 0
M  V30 41922 C 3897.2 2.24342 0.647523 0
M  V30 41923 C 3898.18 1.22354 1.18168 0
M  V30 41924 O 3899.37 1.51005 1.22111 0
M  V30 41925 C 3896.5 2.94253 1.8448 0
M  V30 41926 C 3895.45 4.02926 1.44343 0
M  V30 41927 C 3894.78 4.60259 2.7215 0
M  V30 41928 C 3896.08 5.18668 0.61486 0
M  V30 41929 H 3897.77 2.99306 0.0748277 0
M  V30 41930 H 3895.32 1.43959 0.0345497 0
M  V30 41931 H 3897.27 3.41 2.47582 0
M  V30 41932 H 3895.99 2.16776 2.44286 0
M  V30 41933 H 3894.65 3.56947 0.835748 0
M  V30 41934 H 3894.3 3.79484 3.30153 0
M  V30 41935 H 3894 5.33618 2.46018 0
M  V30 41936 H 3895.53 5.0974 3.36152 0
M  V30 41937 H 3896.94 5.61644 1.15018 0
M  V30 41938 H 3895.34 5.98413 0.449624 0
M  V30 41939 H 3896.41 4.83463 -0.373028 0
M  V30 41940 N 3897.75 -0.0266943 1.57577 0
M  V30 41941 C 3899 -0.715612 1.89006 0
M  V30 41942 C 3899.32 -1.75769 0.844419 0
M  V30 41943 O 3898.59 -1.95522 -0.121659 0
M  V30 41944 H 3897.17 -0.267296 0.69754 0
M  V30 41945 H 3899.83 0.00791522 1.94898 0
M  V30 41946 H 3898.93 -1.20369 2.87954 0
M  V30 41947 N 3899.23 -1.54738 -0.299007 0
M  V30 41948 C 3900.46 -1.78107 -1.05287 0
M  V30 41949 C 3900.87 -0.541531 -1.80867 0
M  V30 41950 O 3900.23 0.488695 -1.75835 0
M  V30 41951 C 3900.28 -2.98994 -2.03187 0
M  V30 41952 O 3900 -4.18158 -1.30673 0
M  V30 41953 C 3901.5 -3.34767 -2.90596 0
M  V30 41954 H 3898.72 -0.593966 -0.312162 0
M  V30 41955 H 3901.26 -2.01693 -0.337676 0
M  V30 41956 H 3899.42 -2.7761 -2.70206 0
M  V30 41957 H 3899.83 -4.86326 -1.96437 0
M  V30 41958 H 3901.31 -4.2259 -3.55136 0
M  V30 41959 H 3901.78 -2.5301 -3.59002 0
M  V30 41960 H 3902.39 -3.58317 -2.29105 0
M  V30 41961 N 3900.71 0.562296 -1.47228 0
M  V30 41962 C 3901.95 1.31709 -1.53288 0
M  V30 41963 C 3902.27 1.94026 -0.194617 0
M  V30 41964 O 3901.54 1.79662 0.780929 0
M  V30 41965 H 3900.12 0.489084 -0.564629 0
M  V30 41966 H 3902.79 0.656992 -1.83493 0
M  V30 41967 H 3901.88 2.11326 -2.29669 0
M  V30 41968 N 3902.18 1.35274 0.808615 0
M  V30 41969 C 3903.43 1.2777 1.56069 0
M  V30 41970 C 3903.75 -0.146511 1.95051 0
M  V30 41971 O 3904.95 -0.343808 2.69314 0
M  V30 41972 C 3903.41 2.24064 2.81644 0
M  V30 41973 C 3903.02 3.7182 2.49908 0
M  V30 41974 C 3904.76 2.25498 3.59654 0
M  V30 41975 C 3902.67 4.59942 3.71762 0
M  V30 41976 H 3901.6 0.474712 0.585803 0
M  V30 41977 H 3904.25 1.60526 0.889023 0
M  V30 41978 H 3902.63 1.84277 3.50511 0
M  V30 41979 H 3903.8 4.20229 1.89061 0
M  V30 41980 H 3902.12 3.72974 1.85147 0
M  V30 41981 H 3904.72 2.88553 4.50157 0
M  V30 41982 H 3905.06 1.25816 3.96832 0
M  V30 41983 H 3905.59 2.63803 2.97746 0
M  V30 41984 H 3902.33 5.60614 3.39694 0
M  V30 41985 H 3901.85 4.1626 4.31842 0
M  V30 41986 H 3903.53 4.75264 4.39014 0
M  V30 41987 N 3903.66 -1.03053 1.19239 0
M  V30 41988 C 3904.89 -1.80592 1.01986 0
M  V30 41989 C 3905.31 -1.83193 -0.426842 0
M  V30 41990 O 3904.67 -1.25672 -1.30676 0
M  V30 41991 C 3904.72 -3.23582 1.59144 0
M  V30 41992 O 3903.82 -4.04173 0.819647 0
M  V30 41993 H 3903.16 -0.557555 0.360595 0
M  V30 41994 H 3905.69 -1.29716 1.58224 0
M  V30 41995 H 3905.7 -3.74334 1.62289 0
M  V30 41996 H 3904.38 -3.21004 2.64442 0
M  V30 41997 H 3902.96 -3.62816 0.861317 0
M  V30 41998 N 3905.14 -0.996042 -1.22134 0
M  V30 41999 C 3906.1 -0.554025 -2.22403 0
M  V30 42000 C 3907.1 0.364804 -1.56607 0
M  V30 42001 O 3908.29 0.156327 -1.73497 0
M  V30 42002 C 3905.43 0.193734 -3.40349 0
M  V30 42003 H 3906.62 -1.44079 -2.63023 0
M  V30 42004 H 3904.17 -0.783584 -1.35239 0
M  V30 42005 H 3904.91 1.09635 -3.05206 0
M  V30 42006 H 3904.69 -0.46604 -3.89321 0
M  V30 42007 H 3906.18 0.491048 -4.14703 0
M  V30 42008 N 3906.62 1.37529 -0.769636 0
M  V30 42009 C 3907.58 2.28636 -0.160756 0
M  V30 42010 C 3908.58 1.4793 0.630336 0
M  V30 42011 O 3909.77 1.68174 0.454236 0
M  V30 42012 C 3906.9 3.3186 0.779846 0
M  V30 42013 H 3908.1 2.8399 -0.963844 0
M  V30 42014 H 3905.65 1.4676 -0.537704 0
M  V30 42015 H 3906.38 2.81626 1.60802 0
M  V30 42016 H 3906.17 3.91511 0.214781 0
M  V30 42017 H 3907.66 3.99947 1.20136 0
M  V30 42018 N 3908.1 0.520003 1.48774 0
M  V30 42019 C 3909.03 -0.295255 2.26282 0
M  V30 42020 C 3910.01 -0.953672 1.31696 0
M  V30 42021 O 3911.19 -0.980035 1.6102 0
M  V30 42022 C 3908.32 -1.41732 3.07619 0
M  V30 42023 C 3907.36 -0.871338 4.17504 0
M  V30 42024 S 3908.2 0.252939 5.34902 0
M  V30 42025 C 3909.35 -0.87184 6.19798 0
M  V30 42026 H 3909.59 0.36255 2.95081 0
M  V30 42027 H 3907.12 0.305613 1.51345 0
M  V30 42028 H 3909.08 -2.06014 3.55061 0
M  V30 42029 H 3907.74 -2.04681 2.38253 0
M  V30 42030 H 3906.93 -1.7128 4.74003 0
M  V30 42031 H 3906.53 -0.305398 3.72751 0
M  V30 42032 H 3908.83 -1.77279 6.53895 0
M  V30 42033 H 3909.77 -0.345049 7.07259 0
M  V30 42034 H 3910.18 -1.14774 5.52709 0
M  V30 42035 N 3909.57 -1.55529 0.254676 0
M  V30 42036 C 3910.48 -2.25354 -0.652144 0
M  V30 42037 C 3911.5 -1.27232 -1.18693 0
M  V30 42038 O 3912.68 -1.60125 -1.22156 0
M  V30 42039 C 3909.74 -2.94534 -1.82895 0
M  V30 42040 C 3908.8 -4.08085 -1.33287 0
M  V30 42041 C 3908.04 -4.73957 -2.45358 0
M  V30 42042 O 3908.26 -4.3894 -3.64264 0
M  V30 42043 O 3907.19 -5.62315 -2.14675 0
M  V30 42044 H 3911.02 -3.03575 -0.0871253 0
M  V30 42045 H 3908.6 -1.49382 0.0228694 0
M  V30 42046 H 3910.49 -3.38081 -2.51554 0
M  V30 42047 H 3909.16 -2.19246 -2.38144 0
M  V30 42048 H 3908.07 -3.69038 -0.613331 0
M  V30 42049 H 3909.4 -4.85213 -0.826369 0
M  V30 42050 N 3911.05 0.0183372 -1.57589 0
M  V30 42051 C 3912.3 0.706072 -1.88938 0
M  V30 42052 C 3912.61 1.75943 -0.854596 0
M  V30 42053 O 3913.82 2.50051 -1.05767 0
M  V30 42054 C 3912.28 1.30694 -3.35331 0
M  V30 42055 C 3911.88 0.289366 -4.47065 0
M  V30 42056 C 3913.63 1.97393 -3.75814 0
M  V30 42057 C 3911.54 0.899186 -5.84524 0
M  V30 42058 H 3910.47 0.267474 -0.704964 0
M  V30 42059 H 3913.12 -0.0392008 -1.83458 0
M  V30 42060 H 3911.5 2.10227 -3.3559 0
M  V30 42061 H 3912.67 -0.480039 -4.58293 0
M  V30 42062 H 3910.99 -0.276139 -4.15483 0
M  V30 42063 H 3913.58 2.4389 -4.75838 0
M  V30 42064 H 3913.93 2.7967 -3.08367 0
M  V30 42065 H 3914.46 1.24619 -3.77776 0
M  V30 42066 H 3911.2 0.115595 -6.55398 0
M  V30 42067 H 3910.72 1.63818 -5.76995 0
M  V30 42068 H 3912.4 1.40333 -6.31598 0
M  V30 42069 N 3912.53 1.54894 0.290797 0
M  V30 42070 C 3913.46 1.89554 1.36351 0
M  V30 42071 C 3914.44 0.755487 1.52402 0
M  V30 42072 O 3915.63 1.01211 1.65741 0
M  V30 42073 C 3912.76 2.15183 2.72605 0
M  V30 42074 C 3911.71 3.31023 2.71307 0
M  V30 42075 C 3911.04 3.42092 4.10946 0
M  V30 42076 C 3912.34 4.67874 2.32145 0
M  V30 42077 H 3914.03 2.794 1.07592 0
M  V30 42078 H 3911.58 1.34432 0.516131 0
M  V30 42079 H 3913.53 2.38016 3.47745 0
M  V30 42080 H 3912.25 1.22118 3.02911 0
M  V30 42081 H 3910.91 3.0813 1.98625 0
M  V30 42082 H 3910.56 2.46526 4.38445 0
M  V30 42083 H 3910.26 4.19967 4.10976 0
M  V30 42084 H 3911.78 3.67198 4.87851 0
M  V30 42085 H 3913.2 4.90369 2.97003 0
M  V30 42086 H 3911.6 5.48535 2.4337 0
M  V30 42087 H 3912.67 4.679 1.27271 0
M  V30 42088 N 3914.01 -0.55448 1.47524 0
M  V30 42089 C 3915.23 -1.34169 1.58157 0
M  V30 42090 C 3915.66 -1.86649 0.233157 0
M  V30 42091 O 3915.02 -1.63115 -0.79141 0
M  V30 42092 C 3915.06 -2.48562 2.61246 0
M  V30 42093 O 3914.17 -3.50874 2.16706 0
M  V30 42094 H 3913.51 -0.398412 0.531191 0
M  V30 42095 H 3916.04 -0.669807 1.93325 0
M  V30 42096 H 3916.05 -2.95093 2.81752 0
M  V30 42097 H 3914.72 -2.09721 3.59152 0
M  V30 42098 H 3913.3 -3.10629 2.06311 0
M  V30 42099 N 3915.49 -1.35701 -0.80143 0
M  V30 42100 C 3916.42 -1.24903 -1.92177 0
M  V30 42101 C 3917.43 -0.17116 -1.61898 0
M  V30 42102 O 3918.62 -0.424871 -1.7337 0
M  V30 42103 C 3915.72 -0.901763 -3.26682 0
M  V30 42104 C 3914.89 -2.07906 -3.8483 0
M  V30 42105 C 3913.95 -1.70676 -4.97751 0
M  V30 42106 O 3912.98 -2.42615 -5.14905 0
M  V30 42107 N 3914.18 -0.633396 -5.77034 0
M  V30 42108 H 3916.95 -2.21427 -2.01966 0
M  V30 42109 H 3914.51 -1.28938 -0.979109 0
M  V30 42110 H 3916.5 -0.63409 -3.99702 0
M  V30 42111 H 3915.07 -0.0260385 -3.12589 0
M  V30 42112 H 3914.29 -2.51023 -3.03942 0
M  V30 42113 H 3915.58 -2.86588 -4.2041 0
M  V30 42114 H 3914.97 -0.0358072 -5.65689 0
M  V30 42115 H 3913.53 -0.425517 -6.5041 0
M  V30 42116 N 3916.96 1.02419 -1.19783 0
M  V30 42117 C 3917.91 2.12914 -0.936513 0
M  V30 42118 C 3918.91 1.69047 0.10938 0
M  V30 42119 O 3920.11 1.79955 -0.0402916 0
M  V30 42120 H 3916.49 0.695707 -0.285475 0
M  V30 42121 H 3918.46 2.32143 -1.87489 0
M  V30 42122 C 3917.21 3.44132 -0.496847 0
M  V30 42123 H 3916.53 3.78307 -1.2932 0
M  V30 42124 H 3917.97 4.22527 -0.353147 0
M  V30 42125 C 3916.43 3.27513 0.789735 0
M  V30 42126 O 3916.96 3.56563 1.85003 0
M  V30 42127 N 3915.17 2.80787 0.7488 0
M  V30 42128 H 3914.71 2.57346 -0.114301 0
M  V30 42129 H 3914.67 2.70049 1.61 0
M  V30 42130 N 3918.44 1.0025 1.21604 0
M  V30 42131 C 3919.85 0.717476 1.72363 0
M  V30 42132 C 3920.21 -0.765046 1.8067 0
M  V30 42133 O 3919.33 -1.5977 1.45954 0
M  V30 42134 C 3919.93 1.29573 3.13044 0
M  V30 42135 C 3918.48 1.05987 3.6117 0
M  V30 42136 C 3917.63 1.41007 2.38772 0
M  V30 42137 H 3920.58 1.17371 1.06816 0
M  V30 42138 H 3920.6 0.67912 3.7439 0
M  V30 42139 H 3920.12 2.37473 3.06966 0
M  V30 42140 H 3918.22 -0.00207758 3.726 0
M  V30 42141 H 3918.33 1.73001 4.46775 0
M  V30 42142 H 3916.69 0.828812 2.40838 0
M  V30 42143 H 3917.48 2.49932 2.35348 0
M  V30 42144 N 3919.92 -1.37119 0.776919 0
M  V30 42145 C 3921.17 -1.99859 0.344099 0
M  V30 42146 C 3921.5 -1.6153 -1.07803 0
M  V30 42147 O 3920.78 -0.863993 -1.74257 0
M  V30 42148 C 3921.06 -3.56701 0.493574 0
M  V30 42149 C 3920.91 -4.04923 1.95849 0
M  V30 42150 C 3922.23 -4.39989 -0.0990197 0
M  V30 42151 H 3919.35 -0.726062 0.126502 0
M  V30 42152 H 3921.99 -1.6272 0.980927 0
M  V30 42153 H 3920.14 -3.8847 -0.0485661 0
M  V30 42154 H 3921.81 -3.83698 2.56074 0
M  V30 42155 H 3920.06 -3.56925 2.4655 0
M  V30 42156 H 3920.73 -5.13943 2.01411 0
M  V30 42157 H 3923.2 -4.14508 0.363618 0
M  V30 42158 H 3922.08 -5.48888 0.0356713 0
M  V30 42159 H 3922.34 -4.25787 -1.18987 0
M  V30 42160 N 3921.4 -0.527886 -1.48496 0
M  V30 42161 C 3922.62 0.00507079 -2.07399 0
M  V30 42162 C 3923.05 1.27588 -1.38213 0
M  V30 42163 O 3922.41 1.75693 -0.447404 0
M  V30 42164 C 3922.46 0.214232 -3.59963 0
M  V30 42165 O 3921.56 1.28335 -3.91923 0
M  V30 42166 H 3920.9 -0.0381955 -0.662901 0
M  V30 42167 H 3923.43 -0.735199 -1.90934 0
M  V30 42168 H 3923.44 0.437532 -4.05647 0
M  V30 42169 H 3922.12 -0.7141 -4.09724 0
M  V30 42170 H 3920.69 1.04287 -3.5802 0
M  V30 42171 N 3922.88 1.55391 -0.26292 0
M  V30 42172 C 3924.12 1.99618 0.35786 0
M  V30 42173 C 3924.46 1.15102 1.56413 0
M  V30 42174 O 3923.73 0.218173 1.93272 0
M  V30 42175 C 3924.01 3.5216 0.752033 0
M  V30 42176 C 3923.87 4.47434 -0.460737 0
M  V30 42177 C 3925.19 4.10255 1.59306 0
M  V30 42178 H 3922.31 0.725694 0.1286 0
M  V30 42179 H 3924.95 1.86413 -0.367432 0
M  V30 42180 H 3923.1 3.63543 1.37 0
M  V30 42181 H 3924.77 4.48011 -1.09926 0
M  V30 42182 H 3923.01 4.19595 -1.101 0
M  V30 42183 H 3923.68 5.51819 -0.141359 0
M  V30 42184 H 3926.16 4.02073 1.07127 0
M  V30 42185 H 3925.04 5.17223 1.83769 0
M  V30 42186 H 3925.3 3.59716 2.57015 0
M  V30 42187 N 3924.36 -0.00997961 1.57597 0
M  V30 42188 C 3925.6 -0.695525 1.89755 0
M  V30 42189 C 3925.92 -1.74863 0.863014 0
M  V30 42190 O 3925.19 -1.9564 -0.100914 0
M  V30 42191 H 3923.77 -0.259883 0.700336 0
M  V30 42192 H 3926.44 0.0285864 1.94879 0
M  V30 42193 H 3925.53 -1.17308 2.89215 0
M  V30 42194 N 3925.83 -1.55046 -0.282578 0
M  V30 42195 C 3927.08 -1.74407 -1.01317 0
M  V30 42196 C 3927.4 -0.547166 -1.87791 0
M  V30 42197 O 3928.6 -0.622977 -2.64256 0
M  V30 42198 C 3927.06 -3.08638 -1.85123 0
M  V30 42199 C 3926.67 -4.35866 -1.03562 0
M  V30 42200 C 3928.41 -3.37352 -2.5767 0
M  V30 42201 C 3926.32 -5.6114 -1.86751 0
M  V30 42202 H 3925.25 -0.65007 -0.382002 0
M  V30 42203 H 3927.9 -1.81514 -0.269275 0
M  V30 42204 H 3926.28 -2.95544 -2.63571 0
M  V30 42205 H 3927.45 -4.59848 -0.29598 0
M  V30 42206 H 3925.77 -4.14224 -0.425135 0
M  V30 42207 H 3928.37 -4.28153 -3.20296 0
M  V30 42208 H 3928.71 -2.57052 -3.2746 0
M  V30 42209 H 3929.24 -3.51501 -1.86258 0
M  V30 42210 H 3925.98 -6.4416 -1.21399 0
M  V30 42211 H 3925.5 -5.41315 -2.58338 0
M  V30 42212 H 3927.18 -5.99084 -2.44351 0
M  V30 42213 N 3927.31 0.546649 -1.47816 0
M  V30 42214 C 3928.54 1.33328 -1.58866 0
M  V30 42215 C 3928.96 1.86523 -0.243052 0
M  V30 42216 O 3928.32 1.63532 0.782748 0
M  V30 42217 C 3928.37 2.47173 -2.6256 0
M  V30 42218 O 3927.47 3.49719 -2.18564 0
M  V30 42219 H 3926.81 0.395589 -0.533297 0
M  V30 42220 H 3929.34 0.659545 -1.93678 0
M  V30 42221 H 3929.35 2.93595 -2.83313 0
M  V30 42222 H 3928.03 2.07813 -3.60259 0
M  V30 42223 H 3926.6 3.0953 -2.07955 0
M  V30 42224 N 3928.79 1.36124 0.794222 0
M  V30 42225 C 3930.04 1.3028 1.55419 0
M  V30 42226 C 3930.37 -0.1191 1.93834 0
M  V30 42227 O 3929.64 -1.07138 1.62332 0
M  V30 42228 C 3929.93 2.22099 2.8345 0
M  V30 42229 C 3929.78 3.72964 2.51432 0
M  V30 42230 C 3931.1 2.12782 3.85242 0
M  V30 42231 H 3928.22 0.474582 0.563863 0
M  V30 42232 H 3930.86 1.66635 0.912848 0
M  V30 42233 H 3929.01 1.91226 3.38179 0
M  V30 42234 H 3930.68 4.14335 2.02792 0
M  V30 42235 H 3928.92 3.92636 1.84444 0
M  V30 42236 H 3929.6 4.32614 3.42855 0
M  V30 42237 H 3932.07 2.39948 3.39948 0
M  V30 42238 H 3930.95 2.79206 4.72584 0
M  V30 42239 H 3931.21 1.11361 4.27845 0
M  V30 42240 N 3930.27 -1.01782 1.20325 0
M  V30 42241 C 3931.2 -2.09946 0.894302 0
M  V30 42242 C 3932.18 -1.61877 -0.153122 0
M  V30 42243 O 3933.36 -1.88481 -0.0269747 0
M  V30 42244 C 3930.49 -3.36985 0.340459 0
M  V30 42245 C 3929.54 -4.03942 1.36868 0
M  V30 42246 S 3930.37 -4.48017 2.93328 0
M  V30 42247 C 3931.52 -5.78259 2.39516 0
M  V30 42248 H 3931.76 -2.35829 1.8103 0
M  V30 42249 H 3929.29 -1.14881 1.03159 0
M  V30 42250 H 3931.25 -4.10491 0.0274596 0
M  V30 42251 H 3929.91 -3.09175 -0.554019 0
M  V30 42252 H 3929.1 -4.95336 0.930505 0
M  V30 42253 H 3928.7 -3.36655 1.62909 0
M  V30 42254 H 3931 -6.53371 1.79201 0
M  V30 42255 H 3931.94 -6.2687 3.29301 0
M  V30 42256 H 3932.35 -5.34462 1.81688 0
M  V30 42257 N 3931.75 -1.00894 -1.21071 0
M  V30 42258 C 3932.68 -0.592936 -2.25846 0
M  V30 42259 C 3933.66 0.388211 -1.65611 0
M  V30 42260 O 3934.84 0.275327 -1.92238 0
M  V30 42261 C 3931.97 0.0772829 -3.47214 0
M  V30 42262 C 3930.93 -0.824053 -4.19992 0
M  V30 42263 C 3930.25 -0.0200281 -5.34696 0
M  V30 42264 C 3931.55 -2.12852 -4.76961 0
M  V30 42265 H 3933.25 -1.46877 -2.60897 0
M  V30 42266 H 3930.79 -0.707678 -1.25411 0
M  V30 42267 H 3932.74 0.379816 -4.19685 0
M  V30 42268 H 3931.47 0.987778 -3.11305 0
M  V30 42269 H 3930.13 -1.11047 -3.49377 0
M  V30 42270 H 3929.78 0.891878 -4.9503 0
M  V30 42271 H 3929.48 -0.620204 -5.84318 0
M  V30 42272 H 3931 0.276229 -6.09975 0
M  V30 42273 H 3932.41 -1.88887 -5.4129 0
M  V30 42274 H 3930.81 -2.67889 -5.36988 0
M  V30 42275 H 3931.88 -2.79666 -3.96125 0
M  V30 42276 N 3933.22 1.36705 -0.78418 0
M  V30 42277 C 3934.47 1.98985 -0.353469 0
M  V30 42278 C 3934.79 1.62553 1.07711 0
M  V30 42279 O 3934.06 0.896968 1.74159 0
M  V30 42280 H 3932.64 0.736003 -0.127706 0
M  V30 42281 H 3935.31 1.66987 -1.00506 0
M  V30 42282 H 3934.4 3.08967 -0.441082 0
M  V30 42283 N 3934.7 0.535753 1.48214 0
M  V30 42284 C 3935.95 0.0037687 2.028 0
M  V30 42285 C 3936.28 -1.33386 1.41145 0
M  V30 42286 O 3935.56 -1.86286 0.55926 0
M  V30 42287 C 3935.84 -0.112123 3.59925 0
M  V30 42288 C 3935.69 1.25108 4.32051 0
M  V30 42289 C 3937.01 -0.836102 4.32085 0
M  V30 42290 H 3934.13 0.00284358 0.736995 0
M  V30 42291 H 3936.77 0.693899 1.76876 0
M  V30 42292 H 3934.92 -0.699893 3.82144 0
M  V30 42293 H 3936.59 1.8804 4.21235 0
M  V30 42294 H 3934.84 1.83145 3.93243 0
M  V30 42295 H 3935.51 1.12293 5.40458 0
M  V30 42296 H 3937.98 -0.33726 4.14731 0
M  V30 42297 H 3936.86 -0.886101 5.41701 0
M  V30 42298 H 3937.12 -1.88764 3.99775 0
M  V30 42299 N 3936.18 -1.5525 0.271158 0
M  V30 42300 C 3937.43 -1.99115 -0.346071 0
M  V30 42301 C 3937.75 -1.16095 -1.56675 0
M  V30 42302 O 3937.02 -0.249506 -1.94305 0
M  V30 42303 H 3935.6 -0.735449 -0.130857 0
M  V30 42304 H 3938.26 -1.91247 0.375576 0
M  V30 42305 H 3937.36 -3.05496 -0.638649 0
M  V30 42306 N 3937.66 0.00162173 -1.576 0
M  V30 42307 C 3938.62 0.978387 -2.07269 0
M  V30 42308 C 3939.62 1.27349 -0.98178 0
M  V30 42309 O 3940.81 1.21894 -1.24449 0
M  V30 42310 C 3937.94 2.30375 -2.51277 0
M  V30 42311 H 3939.14 0.548793 -2.94836 0
M  V30 42312 H 3936.69 0.249059 -1.54303 0
M  V30 42313 H 3937.42 2.78027 -1.66948 0
M  V30 42314 H 3937.21 2.10277 -3.30947 0
M  V30 42315 H 3938.7 3.00448 -2.90036 0
M  V30 42316 N 3939.14 1.55194 0.274352 0
M  V30 42317 C 3940.39 1.74942 1.00391 0
M  V30 42318 C 3940.7 0.557117 1.87498 0
M  V30 42319 O 3941.9 0.636983 2.63922 0
M  V30 42320 C 3940.36 3.09616 1.83483 0
M  V30 42321 C 3939.97 4.36409 1.01249 0
M  V30 42322 C 3941.71 3.38714 2.55877 0
M  V30 42323 C 3939.62 5.62122 1.83772 0
M  V30 42324 H 3938.55 0.652086 0.378549 0
M  V30 42325 H 3941.2 1.81654 0.259646 0
M  V30 42326 H 3939.58 2.96938 2.62 0
M  V30 42327 H 3940.76 4.59999 0.271589 0
M  V30 42328 H 3939.07 4.14444 0.403162 0
M  V30 42329 H 3941.67 4.29845 3.18021 0
M  V30 42330 H 3942.01 2.58785 3.26092 0
M  V30 42331 H 3942.54 3.52484 1.84391 0
M  V30 42332 H 3939.28 6.44795 1.17981 0
M  V30 42333 H 3938.8 5.42677 2.55464 0
M  V30 42334 H 3940.48 6.00371 2.4117 0
M  V30 42335 N 3940.61 -0.538802 1.48104 0
M  V30 42336 C 3941.58 -1.62638 1.61498 0
M  V30 42337 C 3942.58 -1.5319 0.488819 0
M  V30 42338 O 3943.77 -1.57018 0.754383 0
M  V30 42339 C 3940.9 -3.02238 1.57687 0
M  V30 42340 H 3942.09 -1.52105 2.58465 0
M  V30 42341 H 3939.65 -0.760177 1.36569 0
M  V30 42342 H 3940.38 -3.18286 0.621638 0
M  V30 42343 H 3940.17 -3.10505 2.39436 0
M  V30 42344 H 3941.66 -3.81326 1.70235 0
M  V30 42345 N 3942.09 -1.36544 -0.786992 0
M  V30 42346 C 3943.06 -1.30913 -1.88134 0
M  V30 42347 C 3944.06 -0.21632 -1.59338 0
M  V30 42348 O 3945.25 -0.471251 -1.67705 0
M  V30 42349 C 3942.38 -1.02999 -3.24968 0
M  V30 42350 H 3943.57 -2.2824 -1.94542 0
M  V30 42351 H 3941.12 -1.21352 -0.985062 0
M  V30 42352 H 3941.86 -0.0614067 -3.24242 0
M  V30 42353 H 3941.64 -1.82084 -3.47258 0
M  V30 42354 H 3943.13 -1.01671 -4.05034 0
M  V30 42355 N 3943.57 1.01143 -1.20863 0
M  V30 42356 C 3944.52 2.08185 -0.929678 0
M  V30 42357 C 3945.5 1.60506 0.11255 0
M  V30 42358 O 3946.7 1.76742 -0.0955205 0
M  V30 42359 C 3943.83 3.39796 -0.489222 0
M  V30 42360 C 3942.91 3.94162 -1.56516 0
M  V30 42361 N 3943.3 4.21973 -2.78878 0
M  V30 42362 C 3941.6 4.22368 -1.43254 0
M  V30 42363 C 3942.3 4.65886 -3.48318 0
M  V30 42364 N 3941.28 4.68473 -2.75742 0
M  V30 42365 H 3945.08 2.27603 -1.85941 0
M  V30 42366 H 3942.59 1.19159 -1.1034 0
M  V30 42367 H 3944.59 4.1602 -0.270764 0
M  V30 42368 H 3943.25 3.21789 0.433821 0
M  V30 42369 H 3944.26 4.10722 -3.15481 0
M  V30 42370 H 3940.94 4.13531 -0.574293 0
M  V30 42371 H 3942.33 4.9618 -4.5305 0
M  V30 42372 N 3945.05 1.01535 1.20534 0
M  V30 42373 C 3946 0.577825 2.25309 0
M  V30 42374 C 3946.99 -0.382814 1.65018 0
M  V30 42375 O 3948.2 -0.252873 1.78215 0
M  V30 42376 H 3944.57 0.168545 0.732869 0
M  V30 42377 H 3946.54 1.47245 2.59541 0
M  V30 42378 C 3945.29 -0.0693652 3.47631 0
M  V30 42379 H 3944.61 0.660817 3.94301 0
M  V30 42380 H 3946.05 -0.338631 4.22646 0
M  V30 42381 C 3944.51 -1.3118 3.10312 0
M  V30 42382 O 3945.04 -2.40522 3.21733 0
M  V30 42383 N 3943.25 -1.19543 2.64873 0
M  V30 42384 H 3942.8 -0.305696 2.5578 0
M  V30 42385 H 3942.75 -2.02771 2.40274 0
M  V30 42386 N 3946.53 -1.36288 0.791419 0
M  V30 42387 C 3947.49 -2.28351 0.19711 0
M  V30 42388 C 3948.49 -1.48914 -0.606722 0
M  V30 42389 O 3949.68 -1.68875 -0.427423 0
M  V30 42390 C 3946.81 -3.33059 -0.726951 0
M  V30 42391 H 3948 -2.8242 1.0089 0
M  V30 42392 H 3945.56 -1.45886 0.560984 0
M  V30 42393 H 3946.29 -2.84149 -1.56301 0
M  V30 42394 H 3946.08 -3.91803 -0.152468 0
M  V30 42395 H 3947.57 -4.01807 -1.13758 0
M  V30 42396 N 3948.01 -0.543606 -1.47928 0
M  V30 42397 C 3949.25 -0.0124279 -2.01696 0
M  V30 42398 C 3949.57 1.34019 -1.42472 0
M  V30 42399 O 3950.77 1.96051 -1.8782 0
M  V30 42400 C 3949.23 0.0282101 -3.59889 0
M  V30 42401 C 3948.84 -1.32034 -4.28102 0
M  V30 42402 C 3950.58 0.507497 -4.21455 0
M  V30 42403 C 3948.49 -1.23955 -5.78264 0
M  V30 42404 H 3947.42 -0.000875846 -0.753999 0
M  V30 42405 H 3950.07 -0.689426 -1.70056 0
M  V30 42406 H 3948.45 0.770572 -3.8843 0
M  V30 42407 H 3949.63 -2.07934 -4.11218 0
M  V30 42408 H 3947.94 -1.73646 -3.78465 0
M  V30 42409 H 3950.54 0.586126 -5.31478 0
M  V30 42410 H 3950.88 1.51642 -3.87699 0
M  V30 42411 H 3951.41 -0.179592 -3.97394 0
M  V30 42412 H 3948.15 -2.22404 -6.16617 0
M  V30 42413 H 3947.67 -0.522134 -5.97523 0
M  V30 42414 H 3949.35 -0.935901 -6.40195 0
M  V30 42415 N 3949.48 1.55104 -0.279387 0
M  V30 42416 C 3950.39 2.26363 0.61621 0
M  V30 42417 C 3951.41 1.29104 1.16654 0
M  V30 42418 O 3952.59 1.62048 1.19593 0
M  V30 42419 C 3949.65 2.97406 1.78186 0
M  V30 42420 C 3948.71 4.10154 1.26777 0
M  V30 42421 C 3947.94 4.778 2.37787 0
M  V30 42422 O 3948.17 4.44679 3.57234 0
M  V30 42423 O 3947.1 5.65659 2.05701 0
M  V30 42424 H 3950.93 3.03675 0.0388181 0
M  V30 42425 H 3948.51 1.49327 -0.046632 0
M  V30 42426 H 3950.39 3.4204 2.46144 0
M  V30 42427 H 3949.07 2.23007 2.34626 0
M  V30 42428 H 3947.98 3.69967 0.554543 0
M  V30 42429 H 3949.31 4.86467 0.749071 0
M  V30 42430 N 3950.96 0.0067362 1.57599 0
M  V30 42431 C 3952.19 -0.691116 1.95546 0
M  V30 42432 C 3952.61 -1.66137 0.882043 0
M  V30 42433 O 3951.97 -1.806 -0.159211 0
M  V30 42434 C 3952.02 -1.39336 3.32593 0
M  V30 42435 O 3951.12 -2.508 3.27373 0
M  V30 42436 H 3950.46 -0.183325 0.638191 0
M  V30 42437 H 3952.99 0.0619317 2.04506 0
M  V30 42438 H 3953 -1.75526 3.68313 0
M  V30 42439 H 3951.68 -0.682 4.1027 0
M  V30 42440 H 3950.25 -2.16888 3.03338 0
M  V30 42441 N 3952.44 -1.55337 -0.266118 0
M  V30 42442 C 3953.66 -1.80634 -1.01911 0
M  V30 42443 C 3954.09 -0.581203 -1.78896 0
M  V30 42444 O 3953.45 0.469368 -1.75119 0
M  V30 42445 C 3953.5 -3.03459 -1.94795 0
M  V30 42446 O 3952.6 -2.79027 -3.03673 0
M  V30 42447 H 3951.94 -0.596833 -0.291009 0
M  V30 42448 H 3954.47 -2.02492 -0.292937 0
M  V30 42449 H 3954.48 -3.32378 -2.3662 0
M  V30 42450 H 3953.16 -3.92276 -1.38175 0
M  V30 42451 H 3951.73 -2.61224 -2.66113 0
M  V30 42452 N 3953.92 0.53094 -1.48387 0
M  V30 42453 C 3954.83 1.66254 -1.65519 0
M  V30 42454 C 3955.84 1.65483 -0.537729 0
M  V30 42455 O 3957.02 1.84452 -0.808675 0
M  V30 42456 C 3954.08 3.02719 -1.69004 0
M  V30 42457 C 3953.15 3.14353 -2.92371 0
M  V30 42458 C 3952.38 4.44308 -2.9568 0
M  V30 42459 O 3952.6 5.31348 -2.07426 0
M  V30 42460 O 3951.54 4.60287 -3.87839 0
M  V30 42461 H 3955.36 1.54738 -2.61323 0
M  V30 42462 H 3952.95 0.703923 -1.31777 0
M  V30 42463 H 3954.83 3.8388 -1.73822 0
M  V30 42464 H 3953.5 3.14561 -0.76373 0
M  V30 42465 H 3952.41 2.32491 -2.93085 0
M  V30 42466 H 3953.74 3.07426 -3.84383 0
M  V30 42467 N 3955.4 1.36959 0.779739 0
M  V30 42468 C 3956.33 1.27944 1.90166 0
M  V30 42469 C 3957.34 0.196895 1.61605 0
M  V30 42470 O 3958.53 0.452399 1.72672 0
M  V30 42471 C 3955.63 0.953622 3.25206 0
M  V30 42472 C 3954.8 2.14002 3.81473 0
M  V30 42473 C 3953.86 1.78573 4.94973 0
M  V30 42474 O 3952.89 2.50776 5.1098 0
M  V30 42475 N 3954.09 0.725117 5.75953 0
M  V30 42476 H 3956.85 2.24612 1.98418 0
M  V30 42477 H 3954.42 1.3048 0.958472 0
M  V30 42478 H 3956.41 0.697599 3.98642 0
M  V30 42479 H 3954.98 0.0757654 3.12508 0
M  V30 42480 H 3954.2 2.55827 2.9991 0
M  V30 42481 H 3955.49 2.9324 4.15797 0
M  V30 42482 H 3954.88 0.125799 5.6556 0
M  V30 42483 H 3953.44 0.528937 6.4965 0
M  V30 42484 N 3956.87 -1.00501 1.21398 0
M  V30 42485 C 3957.82 -2.09277 0.973234 0
M  V30 42486 C 3958.79 -1.65794 -0.100768 0
M  V30 42487 O 3959.98 -1.90744 0.046352 0
M  V30 42488 C 3957.12 -3.40785 0.544001 0
M  V30 42489 C 3956.23 -3.9768 1.68744 0
M  V30 42490 C 3955.36 -5.17297 1.20737 0
M  V30 42491 C 3954.4 -5.66301 2.32315 0
M  V30 42492 N 3953.54 -6.77167 1.85442 0
M  V30 42493 H 3958.38 -2.29205 1.90445 0
M  V30 42494 H 3955.92 -1.12385 0.949101 0
M  V30 42495 H 3957.87 -4.16284 0.276384 0
M  V30 42496 H 3956.5 -3.20895 -0.350206 0
M  V30 42497 H 3955.56 -3.19168 2.06969 0
M  V30 42498 H 3956.87 -4.30041 2.52718 0
M  V30 42499 H 3956.02 -6.00041 0.896417 0
M  V30 42500 H 3954.76 -4.8653 0.337686 0
M  V30 42501 H 3953.77 -4.82153 2.64213 0
M  V30 42502 H 3954.99 -5.99098 3.19779 0
M  V30 42503 H 3952.94 -6.48207 1.00817 0
M  V30 42504 H 3952.85 -7.08783 2.62988 0
M  V30 42505 H 3954.12 -7.63447 1.5738 0
M  V30 42506 N 3958.35 -1.02172 -1.19994 0
M  V30 42507 C 3959.77 -0.737498 -1.41538 0
M  V30 42508 C 3959.97 0.680798 -1.89651 0
M  V30 42509 O 3959.02 1.44783 -2.06867 0
M  V30 42510 C 3960.34 -1.76755 -2.43265 0
M  V30 42511 C 3961.88 -1.78628 -2.57024 0
M  V30 42512 C 3962.36 -2.80573 -3.61998 0
M  V30 42513 N 3963.85 -2.79345 -3.69487 0
M  V30 42514 C 3964.59 -3.54882 -4.50385 0
M  V30 42515 N 3964.08 -4.40112 -5.35045 0
M  V30 42516 N 3965.87 -3.43456 -4.44966 0
M  V30 42517 H 3958.03 -1.93728 -0.870821 0
M  V30 42518 H 3960.29 -0.837145 -0.444851 0
M  V30 42519 H 3959.99 -2.7839 -2.14922 0
M  V30 42520 H 3959.87 -1.58392 -3.42333 0
M  V30 42521 H 3962.26 -0.776745 -2.84694 0
M  V30 42522 H 3962.34 -2.01065 -1.58134 0
M  V30 42523 H 3961.98 -3.81693 -3.35071 0
M  V30 42524 H 3961.91 -2.55396 -4.60522 0
M  V30 42525 H 3964.4 -2.17524 -3.09018 0
M  V30 42526 H 3964.71 -4.94505 -5.93872 0
M  V30 42527 H 3963.06 -4.44188 -5.3453 0
M  V30 42528 H 3966.25 -2.7629 -3.77864 0
M  V30 42529 H 3966.42 -4.02578 -5.07775 0
M  V30 42530 N 3959.83 1.35866 -0.798635 0
M  V30 42531 C 3961.06 2.03239 -0.387515 0
M  V30 42532 C 3961.47 1.60203 0.999024 0
M  V30 42533 O 3960.83 0.795792 1.64236 0
M  V30 42534 C 3960.88 3.58661 -0.452164 0
M  V30 42535 O 3960.6 4.0013 -1.78403 0
M  V30 42536 C 3962.1 4.43288 -0.0328418 0
M  V30 42537 H 3959.32 0.652021 -0.158461 0
M  V30 42538 H 3961.87 1.73653 -1.08005 0
M  V30 42539 H 3960.02 3.86924 0.192039 0
M  V30 42540 H 3960.44 4.94753 -1.74127 0
M  V30 42541 H 3961.91 5.51849 -0.129203 0
M  V30 42542 H 3962.39 4.2717 1.0209 0
M  V30 42543 H 3962.99 4.20305 -0.64989 0
M  V30 42544 N 3961.31 0.551443 1.47638 0
M  V30 42545 C 3962.24 -0.187846 2.32743 0
M  V30 42546 C 3963.22 -0.914381 1.43433 0
M  V30 42547 O 3964.4 -0.895974 1.72296 0
M  V30 42548 C 3961.53 -1.22194 3.25094 0
M  V30 42549 C 3960.49 -0.612223 4.23599 0
M  V30 42550 C 3959.81 -1.75053 5.05233 0
M  V30 42551 C 3961.11 0.430226 5.20525 0
M  V30 42552 H 3962.81 0.52265 2.94803 0
M  V30 42553 H 3960.35 0.252793 1.41764 0
M  V30 42554 H 3962.31 -1.74725 3.8347 0
M  V30 42555 H 3961.03 -1.9623 2.61077 0
M  V30 42556 H 3959.69 -0.10826 3.6644 0
M  V30 42557 H 3959.34 -2.47979 4.37625 0
M  V30 42558 H 3959.04 -1.34838 5.7192 0
M  V30 42559 H 3960.56 -2.27921 5.66467 0
M  V30 42560 H 3961.98 -0.00880091 5.73299 0
M  V30 42561 H 3960.37 0.750941 5.95383 0
M  V30 42562 H 3961.44 1.32823 4.66354 0
M  V30 42563 N 3962.79 -1.54953 0.287609 0
M  V30 42564 C 3963.72 -2.2598 -0.587815 0
M  V30 42565 C 3964.7 -1.25444 -1.14882 0
M  V30 42566 O 3965.88 -1.5419 -1.18064 0
M  V30 42567 C 3963.01 -2.9904 -1.76613 0
M  V30 42568 C 3961.97 -4.06611 -1.3361 0
M  V30 42569 C 3961.29 -4.67313 -2.59851 0
M  V30 42570 C 3962.59 -5.20116 -0.477128 0
M  V30 42571 H 3964.29 -2.994 0.00455446 0
M  V30 42572 H 3961.83 -1.44 0.00363052 0
M  V30 42573 H 3963.79 -3.47444 -2.38454 0
M  V30 42574 H 3962.51 -2.23176 -2.38453 0
M  V30 42575 H 3961.17 -3.59037 -0.740816 0
M  V30 42576 H 3960.82 -3.88104 -3.19976 0
M  V30 42577 H 3960.52 -5.39954 -2.31784 0
M  V30 42578 H 3962.04 -5.18473 -3.22519 0
M  V30 42579 H 3963.45 -5.64496 -1.00086 0
M  V30 42580 H 3961.85 -5.99395 -0.290807 0
M  V30 42581 H 3962.92 -4.82304 0.501078 0
M  V30 42582 N 3964.26 -0.0150939 -1.57593 0
M  V30 42583 C 3965.2 1.00577 -2.0484 0
M  V30 42584 C 3966.18 1.32584 -0.941285 0
M  V30 42585 O 3967.36 1.44491 -1.21056 0
M  V30 42586 C 3964.49 2.3295 -2.4587 0
M  V30 42587 C 3963.53 2.16501 -3.67464 0
M  V30 42588 S 3964.37 1.47691 -5.14731 0
M  V30 42589 C 3965.52 2.81463 -5.59043 0
M  V30 42590 H 3965.75 0.603524 -2.9111 0
M  V30 42591 H 3963.29 0.196208 -1.53148 0
M  V30 42592 H 3965.25 3.09056 -2.70175 0
M  V30 42593 H 3963.91 2.70311 -1.59972 0
M  V30 42594 H 3963.1 3.14327 -3.93973 0
M  V30 42595 H 3962.7 1.48539 -3.43238 0
M  V30 42596 H 3964.99 3.77735 -5.62426 0
M  V30 42597 H 3965.94 2.59636 -6.58783 0
M  V30 42598 H 3966.34 2.86066 -4.86648 0
M  V30 42599 N 3965.74 1.55476 0.257876 0
M  V30 42600 C 3966.69 1.89391 1.31909 0
M  V30 42601 C 3967.66 0.746953 1.48357 0
M  V30 42602 O 3968.84 0.999613 1.62519 0
M  V30 42603 C 3965.98 2.1845 2.67158 0
M  V30 42604 C 3965.1 3.45894 2.58808 0
M  V30 42605 C 3964.23 3.64578 3.86337 0
M  V30 42606 C 3963.27 4.85661 3.72559 0
M  V30 42607 N 3962.41 5.00923 4.91955 0
M  V30 42608 H 3967.25 2.79896 1.02286 0
M  V30 42609 H 3964.79 1.38563 0.493839 0
M  V30 42610 H 3966.74 2.33302 3.4587 0
M  V30 42611 H 3965.37 1.31162 2.94951 0
M  V30 42612 H 3964.43 3.39434 1.71724 0
M  V30 42613 H 3965.74 4.34748 2.44532 0
M  V30 42614 H 3964.89 3.79329 4.73492 0
M  V30 42615 H 3963.63 2.73937 4.03497 0
M  V30 42616 H 3962.64 4.70898 2.83787 0
M  V30 42617 H 3963.86 5.77751 3.56904 0
M  V30 42618 H 3961.81 4.13217 5.09497 0
M  V30 42619 H 3961.72 5.83847 4.80269 0
M  V30 42620 H 3962.99 5.20075 5.8064 0
M  V30 42621 N 3967.22 -0.523064 1.48667 0
M  V30 42622 C 3968.47 -1.2804 1.57269 0
M  V30 42623 C 3968.8 -1.92599 0.248835 0
M  V30 42624 O 3968.07 -1.79634 -0.745782 0
M  V30 42625 C 3968.36 -2.36444 2.716 0
M  V30 42626 C 3968.21 -1.76531 4.13711 0
M  V30 42627 C 3969.53 -3.38165 2.8166 0
M  V30 42628 H 3966.65 -0.464171 0.572464 0
M  V30 42629 H 3969.29 -0.581981 1.80867 0
M  V30 42630 H 3967.44 -2.96015 2.51609 0
M  V30 42631 H 3969.11 -1.20957 4.4516 0
M  V30 42632 H 3967.36 -1.07034 4.20388 0
M  V30 42633 H 3968.03 -2.55054 4.89542 0
M  V30 42634 H 3970.5 -2.88558 2.99789 0
M  V30 42635 H 3969.38 -4.11402 3.63373 0
M  V30 42636 H 3969.64 -3.99142 1.901 0
M  V30 42637 N 3968.7 -1.37371 -0.772465 0
M  V30 42638 C 3969.95 -1.3254 -1.531 0
M  V30 42639 C 3970.27 0.0903267 -1.9429 0
M  V30 42640 O 3969.53 1.06339 -1.64288 0
M  V30 42641 C 3969.83 -2.20971 -2.80903 0
M  V30 42642 C 3969.49 -3.69255 -2.58769 0
M  V30 42643 C 3968.16 -4.09667 -2.52441 0
M  V30 42644 C 3970.51 -4.632 -2.38946 0
M  V30 42645 C 3967.84 -5.4214 -2.24279 0
M  V30 42646 C 3970.19 -5.9591 -2.12307 0
M  V30 42647 C 3968.85 -6.35427 -2.04423 0
M  V30 42648 H 3968.12 -0.484997 -0.560231 0
M  V30 42649 H 3970.77 -1.69571 -0.889829 0
M  V30 42650 H 3969.07 -1.76932 -3.49575 0
M  V30 42651 H 3970.77 -2.14547 -3.38778 0
M  V30 42652 H 3967.36 -3.37205 -2.64557 0
M  V30 42653 H 3971.54 -4.32839 -2.42825 0
M  V30 42654 H 3966.8 -5.71721 -2.16669 0
M  V30 42655 H 3970.97 -6.68259 -1.95967 0
M  V30 42656 H 3968.6 -7.38002 -1.82365 0
M  V30 42657 N 3970.18 0.998553 -1.21929 0
M  V30 42658 C 3971.42 1.73985 -1.04197 0
M  V30 42659 C 3971.76 1.89545 0.422666 0
M  V30 42660 O 3971.03 1.43448 1.3135 0
M  V30 42661 C 3971.31 3.14871 -1.74723 0
M  V30 42662 C 3971.17 3.06995 -3.28746 0
M  V30 42663 C 3972.49 4.13929 -1.49502 0
M  V30 42664 H 3969.6 0.631525 -0.379929 0
M  V30 42665 H 3972.25 1.16372 -1.50192 0
M  V30 42666 H 3970.4 3.64059 -1.35621 0
M  V30 42667 H 3972.07 2.65471 -3.77257 0
M  V30 42668 H 3970.31 2.43937 -3.58716 0
M  V30 42669 H 3970.98 4.06666 -3.73265 0
M  V30 42670 H 3973.46 3.73474 -1.83458 0
M  V30 42671 H 3972.33 5.10635 -2.01353 0
M  V30 42672 H 3972.6 4.40039 -0.426401 0
M  V30 42673 N 3971.65 1.02807 1.1945 0
M  V30 42674 C 3972.6 0.608173 2.22643 0
M  V30 42675 C 3973.57 -0.37761 1.61751 0
M  V30 42676 O 3974.76 -0.274454 1.88816 0
M  V30 42677 C 3971.9 -0.0356983 3.45082 0
M  V30 42678 C 3971.01 0.996029 4.20361 0
M  V30 42679 C 3970.14 0.322004 5.30223 0
M  V30 42680 C 3969.18 1.3397 5.97259 0
M  V30 42681 N 3968.32 0.691537 6.98686 0
M  V30 42682 H 3973.16 1.49273 2.57918 0
M  V30 42683 H 3970.7 0.747007 1.26721 0
M  V30 42684 H 3972.66 -0.426236 4.15017 0
M  V30 42685 H 3971.29 -0.883835 3.10464 0
M  V30 42686 H 3970.34 1.50463 3.49378 0
M  V30 42687 H 3971.65 1.76953 4.66357 0
M  V30 42688 H 3970.8 -0.123422 6.06574 0
M  V30 42689 H 3969.54 -0.483707 4.85295 0
M  V30 42690 H 3968.55 1.79539 5.19659 0
M  V30 42691 H 3969.77 2.14689 6.44271 0
M  V30 42692 H 3967.72 -0.0940968 6.55933 0
M  V30 42693 H 3967.64 1.40294 7.42869 0
M  V30 42694 H 3968.9 0.270085 7.79032 0
M  V30 42695 N 3973.13 -1.35441 0.805829 0
M  V30 42696 C 3974.08 -2.31706 0.203756 0
M  V30 42697 C 3975.07 -1.56597 -0.646057 0
M  V30 42698 O 3976.28 -1.71731 -0.539305 0
M  V30 42699 H 3972.66 -0.750522 0.0471284 0
M  V30 42700 H 3974.63 -2.8003 1.0308 0
M  V30 42701 C 3973.38 -3.41876 -0.633731 0
M  V30 42702 H 3972.7 -3.99799 0.0108418 0
M  V30 42703 H 3974.14 -4.11514 -1.0214 0
M  V30 42704 C 3972.6 -2.8485 -1.79894 0
M  V30 42705 O 3973.13 -2.78339 -2.89638 0
M  V30 42706 N 3971.33 -2.41909 -1.61023 0
M  V30 42707 H 3970.88 -2.47404 -0.717555 0
M  V30 42708 H 3970.84 -2.04103 -2.39143 0
M  V30 42709 N 3974.61 -0.559265 -1.47343 0
M  V30 42710 C 3975.86 -0.0359786 -2.02468 0
M  V30 42711 C 3976.19 1.31469 -1.43339 0
M  V30 42712 O 3975.44 1.86927 -0.579388 0
M  V30 42713 C 3975.74 0.10446 -3.57247 0
M  V30 42714 C 3975.41 -1.17559 -4.35305 0
M  V30 42715 C 3974.07 -1.52633 -4.56351 0
M  V30 42716 C 3976.42 -2.02373 -4.80307 0
M  V30 42717 C 3973.75 -2.72365 -5.19648 0
M  V30 42718 C 3976.1 -3.2131 -5.44924 0
M  V30 42719 C 3974.76 -3.56695 -5.64203 0
M  V30 42720 H 3974.03 -0.0131655 -0.740883 0
M  V30 42721 H 3976.68 -0.731191 -1.76991 0
M  V30 42722 H 3974.99 0.882653 -3.81728 0
M  V30 42723 H 3976.68 0.524731 -3.97552 0
M  V30 42724 H 3973.27 -0.892487 -4.19205 0
M  V30 42725 H 3977.46 -1.76583 -4.63824 0
M  V30 42726 H 3972.71 -2.99947 -5.32768 0
M  V30 42727 H 3976.89 -3.87316 -5.78757 0
M  V30 42728 H 3974.51 -4.49566 -6.1302 0
M  V30 42729 N 3976.09 1.54799 -0.295822 0
M  V30 42730 C 3977.02 2.26289 0.575823 0
M  V30 42731 C 3978 1.26051 1.14215 0
M  V30 42732 O 3979.18 1.54814 1.17245 0
M  V30 42733 C 3976.31 2.99973 1.75025 0
M  V30 42734 C 3975.27 4.07314 1.31452 0
M  V30 42735 C 3974.59 4.68685 2.57369 0
M  V30 42736 C 3975.89 5.20362 0.449538 0
M  V30 42737 H 3977.59 2.99393 -0.0204323 0
M  V30 42738 H 3975.13 1.43996 -0.0112671 0
M  V30 42739 H 3977.09 3.48704 2.36608 0
M  V30 42740 H 3975.81 2.24438 2.37266 0
M  V30 42741 H 3974.47 3.59425 0.721765 0
M  V30 42742 H 3974.12 3.89795 3.17913 0
M  V30 42743 H 3973.82 5.41175 2.28917 0
M  V30 42744 H 3975.34 5.20176 3.19765 0
M  V30 42745 H 3976.76 5.65019 0.970914 0
M  V30 42746 H 3975.15 5.99541 0.259016 0
M  V30 42747 H 3976.22 4.82032 -0.526649 0
M  V30 42748 N 3977.57 0.0234513 1.57583 0
M  V30 42749 C 3978.84 -0.694755 1.82846 0
M  V30 42750 C 3979.22 -1.90661 0.906175 0
M  V30 42751 O 3978.57 -2.28466 -0.0395808 0
M  V30 42752 C 3978.78 -1.07834 3.31923 0
M  V30 42753 C 3980.13 -1.47236 3.98255 0
M  V30 42754 O 3981.15 -1.17148 3.36385 0
M  V30 42755 O 3980.01 -2.03276 5.07288 0
M  V30 42756 H 3977.11 -0.340326 0.753729 0
M  V30 42757 H 3979.65 0.0507002 1.69624 0
M  V30 42758 H 3978.43 -0.215572 3.90706 0
M  V30 42759 H 3978.05 -1.88214 3.5023 0
M  V30 42760 N 3979.05 -1.5561 -0.249627 0
M  V30 42761 C 3979.98 -1.86533 -1.33185 0
M  V30 42762 C 3980.99 -0.751392 -1.44423 0
M  V30 42763 O 3982.18 -1.02948 -1.45822 0
M  V30 42764 C 3979.28 -2.03403 -2.71073 0
M  V30 42765 C 3978.45 -3.34242 -2.82136 0
M  V30 42766 C 3977.51 -3.40889 -4.00851 0
M  V30 42767 O 3976.54 -4.14117 -3.90507 0
M  V30 42768 N 3977.74 -2.69983 -5.13896 0
M  V30 42769 H 3980.5 -2.7995 -1.06995 0
M  V30 42770 H 3978.07 -1.55814 -0.439732 0
M  V30 42771 H 3980.06 -2.05194 -3.48823 0
M  V30 42772 H 3978.63 -1.16743 -2.89983 0
M  V30 42773 H 3977.85 -3.44791 -1.91083 0
M  V30 42774 H 3979.14 -4.20486 -2.86476 0
M  V30 42775 H 3978.53 -2.10215 -5.25192 0
M  V30 42776 H 3977.09 -2.7747 -5.89791 0
M  V30 42777 N 3980.52 0.515172 -1.48942 0
M  V30 42778 C 3981.49 1.60048 -1.64065 0
M  V30 42779 C 3982.49 1.52393 -0.513128 0
M  V30 42780 O 3983.68 1.55798 -0.779268 0
M  V30 42781 C 3980.81 2.99691 -1.62475 0
M  V30 42782 H 3982 1.47974 -2.60852 0
M  V30 42783 H 3979.55 0.738354 -1.37761 0
M  V30 42784 H 3980.29 3.17257 -0.672196 0
M  V30 42785 H 3980.07 3.06656 -2.44345 0
M  V30 42786 H 3981.56 3.7857 -1.7628 0
M  V30 42787 N 3982 1.37779 0.765169 0
M  V30 42788 C 3982.96 1.3389 1.86027 0
M  V30 42789 C 3983.96 0.241642 1.58974 0
M  V30 42790 O 3985.15 0.497872 1.66934 0
M  V30 42791 C 3982.29 1.08156 3.23288 0
M  V30 42792 H 3983.48 2.31306 1.90886 0
M  V30 42793 H 3981.03 1.22903 0.965632 0
M  V30 42794 H 3981.77 0.112983 3.24103 0
M  V30 42795 H 3981.55 1.87586 3.44317 0
M  V30 42796 H 3983.04 1.08102 4.03366 0
M  V30 42797 N 3983.48 -0.992073 1.22457 0
M  V30 42798 C 3984.71 -1.76721 1.07597 0
M  V30 42799 C 3985.12 -1.8507 -0.373418 0
M  V30 42800 O 3984.48 -1.32144 -1.25873 0
M  V30 42801 C 3984.53 -3.19995 1.68183 0
M  V30 42802 O 3984.25 -3.12097 3.07453 0
M  V30 42803 C 3985.75 -4.13954 1.58609 0
M  V30 42804 H 3982.97 -0.554971 0.377158 0
M  V30 42805 H 3985.52 -1.24718 1.62067 0
M  V30 42806 H 3983.67 -3.69064 1.17775 0
M  V30 42807 H 3984.09 -4.02204 3.36648 0
M  V30 42808 H 3985.56 -5.12232 2.05723 0
M  V30 42809 H 3986.04 -4.35833 0.542788 0
M  V30 42810 H 3986.64 -3.70783 2.08328 0
M  V30 42811 N 3984.96 -1.03439 -1.18904 0
M  V30 42812 C 3986.23 -0.648535 -1.84536 0
M  V30 42813 C 3986.61 0.872411 -1.9223 0
M  V30 42814 O 3985.96 1.77135 -1.44345 0
M  V30 42815 C 3986.17 -1.31703 -3.23195 0
M  V30 42816 C 3987.52 -1.44381 -3.99299 0
M  V30 42817 O 3988.54 -1.27464 -3.32613 0
M  V30 42818 O 3987.4 -1.71889 -5.18764 0
M  V30 42819 H 3984.5 -0.226128 -0.795484 0
M  V30 42820 H 3987.04 -1.13289 -1.26348 0
M  V30 42821 H 3985.82 -2.35549 -3.12462 0
M  V30 42822 H 3985.44 -0.820897 -3.89033 0
M  V30 42823 N 3986.44 1.35011 -0.813001 0
M  V30 42824 C 3987.35 2.33474 -0.229575 0
M  V30 42825 C 3988.36 1.62163 0.630808 0
M  V30 42826 O 3989.54 1.93996 0.541049 0
M  V30 42827 C 3986.6 3.41345 0.606995 0
M  V30 42828 C 3985.66 4.28421 -0.274629 0
M  V30 42829 C 3984.9 5.3114 0.522109 0
M  V30 42830 O 3985.12 5.42689 1.75626 0
M  V30 42831 O 3984.05 6.01832 -0.0903724 0
M  V30 42832 H 3987.88 2.85182 -1.04428 0
M  V30 42833 H 3985.46 1.37895 -0.574924 0
M  V30 42834 H 3987.35 4.07238 1.08328 0
M  V30 42835 H 3986.02 2.91898 1.39919 0
M  V30 42836 H 3984.93 3.65486 -0.798188 0
M  V30 42837 H 3986.26 4.81282 -1.03093 0
M  V30 42838 N 3987.91 0.567071 1.47044 0
M  V30 42839 C 3988.84 -0.16315 2.32929 0
M  V30 42840 C 3989.82 -0.899117 1.44395 0
M  V30 42841 O 3991.01 -0.87765 1.73237 0
M  V30 42842 C 3988.14 -1.18739 3.26372 0
M  V30 42843 C 3987.09 -0.56726 4.24224 0
M  V30 42844 C 3986.42 -1.69684 5.07061 0
M  V30 42845 C 3987.72 0.48541 5.20039 0
M  V30 42846 H 3989.41 0.553889 2.94232 0
M  V30 42847 H 3986.96 0.267814 1.41488 0
M  V30 42848 H 3988.91 -1.70648 3.85302 0
M  V30 42849 H 3987.64 -1.9345 2.63144 0
M  V30 42850 H 3986.3 -0.0693881 3.66534 0
M  V30 42851 H 3985.94 -2.43324 4.4023 0
M  V30 42852 H 3985.64 -1.28764 5.73318 0
M  V30 42853 H 3987.17 -2.219 5.68852 0
M  V30 42854 H 3988.58 0.0520056 5.73276 0
M  V30 42855 H 3986.98 0.814047 5.94553 0
M  V30 42856 H 3988.05 1.37762 4.64919 0
M  V30 42857 N 3989.39 -1.5464 0.304027 0
M  V30 42858 C 3990.64 -2.00496 -0.30481 0
M  V30 42859 C 3990.97 -1.19209 -1.53306 0
M  V30 42860 O 3990.25 -0.269339 -1.92626 0
M  V30 42861 C 3990.53 -3.5403 -0.658399 0
M  V30 42862 C 3990.38 -4.46055 0.579204 0
M  V30 42863 C 3991.7 -4.14335 -1.48373 0
M  V30 42864 H 3988.82 -0.728848 -0.109314 0
M  V30 42865 H 3991.46 -1.85374 0.416727 0
M  V30 42866 H 3989.61 -3.67047 -1.27313 0
M  V30 42867 H 3991.28 -4.44939 1.21766 0
M  V30 42868 H 3989.53 -4.16529 1.21186 0
M  V30 42869 H 3990.2 -5.5125 0.287615 0
M  V30 42870 H 3992.67 -4.04772 -0.964296 0
M  V30 42871 H 3991.55 -5.21914 -1.69992 0
M  V30 42872 H 3991.81 -3.66404 -2.47388 0
M  V30 42873 N 3990.87 -0.0318079 -1.57568 0
M  V30 42874 C 3991.82 0.949146 -2.1038 0
M  V30 42875 C 3992.79 1.32131 -1.00651 0
M  V30 42876 O 3993.97 1.41416 -1.28087 0
M  V30 42877 C 3991.11 2.22535 -2.63766 0
M  V30 42878 C 3990.22 1.9094 -3.87513 0
M  V30 42879 C 3989.36 3.12875 -4.29282 0
M  V30 42880 C 3988.4 2.77111 -5.4578 0
M  V30 42881 N 3987.54 3.9168 -5.82693 0
M  V30 42882 H 3992.38 0.49187 -2.93913 0
M  V30 42883 H 3989.91 0.231185 -1.45272 0
M  V30 42884 H 3991.87 2.97185 -2.92809 0
M  V30 42885 H 3990.5 2.65874 -1.8306 0
M  V30 42886 H 3989.55 1.0652 -3.65182 0
M  V30 42887 H 3990.86 1.60602 -4.72238 0
M  V30 42888 H 3990.02 3.95843 -4.59775 0
M  V30 42889 H 3988.76 3.46376 -3.43329 0
M  V30 42890 H 3987.76 1.92556 -5.14978 0
M  V30 42891 H 3988.99 2.44823 -6.33434 0
M  V30 42892 H 3986.93 4.25018 -4.99695 0
M  V30 42893 H 3986.85 3.64975 -6.62065 0
M  V30 42894 H 3988.12 4.75344 -6.17793 0
M  V30 42895 N 3992.35 1.55741 0.241371 0
M  V30 42896 C 3993.26 1.9392 1.32031 0
M  V30 42897 C 3994.27 0.840358 1.52361 0
M  V30 42898 O 3995.45 1.14223 1.65876 0
M  V30 42899 C 3992.52 2.23095 2.65386 0
M  V30 42900 C 3991.58 3.46441 2.5353 0
M  V30 42901 C 3990.81 3.74214 3.80525 0
M  V30 42902 O 3991.03 3.03972 4.82656 0
M  V30 42903 O 3989.97 4.67733 3.78826 0
M  V30 42904 H 3993.79 2.85829 1.02642 0
M  V30 42905 H 3991.38 1.42694 0.442591 0
M  V30 42906 H 3993.26 2.43143 3.44179 0
M  V30 42907 H 3991.93 1.34363 2.94497 0
M  V30 42908 H 3990.84 3.31693 1.73004 0
M  V30 42909 H 3992.17 4.35492 2.29363 0
M  V30 42910 N 3993.83 -0.507266 1.49213 0
M  V30 42911 C 3994.77 -1.63037 1.65897 0
M  V30 42912 C 3995.77 -1.6106 0.524979 0
M  V30 42913 O 3996.97 -1.65644 0.704422 0
M  V30 42914 H 3993.35 -0.540343 0.523004 0
M  V30 42915 H 3995.32 -1.46115 2.60178 0
M  V30 42916 C 3994.07 -3.01205 1.73698 0
M  V30 42917 H 3993.39 -3.03429 2.60328 0
M  V30 42918 H 3994.83 -3.79342 1.89408 0
M  V30 42919 C 3993.29 -3.33457 0.480437 0
M  V30 42920 O 3993.82 -3.99737 -0.396662 0
M  V30 42921 N 3992.03 -2.88542 0.345267 0
M  V30 42922 H 3991.57 -2.3478 1.06001 0
M  V30 42923 H 3991.53 -3.10488 -0.494399 0
M  V30 42924 N 3995.3 -1.38182 -0.757851 0
M  V30 42925 C 3996.72 -1.30523 -1.33493 0
M  V30 42926 C 3997.07 0.040906 -1.96157 0
M  V30 42927 O 3996.19 0.942923 -1.94777 0
M  V30 42928 C 3996.79 -2.36373 -2.42721 0
M  V30 42929 C 3995.35 -2.32305 -2.96161 0
M  V30 42930 C 3994.49 -2.19464 -1.69501 0
M  V30 42931 H 3997.44 -1.48602 -0.557049 0
M  V30 42932 H 3997.46 -2.01842 -3.22552 0
M  V30 42933 H 3996.98 -3.34335 -1.97083 0
M  V30 42934 H 3995.08 -1.37911 -3.46138 0
M  V30 42935 H 3995.19 -3.26275 -3.5083 0
M  V30 42936 H 3993.55 -1.66244 -1.92964 0
M  V30 42937 H 3994.34 -3.19362 -1.25948 0
M  V30 42938 N 3996.78 0.985565 -1.22981 0
M  V30 42939 C 3997.69 2.11122 -1.02298 0
M  V30 42940 C 3998.71 1.73972 0.0309605 0
M  V30 42941 O 3999.88 2.00736 -0.163369 0
M  V30 42942 C 3996.95 3.41271 -0.611162 0
M  V30 42943 C 3996.01 3.92477 -1.73956 0
M  V30 42944 C 3995.24 5.16414 -1.3473 0
M  V30 42945 O 3995.47 5.69939 -0.229271 0
M  V30 42946 O 3994.4 5.61557 -2.16649 0
M  V30 42947 H 3998.23 2.31458 -1.96624 0
M  V30 42948 H 3995.81 1.09497 -1.01641 0
M  V30 42949 H 3997.69 4.19571 -0.3922 0
M  V30 42950 H 3996.37 3.22277 0.303167 0
M  V30 42951 H 3995.28 3.15317 -2.01311 0
M  V30 42952 H 3996.61 4.15916 -2.63201 0
M  V30 42953 N 3998.26 1.04068 1.18353 0
M  V30 42954 C 3999.21 0.631753 2.21985 0
M  V30 42955 C 4000.18 -0.360433 1.62142 0
M  V30 42956 O 4001.36 -0.254412 1.89096 0
M  V30 42957 C 3998.5 0.000904226 3.451 0
M  V30 42958 C 3997.62 1.04056 4.19281 0
M  V30 42959 C 3996.75 0.378224 5.29852 0
M  V30 42960 C 3995.79 1.40297 5.95805 0
M  V30 42961 N 3994.93 0.765603 6.97913 0
M  V30 42962 H 3999.77 1.52 2.5632 0
M  V30 42963 H 3997.3 0.760406 1.25922 0
M  V30 42964 H 3999.26 -0.382194 4.15446 0
M  V30 42965 H 3997.89 -0.850856 3.11384 0
M  V30 42966 H 3996.94 1.5416 3.47762 0
M  V30 42967 H 3998.26 1.8189 4.64454 0
M  V30 42968 H 3997.41 -0.0590794 6.06671 0
M  V30 42969 H 3996.15 -0.432207 4.85781 0
M  V30 42970 H 3995.15 1.85041 5.17726 0
M  V30 42971 H 3996.38 2.2151 6.41958 0
M  V30 42972 H 3994.32 -0.0245211 6.55995 0
M  V30 42973 H 3994.24 1.48165 7.41339 0
M  V30 42974 H 3995.51 0.352697 7.78702 0
M  V30 42975 N 3999.74 -1.34578 0.820149 0
M  V30 42976 C 4000.99 -1.97626 0.403322 0
M  V30 42977 C 4001.3 -1.65756 -1.03847 0
M  V30 42978 O 4002.51 -2.22273 -1.55908 0
M  V30 42979 C 4000.96 -3.53604 0.670223 0
M  V30 42980 C 4000.57 -3.94371 2.12545 0
M  V30 42981 C 4002.31 -4.23297 0.319424 0
M  V30 42982 C 4000.22 -5.43249 2.33739 0
M  V30 42983 H 3999.15 -0.739517 0.147075 0
M  V30 42984 H 4001.8 -1.53459 1.00611 0
M  V30 42985 H 4000.18 -3.96 -0.00269935 0
M  V30 42986 H 4001.36 -3.63089 2.83731 0
M  V30 42987 H 3999.67 -3.37607 2.43742 0
M  V30 42988 H 4002.27 -5.32755 0.455644 0
M  V30 42989 H 4002.61 -4.09746 -0.735803 0
M  V30 42990 H 4003.15 -3.86368 0.946811 0
M  V30 42991 H 3999.89 -5.61783 3.37757 0
M  V30 42992 H 3999.41 -5.76055 1.67094 0
M  V30 42993 H 4001.08 -6.09894 2.1596 0
M  V30 42994 N 4001.22 -0.574861 -1.46742 0
M  V30 42995 C 4002.47 -0.0552078 -2.01624 0
M  V30 42996 C 4002.78 1.30967 -1.45282 0
M  V30 42997 O 4003.98 1.92023 -1.91936 0
M  V30 42998 C 4002.44 -0.048134 -3.59868 0
M  V30 42999 C 4002.05 -1.41085 -4.25205 0
M  V30 43000 C 4003.79 0.417986 -4.22437 0
M  V30 43001 C 4001.7 -1.36193 -5.75505 0
M  V30 43002 H 4000.63 -0.0168691 -0.753811 0
M  V30 43003 H 4003.28 -0.725342 -1.68556 0
M  V30 43004 H 4001.66 0.688007 -3.89978 0
M  V30 43005 H 4002.84 -2.1661 -4.06715 0
M  V30 43006 H 4001.15 -1.81635 -3.74697 0
M  V30 43007 H 4003.75 0.47326 -5.32601 0
M  V30 43008 H 4004.09 1.43384 -3.90828 0
M  V30 43009 H 4004.62 -0.263845 -3.96924 0
M  V30 43010 H 4001.36 -2.35434 -6.11761 0
M  V30 43011 H 4000.88 -0.64876 -5.96281 0
M  V30 43012 H 4002.56 -1.07148 -6.38066 0
M  V30 43013 N 4002.69 1.54476 -0.312224 0
M  V30 43014 C 4003.63 2.2014 0.601132 0
M  V30 43015 C 4004.61 1.17458 1.12439 0
M  V30 43016 O 4005.79 1.46149 1.1905 0
M  V30 43017 C 4002.92 2.85413 1.82365 0
M  V30 43018 C 4001.96 4.01718 1.43265 0
M  V30 43019 S 4002.8 5.33353 0.479001 0
M  V30 43020 C 4003.95 6.02115 1.70906 0
M  V30 43021 H 4004.18 2.97268 0.0433121 0
M  V30 43022 H 4001.72 1.54099 -0.0963309 0
M  V30 43023 H 4003.68 3.23644 2.52517 0
M  V30 43024 H 4002.34 2.08109 2.35265 0
M  V30 43025 H 4001.53 4.46212 2.34331 0
M  V30 43026 H 4001.13 3.65102 0.810955 0
M  V30 43027 H 4003.42 6.23604 2.6481 0
M  V30 43028 H 4004.37 6.95943 1.30649 0
M  V30 43029 H 4004.77 5.31889 1.89088 0
M  V30 43030 N 4004.17 0.0401637 1.57549 0
M  V30 43031 C 4005.14 -0.923089 2.0979 0
M  V30 43032 C 4006.14 -1.24701 1.0152 0
M  V30 43033 O 4007.33 -1.18552 1.27637 0
M  V30 43034 C 4004.46 -2.23632 2.57297 0
M  V30 43035 H 4005.65 -0.47043 2.96187 0
M  V30 43036 H 4003.2 -0.208061 1.54909 0
M  V30 43037 H 4003.94 -2.73503 1.7426 0
M  V30 43038 H 4003.72 -2.01429 3.36406 0
M  V30 43039 H 4005.21 -2.92652 2.979 0
M  V30 43040 N 4005.65 -1.55866 -0.233109 0
M  V30 43041 C 4006.58 -1.94484 -1.29222 0
M  V30 43042 C 4007.56 -0.811529 -1.49493 0
M  V30 43043 O 4008.75 -1.07292 -1.6187 0
M  V30 43044 C 4005.88 -2.25152 -2.64431 0
M  V30 43045 C 4004.83 -3.40865 -2.58835 0
M  V30 43046 C 4004.16 -3.57109 -3.97967 0
M  V30 43047 C 4005.46 -4.76167 -2.1462 0
M  V30 43048 H 4007.15 -2.83201 -0.971477 0
M  V30 43049 H 4004.7 -1.36255 -0.465881 0
M  V30 43050 H 4006.65 -2.50758 -3.38671 0
M  V30 43051 H 4005.37 -1.33276 -2.9817 0
M  V30 43052 H 4004.03 -3.15289 -1.87052 0
M  V30 43053 H 4003.68 -2.62629 -4.28993 0
M  V30 43054 H 4003.38 -4.34931 -3.95107 0
M  V30 43055 H 4004.9 -3.85051 -4.73886 0
M  V30 43056 H 4006.32 -5.01055 -2.78598 0
M  V30 43057 H 4004.72 -5.5719 -2.22844 0
M  V30 43058 H 4005.79 -4.72301 -1.09817 0
M  V30 43059 N 4007.13 0.499346 -1.4948 0
M  V30 43060 C 4008.38 1.25337 -1.5905 0
M  V30 43061 C 4008.7 1.92504 -0.277951 0
M  V30 43062 O 4007.96 1.81404 0.73425 0
M  V30 43063 C 4008.26 2.34156 -2.70011 0
M  V30 43064 C 4007.92 1.84435 -4.11454 0
M  V30 43065 C 4006.59 1.70595 -4.49945 0
M  V30 43066 C 4008.94 1.47239 -4.9997 0
M  V30 43067 C 4006.27 1.17939 -5.74724 0
M  V30 43068 C 4008.62 0.960355 -6.25268 0
M  V30 43069 C 4007.28 0.808356 -6.62587 0
M  V30 43070 H 4006.55 0.458639 -0.582006 0
M  V30 43071 H 4009.2 0.553834 -1.83316 0
M  V30 43072 H 4007.5 3.09904 -2.39723 0
M  V30 43073 H 4009.2 2.92203 -2.74624 0
M  V30 43074 H 4005.79 1.96168 -3.81072 0
M  V30 43075 H 4009.98 1.56779 -4.70887 0
M  V30 43076 H 4005.23 1.04884 -6.02337 0
M  V30 43077 H 4009.41 0.663358 -6.93233 0
M  V30 43078 H 4007.03 0.398163 -7.59157 0
M  V30 43079 N 4008.61 1.38582 0.750513 0
M  V30 43080 C 4009.52 1.38299 1.89501 0
M  V30 43081 C 4010.53 0.279709 1.71737 0
M  V30 43082 O 4011.71 0.518641 1.94607 0
M  V30 43083 C 4008.77 1.20982 3.24907 0
M  V30 43084 C 4007.84 2.41143 3.55174 0
M  V30 43085 C 4007.07 2.24642 4.8412 0
M  V30 43086 O 4007.29 1.24173 5.5672 0
M  V30 43087 O 4006.23 3.13297 5.13934 0
M  V30 43088 H 4010.05 2.3474 1.92693 0
M  V30 43089 H 4007.64 1.19534 0.896212 0
M  V30 43090 H 4009.52 1.13396 4.05856 0
M  V30 43091 H 4008.19 0.276274 3.22519 0
M  V30 43092 H 4007.1 2.54303 2.74373 0
M  V30 43093 H 4008.43 3.33137 3.62326 0
M  V30 43094 N 4010.09 -0.979029 1.23502 0
M  V30 43095 C 4011.05 -2.05323 1.01857 0
M  V30 43096 C 4012.05 -1.60787 -0.0200851 0
M  V30 43097 O 4013.24 -1.72808 0.219791 0
M  V30 43098 C 4010.37 -3.36572 0.541463 0
M  V30 43099 H 4011.56 -2.25958 1.97187 0
M  V30 43100 H 4009.12 -1.15263 1.05565 0
M  V30 43101 H 4009.85 -3.21627 -0.415551 0
M  V30 43102 H 4009.64 -3.70238 1.29099 0
M  V30 43103 H 4011.13 -4.15575 0.410708 0
M  V30 43104 N 4011.56 -1.04695 -1.178 0
M  V30 43105 C 4012.81 -0.755174 -1.88215 0
M  V30 43106 C 4013.14 0.715699 -1.80531 0
M  V30 43107 O 4012.42 1.52289 -1.20989 0
M  V30 43108 C 4012.7 -1.22992 -3.38445 0
M  V30 43109 C 4012.55 -2.76336 -3.54906 0
M  V30 43110 C 4013.87 -0.824967 -4.32299 0
M  V30 43111 H 4010.99 -0.275807 -0.683447 0
M  V30 43112 H 4013.63 -1.30006 -1.38558 0
M  V30 43113 H 4011.78 -0.766367 -3.80866 0
M  V30 43114 H 4013.46 -3.30777 -3.21535 0
M  V30 43115 H 4011.7 -3.15856 -2.97351 0
M  V30 43116 H 4012.37 -3.04614 -4.60342 0
M  V30 43117 H 4014.85 -1.22396 -3.97692 0
M  V30 43118 H 4013.72 -1.18482 -5.3596 0
M  V30 43119 H 4013.98 0.271432 -4.41266 0
M  V30 43120 N 4013.04 1.34141 -0.827275 0
M  V30 43121 C 4013.97 2.28239 -0.209703 0
M  V30 43122 C 4014.99 1.51224 0.602919 0
M  V30 43123 O 4016.18 1.73196 0.431887 0
M  V30 43124 C 4013.28 3.3107 0.724287 0
M  V30 43125 C 4012.45 4.37375 -0.0464581 0
M  V30 43126 C 4011.51 5.19942 0.809116 0
M  V30 43127 O 4010.53 5.6864 0.252519 0
M  V30 43128 N 4011.74 5.40079 2.12826 0
M  V30 43129 H 4014.5 2.81876 -1.01815 0
M  V30 43130 H 4012.06 1.46711 -0.684643 0
M  V30 43131 H 4014.05 3.83206 1.30136 0
M  V30 43132 H 4012.62 2.77796 1.43347 0
M  V30 43133 H 4011.84 3.85896 -0.804861 0
M  V30 43134 H 4013.13 5.05519 -0.576864 0
M  V30 43135 H 4012.53 5.02196 2.60414 0
M  V30 43136 H 4011.09 5.95316 2.65408 0
M  V30 43137 N 4014.52 0.582635 1.46435 0
M  V30 43138 C 4015.75 0.073802 2.06768 0
M  V30 43139 C 4016.16 -1.23112 1.43139 0
M  V30 43140 O 4015.52 -1.74431 0.536664 0
M  V30 43141 C 4015.57 -0.098757 3.61365 0
M  V30 43142 O 4015.29 1.15452 4.22614 0
M  V30 43143 C 4016.79 -0.641948 4.38627 0
M  V30 43144 H 4014.01 0.0574196 0.668539 0
M  V30 43145 H 4016.56 0.803283 1.88063 0
M  V30 43146 H 4014.71 -0.778459 3.79498 0
M  V30 43147 H 4015.13 0.968294 5.15485 0
M  V30 43148 H 4016.6 -0.71187 5.47391 0
M  V30 43149 H 4017.08 -1.6589 4.06666 0
M  V30 43150 H 4017.68 0.00288328 4.253 0
M  V30 43151 N 4016 -1.54309 0.320412 0
M  V30 43152 C 4017.25 -1.99691 -0.283986 0
M  V30 43153 C 4017.56 -1.21239 -1.53494 0
M  V30 43154 O 4018.77 -1.56983 -2.21514 0
M  V30 43155 C 4017.22 -3.55571 -0.556559 0
M  V30 43156 C 4016.83 -4.42853 0.677164 0
M  V30 43157 C 4018.57 -4.09429 -1.12108 0
M  V30 43158 C 4016.48 -5.90199 0.376669 0
M  V30 43159 H 4015.41 -0.745949 -0.109892 0
M  V30 43160 H 4018.06 -1.78339 0.432145 0
M  V30 43161 H 4016.44 -3.72898 -1.33279 0
M  V30 43162 H 4017.62 -4.37301 1.45273 0
M  V30 43163 H 4015.93 -3.99867 1.16168 0
M  V30 43164 H 4018.53 -5.17103 -1.36048 0
M  V30 43165 H 4018.87 -3.61218 -2.06947 0
M  V30 43166 H 4019.41 -3.95722 -0.406104 0
M  V30 43167 H 4016.14 -6.42598 1.29414 0
M  V30 43168 H 4015.66 -5.98711 -0.361255 0
M  V30 43169 H 4017.34 -6.46998 -0.0146593 0
M  V30 43170 N 4017.48 -0.0485183 -1.57525 0
M  V30 43171 C 4018.72 0.62462 -1.92205 0
M  V30 43172 C 4019.04 1.7154 -0.927319 0
M  V30 43173 O 4018.31 1.9588 0.0282342 0
M  V30 43174 H 4016.89 0.233711 -0.709498 0
M  V30 43175 H 4019.56 -0.100895 -1.94639 0
M  V30 43176 H 4018.65 1.06493 -2.93369 0
M  V30 43177 N 4018.95 1.55988 0.224839 0
M  V30 43178 C 4019.9 1.92998 1.29825 0
M  V30 43179 C 4020.9 0.811616 1.48691 0
M  V30 43180 O 4022.1 0.996424 1.49905 0
M  V30 43181 H 4018.48 0.613278 0.435194 0
M  V30 43182 H 4020.45 2.82573 0.958904 0
M  V30 43183 C 4019.2 2.26021 2.64216 0
M  V30 43184 H 4018.52 3.11588 2.50505 0
M  V30 43185 H 4019.96 2.55803 3.38143 0
M  V30 43186 C 4018.42 1.08419 3.18978 0
M  V30 43187 O 4018.95 0.343609 4.00228 0
M  V30 43188 N 4017.15 0.86889 2.77306 0
M  V30 43189 H 4016.7 1.47284 2.11341 0
M  V30 43190 H 4016.66 0.0837565 3.14288 0
M  V30 43191 N 4020.43 -0.491412 1.49743 0
M  V30 43192 C 4021.84 -1.07275 1.52804 0
M  V30 43193 C 4022.19 -1.93577 0.319746 0
M  V30 43194 O 4021.32 -2.08772 -0.569487 0
M  V30 43195 C 4021.91 -1.95224 2.76899 0
M  V30 43196 C 4020.47 -2.48503 2.82707 0
M  V30 43197 C 4019.62 -1.2635 2.46842 0
M  V30 43198 H 4022.57 -0.274898 1.56301 0
M  V30 43199 H 4022.59 -2.80036 2.57604 0
M  V30 43200 H 4022.1 -1.32385 3.64823 0
M  V30 43201 H 4020.2 -3.14953 1.99087 0
M  V30 43202 H 4020.32 -2.84999 3.85113 0
M  V30 43203 H 4018.68 -1.59181 1.98831 0
M  V30 43204 H 4019.46 -0.65205 3.37051 0
M  V30 43205 N 4021.91 -1.38978 -0.743153 0
M  V30 43206 C 4022.84 -1.39774 -1.87044 0
M  V30 43207 C 4023.82 -0.26219 -1.68067 0
M  V30 43208 O 4025.01 -0.466815 -1.88506 0
M  V30 43209 C 4022.14 -1.2324 -3.24699 0
M  V30 43210 C 4021.09 -2.34109 -3.58298 0
M  V30 43211 C 4020.42 -2.02671 -4.94801 0
M  V30 43212 C 4021.72 -3.76401 -3.62104 0
M  V30 43213 H 4023.41 -2.3411 -1.86636 0
M  V30 43214 H 4020.96 -1.12688 -0.896521 0
M  V30 43215 H 4022.91 -1.22419 -4.03226 0
M  V30 43216 H 4021.63 -0.253695 -3.25613 0
M  V30 43217 H 4020.29 -2.34133 -2.82095 0
M  V30 43218 H 4019.94 -1.03259 -4.92287 0
M  V30 43219 H 4019.64 -2.76932 -5.1825 0
M  V30 43220 H 4021.16 -2.03487 -5.75696 0
M  V30 43221 H 4022.58 -3.78351 -4.30724 0
M  V30 43222 H 4020.98 -4.49953 -3.97067 0
M  V30 43223 H 4022.05 -4.07965 -2.62092 0
M  V30 43224 N 4023.39 0.972465 -1.2402 0
M  V30 43225 C 4024.8 1.24019 -1.00456 0
M  V30 43226 C 4025 1.99409 0.289533 0
M  V30 43227 O 4024.06 2.31554 1.00692 0
M  V30 43228 C 4025.37 2.03199 -2.21655 0
M  V30 43229 C 4026.92 2.16308 -2.26229 0
M  V30 43230 C 4027.4 2.98882 -3.47036 0
M  V30 43231 N 4028.89 3.06465 -3.47323 0
M  V30 43232 C 4029.62 3.70701 -4.37456 0
M  V30 43233 N 4029.12 4.36696 -5.37837 0
M  V30 43234 N 4030.91 3.67666 -4.2518 0
M  V30 43235 H 4023.06 0.467631 -2.07188 0
M  V30 43236 H 4025.33 0.269251 -0.90896 0
M  V30 43237 H 4025.03 1.55185 -3.15611 0
M  V30 43238 H 4024.91 3.03939 -2.23386 0
M  V30 43239 H 4027.29 2.63526 -1.32807 0
M  V30 43240 H 4027.37 1.14932 -2.28527 0
M  V30 43241 H 4027.02 2.52358 -4.40769 0
M  V30 43242 H 4026.95 4.00446 -3.41981 0
M  V30 43243 H 4029.44 2.59516 -2.74699 0
M  V30 43244 H 4029.75 4.83514 -6.02855 0
M  V30 43245 H 4028.1 4.35379 -5.41729 0
M  V30 43246 H 4031.29 3.15283 -3.45998 0
M  V30 43247 H 4031.46 4.17445 -4.95624 0
M  V30 43248 N 4024.87 1.05318 1.17243 0
M  V30 43249 C 4025.8 0.676349 2.2349 0
M  V30 43250 C 4026.78 -0.326478 1.66938 0
M  V30 43251 O 4027.96 -0.203789 1.93128 0
M  V30 43252 C 4025.09 0.0516366 3.47262 0
M  V30 43253 C 4024.05 0.979363 4.16644 0
M  V30 43254 C 4023.37 0.218463 5.34254 0
M  V30 43255 C 4024.67 2.30407 4.68732 0
M  V30 43256 H 4026.37 1.56459 2.55266 0
M  V30 43257 H 4023.91 0.753736 1.22698 0
M  V30 43258 H 4025.87 -0.223791 4.20805 0
M  V30 43259 H 4024.59 -0.871559 3.14756 0
M  V30 43260 H 4023.25 1.23938 3.45015 0
M  V30 43261 H 4022.9 -0.707537 4.97999 0
M  V30 43262 H 4022.6 0.836643 5.81613 0
M  V30 43263 H 4024.12 -0.0496501 6.1058 0
M  V30 43264 H 4025.53 2.08847 5.33906 0
M  V30 43265 H 4023.93 2.87634 5.26675 0
M  V30 43266 H 4025 2.94176 3.85472 0
M  V30 43267 N 4026.34 -1.33701 0.834377 0
M  V30 43268 C 4027.59 -1.97188 0.42426 0
M  V30 43269 C 4027.91 -1.66848 -1.02083 0
M  V30 43270 O 4029.11 -2.23914 -1.53541 0
M  V30 43271 C 4027.57 -3.52874 0.70769 0
M  V30 43272 C 4027.18 -3.92094 2.16716 0
M  V30 43273 C 4028.92 -4.22934 0.364302 0
M  V30 43274 C 4026.83 -5.4074 2.39488 0
M  V30 43275 H 4025.76 -0.737915 0.15491 0
M  V30 43276 H 4028.41 -1.52383 1.02233 0
M  V30 43277 H 4026.79 -3.9598 0.0393019 0
M  V30 43278 H 4027.96 -3.60059 2.87566 0
M  V30 43279 H 4026.28 -3.35003 2.47309 0
M  V30 43280 H 4028.88 -5.32242 0.512124 0
M  V30 43281 H 4029.22 -4.10503 -0.692302 0
M  V30 43282 H 4029.75 -3.85342 0.987737 0
M  V30 43283 H 4026.49 -5.58169 3.43697 0
M  V30 43284 H 4026.01 -5.74251 1.73194 0
M  V30 43285 H 4027.69 -6.07569 2.22417 0
M  V30 43286 N 4027.82 -0.590393 -1.46124 0
M  V30 43287 C 4029.05 -0.0846435 -2.06427 0
M  V30 43288 C 4029.46 1.22899 -1.43849 0
M  V30 43289 O 4028.8 1.75562 -0.540725 0
M  V30 43290 C 4028.87 0.147421 -3.59198 0
M  V30 43291 C 4028.53 -1.08178 -4.44012 0
M  V30 43292 C 4029.53 -1.99573 -4.80069 0
M  V30 43293 C 4027.21 -1.30578 -4.85031 0
M  V30 43294 C 4029.21 -3.1171 -5.55982 0
M  V30 43295 C 4026.89 -2.43019 -5.607 0
M  V30 43296 C 4027.89 -3.33414 -5.96091 0
M  V30 43297 O 4027.58 -4.439 -6.70229 0
M  V30 43298 H 4027.31 -0.0580517 -0.673503 0
M  V30 43299 H 4029.86 -0.813053 -1.88623 0
M  V30 43300 H 4028.09 0.930531 -3.75337 0
M  V30 43301 H 4029.78 0.602631 -4.01402 0
M  V30 43302 H 4030.55 -1.83485 -4.48952 0
M  V30 43303 H 4026.43 -0.611238 -4.5693 0
M  V30 43304 H 4029.97 -3.82291 -5.83524 0
M  V30 43305 H 4025.87 -2.59066 -5.91232 0
M  V30 43306 H 4026.64 -4.42365 -6.88662 0
M  V30 43307 N 4029.3 1.54136 -0.328591 0
M  V30 43308 C 4030.25 2.21249 0.550733 0
M  V30 43309 C 4031.23 1.19472 1.07774 0
M  V30 43310 O 4032.43 1.45082 1.01392 0
M  V30 43311 C 4029.56 2.97758 1.70866 0
M  V30 43312 C 4028.64 4.06878 1.19631 0
M  V30 43313 N 4029.03 5.04184 0.404019 0
M  V30 43314 C 4027.33 4.20918 1.47457 0
M  V30 43315 C 4028.03 5.8156 0.127745 0
M  V30 43316 N 4027.01 5.38874 0.715268 0
M  V30 43317 H 4030.81 2.93835 -0.0618248 0
M  V30 43318 H 4028.32 1.6184 -0.134698 0
M  V30 43319 H 4030.32 3.44326 2.35042 0
M  V30 43320 H 4028.98 2.26695 2.32464 0
M  V30 43321 H 4029.99 5.17879 0.046416 0
M  V30 43322 H 4026.67 3.61071 2.09604 0
M  V30 43323 H 4028.06 6.69959 -0.510404 0
M  V30 43324 N 4030.78 0.0568716 1.57497 0
M  V30 43325 C 4031.71 -0.91339 2.14894 0
M  V30 43326 C 4032.69 -1.32063 1.07208 0
M  V30 43327 O 4033.87 -1.39433 1.35174 0
M  V30 43328 C 4031 -2.18624 2.69853 0
M  V30 43329 C 4029.96 -1.91889 3.82574 0
M  V30 43330 C 4029.28 -3.25678 4.24073 0
M  V30 43331 C 4030.58 -1.23597 5.07465 0
M  V30 43332 H 4032.28 -0.435295 2.96219 0
M  V30 43333 H 4029.82 -0.207935 1.42491 0
M  V30 43334 H 4031.78 -2.86905 3.08648 0
M  V30 43335 H 4030.5 -2.6865 1.85728 0
M  V30 43336 H 4029.16 -1.26018 3.4426 0
M  V30 43337 H 4028.81 -3.73515 3.36891 0
M  V30 43338 H 4028.51 -3.08586 5.00049 0
M  V30 43339 H 4030.03 -3.95181 4.65473 0
M  V30 43340 H 4031.45 -1.81922 5.4367 0
M  V30 43341 H 4029.84 -1.16813 5.88621 0
M  V30 43342 H 4030.91 -0.212832 4.84433 0
M  V30 43343 N 4032.26 -1.56105 -0.216564 0
M  V30 43344 C 4033.49 -1.83172 -0.955593 0
M  V30 43345 C 4033.89 -0.634428 -1.78246 0
M  V30 43346 O 4033.24 0.40636 -1.79149 0
M  V30 43347 C 4033.3 -3.04043 -1.91829 0
M  V30 43348 C 4032.96 -4.38841 -1.27546 0
M  V30 43349 C 4033.96 -5.15657 -0.662882 0
M  V30 43350 C 4031.65 -4.85566 -1.28573 0
M  V30 43351 C 4033.64 -6.37362 -0.0691553 0
M  V30 43352 C 4031.33 -6.07213 -0.688162 0
M  V30 43353 C 4032.32 -6.82952 -0.0809323 0
M  V30 43354 O 4032.01 -8.02298 0.507327 0
M  V30 43355 H 4031.74 -0.612802 -0.285394 0
M  V30 43356 H 4034.3 -2.04047 -0.235383 0
M  V30 43357 H 4032.53 -2.78999 -2.67762 0
M  V30 43358 H 4034.22 -3.17939 -2.52328 0
M  V30 43359 H 4034.98 -4.80662 -0.647235 0
M  V30 43360 H 4030.86 -4.26584 -1.74776 0
M  V30 43361 H 4034.41 -6.96421 0.405427 0
M  V30 43362 H 4030.3 -6.4168 -0.701239 0
M  V30 43363 H 4031.07 -8.17512 0.402132 0
M  V30 43364 N 4033.73 0.483463 -1.50001 0
M  V30 43365 C 4034.98 1.23398 -1.60054 0
M  V30 43366 C 4035.3 1.92722 -0.297193 0
M  V30 43367 O 4034.57 1.83549 0.684597 0
M  V30 43368 H 4033.15 0.458466 -0.589761 0
M  V30 43369 H 4035.82 0.558803 -1.86717 0
M  V30 43370 H 4034.91 1.98854 -2.40548 0
M  V30 43371 N 4035.21 1.39371 0.735772 0
M  V30 43372 C 4036.46 1.36754 1.49753 0
M  V30 43373 C 4036.79 -0.0367809 1.94165 0
M  V30 43374 O 4036.07 -1.00156 1.6673 0
M  V30 43375 C 4036.35 2.33921 2.73775 0
M  V30 43376 C 4036.2 3.83292 2.35387 0
M  V30 43377 C 4037.52 2.2893 3.75871 0
M  V30 43378 H 4034.64 0.49807 0.543227 0
M  V30 43379 H 4037.28 1.70356 0.841351 0
M  V30 43380 H 4035.43 2.05397 3.29764 0
M  V30 43381 H 4037.1 4.22563 1.85036 0
M  V30 43382 H 4035.35 4.00105 1.67625 0
M  V30 43383 H 4036.02 4.46766 3.24198 0
M  V30 43384 H 4038.49 2.5415 3.29465 0
M  V30 43385 H 4037.37 2.98999 4.60316 0
M  V30 43386 H 4037.63 1.29407 4.22737 0
M  V30 43387 N 4036.69 -0.965875 1.24534 0
M  V30 43388 C 4037.92 -1.74147 1.1116 0
M  V30 43389 C 4038.33 -1.86147 -0.338509 0
M  V30 43390 O 4037.67 -1.3505 -1.24528 0
M  V30 43391 C 4037.73 -3.17853 1.67957 0
M  V30 43392 C 4037.4 -3.29318 3.16857 0
M  V30 43393 C 4038.4 -3.14504 4.13984 0
M  V30 43394 C 4036.08 -3.535 3.56851 0
M  V30 43395 C 4038.07 -3.237 5.49087 0
M  V30 43396 C 4035.76 -3.62334 4.92095 0
M  V30 43397 C 4036.76 -3.47446 5.88022 0
M  V30 43398 O 4036.45 -3.55939 7.20807 0
M  V30 43399 H 4036.18 -0.552873 0.388983 0
M  V30 43400 H 4038.73 -1.22116 1.65157 0
M  V30 43401 H 4036.96 -3.71197 1.08395 0
M  V30 43402 H 4038.65 -3.77228 1.49846 0
M  V30 43403 H 4039.42 -2.95704 3.84427 0
M  V30 43404 H 4035.3 -3.64154 2.82689 0
M  V30 43405 H 4038.84 -3.11997 6.23942 0
M  V30 43406 H 4034.74 -3.80648 5.21323 0
M  V30 43407 H 4035.51 -3.72642 7.28752 0
M  V30 43408 N 4038.17 -1.05938 -1.16683 0
M  V30 43409 C 4039.4 -0.793434 -1.90757 0
M  V30 43410 C 4039.81 0.655562 -1.7748 0
M  V30 43411 O 4039.15 1.46022 -1.1146 0
M  V30 43412 C 4039.21 -1.10412 -3.42125 0
M  V30 43413 C 4038.88 -2.55081 -3.79187 0
M  V30 43414 C 4039.87 -3.53307 -3.81406 0
M  V30 43415 C 4037.56 -2.90287 -4.09925 0
M  V30 43416 C 4039.55 -4.8478 -4.13845 0
M  V30 43417 C 4037.24 -4.21961 -4.42032 0
M  V30 43418 C 4038.24 -5.19017 -4.43971 0
M  V30 43419 O 4037.93 -6.48328 -4.75317 0
M  V30 43420 H 4037.66 -0.287428 -0.61185 0
M  V30 43421 H 4040.21 -1.4153 -1.48857 0
M  V30 43422 H 4038.44 -0.425173 -3.84356 0
M  V30 43423 H 4040.13 -0.822988 -3.97469 0
M  V30 43424 H 4040.9 -3.27449 -3.57774 0
M  V30 43425 H 4036.78 -2.154 -4.07583 0
M  V30 43426 H 4040.32 -5.6053 -4.15273 0
M  V30 43427 H 4036.22 -4.47578 -4.65128 0
M  V30 43428 H 4036.98 -6.53263 -4.93143 0
M  V30 43429 N 4039.65 1.33256 -0.841456 0
M  V30 43430 C 4040.59 2.29161 -0.274527 0
M  V30 43431 C 4041.56 1.54449 0.611116 0
M  V30 43432 O 4042.75 1.82736 0.548836 0
M  V30 43433 C 4039.89 3.40814 0.542215 0
M  V30 43434 C 4039 4.30432 -0.36774 0
M  V30 43435 C 4038.14 5.29201 0.460354 0
M  V30 43436 C 4037.18 6.1046 -0.447829 0
M  V30 43437 N 4036.31 7.01265 0.342291 0
M  V30 43438 H 4041.15 2.77047 -1.09767 0
M  V30 43439 H 4038.69 1.36319 -0.552759 0
M  V30 43440 H 4040.65 4.04254 1.03125 0
M  V30 43441 H 4039.28 2.94114 1.3303 0
M  V30 43442 H 4038.33 3.6769 -0.975097 0
M  V30 43443 H 4039.64 4.87292 -1.06529 0
M  V30 43444 H 4038.8 5.98181 1.0131 0
M  V30 43445 H 4037.54 4.72926 1.19133 0
M  V30 43446 H 4036.54 5.40395 -1.01257 0
M  V30 43447 H 4037.77 6.68819 -1.17721 0
M  V30 43448 H 4035.71 6.47435 1.0566 0
M  V30 43449 H 4035.63 7.55418 -0.296489 0
M  V30 43450 H 4036.9 7.74549 0.877195 0
M  V30 43451 N 4041.13 0.598134 1.45809 0
M  V30 43452 C 4042.37 0.0894697 2.01902 0
M  V30 43453 C 4042.69 -1.28098 1.47024 0
M  V30 43454 O 4041.96 -1.84418 0.660832 0
M  V30 43455 H 4040.54 0.0300844 0.746394 0
M  V30 43456 H 4043.21 0.777398 1.78725 0
M  V30 43457 H 4042.3 0.0320973 3.12083 0
M  V30 43458 N 4042.6 -1.5396 0.33676 0
M  V30 43459 C 4043.85 -2.01796 -0.254919 0
M  V30 43460 C 4044.2 -1.22044 -1.48738 0
M  V30 43461 O 4043.5 -0.297945 -1.89269 0
M  V30 43462 C 4043.69 -3.51838 -0.628101 0
M  V30 43463 C 4043.52 -4.46116 0.566644 0
M  V30 43464 C 4042.29 -4.93844 1.06985 0
M  V30 43465 C 4044.49 -4.94222 1.42298 0
M  V30 43466 N 4042.47 -5.72058 2.22763 0
M  V30 43467 C 4043.84 -5.70491 2.42775 0
M  V30 43468 C 4045.9 -4.76342 1.44922 0
M  V30 43469 C 4044.6 -6.30782 3.45697 0
M  V30 43470 C 4046.63 -5.37478 2.46721 0
M  V30 43471 C 4045.99 -6.13609 3.45924 0
M  V30 43472 H 4042.09 -0.779937 -0.0567695 0
M  V30 43473 H 4044.67 -1.88822 0.474789 0
M  V30 43474 H 4042.84 -3.65031 -1.32692 0
M  V30 43475 H 4044.57 -3.86426 -1.20238 0
M  V30 43476 H 4041.33 -4.69269 0.639019 0
M  V30 43477 H 4041.75 -6.15837 2.812 0
M  V30 43478 H 4046.39 -4.17034 0.69588 0
M  V30 43479 H 4044.11 -6.89203 4.21929 0
M  V30 43480 H 4047.7 -5.25554 2.49569 0
M  V30 43481 H 4046.58 -6.60074 4.23404 0
M  V30 43482 N 4044.08 -0.0652232 -1.57465 0
M  V30 43483 C 4044.99 0.919197 -2.15842 0
M  V30 43484 C 4046.01 1.33173 -1.11987 0
M  V30 43485 O 4047.18 1.40578 -1.44222 0
M  V30 43486 C 4044.25 2.17085 -2.70323 0
M  V30 43487 C 4043.31 1.81535 -3.89029 0
M  V30 43488 C 4042.54 3.00734 -4.40902 0
M  V30 43489 O 4042.77 4.14548 -3.91799 0
M  V30 43490 O 4041.7 2.80932 -5.32317 0
M  V30 43491 H 4045.53 0.452651 -3.00308 0
M  V30 43492 H 4043.11 0.157478 -1.48568 0
M  V30 43493 H 4044.99 2.90496 -3.05271 0
M  V30 43494 H 4043.67 2.6285 -1.88921 0
M  V30 43495 H 4042.57 1.05397 -3.58946 0
M  V30 43496 H 4043.91 1.40558 -4.71703 0
M  V30 43497 N 4045.56 1.56218 0.208282 0
M  V30 43498 C 4046.52 1.92648 1.24175 0
M  V30 43499 C 4047.52 0.806298 1.39124 0
M  V30 43500 O 4048.71 1.07389 1.37162 0
M  V30 43501 C 4045.84 2.18896 2.61338 0
M  V30 43502 H 4047.04 2.85093 0.930698 0
M  V30 43503 H 4044.59 1.49704 0.449259 0
M  V30 43504 H 4045.33 1.29046 2.97519 0
M  V30 43505 H 4045.11 3.00513 2.51861 0
M  V30 43506 H 4046.6 2.48131 3.35888 0
M  V30 43507 N 4047.04 -0.475502 1.50256 0
M  V30 43508 C 4047.98 -1.57405 1.68797 0
M  V30 43509 C 4048.95 -1.57442 0.52928 0
M  V30 43510 O 4050.14 -1.75039 0.759332 0
M  V30 43511 C 4047.28 -2.95407 1.78406 0
M  V30 43512 C 4046.39 -3.05193 3.05747 0
M  V30 43513 C 4045.53 -4.34083 3.06179 0
M  V30 43514 C 4044.57 -4.37594 4.27993 0
M  V30 43515 N 4043.7 -5.57949 4.26189 0
M  V30 43516 H 4048.54 -1.40901 2.62585 0
M  V30 43517 H 4046.08 -0.685129 1.30171 0
M  V30 43518 H 4048.04 -3.75429 1.81958 0
M  V30 43519 H 4046.67 -3.10556 0.88061 0
M  V30 43520 H 4045.72 -2.18072 3.11687 0
M  V30 43521 H 4047.03 -3.03647 3.95727 0
M  V30 43522 H 4046.19 -5.22448 3.08436 0
M  V30 43523 H 4044.93 -4.38231 2.14022 0
M  V30 43524 H 4043.93 -3.47627 4.25953 0
M  V30 43525 H 4045.16 -4.35141 5.21372 0
M  V30 43526 H 4043.1 -5.62891 3.36883 0
M  V30 43527 H 4043.02 -5.58126 5.09933 0
M  V30 43528 H 4044.29 -6.48452 4.32586 0
M  V30 43529 N 4048.52 -1.39759 -0.72837 0
M  V30 43530 C 4049.43 -1.41296 -1.87276 0
M  V30 43531 C 4050.44 -0.306995 -1.7127 0
M  V30 43532 O 4051.62 -0.549536 -1.93758 0
M  V30 43533 C 4048.68 -1.26135 -3.22941 0
M  V30 43534 C 4047.74 -2.46763 -3.51293 0
M  V30 43535 C 4046.98 -2.32315 -4.80484 0
M  V30 43536 O 4047.2 -1.33015 -5.54674 0
M  V30 43537 O 4046.13 -3.21434 -5.08885 0
M  V30 43538 H 4049.96 -2.37776 -1.88935 0
M  V30 43539 H 4047.54 -1.20945 -0.877082 0
M  V30 43540 H 4049.43 -1.19839 -4.04001 0
M  V30 43541 H 4048.1 -0.327549 -3.22039 0
M  V30 43542 H 4047.01 -2.58636 -2.70293 0
M  V30 43543 H 4048.34 -3.3886 -3.5698 0
M  V30 43544 N 4049.99 0.959257 -1.25044 0
M  V30 43545 C 4050.92 2.07284 -1.07498 0
M  V30 43546 C 4051.9 1.70094 0.0145965 0
M  V30 43547 O 4053.09 1.93588 -0.154069 0
M  V30 43548 C 4050.22 3.40417 -0.688 0
M  V30 43549 C 4049.17 3.91597 -1.72729 0
M  V30 43550 C 4048.5 5.21172 -1.19513 0
M  V30 43551 C 4049.8 4.18492 -3.12509 0
M  V30 43552 H 4051.49 2.22221 -2.00645 0
M  V30 43553 H 4049.04 1.06783 -0.966093 0
M  V30 43554 H 4050.99 4.17766 -0.552206 0
M  V30 43555 H 4049.72 3.25405 0.279167 0
M  V30 43556 H 4048.38 3.16413 -1.85145 0
M  V30 43557 H 4048.02 5.02526 -0.218328 0
M  V30 43558 H 4047.72 5.56384 -1.88972 0
M  V30 43559 H 4049.25 6.01123 -1.07163 0
M  V30 43560 H 4050.66 4.86516 -3.03274 0
M  V30 43561 H 4049.06 4.64949 -3.79397 0
M  V30 43562 H 4050.13 3.24944 -3.59916 0
M  V30 43563 N 4051.47 1.06556 1.16119 0
M  V30 43564 C 4052.7 0.80474 1.91151 0
M  V30 43565 C 4053.12 -0.635307 1.77046 0
M  V30 43566 O 4052.48 -1.443 1.09759 0
M  V30 43567 C 4052.53 1.20757 3.3978 0
M  V30 43568 O 4051.63 0.347961 4.10929 0
M  V30 43569 H 4050.97 0.293874 0.595428 0
M  V30 43570 H 4053.5 1.42205 1.47102 0
M  V30 43571 H 4053.51 1.18026 3.90556 0
M  V30 43572 H 4052.19 2.25648 3.49365 0
M  V30 43573 H 4050.77 0.437058 3.7033 0
M  V30 43574 N 4052.95 -1.32808 0.848511 0
M  V30 43575 C 4053.86 -2.32783 0.291396 0
M  V30 43576 C 4054.88 -1.63778 -0.587592 0
M  V30 43577 O 4056.05 -1.95363 -0.489424 0
M  V30 43578 C 4053.12 -3.42834 -0.51628 0
M  V30 43579 C 4052.18 -4.27542 0.388121 0
M  V30 43580 C 4051.41 -5.32338 -0.381103 0
M  V30 43581 O 4051.63 -5.47155 -1.61176 0
M  V30 43582 O 4050.57 -6.01381 0.249906 0
M  V30 43583 H 4054.39 -2.82313 1.11952 0
M  V30 43584 H 4051.98 -1.36322 0.611282 0
M  V30 43585 H 4053.86 -4.09967 -0.974923 0
M  V30 43586 H 4052.54 -2.95505 -1.32131 0
M  V30 43587 H 4051.44 -3.63241 0.894809 0
M  V30 43588 H 4052.78 -4.7838 1.15817 0
M  V30 43589 N 4054.43 -0.605858 -1.45489 0
M  V30 43590 C 4055.84 -0.269367 -1.5731 0
M  V30 43591 C 4056.04 1.22811 -1.59749 0
M  V30 43592 O 4055.1 2.01105 -1.52686 0
M  V30 43593 C 4056.41 -0.939013 -2.85662 0
M  V30 43594 C 4057.96 -0.91477 -2.99334 0
M  V30 43595 C 4058.44 -1.56439 -4.30454 0
M  V30 43596 N 4059.93 -1.5298 -4.37209 0
M  V30 43597 C 4060.66 -2.00162 -5.37329 0
M  V30 43598 N 4060.16 -2.55421 -6.43997 0
M  V30 43599 N 4061.95 -1.9094 -5.28676 0
M  V30 43600 H 4054.1 -1.5782 -1.4215 0
M  V30 43601 H 4056.37 -0.661016 -0.679531 0
M  V30 43602 H 4056.07 -1.99335 -2.89756 0
M  V30 43603 H 4055.95 -0.461244 -3.74369 0
M  V30 43604 H 4058.33 0.131017 -2.94809 0
M  V30 43605 H 4058.41 -1.43079 -2.12043 0
M  V30 43606 H 4058.06 -2.6095 -4.35738 0
M  V30 43607 H 4057.99 -1.02341 -5.1656 0
M  V30 43608 H 4060.48 -1.12611 -3.60731 0
M  V30 43609 H 4060.79 -2.8922 -7.16639 0
M  V30 43610 H 4059.14 -2.59459 -6.44753 0
M  V30 43611 H 4062.33 -1.4751 -4.4425 0
M  V30 43612 H 4062.5 -2.28024 -6.06555 0
M  V30 43613 N 4055.91 1.53779 -0.34492 0
M  V30 43614 C 4057.13 2.05353 0.252523 0
M  V30 43615 C 4057.55 1.2198 1.44105 0
M  V30 43616 O 4056.91 0.255462 1.80703 0
M  V30 43617 C 4056.96 3.55308 0.666231 0
M  V30 43618 O 4056.68 4.35517 -0.475034 0
M  V30 43619 C 4058.18 4.23059 1.32425 0
M  V30 43620 H 4055.4 0.669244 0.0485085 0
M  V30 43621 H 4057.94 1.98361 -0.497305 0
M  V30 43622 H 4056.1 3.62518 1.366 0
M  V30 43623 H 4056.51 5.243 -0.144975 0
M  V30 43624 H 4057.99 5.29366 1.56446 0
M  V30 43625 H 4058.46 3.75491 2.27823 0
M  V30 43626 H 4059.07 4.20045 0.666476 0
M  V30 43627 N 4057.38 0.0735731 1.57428 0
M  V30 43628 C 4058.35 -0.878382 2.117 0
M  V30 43629 C 4059.35 -1.2252 1.04142 0
M  V30 43630 O 4060.54 -1.15818 1.30123 0
M  V30 43631 C 4057.67 -2.18124 2.61982 0
M  V30 43632 H 4058.86 -0.407498 2.97119 0
M  V30 43633 H 4056.42 -0.175156 1.55315 0
M  V30 43634 H 4057.15 -2.69745 1.80023 0
M  V30 43635 H 4056.94 -1.94248 3.40603 0
M  V30 43636 H 4058.43 -2.86268 3.0404 0
M  V30 43637 N 4058.86 -1.56326 -0.199995 0
M  V30 43638 C 4060.11 -1.7998 -0.919323 0
M  V30 43639 C 4060.43 -0.645799 -1.83996 0
M  V30 43640 O 4059.7 0.336152 -1.92994 0
M  V30 43641 H 4058.28 -0.663876 -0.342457 0
M  V30 43642 H 4060.94 -1.93801 -0.206679 0
M  V30 43643 H 4060.04 -2.72954 -1.51336 0
M  V30 43644 N 4060.34 0.467527 -1.50506 0
M  V30 43645 C 4061.76 0.801575 -1.38011 0
M  V30 43646 C 4061.96 1.9666 -0.438965 0
M  V30 43647 O 4061.01 2.52228 0.117094 0
M  V30 43648 C 4062.33 1.11029 -2.79451 0
M  V30 43649 C 4063.87 1.21654 -2.88391 0
M  V30 43650 C 4064.35 1.55836 -4.30673 0
M  V30 43651 N 4065.84 1.62821 -4.3364 0
M  V30 43652 C 4066.57 1.90782 -5.40731 0
M  V30 43653 N 4066.07 2.16739 -6.58024 0
M  V30 43654 N 4067.86 1.92313 -5.28178 0
M  V30 43655 H 4060.01 -0.300202 -2.10268 0
M  V30 43656 H 4062.28 -0.0718019 -0.945277 0
M  V30 43657 H 4061.98 0.327264 -3.50174 0
M  V30 43658 H 4061.86 2.0456 -3.16915 0
M  V30 43659 H 4064.24 1.99023 -2.17885 0
M  V30 43660 H 4064.33 0.26094 -2.54466 0
M  V30 43661 H 4063.97 0.790052 -5.01718 0
M  V30 43662 H 4063.9 2.52552 -4.62088 0
M  V30 43663 H 4066.39 1.44786 -3.49063 0
M  V30 43664 H 4066.7 2.37358 -7.35446 0
M  V30 43665 H 4065.05 2.14124 -6.61193 0
M  V30 43666 H 4068.24 1.71534 -4.35539 0
M  V30 43667 H 4068.41 2.13769 -6.11725 0
M  V30 43668 N 4061.82 1.40143 0.720948 0
M  V30 43669 C 4062.77 1.40148 1.85637 0
M  V30 43670 C 4063.76 0.282697 1.67025 0
M  V30 43671 O 4064.97 0.453459 1.74195 0
M  V30 43672 H 4061.34 0.437957 0.611308 0
M  V30 43673 H 4063.31 2.35893 1.82749 0
M  V30 43674 C 4062.06 1.27568 3.23453 0
M  V30 43675 H 4061.38 2.12932 3.38378 0
M  V30 43676 H 4062.82 1.31631 4.0305 0
M  V30 43677 C 4061.28 -0.0146022 3.36897 0
M  V30 43678 O 4061.81 -0.979548 3.89574 0
M  V30 43679 N 4060.02 -0.0823284 2.90483 0
M  V30 43680 H 4059.57 0.703634 2.47804 0
M  V30 43681 H 4059.52 -0.945124 2.99858 0
M  V30 43682 N 4063.3 -0.952612 1.25551 0
M  V30 43683 C 4064.23 -2.06711 1.08596 0
M  V30 43684 C 4065.21 -1.70099 -0.00557581 0
M  V30 43685 O 4066.39 -1.93503 0.164333 0
M  V30 43686 C 4063.52 -3.40048 0.706044 0
M  V30 43687 C 4062.48 -3.90676 1.74804 0
M  V30 43688 C 4061.8 -5.20531 1.22275 0
M  V30 43689 C 4063.1 -4.16828 3.14724 0
M  V30 43690 H 4064.8 -2.21154 2.0182 0
M  V30 43691 H 4062.34 -1.06269 0.971742 0
M  V30 43692 H 4064.3 -4.17468 0.574353 0
M  V30 43693 H 4063.02 -3.25548 -0.261906 0
M  V30 43694 H 4061.68 -3.15426 1.8682 0
M  V30 43695 H 4061.33 -5.02403 0.244975 0
M  V30 43696 H 4061.03 -5.55374 1.9192 0
M  V30 43697 H 4062.55 -6.00546 1.1035 0
M  V30 43698 H 4063.96 -4.84901 3.0585 0
M  V30 43699 H 4062.36 -4.62931 3.81857 0
M  V30 43700 H 4063.43 -3.2303 3.61634 0
M  V30 43701 N 4064.77 -1.0717 -1.15553 0
M  V30 43702 C 4066.02 -0.793751 -1.86295 0
M  V30 43703 C 4066.35 0.680113 -1.82222 0
M  V30 43704 O 4065.6 1.51483 -1.23901 0
M  V30 43705 C 4065.9 -1.2449 -3.35018 0
M  V30 43706 C 4065.57 -2.7244 -3.59287 0
M  V30 43707 C 4064.23 -3.12851 -3.6562 0
M  V30 43708 C 4066.58 -3.67947 -3.69141 0
M  V30 43709 C 4063.91 -4.4759 -3.79315 0
M  V30 43710 C 4066.26 -5.02445 -3.84359 0
M  V30 43711 C 4064.93 -5.4248 -3.88936 0
M  V30 43712 H 4064.2 -0.290454 -0.681702 0
M  V30 43713 H 4066.84 -1.34239 -1.36573 0
M  V30 43714 H 4065.15 -0.615614 -3.86933 0
M  V30 43715 H 4066.85 -1.00676 -3.88156 0
M  V30 43716 H 4063.44 -2.40155 -3.54998 0
M  V30 43717 H 4067.62 -3.37853 -3.6355 0
M  V30 43718 H 4062.88 -4.78081 -3.81115 0
M  V30 43719 H 4067.05 -5.76325 -3.90925 0
M  V30 43720 H 4064.68 -6.46887 -3.99301 0
M  V30 43721 N 4066.25 1.32356 -0.855542 0
M  V30 43722 C 4067.48 2.01412 -0.473367 0
M  V30 43723 C 4067.9 1.64296 0.930177 0
M  V30 43724 O 4067.25 0.864733 1.60713 0
M  V30 43725 C 4067.3 3.5642 -0.603878 0
M  V30 43726 O 4067.03 3.92203 -1.95214 0
M  V30 43727 C 4068.53 4.4275 -0.220826 0
M  V30 43728 H 4065.75 0.644713 -0.185973 0
M  V30 43729 H 4068.29 1.68916 -1.15273 0
M  V30 43730 H 4066.45 3.8739 0.0277582 0
M  V30 43731 H 4066.86 4.86922 -1.94954 0
M  V30 43732 H 4068.33 5.50804 -0.363145 0
M  V30 43733 H 4068.81 4.31116 0.838805 0
M  V30 43734 H 4069.42 4.17171 -0.827571 0
M  V30 43735 N 4067.73 0.613565 1.45166 0
M  V30 43736 C 4068.66 -0.088963 2.3333 0
M  V30 43737 C 4069.64 -0.852724 1.47182 0
M  V30 43738 O 4070.83 -0.822091 1.75941 0
M  V30 43739 C 4067.96 -1.08295 3.29984 0
M  V30 43740 C 4066.91 -0.43201 4.25814 0
M  V30 43741 C 4066.24 -1.53467 5.12203 0
M  V30 43742 C 4067.54 0.650611 5.18232 0
M  V30 43743 H 4069.23 0.647216 2.92321 0
M  V30 43744 H 4066.78 0.312692 1.40564 0
M  V30 43745 H 4068.73 -1.58303 3.90536 0
M  V30 43746 H 4067.45 -1.8498 2.69165 0
M  V30 43747 H 4066.11 0.0472571 3.6657 0
M  V30 43748 H 4065.76 -2.29195 4.47748 0
M  V30 43749 H 4065.46 -1.10459 5.77124 0
M  V30 43750 H 4066.99 -2.0369 5.75624 0
M  V30 43751 H 4068.4 0.234363 5.72821 0
M  V30 43752 H 4066.8 1.00279 5.91662 0
M  V30 43753 H 4067.87 1.52483 4.60301 0
M  V30 43754 N 4069.21 -1.53594 0.353071 0
M  V30 43755 C 4070.46 -2.00248 -0.241565 0
M  V30 43756 C 4070.77 -1.24468 -1.50888 0
M  V30 43757 O 4071.98 -1.61647 -2.18134 0
M  V30 43758 C 4070.43 -3.56671 -0.481012 0
M  V30 43759 C 4070.04 -4.41317 0.770947 0
M  V30 43760 C 4071.79 -4.11715 -1.03399 0
M  V30 43761 C 4069.69 -5.89267 0.501775 0
M  V30 43762 H 4068.62 -0.748112 -0.0940441 0
M  V30 43763 H 4071.27 -1.77382 0.469876 0
M  V30 43764 H 4069.66 -3.75641 -1.2534 0
M  V30 43765 H 4070.83 -4.34121 1.54517 0
M  V30 43766 H 4069.14 -3.97313 1.24624 0
M  V30 43767 H 4071.74 -5.19872 -1.25048 0
M  V30 43768 H 4072.08 -3.65527 -1.99239 0
M  V30 43769 H 4072.62 -3.96494 -0.322075 0
M  V30 43770 H 4069.36 -6.39708 1.43016 0
M  V30 43771 H 4068.88 -5.99343 -0.234178 0
M  V30 43772 H 4070.56 -6.46884 0.122582 0
M  V30 43773 N 4070.69 -0.0819208 -1.57387 0
M  V30 43774 C 4071.62 0.917983 -2.08922 0
M  V30 43775 C 4072.6 1.28473 -0.996671 0
M  V30 43776 O 4073.78 1.39227 -1.27075 0
M  V30 43777 C 4070.91 2.22312 -2.55529 0
M  V30 43778 C 4069.96 2.00721 -3.76316 0
M  V30 43779 S 4070.79 1.25727 -5.20531 0
M  V30 43780 C 4071.94 2.57499 -5.70478 0
M  V30 43781 H 4072.18 0.479511 -2.93408 0
M  V30 43782 H 4069.71 0.131076 -1.53843 0
M  V30 43783 H 4071.67 2.97319 -2.8304 0
M  V30 43784 H 4070.33 2.63282 -1.71293 0
M  V30 43785 H 4069.52 2.97335 -4.0695 0
M  V30 43786 H 4069.12 1.33847 -3.49229 0
M  V30 43787 H 4071.42 3.53541 -5.7794 0
M  V30 43788 H 4072.36 2.31461 -6.69202 0
M  V30 43789 H 4072.77 2.65168 -4.98343 0
M  V30 43790 N 4072.17 1.5643 0.191702 0
M  V30 43791 C 4073.41 1.80822 0.911566 0
M  V30 43792 C 4073.74 0.655699 1.83114 0
M  V30 43793 O 4073 -0.358336 1.92391 0
M  V30 43794 C 4073.29 3.11229 1.75702 0
M  V30 43795 C 4072.96 4.39939 0.988133 0
M  V30 43796 C 4071.62 4.74904 0.775854 0
M  V30 43797 C 4073.97 5.19276 0.447368 0
M  V30 43798 C 4071.3 5.86699 0.011382 0
M  V30 43799 C 4073.65 6.3187 -0.30391 0
M  V30 43800 C 4072.32 6.65415 -0.527176 0
M  V30 43801 H 4071.59 0.661676 0.333566 0
M  V30 43802 H 4074.24 1.90674 0.177724 0
M  V30 43803 H 4072.54 2.9663 2.55964 0
M  V30 43804 H 4074.24 3.27309 2.31668 0
M  V30 43805 H 4070.83 4.12502 1.1636 0
M  V30 43806 H 4075.01 4.92675 0.598763 0
M  V30 43807 H 4070.27 6.11159 -0.171536 0
M  V30 43808 H 4074.44 6.9256 -0.730293 0
M  V30 43809 H 4072.07 7.51883 -1.12144 0
M  V30 43810 N 4073.64 -0.459538 1.50751 0
M  V30 43811 C 4074.55 -1.58168 1.73263 0
M  V30 43812 C 4075.57 -1.62729 0.616071 0
M  V30 43813 O 4076.75 -1.80383 0.895758 0
M  V30 43814 C 4073.81 -2.94311 1.83254 0
M  V30 43815 C 4072.87 -3.00046 3.07036 0
M  V30 43816 C 4072.1 -4.29694 3.16541 0
M  V30 43817 O 4072.33 -5.20846 2.32541 0
M  V30 43818 O 4071.26 -4.41259 4.09358 0
M  V30 43819 H 4075.09 -1.42093 2.68409 0
M  V30 43820 H 4072.67 -0.640249 1.34986 0
M  V30 43821 H 4074.55 -3.75149 1.9194 0
M  V30 43822 H 4073.23 -3.10559 0.912941 0
M  V30 43823 H 4072.14 -2.18242 3.03844 0
M  V30 43824 H 4073.47 -2.88736 3.98613 0
M  V30 43825 N 4075.12 -1.40523 -0.713506 0
M  V30 43826 C 4076.08 -1.40702 -1.8093 0
M  V30 43827 C 4077.08 -0.300477 -1.57968 0
M  V30 43828 O 4078.27 -0.559485 -1.64971 0
M  V30 43829 C 4075.41 -1.2008 -3.19051 0
M  V30 43830 H 4076.6 -2.38231 -1.8217 0
M  V30 43831 H 4074.15 -1.26403 -0.919352 0
M  V30 43832 H 4074.89 -0.233194 -3.23461 0
M  V30 43833 H 4074.67 -2.00235 -3.37117 0
M  V30 43834 H 4076.16 -1.22998 -3.99076 0
M  V30 43835 N 4076.6 0.94594 -1.26054 0
M  V30 43836 C 4077.85 1.69159 -1.11318 0
M  V30 43837 C 4078.17 1.91428 0.344336 0
M  V30 43838 O 4077.43 1.48924 1.26965 0
M  V30 43839 C 4077.73 3.07455 -1.82225 0
M  V30 43840 C 4077.39 3.04958 -3.32132 0
M  V30 43841 C 4076.06 3.03984 -3.73024 0
M  V30 43842 C 4078.41 2.97626 -4.27865 0
M  V30 43843 C 4075.74 2.93438 -5.08047 0
M  V30 43844 C 4078.09 2.88621 -5.62922 0
M  V30 43845 C 4076.75 2.85987 -6.03132 0
M  V30 43846 H 4076.02 0.618995 -0.40734 0
M  V30 43847 H 4078.67 1.10452 -1.56437 0
M  V30 43848 H 4076.97 3.69758 -1.29561 0
M  V30 43849 H 4078.67 3.63988 -1.68267 0
M  V30 43850 H 4075.26 3.06493 -2.996 0
M  V30 43851 H 4079.45 2.9749 -3.97257 0
M  V30 43852 H 4074.7 2.89773 -5.38369 0
M  V30 43853 H 4078.88 2.8191 -6.36789 0
M  V30 43854 H 4076.5 2.77571 -7.07714 0
M  V30 43855 N 4078.08 1.07781 1.14983 0
M  V30 43856 C 4078.99 0.713615 2.23483 0
M  V30 43857 C 4080 -0.277073 1.7178 0
M  V30 43858 O 4081.18 -0.122614 2.01026 0
M  V30 43859 C 4078.24 0.121603 3.46487 0
M  V30 43860 C 4077.31 1.16609 4.1316 0
M  V30 43861 C 4076.54 0.602231 5.30291 0
M  V30 43862 O 4076.76 -0.580336 5.6744 0
M  V30 43863 O 4075.7 1.34922 5.86583 0
M  V30 43864 H 4079.52 1.61857 2.56975 0
M  V30 43865 H 4077.11 0.851059 1.2279 0
M  V30 43866 H 4078.99 -0.20606 4.20896 0
M  V30 43867 H 4077.66 -0.756603 3.14734 0
M  V30 43868 H 4076.57 1.54618 3.40653 0
M  V30 43869 H 4077.9 2.01635 4.49004 0
M  V30 43870 N 4079.56 -1.31901 0.862549 0
M  V30 43871 C 4080.49 -2.31178 0.328464 0
M  V30 43872 C 4081.47 -1.60027 -0.576652 0
M  V30 43873 O 4082.65 -1.87779 -0.495237 0
M  V30 43874 C 4079.78 -3.44005 -0.47728 0
M  V30 43875 C 4078.74 -4.26694 0.33409 0
M  V30 43876 C 4078.06 -5.31358 -0.59688 0
M  V30 43877 C 4079.36 -4.98329 1.56414 0
M  V30 43878 H 4081.06 -2.76098 1.15802 0
M  V30 43879 H 4078.6 -1.32737 0.558292 0
M  V30 43880 H 4080.55 -4.12502 -0.861388 0
M  V30 43881 H 4079.28 -2.97832 -1.34028 0
M  V30 43882 H 4077.94 -3.59854 0.700052 0
M  V30 43883 H 4077.59 -4.81438 -1.45694 0
M  V30 43884 H 4077.29 -5.87571 -0.0579484 0
M  V30 43885 H 4078.81 -6.02717 -0.977993 0
M  V30 43886 H 4080.22 -5.59465 1.25188 0
M  V30 43887 H 4078.62 -5.64304 2.04159 0
M  V30 43888 H 4079.69 -4.2574 2.32107 0
M  V30 43889 N 4081.03 -0.621255 -1.44838 0
M  V30 43890 C 4081.96 0.0765876 -2.33374 0
M  V30 43891 C 4082.95 0.844906 -1.47632 0
M  V30 43892 O 4084.13 0.812749 -1.76375 0
M  V30 43893 C 4081.26 1.06544 -3.30554 0
M  V30 43894 C 4080.21 0.409421 -4.26037 0
M  V30 43895 C 4079.54 1.50748 -5.1301 0
M  V30 43896 C 4080.84 -0.678085 -5.1788 0
M  V30 43897 H 4082.53 -0.662709 -2.91973 0
M  V30 43898 H 4080.08 -0.320142 -1.40396 0
M  V30 43899 H 4082.03 1.5623 -3.9137 0
M  V30 43900 H 4080.76 1.8355 -2.70142 0
M  V30 43901 H 4079.42 -0.0666965 -3.66539 0
M  V30 43902 H 4079.06 2.26817 -4.48958 0
M  V30 43903 H 4078.76 1.07397 -5.77702 0
M  V30 43904 H 4080.29 2.00634 -5.76696 0
M  V30 43905 H 4081.7 -0.264738 -5.72688 0
M  V30 43906 H 4080.1 -1.03415 -5.91122 0
M  V30 43907 H 4081.17 -1.54922 -4.59486 0
M  V30 43908 N 4082.51 1.53405 -0.361211 0
M  V30 43909 C 4083.76 2.00794 0.229392 0
M  V30 43910 C 4084.08 1.25032 1.4964 0
M  V30 43911 O 4083.35 0.362367 1.92519 0
M  V30 43912 H 4081.93 0.741827 0.0877557 0
M  V30 43913 H 4084.59 1.88732 -0.486439 0
M  V30 43914 H 4083.69 3.087 0.45945 0
M  V30 43915 N 4083.99 0.0902663 1.57341 0
M  V30 43916 C 4084.92 -0.90689 2.09406 0
M  V30 43917 C 4085.9 -1.27942 1.00347 0
M  V30 43918 O 4087.09 -1.38551 1.27812 0
M  V30 43919 C 4084.21 -2.20954 2.56704 0
M  V30 43920 C 4083.26 -1.98722 3.77375 0
M  V30 43921 S 4084.09 -1.22965 5.21191 0
M  V30 43922 C 4085.25 -2.5447 5.71835 0
M  V30 43923 H 4085.48 -0.463945 2.93658 0
M  V30 43924 H 4083.01 -0.122916 1.5391 0
M  V30 43925 H 4084.97 -2.95814 2.84613 0
M  V30 43926 H 4083.63 -2.6237 1.72687 0
M  V30 43927 H 4082.83 -2.95172 4.08521 0
M  V30 43928 H 4082.43 -1.31993 3.49934 0
M  V30 43929 H 4084.72 -3.50471 5.79807 0
M  V30 43930 H 4085.66 -2.27909 6.7042 0
M  V30 43931 H 4086.07 -2.62522 4.99743 0
M  V30 43932 N 4085.47 -1.56529 -0.183403 0
M  V30 43933 C 4086.75 -1.72156 -0.928537 0
M  V30 43934 C 4087.13 -0.648319 -2.00898 0
M  V30 43935 O 4086.47 0.338846 -2.25974 0
M  V30 43936 C 4086.68 -3.14915 -1.5043 0
M  V30 43937 C 4088.03 -3.75507 -1.98191 0
M  V30 43938 O 4089.06 -3.18117 -1.60249 0
M  V30 43939 O 4087.91 -4.7625 -2.68046 0
M  V30 43940 H 4085.01 -0.70259 -0.43623 0
M  V30 43941 H 4087.55 -1.68824 -0.172181 0
M  V30 43942 H 4086.33 -3.84505 -0.726077 0
M  V30 43943 H 4085.95 -3.22523 -2.32518 0
M  V30 43944 N 4086.95 0.451537 -1.50993 0
M  V30 43945 C 4088.17 1.22955 -1.67023 0
M  V30 43946 C 4088.6 1.846 -0.361182 0
M  V30 43947 O 4087.95 1.68179 0.677164 0
M  V30 43948 C 4088 2.29975 -2.77748 0
M  V30 43949 O 4087.11 3.35112 -2.40362 0
M  V30 43950 H 4086.45 0.360872 -0.557375 0
M  V30 43951 H 4088.98 0.535038 -1.9748 0
M  V30 43952 H 4088.99 2.74983 -3.01411 0
M  V30 43953 H 4087.66 1.84482 -3.72746 0
M  V30 43954 H 4086.24 2.95679 -2.27219 0
M  V30 43955 N 4088.42 1.409 0.706044 0
M  V30 43956 C 4089.36 1.37845 1.83116 0
M  V30 43957 C 4090.37 0.282281 1.60334 0
M  V30 43958 O 4091.56 0.543292 1.70031 0
M  V30 43959 C 4088.66 1.12467 3.19694 0
M  V30 43960 C 4087.83 2.33922 3.69593 0
M  V30 43961 C 4086.89 2.04559 4.84811 0
M  V30 43962 O 4085.92 2.77509 4.96968 0
M  V30 43963 N 4087.12 1.0294 5.713 0
M  V30 43964 H 4089.88 2.34814 1.86233 0
M  V30 43965 H 4087.44 1.35377 0.88796 0
M  V30 43966 H 4089.44 0.90793 3.94384 0
M  V30 43967 H 4088.01 0.241313 3.11667 0
M  V30 43968 H 4087.23 2.71365 2.85928 0
M  V30 43969 H 4088.51 3.14869 3.99669 0
M  V30 43970 H 4087.91 0.425413 5.64098 0
M  V30 43971 H 4086.47 0.872559 6.45933 0
M  V30 43972 N 4089.9 -0.939242 1.26554 0
M  V30 43973 C 4091.15 -1.68233 1.11992 0
M  V30 43974 C 4091.47 -1.92067 -0.336959 0
M  V30 43975 O 4090.74 -1.51873 -1.23739 0
M  V30 43976 H 4089.32 -0.623472 0.411451 0
M  V30 43977 H 4091.98 -1.12842 1.58911 0
M  V30 43978 H 4091.08 -2.65528 1.64015 0
M  V30 43979 N 4091.38 -1.08389 -1.14409 0
M  V30 43980 C 4092.33 -0.713706 -2.19488 0
M  V30 43981 C 4093.3 0.300007 -1.63368 0
M  V30 43982 O 4094.48 0.184055 -1.8991 0
M  V30 43983 C 4091.62 -0.128985 -3.44859 0
M  V30 43984 C 4090.74 -1.19545 -4.1513 0
M  V30 43985 C 4089.87 -0.574614 -5.28083 0
M  V30 43986 C 4088.91 -1.62313 -5.90187 0
M  V30 43987 N 4088.05 -1.0241 -6.94591 0
M  V30 43988 H 4092.89 -1.61408 -2.50502 0
M  V30 43989 H 4090.42 -0.806617 -1.23013 0
M  V30 43990 H 4092.38 0.227741 -4.16578 0
M  V30 43991 H 4091.01 0.734702 -3.14328 0
M  V30 43992 H 4090.06 -1.66961 -3.41801 0
M  V30 43993 H 4091.38 -1.99002 -4.57383 0
M  V30 43994 H 4090.53 -0.166123 -6.06473 0
M  V30 43995 H 4089.27 0.251615 -4.8705 0
M  V30 43996 H 4088.27 -2.04129 -5.10501 0
M  V30 43997 H 4089.5 -2.45184 -6.33294 0
M  V30 43998 H 4087.44 -0.218964 -6.55634 0
M  V30 43999 H 4087.36 -1.75577 -7.35329 0
M  V30 44000 H 4088.63 -0.641464 -7.76856 0
M  V30 44001 N 4092.86 1.31442 -0.869532 0
M  V30 44002 C 4094.11 1.95993 -0.476392 0
M  V30 44003 C 4094.42 1.69496 0.976238 0
M  V30 44004 O 4095.63 2.27906 1.47551 0
M  V30 44005 C 4094.08 3.50873 -0.800999 0
M  V30 44006 C 4093.69 3.86211 -2.27036 0
M  V30 44007 C 4095.43 4.21819 -0.476308 0
M  V30 44008 C 4093.34 5.342 -2.5374 0
M  V30 44009 H 4092.27 0.733549 -0.17442 0
M  V30 44010 H 4094.92 1.49619 -1.06237 0
M  V30 44011 H 4093.3 3.95737 -0.144275 0
M  V30 44012 H 4094.48 3.52308 -2.97011 0
M  V30 44013 H 4092.79 3.28329 -2.56104 0
M  V30 44014 H 4095.39 5.30697 -0.653059 0
M  V30 44015 H 4095.73 4.12194 0.583221 0
M  V30 44016 H 4096.27 3.82588 -1.08956 0
M  V30 44017 H 4093.01 5.48861 -3.58375 0
M  V30 44018 H 4092.53 5.69457 -1.88359 0
M  V30 44019 H 4094.2 6.01458 -2.38447 0
M  V30 44020 N 4094.34 0.628927 1.44507 0
M  V30 44021 C 4095.75 0.294359 1.56862 0
M  V30 44022 C 4095.95 -1.20254 1.61682 0
M  V30 44023 O 4095.01 -1.98651 1.55866 0
M  V30 44024 C 4096.32 0.984341 2.84132 0
M  V30 44025 C 4097.87 0.962275 2.97841 0
M  V30 44026 C 4098.34 1.63268 4.27911 0
M  V30 44027 N 4099.84 1.59916 4.34719 0
M  V30 44028 C 4100.57 2.08685 5.34077 0
M  V30 44029 N 4100.07 2.65634 6.39852 0
M  V30 44030 N 4101.86 1.99327 5.25571 0
M  V30 44031 H 4094.01 1.60061 1.39621 0
M  V30 44032 H 4096.27 0.671743 0.668928 0
M  V30 44033 H 4095.98 2.0392 2.86548 0
M  V30 44034 H 4095.85 0.520744 3.73588 0
M  V30 44035 H 4098.24 -0.0840993 2.9498 0
M  V30 44036 H 4098.32 1.46434 2.0974 0
M  V30 44037 H 4097.97 2.67849 4.31531 0
M  V30 44038 H 4097.9 1.10546 5.14866 0
M  V30 44039 H 4100.39 1.18336 3.58894 0
M  V30 44040 H 4100.7 3.00585 7.11947 0
M  V30 44041 H 4099.04 2.69684 6.40543 0
M  V30 44042 H 4102.24 1.54559 4.41848 0
M  V30 44043 H 4102.41 2.37645 6.02851 0
M  V30 44044 N 4095.82 -1.53211 0.369342 0
M  V30 44045 C 4096.76 -2.27371 -0.490441 0
M  V30 44046 C 4097.76 -1.30493 -1.08018 0
M  V30 44047 O 4098.96 -1.48107 -1.02295 0
M  V30 44048 H 4095.34 -0.7309 -0.176886 0
M  V30 44049 H 4097.31 -2.97988 0.156749 0
M  V30 44050 C 4096.06 -3.07853 -1.61622 0
M  V30 44051 H 4095.38 -3.82244 -1.17173 0
M  V30 44052 H 4096.82 -3.62915 -2.19246 0
M  V30 44053 C 4095.28 -2.18925 -2.56073 0
M  V30 44054 O 4095.81 -1.80257 -3.58985 0
M  V30 44055 N 4094.02 -1.83483 -2.25349 0
M  V30 44056 H 4093.56 -2.15127 -1.41698 0
M  V30 44057 H 4093.52 -1.2427 -2.88798 0
M  V30 44058 N 4097.29 -0.0986092 -1.57291 0
M  V30 44059 C 4098.22 0.856093 -2.1724 0
M  V30 44060 C 4099.2 1.29174 -1.10671 0
M  V30 44061 O 4100.39 1.358 -1.38823 0
M  V30 44062 C 4097.52 2.11393 -2.75555 0
M  V30 44063 C 4096.47 1.81678 -3.87527 0
M  V30 44064 C 4095.8 3.1432 -4.32559 0
M  V30 44065 C 4097.1 1.10099 -5.10564 0
M  V30 44066 H 4098.79 0.356604 -2.97269 0
M  V30 44067 H 4096.34 0.170083 -1.42992 0
M  V30 44068 H 4098.29 2.78621 -3.16146 0
M  V30 44069 H 4097.02 2.63631 -1.92786 0
M  V30 44070 H 4095.68 1.16847 -3.4748 0
M  V30 44071 H 4095.32 3.64452 -3.46676 0
M  V30 44072 H 4095.02 2.95219 -5.08055 0
M  V30 44073 H 4096.55 3.827 -4.75786 0
M  V30 44074 H 4097.96 1.67443 -5.48302 0
M  V30 44075 H 4096.36 1.01165 -5.91511 0
M  V30 44076 H 4097.43 0.0843189 -4.84827 0
M  V30 44077 N 4098.77 1.56624 0.175099 0
M  V30 44078 C 4100 1.86269 0.912066 0
M  V30 44079 C 4100.42 0.684516 1.75203 0
M  V30 44080 O 4099.78 -0.36647 1.77558 0
M  V30 44081 C 4099.83 3.143 1.76771 0
M  V30 44082 O 4098.93 2.96258 2.86889 0
M  V30 44083 H 4098.27 0.612784 0.255717 0
M  V30 44084 H 4100.8 2.03856 0.17438 0
M  V30 44085 H 4100.81 3.45608 2.16839 0
M  V30 44086 H 4099.49 3.99665 1.1507 0
M  V30 44087 H 4098.06 2.76295 2.50431 0
M  V30 44088 N 4100.25 -0.443523 1.5123 0
M  V30 44089 C 4101.5 -1.19111 1.63269 0
M  V30 44090 C 4101.82 -1.91866 0.348185 0
M  V30 44091 O 4101.09 -1.85299 -0.635691 0
M  V30 44092 H 4099.67 -0.442669 0.601709 0
M  V30 44093 H 4102.33 -0.509101 1.88133 0
M  V30 44094 H 4101.43 -1.92407 2.45736 0
M  V30 44095 N 4101.73 -1.41272 -0.698562 0
M  V30 44096 C 4102.68 -1.43084 -1.83384 0
M  V30 44097 C 4103.67 -0.309233 -1.66554 0
M  V30 44098 O 4104.88 -0.481115 -1.73451 0
M  V30 44099 H 4101.25 -0.447627 -0.604263 0
M  V30 44100 H 4103.22 -2.3877 -1.78973 0
M  V30 44101 C 4101.97 -1.32698 -3.21382 0
M  V30 44102 H 4101.29 -2.18289 -3.34948 0
M  V30 44103 H 4102.73 -1.38026 -4.00905 0
M  V30 44104 C 4101.19 -0.038997 -3.36877 0
M  V30 44105 O 4101.72 0.917446 -3.91083 0
M  V30 44106 N 4099.93 0.0361046 -2.90578 0
M  V30 44107 H 4099.48 -0.742968 -2.46653 0
M  V30 44108 H 4099.43 0.8973 -3.01324 0
M  V30 44109 N 4103.21 0.932517 -1.27051 0
M  V30 44110 C 4104.44 1.71138 -1.15738 0
M  V30 44111 C 4104.84 1.86979 0.289036 0
M  V30 44112 O 4104.19 1.38304 1.20903 0
M  V30 44113 C 4104.25 3.13289 -1.76325 0
M  V30 44114 C 4103.91 3.20802 -3.25477 0
M  V30 44115 C 4104.91 3.03418 -4.22177 0
M  V30 44116 C 4102.59 3.43915 -3.66098 0
M  V30 44117 C 4104.59 3.09028 -5.57477 0
M  V30 44118 C 4102.28 3.49159 -5.01529 0
M  V30 44119 C 4103.27 3.31734 -5.97028 0
M  V30 44120 O 4102.96 3.36703 -7.2999 0
M  V30 44121 H 4102.69 0.542365 -0.403504 0
M  V30 44122 H 4105.25 1.17695 -1.68336 0
M  V30 44123 H 4103.48 3.68193 -1.18199 0
M  V30 44124 H 4105.17 3.73123 -1.59795 0
M  V30 44125 H 4105.93 2.85408 -3.92132 0
M  V30 44126 H 4101.81 3.56531 -2.92244 0
M  V30 44127 H 4105.36 2.95345 -6.31995 0
M  V30 44128 H 4101.25 3.66692 -5.31232 0
M  V30 44129 H 4102.02 3.5319 -7.38376 0
M  V30 44130 N 4104.68 1.08995 1.13833 0
M  V30 44131 C 4105.93 0.818193 1.8436 0
M  V30 44132 C 4106.25 -0.658404 1.84186 0
M  V30 44133 O 4107.45 -1.04554 2.50561 0
M  V30 44134 C 4105.91 1.41373 3.30971 0
M  V30 44135 C 4105.52 2.92255 3.39545 0
M  V30 44136 C 4107.26 1.22073 4.06569 0
M  V30 44137 C 4105.17 3.44917 4.80402 0
M  V30 44138 H 4104.1 0.302409 0.690699 0
M  V30 44139 H 4106.75 1.31211 1.28281 0
M  V30 44140 H 4105.13 0.847518 3.86824 0
M  V30 44141 H 4106.3 3.55065 2.9371 0
M  V30 44142 H 4104.62 3.10538 2.77408 0
M  V30 44143 H 4107.22 1.58877 5.10551 0
M  V30 44144 H 4107.56 0.161019 4.15988 0
M  V30 44145 H 4108.09 1.75421 3.57033 0
M  V30 44146 H 4104.83 4.50488 4.76173 0
M  V30 44147 H 4104.35 2.86869 5.26751 0
M  V30 44148 H 4106.03 3.4186 5.49309 0
M  V30 44149 N 4106.16 -1.30979 0.87649 0
M  V30 44150 C 4107.09 -2.30817 0.352965 0
M  V30 44151 C 4108.07 -1.6063 -0.559647 0
M  V30 44152 O 4109.26 -1.88294 -0.475293 0
M  V30 44153 C 4106.39 -3.44492 -0.440767 0
M  V30 44154 C 4105.34 -4.26316 0.379328 0
M  V30 44155 C 4104.67 -5.31961 -0.540489 0
M  V30 44156 C 4105.97 -4.96642 1.6169 0
M  V30 44157 H 4107.66 -2.74854 1.18724 0
M  V30 44158 H 4105.21 -1.32137 0.572339 0
M  V30 44159 H 4107.16 -4.13393 -0.817588 0
M  V30 44160 H 4105.88 -2.99237 -1.30861 0
M  V30 44161 H 4104.54 -3.59091 0.73818 0
M  V30 44162 H 4104.19 -4.82956 -1.4058 0
M  V30 44163 H 4103.89 -5.876 0.00437462 0
M  V30 44164 H 4105.42 -6.0372 -0.914012 0
M  V30 44165 H 4106.83 -5.58105 1.31115 0
M  V30 44166 H 4105.23 -5.62107 2.10132 0
M  V30 44167 H 4106.3 -4.23254 2.36609 0
M  V30 44168 N 4107.64 -0.636582 -1.44171 0
M  V30 44169 C 4108.92 -0.0739208 -1.9546 0
M  V30 44170 C 4109.3 1.40177 -1.5784 0
M  V30 44171 O 4108.64 2.11894 -0.855181 0
M  V30 44172 C 4108.85 -0.302555 -3.47686 0
M  V30 44173 C 4110.2 -0.198644 -4.24135 0
M  V30 44174 O 4111.23 -0.234213 -3.55429 0
M  V30 44175 O 4110.09 -0.108204 -5.46393 0
M  V30 44176 H 4107.18 0.019184 -0.826777 0
M  V30 44177 H 4109.73 -0.708665 -1.54195 0
M  V30 44178 H 4108.5 -1.32631 -3.68137 0
M  V30 44179 H 4108.12 0.366065 -3.95911 0
M  V30 44180 N 4109.12 1.53013 -0.377462 0
M  V30 44181 C 4110.05 2.29023 0.455063 0
M  V30 44182 C 4111.03 1.31928 1.07373 0
M  V30 44183 O 4112.21 1.60811 1.08874 0
M  V30 44184 C 4109.34 3.08829 1.58878 0
M  V30 44185 C 4108.3 4.13709 1.09676 0
M  V30 44186 C 4107.62 4.81668 2.32163 0
M  V30 44187 C 4108.92 5.22013 0.173073 0
M  V30 44188 H 4110.62 2.98864 -0.179105 0
M  V30 44189 H 4108.16 1.43733 -0.0875802 0
M  V30 44190 H 4110.12 3.60756 2.17792 0
M  V30 44191 H 4108.84 2.36699 2.25036 0
M  V30 44192 H 4107.5 3.62745 0.530227 0
M  V30 44193 H 4107.15 4.06099 2.96804 0
M  V30 44194 H 4106.85 5.52549 1.99909 0
M  V30 44195 H 4108.37 5.36395 2.91742 0
M  V30 44196 H 4109.79 5.69371 0.670045 0
M  V30 44197 H 4108.18 6.00071 -0.0591518 0
M  V30 44198 H 4109.25 4.78562 -0.781423 0
M  V30 44199 N 4110.6 0.106949 1.57237 0
M  V30 44200 C 4111.85 -0.553699 1.93951 0
M  V30 44201 C 4112.16 -1.68596 0.991707 0
M  V30 44202 O 4113.36 -2.40855 1.25303 0
M  V30 44203 C 4111.82 -1.03634 3.44656 0
M  V30 44204 C 4111.43 0.0668099 4.4795 0
M  V30 44205 C 4113.17 -1.66904 3.90312 0
M  V30 44206 C 4111.08 -0.431849 5.89821 0
M  V30 44207 H 4110.01 -0.210608 0.723989 0
M  V30 44208 H 4112.66 0.184862 1.82566 0
M  V30 44209 H 4111.04 -1.82895 3.51234 0
M  V30 44210 H 4112.22 0.842704 4.53029 0
M  V30 44211 H 4110.53 0.60543 4.11975 0
M  V30 44212 H 4113.13 -2.05306 4.93714 0
M  V30 44213 H 4113.47 -2.54281 3.29616 0
M  V30 44214 H 4114 -0.942051 3.86484 0
M  V30 44215 H 4110.74 0.405584 6.54244 0
M  V30 44216 H 4110.26 -1.17449 5.88189 0
M  V30 44217 H 4111.94 -0.896991 6.40752 0
M  V30 44218 N 4112.07 -1.56715 -0.166791 0
M  V30 44219 C 4113.3 -1.86119 -0.896834 0
M  V30 44220 C 4113.71 -0.690815 -1.76137 0
M  V30 44221 O 4113.06 0.349159 -1.80351 0
M  V30 44222 C 4113.12 -3.09992 -1.82059 0
M  V30 44223 C 4112.78 -4.42676 -1.1352 0
M  V30 44224 C 4113.78 -5.17505 -0.498494 0
M  V30 44225 C 4111.46 -4.89411 -1.1306 0
M  V30 44226 C 4113.46 -6.3726 0.133652 0
M  V30 44227 C 4111.14 -6.09095 -0.494634 0
M  V30 44228 C 4112.14 -6.82864 0.136385 0
M  V30 44229 O 4111.83 -8.00277 0.762315 0
M  V30 44230 H 4111.56 -0.621571 -0.265754 0
M  V30 44231 H 4114.12 -2.04692 -0.170348 0
M  V30 44232 H 4112.35 -2.87376 -2.5875 0
M  V30 44233 H 4114.04 -3.25806 -2.42086 0
M  V30 44234 H 4114.8 -4.82478 -0.493988 0
M  V30 44235 H 4110.68 -4.31929 -1.61116 0
M  V30 44236 H 4114.22 -6.94779 0.626783 0
M  V30 44237 H 4110.12 -6.43586 -0.496738 0
M  V30 44238 H 4110.89 -8.15818 0.662014 0
M  V30 44239 N 4113.55 0.435497 -1.51463 0
M  V30 44240 C 4114.8 1.18244 -1.63899 0
M  V30 44241 C 4115.12 1.91679 -0.358355 0
M  V30 44242 O 4114.39 1.85634 0.625856 0
M  V30 44243 H 4112.97 0.439472 -0.604048 0
M  V30 44244 H 4115.63 0.499117 -1.88401 0
M  V30 44245 H 4114.73 1.91101 -2.46753 0
M  V30 44246 N 4115.03 1.41641 0.69106 0
M  V30 44247 C 4115.96 1.4662 1.81728 0
M  V30 44248 C 4116.94 0.324387 1.66978 0
M  V30 44249 O 4118.13 0.536456 1.86643 0
M  V30 44250 C 4115.26 1.35206 3.19901 0
M  V30 44251 C 4114.21 2.47245 3.49362 0
M  V30 44252 C 4113.54 2.20896 4.86938 0
M  V30 44253 C 4114.84 3.89581 3.47885 0
M  V30 44254 H 4116.53 2.40875 1.77818 0
M  V30 44255 H 4114.08 1.15937 0.85408 0
M  V30 44256 H 4116.03 1.373 3.98405 0
M  V30 44257 H 4114.75 0.374369 3.24447 0
M  V30 44258 H 4113.41 2.44441 2.73211 0
M  V30 44259 H 4113.06 1.21459 4.88116 0
M  V30 44260 H 4112.76 2.95975 5.07614 0
M  V30 44261 H 4114.28 2.24713 5.67747 0
M  V30 44262 H 4115.7 3.94076 4.16385 0
M  V30 44263 H 4114.1 4.6438 3.80093 0
M  V30 44264 H 4115.17 4.17412 2.4677 0
M  V30 44265 N 4116.51 -0.925766 1.27543 0
M  V30 44266 C 4117.46 -2.01286 1.07088 0
M  V30 44267 C 4118.44 -1.609 -0.00171342 0
M  V30 44268 O 4119.63 -1.75664 0.217047 0
M  V30 44269 C 4116.76 -3.35619 0.722139 0
M  V30 44270 C 4115.85 -3.82443 1.83298 0
M  V30 44271 N 4116.24 -4.01759 3.07284 0
M  V30 44272 C 4114.54 -4.11496 1.72009 0
M  V30 44273 C 4115.24 -4.40784 3.79584 0
M  V30 44274 N 4114.22 -4.48365 3.07359 0
M  V30 44275 H 4118.02 -2.14253 2.01178 0
M  V30 44276 H 4115.53 -1.11274 1.18287 0
M  V30 44277 H 4117.53 -4.13166 0.556708 0
M  V30 44278 H 4116.19 -3.24013 -0.211117 0
M  V30 44279 H 4117.2 -3.88013 3.43025 0
M  V30 44280 H 4113.88 -4.08593 0.857801 0
M  V30 44281 H 4115.27 -4.63792 4.86155 0
M  V30 44282 N 4117.99 -1.09597 -1.13253 0
M  V30 44283 C 4118.93 -0.736946 -2.18718 0
M  V30 44284 C 4119.9 0.282663 -1.63677 0
M  V30 44285 O 4121.09 0.163902 -1.90095 0
M  V30 44286 C 4118.23 -0.165555 -3.44703 0
M  V30 44287 C 4117.34 -1.23942 -4.13839 0
M  V30 44288 C 4116.48 -0.630592 -5.27444 0
M  V30 44289 C 4115.52 -1.68564 -5.88432 0
M  V30 44290 N 4114.65 -1.09771 -6.93466 0
M  V30 44291 H 4119.49 -1.64056 -2.48776 0
M  V30 44292 H 4117.03 -0.819619 -1.2215 0
M  V30 44293 H 4118.99 0.183544 -4.16796 0
M  V30 44294 H 4117.62 0.701322 -3.15089 0
M  V30 44295 H 4116.67 -1.70577 -3.40011 0
M  V30 44296 H 4117.98 -2.03842 -4.55247 0
M  V30 44297 H 4117.14 -0.230439 -6.06262 0
M  V30 44298 H 4115.87 0.199943 -4.8729 0
M  V30 44299 H 4114.88 -2.09532 -5.08308 0
M  V30 44300 H 4116.1 -2.51887 -6.30658 0
M  V30 44301 H 4114.05 -0.288491 -6.55365 0
M  V30 44302 H 4113.97 -1.83366 -7.33425 0
M  V30 44303 H 4115.24 -0.723824 -7.76132 0
M  V30 44304 N 4119.46 1.30512 -0.883424 0
M  V30 44305 C 4120.4 2.27144 -0.306318 0
M  V30 44306 C 4121.41 1.53645 0.538237 0
M  V30 44307 O 4122.6 1.74872 0.358039 0
M  V30 44308 C 4119.7 3.33844 0.583217 0
M  V30 44309 C 4118.87 4.36785 -0.231922 0
M  V30 44310 C 4117.93 5.22906 0.587863 0
M  V30 44311 O 4116.96 5.69199 0.0111122 0
M  V30 44312 N 4118.16 5.4862 1.89727 0
M  V30 44313 H 4120.92 2.77304 -1.13678 0
M  V30 44314 H 4118.48 1.43676 -0.746253 0
M  V30 44315 H 4120.48 3.88381 1.13766 0
M  V30 44316 H 4119.05 2.83625 1.31436 0
M  V30 44317 H 4118.27 3.82135 -0.967808 0
M  V30 44318 H 4119.55 5.02618 -0.790753 0
M  V30 44319 H 4118.95 5.12789 2.3888 0
M  V30 44320 H 4117.51 6.06038 2.3992 0
M  V30 44321 N 4120.94 0.644219 1.43832 0
M  V30 44322 C 4122.19 0.151343 2.01131 0
M  V30 44323 C 4122.5 -1.23887 1.51365 0
M  V30 44324 O 4123.71 -1.82647 2.00879 0
M  V30 44325 C 4122.17 0.219777 3.59228 0
M  V30 44326 C 4121.77 1.61212 4.17989 0
M  V30 44327 C 4123.52 -0.21596 4.2395 0
M  V30 44328 C 4121.43 1.63496 5.68351 0
M  V30 44329 H 4120.36 0.0528152 0.752148 0
M  V30 44330 H 4123.01 0.804936 1.64903 0
M  V30 44331 H 4121.39 -0.50116 3.92816 0
M  V30 44332 H 4122.56 2.35768 3.95917 0
M  V30 44333 H 4120.88 1.99305 3.65604 0
M  V30 44334 H 4123.47 -0.21861 5.34253 0
M  V30 44335 H 4123.82 -1.24574 3.97224 0
M  V30 44336 H 4124.35 0.452922 3.95213 0
M  V30 44337 H 4121.09 2.64353 5.99831 0
M  V30 44338 H 4120.61 0.932514 5.92507 0
M  V30 44339 H 4122.29 1.37469 6.32227 0
M  V30 44340 N 4122.42 -1.52811 0.385571 0
M  V30 44341 C 4123.37 -2.27878 -0.466298 0
M  V30 44342 C 4124.36 -1.31631 -1.06628 0
M  V30 44343 O 4125.57 -1.49184 -1.00719 0
M  V30 44344 H 4121.94 -0.732735 -0.169124 0
M  V30 44345 H 4123.91 -2.97805 0.188345 0
M  V30 44346 C 4122.66 -3.0955 -1.58348 0
M  V30 44347 H 4121.99 -3.83465 -1.13112 0
M  V30 44348 H 4123.43 -3.6522 -2.15384 0
M  V30 44349 C 4121.89 -2.21629 -2.53737 0
M  V30 44350 O 4122.42 -1.84055 -3.57053 0
M  V30 44351 N 4120.62 -1.85863 -2.2339 0
M  V30 44352 H 4120.17 -2.16618 -1.39408 0
M  V30 44353 H 4120.13 -1.27326 -2.87464 0
M  V30 44354 N 4123.9 -0.115287 -1.57178 0
M  V30 44355 C 4125.31 0.241317 -1.57765 0
M  V30 44356 C 4125.51 1.66983 -1.12778 0
M  V30 44357 O 4124.57 2.39038 -0.813461 0
M  V30 44358 C 4125.88 0.0113762 -3.00698 0
M  V30 44359 C 4127.43 0.0775637 -3.12904 0
M  V30 44360 C 4127.91 -0.124637 -4.5783 0
M  V30 44361 N 4129.4 -0.0704812 -4.63146 0
M  V30 44362 C 4130.13 -0.201891 -5.73044 0
M  V30 44363 N 4129.63 -0.389264 -6.91706 0
M  V30 44364 N 4131.42 -0.141728 -5.61921 0
M  V30 44365 H 4123.57 -1.04839 -1.84723 0
M  V30 44366 H 4125.84 -0.412532 -0.853534 0
M  V30 44367 H 4125.54 -0.976055 -3.37885 0
M  V30 44368 H 4125.42 0.744882 -3.69772 0
M  V30 44369 H 4127.8 1.05552 -2.75577 0
M  V30 44370 H 4127.88 -0.687762 -2.46381 0
M  V30 44371 H 4127.53 -1.09955 -4.95855 0
M  V30 44372 H 4127.46 0.660629 -5.2244 0
M  V30 44373 H 4129.95 0.0709778 -3.77833 0
M  V30 44374 H 4130.26 -0.480501 -7.71305 0
M  V30 44375 H 4128.61 -0.425191 -6.93698 0
M  V30 44376 H 4131.8 0.00366645 -4.681 0
M  V30 44377 H 4131.97 -0.247584 -6.47527 0
M  V30 44378 N 4125.38 1.56801 0.158477 0
M  V30 44379 C 4126.63 1.82354 0.871281 0
M  V30 44380 C 4126.95 0.694356 1.82219 0
M  V30 44381 O 4126.22 -0.284864 1.93818 0
M  V30 44382 H 4124.8 0.672723 0.324736 0
M  V30 44383 H 4127.46 1.94281 0.155223 0
M  V30 44384 H 4126.55 2.7687 1.44046 0
M  V30 44385 N 4126.86 -0.427458 1.51692 0
M  V30 44386 C 4127.79 -1.52676 1.7667 0
M  V30 44387 C 4128.77 -1.5852 0.616893 0
M  V30 44388 O 4129.95 -1.74089 0.860626 0
M  V30 44389 C 4127.08 -2.9067 1.90075 0
M  V30 44390 C 4126.04 -2.99683 3.05571 0
M  V30 44391 C 4125.36 -4.39754 3.04172 0
M  V30 44392 C 4126.66 -2.72853 4.45363 0
M  V30 44393 H 4128.36 -1.32024 2.68719 0
M  V30 44394 H 4125.9 -0.633693 1.29307 0
M  V30 44395 H 4127.85 -3.67543 2.06132 0
M  V30 44396 H 4126.58 -3.12574 0.946824 0
M  V30 44397 H 4125.24 -2.25252 2.89235 0
M  V30 44398 H 4124.89 -4.5864 2.06538 0
M  V30 44399 H 4124.59 -4.46712 3.81735 0
M  V30 44400 H 4126.11 -5.18587 3.22336 0
M  V30 44401 H 4127.52 -3.39455 4.61999 0
M  V30 44402 H 4125.92 -2.9121 5.24706 0
M  V30 44403 H 4126.99 -1.68397 4.5472 0
M  V30 44404 N 4128.33 -1.42005 -0.683539 0
M  V30 44405 C 4129.28 -1.44799 -1.79727 0
M  V30 44406 C 4130.25 -0.300933 -1.63351 0
M  V30 44407 O 4131.44 -0.50374 -1.8403 0
M  V30 44408 C 4128.58 -1.34764 -3.17699 0
M  V30 44409 C 4127.69 -2.59435 -3.45423 0
M  V30 44410 C 4126.82 -2.41606 -4.73075 0
M  V30 44411 C 4125.86 -3.61694 -4.93806 0
M  V30 44412 N 4125 -3.42861 -6.12692 0
M  V30 44413 H 4129.84 -2.3998 -1.76674 0
M  V30 44414 H 4127.38 -1.19154 -0.862603 0
M  V30 44415 H 4129.33 -1.26945 -3.97418 0
M  V30 44416 H 4127.96 -0.431841 -3.19898 0
M  V30 44417 H 4127.02 -2.77656 -2.60022 0
M  V30 44418 H 4128.33 -3.48727 -3.56639 0
M  V30 44419 H 4127.48 -2.31323 -5.60869 0
M  V30 44420 H 4126.22 -1.4979 -4.64127 0
M  V30 44421 H 4125.23 -3.72418 -4.04456 0
M  V30 44422 H 4126.45 -4.54479 -5.04604 0
M  V30 44423 H 4124.4 -2.53755 -6.04933 0
M  V30 44424 H 4124.31 -4.25735 -6.24729 0
M  V30 44425 H 4125.58 -3.36373 -7.03188 0
M  V30 44426 N 4129.81 0.918989 -1.28033 0
M  V30 44427 C 4130.76 2.02075 -1.11509 0
M  V30 44428 C 4131.73 1.66094 -0.0136838 0
M  V30 44429 O 4132.91 1.89971 -0.177641 0
M  V30 44430 C 4130.05 3.36228 -0.777468 0
M  V30 44431 C 4129.17 3.85111 -1.95739 0
M  V30 44432 C 4128.3 5.0775 -1.56086 0
M  V30 44433 C 4127.34 5.48952 -2.70774 0
M  V30 44434 N 4126.48 6.62784 -2.3165 0
M  V30 44435 H 4131.32 2.15541 -2.05782 0
M  V30 44436 H 4128.85 1.0558 -1.02427 0
M  V30 44437 H 4130.81 4.13391 -0.562496 0
M  V30 44438 H 4129.44 3.22545 0.128317 0
M  V30 44439 H 4128.49 3.04152 -2.28464 0
M  V30 44440 H 4129.81 4.1161 -2.81742 0
M  V30 44441 H 4128.96 5.9244 -1.30764 0
M  V30 44442 H 4127.7 4.83047 -0.672043 0
M  V30 44443 H 4126.7 4.62806 -2.968 0
M  V30 44444 H 4127.93 5.75646 -3.6029 0
M  V30 44445 H 4125.88 6.39722 -1.45231 0
M  V30 44446 H 4125.79 6.88982 -3.1119 0
M  V30 44447 H 4127.06 7.50792 -2.09598 0
M  V30 44448 N 4131.29 1.10196 1.12671 0
M  V30 44449 C 4132.22 0.692437 2.17441 0
M  V30 44450 C 4133.2 -0.305017 1.59714 0
M  V30 44451 O 4134.38 -0.204506 1.87387 0
M  V30 44452 C 4131.51 0.02132 3.38693 0
M  V30 44453 C 4130.56 0.981851 4.15045 0
M  V30 44454 S 4131.39 2.49794 4.7367 0
M  V30 44455 C 4132.55 1.83946 5.9826 0
M  V30 44456 H 4132.78 1.57996 2.51842 0
M  V30 44457 H 4130.31 0.918716 1.24093 0
M  V30 44458 H 4132.27 -0.359569 4.08922 0
M  V30 44459 H 4130.93 -0.842965 3.02577 0
M  V30 44460 H 4130.12 0.459486 5.01901 0
M  V30 44461 H 4129.73 1.30453 3.50511 0
M  V30 44462 H 4132.02 1.1682 6.67352 0
M  V30 44463 H 4132.96 2.68749 6.55118 0
M  V30 44464 H 4133.37 1.30503 5.49208 0
M  V30 44465 N 4132.77 -1.30042 0.890333 0
M  V30 44466 C 4134.01 -1.96224 0.512243 0
M  V30 44467 C 4134.35 -1.70086 -0.937257 0
M  V30 44468 O 4133.62 -1.00857 -1.66307 0
M  V30 44469 C 4133.9 -3.51235 0.794105 0
M  V30 44470 C 4133.76 -3.86868 2.29462 0
M  V30 44471 C 4135.08 -4.39245 0.274229 0
M  V30 44472 H 4132.2 -0.712729 0.187581 0
M  V30 44473 H 4134.84 -1.53821 1.1153 0
M  V30 44474 H 4132.99 -3.87484 0.280839 0
M  V30 44475 H 4134.66 -3.60615 2.87671 0
M  V30 44476 H 4132.9 -3.34746 2.75913 0
M  V30 44477 H 4133.57 -4.95024 2.44243 0
M  V30 44478 H 4136.05 -4.09935 0.713607 0
M  V30 44479 H 4134.93 -5.46611 0.500729 0
M  V30 44480 H 4135.19 -4.34339 -0.824736 0
M  V30 44481 N 4134.25 -0.651838 -1.43488 0
M  V30 44482 C 4135.18 0.0270682 -2.33484 0
M  V30 44483 C 4136.16 0.813401 -1.49391 0
M  V30 44484 O 4137.34 0.775155 -1.78059 0
M  V30 44485 C 4134.47 0.995084 -3.32739 0
M  V30 44486 C 4133.43 0.318961 -4.2681 0
M  V30 44487 C 4132.75 1.39833 -5.16092 0
M  V30 44488 C 4134.05 -0.787783 -5.16325 0
M  V30 44489 H 4135.75 -0.724492 -2.90502 0
M  V30 44490 H 4133.29 -0.34985 -1.39686 0
M  V30 44491 H 4135.24 1.47893 -3.94595 0
M  V30 44492 H 4133.97 1.77779 -2.73975 0
M  V30 44493 H 4132.63 -0.14443 -3.66315 0
M  V30 44494 H 4132.28 2.17243 -4.53668 0
M  V30 44495 H 4131.98 0.95119 -5.7985 0
M  V30 44496 H 4133.5 1.88357 -5.80822 0
M  V30 44497 H 4134.91 -0.386154 -5.71998 0
M  V30 44498 H 4133.31 -1.1593 -5.88796 0
M  V30 44499 H 4134.38 -1.64634 -4.56096 0
M  V30 44500 N 4135.72 1.52604 -0.39367 0
M  V30 44501 C 4136.97 2.01235 0.186749 0
M  V30 44502 C 4137.29 1.28178 1.46954 0
M  V30 44503 O 4136.56 0.403122 1.91707 0
M  V30 44504 H 4135.14 0.743522 0.0720007 0
M  V30 44505 H 4137.8 1.87658 -0.526363 0
M  V30 44506 H 4136.9 3.09605 0.393867 0
M  V30 44507 N 4137.2 0.12362 1.57114 0
M  V30 44508 C 4138.45 -0.527775 1.96433 0
M  V30 44509 C 4138.8 -1.63994 1.00617 0
M  V30 44510 O 4138.1 -1.91564 0.0370078 0
M  V30 44511 C 4138.29 -1.10212 3.39983 0
M  V30 44512 C 4138.12 -0.0471277 4.49675 0
M  V30 44513 C 4136.89 0.386278 5.03821 0
M  V30 44514 C 4139.09 0.735592 5.09012 0
M  V30 44515 N 4137.07 1.42656 5.97095 0
M  V30 44516 C 4138.44 1.62695 5.98273 0
M  V30 44517 C 4140.49 0.78597 4.91657 0
M  V30 44518 C 4139.2 2.56431 6.72038 0
M  V30 44519 C 4141.22 1.71106 5.66107 0
M  V30 44520 C 4140.59 2.58998 6.55057 0
M  V30 44521 H 4136.68 -0.162618 0.764905 0
M  V30 44522 H 4139.27 0.212809 1.93533 0
M  V30 44523 H 4137.44 -1.8124 3.43521 0
M  V30 44524 H 4139.17 -1.71821 3.66415 0
M  V30 44525 H 4135.93 -0.00700925 4.73599 0
M  V30 44526 H 4136.35 1.94576 6.48436 0
M  V30 44527 H 4140.99 0.120566 4.22628 0
M  V30 44528 H 4138.71 3.23983 7.40311 0
M  V30 44529 H 4142.3 1.75554 5.54682 0
M  V30 44530 H 4141.18 3.29417 7.11656 0
M  V30 44531 N 4138.68 -1.56883 -0.15016 0
M  V30 44532 C 4139.64 -1.97124 -1.16939 0
M  V30 44533 C 4140.64 -0.857377 -1.36036 0
M  V30 44534 O 4141.83 -1.12406 -1.33081 0
M  V30 44535 C 4138.96 -2.28444 -2.53033 0
M  V30 44536 H 4140.16 -2.88351 -0.824246 0
M  V30 44537 H 4137.71 -1.51268 -0.393388 0
M  V30 44538 H 4138.45 -1.39999 -2.92525 0
M  V30 44539 H 4138.23 -3.09654 -2.40534 0
M  V30 44540 H 4139.72 -2.60426 -3.26447 0
M  V30 44541 N 4140.16 0.419408 -1.51917 0
M  V30 44542 C 4141.57 0.998624 -1.57748 0
M  V30 44543 C 4141.92 1.91831 -0.41174 0
M  V30 44544 O 4141.05 2.11251 0.469231 0
M  V30 44545 C 4141.64 1.8179 -2.85898 0
M  V30 44546 C 4140.2 2.34731 -2.94242 0
M  V30 44547 C 4139.35 1.14429 -2.52589 0
M  V30 44548 H 4142.3 0.200012 -1.57435 0
M  V30 44549 H 4142.32 2.67427 -2.70672 0
M  V30 44550 H 4141.83 1.14828 -3.70724 0
M  V30 44551 H 4139.93 3.05096 -2.13887 0
M  V30 44552 H 4140.04 2.66301 -3.98272 0
M  V30 44553 H 4138.41 1.49513 -2.06199 0
M  V30 44554 H 4139.19 0.490496 -3.39778 0
M  V30 44555 N 4141.64 1.42366 0.675998 0
M  V30 44556 C 4142.6 1.45449 1.77136 0
M  V30 44557 C 4143.6 0.342254 1.57115 0
M  V30 44558 O 4144.79 0.603028 1.6343 0
M  V30 44559 C 4141.92 1.28497 3.15755 0
M  V30 44560 H 4143.11 2.42978 1.75789 0
M  V30 44561 H 4140.67 1.28796 0.885515 0
M  V30 44562 H 4141.4 0.318872 3.22729 0
M  V30 44563 H 4141.19 2.09103 3.3169 0
M  V30 44564 H 4142.68 1.33535 3.95674 0
M  V30 44565 N 4143.11 -0.912187 1.28518 0
M  V30 44566 C 4144.53 -1.47658 1.14254 0
M  V30 44567 C 4144.88 -1.94376 -0.266901 0
M  V30 44568 O 4144 -1.826 -1.1613 0
M  V30 44569 C 4144.6 -2.68366 2.06797 0
M  V30 44570 C 4143.16 -3.2098 1.96592 0
M  V30 44571 C 4142.3 -1.93685 1.98447 0
M  V30 44572 H 4145.25 -0.724744 1.41185 0
M  V30 44573 H 4145.27 -3.43682 1.63288 0
M  V30 44574 H 4144.79 -2.34333 3.0937 0
M  V30 44575 H 4142.89 -3.59735 0.970629 0
M  V30 44576 H 4143 -3.86124 2.83629 0
M  V30 44577 H 4141.36 -2.10852 1.42876 0
M  V30 44578 H 4142.15 -1.61946 3.02702 0
M  V30 44579 N 4144.59 -1.10792 -1.12085 0
M  V30 44580 C 4145.84 -0.852618 -1.83675 0
M  V30 44581 C 4146.17 0.621797 -1.84293 0
M  V30 44582 O 4145.42 1.47464 -1.28658 0
M  V30 44583 C 4145.72 -1.35085 -3.30888 0
M  V30 44584 C 4145.39 -2.83732 -3.50438 0
M  V30 44585 C 4144.05 -3.24324 -3.55481 0
M  V30 44586 C 4146.4 -3.79504 -3.57248 0
M  V30 44587 C 4143.73 -4.59431 -3.64883 0
M  V30 44588 C 4146.08 -5.14419 -3.6818 0
M  V30 44589 C 4144.75 -5.54579 -3.71481 0
M  V30 44590 H 4144.02 -0.311995 -0.672116 0
M  V30 44591 H 4146.66 -1.38516 -1.32233 0
M  V30 44592 H 4144.97 -0.738402 -3.84779 0
M  V30 44593 H 4146.66 -1.12974 -3.84757 0
M  V30 44594 H 4143.25 -2.51328 -3.47178 0
M  V30 44595 H 4147.44 -3.49248 -3.52618 0
M  V30 44596 H 4142.69 -4.89963 -3.65713 0
M  V30 44597 H 4146.87 -5.8847 -3.72392 0
M  V30 44598 H 4144.5 -6.59263 -3.78519 0
M  V30 44599 N 4146.07 1.29568 -0.897217 0
M  V30 44600 C 4147.3 2.00341 -0.5365 0
M  V30 44601 C 4147.72 1.66727 0.870851 0
M  V30 44602 O 4147.08 0.89052 1.57922 0
M  V30 44603 C 4147.13 3.53075 -0.732843 0
M  V30 44604 O 4146.23 4.11835 0.215775 0
M  V30 44605 H 4145.57 0.629946 -0.209915 0
M  V30 44606 H 4148.1 1.65123 -1.20812 0
M  V30 44607 H 4148.11 4.03004 -0.636539 0
M  V30 44608 H 4146.79 3.76877 -1.75888 0
M  V30 44609 H 4145.36 3.7283 0.0721356 0
M  V30 44610 N 4147.55 0.659438 1.4314 0
M  V30 44611 C 4148.79 0.179051 2.03614 0
M  V30 44612 C 4149.15 -1.1867 1.50935 0
M  V30 44613 O 4150.35 -1.76086 2.03094 0
M  V30 44614 C 4148.62 0.195438 3.56865 0
M  V30 44615 S 4150.18 -0.216194 4.38267 0
M  V30 44616 H 4147 0.0750203 0.707031 0
M  V30 44617 H 4149.6 0.869163 1.75117 0
M  V30 44618 H 4148.31 1.19206 3.92706 0
M  V30 44619 H 4147.84 -0.51501 3.90014 0
M  V30 44620 H 4149.85 -1.45352 4.74434 0
M  V30 44621 N 4149.03 -1.52393 0.401757 0
M  V30 44622 C 4150.3 -1.94188 -0.23461 0
M  V30 44623 C 4150.68 -1.33813 -1.63271 0
M  V30 44624 O 4150.03 -0.511053 -2.22712 0
M  V30 44625 C 4150.24 -3.48115 -0.248393 0
M  V30 44626 C 4151.59 -4.21976 -0.471322 0
M  V30 44627 O 4152.61 -3.54686 -0.328069 0
M  V30 44628 O 4151.47 -5.41287 -0.75304 0
M  V30 44629 H 4148.57 -0.813456 -0.149061 0
M  V30 44630 H 4151.11 -1.63426 0.457167 0
M  V30 44631 H 4149.88 -3.84422 0.730422 0
M  V30 44632 H 4149.51 -3.85217 -0.984576 0
M  V30 44633 N 4150.5 -0.131951 -1.57047 0
M  V30 44634 C 4151.75 0.51735 -1.96711 0
M  V30 44635 C 4152.11 1.63458 -1.01485 0
M  V30 44636 O 4151.4 1.91542 -0.0471664 0
M  V30 44637 C 4151.59 1.08407 -3.40562 0
M  V30 44638 C 4151.42 0.0232796 -4.49694 0
M  V30 44639 C 4150.19 -0.412992 -5.03609 0
M  V30 44640 C 4152.39 -0.762576 -5.08615 0
M  V30 44641 N 4150.37 -1.4582 -5.9633 0
M  V30 44642 C 4151.74 -1.65865 -5.97402 0
M  V30 44643 C 4153.8 -0.812032 -4.91234 0
M  V30 44644 C 4152.5 -2.59991 -6.70669 0
M  V30 44645 C 4154.53 -1.74106 -5.65191 0
M  V30 44646 C 4153.89 -2.62469 -6.53674 0
M  V30 44647 H 4149.99 0.158559 -0.765756 0
M  V30 44648 H 4152.57 -0.22307 -1.93418 0
M  V30 44649 H 4150.74 1.79416 -3.44477 0
M  V30 44650 H 4152.47 1.69875 -3.67321 0
M  V30 44651 H 4149.23 -0.018107 -4.73597 0
M  V30 44652 H 4149.65 -1.98012 -6.47395 0
M  V30 44653 H 4154.3 -0.142978 -4.22558 0
M  V30 44654 H 4152.01 -3.27904 -7.38583 0
M  V30 44655 H 4155.6 -1.78493 -5.53743 0
M  V30 44656 H 4154.48 -3.33187 -7.09899 0
M  V30 44657 N 4151.98 1.5696 0.141838 0
M  V30 44658 C 4153.21 1.87795 0.86837 0
M  V30 44659 C 4153.63 0.720721 1.74502 0
M  V30 44660 O 4152.98 -0.309341 1.79859 0
M  V30 44661 C 4153.03 3.17916 1.7208 0
M  V30 44662 O 4152.75 4.29182 0.879473 0
M  V30 44663 C 4154.26 3.62301 2.55447 0
M  V30 44664 H 4151.48 0.622354 0.250831 0
M  V30 44665 H 4154.02 2.04067 0.133077 0
M  V30 44666 H 4152.17 3.03383 2.4091 0
M  V30 44667 H 4152.59 5.03619 1.46521 0
M  V30 44668 H 4154.06 4.5617 3.10826 0
M  V30 44669 H 4154.54 2.8784 3.3173 0
M  V30 44670 H 4155.15 3.79545 1.91899 0
M  V30 44671 N 4153.46 -0.411345 1.52137 0
M  V30 44672 C 4154.87 -0.990244 1.58275 0
M  V30 44673 C 4155.22 -1.9161 0.421907 0
M  V30 44674 O 4154.35 -2.11497 -0.458021 0
M  V30 44675 C 4154.94 -1.80271 2.86858 0
M  V30 44676 C 4153.5 -2.33168 2.95482 0
M  V30 44677 C 4152.65 -1.13088 2.53192 0
M  V30 44678 H 4155.6 -0.19166 1.57538 0
M  V30 44679 H 4155.62 -2.65987 2.72086 0
M  V30 44680 H 4155.13 -1.1286 3.71328 0
M  V30 44681 H 4153.23 -3.03957 2.15502 0
M  V30 44682 H 4153.35 -2.64185 3.99679 0
M  V30 44683 H 4151.71 -1.48417 2.06989 0
M  V30 44684 H 4152.49 -0.47247 3.40033 0
M  V30 44685 N 4154.94 -1.42722 -0.668439 0
M  V30 44686 C 4156.16 -1.4715 -1.46156 0
M  V30 44687 C 4156.59 -0.0860982 -1.87903 0
M  V30 44688 O 4155.95 0.916863 -1.56408 0
M  V30 44689 C 4156 -2.40953 -2.68279 0
M  V30 44690 O 4155.1 -1.88529 -3.66784 0
M  V30 44691 H 4154.44 -0.498319 -0.438833 0
M  V30 44692 H 4156.97 -1.87479 -0.81932 0
M  V30 44693 H 4156.98 -2.57748 -3.16275 0
M  V30 44694 H 4155.66 -3.41603 -2.37234 0
M  V30 44695 H 4154.23 -1.81321 -3.25848 0
M  V30 44696 N 4156.42 0.905358 -1.29 0
M  V30 44697 C 4157.69 1.63521 -1.07332 0
M  V30 44698 C 4158.07 2.07569 0.384482 0
M  V30 44699 O 4157.42 1.8271 1.3722 0
M  V30 44700 C 4157.63 2.82033 -2.05568 0
M  V30 44701 C 4158.98 3.52854 -2.36176 0
M  V30 44702 O 4160 2.92194 -2.03718 0
M  V30 44703 O 4158.86 4.62197 -2.91609 0
M  V30 44704 H 4155.96 0.71775 -0.410809 0
M  V30 44705 H 4158.5 0.953924 -1.40351 0
M  V30 44706 H 4157.28 2.4664 -3.03783 0
M  V30 44707 H 4156.9 3.57872 -1.73245 0
M  V30 44708 N 4157.9 1.11385 1.11495 0
M  V30 44709 C 4158.81 0.784354 2.211 0
M  V30 44710 C 4159.82 -0.222283 1.72574 0
M  V30 44711 O 4161 -0.0585966 2.01315 0
M  V30 44712 C 4158.06 0.231774 3.45924 0
M  V30 44713 C 4157.12 1.29694 4.09241 0
M  V30 44714 C 4156.36 0.770635 5.28107 0
M  V30 44715 O 4156.58 -0.399516 5.68999 0
M  V30 44716 O 4155.51 1.53516 5.81994 0
M  V30 44717 H 4159.34 1.6995 2.51696 0
M  V30 44718 H 4156.92 0.889693 1.2002 0
M  V30 44719 H 4158.81 -0.0720507 4.21338 0
M  V30 44720 H 4157.48 -0.65609 3.16981 0
M  V30 44721 H 4156.39 1.65377 3.35561 0
M  V30 44722 H 4157.72 2.15817 4.42361 0
M  V30 44723 N 4159.37 -1.2909 0.904076 0
M  V30 44724 C 4160.79 -1.4786 0.600809 0
M  V30 44725 C 4160.99 -1.8239 -0.856522 0
M  V30 44726 O 4160.05 -1.923 -1.63637 0
M  V30 44727 C 4161.36 -2.58842 1.53039 0
M  V30 44728 C 4162.91 -2.72716 1.53607 0
M  V30 44729 C 4163.38 -3.86832 2.45204 0
M  V30 44730 N 4164.87 -3.94172 2.43276 0
M  V30 44731 C 4165.61 -4.81829 3.10851 0
M  V30 44732 N 4165.1 -5.74146 3.87722 0
M  V30 44733 N 4166.9 -4.75357 2.99987 0
M  V30 44734 H 4159.05 -1.04954 1.84658 0
M  V30 44735 H 4161.31 -0.521776 0.791489 0
M  V30 44736 H 4161.02 -2.40205 2.56894 0
M  V30 44737 H 4160.89 -3.55738 1.25421 0
M  V30 44738 H 4163.28 -2.90748 0.50495 0
M  V30 44739 H 4163.36 -1.76382 1.85265 0
M  V30 44740 H 4163 -3.69556 3.48412 0
M  V30 44741 H 4162.93 -4.82544 2.10853 0
M  V30 44742 H 4165.42 -3.28144 1.87429 0
M  V30 44743 H 4165.74 -6.37838 4.36329 0
M  V30 44744 H 4164.08 -5.74017 3.91828 0
M  V30 44745 H 4167.27 -4.02224 2.39444 0
M  V30 44746 H 4167.45 -5.43459 3.52926 0
M  V30 44747 N 4160.85 -0.66702 -1.42789 0
M  V30 44748 C 4162.1 -0.183322 -2.00865 0
M  V30 44749 C 4162.41 1.21463 -1.53317 0
M  V30 44750 O 4163.62 1.79428 -2.03759 0
M  V30 44751 C 4162.08 -0.276899 -3.58833 0
M  V30 44752 C 4161.68 -1.67841 -4.15371 0
M  V30 44753 C 4163.43 0.148486 -4.2424 0
M  V30 44754 C 4161.33 -1.72517 -5.65678 0
M  V30 44755 H 4160.26 -0.0647745 -0.751213 0
M  V30 44756 H 4162.92 -0.831069 -1.63602 0
M  V30 44757 H 4161.3 0.438603 -3.93564 0
M  V30 44758 H 4162.47 -2.42037 -3.92116 0
M  V30 44759 H 4160.79 -2.05097 -3.62387 0
M  V30 44760 H 4163.38 0.133587 -5.34533 0
M  V30 44761 H 4163.73 1.18238 -3.99156 0
M  V30 44762 H 4164.26 -0.515739 -3.94443 0
M  V30 44763 H 4161 -2.73863 -5.9555 0
M  V30 44764 H 4160.52 -1.02666 -5.90948 0
M  V30 44765 H 4162.2 -1.4751 -6.2996 0
M  V30 44766 N 4162.33 1.52178 -0.409833 0
M  V30 44767 C 4163.75 1.59484 -0.0607454 0
M  V30 44768 C 4163.95 1.42264 1.427 0
M  V30 44769 O 4163 1.24994 2.19392 0
M  V30 44770 C 4164.31 2.9551 -0.55629 0
M  V30 44771 C 4165.86 3.08745 -0.514327 0
M  V30 44772 C 4166.34 4.47252 -0.986392 0
M  V30 44773 N 4167.83 4.53494 -0.943242 0
M  V30 44774 C 4168.56 5.58938 -1.27968 0
M  V30 44775 N 4168.06 6.71931 -1.68762 0
M  V30 44776 N 4169.85 5.4915 -1.19961 0
M  V30 44777 H 4162 1.61619 -1.37815 0
M  V30 44778 H 4164.27 0.760347 -0.566195 0
M  V30 44779 H 4163.97 3.13394 -1.59616 0
M  V30 44780 H 4163.85 3.77185 0.0336827 0
M  V30 44781 H 4166.23 2.90545 0.516495 0
M  V30 44782 H 4166.31 2.28975 -1.14036 0
M  V30 44783 H 4165.96 4.66195 -2.01554 0
M  V30 44784 H 4165.89 5.2552 -0.337163 0
M  V30 44785 H 4168.38 3.72384 -0.643326 0
M  V30 44786 H 4168.69 7.48378 -1.92743 0
M  V30 44787 H 4167.04 6.7321 -1.72666 0
M  V30 44788 H 4170.23 4.59758 -0.879774 0
M  V30 44789 H 4170.4 6.3122 -1.46512 0
M  V30 44790 N 4163.81 0.140278 1.56974 0
M  V30 44791 C 4164.74 -0.798195 2.19434 0
M  V30 44792 C 4165.72 -1.26194 1.14057 0
M  V30 44793 O 4166.9 -1.32072 1.42375 0
M  V30 44794 C 4164.03 -2.04013 2.81062 0
M  V30 44795 C 4162.99 -1.7134 3.92207 0
M  V30 44796 C 4162.31 -3.02741 4.40741 0
M  V30 44797 C 4163.61 -0.965237 5.13303 0
M  V30 44798 H 4165.31 -0.277664 2.9811 0
M  V30 44799 H 4162.85 -0.132112 1.43393 0
M  V30 44800 H 4164.81 -2.70141 3.23422 0
M  V30 44801 H 4163.53 -2.58427 1.99708 0
M  V30 44802 H 4162.19 -1.07593 3.50456 0
M  V30 44803 H 4161.84 -3.55132 3.56217 0
M  V30 44804 H 4161.54 -2.81645 5.15703 0
M  V30 44805 H 4163.06 -3.69951 4.85766 0
M  V30 44806 H 4164.48 -1.52847 5.52549 0
M  V30 44807 H 4162.87 -0.85447 5.93986 0
M  V30 44808 H 4163.94 0.044254 4.8488 0
M  V30 44809 N 4165.29 -1.57033 -0.133512 0
M  V30 44810 C 4166.7 -1.73394 -0.692191 0
M  V30 44811 C 4167.05 -0.756767 -1.81018 0
M  V30 44812 O 4166.17 0.0736068 -2.16275 0
M  V30 44813 C 4166.77 -3.14403 -1.26239 0
M  V30 44814 C 4165.33 -3.32319 -1.76751 0
M  V30 44815 C 4164.47 -2.69298 -0.66135 0
M  V30 44816 H 4167.42 -1.58431 0.0922841 0
M  V30 44817 H 4167.45 -3.15149 -2.13216 0
M  V30 44818 H 4166.96 -3.855 -0.448482 0
M  V30 44819 H 4165.06 -2.66241 -2.60666 0
M  V30 44820 H 4165.17 -4.40376 -1.88694 0
M  V30 44821 H 4163.54 -2.30134 -1.09136 0
M  V30 44822 H 4164.32 -3.43009 0.141341 0
M  V30 44823 N 4166.76 0.403271 -1.52353 0
M  V30 44824 C 4167.99 1.17125 -1.70556 0
M  V30 44825 C 4168.41 1.84124 -0.417609 0
M  V30 44826 O 4167.76 1.72116 0.606832 0
M  V30 44827 C 4167.81 2.22999 -2.84524 0
M  V30 44828 O 4167.54 1.58734 -4.08332 0
M  V30 44829 C 4169.04 3.12633 -3.14286 0
M  V30 44830 H 4166.26 0.35173 -0.571426 0
M  V30 44831 H 4168.8 0.473699 -1.98938 0
M  V30 44832 H 4166.96 2.88413 -2.58644 0
M  V30 44833 H 4167.37 2.28971 -4.71882 0
M  V30 44834 H 4168.84 3.82981 -3.97529 0
M  V30 44835 H 4169.32 3.75336 -2.28078 0
M  V30 44836 H 4169.93 2.52881 -3.41952 0
M  V30 44837 N 4168.24 1.43075 0.66086 0
M  V30 44838 C 4169.52 1.34766 1.41766 0
M  V30 44839 C 4169.9 -0.00825009 2.11098 0
M  V30 44840 O 4169.25 -1.02446 2.04248 0
M  V30 44841 C 4169.46 2.52558 2.40864 0
M  V30 44842 C 4170.8 2.95302 3.05093 0
M  V30 44843 O 4171.83 2.52549 2.51192 0
M  V30 44844 O 4170.69 3.69342 4.02801 0
M  V30 44845 H 4167.78 0.532193 0.633008 0
M  V30 44846 H 4170.33 1.5511 0.688411 0
M  V30 44847 H 4169.1 3.42889 1.88527 0
M  V30 44848 H 4168.72 2.34273 3.2125 0
M  V30 44849 N 4169.72 -0.898504 1.29478 0
M  V30 44850 C 4170.67 -2.02413 1.14594 0
M  V30 44851 C 4171.66 -1.69289 0.0612217 0
M  V30 44852 O 4172.87 -1.78637 0.221107 0
M  V30 44853 H 4169.24 -0.663462 0.354009 0
M  V30 44854 H 4171.21 -2.12106 2.0989 0
M  V30 44855 C 4169.96 -3.37388 0.840495 0
M  V30 44856 H 4169.29 -3.6338 1.66719 0
M  V30 44857 H 4170.73 -4.16831 0.776383 0
M  V30 44858 C 4169.19 -3.33796 -0.456278 0
M  V30 44859 O 4169.72 -3.73364 -1.48197 0
M  V30 44860 N 4167.92 -2.86895 -0.462554 0
M  V30 44861 H 4167.47 -2.54891 0.37259 0
M  V30 44862 H 4167.43 -2.84874 -1.33019 0
M  V30 44863 N 4171.2 -1.11974 -1.10903 0
M  V30 44864 C 4172.43 -0.893435 -1.86283 0
M  V30 44865 C 4172.84 0.560562 -1.80705 0
M  V30 44866 O 4172.18 1.39908 -1.19044 0
M  V30 44867 C 4172.24 -1.28392 -3.35791 0
M  V30 44868 C 4171.91 -2.74822 -3.65132 0
M  V30 44869 C 4172.9 -3.73027 -3.62142 0
M  V30 44870 C 4170.59 -3.11608 -3.93962 0
M  V30 44871 C 4172.58 -5.06035 -3.87566 0
M  V30 44872 C 4170.27 -4.44799 -4.19043 0
M  V30 44873 C 4171.27 -5.41822 -4.15835 0
M  V30 44874 O 4170.95 -6.72612 -4.40282 0
M  V30 44875 H 4170.69 -0.319457 -0.595754 0
M  V30 44876 H 4173.24 -1.49222 -1.41146 0
M  V30 44877 H 4171.47 -0.628314 -3.81561 0
M  V30 44878 H 4173.16 -1.03252 -3.92548 0
M  V30 44879 H 4173.93 -3.45954 -3.39913 0
M  V30 44880 H 4169.8 -2.36702 -3.95592 0
M  V30 44881 H 4173.35 -5.81755 -3.84977 0
M  V30 44882 H 4169.25 -4.71604 -4.40749 0
M  V30 44883 H 4170.01 -6.78485 -4.57821 0
M  V30 44884 N 4172.68 1.28609 -0.910909 0
M  V30 44885 C 4173.61 2.298 -0.414038 0
M  V30 44886 C 4174.59 1.62057 0.516862 0
M  V30 44887 O 4175.77 1.89488 0.425203 0
M  V30 44888 C 4172.9 3.45539 0.349276 0
M  V30 44889 C 4171.86 4.2516 -0.492225 0
M  V30 44890 C 4171.18 5.33207 0.399258 0
M  V30 44891 C 4172.48 4.92181 -1.74801 0
M  V30 44892 H 4174.18 2.7161 -1.2597 0
M  V30 44893 H 4171.72 1.30573 -0.607172 0
M  V30 44894 H 4173.68 4.15415 0.707697 0
M  V30 44895 H 4172.4 3.02602 1.22881 0
M  V30 44896 H 4171.06 3.57008 -0.833127 0
M  V30 44897 H 4170.71 4.86513 1.27726 0
M  V30 44898 H 4170.41 5.87382 -0.160165 0
M  V30 44899 H 4171.93 6.05931 0.753625 0
M  V30 44900 H 4173.34 5.54433 -1.45866 0
M  V30 44901 H 4171.74 5.56338 -2.24962 0
M  V30 44902 H 4172.81 4.16832 -2.47748 0
M  V30 44903 N 4174.15 0.674583 1.42433 0
M  V30 44904 C 4175.57 0.344115 1.55846 0
M  V30 44905 C 4175.77 -1.1505 1.65426 0
M  V30 44906 O 4174.83 -1.93591 1.62107 0
M  V30 44907 C 4176.14 1.07424 2.80857 0
M  V30 44908 C 4177.69 1.05654 2.94629 0
M  V30 44909 C 4178.16 1.76799 4.225 0
M  V30 44910 N 4179.65 1.73666 4.29412 0
M  V30 44911 C 4180.39 2.2557 5.27167 0
M  V30 44912 N 4179.88 2.85856 6.31077 0
M  V30 44913 N 4181.68 2.15946 5.18964 0
M  V30 44914 H 4173.83 1.64422 1.34459 0
M  V30 44915 H 4176.09 0.692684 0.647219 0
M  V30 44916 H 4175.8 2.12933 2.79915 0
M  V30 44917 H 4175.67 0.639335 3.71742 0
M  V30 44918 H 4178.06 0.00978891 2.95098 0
M  V30 44919 H 4178.14 1.53033 2.04975 0
M  V30 44920 H 4177.78 2.81442 4.22791 0
M  V30 44921 H 4177.71 1.2687 5.11089 0
M  V30 44922 H 4180.2 1.29694 3.54948 0
M  V30 44923 H 4180.52 3.23083 7.02024 0
M  V30 44924 H 4178.86 2.89926 6.31639 0
M  V30 44925 H 4182.05 1.68538 4.36707 0
M  V30 44926 H 4182.23 2.56704 5.94985 0
M  V30 44927 N 4175.63 -1.51958 0.417898 0
M  V30 44928 C 4176.88 -2.02205 -0.155247 0
M  V30 44929 C 4177.21 -1.30252 -1.44041 0
M  V30 44930 O 4176.49 -0.411482 -1.90098 0
M  V30 44931 C 4176.77 -3.57938 -0.393975 0
M  V30 44932 C 4176.62 -4.4053 0.908481 0
M  V30 44933 C 4177.94 -4.24199 -1.1723 0
M  V30 44934 H 4175.06 -0.734949 -0.0549487 0
M  V30 44935 H 4177.7 -1.81772 0.553085 0
M  V30 44936 H 4175.85 -3.7548 -0.997356 0
M  V30 44937 H 4177.52 -4.34681 1.54435 0
M  V30 44938 H 4175.77 -4.06392 1.5175 0
M  V30 44939 H 4176.44 -5.47598 0.695726 0
M  V30 44940 H 4178.91 -4.1081 -0.661389 0
M  V30 44941 H 4177.79 -5.33086 -1.30809 0
M  V30 44942 H 4178.05 -3.83745 -2.19527 0
M  V30 44943 N 4177.11 -0.1486 -1.56898 0
M  V30 44944 C 4178.02 0.803491 -2.20411 0
M  V30 44945 C 4179.04 1.2705 -1.18888 0
M  V30 44946 O 4180.21 1.32735 -1.51471 0
M  V30 44947 C 4177.28 2.02451 -2.81451 0
M  V30 44948 C 4176.34 1.60658 -3.98105 0
M  V30 44949 C 4175.57 2.7694 -4.56224 0
M  V30 44950 O 4175.79 3.93196 -4.13222 0
M  V30 44951 O 4174.73 2.5232 -5.4646 0
M  V30 44952 H 4178.55 0.292828 -3.02285 0
M  V30 44953 H 4176.14 0.0785037 -1.49194 0
M  V30 44954 H 4178.02 2.73905 -3.2024 0
M  V30 44955 H 4176.7 2.52467 -2.02589 0
M  V30 44956 H 4175.6 0.862223 -3.64028 0
M  V30 44957 H 4176.94 1.15357 -4.78491 0
M  V30 44958 N 4178.59 1.57102 0.125182 0
M  V30 44959 C 4179.82 1.88705 0.848403 0
M  V30 44960 C 4180.23 0.739189 1.73728 0
M  V30 44961 O 4179.59 -0.290247 1.80177 0
M  V30 44962 C 4179.64 3.19723 1.68699 0
M  V30 44963 O 4179.36 4.3009 0.833903 0
M  V30 44964 C 4180.86 3.64989 2.5159 0
M  V30 44965 H 4178.08 0.62498 0.244216 0
M  V30 44966 H 4180.63 2.04196 0.111426 0
M  V30 44967 H 4178.78 3.05921 2.37679 0
M  V30 44968 H 4179.19 5.05145 1.41171 0
M  V30 44969 H 4180.67 4.59441 3.0597 0
M  V30 44970 H 4181.15 2.91342 3.28659 0
M  V30 44971 H 4181.75 3.81559 1.87863 0
M  V30 44972 N 4180.07 -0.395186 1.52565 0
M  V30 44973 C 4181.48 -0.734815 1.41678 0
M  V30 44974 C 4181.68 -1.94342 0.532294 0
M  V30 44975 O 4180.74 -2.525 0.00338044 0
M  V30 44976 C 4182.05 -0.975699 2.8443 0
M  V30 44977 C 4183.6 -1.07755 2.93867 0
M  V30 44978 C 4184.07 -1.35111 4.37617 0
M  V30 44979 N 4185.57 -1.41946 4.40914 0
M  V30 44980 C 4186.3 -1.64766 5.49217 0
M  V30 44981 N 4185.8 -1.85097 6.67616 0
M  V30 44982 N 4187.59 -1.66894 5.36752 0
M  V30 44983 H 4179.74 0.400182 2.08596 0
M  V30 44984 H 4182 0.116821 0.940775 0
M  V30 44985 H 4181.71 -0.159819 3.51337 0
M  V30 44986 H 4181.58 -1.89207 3.26314 0
M  V30 44987 H 4183.97 -1.88401 2.27132 0
M  V30 44988 H 4184.05 -0.139234 2.55421 0
M  V30 44989 H 4183.7 -0.549777 5.04916 0
M  V30 44990 H 4183.63 -2.30217 4.73611 0
M  V30 44991 H 4186.12 -1.27967 3.55574 0
M  V30 44992 H 4186.43 -2.01999 7.45933 0
M  V30 44993 H 4184.77 -1.82334 6.70656 0
M  V30 44994 H 4187.97 -1.50558 4.43227 0
M  V30 44995 H 4188.14 -1.84339 6.21227 0
M  V30 44996 N 4181.54 -1.43423 -0.653263 0
M  V30 44997 C 4182.78 -1.46541 -1.42496 0
M  V30 44998 C 4183.15 -0.0871287 -1.91802 0
M  V30 44999 O 4184.35 0.00700192 -2.68799 0
M  V30 45000 C 4182.62 -2.47872 -2.57476 0
M  V30 45001 S 4184.18 -2.69865 -3.46003 0
M  V30 45002 H 4181 -0.518579 -0.486412 0
M  V30 45003 H 4183.6 -1.80189 -0.758433 0
M  V30 45004 H 4182.3 -3.46751 -2.19527 0
M  V30 45005 H 4181.83 -2.15723 -3.28979 0
M  V30 45006 H 4183.85 -1.99788 -4.54202 0
M  V30 45007 N 4183.02 0.891625 -1.29953 0
M  V30 45008 C 4184.43 1.45822 -1.16588 0
M  V30 45009 C 4184.78 1.94776 0.235944 0
M  V30 45010 O 4183.91 1.84424 1.13211 0
M  V30 45011 C 4184.5 2.65042 -2.1104 0
M  V30 45012 C 4183.06 3.17812 -2.01674 0
M  V30 45013 C 4182.21 1.90504 -2.01504 0
M  V30 45014 H 4185.16 0.702191 -1.4232 0
M  V30 45015 H 4185.18 3.41041 -1.68735 0
M  V30 45016 H 4184.69 2.29382 -3.13058 0
M  V30 45017 H 4182.8 3.58146 -1.02774 0
M  V30 45018 H 4182.91 3.81563 -2.89736 0
M  V30 45019 H 4181.27 2.08552 -1.46212 0
M  V30 45020 H 4182.06 1.5711 -3.0524 0
M  V30 45021 N 4184.5 1.12561 1.10308 0
M  V30 45022 C 4185.74 0.891844 1.83917 0
M  V30 45023 C 4186.11 -0.571968 1.83283 0
M  V30 45024 O 4187.31 -0.922952 2.52458 0
M  V30 45025 C 4185.58 1.45246 3.26555 0
M  V30 45026 S 4187.14 1.35742 4.17276 0
M  V30 45027 H 4183.95 0.32169 0.634063 0
M  V30 45028 H 4186.56 1.43539 1.32729 0
M  V30 45029 H 4185.26 2.51139 3.24588 0
M  V30 45030 H 4184.79 0.906467 3.82814 0
M  V30 45031 H 4186.81 0.329768 4.95103 0
M  V30 45032 N 4185.98 -1.28124 0.917717 0
M  V30 45033 C 4187.23 -1.9442 0.551838 0
M  V30 45034 C 4187.55 -1.72563 -0.908133 0
M  V30 45035 O 4186.82 -1.06761 -1.64253 0
M  V30 45036 H 4185.4 -0.719424 0.201094 0
M  V30 45037 H 4188.06 -1.5603 1.16794 0
M  V30 45038 H 4187.16 -3.02963 0.749641 0
M  V30 45039 N 4187.46 -0.682127 -1.42073 0
M  V30 45040 C 4188.69 -0.215752 -2.0547 0
M  V30 45041 C 4189.1 1.13502 -1.51374 0
M  V30 45042 O 4188.44 1.71767 -0.651281 0
M  V30 45043 C 4188.5 -0.0813135 -3.59408 0
M  V30 45044 C 4188.16 -1.36196 -4.36233 0
M  V30 45045 C 4189.16 -2.29699 -4.66406 0
M  V30 45046 C 4186.85 -1.6116 -4.75744 0
M  V30 45047 C 4188.84 -3.46437 -5.35033 0
M  V30 45048 C 4186.53 -2.78186 -5.4411 0
M  V30 45049 C 4187.53 -3.70648 -5.7368 0
M  V30 45050 O 4187.21 -4.85626 -6.40642 0
M  V30 45051 H 4186.95 -0.100766 -0.668448 0
M  V30 45052 H 4189.5 -0.931364 -1.8307 0
M  V30 45053 H 4187.73 0.689947 -3.80495 0
M  V30 45054 H 4189.42 0.346135 -4.04421 0
M  V30 45055 H 4190.18 -2.11666 -4.36374 0
M  V30 45056 H 4186.06 -0.900591 -4.52118 0
M  V30 45057 H 4189.61 -4.18627 -5.5803 0
M  V30 45058 H 4185.5 -2.96142 -5.73559 0
M  V30 45059 H 4186.27 -4.85266 -6.59135 0
M  V30 45060 N 4188.94 1.51735 -0.425951 0
M  V30 45061 C 4189.85 2.31205 0.397649 0
M  V30 45062 C 4190.86 1.39635 1.03818 0
M  V30 45063 O 4192.04 1.72709 1.03603 0
M  V30 45064 C 4189.1 3.13036 1.49028 0
M  V30 45065 C 4188.16 4.2037 0.871069 0
M  V30 45066 C 4187.4 4.98289 1.91163 0
M  V30 45067 O 4187.62 4.76704 3.13224 0
M  V30 45068 O 4186.55 5.8269 1.5085 0
M  V30 45069 H 4190.38 3.02663 -0.250803 0
M  V30 45070 H 4187.96 1.48203 -0.188749 0
M  V30 45071 H 4189.85 3.63944 2.12422 0
M  V30 45072 H 4188.52 2.44355 2.12302 0
M  V30 45073 H 4187.43 3.73568 0.199388 0
M  V30 45074 H 4188.76 4.91392 0.281991 0
M  V30 45075 N 4190.41 0.156919 1.56817 0
M  V30 45076 C 4191.35 -0.817258 2.13064 0
M  V30 45077 C 4192.32 -1.23571 1.05683 0
M  V30 45078 O 4193.51 -1.33005 1.33573 0
M  V30 45079 C 4190.64 -2.09868 2.65845 0
M  V30 45080 C 4189.68 -1.82537 3.85464 0
M  V30 45081 S 4190.51 -1.00748 5.25937 0
M  V30 45082 C 4191.67 -2.29988 5.82114 0
M  V30 45083 H 4191.9 -0.338977 2.95361 0
M  V30 45084 H 4189.44 -0.0575268 1.54293 0
M  V30 45085 H 4191.39 -2.83476 2.96903 0
M  V30 45086 H 4190.06 -2.5481 1.83659 0
M  V30 45087 H 4189.25 -2.7758 4.20673 0
M  V30 45088 H 4188.85 -1.17032 3.55217 0
M  V30 45089 H 4191.14 -3.25564 5.9415 0
M  V30 45090 H 4192.09 -1.99269 6.79483 0
M  V30 45091 H 4192.49 -2.4109 5.10427 0
M  V30 45092 N 4191.89 -1.57166 -0.116849 0
M  V30 45093 C 4192.84 -2.00498 -1.14321 0
M  V30 45094 C 4193.81 -0.87749 -1.41029 0
M  V30 45095 O 4194.99 -1.14187 -1.52859 0
M  V30 45096 C 4192.13 -2.41616 -2.46405 0
M  V30 45097 C 4191.25 -3.67791 -2.26614 0
M  V30 45098 C 4190.38 -3.97881 -3.51944 0
M  V30 45099 C 4189.42 -5.17231 -3.2732 0
M  V30 45100 N 4188.56 -5.43181 -4.44858 0
M  V30 45101 H 4193.4 -2.87968 -0.766707 0
M  V30 45102 H 4190.93 -1.42446 -0.367081 0
M  V30 45103 H 4192.89 -2.63494 -3.23461 0
M  V30 45104 H 4191.52 -1.57185 -2.81945 0
M  V30 45105 H 4190.57 -3.53516 -1.40466 0
M  V30 45106 H 4191.89 -4.54998 -2.04397 0
M  V30 45107 H 4191.04 -4.20418 -4.37416 0
M  V30 45108 H 4189.78 -3.09153 -3.77194 0
M  V30 45109 H 4188.78 -4.94536 -2.40238 0
M  V30 45110 H 4190.01 -6.07538 -3.03437 0
M  V30 45111 H 4187.96 -4.57411 -4.70225 0
M  V30 45112 H 4187.87 -6.24717 -4.25753 0
M  V30 45113 H 4189.14 -5.7024 -5.31458 0
M  V30 45114 N 4193.37 0.38709 -1.52772 0
M  V30 45115 C 4194.33 1.45568 -1.77039 0
M  V30 45116 C 4195.33 1.47496 -0.640436 0
M  V30 45117 O 4196.52 1.48633 -0.908504 0
M  V30 45118 C 4193.65 2.84843 -1.87289 0
M  V30 45119 H 4194.85 1.25334 -2.72454 0
M  V30 45120 H 4192.4 0.618945 -1.43523 0
M  V30 45121 H 4193.14 3.10419 -0.938655 0
M  V30 45122 H 4192.92 2.84844 -2.69455 0
M  V30 45123 H 4194.41 3.62268 -2.0773 0
M  V30 45124 N 4194.85 1.43768 0.645648 0
M  V30 45125 C 4196.09 1.45785 1.40545 0
M  V30 45126 C 4196.42 0.0849663 1.94314 0
M  V30 45127 O 4195.68 -0.91116 1.73195 0
M  V30 45128 C 4195.98 2.45364 2.59868 0
M  V30 45129 C 4195.64 3.91053 2.24473 0
M  V30 45130 C 4194.3 4.30731 2.14532 0
M  V30 45131 C 4196.66 4.82832 1.96272 0
M  V30 45132 C 4193.98 5.60131 1.74557 0
M  V30 45133 C 4196.34 6.12604 1.57793 0
M  V30 45134 C 4195 6.51251 1.46383 0
M  V30 45135 H 4194.27 0.533467 0.51429 0
M  V30 45136 H 4196.92 1.76894 0.733544 0
M  V30 45137 H 4195.22 2.07686 3.32225 0
M  V30 45138 H 4196.92 2.44177 3.18086 0
M  V30 45139 H 4193.51 3.59655 2.33123 0
M  V30 45140 H 4197.69 4.52944 2.02869 0
M  V30 45141 H 4192.95 5.88906 1.64315 0
M  V30 45142 H 4197.12 6.83188 1.35006 0
M  V30 45143 H 4194.75 7.51424 1.1518 0
M  V30 45144 N 4196.33 -0.884721 1.30424 0
M  V30 45145 C 4197.27 -1.99048 1.16827 0
M  V30 45146 C 4198.24 -1.66 0.057716 0
M  V30 45147 O 4199.43 -1.89433 0.227946 0
M  V30 45148 C 4196.57 -3.34049 0.86634 0
M  V30 45149 C 4195.68 -3.79786 2.0588 0
M  V30 45150 C 4194.82 -5.03434 1.69493 0
M  V30 45151 C 4193.85 -5.4158 2.85233 0
M  V30 45152 N 4192.99 -6.56409 2.49141 0
M  V30 45153 H 4197.83 -2.10009 2.11424 0
M  V30 45154 H 4195.37 -1.02827 1.0519 0
M  V30 45155 H 4197.33 -4.11754 0.671902 0
M  V30 45156 H 4195.96 -3.22772 -0.0427545 0
M  V30 45157 H 4195.01 -2.97987 2.36448 0
M  V30 45158 H 4196.32 -4.03996 2.92556 0
M  V30 45159 H 4195.47 -5.88765 1.46426 0
M  V30 45160 H 4194.21 -4.81096 0.799879 0
M  V30 45161 H 4193.22 -4.54775 3.08966 0
M  V30 45162 H 4194.44 -5.65891 3.75426 0
M  V30 45163 H 4192.39 -6.35646 1.62141 0
M  V30 45164 H 4192.31 -6.8049 3.29348 0
M  V30 45165 H 4193.57 -7.44971 2.2943 0
M  V30 45166 N 4197.8 -1.13144 -1.09709 0
M  V30 45167 C 4198.75 -0.801536 -2.18353 0
M  V30 45168 C 4199.75 0.214878 -1.68032 0
M  V30 45169 O 4200.95 0.0723207 -1.79855 0
M  V30 45170 H 4197.33 -0.24141 -0.712197 0
M  V30 45171 H 4199.3 -1.72606 -2.43413 0
M  V30 45172 C 4198.05 -0.280674 -3.46565 0
M  V30 45173 H 4197.37 -1.0541 -3.85654 0
M  V30 45174 H 4198.81 -0.0882324 -4.23908 0
M  V30 45175 C 4197.27 0.992997 -3.21934 0
M  V30 45176 O 4197.8 2.06938 -3.44296 0
M  V30 45177 N 4196 0.922922 -2.75555 0
M  V30 45178 H 4195.55 0.0468522 -2.57557 0
M  V30 45179 H 4195.51 1.77573 -2.59452 0
M  V30 45180 N 4199.28 1.27635 -0.924498 0
M  V30 45181 C 4200.53 1.94797 -0.564088 0
M  V30 45182 C 4200.86 1.72511 0.891832 0
M  V30 45183 O 4200.14 1.05231 1.63575 0
M  V30 45184 C 4200.42 3.49006 -0.886949 0
M  V30 45185 C 4200.27 3.80649 -2.39639 0
M  V30 45186 C 4201.59 4.38363 -0.390591 0
M  V30 45187 H 4198.71 0.707505 -0.206412 0
M  V30 45188 H 4201.35 1.5081 -1.1557 0
M  V30 45189 H 4199.5 3.86603 -0.383474 0
M  V30 45190 H 4201.17 3.52861 -2.97131 0
M  V30 45191 H 4199.42 3.27313 -2.84691 0
M  V30 45192 H 4200.09 4.88375 -2.57282 0
M  V30 45193 H 4202.56 4.07899 -0.822044 0
M  V30 45194 H 4201.44 5.45092 -0.645477 0
M  V30 45195 H 4201.7 4.36373 0.709289 0
M  V30 45196 N 4200.76 0.689652 1.41709 0
M  V30 45197 C 4202.01 0.217691 2.00924 0
M  V30 45198 C 4202.33 -1.18488 1.54873 0
M  V30 45199 O 4201.6 -1.79842 0.776777 0
M  V30 45200 H 4200.18 0.0774913 0.74297 0
M  V30 45201 H 4202.84 0.889487 1.73419 0
M  V30 45202 H 4201.94 0.230506 3.11248 0
M  V30 45203 N 4202.24 -1.51507 0.433991 0
M  V30 45204 C 4203.49 -2.0166 -0.133329 0
M  V30 45205 C 4203.81 -1.32029 -1.43504 0
M  V30 45206 O 4203.08 -0.453808 -1.90571 0
M  V30 45207 H 4201.66 -0.74517 -0.0522622 0
M  V30 45208 H 4204.32 -1.86196 0.575932 0
M  V30 45209 H 4203.42 -3.1054 -0.311642 0
M  V30 45210 N 4203.72 -0.165233 -1.56731 0
M  V30 45211 C 4204.66 0.767433 -2.17667 0
M  V30 45212 C 4205.63 1.23125 -1.11487 0
M  V30 45213 O 4206.82 1.30052 -1.39611 0
M  V30 45214 C 4203.96 1.9938 -2.81677 0
M  V30 45215 C 4203.07 1.57411 -4.02301 0
M  V30 45216 C 4202.21 2.75367 -4.54254 0
M  V30 45217 C 4201.25 2.29859 -5.67302 0
M  V30 45218 N 4200.38 3.40887 -6.13792 0
M  V30 45219 H 4205.22 0.241008 -2.97024 0
M  V30 45220 H 4202.76 0.107234 -1.46709 0
M  V30 45221 H 4204.72 2.713 -3.16942 0
M  V30 45222 H 4203.35 2.49403 -2.04934 0
M  V30 45223 H 4202.4 0.751874 -3.72895 0
M  V30 45224 H 4203.71 1.20001 -4.8415 0
M  V30 45225 H 4202.87 3.55452 -4.91669 0
M  V30 45226 H 4201.6 3.16033 -3.71449 0
M  V30 45227 H 4200.61 1.48219 -5.29444 0
M  V30 45228 H 4201.83 1.90259 -6.51904 0
M  V30 45229 H 4199.78 3.8114 -5.33918 0
M  V30 45230 H 4199.7 3.07551 -6.90614 0
M  V30 45231 H 4200.97 4.21275 -6.55856 0
M  V30 45232 N 4205.19 1.57226 0.108512 0
M  V30 45233 C 4206.12 2.04137 1.13359 0
M  V30 45234 C 4207.11 0.927758 1.42572 0
M  V30 45235 O 4208.29 1.19816 1.52833 0
M  V30 45236 C 4205.42 2.45453 2.45703 0
M  V30 45237 C 4204.37 3.60355 2.30929 0
M  V30 45238 C 4203.7 3.87604 3.6833 0
M  V30 45239 C 4205 4.91716 1.76103 0
M  V30 45240 H 4206.69 2.90025 0.743359 0
M  V30 45241 H 4204.24 1.39527 0.356132 0
M  V30 45242 H 4206.19 2.76878 3.17674 0
M  V30 45243 H 4204.92 1.56549 2.86636 0
M  V30 45244 H 4203.58 3.29156 1.61406 0
M  V30 45245 H 4203.22 2.95888 4.06767 0
M  V30 45246 H 4202.92 4.64952 3.59295 0
M  V30 45247 H 4204.45 4.21491 4.41789 0
M  V30 45248 H 4205.86 5.21609 2.37901 0
M  V30 45249 H 4204.26 5.73136 1.77862 0
M  V30 45250 H 4205.33 4.79534 0.719386 0
M  V30 45251 N 4206.67 -0.378982 1.52975 0
M  V30 45252 C 4207.9 -1.14397 1.72398 0
M  V30 45253 C 4208.32 -1.83436 0.446848 0
M  V30 45254 O 4207.67 -1.73059 -0.579373 0
M  V30 45255 C 4207.72 -2.18444 2.88035 0
M  V30 45256 O 4207.44 -1.52218 4.10806 0
M  V30 45257 C 4208.95 -3.07593 3.1922 0
M  V30 45258 H 4206.17 -0.342594 0.576949 0
M  V30 45259 H 4208.71 -0.44199 1.99666 0
M  V30 45260 H 4206.86 -2.84262 2.632 0
M  V30 45261 H 4207.28 -2.21434 4.75465 0
M  V30 45262 H 4208.75 -3.76608 4.03572 0
M  V30 45263 H 4209.23 -3.7166 2.3402 0
M  V30 45264 H 4209.84 -2.47409 3.45932 0
M  V30 45265 N 4208.15 -1.44108 -0.638015 0
M  V30 45266 C 4209.1 -1.50444 -1.7503 0
M  V30 45267 C 4210.07 -0.35275 -1.62311 0
M  V30 45268 O 4211.25 -0.562033 -1.82334 0
M  V30 45269 C 4208.39 -1.44803 -3.13251 0
M  V30 45270 C 4207.51 -2.70293 -3.36995 0
M  V30 45271 C 4206.64 -2.56534 -4.65149 0
M  V30 45272 C 4205.68 -3.77221 -4.82049 0
M  V30 45273 N 4204.82 -3.6218 -6.01474 0
M  V30 45274 H 4209.66 -2.45479 -1.6895 0
M  V30 45275 H 4207.19 -1.21838 -0.824258 0
M  V30 45276 H 4209.15 -1.39525 -3.93178 0
M  V30 45277 H 4207.78 -0.533396 -3.18363 0
M  V30 45278 H 4206.83 -2.85787 -2.51057 0
M  V30 45279 H 4208.15 -3.59896 -3.45364 0
M  V30 45280 H 4207.3 -2.4905 -5.53226 0
M  V30 45281 H 4206.04 -1.6448 -4.59127 0
M  V30 45282 H 4205.04 -3.85097 -3.92403 0
M  V30 45283 H 4206.27 -4.70303 -4.8989 0
M  V30 45284 H 4204.21 -2.72872 -5.96554 0
M  V30 45285 H 4204.13 -4.45394 -6.10868 0
M  V30 45286 H 4205.4 -3.58574 -6.9213 0
M  V30 45287 N 4209.63 0.877792 -1.30891 0
M  V30 45288 C 4210.87 1.63262 -1.20306 0
M  V30 45289 C 4211.21 1.9271 0.24008 0
M  V30 45290 O 4210.48 1.55315 1.17079 0
M  V30 45291 C 4210.77 2.96784 -2.03939 0
M  V30 45292 C 4210.62 2.74263 -3.56511 0
M  V30 45293 C 4211.94 3.97795 -1.88275 0
M  V30 45294 H 4209.06 0.592437 -0.438392 0
M  V30 45295 H 4211.7 1.01526 -1.606 0
M  V30 45296 H 4209.85 3.49475 -1.69704 0
M  V30 45297 H 4211.52 2.28305 -4.00842 0
M  V30 45298 H 4209.76 2.08636 -3.80333 0
M  V30 45299 H 4210.43 3.69237 -4.10327 0
M  V30 45300 H 4212.91 3.54287 -2.1822 0
M  V30 45301 H 4211.79 4.89119 -2.49107 0
M  V30 45302 H 4212.05 4.33971 -0.843878 0
M  V30 45303 N 4211.11 1.13725 1.09108 0
M  V30 45304 C 4212.02 0.831076 2.19386 0
M  V30 45305 C 4213.03 -0.185627 1.73007 0
M  V30 45306 O 4214.21 -0.0158816 2.01394 0
M  V30 45307 C 4211.27 0.305097 3.45355 0
M  V30 45308 C 4210.33 1.38346 4.06398 0
M  V30 45309 C 4209.57 0.88248 5.26353 0
M  V30 45310 O 4209.79 -0.278733 5.69719 0
M  V30 45311 O 4208.72 1.65826 5.78606 0
M  V30 45312 H 4212.55 1.75251 2.48034 0
M  V30 45313 H 4210.14 0.914951 1.18106 0
M  V30 45314 H 4212.02 0.0173376 4.21396 0
M  V30 45315 H 4210.69 -0.588706 3.18302 0
M  V30 45316 H 4209.6 1.72458 3.31978 0
M  V30 45317 H 4210.93 2.25152 4.37684 0
M  V30 45318 N 4212.58 -1.27143 0.931254 0
M  V30 45319 C 4213.49 -2.30459 0.438848 0
M  V30 45320 C 4214.51 -1.67184 -0.482246 0
M  V30 45321 O 4215.69 -1.9808 -0.36419 0
M  V30 45322 C 4212.75 -3.45424 -0.297205 0
M  V30 45323 C 4211.81 -4.24208 0.659236 0
M  V30 45324 C 4211.05 -5.33684 -0.0417849 0
M  V30 45325 O 4211.27 -5.56297 -1.26053 0
M  V30 45326 O 4210.2 -5.98574 0.631856 0
M  V30 45327 H 4214.03 -2.74621 1.29679 0
M  V30 45328 H 4211.61 -1.32159 0.696741 0
M  V30 45329 H 4213.5 -4.15338 -0.712226 0
M  V30 45330 H 4212.17 -3.0331 -1.1307 0
M  V30 45331 H 4211.08 -3.56815 1.12401 0
M  V30 45332 H 4212.41 -4.70046 1.46005 0
M  V30 45333 N 4214.06 -0.697157 -1.41342 0
M  V30 45334 C 4215.29 -0.236392 -2.06048 0
M  V30 45335 C 4215.71 1.10632 -1.52126 0
M  V30 45336 O 4215.07 1.6929 -0.648882 0
M  V30 45337 C 4215.12 -0.206248 -3.6001 0
M  V30 45338 O 4214.22 0.818395 -4.04198 0
M  V30 45339 H 4213.56 -0.115102 -0.653948 0
M  V30 45340 H 4216.09 -0.952463 -1.81078 0
M  V30 45341 H 4216.1 -0.0376455 -4.07983 0
M  V30 45342 H 4214.78 -1.18619 -3.98625 0
M  V30 45343 H 4213.36 0.619018 -3.67726 0
M  V30 45344 N 4215.54 1.51274 -0.44202 0
M  V30 45345 C 4216.79 2.01728 0.122633 0
M  V30 45346 C 4217.11 1.32788 1.42802 0
M  V30 45347 O 4216.38 0.463908 1.90328 0
M  V30 45348 H 4214.96 0.745436 0.0483096 0
M  V30 45349 H 4217.62 1.85888 -0.585798 0
M  V30 45350 H 4216.72 3.10701 0.295169 0
M  V30 45351 N 4217.02 0.173543 1.56642 0
M  V30 45352 C 4218.43 -0.342805 1.83526 0
M  V30 45353 C 4218.78 -1.62906 1.09343 0
M  V30 45354 O 4217.91 -2.13597 0.347191 0
M  V30 45355 C 4218.5 -0.628739 3.32915 0
M  V30 45356 C 4217.06 -1.08952 3.60287 0
M  V30 45357 C 4216.21 -0.126572 2.77011 0
M  V30 45358 H 4219.16 0.397763 1.53634 0
M  V30 45359 H 4219.18 -1.48055 3.50514 0
M  V30 45360 H 4218.69 0.307594 3.86879 0
M  V30 45361 H 4216.79 -2.04088 3.11735 0
M  V30 45362 H 4216.91 -0.99714 4.68609 0
M  V30 45363 H 4215.27 -0.624362 2.46929 0
M  V30 45364 H 4216.05 0.803822 3.33757 0
M  V30 45365 N 4218.5 -1.57281 -0.100172 0
M  V30 45366 C 4219.74 -1.85829 -0.804591 0
M  V30 45367 C 4220.07 -0.761344 -1.7898 0
M  V30 45368 O 4219.33 0.245557 -1.94153 0
M  V30 45369 C 4219.63 -3.20944 -1.57258 0
M  V30 45370 C 4219.29 -4.44952 -0.729955 0
M  V30 45371 C 4217.95 -4.7862 -0.497651 0
M  V30 45372 C 4220.31 -5.21001 -0.143854 0
M  V30 45373 C 4217.63 -5.85767 0.3307 0
M  V30 45374 C 4219.99 -6.29023 0.671792 0
M  V30 45375 C 4218.65 -6.61209 0.914235 0
M  V30 45376 H 4217.92 -0.679998 -0.294421 0
M  V30 45377 H 4220.57 -1.91385 -0.0662536 0
M  V30 45378 H 4218.87 -3.11049 -2.38235 0
M  V30 45379 H 4220.57 -3.40259 -2.12191 0
M  V30 45380 H 4217.16 -4.18585 -0.921123 0
M  V30 45381 H 4221.34 -4.95328 -0.310501 0
M  V30 45382 H 4216.6 -6.0912 0.527568 0
M  V30 45383 H 4220.77 -6.87124 1.13283 0
M  V30 45384 H 4218.4 -7.44065 1.55791 0
M  V30 45385 N 4219.98 0.370864 -1.53174 0
M  V30 45386 C 4220.91 1.46013 -1.82215 0
M  V30 45387 C 4221.89 1.56121 -0.675301 0
M  V30 45388 O 4223.07 1.70775 -0.924644 0
M  V30 45389 C 4220.2 2.83415 -2.00732 0
M  V30 45390 C 4219.16 2.88136 -3.16483 0
M  V30 45391 C 4218.48 4.28161 -3.20284 0
M  V30 45392 C 4219.78 2.56135 -4.55183 0
M  V30 45393 H 4221.48 1.2196 -2.73434 0
M  V30 45394 H 4219.02 0.585265 -1.3157 0
M  V30 45395 H 4220.97 3.59639 -2.19631 0
M  V30 45396 H 4219.7 3.08845 -1.06218 0
M  V30 45397 H 4218.36 2.14362 -2.97396 0
M  V30 45398 H 4218.01 4.50659 -2.23418 0
M  V30 45399 H 4217.71 4.32237 -3.98052 0
M  V30 45400 H 4219.23 5.06266 -3.4136 0
M  V30 45401 H 4220.64 3.22074 -4.7428 0
M  V30 45402 H 4219.04 2.71535 -5.35153 0
M  V30 45403 H 4220.11 1.51404 -4.60657 0
M  V30 45404 N 4221.45 1.44444 0.630363 0
M  V30 45405 C 4222.69 1.4879 1.40146 0
M  V30 45406 C 4223.06 0.117632 1.91639 0
M  V30 45407 O 4224.26 0.0357626 2.68776 0
M  V30 45408 C 4222.53 2.51937 2.535 0
M  V30 45409 S 4224.09 2.75336 3.41666 0
M  V30 45410 H 4220.91 0.526252 0.4781 0
M  V30 45411 H 4223.51 1.81373 0.729671 0
M  V30 45412 H 4222.21 3.50199 2.13983 0
M  V30 45413 H 4221.74 2.20929 3.25506 0
M  V30 45414 H 4223.76 2.06989 4.50966 0
M  V30 45415 N 4222.93 -0.870838 1.31355 0
M  V30 45416 C 4224.35 -1.15644 1.09994 0
M  V30 45417 C 4224.55 -2.01079 -0.130156 0
M  V30 45418 O 4223.6 -2.38823 -0.819734 0
M  V30 45419 C 4224.92 -1.84942 2.37101 0
M  V30 45420 C 4226.46 -1.97647 2.42703 0
M  V30 45421 C 4226.94 -2.70359 3.69689 0
M  V30 45422 N 4228.43 -2.77896 3.70578 0
M  V30 45423 C 4229.17 -3.34767 4.65531 0
M  V30 45424 N 4228.66 -3.92576 5.70838 0
M  V30 45425 N 4230.45 -3.32716 4.53052 0
M  V30 45426 H 4222.61 -0.30151 2.10249 0
M  V30 45427 H 4224.87 -0.196169 0.927481 0
M  V30 45428 H 4224.57 -1.29615 3.26945 0
M  V30 45429 H 4224.45 -2.85226 2.46832 0
M  V30 45430 H 4226.84 -2.5214 1.53329 0
M  V30 45431 H 4226.92 -0.964081 2.36937 0
M  V30 45432 H 4226.56 -2.16535 4.59429 0
M  V30 45433 H 4226.49 -3.72004 3.72721 0
M  V30 45434 H 4228.98 -2.36866 2.94453 0
M  V30 45435 H 4229.29 -4.34079 6.39371 0
M  V30 45436 H 4227.64 -3.90954 5.74613 0
M  V30 45437 H 4230.83 -2.86791 3.69957 0
M  V30 45438 H 4231 -3.7674 5.27229 0
M  V30 45439 N 4224.41 -1.14302 -1.08503 0
M  V30 45440 C 4225.36 -0.82465 -2.17491 0
M  V30 45441 C 4226.35 0.197044 -1.6825 0
M  V30 45442 O 4227.56 0.0532406 -1.79921 0
M  V30 45443 H 4223.93 -0.248951 -0.709597 0
M  V30 45444 H 4225.9 -1.75178 -2.41569 0
M  V30 45445 C 4224.65 -0.317416 -3.46248 0
M  V30 45446 H 4223.98 -1.09494 -3.84514 0
M  V30 45447 H 4225.42 -0.133189 -4.23791 0
M  V30 45448 C 4223.87 0.958796 -3.22969 0
M  V30 45449 O 4224.4 2.03275 -3.46471 0
M  V30 45450 N 4222.61 0.893644 -2.76518 0
M  V30 45451 H 4222.16 0.0195321 -2.57593 0
M  V30 45452 H 4222.12 1.74811 -2.61321 0
M  V30 45453 N 4225.89 1.26648 -0.937984 0
M  V30 45454 C 4227.3 1.46215 -0.6398 0
M  V30 45455 C 4227.5 1.84596 0.807863 0
M  V30 45456 O 4226.56 1.96571 1.58481 0
M  V30 45457 C 4227.87 2.54694 -1.59848 0
M  V30 45458 C 4229.42 2.68547 -1.60783 0
M  V30 45459 C 4229.9 3.80195 -2.55374 0
M  V30 45460 N 4231.39 3.87583 -2.53641 0
M  V30 45461 C 4232.12 4.73418 -3.23517 0
M  V30 45462 N 4231.62 5.63664 -4.02808 0
M  V30 45463 N 4233.41 4.67236 -3.12485 0
M  V30 45464 H 4225.56 1.00021 -1.87375 0
M  V30 45465 H 4227.82 0.500607 -0.805044 0
M  V30 45466 H 4227.53 2.3331 -2.63172 0
M  V30 45467 H 4227.4 3.52288 -1.34808 0
M  V30 45468 H 4229.79 2.89307 -0.581859 0
M  V30 45469 H 4229.87 1.71408 -1.89876 0
M  V30 45470 H 4229.52 3.60188 -3.58088 0
M  V30 45471 H 4229.45 4.76784 -2.23572 0
M  V30 45472 H 4231.94 3.2306 -1.96063 0
M  V30 45473 H 4232.25 6.26045 -4.53086 0
M  V30 45474 H 4230.6 5.63427 -4.0691 0
M  V30 45475 H 4233.79 3.95734 -2.50025 0
M  V30 45476 H 4233.96 5.33911 -3.6721 0
M  V30 45477 N 4227.37 0.704643 1.4097 0
M  V30 45478 C 4228.78 0.313159 1.84055 0
M  V30 45479 C 4229.13 -1.1503 1.58942 0
M  V30 45480 O 4228.25 -1.88403 1.06458 0
M  V30 45481 C 4228.85 0.5616 3.34113 0
M  V30 45482 C 4227.41 0.223939 3.75733 0
M  V30 45483 C 4226.55 0.839403 2.6429 0
M  V30 45484 H 4229.5 0.904622 1.30393 0
M  V30 45485 H 4229.53 -0.176754 3.80089 0
M  V30 45486 H 4229.04 1.6268 3.52359 0
M  V30 45487 H 4227.14 -0.836632 3.63086 0
M  V30 45488 H 4227.25 0.685295 4.74174 0
M  V30 45489 H 4225.62 0.268287 2.53283 0
M  V30 45490 H 4226.4 1.90865 2.85352 0
M  V30 45491 N 4228.84 -1.51038 0.450036 0
M  V30 45492 C 4230.09 -2.0179 -0.111933 0
M  V30 45493 C 4230.41 -1.33544 -1.42095 0
M  V30 45494 O 4229.68 -0.473995 -1.90079 0
M  V30 45495 H 4228.26 -0.745682 -0.0443557 0
M  V30 45496 H 4230.93 -1.85575 0.595648 0
M  V30 45497 H 4230.02 -3.10853 -0.278688 0
M  V30 45498 N 4230.32 -0.181847 -1.56547 0
M  V30 45499 C 4231.74 0.174186 -1.58647 0
M  V30 45500 C 4231.94 1.6205 -1.19759 0
M  V30 45501 O 4230.99 2.35373 -0.914113 0
M  V30 45502 C 4232.31 -0.11617 -3.00476 0
M  V30 45503 C 4233.86 -0.0552194 -3.12951 0
M  V30 45504 C 4234.33 -0.318707 -4.5689 0
M  V30 45505 N 4235.82 -0.266854 -4.62431 0
M  V30 45506 C 4236.56 -0.444757 -5.71673 0
M  V30 45507 N 4236.05 -0.68229 -6.89432 0
M  V30 45508 N 4237.85 -0.379931 -5.60815 0
M  V30 45509 H 4230 -1.1258 -1.8011 0
M  V30 45510 H 4232.26 -0.448362 -0.83527 0
M  V30 45511 H 4231.97 -1.11848 -3.33441 0
M  V30 45512 H 4231.84 0.587379 -3.72599 0
M  V30 45513 H 4234.23 0.937685 -2.79806 0
M  V30 45514 H 4234.31 -0.791642 -2.43242 0
M  V30 45515 H 4233.95 -1.30887 -4.90745 0
M  V30 45516 H 4233.88 0.43845 -5.24772 0
M  V30 45517 H 4236.37 -0.0893381 -3.77794 0
M  V30 45518 H 4236.69 -0.807205 -7.68573 0
M  V30 45519 H 4235.03 -0.719029 -6.91271 0
M  V30 45520 H 4238.22 -0.194874 -4.67694 0
M  V30 45521 H 4238.39 -0.522 -6.45894 0
M  V30 45522 N 4231.8 1.57332 0.09183 0
M  V30 45523 C 4233.05 1.85886 0.793154 0
M  V30 45524 C 4233.37 0.771016 1.7911 0
M  V30 45525 O 4232.64 -0.202403 1.94852 0
M  V30 45526 H 4231.22 0.68589 0.295911 0
M  V30 45527 H 4233.88 1.94764 0.0726824 0
M  V30 45528 H 4232.98 2.82731 1.32173 0
M  V30 45529 N 4233.28 -0.362736 1.53369 0
M  V30 45530 C 4234.69 -0.939388 1.61346 0
M  V30 45531 C 4235.04 -1.90171 0.482653 0
M  V30 45532 O 4234.17 -2.12847 -0.390503 0
M  V30 45533 C 4234.76 -1.71054 2.92448 0
M  V30 45534 C 4233.32 -2.23649 3.02751 0
M  V30 45535 C 4232.47 -1.04976 2.56662 0
M  V30 45536 H 4235.42 -0.141443 1.58068 0
M  V30 45537 H 4235.44 -2.57197 2.80411 0
M  V30 45538 H 4234.95 -1.00989 3.7473 0
M  V30 45539 H 4233.05 -2.96947 2.25063 0
M  V30 45540 H 4233.16 -2.51336 4.07881 0
M  V30 45541 H 4231.53 -1.41757 2.11606 0
M  V30 45542 H 4232.31 -0.364051 3.41364 0
M  V30 45543 N 4234.76 -1.44777 -0.622694 0
M  V30 45544 C 4236 -1.48222 -1.38413 0
M  V30 45545 C 4236.34 -0.117629 -1.93843 0
M  V30 45546 O 4235.61 0.865904 -1.74162 0
M  V30 45547 C 4235.89 -2.54937 -2.54321 0
M  V30 45548 C 4235.75 -4.00785 -2.04185 0
M  V30 45549 C 4237.07 -2.58075 -3.5649 0
M  V30 45550 H 4234.18 -0.539662 -0.50193 0
M  V30 45551 H 4236.83 -1.76503 -0.703316 0
M  V30 45552 H 4234.98 -2.30952 -3.12399 0
M  V30 45553 H 4236.65 -4.35931 -1.50872 0
M  V30 45554 H 4234.89 -4.1216 -1.35301 0
M  V30 45555 H 4235.56 -4.71116 -2.8767 0
M  V30 45556 H 4238.04 -2.79527 -3.08227 0
M  V30 45557 H 4236.91 -3.34632 -4.35101 0
M  V30 45558 H 4237.18 -1.6259 -4.11116 0
M  V30 45559 N 4236.23 0.863859 -1.31815 0
M  V30 45560 C 4237.18 1.99304 -1.1992 0
M  V30 45561 C 4238.18 1.69068 -0.106084 0
M  V30 45562 O 4239.38 1.77988 -0.268392 0
M  V30 45563 H 4235.76 0.653843 -0.371475 0
M  V30 45564 H 4237.73 2.06466 -2.1544 0
M  V30 45565 C 4236.48 3.35041 -0.929652 0
M  V30 45566 H 4235.8 3.58832 -1.76295 0
M  V30 45567 H 4237.24 4.14626 -0.886625 0
M  V30 45568 C 4235.7 3.34888 0.367618 0
M  V30 45569 O 4236.23 3.77162 1.38246 0
M  V30 45570 N 4234.44 2.88021 0.386326 0
M  V30 45571 H 4233.98 2.53814 -0.440039 0
M  V30 45572 H 4233.94 2.88301 1.2542 0
M  V30 45573 N 4237.71 1.14875 1.07895 0
M  V30 45574 C 4238.94 0.94251 1.83849 0
M  V30 45575 C 4239.35 -0.512454 1.82128 0
M  V30 45576 O 4238.69 -1.36703 1.22711 0
M  V30 45577 C 4238.76 1.3725 3.32269 0
M  V30 45578 C 4238.42 2.84407 3.57718 0
M  V30 45579 C 4239.42 3.82498 3.52124 0
M  V30 45580 C 4237.1 3.21944 3.85561 0
M  V30 45581 C 4239.1 5.16133 3.74013 0
M  V30 45582 C 4236.78 4.55753 4.07103 0
M  V30 45583 C 4237.78 5.52656 4.01323 0
M  V30 45584 O 4237.47 6.84049 4.22294 0
M  V30 45585 H 4237.2 0.33514 0.587075 0
M  V30 45586 H 4239.75 1.52911 1.3714 0
M  V30 45587 H 4237.98 0.729257 3.79761 0
M  V30 45588 H 4239.67 1.13623 3.89672 0
M  V30 45589 H 4240.44 3.54844 3.30622 0
M  V30 45590 H 4236.32 2.47107 3.89177 0
M  V30 45591 H 4239.86 5.91757 3.69417 0
M  V30 45592 H 4235.76 4.83124 4.2809 0
M  V30 45593 H 4236.53 6.90385 4.39672 0
M  V30 45594 N 4239.19 -1.26148 0.944687 0
M  V30 45595 C 4240.61 -1.45873 0.647545 0
M  V30 45596 C 4240.81 -1.85022 -0.798063 0
M  V30 45597 O 4239.86 -1.97409 -1.57436 0
M  V30 45598 C 4241.18 -2.53843 1.61197 0
M  V30 45599 C 4242.72 -2.67691 1.62205 0
M  V30 45600 C 4243.2 -3.78835 2.57387 0
M  V30 45601 N 4244.69 -3.86232 2.55693 0
M  V30 45602 C 4245.42 -4.71695 3.26023 0
M  V30 45603 N 4244.92 -5.6152 4.05792 0
M  V30 45604 N 4246.71 -4.65572 3.14958 0
M  V30 45605 H 4238.86 -0.990263 1.87903 0
M  V30 45606 H 4241.13 -0.496331 0.807688 0
M  V30 45607 H 4240.83 -2.31911 2.64406 0
M  V30 45608 H 4240.71 -3.51568 1.36675 0
M  V30 45609 H 4243.09 -2.88994 0.597193 0
M  V30 45610 H 4243.18 -1.70398 1.90783 0
M  V30 45611 H 4242.82 -3.58284 3.59993 0
M  V30 45612 H 4242.75 -4.75592 2.26098 0
M  V30 45613 H 4245.24 -3.22015 1.97774 0
M  V30 45614 H 4245.55 -6.23634 4.564 0
M  V30 45615 H 4243.9 -5.61261 4.09892 0
M  V30 45616 H 4247.09 -3.94402 2.5212 0
M  V30 45617 H 4247.26 -5.31956 3.70037 0
M  V30 45618 N 4240.67 -0.712109 -1.40594 0
M  V30 45619 C 4241.91 -0.250493 -2.01247 0
M  V30 45620 C 4242.25 1.15221 -1.56326 0
M  V30 45621 O 4241.52 1.78097 -0.781765 0
M  V30 45622 C 4241.81 -0.326642 -3.58615 0
M  V30 45623 C 4241.66 -1.76747 -4.13619 0
M  V30 45624 C 4242.98 0.304159 -4.39048 0
M  V30 45625 H 4240.1 -0.0924947 -0.731173 0
M  V30 45626 H 4242.74 -0.903953 -1.67119 0
M  V30 45627 H 4240.89 0.229728 -3.8782 0
M  V30 45628 H 4242.56 -2.37896 -3.95225 0
M  V30 45629 H 4240.8 -2.29632 -3.68038 0
M  V30 45630 H 4241.47 -1.77217 -5.22779 0
M  V30 45631 H 4243.95 -0.169861 -4.15753 0
M  V30 45632 H 4242.83 0.220415 -5.48457 0
M  V30 45633 H 4243.09 1.3872 -4.19773 0
M  V30 45634 N 4242.15 1.50797 -0.45804 0
M  V30 45635 C 4243.37 2.06661 0.0995016 0
M  V30 45636 C 4243.79 1.32334 1.3466 0
M  V30 45637 O 4243.15 0.388799 1.7831 0
M  V30 45638 C 4243.2 3.59271 0.400837 0
M  V30 45639 O 4242.92 4.30793 -0.796781 0
M  V30 45640 C 4244.42 4.31716 1.00678 0
M  V30 45641 H 4241.64 0.670999 -0.00126807 0
M  V30 45642 H 4244.18 1.94126 -0.643075 0
M  V30 45643 H 4242.34 3.71652 1.09333 0
M  V30 45644 H 4242.75 5.2178 -0.533488 0
M  V30 45645 H 4244.23 5.39513 1.16748 0
M  V30 45646 H 4244.7 3.91356 1.99342 0
M  V30 45647 H 4245.31 4.23832 0.353061 0
M  V30 45648 N 4243.63 0.190147 1.56449 0
M  V30 45649 C 4244.57 -0.732707 2.18861 0
M  V30 45650 C 4245.54 -1.21336 1.13432 0
M  V30 45651 O 4246.73 -1.27814 1.41662 0
M  V30 45652 C 4243.87 -1.94873 2.84813 0
M  V30 45653 C 4242.98 -1.50991 4.04754 0
M  V30 45654 C 4242.12 -2.68106 4.58577 0
M  V30 45655 C 4241.15 -2.20805 5.70887 0
M  V30 45656 N 4240.29 -3.31079 6.19137 0
M  V30 45657 H 4245.13 -0.193724 2.9737 0
M  V30 45658 H 4242.67 -0.0838807 1.46861 0
M  V30 45659 H 4244.63 -2.66224 3.21218 0
M  V30 45660 H 4243.26 -2.46111 2.08876 0
M  V30 45661 H 4242.31 -0.692454 3.74044 0
M  V30 45662 H 4243.62 -1.12284 4.85998 0
M  V30 45663 H 4242.77 -3.47585 4.97262 0
M  V30 45664 H 4241.51 -3.10083 3.7643 0
M  V30 45665 H 4240.52 -1.39777 5.31735 0
M  V30 45666 H 4241.74 -1.79863 6.54848 0
M  V30 45667 H 4239.69 -3.72597 5.39914 0
M  V30 45668 H 4239.61 -2.96525 6.9542 0
M  V30 45669 H 4240.87 -4.10788 6.62475 0
M  V30 45670 N 4245.1 -1.57379 -0.083485 0
M  V30 45671 C 4246.33 -1.90612 -0.796916 0
M  V30 45672 C 4246.74 -0.78321 -1.72228 0
M  V30 45673 O 4246.08 0.253068 -1.81948 0
M  V30 45674 C 4246.15 -3.19206 -1.65371 0
M  V30 45675 C 4245.81 -4.48071 -0.898948 0
M  V30 45676 C 4246.81 -5.19419 -0.223475 0
M  V30 45677 C 4244.49 -4.94716 -0.869586 0
M  V30 45678 C 4246.49 -6.35655 0.471261 0
M  V30 45679 C 4244.17 -6.10861 -0.171071 0
M  V30 45680 C 4245.17 -6.81181 0.498164 0
M  V30 45681 O 4244.86 -7.95111 1.18545 0
M  V30 45682 H 4244.59 -0.634784 -0.232432 0
M  V30 45683 H 4247.15 -2.05308 -0.0616057 0
M  V30 45684 H 4245.38 -3.00688 -2.43154 0
M  V30 45685 H 4247.06 -3.3818 -2.24475 0
M  V30 45686 H 4247.83 -4.84418 -0.237543 0
M  V30 45687 H 4243.71 -4.39862 -1.37994 0
M  V30 45688 H 4247.25 -6.90479 0.994189 0
M  V30 45689 H 4243.15 -6.45314 -0.154889 0
M  V30 45690 H 4243.92 -8.11162 1.09353 0
M  V30 45691 N 4246.58 0.354597 -1.53559 0
M  V30 45692 C 4247.81 1.11478 -1.73943 0
M  V30 45693 C 4248.22 1.83184 -0.47332 0
M  V30 45694 O 4247.56 1.74823 0.564144 0
M  V30 45695 C 4247.62 2.1812 -2.85769 0
M  V30 45696 C 4247.29 1.66085 -4.25752 0
M  V30 45697 C 4248.29 1.11905 -5.07714 0
M  V30 45698 C 4245.97 1.71266 -4.72201 0
M  V30 45699 C 4247.96 0.635965 -6.34219 0
M  V30 45700 C 4245.65 1.22569 -5.98682 0
M  V30 45701 C 4246.65 0.688258 -6.79523 0
M  V30 45702 O 4246.34 0.208518 -8.0363 0
M  V30 45703 H 4246.07 0.338786 -0.584979 0
M  V30 45704 H 4248.62 0.415997 -2.01143 0
M  V30 45705 H 4246.85 2.91524 -2.54069 0
M  V30 45706 H 4248.54 2.79616 -2.94227 0
M  V30 45707 H 4249.31 1.07233 -4.72997 0
M  V30 45708 H 4245.19 2.12038 -4.09342 0
M  V30 45709 H 4248.73 0.215811 -6.97266 0
M  V30 45710 H 4244.63 1.26938 -6.32896 0
M  V30 45711 H 4245.4 0.326832 -8.17847 0
M  V30 45712 N 4248.06 1.45105 0.615008 0
M  V30 45713 C 4249.34 1.39208 1.37406 0
M  V30 45714 C 4249.72 0.0589134 2.11018 0
M  V30 45715 O 4249.06 -0.95896 2.07403 0
M  V30 45716 C 4249.27 2.60093 2.32708 0
M  V30 45717 C 4250.62 3.04859 2.95544 0
M  V30 45718 O 4251.65 2.60413 2.4303 0
M  V30 45719 O 4250.51 3.8197 3.90847 0
M  V30 45720 H 4247.6 0.552063 0.615756 0
M  V30 45721 H 4250.15 1.57221 0.638715 0
M  V30 45722 H 4248.92 3.48714 1.77523 0
M  V30 45723 H 4248.54 2.44375 3.13634 0
M  V30 45724 N 4249.54 -0.856857 1.32271 0
M  V30 45725 C 4250.81 -1.59425 1.13327 0
M  V30 45726 C 4251.19 -2.08853 -0.30718 0
M  V30 45727 O 4250.54 -1.87677 -1.30344 0
M  V30 45728 C 4250.75 -2.7421 2.15894 0
M  V30 45729 C 4252.1 -3.43845 2.49109 0
M  V30 45730 O 4253.12 -2.84432 2.14422 0
M  V30 45731 O 4251.98 -4.51056 3.08563 0
M  V30 45732 H 4249.08 -0.702009 0.437164 0
M  V30 45733 H 4251.62 -0.901176 1.43795 0
M  V30 45734 H 4250.4 -2.35195 3.12728 0
M  V30 45735 H 4250.02 -3.51195 1.86408 0
M  V30 45736 N 4251.02 -1.15446 -1.07285 0
M  V30 45737 C 4251.96 -0.847672 -2.16604 0
M  V30 45738 C 4252.96 0.179187 -1.6845 0
M  V30 45739 O 4254.16 0.0341546 -1.79968 0
M  V30 45740 H 4250.54 -0.256463 -0.706916 0
M  V30 45741 H 4252.51 -1.7773 -2.39697 0
M  V30 45742 C 4251.26 -0.354123 -3.45892 0
M  V30 45743 H 4250.58 -1.13567 -3.83331 0
M  V30 45744 H 4252.02 -0.17813 -4.23626 0
M  V30 45745 C 4250.48 0.924487 -3.23967 0
M  V30 45746 O 4251.01 1.99588 -3.48608 0
M  V30 45747 N 4249.22 0.864266 -2.77451 0
M  V30 45748 H 4248.76 -0.00779009 -2.57599 0
M  V30 45749 H 4248.72 1.72029 -2.6316 0
M  V30 45750 N 4252.49 1.25646 -0.951364 0
M  V30 45751 C 4253.42 2.28366 -0.486938 0
M  V30 45752 C 4254.4 1.6362 0.465043 0
M  V30 45753 O 4255.59 1.90745 0.364703 0
M  V30 45754 C 4252.72 3.46476 0.239168 0
M  V30 45755 C 4251.67 4.23379 -0.627237 0
M  V30 45756 C 4251 5.34208 0.22942 0
M  V30 45757 C 4252.3 4.8637 -1.90371 0
M  V30 45758 H 4253.99 2.67465 -1.34547 0
M  V30 45759 H 4251.54 1.28576 -0.648405 0
M  V30 45760 H 4253.49 4.17456 0.575178 0
M  V30 45761 H 4252.22 3.06358 1.13192 0
M  V30 45762 H 4250.88 3.54177 -0.946285 0
M  V30 45763 H 4250.52 4.9033 1.12183 0
M  V30 45764 H 4250.22 5.86575 -0.346955 0
M  V30 45765 H 4251.75 6.08022 0.560471 0
M  V30 45766 H 4253.16 5.49512 -1.63431 0
M  V30 45767 H 4251.56 5.489 -2.42547 0
M  V30 45768 H 4252.63 4.08739 -2.60883 0
M  V30 45769 N 4253.97 0.719555 1.40215 0
M  V30 45770 C 4255.39 0.393522 1.54672 0
M  V30 45771 C 4255.59 -1.09729 1.69003 0
M  V30 45772 O 4254.64 -1.88336 1.68184 0
M  V30 45773 C 4255.96 1.16305 2.77297 0
M  V30 45774 C 4257.5 1.14974 2.91118 0
M  V30 45775 C 4257.98 1.90151 4.16661 0
M  V30 45776 N 4259.47 1.87239 4.23669 0
M  V30 45777 C 4260.21 2.42228 5.19724 0
M  V30 45778 N 4259.7 3.05789 6.21663 0
M  V30 45779 N 4261.49 2.32347 5.11831 0
M  V30 45780 H 4253.65 1.68617 1.2916 0
M  V30 45781 H 4255.91 0.712925 0.624854 0
M  V30 45782 H 4255.61 2.2173 2.72999 0
M  V30 45783 H 4255.49 0.757278 3.6952 0
M  V30 45784 H 4257.88 0.103667 2.94918 0
M  V30 45785 H 4257.96 1.59476 2.00002 0
M  V30 45786 H 4257.6 2.94751 4.13623 0
M  V30 45787 H 4257.53 1.43066 5.06794 0
M  V30 45788 H 4260.02 1.4092 3.50642 0
M  V30 45789 H 4260.33 3.45254 6.9139 0
M  V30 45790 H 4258.68 3.09874 6.22096 0
M  V30 45791 H 4261.87 1.82346 4.31124 0
M  V30 45792 H 4262.04 2.75503 5.86517 0
M  V30 45793 N 4255.45 -1.50552 0.466031 0
M  V30 45794 C 4256.36 -2.32178 -0.336209 0
M  V30 45795 C 4257.38 -1.42338 -1.00079 0
M  V30 45796 O 4258.55 -1.75395 -0.989873 0
M  V30 45797 C 4255.62 -3.16877 -1.40676 0
M  V30 45798 C 4254.68 -4.22532 -0.759309 0
M  V30 45799 C 4253.91 -5.03183 -1.77885 0
M  V30 45800 O 4254.13 -4.84841 -3.00475 0
M  V30 45801 O 4253.07 -5.86485 -1.35348 0
M  V30 45802 H 4256.89 -3.01891 0.330961 0
M  V30 45803 H 4254.48 -1.4765 0.227976 0
M  V30 45804 H 4256.36 -3.69448 -2.02698 0
M  V30 45805 H 4255.04 -2.49898 -2.05749 0
M  V30 45806 H 4253.94 -3.73966 -0.100273 0
M  V30 45807 H 4255.28 -4.91966 -0.151608 0
M  V30 45808 N 4256.93 -0.198441 -1.56346 0
M  V30 45809 C 4258.18 0.439678 -1.96849 0
M  V30 45810 C 4258.49 1.62527 -1.08832 0
M  V30 45811 O 4259.7 2.3314 -1.39133 0
M  V30 45812 C 4258.15 0.833628 -3.50112 0
M  V30 45813 C 4257.76 -0.327864 -4.46799 0
M  V30 45814 C 4259.5 1.43864 -3.99379 0
M  V30 45815 C 4257.41 0.0872318 -5.91336 0
M  V30 45816 H 4256.34 0.168039 -0.735037 0
M  V30 45817 H 4258.99 -0.290989 -1.81178 0
M  V30 45818 H 4257.37 1.62106 -3.613 0
M  V30 45819 H 4258.55 -1.1054 -4.47345 0
M  V30 45820 H 4256.86 -0.844593 -4.07745 0
M  V30 45821 H 4259.46 1.76172 -5.04844 0
M  V30 45822 H 4259.8 2.34631 -3.43881 0
M  V30 45823 H 4260.34 0.715117 -3.91319 0
M  V30 45824 H 4257.07 -0.786337 -6.50766 0
M  V30 45825 H 4256.59 0.829558 -5.94036 0
M  V30 45826 H 4258.27 0.521889 -6.44892 0
M  V30 45827 N 4258.41 1.57421 0.0751377 0
M  V30 45828 C 4259.35 2.03458 1.08965 0
M  V30 45829 C 4260.32 0.914573 1.38653 0
M  V30 45830 O 4261.51 1.182 1.49778 0
M  V30 45831 C 4258.65 2.48064 2.39913 0
M  V30 45832 C 4257.76 3.7367 2.16783 0
M  V30 45833 C 4256.9 4.07072 3.41271 0
M  V30 45834 C 4255.94 5.25728 3.13491 0
M  V30 45835 N 4255.07 5.54785 4.303 0
M  V30 45836 H 4259.91 2.899 0.690087 0
M  V30 45837 H 4257.45 1.43369 0.329185 0
M  V30 45838 H 4259.41 2.71977 3.16361 0
M  V30 45839 H 4258.04 1.64605 2.77678 0
M  V30 45840 H 4257.09 3.57116 1.31044 0
M  V30 45841 H 4258.4 4.60257 1.92262 0
M  V30 45842 H 4257.56 4.31868 4.26116 0
M  V30 45843 H 4256.29 3.19045 3.68865 0
M  V30 45844 H 4255.3 5.00732 2.27042 0
M  V30 45845 H 4256.52 6.1537 2.87223 0
M  V30 45846 H 4254.47 4.69717 4.57932 0
M  V30 45847 H 4254.39 6.35785 4.0904 0
M  V30 45848 H 4255.66 5.8413 5.16152 0
M  V30 45849 N 4259.88 -0.346449 1.53745 0
M  V30 45850 C 4261.3 -0.922223 1.62333 0
M  V30 45851 C 4261.65 -1.89648 0.502796 0
M  V30 45852 O 4260.77 -2.1325 -0.367905 0
M  V30 45853 C 4261.37 -1.67942 2.94246 0
M  V30 45854 C 4259.93 -2.20425 3.05106 0
M  V30 45855 C 4259.07 -1.02248 2.57761 0
M  V30 45856 H 4262.02 -0.12467 1.5821 0
M  V30 45857 H 4262.04 -2.54208 2.83123 0
M  V30 45858 H 4261.56 -0.970091 3.7578 0
M  V30 45859 H 4259.66 -2.94543 2.282 0
M  V30 45860 H 4259.77 -2.46995 4.10524 0
M  V30 45861 H 4258.13 -1.39505 2.13098 0
M  V30 45862 H 4258.92 -0.327825 3.41731 0
M  V30 45863 N 4261.36 -1.45429 -0.607304 0
M  V30 45864 C 4262.61 -1.49682 -1.36833 0
M  V30 45865 C 4262.94 -0.138182 -1.93708 0
M  V30 45866 O 4262.22 0.847383 -1.7507 0
M  V30 45867 C 4262.5 -2.5762 -2.51603 0
M  V30 45868 C 4262.35 -4.02928 -1.99922 0
M  V30 45869 C 4263.67 -2.61841 -3.53733 0
M  V30 45870 H 4260.79 -0.544956 -0.496178 0
M  V30 45871 H 4263.43 -1.77239 -0.684556 0
M  V30 45872 H 4261.58 -2.34253 -3.09932 0
M  V30 45873 H 4263.25 -4.37506 -1.4624 0
M  V30 45874 H 4261.5 -4.13572 -1.30921 0
M  V30 45875 H 4262.17 -4.7414 -2.82657 0
M  V30 45876 H 4264.64 -2.82781 -3.05245 0
M  V30 45877 H 4263.52 -3.39228 -4.31527 0
M  V30 45878 H 4263.78 -1.66942 -4.09369 0
M  V30 45879 N 4262.84 0.84983 -1.32724 0
M  V30 45880 C 4263.8 1.94036 -1.21995 0
M  V30 45881 C 4264.8 1.60174 -0.141756 0
M  V30 45882 O 4265.99 1.6972 -0.392507 0
M  V30 45883 C 4263.13 3.29419 -0.877281 0
M  V30 45884 H 4264.32 2.04977 -2.18917 0
M  V30 45885 H 4261.87 1.0406 -1.16624 0
M  V30 45886 H 4262.61 3.24175 0.0899135 0
M  V30 45887 H 4262.39 3.55373 -1.65687 0
M  V30 45888 H 4263.88 4.09336 -0.826659 0
M  V30 45889 N 4264.32 1.16013 1.06671 0
M  V30 45890 C 4265.27 0.863211 2.1405 0
M  V30 45891 C 4266.24 -0.186753 1.65047 0
M  V30 45892 O 4267.42 -0.0527926 1.90727 0
M  V30 45893 C 4264.56 0.366245 3.43151 0
M  V30 45894 C 4263.67 1.47859 4.05909 0
M  V30 45895 C 4262.81 0.937034 5.2287 0
M  V30 45896 C 4261.85 2.02584 5.77604 0
M  V30 45897 N 4260.98 1.50016 6.85886 0
M  V30 45898 H 4265.82 1.78281 2.38788 0
M  V30 45899 H 4263.36 0.889441 1.17164 0
M  V30 45900 H 4265.32 0.0597718 4.17157 0
M  V30 45901 H 4263.95 -0.516423 3.18642 0
M  V30 45902 H 4263 1.90111 3.29488 0
M  V30 45903 H 4264.31 2.30038 4.42588 0
M  V30 45904 H 4263.47 0.583515 6.03887 0
M  V30 45905 H 4262.21 0.0845014 4.87627 0
M  V30 45906 H 4261.21 2.38811 4.95227 0
M  V30 45907 H 4262.44 2.88227 6.149 0
M  V30 45908 H 4260.38 0.670097 6.52569 0
M  V30 45909 H 4260.3 2.25815 7.21487 0
M  V30 45910 H 4261.57 1.1751 7.70592 0
M  V30 45911 N 4265.8 -1.25139 0.958014 0
M  V30 45912 C 4266.73 -2.28105 0.499042 0
M  V30 45913 C 4267.71 -1.63864 -0.456359 0
M  V30 45914 O 4268.89 -1.90935 -0.354583 0
M  V30 45915 C 4266.02 -3.46597 -0.22079 0
M  V30 45916 C 4264.98 -4.2304 0.649681 0
M  V30 45917 C 4264.3 -5.34322 -0.201087 0
M  V30 45918 C 4265.6 -4.85354 1.92948 0
M  V30 45919 H 4267.3 -2.66748 1.35963 0
M  V30 45920 H 4264.84 -1.2823 0.655215 0
M  V30 45921 H 4266.8 -4.17755 -0.553031 0
M  V30 45922 H 4265.52 -3.06954 -1.11566 0
M  V30 45923 H 4264.18 -3.5367 0.965054 0
M  V30 45924 H 4263.83 -4.90918 -1.09581 0
M  V30 45925 H 4263.53 -5.86383 0.378057 0
M  V30 45926 H 4265.05 -6.08311 -0.528218 0
M  V30 45927 H 4266.46 -5.48637 1.66343 0
M  V30 45928 H 4264.86 -5.47606 2.45455 0
M  V30 45929 H 4265.93 -4.0735 2.63047 0
M  V30 45930 N 4267.27 -0.726981 -1.39831 0
M  V30 45931 C 4268.18 -0.0831249 -2.34453 0
M  V30 45932 C 4269.2 0.730981 -1.57901 0
M  V30 45933 O 4270.38 0.661304 -1.90233 0
M  V30 45934 C 4267.44 0.819265 -3.36881 0
M  V30 45935 C 4266.5 -0.00618205 -4.293 0
M  V30 45936 C 4265.74 0.853232 -5.26836 0
M  V30 45937 O 4265.96 2.09219 -5.30644 0
M  V30 45938 O 4264.89 0.286156 -6.01219 0
M  V30 45939 H 4268.72 -0.863896 -2.91154 0
M  V30 45940 H 4266.3 -0.487568 -1.4122 0
M  V30 45941 H 4268.19 1.33582 -3.99667 0
M  V30 45942 H 4266.86 1.57899 -2.82577 0
M  V30 45943 H 4265.77 -0.568072 -3.69762 0
M  V30 45944 H 4267.1 -0.727942 -4.86787 0
M  V30 45945 N 4268.75 1.50303 -0.474008 0
M  V30 45946 C 4270 2.01942 0.0798161 0
M  V30 45947 C 4270.32 1.35787 1.39953 0
M  V30 45948 O 4269.59 0.504175 1.89301 0
M  V30 45949 H 4268.17 0.746293 0.032487 0
M  V30 45950 H 4270.83 1.84604 -0.625096 0
M  V30 45951 H 4269.93 3.11257 0.229198 0
M  V30 45952 N 4270.23 0.20673 1.56238 0
M  V30 45953 C 4271.16 -0.741508 2.16874 0
M  V30 45954 C 4272.18 -1.16836 1.13372 0
M  V30 45955 O 4273.36 -1.10208 1.40415 0
M  V30 45956 C 4270.46 -2.01423 2.72548 0
M  V30 45957 C 4269.64 -1.74531 4.01071 0
M  V30 45958 C 4268.7 -2.86363 4.41455 0
M  V30 45959 O 4267.72 -2.5547 5.08649 0
M  V30 45960 N 4268.92 -4.14986 4.05915 0
M  V30 45961 H 4271.69 -0.222913 2.9887 0
M  V30 45962 H 4269.25 0.0251788 1.6188 0
M  V30 45963 H 4271.24 -2.75399 2.96542 0
M  V30 45964 H 4269.81 -2.44371 1.9494 0
M  V30 45965 H 4269.03 -0.842738 3.85086 0
M  V30 45966 H 4270.32 -1.53976 4.84942 0
M  V30 45967 H 4269.72 -4.42934 3.5189 0
M  V30 45968 H 4268.28 -4.85553 4.34835 0
M  V30 45969 N 4271.71 -1.57458 -0.0667882 0
M  V30 45970 C 4272.95 -1.87772 -0.766126 0
M  V30 45971 C 4273.29 -0.799675 -1.76971 0
M  V30 45972 O 4272.56 0.18952 -1.93574 0
M  V30 45973 C 4272.85 -3.28746 -1.46963 0
M  V30 45974 C 4272.7 -4.47209 -0.482117 0
M  V30 45975 C 4274.02 -3.68033 -2.41329 0
M  V30 45976 H 4271.14 -0.682942 -0.277054 0
M  V30 45977 H 4273.78 -1.89977 -0.0292417 0
M  V30 45978 H 4271.93 -3.26997 -2.09775 0
M  V30 45979 H 4273.6 -4.61084 0.141177 0
M  V30 45980 H 4271.84 -4.33329 0.202117 0
M  V30 45981 H 4272.51 -5.42643 -1.01208 0
M  V30 45982 H 4274.99 -3.70908 -1.88591 0
M  V30 45983 H 4273.87 -4.67551 -2.87554 0
M  V30 45984 H 4274.13 -2.98235 -3.26356 0
M  V30 45985 N 4273.19 0.33829 -1.53926 0
M  V30 45986 C 4274.1 1.43899 -1.85284 0
M  V30 45987 C 4275.11 1.57318 -0.743435 0
M  V30 45988 O 4276.29 1.72695 -1.03627 0
M  V30 45989 C 4273.35 2.78817 -2.06062 0
M  V30 45990 C 4272.42 2.74698 -3.29908 0
M  V30 45991 C 4271.65 4.03182 -3.49686 0
M  V30 45992 O 4271.87 5.0072 -2.73195 0
M  V30 45993 O 4270.81 4.07334 -4.43128 0
M  V30 45994 H 4274.63 1.20315 -2.78851 0
M  V30 45995 H 4272.22 0.530957 -1.39647 0
M  V30 45996 H 4274.1 3.58711 -2.21144 0
M  V30 45997 H 4272.77 3.02322 -1.15684 0
M  V30 45998 H 4271.68 1.93407 -3.20226 0
M  V30 45999 H 4273.01 2.56147 -4.20297 0
M  V30 46000 N 4274.67 1.45749 0.599583 0
M  V30 46001 C 4275.62 1.51454 1.70428 0
M  V30 46002 C 4276.6 0.377019 1.56421 0
M  V30 46003 O 4277.79 0.624383 1.65621 0
M  V30 46004 C 4274.92 1.49175 3.09195 0
M  V30 46005 C 4274.01 2.68158 3.2856 0
M  V30 46006 N 4274.4 3.93208 3.18153 0
M  V30 46007 C 4272.7 2.64025 3.59454 0
M  V30 46008 C 4273.4 4.72662 3.39066 0
M  V30 46009 N 4272.37 4.0425 3.63432 0
M  V30 46010 H 4276.17 2.45953 1.60887 0
M  V30 46011 H 4273.69 1.41153 0.803095 0
M  V30 46012 H 4275.69 1.51347 3.88458 0
M  V30 46013 H 4274.35 0.557391 3.1988 0
M  V30 46014 H 4275.36 4.2471 2.96382 0
M  V30 46015 H 4272.03 1.79535 3.76927 0
M  V30 46016 H 4273.42 5.81654 3.36345 0
M  V30 46017 N 4276.14 -0.84278 1.33173 0
M  V30 46018 C 4277.37 -1.62759 1.27253 0
M  V30 46019 C 4277.78 -1.88526 -0.159544 0
M  V30 46020 O 4277.12 -1.46304 -1.11089 0
M  V30 46021 C 4277.19 -3.00398 1.97488 0
M  V30 46022 C 4276.85 -2.97618 3.46803 0
M  V30 46023 C 4277.85 -2.73614 4.42076 0
M  V30 46024 C 4275.53 -3.17878 3.8892 0
M  V30 46025 C 4277.53 -2.69891 5.77441 0
M  V30 46026 C 4275.21 -3.13781 5.2439 0
M  V30 46027 C 4276.21 -2.89817 6.18462 0
M  V30 46028 O 4275.9 -2.85616 7.51451 0
M  V30 46029 H 4275.63 -0.51328 0.439908 0
M  V30 46030 H 4278.19 -1.05819 1.76044 0
M  V30 46031 H 4276.42 -3.59176 1.43282 0
M  V30 46032 H 4278.1 -3.61228 1.85119 0
M  V30 46033 H 4278.87 -2.57717 4.10862 0
M  V30 46034 H 4274.75 -3.35552 3.16111 0
M  V30 46035 H 4278.29 -2.51106 6.50839 0
M  V30 46036 H 4274.19 -3.29226 5.5523 0
M  V30 46037 H 4274.96 -3.01486 7.60952 0
M  V30 46038 N 4277.62 -1.16577 -1.06054 0
M  V30 46039 C 4278.85 -0.97164 -1.82326 0
M  V30 46040 C 4279.26 0.483414 -1.8292 0
M  V30 46041 O 4278.6 1.34733 -1.24871 0
M  V30 46042 C 4278.66 -1.42518 -3.30044 0
M  V30 46043 C 4278.33 -2.90062 -3.53148 0
M  V30 46044 C 4279.33 -3.88051 -3.45994 0
M  V30 46045 C 4277.01 -3.28037 -3.80391 0
M  V30 46046 C 4279 -5.22018 -3.65754 0
M  V30 46047 C 4276.69 -4.62172 -3.99801 0
M  V30 46048 C 4277.69 -5.58971 -3.9248 0
M  V30 46049 O 4277.38 -6.90681 -4.11358 0
M  V30 46050 H 4277.11 -0.344438 -0.581669 0
M  V30 46051 H 4279.66 -1.55074 -1.3469 0
M  V30 46052 H 4277.89 -0.789582 -3.78553 0
M  V30 46053 H 4279.58 -1.19808 -3.87815 0
M  V30 46054 H 4280.35 -3.60059 -3.24934 0
M  V30 46055 H 4276.23 -2.53267 -3.85197 0
M  V30 46056 H 4279.77 -5.97559 -3.59956 0
M  V30 46057 H 4275.67 -4.89873 -4.2035 0
M  V30 46058 H 4276.44 -6.97292 -4.28633 0
M  V30 46059 N 4279.1 1.2463 -0.964637 0
M  V30 46060 C 4280.05 2.25502 -0.4917 0
M  V30 46061 C 4281.02 1.59571 0.461122 0
M  V30 46062 O 4282.2 1.87135 0.372164 0
M  V30 46063 C 4279.34 3.4443 0.214903 0
M  V30 46064 C 4278.45 4.24967 -0.776327 0
M  V30 46065 C 4277.59 5.3118 -0.0461446 0
M  V30 46066 C 4276.63 6.03412 -1.02764 0
M  V30 46067 N 4275.77 7.01335 -0.32767 0
M  V30 46068 H 4280.61 2.65324 -1.35674 0
M  V30 46069 H 4278.14 1.3043 -0.680173 0
M  V30 46070 H 4280.1 4.12243 0.641242 0
M  V30 46071 H 4278.73 3.05454 1.04391 0
M  V30 46072 H 4277.78 3.56722 -1.32112 0
M  V30 46073 H 4279.09 4.74919 -1.5249 0
M  V30 46074 H 4278.25 6.05114 0.438341 0
M  V30 46075 H 4276.99 4.82128 0.735141 0
M  V30 46076 H 4275.99 5.28284 -1.52303 0
M  V30 46077 H 4277.22 6.54553 -1.80932 0
M  V30 46078 H 4275.16 6.54558 0.434695 0
M  V30 46079 H 4275.08 7.49153 -1.01516 0
M  V30 46080 H 4276.35 7.79383 0.134948 0
M  V30 46081 N 4280.58 0.734386 1.39444 0
M  V30 46082 C 4281.83 0.281503 2.0013 0
M  V30 46083 C 4282.15 -1.13501 1.58564 0
M  V30 46084 O 4281.42 -1.77279 0.833599 0
M  V30 46085 H 4280 0.101089 0.740128 0
M  V30 46086 H 4282.66 0.944208 1.70501 0
M  V30 46087 H 4281.75 0.32941 3.10357 0
M  V30 46088 N 4282.06 -1.50049 0.481972 0
M  V30 46089 C 4283.3 -2.02681 -0.0693448 0
M  V30 46090 C 4283.63 -1.36245 -1.38387 0
M  V30 46091 O 4282.91 -0.491739 -1.88181 0
M  V30 46092 C 4283.19 -3.59287 -0.241806 0
M  V30 46093 C 4283.05 -4.3628 1.09451 0
M  V30 46094 C 4284.36 -4.2879 -0.991328 0
M  V30 46095 H 4281.48 -0.736618 -0.0237276 0
M  V30 46096 H 4284.13 -1.79262 0.629683 0
M  V30 46097 H 4282.28 -3.79372 -0.837204 0
M  V30 46098 H 4283.95 -4.2774 1.72732 0
M  V30 46099 H 4282.19 -3.9959 1.6885 0
M  V30 46100 H 4282.86 -5.44155 0.927355 0
M  V30 46101 H 4285.34 -4.13246 -0.486555 0
M  V30 46102 H 4284.21 -5.38154 -1.08081 0
M  V30 46103 H 4284.47 -3.9271 -2.03054 0
M  V30 46104 N 4283.53 -0.215012 -1.56126 0
M  V30 46105 C 4284.76 0.423498 -2.02519 0
M  V30 46106 C 4285.18 1.53808 -1.09492 0
M  V30 46107 O 4284.53 1.82207 -0.103335 0
M  V30 46108 C 4284.58 0.961252 -3.48486 0
M  V30 46109 O 4284.31 -0.108883 -4.37965 0
M  V30 46110 C 4285.81 1.67366 -4.10492 0
M  V30 46111 H 4283.03 0.104347 -0.662837 0
M  V30 46112 H 4285.57 -0.329552 -2.01827 0
M  V30 46113 H 4283.73 1.6646 -3.49814 0
M  V30 46114 H 4284.14 0.294321 -5.23674 0
M  V30 46115 H 4285.61 2.002 -5.14416 0
M  V30 46116 H 4286.09 2.58449 -3.55107 0
M  V30 46117 H 4286.7 1.01567 -4.12994 0
M  V30 46118 N 4285.01 1.57492 0.0584368 0
M  V30 46119 C 4285.97 2.03607 1.05247 0
M  V30 46120 C 4286.97 0.935232 1.30805 0
M  V30 46121 O 4288.16 1.19973 1.26301 0
M  V30 46122 C 4285.3 2.42808 2.39284 0
M  V30 46123 H 4286.49 2.92666 0.654727 0
M  V30 46124 H 4284.04 1.53305 0.304525 0
M  V30 46125 H 4284.78 1.56816 2.83865 0
M  V30 46126 H 4284.56 3.23151 2.22071 0
M  V30 46127 H 4286.05 2.79016 3.10709 0
M  V30 46128 N 4286.49 -0.330122 1.54104 0
M  V30 46129 C 4287.44 -1.406 1.83031 0
M  V30 46130 C 4288.41 -1.5168 0.676934 0
M  V30 46131 O 4289.59 -1.67005 0.922712 0
M  V30 46132 C 4286.73 -2.77058 2.0575 0
M  V30 46133 C 4285.84 -2.74661 3.33444 0
M  V30 46134 C 4284.98 -4.02923 3.46159 0
M  V30 46135 C 4284.02 -3.94808 4.67753 0
M  V30 46136 N 4283.16 -5.14787 4.77429 0
M  V30 46137 H 4288 -1.15231 2.74819 0
M  V30 46138 H 4285.53 -0.557939 1.36108 0
M  V30 46139 H 4287.49 -3.56377 2.16913 0
M  V30 46140 H 4286.12 -3.00749 1.1726 0
M  V30 46141 H 4285.17 -1.87371 3.31053 0
M  V30 46142 H 4286.48 -2.64546 4.22867 0
M  V30 46143 H 4285.64 -4.90671 3.56828 0
M  V30 46144 H 4284.38 -4.15836 2.54817 0
M  V30 46145 H 4283.38 -3.05445 4.57147 0
M  V30 46146 H 4284.61 -3.83466 5.60473 0
M  V30 46147 H 4282.55 -5.28218 3.89 0
M  V30 46148 H 4282.47 -5.06981 5.60808 0
M  V30 46149 H 4283.74 -6.04268 4.92423 0
M  V30 46150 N 4287.97 -1.46065 -0.591845 0
M  V30 46151 C 4289.22 -1.5017 -1.34654 0
M  V30 46152 C 4289.53 -0.154015 -1.94993 0
M  V30 46153 O 4290.74 -0.072811 -2.71402 0
M  V30 46154 C 4289.19 -2.64564 -2.43995 0
M  V30 46155 C 4288.8 -4.05714 -1.9 0
M  V30 46156 C 4290.54 -2.77932 -3.20865 0
M  V30 46157 C 4288.45 -5.11463 -2.96916 0
M  V30 46158 H 4287.38 -0.558847 -0.506168 0
M  V30 46159 H 4290.03 -1.7225 -0.632621 0
M  V30 46160 H 4288.41 -2.35797 -3.18144 0
M  V30 46161 H 4289.59 -4.44231 -1.22455 0
M  V30 46162 H 4287.9 -3.96934 -1.25826 0
M  V30 46163 H 4290.5 -3.54107 -4.0064 0
M  V30 46164 H 4290.84 -1.85122 -3.72875 0
M  V30 46165 H 4291.38 -3.06301 -2.5382 0
M  V30 46166 H 4288.12 -6.06035 -2.49805 0
M  V30 46167 H 4287.64 -4.775 -3.62979 0
M  V30 46168 H 4289.31 -5.36907 -3.61027 0
M  V30 46169 N 4289.45 0.835705 -1.33618 0
M  V30 46170 C 4290.72 1.57602 -1.15849 0
M  V30 46171 C 4291.1 2.09315 0.273914 0
M  V30 46172 O 4290.45 1.89727 1.27342 0
M  V30 46173 C 4290.66 2.7074 -2.20229 0
M  V30 46174 C 4292.01 3.39839 -2.54548 0
M  V30 46175 O 4293.03 2.80985 -2.1892 0
M  V30 46176 O 4291.89 4.4609 -3.15699 0
M  V30 46177 H 4288.99 0.694965 -0.448277 0
M  V30 46178 H 4291.53 0.878186 -1.4521 0
M  V30 46179 H 4290.3 2.3019 -3.1643 0
M  V30 46180 H 4289.93 3.48185 -1.91971 0
M  V30 46181 N 4290.92 1.17138 1.05434 0
M  V30 46182 C 4292.15 0.981295 1.81808 0
M  V30 46183 C 4292.56 -0.473707 1.83174 0
M  V30 46184 O 4291.91 -1.34069 1.25584 0
M  V30 46185 C 4291.97 1.44267 3.29283 0
M  V30 46186 C 4291.63 2.9193 3.51604 0
M  V30 46187 C 4292.63 3.89881 3.43931 0
M  V30 46188 C 4290.31 3.3005 3.78646 0
M  V30 46189 C 4292.31 5.2395 3.62981 0
M  V30 46190 C 4289.99 4.64285 3.97344 0
M  V30 46191 C 4290.99 5.61044 3.8951 0
M  V30 46192 O 4290.68 6.92853 4.07689 0
M  V30 46193 H 4290.41 0.347518 0.579834 0
M  V30 46194 H 4292.97 1.55786 1.33865 0
M  V30 46195 H 4291.2 0.809646 3.78129 0
M  V30 46196 H 4292.89 1.21863 3.87175 0
M  V30 46197 H 4293.65 3.61777 3.2302 0
M  V30 46198 H 4289.53 2.55307 3.83848 0
M  V30 46199 H 4293.07 5.9946 3.56782 0
M  V30 46200 H 4288.97 4.92096 4.17746 0
M  V30 46201 H 4289.74 6.99555 4.24929 0
M  V30 46202 N 4292.4 -1.24116 0.971232 0
M  V30 46203 C 4293.63 -1.96872 0.652392 0
M  V30 46204 C 4294.05 -1.7152 -0.772163 0
M  V30 46205 O 4293.41 -0.981078 -1.52462 0
M  V30 46206 C 4293.46 -3.48201 0.937449 0
M  V30 46207 O 4292.56 -4.12393 0.0247036 0
M  V30 46208 H 4291.9 -0.616636 0.246285 0
M  V30 46209 H 4294.43 -1.57798 1.30234 0
M  V30 46210 H 4294.44 -3.98607 0.870419 0
M  V30 46211 H 4293.12 -3.65981 1.97562 0
M  V30 46212 H 4291.7 -3.72617 0.145358 0
M  V30 46213 N 4293.88 -0.741771 -1.39052 0
M  V30 46214 C 4294.83 -0.106238 -2.30555 0
M  V30 46215 C 4295.8 0.722408 -1.49568 0
M  V30 46216 O 4296.98 0.680976 -1.78234 0
M  V30 46217 C 4294.12 0.789954 -3.35937 0
M  V30 46218 C 4293.24 -0.0520399 -4.31969 0
M  V30 46219 C 4292.37 0.846054 -5.24419 0
M  V30 46220 C 4291.41 -0.000285036 -6.121 0
M  V30 46221 N 4290.55 0.854114 -6.96885 0
M  V30 46222 H 4295.39 -0.892163 -2.84332 0
M  V30 46223 H 4292.92 -0.451607 -1.39996 0
M  V30 46224 H 4294.88 1.32406 -3.95632 0
M  V30 46225 H 4293.51 1.54178 -2.836 0
M  V30 46226 H 4292.56 -0.703645 -3.73836 0
M  V30 46227 H 4293.88 -0.706148 -4.93776 0
M  V30 46228 H 4293.03 1.44776 -5.89173 0
M  V30 46229 H 4291.77 1.53393 -4.62949 0
M  V30 46230 H 4290.77 -0.614744 -5.46352 0
M  V30 46231 H 4292 -0.68504 -6.75636 0
M  V30 46232 H 4289.94 1.52715 -6.37977 0
M  V30 46233 H 4289.86 0.256639 -7.55564 0
M  V30 46234 H 4291.13 1.44117 -7.66062 0
M  V30 46235 N 4295.36 1.49792 -0.489923 0
M  V30 46236 C 4296.61 2.02016 0.0583929 0
M  V30 46237 C 4296.93 1.37264 1.38505 0
M  V30 46238 O 4296.2 0.524224 1.88756 0
M  V30 46239 H 4294.78 0.746596 0.0245697 0
M  V30 46240 H 4297.44 1.8393 -0.64464 0
M  V30 46241 H 4296.54 3.11483 0.196172 0
M  V30 46242 N 4296.84 0.223289 1.5601 0
M  V30 46243 C 4297.78 -0.686118 2.20366 0
M  V30 46244 C 4298.75 -1.18903 1.1598 0
M  V30 46245 O 4299.94 -1.2478 1.44342 0
M  V30 46246 C 4297.08 -1.88788 2.88882 0
M  V30 46247 C 4296.19 -1.42371 4.07866 0
M  V30 46248 C 4295.33 -2.58318 4.64161 0
M  V30 46249 C 4294.37 -2.08646 5.75442 0
M  V30 46250 N 4293.5 -3.17872 6.26021 0
M  V30 46251 H 4298.34 -0.130604 2.97714 0
M  V30 46252 H 4295.88 -0.0527105 1.47006 0
M  V30 46253 H 4297.84 -2.5935 3.26792 0
M  V30 46254 H 4296.47 -2.41625 2.14049 0
M  V30 46255 H 4295.52 -0.612958 3.75429 0
M  V30 46256 H 4296.83 -1.0195 4.8827 0
M  V30 46257 H 4295.99 -3.3696 5.04523 0
M  V30 46258 H 4294.72 -3.02029 3.82923 0
M  V30 46259 H 4293.73 -1.28467 5.34581 0
M  V30 46260 H 4294.95 -1.65932 6.58516 0
M  V30 46261 H 4292.9 -3.61061 5.47696 0
M  V30 46262 H 4292.82 -2.81708 7.01553 0
M  V30 46263 H 4294.09 -3.96643 6.7104 0
M  V30 46264 N 4298.31 -1.5752 -0.0500839 0
M  V30 46265 C 4299.25 -2.00506 -1.08961 0
M  V30 46266 C 4300.23 -0.885656 -1.36363 0
M  V30 46267 O 4301.41 -1.14978 -1.49373 0
M  V30 46268 C 4298.54 -2.36027 -2.42918 0
M  V30 46269 C 4297.58 -3.58197 -2.3151 0
M  V30 46270 S 4298.42 -5.08183 -1.68849 0
M  V30 46271 C 4299.57 -5.46926 -3.04339 0
M  V30 46272 H 4299.8 -2.88365 -0.723382 0
M  V30 46273 H 4297.34 -1.52206 -0.259368 0
M  V30 46274 H 4299.3 -2.57165 -3.19963 0
M  V30 46275 H 4297.96 -1.48658 -2.76694 0
M  V30 46276 H 4297.15 -3.80638 -3.30349 0
M  V30 46277 H 4296.75 -3.36802 -1.62605 0
M  V30 46278 H 4299.04 -5.46325 -4.00668 0
M  V30 46279 H 4299.99 -6.47483 -2.86655 0
M  V30 46280 H 4300.39 -4.74403 -3.05944 0
M  V30 46281 N 4299.79 0.321945 -1.54277 0
M  V30 46282 C 4300.72 1.40142 -1.86768 0
M  V30 46283 C 4301.7 1.53893 -0.724628 0
M  V30 46284 O 4302.89 1.67746 -0.978507 0
M  V30 46285 C 4300.02 2.76885 -2.09647 0
M  V30 46286 C 4298.97 2.77921 -3.2549 0
M  V30 46287 C 4298.3 4.17755 -3.33743 0
M  V30 46288 C 4299.6 2.41525 -4.63102 0
M  V30 46289 H 4301.29 1.13199 -2.77176 0
M  V30 46290 H 4298.84 0.543111 -1.33365 0
M  V30 46291 H 4300.79 3.5247 -2.30961 0
M  V30 46292 H 4299.52 3.05309 -1.1599 0
M  V30 46293 H 4298.17 2.04792 -3.04065 0
M  V30 46294 H 4297.82 4.43323 -2.37642 0
M  V30 46295 H 4297.52 4.19354 -4.11601 0
M  V30 46296 H 4299.05 4.9515 -3.57294 0
M  V30 46297 H 4300.46 3.06822 -4.84286 0
M  V30 46298 H 4298.86 2.54372 -5.43521 0
M  V30 46299 H 4299.93 1.36672 -4.65241 0
M  V30 46300 N 4301.27 1.46377 0.58409 0
M  V30 46301 C 4302.2 1.59696 1.70351 0
M  V30 46302 C 4303.18 0.447353 1.64112 0
M  V30 46303 O 4304.37 0.673426 1.8215 0
M  V30 46304 C 4301.5 1.58563 3.0899 0
M  V30 46305 C 4300.45 2.72479 3.30059 0
M  V30 46306 C 4299.78 2.56407 4.69211 0
M  V30 46307 C 4301.08 4.14313 3.18028 0
M  V30 46308 H 4302.77 2.53402 1.59461 0
M  V30 46309 H 4300.32 1.21953 0.765728 0
M  V30 46310 H 4302.27 1.66475 3.87123 0
M  V30 46311 H 4300.99 0.614005 3.20776 0
M  V30 46312 H 4299.65 2.64034 2.54326 0
M  V30 46313 H 4299.3 1.57331 4.77761 0
M  V30 46314 H 4299 3.32813 4.84261 0
M  V30 46315 H 4300.52 2.66208 5.49514 0
M  V30 46316 H 4301.94 4.23877 3.86007 0
M  V30 46317 H 4300.34 4.91295 3.446 0
M  V30 46318 H 4301.41 4.34566 2.15128 0
M  V30 46319 N 4302.75 -0.828607 1.34059 0
M  V30 46320 C 4303.71 -1.92071 1.25066 0
M  V30 46321 C 4304.71 -1.59928 0.16722 0
M  V30 46322 O 4305.9 -1.69075 0.419458 0
M  V30 46323 C 4303.03 -3.27981 0.929577 0
M  V30 46324 H 4304.23 -2.01468 2.2215 0
M  V30 46325 H 4301.78 -1.02191 1.18265 0
M  V30 46326 H 4302.52 -3.24277 -0.0383286 0
M  V30 46327 H 4302.3 -3.52693 1.7132 0
M  V30 46328 H 4303.79 -4.07969 0.891677 0
M  V30 46329 N 4304.23 -1.17696 -1.04812 0
M  V30 46330 C 4305.46 -0.992362 -1.81548 0
M  V30 46331 C 4305.87 0.459343 -1.83127 0
M  V30 46332 O 4305.23 1.31901 -1.26129 0
M  V30 46333 C 4305.28 -1.53073 -3.27492 0
M  V30 46334 O 4305 -2.92559 -3.26099 0
M  V30 46335 C 4306.5 -1.39126 -4.20902 0
M  V30 46336 H 4303.72 -0.350859 -0.571961 0
M  V30 46337 H 4306.26 -1.56073 -1.32142 0
M  V30 46338 H 4304.42 -1.0043 -3.74156 0
M  V30 46339 H 4304.83 -3.17519 -4.17471 0
M  V30 46340 H 4306.31 -1.81604 -5.21271 0
M  V30 46341 H 4306.78 -0.338889 -4.37891 0
M  V30 46342 H 4307.39 -1.90804 -3.80097 0
M  V30 46343 N 4305.71 1.23599 -0.977801 0
M  V30 46344 C 4306.98 1.8736 -0.561747 0
M  V30 46345 C 4307.36 1.87951 0.961133 0
M  V30 46346 O 4306.71 1.35925 1.83675 0
M  V30 46347 C 4306.92 3.28987 -1.16484 0
M  V30 46348 C 4308.27 4.05599 -1.25597 0
M  V30 46349 O 4309.29 3.38197 -1.1181 0
M  V30 46350 O 4308.15 5.26218 -1.47503 0
M  V30 46351 H 4305.25 0.805167 -0.188774 0
M  V30 46352 H 4307.79 1.31495 -1.07272 0
M  V30 46353 H 4306.56 3.2311 -2.20716 0
M  V30 46354 H 4306.19 3.92439 -0.638526 0
M  V30 46355 N 4307.18 0.749135 1.38657 0
M  V30 46356 C 4308.13 0.118463 2.30496 0
M  V30 46357 C 4309.1 -0.714466 1.49949 0
M  V30 46358 O 4310.29 -0.671514 1.78593 0
M  V30 46359 C 4307.43 -0.772127 3.36351 0
M  V30 46360 C 4306.54 0.0749475 4.31935 0
M  V30 46361 C 4305.67 -0.818231 5.2486 0
M  V30 46362 C 4304.71 0.0327462 6.12091 0
M  V30 46363 N 4303.85 -0.817145 6.97329 0
M  V30 46364 H 4308.69 0.907229 2.83854 0
M  V30 46365 H 4306.23 0.459025 1.39755 0
M  V30 46366 H 4308.18 -1.30306 3.96328 0
M  V30 46367 H 4306.81 -1.52672 2.84413 0
M  V30 46368 H 4305.87 0.723461 3.73457 0
M  V30 46369 H 4307.18 0.732324 4.93395 0
M  V30 46370 H 4306.33 -1.41649 5.89932 0
M  V30 46371 H 4305.07 -1.50935 4.63756 0
M  V30 46372 H 4304.08 0.64371 5.46019 0
M  V30 46373 H 4305.3 0.720861 6.75263 0
M  V30 46374 H 4303.25 -1.4933 6.38777 0
M  V30 46375 H 4303.16 -0.216566 7.5569 0
M  V30 46376 H 4304.43 -1.40052 7.66815 0
M  V30 46377 N 4308.66 -1.4953 0.49786 0
M  V30 46378 C 4309.91 -2.03361 -0.0398513 0
M  V30 46379 C 4310.26 -1.37105 -1.34981 0
M  V30 46380 O 4309.56 -0.496643 -1.85051 0
M  V30 46381 C 4309.75 -3.5651 -0.252093 0
M  V30 46382 C 4309.58 -4.3761 1.03575 0
M  V30 46383 C 4308.35 -4.79743 1.58666 0
M  V30 46384 C 4310.55 -4.7638 1.9382 0
M  V30 46385 N 4308.53 -5.4526 2.82073 0
M  V30 46386 C 4309.9 -5.41583 3.01807 0
M  V30 46387 C 4311.95 -4.58323 1.94536 0
M  V30 46388 C 4310.66 -5.9064 4.10533 0
M  V30 46389 C 4312.68 -5.08338 3.02235 0
M  V30 46390 C 4312.05 -5.73539 4.08941 0
M  V30 46391 H 4308.14 -0.781564 0.0261188 0
M  V30 46392 H 4310.73 -1.82735 0.672021 0
M  V30 46393 H 4308.9 -3.77027 -0.93302 0
M  V30 46394 H 4310.63 -3.96983 -0.786531 0
M  V30 46395 H 4307.39 -4.59867 1.13223 0
M  V30 46396 H 4307.81 -5.82607 3.44816 0
M  V30 46397 H 4312.45 -4.07323 1.13347 0
M  V30 46398 H 4310.17 -6.40662 4.92522 0
M  V30 46399 H 4313.76 -4.96179 3.03805 0
M  V30 46400 H 4312.64 -6.11541 4.90905 0
M  V30 46401 N 4310.14 -0.23156 -1.5589 0
M  V30 46402 C 4311.05 0.685526 -2.24361 0
M  V30 46403 C 4312.07 1.20569 -1.25456 0
M  V30 46404 O 4313.24 1.24519 -1.58294 0
M  V30 46405 C 4310.31 1.87247 -2.91786 0
M  V30 46406 C 4309.37 1.3933 -4.06061 0
M  V30 46407 C 4308.6 2.52367 -4.70262 0
M  V30 46408 O 4308.82 3.7074 -4.33484 0
M  V30 46409 O 4307.76 2.22998 -5.59066 0
M  V30 46410 H 4311.58 0.132182 -3.03412 0
M  V30 46411 H 4309.17 -0.000690958 -1.494 0
M  V30 46412 H 4311.05 2.56545 -3.34309 0
M  V30 46413 H 4309.73 2.41373 -2.15687 0
M  V30 46414 H 4308.63 0.668047 -3.68087 0
M  V30 46415 H 4309.97 0.898308 -4.83933 0
M  V30 46416 N 4311.62 1.57545 0.0417295 0
M  V30 46417 C 4312.86 1.88967 0.736156 0
M  V30 46418 C 4313.2 0.827728 1.75677 0
M  V30 46419 O 4312.47 -0.1587 1.93851 0
M  V30 46420 C 4312.75 3.31042 1.41714 0
M  V30 46421 C 4312.61 4.47919 0.410909 0
M  V30 46422 C 4313.93 3.71826 2.35444 0
M  V30 46423 H 4311.05 0.687263 0.266154 0
M  V30 46424 H 4313.69 1.9 -0.000985749 0
M  V30 46425 H 4311.84 3.30292 2.04546 0
M  V30 46426 H 4313.51 4.60801 -0.214514 0
M  V30 46427 H 4311.75 4.32953 -0.27103 0
M  V30 46428 H 4312.42 5.44184 0.925622 0
M  V30 46429 H 4314.9 3.73861 1.82666 0
M  V30 46430 H 4313.78 4.72067 2.80079 0
M  V30 46431 H 4314.04 3.03389 3.2157 0
M  V30 46432 N 4313.1 -0.313759 1.54445 0
M  V30 46433 C 4314.01 -1.40933 1.8755 0
M  V30 46434 C 4315.02 -1.56116 0.768369 0
M  V30 46435 O 4316.2 -1.71024 1.06361 0
M  V30 46436 C 4313.26 -2.75504 2.10472 0
M  V30 46437 C 4312.32 -2.69415 3.34237 0
M  V30 46438 C 4311.56 -3.97567 3.56056 0
M  V30 46439 O 4311.78 -4.96311 2.81126 0
M  V30 46440 O 4310.71 -4.00232 4.49553 0
M  V30 46441 H 4314.54 -1.15863 2.8073 0
M  V30 46442 H 4312.12 -0.508674 1.40474 0
M  V30 46443 H 4314.01 -3.55147 2.26823 0
M  V30 46444 H 4312.68 -3.00444 1.20479 0
M  V30 46445 H 4311.59 -1.88288 3.23262 0
M  V30 46446 H 4312.92 -2.49428 4.24319 0
M  V30 46447 N 4314.57 -1.46684 -0.576319 0
M  V30 46448 C 4315.52 -1.54146 -1.67997 0
M  V30 46449 C 4316.51 -0.401857 -1.55801 0
M  V30 46450 O 4317.7 -0.650653 -1.64607 0
M  V30 46451 C 4314.83 -1.54075 -3.06783 0
M  V30 46452 C 4313.91 -2.73351 -3.24253 0
M  V30 46453 N 4314.31 -3.9822 -3.11857 0
M  V30 46454 C 4312.6 -2.6971 -3.55208 0
M  V30 46455 C 4313.3 -4.77996 -3.31503 0
M  V30 46456 N 4312.28 -4.09981 -3.56955 0
M  V30 46457 H 4316.08 -2.48481 -1.56954 0
M  V30 46458 H 4313.6 -1.42413 -0.780537 0
M  V30 46459 H 4315.59 -1.57508 -3.86001 0
M  V30 46460 H 4314.25 -0.608211 -3.18953 0
M  V30 46461 H 4315.26 -4.29371 -2.89587 0
M  V30 46462 H 4311.94 -1.85508 -3.74023 0
M  V30 46463 H 4313.33 -5.86931 -3.27049 0
M  V30 46464 N 4316.05 0.821486 -1.34497 0
M  V30 46465 C 4317.3 1.57467 -1.26683 0
M  V30 46466 C 4317.62 1.9432 0.162667 0
M  V30 46467 O 4316.89 1.62397 1.09563 0
M  V30 46468 H 4315.47 0.583895 -0.465914 0
M  V30 46469 H 4318.13 0.980761 -1.68425 0
M  V30 46470 H 4317.23 2.49683 -1.87256 0
M  V30 46471 N 4317.53 1.1825 1.04186 0
M  V30 46472 C 4318.78 0.97857 1.77628 0
M  V30 46473 C 4319.11 -0.490724 1.87898 0
M  V30 46474 O 4318.38 -1.36436 1.3862 0
M  V30 46475 C 4318.67 1.63258 3.20966 0
M  V30 46476 C 4318.52 3.17465 3.18647 0
M  V30 46477 C 4319.84 1.34483 4.19049 0
M  V30 46478 H 4316.96 0.356915 0.644811 0
M  V30 46479 H 4319.6 1.45899 1.21711 0
M  V30 46480 H 4317.75 1.22408 3.68712 0
M  V30 46481 H 4319.42 3.67441 2.78899 0
M  V30 46482 H 4317.67 3.49688 2.56711 0
M  V30 46483 H 4318.34 3.58362 4.19858 0
M  V30 46484 H 4320.81 1.69874 3.79845 0
M  V30 46485 H 4319.69 1.82813 5.17562 0
M  V30 46486 H 4319.95 0.267486 4.4129 0
M  V30 46487 N 4319.01 -1.23079 0.984342 0
M  V30 46488 C 4320.26 -1.90908 0.650917 0
M  V30 46489 C 4320.57 -1.77597 -0.81967 0
M  V30 46490 O 4321.78 -2.40265 -1.26432 0
M  V30 46491 C 4320.23 -3.42237 1.11365 0
M  V30 46492 C 4319.84 -3.64201 2.60886 0
M  V30 46493 C 4321.58 -4.15818 0.854152 0
M  V30 46494 C 4319.49 -5.09185 3.00806 0
M  V30 46495 H 4318.42 -0.714866 0.239756 0
M  V30 46496 H 4321.07 -1.39446 1.19277 0
M  V30 46497 H 4319.45 -3.92831 0.499985 0
M  V30 46498 H 4320.63 -3.24137 3.27524 0
M  V30 46499 H 4318.94 -3.03937 2.84625 0
M  V30 46500 H 4321.54 -5.22662 1.12821 0
M  V30 46501 H 4321.88 -4.15771 -0.20974 0
M  V30 46502 H 4322.42 -3.71224 1.42959 0
M  V30 46503 H 4319.16 -5.14366 4.06335 0
M  V30 46504 H 4318.68 -5.50185 2.38864 0
M  V30 46505 H 4320.35 -5.77547 2.9163 0
M  V30 46506 N 4320.49 -0.756478 -1.38258 0
M  V30 46507 C 4321.71 -0.324835 -2.04334 0
M  V30 46508 C 4322.13 1.04781 -1.57055 0
M  V30 46509 O 4321.49 1.66605 -0.744912 0
M  V30 46510 C 4321.54 -0.34166 -3.59882 0
M  V30 46511 O 4321.26 -1.66015 -4.05427 0
M  V30 46512 C 4322.76 0.103487 -4.43179 0
M  V30 46513 H 4319.98 -0.138336 -0.656585 0
M  V30 46514 H 4322.52 -1.02614 -1.76892 0
M  V30 46515 H 4320.68 0.310929 -3.8615 0
M  V30 46516 H 4321.09 -1.58831 -4.99873 0
M  V30 46517 H 4322.57 0.0405545 -5.51985 0
M  V30 46518 H 4323.04 1.15178 -4.23829 0
M  V30 46519 H 4323.65 -0.520337 -4.22105 0
M  V30 46520 N 4321.96 1.49264 -0.505783 0
M  V30 46521 C 4323.38 1.58775 -0.162049 0
M  V30 46522 C 4323.58 1.51051 1.33364 0
M  V30 46523 O 4322.64 1.38694 2.10998 0
M  V30 46524 C 4323.95 2.91374 -0.743097 0
M  V30 46525 C 4325.5 3.04849 -0.709636 0
M  V30 46526 C 4325.97 4.40073 -1.26883 0
M  V30 46527 N 4327.46 4.46578 -1.22974 0
M  V30 46528 C 4328.2 5.49668 -1.63256 0
M  V30 46529 N 4327.69 6.59838 -2.11153 0
M  V30 46530 N 4329.49 5.40409 -1.54642 0
M  V30 46531 H 4321.64 1.52527 -1.47815 0
M  V30 46532 H 4323.9 0.7228 -0.613404 0
M  V30 46533 H 4323.61 3.02609 -1.79223 0
M  V30 46534 H 4323.48 3.76636 -0.206261 0
M  V30 46535 H 4325.87 2.93241 0.330674 0
M  V30 46536 H 4325.95 2.21259 -1.28367 0
M  V30 46537 H 4325.59 4.52434 -2.30795 0
M  V30 46538 H 4325.52 5.22311 -0.670691 0
M  V30 46539 H 4328.01 3.67539 -0.878846 0
M  V30 46540 H 4328.33 7.34605 -2.39947 0
M  V30 46541 H 4326.67 6.60866 -2.1513 0
M  V30 46542 H 4329.86 4.53232 -1.17038 0
M  V30 46543 H 4330.04 6.20624 -1.86358 0
M  V30 46544 N 4323.44 0.239823 1.55765 0
M  V30 46545 C 4324.37 -0.657028 2.24066 0
M  V30 46546 C 4325.35 -1.18685 1.21852 0
M  V30 46547 O 4326.54 -1.2275 1.50486 0
M  V30 46548 C 4323.67 -1.85725 2.93468 0
M  V30 46549 C 4322.62 -1.4605 4.0231 0
M  V30 46550 C 4321.95 -2.74098 4.59102 0
M  V30 46551 C 4323.25 -0.636841 5.18403 0
M  V30 46552 H 4324.94 -0.0875149 2.99272 0
M  V30 46553 H 4322.49 -0.0406519 1.43943 0
M  V30 46554 H 4324.44 -2.49026 3.39947 0
M  V30 46555 H 4323.17 -2.45203 2.15738 0
M  V30 46556 H 4321.82 -0.850872 3.56589 0
M  V30 46557 H 4321.47 -3.31759 3.78081 0
M  V30 46558 H 4321.17 -2.48278 5.32571 0
M  V30 46559 H 4322.7 -3.38309 5.0831 0
M  V30 46560 H 4324.11 -1.17398 5.61151 0
M  V30 46561 H 4322.51 -0.474987 5.98217 0
M  V30 46562 H 4323.58 0.35253 4.83617 0
M  V30 46563 N 4324.92 -1.57565 -0.0333739 0
M  V30 46564 C 4325.88 -2.05255 -1.01995 0
M  V30 46565 C 4326.88 -0.955923 -1.29301 0
M  V30 46566 O 4328.07 -1.21967 -1.24377 0
M  V30 46567 C 4325.21 -2.46585 -2.35391 0
M  V30 46568 H 4326.4 -2.9367 -0.608084 0
M  V30 46569 H 4323.95 -1.5377 -0.280097 0
M  V30 46570 H 4324.69 -1.61312 -2.81334 0
M  V30 46571 H 4324.47 -3.26643 -2.16902 0
M  V30 46572 H 4325.96 -2.83924 -3.0623 0
M  V30 46573 N 4326.4 0.305564 -1.54609 0
M  V30 46574 C 4327.35 1.3767 -1.85245 0
M  V30 46575 C 4328.32 1.50584 -0.700979 0
M  V30 46576 O 4329.5 1.65516 -0.949164 0
M  V30 46577 C 4326.64 2.73749 -2.10132 0
M  V30 46578 C 4325.75 2.69322 -3.37772 0
M  V30 46579 C 4324.89 3.97365 -3.52526 0
M  V30 46580 C 4323.93 3.87317 -4.73975 0
M  V30 46581 N 4323.06 5.07126 -4.85559 0
M  V30 46582 H 4327.9 1.10845 -2.76618 0
M  V30 46583 H 4325.44 0.536215 -1.36979 0
M  V30 46584 H 4327.4 3.52881 -2.22556 0
M  V30 46585 H 4326.03 2.98845 -1.2203 0
M  V30 46586 H 4325.08 1.8208 -3.33992 0
M  V30 46587 H 4326.39 2.57785 -4.27022 0
M  V30 46588 H 4325.55 4.84932 -3.64589 0
M  V30 46589 H 4324.29 4.1173 -2.614 0
M  V30 46590 H 4323.29 2.98133 -4.61949 0
M  V30 46591 H 4324.52 3.74501 -5.66503 0
M  V30 46592 H 4322.46 5.21963 -3.97355 0
M  V30 46593 H 4322.38 4.97995 -5.68803 0
M  V30 46594 H 4323.65 5.96358 -5.01974 0
M  V30 46595 N 4327.88 1.46988 0.568532 0
M  V30 46596 C 4329.29 1.32256 0.893336 0
M  V30 46597 C 4329.49 0.304566 1.99185 0
M  V30 46598 O 4328.55 -0.287902 2.50853 0
M  V30 46599 C 4329.86 2.71277 1.29728 0
M  V30 46600 C 4331.41 2.79476 1.40934 0
M  V30 46601 C 4331.88 4.19111 1.84688 0
M  V30 46602 N 4333.38 4.21598 1.91858 0
M  V30 46603 C 4334.11 5.26546 2.27018 0
M  V30 46604 N 4333.61 6.41808 2.60871 0
M  V30 46605 N 4335.4 5.13918 2.27695 0
M  V30 46606 H 4327.55 2.1182 -0.156894 0
M  V30 46607 H 4329.81 0.94797 -0.00752205 0
M  V30 46608 H 4329.52 3.47148 0.56402 0
M  V30 46609 H 4329.39 3.0231 2.25584 0
M  V30 46610 H 4331.78 2.03884 2.13343 0
M  V30 46611 H 4331.86 2.5211 0.432933 0
M  V30 46612 H 4331.51 4.95204 1.12853 0
M  V30 46613 H 4331.44 4.43894 2.83312 0
M  V30 46614 H 4333.93 3.38439 1.68129 0
M  V30 46615 H 4334.24 7.17653 2.86694 0
M  V30 46616 H 4332.58 6.45147 2.58477 0
M  V30 46617 H 4335.78 4.22901 2.0068 0
M  V30 46618 H 4335.95 5.95817 2.54767 0
M  V30 46619 N 4329.35 -0.814342 1.3493 0
M  V30 46620 C 4330.58 -1.60023 1.30676 0
M  V30 46621 C 4330.99 -1.88822 -0.119519 0
M  V30 46622 O 4330.34 -1.48628 -1.0796 0
M  V30 46623 C 4330.4 -2.96141 2.03815 0
M  V30 46624 C 4330.06 -2.90195 3.53038 0
M  V30 46625 C 4331.06 -2.64175 4.47781 0
M  V30 46626 C 4328.74 -3.09557 3.95575 0
M  V30 46627 C 4330.74 -2.57582 5.83036 0
M  V30 46628 C 4328.42 -3.02587 5.30928 0
M  V30 46629 C 4329.42 -2.76634 6.2447 0
M  V30 46630 O 4329.11 -2.69612 7.5734 0
M  V30 46631 H 4328.84 -0.503834 0.450697 0
M  V30 46632 H 4331.4 -1.02061 1.78249 0
M  V30 46633 H 4329.63 -3.56056 1.50868 0
M  V30 46634 H 4331.32 -3.5722 1.92739 0
M  V30 46635 H 4332.08 -2.48944 4.16236 0
M  V30 46636 H 4327.96 -3.28771 3.23157 0
M  V30 46637 H 4331.5 -2.37244 6.56019 0
M  V30 46638 H 4327.4 -3.17374 5.62089 0
M  V30 46639 H 4328.17 -2.85277 7.67176 0
M  V30 46640 N 4330.83 -1.18801 -1.03557 0
M  V30 46641 C 4332.06 -1.01156 -1.80486 0
M  V30 46642 C 4332.48 0.439895 -1.83604 0
M  V30 46643 O 4331.83 1.30555 -1.27521 0
M  V30 46644 C 4331.88 -1.56538 -3.2585 0
M  V30 46645 O 4331.6 -2.96002 -3.22978 0
M  V30 46646 C 4333.11 -1.43583 -4.19403 0
M  V30 46647 H 4330.33 -0.356905 -0.568207 0
M  V30 46648 H 4332.87 -1.57465 -1.3048 0
M  V30 46649 H 4331.02 -1.04393 -3.73069 0
M  V30 46650 H 4331.44 -3.21929 -4.14079 0
M  V30 46651 H 4332.91 -1.87123 -5.19316 0
M  V30 46652 H 4333.39 -0.385314 -4.37507 0
M  V30 46653 H 4334 -1.94825 -3.78052 0
M  V30 46654 N 4332.31 1.22555 -0.990855 0
M  V30 46655 C 4333.56 1.90872 -0.664252 0
M  V30 46656 C 4333.88 1.77564 0.805979 0
M  V30 46657 O 4333.15 1.16156 1.57749 0
M  V30 46658 H 4331.73 0.706475 -0.242696 0
M  V30 46659 H 4334.39 1.48955 -1.25692 0
M  V30 46660 H 4333.49 2.98077 -0.925002 0
M  V30 46661 N 4333.79 0.763799 1.37855 0
M  V30 46662 C 4335.04 0.325012 2.00179 0
M  V30 46663 C 4335.37 -1.0934 1.60494 0
M  V30 46664 O 4334.64 -1.75073 0.847326 0
M  V30 46665 C 4334.93 0.459515 3.57156 0
M  V30 46666 C 4334.78 1.91977 4.06774 0
M  V30 46667 C 4336.1 -0.141 4.39874 0
M  V30 46668 H 4333.22 0.119568 0.727236 0
M  V30 46669 H 4335.86 0.965356 1.63649 0
M  V30 46670 H 4334.01 -0.0856326 3.88406 0
M  V30 46671 H 4335.68 2.52401 3.86124 0
M  V30 46672 H 4333.92 2.43133 3.59261 0
M  V30 46673 H 4334.6 1.96498 5.15842 0
M  V30 46674 H 4337.07 0.324048 4.14836 0
M  V30 46675 H 4335.95 -0.0167065 5.48897 0
M  V30 46676 H 4336.21 -1.23045 4.24632 0
M  V30 46677 N 4335.27 -1.48993 0.513692 0
M  V30 46678 C 4336.52 -2.02083 -0.0262466 0
M  V30 46679 C 4336.84 -1.3945 -1.36303 0
M  V30 46680 O 4336.11 -0.554187 -1.87898 0
M  V30 46681 H 4334.69 -0.746892 -0.0126889 0
M  V30 46682 H 4337.35 -1.82882 0.673821 0
M  V30 46683 H 4336.44 -3.11756 -0.146593 0
M  V30 46684 N 4336.75 -0.248081 -1.55635 0
M  V30 46685 C 4337.99 0.376335 -1.98972 0
M  V30 46686 C 4338.32 1.57861 -1.13622 0
M  V30 46687 O 4337.58 1.94801 -0.187321 0
M  V30 46688 C 4337.87 0.828465 -3.47665 0
M  V30 46689 C 4337.54 -0.266187 -4.50114 0
M  V30 46690 C 4336.2 -0.566829 -4.7785 0
M  V30 46691 C 4338.55 -1.00515 -5.11416 0
M  V30 46692 C 4335.88 -1.61049 -5.64163 0
M  V30 46693 C 4338.23 -2.03834 -5.98861 0
M  V30 46694 C 4336.9 -2.34561 -6.2493 0
M  V30 46695 H 4336.17 0.137711 -0.728091 0
M  V30 46696 H 4338.82 -0.356151 -1.88159 0
M  V30 46697 H 4337.12 1.64017 -3.55817 0
M  V30 46698 H 4338.82 1.32189 -3.78586 0
M  V30 46699 H 4335.41 -0.0217257 -4.28594 0
M  V30 46700 H 4339.59 -0.786135 -4.90034 0
M  V30 46701 H 4334.85 -1.85388 -5.82616 0
M  V30 46702 H 4339.02 -2.61584 -6.45404 0
M  V30 46703 H 4336.65 -3.1557 -6.91606 0
M  V30 46704 N 4338.22 1.5758 0.0250174 0
M  V30 46705 C 4339.17 2.07916 1.04277 0
M  V30 46706 C 4340.17 0.993793 1.37186 0
M  V30 46707 O 4341.37 1.17865 1.36044 0
M  V30 46708 H 4337.75 0.663559 0.353827 0
M  V30 46709 H 4339.72 2.92459 0.592463 0
M  V30 46710 C 4338.47 2.57731 2.33389 0
M  V30 46711 H 4337.79 3.40865 2.08928 0
M  V30 46712 H 4339.23 2.96656 3.02938 0
M  V30 46713 C 4337.69 1.48031 3.02636 0
M  V30 46714 O 4338.22 0.848858 3.92629 0
M  V30 46715 N 4336.42 1.21386 2.64034 0
M  V30 46716 H 4335.97 1.72919 1.90936 0
M  V30 46717 H 4335.93 0.482021 3.10683 0
M  V30 46718 N 4339.7 -0.29736 1.54769 0
M  V30 46719 C 4340.95 -1.03007 1.73879 0
M  V30 46720 C 4341.27 -1.87674 0.529475 0
M  V30 46721 O 4340.54 -1.90515 -0.456181 0
M  V30 46722 H 4339.12 -0.383302 0.641162 0
M  V30 46723 H 4341.78 -0.327466 1.92129 0
M  V30 46724 H 4340.88 -1.68109 2.62956 0
M  V30 46725 N 4341.18 -1.47287 -0.560729 0
M  V30 46726 C 4342.14 -1.59066 -1.65018 0
M  V30 46727 C 4343.14 -0.466024 -1.53899 0
M  V30 46728 O 4344.33 -0.73099 -1.58121 0
M  V30 46729 C 4341.46 -1.53182 -3.04545 0
M  V30 46730 H 4342.66 -2.56178 -1.55925 0
M  V30 46731 H 4340.21 -1.35425 -0.780367 0
M  V30 46732 H 4340.95 -0.57432 -3.19174 0
M  V30 46733 H 4340.73 -2.348 -3.14025 0
M  V30 46734 H 4342.22 -1.64555 -3.83812 0
M  V30 46735 N 4342.66 0.807175 -1.3536 0
M  V30 46736 C 4343.89 1.59328 -1.31523 0
M  V30 46737 C 4344.3 1.88883 0.109503 0
M  V30 46738 O 4343.64 1.49198 1.07171 0
M  V30 46739 C 4343.7 2.95056 -2.05383 0
M  V30 46740 C 4343.36 2.88319 -3.54572 0
M  V30 46741 C 4344.36 2.61797 -4.49175 0
M  V30 46742 C 4342.05 3.07455 -3.97211 0
M  V30 46743 C 4344.04 2.54486 -5.84393 0
M  V30 46744 C 4341.73 2.99767 -5.32525 0
M  V30 46745 C 4342.73 2.73318 -6.25928 0
M  V30 46746 O 4342.41 2.65592 -7.5876 0
M  V30 46747 H 4342.15 0.501436 -0.453362 0
M  V30 46748 H 4344.7 1.01114 -1.78788 0
M  V30 46749 H 4342.93 3.55251 -1.52755 0
M  V30 46750 H 4344.62 3.56193 -1.94631 0
M  V30 46751 H 4345.38 2.46733 -4.1755 0
M  V30 46752 H 4341.26 3.27053 -3.24896 0
M  V30 46753 H 4344.81 2.33762 -6.57268 0
M  V30 46754 H 4340.7 3.14389 -5.63764 0
M  V30 46755 H 4341.47 2.81204 -7.68678 0
M  V30 46756 N 4344.14 1.19348 1.02926 0
M  V30 46757 C 4345.07 0.954565 2.13097 0
M  V30 46758 C 4346.05 -0.111935 1.69731 0
M  V30 46759 O 4347.23 0.0430059 1.94152 0
M  V30 46760 C 4344.36 0.492016 3.43797 0
M  V30 46761 C 4343.32 1.50031 4.00843 0
M  V30 46762 C 4342.64 0.894851 5.27159 0
M  V30 46763 C 4343.94 2.88042 4.35694 0
M  V30 46764 H 4345.64 1.87596 2.33341 0
M  V30 46765 H 4343.18 0.903386 1.12138 0
M  V30 46766 H 4345.13 0.312169 4.20242 0
M  V30 46767 H 4343.86 -0.464973 3.23273 0
M  V30 46768 H 4342.52 1.66729 3.26492 0
M  V30 46769 H 4342.17 -0.0696784 5.02952 0
M  V30 46770 H 4341.87 1.56815 5.66289 0
M  V30 46771 H 4343.39 0.725791 6.06271 0
M  V30 46772 H 4344.8 2.74929 5.03078 0
M  V30 46773 H 4343.2 3.52161 4.85904 0
M  V30 46774 H 4344.27 3.40726 3.45013 0
M  V30 46775 N 4345.61 -1.22028 0.997341 0
M  V30 46776 C 4346.86 -1.90517 0.674365 0
M  V30 46777 C 4347.18 -1.77989 -0.796551 0
M  V30 46778 O 4346.45 -1.16991 -1.57131 0
M  V30 46779 H 4345.03 -0.705178 0.246439 0
M  V30 46780 H 4347.69 -1.48286 1.2648 0
M  V30 46781 H 4346.79 -2.97583 0.940797 0
M  V30 46782 N 4347.09 -0.771099 -1.37448 0
M  V30 46783 C 4348.37 -0.259885 -1.93866 0
M  V30 46784 C 4348.75 1.24495 -1.70482 0
M  V30 46785 O 4348.1 2.02778 -1.05325 0
M  V30 46786 C 4348.31 -0.63257 -3.43219 0
M  V30 46787 C 4349.66 -0.601999 -4.20311 0
M  V30 46788 O 4350.68 -0.571921 -3.51579 0
M  V30 46789 O 4349.54 -0.6285 -5.42874 0
M  V30 46790 H 4346.63 -0.0597067 -0.824842 0
M  V30 46791 H 4349.18 -0.852408 -1.46738 0
M  V30 46792 H 4347.95 -1.67116 -3.53819 0
M  V30 46793 H 4347.57 -0.0129603 -3.97598 0
M  V30 46794 N 4348.57 1.48719 -0.521586 0
M  V30 46795 C 4349.48 2.33266 0.249806 0
M  V30 46796 C 4350.5 1.45955 0.947271 0
M  V30 46797 O 4351.67 1.78948 0.924094 0
M  V30 46798 C 4348.74 3.2188 1.28818 0
M  V30 46799 C 4347.8 4.25059 0.601966 0
M  V30 46800 C 4347.03 5.09438 1.59087 0
M  V30 46801 O 4347.25 4.95659 2.82273 0
M  V30 46802 O 4346.19 5.91104 1.13487 0
M  V30 46803 H 4350.01 3.00455 -0.442778 0
M  V30 46804 H 4347.6 1.46703 -0.282619 0
M  V30 46805 H 4349.48 3.76716 1.88846 0
M  V30 46806 H 4348.16 2.57362 1.96333 0
M  V30 46807 H 4347.06 3.7408 -0.0385913 0
M  V30 46808 H 4348.4 4.9219 -0.031087 0
M  V30 46809 N 4350.05 0.256331 1.55501 0
M  V30 46810 C 4351.46 -0.24504 1.85085 0
M  V30 46811 C 4351.81 -1.56881 1.17825 0
M  V30 46812 O 4350.94 -2.11456 0.459926 0
M  V30 46813 C 4351.53 -0.451385 3.3578 0
M  V30 46814 C 4350.09 -0.897007 3.65555 0
M  V30 46815 C 4349.24 0.0204432 2.77292 0
M  V30 46816 H 4352.19 0.478642 1.5131 0
M  V30 46817 H 4352.21 -1.29267 3.57869 0
M  V30 46818 H 4351.72 0.512238 3.84705 0
M  V30 46819 H 4349.82 -1.87277 3.22115 0
M  V30 46820 H 4349.93 -0.747339 4.73235 0
M  V30 46821 H 4348.3 -0.492593 2.49891 0
M  V30 46822 H 4349.08 0.979609 3.29027 0
M  V30 46823 N 4351.53 -1.57591 -0.0166602 0
M  V30 46824 C 4352.47 -2.08466 -1.03173 0
M  V30 46825 C 4353.47 -1.00105 -1.36657 0
M  V30 46826 O 4354.67 -1.18584 -1.35417 0
M  V30 46827 H 4351.05 -0.665426 -0.350304 0
M  V30 46828 H 4353.02 -2.92769 -0.576945 0
M  V30 46829 C 4351.77 -2.58965 -2.32019 0
M  V30 46830 H 4351.09 -3.41969 -2.07117 0
M  V30 46831 H 4352.53 -2.98258 -3.0136 0
M  V30 46832 C 4350.99 -1.49634 -3.01846 0
M  V30 46833 O 4351.52 -0.869668 -3.92173 0
M  V30 46834 N 4349.73 -1.22785 -2.63386 0
M  V30 46835 H 4349.27 -1.73929 -1.90017 0
M  V30 46836 H 4349.23 -0.498491 -3.10423 0
M  V30 46837 N 4353 0.289148 -1.54925 0
M  V30 46838 C 4353.95 1.35889 -1.8308 0
M  V30 46839 C 4354.94 1.45418 -0.688656 0
M  V30 46840 O 4356.13 1.49371 -0.949601 0
M  V30 46841 C 4353.26 2.72195 -2.09201 0
M  V30 46842 C 4352.35 2.66841 -3.29631 0
M  V30 46843 N 4352.74 2.31104 -4.49916 0
M  V30 46844 C 4351.03 2.97927 -3.31897 0
M  V30 46845 C 4351.74 2.35342 -5.31967 0
M  V30 46846 N 4350.71 2.73172 -4.69977 0
M  V30 46847 H 4354.51 1.07241 -2.73636 0
M  V30 46848 H 4352.03 0.497758 -1.54584 0
M  V30 46849 H 4354.02 3.49341 -2.27522 0
M  V30 46850 H 4352.68 3.01744 -1.19919 0
M  V30 46851 H 4353.7 2.03355 -4.76306 0
M  V30 46852 H 4350.37 3.32294 -2.52759 0
M  V30 46853 H 4351.76 2.1041 -6.38104 0
M  V30 46854 N 4354.48 1.47583 0.55291 0
M  V30 46855 C 4355.9 1.33196 0.879258 0
M  V30 46856 C 4356.1 0.325675 1.98851 0
M  V30 46857 O 4355.15 -0.261279 2.51145 0
M  V30 46858 C 4356.47 2.72638 1.26843 0
M  V30 46859 C 4358.02 2.80955 1.37962 0
M  V30 46860 C 4358.49 4.21047 1.80233 0
M  V30 46861 N 4359.98 4.23609 1.87376 0
M  V30 46862 C 4360.72 5.28924 2.21421 0
M  V30 46863 N 4360.21 6.44539 2.54049 0
M  V30 46864 N 4362.01 5.16304 2.22231 0
M  V30 46865 H 4354.16 2.11641 -0.179352 0
M  V30 46866 H 4356.42 0.947837 -0.0175761 0
M  V30 46867 H 4356.13 3.47727 0.527169 0
M  V30 46868 H 4356 3.04686 2.22365 0
M  V30 46869 H 4358.39 2.06135 2.11169 0
M  V30 46870 H 4358.47 2.52555 0.406169 0
M  V30 46871 H 4358.11 4.96373 1.07594 0
M  V30 46872 H 4358.04 4.46874 2.78588 0
M  V30 46873 H 4360.53 3.40204 1.6453 0
M  V30 46874 H 4360.85 7.20654 2.79066 0
M  V30 46875 H 4359.19 6.47852 2.5162 0
M  V30 46876 H 4362.38 4.25006 1.96183 0
M  V30 46877 H 4362.55 5.98485 2.48434 0
M  V30 46878 N 4355.96 -0.799985 1.35787 0
M  V30 46879 C 4356.92 -1.89375 1.29112 0
M  V30 46880 C 4357.92 -1.59537 0.201105 0
M  V30 46881 O 4359.11 -1.68147 0.455227 0
M  V30 46882 C 4356.25 -3.25936 0.998938 0
M  V30 46883 H 4357.44 -1.96711 2.26373 0
M  V30 46884 H 4354.99 -0.996597 1.20406 0
M  V30 46885 H 4355.73 -3.24286 0.0304641 0
M  V30 46886 H 4355.51 -3.48979 1.78762 0
M  V30 46887 H 4357 -4.05986 0.978012 0
M  V30 46888 N 4357.44 -1.19892 -1.02292 0
M  V30 46889 C 4358.37 -0.965853 -2.12588 0
M  V30 46890 C 4359.35 0.102932 -1.69788 0
M  V30 46891 O 4360.53 -0.0533017 -1.94127 0
M  V30 46892 C 4357.66 -0.510241 -3.43531 0
M  V30 46893 C 4356.62 -1.52155 -4.00041 0
M  V30 46894 C 4355.94 -0.922795 -5.26677 0
M  V30 46895 C 4357.24 -2.90349 -4.3416 0
M  V30 46896 H 4358.94 -1.8883 -2.32343 0
M  V30 46897 H 4356.48 -0.90932 -1.11657 0
M  V30 46898 H 4358.44 -0.334451 -4.20071 0
M  V30 46899 H 4357.16 0.447822 -3.23515 0
M  V30 46900 H 4355.82 -1.68459 -3.25603 0
M  V30 46901 H 4355.47 0.0430047 -5.02982 0
M  V30 46902 H 4355.17 -1.59816 -5.65449 0
M  V30 46903 H 4356.69 -0.757933 -6.05878 0
M  V30 46904 H 4358.11 -2.77593 -5.01613 0
M  V30 46905 H 4356.5 -3.54733 -4.8403 0
M  V30 46906 H 4357.57 -3.42551 -3.43201 0
M  V30 46907 N 4358.92 1.21498 -1.0038 0
M  V30 46908 C 4360.16 1.90815 -0.68683 0
M  V30 46909 C 4360.5 1.77833 0.780317 0
M  V30 46910 O 4359.77 1.1542 1.56551 0
M  V30 46911 C 4360.05 3.42659 -1.10711 0
M  V30 46912 C 4359.91 3.64638 -2.63362 0
M  V30 46913 C 4361.23 4.34992 -0.668583 0
M  V30 46914 H 4358.34 0.692946 -0.250989 0
M  V30 46915 H 4360.99 1.43155 -1.24927 0
M  V30 46916 H 4359.14 3.83381 -0.628563 0
M  V30 46917 H 4360.81 3.3325 -3.1897 0
M  V30 46918 H 4359.05 3.08545 -3.0493 0
M  V30 46919 H 4359.72 4.71024 -2.8782 0
M  V30 46920 H 4362.2 4.01845 -1.07979 0
M  V30 46921 H 4361.07 5.39883 -0.990828 0
M  V30 46922 H 4361.34 4.40001 0.430336 0
M  V30 46923 N 4360.39 0.778378 1.37037 0
M  V30 46924 C 4361.3 0.170083 2.33983 0
M  V30 46925 C 4362.32 -0.671874 1.60505 0
M  V30 46926 O 4363.5 -0.590245 1.92557 0
M  V30 46927 C 4360.56 -0.693669 3.3969 0
M  V30 46928 C 4359.62 0.16551 4.28981 0
M  V30 46929 C 4358.86 -0.657112 5.29639 0
M  V30 46930 O 4359.08 -1.8938 5.38044 0
M  V30 46931 O 4358.01 -0.0628197 6.01867 0
M  V30 46932 H 4361.84 0.971361 2.87747 0
M  V30 46933 H 4359.42 0.539645 1.39313 0
M  V30 46934 H 4361.31 -1.18656 4.0435 0
M  V30 46935 H 4359.98 -1.47302 2.88243 0
M  V30 46936 H 4358.89 0.704915 3.67399 0
M  V30 46937 H 4360.22 0.908108 4.8375 0
M  V30 46938 N 4361.87 -1.4844 0.529465 0
M  V30 46939 C 4363.29 -1.58497 0.187288 0
M  V30 46940 C 4363.49 -1.53153 -1.30944 0
M  V30 46941 O 4362.55 -1.42033 -2.08765 0
M  V30 46942 C 4363.86 -2.90154 0.789358 0
M  V30 46943 C 4365.41 -3.03682 0.758045 0
M  V30 46944 C 4365.88 -4.37999 1.33868 0
M  V30 46945 N 4367.37 -4.44565 1.30063 0
M  V30 46946 C 4368.11 -5.47001 1.7198 0
M  V30 46947 N 4367.6 -6.56395 2.21624 0
M  V30 46948 N 4369.4 -5.37881 1.6322 0
M  V30 46949 H 4361.55 -1.50156 1.50223 0
M  V30 46950 H 4363.81 -0.71295 0.624825 0
M  V30 46951 H 4363.52 -2.99719 1.84015 0
M  V30 46952 H 4363.39 -3.7626 0.266154 0
M  V30 46953 H 4365.78 -2.9373 -0.28398 0
M  V30 46954 H 4365.86 -2.19189 1.31871 0
M  V30 46955 H 4365.5 -4.48705 2.37963 0
M  V30 46956 H 4365.43 -5.21178 0.753702 0
M  V30 46957 H 4367.92 -3.66094 0.937207 0
M  V30 46958 H 4368.24 -7.30695 2.51604 0
M  V30 46959 H 4366.58 -6.5736 2.25617 0
M  V30 46960 H 4369.77 -4.51313 1.24234 0
M  V30 46961 H 4369.95 -6.17581 1.96208 0
M  V30 46962 N 4363.35 -0.264574 -1.55363 0
M  V30 46963 C 4364.63 0.406455 -1.9133 0
M  V30 46964 C 4365.01 1.74529 -1.18755 0
M  V30 46965 O 4364.36 2.26375 -0.310871 0
M  V30 46966 C 4364.57 0.557138 -3.44524 0
M  V30 46967 C 4365.91 0.8449 -4.16109 0
M  V30 46968 O 4366.94 0.642344 -3.5036 0
M  V30 46969 O 4365.8 1.23166 -5.3244 0
M  V30 46970 H 4362.89 0.220845 -0.796967 0
M  V30 46971 H 4365.44 -0.309948 -1.66845 0
M  V30 46972 H 4364.21 -0.385491 -3.89397 0
M  V30 46973 H 4363.83 1.32341 -3.74929 0
M  V30 46974 N 4364.83 1.57598 0.00830251 0
M  V30 46975 C 4366.07 1.92059 0.699478 0
M  V30 46976 C 4366.43 0.865308 1.71396 0
M  V30 46977 O 4367.63 1.0949 2.4549 0
M  V30 46978 C 4365.91 3.31603 1.33319 0
M  V30 46979 S 4367.46 3.87936 2.05064 0
M  V30 46980 H 4364.28 0.672343 0.231247 0
M  V30 46981 H 4366.88 1.95445 -0.0463915 0
M  V30 46982 H 4365.59 4.06254 0.581901 0
M  V30 46983 H 4365.12 3.31571 2.11717 0
M  V30 46984 H 4367.13 3.6834 3.32476 0
M  V30 46985 N 4366.31 -0.280928 1.55076 0
M  V30 46986 C 4367.27 -1.33026 1.86646 0
M  V30 46987 C 4368.27 -1.42734 0.740521 0
M  V30 46988 O 4369.46 -1.42022 1.00874 0
M  V30 46989 C 4366.59 -2.71264 2.06467 0
M  V30 46990 H 4367.79 -1.06268 2.80441 0
M  V30 46991 H 4365.34 -0.518605 1.47446 0
M  V30 46992 H 4366.07 -3.03215 1.15027 0
M  V30 46993 H 4365.86 -2.65605 2.88437 0
M  V30 46994 H 4367.35 -3.47097 2.32192 0
M  V30 46995 N 4367.79 -1.47874 -0.545076 0
M  V30 46996 C 4369.01 -1.58757 -1.32679 0
M  V30 46997 C 4369.43 -0.242205 -1.8724 0
M  V30 46998 O 4368.79 0.766357 -1.6563 0
M  V30 46999 C 4368.84 -2.62238 -2.48824 0
M  V30 47000 O 4368.56 -3.91553 -1.96515 0
M  V30 47001 C 4370.06 -2.8342 -3.40864 0
M  V30 47002 H 4367.28 -0.535729 -0.404023 0
M  V30 47003 H 4369.82 -1.93588 -0.659098 0
M  V30 47004 H 4367.98 -2.30308 -3.11507 0
M  V30 47005 H 4368.39 -4.482 -2.72428 0
M  V30 47006 H 4369.87 -3.59662 -4.18745 0
M  V30 47007 H 4370.34 -1.91686 -3.95162 0
M  V30 47008 H 4370.95 -3.16595 -2.83986 0
M  V30 47009 N 4369.26 0.792773 -1.36209 0
M  V30 47010 C 4370.51 1.54567 -1.29583 0
M  V30 47011 C 4370.83 1.95208 0.123738 0
M  V30 47012 O 4372.03 2.69697 0.312354 0
M  V30 47013 C 4370.49 2.7901 -2.27336 0
M  V30 47014 C 4370.1 2.45552 -3.74711 0
M  V30 47015 C 4371.84 3.56998 -2.2968 0
M  V30 47016 C 4369.75 3.66369 -4.64249 0
M  V30 47017 H 4368.68 0.580223 -0.481516 0
M  V30 47018 H 4371.33 0.870228 -1.61553 0
M  V30 47019 H 4369.71 3.48336 -1.88355 0
M  V30 47020 H 4370.88 1.84144 -4.22407 0
M  V30 47021 H 4369.2 1.80782 -3.75109 0
M  V30 47022 H 4371.8 4.46759 -2.93787 0
M  V30 47023 H 4372.14 3.95337 -1.30439 0
M  V30 47024 H 4372.67 2.94647 -2.6726 0
M  V30 47025 H 4369.41 3.33128 -5.6454 0
M  V30 47026 H 4368.93 4.26955 -4.21271 0
M  V30 47027 H 4370.61 4.33437 -4.80355 0
M  V30 47028 N 4370.74 1.20433 1.01654 0
M  V30 47029 C 4371.97 1.04015 1.78853 0
M  V30 47030 C 4372.38 -0.410629 1.8428 0
M  V30 47031 O 4371.74 -1.2851 1.29582 0
M  V30 47032 C 4371.79 1.61702 3.23318 0
M  V30 47033 O 4371.51 3.01102 3.18228 0
M  V30 47034 C 4373.01 1.50237 4.17066 0
M  V30 47035 H 4370.23 0.3659 0.562457 0
M  V30 47036 H 4372.78 1.59521 1.27958 0
M  V30 47037 H 4370.93 1.10315 3.71361 0
M  V30 47038 H 4371.35 3.28476 4.08905 0
M  V30 47039 H 4372.82 1.95361 5.16273 0
M  V30 47040 H 4373.3 0.454868 4.36838 0
M  V30 47041 H 4373.9 2.00815 3.74905 0
M  V30 47042 N 4372.22 -1.20963 1.01023 0
M  V30 47043 C 4373.17 -2.23521 0.575055 0
M  V30 47044 C 4374.14 -1.61172 -0.401581 0
M  V30 47045 O 4375.32 -1.88388 -0.302454 0
M  V30 47046 C 4372.46 -3.44991 -0.086922 0
M  V30 47047 C 4371.57 -4.21793 0.933516 0
M  V30 47048 C 4370.71 -5.30643 0.243257 0
M  V30 47049 C 4369.75 -5.99182 1.25089 0
M  V30 47050 N 4368.89 -6.99636 0.58774 0
M  V30 47051 H 4373.73 -2.60106 1.45427 0
M  V30 47052 H 4371.26 -1.27816 0.728113 0
M  V30 47053 H 4373.22 -4.14338 -0.487799 0
M  V30 47054 H 4371.85 -3.09118 -0.929826 0
M  V30 47055 H 4370.9 -3.51573 1.4526 0
M  V30 47056 H 4372.21 -4.68933 1.70011 0
M  V30 47057 H 4371.37 -6.06324 -0.213455 0
M  V30 47058 H 4370.11 -4.84524 -0.555696 0
M  V30 47059 H 4369.11 -5.22267 1.71805 0
M  V30 47060 H 4370.34 -6.47387 2.05101 0
M  V30 47061 H 4368.28 -6.55721 -0.19146 0
M  V30 47062 H 4368.2 -7.44869 1.2925 0
M  V30 47063 H 4369.47 -7.79347 0.154408 0
M  V30 47064 N 4373.7 -0.785634 -1.36622 0
M  V30 47065 C 4374.65 -0.169337 -2.31983 0
M  V30 47066 C 4375.64 0.669233 -1.5562 0
M  V30 47067 O 4376.85 0.56474 -1.70911 0
M  V30 47068 H 4373.22 -0.0359816 -0.751139 0
M  V30 47069 H 4375.19 -0.98912 -2.8153 0
M  V30 47070 C 4373.94 0.684413 -3.40897 0
M  V30 47071 H 4373.26 0.0485098 -3.99771 0
M  V30 47072 H 4374.7 1.08237 -4.09952 0
M  V30 47073 C 4373.16 1.84103 -2.82148 0
M  V30 47074 O 4373.69 2.93738 -2.74009 0
M  V30 47075 N 4371.9 1.64597 -2.39492 0
M  V30 47076 H 4371.45 0.754203 -2.46312 0
M  V30 47077 H 4371.4 2.42147 -2.0053 0
M  V30 47078 N 4375.18 1.48157 -0.53733 0
M  V30 47079 C 4376.4 2.06897 -0.0101846 0
M  V30 47080 C 4376.82 1.39286 1.27456 0
M  V30 47081 O 4376.18 0.482771 1.75999 0
M  V30 47082 C 4376.23 3.60891 0.209832 0
M  V30 47083 O 4375.95 4.25964 -1.02402 0
M  V30 47084 C 4377.45 4.36446 0.776525 0
M  V30 47085 H 4374.67 0.669988 -0.0368345 0
M  V30 47086 H 4377.21 1.90444 -0.745072 0
M  V30 47087 H 4375.37 3.76925 0.894789 0
M  V30 47088 H 4375.78 5.18218 -0.809322 0
M  V30 47089 H 4377.26 5.44943 0.879859 0
M  V30 47090 H 4377.73 4.01372 1.78317 0
M  V30 47091 H 4378.34 4.25108 0.1279 0
M  V30 47092 N 4376.65 0.272809 1.55221 0
M  V30 47093 C 4377.9 -0.345143 1.99841 0
M  V30 47094 C 4378.23 -1.55677 1.16096 0
M  V30 47095 O 4377.51 -1.9313 0.230475 0
M  V30 47096 C 4377.79 -0.729594 3.52631 0
M  V30 47097 C 4377.64 0.489217 4.47132 0
M  V30 47098 C 4378.96 -1.56691 4.11261 0
M  V30 47099 H 4376.08 -0.123976 0.726498 0
M  V30 47100 H 4378.72 0.379294 1.86176 0
M  V30 47101 H 4376.87 -1.34682 3.64408 0
M  V30 47102 H 4378.55 1.12777 4.47302 0
M  V30 47103 H 4376.79 1.1277 4.18886 0
M  V30 47104 H 4377.46 0.176493 5.51718 0
M  V30 47105 H 4379.94 -1.04565 4.02747 0
M  V30 47106 H 4378.81 -1.80472 5.18383 0
M  V30 47107 H 4379.07 -2.5472 3.61345 0
M  V30 47108 N 4378.13 -1.576 5.54043e-05 0
M  V30 47109 C 4379.06 -2.05277 -1.01951 0
M  V30 47110 C 4380.08 -0.970708 -1.30695 0
M  V30 47111 O 4381.27 -1.2475 -1.2767 0
M  V30 47112 C 4378.37 -2.4378 -2.35425 0
M  V30 47113 C 4377.54 -3.74719 -2.2562 0
M  V30 47114 C 4376.6 -4.00089 -3.41782 0
M  V30 47115 O 4375.62 -4.70754 -3.19967 0
M  V30 47116 N 4376.83 -3.47989 -4.64633 0
M  V30 47117 H 4379.59 -2.93366 -0.612922 0
M  V30 47118 H 4377.15 -1.60813 -0.187327 0
M  V30 47119 H 4379.14 -2.57866 -3.11909 0
M  V30 47120 H 4377.71 -1.6121 -2.67825 0
M  V30 47121 H 4376.93 -3.70709 -1.34046 0
M  V30 47122 H 4378.22 -4.60562 -2.16241 0
M  V30 47123 H 4377.62 -2.90765 -4.85255 0
M  V30 47124 H 4376.18 -3.67405 -5.38383 0
M  V30 47125 N 4379.61 0.2727 -1.55223 0
M  V30 47126 C 4380.86 1.00426 -1.75843 0
M  V30 47127 C 4381.19 1.86273 -0.559695 0
M  V30 47128 O 4380.44 1.9027 0.45779 0
M  V30 47129 C 4380.74 1.91632 -3.01682 0
M  V30 47130 C 4380.41 1.21533 -4.34213 0
M  V30 47131 C 4379.07 1.0215 -4.70233 0
M  V30 47132 C 4381.42 0.716503 -5.16252 0
M  V30 47133 C 4378.75 0.316128 -5.85848 0
M  V30 47134 C 4381.1 0.0247252 -6.32595 0
M  V30 47135 C 4379.76 -0.180814 -6.67255 0
M  V30 47136 H 4379.03 0.367486 -0.643455 0
M  V30 47137 H 4381.68 0.27653 -1.89493 0
M  V30 47138 H 4379.99 2.71027 -2.82934 0
M  V30 47139 H 4381.68 2.48357 -3.14833 0
M  V30 47140 H 4378.27 1.37631 -4.05901 0
M  V30 47141 H 4382.46 0.853875 -4.88899 0
M  V30 47142 H 4377.71 0.146163 -6.11225 0
M  V30 47143 H 4381.89 -0.369555 -6.95419 0
M  V30 47144 H 4379.51 -0.729364 -7.56693 0
M  V30 47145 N 4381.09 1.48161 0.537226 0
M  V30 47146 C 4382.02 1.65034 1.65184 0
M  V30 47147 C 4383 0.499338 1.62606 0
M  V30 47148 O 4384.18 0.731035 1.79915 0
M  V30 47149 C 4381.31 1.68313 3.03789 0
M  V30 47150 C 4380.27 2.82842 3.21224 0
M  V30 47151 C 4379.59 2.71205 4.60817 0
M  V30 47152 C 4380.89 4.24221 3.04686 0
M  V30 47153 H 4382.59 2.58347 1.51318 0
M  V30 47154 H 4380.13 1.24328 0.726541 0
M  V30 47155 H 4382.09 1.78707 3.81631 0
M  V30 47156 H 4380.81 0.715747 3.18661 0
M  V30 47157 H 4379.47 2.71991 2.45797 0
M  V30 47158 H 4379.12 1.72451 4.72514 0
M  V30 47159 H 4378.82 3.48051 4.73428 0
M  V30 47160 H 4380.34 2.83556 5.40767 0
M  V30 47161 H 4381.76 4.35943 3.72326 0
M  V30 47162 H 4380.15 5.0201 3.28795 0
M  V30 47163 H 4381.22 4.41191 2.01194 0
M  V30 47164 N 4382.57 -0.785538 1.36627 0
M  V30 47165 C 4383.51 -1.89833 1.3127 0
M  V30 47166 C 4384.48 -1.65114 0.180691 0
M  V30 47167 O 4385.67 -1.87221 0.367835 0
M  V30 47168 C 4382.81 -3.26702 1.11174 0
M  V30 47169 C 4381.92 -3.63468 2.33485 0
M  V30 47170 C 4381.06 -4.89474 2.0637 0
M  V30 47171 C 4380.1 -5.1893 3.24621 0
M  V30 47172 N 4379.23 -6.3612 2.97145 0
M  V30 47173 H 4384.07 -1.93748 2.26419 0
M  V30 47174 H 4381.61 -0.947415 1.12528 0
M  V30 47175 H 4383.57 -4.05636 0.97548 0
M  V30 47176 H 4382.2 -3.222 0.196787 0
M  V30 47177 H 4381.25 -2.79627 2.57901 0
M  V30 47178 H 4382.56 -3.81182 3.21717 0
M  V30 47179 H 4381.72 -5.76282 1.89696 0
M  V30 47180 H 4380.45 -4.73837 1.15454 0
M  V30 47181 H 4379.46 -4.30603 3.41849 0
M  V30 47182 H 4380.68 -5.36484 4.16368 0
M  V30 47183 H 4378.63 -6.21868 2.08845 0
M  V30 47184 H 4378.55 -6.54185 3.78917 0
M  V30 47185 H 4379.82 -7.259 2.84059 0
M  V30 47186 N 4384.04 -1.20971 -1.01014 0
M  V30 47187 C 4384.98 -0.907652 -2.09373 0
M  V30 47188 C 4385.96 0.142811 -1.61972 0
M  V30 47189 O 4387.14 0.0149728 -1.88494 0
M  V30 47190 C 4384.27 -0.361909 -3.36761 0
M  V30 47191 C 4383.31 -1.39437 -4.03063 0
M  V30 47192 S 4384.15 -2.96174 -4.4614 0
M  V30 47193 C 4385.3 -2.43193 -5.76722 0
M  V30 47194 H 4385.53 -1.82528 -2.34672 0
M  V30 47195 H 4383.07 -1.03888 -1.14222 0
M  V30 47196 H 4385.03 -0.0535966 -4.10465 0
M  V30 47197 H 4383.69 0.534321 -3.09522 0
M  V30 47198 H 4382.88 -0.962026 -4.94733 0
M  V30 47199 H 4382.48 -1.6505 -3.35611 0
M  V30 47200 H 4384.77 -1.83358 -6.52216 0
M  V30 47201 H 4385.72 -3.33286 -6.24761 0
M  V30 47202 H 4386.12 -1.85087 -5.33294 0
M  V30 47203 N 4385.52 1.20426 -1.01663 0
M  V30 47204 C 4386.47 2.23213 -0.5869 0
M  V30 47205 C 4387.44 1.61383 0.393028 0
M  V30 47206 O 4388.62 1.88545 0.292459 0
M  V30 47207 C 4385.76 3.45032 0.0686251 0
M  V30 47208 C 4384.88 4.21292 -0.955872 0
M  V30 47209 C 4384.01 5.30506 -0.271395 0
M  V30 47210 C 4383.05 5.9851 -1.28265 0
M  V30 47211 N 4382.19 6.99314 -0.624835 0
M  V30 47212 H 4387.03 2.59331 -1.46805 0
M  V30 47213 H 4384.57 1.27428 -0.734881 0
M  V30 47214 H 4386.52 4.14591 0.465819 0
M  V30 47215 H 4385.15 3.09607 0.91342 0
M  V30 47216 H 4384.21 3.50798 -1.47123 0
M  V30 47217 H 4385.52 4.68024 -1.72495 0
M  V30 47218 H 4384.67 6.06429 0.181297 0
M  V30 47219 H 4383.41 4.84812 0.529993 0
M  V30 47220 H 4382.42 5.21349 -1.74573 0
M  V30 47221 H 4383.64 6.46291 -2.08531 0
M  V30 47222 H 4381.59 6.55813 0.156683 0
M  V30 47223 H 4381.5 7.44173 -1.33199 0
M  V30 47224 H 4382.77 7.79254 -0.195736 0
M  V30 47225 N 4387 0.792868 1.36203 0
M  V30 47226 C 4387.95 0.191734 2.30002 0
M  V30 47227 C 4388.92 -0.666399 1.52146 0
M  V30 47228 O 4390.1 -0.614357 1.80639 0
M  V30 47229 C 4387.24 -0.664729 3.38638 0
M  V30 47230 C 4386.36 0.212326 4.31478 0
M  V30 47231 C 4385.49 -0.650836 5.27198 0
M  V30 47232 C 4384.53 0.227462 6.11677 0
M  V30 47233 N 4383.67 -0.594881 6.99575 0
M  V30 47234 H 4388.51 0.997076 2.80824 0
M  V30 47235 H 4386.04 0.503255 1.38224 0
M  V30 47236 H 4388 -1.17631 4.00273 0
M  V30 47237 H 4386.63 -1.43547 2.89127 0
M  V30 47238 H 4385.68 0.841907 3.70966 0
M  V30 47239 H 4387 0.888923 4.90815 0
M  V30 47240 H 4386.15 -1.22809 5.9414 0
M  V30 47241 H 4384.89 -1.36105 4.68323 0
M  V30 47242 H 4383.89 0.817095 5.43694 0
M  V30 47243 H 4385.12 0.935326 6.72628 0
M  V30 47244 H 4383.06 -1.28932 6.43205 0
M  V30 47245 H 4382.98 0.0239609 7.55996 0
M  V30 47246 H 4384.25 -1.15586 7.70883 0
M  V30 47247 N 4388.48 -1.4787 0.54518 0
M  V30 47248 C 4389.73 -2.02093 0.0166241 0
M  V30 47249 C 4390.05 -1.4231 -1.33315 0
M  V30 47250 O 4389.32 -0.593919 -1.8668 0
M  V30 47251 H 4387.9 -0.746993 0.00315664 0
M  V30 47252 H 4390.56 -1.81411 0.712461 0
M  V30 47253 H 4389.66 -3.11996 -0.0804325 0
M  V30 47254 N 4389.96 -0.281037 -1.55074 0
M  V30 47255 C 4391.2 0.335163 -2.01633 0
M  V30 47256 C 4391.56 1.52606 -1.16513 0
M  V30 47257 O 4392.76 2.21229 -1.52679 0
M  V30 47258 C 4391.03 0.702049 -3.50437 0
M  V30 47259 S 4392.59 1.30394 -4.18978 0
M  V30 47260 H 4389.41 0.103943 -0.703361 0
M  V30 47261 H 4392.01 -0.404254 -1.91275 0
M  V30 47262 H 4390.72 -0.173474 -4.10033 0
M  V30 47263 H 4390.25 1.47277 -3.64792 0
M  V30 47264 H 4392.26 2.59238 -4.23096 0
M  V30 47265 N 4391.44 1.57598 -0.00841331 0
M  V30 47266 C 4392.4 2.07887 0.965169 0
M  V30 47267 C 4393.4 0.989869 1.26721 0
M  V30 47268 O 4394.59 1.25222 1.21099 0
M  V30 47269 C 4391.72 2.52739 2.2877 0
M  V30 47270 H 4392.91 2.95179 0.530009 0
M  V30 47271 H 4390.47 1.54458 0.239229 0
M  V30 47272 H 4391.2 1.68715 2.76958 0
M  V30 47273 H 4390.99 3.32279 2.08166 0
M  V30 47274 H 4392.48 2.91943 2.98595 0
M  V30 47275 N 4392.91 -0.264465 1.55365 0
M  V30 47276 C 4394.16 -0.994924 1.76373 0
M  V30 47277 C 4394.49 -1.85974 0.569565 0
M  V30 47278 O 4393.74 -1.9051 -0.447693 0
M  V30 47279 C 4394.04 -1.90029 3.02694 0
M  V30 47280 C 4393.71 -1.19228 4.34851 0
M  V30 47281 C 4392.37 -0.996544 4.70768 0
M  V30 47282 C 4394.72 -0.689115 5.16624 0
M  V30 47283 C 4392.05 -0.285055 5.86007 0
M  V30 47284 C 4394.4 0.00882318 6.32599 0
M  V30 47285 C 4393.07 0.216197 6.6715 0
M  V30 47286 H 4392.34 -0.364069 0.645395 0
M  V30 47287 H 4394.98 -0.266476 1.89637 0
M  V30 47288 H 4393.29 -2.69523 2.84367 0
M  V30 47289 H 4394.99 -2.46684 3.16145 0
M  V30 47290 H 4391.58 -1.35476 4.06625 0
M  V30 47291 H 4395.76 -0.827936 4.89345 0
M  V30 47292 H 4391.02 -0.113746 6.11294 0
M  V30 47293 H 4395.19 0.40643 6.95213 0
M  V30 47294 H 4392.82 0.769483 7.56296 0
M  V30 47295 N 4394.39 -1.48444 -0.529361 0
M  V30 47296 C 4395.62 -1.60155 -1.30988 0
M  V30 47297 C 4396.03 -0.26205 -1.86973 0
M  V30 47298 O 4395.39 0.748747 -1.66433 0
M  V30 47299 C 4395.44 -2.64863 -2.46028 0
M  V30 47300 O 4395.16 -3.93615 -1.92351 0
M  V30 47301 C 4396.66 -2.87019 -3.37839 0
M  V30 47302 H 4393.88 -0.539985 -0.398319 0
M  V30 47303 H 4396.43 -1.94276 -0.638529 0
M  V30 47304 H 4394.58 -2.33599 -3.09047 0
M  V30 47305 H 4395 -4.51064 -2.67659 0
M  V30 47306 H 4396.47 -3.64083 -4.14907 0
M  V30 47307 H 4396.95 -1.95866 -3.93107 0
M  V30 47308 H 4397.55 -3.19589 -2.80612 0
M  V30 47309 N 4395.87 0.778281 -1.37042 0
M  V30 47310 C 4397.1 1.56502 -1.34873 0
M  V30 47311 C 4397.51 1.89073 0.0694138 0
M  V30 47312 O 4396.85 1.51438 1.03982 0
M  V30 47313 C 4396.91 2.90633 -2.11595 0
M  V30 47314 C 4396.58 2.80733 -3.60608 0
M  V30 47315 C 4397.57 2.5221 -4.54627 0
M  V30 47316 C 4395.26 2.9896 -4.03644 0
M  V30 47317 C 4397.25 2.42033 -5.8966 0
M  V30 47318 C 4394.94 2.88404 -5.38764 0
M  V30 47319 C 4395.94 2.5998 -6.31585 0
M  V30 47320 O 4395.63 2.49438 -7.64222 0
M  V30 47321 H 4395.36 0.491707 -0.463897 0
M  V30 47322 H 4397.91 0.972989 -1.80892 0
M  V30 47323 H 4396.14 3.5193 -1.60256 0
M  V30 47324 H 4397.83 3.51985 -2.02143 0
M  V30 47325 H 4398.6 2.3782 -4.2269 0
M  V30 47326 H 4394.48 3.20087 -3.3176 0
M  V30 47327 H 4398.02 2.19768 -6.62078 0
M  V30 47328 H 4393.92 3.0236 -5.70306 0
M  V30 47329 H 4394.68 2.64836 -7.7447 0
M  V30 47330 N 4397.35 1.21505 1.00371 0
M  V30 47331 C 4398.62 0.941805 1.71433 0
M  V30 47332 C 4399 -0.546042 2.03916 0
M  V30 47333 O 4398.35 -1.51122 1.71389 0
M  V30 47334 C 4398.56 1.82822 2.97283 0
M  V30 47335 C 4399.91 2.07784 3.70285 0
M  V30 47336 O 4400.93 1.80182 3.07267 0
M  V30 47337 O 4399.79 2.54473 4.83638 0
M  V30 47338 H 4396.89 0.353269 0.74775 0
M  V30 47339 H 4399.43 1.3244 1.06103 0
M  V30 47340 H 4398.21 2.83511 2.69699 0
M  V30 47341 H 4397.83 1.44653 3.70353 0
M  V30 47342 N 4398.83 -1.19885 1.023 0
M  V30 47343 C 4399.76 -2.25139 0.619253 0
M  V30 47344 C 4400.74 -1.66053 -0.368857 0
M  V30 47345 O 4401.92 -1.92547 -0.252873 0
M  V30 47346 C 4399.05 -3.47281 -0.0367562 0
M  V30 47347 C 4398.01 -4.19002 0.873012 0
M  V30 47348 C 4397.33 -5.34636 0.0824281 0
M  V30 47349 C 4398.63 -4.74444 2.18404 0
M  V30 47350 H 4400.33 -2.59166 1.49912 0
M  V30 47351 H 4397.87 -1.24577 0.722266 0
M  V30 47352 H 4399.82 -4.201 -0.330811 0
M  V30 47353 H 4398.55 -3.12436 -0.95138 0
M  V30 47354 H 4397.21 -3.48057 1.15117 0
M  V30 47355 H 4396.86 -4.96037 -0.834046 0
M  V30 47356 H 4396.56 -5.83554 0.688354 0
M  V30 47357 H 4398.08 -6.10256 -0.205023 0
M  V30 47358 H 4399.49 -5.39048 1.95191 0
M  V30 47359 H 4397.89 -5.33825 2.74137 0
M  V30 47360 H 4398.96 -3.92834 2.8427 0
M  V30 47361 N 4400.3 -0.80008 -1.35781 0
M  V30 47362 C 4401.53 -0.389678 -2.03197 0
M  V30 47363 C 4401.95 0.997318 -1.60309 0
M  V30 47364 O 4401.3 1.64151 -0.797539 0
M  V30 47365 C 4401.35 -0.455981 -3.58613 0
M  V30 47366 O 4401.08 -1.78829 -3.9994 0
M  V30 47367 C 4402.58 -0.0375591 -4.43284 0
M  V30 47368 H 4399.8 -0.159155 -0.651852 0
M  V30 47369 H 4402.34 -1.08189 -1.73538 0
M  V30 47370 H 4400.5 0.187921 -3.86944 0
M  V30 47371 H 4400.91 -1.74653 -4.94567 0
M  V30 47372 H 4402.38 -0.135076 -5.51835 0
M  V30 47373 H 4402.86 1.01635 -4.27278 0
M  V30 47374 H 4403.47 -0.654363 -4.20236 0
M  V30 47375 N 4401.78 1.47579 -0.553014 0
M  V30 47376 C 4403.03 2.01684 -0.0252704 0
M  V30 47377 C 4403.34 1.43322 1.3311 0
M  V30 47378 O 4404.55 1.89064 1.94851 0
M  V30 47379 C 4403.01 3.599 0.00529399 0
M  V30 47380 C 4402.61 4.27252 -1.34757 0
M  V30 47381 C 4404.36 4.2177 0.480651 0
M  V30 47382 C 4402.26 5.77463 -1.27635 0
M  V30 47383 H 4401.19 0.753979 -0.00567684 0
M  V30 47384 H 4403.85 1.69614 -0.70024 0
M  V30 47385 H 4402.23 3.88913 0.745824 0
M  V30 47386 H 4403.4 4.09885 -2.10549 0
M  V30 47387 H 4401.72 3.77352 -1.76052 0
M  V30 47388 H 4404.31 5.3184 0.552273 0
M  V30 47389 H 4404.66 3.88657 1.4917 0
M  V30 47390 H 4405.19 3.97272 -0.204892 0
M  V30 47391 H 4401.93 6.15188 -2.26326 0
M  V30 47392 H 4401.45 5.97178 -0.56017 0
M  V30 47393 H 4403.13 6.39586 -0.976645 0
M  V30 47394 N 4403.26 0.289257 1.54923 0
M  V30 47395 C 4404.48 -0.329227 2.0477 0
M  V30 47396 C 4404.91 -1.47626 1.16569 0
M  V30 47397 O 4404.27 -1.80527 0.16725 0
M  V30 47398 C 4404.32 -0.774314 3.52189 0
M  V30 47399 O 4403.42 -1.88025 3.67043 0
M  V30 47400 H 4402.76 -0.0659026 0.660721 0
M  V30 47401 H 4405.29 0.42768 2.0008 0
M  V30 47402 H 4405.3 -1.06628 3.9382 0
M  V30 47403 H 4403.98 0.0648169 4.15849 0
M  V30 47404 H 4402.55 -1.58973 3.37316 0
M  V30 47405 N 4404.74 -1.57591 0.016771 0
M  V30 47406 C 4405.69 -2.10608 -0.987279 0
M  V30 47407 C 4406.68 -1.02982 -1.34503 0
M  V30 47408 O 4407.89 -1.2143 -1.32871 0
M  V30 47409 H 4404.26 -0.672707 -0.33611 0
M  V30 47410 H 4406.23 -2.93927 -0.514714 0
M  V30 47411 C 4404.98 -2.63828 -2.26473 0
M  V30 47412 H 4404.3 -3.46285 -1.99817 0
M  V30 47413 H 4405.74 -3.04583 -2.94966 0
M  V30 47414 C 4404.2 -1.56003 -2.98605 0
M  V30 47415 O 4404.73 -0.952659 -3.9024 0
M  V30 47416 N 4402.94 -1.28344 -2.60723 0
M  V30 47417 H 4402.49 -1.77921 -1.86285 0
M  V30 47418 H 4402.44 -0.564224 -3.09296 0
M  V30 47419 N 4406.22 0.256222 -1.55503 0
M  V30 47420 C 4407.15 1.32095 -1.92544 0
M  V30 47421 C 4408.13 1.50681 -0.789247 0
M  V30 47422 O 4409.31 1.63445 -1.04877 0
M  V30 47423 C 4406.44 2.67744 -2.21202 0
M  V30 47424 C 4405.4 2.63866 -3.36985 0
M  V30 47425 C 4404.72 4.03224 -3.51162 0
M  V30 47426 C 4406.02 2.21665 -4.72929 0
M  V30 47427 H 4407.72 1.01341 -2.81727 0
M  V30 47428 H 4405.26 0.486057 -1.35549 0
M  V30 47429 H 4407.22 3.42357 -2.45703 0
M  V30 47430 H 4405.94 3.00115 -1.28835 0
M  V30 47431 H 4404.6 1.91712 -3.12478 0
M  V30 47432 H 4404.25 4.32845 -2.56231 0
M  V30 47433 H 4403.95 4.0152 -4.29017 0
M  V30 47434 H 4405.47 4.7955 -3.77974 0
M  V30 47435 H 4406.88 2.86006 -4.96864 0
M  V30 47436 H 4405.28 2.31091 -5.5382 0
M  V30 47437 H 4406.35 1.16817 -4.70619 0
M  V30 47438 N 4407.69 1.48722 0.521481 0
M  V30 47439 C 4408.92 1.60848 1.30137 0
M  V30 47440 C 4409.34 0.271962 1.86831 0
M  V30 47441 O 4408.69 -0.73991 1.66828 0
M  V30 47442 C 4408.75 2.66164 2.4462 0
M  V30 47443 O 4408.47 3.9463 1.90261 0
M  V30 47444 C 4409.97 2.88807 3.36312 0
M  V30 47445 H 4407.19 0.542089 0.395449 0
M  V30 47446 H 4409.73 1.94612 0.628217 0
M  V30 47447 H 4407.89 2.35235 3.07804 0
M  V30 47448 H 4408.3 4.52477 2.65263 0
M  V30 47449 H 4409.77 3.66278 4.1297 0
M  V30 47450 H 4410.25 1.97948 3.92063 0
M  V30 47451 H 4410.86 3.21073 2.78913 0
M  V30 47452 N 4409.17 -0.771003 1.37453 0
M  V30 47453 C 4410.59 -1.07166 1.18269 0
M  V30 47454 C 4410.79 -2.01491 0.0193578 0
M  V30 47455 O 4409.84 -2.44246 -0.640323 0
M  V30 47456 C 4411.16 -1.66845 2.50166 0
M  V30 47457 C 4412.71 -1.79099 2.56695 0
M  V30 47458 C 4413.18 -2.42192 3.88725 0
M  V30 47459 N 4414.67 -2.49641 3.90171 0
M  V30 47460 C 4415.41 -2.99312 4.8908 0
M  V30 47461 N 4414.9 -3.49151 5.98386 0
M  V30 47462 N 4416.7 -2.98194 4.76484 0
M  V30 47463 H 4408.85 -0.144722 2.11906 0
M  V30 47464 H 4411.11 -0.12683 0.939478 0
M  V30 47465 H 4410.82 -1.05006 3.35659 0
M  V30 47466 H 4410.69 -2.66131 2.67309 0
M  V30 47467 H 4413.08 -2.40071 1.71609 0
M  V30 47468 H 4413.16 -0.785671 2.43436 0
M  V30 47469 H 4412.8 -1.81859 4.74226 0
M  V30 47470 H 4412.73 -3.43331 3.99288 0
M  V30 47471 H 4415.22 -2.14372 3.11212 0
M  V30 47472 H 4415.54 -3.85456 6.69808 0
M  V30 47473 H 4413.88 -3.47254 6.0203 0
M  V30 47474 H 4417.07 -2.58558 3.90212 0
M  V30 47475 H 4417.24 -3.36594 5.53723 0
M  V30 47476 N 4410.65 -1.22035 -0.997255 0
M  V30 47477 C 4411.58 -1.01073 -2.10491 0
M  V30 47478 C 4412.56 0.0668944 -1.69968 0
M  V30 47479 O 4413.75 -0.0944669 -1.9397 0
M  V30 47480 C 4410.88 -0.582994 -3.42372 0
M  V30 47481 C 4409.83 -1.60606 -3.96724 0
M  V30 47482 C 4409.16 -1.0343 -5.24601 0
M  V30 47483 C 4410.46 -2.99493 -4.27904 0
M  V30 47484 H 4412.15 -1.93716 -2.28286 0
M  V30 47485 H 4409.7 -0.932799 -1.09703 0
M  V30 47486 H 4411.65 -0.423479 -4.19267 0
M  V30 47487 H 4410.37 0.379099 -3.24392 0
M  V30 47488 H 4409.03 -1.75327 -3.21956 0
M  V30 47489 H 4408.68 -0.0636948 -5.0296 0
M  V30 47490 H 4408.38 -1.71774 -5.61932 0
M  V30 47491 H 4409.9 -0.886278 -6.04134 0
M  V30 47492 H 4411.32 -2.8817 -4.95612 0
M  V30 47493 H 4409.72 -3.6492 -4.76396 0
M  V30 47494 H 4410.79 -3.49754 -3.35858 0
M  V30 47495 N 4412.13 1.19341 -1.02934 0
M  V30 47496 C 4413.38 1.88361 -0.721322 0
M  V30 47497 C 4413.69 1.80517 0.753191 0
M  V30 47498 O 4414.9 2.44792 1.17428 0
M  V30 47499 C 4413.35 3.37868 -1.2399 0
M  V30 47500 C 4412.96 3.54268 -2.74223 0
M  V30 47501 C 4414.7 4.12361 -1.00789 0
M  V30 47502 C 4412.61 4.9767 -3.19497 0
M  V30 47503 H 4411.54 0.705475 -0.266123 0
M  V30 47504 H 4414.19 1.34924 -1.2437 0
M  V30 47505 H 4412.57 3.90705 -0.645437 0
M  V30 47506 H 4413.75 3.11757 -3.39329 0
M  V30 47507 H 4412.06 2.93164 -2.95709 0
M  V30 47508 H 4414.66 5.18115 -1.32142 0
M  V30 47509 H 4415 4.16263 0.0552845 0
M  V30 47510 H 4415.54 3.65663 -1.56638 0
M  V30 47511 H 4412.28 4.98931 -4.25145 0
M  V30 47512 H 4411.8 5.40941 -2.59119 0
M  V30 47513 H 4413.47 5.66326 -3.12865 0
M  V30 47514 N 4413.61 0.80727 1.35355 0
M  V30 47515 C 4414.52 0.219676 2.33569 0
M  V30 47516 C 4415.53 -0.637677 1.61894 0
M  V30 47517 O 4416.71 -0.549268 1.93765 0
M  V30 47518 C 4413.77 -0.62146 3.41085 0
M  V30 47519 C 4412.83 0.256465 4.28533 0
M  V30 47520 C 4412.07 -0.54462 5.30914 0
M  V30 47521 O 4412.29 -1.77925 5.4194 0
M  V30 47522 O 4411.22 0.0648594 6.01865 0
M  V30 47523 H 4415.05 1.03218 2.85622 0
M  V30 47524 H 4412.64 0.569074 1.38137 0
M  V30 47525 H 4414.52 -1.10053 4.06776 0
M  V30 47526 H 4413.19 -1.41155 2.91302 0
M  V30 47527 H 4412.1 0.782687 3.65821 0
M  V30 47528 H 4413.43 1.01051 4.81715 0
M  V30 47529 N 4415.08 -1.47283 0.560833 0
M  V30 47530 C 4416.01 -2.32858 -0.173023 0
M  V30 47531 C 4417 -1.44012 -0.90523 0
M  V30 47532 O 4418.18 -1.72863 -0.884985 0
M  V30 47533 C 4415.31 -3.25865 -1.20121 0
M  V30 47534 C 4414.26 -4.2398 -0.585238 0
M  V30 47535 C 4413.59 -5.06338 -1.71832 0
M  V30 47536 C 4414.89 -5.20241 0.463361 0
M  V30 47537 H 4416.58 -2.94464 0.541411 0
M  V30 47538 H 4414.13 -1.416 0.261814 0
M  V30 47539 H 4416.08 -3.84575 -1.72279 0
M  V30 47540 H 4414.81 -2.62321 -1.94564 0
M  V30 47541 H 4413.47 -3.66502 -0.0849252 0
M  V30 47542 H 4413.11 -4.39195 -2.45188 0
M  V30 47543 H 4412.81 -5.72767 -1.31193 0
M  V30 47544 H 4414.34 -5.67906 -2.24309 0
M  V30 47545 H 4415.75 -5.73293 0.0277035 0
M  V30 47546 H 4414.15 -5.94893 0.788836 0
M  V30 47547 H 4415.22 -4.65499 1.3579 0
M  V30 47548 N 4416.56 -0.297469 -1.54767 0
M  V30 47549 C 4417.81 0.313306 -2.00365 0
M  V30 47550 C 4418.14 1.5381 -1.18558 0
M  V30 47551 O 4417.42 1.92739 -0.261171 0
M  V30 47552 C 4417.7 0.673401 -3.53748 0
M  V30 47553 C 4417.55 -0.56029 -4.46297 0
M  V30 47554 C 4418.87 1.50128 -4.13702 0
M  V30 47555 H 4415.99 0.112403 -0.728378 0
M  V30 47556 H 4418.63 -0.408865 -1.85549 0
M  V30 47557 H 4416.78 1.28868 -3.66504 0
M  V30 47558 H 4418.45 -1.19879 -4.45451 0
M  V30 47559 H 4416.7 -1.1942 -4.17039 0
M  V30 47560 H 4417.37 -0.264244 -5.51367 0
M  V30 47561 H 4419.84 0.981446 -4.0436 0
M  V30 47562 H 4418.72 1.72203 -5.21189 0
M  V30 47563 H 4418.98 2.48939 -3.65352 0
M  V30 47564 N 4418.04 1.5758 -0.0251282 0
M  V30 47565 C 4418.99 2.06472 0.967128 0
M  V30 47566 C 4419.97 0.964422 1.28793 0
M  V30 47567 O 4421.17 1.22801 1.27471 0
M  V30 47568 C 4418.3 2.59211 2.25088 0
M  V30 47569 C 4417.38 3.76164 1.95861 0
M  V30 47570 N 4417.77 4.86924 1.36888 0
M  V30 47571 C 4416.07 3.84574 2.25874 0
M  V30 47572 C 4416.77 5.68176 1.24704 0
M  V30 47573 N 4415.75 5.1496 1.7412 0
M  V30 47574 H 4419.55 2.8951 0.506074 0
M  V30 47575 H 4417.06 1.614 0.179983 0
M  V30 47576 H 4419.06 2.92527 2.97041 0
M  V30 47577 H 4417.72 1.77601 2.71823 0
M  V30 47578 H 4418.73 5.0726 1.04441 0
M  V30 47579 H 4415.41 3.13864 2.7531 0
M  V30 47580 H 4416.8 6.67223 0.791371 0
M  V30 47581 N 4419.52 -0.247971 1.55637 0
M  V30 47582 C 4420.93 -0.596431 1.48037 0
M  V30 47583 C 4421.13 -1.88384 0.715106 0
M  V30 47584 O 4420.19 -2.51318 0.244032 0
M  V30 47585 C 4421.5 -0.700155 2.92435 0
M  V30 47586 C 4423.05 -0.792553 3.028 0
M  V30 47587 C 4423.53 -0.927847 4.48503 0
M  V30 47588 N 4425.02 -0.992744 4.52437 0
M  V30 47589 C 4425.75 -1.11667 5.62421 0
M  V30 47590 N 4425.25 -1.20621 6.82219 0
M  V30 47591 N 4427.04 -1.14975 5.50216 0
M  V30 47592 H 4419.19 0.597181 2.03832 0
M  V30 47593 H 4421.46 0.205958 0.925357 0
M  V30 47594 H 4421.16 0.175781 3.5126 0
M  V30 47595 H 4421.04 -1.57243 3.42862 0
M  V30 47596 H 4423.42 -1.65894 2.44056 0
M  V30 47597 H 4423.5 0.104852 2.55585 0
M  V30 47598 H 4423.15 -0.0660186 5.07857 0
M  V30 47599 H 4423.08 -1.84028 4.93398 0
M  V30 47600 H 4425.57 -0.934935 3.66152 0
M  V30 47601 H 4425.88 -1.29981 7.6179 0
M  V30 47602 H 4424.23 -1.17581 6.84982 0
M  V30 47603 H 4427.42 -1.07627 4.55559 0
M  V30 47604 H 4427.59 -1.24288 6.35969 0
M  V30 47605 N 4421 -1.48997 -0.513587 0
M  V30 47606 C 4421.95 -1.65204 -1.63739 0
M  V30 47607 C 4422.94 -0.518147 -1.61281 0
M  V30 47608 O 4424.15 -0.697393 -1.65941 0
M  V30 47609 H 4420.52 -0.520709 -0.542556 0
M  V30 47610 H 4422.49 -2.59557 -1.47217 0
M  V30 47611 C 4421.24 -1.72419 -3.01939 0
M  V30 47612 H 4420.56 -2.59039 -3.0453 0
M  V30 47613 H 4422 -1.87798 -3.80142 0
M  V30 47614 C 4420.46 -0.466297 -3.33657 0
M  V30 47615 O 4420.99 0.413603 -3.99565 0
M  V30 47616 N 4419.2 -0.333032 -2.88685 0
M  V30 47617 H 4418.75 -1.05005 -2.35227 0
M  V30 47618 H 4418.7 0.507556 -3.10276 0
M  V30 47619 N 4422.48 0.763702 -1.3786 0
M  V30 47620 C 4423.42 1.89859 -1.34373 0
M  V30 47621 C 4424.42 1.67815 -0.231202 0
M  V30 47622 O 4425.62 1.75507 -0.399679 0
M  V30 47623 H 4422 0.624486 -0.418952 0
M  V30 47624 H 4423.97 1.89916 -2.30161 0
M  V30 47625 C 4422.72 3.27222 -1.17562 0
M  V30 47626 H 4422.04 3.44766 -2.02426 0
M  V30 47627 H 4423.48 4.06907 -1.19174 0
M  V30 47628 C 4421.94 3.36693 0.118193 0
M  V30 47629 O 4422.47 3.86377 1.09888 0
M  V30 47630 N 4420.68 2.90093 0.171615 0
M  V30 47631 H 4420.22 2.4985 -0.6271 0
M  V30 47632 H 4420.18 2.9681 1.03689 0
M  V30 47633 N 4423.95 1.22562 0.990769 0
M  V30 47634 C 4424.88 1.02188 2.09952 0
M  V30 47635 C 4425.86 -0.0578797 1.70001 0
M  V30 47636 O 4427.05 0.104752 1.93917 0
M  V30 47637 C 4424.18 0.601143 3.42058 0
M  V30 47638 C 4423.13 1.62707 3.95867 0
M  V30 47639 C 4422.46 1.06211 5.24045 0
M  V30 47640 C 4423.76 3.01758 4.26309 0
M  V30 47641 H 4425.45 1.94924 2.27255 0
M  V30 47642 H 4423 0.938604 1.09207 0
M  V30 47643 H 4424.95 0.445708 4.19036 0
M  V30 47644 H 4423.68 -0.36189 3.24589 0
M  V30 47645 H 4422.34 1.77032 3.21022 0
M  V30 47646 H 4421.98 0.0903671 5.02919 0
M  V30 47647 H 4421.68 1.74751 5.61013 0
M  V30 47648 H 4423.21 0.918305 6.03655 0
M  V30 47649 H 4424.62 2.90794 4.94076 0
M  V30 47650 H 4423.02 3.67441 4.74454 0
M  V30 47651 H 4424.09 3.5153 3.33998 0
M  V30 47652 N 4425.43 -1.18793 1.03566 0
M  V30 47653 C 4426.34 -2.2591 0.632584 0
M  V30 47654 C 4427.36 -1.70669 -0.338822 0
M  V30 47655 O 4428.53 -2.00454 -0.195006 0
M  V30 47656 C 4425.6 -3.467 -0.00338754 0
M  V30 47657 C 4424.66 -4.17095 1.01638 0
M  V30 47658 C 4423.89 -5.32118 0.410665 0
M  V30 47659 O 4424.12 -5.64979 -0.784526 0
M  V30 47660 O 4423.05 -5.91066 1.13688 0
M  V30 47661 H 4426.88 -2.62643 1.52487 0
M  V30 47662 H 4424.46 -1.25778 0.806239 0
M  V30 47663 H 4426.34 -4.19879 -0.357663 0
M  V30 47664 H 4425.02 -3.11801 -0.869576 0
M  V30 47665 H 4423.92 -3.46005 1.42236 0
M  V30 47666 H 4425.26 -4.55981 1.85317 0
M  V30 47667 N 4426.91 -0.814437 -1.34925 0
M  V30 47668 C 4427.82 -0.23206 -2.33449 0
M  V30 47669 C 4428.84 0.629082 -1.6223 0
M  V30 47670 O 4430.01 0.538984 -1.94054 0
M  V30 47671 C 4427.08 0.603362 -3.41409 0
M  V30 47672 C 4426.14 -0.279188 -4.28391 0
M  V30 47673 C 4425.37 0.516457 -5.31195 0
M  V30 47674 O 4425.59 1.75048 -5.42876 0
M  V30 47675 O 4424.53 -0.0967768 -6.01822 0
M  V30 47676 H 4428.35 -1.04731 -2.8507 0
M  V30 47677 H 4425.94 -0.576391 -1.37834 0
M  V30 47678 H 4427.82 1.07894 -4.07353 0
M  V30 47679 H 4426.5 1.39608 -2.92047 0
M  V30 47680 H 4425.4 -0.802077 -3.65401 0
M  V30 47681 H 4426.74 -1.03605 -4.81172 0
M  V30 47682 N 4428.39 1.46984 -0.568636 0
M  V30 47683 C 4429.33 2.30154 0.172626 0
M  V30 47684 C 4430.3 1.39762 0.897537 0
M  V30 47685 O 4431.49 1.68719 0.890984 0
M  V30 47686 C 4428.63 3.23956 1.18938 0
M  V30 47687 C 4427.74 4.29443 0.469366 0
M  V30 47688 C 4426.88 5.10386 1.47241 0
M  V30 47689 C 4425.92 6.07635 0.738011 0
M  V30 47690 N 4425.05 6.81496 1.68844 0
M  V30 47691 H 4429.89 2.93017 -0.542699 0
M  V30 47692 H 4427.43 1.44421 -0.279452 0
M  V30 47693 H 4429.39 3.76773 1.79159 0
M  V30 47694 H 4428.02 2.62933 1.8726 0
M  V30 47695 H 4427.07 3.79593 -0.247601 0
M  V30 47696 H 4428.38 4.98689 -0.105416 0
M  V30 47697 H 4427.54 5.67409 2.14783 0
M  V30 47698 H 4426.28 4.41068 2.08112 0
M  V30 47699 H 4425.28 5.49778 0.048736 0
M  V30 47700 H 4426.51 6.78966 0.13489 0
M  V30 47701 H 4424.45 6.14899 2.28551 0
M  V30 47702 H 4424.37 7.46953 1.1661 0
M  V30 47703 H 4425.64 7.43086 2.35464 0
M  V30 47704 N 4429.87 0.305673 1.54607 0
M  V30 47705 C 4430.78 -0.5777 2.27376 0
M  V30 47706 C 4431.79 -1.14446 1.31065 0
M  V30 47707 O 4432.97 -1.16825 1.64054 0
M  V30 47708 C 4430.03 -1.73113 3.00388 0
M  V30 47709 C 4429.09 -1.19798 4.12246 0
M  V30 47710 C 4428.33 -2.29643 4.81767 0
M  V30 47711 O 4428.55 -3.49635 4.50679 0
M  V30 47712 O 4427.48 -1.96071 5.69069 0
M  V30 47713 H 4431.31 0.0127308 3.03697 0
M  V30 47714 H 4428.89 0.0719708 1.49227 0
M  V30 47715 H 4430.78 -2.40303 3.46168 0
M  V30 47716 H 4429.45 -2.30807 2.26957 0
M  V30 47717 H 4428.36 -0.491668 3.70855 0
M  V30 47718 H 4429.69 -0.666395 4.87668 0
M  V30 47719 N 4431.34 -1.57564 0.0334847 0
M  V30 47720 C 4432.59 -1.91157 -0.643571 0
M  V30 47721 C 4432.91 -0.911981 -1.73038 0
M  V30 47722 O 4434.11 -1.13931 -2.46438 0
M  V30 47723 C 4432.57 -3.39447 -1.19598 0
M  V30 47724 C 4432.18 -4.47774 -0.142224 0
M  V30 47725 C 4433.92 -3.82101 -1.8493 0
M  V30 47726 C 4431.83 -5.87165 -0.706521 0
M  V30 47727 H 4430.76 -0.713377 -0.244151 0
M  V30 47728 H 4433.41 -1.8323 0.0994967 0
M  V30 47729 H 4431.79 -3.4232 -1.9908 0
M  V30 47730 H 4432.96 -4.56467 0.630456 0
M  V30 47731 H 4431.28 -4.14351 0.412591 0
M  V30 47732 H 4433.88 -4.83599 -2.28113 0
M  V30 47733 H 4434.22 -3.17395 -2.69381 0
M  V30 47734 H 4434.75 -3.81669 -1.12131 0
M  V30 47735 H 4431.49 -6.55424 0.0999483 0
M  V30 47736 H 4431.01 -5.8207 -1.44759 0
M  V30 47737 H 4432.69 -6.3587 -1.19491 0
M  V30 47738 N 4432.82 0.239714 -1.55766 0
M  V30 47739 C 4434.23 0.808204 -1.683 0
M  V30 47740 C 4434.58 1.85734 -0.632246 0
M  V30 47741 O 4433.71 2.15277 0.220128 0
M  V30 47742 C 4434.3 1.47273 -3.05116 0
M  V30 47743 C 4432.86 1.98884 -3.19566 0
M  V30 47744 C 4432.01 0.842482 -2.64192 0
M  V30 47745 H 4434.96 0.0153864 -1.58693 0
M  V30 47746 H 4434.98 2.341 -2.99962 0
M  V30 47747 H 4434.49 0.708919 -3.8157 0
M  V30 47748 H 4432.59 2.78123 -2.47948 0
M  V30 47749 H 4432.71 2.18128 -4.26564 0
M  V30 47750 H 4431.07 1.24493 -2.22202 0
M  V30 47751 H 4431.85 0.0916346 -3.43178 0
M  V30 47752 N 4434.3 1.49267 0.505678 0
M  V30 47753 C 4435.53 1.62219 1.28423 0
M  V30 47754 C 4435.94 0.291763 1.86532 0
M  V30 47755 O 4435.3 -0.722174 1.67603 0
M  V30 47756 C 4435.35 2.68743 2.41783 0
M  V30 47757 O 4435.07 3.96625 1.86064 0
M  V30 47758 C 4436.57 2.92358 3.3323 0
M  V30 47759 H 4433.79 0.546253 0.389677 0
M  V30 47760 H 4436.34 1.95267 0.60754 0
M  V30 47761 H 4434.49 2.38487 3.05292 0
M  V30 47762 H 4434.91 4.55265 2.60449 0
M  V30 47763 H 4436.38 3.70638 4.09062 0
M  V30 47764 H 4436.86 2.02095 3.89941 0
M  V30 47765 H 4437.46 3.24013 2.75492 0
M  V30 47766 N 4435.78 -0.756381 1.38263 0
M  V30 47767 C 4436.74 -1.85171 1.35072 0
M  V30 47768 C 4437.74 -1.58817 0.251759 0
M  V30 47769 O 4438.93 -1.66613 0.508491 0
M  V30 47770 C 4436.06 -3.22593 1.10213 0
M  V30 47771 H 4437.26 -1.89409 2.32517 0
M  V30 47772 H 4434.81 -0.957786 1.23516 0
M  V30 47773 H 4435.54 -3.24025 0.133618 0
M  V30 47774 H 4435.33 -3.43115 1.89774 0
M  V30 47775 H 4436.82 -4.02669 1.10668 0
M  V30 47776 N 4437.26 -1.23086 -0.984255 0
M  V30 47777 C 4438.48 -1.0872 -1.76033 0
M  V30 47778 C 4438.9 0.361626 -1.85304 0
M  V30 47779 O 4438.26 1.25029 -1.32943 0
M  V30 47780 C 4438.31 -1.70217 -3.18917 0
M  V30 47781 O 4438.03 -3.09434 -3.10133 0
M  V30 47782 C 4439.53 -1.61242 -4.12936 0
M  V30 47783 H 4436.75 -0.380684 -0.552558 0
M  V30 47784 H 4439.29 -1.62858 -1.23684 0
M  V30 47785 H 4437.45 -1.20122 -3.68306 0
M  V30 47786 H 4437.86 -3.39202 -4.00053 0
M  V30 47787 H 4439.34 -2.0898 -5.10912 0
M  V30 47788 H 4439.81 -0.570528 -4.35479 0
M  V30 47789 H 4440.42 -2.10684 -3.69449 0
M  V30 47790 N 4438.73 1.18243 -1.04194 0
M  V30 47791 C 4439.98 1.88534 -0.747188 0
M  V30 47792 C 4440.31 1.80226 0.723345 0
M  V30 47793 O 4439.59 1.20343 1.528 0
M  V30 47794 C 4439.87 3.38963 -1.21556 0
M  V30 47795 C 4439.72 3.56075 -2.74829 0
M  V30 47796 C 4441.04 4.32645 -0.806634 0
M  V30 47797 H 4438.16 0.68461 -0.272907 0
M  V30 47798 H 4440.8 1.39108 -1.29418 0
M  V30 47799 H 4438.95 3.81188 -0.750215 0
M  V30 47800 H 4440.63 3.22934 -3.29411 0
M  V30 47801 H 4438.87 2.98687 -3.14592 0
M  V30 47802 H 4439.54 4.61629 -3.0266 0
M  V30 47803 H 4442.02 3.98207 -1.20709 0
M  V30 47804 H 4440.89 5.36458 -1.16209 0
M  V30 47805 H 4441.15 4.41147 0.290135 0
M  V30 47806 N 4440.21 0.821581 1.34491 0
M  V30 47807 C 4441.44 0.421955 2.02552 0
M  V30 47808 C 4441.86 -0.971688 1.61875 0
M  V30 47809 O 4441.21 -1.62861 0.823553 0
M  V30 47810 C 4441.26 0.512975 3.57842 0
M  V30 47811 O 4440.98 1.85169 3.97044 0
M  V30 47812 C 4442.49 0.108077 4.43168 0
M  V30 47813 H 4439.71 0.169505 0.649237 0
M  V30 47814 H 4442.25 1.10936 1.71794 0
M  V30 47815 H 4440.4 -0.126338 3.87194 0
M  V30 47816 H 4440.82 1.82499 4.91726 0
M  V30 47817 H 4442.29 0.222851 5.5155 0
M  V30 47818 H 4442.77 -0.94825 4.28841 0
M  V30 47819 H 4443.38 0.721136 4.19142 0
M  V30 47820 N 4441.69 -1.4668 0.576422 0
M  V30 47821 C 4442.92 -2.06798 0.0650362 0
M  V30 47822 C 4443.33 -1.42616 -1.23718 0
M  V30 47823 O 4442.69 -0.529265 -1.74657 0
M  V30 47824 C 4442.74 -3.6132 -0.114075 0
M  V30 47825 O 4442.46 -4.231 1.13659 0
M  V30 47826 C 4443.96 -4.38351 -0.660536 0
M  V30 47827 H 4441.18 -0.668776 0.0545851 0
M  V30 47828 H 4443.73 -1.88402 0.795303 0
M  V30 47829 H 4441.88 -3.79165 -0.79454 0
M  V30 47830 H 4442.3 -5.1589 0.946434 0
M  V30 47831 H 4443.77 -5.47084 -0.735068 0
M  V30 47832 H 4444.25 -4.05959 -1.67613 0
M  V30 47833 H 4444.85 -4.25297 -0.0151456 0
M  V30 47834 N 4443.17 -0.313868 -1.54443 0
M  V30 47835 C 4444.41 0.284847 -2.01396 0
M  V30 47836 C 4444.77 1.50533 -1.19823 0
M  V30 47837 O 4444.06 1.89691 -0.269815 0
M  V30 47838 C 4444.26 0.680262 -3.50866 0
M  V30 47839 C 4444.09 -0.500356 -4.46908 0
M  V30 47840 C 4442.86 -0.996423 -4.95378 0
M  V30 47841 C 4445.05 -1.34946 -4.9628 0
M  V30 47842 N 4443.04 -2.14246 -5.75301 0
M  V30 47843 C 4444.41 -2.3428 -5.74032 0
M  V30 47844 C 4446.46 -1.37834 -4.78441 0
M  V30 47845 C 4445.16 -3.36295 -6.35845 0
M  V30 47846 C 4447.19 -2.38714 -5.41082 0
M  V30 47847 C 4446.55 -3.36777 -6.18677 0
M  V30 47848 H 4442.65 0.0683415 -0.779008 0
M  V30 47849 H 4445.24 -0.446706 -1.89506 0
M  V30 47850 H 4443.41 1.38096 -3.63021 0
M  V30 47851 H 4445.14 1.25962 -3.84598 0
M  V30 47852 H 4441.89 -0.569285 -4.70166 0
M  V30 47853 H 4442.32 -2.72027 -6.19944 0
M  V30 47854 H 4446.96 -0.633894 -4.18021 0
M  V30 47855 H 4444.68 -4.11652 -6.95391 0
M  V30 47856 H 4448.26 -2.41739 -5.29201 0
M  V30 47857 H 4447.14 -4.13559 -6.66287 0
M  V30 47858 N 4444.65 1.57544 -0.0418402 0
M  V30 47859 C 4445.58 2.14013 0.933854 0
M  V30 47860 C 4446.56 1.05942 1.3308 0
M  V30 47861 O 4447.74 1.33837 1.40717 0
M  V30 47862 C 4444.87 2.67755 2.21189 0
M  V30 47863 C 4443.83 3.80725 1.95531 0
M  V30 47864 C 4443.15 4.20946 3.29709 0
M  V30 47865 C 4444.45 5.06263 1.28434 0
M  V30 47866 H 4446.15 2.9579 0.463541 0
M  V30 47867 H 4443.69 1.42286 0.221523 0
M  V30 47868 H 4445.65 3.05896 2.89837 0
M  V30 47869 H 4444.37 1.83156 2.7041 0
M  V30 47870 H 4443.03 3.43042 1.29298 0
M  V30 47871 H 4442.68 3.33312 3.76713 0
M  V30 47872 H 4442.38 4.97081 3.13343 0
M  V30 47873 H 4443.9 4.6168 3.99604 0
M  V30 47874 H 4445.31 5.4191 1.87101 0
M  V30 47875 H 4443.71 5.8748 1.22424 0
M  V30 47876 H 4444.78 4.84208 0.259048 0
M  V30 47877 N 4446.12 -0.23145 1.55891 0
M  V30 47878 C 4447.09 -1.27021 1.90783 0
M  V30 47879 C 4448.09 -1.40306 0.785556 0
M  V30 47880 O 4449.28 -1.38741 1.05341 0
M  V30 47881 C 4446.41 -2.64558 2.14992 0
M  V30 47882 H 4447.6 -0.972918 2.8368 0
M  V30 47883 H 4445.16 -0.471433 1.49021 0
M  V30 47884 H 4445.89 -2.99402 1.24615 0
M  V30 47885 H 4445.68 -2.56295 2.96741 0
M  V30 47886 H 4447.17 -3.39535 2.43117 0
M  V30 47887 N 4447.6 -1.49533 -0.497755 0
M  V30 47888 C 4448.83 -1.62662 -1.27376 0
M  V30 47889 C 4449.24 -0.298554 -1.8683 0
M  V30 47890 O 4448.58 0.726411 -1.68727 0
M  V30 47891 C 4448.65 -2.63938 -2.44084 0
M  V30 47892 C 4448.31 -4.08202 -2.05475 0
M  V30 47893 C 4449.31 -4.94906 -1.59261 0
M  V30 47894 C 4446.99 -4.53956 -2.1501 0
M  V30 47895 C 4448.99 -6.25402 -1.23091 0
M  V30 47896 C 4446.67 -5.84464 -1.78452 0
M  V30 47897 C 4447.67 -6.70011 -1.32568 0
M  V30 47898 O 4447.36 -7.98086 -0.965047 0
M  V30 47899 H 4447.09 -0.550443 -0.392414 0
M  V30 47900 H 4449.64 -1.96327 -0.603732 0
M  V30 47901 H 4447.87 -2.2546 -3.14173 0
M  V30 47902 H 4449.56 -2.66562 -3.06103 0
M  V30 47903 H 4450.33 -4.60784 -1.51338 0
M  V30 47904 H 4446.21 -3.87534 -2.49676 0
M  V30 47905 H 4449.75 -6.92128 -0.872056 0
M  V30 47906 H 4445.65 -6.18114 -1.86026 0
M  V30 47907 H 4446.42 -8.11126 -1.09623 0
M  V30 47908 N 4449.08 0.749038 -1.38662 0
M  V30 47909 C 4450.31 1.53829 -1.38363 0
M  V30 47910 C 4450.72 1.88783 0.0254555 0
M  V30 47911 O 4450.08 1.53105 0.993238 0
M  V30 47912 C 4450.13 2.8346 -2.24349 0
M  V30 47913 O 4449.85 2.49995 -3.59769 0
M  V30 47914 C 4451.35 3.77572 -2.3228 0
M  V30 47915 H 4448.57 0.475834 -0.4731 0
M  V30 47916 H 4451.12 0.926662 -1.823 0
M  V30 47917 H 4449.27 3.40989 -1.83863 0
M  V30 47918 H 4449.69 3.33167 -4.05092 0
M  V30 47919 H 4451.16 4.65468 -2.96722 0
M  V30 47920 H 4451.64 4.1833 -1.3378 0
M  V30 47921 H 4452.24 3.25967 -2.73177 0
M  V30 47922 N 4450.56 1.23606 0.977714 0
M  V30 47923 C 4451.81 1.06977 1.71937 0
M  V30 47924 C 4452.13 -0.392942 1.90489 0
M  V30 47925 O 4451.39 -1.30714 1.45644 0
M  V30 47926 C 4451.69 1.74341 3.11993 0
M  V30 47927 C 4451.35 3.24263 3.13312 0
M  V30 47928 C 4450.02 3.65167 3.13379 0
M  V30 47929 C 4452.37 4.20152 3.08418 0
M  V30 47930 C 4449.7 5.00414 3.06272 0
M  V30 47931 C 4452.05 5.55394 3.02853 0
M  V30 47932 C 4450.71 5.95658 3.01244 0
M  V30 47933 H 4449.98 0.391455 0.629161 0
M  V30 47934 H 4452.63 1.53576 1.14397 0
M  V30 47935 H 4450.93 1.20109 3.72936 0
M  V30 47936 H 4452.63 1.58949 3.68152 0
M  V30 47937 H 4449.22 2.91703 3.14018 0
M  V30 47938 H 4453.41 3.89558 3.07504 0
M  V30 47939 H 4448.66 5.3082 3.0338 0
M  V30 47940 H 4452.84 6.29408 2.98024 0
M  V30 47941 H 4450.46 7.0042 2.95492 0
M  V30 47942 N 4452.04 -1.17688 1.0482 0
M  V30 47943 C 4453.28 -1.88135 0.757176 0
M  V30 47944 C 4453.62 -1.80607 -0.713777 0
M  V30 47945 O 4452.89 -1.21151 -1.5216 0
M  V30 47946 C 4453.17 -3.38314 1.23352 0
M  V30 47947 C 4453.03 -3.54612 2.76713 0
M  V30 47948 C 4454.35 -4.32211 0.829567 0
M  V30 47949 H 4451.47 -0.683153 0.276534 0
M  V30 47950 H 4454.11 -1.3842 1.30154 0
M  V30 47951 H 4452.26 -3.80784 0.770419 0
M  V30 47952 H 4453.93 -3.21182 3.31119 0
M  V30 47953 H 4452.17 -2.97015 3.16172 0
M  V30 47954 H 4452.84 -4.60017 3.05104 0
M  V30 47955 H 4455.32 -3.97561 1.22819 0
M  V30 47956 H 4454.2 -5.35834 1.19052 0
M  V30 47957 H 4454.46 -4.41295 -0.266736 0
M  V30 47958 N 4453.52 -0.828702 -1.34053 0
M  V30 47959 C 4454.46 -0.243055 -2.31327 0
M  V30 47960 C 4455.46 0.619385 -1.57671 0
M  V30 47961 O 4456.66 0.51008 -1.72622 0
M  V30 47962 H 4453.04 -0.0598603 -0.749614 0
M  V30 47963 H 4455.01 -1.07819 -2.7824 0
M  V30 47964 C 4453.76 0.575612 -3.42902 0
M  V30 47965 H 4453.08 -0.0786987 -3.99723 0
M  V30 47966 H 4454.52 0.951402 -4.13188 0
M  V30 47967 C 4452.98 1.75034 -2.87863 0
M  V30 47968 O 4453.51 2.84872 -2.83215 0
M  V30 47969 N 4451.72 1.56894 -2.44607 0
M  V30 47970 H 4451.26 0.675459 -2.48587 0
M  V30 47971 H 4451.22 2.35644 -2.08132 0
M  V30 47972 N 4454.99 1.46373 -0.584193 0
M  V30 47973 C 4455.9 2.34116 0.150645 0
M  V30 47974 C 4456.92 1.49841 0.884514 0
M  V30 47975 O 4458.1 1.82707 0.847365 0
M  V30 47976 C 4455.16 3.27054 1.1505 0
M  V30 47977 C 4454.22 4.27229 0.421143 0
M  V30 47978 C 4453.45 5.15727 1.37337 0
M  V30 47979 O 4453.68 5.07185 2.60997 0
M  V30 47980 O 4452.61 5.95386 0.883145 0
M  V30 47981 H 4456.44 2.98307 -0.569813 0
M  V30 47982 H 4454.02 1.45372 -0.344586 0
M  V30 47983 H 4455.9 3.84387 1.72699 0
M  V30 47984 H 4454.58 2.65458 1.8524 0
M  V30 47985 H 4453.49 3.7358 -0.197217 0
M  V30 47986 H 4454.82 4.91615 -0.239814 0
M  V30 47987 N 4456.47 0.322054 1.54274 0
M  V30 47988 C 4457.75 -0.335164 1.92707 0
M  V30 47989 C 4458.13 -1.70001 1.25151 0
M  V30 47990 O 4457.48 -2.25066 0.394675 0
M  V30 47991 C 4457.69 -0.428887 3.46355 0
M  V30 47992 C 4459.03 -0.689882 4.18958 0
M  V30 47993 O 4460.06 -0.511868 3.52503 0
M  V30 47994 O 4458.92 -1.0332 5.36644 0
M  V30 47995 H 4456.01 -0.191114 0.804614 0
M  V30 47996 H 4458.56 0.371658 1.6558 0
M  V30 47997 H 4457.33 0.529748 3.87698 0
M  V30 47998 H 4456.95 -1.18335 3.79582 0
M  V30 47999 N 4457.95 -1.5752 0.0501946 0
M  V30 48000 C 4459.2 -1.92938 -0.62473 0
M  V30 48001 C 4459.53 -0.928745 -1.70552 0
M  V30 48002 O 4458.8 0.0454095 -1.94447 0
M  V30 48003 C 4459.09 -3.38742 -1.22173 0
M  V30 48004 C 4458.94 -4.49553 -0.14906 0
M  V30 48005 C 4460.26 -3.8492 -2.13365 0
M  V30 48006 H 4457.38 -0.701612 -0.225632 0
M  V30 48007 H 4460.02 -1.89671 0.11176 0
M  V30 48008 H 4458.17 -3.41656 -1.84941 0
M  V30 48009 H 4459.84 -4.58766 0.482809 0
M  V30 48010 H 4458.08 -4.30636 0.522993 0
M  V30 48011 H 4458.76 -5.48655 -0.606773 0
M  V30 48012 H 4461.23 -3.83875 -1.60558 0
M  V30 48013 H 4460.11 -4.87593 -2.5208 0
M  V30 48014 H 4460.37 -3.21622 -3.03335 0
M  V30 48015 N 4459.43 0.223179 -1.56012 0
M  V30 48016 C 4460.68 0.94594 -1.78596 0
M  V30 48017 C 4461 1.84934 -0.618414 0
M  V30 48018 O 4460.27 1.92474 0.364765 0
M  V30 48019 H 4458.85 0.352275 -0.658719 0
M  V30 48020 H 4461.51 0.235426 -1.93473 0
M  V30 48021 H 4460.6 1.55371 -2.70677 0
M  V30 48022 N 4460.91 1.49795 0.489818 0
M  V30 48023 C 4462.13 1.63572 1.26696 0
M  V30 48024 C 4462.55 0.311531 1.86212 0
M  V30 48025 O 4461.91 -0.704357 1.6836 0
M  V30 48026 C 4461.96 2.71293 2.38919 0
M  V30 48027 O 4461.68 3.98576 1.81847 0
M  V30 48028 C 4463.18 2.95876 3.3011 0
M  V30 48029 H 4460.4 0.550355 0.383862 0
M  V30 48030 H 4462.94 1.959 0.586795 0
M  V30 48031 H 4461.1 2.41711 3.02745 0
M  V30 48032 H 4461.51 4.58002 2.55606 0
M  V30 48033 H 4462.99 3.74956 4.05108 0
M  V30 48034 H 4463.46 2.0622 3.87776 0
M  V30 48035 H 4464.07 3.26917 2.7204 0
M  V30 48036 N 4462.38 -0.741673 1.39057 0
M  V30 48037 C 4463.63 -1.49652 1.35231 0
M  V30 48038 C 4463.95 -1.95533 -0.0512021 0
M  V30 48039 O 4465.15 -2.70671 -0.212042 0
M  V30 48040 C 4463.61 -2.7038 2.37534 0
M  V30 48041 C 4463.22 -2.31476 3.83566 0
M  V30 48042 C 4464.96 -3.48227 2.42772 0
M  V30 48043 C 4462.87 -3.48887 4.77527 0
M  V30 48044 H 4461.8 -0.561952 0.502719 0
M  V30 48045 H 4464.45 -0.809669 1.64671 0
M  V30 48046 H 4462.83 -3.41106 2.01154 0
M  V30 48047 H 4464 -1.68339 4.2895 0
M  V30 48048 H 4462.32 -1.66735 3.8156 0
M  V30 48049 H 4464.92 -4.35547 3.10166 0
M  V30 48050 H 4465.26 -3.90223 1.45022 0
M  V30 48051 H 4465.79 -2.84525 2.78012 0
M  V30 48052 H 4462.53 -3.11946 5.76515 0
M  V30 48053 H 4462.05 -4.11026 4.36827 0
M  V30 48054 H 4463.73 -4.15311 4.96111 0
M  V30 48055 N 4463.86 -1.24123 -0.971145 0
M  V30 48056 C 4464.81 -1.03058 -2.06513 0
M  V30 48057 C 4465.78 0.0550082 -1.66009 0
M  V30 48058 O 4466.96 -0.0989358 -1.90543 0
M  V30 48059 C 4464.1 -0.637772 -3.39156 0
M  V30 48060 C 4463.22 -1.79647 -3.92875 0
M  V30 48061 C 4462.35 -1.34957 -5.1377 0
M  V30 48062 C 4461.39 -2.47843 -5.59679 0
M  V30 48063 N 4460.53 -2.04045 -6.71796 0
M  V30 48064 H 4465.37 -1.96693 -2.23866 0
M  V30 48065 H 4462.9 -0.979733 -1.09725 0
M  V30 48066 H 4464.86 -0.391077 -4.15363 0
M  V30 48067 H 4463.49 0.26158 -3.21738 0
M  V30 48068 H 4462.54 -2.15692 -3.13339 0
M  V30 48069 H 4463.86 -2.64481 -4.22908 0
M  V30 48070 H 4463.01 -1.06155 -5.97341 0
M  V30 48071 H 4461.75 -0.471728 -4.85413 0
M  V30 48072 H 4460.75 -2.77409 -4.74683 0
M  V30 48073 H 4461.98 -3.36179 -5.90051 0
M  V30 48074 H 4459.93 -1.18654 -6.4518 0
M  V30 48075 H 4459.84 -2.82434 -7.01261 0
M  V30 48076 H 4461.11 -1.78374 -7.58817 0
M  V30 48077 N 4465.34 1.17131 -1.05443 0
M  V30 48078 C 4466.75 1.69081 -0.791735 0
M  V30 48079 C 4467.1 1.83825 0.685774 0
M  V30 48080 O 4466.23 1.52762 1.53273 0
M  V30 48081 C 4466.82 3.07114 -1.4306 0
M  V30 48082 C 4465.38 3.5622 -1.2159 0
M  V30 48083 C 4464.53 2.32416 -1.51255 0
M  V30 48084 H 4467.48 1.01613 -1.21904 0
M  V30 48085 H 4467.5 3.71084 -0.84125 0
M  V30 48086 H 4467.01 2.96351 -2.50594 0
M  V30 48087 H 4465.11 3.72257 -0.159918 0
M  V30 48088 H 4465.23 4.38831 -1.92262 0
M  V30 48089 H 4463.59 2.37007 -0.932737 0
M  V30 48090 H 4464.37 2.24259 -2.59928 0
M  V30 48091 N 4466.82 0.835799 1.33612 0
M  V30 48092 C 4468.06 0.430665 1.98174 0
M  V30 48093 C 4468.4 -1.00679 1.66065 0
M  V30 48094 O 4467.67 -1.70336 0.938937 0
M  V30 48095 C 4467.96 0.648189 3.54218 0
M  V30 48096 C 4467.81 2.13269 3.96026 0
M  V30 48097 C 4469.13 0.092366 4.40003 0
M  V30 48098 H 4466.25 0.157949 0.719876 0
M  V30 48099 H 4468.89 1.05075 1.58301 0
M  V30 48100 H 4467.04 0.120373 3.88313 0
M  V30 48101 H 4468.71 2.72513 3.72202 0
M  V30 48102 H 4466.95 2.61835 3.45868 0
M  V30 48103 H 4467.62 2.23565 5.04701 0
M  V30 48104 H 4470.1 0.543488 4.12535 0
M  V30 48105 H 4468.98 0.274276 5.48214 0
M  V30 48106 H 4469.24 -1.00363 4.30557 0
M  V30 48107 N 4468.3 -1.46061 0.591947 0
M  V30 48108 C 4469.23 -2.33173 -0.123591 0
M  V30 48109 C 4470.21 -1.459 -0.874479 0
M  V30 48110 O 4471.39 -1.74701 -0.848119 0
M  V30 48111 C 4468.52 -3.2834 -1.13182 0
M  V30 48112 C 4467.48 -4.25126 -0.495174 0
M  V30 48113 C 4466.8 -5.09868 -1.61054 0
M  V30 48114 C 4468.1 -5.19141 0.573608 0
M  V30 48115 H 4469.8 -2.93249 0.603749 0
M  V30 48116 H 4467.34 -1.41013 0.291791 0
M  V30 48117 H 4469.3 -3.88143 -1.64083 0
M  V30 48118 H 4468.02 -2.66389 -1.88956 0
M  V30 48119 H 4466.68 -3.66599 -0.00716564 0
M  V30 48120 H 4466.33 -4.44297 -2.35817 0
M  V30 48121 H 4466.03 -5.75421 -1.19015 0
M  V30 48122 H 4467.55 -5.72537 -2.12213 0
M  V30 48123 H 4468.96 -5.73106 0.149301 0
M  V30 48124 H 4467.36 -5.93086 0.914844 0
M  V30 48125 H 4468.43 -4.62514 1.45633 0
M  V30 48126 N 4469.77 -0.330231 -1.54101 0
M  V30 48127 C 4471.02 0.269801 -2.00291 0
M  V30 48128 C 4471.34 1.52128 -1.21992 0
M  V30 48129 O 4470.61 1.9321 -0.323506 0
M  V30 48130 H 4469.19 0.102684 -0.739909 0
M  V30 48131 H 4471.86 -0.448316 -1.89674 0
M  V30 48132 H 4470.95 0.521552 -3.07711 0
M  V30 48133 N 4471.25 1.57491 -0.0585476 0
M  V30 48134 C 4472.16 2.15451 0.928338 0
M  V30 48135 C 4473.18 1.11421 1.33646 0
M  V30 48136 O 4474.35 1.43625 1.41188 0
M  V30 48137 C 4471.42 2.69401 2.18229 0
M  V30 48138 C 4470.48 3.88256 1.83183 0
M  V30 48139 C 4469.71 4.39623 3.026 0
M  V30 48140 O 4469.94 3.90038 4.16205 0
M  V30 48141 O 4468.87 5.31121 2.83186 0
M  V30 48142 H 4472.7 3.00113 0.465377 0
M  V30 48143 H 4470.28 1.485 0.163774 0
M  V30 48144 H 4472.16 3.04037 2.91787 0
M  V30 48145 H 4470.84 1.87806 2.63649 0
M  V30 48146 H 4469.75 3.58496 1.06918 0
M  V30 48147 H 4471.08 4.71103 1.42557 0
M  V30 48148 N 4472.73 -0.214903 1.56128 0
M  V30 48149 C 4474.15 -0.564896 1.49269 0
M  V30 48150 C 4474.35 -1.86825 0.754904 0
M  V30 48151 O 4473.4 -2.50744 0.297286 0
M  V30 48152 C 4474.72 -0.637968 2.93854 0
M  V30 48153 C 4476.26 -0.728146 3.04413 0
M  V30 48154 C 4476.74 -0.832504 4.5037 0
M  V30 48155 N 4478.23 -0.896552 4.54441 0
M  V30 48156 C 4478.96 -0.997126 5.64664 0
M  V30 48157 N 4478.46 -1.06123 6.84624 0
M  V30 48158 N 4480.25 -1.03278 5.52531 0
M  V30 48159 H 4472.4 0.640282 2.02519 0
M  V30 48160 H 4474.67 0.225539 0.92078 0
M  V30 48161 H 4474.37 0.250249 3.50809 0
M  V30 48162 H 4474.25 -1.49935 3.4612 0
M  V30 48163 H 4476.63 -1.6068 2.47519 0
M  V30 48164 H 4476.72 0.159042 2.55305 0
M  V30 48165 H 4476.36 0.0417203 5.07883 0
M  V30 48166 H 4476.29 -1.73521 4.9719 0
M  V30 48167 H 4478.78 -0.857058 3.68053 0
M  V30 48168 H 4479.09 -1.13793 7.64376 0
M  V30 48169 H 4477.44 -1.03025 6.87322 0
M  V30 48170 H 4480.63 -0.979397 4.57739 0
M  V30 48171 H 4480.8 -1.1077 6.38462 0
M  V30 48172 N 4474.21 -1.50053 -0.481867 0
M  V30 48173 C 4475.45 -1.6074 -1.23655 0
M  V30 48174 C 4475.79 -0.301853 -1.9184 0
M  V30 48175 O 4475.06 0.695961 -1.81622 0
M  V30 48176 C 4475.35 -2.78017 -2.28864 0
M  V30 48177 C 4475.2 -4.18422 -1.65055 0
M  V30 48178 C 4476.52 -2.90878 -3.30269 0
M  V30 48179 H 4473.64 -0.585046 -0.448207 0
M  V30 48180 H 4476.28 -1.82403 -0.531882 0
M  V30 48181 H 4474.43 -2.59677 -2.88964 0
M  V30 48182 H 4476.1 -4.48326 -1.08634 0
M  V30 48183 H 4474.34 -4.2318 -0.954 0
M  V30 48184 H 4475.01 -4.9639 -2.41457 0
M  V30 48185 H 4477.49 -3.07633 -2.80181 0
M  V30 48186 H 4476.37 -3.7458 -4.01225 0
M  V30 48187 H 4476.63 -2.01035 -3.93748 0
M  V30 48188 N 4475.69 0.734288 -1.39449 0
M  V30 48189 C 4476.94 1.48932 -1.36022 0
M  V30 48190 C 4477.25 1.95557 0.0408318 0
M  V30 48191 O 4478.45 2.70779 0.197685 0
M  V30 48192 C 4476.91 2.69117 -2.38965 0
M  V30 48193 C 4476.52 2.29438 -3.84788 0
M  V30 48194 C 4478.26 3.46935 -2.44615 0
M  V30 48195 C 4476.17 3.46349 -4.79371 0
M  V30 48196 H 4475.1 0.559278 -0.505692 0
M  V30 48197 H 4477.75 0.800925 -1.65098 0
M  V30 48198 H 4476.13 3.40034 -2.0296 0
M  V30 48199 H 4477.31 1.66062 -4.29837 0
M  V30 48200 H 4475.62 1.64709 -3.82439 0
M  V30 48201 H 4478.22 4.33896 -3.12471 0
M  V30 48202 H 4478.56 3.89449 -1.47089 0
M  V30 48203 H 4479.09 2.83047 -2.79517 0
M  V30 48204 H 4475.83 3.08884 -5.78161 0
M  V30 48205 H 4475.35 4.08703 -4.39001 0
M  V30 48206 H 4477.03 4.12674 -4.98306 0
M  V30 48207 N 4477.16 1.24636 0.964549 0
M  V30 48208 C 4478.58 1.0805 1.52256 0
M  V30 48209 C 4478.93 -0.347048 1.93106 0
M  V30 48210 O 4478.05 -1.23582 1.77642 0
M  V30 48211 C 4478.65 1.95523 2.76688 0
M  V30 48212 C 4477.21 1.83152 3.28835 0
M  V30 48213 C 4476.35 1.90269 2.01725 0
M  V30 48214 H 4479.3 1.38067 0.782504 0
M  V30 48215 H 4479.32 1.48937 3.5014 0
M  V30 48216 H 4478.84 2.99415 2.46925 0
M  V30 48217 H 4476.94 0.821047 3.63441 0
M  V30 48218 H 4477.05 2.6742 3.97522 0
M  V30 48219 H 4475.41 1.34035 2.1658 0
M  V30 48220 H 4476.2 2.95747 1.74324 0
M  V30 48221 N 4478.64 -1.1657 1.06062 0
M  V30 48222 C 4479.92 -1.83045 0.68948 0
M  V30 48223 C 4480.3 -1.94125 -0.829375 0
M  V30 48224 O 4479.65 -1.48255 -1.73875 0
M  V30 48225 C 4479.86 -3.20181 1.3887 0
M  V30 48226 C 4481.21 -3.95983 1.53239 0
M  V30 48227 O 4482.23 -3.29691 1.34842 0
M  V30 48228 O 4481.09 -5.14807 1.83402 0
M  V30 48229 H 4478.18 -0.79025 0.243792 0
M  V30 48230 H 4480.73 -1.23793 1.16075 0
M  V30 48231 H 4479.5 -3.07138 2.4245 0
M  V30 48232 H 4479.12 -3.87108 0.907352 0
M  V30 48233 N 4480.12 -0.842873 -1.33167 0
M  V30 48234 C 4481.53 -0.496714 -1.79971 0
M  V30 48235 C 4481.88 0.984581 -1.69707 0
M  V30 48236 O 4481.01 1.76739 -1.24869 0
M  V30 48237 C 4481.6 -0.894842 -3.26769 0
M  V30 48238 C 4480.16 -0.60076 -3.71575 0
M  V30 48239 C 4479.31 -1.101 -2.54506 0
M  V30 48240 H 4482.26 -1.0312 -1.20632 0
M  V30 48241 H 4482.28 -0.206481 -3.79939 0
M  V30 48242 H 4481.79 -1.97299 -3.34208 0
M  V30 48243 H 4479.89 0.467154 -3.6966 0
M  V30 48244 H 4480.01 -1.1588 -4.64875 0
M  V30 48245 H 4478.37 -0.521708 -2.493 0
M  V30 48246 H 4479.15 -2.18601 -2.64705 0
M  V30 48247 N 4481.6 1.45745 -0.599685 0
M  V30 48248 C 4482.85 2.02592 -0.0919355 0
M  V30 48249 C 4483.18 1.46811 1.27123 0
M  V30 48250 O 4482.45 0.639722 1.83679 0
M  V30 48251 C 4482.74 3.60073 -0.0444663 0
M  V30 48252 C 4482.59 4.26203 -1.43774 0
M  V30 48253 C 4483.91 4.35311 0.647455 0
M  V30 48254 H 4481.03 0.736174 -0.0348829 0
M  V30 48255 H 4483.67 1.73692 -0.770142 0
M  V30 48256 H 4481.82 3.84825 0.533088 0
M  V30 48257 H 4483.49 4.12661 -2.06176 0
M  V30 48258 H 4481.73 3.84909 -2.00069 0
M  V30 48259 H 4482.41 5.35064 -1.35684 0
M  V30 48260 H 4484.88 4.15805 0.15663 0
M  V30 48261 H 4483.76 5.45041 0.64975 0
M  V30 48262 H 4484.02 4.07604 1.71205 0
M  V30 48263 N 4483.08 0.338398 1.53924 0
M  V30 48264 C 4484.32 -0.260073 2.01125 0
M  V30 48265 C 4484.66 -1.50613 1.22594 0
M  V30 48266 O 4483.93 -1.91978 0.31218 0
M  V30 48267 C 4484.21 -0.579374 3.55409 0
M  V30 48268 C 4484.07 0.678421 4.44654 0
M  V30 48269 C 4485.39 -1.39107 4.17537 0
M  V30 48270 H 4482.51 -0.0930515 0.731102 0
M  V30 48271 H 4485.15 0.457916 1.84399 0
M  V30 48272 H 4483.3 -1.19105 3.69792 0
M  V30 48273 H 4484.97 1.31647 4.42116 0
M  V30 48274 H 4483.21 1.30435 4.13726 0
M  V30 48275 H 4483.88 0.410337 5.50473 0
M  V30 48276 H 4486.36 -0.873892 4.0682 0
M  V30 48277 H 4485.24 -1.58324 5.25571 0
M  V30 48278 H 4485.5 -2.39165 3.71823 0
M  V30 48279 N 4484.56 -1.57458 0.0668989 0
M  V30 48280 C 4485.83 -1.84692 -0.644068 0
M  V30 48281 C 4486.21 -0.958409 -1.8809 0
M  V30 48282 O 4485.56 -0.0234383 -2.28488 0
M  V30 48283 C 4485.77 -3.34771 -0.986392 0
M  V30 48284 C 4487.12 -4.02163 -1.36197 0
M  V30 48285 O 4488.14 -3.39488 -1.07827 0
M  V30 48286 O 4487 -5.12701 -1.89209 0
M  V30 48287 H 4484.1 -0.762828 -0.319411 0
M  V30 48288 H 4486.64 -1.6942 0.0974582 0
M  V30 48289 H 4485.41 -3.91152 -0.107745 0
M  V30 48290 H 4485.04 -3.55287 -1.78484 0
M  V30 48291 N 4486.03 0.20662 -1.5624 0
M  V30 48292 C 4487.28 0.926901 -1.79141 0
M  V30 48293 C 4487.6 1.84899 -0.638108 0
M  V30 48294 O 4488.8 2.60903 -0.751125 0
M  V30 48295 C 4487.26 1.69849 -3.173 0
M  V30 48296 C 4486.87 0.821801 -4.40398 0
M  V30 48297 C 4488.61 2.40909 -3.49518 0
M  V30 48298 C 4486.52 1.59159 -5.69581 0
M  V30 48299 H 4485.45 0.349841 -0.667928 0
M  V30 48300 H 4488.1 0.180423 -1.82611 0
M  V30 48301 H 4486.48 2.48843 -3.08048 0
M  V30 48302 H 4487.65 0.0713399 -4.60745 0
M  V30 48303 H 4485.97 0.222594 -4.15805 0
M  V30 48304 H 4488.57 2.99032 -4.43265 0
M  V30 48305 H 4488.91 3.14532 -2.72718 0
M  V30 48306 H 4489.44 1.68892 -3.60167 0
M  V30 48307 H 4486.18 0.898361 -6.49315 0
M  V30 48308 H 4485.7 2.31628 -5.53271 0
M  V30 48309 H 4487.38 2.1484 -6.10289 0
M  V30 48310 N 4487.51 1.50306 0.473902 0
M  V30 48311 C 4488.46 1.69487 1.59301 0
M  V30 48312 C 4489.45 0.560725 1.59851 0
M  V30 48313 O 4490.66 0.741145 1.64034 0
M  V30 48314 H 4487.03 0.53491 0.528559 0
M  V30 48315 H 4489.01 2.63369 1.40284 0
M  V30 48316 C 4487.75 1.80364 2.97261 0
M  V30 48317 H 4487.08 2.67022 2.97555 0
M  V30 48318 H 4488.52 1.97811 3.75029 0
M  V30 48319 C 4486.98 0.554597 3.32304 0
M  V30 48320 O 4487.51 -0.30752 4.00521 0
M  V30 48321 N 4485.71 0.409455 2.87701 0
M  V30 48322 H 4485.26 1.11204 2.3236 0
M  V30 48323 H 4485.22 -0.425114 3.11513 0
M  V30 48324 N 4488.99 -0.726883 1.39836 0
M  V30 48325 C 4489.92 -1.854 1.41947 0
M  V30 48326 C 4490.9 -1.6775 0.281787 0
M  V30 48327 O 4492.09 -1.87948 0.488783 0
M  V30 48328 C 4489.22 -3.23238 1.27021 0
M  V30 48329 C 4488.17 -3.55541 2.38274 0
M  V30 48330 C 4487.5 -4.92402 2.08432 0
M  V30 48331 C 4488.8 -3.57686 3.80602 0
M  V30 48332 H 4490.49 -1.83891 2.36272 0
M  V30 48333 H 4488.04 -0.883309 1.13726 0
M  V30 48334 H 4489.99 -4.0177 1.27117 0
M  V30 48335 H 4488.71 -3.25295 0.291678 0
M  V30 48336 H 4487.37 -2.79343 2.37409 0
M  V30 48337 H 4487.02 -4.91049 1.08997 0
M  V30 48338 H 4486.72 -5.14982 2.82961 0
M  V30 48339 H 4488.24 -5.73282 2.10191 0
M  V30 48340 H 4489.66 -4.26279 3.83352 0
M  V30 48341 H 4488.05 -3.91788 4.54557 0
M  V30 48342 H 4489.12 -2.57313 4.10996 0
M  V30 48343 N 4490.47 -1.25146 -0.957926 0
M  V30 48344 C 4491.4 -1.0103 -2.05732 0
M  V30 48345 C 4492.41 0.023633 -1.62783 0
M  V30 48346 O 4493.6 -0.214542 -1.77206 0
M  V30 48347 C 4490.7 -0.504713 -3.35121 0
M  V30 48348 C 4489.87 -1.60404 -4.06927 0
M  V30 48349 C 4488.93 -1.0994 -5.14587 0
M  V30 48350 O 4487.96 -1.79312 -5.40218 0
M  V30 48351 N 4489.16 0.0610505 -5.80468 0
M  V30 48352 H 4491.93 -1.95691 -2.26991 0
M  V30 48353 H 4489.49 -1.16307 -1.12624 0
M  V30 48354 H 4491.48 -0.151658 -4.04416 0
M  V30 48355 H 4490.05 0.34788 -3.10658 0
M  V30 48356 H 4489.27 -2.12883 -3.31775 0
M  V30 48357 H 4490.56 -2.34268 -4.51659 0
M  V30 48358 H 4489.96 0.640788 -5.62059 0
M  V30 48359 H 4488.51 0.355166 -6.50832 0
M  V30 48360 N 4491.95 1.16006 -1.06679 0
M  V30 48361 C 4493.36 1.68232 -0.809624 0
M  V30 48362 C 4493.71 1.84542 0.666238 0
M  V30 48363 O 4492.83 1.54379 1.51644 0
M  V30 48364 C 4493.43 3.0558 -1.4631 0
M  V30 48365 C 4491.99 3.54911 -1.25361 0
M  V30 48366 C 4491.13 2.30799 -1.53711 0
M  V30 48367 H 4494.08 1.00314 -1.22975 0
M  V30 48368 H 4494.11 3.70171 -0.880561 0
M  V30 48369 H 4493.62 2.93677 -2.53723 0
M  V30 48370 H 4491.72 3.72066 -0.199392 0
M  V30 48371 H 4491.83 4.36767 -1.96905 0
M  V30 48372 H 4490.2 2.36004 -0.957822 0
M  V30 48373 H 4490.98 2.2149 -2.62292 0
M  V30 48374 N 4493.42 0.849923 1.32718 0
M  V30 48375 C 4494.33 0.293873 2.32752 0
M  V30 48376 C 4495.35 -0.585849 1.63841 0
M  V30 48377 O 4496.53 -0.487345 1.95415 0
M  V30 48378 C 4493.59 -0.512632 3.42889 0
M  V30 48379 C 4492.65 0.39267 4.275 0
M  V30 48380 C 4491.88 -0.375438 5.32378 0
M  V30 48381 O 4492.11 -1.60594 5.47326 0
M  V30 48382 O 4491.04 0.256305 6.01354 0
M  V30 48383 H 4494.87 1.12252 2.82193 0
M  V30 48384 H 4492.45 0.612733 1.36257 0
M  V30 48385 H 4494.33 -0.97056 4.10071 0
M  V30 48386 H 4493.01 -1.31816 2.95645 0
M  V30 48387 H 4491.92 0.898674 3.63146 0
M  V30 48388 H 4493.25 1.16326 4.78256 0
M  V30 48389 N 4494.9 -1.45425 0.607406 0
M  V30 48390 C 4496.15 -2.0254 0.102678 0
M  V30 48391 C 4496.48 -1.47483 -1.26343 0
M  V30 48392 O 4495.76 -0.649454 -1.83337 0
M  V30 48393 C 4496.04 -3.60044 0.0635612 0
M  V30 48394 C 4495.89 -4.25435 1.46032 0
M  V30 48395 C 4497.21 -4.35649 -0.62436 0
M  V30 48396 H 4494.33 -0.735979 0.0387865 0
M  V30 48397 H 4496.97 -1.73281 0.779343 0
M  V30 48398 H 4495.12 -3.85102 -0.512673 0
M  V30 48399 H 4496.79 -4.11562 2.08362 0
M  V30 48400 H 4495.04 -3.83842 2.02108 0
M  V30 48401 H 4495.71 -5.34337 1.38519 0
M  V30 48402 H 4498.18 -4.15882 -0.134577 0
M  V30 48403 H 4497.06 -5.45378 -0.620836 0
M  V30 48404 H 4497.32 -4.08506 -1.69041 0
M  V30 48405 N 4496.38 -0.346557 -1.53742 0
M  V30 48406 C 4497.31 0.543238 -2.22669 0
M  V30 48407 C 4498.33 1.06155 -1.2343 0
M  V30 48408 O 4499.51 0.971182 -1.49767 0
M  V30 48409 C 4496.61 1.76066 -2.89575 0
M  V30 48410 C 4495.79 1.37713 -4.15155 0
M  V30 48411 C 4494.85 2.45455 -4.65444 0
M  V30 48412 O 4493.87 2.08637 -5.29584 0
M  V30 48413 N 4495.07 3.76754 -4.41629 0
M  V30 48414 H 4497.84 -0.0470757 -2.99663 0
M  V30 48415 H 4495.4 -0.170823 -1.60996 0
M  V30 48416 H 4497.39 2.47582 -3.20133 0
M  V30 48417 H 4495.96 2.25828 -2.1615 0
M  V30 48418 H 4495.18 0.492609 -3.9111 0
M  V30 48419 H 4496.47 1.0969 -4.96836 0
M  V30 48420 H 4495.87 4.09453 -3.90339 0
M  V30 48421 H 4494.43 4.44431 -4.76785 0
M  V30 48422 N 4497.86 1.5742 -0.0752483 0
M  V30 48423 C 4499.1 1.93907 0.593957 0
M  V30 48424 C 4499.44 0.95576 1.69053 0
M  V30 48425 O 4498.71 -0.0144689 1.94495 0
M  V30 48426 C 4499 3.40642 1.16768 0
M  V30 48427 C 4498.85 4.49733 0.0775211 0
M  V30 48428 C 4500.17 3.88266 2.07214 0
M  V30 48429 H 4497.29 0.705113 0.214441 0
M  V30 48430 H 4499.93 1.89469 -0.14192 0
M  V30 48431 H 4498.08 3.44555 1.79482 0
M  V30 48432 H 4499.75 4.5794 -0.555734 0
M  V30 48433 H 4497.99 4.29749 -0.591437 0
M  V30 48434 H 4498.66 5.49551 0.51941 0
M  V30 48435 H 4501.14 3.86381 1.54431 0
M  V30 48436 H 4500.02 4.91542 2.44291 0
M  V30 48437 H 4500.28 3.26407 2.9818 0
M  V30 48438 N 4499.34 -0.198331 1.56347 0
M  V30 48439 C 4500.61 -0.944922 1.71262 0
M  V30 48440 C 4500.99 -2.01508 0.629119 0
M  V30 48441 O 4500.34 -2.2564 -0.360393 0
M  V30 48442 C 4500.55 -1.53428 3.13466 0
M  V30 48443 C 4501.9 -2.01765 3.73599 0
M  V30 48444 O 4502.92 -1.63277 3.16574 0
M  V30 48445 O 4501.78 -2.72578 4.7367 0
M  V30 48446 H 4498.88 -0.442914 0.698395 0
M  V30 48447 H 4501.42 -0.188282 1.68652 0
M  V30 48448 H 4500.19 -0.762734 3.83794 0
M  V30 48449 H 4499.82 -2.35585 3.2029 0
M  V30 48450 N 4500.81 -1.50555 -0.465925 0
M  V30 48451 C 4502.04 -1.65567 -1.24077 0
M  V30 48452 C 4502.46 -0.341116 -1.85693 0
M  V30 48453 O 4501.81 0.677483 -1.69459 0
M  V30 48454 C 4501.87 -2.75059 -2.34573 0
M  V30 48455 O 4501.59 -4.01419 -1.75483 0
M  V30 48456 C 4503.09 -3.0109 -3.25361 0
M  V30 48457 H 4500.31 -0.556393 -0.375058 0
M  V30 48458 H 4502.85 -1.96809 -0.555555 0
M  V30 48459 H 4501.01 -2.46497 -2.98861 0
M  V30 48460 H 4501.42 -4.6201 -2.48287 0
M  V30 48461 H 4502.89 -3.81353 -3.99091 0
M  V30 48462 H 4503.37 -2.12363 -3.84446 0
M  V30 48463 H 4503.98 -3.31203 -2.66804 0
M  V30 48464 N 4502.29 0.719457 -1.4022 0
M  V30 48465 C 4503.52 1.51366 -1.41786 0
M  V30 48466 C 4503.94 1.88091 -0.0183016 0
M  V30 48467 O 4503.3 1.53 0.972653 0
M  V30 48468 C 4503.35 2.76792 -2.31125 0
M  V30 48469 O 4502.45 3.73342 -1.75183 0
M  V30 48470 H 4501.79 0.456512 -0.482175 0
M  V30 48471 H 4504.32 0.886376 -1.84403 0
M  V30 48472 H 4504.33 3.25362 -2.46178 0
M  V30 48473 H 4503.01 2.49395 -3.32828 0
M  V30 48474 H 4501.59 3.32173 -1.69456 0
M  V30 48475 N 4503.77 1.25652 0.951275 0
M  V30 48476 C 4504.68 1.08081 2.0822 0
M  V30 48477 C 4505.7 0.0170277 1.73992 0
M  V30 48478 O 4506.87 0.218664 2.00209 0
M  V30 48479 C 4503.94 0.705042 3.39456 0
M  V30 48480 C 4503 1.84713 3.8753 0
M  V30 48481 C 4502.23 1.4892 5.12502 0
M  V30 48482 O 4502.45 0.386356 5.6909 0
M  V30 48483 O 4501.39 2.32053 5.55369 0
M  V30 48484 H 4505.21 2.02932 2.25947 0
M  V30 48485 H 4502.8 1.04621 1.06652 0
M  V30 48486 H 4504.68 0.507756 4.1833 0
M  V30 48487 H 4503.36 -0.214177 3.22991 0
M  V30 48488 H 4502.26 2.0993 3.09645 0
M  V30 48489 H 4503.6 2.74571 4.08499 0
M  V30 48490 N 4505.25 -1.15438 1.07293 0
M  V30 48491 C 4506.49 -1.86486 0.796912 0
M  V30 48492 C 4506.83 -1.8208 -0.675307 0
M  V30 48493 O 4506.1 -1.24352 -1.49556 0
M  V30 48494 C 4506.39 -3.35621 1.30501 0
M  V30 48495 C 4506.24 -3.48663 2.84173 0
M  V30 48496 C 4507.56 -4.30354 0.921058 0
M  V30 48497 H 4504.68 -0.677134 0.290962 0
M  V30 48498 H 4507.32 -1.35628 1.3306 0
M  V30 48499 H 4505.47 -3.79065 0.851016 0
M  V30 48500 H 4507.14 -3.14087 3.37857 0
M  V30 48501 H 4505.38 -2.90242 3.22401 0
M  V30 48502 H 4506.05 -4.53442 3.14793 0
M  V30 48503 H 4508.53 -3.94866 1.31224 0
M  V30 48504 H 4507.41 -5.33188 1.30391 0
M  V30 48505 H 4507.67 -4.41761 -0.173071 0
M  V30 48506 N 4506.73 -0.85695 -1.32265 0
M  V30 48507 C 4507.97 -0.460544 -1.96783 0
M  V30 48508 C 4508.3 0.987642 -1.68139 0
M  V30 48509 O 4507.57 1.69054 -0.989825 0
M  V30 48510 H 4506.15 -0.167315 -0.728021 0
M  V30 48511 H 4508.81 -1.09388 -1.61308 0
M  V30 48512 H 4507.9 -0.607497 -3.0613 0
M  V30 48513 N 4508.2 1.45101 -0.61511 0
M  V30 48514 C 4509.45 2.01396 -0.110789 0
M  V30 48515 C 4509.77 1.48839 1.26911 0
M  V30 48516 O 4510.97 1.97158 1.86657 0
M  V30 48517 C 4509.43 3.59598 -0.147356 0
M  V30 48518 C 4509.04 4.21152 -1.52757 0
M  V30 48519 C 4510.78 4.23429 0.301332 0
M  V30 48520 C 4508.69 5.7153 -1.52012 0
M  V30 48521 H 4507.62 0.753059 -0.0376505 0
M  V30 48522 H 4510.27 1.66491 -0.771549 0
M  V30 48523 H 4508.65 3.91727 0.580201 0
M  V30 48524 H 4509.82 4.00586 -2.27744 0
M  V30 48525 H 4508.14 3.69545 -1.91899 0
M  V30 48526 H 4510.74 5.33704 0.326204 0
M  V30 48527 H 4511.08 3.94634 1.32551 0
M  V30 48528 H 4511.61 3.96045 -0.373204 0
M  V30 48529 H 4508.35 6.05036 -2.52215 0
M  V30 48530 H 4507.87 5.94265 -0.812949 0
M  V30 48531 H 4509.55 6.34868 -1.24704 0
M  V30 48532 N 4509.68 0.354705 1.53557 0
M  V30 48533 C 4510.91 -0.239442 2.0551 0
M  V30 48534 C 4511.33 -1.43325 1.22895 0
M  V30 48535 O 4510.68 -1.80537 0.266963 0
M  V30 48536 C 4510.73 -0.643594 3.55725 0
M  V30 48537 O 4510.46 0.502755 4.35206 0
M  V30 48538 C 4511.96 -1.29728 4.23893 0
M  V30 48539 H 4509.18 -0.0442462 0.66954 0
M  V30 48540 H 4511.72 0.509926 1.9804 0
M  V30 48541 H 4509.88 -1.34289 3.6338 0
M  V30 48542 H 4510.29 0.178356 5.24197 0
M  V30 48543 H 4511.76 -1.53073 5.30352 0
M  V30 48544 H 4512.24 -2.25427 3.76934 0
M  V30 48545 H 4512.85 -0.639717 4.20461 0
M  V30 48546 N 4511.16 -1.57378 0.0835957 0
M  V30 48547 C 4512.41 -1.93108 -0.58243 0
M  V30 48548 C 4512.72 -0.96657 -1.70049 0
M  V30 48549 O 4513.93 -1.21714 -2.42689 0
M  V30 48550 C 4512.39 -3.4308 -1.08739 0
M  V30 48551 C 4511.99 -4.48 0.000303898 0
M  V30 48552 C 4513.74 -3.87791 -1.7268 0
M  V30 48553 C 4511.64 -5.89115 -0.519361 0
M  V30 48554 H 4510.57 -0.720783 -0.221332 0
M  V30 48555 H 4513.23 -1.82821 0.15774 0
M  V30 48556 H 4511.61 -3.4848 -1.88089 0
M  V30 48557 H 4512.78 -4.5423 0.775358 0
M  V30 48558 H 4511.1 -4.12828 0.544205 0
M  V30 48559 H 4513.69 -4.90612 -2.12613 0
M  V30 48560 H 4514.04 -3.25805 -2.59146 0
M  V30 48561 H 4514.57 -3.85043 -0.999321 0
M  V30 48562 H 4511.31 -6.54774 0.308416 0
M  V30 48563 H 4510.83 -5.8638 -1.26167 0
M  V30 48564 H 4512.51 -6.3935 -0.992013 0
M  V30 48565 N 4512.64 0.190037 -1.5645 0
M  V30 48566 C 4513.89 0.907849 -1.80114 0
M  V30 48567 C 4514.2 1.84212 -0.657683 0
M  V30 48568 O 4515.41 2.60092 -0.778755 0
M  V30 48569 C 4513.86 1.66474 -3.19084 0
M  V30 48570 C 4513.47 0.775045 -4.41245 0
M  V30 48571 C 4515.22 2.37189 -3.52054 0
M  V30 48572 C 4513.12 1.53109 -5.71237 0
M  V30 48573 H 4512.05 0.342737 -0.671601 0
M  V30 48574 H 4514.7 0.161045 -1.82792 0
M  V30 48575 H 4513.09 2.45561 -3.1067 0
M  V30 48576 H 4514.26 0.0224678 -4.60795 0
M  V30 48577 H 4512.57 0.17848 -4.16017 0
M  V30 48578 H 4515.17 2.94313 -4.46412 0
M  V30 48579 H 4515.51 3.11622 -2.76039 0
M  V30 48580 H 4516.05 1.65063 -3.61938 0
M  V30 48581 H 4512.79 0.829442 -6.50231 0
M  V30 48582 H 4512.31 2.25747 -5.55696 0
M  V30 48583 H 4513.99 2.08355 -6.12533 0
M  V30 48584 N 4514.12 1.508 0.457934 0
M  V30 48585 C 4515.37 1.62125 1.20664 0
M  V30 48586 C 4515.69 0.329861 1.9219 0
M  V30 48587 O 4514.96 -0.653344 1.84684 0
M  V30 48588 H 4513.54 0.597457 0.44839 0
M  V30 48589 H 4516.2 1.87639 0.52703 0
M  V30 48590 H 4515.29 2.43889 1.94743 0
M  V30 48591 N 4515.6 -0.71201 1.40599 0
M  V30 48592 C 4517.01 -1.02054 1.22708 0
M  V30 48593 C 4517.21 -2.01227 0.104799 0
M  V30 48594 O 4516.27 -2.46742 -0.536153 0
M  V30 48595 C 4517.58 -1.56085 2.57018 0
M  V30 48596 C 4519.13 -1.68051 2.6406 0
M  V30 48597 C 4519.6 -2.25487 3.98647 0
M  V30 48598 N 4521.09 -2.32868 4.00408 0
M  V30 48599 C 4521.83 -2.783 5.01335 0
M  V30 48600 N 4521.33 -3.23457 6.12656 0
M  V30 48601 N 4523.12 -2.77716 4.88703 0
M  V30 48602 H 4515.27 -0.054715 2.1233 0
M  V30 48603 H 4517.53 -0.0868695 0.944011 0
M  V30 48604 H 4517.24 -0.906746 3.3981 0
M  V30 48605 H 4517.11 -2.54554 2.78356 0
M  V30 48606 H 4519.5 -2.32577 1.81637 0
M  V30 48607 H 4519.58 -0.681715 2.46549 0
M  V30 48608 H 4519.22 -1.61582 4.81512 0
M  V30 48609 H 4519.15 -3.26087 4.13491 0
M  V30 48610 H 4521.65 -2.0098 3.20024 0
M  V30 48611 H 4521.96 -3.56701 6.85554 0
M  V30 48612 H 4520.3 -3.21407 6.16216 0
M  V30 48613 H 4523.49 -2.41776 4.00827 0
M  V30 48614 H 4523.67 -3.12806 5.675 0
M  V30 48615 N 4517.07 -1.26155 -0.944598 0
M  V30 48616 C 4517.98 -1.09183 -2.07644 0
M  V30 48617 C 4519 -0.0262547 -1.7398 0
M  V30 48618 O 4520.18 -0.229278 -2.00091 0
M  V30 48619 C 4517.24 -0.723034 -3.39077 0
M  V30 48620 C 4516.3 -1.86765 -3.86545 0
M  V30 48621 C 4515.53 -1.51635 -5.11705 0
M  V30 48622 O 4515.76 -0.416531 -5.68877 0
M  V30 48623 O 4514.69 -2.34995 -5.54131 0
M  V30 48624 H 4518.52 -2.04128 -2.24868 0
M  V30 48625 H 4516.1 -1.05186 -1.06096 0
M  V30 48626 H 4517.98 -0.529934 -4.18055 0
M  V30 48627 H 4516.66 0.197045 -3.231 0
M  V30 48628 H 4515.57 -2.11569 -3.08528 0
M  V30 48629 H 4516.9 -2.76734 -4.07037 0
M  V30 48630 N 4518.55 1.14868 -1.07903 0
M  V30 48631 C 4519.78 1.89658 -0.826896 0
M  V30 48632 C 4520.19 1.78314 0.620456 0
M  V30 48633 O 4519.55 1.13893 1.426 0
M  V30 48634 C 4519.6 3.39812 -1.23328 0
M  V30 48635 O 4519.32 3.50836 -2.62385 0
M  V30 48636 C 4520.82 4.31612 -1.01125 0
M  V30 48637 H 4518.04 0.60091 -0.298578 0
M  V30 48638 H 4520.59 1.45505 -1.43696 0
M  V30 48639 H 4518.74 3.81607 -0.66742 0
M  V30 48640 H 4519.16 4.44066 -2.79116 0
M  V30 48641 H 4520.63 5.35362 -1.34505 0
M  V30 48642 H 4521.11 4.39169 0.0520624 0
M  V30 48643 H 4521.71 3.95566 -1.56229 0
M  V30 48644 N 4520.03 0.863952 1.31809 0
M  V30 48645 C 4520.96 0.330924 2.31143 0
M  V30 48646 C 4521.94 -0.574949 1.60089 0
M  V30 48647 O 4523.13 -0.493238 1.87832 0
M  V30 48648 C 4520.26 -0.473619 3.44055 0
M  V30 48649 C 4519.21 0.338631 4.26658 0
M  V30 48650 C 4518.54 -0.591225 5.31421 0
M  V30 48651 C 4519.84 1.56944 4.98163 0
M  V30 48652 H 4521.53 1.16096 2.75975 0
M  V30 48653 H 4519.08 0.559704 1.32677 0
M  V30 48654 H 4521.03 -0.856998 4.12594 0
M  V30 48655 H 4519.75 -1.33711 2.97975 0
M  V30 48656 H 4518.41 0.703881 3.59779 0
M  V30 48657 H 4518.06 -1.45182 4.81592 0
M  V30 48658 H 4517.76 -0.0516957 5.87577 0
M  V30 48659 H 4519.28 -0.971579 6.02821 0
M  V30 48660 H 4520.7 1.25784 5.59331 0
M  V30 48661 H 4519.09 2.04759 5.64087 0
M  V30 48662 H 4520.16 2.32559 4.25493 0
M  V30 48663 N 4521.51 -1.44772 0.622796 0
M  V30 48664 C 4522.44 -2.27793 -0.136249 0
M  V30 48665 C 4523.42 -1.38044 -0.859215 0
M  V30 48666 O 4524.6 -1.67481 -0.865001 0
M  V30 48667 C 4521.73 -3.1678 -1.19867 0
M  V30 48668 C 4520.78 -4.22577 -0.577161 0
M  V30 48669 S 4521.61 -5.31823 0.626481 0
M  V30 48670 C 4522.76 -6.24378 -0.436159 0
M  V30 48671 H 4523 -2.91822 0.56807 0
M  V30 48672 H 4520.53 -1.48837 0.41073 0
M  V30 48673 H 4522.49 -3.68602 -1.80673 0
M  V30 48674 H 4521.15 -2.51987 -1.87514 0
M  V30 48675 H 4520.34 -4.84823 -1.37704 0
M  V30 48676 H 4519.94 -3.73974 -0.0439124 0
M  V30 48677 H 4522.24 -6.64694 -1.31105 0
M  V30 48678 H 4523.18 -7.0794 0.15052 0
M  V30 48679 H 4523.59 -5.59383 -0.758317 0
M  V30 48680 N 4522.99 -0.362844 -1.53366 0
M  V30 48681 C 4524.21 0.22854 -2.05634 0
M  V30 48682 C 4524.63 1.42672 -1.23654 0
M  V30 48683 O 4523.99 1.80393 -0.276533 0
M  V30 48684 C 4524.04 0.62472 -3.56061 0
M  V30 48685 O 4523.76 -0.525828 -4.34933 0
M  V30 48686 C 4525.26 1.27478 -4.24575 0
M  V30 48687 H 4522.48 0.0406948 -0.669765 0
M  V30 48688 H 4525.02 -0.520421 -1.97767 0
M  V30 48689 H 4523.18 1.3236 -3.64087 0
M  V30 48690 H 4523.59 -0.206153 -5.24095 0
M  V30 48691 H 4525.07 1.50258 -5.31156 0
M  V30 48692 H 4525.54 2.23425 -3.78124 0
M  V30 48693 H 4526.15 0.61741 -4.20795 0
M  V30 48694 N 4524.46 1.57332 -0.0919406 0
M  V30 48695 C 4525.69 1.98576 0.580978 0
M  V30 48696 C 4526.11 0.97096 1.61919 0
M  V30 48697 O 4525.46 -0.0398413 1.82457 0
M  V30 48698 C 4525.52 3.39876 1.23152 0
M  V30 48699 O 4525.24 4.3747 0.234836 0
M  V30 48700 C 4526.74 3.96106 1.99035 0
M  V30 48701 H 4523.96 0.652615 0.155995 0
M  V30 48702 H 4526.5 2.0379 -0.170296 0
M  V30 48703 H 4524.66 3.35686 1.93375 0
M  V30 48704 H 4525.07 5.19754 0.703997 0
M  V30 48705 H 4526.54 4.97136 2.39917 0
M  V30 48706 H 4527.02 3.3375 2.85495 0
M  V30 48707 H 4527.63 4.03759 1.33635 0
M  V30 48708 N 4525.94 -0.181737 1.56549 0
M  V30 48709 C 4527.19 -0.898256 1.81041 0
M  V30 48710 C 4527.51 -1.8323 0.667229 0
M  V30 48711 O 4526.78 -1.93374 -0.313606 0
M  V30 48712 H 4525.36 -0.334686 0.667828 0
M  V30 48713 H 4528.02 -0.184047 1.94029 0
M  V30 48714 H 4527.12 -1.4814 2.74702 0
M  V30 48715 N 4527.42 -1.51041 -0.44993 0
M  V30 48716 C 4528.67 -1.63327 -1.20217 0
M  V30 48717 C 4529 -0.342477 -1.91156 0
M  V30 48718 O 4528.27 0.65728 -1.83058 0
M  V30 48719 C 4528.56 -2.82809 -2.22915 0
M  V30 48720 C 4528.41 -4.21829 -1.56142 0
M  V30 48721 C 4529.73 -2.97819 -3.24025 0
M  V30 48722 H 4526.85 -0.594422 -0.435697 0
M  V30 48723 H 4529.49 -1.83491 -0.493072 0
M  V30 48724 H 4527.64 -2.65748 -2.83391 0
M  V30 48725 H 4529.31 -4.50529 -0.991004 0
M  V30 48726 H 4527.56 -4.25108 -0.864022 0
M  V30 48727 H 4528.23 -5.014 -2.30873 0
M  V30 48728 H 4530.7 -3.13507 -2.73592 0
M  V30 48729 H 4529.58 -3.83006 -3.93189 0
M  V30 48730 H 4529.84 -2.09342 -3.89395 0
M  V30 48731 N 4528.9 0.704544 -1.40975 0
M  V30 48732 C 4530.13 1.49349 -1.43187 0
M  V30 48733 C 4530.54 1.88768 -0.0346172 0
M  V30 48734 O 4529.9 1.56187 0.944027 0
M  V30 48735 C 4529.95 2.76179 -2.33254 0
M  V30 48736 O 4529.67 2.38423 -3.67541 0
M  V30 48737 C 4531.17 3.69991 -2.44175 0
M  V30 48738 H 4528.39 0.460542 -0.487998 0
M  V30 48739 H 4530.94 0.868196 -1.85156 0
M  V30 48740 H 4529.09 3.34967 -1.94618 0
M  V30 48741 H 4529.5 3.20111 -4.15487 0
M  V30 48742 H 4530.98 4.55792 -3.1138 0
M  V30 48743 H 4531.46 4.13862 -1.47021 0
M  V30 48744 H 4532.06 3.17111 -2.83409 0
M  V30 48745 N 4530.38 1.26654 0.937895 0
M  V30 48746 C 4531.79 1.11256 1.4993 0
M  V30 48747 C 4532.14 -0.306009 1.93799 0
M  V30 48748 O 4531.26 -1.19786 1.80223 0
M  V30 48749 C 4531.86 2.01348 2.72478 0
M  V30 48750 C 4530.42 1.90085 3.24876 0
M  V30 48751 C 4529.56 1.94505 1.97644 0
M  V30 48752 H 4532.52 1.39696 0.753042 0
M  V30 48753 H 4532.54 1.56331 3.46902 0
M  V30 48754 H 4532.05 3.04586 2.40519 0
M  V30 48755 H 4530.15 0.897954 3.61618 0
M  V30 48756 H 4530.26 2.75792 3.9176 0
M  V30 48757 H 4528.63 1.38599 2.13688 0
M  V30 48758 H 4529.41 2.99378 1.68012 0
M  V30 48759 N 4531.85 -1.14294 1.08511 0
M  V30 48760 C 4533.1 -1.85631 0.816647 0
M  V30 48761 C 4533.43 -1.82786 -0.655957 0
M  V30 48762 O 4532.71 -1.25931 -1.48229 0
M  V30 48763 C 4532.99 -3.34218 1.34053 0
M  V30 48764 C 4532.84 -3.45629 2.87855 0
M  V30 48765 C 4534.16 -4.29353 0.966651 0
M  V30 48766 H 4531.28 -0.674009 0.298128 0
M  V30 48767 H 4533.92 -1.34209 1.34491 0
M  V30 48768 H 4532.07 -3.78141 0.891173 0
M  V30 48769 H 4533.75 -3.10486 3.41169 0
M  V30 48770 H 4531.99 -2.86806 3.25461 0
M  V30 48771 H 4532.66 -4.50078 3.19584 0
M  V30 48772 H 4535.14 -3.93452 1.35405 0
M  V30 48773 H 4534.01 -5.31775 1.36039 0
M  V30 48774 H 4534.27 -4.4192 -0.126207 0
M  V30 48775 N 4533.33 -0.87093 -1.31349 0
M  V30 48776 C 4534.26 -0.343177 -2.30964 0
M  V30 48777 C 4535.24 0.566451 -1.60391 0
M  V30 48778 O 4536.43 0.48327 -1.88091 0
M  V30 48779 C 4533.56 0.455366 -3.44302 0
M  V30 48780 C 4532.51 -0.361253 -4.26473 0
M  V30 48781 C 4531.84 0.563034 -5.31727 0
M  V30 48782 C 4533.14 -1.59583 -4.97323 0
M  V30 48783 H 4534.83 -1.17558 -2.75355 0
M  V30 48784 H 4532.38 -0.566732 -1.32379 0
M  V30 48785 H 4534.33 0.835105 -4.13042 0
M  V30 48786 H 4533.06 1.32128 -2.9868 0
M  V30 48787 H 4531.71 -0.722951 -3.59401 0
M  V30 48788 H 4531.36 1.42626 -4.82356 0
M  V30 48789 H 4531.06 0.0205343 -5.87596 0
M  V30 48790 H 4532.59 0.939596 -6.03327 0
M  V30 48791 H 4534 -1.28748 -5.58656 0
M  V30 48792 H 4532.4 -2.07748 -5.62993 0
M  V30 48793 H 4533.47 -2.34813 -4.24253 0
M  V30 48794 N 4534.81 1.4444 -0.630465 0
M  V30 48795 C 4535.72 2.34477 0.0760869 0
M  V30 48796 C 4536.74 1.52579 0.836396 0
M  V30 48797 O 4537.91 1.8531 0.788809 0
M  V30 48798 C 4534.98 3.30549 1.04587 0
M  V30 48799 C 4534.04 4.28353 0.28501 0
M  V30 48800 C 4533.27 5.19835 1.2086 0
M  V30 48801 O 4533.49 5.15232 2.44729 0
M  V30 48802 O 4532.43 5.97894 0.693281 0
M  V30 48803 H 4536.25 2.96343 -0.664428 0
M  V30 48804 H 4533.84 1.44202 -0.39066 0
M  V30 48805 H 4535.72 3.89686 1.60382 0
M  V30 48806 H 4534.4 2.71217 1.76701 0
M  V30 48807 H 4533.3 3.72763 -0.315969 0
M  V30 48808 H 4534.64 4.90604 -0.396096 0
M  V30 48809 N 4536.29 0.370972 1.53172 0
M  V30 48810 C 4537.24 -0.472955 2.25902 0
M  V30 48811 C 4538.21 -1.07307 1.26785 0
M  V30 48812 O 4539.39 -1.10455 1.55578 0
M  V30 48813 C 4536.53 -1.60394 3.05561 0
M  V30 48814 C 4535.64 -1.02848 4.19579 0
M  V30 48815 C 4534.78 -2.12901 4.86669 0
M  V30 48816 C 4533.82 -1.52848 5.92709 0
M  V30 48817 N 4532.95 -2.56756 6.53468 0
M  V30 48818 H 4537.79 0.153753 2.97603 0
M  V30 48819 H 4535.33 0.0876462 1.46839 0
M  V30 48820 H 4537.29 -2.27022 3.50024 0
M  V30 48821 H 4535.92 -2.20123 2.36105 0
M  V30 48822 H 4534.97 -0.252332 3.79562 0
M  V30 48823 H 4536.28 -0.549468 4.95764 0
M  V30 48824 H 4535.44 -2.87337 5.34343 0
M  V30 48825 H 4534.18 -2.64156 4.09967 0
M  V30 48826 H 4533.18 -0.769287 5.44391 0
M  V30 48827 H 4534.41 -1.02411 6.71334 0
M  V30 48828 H 4532.35 -3.07214 5.79617 0
M  V30 48829 H 4532.27 -2.13557 7.2521 0
M  V30 48830 H 4533.54 -3.30878 7.0579 0
M  V30 48831 N 4537.77 -1.57281 0.100283 0
M  V30 48832 C 4539.01 -1.94828 -0.563032 0
M  V30 48833 C 4539.35 -0.982534 -1.67511 0
M  V30 48834 O 4538.62 -0.0164753 -1.94493 0
M  V30 48835 C 4538.9 -3.42457 -1.11334 0
M  V30 48836 C 4538.76 -4.498 -0.00596268 0
M  V30 48837 C 4540.08 -3.91513 -2.01011 0
M  V30 48838 H 4537.19 -0.708435 -0.203196 0
M  V30 48839 H 4539.84 -1.89219 0.172045 0
M  V30 48840 H 4537.99 -3.47367 -1.73978 0
M  V30 48841 H 4539.66 -4.56998 0.628518 0
M  V30 48842 H 4537.9 -4.28754 0.659731 0
M  V30 48843 H 4538.57 -5.50308 -0.431916 0
M  V30 48844 H 4541.05 -3.88789 -1.48264 0
M  V30 48845 H 4539.92 -4.95366 -2.3644 0
M  V30 48846 H 4540.19 -3.31109 -2.92949 0
M  V30 48847 N 4539.25 0.173432 -1.56643 0
M  V30 48848 C 4540.16 1.23475 -1.99477 0
M  V30 48849 C 4541.17 1.48564 -0.905805 0
M  V30 48850 O 4542.35 1.60754 -1.21327 0
M  V30 48851 C 4539.41 2.55435 -2.34422 0
M  V30 48852 C 4538.47 2.38228 -3.57136 0
M  V30 48853 C 4537.71 3.63896 -3.90404 0
M  V30 48854 O 4537.93 4.68984 -3.24669 0
M  V30 48855 O 4536.86 3.58132 -4.83761 0
M  V30 48856 H 4540.69 0.901177 -2.90022 0
M  V30 48857 H 4538.27 0.380134 -1.44483 0
M  V30 48858 H 4540.16 3.33283 -2.57877 0
M  V30 48859 H 4538.83 2.88376 -1.4704 0
M  V30 48860 H 4537.74 1.58419 -3.38901 0
M  V30 48861 H 4539.07 2.10212 -4.45052 0
M  V30 48862 N 4540.72 1.51278 0.441914 0
M  V30 48863 C 4542.13 1.56248 1.02193 0
M  V30 48864 C 4542.49 0.383217 1.92421 0
M  V30 48865 O 4541.61 -0.500539 2.10532 0
M  V30 48866 C 4542.21 2.83168 1.86014 0
M  V30 48867 C 4540.76 2.90725 2.39073 0
M  V30 48868 C 4539.91 2.50862 1.18166 0
M  V30 48869 H 4542.86 1.5712 0.223361 0
M  V30 48870 H 4542.88 2.66672 2.71415 0
M  V30 48871 H 4542.4 3.68978 1.20318 0
M  V30 48872 H 4540.5 2.09334 3.08237 0
M  V30 48873 H 4540.61 3.94275 2.72184 0
M  V30 48874 H 4538.97 2.03957 1.52557 0
M  V30 48875 H 4539.76 3.39012 0.540882 0
M  V30 48876 N 4542.2 -0.697058 1.41347 0
M  V30 48877 C 4543.48 -1.45149 1.31115 0
M  V30 48878 C 4543.86 -2.11009 -0.0619707 0
M  V30 48879 O 4543.21 -2.01574 -1.07611 0
M  V30 48880 C 4543.42 -2.47214 2.46346 0
M  V30 48881 C 4544.76 -3.1251 2.87442 0
M  V30 48882 O 4545.79 -2.57538 2.46074 0
M  V30 48883 O 4544.65 -4.1207 3.58971 0
M  V30 48884 H 4541.74 -0.646347 0.515911 0
M  V30 48885 H 4544.29 -0.727662 1.53307 0
M  V30 48886 H 4543.06 -1.97193 3.3798 0
M  V30 48887 H 4542.68 -3.27108 2.26022 0
M  V30 48888 N 4543.68 -1.2715 -0.931165 0
M  V30 48889 C 4544.64 -1.09622 -2.01285 0
M  V30 48890 C 4545.64 -0.0413146 -1.60747 0
M  V30 48891 O 4546.83 -0.285605 -1.71843 0
M  V30 48892 C 4543.96 -0.669564 -3.3426 0
M  V30 48893 H 4545.16 -2.0567 -2.18266 0
M  V30 48894 H 4542.71 -1.09889 -1.11149 0
M  V30 48895 H 4543.45 0.292458 -3.22979 0
M  V30 48896 H 4543.23 -1.4314 -3.65039 0
M  V30 48897 H 4544.72 -0.569066 -4.13704 0
M  V30 48898 N 4545.16 1.13717 -1.09116 0
M  V30 48899 C 4546.38 1.89311 -0.84712 0
M  V30 48900 C 4546.81 1.78418 0.595711 0
M  V30 48901 O 4546.17 1.12947 1.41819 0
M  V30 48902 C 4546.21 3.37005 -1.28296 0
M  V30 48903 O 4545.32 4.10052 -0.439411 0
M  V30 48904 H 4544.66 0.588734 -0.307064 0
M  V30 48905 H 4547.19 1.43897 -1.45447 0
M  V30 48906 H 4547.2 3.8783 -1.26697 0
M  V30 48907 H 4545.87 3.44251 -2.33375 0
M  V30 48908 H 4544.45 3.69264 -0.519442 0
M  V30 48909 N 4546.64 0.877884 1.30885 0
M  V30 48910 C 4547.91 0.413119 1.91188 0
M  V30 48911 C 4548.29 -1.10554 1.79836 0
M  V30 48912 O 4547.64 -1.93767 1.21106 0
M  V30 48913 C 4547.85 0.90331 3.37107 0
M  V30 48914 C 4549.2 0.934096 4.14198 0
M  V30 48915 O 4550.22 0.849494 3.45922 0
M  V30 48916 O 4549.08 1.05791 5.36163 0
M  V30 48917 H 4546.18 0.125064 0.817489 0
M  V30 48918 H 4548.72 0.966318 1.39501 0
M  V30 48919 H 4547.49 1.94704 3.3942 0
M  V30 48920 H 4547.12 0.328871 3.96238 0
M  V30 48921 N 4548.11 -1.44104 0.638116 0
M  V30 48922 C 4549.06 -2.3248 -0.0747332 0
M  V30 48923 C 4550.06 -1.47749 -0.82865 0
M  V30 48924 O 4551.26 -1.64051 -0.740759 0
M  V30 48925 H 4547.64 -0.750773 -0.0429422 0
M  V30 48926 H 4549.61 -2.90346 0.688606 0
M  V30 48927 C 4548.36 -3.31847 -1.03793 0
M  V30 48928 H 4547.68 -3.9706 -0.467236 0
M  V30 48929 H 4549.12 -3.9635 -1.50608 0
M  V30 48930 C 4547.58 -2.61299 -2.12661 0
M  V30 48931 O 4548.11 -2.41714 -3.20839 0
M  V30 48932 N 4546.31 -2.20922 -1.88791 0
M  V30 48933 H 4545.86 -2.37051 -1.00821 0
M  V30 48934 H 4545.82 -1.74047 -2.6183 0
M  V30 48935 N 4549.59 -0.37909 -1.52973 0
M  V30 48936 C 4550.52 0.495884 -2.23771 0
M  V30 48937 C 4551.54 1.03513 -1.25654 0
M  V30 48938 O 4552.73 0.939196 -1.51794 0
M  V30 48939 C 4549.83 1.69884 -2.93245 0
M  V30 48940 C 4549 1.28876 -4.17983 0
M  V30 48941 C 4548.06 2.35527 -4.70546 0
M  V30 48942 O 4547.08 1.97357 -5.3389 0
M  V30 48943 N 4548.29 3.67302 -4.49521 0
M  V30 48944 H 4551.05 -0.110628 -2.99496 0
M  V30 48945 H 4548.61 -0.204934 -1.60598 0
M  V30 48946 H 4550.6 2.40736 -3.25313 0
M  V30 48947 H 4549.17 2.21192 -2.20891 0
M  V30 48948 H 4548.39 0.409538 -3.92067 0
M  V30 48949 H 4549.68 0.991268 -4.9905 0
M  V30 48950 H 4549.08 4.01081 -3.98937 0
M  V30 48951 H 4547.64 4.34218 -4.86105 0
M  V30 48952 N 4551.07 1.57225 -0.108623 0
M  V30 48953 C 4552.02 2.16005 0.862809 0
M  V30 48954 C 4553.01 1.10648 1.2827 0
M  V30 48955 O 4554.22 1.2897 1.25565 0
M  V30 48956 H 4550.59 0.691158 0.296318 0
M  V30 48957 H 4552.56 2.96428 0.34247 0
M  V30 48958 C 4551.31 2.76583 2.10706 0
M  V30 48959 H 4550.64 3.57346 1.79287 0
M  V30 48960 H 4552.08 3.21263 2.76706 0
M  V30 48961 C 4550.53 1.73147 2.89001 0
M  V30 48962 O 4551.06 1.17856 3.84022 0
M  V30 48963 N 4549.27 1.43326 2.52796 0
M  V30 48964 H 4548.82 1.88479 1.75594 0
M  V30 48965 H 4548.78 0.743592 3.0548 0
M  V30 48966 N 4552.55 -0.165123 1.56733 0
M  V30 48967 C 4553.77 -0.900187 1.86846 0
M  V30 48968 C 4554.2 -1.74763 0.695658 0
M  V30 48969 O 4553.56 -1.77787 -0.355157 0
M  V30 48970 C 4553.6 -1.74766 3.15419 0
M  V30 48971 O 4552.71 -2.84997 2.98078 0
M  V30 48972 H 4552.05 -0.25181 0.6144 0
M  V30 48973 H 4554.58 -0.161397 2.03962 0
M  V30 48974 H 4554.59 -2.14634 3.46981 0
M  V30 48975 H 4553.26 -1.12522 4.00389 0
M  V30 48976 H 4551.84 -2.48666 2.77884 0
M  V30 48977 N 4554.03 -1.5151 -0.433885 0
M  V30 48978 C 4555.27 -1.64593 -1.18478 0
M  V30 48979 C 4555.61 -0.362733 -1.90782 0
M  V30 48980 O 4554.88 0.637827 -1.83744 0
M  V30 48981 C 4555.16 -2.85157 -2.19903 0
M  V30 48982 C 4555.02 -4.23461 -1.51659 0
M  V30 48983 C 4556.34 -3.01239 -3.20848 0
M  V30 48984 H 4553.45 -0.59901 -0.429368 0
M  V30 48985 H 4556.1 -1.84003 -0.473582 0
M  V30 48986 H 4554.25 -2.68738 -2.80556 0
M  V30 48987 H 4555.92 -4.51555 -0.943164 0
M  V30 48988 H 4554.16 -4.26001 -0.818885 0
M  V30 48989 H 4554.83 -5.0382 -2.25542 0
M  V30 48990 H 4557.31 -3.16391 -2.70252 0
M  V30 48991 H 4556.18 -3.87155 -3.89104 0
M  V30 48992 H 4556.45 -2.1346 -3.87153 0
M  V30 48993 N 4555.5 0.689552 -1.41714 0
M  V30 48994 C 4556.45 1.8034 -1.44036 0
M  V30 48995 C 4557.42 1.63477 -0.294006 0
M  V30 48996 O 4558.61 1.84242 -0.495934 0
M  V30 48997 C 4555.75 3.18267 -1.33416 0
M  V30 48998 C 4554.86 3.4652 -2.57969 0
M  V30 48999 C 4553.99 4.74095 -2.39598 0
M  V30 49000 C 4553.03 4.95334 -3.59597 0
M  V30 49001 N 4552.17 6.14139 -3.4026 0
M  V30 49002 H 4557.01 1.7769 -2.39228 0
M  V30 49003 H 4554.55 0.867646 -1.18787 0
M  V30 49004 H 4556.51 3.97952 -1.2526 0
M  V30 49005 H 4555.14 3.20079 -0.418276 0
M  V30 49006 H 4554.19 2.61197 -2.76551 0
M  V30 49007 H 4555.5 3.58114 -3.47212 0
M  V30 49008 H 4554.65 5.61845 -2.28944 0
M  V30 49009 H 4553.39 4.64758 -1.47821 0
M  V30 49010 H 4552.4 4.06031 -3.707 0
M  V30 49011 H 4553.62 5.06526 -4.52336 0
M  V30 49012 H 4551.57 6.06004 -2.51188 0
M  V30 49013 H 4551.49 6.26528 -4.23083 0
M  V30 49014 H 4552.75 7.04607 -3.33389 0
M  V30 49015 N 4556.98 1.27642 0.924409 0
M  V30 49016 C 4558.23 1.13555 1.66698 0
M  V30 49017 C 4558.54 -0.317419 1.93007 0
M  V30 49018 O 4559.75 -0.57924 2.65249 0
M  V30 49019 C 4558.21 1.98436 3.00252 0
M  V30 49020 C 4557.81 3.4841 2.81629 0
M  V30 49021 C 4559.56 1.93007 3.78086 0
M  V30 49022 C 4557.47 4.25478 4.10758 0
M  V30 49023 H 4556.4 0.421373 0.625268 0
M  V30 49024 H 4559.05 1.52089 1.0267 0
M  V30 49025 H 4557.43 1.52749 3.65354 0
M  V30 49026 H 4558.6 4.01981 2.25273 0
M  V30 49027 H 4556.92 3.55253 2.1722 0
M  V30 49028 H 4559.51 2.47861 4.73782 0
M  V30 49029 H 4559.86 0.904424 4.06357 0
M  V30 49030 H 4560.39 2.36606 3.19785 0
M  V30 49031 H 4557.13 5.2858 3.87664 0
M  V30 49032 H 4556.65 3.76683 4.66765 0
M  V30 49033 H 4558.33 4.34829 4.79096 0
M  V30 49034 N 4558.46 -1.13137 1.09717 0
M  V30 49035 C 4559.71 -1.84116 0.833403 0
M  V30 49036 C 4560.03 -1.84099 -0.642839 0
M  V30 49037 O 4559.3 -1.29887 -1.4665 0
M  V30 49038 H 4557.88 -0.681756 0.305317 0
M  V30 49039 H 4560.54 -1.37033 1.38593 0
M  V30 49040 H 4559.64 -2.88539 1.18961 0
M  V30 49041 N 4559.94 -0.884812 -1.30418 0
M  V30 49042 C 4560.87 -0.367655 -2.30587 0
M  V30 49043 C 4561.85 0.549408 -1.60983 0
M  V30 49044 O 4563.03 0.463294 -1.88593 0
M  V30 49045 C 4560.16 0.418822 -3.44765 0
M  V30 49046 C 4559.12 -0.406466 -4.26066 0
M  V30 49047 C 4558.44 0.506606 -5.32295 0
M  V30 49048 C 4559.74 -1.64849 -4.95603 0
M  V30 49049 H 4561.44 -1.20472 -2.74093 0
M  V30 49050 H 4558.98 -0.580741 -1.3177 0
M  V30 49051 H 4560.94 0.79125 -4.13905 0
M  V30 49052 H 4559.66 1.28953 -3.00064 0
M  V30 49053 H 4558.32 -0.76103 -3.58614 0
M  V30 49054 H 4557.97 1.37502 -4.83841 0
M  V30 49055 H 4557.67 -0.0417893 -5.87585 0
M  V30 49056 H 4559.19 0.875552 -6.0429 0
M  V30 49057 H 4560.61 -1.34666 -5.57259 0
M  V30 49058 H 4559 -2.13707 -5.60758 0
M  V30 49059 H 4560.07 -2.39299 -4.21739 0
M  V30 49060 N 4561.42 1.43763 -0.645749 0
M  V30 49061 C 4562.69 1.95409 -0.086365 0
M  V30 49062 C 4563.07 1.5873 1.39169 0
M  V30 49063 O 4562.42 0.868656 2.11345 0
M  V30 49064 C 4562.63 3.47486 -0.324687 0
M  V30 49065 C 4563.98 4.24 -0.225646 0
M  V30 49066 O 4565 3.55273 -0.25684 0
M  V30 49067 O 4563.86 5.46313 -0.142993 0
M  V30 49068 H 4560.96 0.826883 0.0139192 0
M  V30 49069 H 4563.5 1.5374 -0.718469 0
M  V30 49070 H 4562.27 3.67285 -1.34973 0
M  V30 49071 H 4561.9 3.96136 0.340848 0
M  V30 49072 N 4562.89 0.387197 1.5277 0
M  V30 49073 C 4563.8 -0.456361 2.30118 0
M  V30 49074 C 4564.82 -1.07338 1.36948 0
M  V30 49075 O 4566 -1.07965 1.70016 0
M  V30 49076 C 4563.06 -1.56946 3.09142 0
M  V30 49077 C 4562.12 -0.977769 4.18017 0
M  V30 49078 C 4561.36 -2.03783 4.93263 0
M  V30 49079 O 4561.58 -3.25254 4.68578 0
M  V30 49080 O 4560.51 -1.6563 5.78663 0
M  V30 49081 H 4564.34 0.173696 3.03203 0
M  V30 49082 H 4561.92 0.150971 1.48635 0
M  V30 49083 H 4563.81 -2.21615 3.5842 0
M  V30 49084 H 4562.48 -2.18452 2.38873 0
M  V30 49085 H 4561.39 -0.294394 3.7294 0
M  V30 49086 H 4562.72 -0.406956 4.90515 0
M  V30 49087 N 4564.37 -1.57165 0.116959 0
M  V30 49088 C 4565.62 -1.94739 -0.540465 0
M  V30 49089 C 4565.94 -1.00102 -1.67346 0
M  V30 49090 O 4565.21 -0.0569543 -1.95817 0
M  V30 49091 H 4563.79 -0.718989 -0.202644 0
M  V30 49092 H 4566.45 -1.94016 0.185422 0
M  V30 49093 H 4565.55 -2.97722 -0.936379 0
M  V30 49094 N 4565.85 0.156809 -1.56818 0
M  V30 49095 C 4566.8 1.21312 -1.9846 0
M  V30 49096 C 4567.79 1.45022 -0.875495 0
M  V30 49097 O 4569 1.45431 -1.06065 0
M  V30 49098 H 4565.37 0.40812 -0.631619 0
M  V30 49099 H 4567.34 0.835144 -2.86475 0
M  V30 49100 C 4566.09 2.54139 -2.37294 0
M  V30 49101 H 4565.42 2.36722 -3.22185 0
M  V30 49102 H 4566.86 3.26702 -2.70262 0
M  V30 49103 C 4565.32 3.13963 -1.22184 0
M  V30 49104 O 4565.85 3.98355 -0.517289 0
M  V30 49105 N 4564.05 2.73266 -0.988632 0
M  V30 49106 H 4563.6 2.04738 -1.56333 0
M  V30 49107 H 4563.56 3.13627 -0.220319 0
M  V30 49108 N 4567.33 1.51738 0.425844 0
M  V30 49109 C 4568.56 1.68554 1.19471 0
M  V30 49110 C 4568.97 0.387353 1.85192 0
M  V30 49111 O 4568.31 -0.645082 1.72001 0
M  V30 49112 C 4568.37 2.75283 2.31213 0
M  V30 49113 C 4568.04 4.17541 1.85765 0
M  V30 49114 C 4569.03 5.01941 1.35467 0
M  V30 49115 C 4566.72 4.63697 1.93107 0
M  V30 49116 C 4568.71 6.30562 0.931126 0
M  V30 49117 C 4566.4 5.92312 1.50363 0
M  V30 49118 C 4567.4 6.75573 1.0045 0
M  V30 49119 O 4567.08 8.01782 0.58317 0
M  V30 49120 H 4566.82 0.568538 0.365705 0
M  V30 49121 H 4569.37 1.98984 0.509375 0
M  V30 49122 H 4567.6 2.40193 3.03058 0
M  V30 49123 H 4569.29 2.80863 2.93037 0
M  V30 49124 H 4570.06 4.6748 1.29181 0
M  V30 49125 H 4565.93 3.99005 2.30902 0
M  V30 49126 H 4569.48 6.955 0.540839 0
M  V30 49127 H 4565.38 6.26285 1.56324 0
M  V30 49128 H 4566.14 8.15432 0.707988 0
M  V30 49129 N 4568.81 -0.682027 1.42078 0
M  V30 49130 C 4570.22 -1.26241 1.37551 0
M  V30 49131 C 4570.57 -1.96092 0.0652171 0
M  V30 49132 O 4569.69 -1.9959 -0.836227 0
M  V30 49133 C 4570.29 -2.29585 2.49151 0
M  V30 49134 C 4568.85 -2.83167 2.47979 0
M  V30 49135 C 4568 -1.57387 2.28308 0
M  V30 49136 H 4570.95 -0.475884 1.51397 0
M  V30 49137 H 4570.97 -3.11167 2.18987 0
M  V30 49138 H 4570.48 -1.78717 3.44502 0
M  V30 49139 H 4568.58 -3.38175 1.56425 0
M  V30 49140 H 4568.69 -3.32675 3.44767 0
M  V30 49141 H 4567.06 -1.83693 1.76434 0
M  V30 49142 H 4567.84 -1.08496 3.25705 0
M  V30 49143 N 4570.29 -1.2813 -0.917626 0
M  V30 49144 C 4571.53 -1.14831 -1.66308 0
M  V30 49145 C 4571.85 0.304311 -1.92611 0
M  V30 49146 O 4571.12 1.21143 -1.53952 0
M  V30 49147 H 4569.7 -0.421974 -0.616398 0
M  V30 49148 H 4572.37 -1.60804 -1.10128 0
M  V30 49149 H 4571.46 -1.68499 -2.62706 0
M  V30 49150 N 4571.76 1.12553 -1.10316 0
M  V30 49151 C 4573.17 1.65571 -0.862736 0
M  V30 49152 C 4573.53 1.86568 0.60719 0
M  V30 49153 O 4572.65 1.59126 1.46656 0
M  V30 49154 C 4573.25 3.0077 -1.55957 0
M  V30 49155 C 4571.8 3.50743 -1.36589 0
M  V30 49156 C 4570.95 2.25792 -1.60976 0
M  V30 49157 H 4573.9 0.963507 -1.26104 0
M  V30 49158 H 4573.92 3.67182 -0.997883 0
M  V30 49159 H 4573.44 2.85456 -2.62938 0
M  V30 49160 H 4571.54 3.71243 -0.317661 0
M  V30 49161 H 4571.65 4.30281 -2.10701 0
M  V30 49162 H 4570.01 2.32837 -1.03242 0
M  V30 49163 H 4570.8 2.13033 -2.69206 0
M  V30 49164 N 4573.24 0.891716 1.29947 0
M  V30 49165 C 4574.49 0.512555 1.95492 0
M  V30 49166 C 4574.81 -0.942716 1.70698 0
M  V30 49167 O 4574.08 -1.6637 1.0343 0
M  V30 49168 H 4572.66 0.186558 0.723329 0
M  V30 49169 H 4575.32 1.13627 1.58351 0
M  V30 49170 H 4574.42 0.688449 3.04412 0
M  V30 49171 N 4574.72 -1.43419 0.653364 0
M  V30 49172 C 4575.97 -2.01031 0.164146 0
M  V30 49173 C 4576.28 -1.52151 -1.2292 0
M  V30 49174 O 4577.49 -2.02038 -1.81364 0
M  V30 49175 C 4575.94 -3.59081 0.242646 0
M  V30 49176 C 4575.55 -4.16954 1.6387 0
M  V30 49177 C 4577.3 -4.24079 -0.188961 0
M  V30 49178 C 4575.2 -5.67299 1.67111 0
M  V30 49179 H 4574.13 -0.751796 0.0576033 0
M  V30 49180 H 4576.78 -1.64387 0.81542 0
M  V30 49181 H 4575.17 -3.93127 -0.476138 0
M  V30 49182 H 4576.34 -3.94407 2.38284 0
M  V30 49183 H 4574.65 -3.64328 2.01629 0
M  V30 49184 H 4577.25 -5.34381 -0.184587 0
M  V30 49185 H 4577.59 -3.98009 -1.22042 0
M  V30 49186 H 4578.13 -3.94917 0.478077 0
M  V30 49187 H 4574.87 -5.98136 2.68167 0
M  V30 49188 H 4574.39 -5.91901 0.970223 0
M  V30 49189 H 4576.07 -6.31339 1.41492 0
M  V30 49190 N 4576.2 -0.395293 -1.52562 0
M  V30 49191 C 4577.13 0.472122 -2.24285 0
M  V30 49192 C 4578.14 1.02174 -1.26745 0
M  V30 49193 O 4579.33 0.923043 -1.52781 0
M  V30 49194 C 4576.43 1.66764 -2.9503 0
M  V30 49195 C 4575.6 1.24435 -4.19326 0
M  V30 49196 C 4574.66 2.30523 -4.73018 0
M  V30 49197 O 4573.69 1.91683 -5.35954 0
M  V30 49198 N 4574.89 3.62514 -4.53392 0
M  V30 49199 H 4577.66 -0.142387 -2.99362 0
M  V30 49200 H 4575.22 -0.221956 -1.60371 0
M  V30 49201 H 4577.21 2.37272 -3.27848 0
M  V30 49202 H 4575.78 2.18837 -2.23225 0
M  V30 49203 H 4575 0.367931 -3.92479 0
M  V30 49204 H 4576.29 0.938281 -5.00074 0
M  V30 49205 H 4575.69 3.96827 -4.03168 0
M  V30 49206 H 4574.24 4.29038 -4.90683 0
M  V30 49207 N 4577.68 1.57101 -0.125292 0
M  V30 49208 C 4578.9 1.99763 0.538726 0
M  V30 49209 C 4579.32 1.00509 1.59823 0
M  V30 49210 O 4578.68 -0.00113059 1.825 0
M  V30 49211 C 4578.73 3.42412 1.15915 0
M  V30 49212 O 4578.45 4.3787 0.141989 0
M  V30 49213 C 4579.95 4.00239 1.90588 0
M  V30 49214 H 4577.17 0.655777 0.142117 0
M  V30 49215 H 4579.71 2.03383 -0.213485 0
M  V30 49216 H 4577.87 3.39712 1.86211 0
M  V30 49217 H 4578.28 5.2113 0.593592 0
M  V30 49218 H 4579.76 5.02113 2.29318 0
M  V30 49219 H 4580.23 3.39731 2.78351 0
M  V30 49220 H 4580.84 4.06503 1.25041 0
M  V30 49221 N 4579.15 -0.14849 1.56899 0
M  V30 49222 C 4580.1 -1.18854 1.94571 0
M  V30 49223 C 4581.09 -1.38627 0.816784 0
M  V30 49224 O 4582.28 -1.40214 1.08023 0
M  V30 49225 C 4579.41 -2.52254 2.32858 0
M  V30 49226 C 4578.49 -2.36079 3.52317 0
M  V30 49227 N 4578.89 -1.89658 4.68896 0
M  V30 49228 C 4577.18 -2.66835 3.57372 0
M  V30 49229 C 4577.88 -1.86491 5.50995 0
M  V30 49230 N 4576.86 -2.29749 4.92663 0
M  V30 49231 H 4580.66 -0.821694 2.8218 0
M  V30 49232 H 4578.18 -0.356559 1.58437 0
M  V30 49233 H 4580.17 -3.27438 2.58051 0
M  V30 49234 H 4578.83 -2.89722 1.46599 0
M  V30 49235 H 4579.84 -1.59646 4.9268 0
M  V30 49236 H 4576.52 -3.08188 2.8165 0
M  V30 49237 H 4577.91 -1.52105 6.54457 0
M  V30 49238 N 4580.63 -1.51961 -0.417791 0
M  V30 49239 C 4581.86 -1.69431 -1.18747 0
M  V30 49240 C 4582.27 -0.40002 -1.84514 0
M  V30 49241 O 4581.63 0.623228 -1.71529 0
M  V30 49242 C 4581.68 -2.82383 -2.25704 0
M  V30 49243 O 4581.4 -4.06799 -1.62624 0
M  V30 49244 C 4582.9 -3.11289 -3.15617 0
M  V30 49245 H 4580.12 -0.568043 -0.357166 0
M  V30 49246 H 4582.67 -1.98477 -0.492661 0
M  V30 49247 H 4580.82 -2.5588 -2.90868 0
M  V30 49248 H 4581.24 -4.69676 -2.33463 0
M  V30 49249 H 4582.71 -3.93857 -3.86757 0
M  V30 49250 H 4583.19 -2.24486 -3.77495 0
M  V30 49251 H 4583.79 -3.39524 -2.56132 0
M  V30 49252 N 4582.11 0.674483 -1.42438 0
M  V30 49253 C 4583.04 1.80004 -1.4873 0
M  V30 49254 C 4584.02 1.66588 -0.343852 0
M  V30 49255 O 4585.21 1.86005 -0.558202 0
M  V30 49256 C 4582.34 3.18301 -1.3893 0
M  V30 49257 C 4581.29 3.46453 -2.51306 0
M  V30 49258 C 4580.62 4.84327 -2.26564 0
M  V30 49259 C 4581.92 3.43314 -3.93615 0
M  V30 49260 H 4583.61 1.74995 -2.42934 0
M  V30 49261 H 4581.16 0.840491 -1.16926 0
M  V30 49262 H 4583.11 3.96776 -1.41941 0
M  V30 49263 H 4581.83 3.23988 -0.412208 0
M  V30 49264 H 4580.49 2.70339 -2.47613 0
M  V30 49265 H 4580.14 4.86665 -1.27147 0
M  V30 49266 H 4579.84 5.04126 -3.01879 0
M  V30 49267 H 4581.36 5.65086 -2.31324 0
M  V30 49268 H 4582.78 4.11758 -3.98909 0
M  V30 49269 H 4581.17 3.74648 -4.68785 0
M  V30 49270 H 4582.24 2.41882 -4.20263 0
M  V30 49271 N 4583.59 1.28615 0.910818 0
M  V30 49272 C 4584.82 1.18798 1.69395 0
M  V30 49273 C 4585.23 -0.252973 1.87098 0
M  V30 49274 O 4584.59 -1.17066 1.40007 0
M  V30 49275 C 4584.64 1.88522 3.08451 0
M  V30 49276 O 4584.36 3.26989 2.91564 0
M  V30 49277 C 4585.86 1.85043 4.02832 0
M  V30 49278 H 4583.08 0.412252 0.529423 0
M  V30 49279 H 4585.63 1.69792 1.13978 0
M  V30 49280 H 4583.78 1.41391 3.60676 0
M  V30 49281 H 4584.19 3.61949 3.79596 0
M  V30 49282 H 4585.67 2.38413 4.97859 0
M  V30 49283 H 4586.15 0.823454 4.31411 0
M  V30 49284 H 4586.75 2.31866 3.56537 0
M  V30 49285 N 4585.07 -1.11967 1.10911 0
M  V30 49286 C 4585.98 -2.2143 0.774974 0
M  V30 49287 C 4586.99 -1.72479 -0.229596 0
M  V30 49288 O 4588.17 -2.01288 -0.06713 0
M  V30 49289 C 4585.23 -3.4602 0.217107 0
M  V30 49290 C 4584.29 -4.09787 1.27958 0
M  V30 49291 C 4583.53 -5.28429 0.748241 0
M  V30 49292 O 4583.75 -5.68825 -0.423633 0
M  V30 49293 O 4582.68 -5.82639 1.51047 0
M  V30 49294 H 4586.51 -2.52414 1.68882 0
M  V30 49295 H 4584.1 -1.20396 0.884597 0
M  V30 49296 H 4585.98 -4.21304 -0.0899109 0
M  V30 49297 H 4584.65 -3.167 -0.669522 0
M  V30 49298 H 4583.56 -3.36259 1.63953 0
M  V30 49299 H 4584.89 -4.43272 2.1394 0
M  V30 49300 N 4586.54 -0.898595 -1.29472 0
M  V30 49301 C 4587.45 -0.380055 -2.31501 0
M  V30 49302 C 4588.47 0.524637 -1.65902 0
M  V30 49303 O 4589.65 0.414482 -1.97089 0
M  V30 49304 C 4586.71 0.385017 -3.44556 0
M  V30 49305 C 4585.77 -0.551064 -4.25748 0
M  V30 49306 C 4585.01 0.177591 -5.33404 0
M  V30 49307 O 4585.23 1.40169 -5.52909 0
M  V30 49308 O 4584.16 -0.479317 -5.99988 0
M  V30 49309 H 4587.99 -1.22648 -2.77833 0
M  V30 49310 H 4585.57 -0.662882 -1.33889 0
M  V30 49311 H 4587.46 0.817696 -4.1339 0
M  V30 49312 H 4586.13 1.20752 -3.00334 0
M  V30 49313 H 4585.04 -1.03283 -3.5956 0
M  V30 49314 H 4586.37 -1.33996 -4.7361 0
M  V30 49315 N 4588.02 1.4307 -0.660961 0
M  V30 49316 C 4589.27 2.00941 -0.174805 0
M  V30 49317 C 4589.58 1.52801 1.22112 0
M  V30 49318 O 4590.79 2.02997 1.8029 0
M  V30 49319 C 4589.25 3.58947 -0.261685 0
M  V30 49320 C 4588.85 4.16079 -1.66079 0
M  V30 49321 C 4590.6 4.24173 0.166468 0
M  V30 49322 C 4588.51 5.66404 -1.70118 0
M  V30 49323 H 4587.44 0.75148 -0.0615895 0
M  V30 49324 H 4590.09 1.63952 -0.824126 0
M  V30 49325 H 4588.47 3.93374 0.455283 0
M  V30 49326 H 4589.64 3.93138 -2.40373 0
M  V30 49327 H 4587.96 3.63253 -2.03559 0
M  V30 49328 H 4590.55 5.34472 0.156245 0
M  V30 49329 H 4590.9 3.98651 1.19929 0
M  V30 49330 H 4591.43 3.94658 -0.499014 0
M  V30 49331 H 4588.17 5.96705 -2.71336 0
M  V30 49332 H 4587.69 5.91378 -1.0016 0
M  V30 49333 H 4589.37 6.3058 -1.44838 0
M  V30 49334 N 4589.5 0.403378 1.5235 0
M  V30 49335 C 4590.45 -0.442165 2.23671 0
M  V30 49336 C 4591.43 -1.01818 1.24587 0
M  V30 49337 O 4592.63 -0.941952 1.49854 0
M  V30 49338 C 4589.76 -1.56139 3.05737 0
M  V30 49339 C 4588.84 -0.99643 4.12228 0
M  V30 49340 N 4589.23 -0.157627 5.05554 0
M  V30 49341 C 4587.53 -1.26752 4.2761 0
M  V30 49342 C 4588.23 0.156058 5.81491 0
M  V30 49343 N 4587.21 -0.451585 5.41721 0
M  V30 49344 H 4591.01 0.205067 2.93184 0
M  V30 49345 H 4588.52 0.213474 1.60991 0
M  V30 49346 H 4590.52 -2.17968 3.55381 0
M  V30 49347 H 4589.18 -2.21131 2.37763 0
M  V30 49348 H 4590.19 0.206231 5.17489 0
M  V30 49349 H 4586.87 -1.91744 3.70865 0
M  V30 49350 H 4588.26 0.836564 6.66672 0
M  V30 49351 N 4590.98 -1.57033 0.133622 0
M  V30 49352 C 4591.93 -2.17351 -0.828336 0
M  V30 49353 C 4592.92 -1.12675 -1.26494 0
M  V30 49354 O 4594.13 -1.30952 -1.23498 0
M  V30 49355 H 4590.5 -0.695785 -0.285284 0
M  V30 49356 H 4592.47 -2.96936 -0.295268 0
M  V30 49357 C 4591.22 -2.799 -2.06279 0
M  V30 49358 H 4590.54 -3.60153 -1.7358 0
M  V30 49359 H 4591.98 -3.25624 -2.7156 0
M  V30 49360 C 4590.44 -1.77723 -2.8621 0
M  V30 49361 O 4590.97 -1.2395 -3.82098 0
M  V30 49362 N 4589.18 -1.4733 -2.50484 0
M  V30 49363 H 4588.73 -1.91249 -1.72574 0
M  V30 49364 H 4588.68 -0.792097 -3.04258 0
M  V30 49365 N 4592.46 0.140167 -1.56975 0
M  V30 49366 C 4593.87 0.493035 -1.51794 0
M  V30 49367 C 4594.07 1.8301 -0.84318 0
M  V30 49368 O 4593.13 2.4904 -0.41658 0
M  V30 49369 C 4594.44 0.497039 -2.96564 0
M  V30 49370 C 4595.99 0.582078 -3.0754 0
M  V30 49371 C 4596.46 0.616679 -4.53829 0
M  V30 49372 N 4597.96 0.678712 -4.58201 0
M  V30 49373 C 4598.69 0.726582 -5.68778 0
M  V30 49374 N 4598.19 0.733381 -6.88907 0
M  V30 49375 N 4599.98 0.767983 -5.56829 0
M  V30 49376 H 4592.13 -0.736178 -1.99234 0
M  V30 49377 H 4594.39 -0.269214 -0.908971 0
M  V30 49378 H 4594.1 -0.41734 -3.49215 0
M  V30 49379 H 4593.97 1.33251 -3.5288 0
M  V30 49380 H 4596.36 1.48688 -2.54904 0
M  V30 49381 H 4596.44 -0.28067 -2.54256 0
M  V30 49382 H 4596.09 -0.28399 -5.07105 0
M  V30 49383 H 4596.02 1.49601 -5.04903 0
M  V30 49384 H 4598.51 0.680479 -3.71723 0
M  V30 49385 H 4598.82 0.771945 -7.68935 0
M  V30 49386 H 4597.16 0.701146 -6.91454 0
M  V30 49387 H 4600.36 0.759889 -4.61891 0
M  V30 49388 H 4600.53 0.801824 -6.4302 0
M  V30 49389 N 4593.93 1.52181 0.409726 0
M  V30 49390 C 4595.21 1.56773 1.16968 0
M  V30 49391 C 4595.59 0.348395 2.08205 0
M  V30 49392 O 4594.94 -0.664786 2.18616 0
M  V30 49393 C 4595.15 2.89609 1.9475 0
M  V30 49394 C 4596.5 3.42588 2.50837 0
M  V30 49395 O 4597.52 2.91345 2.0493 0
M  V30 49396 O 4596.38 4.32066 3.34636 0
M  V30 49397 H 4593.47 0.631458 0.534032 0
M  V30 49398 H 4596.02 1.64508 0.416555 0
M  V30 49399 H 4594.79 3.69804 1.27908 0
M  V30 49400 H 4594.42 2.85164 2.77069 0
M  V30 49401 N 4595.41 -0.666919 1.42793 0
M  V30 49402 C 4596.38 -1.76206 1.46574 0
M  V30 49403 C 4597.38 -1.56894 0.352251 0
M  V30 49404 O 4598.57 -1.63042 0.613422 0
M  V30 49405 C 4595.7 -3.1493 1.30505 0
M  V30 49406 H 4596.89 -1.74239 2.44092 0
M  V30 49407 H 4594.44 -0.877296 1.29357 0
M  V30 49408 H 4595.18 -3.22519 0.339415 0
M  V30 49409 H 4594.96 -3.30352 2.11211 0
M  V30 49410 H 4596.45 -3.94816 1.36052 0
M  V30 49411 N 4596.89 -1.29096 -0.903985 0
M  V30 49412 C 4598.31 -1.07015 -1.18406 0
M  V30 49413 C 4598.51 0.181288 -2.00683 0
M  V30 49414 O 4597.56 0.880248 -2.3666 0
M  V30 49415 C 4598.88 -2.32318 -1.90916 0
M  V30 49416 C 4600.42 -2.37594 -2.0376 0
M  V30 49417 C 4600.9 -3.62689 -2.7968 0
M  V30 49418 N 4602.39 -3.63386 -2.87237 0
M  V30 49419 C 4603.12 -4.5686 -3.46506 0
M  V30 49420 N 4602.62 -5.60663 -4.06976 0
M  V30 49421 N 4604.41 -4.44438 -3.44139 0
M  V30 49422 H 4596.56 -2.09414 -0.35492 0
M  V30 49423 H 4598.83 -0.922189 -0.219709 0
M  V30 49424 H 4598.53 -3.2354 -1.37893 0
M  V30 49425 H 4598.41 -2.39493 -2.91415 0
M  V30 49426 H 4600.79 -1.46862 -2.5596 0
M  V30 49427 H 4600.88 -2.34407 -1.02407 0
M  V30 49428 H 4600.52 -4.5377 -2.28157 0
M  V30 49429 H 4600.45 -3.63133 -3.81369 0
M  V30 49430 H 4602.94 -2.8833 -2.44283 0
M  V30 49431 H 4603.25 -6.28117 -4.5021 0
M  V30 49432 H 4601.6 -5.64477 -4.05451 0
M  V30 49433 H 4604.79 -3.62539 -2.96113 0
M  V30 49434 H 4604.96 -5.17471 -3.90036 0
M  V30 49435 N 4598.37 1.11377 -1.11503 0
M  V30 49436 C 4599.78 1.64647 -0.880248 0
M  V30 49437 C 4600.13 1.87202 0.587368 0
M  V30 49438 O 4599.26 1.60672 1.4496 0
M  V30 49439 C 4599.85 2.99099 -1.59139 0
M  V30 49440 C 4598.41 3.49274 -1.40301 0
M  V30 49441 C 4597.56 2.24072 -1.63362 0
M  V30 49442 H 4600.51 0.950078 -1.27119 0
M  V30 49443 H 4600.53 3.66103 -1.03677 0
M  V30 49444 H 4600.04 2.82651 -2.65951 0
M  V30 49445 H 4598.14 3.70886 -0.357019 0
M  V30 49446 H 4598.26 4.28022 -2.15253 0
M  V30 49447 H 4596.62 2.31729 -1.05706 0
M  V30 49448 H 4597.4 2.10166 -2.7145 0
M  V30 49449 N 4599.85 0.905449 1.28994 0
M  V30 49450 C 4601.09 0.534316 1.95324 0
M  V30 49451 C 4601.42 -0.920474 1.7134 0
M  V30 49452 O 4600.68 -1.66858 1.0226 0
M  V30 49453 C 4600.98 0.780028 3.48784 0
M  V30 49454 C 4600.64 2.21307 3.92854 0
M  V30 49455 C 4599.3 2.60489 4.04597 0
M  V30 49456 C 4601.66 3.14602 4.15542 0
M  V30 49457 C 4598.98 3.92136 4.36402 0
M  V30 49458 C 4601.34 4.45803 4.48824 0
M  V30 49459 C 4600 4.8485 4.58777 0
M  V30 49460 H 4599.27 0.19552 0.71474 0
M  V30 49461 H 4601.92 1.1452 1.53484 0
M  V30 49462 H 4600.22 0.0862742 3.91705 0
M  V30 49463 H 4601.92 0.472169 3.9821 0
M  V30 49464 H 4598.51 1.899 3.84234 0
M  V30 49465 H 4602.69 2.85542 4.0593 0
M  V30 49466 H 4597.95 4.22102 4.42312 0
M  V30 49467 H 4602.12 5.18115 4.65328 0
M  V30 49468 H 4599.75 5.86894 4.83177 0
M  V30 49469 N 4601.33 -1.42718 0.668539 0
M  V30 49470 C 4602.57 -2.00846 0.185459 0
M  V30 49471 C 4602.89 -1.53446 -1.213 0
M  V30 49472 O 4604.09 -2.0395 -1.79211 0
M  V30 49473 C 4602.55 -3.58804 0.280718 0
M  V30 49474 C 4602.16 -4.15193 1.68283 0
M  V30 49475 C 4603.9 -4.24256 -0.143971 0
M  V30 49476 C 4601.81 -5.65494 1.73119 0
M  V30 49477 H 4600.74 -0.751143 0.0655739 0
M  V30 49478 H 4603.39 -1.63513 0.83281 0
M  V30 49479 H 4601.77 -3.9361 -0.434415 0
M  V30 49480 H 4602.95 -3.91858 2.42454 0
M  V30 49481 H 4601.26 -3.62169 2.05482 0
M  V30 49482 H 4603.86 -5.34547 -0.127898 0
M  V30 49483 H 4604.2 -3.99281 -1.17813 0
M  V30 49484 H 4604.73 -3.94387 0.519937 0
M  V30 49485 H 4601.47 -5.95258 2.74496 0
M  V30 49486 H 4600.99 -5.90839 1.03295 0
M  V30 49487 H 4602.67 -6.29803 1.48181 0
M  V30 49488 N 4602.8 -0.411452 -1.52134 0
M  V30 49489 C 4603.74 0.457535 -2.23566 0
M  V30 49490 C 4604.71 1.04609 -1.24482 0
M  V30 49491 O 4605.9 1.09351 -1.5354 0
M  V30 49492 C 4603.03 1.63529 -2.96607 0
M  V30 49493 C 4602.07 1.16991 -4.10141 0
M  V30 49494 S 4602.9 0.133142 -5.35334 0
M  V30 49495 C 4604.06 1.31617 -6.11905 0
M  V30 49496 H 4604.29 -0.148987 -2.96926 0
M  V30 49497 H 4601.83 -0.195767 -1.53154 0
M  V30 49498 H 4603.78 2.31062 -3.39294 0
M  V30 49499 H 4602.45 2.21316 -2.22885 0
M  V30 49500 H 4601.64 2.04989 -4.6043 0
M  V30 49501 H 4601.24 0.573189 -3.69582 0
M  V30 49502 H 4603.53 2.23934 -6.39421 0
M  V30 49503 H 4604.48 0.853767 -7.02934 0
M  V30 49504 H 4604.88 1.54302 -5.43002 0
M  V30 49505 N 4604.28 1.56959 -0.141948 0
M  V30 49506 C 4605.53 1.95136 0.510358 0
M  V30 49507 C 4605.84 1.02902 1.66345 0
M  V30 49508 O 4607.05 1.30637 2.38005 0
M  V30 49509 C 4605.51 3.46879 0.959305 0
M  V30 49510 C 4605.11 4.4769 -0.166576 0
M  V30 49511 C 4606.86 3.93933 1.58169 0
M  V30 49512 C 4604.76 5.90637 0.300357 0
M  V30 49513 H 4603.69 0.728501 0.194428 0
M  V30 49514 H 4606.35 1.82109 -0.225484 0
M  V30 49515 H 4604.73 3.55221 1.75026 0
M  V30 49516 H 4605.9 4.51039 -0.943409 0
M  V30 49517 H 4604.22 4.10524 -0.697049 0
M  V30 49518 H 4606.81 4.98165 1.94257 0
M  V30 49519 H 4607.16 3.35198 2.46876 0
M  V30 49520 H 4607.69 3.88487 0.855726 0
M  V30 49521 H 4604.43 6.53178 -0.551218 0
M  V30 49522 H 4603.95 5.90659 1.04317 0
M  V30 49523 H 4605.63 6.42591 0.754039 0
M  V30 49524 N 4605.76 -0.13184 1.57048 0
M  V30 49525 C 4606.69 -1.16377 2.02432 0
M  V30 49526 C 4607.67 -1.43933 0.906491 0
M  V30 49527 O 4608.86 -1.54594 1.17534 0
M  V30 49528 C 4605.99 -2.4932 2.41779 0
M  V30 49529 C 4604.94 -2.36253 3.56887 0
M  V30 49530 C 4604.27 -3.74044 3.82093 0
M  V30 49531 C 4605.57 -1.83383 4.89048 0
M  V30 49532 H 4607.26 -0.786332 2.8889 0
M  V30 49533 H 4604.81 -0.376806 1.38983 0
M  V30 49534 H 4606.76 -3.21749 2.72131 0
M  V30 49535 H 4605.48 -2.88928 1.52276 0
M  V30 49536 H 4604.14 -1.66274 3.26724 0
M  V30 49537 H 4603.79 -4.11114 2.89817 0
M  V30 49538 H 4603.49 -3.66158 4.59567 0
M  V30 49539 H 4605.01 -4.47998 4.14886 0
M  V30 49540 H 4606.43 -2.45618 5.1802 0
M  V30 49541 H 4604.82 -1.8635 5.70433 0
M  V30 49542 H 4605.89 -0.790494 4.78413 0
M  V30 49543 N 4607.24 -1.52396 -0.40165 0
M  V30 49544 C 4608.49 -1.66492 -1.14564 0
M  V30 49545 C 4608.81 -0.400964 -1.90833 0
M  V30 49546 O 4608.08 0.58435 -1.86982 0
M  V30 49547 H 4606.66 -0.613687 -0.425907 0
M  V30 49548 H 4609.32 -1.89466 -0.457026 0
M  V30 49549 H 4608.41 -2.50948 -1.85557 0
M  V30 49550 N 4608.72 0.659337 -1.43145 0
M  V30 49551 C 4609.94 1.45216 -1.48078 0
M  V30 49552 C 4610.37 1.87844 -0.098061 0
M  V30 49553 O 4609.72 1.56988 0.906885 0
M  V30 49554 C 4609.77 2.6674 -2.42657 0
M  V30 49555 O 4608.88 3.65576 -1.9086 0
M  V30 49556 H 4608.22 0.435651 -0.501103 0
M  V30 49557 H 4610.75 0.807366 -1.87997 0
M  V30 49558 H 4610.76 3.14628 -2.59756 0
M  V30 49559 H 4609.43 2.35055 -3.43107 0
M  V30 49560 H 4608.01 3.24687 -1.83392 0
M  V30 49561 N 4610.19 1.29574 0.897126 0
M  V30 49562 C 4611.61 1.07641 1.17837 0
M  V30 49563 C 4611.81 -0.170642 2.00776 0
M  V30 49564 O 4610.87 -0.867685 2.37123 0
M  V30 49565 C 4612.18 2.33327 1.89682 0
M  V30 49566 C 4613.73 2.38671 2.02497 0
M  V30 49567 C 4614.2 3.64167 2.77753 0
M  V30 49568 N 4615.69 3.64904 2.85305 0
M  V30 49569 C 4616.43 4.58691 3.44078 0
M  V30 49570 N 4615.92 5.62813 4.03997 0
M  V30 49571 N 4617.72 4.46257 3.41777 0
M  V30 49572 H 4609.87 2.09599 0.343809 0
M  V30 49573 H 4612.13 0.923341 0.214815 0
M  V30 49574 H 4611.84 3.24267 1.36175 0
M  V30 49575 H 4611.71 2.41035 2.90141 0
M  V30 49576 H 4614.1 1.48217 2.55178 0
M  V30 49577 H 4614.18 2.34946 1.01162 0
M  V30 49578 H 4613.82 4.54973 2.25747 0
M  V30 49579 H 4613.75 3.6515 3.79438 0
M  V30 49580 H 4616.24 2.89621 2.42751 0
M  V30 49581 H 4616.56 6.30495 4.46873 0
M  V30 49582 H 4614.9 5.6662 4.02452 0
M  V30 49583 H 4618.09 3.64104 2.94187 0
M  V30 49584 H 4618.27 5.19532 3.87286 0
M  V30 49585 N 4611.67 -1.10784 1.12092 0
M  V30 49586 C 4612.62 -2.19108 0.780664 0
M  V30 49587 C 4613.61 -1.67819 -0.230902 0
M  V30 49588 O 4614.82 -1.79777 -0.0894795 0
M  V30 49589 H 4611.19 -0.714468 0.234603 0
M  V30 49590 H 4613.17 -2.45049 1.70275 0
M  V30 49591 C 4611.91 -3.46817 0.247591 0
M  V30 49592 H 4611.24 -3.86642 1.01725 0
M  V30 49593 H 4612.68 -4.23973 0.0477782 0
M  V30 49594 C 4611.14 -3.20971 -1.02367 0
M  V30 49595 O 4611.67 -3.42305 -2.10214 0
M  V30 49596 N 4609.87 -2.74662 -0.949174 0
M  V30 49597 H 4609.42 -2.57501 -0.0714267 0
M  V30 49598 H 4609.38 -2.57746 -1.8004 0
M  V30 49599 N 4613.15 -0.912277 -1.28512 0
M  V30 49600 C 4614.38 -0.559844 -1.99701 0
M  V30 49601 C 4614.8 0.851334 -1.67732 0
M  V30 49602 O 4614.16 1.56872 -0.90889 0
M  V30 49603 C 4614.21 -0.773998 -3.52195 0
M  V30 49604 O 4613.31 0.167697 -4.12059 0
M  V30 49605 H 4612.65 -0.217252 -0.627453 0
M  V30 49606 H 4615.18 -1.22731 -1.63702 0
M  V30 49607 H 4615.19 -0.683528 -4.02234 0
M  V30 49608 H 4613.87 -1.80275 -3.74798 0
M  V30 49609 H 4612.44 0.0286198 -3.72889 0
M  V30 49610 N 4614.63 1.42361 -0.676098 0
M  V30 49611 C 4615.88 2.00744 -0.196108 0
M  V30 49612 C 4616.19 1.54087 1.20484 0
M  V30 49613 O 4617.4 2.04898 1.78127 0
M  V30 49614 C 4615.85 3.5865 -0.299742 0
M  V30 49615 C 4615.46 4.14294 -1.70482 0
M  V30 49616 C 4617.2 4.24326 0.12147 0
M  V30 49617 C 4615.11 5.64568 -1.76116 0
M  V30 49618 H 4614.04 0.750785 -0.0695565 0
M  V30 49619 H 4616.69 1.63069 -0.841469 0
M  V30 49620 H 4615.07 3.93835 0.413535 0
M  V30 49621 H 4616.25 3.90567 -2.44529 0
M  V30 49622 H 4614.56 3.61074 -2.074 0
M  V30 49623 H 4617.16 5.34607 0.0995483 0
M  V30 49624 H 4617.5 3.99901 1.15694 0
M  V30 49625 H 4618.04 3.94106 -0.540845 0
M  V30 49626 H 4614.78 5.93794 -2.77649 0
M  V30 49627 H 4614.3 5.90282 -1.06427 0
M  V30 49628 H 4615.97 6.29008 -1.51518 0
M  V30 49629 N 4616.11 0.419515 1.51914 0
M  V30 49630 C 4617.33 -0.154499 2.06824 0
M  V30 49631 C 4617.76 -1.37215 1.28661 0
M  V30 49632 O 4617.11 -1.7846 0.319646 0
M  V30 49633 C 4617.16 -0.473046 3.57484 0
M  V30 49634 O 4616.27 -1.56241 3.81658 0
M  V30 49635 H 4615.61 -0.00966906 0.66393 0
M  V30 49636 H 4618.14 0.59571 1.95736 0
M  V30 49637 H 4618.15 -0.728684 4.0144 0
M  V30 49638 H 4616.82 0.417018 4.13804 0
M  V30 49639 H 4615.4 -1.29813 3.49575 0
M  V30 49640 N 4617.58 -1.56882 0.15027 0
M  V30 49641 C 4618.53 -2.18217 -0.805236 0
M  V30 49642 C 4619.53 -1.1401 -1.25292 0
M  V30 49643 O 4620.73 -1.32254 -1.22102 0
M  V30 49644 H 4617.11 -0.698772 -0.277889 0
M  V30 49645 H 4619.08 -2.97232 -0.263757 0
M  V30 49646 C 4617.83 -2.82072 -2.03299 0
M  V30 49647 H 4617.15 -3.61974 -1.6975 0
M  V30 49648 H 4618.59 -3.28486 -2.68091 0
M  V30 49649 C 4617.05 -1.80749 -2.84309 0
M  V30 49650 O 4617.58 -1.27996 -3.80762 0
M  V30 49651 N 4615.79 -1.49978 -2.48907 0
M  V30 49652 H 4615.33 -1.93068 -1.70535 0
M  V30 49653 H 4615.29 -0.824324 -3.03401 0
M  V30 49654 N 4619.06 0.12351 -1.57115 0
M  V30 49655 C 4620.48 0.476907 -1.52308 0
M  V30 49656 C 4620.68 1.82106 -0.862544 0
M  V30 49657 O 4619.73 2.48584 -0.442971 0
M  V30 49658 C 4621.05 0.465557 -2.97074 0
M  V30 49659 C 4622.6 0.549426 -3.0814 0
M  V30 49660 C 4623.07 0.568509 -4.54458 0
M  V30 49661 N 4624.56 0.630076 -4.58895 0
M  V30 49662 C 4625.3 0.666214 -5.69517 0
M  V30 49663 N 4624.79 0.660272 -6.89646 0
M  V30 49664 N 4626.59 0.708881 -5.57612 0
M  V30 49665 H 4618.74 -0.757268 -1.98442 0
M  V30 49666 H 4621 -0.27884 -0.906064 0
M  V30 49667 H 4620.71 -0.454355 -3.48753 0
M  V30 49668 H 4620.58 1.295 -3.54273 0
M  V30 49669 H 4622.97 1.45976 -2.56467 0
M  V30 49670 H 4623.05 -0.307621 -2.53944 0
M  V30 49671 H 4622.69 -0.33776 -5.06776 0
M  V30 49672 H 4622.62 1.44238 -5.06461 0
M  V30 49673 H 4625.11 0.641015 -3.72424 0
M  V30 49674 H 4625.43 0.690346 -7.6971 0
M  V30 49675 H 4623.77 0.627769 -6.92159 0
M  V30 49676 H 4626.96 0.710856 -4.62671 0
M  V30 49677 H 4627.13 0.733578 -6.43834 0
M  V30 49678 N 4620.54 1.52607 0.393562 0
M  V30 49679 C 4621.5 1.7642 1.46317 0
M  V30 49680 C 4622.5 0.634178 1.47766 0
M  V30 49681 O 4623.69 0.902195 1.49017 0
M  V30 49682 C 4620.83 1.8608 2.85634 0
M  V30 49683 H 4622.02 2.71921 1.26488 0
M  V30 49684 H 4619.57 1.43259 0.625023 0
M  V30 49685 H 4620.31 0.925488 3.10814 0
M  V30 49686 H 4620.09 2.68245 2.85984 0
M  V30 49687 H 4621.58 2.06192 3.63145 0
M  V30 49688 N 4622.02 -0.651737 1.43493 0
M  V30 49689 C 4622.97 -1.76457 1.48767 0
M  V30 49690 C 4623.94 -1.6264 0.337246 0
M  V30 49691 O 4625.12 -1.82862 0.544608 0
M  V30 49692 C 4622.26 -3.14618 1.41807 0
M  V30 49693 C 4621.37 -3.39559 2.67065 0
M  V30 49694 C 4620.51 -4.67576 2.52084 0
M  V30 49695 C 4619.55 -4.85626 3.72604 0
M  V30 49696 N 4618.68 -6.04902 3.56424 0
M  V30 49697 H 4623.52 -1.71285 2.43855 0
M  V30 49698 H 4621.06 -0.835847 1.21045 0
M  V30 49699 H 4623.02 -3.94491 1.35767 0
M  V30 49700 H 4621.65 -3.18857 0.502993 0
M  V30 49701 H 4620.7 -2.53773 2.83379 0
M  V30 49702 H 4622.01 -3.48782 3.56585 0
M  V30 49703 H 4621.17 -5.55577 2.4376 0
M  V30 49704 H 4619.91 -4.60676 1.60092 0
M  V30 49705 H 4618.91 -3.9606 3.81335 0
M  V30 49706 H 4620.14 -4.94355 4.65607 0
M  V30 49707 H 4618.08 -5.99131 2.67167 0
M  V30 49708 H 4618 -6.1509 4.39545 0
M  V30 49709 H 4619.27 -6.95521 3.51954 0
M  V30 49710 N 4623.5 -1.30048 -0.890242 0
M  V30 49711 C 4624.72 -1.21478 -1.67483 0
M  V30 49712 C 4625.14 0.223175 -1.87476 0
M  V30 49713 O 4624.5 1.14823 -1.41851 0
M  V30 49714 C 4624.55 -1.93405 -3.05412 0
M  V30 49715 O 4624.27 -3.31586 -2.86325 0
M  V30 49716 C 4625.77 -1.91428 -3.99838 0
M  V30 49717 H 4622.99 -0.420623 -0.522798 0
M  V30 49718 H 4625.53 -1.71584 -1.11262 0
M  V30 49719 H 4623.69 -1.47111 -3.58381 0
M  V30 49720 H 4624.1 -3.67943 -3.73789 0
M  V30 49721 H 4625.58 -2.46303 -4.94003 0
M  V30 49722 H 4626.05 -0.891984 -4.30047 0
M  V30 49723 H 4626.66 -2.37509 -3.52803 0
M  V30 49724 N 4624.97 1.10188 -1.12678 0
M  V30 49725 C 4625.94 2.14783 -0.800054 0
M  V30 49726 C 4626.94 1.59711 0.186794 0
M  V30 49727 O 4628.13 1.74156 -0.039317 0
M  V30 49728 C 4625.26 3.40374 -0.189347 0
M  V30 49729 H 4626.45 2.45197 -1.7268 0
M  V30 49730 H 4624.01 1.25594 -0.93037 0
M  V30 49731 H 4624.74 3.1558 0.746996 0
M  V30 49732 H 4624.53 3.81634 -0.8999 0
M  V30 49733 H 4626.02 4.17594 0.0226675 0
M  V30 49734 N 4626.45 0.919079 1.28026 0
M  V30 49735 C 4627.87 0.618023 1.47148 0
M  V30 49736 C 4628.07 -0.835178 1.83377 0
M  V30 49737 O 4627.12 -1.61381 1.94197 0
M  V30 49738 C 4628.44 1.5605 2.57039 0
M  V30 49739 C 4629.99 1.56779 2.70905 0
M  V30 49740 C 4630.46 2.49702 3.83944 0
M  V30 49741 N 4631.95 2.47859 3.91306 0
M  V30 49742 C 4632.69 3.16453 4.78168 0
M  V30 49743 N 4632.18 3.94396 5.69582 0
M  V30 49744 N 4633.98 3.05514 4.71824 0
M  V30 49745 H 4626.13 1.8587 1.02792 0
M  V30 49746 H 4628.39 0.797524 0.512503 0
M  V30 49747 H 4628.1 2.5968 2.37191 0
M  V30 49748 H 4627.97 1.29564 3.5425 0
M  V30 49749 H 4630.36 0.538847 2.90139 0
M  V30 49750 H 4630.44 1.87311 1.74207 0
M  V30 49751 H 4630.08 3.52701 3.65464 0
M  V30 49752 H 4630.01 2.1647 4.8005 0
M  V30 49753 H 4632.5 1.91246 3.25935 0
M  V30 49754 H 4632.82 4.43743 6.32702 0
M  V30 49755 H 4631.16 3.98501 5.69405 0
M  V30 49756 H 4634.35 2.44122 3.99402 0
M  V30 49757 H 4634.52 3.59244 5.39303 0
M  V30 49758 N 4627.93 -1.42001 0.683638 0
M  V30 49759 C 4628.88 -2.326 -0.000733638 0
M  V30 49760 C 4629.87 -1.5031 -0.781225 0
M  V30 49761 O 4631.08 -1.66325 -0.688192 0
M  V30 49762 H 4627.45 -0.751759 -0.0190352 0
M  V30 49763 H 4629.43 -2.88008 0.780629 0
M  V30 49764 C 4628.17 -3.34981 -0.931832 0
M  V30 49765 H 4627.5 -3.98346 -0.340677 0
M  V30 49766 H 4628.94 -4.00941 -1.37922 0
M  V30 49767 C 4627.4 -2.67932 -2.0424 0
M  V30 49768 O 4627.93 -2.51799 -3.12986 0
M  V30 49769 N 4626.13 -2.26816 -1.81667 0
M  V30 49770 H 4625.68 -2.40138 -0.932279 0
M  V30 49771 H 4625.64 -1.82289 -2.56161 0
M  V30 49772 N 4629.41 -0.427565 -1.51689 0
M  V30 49773 C 4630.66 0.143608 -2.01188 0
M  V30 49774 C 4630.97 1.44637 -1.31679 0
M  V30 49775 O 4632.18 2.0999 -1.72094 0
M  V30 49776 C 4630.63 0.306476 -3.58593 0
M  V30 49777 C 4630.24 -0.985279 -4.37031 0
M  V30 49778 C 4631.99 0.831945 -4.16268 0
M  V30 49779 C 4629.89 -0.788588 -5.86119 0
M  V30 49780 H 4628.82 0.0574436 -0.751809 0
M  V30 49781 H 4631.47 -0.555833 -1.74879 0
M  V30 49782 H 4629.86 1.06869 -3.81307 0
M  V30 49783 H 4631.03 -1.75507 -4.26068 0
M  V30 49784 H 4629.34 -1.43854 -3.90762 0
M  V30 49785 H 4631.94 0.995433 -5.25352 0
M  V30 49786 H 4632.28 1.81173 -3.74809 0
M  V30 49787 H 4632.82 0.128304 -3.97593 0
M  V30 49788 H 4629.56 -1.74047 -6.31971 0
M  V30 49789 H 4629.08 -0.0584251 -5.99772 0
M  V30 49790 H 4630.76 -0.437949 -6.45516 0
M  V30 49791 N 4630.89 1.568 -0.158588 0
M  V30 49792 C 4631.84 2.18641 0.793652 0
M  V30 49793 C 4632.83 1.14673 1.24685 0
M  V30 49794 O 4634.04 1.329 1.21399 0
M  V30 49795 H 4630.41 0.700236 0.274179 0
M  V30 49796 H 4632.38 2.97368 0.247991 0
M  V30 49797 C 4631.13 2.83147 2.018 0
M  V30 49798 H 4630.45 3.62869 1.67828 0
M  V30 49799 H 4631.89 3.29903 2.66345 0
M  V30 49800 C 4630.35 1.82254 2.83346 0
M  V30 49801 O 4630.88 1.30014 3.80078 0
M  V30 49802 N 4629.09 1.51296 2.48108 0
M  V30 49803 H 4628.64 1.9397 1.69509 0
M  V30 49804 H 4628.59 0.840402 3.0296 0
M  V30 49805 N 4632.37 -0.115176 1.57179 0
M  V30 49806 C 4633.3 -1.14223 2.03655 0
M  V30 49807 C 4634.28 -1.42964 0.921706 0
M  V30 49808 O 4635.46 -1.53339 1.19167 0
M  V30 49809 C 4632.59 -2.46741 2.44409 0
M  V30 49810 C 4631.55 -2.32455 3.59373 0
M  V30 49811 C 4630.87 -3.6997 3.86039 0
M  V30 49812 C 4632.17 -1.78186 4.90965 0
M  V30 49813 H 4633.87 -0.755647 2.89707 0
M  V30 49814 H 4631.41 -0.362044 1.39374 0
M  V30 49815 H 4633.36 -3.18845 2.75529 0
M  V30 49816 H 4632.09 -2.87297 1.55332 0
M  V30 49817 H 4630.75 -1.62799 3.28469 0
M  V30 49818 H 4630.4 -4.08017 2.94161 0
M  V30 49819 H 4630.1 -3.61263 4.63425 0
M  V30 49820 H 4631.62 -4.43572 4.19614 0
M  V30 49821 H 4633.03 -2.4011 5.20596 0
M  V30 49822 H 4631.43 -1.8029 5.72377 0
M  V30 49823 H 4632.5 -0.739708 4.79225 0
M  V30 49824 N 4633.84 -1.52813 -0.385464 0
M  V30 49825 C 4635.07 -1.71662 -1.1496 0
M  V30 49826 C 4635.48 -0.436317 -1.841 0
M  V30 49827 O 4634.82 0.599252 -1.73651 0
M  V30 49828 C 4634.89 -2.81317 -2.23833 0
M  V30 49829 C 4634.55 -4.22319 -1.74629 0
M  V30 49830 C 4635.55 -5.05356 -1.22112 0
M  V30 49831 C 4633.23 -4.68654 -1.80745 0
M  V30 49832 C 4635.23 -6.32809 -0.763616 0
M  V30 49833 C 4632.91 -5.96091 -1.34606 0
M  V30 49834 C 4633.91 -6.77999 -0.825026 0
M  V30 49835 O 4633.6 -8.03046 -0.370387 0
M  V30 49836 H 4633.33 -0.578034 -0.350503 0
M  V30 49837 H 4635.89 -2.00264 -0.456438 0
M  V30 49838 H 4634.12 -2.48143 -2.96583 0
M  V30 49839 H 4635.8 -2.88534 -2.85487 0
M  V30 49840 H 4636.57 -4.7074 -1.16741 0
M  V30 49841 H 4632.45 -4.04987 -2.20242 0
M  V30 49842 H 4635.99 -6.9669 -0.35625 0
M  V30 49843 H 4631.89 -6.3021 -1.39664 0
M  V30 49844 H 4632.66 -8.17023 -0.491542 0
M  V30 49845 N 4635.32 0.644118 -1.43836 0
M  V30 49846 C 4636.55 1.43142 -1.49392 0
M  V30 49847 C 4636.96 1.88452 -0.114649 0
M  V30 49848 O 4636.32 1.6005 0.876933 0
M  V30 49849 C 4636.37 2.66037 -2.44758 0
M  V30 49850 O 4636.09 2.2262 -3.77322 0
M  V30 49851 C 4637.59 3.59302 -2.59648 0
M  V30 49852 H 4634.81 0.43943 -0.507092 0
M  V30 49853 H 4637.36 0.788884 -1.88671 0
M  V30 49854 H 4635.51 3.26411 -2.0865 0
M  V30 49855 H 4635.93 3.02201 -4.2869 0
M  V30 49856 H 4637.4 4.42175 -3.30432 0
M  V30 49857 H 4637.88 4.07254 -1.64442 0
M  V30 49858 H 4638.48 3.04805 -2.96604 0
M  V30 49859 N 4636.8 1.30518 0.883332 0
M  V30 49860 C 4638.05 1.192 1.63205 0
M  V30 49861 C 4638.37 -0.253137 1.9335 0
M  V30 49862 O 4637.64 -1.17019 1.57109 0
M  V30 49863 H 4636.22 0.438169 0.604993 0
M  V30 49864 H 4638.88 1.63667 1.05826 0
M  V30 49865 H 4637.98 1.75405 2.58147 0
M  V30 49866 N 4638.28 -1.09589 1.13261 0
M  V30 49867 C 4639.23 -2.18268 0.803859 0
M  V30 49868 C 4640.22 -1.68054 -0.213089 0
M  V30 49869 O 4641.43 -1.79862 -0.0704067 0
M  V30 49870 H 4637.8 -0.71194 0.242168 0
M  V30 49871 H 4639.77 -2.43229 1.72864 0
M  V30 49872 C 4638.52 -3.46535 0.284362 0
M  V30 49873 H 4637.84 -3.85541 1.0582 0
M  V30 49874 H 4639.28 -4.23899 0.0927435 0
M  V30 49875 C 4637.74 -3.22039 -0.98957 0
M  V30 49876 O 4638.27 -3.44516 -2.06571 0
M  V30 49877 N 4636.48 -2.75653 -0.91999 0
M  V30 49878 H 4636.03 -2.57562 -0.0441113 0
M  V30 49879 H 4635.98 -2.59641 -1.77296 0
M  V30 49880 N 4639.76 -0.925856 -1.27537 0
M  V30 49881 C 4641.03 -0.483792 -1.89523 0
M  V30 49882 C 4641.41 1.03803 -1.83816 0
M  V30 49883 O 4640.76 1.89139 -1.28214 0
M  V30 49884 C 4640.97 -1.0278 -3.33522 0
M  V30 49885 C 4642.32 -1.08718 -4.10446 0
M  V30 49886 O 4643.34 -0.977296 -3.42531 0
M  V30 49887 O 4642.2 -1.25617 -5.31867 0
M  V30 49888 H 4639.3 -0.155318 -0.812284 0
M  V30 49889 H 4641.84 -1.01743 -1.35818 0
M  V30 49890 H 4640.61 -2.07167 -3.3196 0
M  V30 49891 H 4640.24 -0.475705 -3.94744 0
M  V30 49892 N 4641.23 1.41636 -0.691159 0
M  V30 49893 C 4642.64 1.84345 -0.295581 0
M  V30 49894 C 4643 1.57837 1.16541 0
M  V30 49895 O 4642.12 1.04655 1.8941 0
M  V30 49896 C 4642.72 3.34634 -0.529693 0
M  V30 49897 C 4641.27 3.7593 -0.188076 0
M  V30 49898 C 4640.42 2.65079 -0.814145 0
M  V30 49899 H 4643.37 1.3125 -0.892138 0
M  V30 49900 H 4643.39 3.79903 0.213015 0
M  V30 49901 H 4642.91 3.53895 -1.5931 0
M  V30 49902 H 4641.01 3.62271 0.87124 0
M  V30 49903 H 4641.12 4.74806 -0.640017 0
M  V30 49904 H 4639.48 2.53528 -0.244106 0
M  V30 49905 H 4640.27 2.8716 -1.88133 0
M  V30 49906 N 4642.71 0.435603 1.5146 0
M  V30 49907 C 4644.13 0.0878062 1.59358 0
M  V30 49908 C 4644.33 -1.40265 1.44665 0
M  V30 49909 O 4643.38 -2.17238 1.287 0
M  V30 49910 C 4644.7 0.606367 2.94523 0
M  V30 49911 C 4646.25 0.566656 3.07828 0
M  V30 49912 C 4646.72 1.06216 4.45513 0
M  V30 49913 N 4648.21 1.02008 4.51828 0
M  V30 49914 C 4648.95 1.37437 5.56685 0
M  V30 49915 N 4648.44 1.80143 6.6897 0
M  V30 49916 N 4650.24 1.29265 5.47035 0
M  V30 49917 H 4642.39 1.40539 1.59256 0
M  V30 49918 H 4644.65 0.579019 0.750627 0
M  V30 49919 H 4644.36 1.64912 3.1064 0
M  V30 49920 H 4644.23 0.0303423 3.77188 0
M  V30 49921 H 4646.62 -0.467106 2.9138 0
M  V30 49922 H 4646.7 1.17906 2.27006 0
M  V30 49923 H 4646.34 2.09438 4.62707 0
M  V30 49924 H 4646.27 0.426312 5.24872 0
M  V30 49925 H 4648.76 0.706438 3.71238 0
M  V30 49926 H 4649.08 2.05418 7.44999 0
M  V30 49927 H 4647.42 1.84068 6.70182 0
M  V30 49928 H 4650.61 0.957683 4.58199 0
M  V30 49929 H 4650.78 1.57204 6.28642 0
M  V30 49930 N 4644.19 -1.56714 0.166901 0
M  V30 49931 C 4645.1 -2.21334 -0.777713 0
M  V30 49932 C 4646.12 -1.20363 -1.25653 0
M  V30 49933 O 4647.29 -1.53009 -1.30958 0
M  V30 49934 C 4644.36 -2.83794 -1.99153 0
M  V30 49935 C 4643.42 -3.99953 -1.56001 0
M  V30 49936 C 4642.65 -4.59425 -2.71597 0
M  V30 49937 O 4642.87 -4.17783 -3.88347 0
M  V30 49938 O 4641.81 -5.49367 -2.45925 0
M  V30 49939 H 4645.63 -3.02606 -0.25753 0
M  V30 49940 H 4643.22 -1.49275 -0.0610868 0
M  V30 49941 H 4645.1 -3.23415 -2.70149 0
M  V30 49942 H 4643.78 -2.05522 -2.50085 0
M  V30 49943 H 4642.68 -3.6501 -0.819681 0
M  V30 49944 H 4644.02 -4.79805 -1.09765 0
M  V30 49945 N 4645.67 0.106839 -1.57237 0
M  V30 49946 C 4646.92 0.811098 -1.84673 0
M  V30 49947 C 4647.23 1.80466 -0.754405 0
M  V30 49948 O 4648.44 2.55598 -0.915529 0
M  V30 49949 C 4646.89 1.49326 -3.2746 0
M  V30 49950 C 4646.5 0.540061 -4.44733 0
M  V30 49951 C 4648.24 2.18194 -3.64132 0
M  V30 49952 C 4646.15 1.22614 -5.7855 0
M  V30 49953 H 4645.08 0.306655 -0.688824 0
M  V30 49954 H 4647.73 0.0639243 -1.83389 0
M  V30 49955 H 4646.11 2.28748 -3.2325 0
M  V30 49956 H 4647.29 -0.221821 -4.60266 0
M  V30 49957 H 4645.6 -0.0422924 -4.16379 0
M  V30 49958 H 4648.2 2.70236 -4.61385 0
M  V30 49959 H 4648.54 2.96552 -2.92169 0
M  V30 49960 H 4649.08 1.45645 -3.70179 0
M  V30 49961 H 4645.82 0.483602 -6.53714 0
M  V30 49962 H 4645.34 1.95974 -5.66881 0
M  V30 49963 H 4647.01 1.75593 -6.22717 0
M  V30 49964 N 4647.15 1.53016 0.377354 0
M  V30 49965 C 4648.56 1.42526 0.718231 0
M  V30 49966 C 4648.76 0.554938 1.93708 0
M  V30 49967 O 4647.82 0.032848 2.52479 0
M  V30 49968 C 4649.13 2.8555 0.942438 0
M  V30 49969 C 4650.68 2.95104 1.04319 0
M  V30 49970 C 4651.15 4.39164 1.29994 0
M  V30 49971 N 4652.65 4.42541 1.36791 0
M  V30 49972 C 4653.38 5.51103 1.58345 0
M  V30 49973 N 4652.88 6.69731 1.77293 0
M  V30 49974 N 4654.67 5.38663 1.60619 0
M  V30 49975 H 4646.82 2.08115 -0.424499 0
M  V30 49976 H 4649.08 0.939347 -0.127792 0
M  V30 49977 H 4648.79 3.51499 0.118806 0
M  V30 49978 H 4648.66 3.285 1.85386 0
M  V30 49979 H 4651.05 2.29316 1.85737 0
M  V30 49980 H 4651.13 2.55566 0.109415 0
M  V30 49981 H 4650.78 5.05523 0.490813 0
M  V30 49982 H 4650.71 4.76266 2.24675 0
M  V30 49983 H 4653.2 3.57043 1.23809 0
M  V30 49984 H 4653.51 7.4824 1.9328 0
M  V30 49985 H 4651.85 6.72738 1.74495 0
M  V30 49986 H 4655.05 4.44954 1.45375 0
M  V30 49987 H 4655.22 6.23336 1.77076 0
M  V30 49988 N 4648.62 -0.636481 1.44176 0
M  V30 49989 C 4649.9 -1.39458 1.37153 0
M  V30 49990 C 4650.28 -2.11082 0.0275812 0
M  V30 49991 O 4649.63 -2.05957 -0.989644 0
M  V30 49992 C 4649.84 -2.36543 2.56609 0
M  V30 49993 C 4651.19 -3.00037 3.00438 0
M  V30 49994 O 4652.21 -2.46869 2.56776 0
M  V30 49995 O 4651.07 -3.96474 3.76125 0
M  V30 49996 H 4648.16 -0.623884 0.542861 0
M  V30 49997 H 4650.71 -0.661985 1.56256 0
M  V30 49998 H 4649.48 -1.8268 3.4604 0
M  V30 49999 H 4649.11 -3.17228 2.39692 0
M  V30 50000 N 4650.1 -1.30985 -0.876398 0
M  V30 50001 C 4651.03 -1.20675 -1.99899 0
M  V30 50002 C 4652.01 -0.0954137 -1.69832 0
M  V30 50003 O 4653.2 -0.278917 -1.92187 0
M  V30 50004 C 4650.33 -0.906668 -3.35256 0
M  V30 50005 C 4649.28 -1.97688 -3.7961 0
M  V30 50006 C 4648.61 -1.52961 -5.12354 0
M  V30 50007 C 4649.91 -3.38914 -3.9741 0
M  V30 50008 H 4651.6 -2.14593 -2.08782 0
M  V30 50009 H 4649.15 -1.03312 -1.00313 0
M  V30 50010 H 4651.1 -0.821171 -4.13322 0
M  V30 50011 H 4649.83 0.0681821 -3.26529 0
M  V30 50012 H 4648.48 -2.05216 -3.0378 0
M  V30 50013 H 4648.13 -0.542795 -5.00063 0
M  V30 50014 H 4647.83 -2.24552 -5.43001 0
M  V30 50015 H 4649.36 -1.45807 -5.92936 0
M  V30 50016 H 4650.77 -3.34097 -4.65889 0
M  V30 50017 H 4649.17 -4.08666 -4.39445 0
M  V30 50018 H 4650.24 -3.80173 -3.00992 0
M  V30 50019 N 4651.58 1.08987 -1.13841 0
M  V30 50020 C 4652.51 2.15047 -0.763552 0
M  V30 50021 C 4653.49 1.6063 0.252342 0
M  V30 50022 O 4654.68 1.87958 0.142787 0
M  V30 50023 C 4651.8 3.3844 -0.132664 0
M  V30 50024 C 4650.85 4.11592 -1.11778 0
M  V30 50025 S 4651.68 4.65201 -2.65232 0
M  V30 50026 C 4652.84 5.91888 -2.03516 0
M  V30 50027 H 4653.07 2.46512 -1.66191 0
M  V30 50028 H 4650.6 1.21005 -0.959018 0
M  V30 50029 H 4652.56 4.09883 0.22493 0
M  V30 50030 H 4651.22 3.05185 0.743028 0
M  V30 50031 H 4650.42 5.00119 -0.624252 0
M  V30 50032 H 4650.02 3.46033 -1.41906 0
M  V30 50033 H 4652.31 6.63151 -1.38698 0
M  V30 50034 H 4653.25 6.45928 -2.90143 0
M  V30 50035 H 4653.66 5.4462 -1.4849 0
M  V30 50036 N 4653.06 0.932607 1.27044 0
M  V30 50037 C 4654.02 0.440143 2.24934 0
M  V30 50038 C 4655.02 -0.444017 1.54548 0
M  V30 50039 O 4656.21 -0.244404 1.72477 0
M  V30 50040 C 4653.34 -0.366661 3.38922 0
M  V30 50041 H 4654.54 1.3051 2.70013 0
M  V30 50042 H 4652.09 0.713756 1.39051 0
M  V30 50043 H 4652.82 -1.25022 2.99232 0
M  V30 50044 H 4652.61 0.267341 3.91188 0
M  V30 50045 H 4654.1 -0.701423 4.11667 0
M  V30 50046 N 4654.54 -1.41267 0.698661 0
M  V30 50047 C 4655.5 -2.29157 0.0442125 0
M  V30 50048 C 4656.5 -1.44531 -0.70479 0
M  V30 50049 O 4657.69 -1.65644 -0.539218 0
M  V30 50050 C 4654.82 -3.27462 -0.947694 0
M  V30 50051 H 4656.01 -2.88526 0.818095 0
M  V30 50052 H 4653.57 -1.49306 0.462333 0
M  V30 50053 H 4654.3 -2.73079 -1.74923 0
M  V30 50054 H 4654.09 -3.89911 -0.413713 0
M  V30 50055 H 4655.58 -3.93316 -1.4033 0
M  V30 50056 N 4656.01 -0.44363 -1.51227 0
M  V30 50057 C 4657.26 0.120486 -2.01741 0
M  V30 50058 C 4657.58 1.4266 -1.3294 0
M  V30 50059 O 4656.85 1.90278 -0.465933 0
M  V30 50060 H 4655.43 0.0475163 -0.745487 0
M  V30 50061 H 4658.1 -0.587776 -1.85826 0
M  V30 50062 H 4657.19 0.291863 -3.10732 0
M  V30 50063 N 4657.49 1.56623 -0.175209 0
M  V30 50064 C 4658.91 1.58571 0.18091 0
M  V30 50065 C 4659.11 1.19071 1.62556 0
M  V30 50066 O 4658.17 0.904127 2.35758 0
M  V30 50067 C 4659.48 3.00522 -0.103432 0
M  V30 50068 C 4661.03 3.12972 -0.0419526 0
M  V30 50069 C 4661.5 4.57021 -0.299336 0
M  V30 50070 N 4662.99 4.6254 -0.247249 0
M  V30 50071 C 4663.73 5.71856 -0.420519 0
M  V30 50072 N 4663.22 6.89715 -0.653058 0
M  V30 50073 N 4665.02 5.60971 -0.356154 0
M  V30 50074 H 4657.17 1.80586 -1.11815 0
M  V30 50075 H 4659.43 0.837163 -0.444818 0
M  V30 50076 H 4659.14 3.33912 -1.10434 0
M  V30 50077 H 4659.01 3.72346 0.603168 0
M  V30 50078 H 4661.4 2.79406 0.949537 0
M  V30 50079 H 4661.48 2.43575 -0.781324 0
M  V30 50080 H 4661.12 4.91296 -1.28805 0
M  V30 50081 H 4661.05 5.24581 0.460692 0
M  V30 50082 H 4663.54 3.77829 -0.0733223 0
M  V30 50083 H 4663.86 7.68908 -0.774617 0
M  V30 50084 H 4662.2 6.91569 -0.689719 0
M  V30 50085 H 4665.39 4.67773 -0.175046 0
M  V30 50086 H 4665.57 6.4611 -0.494615 0
M  V30 50087 N 4658.97 -0.0984986 1.57292 0
M  V30 50088 C 4659.9 -1.15075 1.97061 0
M  V30 50089 C 4660.88 -1.39022 0.843304 0
M  V30 50090 O 4662.07 -1.52838 1.1033 0
M  V30 50091 C 4659.19 -2.50061 2.28445 0
M  V30 50092 C 4658.24 -2.42416 3.50909 0
M  V30 50093 S 4659.07 -1.84396 5.02751 0
M  V30 50094 C 4660.23 -3.21014 5.37309 0
M  V30 50095 H 4660.46 -0.811714 2.86004 0
M  V30 50096 H 4657.99 -0.306049 1.51336 0
M  V30 50097 H 4659.95 -3.2772 2.47204 0
M  V30 50098 H 4658.61 -2.81135 1.40079 0
M  V30 50099 H 4657.81 -3.41898 3.703 0
M  V30 50100 H 4657.41 -1.72884 3.31643 0
M  V30 50101 H 4659.7 -4.17279 5.33746 0
M  V30 50102 H 4660.64 -3.0643 6.38362 0
M  V30 50103 H 4661.05 -3.20388 4.64771 0
M  V30 50104 N 4660.45 -1.53214 -0.369234 0
M  V30 50105 C 4661.38 -1.8237 -1.45819 0
M  V30 50106 C 4662.36 -0.676962 -1.56049 0
M  V30 50107 O 4663.55 -0.926461 -1.70676 0
M  V30 50108 C 4660.68 -2.01033 -2.83201 0
M  V30 50109 C 4659.63 -3.1679 -2.87799 0
M  V30 50110 C 4658.96 -3.20739 -4.2782 0
M  V30 50111 C 4660.26 -4.55456 -2.55651 0
M  V30 50112 H 4661.95 -2.73564 -1.21669 0
M  V30 50113 H 4659.5 -1.31632 -0.583864 0
M  V30 50114 H 4661.45 -2.20013 -3.59405 0
M  V30 50115 H 4660.17 -1.06547 -3.08732 0
M  V30 50116 H 4658.83 -2.97624 -2.14046 0
M  V30 50117 H 4658.48 -2.23897 -4.50421 0
M  V30 50118 H 4658.18 -3.98511 -4.31813 0
M  V30 50119 H 4659.7 -3.41899 -5.05903 0
M  V30 50120 H 4661.12 -4.74622 -3.21569 0
M  V30 50121 H 4659.51 -5.35442 -2.70965 0
M  V30 50122 H 4660.58 -4.60818 -1.50914 0
M  V30 50123 N 4661.93 0.628826 -1.44511 0
M  V30 50124 C 4663.17 1.3904 -1.47634 0
M  V30 50125 C 4663.51 1.93892 -0.109411 0
M  V30 50126 O 4662.78 1.73793 0.873279 0
M  V30 50127 C 4663.06 2.55399 -2.53857 0
M  V30 50128 C 4662.92 2.05882 -3.99916 0
M  V30 50129 C 4664.24 3.57581 -2.56561 0
M  V30 50130 H 4661.36 0.504213 -0.53753 0
M  V30 50131 H 4664 0.710792 -1.76204 0
M  V30 50132 H 4662.15 3.13376 -2.29626 0
M  V30 50133 H 4663.82 1.52718 -4.35287 0
M  V30 50134 H 4662.06 1.37047 -4.11583 0
M  V30 50135 H 4662.73 2.89665 -4.69892 0
M  V30 50136 H 4665.21 3.09409 -2.78218 0
M  V30 50137 H 4664.09 4.36515 -3.32785 0
M  V30 50138 H 4664.35 4.11802 -1.60846 0
M  V30 50139 N 4663.41 1.31448 0.869439 0
M  V30 50140 C 4664.65 1.21343 1.62492 0
M  V30 50141 C 4664.98 -0.227804 1.92859 0
M  V30 50142 O 4664.26 -1.16088 1.56057 0
M  V30 50143 C 4664.54 2.05825 2.9548 0
M  V30 50144 C 4664.4 3.5825 2.71988 0
M  V30 50145 C 4665.71 1.90804 3.96588 0
M  V30 50146 H 4662.83 0.442155 0.589633 0
M  V30 50147 H 4665.48 1.61243 1.00502 0
M  V30 50148 H 4663.63 1.71925 3.48388 0
M  V30 50149 H 4665.3 4.02288 2.25748 0
M  V30 50150 H 4663.54 3.81654 2.0621 0
M  V30 50151 H 4664.21 4.12669 3.66617 0
M  V30 50152 H 4666.69 2.20471 3.5289 0
M  V30 50153 H 4665.56 2.52216 4.87522 0
M  V30 50154 H 4665.82 0.871494 4.33425 0
M  V30 50155 N 4664.88 -1.08381 1.14417 0
M  V30 50156 C 4665.85 -2.13483 0.834123 0
M  V30 50157 C 4666.85 -1.59988 -0.161361 0
M  V30 50158 O 4668.04 -1.74071 0.0670187 0
M  V30 50159 C 4665.17 -3.40029 0.243474 0
M  V30 50160 H 4666.36 -2.42419 1.76559 0
M  V30 50161 H 4663.91 -1.24098 0.950233 0
M  V30 50162 H 4664.65 -3.16728 -0.696695 0
M  V30 50163 H 4664.43 -3.80154 0.960501 0
M  V30 50164 H 4665.92 -4.17577 0.043771 0
M  V30 50165 N 4666.36 -0.939331 -1.26548 0
M  V30 50166 C 4667.29 -0.465124 -2.28821 0
M  V30 50167 C 4668.27 0.480635 -1.63168 0
M  V30 50168 O 4669.46 0.382888 -1.90388 0
M  V30 50169 C 4666.59 0.272219 -3.46232 0
M  V30 50170 C 4665.54 -0.586809 -4.23958 0
M  V30 50171 C 4664.87 0.280385 -5.33964 0
M  V30 50172 C 4666.17 -1.85721 -4.88165 0
M  V30 50173 H 4667.86 -1.31989 -2.68737 0
M  V30 50174 H 4665.41 -0.636107 -1.29189 0
M  V30 50175 H 4667.36 0.614986 -4.16888 0
M  V30 50176 H 4666.08 1.1611 -3.05264 0
M  V30 50177 H 4664.74 -0.912445 -3.55063 0
M  V30 50178 H 4664.39 1.16857 -4.89238 0
M  V30 50179 H 4664.09 -0.290967 -5.86879 0
M  V30 50180 H 4665.62 0.618464 -6.0746 0
M  V30 50181 H 4667.03 -1.5818 -5.51046 0
M  V30 50182 H 4665.43 -2.37299 -5.51189 0
M  V30 50183 H 4666.5 -2.56971 -4.1121 0
M  V30 50184 N 4667.84 1.40895 -0.706143 0
M  V30 50185 C 4669.26 1.55041 -0.378745 0
M  V30 50186 C 4669.46 1.67948 1.11336 0
M  V30 50187 O 4668.51 1.66379 1.89932 0
M  V30 50188 C 4669.82 2.78394 -1.13653 0
M  V30 50189 C 4671.37 2.92202 -1.12191 0
M  V30 50190 C 4671.85 4.18457 -1.86166 0
M  V30 50191 N 4673.34 4.25437 -1.83188 0
M  V30 50192 C 4674.07 5.22012 -2.37257 0
M  V30 50193 N 4673.57 6.24553 -2.99843 0
M  V30 50194 N 4675.36 5.14025 -2.27453 0
M  V30 50195 H 4667.51 1.30763 -1.67377 0
M  V30 50196 H 4669.78 0.631628 -0.70693 0
M  V30 50197 H 4669.48 2.75103 -2.19115 0
M  V30 50198 H 4669.36 3.70226 -0.721983 0
M  V30 50199 H 4671.74 2.95003 -0.0755208 0
M  V30 50200 H 4671.82 2.01515 -1.57561 0
M  V30 50201 H 4671.47 4.16417 -2.90791 0
M  V30 50202 H 4671.4 5.08136 -1.38223 0
M  V30 50203 H 4673.89 3.51971 -1.37568 0
M  V30 50204 H 4674.2 6.94653 -3.3864 0
M  V30 50205 H 4672.55 6.25024 -3.03924 0
M  V30 50206 H 4675.74 4.32844 -1.78224 0
M  V30 50207 H 4675.91 5.89119 -2.69893 0
M  V30 50208 N 4669.32 0.451643 1.5099 0
M  V30 50209 C 4670.59 -0.170638 1.94854 0
M  V30 50210 C 4670.97 -1.58783 1.39108 0
M  V30 50211 O 4670.32 -2.20911 0.583999 0
M  V30 50212 C 4670.53 -0.133806 3.48743 0
M  V30 50213 C 4671.88 -0.332331 4.23297 0
M  V30 50214 O 4672.9 -0.211278 3.55573 0
M  V30 50215 O 4671.76 -0.574669 5.4347 0
M  V30 50216 H 4668.86 -0.122235 0.817917 0
M  V30 50217 H 4671.4 0.510651 1.61835 0
M  V30 50218 H 4670.18 0.856417 3.81813 0
M  V30 50219 H 4669.8 -0.857393 3.88245 0
M  V30 50220 N 4670.8 -1.56528 0.183513 0
M  V30 50221 C 4672.04 -1.97538 -0.458967 0
M  V30 50222 C 4672.37 -1.06995 -1.62067 0
M  V30 50223 O 4671.65 -0.119549 -1.94132 0
M  V30 50224 C 4671.93 -3.47877 -0.930246 0
M  V30 50225 C 4671.79 -4.49199 0.232475 0
M  V30 50226 C 4673.1 -4.01618 -1.79975 0
M  V30 50227 H 4670.22 -0.71821 -0.165358 0
M  V30 50228 H 4672.87 -1.88041 0.272105 0
M  V30 50229 H 4671.02 -3.56101 -1.5532 0
M  V30 50230 H 4672.69 -4.53024 0.869879 0
M  V30 50231 H 4670.93 -4.24654 0.886077 0
M  V30 50232 H 4671.6 -5.51823 -0.139602 0
M  V30 50233 H 4674.08 -3.96102 -1.27447 0
M  V30 50234 H 4672.95 -5.07203 -2.09849 0
M  V30 50235 H 4673.21 -3.46172 -2.74986 0
M  V30 50236 N 4672.27 0.0901557 -1.57342 0
M  V30 50237 C 4673.55 0.824698 -1.77364 0
M  V30 50238 C 4673.93 1.96695 -0.766439 0
M  V30 50239 O 4673.28 2.27587 0.204099 0
M  V30 50240 C 4673.49 1.3147 -3.2329 0
M  V30 50241 C 4674.84 1.7555 -3.8661 0
M  V30 50242 O 4675.86 1.41081 -3.2707 0
M  V30 50243 O 4674.72 2.393 -4.91322 0
M  V30 50244 H 4671.81 0.393751 -0.727248 0
M  V30 50245 H 4674.36 0.0716542 -1.69549 0
M  V30 50246 H 4673.13 0.496535 -3.88137 0
M  V30 50247 H 4672.76 2.12961 -3.35758 0
M  V30 50248 N 4673.75 1.53407 0.361103 0
M  V30 50249 C 4675.16 1.61445 0.937671 0
M  V30 50250 C 4675.51 0.484677 1.90119 0
M  V30 50251 O 4674.64 -0.388237 2.12889 0
M  V30 50252 C 4675.23 2.9263 1.70742 0
M  V30 50253 C 4673.79 3.02989 2.23327 0
M  V30 50254 C 4672.94 2.56774 1.04703 0
M  V30 50255 H 4675.89 1.58083 0.139761 0
M  V30 50256 H 4675.91 2.80684 2.56898 0
M  V30 50257 H 4675.42 3.74838 1.0059 0
M  V30 50258 H 4673.53 2.25379 2.96707 0
M  V30 50259 H 4673.64 4.08149 2.50901 0
M  V30 50260 H 4672 2.11757 1.41532 0
M  V30 50261 H 4672.79 3.41403 0.360419 0
M  V30 50262 N 4675.23 -0.621153 1.44843 0
M  V30 50263 C 4676.14 -1.76115 1.54986 0
M  V30 50264 C 4677.16 -1.68475 0.434987 0
M  V30 50265 O 4678.33 -1.89074 0.693759 0
M  V30 50266 C 4675.4 -3.12535 1.50075 0
M  V30 50267 C 4674.46 -3.31731 2.72494 0
M  V30 50268 C 4673.69 -4.61643 2.67808 0
M  V30 50269 O 4673.91 -5.43094 1.74371 0
M  V30 50270 O 4672.85 -4.83258 3.58811 0
M  V30 50271 H 4676.67 -1.70509 2.51317 0
M  V30 50272 H 4674.26 -0.783598 1.27201 0
M  V30 50273 H 4676.14 -3.93839 1.49896 0
M  V30 50274 H 4674.82 -3.18661 0.568918 0
M  V30 50275 H 4673.72 -2.50067 2.78239 0
M  V30 50276 H 4675.06 -3.30473 3.64758 0
M  V30 50277 N 4676.71 -1.31907 -0.862456 0
M  V30 50278 C 4677.64 -1.22789 -1.98608 0
M  V30 50279 C 4678.62 -0.113421 -1.69721 0
M  V30 50280 O 4679.8 -0.299286 -1.9188 0
M  V30 50281 C 4676.93 -0.942176 -3.34276 0
M  V30 50282 C 4675.89 -2.01703 -3.77492 0
M  V30 50283 C 4675.21 -1.58387 -5.10703 0
M  V30 50284 C 4676.51 -3.4311 -3.93793 0
M  V30 50285 H 4678.21 -2.16796 -2.06495 0
M  V30 50286 H 4675.75 -1.0437 -0.992117 0
M  V30 50287 H 4677.71 -0.864963 -4.12427 0
M  V30 50288 H 4676.43 0.0335455 -3.26583 0
M  V30 50289 H 4675.09 -2.08426 -3.01586 0
M  V30 50290 H 4674.74 -0.595803 -4.99459 0
M  V30 50291 H 4674.44 -2.30298 -5.40589 0
M  V30 50292 H 4675.96 -1.52087 -5.91356 0
M  V30 50293 H 4677.38 -3.39019 -4.62319 0
M  V30 50294 H 4675.77 -4.13304 -4.35086 0
M  V30 50295 H 4676.84 -3.83344 -2.96943 0
M  V30 50296 N 4678.19 1.07773 -1.1499 0
M  V30 50297 C 4679.41 1.84554 -0.946278 0
M  V30 50298 C 4679.84 1.81325 0.500299 0
M  V30 50299 O 4679.19 1.20305 1.35633 0
M  V30 50300 C 4679.24 3.29731 -1.45979 0
M  V30 50301 O 4678.35 4.07147 -0.656153 0
M  V30 50302 H 4677.69 0.571629 -0.33784 0
M  V30 50303 H 4680.22 1.35985 -1.5287 0
M  V30 50304 H 4680.23 3.80569 -1.47077 0
M  V30 50305 H 4678.9 3.31397 -2.51295 0
M  V30 50306 H 4677.48 3.65992 -0.71445 0
M  V30 50307 N 4679.66 0.946029 1.26048 0
M  V30 50308 C 4680.57 0.465713 2.29931 0
M  V30 50309 C 4681.59 -0.462702 1.67735 0
M  V30 50310 O 4682.77 -0.341048 1.98491 0
M  V30 50311 C 4679.83 -0.256872 3.45747 0
M  V30 50312 C 4678.89 0.708698 4.2341 0
M  V30 50313 C 4678.13 0.0205012 5.33696 0
M  V30 50314 O 4678.35 -1.19552 5.57731 0
M  V30 50315 O 4677.28 0.701669 5.97796 0
M  V30 50316 H 4681.11 1.32876 2.73089 0
M  V30 50317 H 4678.69 0.712117 1.31336 0
M  V30 50318 H 4680.58 -0.663706 4.1614 0
M  V30 50319 H 4679.25 -1.09523 3.04609 0
M  V30 50320 H 4678.16 1.16557 3.55479 0
M  V30 50321 H 4679.49 1.51481 4.6831 0
M  V30 50322 N 4681.14 -1.40518 0.713605 0
M  V30 50323 C 4682.08 -2.28198 0.00889445 0
M  V30 50324 C 4683.05 -1.43229 -0.769685 0
M  V30 50325 O 4684.24 -1.72643 -0.756738 0
M  V30 50326 C 4681.36 -3.23762 -0.994785 0
M  V30 50327 C 4680.41 -4.25392 -0.30725 0
M  V30 50328 S 4681.24 -5.26762 0.963432 0
M  V30 50329 C 4682.4 -6.25888 -0.0381943 0
M  V30 50330 H 4682.63 -2.87619 0.752508 0
M  V30 50331 H 4680.17 -1.45923 0.504553 0
M  V30 50332 H 4682.12 -3.79346 -1.56865 0
M  V30 50333 H 4680.78 -2.63402 -1.71109 0
M  V30 50334 H 4679.98 -4.92599 -1.06593 0
M  V30 50335 H 4679.58 -3.73496 0.19401 0
M  V30 50336 H 4681.87 -6.71686 -0.885676 0
M  V30 50337 H 4682.81 -7.0555 0.600438 0
M  V30 50338 H 4683.22 -5.63074 -0.401035 0
M  V30 50339 N 4682.62 -0.459644 -1.50748 0
M  V30 50340 C 4683.87 0.0994254 -2.02556 0
M  V30 50341 C 4684.2 1.40395 -1.34175 0
M  V30 50342 O 4683.47 1.8889 -0.463749 0
M  V30 50343 C 4683.76 0.295116 -3.58889 0
M  V30 50344 C 4683.61 -1.02962 -4.37857 0
M  V30 50345 C 4684.93 1.05487 -4.27271 0
M  V30 50346 H 4682.05 0.0346601 -0.736185 0
M  V30 50347 H 4684.69 -0.603002 -1.80177 0
M  V30 50348 H 4682.84 0.89343 -3.78087 0
M  V30 50349 H 4684.51 -1.66363 -4.30257 0
M  V30 50350 H 4682.76 -1.62899 -4.02053 0
M  V30 50351 H 4683.43 -0.846473 -5.45471 0
M  V30 50352 H 4685.9 0.547848 -4.12478 0
M  V30 50353 H 4684.78 1.16058 -5.3649 0
M  V30 50354 H 4685.04 2.08861 -3.89653 0
M  V30 50355 N 4684.1 1.56428 -0.191812 0
M  V30 50356 C 4685.38 1.89226 0.495265 0
M  V30 50357 C 4685.76 1.10484 1.79879 0
M  V30 50358 O 4685.1 0.204932 2.27579 0
M  V30 50359 C 4685.31 3.4155 0.717247 0
M  V30 50360 C 4686.66 4.11715 1.03809 0
M  V30 50361 O 4687.69 3.46983 0.805082 0
M  V30 50362 O 4686.54 5.26115 1.47869 0
M  V30 50363 H 4683.64 0.785797 0.257782 0
M  V30 50364 H 4686.18 1.6811 -0.23178 0
M  V30 50365 H 4684.96 3.90771 -0.203425 0
M  V30 50366 H 4684.58 3.68347 1.49687 0
M  V30 50367 N 4685.58 -0.0818102 1.57388 0
M  V30 50368 C 4686.82 -0.782849 1.86756 0
M  V30 50369 C 4687.15 -1.78079 0.78218 0
M  V30 50370 O 4686.41 -1.94427 -0.222882 0
M  V30 50371 C 4686.71 -1.53501 3.22757 0
M  V30 50372 C 4686.37 -0.677977 4.45774 0
M  V30 50373 C 4685.03 -0.44176 4.79168 0
M  V30 50374 C 4687.39 -0.0830411 5.21134 0
M  V30 50375 C 4684.71 0.399039 5.85341 0
M  V30 50376 C 4687.07 0.745156 6.28196 0
M  V30 50377 C 4685.73 0.991339 6.60098 0
M  V30 50378 H 4685 -0.286465 0.683388 0
M  V30 50379 H 4687.65 -0.0439135 1.9145 0
M  V30 50380 H 4685.95 -2.34588 3.13808 0
M  V30 50381 H 4687.65 -2.08206 3.42712 0
M  V30 50382 H 4684.24 -0.872209 4.19631 0
M  V30 50383 H 4688.42 -0.252673 4.95656 0
M  V30 50384 H 4683.68 0.598619 6.08462 0
M  V30 50385 H 4687.85 1.21295 6.85755 0
M  V30 50386 H 4685.48 1.64464 7.42197 0
M  V30 50387 N 4687.06 -1.53597 -0.352963 0
M  V30 50388 C 4688 -1.80924 -1.43301 0
M  V30 50389 C 4688.97 -0.654342 -1.52668 0
M  V30 50390 O 4690.16 -0.897818 -1.68356 0
M  V30 50391 C 4687.3 -2.01615 -2.80081 0
M  V30 50392 C 4686.41 -3.2933 -2.79581 0
M  V30 50393 C 4685.55 -3.4014 -4.08018 0
M  V30 50394 C 4684.58 -4.6184 -4.01709 0
M  V30 50395 N 4683.72 -4.69735 -5.21818 0
M  V30 50396 H 4688.56 -2.73079 -1.19298 0
M  V30 50397 H 4686.1 -1.35265 -0.578083 0
M  V30 50398 H 4688.06 -2.11599 -3.59558 0
M  V30 50399 H 4686.69 -1.12783 -3.02456 0
M  V30 50400 H 4685.74 -3.28235 -1.92265 0
M  V30 50401 H 4687.05 -4.18893 -2.70795 0
M  V30 50402 H 4686.2 -3.49505 -4.95914 0
M  V30 50403 H 4684.94 -2.48616 -4.19573 0
M  V30 50404 H 4683.95 -4.52563 -3.12197 0
M  V30 50405 H 4685.17 -5.54719 -3.91744 0
M  V30 50406 H 4683.12 -3.81116 -5.33935 0
M  V30 50407 H 4683.04 -5.5322 -5.15251 0
M  V30 50408 H 4684.3 -4.83398 -6.11512 0
M  V30 50409 N 4688.53 0.613463 -1.4517 0
M  V30 50410 C 4689.78 1.36991 -1.48586 0
M  V30 50411 C 4690.1 1.94589 -0.126613 0
M  V30 50412 O 4689.37 1.76819 0.84331 0
M  V30 50413 H 4687.95 0.508539 -0.547172 0
M  V30 50414 H 4690.61 0.720789 -1.81082 0
M  V30 50415 H 4689.71 2.19232 -2.22135 0
M  V30 50416 N 4690.01 1.32363 0.855449 0
M  V30 50417 C 4691.24 1.25876 1.64204 0
M  V30 50418 C 4691.65 -0.173391 1.88002 0
M  V30 50419 O 4691.01 -1.11022 1.44846 0
M  V30 50420 C 4691.06 2.01434 3.00177 0
M  V30 50421 O 4690.78 3.39061 2.77433 0
M  V30 50422 C 4692.28 2.01962 3.94622 0
M  V30 50423 H 4689.5 0.434336 0.511462 0
M  V30 50424 H 4692.05 1.74473 1.06674 0
M  V30 50425 H 4690.2 1.56562 3.54355 0
M  V30 50426 H 4690.62 3.77724 3.63903 0
M  V30 50427 H 4692.09 2.59314 4.87299 0
M  V30 50428 H 4692.57 1.00569 4.27531 0
M  V30 50429 H 4693.17 2.46779 3.46382 0
M  V30 50430 N 4691.49 -1.07162 1.1556 0
M  V30 50431 C 4692.74 -1.79795 0.931667 0
M  V30 50432 C 4693.06 -1.86822 -0.541084 0
M  V30 50433 O 4692.32 -1.34947 -1.41731 0
M  V30 50434 C 4692.62 -3.24702 1.49343 0
M  V30 50435 C 4692.28 -3.37771 2.987 0
M  V30 50436 C 4690.95 -3.41045 3.39473 0
M  V30 50437 C 4693.3 -3.4041 3.94677 0
M  V30 50438 C 4690.63 -3.44564 4.74861 0
M  V30 50439 C 4692.98 -3.45466 5.29939 0
M  V30 50440 C 4691.64 -3.47019 5.70206 0
M  V30 50441 H 4690.91 -0.657916 0.340921 0
M  V30 50442 H 4693.56 -1.26086 1.44134 0
M  V30 50443 H 4691.86 -3.81205 0.904993 0
M  V30 50444 H 4693.56 -3.79481 1.29595 0
M  V30 50445 H 4690.15 -3.35922 2.66184 0
M  V30 50446 H 4694.34 -3.371 3.64249 0
M  V30 50447 H 4689.59 -3.44065 5.054 0
M  V30 50448 H 4693.77 -3.46455 6.04104 0
M  V30 50449 H 4691.39 -3.49498 6.75096 0
M  V30 50450 N 4692.97 -0.9527 -1.25544 0
M  V30 50451 C 4693.9 -0.489367 -2.28314 0
M  V30 50452 C 4694.88 0.463302 -1.63669 0
M  V30 50453 O 4696.06 0.362673 -1.90783 0
M  V30 50454 C 4693.19 0.235481 -3.46501 0
M  V30 50455 C 4692.15 -0.631742 -4.23312 0
M  V30 50456 C 4691.47 0.223735 -5.34232 0
M  V30 50457 C 4692.77 -1.90888 -4.86168 0
M  V30 50458 H 4694.47 -1.34831 -2.67322 0
M  V30 50459 H 4692.01 -0.649773 -1.28507 0
M  V30 50460 H 4693.97 0.570735 -4.17517 0
M  V30 50461 H 4692.69 1.12866 -3.06478 0
M  V30 50462 H 4691.35 -0.950053 -3.54076 0
M  V30 50463 H 4691 1.11661 -4.9045 0
M  V30 50464 H 4690.7 -0.353197 -5.86538 0
M  V30 50465 H 4692.22 0.554 -6.08082 0
M  V30 50466 H 4693.64 -1.64016 -5.49338 0
M  V30 50467 H 4692.03 -2.43131 -5.48641 0
M  V30 50468 H 4693.1 -2.61318 -4.08461 0
M  V30 50469 N 4694.45 1.40138 -0.721047 0
M  V30 50470 C 4695.72 1.94677 -0.189826 0
M  V30 50471 C 4696.1 1.65884 1.3056 0
M  V30 50472 O 4695.45 0.979464 2.06443 0
M  V30 50473 C 4695.66 3.45277 -0.508425 0
M  V30 50474 C 4697.01 4.22208 -0.450082 0
M  V30 50475 O 4698.03 3.53412 -0.444802 0
M  V30 50476 O 4696.89 5.44787 -0.432381 0
M  V30 50477 H 4693.99 0.826458 -0.0299316 0
M  V30 50478 H 4696.53 1.49716 -0.798953 0
M  V30 50479 H 4695.3 3.59614 -1.54252 0
M  V30 50480 H 4694.93 3.97386 0.130386 0
M  V30 50481 N 4695.92 0.467632 1.50502 0
M  V30 50482 C 4697.34 0.121589 1.59136 0
M  V30 50483 C 4697.54 -1.37165 1.47608 0
M  V30 50484 O 4696.6 -2.1446 1.33279 0
M  V30 50485 C 4697.91 0.668704 2.9317 0
M  V30 50486 C 4699.46 0.631824 3.06557 0
M  V30 50487 C 4699.93 1.15642 4.4316 0
M  V30 50488 N 4701.42 1.11569 4.49563 0
M  V30 50489 C 4702.16 1.49214 5.53645 0
M  V30 50490 N 4701.65 1.94292 6.64998 0
M  V30 50491 N 4703.45 1.40839 5.4417 0
M  V30 50492 H 4695.6 1.43885 1.5624 0
M  V30 50493 H 4697.86 0.59481 0.738177 0
M  V30 50494 H 4697.57 1.71464 3.07072 0
M  V30 50495 H 4697.44 0.110343 3.77039 0
M  V30 50496 H 4699.83 -0.405195 2.92305 0
M  V30 50497 H 4699.91 1.22695 2.24454 0
M  V30 50498 H 4699.55 2.19206 4.58161 0
M  V30 50499 H 4699.48 0.537549 5.23849 0
M  V30 50500 H 4701.97 0.785025 3.69656 0
M  V30 50501 H 4702.29 2.21174 7.40474 0
M  V30 50502 H 4700.63 1.98242 6.66127 0
M  V30 50503 H 4703.82 1.05466 4.56064 0
M  V30 50504 H 4704 1.70503 6.25166 0
M  V30 50505 N 4697.4 -1.56324 0.200105 0
M  V30 50506 C 4698.31 -2.22934 -0.73059 0
M  V30 50507 C 4699.33 -1.23001 -1.23072 0
M  V30 50508 O 4700.5 -1.55753 -1.27683 0
M  V30 50509 C 4697.57 -2.87955 -1.93088 0
M  V30 50510 C 4696.63 -4.03172 -1.47483 0
M  V30 50511 C 4695.86 -4.65082 -2.61791 0
M  V30 50512 O 4696.09 -4.25926 -3.79398 0
M  V30 50513 O 4695.02 -5.5446 -2.34217 0
M  V30 50514 H 4698.85 -3.03084 -0.193285 0
M  V30 50515 H 4696.43 -1.49371 -0.0294096 0
M  V30 50516 H 4698.31 -3.29072 -2.63229 0
M  V30 50517 H 4696.99 -2.1078 -2.45669 0
M  V30 50518 H 4695.89 -3.66666 -0.742072 0
M  V30 50519 H 4697.23 -4.82025 -0.995627 0
M  V30 50520 N 4698.88 0.0734624 -1.57429 0
M  V30 50521 C 4699.84 1.07185 -2.02593 0
M  V30 50522 C 4700.84 1.31692 -0.922707 0
M  V30 50523 O 4702.03 1.2744 -1.18763 0
M  V30 50524 C 4699.16 2.4159 -2.40514 0
M  V30 50525 H 4700.36 0.682624 -2.92028 0
M  V30 50526 H 4697.91 0.31914 -1.53007 0
M  V30 50527 H 4698.65 2.85348 -1.541 0
M  V30 50528 H 4698.43 2.25145 -3.21017 0
M  V30 50529 H 4699.92 3.13357 -2.76038 0
M  V30 50530 N 4700.36 1.53782 0.344812 0
M  V30 50531 C 4701.29 1.84667 1.429 0
M  V30 50532 C 4702.27 0.701703 1.54952 0
M  V30 50533 O 4703.45 0.953497 1.69181 0
M  V30 50534 C 4700.58 2.05513 2.79967 0
M  V30 50535 C 4699.54 3.21328 2.82723 0
M  V30 50536 C 4698.86 3.27505 4.22664 0
M  V30 50537 C 4700.16 4.59465 2.48373 0
M  V30 50538 H 4701.86 2.75465 1.17301 0
M  V30 50539 H 4699.4 1.32544 0.562849 0
M  V30 50540 H 4701.36 2.25703 3.55859 0
M  V30 50541 H 4700.08 1.11445 3.06998 0
M  V30 50542 H 4698.74 3.00992 2.09284 0
M  V30 50543 H 4698.39 2.31035 4.46802 0
M  V30 50544 H 4698.09 4.05331 4.25418 0
M  V30 50545 H 4699.61 3.49904 5.00399 0
M  V30 50546 H 4701.03 4.79678 3.13978 0
M  V30 50547 H 4699.42 5.39685 2.62413 0
M  V30 50548 H 4700.49 4.6316 1.43564 0
M  V30 50549 N 4701.84 -0.605756 1.45494 0
M  V30 50550 C 4702.75 -1.74461 1.56846 0
M  V30 50551 C 4703.76 -1.68004 0.452831 0
M  V30 50552 O 4704.94 -1.88327 0.713774 0
M  V30 50553 C 4702 -3.10926 1.53382 0
M  V30 50554 C 4701.06 -3.28822 2.75997 0
M  V30 50555 C 4700.3 -4.58777 2.72689 0
M  V30 50556 O 4700.52 -5.41214 1.80121 0
M  V30 50557 O 4699.45 -4.79425 3.63916 0
M  V30 50558 H 4703.28 -1.67834 2.53112 0
M  V30 50559 H 4700.87 -0.770063 1.28025 0
M  V30 50560 H 4702.75 -3.92227 1.54064 0
M  V30 50561 H 4701.42 -3.1804 0.602684 0
M  V30 50562 H 4700.33 -2.47102 2.80876 0
M  V30 50563 H 4701.66 -3.26586 3.68242 0
M  V30 50564 N 4703.31 -1.32814 -0.848417 0
M  V30 50565 C 4704.28 -1.22201 -1.93906 0
M  V30 50566 C 4705.28 -0.14346 -1.60159 0
M  V30 50567 O 4706.47 -0.394313 -1.69679 0
M  V30 50568 C 4703.6 -0.880786 -3.29325 0
M  V30 50569 H 4704.79 -2.19135 -2.04744 0
M  V30 50570 H 4702.35 -1.16735 -1.03936 0
M  V30 50571 H 4703.08 0.0864636 -3.24185 0
M  V30 50572 H 4702.87 -1.66065 -3.55197 0
M  V30 50573 H 4704.36 -0.831015 -4.09248 0
M  V30 50574 N 4704.79 1.06547 -1.16127 0
M  V30 50575 C 4705.72 2.15931 -0.888585 0
M  V30 50576 C 4706.7 1.69307 0.164075 0
M  V30 50577 O 4707.89 1.94193 0.0167174 0
M  V30 50578 C 4705.02 3.45148 -0.386063 0
M  V30 50579 C 4703.97 4.05267 -1.37634 0
M  V30 50580 C 4703.3 5.29661 -0.732324 0
M  V30 50581 C 4704.6 4.44345 -2.74508 0
M  V30 50582 H 4706.29 2.39 -1.80332 0
M  V30 50583 H 4703.84 1.14863 -0.868475 0
M  V30 50584 H 4705.79 4.21003 -0.182795 0
M  V30 50585 H 4704.52 3.21691 0.564161 0
M  V30 50586 H 4703.17 3.31464 -1.56611 0
M  V30 50587 H 4702.82 5.025 0.224306 0
M  V30 50588 H 4702.52 5.70843 -1.39327 0
M  V30 50589 H 4704.05 6.08216 -0.539016 0
M  V30 50590 H 4705.46 5.11294 -2.59329 0
M  V30 50591 H 4703.86 4.96503 -3.37053 0
M  V30 50592 H 4704.93 3.55327 -3.29956 0
M  V30 50593 N 4706.27 0.959345 1.25037 0
M  V30 50594 C 4707.5 0.633576 1.97486 0
M  V30 50595 C 4707.92 -0.788495 1.70776 0
M  V30 50596 O 4707.28 -1.53391 0.966485 0
M  V30 50597 C 4707.33 0.90418 3.4908 0
M  V30 50598 O 4706.43 -0.0146489 4.12397 0
M  V30 50599 H 4705.77 0.24039 0.618958 0
M  V30 50600 H 4708.3 1.28722 1.59034 0
M  V30 50601 H 4708.31 0.832343 3.9942 0
M  V30 50602 H 4706.99 1.94061 3.67849 0
M  V30 50603 H 4705.56 0.109795 3.72738 0
M  V30 50604 N 4707.75 -1.39754 0.728469 0
M  V30 50605 C 4708.68 -2.33289 0.0992174 0
M  V30 50606 C 4709.66 -1.53571 -0.731435 0
M  V30 50607 O 4710.84 -1.8199 -0.677743 0
M  V30 50608 C 4707.97 -3.37633 -0.813715 0
M  V30 50609 C 4706.93 -4.2791 -0.0877159 0
M  V30 50610 C 4706.25 -5.22898 -1.11723 0
M  V30 50611 C 4707.55 -5.1131 1.06581 0
M  V30 50612 H 4709.25 -2.8616 0.880508 0
M  V30 50613 H 4706.79 -1.3759 0.424867 0
M  V30 50614 H 4708.75 -4.02015 -1.26341 0
M  V30 50615 H 4707.47 -2.83187 -1.62705 0
M  V30 50616 H 4706.13 -3.64999 0.342287 0
M  V30 50617 H 4705.78 -4.64751 -1.92395 0
M  V30 50618 H 4705.48 -5.84145 -0.636271 0
M  V30 50619 H 4707 -5.90157 -1.56676 0
M  V30 50620 H 4708.42 -5.69073 0.694871 0
M  V30 50621 H 4706.81 -5.81666 1.47597 0
M  V30 50622 H 4707.88 -4.46527 1.89054 0
M  V30 50623 N 4709.23 -0.475607 -1.50252 0
M  V30 50624 C 4710.47 0.077667 -2.01951 0
M  V30 50625 C 4710.8 1.39808 -1.35936 0
M  V30 50626 O 4710.07 1.89247 -0.506189 0
M  V30 50627 H 4708.65 0.0316928 -0.746327 0
M  V30 50628 H 4711.31 -0.62706 -1.84537 0
M  V30 50629 H 4710.4 0.225886 -3.11281 0
M  V30 50630 N 4710.7 1.56216 -0.208392 0
M  V30 50631 C 4711.64 2.16953 0.7392 0
M  V30 50632 C 4712.65 1.13496 1.16716 0
M  V30 50633 O 4713.84 1.40533 1.10058 0
M  V30 50634 C 4710.94 2.72762 2.01132 0
M  V30 50635 C 4710.11 4.01256 1.74104 0
M  V30 50636 C 4709.17 4.41759 2.85893 0
M  V30 50637 O 4708.2 5.08921 2.54928 0
M  V30 50638 N 4709.4 4.06357 4.14554 0
M  V30 50639 H 4712.16 2.98893 0.219732 0
M  V30 50640 H 4709.72 1.61878 -0.0269014 0
M  V30 50641 H 4711.72 2.96835 2.75083 0
M  V30 50642 H 4710.29 1.952 2.44164 0
M  V30 50643 H 4709.51 3.85176 0.83864 0
M  V30 50644 H 4710.79 4.85106 1.5346 0
M  V30 50645 H 4710.19 3.52361 4.42559 0
M  V30 50646 H 4708.75 4.35352 4.8509 0
M  V30 50647 N 4712.18 -0.0651125 1.57465 0
M  V30 50648 C 4713.59 -0.616151 1.7624 0
M  V30 50649 C 4713.94 -1.77557 0.834751 0
M  V30 50650 O 4713.07 -2.1639 0.0204917 0
M  V30 50651 C 4713.66 -1.12451 3.19594 0
M  V30 50652 C 4712.22 -1.62135 3.3969 0
M  V30 50653 C 4711.37 -0.543643 2.71919 0
M  V30 50654 H 4714.32 0.161077 1.5788 0
M  V30 50655 H 4714.34 -1.99313 3.24121 0
M  V30 50656 H 4713.85 -0.280456 3.87085 0
M  V30 50657 H 4711.96 -2.48844 2.77322 0
M  V30 50658 H 4712.07 -1.69369 4.48164 0
M  V30 50659 H 4710.43 -0.990269 2.34661 0
M  V30 50660 H 4711.22 0.290336 3.4207 0
M  V30 50661 N 4713.66 -1.53962 -0.336652 0
M  V30 50662 C 4714.61 -1.82433 -1.41374 0
M  V30 50663 C 4715.58 -0.670498 -1.51966 0
M  V30 50664 O 4716.76 -0.915624 -1.67395 0
M  V30 50665 C 4713.9 -2.04574 -2.77927 0
M  V30 50666 C 4713.02 -3.32277 -2.76072 0
M  V30 50667 C 4712.15 -3.44448 -4.04387 0
M  V30 50668 C 4711.19 -4.66075 -3.96788 0
M  V30 50669 N 4710.33 -4.75243 -5.16806 0
M  V30 50670 H 4715.17 -2.74329 -1.16395 0
M  V30 50671 H 4712.7 -1.3587 -0.563704 0
M  V30 50672 H 4714.66 -2.15401 -3.57293 0
M  V30 50673 H 4713.29 -1.15984 -3.01243 0
M  V30 50674 H 4712.34 -3.30256 -1.88772 0
M  V30 50675 H 4713.66 -4.21742 -2.66336 0
M  V30 50676 H 4712.81 -3.54745 -4.9218 0
M  V30 50677 H 4711.55 -2.53052 -4.16913 0
M  V30 50678 H 4710.55 -4.55848 -3.0738 0
M  V30 50679 H 4711.78 -5.58843 -3.85839 0
M  V30 50680 H 4709.72 -3.86758 -5.29863 0
M  V30 50681 H 4709.64 -5.58654 -5.09354 0
M  V30 50682 H 4710.91 -4.89857 -6.0635 0
M  V30 50683 N 4715.14 0.598031 -1.45813 0
M  V30 50684 C 4716.55 1.18006 -1.44677 0
M  V30 50685 C 4716.9 1.95378 -0.179433 0
M  V30 50686 O 4716.03 2.04126 0.718437 0
M  V30 50687 C 4716.62 2.14668 -2.62113 0
M  V30 50688 C 4715.18 2.68227 -2.64067 0
M  V30 50689 C 4714.33 1.43808 -2.37096 0
M  V30 50690 H 4717.28 0.386806 -1.53914 0
M  V30 50691 H 4717.3 2.9787 -2.36757 0
M  V30 50692 H 4716.81 1.58328 -3.54336 0
M  V30 50693 H 4714.91 3.28479 -1.75875 0
M  V30 50694 H 4715.02 3.12008 -3.63576 0
M  V30 50695 H 4713.39 1.73094 -1.86844 0
M  V30 50696 H 4714.17 0.893216 -3.31476 0
M  V30 50697 N 4716.62 1.33262 0.841362 0
M  V30 50698 C 4717.56 1.23308 1.95099 0
M  V30 50699 C 4718.53 0.112262 1.6572 0
M  V30 50700 O 4719.72 0.290105 1.88582 0
M  V30 50701 C 4716.86 0.975699 3.3102 0
M  V30 50702 C 4715.97 2.18256 3.72812 0
M  V30 50703 C 4715.11 1.85954 4.97589 0
M  V30 50704 C 4714.15 3.02885 5.31909 0
M  V30 50705 N 4713.28 2.70588 6.47863 0
M  V30 50706 H 4718.12 2.18214 2.02945 0
M  V30 50707 H 4715.66 1.08514 0.993135 0
M  V30 50708 H 4717.62 0.806914 4.09322 0
M  V30 50709 H 4716.25 0.063389 3.22738 0
M  V30 50710 H 4715.3 2.46117 2.90052 0
M  V30 50711 H 4716.61 3.0568 3.94159 0
M  V30 50712 H 4715.77 1.65704 5.83633 0
M  V30 50713 H 4714.51 0.95762 4.78206 0
M  V30 50714 H 4713.51 3.23751 4.44371 0
M  V30 50715 H 4714.74 3.93828 5.53242 0
M  V30 50716 H 4712.68 1.82952 6.29972 0
M  V30 50717 H 4712.6 3.51543 6.69294 0
M  V30 50718 H 4713.87 2.53799 7.37025 0
M  V30 50719 N 4718.1 -1.0593 1.1669 0
M  V30 50720 C 4719.03 -2.13465 0.834578 0
M  V30 50721 C 4720.04 -1.62014 -0.159783 0
M  V30 50722 O 4721.23 -1.7838 0.0654855 0
M  V30 50723 C 4718.33 -3.38169 0.22248 0
M  V30 50724 C 4717.5 -4.18923 1.25786 0
M  V30 50725 C 4716.56 -5.21982 0.664886 0
M  V30 50726 O 4715.59 -5.5333 1.33472 0
M  V30 50727 N 4716.79 -5.77921 -0.546631 0
M  V30 50728 H 4719.55 -2.42572 1.76008 0
M  V30 50729 H 4717.12 -1.21963 1.06474 0
M  V30 50730 H 4719.11 -4.04266 -0.18733 0
M  V30 50731 H 4717.68 -3.06657 -0.60665 0
M  V30 50732 H 4716.9 -3.48427 1.8437 0
M  V30 50733 H 4718.19 -4.6968 1.95647 0
M  V30 50734 H 4717.58 -5.54725 -1.10893 0
M  V30 50735 H 4716.14 -6.45576 -0.898602 0
M  V30 50736 N 4719.57 -0.965962 -1.24527 0
M  V30 50737 C 4720.82 -0.627828 -1.92837 0
M  V30 50738 C 4721.15 0.834632 -1.7535 0
M  V30 50739 O 4720.43 1.60027 -1.10552 0
M  V30 50740 C 4720.71 -1.00122 -3.45901 0
M  V30 50741 C 4720.56 -2.52024 -3.72564 0
M  V30 50742 C 4721.88 -0.534504 -4.36842 0
M  V30 50743 H 4719 -0.229561 -0.700336 0
M  V30 50744 H 4721.64 -1.20465 -1.46929 0
M  V30 50745 H 4719.79 -0.510374 -3.85133 0
M  V30 50746 H 4721.47 -3.08571 -3.42901 0
M  V30 50747 H 4719.71 -2.95298 -3.17776 0
M  V30 50748 H 4720.38 -2.732 -4.79652 0
M  V30 50749 H 4722.86 -0.955708 -4.04976 0
M  V30 50750 H 4721.73 -0.824342 -5.42675 0
M  V30 50751 H 4721.99 0.565435 -4.38469 0
M  V30 50752 N 4721.05 1.39365 -0.73587 0
M  V30 50753 C 4722.28 2.04794 -0.294465 0
M  V30 50754 C 4722.69 1.55482 1.07101 0
M  V30 50755 O 4722.05 0.720097 1.67693 0
M  V30 50756 C 4722.1 3.60349 -0.288198 0
M  V30 50757 O 4721.82 4.07846 -1.59978 0
M  V30 50758 C 4723.32 4.42977 0.169266 0
M  V30 50759 H 4720.54 0.658566 -0.128574 0
M  V30 50760 H 4723.09 1.78396 -0.999763 0
M  V30 50761 H 4721.24 3.85646 0.368219 0
M  V30 50762 H 4721.66 5.02176 -1.51392 0
M  V30 50763 H 4723.13 5.51864 0.122493 0
M  V30 50764 H 4723.61 4.22072 1.21457 0
M  V30 50765 H 4724.21 4.22831 -0.457618 0
M  V30 50766 N 4722.53 0.483569 1.49998 0
M  V30 50767 C 4723.48 -0.304084 2.28788 0
M  V30 50768 C 4724.45 -0.976066 1.34396 0
M  V30 50769 O 4725.63 -0.986099 1.63342 0
M  V30 50770 C 4722.77 -1.37287 3.16617 0
M  V30 50771 C 4721.88 -0.714411 4.26052 0
M  V30 50772 C 4721.02 -1.76215 5.01121 0
M  V30 50773 C 4720.06 -1.08461 6.02414 0
M  V30 50774 N 4719.2 -2.07576 6.70713 0
M  V30 50775 H 4724.04 0.374085 2.95643 0
M  V30 50776 H 4721.57 0.196326 1.45784 0
M  V30 50777 H 4723.53 -2.00432 3.659 0
M  V30 50778 H 4722.16 -2.02003 2.51783 0
M  V30 50779 H 4721.21 0.0299136 3.80388 0
M  V30 50780 H 4722.52 -0.180208 4.98474 0
M  V30 50781 H 4721.68 -2.4691 5.54185 0
M  V30 50782 H 4720.42 -2.33018 4.28432 0
M  V30 50783 H 4719.42 -0.363352 5.48598 0
M  V30 50784 H 4720.65 -0.523313 6.77081 0
M  V30 50785 H 4718.59 -2.63373 6.00808 0
M  V30 50786 H 4718.51 -1.59175 7.39053 0
M  V30 50787 H 4719.78 -2.77613 7.2839 0
M  V30 50788 N 4724.01 -1.56103 0.216674 0
M  V30 50789 C 4724.92 -2.23696 -0.706904 0
M  V30 50790 C 4725.93 -1.243 -1.21761 0
M  V30 50791 O 4727.11 -1.57098 -1.26024 0
M  V30 50792 C 4724.17 -2.89986 -1.90023 0
M  V30 50793 C 4723.24 -4.04713 -1.43198 0
M  V30 50794 C 4722.47 -4.67833 -2.56843 0
M  V30 50795 O 4722.69 -4.29926 -3.74859 0
M  V30 50796 O 4721.63 -5.56913 -2.28323 0
M  V30 50797 H 4725.45 -3.03272 -0.161128 0
M  V30 50798 H 4723.04 -1.49394 -0.0135652 0
M  V30 50799 H 4724.92 -3.31846 -2.59723 0
M  V30 50800 H 4723.59 -2.13374 -2.4342 0
M  V30 50801 H 4722.5 -3.67433 -0.703141 0
M  V30 50802 H 4723.83 -4.83054 -0.944445 0
M  V30 50803 N 4725.49 0.0567608 -1.57498 0
M  V30 50804 C 4726.45 1.05031 -2.03718 0
M  V30 50805 C 4727.45 1.30706 -0.936623 0
M  V30 50806 O 4728.64 1.26174 -1.20108 0
M  V30 50807 C 4725.77 2.39026 -2.43063 0
M  V30 50808 H 4726.96 0.651613 -2.92735 0
M  V30 50809 H 4724.52 0.302893 -1.53337 0
M  V30 50810 H 4725.25 2.83698 -1.57118 0
M  V30 50811 H 4725.04 2.21727 -3.23387 0
M  V30 50812 H 4726.53 3.10411 -2.79347 0
M  V30 50813 N 4726.96 1.54139 0.328482 0
M  V30 50814 C 4728.21 1.72363 1.06858 0
M  V30 50815 C 4728.54 0.493297 1.8783 0
M  V30 50816 O 4727.82 -0.509734 1.87702 0
M  V30 50817 C 4728.1 2.99628 1.99737 0
M  V30 50818 C 4727.95 4.32903 1.22128 0
M  V30 50819 C 4729.27 3.22625 2.99334 0
M  V30 50820 H 4726.39 0.627165 0.387083 0
M  V30 50821 H 4729.03 1.86829 0.345701 0
M  V30 50822 H 4727.18 2.87427 2.61377 0
M  V30 50823 H 4728.86 4.5698 0.629856 0
M  V30 50824 H 4727.1 4.3063 0.523477 0
M  V30 50825 H 4727.77 5.1816 1.90299 0
M  V30 50826 H 4730.25 3.34256 2.47814 0
M  V30 50827 H 4729.12 4.1304 3.6151 0
M  V30 50828 H 4729.38 2.39623 3.71528 0
M  V30 50829 N 4728.44 -0.59029 1.46128 0
M  V30 50830 C 4729.86 -0.912871 1.30915 0
M  V30 50831 C 4730.06 -1.99615 0.274964 0
M  V30 50832 O 4729.11 -2.50398 -0.325109 0
M  V30 50833 C 4730.43 -1.33741 2.69321 0
M  V30 50834 C 4731.97 -1.45067 2.77353 0
M  V30 50835 C 4732.45 -1.9089 4.16323 0
M  V30 50836 N 4733.94 -1.98096 4.18703 0
M  V30 50837 C 4734.68 -2.3481 5.23117 0
M  V30 50838 N 4734.17 -2.7037 6.37865 0
M  V30 50839 N 4735.96 -2.35299 5.10481 0
M  V30 50840 H 4728.12 0.125432 2.12029 0
M  V30 50841 H 4730.38 -0.00655148 0.947977 0
M  V30 50842 H 4730.08 -0.615493 3.46272 0
M  V30 50843 H 4729.96 -2.30047 2.98928 0
M  V30 50844 H 4732.35 -2.16346 2.00695 0
M  V30 50845 H 4732.43 -0.470311 2.51439 0
M  V30 50846 H 4732.07 -1.20192 4.93474 0
M  V30 50847 H 4732 -2.8987 4.39639 0
M  V30 50848 H 4734.49 -1.73134 3.35906 0
M  V30 50849 H 4734.8 -2.97316 7.13318 0
M  V30 50850 H 4733.15 -2.68026 6.41239 0
M  V30 50851 H 4736.34 -2.06935 4.19875 0
M  V30 50852 H 4736.51 -2.63584 5.91969 0
M  V30 50853 N 4729.92 -1.33707 -0.834283 0
M  V30 50854 C 4730.87 -1.2433 -1.96583 0
M  V30 50855 C 4731.86 -0.143718 -1.68789 0
M  V30 50856 O 4733.07 -0.307972 -1.77346 0
M  V30 50857 H 4729.44 -0.385947 -0.645406 0
M  V30 50858 H 4731.41 -2.19985 -2.01616 0
M  V30 50859 C 4730.16 -1.00405 -3.32887 0
M  V30 50860 H 4729.49 -1.84244 -3.54816 0
M  V30 50861 H 4730.93 -0.978765 -4.12548 0
M  V30 50862 C 4729.38 0.292929 -3.35624 0
M  V30 50863 O 4729.91 1.2981 -3.80148 0
M  V30 50864 N 4728.12 0.322072 -2.8881 0
M  V30 50865 H 4727.67 -0.496468 -2.52771 0
M  V30 50866 H 4727.63 1.18966 -2.91023 0
M  V30 50867 N 4731.4 1.0531 -1.1725 0
M  V30 50868 C 4732.33 2.14977 -0.911438 0
M  V30 50869 C 4733.31 1.69471 0.146109 0
M  V30 50870 O 4734.49 1.942 -0.00388027 0
M  V30 50871 C 4731.62 3.44719 -0.422649 0
M  V30 50872 C 4730.58 4.03784 -1.41924 0
M  V30 50873 C 4729.9 5.28855 -0.78846 0
M  V30 50874 C 4731.2 4.41409 -2.79206 0
M  V30 50875 H 4732.9 2.37074 -1.82856 0
M  V30 50876 H 4730.44 1.13935 -0.880609 0
M  V30 50877 H 4732.4 4.20786 -0.227437 0
M  V30 50878 H 4731.12 3.22271 0.53001 0
M  V30 50879 H 4729.78 3.29785 -1.60118 0
M  V30 50880 H 4729.43 5.02709 0.170997 0
M  V30 50881 H 4729.13 5.69333 -1.45373 0
M  V30 50882 H 4730.65 6.0761 -0.603495 0
M  V30 50883 H 4732.07 5.08515 -2.64737 0
M  V30 50884 H 4730.46 4.92901 -3.423 0
M  V30 50885 H 4731.53 3.51808 -3.33706 0
M  V30 50886 N 4732.88 0.972553 1.24013 0
M  V30 50887 C 4734.13 0.63267 1.91521 0
M  V30 50888 C 4734.44 -0.836579 1.76807 0
M  V30 50889 O 4735.64 -1.28719 2.39047 0
M  V30 50890 C 4734.1 1.08094 3.43284 0
M  V30 50891 C 4733.71 2.57398 3.66674 0
M  V30 50892 C 4735.45 0.814435 4.16614 0
M  V30 50893 C 4733.36 2.95933 5.12033 0
M  V30 50894 H 4732.29 0.232924 0.717121 0
M  V30 50895 H 4734.94 1.17941 1.40578 0
M  V30 50896 H 4733.32 0.462478 3.9329 0
M  V30 50897 H 4734.5 3.24416 3.27247 0
M  V30 50898 H 4732.81 2.81711 3.06639 0
M  V30 50899 H 4735.41 1.07829 5.23715 0
M  V30 50900 H 4735.75 -0.249404 4.15552 0
M  V30 50901 H 4736.28 1.3941 3.72572 0
M  V30 50902 H 4733.02 4.01408 5.1822 0
M  V30 50903 H 4732.54 2.33603 5.5244 0
M  V30 50904 H 4734.22 2.86106 5.80304 0
M  V30 50905 N 4734.35 -1.38973 0.74325 0
M  V30 50906 C 4735.26 -2.3434 0.110481 0
M  V30 50907 C 4736.28 -1.58743 -0.712504 0
M  V30 50908 O 4737.46 -1.90992 -0.639058 0
M  V30 50909 C 4734.52 -3.37814 -0.779893 0
M  V30 50910 C 4733.58 -4.29263 0.0562828 0
M  V30 50911 C 4732.82 -5.27795 -0.791689 0
M  V30 50912 O 4733.04 -5.3305 -2.03012 0
M  V30 50913 O 4731.97 -6.01512 -0.215971 0
M  V30 50914 H 4735.8 -2.90126 0.897816 0
M  V30 50915 H 4733.38 -1.40642 0.504015 0
M  V30 50916 H 4735.27 -4.01199 -1.28909 0
M  V30 50917 H 4733.94 -2.844 -1.5459 0
M  V30 50918 H 4732.85 -3.69074 0.611186 0
M  V30 50919 H 4734.18 -4.85905 0.784702 0
M  V30 50920 N 4735.83 -0.491517 -1.49739 0
M  V30 50921 C 4736.76 0.32853 -2.26833 0
M  V30 50922 C 4737.78 0.939066 -1.32986 0
M  V30 50923 O 4738.97 0.824011 -1.58342 0
M  V30 50924 C 4736.07 1.47664 -3.05039 0
M  V30 50925 C 4735.24 0.975155 -4.26391 0
M  V30 50926 C 4734.3 1.99974 -4.86721 0
M  V30 50927 O 4733.32 1.5721 -5.47059 0
M  V30 50928 N 4734.53 3.32946 -4.75529 0
M  V30 50929 H 4737.29 -0.332482 -2.9785 0
M  V30 50930 H 4734.85 -0.323497 -1.58635 0
M  V30 50931 H 4736.84 2.15942 -3.42274 0
M  V30 50932 H 4735.41 2.04197 -2.3669 0
M  V30 50933 H 4734.63 0.117584 -3.94025 0
M  V30 50934 H 4735.92 0.618354 -5.05029 0
M  V30 50935 H 4735.32 3.70384 -4.27589 0
M  V30 50936 H 4733.88 3.96964 -5.16975 0
M  V30 50937 N 4737.31 1.55986 -0.224949 0
M  V30 50938 C 4738.26 2.20439 0.683773 0
M  V30 50939 C 4739.23 1.16106 1.18779 0
M  V30 50940 O 4740.41 1.44474 1.24627 0
M  V30 50941 C 4737.55 2.89083 1.88481 0
M  V30 50942 C 4736.67 4.08017 1.41937 0
M  V30 50943 C 4735.8 4.64435 2.57824 0
M  V30 50944 C 4734.84 5.75664 2.08033 0
M  V30 50945 N 4733.98 6.26359 3.17205 0
M  V30 50946 H 4738.82 2.97727 0.127435 0
M  V30 50947 H 4736.35 1.47011 0.0511461 0
M  V30 50948 H 4738.31 3.27068 2.59002 0
M  V30 50949 H 4736.94 2.14306 2.41397 0
M  V30 50950 H 4735.99 3.75494 0.608963 0
M  V30 50951 H 4737.31 4.88378 1.0143 0
M  V30 50952 H 4736.46 5.04881 3.36423 0
M  V30 50953 H 4735.2 3.83244 3.01621 0
M  V30 50954 H 4734.2 5.34717 1.27898 0
M  V30 50955 H 4735.43 6.58692 1.65232 0
M  V30 50956 H 4733.37 5.4808 3.60478 0
M  V30 50957 H 4733.29 7.01852 2.80961 0
M  V30 50958 H 4734.56 6.71461 3.95929 0
M  V30 50959 N 4738.79 -0.0484076 1.57526 0
M  V30 50960 C 4739.74 -1.05496 2.05278 0
M  V30 50961 C 4740.71 -1.37081 0.937975 0
M  V30 50962 O 4741.89 -1.4775 1.20725 0
M  V30 50963 C 4739.03 -2.35668 2.52101 0
M  V30 50964 C 4738.14 -2.1041 3.77295 0
M  V30 50965 C 4737.28 -3.34312 4.12806 0
M  V30 50966 C 4736.32 -3.04523 5.30973 0
M  V30 50967 N 4735.45 -4.20821 5.62009 0
M  V30 50968 H 4740.29 -0.640783 2.91029 0
M  V30 50969 H 4737.83 -0.304803 1.43907 0
M  V30 50970 H 4739.79 -3.11699 2.77308 0
M  V30 50971 H 4738.42 -2.74844 1.69294 0
M  V30 50972 H 4737.47 -1.24963 3.59289 0
M  V30 50973 H 4738.78 -1.84422 4.63454 0
M  V30 50974 H 4737.94 -4.18725 4.39038 0
M  V30 50975 H 4736.68 -3.63397 3.2526 0
M  V30 50976 H 4735.68 -2.1851 5.04513 0
M  V30 50977 H 4736.91 -2.76737 6.20156 0
M  V30 50978 H 4734.85 -4.49893 4.77422 0
M  V30 50979 H 4734.77 -3.98189 6.42636 0
M  V30 50980 H 4736.04 -5.06163 5.92806 0
M  V30 50981 N 4740.27 -1.54311 -0.320303 0
M  V30 50982 C 4741.54 -1.63326 -1.07629 0
M  V30 50983 C 4741.92 -0.469192 -2.0582 0
M  V30 50984 O 4741.27 0.536196 -2.2212 0
M  V30 50985 C 4741.48 -3.00471 -1.77533 0
M  V30 50986 C 4742.83 -3.56629 -2.30436 0
M  V30 50987 O 4743.85 -3.02798 -1.87595 0
M  V30 50988 O 4742.71 -4.50841 -3.08877 0
M  V30 50989 H 4739.81 -0.661519 -0.496308 0
M  V30 50990 H 4742.35 -1.66657 -0.319934 0
M  V30 50991 H 4741.12 -3.76633 -1.0613 0
M  V30 50992 H 4740.75 -3.00833 -2.59971 0
M  V30 50993 N 4741.74 0.582532 -1.46439 0
M  V30 50994 C 4742.99 1.34272 -1.51983 0
M  V30 50995 C 4743.32 1.93445 -0.171041 0
M  V30 50996 O 4742.6 1.76484 0.817546 0
M  V30 50997 C 4742.88 2.47194 -2.61854 0
M  V30 50998 C 4742.73 1.93054 -4.06263 0
M  V30 50999 C 4744.05 3.49238 -2.67808 0
M  V30 51000 H 4741.17 0.486857 -0.553299 0
M  V30 51001 H 4743.81 0.654374 -1.78376 0
M  V30 51002 H 4741.96 3.05912 -2.39479 0
M  V30 51003 H 4743.64 1.38793 -4.39925 0
M  V30 51004 H 4741.88 1.23883 -4.15735 0
M  V30 51005 H 4742.55 2.74569 -4.78869 0
M  V30 51006 H 4745.03 3.00401 -2.87921 0
M  V30 51007 H 4743.9 4.25707 -3.46504 0
M  V30 51008 H 4744.16 4.06476 -1.73866 0
M  V30 51009 N 4743.22 1.34147 0.82718 0
M  V30 51010 C 4744.13 1.27435 1.96971 0
M  V30 51011 C 4745.15 0.182788 1.73037 0
M  V30 51012 O 4746.32 0.408495 1.97214 0
M  V30 51013 C 4743.39 1.02538 3.3119 0
M  V30 51014 C 4742.45 2.20809 3.6816 0
M  V30 51015 C 4741.68 1.9709 4.95975 0
M  V30 51016 O 4741.91 0.927019 5.62817 0
M  V30 51017 O 4740.84 2.83931 5.30723 0
M  V30 51018 H 4744.67 2.23544 2.05576 0
M  V30 51019 H 4742.25 1.14311 0.961948 0
M  V30 51020 H 4744.13 0.904171 4.11586 0
M  V30 51021 H 4742.81 0.0946526 3.23562 0
M  V30 51022 H 4741.72 2.38488 2.88226 0
M  V30 51023 H 4743.05 3.12257 3.80469 0
M  V30 51024 N 4744.7 -1.04686 1.17807 0
M  V30 51025 C 4745.95 -1.77172 0.963993 0
M  V30 51026 C 4746.26 -1.88889 -0.507949 0
M  V30 51027 O 4747.47 -2.58167 -0.840374 0
M  V30 51028 C 4745.92 -3.18512 1.67566 0
M  V30 51029 C 4745.53 -3.14908 3.18648 0
M  V30 51030 C 4747.28 -3.95419 1.54416 0
M  V30 51031 C 4745.18 -4.51067 3.82482 0
M  V30 51032 H 4744.11 -0.664104 0.357046 0
M  V30 51033 H 4746.76 -1.17298 1.41115 0
M  V30 51034 H 4745.15 -3.78743 1.15626 0
M  V30 51035 H 4746.32 -2.64164 3.77563 0
M  V30 51036 H 4744.64 -2.515 3.31868 0
M  V30 51037 H 4747.23 -4.96099 1.99473 0
M  V30 51038 H 4747.58 -4.13341 0.495474 0
M  V30 51039 H 4748.11 -3.41747 2.03602 0
M  V30 51040 H 4744.85 -4.3835 4.8737 0
M  V30 51041 H 4744.37 -5.0194 3.28354 0
M  V30 51042 H 4746.05 -5.19997 3.84984 0
M  V30 51043 N 4746.18 -0.979116 -1.23495 0
M  V30 51044 C 4747.59 -0.684452 -1.73701 0
M  V30 51045 C 4747.94 0.799385 -1.79177 0
M  V30 51046 O 4747.07 1.62526 -1.42878 0
M  V30 51047 C 4747.66 -1.23575 -3.15459 0
M  V30 51048 C 4746.22 -0.990757 -3.63127 0
M  V30 51049 C 4745.37 -1.36425 -2.4142 0
M  V30 51050 H 4748.32 -1.15311 -1.09037 0
M  V30 51051 H 4748.34 -0.607549 -3.75618 0
M  V30 51052 H 4747.85 -2.31572 -3.11442 0
M  V30 51053 H 4745.95 0.0731826 -3.72528 0
M  V30 51054 H 4746.07 -1.64443 -4.49995 0
M  V30 51055 H 4744.43 -0.782701 -2.42375 0
M  V30 51056 H 4745.21 -2.45396 -2.40075 0
M  V30 51057 N 4747.66 1.38577 -0.75061 0
M  V30 51058 C 4748.61 2.32339 -0.110244 0
M  V30 51059 C 4749.6 1.53867 0.70862 0
M  V30 51060 O 4750.81 1.69419 0.608053 0
M  V30 51061 H 4747.18 0.751811 -0.0168539 0
M  V30 51062 H 4749.15 2.83956 -0.917152 0
M  V30 51063 C 4747.9 3.39045 0.770947 0
M  V30 51064 H 4747.22 3.99518 0.150233 0
M  V30 51065 H 4748.66 4.07065 1.18635 0
M  V30 51066 C 4747.12 2.77372 1.91224 0
M  V30 51067 O 4747.65 2.66445 3.00616 0
M  V30 51068 N 4745.86 2.35225 1.70638 0
M  V30 51069 H 4745.41 2.44313 0.816644 0
M  V30 51070 H 4745.36 1.94303 2.47172 0
M  V30 51071 N 4749.14 0.499451 1.49477 0
M  V30 51072 C 4750.38 -0.0376872 2.03365 0
M  V30 51073 C 4750.74 -1.34835 1.37249 0
M  V30 51074 O 4750.03 -1.84998 0.498612 0
M  V30 51075 C 4750.22 -0.248299 3.56536 0
M  V30 51076 C 4750.05 1.0404 4.37499 0
M  V30 51077 C 4748.82 1.59176 4.79574 0
M  V30 51078 C 4751.02 1.94327 4.76174 0
M  V30 51079 N 4749 2.82653 5.44959 0
M  V30 51080 C 4750.37 3.02383 5.41262 0
M  V30 51081 C 4752.43 1.95024 4.58116 0
M  V30 51082 C 4751.13 4.11161 5.90202 0
M  V30 51083 C 4753.16 3.02776 5.08016 0
M  V30 51084 C 4752.52 4.09551 5.73103 0
M  V30 51085 H 4748.62 0.0269505 0.781535 0
M  V30 51086 H 4751.2 0.673965 1.82663 0
M  V30 51087 H 4749.37 -0.929007 3.77126 0
M  V30 51088 H 4751.11 -0.782306 3.97067 0
M  V30 51089 H 4747.86 1.13712 4.59746 0
M  V30 51090 H 4748.28 3.45436 5.82239 0
M  V30 51091 H 4752.93 1.1378 4.07203 0
M  V30 51092 H 4750.64 4.93203 6.40138 0
M  V30 51093 H 4754.23 3.04333 4.95856 0
M  V30 51094 H 4753.11 4.91555 6.11018 0
M  V30 51095 N 4750.61 -1.55865 0.233218 0
M  V30 51096 C 4751.86 -1.98604 -0.395304 0
M  V30 51097 C 4752.19 -1.12111 -1.58938 0
M  V30 51098 O 4751.44 -0.168724 -1.94971 0
M  V30 51099 C 4751.74 -3.46859 -0.861602 0
M  V30 51100 C 4751.41 -4.50347 0.223224 0
M  V30 51101 C 4750.07 -4.78369 0.521206 0
M  V30 51102 C 4752.42 -5.12352 0.956304 0
M  V30 51103 C 4749.75 -5.65674 1.55658 0
M  V30 51104 C 4752.1 -6.00779 1.9811 0
M  V30 51105 C 4750.77 -6.2714 2.28587 0
M  V30 51106 H 4750.04 -0.726744 -0.144652 0
M  V30 51107 H 4752.68 -1.8849 0.338181 0
M  V30 51108 H 4750.99 -3.54235 -1.67405 0
M  V30 51109 H 4752.69 -3.77307 -1.35795 0
M  V30 51110 H 4749.28 -4.28596 -0.0191727 0
M  V30 51111 H 4753.46 -4.90762 0.739339 0
M  V30 51112 H 4748.72 -5.84358 1.7982 0
M  V30 51113 H 4752.89 -6.47871 2.55413 0
M  V30 51114 H 4750.52 -6.94586 3.08956 0
M  V30 51115 N 4752.09 0.0400529 -1.57549 0
M  V30 51116 C 4753.05 1.02864 -2.04821 0
M  V30 51117 C 4754.05 1.29705 -0.950434 0
M  V30 51118 O 4755.24 1.24893 -1.21439 0
M  V30 51119 C 4752.38 2.36434 -2.45584 0
M  V30 51120 H 4753.57 0.620527 -2.9341 0
M  V30 51121 H 4751.12 0.286613 -1.5365 0
M  V30 51122 H 4751.86 2.82015 -1.60118 0
M  V30 51123 H 4751.64 2.18285 -3.25721 0
M  V30 51124 H 4753.13 3.07431 -2.82623 0
M  V30 51125 N 4753.57 1.54478 0.312115 0
M  V30 51126 C 4754.79 1.77529 1.07229 0
M  V30 51127 C 4755.22 0.527838 1.80542 0
M  V30 51128 O 4754.58 -0.521149 1.73648 0
M  V30 51129 C 4754.63 2.97543 2.03717 0
M  V30 51130 O 4753.73 2.69889 3.11823 0
M  V30 51131 H 4753.07 0.587931 0.308599 0
M  V30 51132 H 4755.6 2.01533 0.352922 0
M  V30 51133 H 4755.61 3.25207 2.46383 0
M  V30 51134 H 4754.29 3.88001 1.4976 0
M  V30 51135 H 4752.86 2.53209 2.73751 0
M  V30 51136 N 4755.05 -0.574758 1.46746 0
M  V30 51137 C 4756.32 -1.33515 1.42944 0
M  V30 51138 C 4756.7 -2.10775 0.117083 0
M  V30 51139 O 4756.05 -2.09969 -0.9014 0
M  V30 51140 C 4756.26 -2.25446 2.66411 0
M  V30 51141 C 4757.61 -2.87024 3.12893 0
M  V30 51142 O 4758.63 -2.35756 2.67016 0
M  V30 51143 O 4757.49 -3.80165 3.92603 0
M  V30 51144 H 4754.59 -0.600298 0.568833 0
M  V30 51145 H 4757.13 -0.595115 1.58923 0
M  V30 51146 H 4755.91 -1.67839 3.53477 0
M  V30 51147 H 4755.53 -3.06776 2.52931 0
M  V30 51148 N 4756.53 -1.34584 -0.820054 0
M  V30 51149 C 4757.8 -1.1768 -1.56239 0
M  V30 51150 C 4758.18 0.249467 -2.09621 0
M  V30 51151 O 4757.53 1.25119 -1.912 0
M  V30 51152 C 4757.74 -2.23373 -2.68152 0
M  V30 51153 C 4759.09 -2.58497 -3.36845 0
M  V30 51154 O 4760.11 -2.22184 -2.78411 0
M  V30 51155 O 4758.97 -3.20884 -4.42375 0
M  V30 51156 H 4756.07 -0.456357 -0.689686 0
M  V30 51157 H 4758.61 -1.46225 -0.861179 0
M  V30 51158 H 4757.38 -3.19095 -2.26482 0
M  V30 51159 H 4757.01 -1.96022 -3.45921 0
M  V30 51160 N 4758 1.0406 -1.18361 0
M  V30 51161 C 4759.41 1.58715 -0.983176 0
M  V30 51162 C 4759.77 1.90558 0.467126 0
M  V30 51163 O 4758.89 1.69566 1.34448 0
M  V30 51164 C 4759.49 2.88373 -1.77838 0
M  V30 51165 C 4758.04 3.39645 -1.6223 0
M  V30 51166 C 4757.19 2.13229 -1.77282 0
M  V30 51167 H 4760.14 0.867312 -1.32904 0
M  V30 51168 H 4760.16 3.58768 -1.2675 0
M  V30 51169 H 4759.68 2.65166 -2.83388 0
M  V30 51170 H 4757.78 3.67864 -0.592165 0
M  V30 51171 H 4757.89 4.13467 -2.42038 0
M  V30 51172 H 4756.25 2.24538 -1.20229 0
M  V30 51173 H 4757.04 1.92477 -2.84266 0
M  V30 51174 N 4759.48 0.985651 1.22974 0
M  V30 51175 C 4760.73 0.658427 1.91814 0
M  V30 51176 C 4761.06 -0.80663 1.76655 0
M  V30 51177 O 4760.34 -1.58248 1.13084 0
M  V30 51178 C 4760.62 1.05612 3.44265 0
M  V30 51179 C 4760.47 2.57919 3.68507 0
M  V30 51180 C 4761.79 0.603934 4.35937 0
M  V30 51181 H 4758.91 0.240674 0.696595 0
M  V30 51182 H 4761.55 1.22788 1.44994 0
M  V30 51183 H 4759.7 0.57158 3.84272 0
M  V30 51184 H 4761.37 3.13988 3.37949 0
M  V30 51185 H 4759.62 3.00316 3.13038 0
M  V30 51186 H 4760.29 2.80796 4.75245 0
M  V30 51187 H 4762.76 1.02001 4.03404 0
M  V30 51188 H 4761.64 0.910573 5.41295 0
M  V30 51189 H 4761.9 -0.495607 4.39313 0
M  V30 51190 N 4760.96 -1.38177 0.757949 0
M  V30 51191 C 4762.21 -2.00018 0.316055 0
M  V30 51192 C 4762.54 -1.60166 -1.10349 0
M  V30 51193 O 4761.79 -0.832702 -1.771 0
M  V30 51194 C 4762.09 -3.55251 0.391343 0
M  V30 51195 C 4761.76 -4.14828 1.76717 0
M  V30 51196 C 4760.42 -4.30813 2.14368 0
M  V30 51197 C 4762.77 -4.47648 2.66947 0
M  V30 51198 C 4760.1 -4.76916 3.41713 0
M  V30 51199 C 4762.45 -4.9517 3.93687 0
M  V30 51200 C 4761.11 -5.09362 4.31401 0
M  V30 51201 H 4760.38 -0.731919 0.115653 0
M  V30 51202 H 4763.03 -1.65158 0.969281 0
M  V30 51203 H 4761.34 -3.90274 -0.345443 0
M  V30 51204 H 4763.03 -4.00988 0.030946 0
M  V30 51205 H 4759.62 -4.02803 1.46449 0
M  V30 51206 H 4763.81 -4.34896 2.39122 0
M  V30 51207 H 4759.06 -4.8609 3.70846 0
M  V30 51208 H 4763.24 -5.19535 4.63742 0
M  V30 51209 H 4760.86 -5.44846 5.30138 0
M  V30 51210 N 4762.44 -0.507371 -1.4921 0
M  V30 51211 C 4763.37 0.256858 -2.32083 0
M  V30 51212 C 4764.35 0.956559 -1.40655 0
M  V30 51213 O 4765.53 0.946729 -1.6956 0
M  V30 51214 C 4762.66 1.31791 -3.21323 0
M  V30 51215 C 4761.62 0.737707 -4.21594 0
M  V30 51216 C 4760.94 1.89975 -4.99814 0
M  V30 51217 C 4762.24 -0.275509 -5.21573 0
M  V30 51218 H 4763.94 -0.434902 -2.96225 0
M  V30 51219 H 4761.48 -0.210596 -1.42452 0
M  V30 51220 H 4763.44 1.86032 -3.78114 0
M  V30 51221 H 4762.16 2.03894 -2.55137 0
M  V30 51222 H 4760.82 0.216997 -3.65957 0
M  V30 51223 H 4760.47 2.60862 -4.3007 0
M  V30 51224 H 4760.17 1.51757 -5.67665 0
M  V30 51225 H 4761.69 2.44637 -5.59451 0
M  V30 51226 H 4763.11 0.178992 -5.73021 0
M  V30 51227 H 4761.5 -0.573859 -5.9735 0
M  V30 51228 H 4762.57 -1.1892 -4.70092 0
M  V30 51229 N 4763.92 1.55739 -0.241481 0
M  V30 51230 C 4764.83 2.24793 0.671226 0
M  V30 51231 C 4765.84 1.26221 1.19768 0
M  V30 51232 O 4767.02 1.59083 1.23509 0
M  V30 51233 C 4764.08 2.92973 1.85386 0
M  V30 51234 C 4763.14 4.0694 1.36742 0
M  V30 51235 C 4762.38 4.7186 2.49368 0
M  V30 51236 O 4762.6 4.35836 3.67972 0
M  V30 51237 O 4761.53 5.60475 2.19434 0
M  V30 51238 H 4765.36 3.0349 0.11286 0
M  V30 51239 H 4762.95 1.49397 -0.0102038 0
M  V30 51240 H 4764.83 3.35936 2.54411 0
M  V30 51241 H 4763.5 2.17219 2.39995 0
M  V30 51242 H 4762.41 3.68505 0.644596 0
M  V30 51243 H 4763.74 4.84495 0.867476 0
M  V30 51244 N 4765.39 -0.0316971 1.57568 0
M  V30 51245 C 4766.64 -0.724109 1.89432 0
M  V30 51246 C 4766.97 -1.75146 0.838897 0
M  V30 51247 O 4766.25 -1.93949 -0.146354 0
M  V30 51248 C 4766.53 -1.39604 3.31938 0
M  V30 51249 C 4766.38 -0.38238 4.48172 0
M  V30 51250 C 4767.7 -2.33071 3.73317 0
M  V30 51251 H 4764.82 -0.261773 0.688944 0
M  V30 51252 H 4767.46 0.0130838 1.89995 0
M  V30 51253 H 4765.61 -2.02439 3.31588 0
M  V30 51254 H 4767.29 0.243851 4.60655 0
M  V30 51255 H 4765.53 0.298592 4.32771 0
M  V30 51256 H 4766.2 -0.890953 5.44762 0
M  V30 51257 H 4768.68 -1.80282 3.75017 0
M  V30 51258 H 4767.55 -2.77067 4.73841 0
M  V30 51259 H 4767.81 -3.19632 3.05431 0
M  V30 51260 N 4766.87 -1.54642 -0.303919 0
M  V30 51261 C 4767.84 -1.84651 -1.35782 0
M  V30 51262 C 4768.84 -0.719251 -1.43817 0
M  V30 51263 O 4770.03 -0.987541 -1.43504 0
M  V30 51264 C 4767.16 -2.02417 -2.74299 0
M  V30 51265 H 4768.35 -2.78833 -1.10419 0
M  V30 51266 H 4765.9 -1.46659 -0.540436 0
M  V30 51267 H 4766.64 -1.10513 -3.04889 0
M  V30 51268 H 4766.42 -2.84463 -2.69858 0
M  V30 51269 H 4767.91 -2.27014 -3.50506 0
M  V30 51270 N 4768.35 0.566968 -1.47048 0
M  V30 51271 C 4769.28 1.68476 -1.61673 0
M  V30 51272 C 4770.26 1.63579 -0.466476 0
M  V30 51273 O 4771.45 1.81352 -0.694638 0
M  V30 51274 C 4768.58 3.07119 -1.62158 0
M  V30 51275 C 4767.53 3.26857 -2.76312 0
M  V30 51276 C 4766.86 4.66187 -2.61866 0
M  V30 51277 C 4768.16 3.13171 -4.17997 0
M  V30 51278 H 4769.85 1.56493 -2.55246 0
M  V30 51279 H 4767.4 0.751443 -1.22839 0
M  V30 51280 H 4769.35 3.85154 -1.70981 0
M  V30 51281 H 4768.07 3.20038 -0.651399 0
M  V30 51282 H 4766.73 2.51227 -2.66984 0
M  V30 51283 H 4766.38 4.75893 -1.62896 0
M  V30 51284 H 4766.08 4.80344 -3.38442 0
M  V30 51285 H 4767.6 5.4637 -2.72603 0
M  V30 51286 H 4769.02 3.81033 -4.28353 0
M  V30 51287 H 4767.42 3.38842 -4.95284 0
M  V30 51288 H 4768.49 2.10042 -4.37048 0
M  V30 51289 N 4769.83 1.35017 0.812906 0
M  V30 51290 C 4770.78 1.27419 1.9244 0
M  V30 51291 C 4771.75 0.147388 1.65445 0
M  V30 51292 O 4772.93 0.33004 1.87924 0
M  V30 51293 C 4770.07 1.04569 3.28876 0
M  V30 51294 C 4769.18 2.26114 3.68098 0
M  V30 51295 C 4768.32 1.96466 4.93533 0
M  V30 51296 C 4767.36 3.14099 5.25365 0
M  V30 51297 N 4766.49 2.84269 6.41978 0
M  V30 51298 H 4771.33 2.2247 1.9827 0
M  V30 51299 H 4768.87 1.10596 0.969894 0
M  V30 51300 H 4770.83 0.893556 4.07519 0
M  V30 51301 H 4769.46 0.131832 3.22531 0
M  V30 51302 H 4768.51 2.52214 2.84767 0
M  V30 51303 H 4769.82 3.13972 3.87586 0
M  V30 51304 H 4768.98 1.78046 5.79987 0
M  V30 51305 H 4767.72 1.05884 4.76067 0
M  V30 51306 H 4766.72 3.33104 4.37403 0
M  V30 51307 H 4767.95 4.05475 5.44763 0
M  V30 51308 H 4765.89 1.96274 6.25949 0
M  V30 51309 H 4765.81 3.6566 6.61686 0
M  V30 51310 H 4767.08 2.69376 7.31476 0
M  V30 51311 N 4771.31 -1.03431 1.18911 0
M  V30 51312 C 4772.25 -2.137 0.918428 0
M  V30 51313 C 4773.25 -1.68948 -0.123708 0
M  V30 51314 O 4774.45 -1.79983 0.0250334 0
M  V30 51315 H 4770.83 -0.698102 0.279566 0
M  V30 51316 H 4772.8 -2.33724 1.85514 0
M  V30 51317 C 4771.55 -3.44541 0.467653 0
M  V30 51318 H 4770.87 -3.7939 1.26108 0
M  V30 51319 H 4772.31 -4.22811 0.317312 0
M  V30 51320 C 4770.77 -3.26832 -0.817473 0
M  V30 51321 O 4771.3 -3.54981 -1.88019 0
M  V30 51322 N 4769.51 -2.80142 -0.772579 0
M  V30 51323 H 4769.05 -2.57434 0.0924788 0
M  V30 51324 H 4769.01 -2.68674 -1.63284 0
M  V30 51325 N 4772.78 -0.992159 -1.2245 0
M  V30 51326 C 4774.06 -0.583574 -1.86692 0
M  V30 51327 C 4774.44 0.939133 -1.8906 0
M  V30 51328 O 4773.79 1.82076 -1.3806 0
M  V30 51329 C 4774 -1.20315 -3.27605 0
M  V30 51330 C 4775.35 -1.30322 -4.04106 0
M  V30 51331 O 4776.37 -1.15749 -3.36869 0
M  V30 51332 O 4775.23 -1.53634 -5.24461 0
M  V30 51333 H 4772.32 -0.198158 -0.802909 0
M  V30 51334 H 4774.87 -1.08799 -1.30234 0
M  V30 51335 H 4773.64 -2.24472 -3.20512 0
M  V30 51336 H 4773.27 -0.684282 -3.91667 0
M  V30 51337 N 4774.26 1.37773 -0.765266 0
M  V30 51338 C 4775.21 2.30342 -0.145355 0
M  V30 51339 C 4776.18 1.50772 0.696918 0
M  V30 51340 O 4777.36 1.79364 0.650626 0
M  V30 51341 C 4774.5 3.3723 0.732821 0
M  V30 51342 C 4773.62 4.31818 -0.125351 0
M  V30 51343 C 4772.75 5.2578 0.756922 0
M  V30 51344 C 4771.79 6.12011 -0.104178 0
M  V30 51345 N 4770.93 6.98235 0.735708 0
M  V30 51346 H 4775.77 2.82776 -0.940295 0
M  V30 51347 H 4773.31 1.39209 -0.475304 0
M  V30 51348 H 4775.26 3.97822 1.25672 0
M  V30 51349 H 4773.89 2.86176 1.49343 0
M  V30 51350 H 4772.95 3.72587 -0.766996 0
M  V30 51351 H 4774.26 4.92507 -0.789856 0
M  V30 51352 H 4773.41 5.91545 1.34755 0
M  V30 51353 H 4772.15 4.65486 1.45513 0
M  V30 51354 H 4771.16 5.4523 -0.707389 0
M  V30 51355 H 4772.38 6.74376 -0.799618 0
M  V30 51356 H 4770.33 6.40477 1.41865 0
M  V30 51357 H 4770.24 7.55891 0.128359 0
M  V30 51358 H 4771.51 7.68398 1.31094 0
M  V30 51359 N 4775.74 0.515277 1.48938 0
M  V30 51360 C 4776.97 -0.0205009 2.0659 0
M  V30 51361 C 4777.38 -1.30059 1.37409 0
M  V30 51362 O 4776.72 -1.78085 0.450695 0
M  V30 51363 C 4776.78 -0.329998 3.57982 0
M  V30 51364 C 4776.45 0.854453 4.48941 0
M  V30 51365 C 4777.45 1.74887 4.89602 0
M  V30 51366 C 4775.13 1.05729 4.91046 0
M  V30 51367 C 4777.12 2.83016 5.71122 0
M  V30 51368 C 4774.81 2.14174 5.72339 0
M  V30 51369 C 4775.81 3.02651 6.12284 0
M  V30 51370 O 4775.5 4.09223 6.91948 0
M  V30 51371 H 4775.23 0.0237071 0.675584 0
M  V30 51372 H 4777.78 0.716024 1.92516 0
M  V30 51373 H 4776.01 -1.12031 3.70116 0
M  V30 51374 H 4777.7 -0.806093 3.97815 0
M  V30 51375 H 4778.47 1.60404 4.57707 0
M  V30 51376 H 4774.35 0.37795 4.59448 0
M  V30 51377 H 4777.89 3.52104 6.0222 0
M  V30 51378 H 4773.79 2.28647 6.03648 0
M  V30 51379 H 4774.56 4.06751 7.10279 0
M  V30 51380 N 4777.22 -1.55609 0.249737 0
M  V30 51381 C 4778.45 -2.03118 -0.377732 0
M  V30 51382 C 4778.86 -1.12827 -1.51877 0
M  V30 51383 O 4778.2 -0.135685 -1.83198 0
M  V30 51384 C 4778.26 -3.46869 -0.944571 0
M  V30 51385 C 4777.93 -4.56954 0.0645865 0
M  V30 51386 C 4778.92 -5.12482 0.875137 0
M  V30 51387 C 4776.61 -5.01935 0.191497 0
M  V30 51388 C 4778.6 -6.11485 1.79903 0
M  V30 51389 C 4776.29 -6.0077 1.11889 0
M  V30 51390 C 4777.29 -6.55423 1.92118 0
M  V30 51391 O 4776.98 -7.5233 2.83293 0
M  V30 51392 H 4776.71 -0.669492 -0.0935725 0
M  V30 51393 H 4779.26 -2.02003 0.372037 0
M  V30 51394 H 4777.49 -3.45142 -1.74395 0
M  V30 51395 H 4779.18 -3.77861 -1.48242 0
M  V30 51396 H 4779.95 -4.78561 0.787691 0
M  V30 51397 H 4775.83 -4.59056 -0.422911 0
M  V30 51398 H 4779.37 -6.5407 2.42566 0
M  V30 51399 H 4775.27 -6.3411 1.20725 0
M  V30 51400 H 4776.03 -7.69956 2.77687 0
M  V30 51401 N 4778.7 0.0233405 -1.57583 0
M  V30 51402 C 4779.63 1.02155 -2.09968 0
M  V30 51403 C 4780.61 1.37347 -1.00349 0
M  V30 51404 O 4781.79 1.4613 -1.27904 0
M  V30 51405 C 4778.92 2.32072 -2.58379 0
M  V30 51406 C 4777.88 2.11107 -3.72314 0
M  V30 51407 C 4777.2 3.46834 -4.06953 0
M  V30 51408 C 4778.5 1.49258 -5.00519 0
M  V30 51409 H 4780.2 0.585454 -2.9362 0
M  V30 51410 H 4777.74 0.280169 -1.41248 0
M  V30 51411 H 4779.7 3.02238 -2.93649 0
M  V30 51412 H 4778.42 2.77752 -1.71818 0
M  V30 51413 H 4777.08 1.43372 -3.37402 0
M  V30 51414 H 4776.73 3.90173 -3.17449 0
M  V30 51415 H 4776.43 3.33629 -4.83699 0
M  V30 51416 H 4777.95 4.18353 -4.44762 0
M  V30 51417 H 4779.37 2.09349 -5.33709 0
M  V30 51418 H 4777.76 1.46612 -5.81915 0
M  V30 51419 H 4778.83 0.459048 -4.82722 0
M  V30 51420 N 4780.18 1.54801 0.295713 0
M  V30 51421 C 4781.42 1.74591 1.03178 0
M  V30 51422 C 4781.75 0.533028 1.86742 0
M  V30 51423 O 4781.03 -0.469805 1.88741 0
M  V30 51424 C 4781.31 3.03798 1.93336 0
M  V30 51425 C 4781.17 4.35396 1.12918 0
M  V30 51426 C 4782.48 3.28902 2.92423 0
M  V30 51427 H 4779.6 0.635234 0.373693 0
M  V30 51428 H 4782.25 1.8752 0.305994 0
M  V30 51429 H 4780.4 2.92906 2.55222 0
M  V30 51430 H 4782.07 4.58213 0.532782 0
M  V30 51431 H 4780.31 4.31643 0.432016 0
M  V30 51432 H 4780.98 5.2208 1.79266 0
M  V30 51433 H 4783.46 3.39438 2.40668 0
M  V30 51434 H 4782.33 4.20615 3.52667 0
M  V30 51435 H 4782.59 2.4745 3.66362 0
M  V30 51436 N 4781.65 -0.559161 1.47347 0
M  V30 51437 C 4782.9 -1.31382 1.53568 0
M  V30 51438 C 4783.22 -1.93985 0.198746 0
M  V30 51439 O 4782.49 -1.79827 -0.777104 0
M  V30 51440 H 4781.07 -0.487881 0.565669 0
M  V30 51441 H 4783.73 -0.653085 1.83632 0
M  V30 51442 H 4782.83 -2.10836 2.30118 0
M  V30 51443 N 4783.13 -1.35446 -0.805734 0
M  V30 51444 C 4784.41 -1.19331 -1.54982 0
M  V30 51445 C 4784.79 0.22722 -2.09874 0
M  V30 51446 O 4784.14 1.23084 -1.92517 0
M  V30 51447 C 4784.35 -2.26205 -2.65767 0
M  V30 51448 C 4785.69 -2.62055 -3.34084 0
M  V30 51449 O 4786.72 -2.25125 -2.76038 0
M  V30 51450 O 4785.58 -3.25558 -4.38947 0
M  V30 51451 H 4782.67 -0.463647 -0.684807 0
M  V30 51452 H 4785.22 -1.4713 -0.845622 0
M  V30 51453 H 4783.99 -3.21479 -2.23085 0
M  V30 51454 H 4783.61 -1.99679 -3.43822 0
M  V30 51455 N 4784.61 1.02799 -1.19458 0
M  V30 51456 C 4785.86 1.76474 -0.999233 0
M  V30 51457 C 4786.19 1.88458 0.468762 0
M  V30 51458 O 4785.46 1.40203 1.34809 0
M  V30 51459 C 4785.75 3.19038 -1.66993 0
M  V30 51460 C 4785.6 3.1492 -3.21162 0
M  V30 51461 C 4786.92 4.17451 -1.39364 0
M  V30 51462 H 4784.04 0.640602 -0.364416 0
M  V30 51463 H 4786.68 1.2 -1.4731 0
M  V30 51464 H 4784.83 3.67258 -1.26703 0
M  V30 51465 H 4786.5 2.74592 -3.70671 0
M  V30 51466 H 4784.74 2.52612 -3.5266 0
M  V30 51467 H 4785.42 4.15647 -3.63237 0
M  V30 51468 H 4787.89 3.77836 -1.74296 0
M  V30 51469 H 4786.77 5.15393 -1.88841 0
M  V30 51470 H 4787.03 4.40948 -0.318968 0
M  V30 51471 N 4786.09 0.998639 1.21922 0
M  V30 51472 C 4787.34 0.676392 1.90445 0
M  V30 51473 C 4787.66 -0.794657 1.78074 0
M  V30 51474 O 4786.93 -1.57006 1.17158 0
M  V30 51475 H 4785.51 0.24719 0.704916 0
M  V30 51476 H 4788.17 1.26638 1.48151 0
M  V30 51477 H 4787.26 0.943963 2.97482 0
M  V30 51478 N 4787.57 -1.37365 0.772562 0
M  V30 51479 C 4788.48 -2.34053 0.160163 0
M  V30 51480 C 4789.49 -1.60219 -0.678671 0
M  V30 51481 O 4790.67 -1.92305 -0.598402 0
M  V30 51482 C 4787.73 -3.39393 -0.708062 0
M  V30 51483 C 4786.79 -4.29047 0.147323 0
M  V30 51484 C 4786.03 -5.29356 -0.679558 0
M  V30 51485 O 4786.25 -5.37236 -1.91659 0
M  V30 51486 O 4785.18 -6.01835 -0.0883328 0
M  V30 51487 H 4789.01 -2.88156 0.959154 0
M  V30 51488 H 4786.59 -1.39541 0.533734 0
M  V30 51489 H 4788.48 -4.03843 -1.2037 0
M  V30 51490 H 4787.15 -2.87616 -1.48523 0
M  V30 51491 H 4786.06 -3.67694 0.689335 0
M  V30 51492 H 4787.39 -4.84131 0.887593 0
M  V30 51493 N 4789.04 -0.523168 -1.48663 0
M  V30 51494 C 4789.97 0.232228 -2.32342 0
M  V30 51495 C 4790.95 0.941587 -1.41662 0
M  V30 51496 O 4792.14 0.928691 -1.70555 0
M  V30 51497 C 4789.27 1.28375 -3.22703 0
M  V30 51498 C 4788.22 0.692949 -4.22353 0
M  V30 51499 C 4787.55 1.84663 -5.01801 0
M  V30 51500 C 4788.85 -0.330813 -5.21251 0
M  V30 51501 H 4790.54 -0.466296 -2.95747 0
M  V30 51502 H 4788.09 -0.225693 -1.4222 0
M  V30 51503 H 4790.04 1.82011 -3.80066 0
M  V30 51504 H 4788.77 2.01177 -2.57285 0
M  V30 51505 H 4787.43 0.17817 -3.66167 0
M  V30 51506 H 4787.07 2.56286 -4.32813 0
M  V30 51507 H 4786.77 1.45727 -5.69243 0
M  V30 51508 H 4788.3 2.3869 -5.62014 0
M  V30 51509 H 4789.71 0.118205 -5.73178 0
M  V30 51510 H 4788.11 -0.637184 -5.96708 0
M  V30 51511 H 4789.18 -1.23899 -4.68804 0
M  V30 51512 N 4790.52 1.55474 -0.257986 0
M  V30 51513 C 4791.47 2.21839 0.636861 0
M  V30 51514 C 4792.44 1.186 1.1629 0
M  V30 51515 O 4793.62 1.47085 1.21534 0
M  V30 51516 C 4790.76 2.93016 1.82306 0
M  V30 51517 C 4789.88 4.10936 1.33251 0
M  V30 51518 C 4789.01 4.698 2.47915 0
M  V30 51519 C 4788.05 5.79947 1.95776 0
M  V30 51520 N 4787.19 6.32946 3.03848 0
M  V30 51521 H 4792.03 2.97931 0.0642544 0
M  V30 51522 H 4789.57 1.47086 0.0199514 0
M  V30 51523 H 4791.52 3.32489 2.52006 0
M  V30 51524 H 4790.15 2.19379 2.36797 0
M  V30 51525 H 4789.21 3.76701 0.529178 0
M  V30 51526 H 4790.52 4.9042 0.910482 0
M  V30 51527 H 4789.67 5.11903 3.25638 0
M  V30 51528 H 4788.41 3.89556 2.93424 0
M  V30 51529 H 4787.42 5.3731 1.16527 0
M  V30 51530 H 4788.64 6.62049 1.51223 0
M  V30 51531 H 4786.59 5.55603 3.48771 0
M  V30 51532 H 4786.5 7.07654 2.6601 0
M  V30 51533 H 4787.77 6.79709 3.81597 0
M  V30 51534 N 4792 -0.0149831 1.57593 0
M  V30 51535 C 4793.28 -0.739136 1.81097 0
M  V30 51536 C 4793.66 -1.92814 0.859412 0
M  V30 51537 O 4793.01 -2.28301 -0.0952817 0
M  V30 51538 C 4793.22 -1.15896 3.29195 0
M  V30 51539 C 4794.56 -1.56904 3.94546 0
M  V30 51540 O 4795.59 -1.25316 3.33428 0
M  V30 51541 O 4794.45 -2.15586 5.0218 0
M  V30 51542 H 4791.54 -0.358604 0.745206 0
M  V30 51543 H 4794.09 0.00932121 1.69697 0
M  V30 51544 H 4792.86 -0.310784 3.90064 0
M  V30 51545 H 4792.48 -1.96699 3.45536 0
M  V30 51546 N 4793.48 -1.54955 -0.2875 0
M  V30 51547 C 4794.41 -1.83229 -1.37694 0
M  V30 51548 C 4795.42 -0.71595 -1.46212 0
M  V30 51549 O 4796.61 -0.993617 -1.48289 0
M  V30 51550 C 4793.71 -1.96732 -2.75952 0
M  V30 51551 C 4792.89 -3.27263 -2.90203 0
M  V30 51552 C 4791.94 -3.31012 -4.09044 0
M  V30 51553 O 4790.97 -4.04471 -4.00489 0
M  V30 51554 N 4792.17 -2.57371 -5.20327 0
M  V30 51555 H 4794.94 -2.77258 -1.1379 0
M  V30 51556 H 4792.5 -1.54695 -0.477598 0
M  V30 51557 H 4794.49 -1.96627 -3.53723 0
M  V30 51558 H 4793.06 -1.09637 -2.92743 0
M  V30 51559 H 4792.28 -3.40029 -1.99435 0
M  V30 51560 H 4793.57 -4.13376 -2.96645 0
M  V30 51561 H 4792.97 -1.97345 -5.30162 0
M  V30 51562 H 4791.52 -2.63005 -5.96382 0
M  V30 51563 N 4794.96 0.551339 -1.47641 0
M  V30 51564 C 4795.92 1.64001 -1.60113 0
M  V30 51565 C 4796.92 1.53599 -0.475814 0
M  V30 51566 O 4798.11 1.57652 -0.741044 0
M  V30 51567 C 4795.24 3.03564 -1.55118 0
M  V30 51568 H 4796.43 1.54291 -2.57166 0
M  V30 51569 H 4793.99 0.771728 -1.35919 0
M  V30 51570 H 4794.72 3.18802 -0.594632 0
M  V30 51571 H 4794.51 3.12523 -2.36794 0
M  V30 51572 H 4796 3.82756 -1.66996 0
M  V30 51573 N 4796.43 1.35872 0.79854 0
M  V30 51574 C 4797.38 1.29453 1.91077 0
M  V30 51575 C 4798.35 0.164928 1.65279 0
M  V30 51576 O 4799.54 0.349954 1.87563 0
M  V30 51577 C 4796.68 1.08052 3.27748 0
M  V30 51578 C 4795.79 2.30006 3.65679 0
M  V30 51579 C 4794.92 2.0169 4.91421 0
M  V30 51580 C 4793.96 3.19654 5.22004 0
M  V30 51581 N 4793.1 2.91062 6.38927 0
M  V30 51582 H 4797.94 2.2456 1.959 0
M  V30 51583 H 4795.48 1.11618 0.958109 0
M  V30 51584 H 4797.44 0.936729 4.06548 0
M  V30 51585 H 4796.07 0.166033 3.22373 0
M  V30 51586 H 4795.12 2.55221 2.82076 0
M  V30 51587 H 4796.43 3.18065 3.84234 0
M  V30 51588 H 4795.58 1.84188 5.78065 0
M  V30 51589 H 4794.32 1.10927 4.74917 0
M  V30 51590 H 4793.33 3.37725 4.33846 0
M  V30 51591 H 4794.55 4.1123 5.40432 0
M  V30 51592 H 4792.5 2.02902 6.23832 0
M  V30 51593 H 4792.42 3.72658 6.57771 0
M  V30 51594 H 4793.68 2.77119 7.28578 0
M  V30 51595 N 4797.91 -1.02164 1.20001 0
M  V30 51596 C 4798.88 -2.08761 0.946113 0
M  V30 51597 C 4799.88 -1.60619 -0.0763281 0
M  V30 51598 O 4801.07 -1.73471 0.159196 0
M  V30 51599 C 4798.2 -3.38261 0.423374 0
M  V30 51600 H 4799.39 -2.32719 1.89161 0
M  V30 51601 H 4796.94 -1.18886 1.01468 0
M  V30 51602 H 4797.68 -3.19976 -0.527825 0
M  V30 51603 H 4797.46 -3.74528 1.16066 0
M  V30 51604 H 4798.95 -4.16758 0.265058 0
M  V30 51605 N 4799.39 -1.00509 -1.21391 0
M  V30 51606 C 4800.32 -0.585763 -2.26033 0
M  V30 51607 C 4801.3 0.393467 -1.65487 0
M  V30 51608 O 4802.49 0.281429 -1.9215 0
M  V30 51609 C 4799.62 0.0883063 -3.47188 0
M  V30 51610 C 4798.57 -0.810715 -4.20252 0
M  V30 51611 C 4797.9 -0.00305179 -5.347 0
M  V30 51612 C 4799.2 -2.11337 -4.77634 0
M  V30 51613 H 4800.89 -1.46048 -2.61362 0
M  V30 51614 H 4798.44 -0.703692 -1.25635 0
M  V30 51615 H 4800.39 0.393138 -4.19562 0
M  V30 51616 H 4799.11 0.997657 -3.10989 0
M  V30 51617 H 4797.77 -1.09937 -3.49728 0
M  V30 51618 H 4797.42 0.907591 -4.94744 0
M  V30 51619 H 4797.12 -0.601649 -5.84512 0
M  V30 51620 H 4798.64 0.295593 -6.09884 0
M  V30 51621 H 4800.06 -1.87168 -5.41887 0
M  V30 51622 H 4798.46 -2.66182 -5.37835 0
M  V30 51623 H 4799.53 -2.78407 -3.97011 0
M  V30 51624 N 4800.87 1.36954 -0.779835 0
M  V30 51625 C 4802.12 1.99096 -0.347149 0
M  V30 51626 C 4802.44 1.6221 1.08227 0
M  V30 51627 O 4801.71 0.891434 1.74443 0
M  V30 51628 H 4800.29 0.736405 -0.125368 0
M  V30 51629 H 4802.95 1.67305 -0.999755 0
M  V30 51630 H 4802.05 3.09106 -0.431271 0
M  V30 51631 N 4802.35 0.531045 1.48384 0
M  V30 51632 C 4803.31 -0.220416 2.28138 0
M  V30 51633 C 4804.31 -0.866803 1.35437 0
M  V30 51634 O 4805.5 -0.72669 1.58319 0
M  V30 51635 C 4802.63 -1.3191 3.14345 0
M  V30 51636 H 4803.82 0.479819 2.96037 0
M  V30 51637 H 4801.38 0.287022 1.53642 0
M  V30 51638 H 4802.11 -2.05255 2.51079 0
M  V30 51639 H 4801.9 -0.860716 3.82536 0
M  V30 51640 H 4803.39 -1.84763 3.74503 0
M  V30 51641 N 4803.82 -1.55335 0.266227 0
M  V30 51642 C 4805.05 -2.03802 -0.356685 0
M  V30 51643 C 4805.47 -1.1449 -1.50125 0
M  V30 51644 O 4804.82 -0.163185 -1.81769 0
M  V30 51645 C 4804.88 -3.51458 -0.846157 0
M  V30 51646 O 4804.6 -4.3737 0.252817 0
M  V30 51647 C 4806.1 -4.15773 -1.53779 0
M  V30 51648 H 4803.32 -0.665909 -0.0824984 0
M  V30 51649 H 4805.86 -2.00635 0.39573 0
M  V30 51650 H 4804.02 -3.55098 -1.54869 0
M  V30 51651 H 4804.43 -5.24358 -0.121989 0
M  V30 51652 H 4805.9 -5.2072 -1.83179 0
M  V30 51653 H 4806.38 -3.63412 -2.46634 0
M  V30 51654 H 4806.99 -4.1611 -0.879342 0
M  V30 51655 N 4805.3 0.0066254 -1.57599 0
M  V30 51656 C 4806.58 0.729522 -1.81486 0
M  V30 51657 C 4806.96 1.92356 -0.869625 0
M  V30 51658 O 4806.31 2.28349 0.083173 0
M  V30 51659 C 4806.52 1.14148 -3.29805 0
M  V30 51660 C 4807.87 1.54809 -3.95372 0
M  V30 51661 O 4808.89 1.23546 -3.34088 0
M  V30 51662 O 4807.75 2.1292 -5.03316 0
M  V30 51663 H 4804.84 0.354647 -0.747097 0
M  V30 51664 H 4807.39 -0.0183206 -1.6969 0
M  V30 51665 H 4806.16 0.290094 -3.90223 0
M  V30 51666 H 4805.78 1.94864 -3.46575 0
M  V30 51667 N 4806.78 1.55106 0.279278 0
M  V30 51668 C 4807.71 1.83957 1.3672 0
M  V30 51669 C 4808.73 0.723694 1.4583 0
M  V30 51670 O 4809.92 1.00147 1.4776 0
M  V30 51671 C 4807.02 1.98193 2.74905 0
M  V30 51672 C 4806.19 3.28797 2.88463 0
M  V30 51673 C 4805.25 3.33177 4.07283 0
M  V30 51674 O 4804.27 4.0659 3.98338 0
M  V30 51675 N 4805.48 2.60127 5.18955 0
M  V30 51676 H 4808.24 2.77857 1.12318 0
M  V30 51677 H 4805.8 1.54946 0.469387 0
M  V30 51678 H 4807.79 1.985 3.52675 0
M  V30 51679 H 4806.36 1.11188 2.92158 0
M  V30 51680 H 4805.58 3.41082 1.97629 0
M  V30 51681 H 4806.87 4.14943 2.94448 0
M  V30 51682 H 4806.27 2.00154 5.29108 0
M  V30 51683 H 4804.83 2.66164 5.94979 0
M  V30 51684 N 4808.26 -0.543502 1.47932 0
M  V30 51685 C 4809.49 -1.3251 1.58898 0
M  V30 51686 C 4809.9 -1.87214 0.244197 0
M  V30 51687 O 4809.26 -1.65711 -0.764594 0
M  V30 51688 C 4809.31 -2.48545 2.62503 0
M  V30 51689 O 4809.03 -1.96098 3.91762 0
M  V30 51690 C 4810.53 -3.40562 2.83782 0
M  V30 51691 H 4807.75 -0.403453 0.536159 0
M  V30 51692 H 4810.3 -0.657038 1.93658 0
M  V30 51693 H 4808.45 -3.11262 2.3064 0
M  V30 51694 H 4808.87 -2.71951 4.48489 0
M  V30 51695 H 4810.34 -4.18362 3.60107 0
M  V30 51696 H 4810.82 -3.94958 1.92106 0
M  V30 51697 H 4811.42 -2.83649 3.16897 0
M  V30 51698 N 4809.74 -1.36293 -0.791323 0
M  V30 51699 C 4811.15 -1.16665 -1.0891 0
M  V30 51700 C 4811.35 0.0105558 -2.01497 0
M  V30 51701 O 4810.41 0.676511 -2.43269 0
M  V30 51702 C 4811.72 -2.47662 -1.7054 0
M  V30 51703 C 4813.27 -2.54008 -1.8289 0
M  V30 51704 C 4813.75 -3.85087 -2.47936 0
M  V30 51705 N 4815.24 -3.86422 -2.55406 0
M  V30 51706 C 4815.97 -4.84583 -3.0654 0
M  V30 51707 N 4815.47 -5.93137 -3.57995 0
M  V30 51708 N 4817.26 -4.72005 -3.05234 0
M  V30 51709 H 4809.41 -2.11668 -0.176164 0
M  V30 51710 H 4811.67 -0.937491 -0.140763 0
M  V30 51711 H 4811.38 -3.34063 -1.09977 0
M  V30 51712 H 4811.25 -2.63329 -2.7007 0
M  V30 51713 H 4813.64 -1.68026 -2.42593 0
M  V30 51714 H 4813.72 -2.42242 -0.821723 0
M  V30 51715 H 4813.37 -4.71474 -1.88879 0
M  V30 51716 H 4813.3 -3.94148 -3.49221 0
M  V30 51717 H 4815.79 -3.07996 -2.18968 0
M  V30 51718 H 4816.1 -6.64012 -3.95357 0
M  V30 51719 H 4814.45 -5.96809 -3.56152 0
M  V30 51720 H 4817.64 -3.8633 -2.64323 0
M  V30 51721 H 4817.81 -5.48665 -3.44777 0
M  V30 51722 N 4811.22 1.01526 -1.20541 0
M  V30 51723 C 4812.46 1.74554 -1.01063 0
M  V30 51724 C 4812.78 1.9017 0.45769 0
M  V30 51725 O 4813.98 2.60304 0.77163 0
M  V30 51726 C 4812.44 3.13957 -1.75952 0
M  V30 51727 C 4812.05 3.06349 -3.26886 0
M  V30 51728 C 4813.79 3.91186 -1.64846 0
M  V30 51729 C 4811.7 4.40768 -3.94306 0
M  V30 51730 H 4810.63 0.654404 -0.374528 0
M  V30 51731 H 4813.28 1.13516 -1.44175 0
M  V30 51732 H 4811.66 3.75545 -1.25627 0
M  V30 51733 H 4812.84 2.54061 -3.84434 0
M  V30 51734 H 4811.15 2.42613 -3.3842 0
M  V30 51735 H 4813.75 4.90636 -2.12556 0
M  V30 51736 H 4814.09 4.11882 -0.60489 0
M  V30 51737 H 4814.62 3.36229 -2.12591 0
M  V30 51738 H 4811.36 4.25275 -4.9882 0
M  V30 51739 H 4810.88 4.93058 -3.41547 0
M  V30 51740 H 4812.56 5.09607 -3.98635 0
M  V30 51741 N 4812.69 1.01151 1.20856 0
M  V30 51742 C 4813.94 0.693281 1.89411 0
M  V30 51743 C 4814.26 -0.779906 1.79379 0
M  V30 51744 O 4815.46 -1.21049 2.43021 0
M  V30 51745 C 4813.92 1.18961 3.39671 0
M  V30 51746 C 4813.53 2.68934 3.583 0
M  V30 51747 C 4815.27 0.946565 4.13812 0
M  V30 51748 C 4813.18 3.12073 5.02359 0
M  V30 51749 H 4812.11 0.25562 0.709348 0
M  V30 51750 H 4814.76 1.22353 1.36755 0
M  V30 51751 H 4813.14 0.587366 3.9162 0
M  V30 51752 H 4814.31 3.34663 3.1676 0
M  V30 51753 H 4812.63 2.91324 2.97522 0
M  V30 51754 H 4815.23 1.24436 5.20019 0
M  V30 51755 H 4815.57 -0.117073 4.16135 0
M  V30 51756 H 4816.1 1.51193 3.67948 0
M  V30 51757 H 4812.84 4.17692 5.05187 0
M  V30 51758 H 4812.36 2.5106 5.44728 0
M  V30 51759 H 4814.04 3.04423 5.70908 0
M  V30 51760 N 4814.17 -1.36538 0.787088 0
M  V30 51761 C 4815.12 -2.30081 0.181982 0
M  V30 51762 C 4816.09 -1.51862 -0.672843 0
M  V30 51763 O 4817.27 -1.80377 -0.622009 0
M  V30 51764 C 4814.41 -3.38353 -0.679078 0
M  V30 51765 C 4813.53 -4.31564 0.194034 0
M  V30 51766 C 4812.66 -5.26917 -0.673179 0
M  V30 51767 C 4811.7 -6.11768 0.20153 0
M  V30 51768 N 4810.84 -6.99317 -0.624532 0
M  V30 51769 H 4815.68 -2.81245 0.985163 0
M  V30 51770 H 4813.21 -1.38436 0.497391 0
M  V30 51771 H 4815.17 -3.99771 -1.19327 0
M  V30 51772 H 4813.8 -2.88516 -1.44771 0
M  V30 51773 H 4812.85 -3.7132 0.826174 0
M  V30 51774 H 4814.17 -4.91188 0.868109 0
M  V30 51775 H 4813.32 -5.93614 -1.25327 0
M  V30 51776 H 4812.06 -4.67742 -1.38089 0
M  V30 51777 H 4811.06 -5.44036 0.79404 0
M  V30 51778 H 4812.29 -6.73018 0.906804 0
M  V30 51779 H 4810.24 -6.42653 -1.31657 0
M  V30 51780 H 4810.15 -7.56 -0.0080866 0
M  V30 51781 H 4811.42 -7.70386 -1.18852 0
M  V30 51782 N 4815.65 -0.538906 -1.481 0
M  V30 51783 C 4816.56 0.222566 -2.33542 0
M  V30 51784 C 4817.58 0.930173 -1.4705 0
M  V30 51785 O 4818.75 0.903148 -1.80014 0
M  V30 51786 C 4815.82 1.25053 -3.23361 0
M  V30 51787 C 4814.88 0.552319 -4.25732 0
M  V30 51788 C 4814.11 1.53131 -5.1126 0
M  V30 51789 O 4814.33 2.76469 -4.9892 0
M  V30 51790 O 4813.27 1.06581 -5.92388 0
M  V30 51791 H 4817.09 -0.477812 -2.99918 0
M  V30 51792 H 4814.68 -0.29972 -1.46363 0
M  V30 51793 H 4816.56 1.84437 -3.78894 0
M  V30 51794 H 4815.24 1.93316 -2.59636 0
M  V30 51795 H 4814.14 -0.0822455 -3.7401 0
M  V30 51796 H 4815.48 -0.0885256 -4.9212 0
M  V30 51797 N 4817.13 1.55192 -0.274461 0
M  V30 51798 C 4818.37 1.99878 0.343016 0
M  V30 51799 C 4818.71 1.16262 1.55553 0
M  V30 51800 O 4817.98 0.23253 1.93105 0
M  V30 51801 C 4818.26 3.52709 0.725841 0
M  V30 51802 C 4818.12 4.47079 -0.493975 0
M  V30 51803 C 4819.44 4.11428 1.56253 0
M  V30 51804 H 4816.56 0.726629 0.123203 0
M  V30 51805 H 4819.2 1.86135 -0.381275 0
M  V30 51806 H 4817.35 3.64551 1.34294 0
M  V30 51807 H 4819.02 4.47182 -1.13253 0
M  V30 51808 H 4817.26 4.18766 -1.13216 0
M  V30 51809 H 4817.93 5.51699 -0.182364 0
M  V30 51810 H 4820.41 4.02858 1.04136 0
M  V30 51811 H 4819.29 5.18575 1.79921 0
M  V30 51812 H 4819.55 3.61616 2.54335 0
M  V30 51813 N 4818.61 0.00173253 1.576 0
M  V30 51814 C 4819.85 -0.681404 1.90266 0
M  V30 51815 C 4820.17 -1.74217 0.875985 0
M  V30 51816 O 4819.44 -1.95709 -0.0863724 0
M  V30 51817 H 4818.02 -0.254671 0.702248 0
M  V30 51818 H 4820.69 0.0430681 1.94852 0
M  V30 51819 H 4819.78 -1.15156 2.90079 0
M  V30 51820 N 4820.08 -1.55252 -0.271048 0
M  V30 51821 C 4821.31 -1.8031 -1.02484 0
M  V30 51822 C 4821.73 -0.57552 -1.79079 0
M  V30 51823 O 4821.09 0.474926 -1.74969 0
M  V30 51824 C 4821.14 -3.02839 -1.95757 0
M  V30 51825 O 4820.24 -2.78062 -3.04558 0
M  V30 51826 H 4819.59 -0.595906 -0.292903 0
M  V30 51827 H 4822.12 -2.02398 -0.299365 0
M  V30 51828 H 4822.13 -3.31625 -2.37674 0
M  V30 51829 H 4820.8 -3.91835 -1.3942 0
M  V30 51830 H 4819.38 -2.60378 -2.66941 0
M  V30 51831 N 4821.56 0.535649 -1.48218 0
M  V30 51832 C 4822.98 0.863654 -1.34213 0
M  V30 51833 C 4823.18 1.98457 -0.34886 0
M  V30 51834 O 4822.23 2.51432 0.231952 0
M  V30 51835 C 4823.55 1.23653 -2.74099 0
M  V30 51836 C 4825.1 1.34673 -2.82546 0
M  V30 51837 C 4825.57 1.75307 -4.23121 0
M  V30 51838 N 4827.06 1.82419 -4.25767 0
M  V30 51839 C 4827.8 2.15233 -5.31472 0
M  V30 51840 N 4827.29 2.4651 -6.4746 0
M  V30 51841 N 4829.09 2.16191 -5.18862 0
M  V30 51842 H 4821.24 -0.204039 -2.11418 0
M  V30 51843 H 4823.5 -0.0286366 -0.947567 0
M  V30 51844 H 4823.21 0.486552 -3.48318 0
M  V30 51845 H 4823.08 2.18794 -3.0726 0
M  V30 51846 H 4825.47 2.08749 -2.08586 0
M  V30 51847 H 4825.55 0.376667 -2.53012 0
M  V30 51848 H 4825.19 1.01794 -4.97595 0
M  V30 51849 H 4825.12 2.73354 -4.50095 0
M  V30 51850 H 4827.61 1.60548 -3.421 0
M  V30 51851 H 4827.93 2.70637 -7.23861 0
M  V30 51852 H 4826.27 2.44042 -6.50745 0
M  V30 51853 H 4829.46 1.91209 -4.27266 0
M  V30 51854 H 4829.63 2.41432 -6.01344 0
M  V30 51855 N 4823.04 1.36711 0.784084 0
M  V30 51856 C 4824.27 1.34403 1.573 0
M  V30 51857 C 4824.68 -0.0734914 1.88657 0
M  V30 51858 O 4824.04 -1.03188 1.50527 0
M  V30 51859 C 4824.09 2.17063 2.89078 0
M  V30 51860 O 4823.81 3.5329 2.5907 0
M  V30 51861 C 4825.31 2.22596 3.83361 0
M  V30 51862 H 4822.53 0.460837 0.48772 0
M  V30 51863 H 4825.08 1.79882 0.972756 0
M  V30 51864 H 4823.23 1.75125 3.45558 0
M  V30 51865 H 4823.65 3.96482 3.43369 0
M  V30 51866 H 4825.12 2.8478 4.72868 0
M  V30 51867 H 4825.6 1.2309 4.21599 0
M  V30 51868 H 4826.2 2.64793 3.32813 0
M  V30 51869 N 4824.52 -1.00885 1.21078 0
M  V30 51870 C 4825.75 -1.77929 1.04999 0
M  V30 51871 C 4826.16 -1.84849 -0.40343 0
M  V30 51872 O 4825.5 -1.3061 -1.29177 0
M  V30 51873 C 4825.56 -3.23535 1.56733 0
M  V30 51874 C 4825.23 -3.40203 3.05141 0
M  V30 51875 C 4826.22 -3.28796 4.02727 0
M  V30 51876 C 4823.91 -3.65769 3.44265 0
M  V30 51877 C 4825.9 -3.42713 5.37426 0
M  V30 51878 C 4823.59 -3.79329 4.79117 0
M  V30 51879 C 4824.59 -3.67807 5.75506 0
M  V30 51880 O 4824.27 -3.80941 7.07912 0
M  V30 51881 H 4824.01 -0.566144 0.369401 0
M  V30 51882 H 4826.56 -1.2782 1.60783 0
M  V30 51883 H 4824.79 -3.74762 0.953417 0
M  V30 51884 H 4826.48 -3.8224 1.36556 0
M  V30 51885 H 4827.25 -3.08973 3.73846 0
M  V30 51886 H 4823.12 -3.73821 2.69775 0
M  V30 51887 H 4826.67 -3.33636 6.12644 0
M  V30 51888 H 4822.57 -3.98655 5.07686 0
M  V30 51889 H 4823.33 -3.97911 7.15268 0
M  V30 51890 N 4826 -1.01791 -1.20318 0
M  V30 51891 C 4826.96 -0.59405 -2.21368 0
M  V30 51892 C 4827.96 0.336497 -1.5724 0
M  V30 51893 O 4829.15 0.125008 -1.73751 0
M  V30 51894 C 4826.28 0.132313 -3.40643 0
M  V30 51895 H 4827.47 -1.488 -2.60381 0
M  V30 51896 H 4825.03 -0.80785 -1.33804 0
M  V30 51897 H 4825.76 1.04112 -3.07134 0
M  V30 51898 H 4825.55 -0.536187 -3.88417 0
M  V30 51899 H 4827.04 0.416168 -4.15521 0
M  V30 51900 N 4827.47 1.36119 -0.794317 0
M  V30 51901 C 4828.41 2.27758 -0.141925 0
M  V30 51902 C 4829.39 1.47473 0.684869 0
M  V30 51903 O 4830.57 1.76762 0.654795 0
M  V30 51904 C 4827.7 3.29011 0.80433 0
M  V30 51905 C 4826.74 4.2646 0.0587118 0
M  V30 51906 S 4827.58 5.20249 -1.26891 0
M  V30 51907 C 4828.73 6.25046 -0.326782 0
M  V30 51908 H 4828.96 2.82742 -0.918918 0
M  V30 51909 H 4826.5 1.42733 -0.588772 0
M  V30 51910 H 4828.46 3.87847 1.34481 0
M  V30 51911 H 4827.12 2.7293 1.55461 0
M  V30 51912 H 4826.31 4.97976 0.776912 0
M  V30 51913 H 4825.91 3.7173 -0.411439 0
M  V30 51914 H 4828.2 6.75707 0.492557 0
M  V30 51915 H 4829.15 7.00849 -1.01077 0
M  V30 51916 H 4829.55 5.64454 0.0720643 0
M  V30 51917 N 4828.95 0.546753 1.47812 0
M  V30 51918 C 4829.9 -0.206773 2.29872 0
M  V30 51919 C 4830.87 -0.918186 1.38414 0
M  V30 51920 O 4832.05 -0.915933 1.67378 0
M  V30 51921 C 4829.19 -1.23734 3.22155 0
M  V30 51922 C 4828.31 -0.533065 4.28699 0
M  V30 51923 C 4827.44 -1.54802 5.08144 0
M  V30 51924 C 4826.48 -0.828134 6.06472 0
M  V30 51925 N 4825.62 -1.78942 6.78914 0
M  V30 51926 H 4830.46 0.49914 2.9379 0
M  V30 51927 H 4828 0.257981 1.4482 0
M  V30 51928 H 4829.95 -1.84733 3.74072 0
M  V30 51929 H 4828.58 -1.91142 2.60124 0
M  V30 51930 H 4827.64 0.191222 3.79919 0
M  V30 51931 H 4828.95 0.031374 4.9879 0
M  V30 51932 H 4828.1 -2.23183 5.64158 0
M  V30 51933 H 4826.84 -2.14637 4.3793 0
M  V30 51934 H 4825.85 -0.130346 5.49645 0
M  V30 51935 H 4827.07 -0.235669 6.78691 0
M  V30 51936 H 4825.02 -2.37654 6.11438 0
M  V30 51937 H 4824.93 -1.27686 7.45139 0
M  V30 51938 H 4826.2 -2.4647 7.39509 0
M  V30 51939 N 4830.43 -1.55044 0.282687 0
M  V30 51940 C 4831.36 -2.25792 -0.594987 0
M  V30 51941 C 4832.34 -1.25078 -1.1528 0
M  V30 51942 O 4833.53 -1.53814 -1.18553 0
M  V30 51943 C 4830.66 -2.98478 -1.77562 0
M  V30 51944 C 4829.61 -4.06185 -1.349 0
M  V30 51945 C 4828.94 -4.66486 -2.61333 0
M  V30 51946 C 4830.24 -5.19962 -0.493639 0
M  V30 51947 H 4831.93 -2.994 -0.00495128 0
M  V30 51948 H 4829.48 -1.44 -0.000941378 0
M  V30 51949 H 4831.43 -3.46685 -2.39556 0
M  V30 51950 H 4830.15 -2.22418 -2.3916 0
M  V30 51951 H 4828.81 -3.588 -0.752212 0
M  V30 51952 H 4828.46 -3.87086 -3.21207 0
M  V30 51953 H 4828.16 -5.39215 -2.33497 0
M  V30 51954 H 4829.68 -5.17446 -3.24163 0
M  V30 51955 H 4831.1 -5.64175 -1.01878 0
M  V30 51956 H 4829.5 -5.993 -0.309836 0
M  V30 51957 H 4830.57 -4.82461 0.485763 0
M  V30 51958 N 4831.91 -0.0100904 -1.57597 0
M  V30 51959 C 4833.13 0.686953 -1.95693 0
M  V30 51960 C 4833.56 1.65949 -0.885577 0
M  V30 51961 O 4832.92 1.80633 0.155367 0
M  V30 51962 C 4832.96 1.38628 -3.32888 0
M  V30 51963 O 4832.07 2.50103 -3.27906 0
M  V30 51964 H 4831.41 0.181966 -0.63858 0
M  V30 51965 H 4833.94 -0.0662841 -2.04493 0
M  V30 51966 H 4833.95 1.74742 -3.68686 0
M  V30 51967 H 4832.62 0.673267 -4.10414 0
M  V30 51968 H 4831.2 2.16242 -3.03799 0
M  V30 51969 N 4833.39 1.55393 0.262811 0
M  V30 51970 C 4834.61 1.80851 1.01527 0
M  V30 51971 C 4835.04 0.585009 1.78772 0
M  V30 51972 O 4834.39 -0.46564 1.75218 0
M  V30 51973 C 4834.44 3.03873 1.94148 0
M  V30 51974 O 4833.55 2.79673 3.03079 0
M  V30 51975 H 4832.89 0.597451 0.289738 0
M  V30 51976 H 4835.42 2.02554 0.288627 0
M  V30 51977 H 4835.43 3.3288 2.35912 0
M  V30 51978 H 4834.1 3.92569 1.3734 0
M  V30 51979 H 4832.68 2.6179 2.65557 0
M  V30 51980 N 4834.87 -0.527781 1.485 0
M  V30 51981 C 4836.11 -1.28289 1.5784 0
M  V30 51982 C 4836.47 -1.90769 0.25001 0
M  V30 51983 O 4835.76 -1.76424 -0.74734 0
M  V30 51984 C 4835.95 -2.39266 2.65493 0
M  V30 51985 C 4835.78 -1.87665 4.08671 0
M  V30 51986 C 4834.55 -1.7017 4.75784 0
M  V30 51987 C 4836.75 -1.40391 4.94767 0
M  V30 51988 N 4834.73 -1.13217 6.0337 0
M  V30 51989 C 4836.1 -0.954 6.12616 0
M  V30 51990 C 4838.16 -1.28715 4.80975 0
M  V30 51991 C 4836.86 -0.398897 7.18193 0
M  V30 51992 C 4838.89 -0.746038 5.86676 0
M  V30 51993 C 4838.25 -0.30621 7.03734 0
M  V30 51994 H 4834.35 -0.460386 0.632115 0
M  V30 51995 H 4836.93 -0.594848 1.85391 0
M  V30 51996 H 4835.1 -3.05564 2.39761 0
M  V30 51997 H 4836.84 -3.06298 2.64506 0
M  V30 51998 H 4833.59 -1.93757 4.32152 0
M  V30 51999 H 4834.01 -0.86745 6.7142 0
M  V30 52000 H 4838.66 -1.61324 3.90812 0
M  V30 52001 H 4836.37 -0.0604837 8.08077 0
M  V30 52002 H 4839.96 -0.658838 5.78058 0
M  V30 52003 H 4838.84 0.105983 7.84128 0
M  V30 52004 N 4836.34 -1.37125 -0.776822 0
M  V30 52005 C 4837.59 -1.32053 -1.5352 0
M  V30 52006 C 4837.92 0.0964948 -1.9426 0
M  V30 52007 O 4837.17 1.0686 -1.63949 0
M  V30 52008 C 4837.47 -2.20078 -2.81604 0
M  V30 52009 C 4837.14 -3.68432 -2.5994 0
M  V30 52010 C 4835.8 -4.08863 -2.5374 0
M  V30 52011 C 4838.15 -4.62439 -2.40415 0
M  V30 52012 C 4835.48 -5.41425 -2.25999 0
M  V30 52013 C 4837.83 -5.95233 -2.14198 0
M  V30 52014 C 4836.5 -6.34775 -2.0644 0
M  V30 52015 H 4835.77 -0.483216 -0.561768 0
M  V30 52016 H 4838.41 -1.69288 -0.895208 0
M  V30 52017 H 4836.72 -1.75821 -3.50135 0
M  V30 52018 H 4838.42 -2.1347 -3.39458 0
M  V30 52019 H 4835.01 -3.36364 -2.65626 0
M  V30 52020 H 4839.19 -4.32066 -2.44198 0
M  V30 52021 H 4834.45 -5.7103 -2.18483 0
M  V30 52022 H 4838.62 -6.67633 -1.98088 0
M  V30 52023 H 4836.25 -7.37419 -1.84707 0
M  V30 52024 N 4837.82 1.00242 -1.21611 0
M  V30 52025 C 4838.75 2.10918 -1.0018 0
M  V30 52026 C 4839.73 1.69939 0.0740989 0
M  V30 52027 O 4840.92 1.94008 -0.0862435 0
M  V30 52028 C 4838.05 3.42616 -0.568476 0
M  V30 52029 C 4837 3.97401 -1.58923 0
M  V30 52030 C 4836.33 5.25035 -1.01206 0
M  V30 52031 C 4837.63 4.29169 -2.97676 0
M  V30 52032 H 4839.32 2.29105 -1.92747 0
M  V30 52033 H 4836.87 1.10098 -0.928141 0
M  V30 52034 H 4838.82 4.19443 -0.405702 0
M  V30 52035 H 4837.54 3.24229 0.392847 0
M  V30 52036 H 4836.2 3.22697 -1.73961 0
M  V30 52037 H 4835.85 5.02982 -0.0423734 0
M  V30 52038 H 4835.55 5.62655 -1.6939 0
M  V30 52039 H 4837.08 6.04504 -0.860661 0
M  V30 52040 H 4838.49 4.96829 -2.86067 0
M  V30 52041 H 4836.89 4.77939 -3.62897 0
M  V30 52042 H 4837.96 3.37337 -3.48327 0
M  V30 52043 N 4839.3 1.02428 1.19776 0
M  V30 52044 C 4840.25 0.601101 2.22835 0
M  V30 52045 C 4841.22 -0.382744 1.6163 0
M  V30 52046 O 4842.4 -0.280447 1.88728 0
M  V30 52047 C 4839.54 -0.0466542 3.45068 0
M  V30 52048 C 4838.65 0.982678 4.20675 0
M  V30 52049 C 4837.79 0.305169 5.30323 0
M  V30 52050 C 4836.83 1.32073 5.97681 0
M  V30 52051 N 4835.97 0.669351 6.98902 0
M  V30 52052 H 4840.81 1.48453 2.58391 0
M  V30 52053 H 4838.34 0.74298 1.26958 0
M  V30 52054 H 4840.3 -0.439411 4.1488 0
M  V30 52055 H 4838.93 -0.893687 3.10182 0
M  V30 52056 H 4837.98 1.49353 3.49854 0
M  V30 52057 H 4839.29 1.75472 4.66917 0
M  V30 52058 H 4838.45 -0.142679 6.06532 0
M  V30 52059 H 4837.19 -0.499112 4.85139 0
M  V30 52060 H 4836.19 1.77889 5.20227 0
M  V30 52061 H 4837.42 2.12642 6.4495 0
M  V30 52062 H 4835.36 -0.114922 6.55899 0
M  V30 52063 H 4835.28 1.37934 7.4331 0
M  V30 52064 H 4836.55 0.24535 7.79114 0
M  V30 52065 N 4840.78 -1.35696 0.801525 0
M  V30 52066 C 4841.74 -2.28198 0.214074 0
M  V30 52067 C 4842.74 -1.49361 -0.595638 0
M  V30 52068 O 4843.93 -1.69188 -0.414862 0
M  V30 52069 C 4841.06 -3.3359 -0.702179 0
M  V30 52070 H 4842.26 -2.81663 1.02986 0
M  V30 52071 H 4839.81 -1.45465 0.57181 0
M  V30 52072 H 4840.54 -2.85302 -1.54185 0
M  V30 52073 H 4840.33 -3.91906 -0.123347 0
M  V30 52074 H 4841.82 -4.02641 -1.10768 0
M  V30 52075 N 4842.26 -0.554584 -1.4752 0
M  V30 52076 C 4843.48 -0.032339 -2.07375 0
M  V30 52077 C 4843.91 1.25074 -1.40492 0
M  V30 52078 O 4843.26 1.74857 -0.479021 0
M  V30 52079 C 4843.31 0.14927 -3.60291 0
M  V30 52080 O 4842.42 1.21245 -3.94174 0
M  V30 52081 H 4841.76 -0.0501461 -0.662104 0
M  V30 52082 H 4844.29 -0.769519 -1.89577 0
M  V30 52083 H 4844.3 0.364294 -4.0637 0
M  V30 52084 H 4842.97 -0.787887 -4.08369 0
M  V30 52085 H 4841.55 0.978124 -3.59843 0
M  V30 52086 N 4843.73 1.54892 -0.290906 0
M  V30 52087 C 4844.68 2.24581 0.605497 0
M  V30 52088 C 4845.68 1.24828 1.14518 0
M  V30 52089 O 4846.88 1.4271 1.09699 0
M  V30 52090 H 4843.26 0.720953 0.213847 0
M  V30 52091 H 4845.23 2.984 -0.0049222 0
M  V30 52092 C 4843.98 2.9923 1.77077 0
M  V30 52093 H 4843.3 3.75787 1.36471 0
M  V30 52094 H 4844.74 3.51289 2.37428 0
M  V30 52095 C 4843.2 2.05612 2.66881 0
M  V30 52096 O 4843.73 1.61758 3.67692 0
M  V30 52097 N 4841.93 1.71779 2.34393 0
M  V30 52098 H 4841.48 2.07638 1.5246 0
M  V30 52099 H 4841.44 1.09414 2.94747 0
M  V30 52100 N 4845.21 0.018448 1.57589 0
M  V30 52101 C 4846.16 -0.966948 2.09568 0
M  V30 52102 C 4847.13 -1.32979 0.995272 0
M  V30 52103 O 4848.31 -1.42497 1.26883 0
M  V30 52104 C 4845.45 -2.24763 2.61869 0
M  V30 52105 C 4844.57 -1.94218 3.8588 0
M  V30 52106 C 4843.7 -3.16503 4.26614 0
M  V30 52107 C 4842.74 -2.81728 5.43411 0
M  V30 52108 N 4841.88 -3.96606 5.79352 0
M  V30 52109 H 4846.72 -0.516771 2.93485 0
M  V30 52110 H 4844.25 -0.243493 1.45071 0
M  V30 52111 H 4846.21 -2.99657 2.90278 0
M  V30 52112 H 4844.84 -2.67416 1.80799 0
M  V30 52113 H 4843.89 -1.09612 3.64265 0
M  V30 52114 H 4845.21 -1.646 4.70859 0
M  V30 52115 H 4844.36 -3.99727 4.56403 0
M  V30 52116 H 4843.1 -3.49274 3.4038 0
M  V30 52117 H 4842.1 -1.96915 5.13327 0
M  V30 52118 H 4843.33 -2.50185 6.31335 0
M  V30 52119 H 4841.28 -4.29239 4.96074 0
M  V30 52120 H 4841.19 -3.70575 6.58946 0
M  V30 52121 H 4842.46 -4.80564 6.13741 0
M  V30 52122 N 4846.69 -1.5553 -0.254567 0
M  V30 52123 C 4847.62 -1.86109 -1.33777 0
M  V30 52124 C 4848.63 -0.746802 -1.44661 0
M  V30 52125 O 4849.82 -1.02485 -1.46148 0
M  V30 52126 C 4846.92 -2.02541 -2.71717 0
M  V30 52127 C 4846.1 -3.33345 -2.83196 0
M  V30 52128 C 4845.16 -3.39614 -4.01931 0
M  V30 52129 O 4844.18 -4.12875 -3.9182 0
M  V30 52130 N 4845.38 -2.6835 -5.14751 0
M  V30 52131 H 4848.15 -2.79609 -1.07884 0
M  V30 52132 H 4845.71 -1.55673 -0.444677 0
M  V30 52133 H 4847.7 -2.04086 -3.49473 0
M  V30 52134 H 4846.27 -1.15822 -2.90352 0
M  V30 52135 H 4845.49 -3.44182 -1.92177 0
M  V30 52136 H 4846.78 -4.19575 -2.8781 0
M  V30 52137 H 4846.18 -2.08546 -5.25856 0
M  V30 52138 H 4844.73 -2.75596 -5.90669 0
M  V30 52139 N 4848.17 0.519898 -1.48778 0
M  V30 52140 C 4849.1 1.64047 -1.58631 0
M  V30 52141 C 4850.08 1.56639 -0.436235 0
M  V30 52142 O 4851.26 1.76967 -0.649221 0
M  V30 52143 C 4848.39 3.02492 -1.52369 0
M  V30 52144 C 4847.44 3.28225 -2.72342 0
M  V30 52145 S 4848.27 3.13398 -4.34214 0
M  V30 52146 C 4849.42 4.54272 -4.30567 0
M  V30 52147 H 4849.66 1.55441 -2.53427 0
M  V30 52148 H 4847.19 0.703632 -1.37435 0
M  V30 52149 H 4849.15 3.82331 -1.49443 0
M  V30 52150 H 4847.81 3.08529 -0.588933 0
M  V30 52151 H 4847 4.29246 -2.64128 0
M  V30 52152 H 4846.6 2.56075 -2.72583 0
M  V30 52153 H 4848.9 5.45992 -4.01122 0
M  V30 52154 H 4849.84 4.67539 -5.31802 0
M  V30 52155 H 4850.25 4.34067 -3.60897 0
M  V30 52156 N 4849.65 1.37535 0.769539 0
M  V30 52157 C 4850.87 1.36237 1.56379 0
M  V30 52158 C 4851.3 -0.0495188 1.88035 0
M  V30 52159 O 4850.65 -1.02718 1.49395 0
M  V30 52160 C 4850.7 2.20996 2.84944 0
M  V30 52161 O 4849.81 1.6161 3.79415 0
M  V30 52162 H 4849.15 0.465404 0.473598 0
M  V30 52163 H 4851.68 1.81088 0.952278 0
M  V30 52164 H 4851.69 2.34288 3.34025 0
M  V30 52165 H 4850.36 3.23621 2.61232 0
M  V30 52166 H 4848.94 1.57371 3.38066 0
M  V30 52167 N 4851.12 -0.995956 1.22141 0
M  V30 52168 C 4852.05 -2.10383 1.01297 0
M  V30 52169 C 4853.04 -1.69975 -0.0650856 0
M  V30 52170 O 4854.22 -1.9396 0.096531 0
M  V30 52171 C 4851.35 -3.4231 0.586638 0
M  V30 52172 C 4850.3 -3.96553 1.61028 0
M  V30 52173 C 4849.63 -5.24491 1.03989 0
M  V30 52174 C 4850.93 -4.27585 2.99948 0
M  V30 52175 H 4852.62 -2.28079 1.93959 0
M  V30 52176 H 4850.17 -1.09604 0.933966 0
M  V30 52177 H 4852.12 -4.19221 0.427941 0
M  V30 52178 H 4850.85 -3.24433 -0.375647 0
M  V30 52179 H 4849.51 -3.2177 1.7567 0
M  V30 52180 H 4849.15 -5.02953 0.0690471 0
M  V30 52181 H 4848.85 -5.61749 1.72372 0
M  V30 52182 H 4850.38 -6.04039 0.892707 0
M  V30 52183 H 4851.79 -4.95305 2.88697 0
M  V30 52184 H 4850.19 -4.76008 3.65427 0
M  V30 52185 H 4851.26 -3.35485 3.50111 0
M  V30 52186 N 4852.6 -1.03061 -1.19231 0
M  V30 52187 C 4853.83 -0.747765 -1.92915 0
M  V30 52188 C 4854.25 0.693659 -1.75596 0
M  V30 52189 O 4853.6 1.47187 -1.07899 0
M  V30 52190 C 4853.65 -1.09171 -3.44621 0
M  V30 52191 O 4853.37 -2.47653 -3.61386 0
M  V30 52192 C 4854.88 -0.831917 -4.35424 0
M  V30 52193 H 4852.1 -0.273475 -0.612742 0
M  V30 52194 H 4854.64 -1.37557 -1.51322 0
M  V30 52195 H 4852.79 -0.509054 -3.84041 0
M  V30 52196 H 4853.21 -2.60515 -4.55227 0
M  V30 52197 H 4854.68 -1.12252 -5.40466 0
M  V30 52198 H 4855.16 0.233615 -4.38578 0
M  V30 52199 H 4855.77 -1.39739 -4.01688 0
M  V30 52200 N 4854.08 1.35269 -0.80871 0
M  V30 52201 C 4855.49 1.81177 -0.450752 0
M  V30 52202 C 4855.84 1.67146 1.02745 0
M  V30 52203 O 4854.97 1.20331 1.79859 0
M  V30 52204 C 4855.56 3.28941 -0.811391 0
M  V30 52205 C 4854.12 3.72983 -0.506002 0
M  V30 52206 C 4853.27 2.57226 -1.03587 0
M  V30 52207 H 4856.22 1.23217 -1.00016 0
M  V30 52208 H 4856.24 3.80342 -0.109722 0
M  V30 52209 H 4855.75 3.39121 -1.8873 0
M  V30 52210 H 4853.85 3.68351 0.561079 0
M  V30 52211 H 4853.97 4.67673 -1.04011 0
M  V30 52212 H 4852.33 2.50547 -0.458093 0
M  V30 52213 H 4853.11 2.70182 -2.11793 0
M  V30 52214 N 4855.56 0.5624 1.47224 0
M  V30 52215 C 4856.49 -0.170545 2.32876 0
M  V30 52216 C 4857.47 -0.903697 1.44109 0
M  V30 52217 O 4858.65 -0.883145 1.72957 0
M  V30 52218 C 4855.78 -1.19774 3.25993 0
M  V30 52219 C 4854.74 -0.580726 4.24042 0
M  V30 52220 C 4854.06 -1.71293 5.0652 0
M  V30 52221 C 4855.36 0.468897 5.20191 0
M  V30 52222 H 4857.06 0.544544 2.94406 0
M  V30 52223 H 4854.6 0.263321 1.41572 0
M  V30 52224 H 4856.56 -1.7187 3.84758 0
M  V30 52225 H 4855.28 -1.94284 2.62528 0
M  V30 52226 H 4853.94 -0.0810249 3.6651 0
M  V30 52227 H 4853.59 -2.4472 4.39455 0
M  V30 52228 H 4853.29 -1.30584 5.72906 0
M  V30 52229 H 4854.81 -2.23705 5.68145 0
M  V30 52230 H 4856.23 0.0338043 5.7329 0
M  V30 52231 H 4854.62 0.795166 5.94808 0
M  V30 52232 H 4855.69 1.36285 4.65354 0
M  V30 52233 N 4857.04 -1.54735 0.299116 0
M  V30 52234 C 4858.28 -2.00102 -0.310713 0
M  V30 52235 C 4858.61 -1.18751 -1.5404 0
M  V30 52236 O 4857.87 -0.251267 -1.9408 0
M  V30 52237 C 4858.17 -3.50201 -0.713712 0
M  V30 52238 C 4857.83 -4.48995 0.414031 0
M  V30 52239 C 4856.49 -4.75728 0.723629 0
M  V30 52240 C 4858.85 -5.07835 1.17275 0
M  V30 52241 C 4856.17 -5.58563 1.7951 0
M  V30 52242 C 4858.53 -5.91836 2.23413 0
M  V30 52243 C 4857.19 -6.1688 2.54981 0
M  V30 52244 H 4856.46 -0.732225 -0.113698 0
M  V30 52245 H 4859.11 -1.86886 0.417822 0
M  V30 52246 H 4857.41 -3.61017 -1.5223 0
M  V30 52247 H 4859.11 -3.82727 -1.1967 0
M  V30 52248 H 4855.7 -4.28291 0.162627 0
M  V30 52249 H 4859.88 -4.87185 0.946822 0
M  V30 52250 H 4855.14 -5.76206 2.04443 0
M  V30 52251 H 4859.31 -6.36455 2.82662 0
M  V30 52252 H 4856.94 -6.80857 3.38138 0
M  V30 52253 N 4858.51 -0.0268051 -1.57577 0
M  V30 52254 C 4859.42 0.971558 -2.13537 0
M  V30 52255 C 4860.44 1.35864 -1.08706 0
M  V30 52256 O 4861.62 1.44053 -1.40751 0
M  V30 52257 C 4858.68 2.23613 -2.64949 0
M  V30 52258 C 4857.74 1.90968 -3.84486 0
M  V30 52259 C 4856.98 3.11396 -4.33438 0
M  V30 52260 O 4857.2 4.23979 -3.81573 0
M  V30 52261 O 4856.13 2.93829 -5.25308 0
M  V30 52262 H 4859.96 0.525748 -2.99115 0
M  V30 52263 H 4857.54 0.19366 -1.4814 0
M  V30 52264 H 4859.43 2.97853 -2.98096 0
M  V30 52265 H 4858.1 2.67379 -1.82456 0
M  V30 52266 H 4857.01 1.14119 -3.56269 0
M  V30 52267 H 4858.34 1.52019 -4.68136 0
M  V30 52268 N 4859.99 1.55663 0.246315 0
M  V30 52269 C 4860.9 1.935 1.32646 0
M  V30 52270 C 4861.92 0.835516 1.52627 0
M  V30 52271 O 4863.09 1.13696 1.66238 0
M  V30 52272 C 4860.16 2.22251 2.66093 0
M  V30 52273 C 4859.22 3.45634 2.54628 0
M  V30 52274 C 4858.45 3.73004 3.81711 0
M  V30 52275 O 4858.68 3.02438 4.83619 0
M  V30 52276 O 4857.61 4.66528 3.80309 0
M  V30 52277 H 4861.44 2.85502 1.03549 0
M  V30 52278 H 4859.02 1.42552 0.447119 0
M  V30 52279 H 4860.9 2.42049 3.4495 0
M  V30 52280 H 4859.58 1.33427 2.94922 0
M  V30 52281 H 4858.49 3.31143 1.74056 0
M  V30 52282 H 4859.82 4.34762 2.30745 0
M  V30 52283 N 4861.47 -0.512001 1.49051 0
M  V30 52284 C 4862.4 -1.62359 1.67814 0
M  V30 52285 C 4863.38 -1.61735 0.526865 0
M  V30 52286 O 4864.57 -1.78649 0.761467 0
M  V30 52287 C 4861.7 -3.00889 1.73445 0
M  V30 52288 C 4860.65 -3.16377 2.88253 0
M  V30 52289 C 4859.98 -4.56147 2.78988 0
M  V30 52290 C 4861.28 -2.97442 4.29332 0
M  V30 52291 H 4862.97 -1.46912 2.60878 0
M  V30 52292 H 4860.52 -0.705334 1.25543 0
M  V30 52293 H 4862.47 -3.78542 1.85158 0
M  V30 52294 H 4861.19 -3.174 0.769731 0
M  V30 52295 H 4859.85 -2.41145 2.76124 0
M  V30 52296 H 4859.5 -4.69519 1.80446 0
M  V30 52297 H 4859.2 -4.67452 3.56037 0
M  V30 52298 H 4860.72 -5.35876 2.92693 0
M  V30 52299 H 4862.14 -3.64873 4.422 0
M  V30 52300 H 4860.54 -3.20227 5.07518 0
M  V30 52301 H 4861.61 -1.93676 4.44542 0
M  V30 52302 N 4862.95 -1.37941 -0.762235 0
M  V30 52303 C 4863.88 -1.37183 -1.88953 0
M  V30 52304 C 4864.86 -0.239004 -1.68413 0
M  V30 52305 O 4866.04 -0.440793 -1.89131 0
M  V30 52306 C 4863.17 -1.18754 -3.26366 0
M  V30 52307 C 4862.13 -2.29149 -3.6149 0
M  V30 52308 C 4861.45 -1.95833 -4.97547 0
M  V30 52309 C 4862.75 -3.71376 -3.67257 0
M  V30 52310 H 4864.45 -2.31516 -1.89844 0
M  V30 52311 H 4861.99 -1.11441 -0.911965 0
M  V30 52312 H 4863.95 -1.16851 -4.04875 0
M  V30 52313 H 4862.67 -0.208798 -3.25932 0
M  V30 52314 H 4861.33 -2.30223 -2.85294 0
M  V30 52315 H 4860.98 -0.964648 -4.93663 0
M  V30 52316 H 4860.68 -2.69763 -5.22017 0
M  V30 52317 H 4862.2 -1.95534 -5.78445 0
M  V30 52318 H 4863.62 -3.72379 -4.35898 0
M  V30 52319 H 4862.01 -4.44439 -4.0323 0
M  V30 52320 H 4863.08 -4.04315 -2.67689 0
M  V30 52321 N 4864.43 0.989464 -1.22668 0
M  V30 52322 C 4865.36 2.09843 -1.02411 0
M  V30 52323 C 4866.34 1.70008 0.0560705 0
M  V30 52324 O 4867.52 1.93906 -0.106816 0
M  V30 52325 C 4864.65 3.41994 -0.604783 0
M  V30 52326 C 4863.61 3.95693 -1.63129 0
M  V30 52327 C 4862.93 5.23932 -1.06769 0
M  V30 52328 C 4864.23 4.25988 -3.02211 0
M  V30 52329 H 4865.93 2.27048 -1.95166 0
M  V30 52330 H 4863.47 1.09107 -0.939766 0
M  V30 52331 H 4865.43 4.18989 -0.450167 0
M  V30 52332 H 4864.15 3.24627 0.358436 0
M  V30 52333 H 4862.81 3.20834 -1.77374 0
M  V30 52334 H 4862.46 5.02909 -0.095719 0
M  V30 52335 H 4862.16 5.60827 -1.75348 0
M  V30 52336 H 4863.68 6.03557 -0.924728 0
M  V30 52337 H 4865.1 4.93767 -2.9132 0
M  V30 52338 H 4863.49 4.74063 -3.67946 0
M  V30 52339 H 4864.56 3.33624 -3.51885 0
M  V30 52340 N 4865.91 1.03692 1.18683 0
M  V30 52341 C 4867.32 0.755463 1.40588 0
M  V30 52342 C 4867.52 -0.656592 1.90502 0
M  V30 52343 O 4866.58 -1.42137 2.08694 0
M  V30 52344 C 4867.89 1.79839 2.40995 0
M  V30 52345 C 4869.44 1.81886 2.54728 0
M  V30 52346 C 4869.91 2.8516 3.58396 0
M  V30 52347 N 4871.4 2.84028 3.659 0
M  V30 52348 C 4872.14 3.60589 4.45829 0
M  V30 52349 N 4871.64 4.4689 5.29397 0
M  V30 52350 N 4873.43 3.49095 4.40556 0
M  V30 52351 H 4865.58 1.94821 0.84608 0
M  V30 52352 H 4867.84 0.842742 0.434155 0
M  V30 52353 H 4867.55 2.81105 2.1136 0
M  V30 52354 H 4867.42 1.62739 3.40288 0
M  V30 52355 H 4869.81 0.812936 2.83682 0
M  V30 52356 H 4869.89 2.03063 1.55561 0
M  V30 52357 H 4869.53 3.85929 3.30183 0
M  V30 52358 H 4869.46 2.6124 4.57232 0
M  V30 52359 H 4871.96 2.21441 3.06222 0
M  V30 52360 H 4872.27 5.02028 5.87527 0
M  V30 52361 H 4870.61 4.50959 5.2883 0
M  V30 52362 H 4873.8 2.81079 3.74315 0
M  V30 52363 H 4873.98 4.09011 5.02607 0
M  V30 52364 N 4867.38 -1.34838 0.815872 0
M  V30 52365 C 4868.62 -2.0032 0.406367 0
M  V30 52366 C 4868.99 -1.63296 -1.00986 0
M  V30 52367 O 4870.19 -2.21568 -1.52188 0
M  V30 52368 C 4868.46 -3.52419 0.594593 0
M  V30 52369 S 4870.02 -4.37926 0.276889 0
M  V30 52370 H 4866.84 -0.69415 0.153873 0
M  V30 52371 H 4869.44 -1.64259 1.06015 0
M  V30 52372 H 4868.14 -3.76852 1.62513 0
M  V30 52373 H 4867.67 -3.9333 -0.0741774 0
M  V30 52374 H 4869.69 -4.87746 -0.912043 0
M  V30 52375 N 4868.86 -0.570199 -1.46923 0
M  V30 52376 C 4870.27 -0.140266 -1.86172 0
M  V30 52377 C 4870.62 1.29342 -1.4753 0
M  V30 52378 O 4869.75 1.97504 -0.884361 0
M  V30 52379 C 4870.34 -0.247779 -3.37893 0
M  V30 52380 C 4868.9 0.1272 -3.76185 0
M  V30 52381 C 4868.05 -0.589444 -2.70963 0
M  V30 52382 H 4871 -0.779165 -1.38256 0
M  V30 52383 H 4871.02 0.530209 -3.76788 0
M  V30 52384 H 4870.53 -1.29133 -3.65987 0
M  V30 52385 H 4868.63 1.17137 -3.53709 0
M  V30 52386 H 4868.75 -0.240406 -4.78496 0
M  V30 52387 H 4867.11 -0.031072 -2.54681 0
M  V30 52388 H 4867.89 -1.63441 -3.01897 0
M  V30 52389 N 4870.34 1.54575 -0.307318 0
M  V30 52390 C 4871.75 1.85791 0.184055 0
M  V30 52391 C 4872.1 1.22919 1.52923 0
M  V30 52392 O 4871.23 0.5292 2.0983 0
M  V30 52393 C 4871.82 3.37082 0.340743 0
M  V30 52394 C 4870.38 3.68307 0.776336 0
M  V30 52395 C 4869.53 2.77075 -0.1116 0
M  V30 52396 H 4872.48 1.49654 -0.528131 0
M  V30 52397 H 4872.5 3.61926 1.17431 0
M  V30 52398 H 4872.01 3.82813 -0.638444 0
M  V30 52399 H 4870.11 3.28098 1.76585 0
M  V30 52400 H 4870.23 4.75437 0.591345 0
M  V30 52401 H 4868.59 2.51376 0.410168 0
M  V30 52402 H 4869.37 3.25628 -1.08726 0
M  V30 52403 N 4871.82 0.0351614 1.57561 0
M  V30 52404 C 4872.78 -0.929745 2.09496 0
M  V30 52405 C 4873.78 -1.25023 1.01124 0
M  V30 52406 O 4874.97 -1.18956 1.2726 0
M  V30 52407 C 4872.1 -2.24448 2.56585 0
M  V30 52408 H 4873.3 -0.479831 2.96037 0
M  V30 52409 H 4870.85 -0.212978 1.54842 0
M  V30 52410 H 4871.58 -2.74055 1.73391 0
M  V30 52411 H 4871.37 -2.02496 3.35765 0
M  V30 52412 H 4872.86 -2.93597 2.96969 0
M  V30 52413 N 4873.3 -1.55792 -0.238056 0
M  V30 52414 C 4874.52 -1.82102 -0.982169 0
M  V30 52415 C 4874.94 -0.612088 -1.78603 0
M  V30 52416 O 4874.3 0.419319 -1.77617 0
M  V30 52417 C 4874.35 -3.06737 -1.91298 0
M  V30 52418 O 4874.07 -4.22964 -1.14164 0
M  V30 52419 C 4875.57 -3.45912 -2.77235 0
M  V30 52420 H 4872.79 -0.605758 -0.288614 0
M  V30 52421 H 4875.33 -2.02863 -0.258269 0
M  V30 52422 H 4873.49 -2.88 -2.59104 0
M  V30 52423 H 4873.9 -4.93659 -1.77202 0
M  V30 52424 H 4875.38 -4.362 -3.3828 0
M  V30 52425 H 4875.85 -2.66903 -3.48797 0
M  V30 52426 H 4876.46 -3.67031 -2.14868 0
M  V30 52427 N 4874.77 0.504089 -1.49321 0
M  V30 52428 C 4875.72 1.60598 -1.65762 0
M  V30 52429 C 4876.69 1.58423 -0.499138 0
M  V30 52430 O 4877.88 1.76457 -0.72579 0
M  V30 52431 C 4875.02 2.98758 -1.72736 0
M  V30 52432 C 4874.13 3.10972 -2.99868 0
M  V30 52433 C 4873.26 4.39847 -2.9784 0
M  V30 52434 C 4872.3 4.45682 -4.19564 0
M  V30 52435 N 4871.44 5.65981 -4.15464 0
M  V30 52436 H 4876.28 1.45886 -2.59848 0
M  V30 52437 H 4873.82 0.709845 -1.28839 0
M  V30 52438 H 4875.77 3.78833 -1.7476 0
M  V30 52439 H 4874.4 3.1218 -0.821185 0
M  V30 52440 H 4873.46 2.2398 -3.07469 0
M  V30 52441 H 4874.77 3.11144 -3.8986 0
M  V30 52442 H 4873.92 5.28239 -2.9841 0
M  V30 52443 H 4872.66 4.42235 -2.0562 0
M  V30 52444 H 4871.67 3.55692 -4.19241 0
M  V30 52445 H 4872.89 4.45012 -5.12973 0
M  V30 52446 H 4870.84 5.69217 -3.26079 0
M  V30 52447 H 4870.75 5.67756 -4.99189 0
M  V30 52448 H 4872.02 6.56589 -4.20132 0
M  V30 52449 N 4876.25 1.38343 0.754909 0
M  V30 52450 C 4877.48 1.37888 1.54925 0
M  V30 52451 C 4877.9 -0.0295724 1.88077 0
M  V30 52452 O 4877.26 -1.01128 1.50476 0
M  V30 52453 C 4877.31 2.24006 2.82584 0
M  V30 52454 O 4876.41 1.65625 3.7768 0
M  V30 52455 H 4875.75 0.470401 0.468636 0
M  V30 52456 H 4878.28 1.82088 0.933018 0
M  V30 52457 H 4878.29 2.37818 3.31522 0
M  V30 52458 H 4876.97 3.26374 2.57785 0
M  V30 52459 H 4875.54 1.60948 3.36378 0
M  V30 52460 N 4877.73 -0.982945 1.23191 0
M  V30 52461 C 4878.68 -2.09612 1.00824 0
M  V30 52462 C 4879.67 -1.6932 -0.05194 0
M  V30 52463 O 4880.88 -1.79714 0.101348 0
M  V30 52464 H 4877.25 -0.685617 0.308923 0
M  V30 52465 H 4879.22 -2.25645 1.95261 0
M  V30 52466 C 4877.97 -3.42247 0.613364 0
M  V30 52467 H 4877.3 -3.737 1.42086 0
M  V30 52468 H 4878.74 -4.21085 0.496356 0
M  V30 52469 C 4877.19 -3.30005 -0.678117 0
M  V30 52470 O 4877.72 -3.62636 -1.72794 0
M  V30 52471 N 4875.93 -2.83167 -0.653065 0
M  V30 52472 H 4875.48 -2.5681 0.201582 0
M  V30 52473 H 4875.44 -2.75358 -1.51742 0
M  V30 52474 N 4879.21 -1.0432 -1.18132 0
M  V30 52475 C 4880.16 -0.636476 -2.2185 0
M  V30 52476 C 4881.13 0.356982 -1.62219 0
M  V30 52477 O 4882.31 0.250387 -1.8915 0
M  V30 52478 C 4879.45 -0.00824911 -3.45099 0
M  V30 52479 C 4878.56 -1.04948 -4.19058 0
M  V30 52480 C 4877.7 -0.3895 -5.2977 0
M  V30 52481 C 4876.74 -1.41565 -5.95505 0
M  V30 52482 N 4875.87 -0.780455 -6.97749 0
M  V30 52483 H 4880.71 -1.52545 -2.55996 0
M  V30 52484 H 4878.25 -0.763084 -1.25759 0
M  V30 52485 H 4880.21 0.373351 -4.15526 0
M  V30 52486 H 4878.84 0.844227 -3.11565 0
M  V30 52487 H 4877.89 -1.549 -3.47434 0
M  V30 52488 H 4879.2 -1.82878 -4.64066 0
M  V30 52489 H 4878.36 0.0461673 -6.06682 0
M  V30 52490 H 4877.1 0.421867 -4.85872 0
M  V30 52491 H 4876.1 -1.86142 -5.17331 0
M  V30 52492 H 4877.33 -2.22876 -6.41485 0
M  V30 52493 H 4875.27 0.0105593 -6.55999 0
M  V30 52494 H 4875.19 -1.49742 -7.41022 0
M  V30 52495 H 4876.46 -0.36927 -7.78625 0
M  V30 52496 N 4880.69 1.34403 -0.823012 0
M  V30 52497 C 4881.93 1.97891 -0.410314 0
M  V30 52498 C 4882.26 1.65571 1.03011 0
M  V30 52499 O 4881.53 0.946481 1.71518 0
M  V30 52500 H 4880.11 0.732043 -0.148733 0
M  V30 52501 H 4882.77 1.6404 -1.05248 0
M  V30 52502 H 4881.86 3.07577 -0.529392 0
M  V30 52503 N 4882.16 0.577983 1.46619 0
M  V30 52504 C 4883.11 -0.178789 2.27298 0
M  V30 52505 C 4884.1 -0.866231 1.35592 0
M  V30 52506 O 4885.29 -0.761107 1.598 0
M  V30 52507 C 4882.42 -1.19488 3.21835 0
M  V30 52508 C 4881.51 -0.509792 4.21025 0
M  V30 52509 N 4881.9 0.431947 5.03952 0
M  V30 52510 C 4880.19 -0.761133 4.39457 0
M  V30 52511 C 4880.9 0.831895 5.75721 0
M  V30 52512 N 4879.87 0.182088 5.43295 0
M  V30 52513 H 4883.67 0.54496 2.88803 0
M  V30 52514 H 4881.19 0.399428 1.57411 0
M  V30 52515 H 4883.18 -1.75118 3.78338 0
M  V30 52516 H 4881.84 -1.9195 2.61888 0
M  V30 52517 H 4882.86 0.807224 5.1157 0
M  V30 52518 H 4879.53 -1.47269 3.90664 0
M  V30 52519 H 4880.92 1.60693 6.52401 0
M  V30 52520 N 4883.64 -1.54409 0.315511 0
M  V30 52521 C 4884.58 -2.20268 -0.596445 0
M  V30 52522 C 4885.55 -1.17697 -1.12188 0
M  V30 52523 O 4886.74 -1.46402 -1.18739 0
M  V30 52524 C 4883.86 -2.85801 -1.81757 0
M  V30 52525 C 4882.91 -4.02022 -1.42409 0
M  V30 52526 S 4883.74 -5.33454 -0.467648 0
M  V30 52527 C 4884.9 -6.02477 -1.69624 0
M  V30 52528 H 4885.13 -2.97277 -0.0369851 0
M  V30 52529 H 4882.67 -1.54078 0.0996104 0
M  V30 52530 H 4884.62 -3.24181 -2.51827 0
M  V30 52531 H 4883.28 -2.08609 -2.34821 0
M  V30 52532 H 4882.48 -4.4671 -2.33381 0
M  V30 52533 H 4882.08 -3.65274 -0.803183 0
M  V30 52534 H 4884.37 -6.24166 -2.63482 0
M  V30 52535 H 4885.31 -6.96219 -1.29167 0
M  V30 52536 H 4885.72 -5.3229 -1.87956 0
M  V30 52537 N 4885.12 -0.0435168 -1.5754 0
M  V30 52538 C 4886.08 0.918622 -2.09986 0
M  V30 52539 C 4887.08 1.24485 -1.01785 0
M  V30 52540 O 4888.27 1.1828 -1.27889 0
M  V30 52541 C 4885.41 2.23084 -2.57772 0
M  V30 52542 H 4886.6 0.464125 -2.96287 0
M  V30 52543 H 4884.15 0.204763 -1.54953 0
M  V30 52544 H 4884.89 2.73131 -1.74842 0
M  V30 52545 H 4884.67 2.00712 -3.36834 0
M  V30 52546 H 4886.16 2.92018 -2.98522 0
M  V30 52547 N 4886.6 1.55916 0.229791 0
M  V30 52548 C 4887.82 1.82964 0.976678 0
M  V30 52549 C 4888.25 0.622798 1.7749 0
M  V30 52550 O 4887.61 -0.428369 1.76167 0
M  V30 52551 C 4887.65 3.07923 1.87659 0
M  V30 52552 O 4886.76 2.86039 2.97078 0
M  V30 52553 H 4886.1 0.603462 0.277 0
M  V30 52554 H 4888.63 2.03121 0.245597 0
M  V30 52555 H 4888.64 3.3781 2.28798 0
M  V30 52556 H 4887.31 3.95394 1.28982 0
M  V30 52557 H 4885.89 2.67364 2.59944 0
M  V30 52558 N 4888.08 -0.496163 1.49586 0
M  V30 52559 C 4889.04 -1.57946 1.6609 0
M  V30 52560 C 4890.04 -1.51727 0.532493 0
M  V30 52561 O 4891.23 -1.54793 0.799045 0
M  V30 52562 C 4888.36 -2.97598 1.66278 0
M  V30 52563 H 4889.55 -1.4464 2.62715 0
M  V30 52564 H 4887.11 -0.720751 1.3869 0
M  V30 52565 H 4887.84 -3.16375 0.712543 0
M  V30 52566 H 4887.63 -3.0352 2.4823 0
M  V30 52567 H 4889.12 -3.76294 1.81087 0
M  V30 52568 N 4889.55 -1.38742 -0.747561 0
M  V30 52569 C 4890.78 -1.38326 -1.53459 0
M  V30 52570 C 4891.19 0.0272799 -1.8918 0
M  V30 52571 O 4890.54 1.00583 -1.53717 0
M  V30 52572 C 4890.6 -2.18017 -2.85848 0
M  V30 52573 C 4890.26 -3.66772 -2.72631 0
M  V30 52574 C 4891.26 -4.60133 -2.42021 0
M  V30 52575 C 4888.94 -4.10203 -2.89895 0
M  V30 52576 C 4890.94 -5.94905 -2.28838 0
M  V30 52577 C 4888.62 -5.45054 -2.76331 0
M  V30 52578 C 4889.62 -6.37219 -2.45847 0
M  V30 52579 O 4889.31 -7.69589 -2.32353 0
M  V30 52580 H 4889.04 -0.474734 -0.481252 0
M  V30 52581 H 4891.6 -1.83015 -0.932453 0
M  V30 52582 H 4889.83 -1.68055 -3.48273 0
M  V30 52583 H 4891.52 -2.09933 -3.47394 0
M  V30 52584 H 4892.28 -4.27882 -2.28346 0
M  V30 52585 H 4888.16 -3.38808 -3.12618 0
M  V30 52586 H 4891.7 -6.6681 -2.04965 0
M  V30 52587 H 4887.6 -5.76899 -2.89581 0
M  V30 52588 H 4888.37 -7.80177 -2.47519 0
M  V30 52589 N 4891.03 0.976398 -1.2371 0
M  V30 52590 C 4891.96 2.07209 -0.979647 0
M  V30 52591 C 4892.98 1.6273 0.0477956 0
M  V30 52592 O 4894.17 1.77505 -0.188212 0
M  V30 52593 C 4891.27 3.35833 -0.454909 0
M  V30 52594 C 4890.44 4.09263 -1.54346 0
M  V30 52595 C 4889.5 5.16162 -1.02289 0
M  V30 52596 O 4888.52 5.42821 -1.71273 0
M  V30 52597 N 4889.73 5.80313 0.147215 0
M  V30 52598 H 4892.49 2.29871 -1.923 0
M  V30 52599 H 4890.05 1.14339 -1.14622 0
M  V30 52600 H 4892.04 4.04596 -0.0916053 0
M  V30 52601 H 4890.61 3.10108 0.393959 0
M  V30 52602 H 4889.83 3.34898 -2.07935 0
M  V30 52603 H 4891.12 4.55087 -2.27538 0
M  V30 52604 H 4890.52 5.61046 0.724155 0
M  V30 52605 H 4889.08 6.50233 0.451744 0
M  V30 52606 N 4892.51 1.04945 1.17577 0
M  V30 52607 C 4893.44 0.66925 2.23704 0
M  V30 52608 C 4894.42 -0.331777 1.66833 0
M  V30 52609 O 4895.61 -0.20992 1.93062 0
M  V30 52610 C 4892.74 0.040611 3.47276 0
M  V30 52611 C 4891.69 0.96613 4.16953 0
M  V30 52612 C 4891.02 0.2015 5.3432 0
M  V30 52613 C 4892.32 2.28918 4.69461 0
M  V30 52614 H 4894.01 1.55648 2.55762 0
M  V30 52615 H 4891.56 0.749836 1.22937 0
M  V30 52616 H 4893.51 -0.23715 4.20732 0
M  V30 52617 H 4892.23 -0.881547 3.14478 0
M  V30 52618 H 4890.89 1.22842 3.45406 0
M  V30 52619 H 4890.54 -0.723344 4.97772 0
M  V30 52620 H 4890.24 0.818173 5.81876 0
M  V30 52621 H 4891.76 -0.0690353 6.10561 0
M  V30 52622 H 4893.18 2.0715 5.34567 0
M  V30 52623 H 4891.58 2.8596 5.27586 0
M  V30 52624 H 4892.65 2.9295 3.86404 0
M  V30 52625 N 4893.99 -1.33965 0.830128 0
M  V30 52626 C 4894.95 -2.27693 0.26243 0
M  V30 52627 C 4895.95 -1.50591 -0.563823 0
M  V30 52628 O 4897.14 -1.7003 -0.378881 0
M  V30 52629 C 4894.27 -3.35004 -0.631262 0
M  V30 52630 H 4895.47 -2.79415 1.08938 0
M  V30 52631 H 4893.02 -1.44219 0.602537 0
M  V30 52632 H 4893.76 -2.88509 -1.48099 0
M  V30 52633 H 4893.54 -3.92079 -0.0401897 0
M  V30 52634 H 4895.03 -4.049 -1.02203 0
M  V30 52635 N 4895.47 -0.585751 -1.4631 0
M  V30 52636 C 4896.4 0.183607 -2.28463 0
M  V30 52637 C 4897.41 0.852591 -1.38689 0
M  V30 52638 O 4898.6 0.721643 -1.63262 0
M  V30 52639 C 4895.7 1.27966 -3.13812 0
M  V30 52640 C 4894.87 0.702012 -4.3173 0
M  V30 52641 C 4893.93 1.68615 -4.98453 0
M  V30 52642 O 4892.96 1.22101 -5.5595 0
M  V30 52643 N 4894.16 3.0203 -4.9574 0
M  V30 52644 H 4896.93 -0.52123 -2.95133 0
M  V30 52645 H 4894.49 -0.423728 -1.56257 0
M  V30 52646 H 4896.48 1.93737 -3.55314 0
M  V30 52647 H 4895.05 1.88731 -2.49197 0
M  V30 52648 H 4894.27 -0.133239 -3.93975 0
M  V30 52649 H 4895.56 0.295923 -5.07939 0
M  V30 52650 H 4894.96 3.42441 -4.50278 0
M  V30 52651 H 4893.51 3.63282 -5.41174 0
M  V30 52652 N 4896.95 1.5424 -0.323695 0
M  V30 52653 C 4898.19 2.00175 0.278289 0
M  V30 52654 C 4898.51 1.21346 1.52644 0
M  V30 52655 O 4897.78 0.315312 1.93346 0
M  V30 52656 H 4896.36 0.739467 0.105819 0
M  V30 52657 H 4899.03 1.89862 -0.440271 0
M  V30 52658 H 4898.12 3.07487 0.534592 0
M  V30 52659 N 4898.42 0.0518709 1.57515 0
M  V30 52660 C 4899.37 -0.94012 2.12755 0
M  V30 52661 C 4900.37 -1.32176 1.05952 0
M  V30 52662 O 4901.57 -1.30133 1.2436 0
M  V30 52663 H 4897.95 -0.321042 0.680027 0
M  V30 52664 H 4899.92 -0.449113 2.95001 0
M  V30 52665 C 4898.67 -2.2054 2.68807 0
M  V30 52666 H 4897.99 -1.92054 3.5065 0
M  V30 52667 H 4899.43 -2.88108 3.11078 0
M  V30 52668 C 4897.89 -2.95055 1.62616 0
M  V30 52669 O 4898.42 -3.88021 1.03935 0
M  V30 52670 N 4896.62 -2.57799 1.3412 0
M  V30 52671 H 4896.17 -1.82275 1.82026 0
M  V30 52672 H 4896.13 -3.07962 0.632981 0
M  V30 52673 N 4899.9 -1.56035 -0.221519 0
M  V30 52674 C 4901.15 -1.80224 -0.94291 0
M  V30 52675 C 4901.5 -0.624863 -1.8197 0
M  V30 52676 O 4900.8 0.381079 -1.87772 0
M  V30 52677 C 4900.99 -3.07819 -1.8161 0
M  V30 52678 C 4900.82 -4.37855 -1.02532 0
M  V30 52679 C 4899.59 -5.00141 -0.720243 0
M  V30 52680 C 4901.79 -5.12814 -0.390619 0
M  V30 52681 N 4899.77 -6.13831 0.0919297 0
M  V30 52682 C 4901.14 -6.19345 0.284946 0
M  V30 52683 C 4903.19 -4.96973 -0.303654 0
M  V30 52684 C 4901.9 -7.11754 1.03916 0
M  V30 52685 C 4903.92 -5.89783 0.437091 0
M  V30 52686 C 4903.29 -6.95739 1.1012 0
M  V30 52687 H 4899.38 -0.711129 -0.3253 0
M  V30 52688 H 4901.97 -1.93523 -0.213786 0
M  V30 52689 H 4900.14 -2.95804 -2.51704 0
M  V30 52690 H 4901.87 -3.20199 -2.47496 0
M  V30 52691 H 4898.63 -4.62079 -1.03827 0
M  V30 52692 H 4899.05 -6.75247 0.486852 0
M  V30 52693 H 4903.69 -4.15109 -0.80275 0
M  V30 52694 H 4901.41 -7.931 1.54977 0
M  V30 52695 H 4905 -5.79601 0.505384 0
M  V30 52696 H 4903.88 -7.66316 1.66522 0
M  V30 52697 N 4901.38 0.488223 -1.49847 0
M  V30 52698 C 4902.29 1.61445 -1.70213 0
M  V30 52699 C 4903.31 1.63875 -0.584904 0
M  V30 52700 O 4904.48 1.8206 -0.861171 0
M  V30 52701 C 4901.55 2.97754 -1.77605 0
M  V30 52702 C 4900.61 3.0585 -3.01254 0
M  V30 52703 C 4899.84 4.35657 -3.08284 0
M  V30 52704 O 4900.06 5.25189 -2.22559 0
M  V30 52705 O 4899 4.48991 -4.00863 0
M  V30 52706 H 4902.82 1.4719 -2.65648 0
M  V30 52707 H 4900.41 0.665892 -1.33739 0
M  V30 52708 H 4902.29 3.78744 -1.84746 0
M  V30 52709 H 4900.97 3.12245 -0.853509 0
M  V30 52710 H 4899.87 2.24001 -2.99624 0
M  V30 52711 H 4901.21 2.96291 -3.9303 0
M  V30 52712 N 4902.86 1.39136 0.740193 0
M  V30 52713 C 4904.27 1.32213 1.31821 0
M  V30 52714 C 4904.62 -0.0159229 1.96194 0
M  V30 52715 O 4903.74 -0.918042 1.95962 0
M  V30 52716 C 4904.34 2.39445 2.39691 0
M  V30 52717 C 4902.9 2.36058 2.93178 0
M  V30 52718 C 4902.05 2.21605 1.66693 0
M  V30 52719 H 4905 1.493 0.53808 0
M  V30 52720 H 4905.02 2.05933 3.19956 0
M  V30 52721 H 4904.53 3.36818 1.9281 0
M  V30 52722 H 4902.63 1.42307 3.44354 0
M  V30 52723 H 4902.74 3.30716 3.46646 0
M  V30 52724 H 4901.11 1.68688 1.90831 0
M  V30 52725 H 4901.89 3.2094 1.21871 0
M  V30 52726 N 4904.34 -0.969824 1.24226 0
M  V30 52727 C 4905.27 -2.08187 1.05737 0
M  V30 52728 C 4906.25 -1.70075 -0.0290167 0
M  V30 52729 O 4907.43 -1.93712 0.137651 0
M  V30 52730 C 4904.56 -3.40988 0.659114 0
M  V30 52731 C 4903.52 -3.93048 1.69403 0
M  V30 52732 C 4902.84 -5.22167 1.1509 0
M  V30 52733 C 4904.14 -4.21126 3.0895 0
M  V30 52734 H 4905.84 -2.23914 1.98753 0
M  V30 52735 H 4903.38 -1.07598 0.957005 0
M  V30 52736 H 4905.33 -4.18219 0.516767 0
M  V30 52737 H 4904.06 -3.25156 -0.306745 0
M  V30 52738 H 4902.72 -3.17971 1.82455 0
M  V30 52739 H 4902.37 -5.02693 0.175715 0
M  V30 52740 H 4902.07 -5.57966 1.84248 0
M  V30 52741 H 4903.59 -6.0201 1.02063 0
M  V30 52742 H 4905 -4.8907 2.99139 0
M  V30 52743 H 4903.4 -4.68149 3.75441 0
M  V30 52744 H 4904.47 -3.27983 3.57148 0
M  V30 52745 N 4905.81 -1.05567 -1.17018 0
M  V30 52746 C 4907.06 -0.766485 -1.87001 0
M  V30 52747 C 4907.38 0.70879 -1.81662 0
M  V30 52748 O 4906.65 1.51237 -1.24515 0
M  V30 52749 H 4905.23 -0.280541 -0.692319 0
M  V30 52750 H 4907.89 -1.33562 -1.41941 0
M  V30 52751 H 4906.99 -1.08482 -2.9264 0
M  V30 52752 N 4907.29 1.33523 -0.837221 0
M  V30 52753 C 4908.53 1.99648 -0.438185 0
M  V30 52754 C 4908.9 1.64882 0.983758 0
M  V30 52755 O 4910.1 2.23961 1.48643 0
M  V30 52756 C 4908.37 3.51429 -0.650585 0
M  V30 52757 S 4909.93 4.3743 -0.346524 0
M  V30 52758 H 4906.74 0.691614 -0.164897 0
M  V30 52759 H 4909.35 1.62552 -1.08615 0
M  V30 52760 H 4908.05 3.74219 -1.68488 0
M  V30 52761 H 4907.58 3.93398 0.0115926 0
M  V30 52762 H 4909.6 4.89135 0.834332 0
M  V30 52763 N 4908.77 0.593501 1.45998 0
M  V30 52764 C 4910.02 0.083059 2.01929 0
M  V30 52765 C 4910.34 -1.28564 1.46616 0
M  V30 52766 O 4909.61 -1.84626 0.654974 0
M  V30 52767 H 4908.19 0.0277145 0.746486 0
M  V30 52768 H 4910.85 0.77172 1.78971 0
M  V30 52769 H 4909.95 0.0221887 3.12092 0
M  V30 52770 N 4910.25 -1.54066 0.33187 0
M  V30 52771 C 4911.49 -2.01013 -0.268596 0
M  V30 52772 C 4911.83 -1.21955 -1.51131 0
M  V30 52773 O 4911.1 -0.304039 -1.92109 0
M  V30 52774 C 4911.39 -3.5516 -0.594435 0
M  V30 52775 C 4911.24 -4.44938 0.659565 0
M  V30 52776 C 4912.56 -4.16944 -1.40876 0
M  V30 52777 H 4909.68 -0.730701 -0.0961499 0
M  V30 52778 H 4912.32 -1.84592 0.450095 0
M  V30 52779 H 4910.47 -3.69284 -1.20672 0
M  V30 52780 H 4912.14 -4.4267 1.29771 0
M  V30 52781 H 4910.38 -4.14275 1.2868 0
M  V30 52782 H 4911.05 -5.50642 0.386998 0
M  V30 52783 H 4913.53 -4.06446 -0.891129 0
M  V30 52784 H 4912.41 -5.24895 -1.6055 0
M  V30 52785 H 4912.67 -3.70806 -2.40739 0
M  V30 52786 N 4911.73 -0.0602235 -1.57485 0
M  V30 52787 C 4912.68 0.920896 -2.08575 0
M  V30 52788 C 4913.66 1.26613 -0.992872 0
M  V30 52789 O 4914.85 1.24704 -1.2561 0
M  V30 52790 C 4911.98 2.19258 -2.64161 0
M  V30 52791 C 4911.07 1.87433 -3.80433 0
M  V30 52792 N 4911.46 1.26008 -4.89853 0
M  V30 52793 C 4909.76 2.17251 -3.8951 0
M  V30 52794 C 4910.46 1.12016 -5.70813 0
M  V30 52795 N 4909.43 1.62606 -5.1871 0
M  V30 52796 H 4913.24 0.441459 -2.90566 0
M  V30 52797 H 4910.75 0.143986 -1.6176 0
M  V30 52798 H 4912.75 2.90451 -2.99071 0
M  V30 52799 H 4911.41 2.678 -1.83612 0
M  V30 52800 H 4912.42 0.931157 -5.0946 0
M  V30 52801 H 4909.09 2.68251 -3.19919 0
M  V30 52802 H 4910.48 0.642548 -6.68821 0
M  V30 52803 N 4913.2 1.56151 0.213241 0
M  V30 52804 C 4914.13 1.96114 1.26735 0
M  V30 52805 C 4915.12 0.830501 1.48448 0
M  V30 52806 O 4916.3 1.09345 1.60491 0
M  V30 52807 C 4913.43 2.28501 2.61543 0
M  V30 52808 C 4912.38 3.44133 2.54473 0
M  V30 52809 C 4911.71 3.62148 3.93387 0
M  V30 52810 C 4913.01 4.78862 2.08539 0
M  V30 52811 H 4914.7 2.84415 0.935334 0
M  V30 52812 H 4912.25 1.36838 0.448492 0
M  V30 52813 H 4914.2 2.55051 3.35451 0
M  V30 52814 H 4912.93 1.37062 2.96448 0
M  V30 52815 H 4911.59 3.17646 1.83021 0
M  V30 52816 H 4911.23 2.6807 4.25614 0
M  V30 52817 H 4910.93 4.39927 3.89536 0
M  V30 52818 H 4912.46 3.91054 4.68944 0
M  V30 52819 H 4913.87 5.04562 2.72195 0
M  V30 52820 H 4912.27 5.59983 2.1573 0
M  V30 52821 H 4913.34 4.73661 1.03794 0
M  V30 52822 N 4914.68 -0.48027 1.50104 0
M  V30 52823 C 4915.93 -1.23057 1.60316 0
M  V30 52824 C 4916.25 -1.92658 0.301294 0
M  V30 52825 O 4915.52 -1.83694 -0.680689 0
M  V30 52826 H 4914.1 -0.45721 0.590735 0
M  V30 52827 H 4916.76 -0.554827 1.86836 0
M  V30 52828 H 4915.86 -1.98342 2.40971 0
M  V30 52829 N 4916.16 -1.39527 -0.732804 0
M  V30 52830 C 4917.39 -1.40149 -1.52204 0
M  V30 52831 C 4917.8 0.00342199 -1.888 0
M  V30 52832 O 4917.16 0.975303 -1.54253 0
M  V30 52833 C 4917.21 -2.27642 -2.80822 0
M  V30 52834 O 4916.93 -3.62662 -2.4578 0
M  V30 52835 C 4918.43 -2.36671 -3.74836 0
M  V30 52836 H 4915.65 -0.478621 -0.47028 0
M  V30 52837 H 4918.2 -1.83369 -0.905324 0
M  V30 52838 H 4916.35 -1.87829 -3.3882 0
M  V30 52839 H 4916.77 -4.08953 -3.28417 0
M  V30 52840 H 4918.24 -3.02134 -4.61973 0
M  V30 52841 H 4918.72 -1.38653 -4.1674 0
M  V30 52842 H 4919.32 -2.76963 -3.22756 0
M  V30 52843 N 4917.64 0.963222 -1.24739 0
M  V30 52844 C 4918.89 1.70111 -1.08375 0
M  V30 52845 C 4919.2 1.9194 0.37662 0
M  V30 52846 O 4920.41 2.63342 0.660532 0
M  V30 52847 C 4918.86 3.06212 -1.89109 0
M  V30 52848 C 4918.47 2.92209 -3.39585 0
M  V30 52849 C 4920.21 3.83842 -1.81289 0
M  V30 52850 C 4918.12 4.23648 -4.12646 0
M  V30 52851 H 4917.05 0.63793 -0.401947 0
M  V30 52852 H 4919.7 1.07299 -1.4886 0
M  V30 52853 H 4918.08 3.69879 -1.41442 0
M  V30 52854 H 4919.26 2.37527 -3.94864 0
M  V30 52855 H 4917.57 2.28041 -3.48405 0
M  V30 52856 H 4920.17 4.81179 -2.33175 0
M  V30 52857 H 4920.51 4.08946 -0.779039 0
M  V30 52858 H 4921.05 3.2691 -2.2666 0
M  V30 52859 H 4917.79 4.03735 -5.16409 0
M  V30 52860 H 4917.31 4.78128 -3.62152 0
M  V30 52861 H 4918.98 4.92241 -4.1989 0
M  V30 52862 N 4919.12 1.06186 1.16457 0
M  V30 52863 C 4920.53 0.802485 1.68574 0
M  V30 52864 C 4920.88 -0.674055 1.84258 0
M  V30 52865 O 4920 -1.52297 1.53735 0
M  V30 52866 C 4920.6 1.45013 3.06197 0
M  V30 52867 C 4919.16 1.23855 3.55439 0
M  V30 52868 C 4918.3 1.52732 2.31448 0
M  V30 52869 H 4921.26 1.22549 1.00834 0
M  V30 52870 H 4921.28 0.864861 3.70541 0
M  V30 52871 H 4920.79 2.52476 2.9475 0
M  V30 52872 H 4918.89 0.183618 3.72147 0
M  V30 52873 H 4919 1.95052 4.37598 0
M  V30 52874 H 4917.37 0.947809 2.36408 0
M  V30 52875 H 4918.15 2.61351 2.226 0
M  V30 52876 N 4920.59 -1.33077 0.84429 0
M  V30 52877 C 4921.56 -2.27402 0.286565 0
M  V30 52878 C 4922.56 -1.51181 -0.547819 0
M  V30 52879 O 4923.75 -1.70422 -0.360826 0
M  V30 52880 C 4920.88 -3.35655 -0.595695 0
M  V30 52881 H 4922.07 -2.78244 1.11895 0
M  V30 52882 H 4919.63 -1.43572 0.617799 0
M  V30 52883 H 4920.36 -2.90063 -1.4503 0
M  V30 52884 H 4920.15 -3.921 0.00139779 0
M  V30 52885 H 4921.64 -4.05962 -0.979026 0
M  V30 52886 N 4922.07 -0.601236 -1.45681 0
M  V30 52887 C 4923.49 -0.264371 -1.57395 0
M  V30 52888 C 4923.69 1.23318 -1.59358 0
M  V30 52889 O 4922.74 2.01589 -1.52046 0
M  V30 52890 C 4924.06 -0.929939 -2.85959 0
M  V30 52891 C 4925.61 -0.905261 -2.99623 0
M  V30 52892 C 4926.08 -1.55072 -4.30949 0
M  V30 52893 N 4927.57 -1.51591 -4.37692 0
M  V30 52894 C 4928.31 -1.98455 -5.37962 0
M  V30 52895 N 4927.8 -2.53375 -6.44805 0
M  V30 52896 N 4929.6 -1.89261 -5.2928 0
M  V30 52897 H 4921.75 -1.57368 -1.42651 0
M  V30 52898 H 4924.01 -0.658855 -0.681626 0
M  V30 52899 H 4923.72 -1.98414 -2.90387 0
M  V30 52900 H 4923.59 -0.449355 -3.74514 0
M  V30 52901 H 4925.98 0.140377 -2.94766 0
M  V30 52902 H 4926.06 -1.42405 -2.12496 0
M  V30 52903 H 4925.7 -2.59565 -4.36564 0
M  V30 52904 H 4925.63 -1.00701 -5.16882 0
M  V30 52905 H 4928.12 -1.11465 -3.61087 0
M  V30 52906 H 4928.44 -2.86944 -7.17554 0
M  V30 52907 H 4926.78 -2.57411 -6.45573 0
M  V30 52908 H 4929.97 -1.46099 -4.44717 0
M  V30 52909 H 4930.14 -2.26097 -6.07276 0
M  V30 52910 N 4923.55 1.53888 -0.340036 0
M  V30 52911 C 4924.97 1.59595 0.0120191 0
M  V30 52912 C 4925.17 1.35611 1.49037 0
M  V30 52913 O 4924.22 1.14863 2.24861 0
M  V30 52914 C 4925.54 2.97738 -0.421003 0
M  V30 52915 C 4927.08 3.10769 -0.37305 0
M  V30 52916 C 4927.56 4.51283 -0.781486 0
M  V30 52917 N 4929.05 4.57323 -0.735534 0
M  V30 52918 C 4929.79 5.6419 -1.02356 0
M  V30 52919 N 4929.28 6.78925 -1.37957 0
M  V30 52920 N 4931.07 5.54048 -0.948033 0
M  V30 52921 H 4923.23 1.67733 -1.30305 0
M  V30 52922 H 4925.49 0.785367 -0.530945 0
M  V30 52923 H 4925.19 3.20344 -1.45164 0
M  V30 52924 H 4925.07 3.76639 0.205588 0
M  V30 52925 H 4927.46 2.87888 0.648404 0
M  V30 52926 H 4927.54 2.33935 -1.0348 0
M  V30 52927 H 4927.18 4.74899 -1.80093 0
M  V30 52928 H 4927.11 5.2651 -0.097253 0
M  V30 52929 H 4929.6 3.74929 -0.472905 0
M  V30 52930 H 4929.91 7.56386 -1.58428 0
M  V30 52931 H 4928.26 6.80381 -1.41798 0
M  V30 52932 H 4931.45 4.63291 -0.669278 0
M  V30 52933 H 4931.62 6.37242 -1.17585 0
M  V30 52934 N 4925.03 0.0685745 1.57451 0
M  V30 52935 C 4926.28 -0.602171 1.93654 0
M  V30 52936 C 4926.61 -1.69456 0.948586 0
M  V30 52937 O 4925.88 -1.94487 -0.0227136 0
M  V30 52938 C 4926.17 -1.18211 3.40144 0
M  V30 52939 C 4926.02 -0.096585 4.49696 0
M  V30 52940 C 4927.34 -2.08858 3.87384 0
M  V30 52941 H 4924.46 -0.217428 0.704197 0
M  V30 52942 H 4927.1 0.133887 1.89528 0
M  V30 52943 H 4925.25 -1.80941 3.43791 0
M  V30 52944 H 4926.92 0.536316 4.58172 0
M  V30 52945 H 4925.16 0.573214 4.29996 0
M  V30 52946 H 4925.84 -0.542701 5.49326 0
M  V30 52947 H 4928.31 -1.56067 3.85723 0
M  V30 52948 H 4927.19 -2.46372 4.90502 0
M  V30 52949 H 4927.45 -2.99561 3.2514 0
M  V30 52950 N 4926.51 -1.56262 -0.204957 0
M  V30 52951 C 4927.45 -1.93759 -1.25404 0
M  V30 52952 C 4928.42 -0.796877 -1.45736 0
M  V30 52953 O 4929.61 -1.0542 -1.59032 0
M  V30 52954 C 4926.75 -2.27392 -2.5959 0
M  V30 52955 C 4925.86 -3.54479 -2.46918 0
M  V30 52956 C 4925 -3.77481 -3.7374 0
M  V30 52957 C 4924.04 -4.98026 -3.5586 0
M  V30 52958 N 4923.17 -5.17332 -4.7467 0
M  V30 52959 H 4928.01 -2.83206 -0.92727 0
M  V30 52960 H 4925.55 -1.40159 -0.446525 0
M  V30 52961 H 4927.51 -2.44906 -3.37752 0
M  V30 52962 H 4926.14 -1.41098 -2.9033 0
M  V30 52963 H 4925.19 -3.45067 -1.60104 0
M  V30 52964 H 4926.5 -4.42797 -2.29635 0
M  V30 52965 H 4925.66 -3.95181 -4.60344 0
M  V30 52966 H 4924.4 -2.87475 -3.93966 0
M  V30 52967 H 4923.4 -4.80259 -2.67641 0
M  V30 52968 H 4924.63 -5.89532 -3.37088 0
M  V30 52969 H 4922.57 -4.30272 -4.95179 0
M  V30 52970 H 4922.49 -5.99812 -4.60175 0
M  V30 52971 H 4923.76 -5.39483 -5.62653 0
M  V30 52972 N 4927.99 0.472303 -1.50356 0
M  V30 52973 C 4929.23 1.22124 -1.60526 0
M  V30 52974 C 4929.55 1.93119 -0.310534 0
M  V30 52975 O 4930.75 2.69935 -0.291124 0
M  V30 52976 C 4929.21 2.21899 -2.83353 0
M  V30 52977 C 4928.82 1.56712 -4.19697 0
M  V30 52978 C 4930.56 2.97442 -3.02867 0
M  V30 52979 C 4928.47 2.54766 -5.33712 0
M  V30 52980 H 4927.4 0.459522 -0.597792 0
M  V30 52981 H 4930.05 0.49186 -1.76785 0
M  V30 52982 H 4928.43 2.98123 -2.6065 0
M  V30 52983 H 4929.61 0.862848 -4.5265 0
M  V30 52984 H 4927.92 0.934542 -4.05777 0
M  V30 52985 H 4930.52 3.70824 -3.85218 0
M  V30 52986 H 4930.86 3.56757 -2.14547 0
M  V30 52987 H 4931.39 2.28331 -3.25745 0
M  V30 52988 H 4928.13 2.00192 -6.24182 0
M  V30 52989 H 4927.65 3.23349 -5.05179 0
M  V30 52990 H 4929.33 3.16619 -5.64235 0
M  V30 52991 N 4929.46 1.39914 0.725394 0
M  V30 52992 C 4930.41 1.35884 1.83083 0
M  V30 52993 C 4931.4 0.238045 1.59129 0
M  V30 52994 O 4932.59 0.476362 1.70469 0
M  V30 52995 C 4929.72 1.21415 3.21113 0
M  V30 52996 C 4928.8 2.38235 3.50863 0
M  V30 52997 N 4929.2 3.63715 3.51489 0
M  V30 52998 C 4927.49 2.31402 3.81273 0
M  V30 52999 C 4928.19 4.41023 3.79306 0
M  V30 53000 N 4927.17 3.70734 3.97564 0
M  V30 53001 H 4930.97 2.30856 1.81886 0
M  V30 53002 H 4928.49 1.33546 0.924078 0
M  V30 53003 H 4930.48 1.16611 4.00259 0
M  V30 53004 H 4929.14 0.274015 3.23542 0
M  V30 53005 H 4930.15 3.97009 3.32572 0
M  V30 53006 H 4926.83 1.45702 3.91251 0
M  V30 53007 H 4928.22 5.49833 3.86178 0
M  V30 53008 N 4930.94 -0.956593 1.25248 0
M  V30 53009 C 4932.35 -1.51565 1.09018 0
M  V30 53010 C 4932.7 -1.93323 -0.334745 0
M  V30 53011 O 4931.83 -1.78425 -1.22448 0
M  V30 53012 C 4932.42 -2.75437 1.97281 0
M  V30 53013 C 4930.98 -3.27662 1.85242 0
M  V30 53014 C 4930.13 -2.0051 1.91549 0
M  V30 53015 H 4933.08 -0.773697 1.38563 0
M  V30 53016 H 4933.1 -3.49184 1.51164 0
M  V30 53017 H 4932.61 -2.45014 3.00981 0
M  V30 53018 H 4930.71 -3.62911 0.844172 0
M  V30 53019 H 4930.83 -3.95811 2.69945 0
M  V30 53020 H 4929.19 -2.15722 1.35411 0
M  V30 53021 H 4929.97 -1.72437 2.96851 0
M  V30 53022 N 4932.42 -1.06802 -1.15892 0
M  V30 53023 C 4933.65 -0.807588 -1.90162 0
M  V30 53024 C 4934.06 0.642354 -1.77962 0
M  V30 53025 O 4933.4 1.45189 -1.12542 0
M  V30 53026 C 4933.46 -1.12951 -3.41295 0
M  V30 53027 C 4933.13 -2.57892 -3.77281 0
M  V30 53028 C 4934.12 -3.56131 -3.7877 0
M  V30 53029 C 4931.81 -2.93325 -4.07757 0
M  V30 53030 C 4933.8 -4.87842 -4.10231 0
M  V30 53031 C 4931.49 -4.25234 -4.38884 0
M  V30 53032 C 4932.49 -5.22302 -4.40101 0
M  V30 53033 O 4932.18 -6.51843 -4.70485 0
M  V30 53034 H 4931.91 -0.291968 -0.609697 0
M  V30 53035 H 4934.46 -1.42632 -1.47801 0
M  V30 53036 H 4932.69 -0.453725 -3.84029 0
M  V30 53037 H 4934.38 -0.852503 -3.96847 0
M  V30 53038 H 4935.15 -3.30099 -3.5533 0
M  V30 53039 H 4931.03 -2.18423 -4.05971 0
M  V30 53040 H 4934.57 -5.63601 -4.11096 0
M  V30 53041 H 4930.47 -4.51022 -4.61789 0
M  V30 53042 H 4931.23 -6.5691 -4.88274 0
M  V30 53043 N 4933.9 1.32627 -0.851335 0
M  V30 53044 C 4934.81 2.32721 -0.29635 0
M  V30 53045 C 4935.82 1.63903 0.584105 0
M  V30 53046 O 4937 1.95466 0.485265 0
M  V30 53047 C 4934.06 3.42944 0.508982 0
M  V30 53048 C 4933.13 4.27458 -0.397219 0
M  V30 53049 C 4932.36 5.32417 0.369772 0
M  V30 53050 O 4932.58 5.47497 1.60011 0
M  V30 53051 O 4931.52 6.01326 -0.262705 0
M  V30 53052 H 4935.34 2.82074 -1.12553 0
M  V30 53053 H 4932.93 1.36192 -0.614182 0
M  V30 53054 H 4934.81 4.10174 0.966195 0
M  V30 53055 H 4933.48 2.95786 1.31501 0
M  V30 53056 H 4932.39 3.6305 -0.902538 0
M  V30 53057 H 4933.72 4.78132 -1.16835 0
M  V30 53058 N 4935.38 0.608953 1.4536 0
M  V30 53059 C 4936.34 -0.0991758 2.28985 0
M  V30 53060 C 4937.34 -0.793792 1.39841 0
M  V30 53061 O 4938.53 -0.641747 1.61948 0
M  V30 53062 C 4935.66 -1.15061 3.20895 0
M  V30 53063 H 4936.85 0.636067 2.93077 0
M  V30 53064 H 4934.41 0.368061 1.51905 0
M  V30 53065 H 4935.14 -1.91658 2.61606 0
M  V30 53066 H 4934.93 -0.656731 3.86561 0
M  V30 53067 H 4936.42 -1.64651 3.8377 0
M  V30 53068 N 4936.85 -1.53705 0.348193 0
M  V30 53069 C 4938.08 -2.05109 -0.247792 0
M  V30 53070 C 4938.49 -1.22257 -1.44395 0
M  V30 53071 O 4937.83 -0.251917 -1.81964 0
M  V30 53072 C 4937.9 -3.52174 -0.722063 0
M  V30 53073 C 4937.56 -4.55619 0.355062 0
M  V30 53074 C 4938.56 -5.05879 1.19928 0
M  V30 53075 C 4936.24 -4.99701 0.510321 0
M  V30 53076 C 4938.24 -5.98806 2.18427 0
M  V30 53077 C 4935.92 -5.92438 1.49869 0
M  V30 53078 C 4936.92 -6.41879 2.33411 0
M  V30 53079 O 4936.61 -7.3279 3.30565 0
M  V30 53080 H 4936.34 -0.674088 -0.0508059 0
M  V30 53081 H 4938.9 -1.99228 0.49975 0
M  V30 53082 H 4937.13 -3.55534 -1.52092 0
M  V30 53083 H 4938.81 -3.86524 -1.23911 0
M  V30 53084 H 4939.58 -4.72583 1.09044 0
M  V30 53085 H 4935.46 -4.60816 -0.130112 0
M  V30 53086 H 4939 -6.3732 2.83672 0
M  V30 53087 H 4934.9 -6.25149 1.60808 0
M  V30 53088 H 4935.67 -7.50738 3.26091 0
M  V30 53089 N 4938.33 -0.0769235 -1.57412 0
M  V30 53090 C 4939.26 0.88595 -2.1604 0
M  V30 53091 C 4940.24 1.30687 -1.08881 0
M  V30 53092 O 4941.43 1.377 -1.36939 0
M  V30 53093 C 4938.56 2.1517 -2.72615 0
M  V30 53094 C 4937.51 1.87002 -3.84986 0
M  V30 53095 C 4936.84 3.20251 -4.28186 0
M  V30 53096 C 4938.14 1.17125 -5.08998 0
M  V30 53097 H 4939.83 0.397537 -2.96749 0
M  V30 53098 H 4937.38 0.189773 -1.42744 0
M  V30 53099 H 4939.33 2.82951 -3.12276 0
M  V30 53100 H 4938.06 2.66263 -1.89134 0
M  V30 53101 H 4936.71 1.21624 -3.45837 0
M  V30 53102 H 4936.36 3.69195 -3.4162 0
M  V30 53103 H 4936.06 3.02193 -5.03938 0
M  V30 53104 H 4937.59 3.89221 -4.70467 0
M  V30 53105 H 4939 1.74984 -5.45943 0
M  V30 53106 H 4937.4 1.09307 -5.90061 0
M  V30 53107 H 4938.47 0.151125 -4.84664 0
M  V30 53108 N 4939.81 1.56368 0.196667 0
M  V30 53109 C 4940.76 1.94421 1.24375 0
M  V30 53110 C 4941.73 0.804594 1.45312 0
M  V30 53111 O 4942.91 1.06262 1.58471 0
M  V30 53112 C 4940.05 2.28766 2.5838 0
M  V30 53113 C 4939.17 3.55783 2.45035 0
M  V30 53114 C 4938.3 3.79458 3.71733 0
M  V30 53115 C 4937.34 4.99906 3.53214 0
M  V30 53116 N 4936.48 5.19842 4.7192 0
M  V30 53117 H 4941.32 2.83694 0.912238 0
M  V30 53118 H 4938.85 1.40394 0.439086 0
M  V30 53119 H 4940.81 2.46694 3.36449 0
M  V30 53120 H 4939.44 1.42635 2.89577 0
M  V30 53121 H 4938.49 3.45911 1.58272 0
M  V30 53122 H 4939.81 4.44008 2.27284 0
M  V30 53123 H 4938.96 3.97617 4.58242 0
M  V30 53124 H 4937.7 2.8956 3.92436 0
M  V30 53125 H 4936.7 4.81671 2.6509 0
M  V30 53126 H 4937.93 5.91312 3.33957 0
M  V30 53127 H 4935.87 4.32892 4.9289 0
M  V30 53128 H 4935.79 6.02244 4.56988 0
M  V30 53129 H 4937.06 5.42459 5.59784 0
M  V30 53130 N 4941.29 -0.464322 1.50605 0
M  V30 53131 C 4942.22 -1.56938 1.72895 0
M  V30 53132 C 4943.2 -1.59977 0.578053 0
M  V30 53133 O 4944.38 -1.76136 0.817917 0
M  V30 53134 C 4941.51 -2.95218 1.8293 0
M  V30 53135 C 4940.47 -3.07046 2.98172 0
M  V30 53136 C 4939.79 -4.4704 2.93358 0
M  V30 53137 C 4941.09 -2.83632 4.38577 0
M  V30 53138 H 4942.79 -1.38538 2.6542 0
M  V30 53139 H 4940.33 -0.665037 1.27723 0
M  V30 53140 H 4942.29 -3.7246 1.97108 0
M  V30 53141 H 4941.01 -3.1479 0.870319 0
M  V30 53142 H 4939.67 -2.32238 2.83656 0
M  V30 53143 H 4939.32 -4.63541 1.95292 0
M  V30 53144 H 4939.02 -4.55888 3.70728 0
M  V30 53145 H 4940.54 -5.26293 3.09594 0
M  V30 53146 H 4941.96 -3.5062 4.53584 0
M  V30 53147 H 4940.35 -3.03919 5.17449 0
M  V30 53148 H 4941.42 -1.79435 4.50479 0
M  V30 53149 N 4942.77 -1.40296 -0.717964 0
M  V30 53150 C 4943.71 -1.40373 -1.83205 0
M  V30 53151 C 4944.68 -0.26101 -1.64036 0
M  V30 53152 O 4945.87 -0.458713 -1.85204 0
M  V30 53153 C 4943.01 -1.26977 -3.20891 0
M  V30 53154 C 4942.12 -2.50935 -3.51647 0
M  V30 53155 C 4941.26 -2.29998 -4.78826 0
M  V30 53156 C 4940.3 -3.49545 -5.02479 0
M  V30 53157 N 4939.43 -3.27818 -6.2087 0
M  V30 53158 H 4944.27 -2.356 -1.82474 0
M  V30 53159 H 4941.81 -1.17015 -0.891402 0
M  V30 53160 H 4943.77 -1.17216 -4.00395 0
M  V30 53161 H 4942.4 -0.353704 -3.20856 0
M  V30 53162 H 4941.45 -2.71232 -2.66716 0
M  V30 53163 H 4942.76 -3.39926 -3.65036 0
M  V30 53164 H 4941.92 -2.17578 -5.66343 0
M  V30 53165 H 4940.65 -1.38428 -4.67642 0
M  V30 53166 H 4939.66 -3.62445 -4.13417 0
M  V30 53167 H 4940.88 -4.42039 -5.15537 0
M  V30 53168 H 4938.83 -2.38928 -6.10942 0
M  V30 53169 H 4938.75 -4.10374 -6.34925 0
M  V30 53170 H 4940.02 -3.19126 -7.11181 0
M  V30 53171 N 4944.24 0.949938 -1.25754 0
M  V30 53172 C 4945.52 1.67177 -1.01545 0
M  V30 53173 C 4945.9 2.06097 0.45687 0
M  V30 53174 O 4945.25 1.77797 1.43528 0
M  V30 53175 C 4945.46 2.89053 -1.95574 0
M  V30 53176 C 4946.81 3.60901 -2.23686 0
M  V30 53177 O 4947.83 2.99143 -1.9337 0
M  V30 53178 O 4946.69 4.72117 -2.7526 0
M  V30 53179 H 4943.78 0.731684 -0.385445 0
M  V30 53180 H 4946.33 1.00245 -1.36927 0
M  V30 53181 H 4945.1 2.57118 -2.94968 0
M  V30 53182 H 4944.73 3.63714 -1.60618 0
M  V30 53183 N 4945.72 1.07416 1.15324 0
M  V30 53184 C 4946.97 0.797714 1.86126 0
M  V30 53185 C 4947.3 -0.676233 1.82366 0
M  V30 53186 O 4946.55 -1.51219 1.24223 0
M  V30 53187 C 4946.85 1.25202 3.34752 0
M  V30 53188 C 4946.52 2.73204 3.58707 0
M  V30 53189 C 4945.18 3.13628 3.64953 0
M  V30 53190 C 4947.53 3.68731 3.68357 0
M  V30 53191 C 4944.86 4.48396 3.78362 0
M  V30 53192 C 4947.21 5.03262 3.83289 0
M  V30 53193 C 4945.88 5.43307 3.87781 0
M  V30 53194 H 4945.15 0.291904 0.681082 0
M  V30 53195 H 4947.79 1.34529 1.36287 0
M  V30 53196 H 4946.1 0.623848 3.86801 0
M  V30 53197 H 4947.79 1.01502 3.87941 0
M  V30 53198 H 4944.38 2.4091 3.54486 0
M  V30 53199 H 4948.57 3.38626 3.6283 0
M  V30 53200 H 4943.82 4.78891 3.80097 0
M  V30 53201 H 4948 5.77156 3.89698 0
M  V30 53202 H 4945.63 6.47735 3.97923 0
M  V30 53203 N 4947.2 -1.32174 0.858357 0
M  V30 53204 C 4948.45 -1.9639 0.459758 0
M  V30 53205 C 4948.76 -1.68662 -0.990573 0
M  V30 53206 O 4949.97 -2.26647 -1.49478 0
M  V30 53207 C 4948.42 -3.5154 0.771223 0
M  V30 53208 C 4948.03 -3.88122 2.23753 0
M  V30 53209 C 4949.78 -4.22208 0.440528 0
M  V30 53210 C 4947.68 -5.36332 2.49202 0
M  V30 53211 H 4946.61 -0.735001 0.168195 0
M  V30 53212 H 4949.26 -1.50514 1.04965 0
M  V30 53213 H 4947.65 -3.95845 0.110719 0
M  V30 53214 H 4948.82 -3.54814 2.94013 0
M  V30 53215 H 4947.14 -3.30488 2.53311 0
M  V30 53216 H 4949.73 -5.31232 0.608042 0
M  V30 53217 H 4950.08 -4.11685 -0.618147 0
M  V30 53218 H 4950.61 -3.83498 1.05708 0
M  V30 53219 H 4947.35 -5.51879 3.53708 0
M  V30 53220 H 4946.87 -5.71033 1.83524 0
M  V30 53221 H 4948.55 -6.03458 2.3334 0
M  V30 53222 N 4948.68 -0.616653 -1.45035 0
M  V30 53223 C 4949.59 0.0984577 -2.34393 0
M  V30 53224 C 4950.6 0.850917 -1.51774 0
M  V30 53225 O 4951.78 0.806456 -1.84549 0
M  V30 53226 C 4948.85 1.07737 -3.29536 0
M  V30 53227 C 4947.91 0.325871 -4.28061 0
M  V30 53228 C 4947.14 1.25815 -5.18658 0
M  V30 53229 O 4947.36 2.49634 -5.12873 0
M  V30 53230 O 4946.3 0.750302 -5.97205 0
M  V30 53231 H 4950.12 -0.63612 -2.96963 0
M  V30 53232 H 4947.71 -0.376883 -1.44568 0
M  V30 53233 H 4949.59 1.64093 -3.88138 0
M  V30 53234 H 4948.26 1.79281 -2.69518 0
M  V30 53235 H 4947.17 -0.280384 -3.73048 0
M  V30 53236 H 4948.5 -0.349263 -4.90959 0
M  V30 53237 N 4950.16 1.53519 -0.356339 0
M  V30 53238 C 4951.07 2.29152 0.502631 0
M  V30 53239 C 4952.08 1.34757 1.10075 0
M  V30 53240 O 4953.26 1.67807 1.11368 0
M  V30 53241 C 4950.32 3.05917 1.63143 0
M  V30 53242 C 4949.38 4.15962 1.06179 0
M  V30 53243 C 4948.62 4.89057 2.13679 0
M  V30 53244 O 4948.84 4.6193 3.34629 0
M  V30 53245 O 4947.77 5.75208 1.77255 0
M  V30 53246 H 4951.6 3.03491 -0.112573 0
M  V30 53247 H 4949.19 1.48909 -0.120994 0
M  V30 53248 H 4951.07 3.53882 2.28791 0
M  V30 53249 H 4949.74 2.34423 2.23221 0
M  V30 53250 H 4948.65 3.72271 0.369473 0
M  V30 53251 H 4949.98 4.89595 0.5057 0
M  V30 53252 N 4951.63 0.0852704 1.57369 0
M  V30 53253 C 4952.54 -0.891636 2.16995 0
M  V30 53254 C 4953.56 -1.31736 1.13673 0
M  V30 53255 O 4954.74 -1.3873 1.46 0
M  V30 53256 C 4951.8 -2.13625 2.73066 0
M  V30 53257 C 4950.86 -1.76566 3.91309 0
M  V30 53258 C 4950.1 -2.95095 4.44696 0
M  V30 53259 O 4950.32 -4.09525 3.97046 0
M  V30 53260 O 4949.25 -2.7413 5.35851 0
M  V30 53261 H 4953.08 -0.414372 3.0086 0
M  V30 53262 H 4950.66 -0.138545 1.48756 0
M  V30 53263 H 4952.55 -2.86585 3.08945 0
M  V30 53264 H 4951.22 -2.60423 1.92253 0
M  V30 53265 H 4950.13 -1.00818 3.60259 0
M  V30 53266 H 4951.46 -1.3454 4.73455 0
M  V30 53267 N 4953.11 -1.5647 -0.188372 0
M  V30 53268 C 4954.02 -1.9829 -1.25373 0
M  V30 53269 C 4955.04 -0.891587 -1.49421 0
M  V30 53270 O 4956.22 -1.19788 -1.61904 0
M  V30 53271 C 4953.28 -2.31974 -2.57661 0
M  V30 53272 C 4952.34 -3.54846 -2.41625 0
M  V30 53273 C 4951.57 -3.86914 -3.67605 0
M  V30 53274 O 4951.8 -3.20179 -4.72061 0
M  V30 53275 O 4950.73 -4.80322 -3.62732 0
M  V30 53276 H 4954.56 -2.89148 -0.92881 0
M  V30 53277 H 4952.14 -1.44114 -0.393904 0
M  V30 53278 H 4954.02 -2.54685 -3.35728 0
M  V30 53279 H 4952.7 -1.44281 -2.89766 0
M  V30 53280 H 4951.61 -3.37374 -1.61646 0
M  V30 53281 H 4952.94 -4.43026 -2.1445 0
M  V30 53282 N 4954.59 0.456329 -1.50849 0
M  V30 53283 C 4955.54 1.55243 -1.70787 0
M  V30 53284 C 4956.51 1.56755 -0.549286 0
M  V30 53285 O 4957.69 1.74058 -0.781561 0
M  V30 53286 C 4954.83 2.93111 -1.82153 0
M  V30 53287 C 4953.95 3.01274 -3.09609 0
M  V30 53288 C 4953.08 4.30148 -3.11682 0
M  V30 53289 C 4952.12 4.32108 -4.33531 0
M  V30 53290 N 4951.26 5.52477 -4.3326 0
M  V30 53291 H 4956.1 1.37546 -2.64358 0
M  V30 53292 H 4953.63 0.668497 -1.31033 0
M  V30 53293 H 4955.59 3.73082 -1.86724 0
M  V30 53294 H 4954.22 3.0941 -0.920087 0
M  V30 53295 H 4953.27 2.14085 -3.14439 0
M  V30 53296 H 4954.59 2.98583 -3.99562 0
M  V30 53297 H 4953.74 5.18478 -3.15064 0
M  V30 53298 H 4952.48 4.3547 -2.19585 0
M  V30 53299 H 4951.48 3.42174 -4.30345 0
M  V30 53300 H 4952.71 4.28467 -5.26871 0
M  V30 53301 H 4950.66 5.58555 -3.44024 0
M  V30 53302 H 4950.57 5.51587 -5.16999 0
M  V30 53303 H 4951.84 6.42891 -4.40808 0
M  V30 53304 N 4956.07 1.40675 0.710514 0
M  V30 53305 C 4957.02 1.41343 1.82458 0
M  V30 53306 C 4957.99 0.269705 1.63896 0
M  V30 53307 O 4959.17 0.468528 1.84958 0
M  V30 53308 C 4956.31 1.28677 3.20213 0
M  V30 53309 C 4955.42 2.52796 3.50311 0
M  V30 53310 C 4954.56 2.32534 4.776 0
M  V30 53311 C 4953.6 3.52204 5.00618 0
M  V30 53312 N 4952.74 3.31106 6.19123 0
M  V30 53313 H 4957.58 2.36564 1.81222 0
M  V30 53314 H 4955.11 1.17486 0.885184 0
M  V30 53315 H 4957.07 1.19338 3.99768 0
M  V30 53316 H 4955.7 0.370714 3.20664 0
M  V30 53317 H 4954.75 2.72643 2.65273 0
M  V30 53318 H 4956.06 3.41857 3.63229 0
M  V30 53319 H 4955.22 2.20578 5.65182 0
M  V30 53320 H 4953.96 1.40906 4.66901 0
M  V30 53321 H 4952.96 3.64632 4.1149 0
M  V30 53322 H 4954.19 4.44767 5.13186 0
M  V30 53323 H 4952.13 2.42164 6.09666 0
M  V30 53324 H 4952.05 4.13735 6.32739 0
M  V30 53325 H 4953.32 3.22893 7.09479 0
M  V30 53326 N 4957.55 -0.943255 1.26256 0
M  V30 53327 C 4958.96 -1.50401 1.10619 0
M  V30 53328 C 4959.31 -1.93667 -0.314222 0
M  V30 53329 O 4958.43 -1.79714 -1.20549 0
M  V30 53330 C 4959.03 -2.73329 2.00191 0
M  V30 53331 C 4957.59 -3.25679 1.88707 0
M  V30 53332 C 4956.74 -1.98467 1.93665 0
M  V30 53333 H 4959.69 -0.758957 1.39375 0
M  V30 53334 H 4959.71 -3.47562 1.54859 0
M  V30 53335 H 4959.22 -2.41808 3.03563 0
M  V30 53336 H 4957.32 -3.61995 0.882617 0
M  V30 53337 H 4957.43 -3.92926 2.74128 0
M  V30 53338 H 4955.8 -2.14273 1.37692 0
M  V30 53339 H 4956.58 -1.69279 2.98663 0
M  V30 53340 N 4959.03 -1.08026 -1.14753 0
M  V30 53341 C 4960.44 -0.80712 -1.37687 0
M  V30 53342 C 4960.64 0.585436 -1.92808 0
M  V30 53343 O 4959.7 1.34293 -2.13826 0
M  V30 53344 C 4961.01 -1.88659 -2.34154 0
M  V30 53345 C 4962.56 -1.91215 -2.47802 0
M  V30 53346 C 4963.03 -2.98265 -3.47565 0
M  V30 53347 N 4964.52 -2.97412 -3.55106 0
M  V30 53348 C 4965.26 -3.76887 -4.32139 0
M  V30 53349 N 4964.76 -4.6623 -5.12446 0
M  V30 53350 N 4966.55 -3.65205 -4.27296 0
M  V30 53351 H 4958.7 -1.97827 -0.77319 0
M  V30 53352 H 4960.96 -0.858275 -0.402578 0
M  V30 53353 H 4960.67 -2.88756 -2.00781 0
M  V30 53354 H 4960.54 -1.75256 -3.34014 0
M  V30 53355 H 4962.93 -0.917663 -2.80469 0
M  V30 53356 H 4963.01 -2.08696 -1.47917 0
M  V30 53357 H 4962.65 -3.97918 -3.15632 0
M  V30 53358 H 4962.58 -2.7803 -4.47221 0
M  V30 53359 H 4965.08 -2.32654 -2.97793 0
M  V30 53360 H 4965.39 -5.23488 -5.6849 0
M  V30 53361 H 4963.73 -4.70275 -5.11729 0
M  V30 53362 H 4966.92 -2.94778 -3.63625 0
M  V30 53363 H 4967.1 -4.27384 -4.8708 0
M  V30 53364 N 4960.5 1.31717 -0.865354 0
M  V30 53365 C 4961.75 1.97166 -0.474703 0
M  V30 53366 C 4962.08 1.68266 0.969545 0
M  V30 53367 O 4961.36 0.976647 1.68202 0
M  V30 53368 C 4961.64 3.52686 -0.726932 0
M  V30 53369 C 4961.49 3.91177 -2.22038 0
M  V30 53370 C 4962.81 4.39688 -0.190356 0
M  V30 53371 H 4959.93 0.716179 -0.173945 0
M  V30 53372 H 4962.57 1.55922 -1.08575 0
M  V30 53373 H 4960.72 3.87949 -0.206842 0
M  V30 53374 H 4962.4 3.66039 -2.80737 0
M  V30 53375 H 4960.64 3.3995 -2.69474 0
M  V30 53376 H 4961.31 4.99595 -2.34752 0
M  V30 53377 H 4963.79 4.11222 -0.635247 0
M  V30 53378 H 4962.66 5.47467 -0.396324 0
M  V30 53379 H 4962.92 4.32686 0.907473 0
M  V30 53380 N 4961.98 0.624336 1.44706 0
M  V30 53381 C 4962.93 -0.0846324 2.30645 0
M  V30 53382 C 4963.9 -0.843525 1.43087 0
M  V30 53383 O 4965.08 -0.825922 1.71998 0
M  V30 53384 C 4962.22 -1.06484 3.28261 0
M  V30 53385 C 4961.34 -0.305072 4.30921 0
M  V30 53386 C 4960.47 -1.27649 5.15635 0
M  V30 53387 C 4959.51 -0.505492 6.10009 0
M  V30 53388 N 4958.65 -1.42703 6.87445 0
M  V30 53389 H 4963.49 0.65417 2.90731 0
M  V30 53390 H 4961.02 0.334385 1.43249 0
M  V30 53391 H 4962.98 -1.64644 3.83338 0
M  V30 53392 H 4961.61 -1.77085 2.6989 0
M  V30 53393 H 4960.66 0.39234 3.78371 0
M  V30 53394 H 4961.98 0.295728 4.97923 0
M  V30 53395 H 4961.13 -1.92964 5.75195 0
M  V30 53396 H 4959.87 -1.91121 4.48691 0
M  V30 53397 H 4958.87 0.161193 5.49564 0
M  V30 53398 H 4960.1 0.124422 6.78986 0
M  V30 53399 H 4958.05 -2.04909 6.23176 0
M  V30 53400 H 4957.96 -0.880081 7.5086 0
M  V30 53401 H 4959.23 -2.06923 7.51534 0
M  V30 53402 N 4963.46 -1.53328 0.364476 0
M  V30 53403 C 4964.74 -1.93558 -0.281894 0
M  V30 53404 C 4965.12 -1.29791 -1.66485 0
M  V30 53405 O 4964.46 -0.456591 -2.23892 0
M  V30 53406 C 4964.67 -3.47406 -0.333209 0
M  V30 53407 C 4966.02 -4.20701 -0.574083 0
M  V30 53408 O 4967.05 -3.53781 -0.414463 0
M  V30 53409 O 4965.91 -5.3929 -0.884812 0
M  V30 53410 H 4963 -0.809579 -0.168853 0
M  V30 53411 H 4965.55 -1.64492 0.417179 0
M  V30 53412 H 4964.32 -3.86089 0.636461 0
M  V30 53413 H 4963.94 -3.82701 -1.07822 0
M  V30 53414 N 4964.94 -0.0936148 -1.57322 0
M  V30 53415 C 4966.17 0.578864 -1.98637 0
M  V30 53416 C 4966.58 1.61816 -0.972682 0
M  V30 53417 O 4965.94 1.82461 0.0378996 0
M  V30 53418 C 4965.99 1.2279 -3.40007 0
M  V30 53419 O 4965.71 0.23018 -4.37495 0
M  V30 53420 C 4967.21 1.98613 -3.96318 0
M  V30 53421 H 4964.43 0.155301 -0.652781 0
M  V30 53422 H 4966.97 -0.172465 -2.03771 0
M  V30 53423 H 4965.13 1.93017 -3.35892 0
M  V30 53424 H 4965.54 0.698466 -5.19829 0
M  V30 53425 H 4967.02 2.39387 -4.97391 0
M  V30 53426 H 4967.49 2.8514 -3.34054 0
M  V30 53427 H 4968.1 1.33206 -4.03901 0
M  V30 53428 N 4966.42 1.56568 0.180071 0
M  V30 53429 C 4967.66 1.81764 0.899433 0
M  V30 53430 C 4967.99 0.67008 1.82273 0
M  V30 53431 O 4967.27 -0.328508 1.91706 0
M  V30 53432 C 4967.55 3.17302 1.70269 0
M  V30 53433 C 4967.41 4.42572 0.803099 0
M  V30 53434 C 4968.72 3.49687 2.67221 0
M  V30 53435 H 4965.84 0.661204 0.325543 0
M  V30 53436 H 4968.49 1.89273 0.166054 0
M  V30 53437 H 4966.64 3.11031 2.32791 0
M  V30 53438 H 4968.31 4.60903 0.191423 0
M  V30 53439 H 4966.55 4.33659 0.110643 0
M  V30 53440 H 4967.22 5.3394 1.40045 0
M  V30 53441 H 4969.7 3.56355 2.14827 0
M  V30 53442 H 4968.57 4.45616 3.20496 0
M  V30 53443 H 4968.83 2.73944 3.46997 0
M  V30 53444 N 4967.89 -0.448323 1.51089 0
M  V30 53445 C 4969.14 -1.19555 1.62448 0
M  V30 53446 C 4969.46 -1.92601 0.341219 0
M  V30 53447 O 4970.66 -2.69437 0.334031 0
M  V30 53448 C 4969.12 -2.17363 2.86847 0
M  V30 53449 C 4968.73 -1.50015 4.22137 0
M  V30 53450 C 4970.47 -2.92586 3.07561 0
M  V30 53451 C 4968.38 -2.46243 5.37697 0
M  V30 53452 H 4967.31 -0.449954 0.605027 0
M  V30 53453 H 4969.96 -0.463673 1.77545 0
M  V30 53454 H 4968.34 -2.93939 2.6536 0
M  V30 53455 H 4969.51 -0.790726 4.53965 0
M  V30 53456 H 4967.83 -0.869868 4.07213 0
M  V30 53457 H 4970.43 -3.64649 3.91069 0
M  V30 53458 H 4970.77 -3.53298 2.20195 0
M  V30 53459 H 4971.3 -2.23119 3.29337 0
M  V30 53460 H 4968.04 -1.90236 6.27288 0
M  V30 53461 H 4967.56 -3.15271 5.10259 0
M  V30 53462 H 4969.24 -3.07603 5.69201 0
M  V30 53463 N 4969.37 -1.4105 -0.703043 0
M  V30 53464 C 4970.79 -1.23355 -1.0127 0
M  V30 53465 C 4970.99 -0.11761 -2.01156 0
M  V30 53466 O 4970.04 0.520431 -2.47078 0
M  V30 53467 C 4971.36 -2.58006 -1.54445 0
M  V30 53468 C 4972.91 -2.65125 -1.66366 0
M  V30 53469 C 4973.38 -4.00075 -2.22944 0
M  V30 53470 N 4974.87 -4.01883 -2.30314 0
M  V30 53471 C 4975.61 -5.03097 -2.75102 0
M  V30 53472 N 4975.1 -6.14703 -3.19549 0
M  V30 53473 N 4976.9 -4.90461 -2.74599 0
M  V30 53474 H 4969.05 -2.1236 -0.041194 0
M  V30 53475 H 4971.31 -0.944545 -0.0808568 0
M  V30 53476 H 4971.02 -3.40381 -0.885091 0
M  V30 53477 H 4970.89 -2.79971 -2.52776 0
M  V30 53478 H 4973.28 -1.83114 -2.31416 0
M  V30 53479 H 4973.36 -2.46978 -0.666003 0
M  V30 53480 H 4973 -4.82531 -1.58512 0
M  V30 53481 H 4972.93 -4.15559 -3.23448 0
M  V30 53482 H 4975.42 -3.21298 -1.98938 0
M  V30 53483 H 4975.74 -6.87812 -3.52328 0
M  V30 53484 H 4974.08 -6.1825 -3.17477 0
M  V30 53485 H 4977.27 -4.02358 -2.39218 0
M  V30 53486 H 4977.44 -5.69481 -3.09186 0
M  V30 53487 N 4970.85 0.936546 -1.26754 0
M  V30 53488 C 4971.76 2.06945 -1.10503 0
M  V30 53489 C 4972.78 1.7396 -0.0373322 0
M  V30 53490 O 4973.95 1.99941 -0.242014 0
M  V30 53491 C 4971.02 3.3861 -0.74461 0
M  V30 53492 C 4970.08 3.85348 -1.89223 0
M  V30 53493 C 4969.31 5.10729 -1.54891 0
M  V30 53494 O 4969.53 5.686 -0.452745 0
M  V30 53495 O 4968.47 5.52623 -2.38518 0
M  V30 53496 H 4972.29 2.23564 -2.05555 0
M  V30 53497 H 4969.88 1.05424 -1.05859 0
M  V30 53498 H 4971.76 4.17709 -0.556543 0
M  V30 53499 H 4970.44 3.23219 0.176468 0
M  V30 53500 H 4969.34 3.07174 -2.13529 0
M  V30 53501 H 4970.68 4.05267 -2.7932 0
M  V30 53502 N 4972.33 1.08633 1.14178 0
M  V30 53503 C 4973.28 0.687959 2.17373 0
M  V30 53504 C 4974.26 -0.293576 1.58199 0
M  V30 53505 O 4975.45 -0.105229 1.76687 0
M  V30 53506 C 4972.58 0.101304 3.4315 0
M  V30 53507 C 4971.67 1.10876 4.0935 0
M  V30 53508 N 4972.06 2.29301 4.50838 0
M  V30 53509 C 4970.36 0.94505 4.35872 0
M  V30 53510 C 4971.06 2.93322 5.02332 0
M  V30 53511 N 4970.04 2.2092 4.96684 0
M  V30 53512 H 4973.84 1.58972 2.47194 0
M  V30 53513 H 4971.35 0.961375 1.30887 0
M  V30 53514 H 4973.35 -0.202062 4.1641 0
M  V30 53515 H 4972.01 -0.795411 3.14807 0
M  V30 53516 H 4973.02 2.66943 4.43804 0
M  V30 53517 H 4969.7 0.102332 4.17375 0
M  V30 53518 H 4971.09 3.93951 5.44291 0
M  V30 53519 N 4973.81 -1.31256 0.872327 0
M  V30 53520 C 4974.75 -2.30402 0.318978 0
M  V30 53521 C 4975.75 -1.59622 -0.567211 0
M  V30 53522 O 4976.95 -1.74205 -0.45305 0
M  V30 53523 H 4973.33 -0.74724 0.0844736 0
M  V30 53524 H 4975.3 -2.74545 1.16908 0
M  V30 53525 C 4974.05 -3.44609 -0.462562 0
M  V30 53526 H 4973.37 -3.99248 0.210076 0
M  V30 53527 H 4974.81 -4.16093 -0.81504 0
M  V30 53528 C 4973.27 -2.93462 -1.65475 0
M  V30 53529 O 4973.8 -2.92428 -2.75406 0
M  V30 53530 N 4972.01 -2.49633 -1.48767 0
M  V30 53531 H 4971.55 -2.50673 -0.593364 0
M  V30 53532 H 4971.51 -2.15767 -2.28674 0
M  V30 53533 N 4975.28 -0.632002 -1.44373 0
M  V30 53534 C 4976.23 0.0723996 -2.30686 0
M  V30 53535 C 4977.2 0.835925 -1.43532 0
M  V30 53536 O 4978.39 0.816789 -1.72433 0
M  V30 53537 C 4975.53 1.04741 -3.28821 0
M  V30 53538 C 4974.64 0.282215 -4.31077 0
M  V30 53539 C 4973.77 1.24912 -5.16305 0
M  V30 53540 C 4972.81 0.473135 -6.10269 0
M  V30 53541 N 4971.95 1.39055 -6.88192 0
M  V30 53542 H 4976.79 -0.669579 -2.9038 0
M  V30 53543 H 4974.33 -0.341977 -1.4307 0
M  V30 53544 H 4976.29 1.62609 -3.84206 0
M  V30 53545 H 4974.92 1.75651 -2.70826 0
M  V30 53546 H 4973.97 -0.412401 -3.78158 0
M  V30 53547 H 4975.28 -0.32213 -4.97759 0
M  V30 53548 H 4974.43 1.89911 -5.76211 0
M  V30 53549 H 4973.17 1.88739 -4.49699 0
M  V30 53550 H 4972.18 -0.190335 -5.4947 0
M  V30 53551 H 4973.4 -0.160428 -6.7891 0
M  V30 53552 H 4971.35 2.01601 -6.24254 0
M  V30 53553 H 4971.27 0.840249 -7.51316 0
M  V30 53554 H 4972.53 2.02935 -7.52621 0
M  V30 53555 N 4976.76 1.53132 -0.372602 0
M  V30 53556 C 4978.01 2.02336 0.207751 0
M  V30 53557 C 4978.36 1.25483 1.45849 0
M  V30 53558 O 4977.66 0.342038 1.88522 0
M  V30 53559 C 4977.85 3.53208 0.545814 0
M  V30 53560 C 4977.68 4.44672 -0.67061 0
M  V30 53561 C 4976.45 4.91213 -1.18482 0
M  V30 53562 C 4978.65 4.90767 -1.53794 0
M  V30 53563 N 4976.63 5.66703 -2.36054 0
M  V30 53564 C 4978 5.64669 -2.56024 0
M  V30 53565 C 4980.06 4.7283 -1.56 0
M  V30 53566 C 4978.76 6.22542 -3.60325 0
M  V30 53567 C 4980.78 5.31574 -2.59198 0
M  V30 53568 C 4980.15 6.05368 -3.60151 0
M  V30 53569 H 4976.25 0.781049 0.0385509 0
M  V30 53570 H 4978.83 1.87663 -0.51873 0
M  V30 53571 H 4977 3.68028 1.24136 0
M  V30 53572 H 4978.73 3.89127 1.11187 0
M  V30 53573 H 4975.49 4.6765 -0.748369 0
M  V30 53574 H 4975.91 6.09106 -2.95497 0
M  V30 53575 H 4980.55 4.15296 -0.793023 0
M  V30 53576 H 4978.27 6.79168 -4.379 0
M  V30 53577 H 4981.86 5.19586 -2.61767 0
M  V30 53578 H 4980.74 6.50013 -4.38695 0
M  V30 53579 N 4978.24 0.101957 1.5727 0
M  V30 53580 C 4979.49 -0.559854 1.93774 0
M  V30 53581 C 4979.8 -1.6891 0.98635 0
M  V30 53582 O 4981.01 -2.41252 1.24538 0
M  V30 53583 C 4979.46 -1.04727 3.44326 0
M  V30 53584 C 4979.07 0.0525874 4.47969 0
M  V30 53585 C 4980.82 -1.68143 3.8978 0
M  V30 53586 C 4978.72 -0.450573 5.89681 0
M  V30 53587 H 4977.65 -0.212905 0.723317 0
M  V30 53588 H 4980.3 0.179065 1.82624 0
M  V30 53589 H 4978.69 -1.84009 3.50652 0
M  V30 53590 H 4979.86 0.828316 4.53294 0
M  V30 53591 H 4978.18 0.592347 4.12165 0
M  V30 53592 H 4980.77 -2.06873 4.9306 0
M  V30 53593 H 4981.12 -2.55327 3.28807 0
M  V30 53594 H 4981.65 -0.954317 3.86183 0
M  V30 53595 H 4978.39 0.38481 6.5437 0
M  V30 53596 H 4977.91 -1.19316 5.87813 0
M  V30 53597 H 4979.59 -0.91733 6.40464 0
M  V30 53598 N 4979.72 -1.56661 -0.171765 0
M  V30 53599 C 4980.65 -1.99405 -1.21491 0
M  V30 53600 C 4981.63 -0.869567 -1.46194 0
M  V30 53601 O 4982.81 -1.13561 -1.57535 0
M  V30 53602 C 4979.94 -2.35355 -2.55392 0
M  V30 53603 C 4978.9 -3.50759 -2.45259 0
M  V30 53604 C 4978.22 -3.7245 -3.83647 0
M  V30 53605 C 4979.52 -4.84223 -1.9577 0
M  V30 53606 H 4981.22 -2.86795 -0.859598 0
M  V30 53607 H 4978.76 -1.37979 -0.412054 0
M  V30 53608 H 4980.72 -2.63855 -3.2857 0
M  V30 53609 H 4979.44 -1.44874 -2.9271 0
M  V30 53610 H 4978.1 -3.22386 -1.74535 0
M  V30 53611 H 4977.75 -2.7926 -4.18357 0
M  V30 53612 H 4977.45 -4.501 -3.77735 0
M  V30 53613 H 4978.97 -4.0335 -4.58411 0
M  V30 53614 H 4980.39 -5.11601 -2.58722 0
M  V30 53615 H 4978.78 -5.65505 -2.00807 0
M  V30 53616 H 4979.85 -4.76246 -0.911992 0
M  V30 53617 N 4981.2 0.440304 -1.51324 0
M  V30 53618 C 4982.14 1.53423 -1.72424 0
M  V30 53619 C 4983.11 1.56163 -0.565881 0
M  V30 53620 O 4984.3 1.73219 -0.799978 0
M  V30 53621 C 4981.44 2.91163 -1.85252 0
M  V30 53622 C 4980.55 2.97974 -3.12787 0
M  V30 53623 C 4979.69 4.26818 -3.16227 0
M  V30 53624 C 4978.73 4.27486 -4.38089 0
M  V30 53625 N 4977.86 5.4785 -4.39095 0
M  V30 53626 H 4982.7 1.34734 -2.65802 0
M  V30 53627 H 4980.24 0.654561 -1.31734 0
M  V30 53628 H 4982.2 3.7108 -1.90671 0
M  V30 53629 H 4980.83 3.08416 -0.952852 0
M  V30 53630 H 4979.88 2.10738 -3.16692 0
M  V30 53631 H 4981.19 2.94328 -4.02706 0
M  V30 53632 H 4980.35 5.15107 -3.20546 0
M  V30 53633 H 4979.08 4.33116 -2.24191 0
M  V30 53634 H 4978.09 3.3759 -4.3395 0
M  V30 53635 H 4979.31 4.22854 -5.31386 0
M  V30 53636 H 4977.26 5.54875 -3.49928 0
M  V30 53637 H 4977.18 5.46073 -5.2282 0
M  V30 53638 H 4978.45 6.38179 -4.47602 0
M  V30 53639 N 4982.68 1.41421 0.695553 0
M  V30 53640 C 4983.62 1.4327 1.80948 0
M  V30 53641 C 4984.59 0.287073 1.636 0
M  V30 53642 O 4985.78 0.488119 1.84451 0
M  V30 53643 C 4982.92 1.32066 3.1883 0
M  V30 53644 C 4982.03 2.56497 3.47611 0
M  V30 53645 C 4981.17 2.37587 4.75106 0
M  V30 53646 C 4980.2 3.57494 4.96854 0
M  V30 53647 N 4979.34 3.37654 6.15576 0
M  V30 53648 H 4984.18 2.38473 1.78703 0
M  V30 53649 H 4981.72 1.18418 0.872674 0
M  V30 53650 H 4983.68 1.23572 3.9848 0
M  V30 53651 H 4982.31 0.404704 3.20253 0
M  V30 53652 H 4981.36 2.75441 2.62367 0
M  V30 53653 H 4982.67 3.45691 3.59582 0
M  V30 53654 H 4981.82 2.2656 5.6281 0
M  V30 53655 H 4980.56 1.4585 4.65381 0
M  V30 53656 H 4979.57 3.68976 4.07599 0
M  V30 53657 H 4980.79 4.50185 5.08439 0
M  V30 53658 H 4978.74 2.48617 6.07063 0
M  V30 53659 H 4978.66 4.20423 6.28316 0
M  V30 53660 H 4979.92 3.304 7.06014 0
M  V30 53661 N 4984.15 -0.929811 1.27249 0
M  V30 53662 C 4985.4 -1.67178 1.12847 0
M  V30 53663 C 4985.72 -1.92871 -0.325598 0
M  V30 53664 O 4986.92 -2.65001 -0.590479 0
M  V30 53665 C 4985.38 -3.0109 1.97162 0
M  V30 53666 C 4984.99 -2.83103 3.47213 0
M  V30 53667 C 4986.73 -3.789 1.91402 0
M  V30 53668 C 4984.64 -4.12558 4.23733 0
M  V30 53669 H 4983.57 -0.627049 0.418719 0
M  V30 53670 H 4986.22 -1.03314 1.51652 0
M  V30 53671 H 4984.6 -3.65998 1.51199 0
M  V30 53672 H 4985.77 -2.26975 4.01023 0
M  V30 53673 H 4984.09 -2.18724 3.54329 0
M  V30 53674 H 4986.69 -4.74828 2.4585 0
M  V30 53675 H 4987.03 -4.06737 0.88719 0
M  V30 53676 H 4987.56 -3.20785 2.35248 0
M  V30 53677 H 4984.3 -3.89902 5.26932 0
M  V30 53678 H 4983.82 -4.68358 3.74701 0
M  V30 53679 H 4985.5 -4.80935 4.32794 0
M  V30 53680 N 4985.63 -1.09237 -1.13601 0
M  V30 53681 C 4987.05 -0.821678 -1.36823 0
M  V30 53682 C 4987.25 0.564953 -1.93418 0
M  V30 53683 O 4986.3 1.32018 -2.15238 0
M  V30 53684 C 4987.62 -1.91132 -2.3214 0
M  V30 53685 C 4989.16 -1.93832 -2.4576 0
M  V30 53686 C 4989.64 -3.01935 -3.44382 0
M  V30 53687 N 4991.13 -3.01162 -3.51932 0
M  V30 53688 C 4991.87 -3.81449 -4.28117 0
M  V30 53689 N 4991.36 -4.71639 -5.07473 0
M  V30 53690 N 4993.15 -3.69717 -4.23398 0
M  V30 53691 H 4985.31 -1.98636 -0.752165 0
M  V30 53692 H 4987.57 -0.862496 -0.393452 0
M  V30 53693 H 4987.27 -2.90869 -1.97707 0
M  V30 53694 H 4987.15 -1.78789 -3.32136 0
M  V30 53695 H 4989.54 -0.947359 -2.7948 0
M  V30 53696 H 4989.62 -2.10253 -1.45695 0
M  V30 53697 H 4989.26 -4.01243 -3.11394 0
M  V30 53698 H 4989.19 -2.82757 -4.44247 0
M  V30 53699 H 4991.68 -2.35799 -2.95308 0
M  V30 53700 H 4991.99 -5.29488 -5.62905 0
M  V30 53701 H 4990.34 -4.75676 -5.06712 0
M  V30 53702 H 4993.53 -2.98618 -3.60478 0
M  V30 53703 H 4993.7 -4.32526 -4.8252 0
M  V30 53704 N 4987.11 1.30792 -0.879276 0
M  V30 53705 C 4988.36 1.9636 -0.494855 0
M  V30 53706 C 4988.68 1.69451 0.954808 0
M  V30 53707 O 4987.94 0.98877 1.68884 0
M  V30 53708 C 4988.24 3.50285 -0.709599 0
M  V30 53709 C 4987.9 3.97233 -2.13347 0
M  V30 53710 C 4986.57 4.09763 -2.52285 0
M  V30 53711 C 4988.92 4.21796 -3.06166 0
M  V30 53712 C 4986.25 4.44214 -3.83263 0
M  V30 53713 C 4988.6 4.57714 -4.3667 0
M  V30 53714 C 4987.26 4.68453 -4.75509 0
M  V30 53715 H 4986.53 0.718534 -0.18108 0
M  V30 53716 H 4989.18 1.55761 -1.11404 0
M  V30 53717 H 4987.48 3.91799 -0.00733773 0
M  V30 53718 H 4989.18 3.99081 -0.391844 0
M  V30 53719 H 4985.77 3.87982 -1.8212 0
M  V30 53720 H 4989.96 4.11601 -2.77306 0
M  V30 53721 H 4985.21 4.50727 -4.13104 0
M  V30 53722 H 4989.39 4.75672 -5.08634 0
M  V30 53723 H 4987.01 4.94903 -5.7704 0
M  V30 53724 N 4988.59 0.639649 1.44036 0
M  V30 53725 C 4989.52 -0.0986879 2.28987 0
M  V30 53726 C 4990.53 -0.80053 1.41758 0
M  V30 53727 O 4991.72 -0.660553 1.65828 0
M  V30 53728 C 4988.82 -1.16231 3.18345 0
M  V30 53729 C 4987.99 -0.541295 4.34038 0
M  V30 53730 C 4987.05 -1.49999 5.04368 0
M  V30 53731 O 4986.08 -1.01383 5.60098 0
M  V30 53732 N 4987.28 -2.83423 5.06608 0
M  V30 53733 H 4990.05 0.630408 2.92995 0
M  V30 53734 H 4987.61 0.48143 1.54576 0
M  V30 53735 H 4989.6 -1.80416 3.6226 0
M  V30 53736 H 4988.17 -1.79353 2.5603 0
M  V30 53737 H 4987.39 0.279368 3.93209 0
M  V30 53738 H 4988.68 -0.107201 5.08687 0
M  V30 53739 H 4988.08 -3.25493 4.62678 0
M  V30 53740 H 4986.63 -3.42947 5.54284 0
M  V30 53741 N 4990.07 -1.52932 0.380717 0
M  V30 53742 C 4991.31 -2.0107 -0.203803 0
M  V30 53743 C 4991.63 -1.26927 -1.48035 0
M  V30 53744 O 4990.9 -0.386854 -1.92042 0
M  V30 53745 H 4989.48 -0.742885 -0.0783017 0
M  V30 53746 H 4992.15 -1.88097 0.510434 0
M  V30 53747 H 4991.24 -3.0926 -0.420101 0
M  V30 53748 N 4991.54 -0.110296 -1.57214 0
M  V30 53749 C 4992.49 0.86051 -2.16097 0
M  V30 53750 C 4993.49 1.28153 -1.10785 0
M  V30 53751 O 4994.69 1.25428 -1.29104 0
M  V30 53752 H 4991.07 0.295582 -0.691473 0
M  V30 53753 H 4993.04 0.339316 -2.96465 0
M  V30 53754 C 4991.79 2.10412 -2.76807 0
M  V30 53755 H 4991.11 1.78907 -3.57536 0
M  V30 53756 H 4992.55 2.76364 -3.21557 0
M  V30 53757 C 4991.01 2.88817 -1.73455 0
M  V30 53758 O 4991.54 3.83896 -1.18265 0
M  V30 53759 N 4989.74 2.52644 -1.43595 0
M  V30 53760 H 4989.29 1.75394 -1.88666 0
M  V30 53761 H 4989.25 3.05401 -0.746843 0
M  V30 53762 N 4993.02 1.5675 0.163455 0
M  V30 53763 C 4993.95 2.00046 1.20431 0
M  V30 53764 C 4994.93 0.877308 1.4573 0
M  V30 53765 O 4996.12 1.14395 1.56931 0
M  V30 53766 C 4993.25 2.36706 2.54141 0
M  V30 53767 C 4992.2 3.52055 2.43396 0
M  V30 53768 C 4991.53 3.7448 3.81666 0
M  V30 53769 C 4992.83 4.85254 1.93199 0
M  V30 53770 H 4994.52 2.87247 0.844376 0
M  V30 53771 H 4992.07 1.38195 0.404731 0
M  V30 53772 H 4994.02 2.65594 3.27167 0
M  V30 53773 H 4992.74 1.46424 2.91938 0
M  V30 53774 H 4991.4 3.23307 1.72823 0
M  V30 53775 H 4991.05 2.81475 4.1687 0
M  V30 53776 H 4990.75 4.52097 3.75343 0
M  V30 53777 H 4992.28 4.05776 4.56266 0
M  V30 53778 H 4993.69 5.12966 2.56005 0
M  V30 53779 H 4992.09 5.66562 1.97805 0
M  V30 53780 H 4993.16 4.76723 0.886722 0
M  V30 53781 N 4994.5 -0.432272 1.51556 0
M  V30 53782 C 4995.45 -1.54566 1.73816 0
M  V30 53783 C 4996.44 -1.58244 0.604594 0
M  V30 53784 O 4997.65 -1.61927 0.786098 0
M  V30 53785 H 4994.02 -0.513607 0.549283 0
M  V30 53786 H 4995.99 -1.32967 2.67137 0
M  V30 53787 C 4994.74 -2.92174 1.88493 0
M  V30 53788 H 4994.07 -2.90078 2.75127 0
M  V30 53789 H 4995.51 -3.69431 2.08078 0
M  V30 53790 C 4993.96 -3.30648 0.646025 0
M  V30 53791 O 4994.49 -4.01217 -0.196952 0
M  V30 53792 N 4992.7 -2.86462 0.488639 0
M  V30 53793 H 4992.25 -2.29205 1.1757 0
M  V30 53794 H 4992.21 -3.12567 -0.339046 0
M  V30 53795 N 4995.98 -1.41788 -0.688044 0
M  V30 53796 C 4997.21 -1.4492 -1.47668 0
M  V30 53797 C 4997.62 -0.0566449 -1.88715 0
M  V30 53798 O 4996.98 0.925735 -1.57278 0
M  V30 53799 C 4997.03 -2.36461 -2.73438 0
M  V30 53800 O 4996.75 -3.70298 -2.34117 0
M  V30 53801 C 4998.25 -2.48476 -3.67116 0
M  V30 53802 H 4995.47 -0.49334 -0.454815 0
M  V30 53803 H 4998.01 -1.86156 -0.846528 0
M  V30 53804 H 4996.17 -1.98514 -3.32673 0
M  V30 53805 H 4996.58 -4.19194 -3.1524 0
M  V30 53806 H 4998.06 -3.16678 -4.52127 0
M  V30 53807 H 4998.53 -1.51841 -4.12118 0
M  V30 53808 H 4999.14 -2.87091 -3.13782 0
M  V30 53809 N 4997.46 0.92305 -1.2774 0
M  V30 53810 C 4998.4 2.02428 -1.10867 0
M  V30 53811 C 4999.37 1.66098 -0.00841034 0
M  V30 53812 O 5000.56 1.90027 -0.171609 0
M  V30 53813 C 4997.7 3.36473 -0.766789 0
M  V30 53814 C 4996.81 3.8573 -1.94515 0
M  V30 53815 C 4995.95 5.08243 -1.54473 0
M  V30 53816 C 4994.99 5.49809 -2.6903 0
M  V30 53817 N 4994.12 6.63516 -2.29544 0
M  V30 53818 H 4998.96 2.16193 -2.05096 0
M  V30 53819 H 4996.5 1.05905 -1.02091 0
M  V30 53820 H 4998.46 4.13567 -0.549369 0
M  V30 53821 H 4997.09 3.22502 0.138557 0
M  V30 53822 H 4996.14 3.04875 -2.27497 0
M  V30 53823 H 4997.45 4.12503 -2.80434 0
M  V30 53824 H 4996.61 5.92853 -1.28883 0
M  V30 53825 H 4995.34 4.83258 -0.656704 0
M  V30 53826 H 4994.35 4.63746 -2.95329 0
M  V30 53827 H 4995.57 5.76787 -3.58461 0
M  V30 53828 H 4993.52 6.4018 -1.43199 0
M  V30 53829 H 4993.44 6.89967 -3.09001 0
M  V30 53830 H 4994.71 7.51454 -2.07213 0
M  V30 53831 N 4998.93 1.09838 1.1302 0
M  V30 53832 C 4999.88 0.741599 2.18561 0
M  V30 53833 C 5000.85 -0.279179 1.63737 0
M  V30 53834 O 5002.04 -0.159856 1.90129 0
M  V30 53835 C 4999.18 0.172891 3.44667 0
M  V30 53836 C 4998.29 1.24822 4.13574 0
M  V30 53837 C 4997.42 0.641816 5.27308 0
M  V30 53838 C 4996.46 1.69816 5.88072 0
M  V30 53839 N 4995.6 1.11247 6.9323 0
M  V30 53840 H 5000.44 1.64585 2.48426 0
M  V30 53841 H 4997.98 0.822216 1.21975 0
M  V30 53842 H 4999.94 -0.174673 4.16834 0
M  V30 53843 H 4998.57 -0.694614 3.15238 0
M  V30 53844 H 4997.62 1.713 3.39647 0
M  V30 53845 H 4998.93 2.04811 4.54812 0
M  V30 53846 H 4998.08 0.243341 6.06212 0
M  V30 53847 H 4996.82 -0.189571 4.87331 0
M  V30 53848 H 4995.83 2.10613 5.0786 0
M  V30 53849 H 4997.05 2.53228 6.30121 0
M  V30 53850 H 4995 0.302438 6.55302 0
M  V30 53851 H 4994.92 1.84927 7.33033 0
M  V30 53852 H 4996.18 0.740341 7.75976 0
M  V30 53853 N 5000.41 -1.30324 0.8862 0
M  V30 53854 C 5001.35 -2.26239 0.298486 0
M  V30 53855 C 5002.32 -1.51841 -0.581651 0
M  V30 53856 O 5003.51 -1.80852 -0.531472 0
M  V30 53857 C 5000.63 -3.3377 -0.575771 0
M  V30 53858 C 4999.68 -4.25851 0.235207 0
M  V30 53859 S 5000.51 -5.10272 1.62428 0
M  V30 53860 C 5001.67 -6.2131 0.756586 0
M  V30 53861 H 5001.9 -2.7574 1.11151 0
M  V30 53862 H 4999.44 -1.38338 0.685699 0
M  V30 53863 H 5001.39 -3.96189 -1.07444 0
M  V30 53864 H 5000.05 -2.82991 -1.3629 0
M  V30 53865 H 4999.25 -5.02145 -0.432022 0
M  V30 53866 H 4998.85 -3.68013 0.666539 0
M  V30 53867 H 5001.14 -6.77495 -0.0259069 0
M  V30 53868 H 5002.08 -6.92221 1.49117 0
M  V30 53869 H 5002.49 -5.6361 0.316947 0
M  V30 53870 N 5001.89 -0.647279 -1.43694 0
M  V30 53871 C 5002.82 0.034481 -2.33475 0
M  V30 53872 C 5003.8 0.81814 -1.49132 0
M  V30 53873 O 5004.99 0.780804 -1.77812 0
M  V30 53874 C 5002.12 1.00564 -3.32422 0
M  V30 53875 C 5001.07 0.33251 -4.26706 0
M  V30 53876 C 5000.4 1.41471 -5.15645 0
M  V30 53877 C 5001.7 -0.771386 -5.16572 0
M  V30 53878 H 5003.39 -0.715265 -2.90731 0
M  V30 53879 H 5000.94 -0.345413 -1.39796 0
M  V30 53880 H 5002.89 1.49145 -3.94124 0
M  V30 53881 H 5001.61 1.78648 -2.73409 0
M  V30 53882 H 5000.27 -0.132799 -3.66359 0
M  V30 53883 H 4999.92 2.18682 -4.52976 0
M  V30 53884 H 4999.62 0.969595 -5.79545 0
M  V30 53885 H 5001.14 1.902 -5.80221 0
M  V30 53886 H 5002.56 -0.367991 -5.72118 0
M  V30 53887 H 5000.96 -1.1406 -5.89161 0
M  V30 53888 H 5002.03 -1.63185 -4.56617 0
M  V30 53889 N 5003.37 1.52728 -0.388822 0
M  V30 53890 C 5004.32 2.27977 0.461447 0
M  V30 53891 C 5005.31 1.31858 1.06348 0
M  V30 53892 O 5006.52 1.49398 1.00401 0
M  V30 53893 H 5002.89 0.733094 0.167564 0
M  V30 53894 H 5004.86 2.97764 -0.194683 0
M  V30 53895 C 5003.61 3.09886 1.57689 0
M  V30 53896 H 5002.93 3.83705 1.12296 0
M  V30 53897 H 5004.37 3.65678 2.14606 0
M  V30 53898 C 5002.83 2.22168 2.53264 0
M  V30 53899 O 5003.36 1.84814 3.5666 0
M  V30 53900 N 5001.57 1.86338 2.22994 0
M  V30 53901 H 5001.12 2.16914 1.38947 0
M  V30 53902 H 5001.07 1.27937 2.87192 0
M  V30 53903 N 5004.85 0.118632 1.57153 0
M  V30 53904 C 5006.26 -0.406806 1.82214 0
M  V30 53905 C 5006.61 -1.66632 1.03577 0
M  V30 53906 O 5005.73 -2.14681 0.272247 0
M  V30 53907 C 5006.33 -0.744833 3.30511 0
M  V30 53908 C 5004.89 -1.21491 3.56254 0
M  V30 53909 C 5004.03 -0.223414 2.76399 0
M  V30 53910 H 5006.99 0.343767 1.54932 0
M  V30 53911 H 5007.01 -1.60228 3.45119 0
M  V30 53912 H 5006.52 0.172047 3.87718 0
M  V30 53913 H 5004.62 -2.1487 3.04404 0
M  V30 53914 H 5004.73 -1.16048 4.64833 0
M  V30 53915 H 5003.1 -0.710374 2.44593 0
M  V30 53916 H 5003.88 0.686557 3.36365 0
M  V30 53917 N 5006.32 -1.56835 -0.15514 0
M  V30 53918 C 5007.57 -1.82539 -0.867398 0
M  V30 53919 C 5007.89 -0.698232 -1.82071 0
M  V30 53920 O 5007.16 0.280739 -1.93878 0
M  V30 53921 H 5005.74 -0.673412 -0.323303 0
M  V30 53922 H 5008.41 -1.94313 -0.151088 0
M  V30 53923 H 5007.5 -2.77176 -1.43456 0
M  V30 53924 N 5007.8 0.424229 -1.51783 0
M  V30 53925 C 5008.75 1.51585 -1.74042 0
M  V30 53926 C 5009.72 1.55554 -0.582412 0
M  V30 53927 O 5010.9 1.72361 -0.818306 0
M  V30 53928 C 5008.04 2.89181 -1.8833 0
M  V30 53929 C 5007.16 2.94639 -3.1593 0
M  V30 53930 C 5006.29 4.2344 -3.20736 0
M  V30 53931 C 5005.33 4.22815 -4.42599 0
M  V30 53932 N 5004.47 5.43162 -4.44881 0
M  V30 53933 H 5009.31 1.31907 -2.67216 0
M  V30 53934 H 5006.85 0.640552 -1.32421 0
M  V30 53935 H 5008.8 3.69037 -1.94596 0
M  V30 53936 H 5007.43 3.07388 -0.98551 0
M  V30 53937 H 5006.49 2.07367 -3.18909 0
M  V30 53938 H 5007.8 2.9004 -4.05805 0
M  V30 53939 H 5006.95 5.11678 -3.25991 0
M  V30 53940 H 5005.69 4.30714 -2.28773 0
M  V30 53941 H 5004.7 3.32969 -4.37506 0
M  V30 53942 H 5005.92 4.17195 -5.35841 0
M  V30 53943 H 5003.87 5.51132 -3.55794 0
M  V30 53944 H 5003.78 5.40497 -5.28582 0
M  V30 53945 H 5005.05 6.33396 -4.54346 0
M  V30 53946 N 5009.28 1.4215 0.680515 0
M  V30 53947 C 5010.21 1.47966 1.80633 0
M  V30 53948 C 5011.19 0.336787 1.66733 0
M  V30 53949 O 5012.38 0.550312 1.8624 0
M  V30 53950 C 5009.51 1.3758 3.18887 0
M  V30 53951 C 5008.46 2.49835 3.47515 0
M  V30 53952 C 5007.79 2.24509 4.85283 0
M  V30 53953 C 5009.09 3.92156 3.4498 0
M  V30 53954 H 5010.78 2.4219 1.76023 0
M  V30 53955 H 5008.33 1.16569 0.845441 0
M  V30 53956 H 5010.28 1.40257 3.97374 0
M  V30 53957 H 5009 0.39847 3.2416 0
M  V30 53958 H 5007.66 2.46465 2.71386 0
M  V30 53959 H 5007.31 1.25083 4.87199 0
M  V30 53960 H 5007.01 2.99739 5.05401 0
M  V30 53961 H 5008.53 2.28926 5.66061 0
M  V30 53962 H 5009.95 3.9716 4.13445 0
M  V30 53963 H 5008.35 4.67192 3.76632 0
M  V30 53964 H 5009.42 4.19234 2.43661 0
M  V30 53965 N 5010.76 -0.916262 1.28228 0
M  V30 53966 C 5011.98 -1.70426 1.18194 0
M  V30 53967 C 5012.41 -1.86347 -0.256208 0
M  V30 53968 O 5011.77 -1.37179 -1.18539 0
M  V30 53969 C 5011.81 -3.0754 1.88286 0
M  V30 53970 O 5010.92 -3.949 1.18862 0
M  V30 53971 H 5010.26 -0.521952 0.410441 0
M  V30 53972 H 5012.79 -1.14583 1.69505 0
M  V30 53973 H 5012.8 -3.57786 1.96095 0
M  V30 53974 H 5011.47 -2.95269 2.92898 0
M  V30 53975 H 5010.05 -3.53335 1.192 0
M  V30 53976 N 5012.24 -1.10435 -1.12436 0
M  V30 53977 C 5013.15 -0.76558 -2.21757 0
M  V30 53978 C 5014.16 0.236906 -1.7238 0
M  V30 53979 O 5015.34 0.0756622 -2.01258 0
M  V30 53980 C 5012.4 -0.202437 -3.46108 0
M  V30 53981 C 5011.47 -1.2622 -4.10326 0
M  V30 53982 C 5010.7 -0.725833 -5.28741 0
M  V30 53983 O 5010.92 0.447742 -5.6864 0
M  V30 53984 O 5009.86 -1.48576 -5.83274 0
M  V30 53985 H 5013.68 -1.6781 -2.53127 0
M  V30 53986 H 5011.27 -0.879486 -1.2077 0
M  V30 53987 H 5013.15 0.10777 -4.21262 0
M  V30 53988 H 5011.82 0.682941 -3.16414 0
M  V30 53989 H 5010.73 -1.62526 -3.36951 0
M  V30 53990 H 5012.06 -2.12059 -4.44175 0
M  V30 53991 N 5013.72 1.29852 -0.893099 0
M  V30 53992 C 5014.65 2.2691 -0.32319 0
M  V30 53993 C 5015.66 1.54041 0.526804 0
M  V30 53994 O 5016.85 1.75134 0.345034 0
M  V30 53995 C 5013.95 3.34268 0.558392 0
M  V30 53996 C 5013.12 4.366 -0.264375 0
M  V30 53997 C 5012.18 5.23328 0.548987 0
M  V30 53998 O 5011.21 5.69191 -0.0311884 0
M  V30 53999 N 5012.41 5.50015 1.85645 0
M  V30 54000 H 5015.17 2.76451 -1.15736 0
M  V30 54001 H 5012.74 1.43117 -0.756909 0
M  V30 54002 H 5014.73 3.89215 1.10876 0
M  V30 54003 H 5013.3 2.84594 1.29324 0
M  V30 54004 H 5012.52 3.81405 -0.99618 0
M  V30 54005 H 5013.81 5.02016 -0.828083 0
M  V30 54006 H 5013.2 5.1455 2.35063 0
M  V30 54007 H 5011.76 6.07804 2.3541 0
M  V30 54008 N 5015.19 0.65489 1.43349 0
M  V30 54009 C 5016.12 -0.0220988 2.3349 0
M  V30 54010 C 5017.1 -0.81022 1.49564 0
M  V30 54011 O 5018.29 -0.771363 1.78224 0
M  V30 54012 C 5015.42 -0.988 3.3295 0
M  V30 54013 C 5014.37 -0.309876 4.26877 0
M  V30 54014 C 5013.7 -1.38734 5.16388 0
M  V30 54015 C 5015 0.79877 5.16156 0
M  V30 54016 H 5016.69 0.730673 2.90347 0
M  V30 54017 H 5014.24 0.352822 1.39611 0
M  V30 54018 H 5016.19 -1.47053 3.94909 0
M  V30 54019 H 5014.92 -1.77195 2.74353 0
M  V30 54020 H 5013.58 0.152226 3.66284 0
M  V30 54021 H 5013.22 -2.16277 4.54129 0
M  V30 54022 H 5012.92 -0.938847 5.80051 0
M  V30 54023 H 5014.45 -1.8712 5.81221 0
M  V30 54024 H 5015.86 0.398327 5.71915 0
M  V30 54025 H 5014.26 1.17183 5.88547 0
M  V30 54026 H 5015.33 1.65604 4.55745 0
M  V30 54027 N 5016.67 -1.5252 0.396917 0
M  V30 54028 C 5017.95 -1.94112 -0.240774 0
M  V30 54029 C 5018.33 -1.33294 -1.63695 0
M  V30 54030 O 5017.68 -0.503979 -2.22873 0
M  V30 54031 C 5017.89 -3.48034 -0.259444 0
M  V30 54032 C 5019.23 -4.21824 -0.484717 0
M  V30 54033 O 5020.26 -3.5458 -0.339328 0
M  V30 54034 O 5019.12 -5.41045 -0.770222 0
M  V30 54035 H 5016.21 -0.812978 -0.151643 0
M  V30 54036 H 5018.76 -1.6357 0.451976 0
M  V30 54037 H 5017.53 -3.84652 0.718214 0
M  V30 54038 H 5017.15 -3.84902 -0.996801 0
M  V30 54039 N 5018.15 -0.126964 -1.57088 0
M  V30 54040 C 5019.57 0.229586 -1.5794 0
M  V30 54041 C 5019.77 1.66141 -1.14016 0
M  V30 54042 O 5018.82 2.38427 -0.831202 0
M  V30 54043 C 5020.13 -0.0109705 -3.00698 0
M  V30 54044 C 5021.68 0.054308 -3.12953 0
M  V30 54045 C 5022.16 -0.158658 -4.57725 0
M  V30 54046 N 5023.65 -0.104898 -4.63081 0
M  V30 54047 C 5024.38 -0.244471 -5.72879 0
M  V30 54048 N 5023.88 -0.440658 -6.91397 0
M  V30 54049 N 5025.67 -0.183484 -5.618 0
M  V30 54050 H 5017.82 -1.06209 -1.83939 0
M  V30 54051 H 5020.09 -0.418864 -0.850445 0
M  V30 54052 H 5019.79 -1.00114 -3.3715 0
M  V30 54053 H 5019.67 0.717382 -3.70315 0
M  V30 54054 H 5022.05 1.03501 -2.76354 0
M  V30 54055 H 5022.13 -0.706053 -2.45863 0
M  V30 54056 H 5021.78 -1.13637 -4.95024 0
M  V30 54057 H 5021.71 0.621786 -5.22916 0
M  V30 54058 H 5024.2 0.042897 -3.77876 0
M  V30 54059 H 5024.51 -0.537807 -7.70926 0
M  V30 54060 H 5022.86 -0.476731 -6.93363 0
M  V30 54061 H 5026.05 -0.0311207 -4.6809 0
M  V30 54062 H 5026.22 -0.295699 -6.47325 0
M  V30 54063 N 5019.63 1.56915 0.14682 0
M  V30 54064 C 5020.54 2.01544 1.20072 0
M  V30 54065 C 5021.55 0.93089 1.47005 0
M  V30 54066 O 5022.73 1.24038 1.58671 0
M  V30 54067 C 5019.79 2.38724 2.5142 0
M  V30 54068 C 5018.86 3.61128 2.32132 0
M  V30 54069 C 5018.09 3.96525 3.57217 0
M  V30 54070 O 5018.31 3.32582 4.63406 0
M  V30 54071 O 5017.25 4.8977 3.4987 0
M  V30 54072 H 5021.07 2.91509 0.851821 0
M  V30 54073 H 5018.66 1.45107 0.355556 0
M  V30 54074 H 5020.54 2.63497 3.28858 0
M  V30 54075 H 5019.21 1.51913 2.85839 0
M  V30 54076 H 5018.12 3.41542 1.52644 0
M  V30 54077 H 5019.45 4.48556 2.02628 0
M  V30 54078 N 5021.11 -0.416173 1.52006 0
M  V30 54079 C 5022.35 -1.16147 1.65391 0
M  V30 54080 C 5022.67 -1.91207 0.382736 0
M  V30 54081 O 5021.94 -1.86416 -0.602165 0
M  V30 54082 H 5020.52 -0.431744 0.609595 0
M  V30 54083 H 5023.19 -0.475085 1.89021 0
M  V30 54084 H 5022.28 -1.87943 2.49166 0
M  V30 54085 N 5022.58 -1.42509 -0.672966 0
M  V30 54086 C 5024 -1.25475 -0.986311 0
M  V30 54087 C 5024.2 -0.160252 -2.00862 0
M  V30 54088 O 5023.26 0.467905 -2.48127 0
M  V30 54089 C 5024.57 -2.61224 -1.48937 0
M  V30 54090 C 5026.12 -2.68594 -1.60705 0
M  V30 54091 C 5026.59 -4.04714 -2.14407 0
M  V30 54092 N 5028.08 -4.06678 -2.21738 0
M  V30 54093 C 5028.82 -5.08819 -2.64368 0
M  V30 54094 N 5028.31 -6.21343 -3.06439 0
M  V30 54095 N 5030.11 -4.96175 -2.64133 0
M  V30 54096 H 5022.26 -2.124 0.00385999 0
M  V30 54097 H 5024.52 -0.946048 -0.0608034 0
M  V30 54098 H 5024.23 -3.42182 -0.812692 0
M  V30 54099 H 5024.1 -2.8527 -2.46781 0
M  V30 54100 H 5026.49 -1.87982 -2.27479 0
M  V30 54101 H 5026.57 -2.48335 -0.613465 0
M  V30 54102 H 5026.21 -4.85785 -1.48241 0
M  V30 54103 H 5026.14 -4.22326 -3.1456 0
M  V30 54104 H 5028.63 -3.25445 -1.92078 0
M  V30 54105 H 5028.95 -6.9513 -3.37659 0
M  V30 54106 H 5027.29 -6.24845 -3.04291 0
M  V30 54107 H 5030.48 -4.07342 -2.3063 0
M  V30 54108 H 5030.66 -5.75911 -2.97037 0
M  V30 54109 N 5024.06 0.909449 -1.28712 0
M  V30 54110 C 5025.01 2.01241 -1.13008 0
M  V30 54111 C 5025.98 1.6608 -0.0260268 0
M  V30 54112 O 5027.16 1.89834 -0.191754 0
M  V30 54113 C 5024.3 3.35641 -0.802433 0
M  V30 54114 C 5023.42 3.83646 -1.98595 0
M  V30 54115 C 5022.55 5.06577 -1.59855 0
M  V30 54116 C 5021.59 5.46924 -2.74846 0
M  V30 54117 N 5020.73 6.61044 -2.36569 0
M  V30 54118 H 5025.57 2.14006 -2.07378 0
M  V30 54119 H 5023.1 1.04816 -1.03208 0
M  V30 54120 H 5025.06 4.12961 -0.593202 0
M  V30 54121 H 5023.69 3.22631 0.104343 0
M  V30 54122 H 5022.74 3.02445 -2.30718 0
M  V30 54123 H 5024.06 4.09505 -2.84793 0
M  V30 54124 H 5023.21 5.91452 -1.35163 0
M  V30 54125 H 5021.95 4.82535 -0.707923 0
M  V30 54126 H 5020.95 4.60588 -3.00231 0
M  V30 54127 H 5022.18 5.72952 -3.64558 0
M  V30 54128 H 5020.13 6.38625 -1.49981 0
M  V30 54129 H 5020.04 6.86651 -3.16301 0
M  V30 54130 H 5021.31 7.49214 -2.15172 0
M  V30 54131 N 5025.54 1.1103 1.11848 0
M  V30 54132 C 5026.96 0.843342 1.35499 0
M  V30 54133 C 5027.16 -0.534111 1.94292 0
M  V30 54134 O 5026.21 -1.28577 2.17311 0
M  V30 54135 C 5027.52 1.94801 2.2907 0
M  V30 54136 C 5029.07 1.97718 2.42645 0
M  V30 54137 C 5029.55 3.07376 3.39535 0
M  V30 54138 N 5031.04 3.06722 3.47096 0
M  V30 54139 C 5031.77 3.88212 4.21994 0
M  V30 54140 N 5031.27 4.79653 4.99905 0
M  V30 54141 N 5033.06 3.76406 4.17463 0
M  V30 54142 H 5025.21 1.99807 0.720468 0
M  V30 54143 H 5027.48 0.868646 0.379681 0
M  V30 54144 H 5027.18 2.93978 1.93055 0
M  V30 54145 H 5027.06 1.8405 3.2925 0
M  V30 54146 H 5029.44 0.991702 2.77938 0
M  V30 54147 H 5029.52 2.12545 1.42332 0
M  V30 54148 H 5029.17 4.06147 3.04971 0
M  V30 54149 H 5029.1 2.89789 4.39693 0
M  V30 54150 H 5031.59 2.40468 2.9152 0
M  V30 54151 H 5031.9 5.38376 5.5441 0
M  V30 54152 H 5030.25 4.83677 4.9908 0
M  V30 54153 H 5033.44 3.04315 3.55682 0
M  V30 54154 H 5033.61 4.40147 4.75578 0
M  V30 54155 N 5027.02 -1.29376 0.899973 0
M  V30 54156 C 5027.97 -2.29674 0.367778 0
M  V30 54157 C 5028.96 -1.60789 -0.533225 0
M  V30 54158 O 5030.17 -1.75127 -0.415996 0
M  V30 54159 H 5026.54 -0.74528 0.100305 0
M  V30 54160 H 5028.51 -2.72004 1.22705 0
M  V30 54161 C 5027.26 -3.45513 -0.389361 0
M  V30 54162 H 5026.58 -3.98712 0.294715 0
M  V30 54163 H 5028.02 -4.17728 -0.726598 0
M  V30 54164 C 5026.48 -2.96906 -1.59213 0
M  V30 54165 O 5027.01 -2.98204 -2.69142 0
M  V30 54166 N 5025.22 -2.52733 -1.43438 0
M  V30 54167 H 5024.77 -2.51875 -0.540059 0
M  V30 54168 H 5024.72 -2.20569 -2.24046 0
M  V30 54169 N 5028.5 -0.662483 -1.43 0
M  V30 54170 C 5029.75 -0.176943 -2.00922 0
M  V30 54171 C 5030.06 1.21949 -1.52931 0
M  V30 54172 O 5031.26 1.80074 -2.03189 0
M  V30 54173 C 5029.72 -0.265505 -3.58919 0
M  V30 54174 C 5029.33 -1.66521 -4.15902 0
M  V30 54175 C 5031.07 0.161954 -4.24191 0
M  V30 54176 C 5028.98 -1.7072 -5.66223 0
M  V30 54177 H 5027.91 -0.0623892 -0.751414 0
M  V30 54178 H 5030.56 -0.825871 -1.63865 0
M  V30 54179 H 5028.94 0.451096 -3.93422 0
M  V30 54180 H 5030.12 -2.40791 -3.92882 0
M  V30 54181 H 5028.43 -2.03945 -3.63036 0
M  V30 54182 H 5031.03 0.150557 -5.34488 0
M  V30 54183 H 5031.37 1.19505 -3.98778 0
M  V30 54184 H 5031.9 -0.503214 -3.94604 0
M  V30 54185 H 5028.64 -2.71971 -5.96416 0
M  V30 54186 H 5028.16 -1.00789 -5.91271 0
M  V30 54187 H 5029.84 -1.45509 -6.30425 0
M  V30 54188 N 5029.97 1.52307 -0.404999 0
M  V30 54189 C 5031.2 2.05887 0.171497 0
M  V30 54190 C 5031.61 1.27532 1.39758 0
M  V30 54191 O 5030.96 0.319279 1.80904 0
M  V30 54192 C 5031.02 3.54611 0.590858 0
M  V30 54193 C 5030.68 4.53987 -0.523917 0
M  V30 54194 C 5031.68 5.01079 -1.38621 0
M  V30 54195 C 5029.36 4.97463 -0.69543 0
M  V30 54196 C 5031.36 5.90287 -2.40501 0
M  V30 54197 C 5029.04 5.86467 -1.71754 0
M  V30 54198 C 5030.04 6.32773 -2.57074 0
M  V30 54199 O 5029.73 7.20017 -3.57535 0
M  V30 54200 H 5029.46 0.675509 0.0257526 0
M  V30 54201 H 5032.02 1.97236 -0.573347 0
M  V30 54202 H 5030.25 3.60934 1.38792 0
M  V30 54203 H 5031.94 3.90857 1.0948 0
M  V30 54204 H 5032.7 4.6821 -1.26509 0
M  V30 54205 H 5028.58 4.60982 -0.0410067 0
M  V30 54206 H 5032.12 6.26352 -3.0713 0
M  V30 54207 H 5028.02 6.1875 -1.83899 0
M  V30 54208 H 5028.79 7.38118 -3.53729 0
M  V30 54209 N 5031.45 0.135293 1.57018 0
M  V30 54210 C 5032.4 -0.826022 2.17439 0
M  V30 54211 C 5033.39 -1.26374 1.1281 0
M  V30 54212 O 5034.6 -1.23358 1.31083 0
M  V30 54213 H 5030.98 -0.284544 0.696088 0
M  V30 54214 H 5032.95 -0.292108 2.96967 0
M  V30 54215 C 5031.7 -2.05981 2.8012 0
M  V30 54216 H 5031.02 -1.73196 3.60337 0
M  V30 54217 H 5032.46 -2.71213 3.25913 0
M  V30 54218 C 5030.92 -2.86021 1.78027 0
M  V30 54219 O 5031.45 -3.81966 1.24357 0
M  V30 54220 N 5029.65 -2.50327 1.47596 0
M  V30 54221 H 5029.2 -1.7237 1.91432 0
M  V30 54222 H 5029.16 -3.04174 0.795335 0
M  V30 54223 N 5032.93 -1.5699 -0.138497 0
M  V30 54224 C 5033.88 -1.95324 -1.17612 0
M  V30 54225 C 5034.86 -0.825594 -1.38104 0
M  V30 54226 O 5036.06 -1.08913 -1.39524 0
M  V30 54227 C 5033.19 -2.34459 -2.50766 0
M  V30 54228 C 5032.27 -3.53813 -2.33831 0
M  V30 54229 N 5032.66 -4.70094 -1.86668 0
M  V30 54230 C 5030.96 -3.59064 -2.64554 0
M  V30 54231 C 5031.66 -5.52172 -1.82979 0
M  V30 54232 N 5030.64 -4.94116 -2.26607 0
M  V30 54233 H 5034.44 -2.82697 -0.80371 0
M  V30 54234 H 5031.95 -1.58661 -0.346464 0
M  V30 54235 H 5033.95 -2.6013 -3.25788 0
M  V30 54236 H 5032.61 -1.48441 -2.88782 0
M  V30 54237 H 5033.62 -4.93687 -1.56506 0
M  V30 54238 H 5030.3 -2.83606 -3.06388 0
M  V30 54239 H 5031.69 -6.55412 -1.47934 0
M  V30 54240 N 5034.41 0.408106 -1.52224 0
M  V30 54241 C 5035.34 1.51636 -1.71869 0
M  V30 54242 C 5036.35 1.51375 -0.599109 0
M  V30 54243 O 5037.54 1.55622 -0.874293 0
M  V30 54244 C 5034.64 2.90527 -1.74491 0
M  V30 54245 C 5033.82 3.14968 -3.03502 0
M  V30 54246 C 5032.87 4.33738 -2.97922 0
M  V30 54247 O 5031.9 4.30969 -3.71826 0
M  V30 54248 N 5033.1 5.38904 -2.15783 0
M  V30 54249 H 5035.87 1.35178 -2.67483 0
M  V30 54250 H 5033.43 0.597415 -1.50474 0
M  V30 54251 H 5035.42 3.6805 -1.68288 0
M  V30 54252 H 5033.99 3.00438 -0.863469 0
M  V30 54253 H 5033.21 2.2548 -3.23345 0
M  V30 54254 H 5034.5 3.28142 -3.88845 0
M  V30 54255 H 5033.9 5.44002 -1.55171 0
M  V30 54256 H 5032.45 6.15167 -2.15437 0
M  V30 54257 N 5035.89 1.42864 0.665399 0
M  V30 54258 C 5037.14 1.43124 1.42121 0
M  V30 54259 C 5037.45 0.0545984 1.95524 0
M  V30 54260 O 5038.65 -0.0653792 2.71421 0
M  V30 54261 C 5037.11 2.51806 2.57141 0
M  V30 54262 C 5036.72 3.95521 2.10397 0
M  V30 54263 C 5038.46 2.61245 3.34591 0
M  V30 54264 C 5036.37 4.95693 3.22556 0
M  V30 54265 H 5035.3 0.532368 0.533948 0
M  V30 54266 H 5037.95 1.68808 0.719446 0
M  V30 54267 H 5036.33 2.19303 3.2973 0
M  V30 54268 H 5037.51 4.37425 1.449 0
M  V30 54269 H 5035.82 3.90018 1.4586 0
M  V30 54270 H 5038.42 3.33262 4.18139 0
M  V30 54271 H 5038.76 1.65909 3.81811 0
M  V30 54272 H 5039.29 2.92989 2.69076 0
M  V30 54273 H 5036.03 5.92539 2.80317 0
M  V30 54274 H 5035.55 4.58412 3.86805 0
M  V30 54275 H 5037.23 5.17841 3.87878 0
M  V30 54276 N 5037.36 -0.902611 1.29192 0
M  V30 54277 C 5038.61 -1.64956 1.16764 0
M  V30 54278 C 5038.93 -1.92953 -0.281812 0
M  V30 54279 O 5038.2 -1.55355 -1.19338 0
M  V30 54280 H 5036.78 -0.611431 0.429139 0
M  V30 54281 H 5039.45 -1.08244 1.62078 0
M  V30 54282 H 5038.54 -2.60722 1.71553 0
M  V30 54283 N 5038.84 -1.11622 -1.11258 0
M  V30 54284 C 5040.07 -0.888805 -1.86836 0
M  V30 54285 C 5040.49 0.561495 -1.80257 0
M  V30 54286 O 5039.84 1.38778 -1.1852 0
M  V30 54287 C 5039.89 -1.34433 -3.35574 0
M  V30 54288 O 5039.61 -2.73778 -3.4202 0
M  V30 54289 C 5041.12 -1.15261 -4.28053 0
M  V30 54290 H 5038.34 -0.318173 -0.590768 0
M  V30 54291 H 5040.88 -1.48403 -1.40702 0
M  V30 54292 H 5039.03 -0.792524 -3.79207 0
M  V30 54293 H 5039.45 -2.93565 -4.34649 0
M  V30 54294 H 5040.92 -1.52033 -5.3065 0
M  V30 54295 H 5041.4 -0.0923551 -4.39103 0
M  V30 54296 H 5042.01 -1.6915 -3.90216 0
M  V30 54297 N 5040.32 1.28897 -0.906821 0
M  V30 54298 C 5041.57 1.94549 -0.53233 0
M  V30 54299 C 5041.88 1.72223 0.927292 0
M  V30 54300 O 5043.09 2.32038 1.40963 0
M  V30 54301 C 5041.54 3.48435 -0.901163 0
M  V30 54302 C 5041.15 3.7955 -2.38004 0
M  V30 54303 C 5042.9 4.20282 -0.596925 0
M  V30 54304 C 5040.8 5.26714 -2.68936 0
M  V30 54305 H 5039.73 0.728252 -0.195358 0
M  V30 54306 H 5042.38 1.46515 -1.10479 0
M  V30 54307 H 5040.77 3.95162 -0.257558 0
M  V30 54308 H 5041.94 3.43657 -3.0698 0
M  V30 54309 H 5040.26 3.20859 -2.65403 0
M  V30 54310 H 5042.85 5.28609 -0.804786 0
M  V30 54311 H 5043.2 4.13696 0.464926 0
M  V30 54312 H 5043.73 3.7931 -1.19869 0
M  V30 54313 H 5040.47 5.38371 -3.73947 0
M  V30 54314 H 5039.99 5.63828 -2.04591 0
M  V30 54315 H 5041.67 5.94382 -2.55576 0
M  V30 54316 N 5041.8 0.670057 1.42646 0
M  V30 54317 C 5042.73 -0.0612821 2.28118 0
M  V30 54318 C 5043.71 -0.813365 1.40795 0
M  V30 54319 O 5044.89 -0.809469 1.70235 0
M  V30 54320 C 5042.02 -1.09387 3.2055 0
M  V30 54321 C 5041.07 -0.437915 4.24246 0
M  V30 54322 S 5041.9 0.800994 5.29476 0
M  V30 54323 C 5043.06 -0.230641 6.25475 0
M  V30 54324 H 5043.29 0.663707 2.89797 0
M  V30 54325 H 5040.82 0.459442 1.47406 0
M  V30 54326 H 5042.78 -1.68456 3.74343 0
M  V30 54327 H 5041.44 -1.79128 2.58016 0
M  V30 54328 H 5040.63 -1.2169 4.89089 0
M  V30 54329 H 5040.24 0.079066 3.73916 0
M  V30 54330 H 5042.53 -1.0918 6.68645 0
M  V30 54331 H 5043.47 0.383194 7.07062 0
M  V30 54332 H 5043.88 -0.573993 5.61574 0
M  V30 54333 N 5043.28 -1.5209 0.413071 0
M  V30 54334 C 5044.5 -2.06756 -0.163265 0
M  V30 54335 C 5044.93 -1.28078 -1.37759 0
M  V30 54336 O 5044.29 -0.312078 -1.78594 0
M  V30 54337 C 5044.33 -3.5728 -0.488196 0
M  V30 54338 O 5043.44 -3.80992 -1.57858 0
M  V30 54339 H 5042.78 -0.663883 -0.0124834 0
M  V30 54340 H 5045.31 -1.95986 0.587408 0
M  V30 54341 H 5045.32 -4.01128 -0.745695 0
M  V30 54342 H 5043.99 -4.13977 0.399473 0
M  V30 54343 H 5042.57 -3.49022 -1.31294 0
M  V30 54344 N 5044.76 -0.143618 -1.56944 0
M  V30 54345 C 5045.98 0.51863 -2.00811 0
M  V30 54346 C 5046.41 1.57847 -1.02303 0
M  V30 54347 O 5045.76 1.813 0.00172016 0
M  V30 54348 C 5045.81 1.09917 -3.4344 0
M  V30 54349 O 5044.92 2.21413 -3.47922 0
M  V30 54350 H 5044.26 0.127192 -0.651704 0
M  V30 54351 H 5046.79 -0.239354 -2.03195 0
M  V30 54352 H 5046.8 1.42867 -3.82169 0
M  V30 54353 H 5045.47 0.323016 -4.14644 0
M  V30 54354 H 5044.05 1.89717 -3.21032 0
M  V30 54355 N 5046.23 1.57062 0.130169 0
M  V30 54356 C 5047.2 1.98597 1.14419 0
M  V30 54357 C 5048.2 0.874631 1.34933 0
M  V30 54358 O 5049.39 1.14091 1.31639 0
M  V30 54359 C 5046.52 2.31648 2.50104 0
M  V30 54360 H 5047.71 2.89377 0.787459 0
M  V30 54361 H 5045.26 1.51757 0.374093 0
M  V30 54362 H 5046 1.43713 2.90718 0
M  V30 54363 H 5045.78 3.12692 2.36572 0
M  V30 54364 H 5047.27 2.64562 3.23105 0
M  V30 54365 N 5047.71 -0.400028 1.52439 0
M  V30 54366 C 5048.96 -1.14386 1.66614 0
M  V30 54367 C 5049.28 -1.9079 0.402994 0
M  V30 54368 O 5048.55 -1.87044 -0.582359 0
M  V30 54369 H 5047.13 -0.425254 0.61414 0
M  V30 54370 H 5049.79 -0.45501 1.89514 0
M  V30 54371 H 5048.89 -1.8529 2.51146 0
M  V30 54372 N 5049.19 -1.43215 -0.657814 0
M  V30 54373 C 5050.44 -1.43876 -1.4136 0
M  V30 54374 C 5050.75 -0.0649667 -1.95492 0
M  V30 54375 O 5051.96 0.0509842 -2.71452 0
M  V30 54376 C 5050.41 -2.53167 -2.55802 0
M  V30 54377 C 5050.02 -3.96631 -2.08297 0
M  V30 54378 C 5051.77 -2.63016 -3.33201 0
M  V30 54379 C 5049.67 -4.97397 -3.19923 0
M  V30 54380 H 5048.6 -0.535192 -0.531117 0
M  V30 54381 H 5051.25 -1.69187 -0.710484 0
M  V30 54382 H 5049.64 -2.21049 -3.28563 0
M  V30 54383 H 5050.81 -4.38187 -1.42578 0
M  V30 54384 H 5049.12 -3.90786 -1.4379 0
M  V30 54385 H 5051.72 -3.35475 -4.16366 0
M  V30 54386 H 5052.06 -1.67932 -3.80926 0
M  V30 54387 H 5052.6 -2.94412 -2.67519 0
M  V30 54388 H 5049.34 -5.94017 -2.77171 0
M  V30 54389 H 5048.86 -4.60457 -3.84369 0
M  V30 54390 H 5050.54 -5.19891 -3.85126 0
M  V30 54391 N 5050.67 0.895746 -1.29669 0
M  V30 54392 C 5052.08 1.17722 -1.07767 0
M  V30 54393 C 5052.28 2.00794 0.168506 0
M  V30 54394 O 5051.34 2.37216 0.865161 0
M  V30 54395 C 5052.65 1.89433 -2.33528 0
M  V30 54396 C 5054.2 2.02243 -2.38887 0
M  V30 54397 C 5054.68 2.77365 -3.64462 0
M  V30 54398 N 5056.17 2.84917 -3.65208 0
M  V30 54399 C 5056.9 3.4359 -4.59057 0
M  V30 54400 N 5056.4 4.03398 -5.63243 0
M  V30 54401 N 5058.19 3.41302 -4.4662 0
M  V30 54402 H 5050.34 0.341578 -2.09635 0
M  V30 54403 H 5052.6 0.213833 -0.923569 0
M  V30 54404 H 5052.31 1.3583 -3.24412 0
M  V30 54405 H 5052.18 2.89885 -2.41344 0
M  V30 54406 H 5054.57 2.5502 -1.48489 0
M  V30 54407 H 5054.65 1.00912 -2.35054 0
M  V30 54408 H 5054.3 2.25263 -4.55213 0
M  V30 54409 H 5054.23 3.79049 -3.65554 0
M  V30 54410 H 5056.72 2.42443 -2.89879 0
M  V30 54411 H 5057.03 4.46202 -6.30971 0
M  V30 54412 H 5055.38 4.01848 -5.67047 0
M  V30 54413 H 5058.57 2.93799 -3.64417 0
M  V30 54414 H 5058.74 3.86733 -5.19944 0
M  V30 54415 N 5052.15 1.1221 1.10665 0
M  V30 54416 C 5053.08 0.810163 2.18995 0
M  V30 54417 C 5054.06 -0.225005 1.68605 0
M  V30 54418 O 5055.24 -0.0867148 1.94006 0
M  V30 54419 C 5052.37 0.261384 3.46315 0
M  V30 54420 C 5051.33 1.22934 4.09965 0
M  V30 54421 C 5050.65 0.5409 5.31957 0
M  V30 54422 C 5051.95 2.58311 4.53953 0
M  V30 54423 H 5053.65 1.71598 2.45346 0
M  V30 54424 H 5051.19 0.826502 1.17919 0
M  V30 54425 H 5053.14 0.0309003 4.21389 0
M  V30 54426 H 5051.87 -0.679767 3.19448 0
M  V30 54427 H 5050.53 1.44559 3.36895 0
M  V30 54428 H 5050.18 -0.405316 5.01364 0
M  V30 54429 H 5049.88 1.18657 5.75495 0
M  V30 54430 H 5051.4 0.319398 6.09764 0
M  V30 54431 H 5052.81 2.40727 5.20311 0
M  V30 54432 H 5051.21 3.18934 5.08332 0
M  V30 54433 H 5052.28 3.16931 3.66991 0
M  V30 54434 N 5053.62 -1.28415 0.913644 0
M  V30 54435 C 5054.53 -2.31042 0.407046 0
M  V30 54436 C 5055.55 -1.66503 -0.505239 0
M  V30 54437 O 5056.73 -1.97559 -0.391453 0
M  V30 54438 C 5053.79 -3.44981 -0.34478 0
M  V30 54439 C 5052.85 -4.25076 0.600713 0
M  V30 54440 C 5052.08 -5.33575 -0.115328 0
M  V30 54441 O 5052.31 -5.54508 -1.33707 0
M  V30 54442 O 5051.24 -5.99388 0.549306 0
M  V30 54443 H 5055.07 -2.76382 1.25883 0
M  V30 54444 H 5052.65 -1.33106 0.678462 0
M  V30 54445 H 5054.53 -4.14317 -0.769396 0
M  V30 54446 H 5053.21 -3.01723 -1.17239 0
M  V30 54447 H 5052.12 -3.5833 1.07473 0
M  V30 54448 H 5053.45 -4.72013 1.39514 0
M  V30 54449 N 5055.1 -0.677613 -1.42289 0
M  V30 54450 C 5056.05 -0.0010282 -2.308 0
M  V30 54451 C 5057.02 0.789838 -1.46119 0
M  V30 54452 O 5058.2 0.761517 -1.74944 0
M  V30 54453 C 5055.34 0.94227 -3.31987 0
M  V30 54454 C 5054.46 0.144928 -4.31757 0
M  V30 54455 C 5053.59 1.08423 -5.20017 0
M  V30 54456 C 5052.63 0.278743 -6.11465 0
M  V30 54457 N 5051.77 1.1709 -6.92267 0
M  V30 54458 H 5056.61 -0.761622 -2.88103 0
M  V30 54459 H 5054.14 -0.38732 -1.41909 0
M  V30 54460 H 5056.1 1.50304 -3.89185 0
M  V30 54461 H 5054.73 1.66946 -2.76277 0
M  V30 54462 H 5053.78 -0.5325 -3.76654 0
M  V30 54463 H 5055.1 -0.480325 -4.96482 0
M  V30 54464 H 5054.25 1.71483 -5.81961 0
M  V30 54465 H 5052.99 1.74337 -4.55476 0
M  V30 54466 H 5051.99 -0.365049 -5.48587 0
M  V30 54467 H 5053.22 -0.376337 -6.78056 0
M  V30 54468 H 5051.17 1.81639 -6.30352 0
M  V30 54469 H 5051.08 0.600798 -7.53609 0
M  V30 54470 H 5052.35 1.78888 -7.58696 0
M  V30 54471 N 5056.58 1.51869 -0.421131 0
M  V30 54472 C 5057.51 2.30232 0.389282 0
M  V30 54473 C 5058.49 1.34949 1.0355 0
M  V30 54474 O 5059.68 1.63863 1.04223 0
M  V30 54475 C 5056.81 3.13252 1.49967 0
M  V30 54476 C 5055.76 4.16681 0.97782 0
M  V30 54477 C 5055.09 4.8812 2.18273 0
M  V30 54478 C 5056.39 5.22295 0.0234939 0
M  V30 54479 H 5058.08 2.98228 -0.264629 0
M  V30 54480 H 5055.63 1.43424 -0.128711 0
M  V30 54481 H 5057.58 3.66845 2.0737 0
M  V30 54482 H 5056.3 2.43047 2.18164 0
M  V30 54483 H 5054.96 3.64115 0.426117 0
M  V30 54484 H 5054.61 4.14433 2.85051 0
M  V30 54485 H 5054.31 5.58048 1.84001 0
M  V30 54486 H 5055.83 5.4453 2.76259 0
M  V30 54487 H 5057.25 5.71056 0.506698 0
M  V30 54488 H 5055.65 5.99655 -0.230992 0
M  V30 54489 H 5056.72 4.76128 -0.918166 0
M  V30 54490 N 5058.06 0.151939 1.56866 0
M  V30 54491 C 5059.47 -0.368064 1.83036 0
M  V30 54492 C 5059.82 -1.64398 1.07088 0
M  V30 54493 O 5058.95 -2.14055 0.317722 0
M  V30 54494 C 5059.54 -0.674559 3.32017 0
M  V30 54495 C 5058.1 -1.13907 3.58751 0
M  V30 54496 C 5057.25 -0.164735 2.7681 0
M  V30 54497 H 5060.2 0.376553 1.54168 0
M  V30 54498 H 5060.22 -1.52871 3.4844 0
M  V30 54499 H 5059.73 0.254249 3.87266 0
M  V30 54500 H 5057.83 -2.08365 3.08893 0
M  V30 54501 H 5057.94 -1.06162 4.6719 0
M  V30 54502 H 5056.31 -0.658332 2.46045 0
M  V30 54503 H 5057.09 0.75775 3.34833 0
M  V30 54504 N 5059.54 -1.57128 -0.121838 0
M  V30 54505 C 5060.79 -1.83891 -0.828683 0
M  V30 54506 C 5061.1 -0.73715 -1.81178 0
M  V30 54507 O 5062.3 -0.891097 -2.5646 0
M  V30 54508 C 5060.76 -3.2602 -1.52444 0
M  V30 54509 C 5060.37 -4.44197 -0.582473 0
M  V30 54510 C 5062.11 -3.62033 -2.21658 0
M  V30 54511 C 5060.02 -5.77353 -1.28129 0
M  V30 54512 H 5058.95 -0.685867 -0.313214 0
M  V30 54513 H 5061.6 -1.83319 -0.0814207 0
M  V30 54514 H 5059.98 -3.21052 -2.31822 0
M  V30 54515 H 5061.16 -4.60456 0.177891 0
M  V30 54516 H 5059.47 -4.164 0.00255867 0
M  V30 54517 H 5062.07 -4.58786 -2.74627 0
M  V30 54518 H 5062.41 -2.89326 -2.99326 0
M  V30 54519 H 5062.94 -3.68772 -1.49171 0
M  V30 54520 H 5059.68 -6.53222 -0.545959 0
M  V30 54521 H 5059.2 -5.64985 -2.01374 0
M  V30 54522 H 5060.88 -6.21013 -1.81527 0
M  V30 54523 N 5061.01 0.391938 -1.52649 0
M  V30 54524 C 5062.26 1.13894 -1.67797 0
M  V30 54525 C 5062.59 1.89709 -0.415207 0
M  V30 54526 O 5061.87 1.85433 0.586913 0
M  V30 54527 C 5062.15 2.11956 -2.91113 0
M  V30 54528 C 5062 1.39924 -4.27483 0
M  V30 54529 C 5063.32 3.12419 -3.09972 0
M  V30 54530 H 5060.44 0.412685 -0.610622 0
M  V30 54531 H 5063.08 0.42266 -1.85239 0
M  V30 54532 H 5061.23 2.73039 -2.76373 0
M  V30 54533 H 5062.91 0.818279 -4.53984 0
M  V30 54534 H 5061.15 0.701096 -4.28097 0
M  V30 54535 H 5061.82 2.11563 -5.09848 0
M  V30 54536 H 5064.3 2.61424 -3.23723 0
M  V30 54537 H 5063.17 3.7828 -3.97738 0
M  V30 54538 H 5063.43 3.81119 -2.24056 0
M  V30 54539 N 5062.49 1.43562 0.650209 0
M  V30 54540 C 5063.91 1.27029 0.966224 0
M  V30 54541 C 5064.11 0.192187 2.00581 0
M  V30 54542 O 5063.16 -0.428371 2.4884 0
M  V30 54543 C 5064.48 2.63561 1.44763 0
M  V30 54544 C 5066.03 2.71117 1.56412 0
M  V30 54545 C 5066.5 4.08074 2.07942 0
M  V30 54546 N 5067.99 4.10154 2.1524 0
M  V30 54547 C 5068.73 5.12961 2.5624 0
M  V30 54548 N 5068.22 6.2614 2.96515 0
M  V30 54549 N 5070.02 5.00315 2.56206 0
M  V30 54550 H 5062.17 2.12367 -0.0376504 0
M  V30 54551 H 5064.43 0.946896 0.0457449 0
M  V30 54552 H 5064.14 3.43431 0.758151 0
M  V30 54553 H 5064.01 2.8916 2.42211 0
M  V30 54554 H 5066.4 1.91577 2.2446 0
M  V30 54555 H 5066.48 2.49279 0.57388 0
M  V30 54556 H 5066.12 4.88082 1.40494 0
M  V30 54557 H 5066.05 4.27277 3.07802 0
M  V30 54558 H 5068.54 3.2846 1.86876 0
M  V30 54559 H 5068.86 7.00414 3.26558 0
M  V30 54560 H 5067.2 6.29607 2.94312 0
M  V30 54561 H 5070.39 4.10959 2.2412 0
M  V30 54562 H 5070.56 5.80563 2.87837 0
M  V30 54563 N 5063.97 -0.888857 1.30143 0
M  V30 54564 C 5064.93 -1.97572 1.16181 0
M  V30 54565 C 5065.93 -1.60524 0.0941424 0
M  V30 54566 O 5067.12 -1.70811 0.341949 0
M  V30 54567 C 5064.26 -3.31878 0.7791 0
M  V30 54568 H 5065.45 -2.11386 2.12735 0
M  V30 54569 H 5063 -1.07476 1.13484 0
M  V30 54570 H 5063.74 -3.23766 -0.186111 0
M  V30 54571 H 5063.52 -3.60136 1.55064 0
M  V30 54572 H 5065.01 -4.1161 0.704776 0
M  V30 54573 N 5065.45 -1.12795 -1.10068 0
M  V30 54574 C 5066.38 -0.757079 -2.16335 0
M  V30 54575 C 5067.39 0.218087 -1.61333 0
M  V30 54576 O 5068.58 -0.00113545 -1.785 0
M  V30 54577 C 5065.68 -0.100422 -3.38751 0
M  V30 54578 C 5064.86 -1.10601 -4.23186 0
M  V30 54579 C 5063.91 -0.476274 -5.2404 0
M  V30 54580 O 5062.94 -1.13437 -5.57782 0
M  V30 54581 N 5064.14 0.754621 -5.75574 0
M  V30 54582 H 5066.91 -1.67149 -2.4876 0
M  V30 54583 H 5064.47 -1.02007 -1.25722 0
M  V30 54584 H 5066.46 0.33295 -4.03328 0
M  V30 54585 H 5065.03 0.716808 -3.04271 0
M  V30 54586 H 5064.25 -1.71689 -3.54847 0
M  V30 54587 H 5065.54 -1.78587 -4.76428 0
M  V30 54588 H 5064.94 1.30819 -5.50366 0
M  V30 54589 H 5063.49 1.13075 -6.41917 0
M  V30 54590 N 5066.93 1.27928 -0.920441 0
M  V30 54591 C 5068.15 1.98803 -0.573157 0
M  V30 54592 C 5068.57 1.68727 0.847141 0
M  V30 54593 O 5067.93 0.943753 1.56204 0
M  V30 54594 C 5067.98 3.52968 -0.780757 0
M  V30 54595 O 5067.7 3.81987 -2.14517 0
M  V30 54596 C 5069.2 4.41099 -0.441205 0
M  V30 54597 H 5066.42 0.634644 -0.217872 0
M  V30 54598 H 5068.96 1.62961 -1.23548 0
M  V30 54599 H 5067.12 3.87047 -0.16534 0
M  V30 54600 H 5067.53 4.76601 -2.18979 0
M  V30 54601 H 5069.01 5.4831 -0.637199 0
M  V30 54602 H 5069.48 4.3476 0.622907 0
M  V30 54603 H 5070.09 4.12528 -1.03445 0
M  V30 54604 N 5068.4 0.685149 1.41928 0
M  V30 54605 C 5069.68 0.14022 1.95097 0
M  V30 54606 C 5070.06 -1.34739 1.62507 0
M  V30 54607 O 5069.41 -2.08869 0.926608 0
M  V30 54608 C 5069.62 0.42039 3.46459 0
M  V30 54609 C 5070.97 0.342487 4.23216 0
M  V30 54610 O 5071.99 0.354716 3.54429 0
M  V30 54611 O 5070.85 0.293596 5.45711 0
M  V30 54612 H 5067.94 0.00888905 0.826952 0
M  V30 54613 H 5070.49 0.760592 1.51701 0
M  V30 54614 H 5069.26 1.4505 3.63423 0
M  V30 54615 H 5068.89 -0.231476 3.96926 0
M  V30 54616 N 5069.88 -1.51644 0.429179 0
M  V30 54617 C 5071.11 -2.06433 -0.138922 0
M  V30 54618 C 5071.53 -1.2974 -1.37161 0
M  V30 54619 O 5070.88 -0.354701 -1.7902 0
M  V30 54620 C 5070.93 -3.5844 -0.469326 0
M  V30 54621 O 5070.65 -4.32236 0.714425 0
M  V30 54622 C 5072.16 -4.29716 -1.08899 0
M  V30 54623 H 5069.38 -0.670901 -0.0115372 0
M  V30 54624 H 5071.92 -1.95318 0.605911 0
M  V30 54625 H 5070.07 -3.69498 -1.16406 0
M  V30 54626 H 5070.49 -5.22703 0.433817 0
M  V30 54627 H 5071.96 -5.37186 -1.27023 0
M  V30 54628 H 5072.44 -3.8748 -2.06774 0
M  V30 54629 H 5073.05 -4.23081 -0.433879 0
M  V30 54630 N 5071.36 -0.160256 -1.56783 0
M  V30 54631 C 5072.31 0.77434 -2.17423 0
M  V30 54632 C 5073.28 1.23479 -1.11096 0
M  V30 54633 O 5074.46 1.30494 -1.39197 0
M  V30 54634 C 5071.6 2.00273 -2.81042 0
M  V30 54635 C 5070.72 1.58687 -4.01799 0
M  V30 54636 C 5069.85 2.76808 -4.53377 0
M  V30 54637 C 5068.89 2.31659 -5.66569 0
M  V30 54638 N 5068.03 3.42834 -6.12706 0
M  V30 54639 H 5072.87 0.250437 -2.96946 0
M  V30 54640 H 5070.4 0.111892 -1.46674 0
M  V30 54641 H 5072.36 2.72305 -3.16079 0
M  V30 54642 H 5070.99 2.50052 -2.04141 0
M  V30 54643 H 5070.04 0.763709 -3.72655 0
M  V30 54644 H 5071.36 1.21538 -4.83766 0
M  V30 54645 H 5070.51 3.57012 -4.90538 0
M  V30 54646 H 5069.25 3.1721 -3.70444 0
M  V30 54647 H 5068.25 1.49899 -5.28971 0
M  V30 54648 H 5069.48 1.92327 -6.51296 0
M  V30 54649 H 5067.43 3.82833 -5.32705 0
M  V30 54650 H 5067.34 3.09742 -6.89634 0
M  V30 54651 H 5068.61 4.23356 -6.54515 0
M  V30 54652 N 5072.84 1.57191 0.113503 0
M  V30 54653 C 5074.07 1.89331 0.834356 0
M  V30 54654 C 5074.48 0.752079 1.73174 0
M  V30 54655 O 5073.84 -0.276849 1.80388 0
M  V30 54656 C 5073.89 3.20968 1.66318 0
M  V30 54657 O 5073.61 4.30698 0.801917 0
M  V30 54658 C 5075.11 3.66849 2.48871 0
M  V30 54659 H 5072.33 0.626777 0.239565 0
M  V30 54660 H 5074.88 2.04273 0.0962476 0
M  V30 54661 H 5073.03 3.07679 2.35399 0
M  V30 54662 H 5073.45 5.0618 1.37413 0
M  V30 54663 H 5074.92 4.61702 3.02547 0
M  V30 54664 H 5075.4 2.93776 3.26484 0
M  V30 54665 H 5076 3.82945 1.85022 0
M  V30 54666 N 5074.32 -0.383837 1.52854 0
M  V30 54667 C 5075.56 -1.12836 1.6815 0
M  V30 54668 C 5075.89 -1.89822 0.424021 0
M  V30 54669 O 5075.15 -1.86477 -0.593699 0
M  V30 54670 C 5075.45 -2.12871 2.8709 0
M  V30 54671 C 5075.11 -1.52504 4.24327 0
M  V30 54672 C 5073.77 -1.35767 4.6165 0
M  V30 54673 C 5076.13 -1.08663 5.09747 0
M  V30 54674 C 5073.45 -0.737438 5.82047 0
M  V30 54675 C 5075.81 -0.480477 6.30773 0
M  V30 54676 C 5074.47 -0.300447 6.66823 0
M  V30 54677 H 5073.74 -0.412895 0.615304 0
M  V30 54678 H 5076.39 -0.41235 1.87008 0
M  V30 54679 H 5074.69 -2.9071 2.62669 0
M  V30 54680 H 5076.39 -2.70397 2.96119 0
M  V30 54681 H 5072.98 -1.6652 3.94929 0
M  V30 54682 H 5077.16 -1.20393 4.81476 0
M  V30 54683 H 5072.42 -0.586201 6.08583 0
M  V30 54684 H 5076.59 -0.132489 6.96274 0
M  V30 54685 H 5074.22 0.182233 7.59982 0
M  V30 54686 N 5075.8 -1.43905 -0.642587 0
M  V30 54687 C 5076.75 -1.46328 -1.74849 0
M  V30 54688 C 5077.73 -0.330417 -1.57471 0
M  V30 54689 O 5078.92 -0.57494 -1.67402 0
M  V30 54690 C 5076.05 -1.3993 -3.13488 0
M  V30 54691 C 5075.14 -2.58286 -3.36376 0
M  V30 54692 N 5075.53 -3.83589 -3.29686 0
M  V30 54693 C 5073.83 -2.53237 -3.67133 0
M  V30 54694 C 5074.53 -4.62388 -3.52948 0
M  V30 54695 N 5073.5 -3.93282 -3.75273 0
M  V30 54696 H 5077.3 -2.41068 -1.68117 0
M  V30 54697 H 5074.82 -1.38707 -0.844645 0
M  V30 54698 H 5076.82 -1.39749 -3.9278 0
M  V30 54699 H 5075.48 -0.462183 -3.21394 0
M  V30 54700 H 5076.49 -4.15724 -3.08859 0
M  V30 54701 H 5073.16 -1.68266 -3.8209 0
M  V30 54702 H 5074.55 -5.71413 -3.53465 0
M  V30 54703 N 5077.27 0.881943 -1.30612 0
M  V30 54704 C 5078.18 2.02072 -1.19181 0
M  V30 54705 C 5079.2 1.73645 -0.111081 0
M  V30 54706 O 5080.38 1.98734 -0.326598 0
M  V30 54707 C 5077.44 3.35147 -0.887555 0
M  V30 54708 C 5076.5 3.76976 -2.05396 0
M  V30 54709 C 5075.73 5.037 -1.76413 0
M  V30 54710 O 5075.96 5.66168 -0.693501 0
M  V30 54711 O 5074.89 5.4201 -2.61742 0
M  V30 54712 H 5078.72 2.14644 -2.14852 0
M  V30 54713 H 5076.3 1.00839 -1.10235 0
M  V30 54714 H 5078.18 4.14972 -0.733206 0
M  V30 54715 H 5076.86 3.23676 0.0392216 0
M  V30 54716 H 5075.77 2.97841 -2.26365 0
M  V30 54717 H 5077.1 3.93055 -2.96257 0
M  V30 54718 N 5078.75 1.13378 1.09468 0
M  V30 54719 C 5079.71 0.813714 2.14269 0
M  V30 54720 C 5080.71 -0.17662 1.59827 0
M  V30 54721 O 5081.9 0.0504054 1.74127 0
M  V30 54722 C 5079.04 0.211016 3.40246 0
M  V30 54723 H 5080.23 1.74238 2.44093 0
M  V30 54724 H 5077.78 0.938348 1.24999 0
M  V30 54725 H 5078.52 -0.726886 3.16049 0
M  V30 54726 H 5078.3 0.924182 3.81053 0
M  V30 54727 H 5079.79 0.00392283 4.176 0
M  V30 54728 N 5080.23 -1.27438 0.927213 0
M  V30 54729 C 5081.48 -1.93677 0.563214 0
M  V30 54730 C 5081.79 -1.73676 -0.899776 0
M  V30 54731 O 5083 -2.34252 -1.37253 0
M  V30 54732 C 5081.45 -3.46957 0.956482 0
M  V30 54733 C 5081.06 -3.75715 2.44012 0
M  V30 54734 C 5082.81 -4.19279 0.663712 0
M  V30 54735 C 5080.71 -5.22368 2.77282 0
M  V30 54736 H 5079.64 -0.725052 0.206919 0
M  V30 54737 H 5082.29 -1.44739 1.12796 0
M  V30 54738 H 5080.68 -3.94702 0.320392 0
M  V30 54739 H 5081.85 -3.3873 3.12408 0
M  V30 54740 H 5080.16 -3.16596 2.70474 0
M  V30 54741 H 5082.76 -5.27262 0.888782 0
M  V30 54742 H 5083.1 -4.14383 -0.399052 0
M  V30 54743 H 5083.64 -3.77355 1.25888 0
M  V30 54744 H 5080.38 -5.32354 3.82465 0
M  V30 54745 H 5079.9 -5.60502 2.13535 0
M  V30 54746 H 5081.58 -5.90241 2.64999 0
M  V30 54747 N 5081.71 -0.692666 -1.41562 0
M  V30 54748 C 5083.12 -0.363933 -1.55395 0
M  V30 54749 C 5083.32 1.12934 -1.66878 0
M  V30 54750 O 5082.38 1.91511 -1.64559 0
M  V30 54751 C 5083.69 -1.10992 -2.79466 0
M  V30 54752 C 5085.24 -1.09398 -2.93259 0
M  V30 54753 C 5085.72 -1.82165 -4.20214 0
M  V30 54754 N 5087.21 -1.7912 -4.27165 0
M  V30 54755 C 5087.94 -2.32265 -5.24252 0
M  V30 54756 N 5087.44 -2.93869 -6.27386 0
M  V30 54757 N 5089.23 -2.22538 -5.16172 0
M  V30 54758 H 5081.38 -1.66121 -1.32354 0
M  V30 54759 H 5083.64 -0.70087 -0.638345 0
M  V30 54760 H 5083.35 -2.1648 -2.77181 0
M  V30 54761 H 5083.22 -0.686623 -3.70898 0
M  V30 54762 H 5085.61 -0.0473675 -2.95062 0
M  V30 54763 H 5085.69 -1.55631 -2.03009 0
M  V30 54764 H 5085.34 -2.86804 -4.19173 0
M  V30 54765 H 5085.27 -1.33368 -5.09431 0
M  V30 54766 H 5087.76 -1.34203 -3.53267 0
M  V30 54767 H 5088.07 -3.31996 -6.97853 0
M  V30 54768 H 5086.42 -2.97946 -6.27896 0
M  V30 54769 H 5089.61 -1.74085 -4.34525 0
M  V30 54770 H 5089.78 -2.6426 -5.91668 0
M  V30 54771 N 5083.19 1.51414 -0.437215 0
M  V30 54772 C 5084.46 1.94683 0.189224 0
M  V30 54773 C 5084.84 1.37587 1.60103 0
M  V30 54774 O 5084.19 0.562893 2.21458 0
M  V30 54775 C 5084.4 3.486 0.167078 0
M  V30 54776 C 5085.75 4.22961 0.372708 0
M  V30 54777 O 5086.77 3.55355 0.245198 0
M  V30 54778 O 5085.63 5.42897 0.626502 0
M  V30 54779 H 5082.73 0.816713 0.130035 0
M  V30 54780 H 5085.27 1.62315 -0.495185 0
M  V30 54781 H 5084.04 3.82613 -0.819945 0
M  V30 54782 H 5083.67 3.8741 0.894401 0
M  V30 54783 N 5084.66 0.168568 1.56696 0
M  V30 54784 C 5085.61 -0.762798 2.1783 0
M  V30 54785 C 5086.58 -1.22888 1.11749 0
M  V30 54786 O 5087.77 -1.29754 1.39887 0
M  V30 54787 C 5084.91 -1.9878 2.821 0
M  V30 54788 C 5084.02 -1.56554 4.02635 0
M  V30 54789 C 5083.15 -2.744 4.54839 0
M  V30 54790 C 5082.19 -2.28651 5.6779 0
M  V30 54791 N 5081.33 -3.3958 6.14516 0
M  V30 54792 H 5086.17 -0.234686 2.97074 0
M  V30 54793 H 5083.71 -0.104112 1.46731 0
M  V30 54794 H 5085.66 -2.70625 3.17518 0
M  V30 54795 H 5084.29 -2.48966 2.05464 0
M  V30 54796 H 5083.35 -0.743936 3.73055 0
M  V30 54797 H 5084.66 -1.18971 4.84404 0
M  V30 54798 H 5083.81 -3.54405 4.92424 0
M  V30 54799 H 5082.55 -3.15241 3.72121 0
M  V30 54800 H 5081.56 -1.47092 5.29759 0
M  V30 54801 H 5082.78 -1.88871 6.52307 0
M  V30 54802 H 5080.73 -3.80002 5.34728 0
M  V30 54803 H 5080.64 -3.06081 6.91267 0
M  V30 54804 H 5081.91 -4.19879 6.56751 0
M  V30 54805 N 5086.14 -1.57249 -0.105165 0
M  V30 54806 C 5087.39 -1.84759 -0.809133 0
M  V30 54807 C 5087.7 -0.756325 -1.80386 0
M  V30 54808 O 5088.91 -0.918248 -2.555 0
M  V30 54809 C 5087.37 -3.27618 -1.48977 0
M  V30 54810 C 5086.97 -4.4479 -0.535328 0
M  V30 54811 C 5088.72 -3.64364 -2.17806 0
M  V30 54812 C 5086.63 -5.7868 -1.21998 0
M  V30 54813 H 5085.56 -0.68915 -0.305922 0
M  V30 54814 H 5088.21 -1.83395 -0.0619727 0
M  V30 54815 H 5086.59 -3.23493 -2.28404 0
M  V30 54816 H 5087.76 -4.60242 0.226719 0
M  V30 54817 H 5086.08 -4.16374 0.0467233 0
M  V30 54818 H 5088.67 -4.61673 -2.69745 0
M  V30 54819 H 5089.02 -2.92484 -2.96241 0
M  V30 54820 H 5089.55 -3.70334 -1.45251 0
M  V30 54821 H 5086.29 -6.53765 -0.476645 0
M  V30 54822 H 5085.81 -5.6709 -1.9537 0
M  V30 54823 H 5087.49 -6.22903 -1.7493 0
M  V30 54824 N 5087.62 0.375726 -1.53056 0
M  V30 54825 C 5088.9 1.13447 -1.5934 0
M  V30 54826 C 5089.28 2.07378 -0.394687 0
M  V30 54827 O 5088.63 2.20042 0.615923 0
M  V30 54828 C 5088.84 1.8825 -2.93876 0
M  V30 54829 C 5090.18 2.43143 -3.4809 0
M  V30 54830 O 5091.21 1.9839 -2.95838 0
M  V30 54831 O 5090.07 3.24929 -4.39413 0
M  V30 54832 H 5087.16 0.519833 -0.643197 0
M  V30 54833 H 5089.71 0.379807 -1.65395 0
M  V30 54834 H 5088.48 1.19639 -3.72562 0
M  V30 54835 H 5088.1 2.70648 -2.91265 0
M  V30 54836 N 5089.1 1.44244 0.634946 0
M  V30 54837 C 5090.05 1.50816 1.74709 0
M  V30 54838 C 5091.02 0.356204 1.62236 0
M  V30 54839 O 5092.2 0.565912 1.82214 0
M  V30 54840 C 5089.34 1.45469 3.12942 0
M  V30 54841 C 5088.45 2.7101 3.36419 0
M  V30 54842 C 5087.59 2.57524 4.64602 0
M  V30 54843 C 5086.63 3.78246 4.81245 0
M  V30 54844 N 5085.76 3.63459 6.00701 0
M  V30 54845 H 5090.6 2.45838 1.68427 0
M  V30 54846 H 5088.14 1.22013 0.821663 0
M  V30 54847 H 5090.1 1.40361 3.9288 0
M  V30 54848 H 5088.73 0.54017 3.18248 0
M  V30 54849 H 5087.78 2.86321 2.50448 0
M  V30 54850 H 5089.09 3.60631 3.44597 0
M  V30 54851 H 5088.25 2.50227 5.52695 0
M  V30 54852 H 5086.99 1.65457 4.58776 0
M  V30 54853 H 5085.99 3.85931 3.91583 0
M  V30 54854 H 5087.22 4.71344 4.88888 0
M  V30 54855 H 5085.16 2.74141 5.95972 0
M  V30 54856 H 5085.08 4.46694 6.09919 0
M  V30 54857 H 5086.35 3.60047 6.91366 0
M  V30 54858 N 5090.58 -0.875004 1.31078 0
M  V30 54859 C 5091.8 -1.66579 1.23556 0
M  V30 54860 C 5092.23 -1.87068 -0.196794 0
M  V30 54861 O 5091.58 -1.40881 -1.14115 0
M  V30 54862 C 5091.63 -3.01394 1.97975 0
M  V30 54863 O 5090.74 -3.90918 1.31365 0
M  V30 54864 H 5090.08 -0.50863 0.426839 0
M  V30 54865 H 5092.61 -1.09133 1.73064 0
M  V30 54866 H 5092.62 -3.51366 2.07378 0
M  V30 54867 H 5091.29 -2.85801 3.02143 0
M  V30 54868 H 5089.87 -3.49364 1.30381 0
M  V30 54869 N 5092.05 -1.13957 -1.08865 0
M  V30 54870 C 5092.96 -0.835743 -2.19209 0
M  V30 54871 C 5093.98 0.181945 -1.73046 0
M  V30 54872 O 5095.16 0.0115953 -2.01397 0
M  V30 54873 C 5092.22 -0.312447 -3.45289 0
M  V30 54874 C 5091.28 -1.3921 -4.06102 0
M  V30 54875 C 5090.52 -0.893681 -5.26164 0
M  V30 54876 O 5090.74 0.266607 -5.69777 0
M  V30 54877 O 5089.67 -1.67057 -5.78252 0
M  V30 54878 H 5093.5 -1.75778 -2.47661 0
M  V30 54879 H 5091.08 -0.917462 -1.17911 0
M  V30 54880 H 5092.97 -0.0263063 -4.21392 0
M  V30 54881 H 5091.64 0.581931 -3.18426 0
M  V30 54882 H 5090.55 -1.73164 -3.3161 0
M  V30 54883 H 5091.88 -2.26083 -4.37204 0
M  V30 54884 N 5093.53 1.26945 -0.933958 0
M  V30 54885 C 5094.48 2.28618 -0.428543 0
M  V30 54886 C 5095.47 1.62146 0.490407 0
M  V30 54887 O 5096.68 1.76168 0.369418 0
M  V30 54888 H 5093.06 0.742359 -0.120029 0
M  V30 54889 H 5095.03 2.68655 -1.29874 0
M  V30 54890 C 5093.78 3.46424 0.297618 0
M  V30 54891 H 5093.1 3.97791 -0.400323 0
M  V30 54892 H 5094.54 4.19507 0.615589 0
M  V30 54893 C 5093 3.01023 1.51285 0
M  V30 54894 O 5093.53 3.05235 2.61141 0
M  V30 54895 N 5091.73 2.56447 1.36687 0
M  V30 54896 H 5091.28 2.53219 0.473089 0
M  V30 54897 H 5091.24 2.26432 2.18119 0
M  V30 54898 N 5095.01 0.700164 1.41193 0
M  V30 54899 C 5096.43 0.372169 1.552 0
M  V30 54900 C 5096.63 -1.12047 1.67474 0
M  V30 54901 O 5095.68 -1.90636 1.65572 0
M  V30 54902 C 5097 1.12472 2.78874 0
M  V30 54903 C 5098.54 1.10951 2.92675 0
M  V30 54904 C 5099.02 1.84391 4.19242 0
M  V30 54905 N 5100.51 1.81383 4.26209 0
M  V30 54906 C 5101.24 2.35042 5.23013 0
M  V30 54907 N 5100.74 2.97192 6.25818 0
M  V30 54908 N 5102.53 2.25272 5.14984 0
M  V30 54909 H 5094.68 1.66821 1.31471 0
M  V30 54910 H 5096.95 0.704246 0.634619 0
M  V30 54911 H 5096.65 2.17947 2.76029 0
M  V30 54912 H 5096.53 0.706283 3.70529 0
M  V30 54913 H 5098.91 0.0630147 2.95033 0
M  V30 54914 H 5099 1.56705 2.02181 0
M  V30 54915 H 5098.64 2.89023 4.17646 0
M  V30 54916 H 5098.57 1.36068 5.08717 0
M  V30 54917 H 5101.06 1.36075 3.52551 0
M  V30 54918 H 5101.37 3.35693 6.96082 0
M  V30 54919 H 5099.72 3.01271 6.26307 0
M  V30 54920 H 5102.91 1.76387 4.33596 0
M  V30 54921 H 5103.08 2.67394 5.90258 0
M  V30 54922 N 5096.49 -1.5118 0.445239 0
M  V30 54923 C 5097.42 -2.25716 -0.398127 0
M  V30 54924 C 5098.43 -1.30036 -0.979516 0
M  V30 54925 O 5099.62 -1.55734 -0.872313 0
M  V30 54926 C 5096.72 -3.00354 -1.56974 0
M  V30 54927 C 5095.9 -4.23191 -1.10581 0
M  V30 54928 C 5094.95 -4.80341 -2.14846 0
M  V30 54929 O 5093.98 -5.41966 -1.73958 0
M  V30 54930 N 5095.18 -4.65065 -3.47411 0
M  V30 54931 H 5097.95 -2.98732 0.240734 0
M  V30 54932 H 5095.51 -1.59555 0.274563 0
M  V30 54933 H 5097.5 -3.35472 -2.26365 0
M  V30 54934 H 5096.07 -2.30299 -2.11379 0
M  V30 54935 H 5095.29 -3.93477 -0.238693 0
M  V30 54936 H 5096.58 -5.02888 -0.77336 0
M  V30 54937 H 5095.98 -4.15997 -3.83357 0
M  V30 54938 H 5094.53 -5.04524 -4.12673 0
M  V30 54939 N 5097.97 -0.176876 -1.56604 0
M  V30 54940 C 5098.91 0.768082 -2.19552 0
M  V30 54941 C 5099.91 1.23339 -1.16121 0
M  V30 54942 O 5101.11 1.1984 -1.34307 0
M  V30 54943 H 5097.49 0.265988 -0.703388 0
M  V30 54944 H 5099.46 0.21327 -2.97637 0
M  V30 54945 C 5098.21 1.98482 -2.85482 0
M  V30 54946 H 5097.53 1.63582 -3.64803 0
M  V30 54947 H 5098.97 2.62477 -3.32989 0
M  V30 54948 C 5097.43 2.812 -1.85548 0
M  V30 54949 O 5097.96 3.78535 -1.3444 0
M  V30 54950 N 5096.17 2.46326 -1.54182 0
M  V30 54951 H 5095.71 1.67234 -1.95935 0
M  V30 54952 H 5095.67 3.01958 -0.875702 0
M  V30 54953 N 5099.44 1.57302 0.0968247 0
M  V30 54954 C 5100.86 1.74963 0.651534 0
M  V30 54955 C 5101.21 0.798809 1.79202 0
M  V30 54956 O 5100.33 -0.0231098 2.16388 0
M  V30 54957 C 5100.93 3.17263 1.18867 0
M  V30 54958 C 5099.49 3.36354 1.68946 0
M  V30 54959 C 5098.63 2.70768 0.598318 0
M  V30 54960 H 5101.58 1.58173 -0.129236 0
M  V30 54961 H 5101.6 3.2004 2.05803 0
M  V30 54962 H 5101.12 3.86442 0.358387 0
M  V30 54963 H 5099.22 2.72252 2.54381 0
M  V30 54964 H 5099.33 4.4466 1.78364 0
M  V30 54965 H 5097.69 2.32618 1.03735 0
M  V30 54966 H 5098.48 3.42586 -0.221358 0
M  V30 54967 N 5100.92 -0.367603 1.53253 0
M  V30 54968 C 5101.83 -1.47409 1.82504 0
M  V30 54969 C 5102.85 -1.58708 0.713278 0
M  V30 54970 O 5104.03 -1.74641 1.00312 0
M  V30 54971 C 5101.09 -2.82699 2.00704 0
M  V30 54972 C 5100.15 -2.80944 3.24606 0
M  V30 54973 C 5099.38 -4.09781 3.41928 0
M  V30 54974 O 5099.61 -5.05843 2.6359 0
M  V30 54975 O 5098.54 -4.15716 4.35274 0
M  V30 54976 H 5102.37 -1.25614 2.76504 0
M  V30 54977 H 5099.95 -0.55751 1.38608 0
M  V30 54978 H 5101.83 -3.62865 2.14258 0
M  V30 54979 H 5100.51 -3.04475 1.09894 0
M  V30 54980 H 5099.42 -1.99483 3.16476 0
M  V30 54981 H 5100.75 -2.64121 4.15332 0
M  V30 54982 N 5102.4 -1.44578 -0.627288 0
M  V30 54983 C 5103.33 -1.54568 -1.75017 0
M  V30 54984 C 5104.31 -0.398436 -1.65368 0
M  V30 54985 O 5105.5 -0.619055 -1.84069 0
M  V30 54986 C 5102.63 -1.4932 -3.13561 0
M  V30 54987 C 5101.58 -2.6256 -3.38003 0
M  V30 54988 C 5100.91 -2.42365 -4.76617 0
M  V30 54989 C 5102.21 -4.04689 -3.30187 0
M  V30 54990 H 5103.9 -2.48556 -1.66913 0
M  V30 54991 H 5101.45 -1.19626 -0.801594 0
M  V30 54992 H 5103.4 -1.54909 -3.91894 0
M  V30 54993 H 5102.12 -0.518506 -3.22458 0
M  V30 54994 H 5100.78 -2.56367 -2.62052 0
M  V30 54995 H 5100.43 -1.43079 -4.82221 0
M  V30 54996 H 5100.13 -3.18291 -4.93928 0
M  V30 54997 H 5101.66 -2.49777 -5.57175 0
M  V30 54998 H 5103.07 -4.12231 -3.9842 0
M  V30 54999 H 5101.47 -4.80849 -3.59033 0
M  V30 55000 H 5102.54 -4.27988 -2.27934 0
M  V30 55001 N 5103.88 0.86804 -1.3154 0
M  V30 55002 C 5104.83 1.96317 -1.15947 0
M  V30 55003 C 5105.81 1.60748 -0.0699527 0
M  V30 55004 O 5107.01 1.74523 -0.295072 0
M  V30 55005 C 5104.13 3.32069 -0.870906 0
M  V30 55006 C 5103.22 3.739 -2.0015 0
M  V30 55007 N 5103.61 3.87674 -3.24873 0
M  V30 55008 C 5101.91 4.03426 -1.90167 0
M  V30 55009 C 5102.61 4.2344 -3.9884 0
M  V30 55010 N 5101.59 4.34231 -3.27024 0
M  V30 55011 H 5105.39 2.0508 -2.10521 0
M  V30 55012 H 5102.9 1.05896 -1.23125 0
M  V30 55013 H 5104.9 4.10277 -0.740178 0
M  V30 55014 H 5103.56 3.24632 0.0665926 0
M  V30 55015 H 5104.57 3.7235 -3.59966 0
M  V30 55016 H 5101.25 4.04367 -1.03894 0
M  V30 55017 H 5102.64 4.41678 -5.0633 0
M  V30 55018 N 5105.36 1.14532 1.0826 0
M  V30 55019 C 5106.31 0.829277 2.17315 0
M  V30 55020 C 5107.3 -0.193462 1.68292 0
M  V30 55021 O 5108.51 -0.0494112 1.79932 0
M  V30 55022 H 5104.88 0.25046 0.709065 0
M  V30 55023 H 5106.85 1.75691 2.41195 0
M  V30 55024 C 5105.6 0.324785 3.4618 0
M  V30 55025 H 5104.92 1.10313 3.8428 0
M  V30 55026 H 5106.36 0.142208 4.23761 0
M  V30 55027 C 5104.82 -0.95192 3.23172 0
M  V30 55028 O 5105.35 -2.02537 3.46903 0
M  V30 55029 N 5103.56 -0.887757 2.76708 0
M  V30 55030 H 5103.11 -0.0140497 2.57596 0
M  V30 55031 H 5103.06 -1.74254 2.61692 0
M  V30 55032 N 5106.84 -1.26448 0.940677 0
M  V30 55033 C 5107.78 -2.26399 0.448577 0
M  V30 55034 C 5108.75 -1.58662 -0.49149 0
M  V30 55035 O 5109.94 -1.86391 -0.407808 0
M  V30 55036 C 5107.08 -3.43957 -0.280594 0
M  V30 55037 C 5106.19 -4.26371 0.695087 0
M  V30 55038 C 5105.33 -5.31171 -0.0552319 0
M  V30 55039 C 5104.36 -6.05263 0.912303 0
M  V30 55040 N 5103.5 -7.01833 0.193771 0
M  V30 55041 H 5108.34 -2.67865 1.30585 0
M  V30 55042 H 5105.88 -1.31705 0.655159 0
M  V30 55043 H 5107.84 -4.10944 -0.719796 0
M  V30 55044 H 5106.47 -3.03406 -1.10201 0
M  V30 55045 H 5105.52 -3.59178 1.2528 0
M  V30 55046 H 5106.83 -4.77743 1.43399 0
M  V30 55047 H 5105.98 -6.04168 -0.553739 0
M  V30 55048 H 5104.72 -4.80637 -0.827014 0
M  V30 55049 H 5103.73 -5.31094 1.42194 0
M  V30 55050 H 5104.95 -6.57887 1.68408 0
M  V30 55051 H 5102.9 -6.53609 -0.559529 0
M  V30 55052 H 5102.82 -7.50954 0.872008 0
M  V30 55053 H 5104.08 -7.78984 -0.283658 0
M  V30 55054 N 5108.31 -0.707642 -1.4082 0
M  V30 55055 C 5109.24 -0.0645745 -2.33411 0
M  V30 55056 C 5110.22 0.754152 -1.52468 0
M  V30 55057 O 5111.41 0.704685 -1.80964 0
M  V30 55058 C 5108.54 0.863747 -3.36388 0
M  V30 55059 C 5107.49 0.15123 -4.27733 0
M  V30 55060 C 5106.82 1.19473 -5.21182 0
M  V30 55061 C 5108.12 -0.989788 -5.12836 0
M  V30 55062 H 5109.81 -0.83793 -2.87435 0
M  V30 55063 H 5107.36 -0.404395 -1.38205 0
M  V30 55064 H 5109.31 1.32295 -4.00095 0
M  V30 55065 H 5108.04 1.66891 -2.8074 0
M  V30 55066 H 5106.7 -0.288065 -3.65466 0
M  V30 55067 H 5106.34 1.99273 -4.61843 0
M  V30 55068 H 5106.04 0.722918 -5.83136 0
M  V30 55069 H 5107.57 1.6542 -5.87766 0
M  V30 55070 H 5108.98 -0.610315 -5.70042 0
M  V30 55071 H 5107.38 -1.38946 -5.83793 0
M  V30 55072 H 5108.45 -1.82405 -4.49285 0
M  V30 55073 N 5109.79 1.50942 -0.45325 0
M  V30 55074 C 5110.72 2.31006 0.340359 0
M  V30 55075 C 5111.7 1.37116 1.00665 0
M  V30 55076 O 5112.89 1.66037 1.00724 0
M  V30 55077 C 5110.02 3.16363 1.43289 0
M  V30 55078 C 5108.97 4.18661 0.889216 0
M  V30 55079 C 5108.3 4.9264 2.0787 0
M  V30 55080 C 5109.6 5.22227 -0.0872978 0
M  V30 55081 H 5111.29 2.976 -0.327828 0
M  V30 55082 H 5108.84 1.43118 -0.159104 0
M  V30 55083 H 5110.79 3.71162 1.99542 0
M  V30 55084 H 5109.51 2.4762 2.1296 0
M  V30 55085 H 5108.17 3.64937 0.348787 0
M  V30 55086 H 5107.82 4.20386 2.76197 0
M  V30 55087 H 5107.52 5.61825 1.72123 0
M  V30 55088 H 5109.05 5.50268 2.64647 0
M  V30 55089 H 5110.46 5.72003 0.385455 0
M  V30 55090 H 5108.86 5.9903 -0.358136 0
M  V30 55091 H 5109.93 4.74073 -1.01895 0
M  V30 55092 N 5111.27 0.185179 1.56508 0
M  V30 55093 C 5112.18 -0.75183 2.22227 0
M  V30 55094 C 5113.2 -1.2424 1.21821 0
M  V30 55095 O 5114.37 -1.29164 1.54527 0
M  V30 55096 C 5111.44 -1.95827 2.86099 0
M  V30 55097 C 5110.5 -1.51323 4.01746 0
M  V30 55098 C 5109.73 -2.66217 4.62563 0
M  V30 55099 O 5109.95 -3.83445 4.22287 0
M  V30 55100 O 5108.89 -2.39497 5.522 0
M  V30 55101 H 5112.71 -0.222197 3.02886 0
M  V30 55102 H 5110.3 -0.0436616 1.49336 0
M  V30 55103 H 5112.18 -2.66357 3.26546 0
M  V30 55104 H 5110.86 -2.4767 2.08426 0
M  V30 55105 H 5109.76 -0.777027 3.65941 0
M  V30 55106 H 5111.1 -1.04158 4.81053 0
M  V30 55107 N 5112.75 -1.57351 -0.0884812 0
M  V30 55108 C 5114 -1.85607 -0.789491 0
M  V30 55109 C 5114.31 -0.775415 -1.79574 0
M  V30 55110 O 5115.52 -0.945296 -2.54512 0
M  V30 55111 C 5113.97 -3.2918 -1.45494 0
M  V30 55112 C 5113.58 -4.45333 -0.488122 0
M  V30 55113 C 5115.32 -3.66653 -2.13929 0
M  V30 55114 C 5113.23 -5.79941 -1.15854 0
M  V30 55115 H 5112.16 -0.692356 -0.298595 0
M  V30 55116 H 5114.81 -1.83451 -0.0425176 0
M  V30 55117 H 5113.19 -3.25897 -2.2496 0
M  V30 55118 H 5114.37 -4.59976 0.275521 0
M  V30 55119 H 5112.68 -4.16301 0.0908827 0
M  V30 55120 H 5115.28 -4.64508 -2.64833 0
M  V30 55121 H 5115.62 -2.9561 -2.93122 0
M  V30 55122 H 5116.16 -3.71853 -1.41315 0
M  V30 55123 H 5112.89 -6.54234 -0.407278 0
M  V30 55124 H 5112.41 -5.6913 -1.89344 0
M  V30 55125 H 5114.09 -6.24723 -1.68314 0
M  V30 55126 N 5114.23 0.359471 -1.53446 0
M  V30 55127 C 5115.47 1.10146 -1.69924 0
M  V30 55128 C 5115.8 1.89123 -0.454166 0
M  V30 55129 O 5115.06 1.87398 0.563957 0
M  V30 55130 C 5115.35 2.08277 -2.9044 0
M  V30 55131 C 5115.02 1.45734 -4.26699 0
M  V30 55132 C 5113.68 1.28405 -4.63752 0
M  V30 55133 C 5116.03 1.00539 -5.11411 0
M  V30 55134 C 5113.36 0.644746 -5.83147 0
M  V30 55135 C 5115.71 0.380066 -6.31457 0
M  V30 55136 C 5114.38 0.194323 -6.67217 0
M  V30 55137 H 5113.65 0.403054 -0.621795 0
M  V30 55138 H 5116.3 0.382546 -1.8764 0
M  V30 55139 H 5114.6 2.86494 -2.67261 0
M  V30 55140 H 5116.3 2.65652 -3.00383 0
M  V30 55141 H 5112.89 1.60216 -3.97528 0
M  V30 55142 H 5117.07 1.12718 -4.8333 0
M  V30 55143 H 5112.33 0.489306 -6.09439 0
M  V30 55144 H 5116.5 0.0217007 -6.96397 0
M  V30 55145 H 5114.13 -0.303117 -7.59595 0
M  V30 55146 N 5115.7 1.44909 0.619611 0
M  V30 55147 C 5116.65 1.49091 1.72499 0
M  V30 55148 C 5117.64 0.355427 1.56925 0
M  V30 55149 O 5118.83 0.6015 1.66466 0
M  V30 55150 C 5115.96 1.44899 3.11222 0
M  V30 55151 C 5115.05 2.63605 3.32225 0
M  V30 55152 N 5115.44 3.88786 3.23542 0
M  V30 55153 C 5113.73 2.59046 3.63058 0
M  V30 55154 C 5114.44 4.67944 3.45547 0
M  V30 55155 N 5113.41 3.99203 3.68969 0
M  V30 55156 H 5117.21 2.43712 1.64261 0
M  V30 55157 H 5114.73 1.40033 0.822471 0
M  V30 55158 H 5116.72 1.4598 3.90507 0
M  V30 55159 H 5115.38 0.513256 3.20618 0
M  V30 55160 H 5116.4 4.20585 3.02206 0
M  V30 55161 H 5113.07 1.74323 3.79365 0
M  V30 55162 H 5114.46 5.76964 3.44329 0
M  V30 55163 N 5117.18 -0.861052 1.31999 0
M  V30 55164 C 5118.41 -1.64736 1.25179 0
M  V30 55165 C 5118.83 -1.87927 -0.181359 0
M  V30 55166 O 5118.18 -1.44374 -1.11635 0
M  V30 55167 C 5118.23 -3.01029 2.0016 0
M  V30 55168 O 5117.95 -2.78868 3.37882 0
M  V30 55169 C 5119.46 -3.95474 2.00287 0
M  V30 55170 H 5116.68 -0.513299 0.432164 0
M  V30 55171 H 5119.22 -1.07413 1.74019 0
M  V30 55172 H 5117.37 -3.55015 1.55058 0
M  V30 55173 H 5117.79 -3.65501 3.76178 0
M  V30 55174 H 5119.26 -4.88394 2.57246 0
M  V30 55175 H 5119.74 -4.27953 0.987557 0
M  V30 55176 H 5120.35 -3.47425 2.45308 0
M  V30 55177 N 5118.66 -1.15105 -1.07651 0
M  V30 55178 C 5119.91 -0.918592 -1.79568 0
M  V30 55179 C 5120.22 0.555856 -1.87536 0
M  V30 55180 O 5121.43 0.905803 -2.55944 0
M  V30 55181 C 5119.88 -1.59406 -3.22673 0
M  V30 55182 C 5119.49 -3.10531 -3.22916 0
M  V30 55183 C 5121.24 -1.44303 -3.9922 0
M  V30 55184 C 5119.14 -3.70878 -4.60655 0
M  V30 55185 H 5118.07 -0.34003 -0.672975 0
M  V30 55186 H 5120.72 -1.38084 -1.20852 0
M  V30 55187 H 5119.11 -1.0595 -3.81563 0
M  V30 55188 H 5120.28 -3.70718 -2.73687 0
M  V30 55189 H 5118.6 -3.2536 -2.59865 0
M  V30 55190 H 5121.19 -1.86783 -5.01015 0
M  V30 55191 H 5121.54 -0.390121 -4.14468 0
M  V30 55192 H 5122.07 -1.94839 -3.46818 0
M  V30 55193 H 5118.81 -4.76056 -4.50612 0
M  V30 55194 H 5118.33 -3.15474 -5.10134 0
M  V30 55195 H 5120.01 -3.71625 -5.29626 0
M  V30 55196 N 5120.14 1.25947 -0.94737 0
M  V30 55197 C 5121.1 2.24405 -0.466364 0
M  V30 55198 C 5122.1 1.55056 0.42595 0
M  V30 55199 O 5123.29 1.7275 0.224259 0
M  V30 55200 C 5120.42 3.39327 0.327082 0
M  V30 55201 H 5121.62 2.68472 -1.33652 0
M  V30 55202 H 5119.17 1.38209 -0.729935 0
M  V30 55203 H 5119.9 3.00671 1.21522 0
M  V30 55204 H 5119.69 3.90849 -0.312976 0
M  V30 55205 H 5121.18 4.12458 0.653332 0
M  V30 55206 N 5121.62 0.7151 1.40442 0
M  V30 55207 C 5122.55 0.0228321 2.29189 0
M  V30 55208 C 5123.56 -0.724262 1.45802 0
M  V30 55209 O 5124.75 -0.571722 1.69096 0
M  V30 55210 C 5121.85 -0.991924 3.24059 0
M  V30 55211 C 5121.02 -0.31046 4.36297 0
M  V30 55212 C 5120.08 -1.23053 5.1161 0
M  V30 55213 O 5119.11 -0.715511 5.64685 0
M  V30 55214 N 5120.31 -2.5617 5.20919 0
M  V30 55215 H 5123.08 0.784832 2.89241 0
M  V30 55216 H 5120.64 0.562691 1.51807 0
M  V30 55217 H 5122.63 -1.6096 3.71314 0
M  V30 55218 H 5121.2 -1.65529 2.65177 0
M  V30 55219 H 5120.42 0.487407 3.91175 0
M  V30 55220 H 5121.71 0.162594 5.0854 0
M  V30 55221 H 5121.1 -3.0051 4.79281 0
M  V30 55222 H 5119.66 -3.13083 5.71684 0
M  V30 55223 N 5123.09 -1.50699 0.461248 0
M  V30 55224 C 5124.51 -1.867 0.0037679 0
M  V30 55225 C 5124.86 -1.37678 -1.39782 0
M  V30 55226 O 5123.98 -0.737586 -2.03442 0
M  V30 55227 C 5124.58 -3.388 6.15264e-05 0
M  V30 55228 C 5123.14 -3.74248 -0.401912 0
M  V30 55229 C 5122.28 -2.74547 0.389749 0
M  V30 55230 H 5125.23 -1.43583 0.675992 0
M  V30 55231 H 5125.25 -3.71903 -0.804283 0
M  V30 55232 H 5124.77 -3.74449 1.02028 0
M  V30 55233 H 5122.87 -3.44197 -1.42685 0
M  V30 55234 H 5122.98 -4.78973 -0.110096 0
M  V30 55235 H 5121.34 -2.54227 -0.155224 0
M  V30 55236 H 5122.13 -3.1304 1.4093 0
M  V30 55237 N 5124.57 -0.193476 -1.56408 0
M  V30 55238 C 5125.8 0.451367 -2.01917 0
M  V30 55239 C 5126.22 1.55302 -1.07362 0
M  V30 55240 O 5125.57 1.82332 -0.0782153 0
M  V30 55241 C 5125.62 1.00919 -3.47128 0
M  V30 55242 O 5125.34 -0.0485163 -4.38073 0
M  V30 55243 C 5126.85 1.73007 -4.08146 0
M  V30 55244 H 5124.07 0.113472 -0.661336 0
M  V30 55245 H 5126.61 -0.301707 -2.02262 0
M  V30 55246 H 5124.76 1.71265 -3.47487 0
M  V30 55247 H 5125.18 0.366461 -5.23218 0
M  V30 55248 H 5126.65 2.07271 -5.11608 0
M  V30 55249 H 5127.13 2.63318 -3.51512 0
M  V30 55250 H 5127.74 1.07249 -4.11555 0
M  V30 55251 N 5126.05 1.57396 0.0801353 0
M  V30 55252 C 5126.98 2.06149 1.09658 0
M  V30 55253 C 5127.96 0.953323 1.40875 0
M  V30 55254 O 5129.15 1.22553 1.50647 0
M  V30 55255 C 5126.28 2.49845 2.41236 0
M  V30 55256 C 5125.23 3.64462 2.24392 0
M  V30 55257 C 5124.56 3.94185 3.61279 0
M  V30 55258 C 5125.86 4.94813 1.67205 0
M  V30 55259 H 5127.55 2.91319 0.690926 0
M  V30 55260 H 5125.1 1.40146 0.330908 0
M  V30 55261 H 5127.05 2.82563 3.12628 0
M  V30 55262 H 5125.77 1.61693 2.83766 0
M  V30 55263 H 5124.43 3.32014 1.55442 0
M  V30 55264 H 5124.08 3.03177 4.01364 0
M  V30 55265 H 5123.78 4.71357 3.5085 0
M  V30 55266 H 5125.3 4.29391 4.34115 0
M  V30 55267 H 5126.72 5.25815 2.28454 0
M  V30 55268 H 5125.12 5.76251 1.67495 0
M  V30 55269 H 5126.19 4.80754 0.632775 0
M  V30 55270 N 5127.53 -0.351328 1.53634 0
M  V30 55271 C 5128.48 -1.43109 1.81076 0
M  V30 55272 C 5129.45 -1.52598 0.655966 0
M  V30 55273 O 5130.63 -1.68261 0.899609 0
M  V30 55274 C 5127.77 -2.79867 2.01912 0
M  V30 55275 C 5126.88 -2.7923 3.29628 0
M  V30 55276 C 5126.02 -4.07655 3.40574 0
M  V30 55277 C 5125.06 -4.01217 4.62268 0
M  V30 55278 N 5124.19 -5.21318 4.7029 0
M  V30 55279 H 5129.03 -1.19008 2.73205 0
M  V30 55280 H 5126.57 -0.576643 1.35326 0
M  V30 55281 H 5128.53 -3.59332 2.11982 0
M  V30 55282 H 5127.16 -3.02336 1.13105 0
M  V30 55283 H 5126.21 -1.91915 3.2844 0
M  V30 55284 H 5127.52 -2.70349 4.19181 0
M  V30 55285 H 5126.68 -4.95542 3.50033 0
M  V30 55286 H 5125.42 -4.19308 2.49062 0
M  V30 55287 H 5124.42 -3.11716 4.52895 0
M  V30 55288 H 5125.65 -3.91154 5.55136 0
M  V30 55289 H 5123.59 -5.33529 3.81684 0
M  V30 55290 H 5123.51 -5.14662 5.53768 0
M  V30 55291 H 5124.78 -6.10997 4.84048 0
M  V30 55292 N 5129.01 -1.45235 -0.611918 0
M  V30 55293 C 5129.96 -1.50003 -1.71706 0
M  V30 55294 C 5130.94 -0.363744 -1.56735 0
M  V30 55295 O 5132.13 -0.610319 -1.66145 0
M  V30 55296 C 5129.26 -1.46548 -3.10449 0
M  V30 55297 C 5128.35 -2.65363 -3.30822 0
M  V30 55298 N 5128.74 -3.90496 -3.21475 0
M  V30 55299 C 5127.04 -2.60968 -3.61679 0
M  V30 55300 C 5127.74 -4.6977 -3.43061 0
M  V30 55301 N 5126.71 -4.01154 -3.66846 0
M  V30 55302 H 5130.52 -2.4458 -1.62966 0
M  V30 55303 H 5128.03 -1.40467 -0.815033 0
M  V30 55304 H 5130.03 -1.48049 -3.89727 0
M  V30 55305 H 5128.69 -0.530252 -3.20341 0
M  V30 55306 H 5129.7 -4.22182 -2.99972 0
M  V30 55307 H 5126.37 -1.76332 -3.78435 0
M  V30 55308 H 5127.76 -5.78782 -3.41265 0
M  V30 55309 N 5130.49 0.85404 -1.32453 0
M  V30 55310 C 5131.71 1.6407 -1.26051 0
M  V30 55311 C 5132.13 1.8802 0.17139 0
M  V30 55312 O 5131.49 1.44964 1.10868 0
M  V30 55313 C 5131.54 2.99963 -2.01754 0
M  V30 55314 O 5131.26 2.77072 -3.39356 0
M  V30 55315 C 5132.76 3.94407 -2.02382 0
M  V30 55316 H 5129.98 0.511 -0.43488 0
M  V30 55317 H 5132.52 1.06488 -1.74587 0
M  V30 55318 H 5130.68 3.54188 -1.56939 0
M  V30 55319 H 5131.09 3.63501 -3.78111 0
M  V30 55320 H 5132.57 4.87023 -2.59832 0
M  V30 55321 H 5133.04 4.27423 -1.01024 0
M  V30 55322 H 5133.65 3.46119 -2.47148 0
M  V30 55323 N 5131.96 1.15674 1.07039 0
M  V30 55324 C 5133.19 0.956147 1.83143 0
M  V30 55325 C 5133.6 -0.498905 1.82504 0
M  V30 55326 O 5132.94 -1.35787 1.23724 0
M  V30 55327 C 5133.01 1.39715 3.3124 0
M  V30 55328 C 5132.67 2.87057 3.55594 0
M  V30 55329 C 5133.67 3.85104 3.49272 0
M  V30 55330 C 5131.35 3.248 3.83158 0
M  V30 55331 C 5133.35 5.18898 3.70167 0
M  V30 55332 C 5131.03 4.58765 4.03705 0
M  V30 55333 C 5132.03 5.55623 3.97205 0
M  V30 55334 O 5131.72 6.87168 4.17199 0
M  V30 55335 H 5131.45 0.339494 0.584568 0
M  V30 55336 H 5134.01 1.53926 1.35999 0
M  V30 55337 H 5132.24 0.757459 3.79209 0
M  V30 55338 H 5133.92 1.16516 3.88817 0
M  V30 55339 H 5134.69 3.57291 3.27975 0
M  V30 55340 H 5130.57 2.49993 3.8733 0
M  V30 55341 H 5134.11 5.94486 3.65009 0
M  V30 55342 H 5130.01 4.86292 4.24488 0
M  V30 55343 H 5130.78 6.93633 4.34529 0
M  V30 55344 N 5133.44 -1.25443 0.954036 0
M  V30 55345 C 5134.69 -1.9276 0.607295 0
M  V30 55346 C 5135.01 -1.75093 -0.858337 0
M  V30 55347 O 5134.28 -1.11421 -1.61128 0
M  V30 55348 H 5132.86 -0.713369 0.221616 0
M  V30 55349 H 5135.52 -1.5262 1.21215 0
M  V30 55350 H 5134.62 -3.00692 0.836104 0
M  V30 55351 N 5134.92 -0.722538 -1.40061 0
M  V30 55352 C 5135.83 -0.0756808 -2.34478 0
M  V30 55353 C 5136.85 0.735991 -1.57668 0
M  V30 55354 O 5138.02 0.667341 -1.90022 0
M  V30 55355 C 5135.09 0.829956 -3.36619 0
M  V30 55356 C 5134.15 0.00744792 -4.29299 0
M  V30 55357 C 5133.38 0.869954 -5.26562 0
M  V30 55358 O 5133.6 2.10903 -5.29978 0
M  V30 55359 O 5132.54 0.305242 -6.01126 0
M  V30 55360 H 5136.36 -0.854648 -2.91427 0
M  V30 55361 H 5133.95 -0.483081 -1.41374 0
M  V30 55362 H 5135.83 1.3485 -3.99241 0
M  V30 55363 H 5134.51 1.58795 -2.82074 0
M  V30 55364 H 5133.41 -0.55633 -3.6994 0
M  V30 55365 H 5134.75 -0.712483 -4.87016 0
M  V30 55366 N 5136.4 1.50453 -0.469234 0
M  V30 55367 C 5137.64 2.02615 0.0865259 0
M  V30 55368 C 5137.98 1.35066 1.39537 0
M  V30 55369 O 5137.25 0.475767 1.88591 0
M  V30 55370 C 5137.53 3.59069 0.272258 0
M  V30 55371 C 5137.39 4.37193 -1.05748 0
M  V30 55372 C 5138.71 4.27934 1.02765 0
M  V30 55373 H 5135.83 0.73639 0.0299718 0
M  V30 55374 H 5138.47 1.7979 -0.614462 0
M  V30 55375 H 5136.62 3.78649 0.869338 0
M  V30 55376 H 5138.29 4.29189 -1.69099 0
M  V30 55377 H 5136.53 4.01007 -1.65456 0
M  V30 55378 H 5137.2 5.44921 -0.881188 0
M  V30 55379 H 5139.68 4.12818 0.521573 0
M  V30 55380 H 5138.56 5.37218 1.1264 0
M  V30 55381 H 5138.82 3.90975 2.06376 0
M  V30 55382 N 5137.88 0.201768 1.56303 0
M  V30 55383 C 5139.1 -0.440652 2.02153 0
M  V30 55384 C 5139.52 -1.54731 1.08184 0
M  V30 55385 O 5138.88 -1.82288 0.0878837 0
M  V30 55386 C 5138.93 -0.990762 3.47658 0
M  V30 55387 O 5138.65 0.0717477 4.38041 0
M  V30 55388 C 5140.15 -1.7084 4.09058 0
M  V30 55389 H 5137.37 -0.109963 0.661928 0
M  V30 55390 H 5139.91 0.312429 2.02099 0
M  V30 55391 H 5138.07 -1.6942 3.4839 0
M  V30 55392 H 5138.48 -0.338708 5.23405 0
M  V30 55393 H 5139.96 -2.04554 5.127 0
M  V30 55394 H 5140.43 -2.6145 3.52903 0
M  V30 55395 H 5141.04 -1.05065 4.12118 0
M  V30 55396 N 5139.35 -1.57436 -0.071787 0
M  V30 55397 C 5140.6 -1.88391 -0.766838 0
M  V30 55398 C 5140.95 -0.795461 -1.75186 0
M  V30 55399 O 5140.25 0.200371 -1.90549 0
M  V30 55400 C 5140.44 -3.23728 -1.51443 0
M  V30 55401 C 5140.27 -4.45635 -0.603318 0
M  V30 55402 C 5139.04 -5.04728 -0.24026 0
M  V30 55403 C 5141.24 -5.14203 0.0999432 0
M  V30 55404 N 5139.22 -6.1016 0.676578 0
M  V30 55405 C 5140.59 -6.13809 0.873971 0
M  V30 55406 C 5142.65 -4.97605 0.171413 0
M  V30 55407 C 5141.35 -6.98609 1.71283 0
M  V30 55408 C 5143.38 -5.82931 0.997246 0
M  V30 55409 C 5142.74 -6.82076 1.75932 0
M  V30 55410 H 5138.84 -0.738897 -0.256038 0
M  V30 55411 H 5141.42 -1.94679 -0.0283588 0
M  V30 55412 H 5139.59 -3.18448 -2.22364 0
M  V30 55413 H 5141.32 -3.42331 -2.1585 0
M  V30 55414 H 5138.08 -4.69871 -0.593119 0
M  V30 55415 H 5138.5 -6.67533 1.12824 0
M  V30 55416 H 5143.14 -4.20871 -0.403438 0
M  V30 55417 H 5140.86 -7.74718 2.29865 0
M  V30 55418 H 5144.45 -5.72145 1.05552 0
M  V30 55419 H 5143.33 -7.46955 2.38804 0
M  V30 55420 N 5140.83 0.343176 -1.53818 0
M  V30 55421 C 5141.74 1.44487 -1.84826 0
M  V30 55422 C 5142.76 1.57554 -0.738436 0
M  V30 55423 O 5143.93 1.73023 -1.03078 0
M  V30 55424 C 5141 2.7947 -2.05176 0
M  V30 55425 C 5140.06 2.75744 -3.29034 0
M  V30 55426 C 5139.29 4.0429 -3.48404 0
M  V30 55427 O 5139.52 5.01585 -2.71604 0
M  V30 55428 O 5138.45 4.08739 -4.41833 0
M  V30 55429 H 5142.28 1.212 -2.78468 0
M  V30 55430 H 5139.86 0.535388 -1.39477 0
M  V30 55431 H 5141.74 3.59411 -2.20004 0
M  V30 55432 H 5140.42 3.02688 -1.14724 0
M  V30 55433 H 5139.32 1.94423 -3.1961 0
M  V30 55434 H 5140.66 2.5748 -4.19481 0
M  V30 55435 N 5142.31 1.45558 0.604207 0
M  V30 55436 C 5143.24 1.505 1.72865 0
M  V30 55437 C 5144.25 0.395424 1.57925 0
M  V30 55438 O 5145.44 0.662662 1.65744 0
M  V30 55439 C 5142.54 1.34884 3.10901 0
M  V30 55440 C 5141.72 2.59577 3.52049 0
M  V30 55441 C 5140.78 2.3847 4.69061 0
M  V30 55442 O 5139.8 3.12099 4.76007 0
M  V30 55443 N 5141 1.43248 5.62548 0
M  V30 55444 H 5143.77 2.47446 1.69088 0
M  V30 55445 H 5141.33 1.41341 0.789586 0
M  V30 55446 H 5143.32 1.18569 3.86941 0
M  V30 55447 H 5141.89 0.462022 3.09167 0
M  V30 55448 H 5141.11 2.90984 2.65936 0
M  V30 55449 H 5142.4 3.42455 3.76301 0
M  V30 55450 H 5141.8 0.824911 5.59653 0
M  V30 55451 H 5140.35 1.32904 6.38106 0
M  V30 55452 N 5143.79 -0.847003 1.32905 0
M  V30 55453 C 5144.72 -1.97161 1.25098 0
M  V30 55454 C 5145.7 -1.69578 0.133221 0
M  V30 55455 O 5146.88 -1.91518 0.321658 0
M  V30 55456 C 5144.01 -3.33154 0.981123 0
M  V30 55457 C 5142.97 -3.75112 2.06095 0
M  V30 55458 C 5142.29 -5.0882 1.64336 0
M  V30 55459 C 5143.59 -3.89762 3.47683 0
M  V30 55460 H 5145.29 -2.0395 2.19191 0
M  V30 55461 H 5142.83 -0.97987 1.0552 0
M  V30 55462 H 5144.79 -4.1139 0.913036 0
M  V30 55463 H 5143.51 -3.266 0.0045704 0
M  V30 55464 H 5142.17 -2.99133 2.11932 0
M  V30 55465 H 5141.82 -4.9873 0.654052 0
M  V30 55466 H 5141.52 -5.37865 2.36591 0
M  V30 55467 H 5143.04 -5.89541 1.58978 0
M  V30 55468 H 5144.46 -4.58331 3.44392 0
M  V30 55469 H 5142.85 -4.30233 4.18353 0
M  V30 55470 H 5143.92 -2.92449 3.86784 0
M  V30 55471 N 5145.27 -1.1624 -1.06424 0
M  V30 55472 C 5146.18 -0.882052 -2.17387 0
M  V30 55473 C 5147.19 0.145198 -1.73393 0
M  V30 55474 O 5148.37 -0.0311266 -2.01376 0
M  V30 55475 C 5145.43 -0.385617 -3.44549 0
M  V30 55476 C 5144.49 -1.47793 -4.03058 0
M  V30 55477 C 5143.73 -1.00509 -5.2415 0
M  V30 55478 O 5143.95 0.145689 -5.70214 0
M  V30 55479 O 5142.88 -1.79285 -5.74578 0
M  V30 55480 H 5146.71 -1.80992 -2.43876 0
M  V30 55481 H 5144.3 -0.942267 -1.15938 0
M  V30 55482 H 5146.18 -0.115684 -4.21241 0
M  V30 55483 H 5144.85 0.514257 -3.19589 0
M  V30 55484 H 5143.76 -1.80159 -3.27862 0
M  V30 55485 H 5145.09 -2.35306 -4.3231 0
M  V30 55486 N 5146.74 1.24935 -0.960675 0
M  V30 55487 C 5147.71 2.23898 -0.490139 0
M  V30 55488 C 5148.71 1.55499 0.409481 0
M  V30 55489 O 5149.9 1.72979 0.205923 0
M  V30 55490 C 5147.03 3.39655 0.291074 0
M  V30 55491 H 5148.22 2.67039 -1.36492 0
M  V30 55492 H 5145.78 1.37427 -0.744553 0
M  V30 55493 H 5146.51 3.01943 1.18326 0
M  V30 55494 H 5146.3 3.90495 -0.354413 0
M  V30 55495 H 5147.79 4.13127 0.609548 0
M  V30 55496 N 5148.22 0.729956 1.39676 0
M  V30 55497 C 5149.47 0.275148 2.00218 0
M  V30 55498 C 5149.79 -1.14004 1.58203 0
M  V30 55499 O 5149.06 -1.77543 0.827967 0
M  V30 55500 H 5147.64 0.0987388 0.740446 0
M  V30 55501 H 5150.3 0.93879 1.708 0
M  V30 55502 H 5149.4 0.319555 3.1046 0
M  V30 55503 N 5149.7 -1.50202 0.477206 0
M  V30 55504 C 5150.95 -2.02658 -0.0757795 0
M  V30 55505 C 5151.28 -1.35805 -1.38819 0
M  V30 55506 O 5150.55 -0.485762 -1.88336 0
M  V30 55507 C 5150.84 -3.59209 -0.253212 0
M  V30 55508 C 5150.69 -4.36626 1.08065 0
M  V30 55509 C 5152.01 -4.28473 -1.00494 0
M  V30 55510 H 5149.13 -0.736539 -0.0260662 0
M  V30 55511 H 5151.77 -1.79461 0.623988 0
M  V30 55512 H 5149.92 -3.79104 -0.849245 0
M  V30 55513 H 5151.59 -4.28286 1.71373 0
M  V30 55514 H 5149.84 -4.00124 1.6758 0
M  V30 55515 H 5150.51 -5.44446 0.910074 0
M  V30 55516 H 5152.98 -4.13089 -0.499673 0
M  V30 55517 H 5151.86 -5.37808 -1.09789 0
M  V30 55518 H 5152.12 -3.92064 -2.043 0
M  V30 55519 N 5151.18 -0.210054 -1.56194 0
M  V30 55520 C 5152.13 0.721339 -2.21132 0
M  V30 55521 C 5153.12 1.20848 -1.18711 0
M  V30 55522 O 5154.33 1.16964 -1.36819 0
M  V30 55523 H 5150.7 0.251008 -0.708871 0
M  V30 55524 H 5152.67 0.150088 -2.98022 0
M  V30 55525 C 5151.42 1.92382 -2.89628 0
M  V30 55526 H 5150.74 1.55807 -3.68191 0
M  V30 55527 H 5152.18 2.55355 -3.38482 0
M  V30 55528 C 5150.64 2.77201 -1.91471 0
M  V30 55529 O 5151.17 3.75598 -1.42439 0
M  V30 55530 N 5149.38 2.43 -1.59372 0
M  V30 55531 H 5148.93 1.6304 -1.99438 0
M  V30 55532 H 5148.88 3.00033 -0.939554 0
M  V30 55533 N 5152.66 1.57472 0.0634368 0
M  V30 55534 C 5154.07 1.54018 0.418412 0
M  V30 55535 C 5154.27 0.931439 1.7868 0
M  V30 55536 O 5153.33 0.537552 2.46712 0
M  V30 55537 C 5154.64 2.98635 0.351801 0
M  V30 55538 C 5156.19 3.10013 0.431385 0
M  V30 55539 C 5156.66 4.56297 0.394593 0
M  V30 55540 N 5158.16 4.60966 0.45442 0
M  V30 55541 C 5158.89 5.71645 0.4483 0
M  V30 55542 N 5158.39 6.91664 0.396499 0
M  V30 55543 N 5160.18 5.59912 0.49548 0
M  V30 55544 H 5152.33 1.95406 -0.832477 0
M  V30 55545 H 5154.59 0.894758 -0.313228 0
M  V30 55546 H 5154.3 3.46764 -0.58717 0
M  V30 55547 H 5154.17 3.58959 1.15881 0
M  V30 55548 H 5156.56 2.61853 1.36078 0
M  V30 55549 H 5156.64 2.52584 -0.404347 0
M  V30 55550 H 5156.29 5.05117 -0.530989 0
M  V30 55551 H 5156.22 5.11599 1.24797 0
M  V30 55552 H 5158.71 3.74599 0.498365 0
M  V30 55553 H 5159.02 7.71785 0.395984 0
M  V30 55554 H 5157.36 6.94051 0.36306 0
M  V30 55555 H 5160.56 4.65048 0.5337 0
M  V30 55556 H 5160.73 6.46166 0.487242 0
M  V30 55557 N 5154.13 -0.335013 1.53998 0
M  V30 55558 C 5155.08 -1.4118 1.82584 0
M  V30 55559 C 5156.05 -1.51894 0.672114 0
M  V30 55560 O 5157.24 -1.67297 0.917405 0
M  V30 55561 C 5154.38 -2.77709 2.04869 0
M  V30 55562 C 5153.49 -2.75718 3.32571 0
M  V30 55563 C 5152.62 -4.0402 3.44878 0
M  V30 55564 C 5151.66 -3.96291 4.66497 0
M  V30 55565 N 5150.8 -5.163 4.75792 0
M  V30 55566 H 5155.64 -1.16103 2.74452 0
M  V30 55567 H 5153.18 -0.562258 1.3593 0
M  V30 55568 H 5155.14 -3.57064 2.15781 0
M  V30 55569 H 5153.77 -3.0112 1.16305 0
M  V30 55570 H 5152.82 -1.88421 3.30457 0
M  V30 55571 H 5154.13 -2.65887 4.22025 0
M  V30 55572 H 5153.28 -4.91802 3.55269 0
M  V30 55573 H 5152.02 -4.16643 2.53495 0
M  V30 55574 H 5151.03 -3.06895 4.56175 0
M  V30 55575 H 5152.25 -3.85244 5.59253 0
M  V30 55576 H 5150.2 -5.29451 3.87321 0
M  V30 55577 H 5150.12 -5.08759 5.59196 0
M  V30 55578 H 5151.38 -6.05829 4.90502 0
M  V30 55579 N 5155.61 -1.45876 -0.596479 0
M  V30 55580 C 5156.86 -1.50174 -1.35248 0
M  V30 55581 C 5157.18 -0.149314 -1.94428 0
M  V30 55582 O 5156.45 0.822617 -1.77792 0
M  V30 55583 H 5155.03 -0.553069 -0.502119 0
M  V30 55584 H 5157.69 -1.81911 -0.699607 0
M  V30 55585 H 5156.79 -2.24678 -2.16624 0
M  V30 55586 N 5157.09 0.839943 -1.33352 0
M  V30 55587 C 5158.05 1.93124 -1.23433 0
M  V30 55588 C 5159.05 1.60064 -0.153655 0
M  V30 55589 O 5160.24 1.69424 -0.405109 0
M  V30 55590 C 5157.38 3.28758 -0.901737 0
M  V30 55591 H 5158.57 2.03344 -2.20434 0
M  V30 55592 H 5156.12 1.0319 -1.17394 0
M  V30 55593 H 5156.86 3.24233 0.0658198 0
M  V30 55594 H 5156.64 3.54132 -1.68323 0
M  V30 55595 H 5158.13 4.08711 -0.857057 0
M  V30 55596 N 5158.57 1.16803 1.05806 0
M  V30 55597 C 5159.53 0.88147 2.11572 0
M  V30 55598 C 5160.53 -0.125683 1.60308 0
M  V30 55599 O 5161.72 0.105777 1.73879 0
M  V30 55600 C 5158.85 0.319156 3.39403 0
M  V30 55601 H 5160.05 1.81915 2.38426 0
M  V30 55602 H 5157.6 0.97764 1.2195 0
M  V30 55603 H 5158.33 -0.62597 3.18201 0
M  V30 55604 H 5158.12 1.04494 3.7792 0
M  V30 55605 H 5159.61 0.136777 4.17376 0
M  V30 55606 N 5160.05 -1.24424 0.967287 0
M  V30 55607 C 5161.3 -1.92105 0.627706 0
M  V30 55608 C 5161.62 -1.75994 -0.839718 0
M  V30 55609 O 5160.89 -1.13124 -1.59937 0
M  V30 55610 H 5159.47 -0.710978 0.22917 0
M  V30 55611 H 5162.13 -1.51326 1.22827 0
M  V30 55612 H 5161.22 -2.99788 0.867949 0
M  V30 55613 N 5161.53 -0.737353 -1.39287 0
M  V30 55614 C 5162.77 -0.286327 -2.00466 0
M  V30 55615 C 5163.1 1.12715 -1.58511 0
M  V30 55616 O 5162.36 1.78317 -0.80632 0
M  V30 55617 C 5162.65 -0.338563 -3.55793 0
M  V30 55618 C 5162.32 -1.70539 -4.17405 0
M  V30 55619 C 5160.98 -2.07949 -4.33948 0
M  V30 55620 C 5163.33 -2.60272 -4.51562 0
M  V30 55621 C 5160.66 -3.34595 -4.81937 0
M  V30 55622 C 5163.01 -3.86292 -5.0096 0
M  V30 55623 C 5161.68 -4.23792 -5.1571 0
M  V30 55624 H 5160.95 -0.104775 -0.733555 0
M  V30 55625 H 5163.6 -0.944657 -1.66579 0
M  V30 55626 H 5161.9 0.403341 -3.89718 0
M  V30 55627 H 5163.6 0.0285845 -4.0099 0
M  V30 55628 H 5160.19 -1.40454 -4.04933 0
M  V30 55629 H 5164.37 -2.32639 -4.38398 0
M  V30 55630 H 5159.63 -3.63589 -4.91541 0
M  V30 55631 H 5163.8 -4.55978 -5.26362 0
M  V30 55632 H 5161.43 -5.21992 -5.52656 0
M  V30 55633 N 5163 1.49946 -0.485165 0
M  V30 55634 C 5163.93 2.31676 0.291282 0
M  V30 55635 C 5164.91 1.3922 0.977334 0
M  V30 55636 O 5166.1 1.68136 0.971796 0
M  V30 55637 C 5163.23 3.19331 1.36546 0
M  V30 55638 C 5162.18 4.20453 0.800211 0
M  V30 55639 C 5161.51 4.96938 1.97373 0
M  V30 55640 C 5162.81 5.21924 -0.19805 0
M  V30 55641 H 5164.5 2.96837 -0.390879 0
M  V30 55642 H 5162.05 1.42749 -0.189426 0
M  V30 55643 H 5164 3.75311 1.91624 0
M  V30 55644 H 5162.73 2.52082 2.07659 0
M  V30 55645 H 5161.39 3.65595 0.2713 0
M  V30 55646 H 5161.03 4.2615 2.67217 0
M  V30 55647 H 5160.73 5.6535 1.60167 0
M  V30 55648 H 5162.26 5.55757 2.52915 0
M  V30 55649 H 5163.67 5.72692 0.264038 0
M  V30 55650 H 5162.07 5.98136 -0.485119 0
M  V30 55651 H 5163.14 4.71805 -1.11928 0
M  V30 55652 N 5164.48 0.218335 1.5608 0
M  V30 55653 C 5165.39 -0.704523 2.23771 0
M  V30 55654 C 5166.41 -1.21628 1.24429 0
M  V30 55655 O 5167.58 -1.25857 1.57232 0
M  V30 55656 C 5164.65 -1.89714 2.90188 0
M  V30 55657 C 5163.71 -1.42768 4.04865 0
M  V30 55658 C 5162.94 -2.56345 4.68106 0
M  V30 55659 O 5163.17 -3.74401 4.30325 0
M  V30 55660 O 5162.1 -2.2773 5.57156 0
M  V30 55661 H 5165.93 -0.1579 3.03289 0
M  V30 55662 H 5163.51 -0.0119753 1.49395 0
M  V30 55663 H 5165.39 -2.5937 3.32122 0
M  V30 55664 H 5164.07 -2.43193 2.13633 0
M  V30 55665 H 5162.97 -0.69923 3.67507 0
M  V30 55666 H 5164.31 -0.939304 4.83154 0
M  V30 55667 N 5165.96 -1.57504 -0.0550848 0
M  V30 55668 C 5166.91 -2.04829 -1.06366 0
M  V30 55669 C 5167.88 -0.932156 -1.37477 0
M  V30 55670 O 5169.06 -1.20098 -1.4826 0
M  V30 55671 C 5166.2 -2.511 -2.36734 0
M  V30 55672 C 5165.31 -3.764 -2.12007 0
M  V30 55673 C 5164.45 -4.11385 -3.36059 0
M  V30 55674 C 5163.49 -5.29677 -3.06771 0
M  V30 55675 N 5162.63 -5.6022 -4.232 0
M  V30 55676 H 5167.47 -2.90755 -0.653114 0
M  V30 55677 H 5165 -1.43777 -0.310901 0
M  V30 55678 H 5166.96 -2.75984 -3.12872 0
M  V30 55679 H 5165.59 -1.68128 -2.75559 0
M  V30 55680 H 5164.64 -3.58756 -1.26485 0
M  V30 55681 H 5165.95 -4.62668 -1.86385 0
M  V30 55682 H 5165.11 -4.37259 -4.20582 0
M  V30 55683 H 5163.85 -3.23717 -3.64772 0
M  V30 55684 H 5162.85 -5.03582 -2.20647 0
M  V30 55685 H 5164.08 -6.18977 -2.79363 0
M  V30 55686 H 5162.02 -4.75511 -4.51913 0
M  V30 55687 H 5161.94 -6.40942 -4.0091 0
M  V30 55688 H 5163.21 -5.90655 -5.08671 0
M  V30 55689 N 5167.44 0.326842 -1.54174 0
M  V30 55690 C 5168.38 1.4021 -1.8333 0
M  V30 55691 C 5169.35 1.51536 -0.68016 0
M  V30 55692 O 5170.54 1.66808 -0.926264 0
M  V30 55693 C 5167.68 2.76619 -2.06339 0
M  V30 55694 C 5166.79 2.73951 -3.34028 0
M  V30 55695 C 5165.93 4.02186 -3.47016 0
M  V30 55696 C 5164.97 3.93812 -4.68592 0
M  V30 55697 N 5164.1 5.1377 -4.78524 0
M  V30 55698 H 5168.94 1.14646 -2.75064 0
M  V30 55699 H 5166.48 0.555041 -1.36227 0
M  V30 55700 H 5168.44 3.55914 -2.17671 0
M  V30 55701 H 5167.07 3.00499 -1.179 0
M  V30 55702 H 5166.12 1.86666 -3.31452 0
M  V30 55703 H 5167.43 2.63646 -4.23429 0
M  V30 55704 H 5166.59 4.89911 -3.57872 0
M  V30 55705 H 5165.33 4.15293 -2.55701 0
M  V30 55706 H 5164.33 3.04471 -4.57796 0
M  V30 55707 H 5165.56 3.82273 -5.61288 0
M  V30 55708 H 5163.5 5.27389 -3.90124 0
M  V30 55709 H 5163.42 5.05787 -5.61886 0
M  V30 55710 H 5164.69 6.03219 -4.93708 0
M  V30 55711 N 5168.92 1.46191 0.588735 0
M  V30 55712 C 5169.86 1.56659 1.71932 0
M  V30 55713 C 5170.86 0.435412 1.63709 0
M  V30 55714 O 5172.06 0.612055 1.69275 0
M  V30 55715 H 5168.44 0.492428 0.568348 0
M  V30 55716 H 5170.41 2.5173 1.60233 0
M  V30 55717 C 5169.16 1.56833 3.10321 0
M  V30 55718 H 5168.48 2.43209 3.17316 0
M  V30 55719 H 5169.92 1.68213 3.89205 0
M  V30 55720 C 5168.38 0.29592 3.35598 0
M  V30 55721 O 5168.91 -0.616376 3.96943 0
M  V30 55722 N 5167.12 0.185711 2.90006 0
M  V30 55723 H 5166.66 0.928998 2.40265 0
M  V30 55724 H 5166.62 -0.664775 3.07292 0
M  V30 55725 N 5170.39 -0.832859 1.33795 0
M  V30 55726 C 5171.64 -1.58346 1.24937 0
M  V30 55727 C 5171.96 -1.94755 -0.181634 0
M  V30 55728 O 5173.16 -2.68651 -0.392281 0
M  V30 55729 C 5171.62 -2.85636 2.18953 0
M  V30 55730 C 5171.23 -2.56568 3.67256 0
M  V30 55731 C 5172.97 -3.63659 2.18981 0
M  V30 55732 C 5170.88 -3.7999 4.53168 0
M  V30 55733 H 5169.81 -0.594262 0.464079 0
M  V30 55734 H 5172.46 -0.917805 1.58898 0
M  V30 55735 H 5170.84 -3.53775 1.77931 0
M  V30 55736 H 5172.01 -1.96602 4.16754 0
M  V30 55737 H 5170.33 -1.91838 3.69577 0
M  V30 55738 H 5172.93 -4.55283 2.80395 0
M  V30 55739 H 5173.27 -3.99035 1.18645 0
M  V30 55740 H 5173.8 -3.02451 2.58395 0
M  V30 55741 H 5170.54 -3.49741 5.54402 0
M  V30 55742 H 5170.06 -4.39273 4.0841 0
M  V30 55743 H 5171.74 -4.47507 4.67276 0
M  V30 55744 N 5171.87 -1.17362 -1.05185 0
M  V30 55745 C 5173.12 -0.96015 -1.77836 0
M  V30 55746 C 5173.44 0.512488 -1.88145 0
M  V30 55747 O 5172.71 1.37206 -1.39826 0
M  V30 55748 H 5171.29 -0.352257 -0.658729 0
M  V30 55749 H 5173.95 -1.47839 -1.27003 0
M  V30 55750 H 5173.05 -1.38853 -2.79511 0
M  V30 55751 N 5173.35 1.23909 -0.973872 0
M  V30 55752 C 5174.26 2.28837 -0.516816 0
M  V30 55753 C 5175.28 1.68724 0.425223 0
M  V30 55754 O 5176.45 1.99202 0.296749 0
M  V30 55755 C 5173.52 3.46234 0.179792 0
M  V30 55756 C 5172.58 4.21726 -0.802838 0
M  V30 55757 C 5171.81 5.33518 -0.139379 0
M  V30 55758 O 5172.03 5.60255 1.07098 0
M  V30 55759 O 5170.97 5.96085 -0.834656 0
M  V30 55760 H 5174.79 2.70062 -1.38926 0
M  V30 55761 H 5172.38 1.29718 -0.741196 0
M  V30 55762 H 5174.26 4.17516 0.570844 0
M  V30 55763 H 5172.94 3.06973 1.0271 0
M  V30 55764 H 5171.84 3.52794 -1.24447 0
M  V30 55765 H 5173.18 4.6482 -1.61875 0
M  V30 55766 N 5174.83 0.744729 1.38894 0
M  V30 55767 C 5176.07 0.297394 2.00608 0
M  V30 55768 C 5176.41 -1.11541 1.58972 0
M  V30 55769 O 5175.68 -1.76224 0.823119 0
M  V30 55770 C 5175.97 0.410251 3.57755 0
M  V30 55771 C 5175.82 1.86353 4.09381 0
M  V30 55772 C 5177.14 -0.201606 4.39638 0
M  V30 55773 H 5174.26 0.109535 0.728815 0
M  V30 55774 H 5176.9 0.942711 1.64963 0
M  V30 55775 H 5175.05 -0.139151 3.88251 0
M  V30 55776 H 5176.72 2.47055 3.89566 0
M  V30 55777 H 5174.96 2.38159 3.62578 0
M  V30 55778 H 5175.63 1.8937 5.18501 0
M  V30 55779 H 5178.11 0.266849 4.15243 0
M  V30 55780 H 5176.99 -0.0923486 5.48822 0
M  V30 55781 H 5177.25 -1.28885 4.22896 0
M  V30 55782 N 5176.31 -1.49687 0.49311 0
M  V30 55783 C 5177.24 -2.31827 -0.278992 0
M  V30 55784 C 5178.22 -1.39736 -0.969937 0
M  V30 55785 O 5179.4 -1.68649 -0.962865 0
M  V30 55786 C 5176.53 -3.20051 -1.34851 0
M  V30 55787 C 5175.49 -4.20871 -0.777902 0
M  V30 55788 C 5174.81 -4.97978 -1.94735 0
M  V30 55789 C 5176.11 -5.21812 0.225726 0
M  V30 55790 H 5177.81 -2.96626 0.406616 0
M  V30 55791 H 5175.35 -1.42646 0.196993 0
M  V30 55792 H 5177.31 -3.76322 -1.89631 0
M  V30 55793 H 5176.03 -2.53179 -2.06319 0
M  V30 55794 H 5174.69 -3.65733 -0.251908 0
M  V30 55795 H 5174.34 -4.27561 -2.64954 0
M  V30 55796 H 5174.04 -5.66191 -1.57167 0
M  V30 55797 H 5175.56 -5.57091 -2.49964 0
M  V30 55798 H 5176.97 -5.72824 -0.233663 0
M  V30 55799 H 5175.37 -5.9787 0.516833 0
M  V30 55800 H 5176.44 -4.71205 1.14429 0
M  V30 55801 N 5177.78 -0.226609 -1.55962 0
M  V30 55802 C 5179.06 0.452991 -1.90282 0
M  V30 55803 C 5179.44 1.77373 -1.14464 0
M  V30 55804 O 5178.79 2.27066 -0.255576 0
M  V30 55805 C 5179 0.640987 -3.43063 0
M  V30 55806 C 5180.35 0.946119 -4.13925 0
M  V30 55807 O 5181.37 0.727591 -3.4869 0
M  V30 55808 O 5180.23 1.36113 -5.29278 0
M  V30 55809 H 5177.32 0.240214 -0.791344 0
M  V30 55810 H 5179.87 -0.269169 -1.67552 0
M  V30 55811 H 5178.64 -0.29042 -3.90221 0
M  V30 55812 H 5178.27 1.41445 -3.7159 0
M  V30 55813 N 5179.26 1.57531 0.0467312 0
M  V30 55814 C 5180.49 1.93089 0.757055 0
M  V30 55815 C 5180.91 0.825176 1.69034 0
M  V30 55816 O 5180.27 -0.220385 1.79956 0
M  V30 55817 C 5180.32 3.27674 1.50539 0
M  V30 55818 O 5179.42 3.18676 2.61762 0
M  V30 55819 H 5178.76 0.631605 0.20487 0
M  V30 55820 H 5181.29 2.04599 0.00748039 0
M  V30 55821 H 5181.3 3.62147 1.87919 0
M  V30 55822 H 5179.98 4.0772 0.820787 0
M  V30 55823 H 5178.56 2.95806 2.27054 0
M  V30 55824 N 5180.74 -0.318661 1.54345 0
M  V30 55825 C 5181.65 -1.41528 1.87101 0
M  V30 55826 C 5182.67 -1.56359 0.763408 0
M  V30 55827 O 5183.84 -1.71361 1.05818 0
M  V30 55828 C 5180.91 -2.76171 2.09596 0
M  V30 55829 C 5179.97 -2.70475 3.3338 0
M  V30 55830 C 5179.2 -3.98696 3.54792 0
M  V30 55831 O 5179.42 -4.97201 2.79549 0
M  V30 55832 O 5178.36 -4.01658 4.4828 0
M  V30 55833 H 5182.18 -1.16754 2.80361 0
M  V30 55834 H 5179.77 -0.513131 1.40312 0
M  V30 55835 H 5181.65 -3.55865 2.25694 0
M  V30 55836 H 5180.33 -3.00825 1.19525 0
M  V30 55837 H 5179.23 -1.89314 3.22663 0
M  V30 55838 H 5180.57 -2.50774 4.23525 0
M  V30 55839 N 5182.22 -1.46501 -0.580974 0
M  V30 55840 C 5183.17 -1.57196 -1.68991 0
M  V30 55841 C 5184.14 -0.416171 -1.60802 0
M  V30 55842 O 5185.32 -0.63315 -1.79988 0
M  V30 55843 C 5182.46 -1.56984 -3.07327 0
M  V30 55844 C 5181.57 -2.83309 -3.26129 0
M  V30 55845 C 5180.71 -2.7459 -4.54724 0
M  V30 55846 C 5179.75 -3.95846 -4.66875 0
M  V30 55847 N 5178.88 -3.85503 -5.86798 0
M  V30 55848 H 5183.72 -2.5192 -1.59187 0
M  V30 55849 H 5181.26 -1.24978 -0.775813 0
M  V30 55850 H 5183.22 -1.54846 -3.874 0
M  V30 55851 H 5181.85 -0.657914 -3.16024 0
M  V30 55852 H 5180.9 -2.95419 -2.39649 0
M  V30 55853 H 5182.21 -3.73172 -3.30975 0
M  V30 55854 H 5181.37 -2.70567 -5.43027 0
M  V30 55855 H 5180.11 -1.8237 -4.52319 0
M  V30 55856 H 5179.11 -4.00199 -3.76989 0
M  V30 55857 H 5180.34 -4.89164 -4.71057 0
M  V30 55858 H 5178.28 -2.96071 -5.85387 0
M  V30 55859 H 5178.2 -4.69023 -5.9292 0
M  V30 55860 H 5179.47 -3.85458 -6.77527 0
M  V30 55861 N 5183.7 0.825752 -1.34235 0
M  V30 55862 C 5184.65 1.92528 -1.22134 0
M  V30 55863 C 5185.63 1.60444 -0.121058 0
M  V30 55864 O 5186.82 1.73496 -0.350446 0
M  V30 55865 C 5183.95 3.29131 -0.97611 0
M  V30 55866 C 5183.04 3.67343 -2.11944 0
M  V30 55867 N 5183.43 3.77142 -3.37042 0
M  V30 55868 C 5181.73 3.97172 -2.02905 0
M  V30 55869 C 5182.43 4.10537 -4.12109 0
M  V30 55870 N 5181.4 4.23607 -3.40673 0
M  V30 55871 H 5185.21 1.98279 -2.16939 0
M  V30 55872 H 5182.72 1.01925 -1.26432 0
M  V30 55873 H 5184.72 4.07714 -0.87033 0
M  V30 55874 H 5183.38 3.24679 -0.0367202 0
M  V30 55875 H 5184.39 3.6071 -3.7163 0
M  V30 55876 H 5181.06 4.00857 -1.16706 0
M  V30 55877 H 5182.45 4.25346 -5.20125 0
M  V30 55878 N 5185.17 1.17918 1.04561 0
M  V30 55879 C 5186.1 0.925108 2.14392 0
M  V30 55880 C 5187.09 -0.135315 1.69561 0
M  V30 55881 O 5188.27 0.0162456 1.94193 0
M  V30 55882 C 5185.4 0.44459 3.44443 0
M  V30 55883 C 5184.35 1.44493 4.02872 0
M  V30 55884 C 5183.68 0.822118 5.28342 0
M  V30 55885 C 5184.98 2.82011 4.39622 0
M  V30 55886 H 5186.67 1.84362 2.35905 0
M  V30 55887 H 5184.22 0.887846 1.13372 0
M  V30 55888 H 5186.17 0.254226 4.20632 0
M  V30 55889 H 5184.9 -0.509479 3.22602 0
M  V30 55890 H 5183.56 1.62214 3.28758 0
M  V30 55891 H 5183.2 -0.138984 5.02808 0
M  V30 55892 H 5182.9 1.48996 5.68396 0
M  V30 55893 H 5184.43 0.642172 6.07214 0
M  V30 55894 H 5185.84 2.6797 5.06819 0
M  V30 55895 H 5184.24 3.45431 4.90711 0
M  V30 55896 H 5185.31 3.35939 3.49676 0
M  V30 55897 N 5186.65 -1.23391 0.980429 0
M  V30 55898 C 5187.9 -1.92091 0.65029 0
M  V30 55899 C 5188.23 -1.76312 -0.814111 0
M  V30 55900 O 5187.51 -1.12412 -1.58726 0
M  V30 55901 C 5187.79 -3.44709 1.04152 0
M  V30 55902 C 5187.64 -3.69597 2.56355 0
M  V30 55903 C 5188.96 -4.36189 0.585449 0
M  V30 55904 H 5186.08 -0.697609 0.237719 0
M  V30 55905 H 5188.72 -1.45513 1.22172 0
M  V30 55906 H 5186.87 -3.84511 0.555286 0
M  V30 55907 H 5188.54 -3.39277 3.12552 0
M  V30 55908 H 5186.79 -3.14308 2.98987 0
M  V30 55909 H 5187.46 -4.76431 2.78779 0
M  V30 55910 H 5189.93 -4.03833 1.00291 0
M  V30 55911 H 5188.81 -5.41676 0.887619 0
M  V30 55912 H 5189.07 -4.39099 -0.514225 0
M  V30 55913 N 5188.13 -0.752084 -1.38497 0
M  V30 55914 C 5189.04 -0.1254 -2.34265 0
M  V30 55915 C 5190.06 0.702381 -1.59194 0
M  V30 55916 O 5191.23 0.626884 -1.91395 0
M  V30 55917 C 5188.3 0.758368 -3.38304 0
M  V30 55918 C 5187.36 -0.0836145 -4.29219 0
M  V30 55919 C 5186.59 0.758067 -5.28289 0
M  V30 55920 O 5186.81 1.99614 -5.34332 0
M  V30 55921 O 5185.75 0.177666 -6.01638 0
M  V30 55922 H 5189.57 -0.916271 -2.89548 0
M  V30 55923 H 5187.16 -0.51296 -1.40318 0
M  V30 55924 H 5189.04 1.26351 -4.02012 0
M  V30 55925 H 5187.72 1.52776 -2.85379 0
M  V30 55926 H 5186.62 -0.634674 -3.68677 0
M  V30 55927 H 5187.96 -0.815626 -4.85395 0
M  V30 55928 N 5189.61 1.49423 -0.501041 0
M  V30 55929 C 5190.54 2.27038 0.31408 0
M  V30 55930 C 5191.55 1.33582 0.93058 0
M  V30 55931 O 5192.74 1.58864 0.813912 0
M  V30 55932 C 5189.84 3.05973 1.45719 0
M  V30 55933 C 5189.02 4.27004 0.947985 0
M  V30 55934 C 5188.08 4.87984 1.96871 0
M  V30 55935 O 5187.1 5.48049 1.53724 0
M  V30 55936 N 5188.3 4.77639 3.29911 0
M  V30 55937 H 5191.07 2.97632 -0.35144 0
M  V30 55938 H 5188.63 1.58426 -0.333592 0
M  V30 55939 H 5190.62 3.43642 2.13758 0
M  V30 55940 H 5189.19 2.37985 2.02686 0
M  V30 55941 H 5188.41 3.94091 0.0924925 0
M  V30 55942 H 5189.7 5.05412 0.586184 0
M  V30 55943 H 5189.1 4.29939 3.67654 0
M  V30 55944 H 5187.65 5.19492 3.93664 0
M  V30 55945 N 5191.09 0.234877 1.5584 0
M  V30 55946 C 5192.02 -0.664138 2.23856 0
M  V30 55947 C 5193 -1.19071 1.21474 0
M  V30 55948 O 5194.18 -1.23227 1.50096 0
M  V30 55949 C 5191.31 -1.86656 2.92877 0
M  V30 55950 C 5190.27 -1.47327 4.01844 0
M  V30 55951 C 5189.59 -2.75555 4.58229 0
M  V30 55952 C 5190.89 -0.653297 5.18198 0
M  V30 55953 H 5192.59 -0.0970161 2.99243 0
M  V30 55954 H 5190.13 -0.0452218 1.43929 0
M  V30 55955 H 5192.09 -2.50104 3.39155 0
M  V30 55956 H 5190.81 -2.45887 2.14959 0
M  V30 55957 H 5189.47 -0.862189 3.56317 0
M  V30 55958 H 5189.12 -3.32958 3.77025 0
M  V30 55959 H 5188.82 -2.49968 5.3178 0
M  V30 55960 H 5190.34 -3.39922 5.07233 0
M  V30 55961 H 5191.76 -1.19179 5.60776 0
M  V30 55962 H 5190.15 -0.493978 5.98063 0
M  V30 55963 H 5191.22 0.337174 4.83726 0
M  V30 55964 N 5192.57 -1.57553 -0.0383763 0
M  V30 55965 C 5193.81 -1.89123 -0.732132 0
M  V30 55966 C 5194.14 -0.831465 -1.755 0
M  V30 55967 O 5193.42 0.154574 -1.93885 0
M  V30 55968 C 5193.7 -3.31343 -1.4101 0
M  V30 55969 C 5193.56 -4.48006 -0.401375 0
M  V30 55970 C 5194.87 -3.72326 -2.34652 0
M  V30 55971 H 5191.99 -0.687828 -0.264691 0
M  V30 55972 H 5194.64 -1.89999 0.00502959 0
M  V30 55973 H 5192.79 -3.30727 -2.03843 0
M  V30 55974 H 5194.46 -4.60754 0.224321 0
M  V30 55975 H 5192.7 -4.32894 0.280244 0
M  V30 55976 H 5193.37 -5.4438 -0.914038 0
M  V30 55977 H 5195.85 -3.74249 -1.8187 0
M  V30 55978 H 5194.72 -4.72662 -2.79074 0
M  V30 55979 H 5194.98 -3.04073 -3.20924 0
M  V30 55980 N 5194.04 0.310471 -1.54512 0
M  V30 55981 C 5195.46 0.655586 -1.45514 0
M  V30 55982 C 5195.66 1.91112 -0.638631 0
M  V30 55983 O 5194.72 2.52097 -0.142586 0
M  V30 55984 C 5196.03 0.8174 -2.89377 0
M  V30 55985 C 5197.58 0.913898 -2.99361 0
M  V30 55986 C 5198.05 1.10778 -4.44401 0
M  V30 55987 N 5199.54 1.17421 -4.4807 0
M  V30 55988 C 5200.28 1.34235 -5.57466 0
M  V30 55989 N 5199.77 1.48008 -6.76805 0
M  V30 55990 N 5201.57 1.37048 -5.45137 0
M  V30 55991 H 5193.72 -0.514579 -2.06072 0
M  V30 55992 H 5195.98 -0.168511 -0.932903 0
M  V30 55993 H 5195.69 -0.0341266 -3.51683 0
M  V30 55994 H 5195.56 1.70928 -3.36249 0
M  V30 55995 H 5197.95 1.75592 -2.37174 0
M  V30 55996 H 5198.03 -0.0017995 -2.558 0
M  V30 55997 H 5197.67 0.270565 -5.07179 0
M  V30 55998 H 5197.6 2.03756 -4.85583 0
M  V30 55999 H 5200.09 1.08169 -3.62088 0
M  V30 56000 H 5200.41 1.60566 -7.55935 0
M  V30 56001 H 5198.75 1.45081 -6.79688 0
M  V30 56002 H 5201.94 1.25893 -4.50853 0
M  V30 56003 H 5202.12 1.49809 -6.30445 0
M  V30 56004 N 5195.52 1.46807 0.573196 0
M  V30 56005 C 5196.8 1.43086 1.33363 0
M  V30 56006 C 5197.18 0.119326 2.10762 0
M  V30 56007 O 5196.53 -0.899165 2.10065 0
M  V30 56008 C 5196.74 2.66651 2.25163 0
M  V30 56009 C 5198.08 3.13198 2.86691 0
M  V30 56010 O 5199.11 2.67266 2.35472 0
M  V30 56011 O 5197.97 3.93007 3.79747 0
M  V30 56012 H 5195.06 0.569472 0.599692 0
M  V30 56013 H 5197.61 1.58986 0.593424 0
M  V30 56014 H 5196.38 3.53655 1.67463 0
M  V30 56015 H 5196 2.53258 3.06507 0
M  V30 56016 N 5197 -0.818622 1.34671 0
M  V30 56017 C 5197.93 -1.94464 1.29252 0
M  V30 56018 C 5198.91 -1.69257 0.169161 0
M  V30 56019 O 5200.1 -1.90792 0.36221 0
M  V30 56020 C 5197.23 -3.30997 1.05157 0
M  V30 56021 C 5196.18 -3.70656 2.14005 0
M  V30 56022 C 5195.51 -5.0522 1.75092 0
M  V30 56023 C 5196.81 -3.82299 3.55872 0
M  V30 56024 H 5198.5 -1.99255 2.23467 0
M  V30 56025 H 5196.05 -0.957267 1.07575 0
M  V30 56026 H 5198 -4.09361 1.00009 0
M  V30 56027 H 5196.72 -3.26517 0.073846 0
M  V30 56028 H 5195.38 -2.9457 2.18229 0
M  V30 56029 H 5195.03 -4.9723 0.759692 0
M  V30 56030 H 5194.73 -5.32725 2.47947 0
M  V30 56031 H 5196.25 -5.86036 1.71448 0
M  V30 56032 H 5197.67 -4.50923 3.54036 0
M  V30 56033 H 5196.06 -4.21262 4.27385 0
M  V30 56034 H 5197.13 -2.84179 3.929 0
M  V30 56035 N 5198.48 -1.18471 -1.03934 0
M  V30 56036 C 5199.42 -0.912934 -2.11977 0
M  V30 56037 C 5200.39 0.148182 -1.65438 0
M  V30 56038 O 5201.58 0.00826393 -1.90798 0
M  V30 56039 C 5198.72 -0.446234 -3.42203 0
M  V30 56040 C 5197.83 -1.57292 -4.02347 0
M  V30 56041 C 5196.97 -1.05881 -5.20541 0
M  V30 56042 C 5196.01 -2.1601 -5.72718 0
M  V30 56043 N 5195.14 -1.65983 -6.82198 0
M  V30 56044 H 5199.98 -1.83806 -2.34562 0
M  V30 56045 H 5197.52 -0.916544 -1.15056 0
M  V30 56046 H 5199.48 -0.157117 -4.16904 0
M  V30 56047 H 5198.11 0.441913 -3.19761 0
M  V30 56048 H 5197.16 -1.97749 -3.24961 0
M  V30 56049 H 5198.47 -2.40305 -4.37098 0
M  V30 56050 H 5197.63 -0.724299 -6.02361 0
M  V30 56051 H 5196.37 -0.198287 -4.87297 0
M  V30 56052 H 5195.37 -2.50304 -4.89518 0
M  V30 56053 H 5196.6 -3.025 -6.08005 0
M  V30 56054 H 5194.54 -0.822219 -6.50827 0
M  V30 56055 H 5194.46 -2.42593 -7.1602 0
M  V30 56056 H 5195.73 -1.35463 -7.67639 0
M  V30 56057 N 5199.96 1.22869 -0.986959 0
M  V30 56058 C 5200.92 2.22808 -0.537521 0
M  V30 56059 C 5201.92 1.56332 0.376405 0
M  V30 56060 O 5203.11 1.73376 0.169186 0
M  V30 56061 C 5200.24 3.40196 0.218962 0
M  V30 56062 H 5201.43 2.64084 -1.42125 0
M  V30 56063 H 5198.99 1.35816 -0.773536 0
M  V30 56064 H 5199.72 3.04385 1.11894 0
M  V30 56065 H 5199.51 3.89655 -0.437163 0
M  V30 56066 H 5201 4.14327 0.521781 0
M  V30 56067 N 5201.43 0.759419 1.38096 0
M  V30 56068 C 5202.68 0.317555 1.9959 0
M  V30 56069 C 5203 -1.10623 1.60585 0
M  V30 56070 O 5202.27 -1.75747 0.86544 0
M  V30 56071 H 5200.85 0.114422 0.738185 0
M  V30 56072 H 5203.51 0.974808 1.68771 0
M  V30 56073 H 5202.61 0.385336 3.09712 0
M  V30 56074 N 5202.91 -1.49156 0.508959 0
M  V30 56075 C 5204.33 -1.5874 0.165427 0
M  V30 56076 C 5204.53 -1.51334 -1.33042 0
M  V30 56077 O 5203.58 -1.39143 -2.10703 0
M  V30 56078 C 5204.9 -2.91215 0.749297 0
M  V30 56079 C 5206.44 -3.04698 0.716123 0
M  V30 56080 C 5206.92 -4.39802 1.27819 0
M  V30 56081 N 5208.41 -4.46315 1.23924 0
M  V30 56082 C 5209.15 -5.49319 1.64425 0
M  V30 56083 N 5208.64 -6.59387 2.12557 0
M  V30 56084 N 5210.43 -5.40079 1.55792 0
M  V30 56085 H 5202.59 -1.52212 1.48139 0
M  V30 56086 H 5204.85 -0.721493 0.614941 0
M  V30 56087 H 5204.55 -3.02226 1.79867 0
M  V30 56088 H 5204.43 -3.76591 0.214277 0
M  V30 56089 H 5206.82 -2.93311 -0.324432 0
M  V30 56090 H 5206.9 -2.20985 1.28838 0
M  V30 56091 H 5206.54 -4.51941 2.31757 0
M  V30 56092 H 5206.47 -5.22168 0.681806 0
M  V30 56093 H 5208.96 -3.67351 0.886666 0
M  V30 56094 H 5209.27 -7.34093 2.4151 0
M  V30 56095 H 5207.62 -6.60407 2.16536 0
M  V30 56096 H 5210.81 -4.52982 1.18003 0
M  V30 56097 H 5210.98 -6.20226 1.87679 0
M  V30 56098 N 5204.39 -0.243138 -1.55713 0
M  V30 56099 C 5205.34 0.658 -2.21222 0
M  V30 56100 C 5206.31 1.17416 -1.17485 0
M  V30 56101 O 5207.49 1.22932 -1.45919 0
M  V30 56102 C 5204.63 1.85094 -2.91263 0
M  V30 56103 C 5203.75 1.37166 -4.09646 0
M  V30 56104 C 5202.88 2.52386 -4.67413 0
M  V30 56105 C 5201.92 2.01301 -5.78052 0
M  V30 56106 N 5201.06 3.09874 -6.30018 0
M  V30 56107 H 5205.9 0.0926807 -2.97856 0
M  V30 56108 H 5203.43 0.0339858 -1.47061 0
M  V30 56109 H 5205.39 2.55168 -3.30069 0
M  V30 56110 H 5204.02 2.3888 -2.17109 0
M  V30 56111 H 5203.07 0.565099 -3.76179 0
M  V30 56112 H 5204.39 0.957237 -4.89529 0
M  V30 56113 H 5203.54 3.30507 -5.08773 0
M  V30 56114 H 5202.28 2.97128 -3.86738 0
M  V30 56115 H 5201.28 1.21649 -5.36173 0
M  V30 56116 H 5202.51 1.57533 -6.60576 0
M  V30 56117 H 5200.45 3.54057 -5.5225 0
M  V30 56118 H 5200.37 2.72751 -7.05084 0
M  V30 56119 H 5201.64 3.88066 -6.76036 0
M  V30 56120 N 5205.87 1.57571 0.0300203 0
M  V30 56121 C 5207.12 1.88409 0.72006 0
M  V30 56122 C 5207.43 0.841528 1.76572 0
M  V30 56123 O 5208.64 1.03911 2.50828 0
M  V30 56124 C 5207.09 3.34353 1.33177 0
M  V30 56125 C 5206.7 4.46838 0.322503 0
M  V30 56126 C 5208.44 3.7434 2.00174 0
M  V30 56127 C 5206.35 5.83842 0.942497 0
M  V30 56128 H 5205.28 0.702961 0.272693 0
M  V30 56129 H 5207.93 1.83482 -0.0255982 0
M  V30 56130 H 5206.31 3.34022 2.1271 0
M  V30 56131 H 5207.49 4.58636 -0.446048 0
M  V30 56132 H 5205.8 4.15677 -0.245327 0
M  V30 56133 H 5208.4 4.74017 2.47411 0
M  V30 56134 H 5208.74 3.06285 2.81949 0
M  V30 56135 H 5209.28 3.76842 1.27417 0
M  V30 56136 H 5206.02 6.55294 0.164183 0
M  V30 56137 H 5205.54 5.75765 1.68091 0
M  V30 56138 H 5207.21 6.3054 1.45012 0
M  V30 56139 N 5207.35 -0.302273 1.54674 0
M  V30 56140 C 5208.29 -1.37275 1.85537 0
M  V30 56141 C 5209.26 -1.50434 0.704182 0
M  V30 56142 O 5210.45 -1.65314 0.952685 0
M  V30 56143 C 5207.59 -2.73301 2.10714 0
M  V30 56144 C 5206.7 -2.68602 3.38344 0
M  V30 56145 C 5205.84 -3.96614 3.53371 0
M  V30 56146 C 5204.88 -3.86307 4.74798 0
M  V30 56147 N 5204.01 -5.06092 4.86637 0
M  V30 56148 H 5208.85 -1.10256 2.76853 0
M  V30 56149 H 5206.39 -0.533298 1.37092 0
M  V30 56150 H 5208.35 -3.52406 2.23306 0
M  V30 56151 H 5206.98 -2.98585 1.22666 0
M  V30 56152 H 5206.03 -1.81369 3.34379 0
M  V30 56153 H 5207.34 -2.56876 4.2757 0
M  V30 56154 H 5206.5 -4.84155 3.65621 0
M  V30 56155 H 5205.23 -4.11172 2.62276 0
M  V30 56156 H 5204.24 -2.97149 4.62582 0
M  V30 56157 H 5205.46 -3.73295 5.67299 0
M  V30 56158 H 5203.41 -5.21116 3.98465 0
M  V30 56159 H 5203.33 -4.96784 5.69861 0
M  V30 56160 H 5204.6 -5.95288 5.03242 0
M  V30 56161 N 5208.82 -1.47109 -0.565403 0
M  V30 56162 C 5210.05 -1.56686 -1.34659 0
M  V30 56163 C 5210.46 -0.213077 -1.87996 0
M  V30 56164 O 5209.81 0.802571 -1.65241 0
M  V30 56165 C 5209.87 -2.52537 -2.55862 0
M  V30 56166 C 5209.53 -3.98411 -2.23869 0
M  V30 56167 C 5210.53 -4.87131 -1.81656 0
M  V30 56168 C 5208.21 -4.43683 -2.35481 0
M  V30 56169 C 5210.21 -6.1914 -1.51473 0
M  V30 56170 C 5207.89 -5.75722 -2.04909 0
M  V30 56171 C 5208.89 -6.63271 -1.62972 0
M  V30 56172 O 5208.58 -7.92858 -1.32785 0
M  V30 56173 H 5208.31 -0.531982 -0.417098 0
M  V30 56174 H 5210.87 -1.93371 -0.692601 0
M  V30 56175 H 5209.1 -2.10904 -3.24124 0
M  V30 56176 H 5210.79 -2.52332 -3.17936 0
M  V30 56177 H 5211.55 -4.53406 -1.72185 0
M  V30 56178 H 5207.43 -3.7575 -2.67083 0
M  V30 56179 H 5210.97 -6.87433 -1.18666 0
M  V30 56180 H 5206.87 -6.08991 -2.1401 0
M  V30 56181 H 5207.64 -8.05285 -1.46485 0
M  V30 56182 N 5210.3 0.811468 -1.35103 0
M  V30 56183 C 5211.53 1.59744 -1.31017 0
M  V30 56184 C 5211.94 1.88847 0.1155 0
M  V30 56185 O 5211.28 1.48857 1.07644 0
M  V30 56186 C 5211.35 2.95707 -2.04445 0
M  V30 56187 C 5211.01 2.89443 -3.53655 0
M  V30 56188 C 5212.01 2.63222 -4.48342 0
M  V30 56189 C 5209.69 3.08714 -3.96233 0
M  V30 56190 C 5211.69 2.5634 -5.83582 0
M  V30 56191 C 5209.37 3.01456 -5.31571 0
M  V30 56192 C 5210.37 2.75304 -6.25057 0
M  V30 56193 O 5210.06 2.68 -7.57912 0
M  V30 56194 H 5209.79 0.502873 -0.451768 0
M  V30 56195 H 5212.34 1.01681 -1.78466 0
M  V30 56196 H 5210.57 3.55734 -1.51626 0
M  V30 56197 H 5212.26 3.56809 -1.93499 0
M  V30 56198 H 5213.03 2.48057 -4.16765 0
M  V30 56199 H 5208.91 3.28082 -3.23856 0
M  V30 56200 H 5212.45 2.35848 -6.56522 0
M  V30 56201 H 5208.35 3.16177 -5.62763 0
M  V30 56202 H 5209.12 2.83643 -7.67782 0
M  V30 56203 N 5211.78 1.19021 1.03304 0
M  V30 56204 C 5212.69 0.939379 2.14972 0
M  V30 56205 C 5213.71 -0.0991748 1.73717 0
M  V30 56206 O 5214.88 0.0845069 2.01223 0
M  V30 56207 C 5211.95 0.476833 3.43405 0
M  V30 56208 C 5211.01 1.58427 3.98998 0
M  V30 56209 C 5210.24 1.1437 5.21301 0
M  V30 56210 O 5210.46 0.0055446 5.704 0
M  V30 56211 O 5209.4 1.94456 5.69623 0
M  V30 56212 H 5213.22 1.87394 2.38992 0
M  V30 56213 H 5210.81 0.972674 1.13399 0
M  V30 56214 H 5212.69 0.227328 4.20786 0
M  V30 56215 H 5211.37 -0.429343 3.2084 0
M  V30 56216 H 5210.27 1.88788 3.2297 0
M  V30 56217 H 5211.61 2.46685 4.25919 0
M  V30 56218 N 5213.26 -1.22344 0.993461 0
M  V30 56219 C 5214.49 -1.95123 0.688089 0
M  V30 56220 C 5214.9 -1.7338 -0.747327 0
M  V30 56221 O 5214.26 -1.03322 -1.50435 0
M  V30 56222 C 5214.31 -3.47816 0.98522 0
M  V30 56223 O 5214.03 -3.6883 2.36423 0
M  V30 56224 C 5215.53 -4.37776 0.697628 0
M  V30 56225 H 5212.75 -0.620862 0.254503 0
M  V30 56226 H 5215.3 -1.5548 1.32839 0
M  V30 56227 H 5213.45 -3.85425 0.390719 0
M  V30 56228 H 5213.86 -4.63023 2.46394 0
M  V30 56229 H 5215.34 -5.43662 0.955795 0
M  V30 56230 H 5215.82 -4.37652 -0.36837 0
M  V30 56231 H 5216.42 -4.05795 1.2732 0
M  V30 56232 N 5214.74 -0.766732 -1.37692 0
M  V30 56233 C 5215.7 -0.15593 -2.28669 0
M  V30 56234 C 5216.7 0.633457 -1.47797 0
M  V30 56235 O 5217.89 0.457785 -1.68077 0
M  V30 56236 C 5215.02 0.786849 -3.31695 0
M  V30 56237 H 5216.21 -0.957848 -2.84192 0
M  V30 56238 H 5213.77 -0.534605 -1.46873 0
M  V30 56239 H 5214.5 1.61396 -2.81286 0
M  V30 56240 H 5214.29 0.223044 -3.91465 0
M  V30 56241 H 5215.78 1.20979 -3.99692 0
M  V30 56242 N 5216.21 1.48884 -0.516862 0
M  V30 56243 C 5217.46 2.01686 0.023919 0
M  V30 56244 C 5217.78 1.40033 1.36565 0
M  V30 56245 O 5218.98 1.84256 1.99404 0
M  V30 56246 C 5217.44 3.5978 0.093056 0
M  V30 56247 C 5217.05 4.30411 -1.24299 0
M  V30 56248 C 5218.79 4.20473 0.583359 0
M  V30 56249 C 5216.7 5.80404 -1.13515 0
M  V30 56250 H 5215.63 0.753893 0.0127111 0
M  V30 56251 H 5218.28 1.71271 -0.65867 0
M  V30 56252 H 5216.66 3.86979 0.840441 0
M  V30 56253 H 5217.83 4.14898 -2.00491 0
M  V30 56254 H 5216.15 3.81533 -1.66798 0
M  V30 56255 H 5218.75 5.30335 0.681801 0
M  V30 56256 H 5219.09 3.84904 1.58603 0
M  V30 56257 H 5219.62 3.97653 -0.107954 0
M  V30 56258 H 5216.36 6.20525 -2.11257 0
M  V30 56259 H 5215.88 5.98367 -0.414378 0
M  V30 56260 H 5217.56 6.41778 -0.820388 0
M  V30 56261 N 5217.69 0.251393 1.55582 0
M  V30 56262 C 5219.1 -0.250915 1.85006 0
M  V30 56263 C 5219.45 -1.57255 1.17326 0
M  V30 56264 O 5218.58 -2.11601 0.45321 0
M  V30 56265 C 5219.17 -0.462043 3.35635 0
M  V30 56266 C 5217.73 -0.908609 3.65269 0
M  V30 56267 C 5216.88 0.0116393 2.77298 0
M  V30 56268 H 5219.83 0.473836 1.51461 0
M  V30 56269 H 5219.85 -1.30402 3.57457 0
M  V30 56270 H 5219.36 0.500021 3.84865 0
M  V30 56271 H 5217.47 -1.88298 3.21519 0
M  V30 56272 H 5217.58 -0.76236 4.72996 0
M  V30 56273 H 5215.94 -0.500524 2.49734 0
M  V30 56274 H 5216.73 0.969158 3.29336 0
M  V30 56275 N 5219.17 -1.57585 -0.0216635 0
M  V30 56276 C 5220.12 -2.07039 -1.01997 0
M  V30 56277 C 5221.09 -0.961107 -1.35469 0
M  V30 56278 O 5222.27 -1.23216 -1.4568 0
M  V30 56279 C 5219.41 -2.56064 -2.31355 0
M  V30 56280 C 5218.53 -3.80812 -2.03976 0
M  V30 56281 C 5217.66 -4.18421 -3.27257 0
M  V30 56282 C 5216.7 -5.36065 -2.95467 0
M  V30 56283 N 5215.84 -5.6907 -4.11222 0
M  V30 56284 H 5220.68 -2.92075 -0.591294 0
M  V30 56285 H 5218.21 -1.44404 -0.280334 0
M  V30 56286 H 5220.17 -2.82558 -3.06947 0
M  V30 56287 H 5218.8 -1.73935 -2.71931 0
M  V30 56288 H 5217.85 -3.61358 -1.18847 0
M  V30 56289 H 5219.17 -4.66518 -1.76529 0
M  V30 56290 H 5218.32 -4.46082 -4.11212 0
M  V30 56291 H 5217.06 -3.31381 -3.57824 0
M  V30 56292 H 5216.06 -5.08149 -2.09915 0
M  V30 56293 H 5217.29 -6.24764 -2.66171 0
M  V30 56294 H 5215.24 -4.8499 -4.41725 0
M  V30 56295 H 5215.15 -6.49302 -3.87224 0
M  V30 56296 H 5216.42 -6.01312 -4.96028 0
M  V30 56297 N 5220.65 0.294066 -1.54832 0
M  V30 56298 C 5221.6 1.38289 -1.87026 0
M  V30 56299 C 5222.59 1.52158 -0.744611 0
M  V30 56300 O 5223.8 1.54192 -0.928695 0
M  V30 56301 H 5220.17 0.462067 -0.593294 0
M  V30 56302 H 5222.14 1.08376 -2.78024 0
M  V30 56303 C 5220.89 2.74017 -2.14033 0
M  V30 56304 H 5220.22 2.6413 -3.00126 0
M  V30 56305 H 5221.66 3.49197 -2.40494 0
M  V30 56306 C 5220.11 3.23489 -0.941095 0
M  V30 56307 O 5220.64 4.01361 -0.165078 0
M  V30 56308 N 5218.85 2.809 -0.744566 0
M  V30 56309 H 5218.4 2.17689 -1.37729 0
M  V30 56310 H 5218.36 3.1435 0.0562547 0
M  V30 56311 N 5222.13 1.47406 0.557593 0
M  V30 56312 C 5223.04 1.62497 1.6921 0
M  V30 56313 C 5224.05 0.507823 1.66425 0
M  V30 56314 O 5225.23 0.775306 1.85879 0
M  V30 56315 C 5222.29 1.63522 3.05715 0
M  V30 56316 C 5221.36 2.86659 3.1957 0
M  V30 56317 C 5220.59 2.87625 4.49564 0
M  V30 56318 O 5220.81 1.97818 5.34999 0
M  V30 56319 O 5219.75 3.79482 4.67201 0
M  V30 56320 H 5223.57 2.58493 1.59421 0
M  V30 56321 H 5221.16 1.30488 0.727555 0
M  V30 56322 H 5223.04 1.66877 3.8695 0
M  V30 56323 H 5221.71 0.706923 3.15887 0
M  V30 56324 H 5220.62 2.88848 2.37734 0
M  V30 56325 H 5221.95 3.78781 3.14302 0
M  V30 56326 N 5223.61 -0.804292 1.35532 0
M  V30 56327 C 5224.55 -1.91624 1.28642 0
M  V30 56328 C 5225.52 -1.65348 0.15792 0
M  V30 56329 O 5226.71 -1.8771 0.342 0
M  V30 56330 C 5223.85 -3.28203 1.06661 0
M  V30 56331 C 5222.96 -3.66651 2.28454 0
M  V30 56332 C 5222.1 -4.92272 1.99605 0
M  V30 56333 C 5221.13 -5.23354 3.17438 0
M  V30 56334 N 5220.27 -6.40155 2.88351 0
M  V30 56335 H 5225.11 -1.9685 2.23728 0
M  V30 56336 H 5222.65 -0.962832 1.11211 0
M  V30 56337 H 5224.61 -4.06941 0.919486 0
M  V30 56338 H 5223.24 -3.2244 0.152366 0
M  V30 56339 H 5222.29 -2.83155 2.54023 0
M  V30 56340 H 5223.6 -3.85579 3.16434 0
M  V30 56341 H 5222.75 -5.78841 1.81736 0
M  V30 56342 H 5221.49 -4.75383 1.08913 0
M  V30 56343 H 5220.5 -4.35274 3.35882 0
M  V30 56344 H 5221.72 -5.42171 4.08935 0
M  V30 56345 H 5219.67 -6.24687 2.00255 0
M  V30 56346 H 5219.59 -6.59344 3.69866 0
M  V30 56347 H 5220.85 -7.29746 2.74028 0
M  V30 56348 N 5225.08 -1.19567 -1.02672 0
M  V30 56349 C 5226.5 -0.948349 -1.28369 0
M  V30 56350 C 5226.7 0.378027 -1.97922 0
M  V30 56351 O 5225.76 1.10902 -2.26841 0
M  V30 56352 C 5227.07 -2.12388 -2.12866 0
M  V30 56353 C 5228.62 -2.16374 -2.26166 0
M  V30 56354 C 5229.09 -3.33385 -3.14036 0
M  V30 56355 N 5230.58 -3.33335 -3.21624 0
M  V30 56356 C 5231.32 -4.20518 -3.8981 0
M  V30 56357 N 5230.81 -5.17861 -4.60208 0
M  V30 56358 N 5232.61 -4.08389 -3.86232 0
M  V30 56359 H 5224.76 -2.04901 -0.559412 0
M  V30 56360 H 5227.02 -0.896071 -0.309453 0
M  V30 56361 H 5226.73 -3.08389 -1.69083 0
M  V30 56362 H 5226.6 -2.09632 -3.13583 0
M  V30 56363 H 5228.99 -1.20943 -2.69178 0
M  V30 56364 H 5229.07 -2.23183 -1.24992 0
M  V30 56365 H 5228.71 -4.29097 -2.71732 0
M  V30 56366 H 5228.64 -3.23813 -4.15274 0
M  V30 56367 H 5231.13 -2.62873 -2.71489 0
M  V30 56368 H 5231.45 -5.8073 -5.09875 0
M  V30 56369 H 5229.79 -5.21807 -4.59067 0
M  V30 56370 H 5232.98 -3.31617 -3.30375 0
M  V30 56371 H 5233.16 -4.76547 -4.39098 0
M  V30 56372 N 5226.56 1.21816 -0.999936 0
M  V30 56373 C 5227.84 1.86316 -0.59545 0
M  V30 56374 C 5228.22 1.89654 0.927076 0
M  V30 56375 O 5227.57 1.39216 1.81194 0
M  V30 56376 C 5227.78 3.26833 -1.22399 0
M  V30 56377 C 5229.12 4.03268 -1.32892 0
M  V30 56378 O 5230.15 3.36125 -1.17892 0
M  V30 56379 O 5229.01 5.23472 -1.5697 0
M  V30 56380 H 5226.1 0.801631 -0.203266 0
M  V30 56381 H 5228.65 1.29538 -1.09626 0
M  V30 56382 H 5227.42 3.19076 -2.26508 0
M  V30 56383 H 5227.04 3.91224 -0.709207 0
M  V30 56384 N 5228.04 0.774023 1.37283 0
M  V30 56385 C 5229.29 0.339879 1.99932 0
M  V30 56386 C 5229.62 -1.08144 1.61303 0
M  V30 56387 O 5228.89 -1.74439 0.860313 0
M  V30 56388 C 5229.18 0.486044 3.56805 0
M  V30 56389 C 5229.03 1.94994 4.05336 0
M  V30 56390 C 5230.35 -0.108307 4.39967 0
M  V30 56391 H 5227.47 0.124969 0.726328 0
M  V30 56392 H 5230.11 0.977491 1.62927 0
M  V30 56393 H 5228.26 -0.0567657 3.88459 0
M  V30 56394 H 5229.93 2.55263 3.84237 0
M  V30 56395 H 5228.17 2.45796 3.57445 0
M  V30 56396 H 5228.85 2.00326 5.14367 0
M  V30 56397 H 5231.32 0.354868 4.14584 0
M  V30 56398 H 5230.2 0.0240855 5.48895 0
M  V30 56399 H 5230.46 -1.19886 4.25535 0
M  V30 56400 N 5229.52 -1.48607 0.52475 0
M  V30 56401 C 5230.74 -2.07398 -0.00944848 0
M  V30 56402 C 5231.17 -1.37944 -1.27879 0
M  V30 56403 O 5230.53 -0.443694 -1.75787 0
M  V30 56404 C 5230.57 -3.59917 -0.22183 0
M  V30 56405 O 5229.68 -3.91652 -1.29162 0
M  V30 56406 H 5229.02 -0.66298 0.0367962 0
M  V30 56407 H 5231.55 -1.91089 0.731167 0
M  V30 56408 H 5231.56 -4.05554 -0.446094 0
M  V30 56409 H 5230.23 -4.09873 0.705451 0
M  V30 56410 H 5228.81 -3.578 -1.05042 0
M  V30 56411 N 5231 -0.25964 -1.55447 0
M  V30 56412 C 5232.27 0.412528 -1.912 0
M  V30 56413 C 5232.65 1.74905 -1.182 0
M  V30 56414 O 5232 2.26473 -0.303682 0
M  V30 56415 C 5232.21 0.568074 -3.44346 0
M  V30 56416 C 5233.56 0.858107 -4.15839 0
M  V30 56417 O 5234.58 0.653465 -3.50155 0
M  V30 56418 O 5233.44 1.24855 -5.32046 0
M  V30 56419 H 5230.54 0.223375 -0.796262 0
M  V30 56420 H 5233.08 -0.304649 -1.66943 0
M  V30 56421 H 5231.85 -0.373126 -3.89517 0
M  V30 56422 H 5231.48 1.33531 -3.74507 0
M  V30 56423 N 5232.47 1.57594 0.0133061 0
M  V30 56424 C 5233.75 1.81176 0.737209 0
M  V30 56425 C 5234.13 0.861463 1.92723 0
M  V30 56426 O 5233.48 -0.0928522 2.28311 0
M  V30 56427 C 5233.69 3.29318 1.15545 0
M  V30 56428 C 5235.04 3.94712 1.56484 0
M  V30 56429 O 5236.06 3.33561 1.24961 0
M  V30 56430 O 5234.92 5.02409 2.15051 0
M  V30 56431 H 5232.01 0.745587 0.357811 0
M  V30 56432 H 5234.56 1.69696 -0.0111271 0
M  V30 56433 H 5233.33 3.90097 0.306633 0
M  V30 56434 H 5232.95 3.45745 1.96331 0
M  V30 56435 N 5233.95 -0.28585 1.54986 0
M  V30 56436 C 5235.2 -1.01663 1.76171 0
M  V30 56437 C 5235.55 -1.84399 0.549084 0
M  V30 56438 O 5234.85 -1.86036 -0.458398 0
M  V30 56439 C 5235.04 -1.94183 3.00046 0
M  V30 56440 C 5234.87 -1.2055 4.33241 0
M  V30 56441 C 5233.64 -0.926436 4.96735 0
M  V30 56442 C 5235.84 -0.602334 5.10761 0
M  V30 56443 N 5233.82 -0.161969 6.13686 0
M  V30 56444 C 5235.19 0.0286023 6.19993 0
M  V30 56445 C 5237.25 -0.508893 4.95293 0
M  V30 56446 C 5235.95 0.743958 7.15442 0
M  V30 56447 C 5237.97 0.192841 5.91086 0
M  V30 56448 C 5237.34 0.812567 6.99698 0
M  V30 56449 H 5233.44 -0.354427 0.697069 0
M  V30 56450 H 5236.02 -0.293625 1.92473 0
M  V30 56451 H 5234.19 -2.6372 2.85143 0
M  V30 56452 H 5235.92 -2.60525 3.09691 0
M  V30 56453 H 5232.68 -1.22845 4.5739 0
M  V30 56454 H 5233.1 0.20722 6.76683 0
M  V30 56455 H 5237.74 -0.973712 4.11435 0
M  V30 56456 H 5235.46 1.2205 7.9883 0
M  V30 56457 H 5239.05 0.265286 5.81195 0
M  V30 56458 H 5237.93 1.34692 7.72546 0
M  V30 56459 N 5235.43 -1.477 -0.549768 0
M  V30 56460 C 5236.36 -1.56812 -1.67161 0
M  V30 56461 C 5237.38 -0.453764 -1.56348 0
M  V30 56462 O 5238.56 -0.72372 -1.6317 0
M  V30 56463 C 5235.66 -1.4633 -3.05681 0
M  V30 56464 C 5234.84 -2.72464 -3.42173 0
M  V30 56465 C 5233.9 -2.55714 -4.59888 0
M  V30 56466 O 5232.92 -3.2955 -4.64096 0
M  V30 56467 N 5234.12 -1.64028 -5.56844 0
M  V30 56468 H 5236.89 -2.53551 -1.59788 0
M  V30 56469 H 5234.45 -1.44174 -0.736585 0
M  V30 56470 H 5236.44 -1.32849 -3.82274 0
M  V30 56471 H 5235.01 -0.576448 -3.07239 0
M  V30 56472 H 5234.23 -3.00653 -2.54953 0
M  V30 56473 H 5235.52 -3.56185 -3.63332 0
M  V30 56474 H 5234.92 -1.03205 -5.56206 0
M  V30 56475 H 5233.48 -1.56495 -6.32734 0
M  V30 56476 N 5236.91 0.797093 -1.35957 0
M  V30 56477 C 5237.87 1.89099 -1.29515 0
M  V30 56478 C 5238.87 1.59494 -0.2045 0
M  V30 56479 O 5240.06 1.68049 -0.458805 0
M  V30 56480 C 5237.19 3.25722 -1.00587 0
M  V30 56481 H 5238.39 1.96229 -2.26791 0
M  V30 56482 H 5235.94 0.994032 -1.20618 0
M  V30 56483 H 5236.67 3.24278 -0.0373659 0
M  V30 56484 H 5236.46 3.48598 -1.79504 0
M  V30 56485 H 5237.95 4.05777 -0.986651 0
M  V30 56486 N 5238.39 1.2011 1.02036 0
M  V30 56487 C 5239.63 1.00696 1.75228 0
M  V30 56488 C 5239.96 -0.462424 1.89438 0
M  V30 56489 O 5239.23 -1.3345 1.43415 0
M  V30 56490 H 5237.81 0.369599 0.649158 0
M  V30 56491 H 5240.47 1.51154 1.23039 0
M  V30 56492 H 5239.56 1.46215 2.75731 0
M  V30 56493 N 5239.86 -1.21284 1.00638 0
M  V30 56494 C 5241.14 -1.85998 0.605322 0
M  V30 56495 C 5241.52 -1.90143 -0.917005 0
M  V30 56496 O 5240.87 -1.40175 -1.80453 0
M  V30 56497 C 5241.08 -3.26179 1.2413 0
M  V30 56498 C 5242.43 -4.02557 1.35029 0
M  V30 56499 O 5243.45 -3.35495 1.19673 0
M  V30 56500 O 5242.31 -5.22632 1.59744 0
M  V30 56501 H 5239.4 -0.800542 0.207514 0
M  V30 56502 H 5241.95 -1.28955 1.10312 0
M  V30 56503 H 5240.72 -3.1787 2.28197 0
M  V30 56504 H 5240.35 -3.90842 0.729945 0
M  V30 56505 N 5241.34 -0.781292 -1.36871 0
M  V30 56506 C 5242.27 -0.18821 -2.3274 0
M  V30 56507 C 5243.25 0.672271 -1.56251 0
M  V30 56508 O 5244.44 0.60777 -1.84445 0
M  V30 56509 C 5241.57 0.684221 -3.40493 0
M  V30 56510 C 5240.52 -0.0757146 -4.27933 0
M  V30 56511 C 5239.85 0.916783 -5.26782 0
M  V30 56512 C 5241.15 -1.26024 -5.06868 0
M  V30 56513 H 5242.84 -0.989116 -2.8259 0
M  V30 56514 H 5240.39 -0.477086 -1.35867 0
M  V30 56515 H 5242.34 1.10901 -4.06545 0
M  V30 56516 H 5241.07 1.51775 -2.89192 0
M  V30 56517 H 5239.72 -0.481386 -3.63426 0
M  V30 56518 H 5239.37 1.74512 -4.71757 0
M  V30 56519 H 5239.07 0.412794 -5.86148 0
M  V30 56520 H 5240.6 1.34031 -5.95708 0
M  V30 56521 H 5242.01 -0.911624 -5.66006 0
M  V30 56522 H 5240.41 -1.69696 -5.75607 0
M  V30 56523 H 5241.48 -2.05964 -4.38984 0
M  V30 56524 N 5242.82 1.48327 -0.532624 0
M  V30 56525 C 5244.07 2.028 0.000511925 0
M  V30 56526 C 5244.4 1.40863 1.33683 0
M  V30 56527 O 5243.67 0.555327 1.86404 0
M  V30 56528 C 5243.96 3.59901 0.11972 0
M  V30 56529 C 5243.81 4.32314 -1.24196 0
M  V30 56530 C 5245.13 4.31907 0.84522 0
M  V30 56531 H 5242.25 0.736999 -0.00128796 0
M  V30 56532 H 5244.89 1.77022 -0.690164 0
M  V30 56533 H 5243.04 3.81995 0.707958 0
M  V30 56534 H 5244.71 4.21631 -1.87151 0
M  V30 56535 H 5242.96 3.93629 -1.82315 0
M  V30 56536 H 5243.63 5.40693 -1.11151 0
M  V30 56537 H 5246.1 4.14659 0.346013 0
M  V30 56538 H 5244.98 5.41512 0.897533 0
M  V30 56539 H 5245.24 3.99376 1.89608 0
M  V30 56540 N 5244.3 0.26788 1.55307 0
M  V30 56541 C 5245.54 -0.351486 1.99731 0
M  V30 56542 C 5245.88 -1.56045 1.15601 0
M  V30 56543 O 5245.15 -1.93202 0.224342 0
M  V30 56544 C 5245.44 -0.740786 3.52398 0
M  V30 56545 C 5245.29 0.475019 4.47285 0
M  V30 56546 C 5246.61 -1.57996 4.10762 0
M  V30 56547 H 5243.73 -0.126282 0.7261 0
M  V30 56548 H 5246.37 0.373381 1.86295 0
M  V30 56549 H 5244.52 -1.35839 3.63978 0
M  V30 56550 H 5246.19 1.11356 4.47658 0
M  V30 56551 H 5244.43 1.11439 4.19242 0
M  V30 56552 H 5245.1 0.158976 5.51771 0
M  V30 56553 H 5247.58 -1.05843 4.02413 0
M  V30 56554 H 5246.46 -1.82117 5.17807 0
M  V30 56555 H 5246.72 -2.55866 3.60535 0
M  V30 56556 N 5245.78 -1.57599 -0.00494828 0
M  V30 56557 C 5246.69 -2.11536 -1.01438 0
M  V30 56558 C 5247.7 -1.05946 -1.38027 0
M  V30 56559 O 5248.88 -1.3782 -1.46859 0
M  V30 56560 C 5245.94 -2.6039 -2.28906 0
M  V30 56561 C 5245 -3.80561 -1.98676 0
M  V30 56562 C 5244.24 -4.27076 -3.20066 0
M  V30 56563 O 5244.46 -3.72954 -4.3158 0
M  V30 56564 O 5243.39 -5.19281 -3.04353 0
M  V30 56565 H 5247.22 -2.97995 -0.585906 0
M  V30 56566 H 5244.81 -1.47719 -0.223467 0
M  V30 56567 H 5246.69 -2.92035 -3.03799 0
M  V30 56568 H 5245.36 -1.77031 -2.71001 0
M  V30 56569 H 5244.27 -3.53897 -1.21274 0
M  V30 56570 H 5245.6 -4.64978 -1.6142 0
M  V30 56571 N 5247.25 0.277627 -1.55135 0
M  V30 56572 C 5248.2 1.34306 -1.87698 0
M  V30 56573 C 5249.17 1.49295 -0.728026 0
M  V30 56574 O 5250.36 1.63777 -0.978864 0
M  V30 56575 C 5247.5 2.69914 -2.15035 0
M  V30 56576 C 5246.61 2.63185 -3.42575 0
M  V30 56577 C 5245.74 3.90942 -3.59636 0
M  V30 56578 C 5244.78 3.78705 -4.80884 0
M  V30 56579 N 5243.92 4.98286 -4.94627 0
M  V30 56580 H 5248.76 1.05837 -2.78572 0
M  V30 56581 H 5246.3 0.511421 -1.37924 0
M  V30 56582 H 5248.26 3.48809 -2.28884 0
M  V30 56583 H 5246.89 2.96596 -1.27401 0
M  V30 56584 H 5245.94 1.76026 -3.37222 0
M  V30 56585 H 5247.25 2.50041 -4.31603 0
M  V30 56586 H 5246.4 4.78277 -3.73277 0
M  V30 56587 H 5245.14 4.06948 -2.68784 0
M  V30 56588 H 5244.15 2.89752 -4.67251 0
M  V30 56589 H 5245.37 3.64222 -5.73166 0
M  V30 56590 H 5243.32 5.14711 -4.06705 0
M  V30 56591 H 5243.24 4.87655 -5.77693 0
M  V30 56592 H 5244.5 5.87207 -5.12649 0
M  V30 56593 N 5248.73 1.4799 0.541927 0
M  V30 56594 C 5250.15 1.33846 0.869336 0
M  V30 56595 C 5250.35 0.340444 1.98603 0
M  V30 56596 O 5249.41 -0.242608 2.51332 0
M  V30 56597 C 5250.72 2.73573 1.24814 0
M  V30 56598 C 5252.27 2.81972 1.3587 0
M  V30 56599 C 5252.74 4.22374 1.77099 0
M  V30 56600 N 5254.23 4.2499 1.84222 0
M  V30 56601 C 5254.97 5.30555 2.17484 0
M  V30 56602 N 5254.46 6.46409 2.49252 0
M  V30 56603 N 5256.26 5.17941 2.18388 0
M  V30 56604 H 5248.41 2.11502 -0.195075 0
M  V30 56605 H 5250.67 0.94768 -0.0246195 0
M  V30 56606 H 5250.38 3.48109 0.501313 0
M  V30 56607 H 5250.25 3.0633 2.20095 0
M  V30 56608 H 5252.64 2.07699 2.09631 0
M  V30 56609 H 5252.72 2.5285 0.387389 0
M  V30 56610 H 5252.36 4.97159 1.03902 0
M  V30 56611 H 5252.29 4.48932 2.75259 0
M  V30 56612 H 5254.78 3.41417 1.61997 0
M  V30 56613 H 5255.1 7.22708 2.73703 0
M  V30 56614 H 5253.44 6.49704 2.46798 0
M  V30 56615 H 5256.63 4.26452 1.93019 0
M  V30 56616 H 5256.81 6.00315 2.43979 0
M  V30 56617 N 5250.21 -0.789872 1.36377 0
M  V30 56618 C 5251.62 -1.36501 1.27375 0
M  V30 56619 C 5251.97 -1.96009 -0.0866421 0
M  V30 56620 O 5251.1 -1.92525 -0.988091 0
M  V30 56621 C 5251.69 -2.48167 2.30648 0
M  V30 56622 C 5250.25 -3.01498 2.25335 0
M  V30 56623 C 5249.4 -1.74574 2.15452 0
M  V30 56624 H 5252.35 -0.591554 1.47263 0
M  V30 56625 H 5252.37 -3.27172 1.94265 0
M  V30 56626 H 5251.88 -2.04827 3.29648 0
M  V30 56627 H 5249.98 -3.4926 1.29801 0
M  V30 56628 H 5250.1 -3.58344 3.18004 0
M  V30 56629 H 5248.46 -1.96788 1.61698 0
M  V30 56630 H 5249.24 -1.33362 3.16338 0
M  V30 56631 N 5251.69 -1.20649 -1.01398 0
M  V30 56632 C 5253.11 -0.961911 -1.27356 0
M  V30 56633 C 5253.31 0.357013 -1.98312 0
M  V30 56634 O 5252.36 1.0849 -2.28005 0
M  V30 56635 C 5253.67 -2.14634 -2.10601 0
M  V30 56636 C 5255.22 -2.18761 -2.23859 0
M  V30 56637 C 5255.7 -3.36697 -3.10482 0
M  V30 56638 N 5257.19 -3.36727 -3.18071 0
M  V30 56639 C 5257.92 -4.24629 -3.85328 0
M  V30 56640 N 5257.42 -5.22713 -4.5469 0
M  V30 56641 N 5259.21 -4.12463 -3.81878 0
M  V30 56642 H 5251.36 -2.05483 -0.537649 0
M  V30 56643 H 5253.63 -0.899303 -0.299931 0
M  V30 56644 H 5253.33 -3.10165 -1.65803 0
M  V30 56645 H 5253.21 -2.12946 -3.11342 0
M  V30 56646 H 5255.59 -1.23791 -2.6788 0
M  V30 56647 H 5255.67 -2.24496 -1.22618 0
M  V30 56648 H 5255.32 -4.31955 -2.67166 0
M  V30 56649 H 5255.25 -3.28199 -4.11816 0
M  V30 56650 H 5257.74 -2.65738 -2.68686 0
M  V30 56651 H 5258.05 -5.86105 -5.03687 0
M  V30 56652 H 5256.4 -5.26647 -4.53506 0
M  V30 56653 H 5259.59 -3.35103 -3.26839 0
M  V30 56654 H 5259.76 -4.81178 -4.34018 0
M  V30 56655 N 5253.17 1.20748 -1.0128 0
M  V30 56656 C 5254.41 1.903 -0.700991 0
M  V30 56657 C 5254.75 1.78408 0.767079 0
M  V30 56658 O 5254.02 1.16581 1.55689 0
M  V30 56659 C 5254.3 3.41827 -1.13254 0
M  V30 56660 C 5254.16 3.62671 -2.66064 0
M  V30 56661 C 5255.48 4.34483 -0.700891 0
M  V30 56662 H 5252.6 0.691061 -0.256131 0
M  V30 56663 H 5255.24 1.42223 -1.25987 0
M  V30 56664 H 5253.39 3.82904 -0.657037 0
M  V30 56665 H 5255.06 3.30871 -3.21438 0
M  V30 56666 H 5253.3 3.0627 -3.07215 0
M  V30 56667 H 5253.97 4.68872 -2.91313 0
M  V30 56668 H 5256.45 4.01032 -1.10962 0
M  V30 56669 H 5255.33 5.39132 -1.03092 0
M  V30 56670 H 5255.59 4.40308 0.397625 0
M  V30 56671 N 5254.65 0.78854 1.36454 0
M  V30 56672 C 5255.89 0.357122 1.98513 0
M  V30 56673 C 5256.21 -1.07685 1.63289 0
M  V30 56674 O 5257.41 -1.61049 2.18576 0
M  V30 56675 C 5255.87 0.587574 3.55071 0
M  V30 56676 C 5255.48 2.0329 3.99221 0
M  V30 56677 C 5257.22 0.220617 4.23926 0
M  V30 56678 C 5255.13 2.21006 5.48553 0
M  V30 56679 H 5254.06 0.129788 0.742746 0
M  V30 56680 H 5256.71 0.97005 1.55764 0
M  V30 56681 H 5255.09 -0.0950526 3.95886 0
M  V30 56682 H 5256.27 2.75186 3.69607 0
M  V30 56683 H 5254.58 2.35802 3.432 0
M  V30 56684 H 5257.18 0.331272 5.33673 0
M  V30 56685 H 5257.52 -0.831162 4.07918 0
M  V30 56686 H 5258.05 0.856446 3.88471 0
M  V30 56687 H 5254.79 3.24563 5.69508 0
M  V30 56688 H 5254.31 1.53614 5.79795 0
M  V30 56689 H 5255.99 2.01678 6.14764 0
M  V30 56690 N 5256.12 -1.48042 0.540482 0
M  V30 56691 C 5257.06 -2.27791 -0.253774 0
M  V30 56692 C 5258.07 -1.36002 -0.894836 0
M  V30 56693 O 5259.26 -1.60966 -0.771506 0
M  V30 56694 C 5256.36 -3.09729 -1.37555 0
M  V30 56695 C 5255.53 -4.29367 -0.834439 0
M  V30 56696 C 5254.59 -4.93032 -1.83863 0
M  V30 56697 O 5253.62 -5.51932 -1.39139 0
M  V30 56698 N 5254.82 -4.86218 -3.17131 0
M  V30 56699 H 5257.58 -2.96596 0.430229 0
M  V30 56700 H 5255.14 -1.57486 0.375478 0
M  V30 56701 H 5257.14 -3.49188 -2.04572 0
M  V30 56702 H 5255.71 -2.43276 -1.96305 0
M  V30 56703 H 5254.93 -3.94198 0.0120264 0
M  V30 56704 H 5256.21 -5.06789 -0.451977 0
M  V30 56705 H 5255.61 -4.39535 -3.56126 0
M  V30 56706 H 5254.17 -5.29747 -3.79752 0
M  V30 56707 N 5257.6 -0.276112 -1.55162 0
M  V30 56708 C 5258.83 0.343202 -2.03729 0
M  V30 56709 C 5259.24 1.4994 -1.15388 0
M  V30 56710 O 5258.58 1.82942 -0.16676 0
M  V30 56711 C 5258.64 0.88556 -3.48422 0
M  V30 56712 C 5258.31 -0.142137 -4.56779 0
M  V30 56713 C 5259.31 -0.961995 -5.10922 0
M  V30 56714 C 5256.99 -0.276663 -5.01538 0
M  V30 56715 C 5258.98 -1.90256 -6.08343 0
M  V30 56716 C 5256.67 -1.2207 -5.98784 0
M  V30 56717 C 5257.67 -2.03215 -6.52068 0
M  V30 56718 O 5257.36 -2.96022 -7.47413 0
M  V30 56719 H 5257.09 0.0821957 -0.670984 0
M  V30 56720 H 5259.64 -0.406269 -2.01342 0
M  V30 56721 H 5257.87 1.68512 -3.48053 0
M  V30 56722 H 5259.56 1.41807 -3.80323 0
M  V30 56723 H 5260.33 -0.868805 -4.77155 0
M  V30 56724 H 5256.21 0.344933 -4.59708 0
M  V30 56725 H 5259.75 -2.53633 -6.49859 0
M  V30 56726 H 5255.65 -1.3147 -6.3197 0
M  V30 56727 H 5256.42 -2.90715 -7.65132 0
M  V30 56728 N 5259.08 1.576 -0.00340966 0
M  V30 56729 C 5260.49 1.78752 0.538945 0
M  V30 56730 C 5260.84 0.911158 1.73759 0
M  V30 56731 O 5259.97 0.114551 2.16097 0
M  V30 56732 C 5260.56 3.24181 0.984497 0
M  V30 56733 C 5259.12 3.46418 1.47214 0
M  V30 56734 C 5258.27 2.74025 0.424908 0
M  V30 56735 H 5261.22 1.57031 -0.229566 0
M  V30 56736 H 5261.24 3.3248 1.85033 0
M  V30 56737 H 5260.75 3.87939 0.111899 0
M  V30 56738 H 5258.85 2.87879 2.36551 0
M  V30 56739 H 5258.97 4.55104 1.49725 0
M  V30 56740 H 5257.33 2.38744 0.88731 0
M  V30 56741 H 5258.11 3.40484 -0.438782 0
M  V30 56742 N 5260.56 -0.269396 1.5528 0
M  V30 56743 C 5261.47 -1.35504 1.91509 0
M  V30 56744 C 5262.48 -1.53851 0.812766 0
M  V30 56745 O 5263.66 -1.67908 1.11216 0
M  V30 56746 C 5260.72 -2.69363 2.18276 0
M  V30 56747 C 5259.79 -2.59731 3.41816 0
M  V30 56748 C 5259.02 -3.87207 3.67297 0
M  V30 56749 O 5259.24 -4.88055 2.95226 0
M  V30 56750 O 5258.18 -3.87193 4.60831 0
M  V30 56751 H 5262 -1.07775 2.83933 0
M  V30 56752 H 5259.59 -0.468232 1.41873 0
M  V30 56753 H 5261.47 -3.48505 2.36902 0
M  V30 56754 H 5260.14 -2.9687 1.29035 0
M  V30 56755 H 5259.05 -1.78952 3.28522 0
M  V30 56756 H 5260.38 -2.37173 4.31288 0
M  V30 56757 N 5262.04 -1.48275 -0.534071 0
M  V30 56758 C 5263 -1.62016 -1.62122 0
M  V30 56759 C 5264 -0.493707 -1.53033 0
M  V30 56760 O 5265.19 -0.759392 -1.56777 0
M  V30 56761 C 5262.32 -1.58651 -3.01733 0
M  V30 56762 H 5263.51 -2.58949 -1.51279 0
M  V30 56763 H 5261.07 -1.36811 -0.755813 0
M  V30 56764 H 5261.8 -0.631797 -3.18086 0
M  V30 56765 H 5261.59 -2.40426 -3.09739 0
M  V30 56766 H 5263.08 -1.71452 -3.80781 0
M  V30 56767 N 5263.51 0.782628 -1.36794 0
M  V30 56768 C 5264.46 1.89554 -1.31674 0
M  V30 56769 C 5265.43 1.65075 -0.184205 0
M  V30 56770 O 5266.62 1.87142 -0.371819 0
M  V30 56771 C 5263.76 3.26465 -1.11869 0
M  V30 56772 C 5262.87 3.6297 -2.34258 0
M  V30 56773 C 5262 4.89034 -2.07411 0
M  V30 56774 C 5261.04 5.18238 -3.25724 0
M  V30 56775 N 5260.18 6.35486 -2.98499 0
M  V30 56776 H 5265.02 1.93266 -2.26831 0
M  V30 56777 H 5262.56 0.945017 -1.12729 0
M  V30 56778 H 5264.52 4.05427 -0.984111 0
M  V30 56779 H 5263.15 3.22157 -0.203644 0
M  V30 56780 H 5262.2 2.79078 -2.58495 0
M  V30 56781 H 5263.51 3.80496 -3.22528 0
M  V30 56782 H 5262.66 5.75877 -1.90922 0
M  V30 56783 H 5261.4 4.7359 -1.16462 0
M  V30 56784 H 5260.41 4.29875 -3.42765 0
M  V30 56785 H 5261.63 5.35596 -4.17509 0
M  V30 56786 H 5259.58 6.21422 -2.10168 0
M  V30 56787 H 5259.5 6.53377 -3.80309 0
M  V30 56788 H 5260.76 7.25294 -2.85603 0
M  V30 56789 N 5264.99 1.21185 1.00757 0
M  V30 56790 C 5266.22 1.05341 1.78075 0
M  V30 56791 C 5266.64 -0.396923 1.84581 0
M  V30 56792 O 5265.99 -1.27544 1.30533 0
M  V30 56793 C 5266.04 1.641 3.22108 0
M  V30 56794 O 5265.76 3.03459 3.15981 0
M  V30 56795 C 5267.27 1.53332 4.15938 0
M  V30 56796 H 5264.49 0.37007 0.559723 0
M  V30 56797 H 5267.03 1.60468 1.26769 0
M  V30 56798 H 5265.18 1.13072 3.70531 0
M  V30 56799 H 5265.6 3.31506 4.06453 0
M  V30 56800 H 5267.07 1.99192 5.14807 0
M  V30 56801 H 5267.55 0.48732 4.36488 0
M  V30 56802 H 5268.16 2.03595 3.73402 0
M  V30 56803 N 5266.47 -1.20209 1.01919 0
M  V30 56804 C 5267.89 -1.41694 0.734509 0
M  V30 56805 C 5268.09 -1.89507 -0.6848 0
M  V30 56806 O 5267.14 -2.06561 -1.45219 0
M  V30 56807 C 5268.46 -2.43638 1.76241 0
M  V30 56808 C 5270 -2.574 1.78085 0
M  V30 56809 C 5270.48 -3.6259 2.79808 0
M  V30 56810 N 5271.97 -3.70076 2.78564 0
M  V30 56811 C 5272.7 -4.51133 3.53931 0
M  V30 56812 N 5272.2 -5.35973 4.38982 0
M  V30 56813 N 5273.99 -4.4569 3.42516 0
M  V30 56814 H 5266.14 -0.874908 1.93544 0
M  V30 56815 H 5268.41 -0.446617 0.836204 0
M  V30 56816 H 5268.11 -2.1551 2.77936 0
M  V30 56817 H 5267.99 -3.42666 1.57669 0
M  V30 56818 H 5270.37 -2.84857 0.770734 0
M  V30 56819 H 5270.46 -1.58558 2.00731 0
M  V30 56820 H 5270.1 -3.35876 3.80985 0
M  V30 56821 H 5270.03 -4.6106 2.54423 0
M  V30 56822 H 5272.52 -3.09476 2.16871 0
M  V30 56823 H 5272.83 -5.94915 4.93251 0
M  V30 56824 H 5271.18 -5.35466 4.43058 0
M  V30 56825 H 5274.37 -3.78447 2.75492 0
M  V30 56826 H 5274.54 -5.08623 4.01505 0
M  V30 56827 N 5267.95 -0.795765 -1.36034 0
M  V30 56828 C 5268.88 -0.212884 -2.32528 0
M  V30 56829 C 5269.86 0.655661 -1.56956 0
M  V30 56830 O 5271.04 0.588173 -1.85079 0
M  V30 56831 C 5268.17 0.648069 -3.412 0
M  V30 56832 C 5267.13 -0.121098 -4.27829 0
M  V30 56833 C 5266.45 0.860859 -5.27725 0
M  V30 56834 C 5267.75 -1.31393 -5.05503 0
M  V30 56835 H 5269.45 -1.01903 -2.81525 0
M  V30 56836 H 5266.99 -0.49147 -1.35354 0
M  V30 56837 H 5268.95 1.06583 -4.07699 0
M  V30 56838 H 5267.67 1.48699 -2.90785 0
M  V30 56839 H 5266.33 -0.519905 -3.62895 0
M  V30 56840 H 5265.98 1.69498 -4.73581 0
M  V30 56841 H 5265.68 0.350602 -5.86553 0
M  V30 56842 H 5267.2 1.27705 -5.97096 0
M  V30 56843 H 5268.62 -0.971605 -5.65007 0
M  V30 56844 H 5267.01 -1.75792 -5.73775 0
M  V30 56845 H 5268.08 -2.10608 -4.36775 0
M  V30 56846 N 5269.43 1.47754 -0.548326 0
M  V30 56847 C 5270.39 2.28379 0.193777 0
M  V30 56848 C 5271.39 1.36439 0.850938 0
M  V30 56849 O 5272.58 1.59156 0.708164 0
M  V30 56850 C 5269.71 3.15863 1.28232 0
M  V30 56851 H 5270.9 2.95457 -0.514335 0
M  V30 56852 H 5268.46 1.53297 -0.304933 0
M  V30 56853 H 5269.19 2.53457 2.02311 0
M  V30 56854 H 5268.98 3.83515 0.816013 0
M  V30 56855 H 5270.47 3.76634 1.80379 0
M  V30 56856 N 5270.9 0.284337 1.55014 0
M  V30 56857 C 5272.15 -0.33048 1.98974 0
M  V30 56858 C 5272.47 -1.5628 1.17627 0
M  V30 56859 O 5273.67 -2.25115 1.51775 0
M  V30 56860 C 5272.13 -0.639333 3.54176 0
M  V30 56861 C 5271.74 0.573699 4.44311 0
M  V30 56862 C 5273.48 -1.21627 4.06703 0
M  V30 56863 C 5271.39 0.238922 5.90917 0
M  V30 56864 H 5270.32 -0.127258 0.743183 0
M  V30 56865 H 5272.97 0.390436 1.79298 0
M  V30 56866 H 5271.35 -1.4194 3.69688 0
M  V30 56867 H 5272.52 1.35035 4.4057 0
M  V30 56868 H 5270.84 1.06811 4.02468 0
M  V30 56869 H 5273.44 -1.4807 5.13789 0
M  V30 56870 H 5273.78 -2.15315 3.56294 0
M  V30 56871 H 5274.31 -0.498283 3.94667 0
M  V30 56872 H 5271.05 1.14393 6.45441 0
M  V30 56873 H 5270.57 -0.500787 5.97706 0
M  V30 56874 H 5272.25 -0.165546 6.46788 0
M  V30 56875 N 5272.38 -1.57596 0.0117675 0
M  V30 56876 C 5273.61 -1.95362 -0.681265 0
M  V30 56877 C 5274.03 -0.887314 -1.6665 0
M  V30 56878 O 5273.38 0.132628 -1.82017 0
M  V30 56879 C 5273.43 -3.3317 -1.40286 0
M  V30 56880 O 5273.15 -4.35709 -0.457127 0
M  V30 56881 C 5274.66 -3.85466 -2.18932 0
M  V30 56882 H 5271.88 -0.643832 -0.189 0
M  V30 56883 H 5274.42 -2.04392 0.0663829 0
M  V30 56884 H 5272.57 -3.25412 -2.10205 0
M  V30 56885 H 5272.99 -5.15499 -0.967549 0
M  V30 56886 H 5274.46 -4.84284 -2.64901 0
M  V30 56887 H 5274.94 -3.18791 -3.02107 0
M  V30 56888 H 5275.55 -3.96437 -1.54006 0
M  V30 56889 N 5273.86 0.261157 -1.55421 0
M  V30 56890 C 5274.81 1.32308 -1.89112 0
M  V30 56891 C 5275.78 1.48514 -0.74382 0
M  V30 56892 O 5276.96 1.6273 -0.99618 0
M  V30 56893 C 5274.1 2.67619 -2.17886 0
M  V30 56894 C 5273.22 2.59537 -3.45347 0
M  V30 56895 C 5272.35 3.87106 -3.63762 0
M  V30 56896 C 5271.39 3.73583 -4.84873 0
M  V30 56897 N 5270.53 4.93012 -4.99884 0
M  V30 56898 H 5275.37 1.02877 -2.79679 0
M  V30 56899 H 5272.9 0.496763 -1.38458 0
M  V30 56900 H 5274.86 3.46362 -2.32571 0
M  V30 56901 H 5273.49 2.95228 -1.30539 0
M  V30 56902 H 5272.54 1.7244 -3.3907 0
M  V30 56903 H 5273.86 2.45449 -4.3423 0
M  V30 56904 H 5273.01 4.74291 -3.78329 0
M  V30 56905 H 5271.75 4.04074 -2.73085 0
M  V30 56906 H 5270.75 2.8478 -4.70298 0
M  V30 56907 H 5271.98 3.58122 -5.76997 0
M  V30 56908 H 5269.92 5.10368 -4.12141 0
M  V30 56909 H 5269.84 4.815 -5.82832 0
M  V30 56910 H 5271.11 5.81736 -5.18848 0
M  V30 56911 N 5275.34 1.48556 0.526201 0
M  V30 56912 C 5276.58 1.56998 1.28372 0
M  V30 56913 C 5276.92 0.244769 1.92651 0
M  V30 56914 O 5276.19 -0.749572 1.79476 0
M  V30 56915 C 5276.48 2.711 2.37017 0
M  V30 56916 C 5276.33 4.13338 1.77403 0
M  V30 56917 C 5277.65 2.80946 3.38759 0
M  V30 56918 H 5274.77 0.571483 0.465378 0
M  V30 56919 H 5277.41 1.80744 0.585797 0
M  V30 56920 H 5275.56 2.50984 2.96546 0
M  V30 56921 H 5277.23 4.44903 1.21896 0
M  V30 56922 H 5275.47 4.20161 1.07921 0
M  V30 56923 H 5276.14 4.89003 2.56087 0
M  V30 56924 H 5278.62 2.9918 2.8919 0
M  V30 56925 H 5277.5 3.62504 4.12168 0
M  V30 56926 H 5277.76 1.89258 3.99542 0
M  V30 56927 N 5276.82 -0.775363 1.37207 0
M  V30 56928 C 5277.75 -1.89566 1.27044 0
M  V30 56929 C 5278.73 -1.61891 0.1517 0
M  V30 56930 O 5279.91 -1.85672 0.325283 0
M  V30 56931 C 5277.04 -3.24709 0.96343 0
M  V30 56932 C 5276.08 -3.71299 2.09855 0
M  V30 56933 S 5276.92 -3.85397 3.71792 0
M  V30 56934 C 5278.07 -5.23394 3.43234 0
M  V30 56935 H 5278.31 -1.97898 2.21864 0
M  V30 56936 H 5275.84 -0.936084 1.22788 0
M  V30 56937 H 5277.8 -4.02765 0.793124 0
M  V30 56938 H 5276.46 -3.14083 0.0327665 0
M  V30 56939 H 5275.65 -4.69265 1.83866 0
M  V30 56940 H 5275.25 -3.00334 2.2288 0
M  V30 56941 H 5277.55 -6.08443 2.97999 0
M  V30 56942 H 5278.49 -5.54394 4.40515 0
M  V30 56943 H 5278.9 -4.9116 2.78248 0
M  V30 56944 N 5278.3 -1.21718 -1.00112 0
M  V30 56945 C 5279.53 -1.0613 -1.77257 0
M  V30 56946 C 5279.93 0.391652 -1.85102 0
M  V30 56947 O 5279.28 1.28342 -1.3143 0
M  V30 56948 C 5279.34 -1.5879 -3.22531 0
M  V30 56949 C 5279 -3.07301 -3.38253 0
M  V30 56950 C 5280 -4.04813 -3.26225 0
M  V30 56951 C 5277.68 -3.46587 -3.6357 0
M  V30 56952 C 5279.68 -5.39597 -3.39284 0
M  V30 56953 C 5277.37 -4.81522 -3.76271 0
M  V30 56954 C 5278.36 -5.77836 -3.64135 0
M  V30 56955 O 5278.05 -7.10323 -3.76425 0
M  V30 56956 H 5277.78 -0.372998 -0.56378 0
M  V30 56957 H 5280.34 -1.61594 -1.26794 0
M  V30 56958 H 5278.57 -0.97726 -3.74148 0
M  V30 56959 H 5280.26 -1.38987 -3.81363 0
M  V30 56960 H 5281.02 -3.75806 -3.06586 0
M  V30 56961 H 5276.9 -2.7215 -3.72096 0
M  V30 56962 H 5280.45 -6.14756 -3.29728 0
M  V30 56963 H 5276.34 -5.10214 -3.95414 0
M  V30 56964 H 5277.11 -7.17787 -3.93349 0
M  V30 56965 N 5279.77 1.19667 -1.02555 0
M  V30 56966 C 5280.72 2.2481 -0.596946 0
M  V30 56967 C 5281.72 1.65337 0.36878 0
M  V30 56968 O 5282.92 1.78423 0.237723 0
M  V30 56969 H 5279.3 0.73141 -0.174765 0
M  V30 56970 H 5281.27 2.58281 -1.49444 0
M  V30 56971 C 5280.02 3.47677 0.0398291 0
M  V30 56972 H 5279.34 3.93725 -0.694292 0
M  V30 56973 H 5280.78 4.22918 0.302713 0
M  V30 56974 C 5279.24 3.11415 1.28539 0
M  V30 56975 O 5279.77 3.23765 2.3778 0
M  V30 56976 N 5277.97 2.65879 1.17288 0
M  V30 56977 H 5277.52 2.5603 0.283955 0
M  V30 56978 H 5277.48 2.41988 2.00722 0
M  V30 56979 N 5281.25 0.802969 1.3561 0
M  V30 56980 C 5282.5 0.391329 1.996 0
M  V30 56981 C 5282.85 -1.02916 1.62561 0
M  V30 56982 O 5282.15 -1.70354 0.876937 0
M  V30 56983 C 5282.34 0.507931 3.53772 0
M  V30 56984 C 5282.17 1.93821 4.05788 0
M  V30 56985 C 5280.94 2.56579 4.35311 0
M  V30 56986 C 5283.14 2.90226 4.24586 0
M  V30 56987 N 5281.12 3.91055 4.73233 0
M  V30 56988 C 5282.49 4.09564 4.65464 0
M  V30 56989 C 5284.54 2.87105 4.06786 0
M  V30 56990 C 5283.25 5.26208 4.90406 0
M  V30 56991 C 5285.27 4.02948 4.32882 0
M  V30 56992 C 5284.64 5.21034 4.74029 0
M  V30 56993 H 5280.73 0.190893 0.758343 0
M  V30 56994 H 5283.32 1.04344 1.64379 0
M  V30 56995 H 5281.49 -0.114169 3.88232 0
M  V30 56996 H 5283.22 0.0712278 4.04637 0
M  V30 56997 H 5279.98 2.0796 4.25499 0
M  V30 56998 H 5280.4 4.6028 4.96459 0
M  V30 56999 H 5285.04 1.96964 3.74119 0
M  V30 57000 H 5282.76 6.16925 5.21948 0
M  V30 57001 H 5286.35 4.0191 4.20666 0
M  V30 57002 H 5285.23 6.09183 4.93828 0
M  V30 57003 N 5282.73 -1.47461 0.556154 0
M  V30 57004 C 5283.98 -2.02775 0.0317519 0
M  V30 57005 C 5284.31 -1.42972 -1.31425 0
M  V30 57006 O 5283.58 -0.584912 -1.85497 0
M  V30 57007 C 5283.87 -3.60046 -0.0624477 0
M  V30 57008 C 5283.72 -4.30284 1.31058 0
M  V30 57009 C 5285.04 -4.33197 -0.7764 0
M  V30 57010 H 5282.16 -0.736885 0.0130128 0
M  V30 57011 H 5284.8 -1.75901 0.718239 0
M  V30 57012 H 5282.95 -3.83073 -0.647096 0
M  V30 57013 H 5284.62 -4.186 1.93835 0
M  V30 57014 H 5282.86 -3.90679 1.88554 0
M  V30 57015 H 5283.54 -5.38857 1.19739 0
M  V30 57016 H 5286.01 -4.15157 -0.280001 0
M  V30 57017 H 5284.89 -5.42872 -0.81127 0
M  V30 57018 H 5285.15 -4.02342 -1.8323 0
M  V30 57019 N 5284.21 -0.292554 -1.54861 0
M  V30 57020 C 5285.15 0.587287 -2.23203 0
M  V30 57021 C 5286.12 1.13619 -1.21161 0
M  V30 57022 O 5287.31 1.18228 -1.49756 0
M  V30 57023 C 5284.45 1.75734 -2.97004 0
M  V30 57024 C 5283.56 1.24064 -4.13802 0
M  V30 57025 C 5282.7 2.37388 -4.75206 0
M  V30 57026 C 5281.74 1.82809 -5.84164 0
M  V30 57027 N 5280.87 2.89674 -6.39557 0
M  V30 57028 H 5285.71 -0.00212683 -2.98 0
M  V30 57029 H 5283.25 -0.0128177 -1.47094 0
M  V30 57030 H 5285.21 2.44538 -3.3802 0
M  V30 57031 H 5283.84 2.31852 -2.24599 0
M  V30 57032 H 5282.89 0.445135 -3.77787 0
M  V30 57033 H 5284.2 0.801013 -4.92326 0
M  V30 57034 H 5283.36 3.14154 -5.1903 0
M  V30 57035 H 5282.1 2.84674 -3.95995 0
M  V30 57036 H 5281.1 1.04529 -5.39772 0
M  V30 57037 H 5282.33 1.36438 -6.65253 0
M  V30 57038 H 5280.27 3.36308 -5.63234 0
M  V30 57039 H 5280.19 2.50181 -7.13404 0
M  V30 57040 H 5281.46 3.66362 -6.8804 0
M  V30 57041 N 5285.69 1.57587 -0.020125 0
M  V30 57042 C 5286.62 2.06559 0.993286 0
M  V30 57043 C 5287.63 0.987272 1.29448 0
M  V30 57044 O 5288.82 1.26366 1.26071 0
M  V30 57045 C 5285.92 2.46758 2.32301 0
M  V30 57046 C 5285.09 3.77562 2.2083 0
M  V30 57047 C 5284.15 4.04409 3.3666 0
M  V30 57048 O 5283.18 4.74791 3.13946 0
M  V30 57049 N 5284.38 3.53878 4.60164 0
M  V30 57050 H 5287.14 2.94122 0.575513 0
M  V30 57051 H 5284.71 1.61038 0.166833 0
M  V30 57052 H 5286.7 2.61817 3.086 0
M  V30 57053 H 5285.27 1.64607 2.6575 0
M  V30 57054 H 5284.49 3.72386 1.29314 0
M  V30 57055 H 5285.78 4.63278 2.10359 0
M  V30 57056 H 5285.17 2.96921 4.81513 0
M  V30 57057 H 5283.73 3.74231 5.33661 0
M  V30 57058 N 5287.16 -0.252911 1.55557 0
M  V30 57059 C 5288.1 -1.33578 1.86251 0
M  V30 57060 C 5289.11 -1.44581 0.748341 0
M  V30 57061 O 5290.3 -1.46038 1.0264 0
M  V30 57062 C 5287.4 -2.71501 2.0283 0
M  V30 57063 C 5286.57 -2.82841 3.33646 0
M  V30 57064 C 5285.63 -4.0157 3.40042 0
M  V30 57065 O 5284.66 -3.9138 4.13292 0
M  V30 57066 N 5285.86 -5.14465 2.68898 0
M  V30 57067 H 5288.62 -1.07586 2.79724 0
M  V30 57068 H 5286.18 -0.44302 1.55721 0
M  V30 57069 H 5288.18 -3.49255 2.04458 0
M  V30 57070 H 5286.75 -2.90228 1.1613 0
M  V30 57071 H 5285.97 -1.91811 3.44387 0
M  V30 57072 H 5287.25 -2.87363 4.19881 0
M  V30 57073 H 5286.65 -5.25634 2.09106 0
M  V30 57074 H 5285.21 -5.90375 2.76225 0
M  V30 57075 N 5288.64 -1.48833 -0.518315 0
M  V30 57076 C 5290.05 -1.50846 -1.10011 0
M  V30 57077 C 5290.4 -0.284812 -1.94122 0
M  V30 57078 O 5289.53 0.607014 -2.07712 0
M  V30 57079 C 5290.12 -2.73336 -2.00181 0
M  V30 57080 C 5288.68 -2.78183 -2.53557 0
M  V30 57081 C 5287.83 -2.44525 -1.30778 0
M  V30 57082 H 5290.78 -1.5578 -0.303018 0
M  V30 57083 H 5290.8 -2.52516 -2.84633 0
M  V30 57084 H 5290.31 -3.62378 -1.38937 0
M  V30 57085 H 5288.41 -1.93379 -3.18489 0
M  V30 57086 H 5288.53 -3.79915 -2.91893 0
M  V30 57087 H 5286.89 -1.9593 -1.62738 0
M  V30 57088 H 5287.67 -3.35821 -0.712679 0
M  V30 57089 N 5290.12 0.768075 -1.37617 0
M  V30 57090 C 5291.37 1.52902 -1.33225 0
M  V30 57091 C 5291.7 1.94027 0.0820535 0
M  V30 57092 O 5290.97 1.64349 1.04018 0
M  V30 57093 C 5291.26 2.79156 -2.27473 0
M  V30 57094 C 5291.11 2.44262 -3.77698 0
M  V30 57095 C 5292.43 3.81108 -2.20102 0
M  V30 57096 H 5289.55 0.554695 -0.485265 0
M  V30 57097 H 5292.19 0.880852 -1.68348 0
M  V30 57098 H 5290.34 3.34465 -1.9765 0
M  V30 57099 H 5292.01 1.9484 -4.18133 0
M  V30 57100 H 5290.25 1.76911 -3.96087 0
M  V30 57101 H 5290.93 3.34529 -4.39084 0
M  V30 57102 H 5293.4 3.35302 -2.46397 0
M  V30 57103 H 5292.28 4.67164 -2.88182 0
M  V30 57104 H 5292.54 4.2564 -1.19513 0
M  V30 57105 N 5291.6 1.22247 0.994655 0
M  V30 57106 C 5292.84 1.04752 1.73652 0
M  V30 57107 C 5293.18 -0.416613 1.89679 0
M  V30 57108 O 5292.45 -1.30891 1.43867 0
M  V30 57109 C 5292.73 1.75727 3.14312 0
M  V30 57110 C 5292.59 3.29725 3.05944 0
M  V30 57111 C 5293.91 1.50823 4.13449 0
M  V30 57112 H 5291.03 0.381943 0.630308 0
M  V30 57113 H 5293.67 1.50563 1.15892 0
M  V30 57114 H 5291.82 1.36783 3.63624 0
M  V30 57115 H 5293.49 3.78102 2.64266 0
M  V30 57116 H 5291.73 3.59493 2.42791 0
M  V30 57117 H 5292.4 3.74562 4.05472 0
M  V30 57118 H 5294.88 1.84649 3.72886 0
M  V30 57119 H 5293.76 2.02982 5.0999 0
M  V30 57120 H 5294.02 0.440447 4.39901 0
M  V30 57121 N 5293.08 -1.19122 1.03188 0
M  V30 57122 C 5294.33 -1.88207 0.72533 0
M  V30 57123 C 5294.64 -1.80677 -0.749347 0
M  V30 57124 O 5295.84 -2.45041 -1.16907 0
M  V30 57125 C 5294.3 -3.37603 1.24709 0
M  V30 57126 C 5293.91 -3.53683 2.74976 0
M  V30 57127 C 5295.65 -4.12146 1.01667 0
M  V30 57128 C 5293.56 -4.96989 3.20555 0
M  V30 57129 H 5292.49 -0.704907 0.267623 0
M  V30 57130 H 5295.14 -1.34658 1.24657 0
M  V30 57131 H 5293.52 -3.90566 0.653751 0
M  V30 57132 H 5294.7 -3.11034 3.39991 0
M  V30 57133 H 5293.01 -2.92534 2.96332 0
M  V30 57134 H 5295.61 -5.17832 1.33244 0
M  V30 57135 H 5295.95 -4.16274 -0.0464249 0
M  V30 57136 H 5296.48 -3.65329 1.57416 0
M  V30 57137 H 5293.22 -4.98025 4.26206 0
M  V30 57138 H 5292.74 -5.40388 2.6027 0
M  V30 57139 H 5294.42 -5.65658 3.14069 0
M  V30 57140 N 5294.55 -0.810149 -1.35183 0
M  V30 57141 C 5295.97 -0.452679 -1.81129 0
M  V30 57142 C 5296.32 1.02567 -1.67255 0
M  V30 57143 O 5295.44 1.79731 -1.20522 0
M  V30 57144 C 5296.04 -0.814891 -3.28854 0
M  V30 57145 C 5294.6 -0.509971 -3.72929 0
M  V30 57146 C 5293.74 -1.03861 -2.57115 0
M  V30 57147 H 5296.69 -1.00147 -1.2311 0
M  V30 57148 H 5296.71 -0.113769 -3.8033 0
M  V30 57149 H 5296.23 -1.8909 -3.3892 0
M  V30 57150 H 5294.33 0.557159 -3.68411 0
M  V30 57151 H 5294.44 -1.04509 -4.67562 0
M  V30 57152 H 5292.8 -0.460759 -2.50498 0
M  V30 57153 H 5293.59 -2.12081 -2.69957 0
M  V30 57154 N 5296.03 1.47164 -0.563966 0
M  V30 57155 C 5297.28 2.02056 -0.0423584 0
M  V30 57156 C 5297.6 1.43996 1.31492 0
M  V30 57157 O 5296.87 0.617643 1.85909 0
M  V30 57158 H 5295.45 0.746893 -0.012669 0
M  V30 57159 H 5298.11 1.80489 -0.735505 0
M  V30 57160 H 5297.21 3.12073 0.0406947 0
M  V30 57161 N 5297.51 0.300763 1.54704 0
M  V30 57162 C 5298.74 -0.310747 2.0425 0
M  V30 57163 C 5299.15 -1.48086 1.17759 0
M  V30 57164 O 5298.49 -1.82653 0.195843 0
M  V30 57165 C 5298.55 -0.830017 3.49787 0
M  V30 57166 C 5298.22 0.214788 4.56495 0
M  V30 57167 C 5299.21 1.04316 5.09327 0
M  V30 57168 C 5296.9 0.356418 5.01034 0
M  V30 57169 C 5298.89 1.9991 6.05239 0
M  V30 57170 C 5296.58 1.31581 5.96766 0
M  V30 57171 C 5297.58 2.13563 6.48753 0
M  V30 57172 O 5297.27 3.07875 7.42609 0
M  V30 57173 H 5297 -0.0715105 0.672207 0
M  V30 57174 H 5299.55 0.43825 2.0067 0
M  V30 57175 H 5297.78 -1.62953 3.50689 0
M  V30 57176 H 5299.47 -1.35739 3.82531 0
M  V30 57177 H 5300.24 0.944606 4.75712 0
M  V30 57178 H 5296.12 -0.271754 4.60198 0
M  V30 57179 H 5299.66 2.63939 6.45741 0
M  V30 57180 H 5295.56 1.41508 6.29798 0
M  V30 57181 H 5296.33 3.02851 7.6041 0
M  V30 57182 N 5298.99 -1.57574 0.028482 0
M  V30 57183 C 5299.9 -2.1364 -0.969285 0
M  V30 57184 C 5300.91 -1.0885 -1.35748 0
M  V30 57185 O 5302.09 -1.40904 -1.43903 0
M  V30 57186 C 5299.16 -2.65187 -2.23331 0
M  V30 57187 C 5298.22 -3.84689 -1.90559 0
M  V30 57188 C 5297.45 -4.33769 -3.10935 0
M  V30 57189 O 5297.67 -3.82024 -4.23572 0
M  V30 57190 O 5296.61 -5.2562 -2.9327 0
M  V30 57191 H 5300.43 -2.9917 -0.522565 0
M  V30 57192 H 5298.02 -1.4816 -0.192083 0
M  V30 57193 H 5299.9 -2.98413 -2.97536 0
M  V30 57194 H 5298.57 -1.8274 -2.67185 0
M  V30 57195 H 5297.48 -3.5639 -1.1374 0
M  V30 57196 H 5298.81 -4.68297 -1.51521 0
M  V30 57197 N 5300.47 0.244658 -1.55689 0
M  V30 57198 C 5301.71 0.970462 -1.77275 0
M  V30 57199 C 5302.04 1.85769 -0.592869 0
M  V30 57200 O 5301.31 1.91953 0.391255 0
M  V30 57201 H 5299.89 0.361319 -0.653802 0
M  V30 57202 H 5302.55 0.262066 -1.9313 0
M  V30 57203 H 5301.64 1.59087 -2.6851 0
M  V30 57204 N 5301.94 1.49106 0.510415 0
M  V30 57205 C 5302.89 1.6508 1.61299 0
M  V30 57206 C 5303.86 0.492418 1.58633 0
M  V30 57207 O 5305.05 0.718303 1.76763 0
M  V30 57208 C 5302.19 1.71468 2.99487 0
M  V30 57209 C 5301.3 2.98547 3.1224 0
M  V30 57210 C 5300.43 2.95972 4.41105 0
M  V30 57211 C 5299.47 4.17671 4.47457 0
M  V30 57212 N 5298.61 4.13061 5.67737 0
M  V30 57213 H 5303.45 2.59228 1.46986 0
M  V30 57214 H 5300.99 1.28537 0.715301 0
M  V30 57215 H 5302.95 1.73153 3.79571 0
M  V30 57216 H 5301.58 0.807944 3.12525 0
M  V30 57217 H 5300.63 3.06517 2.25281 0
M  V30 57218 H 5301.94 3.88538 3.12793 0
M  V30 57219 H 5301.09 2.96168 5.29499 0
M  V30 57220 H 5299.83 2.03743 4.43103 0
M  V30 57221 H 5298.84 4.1773 3.57466 0
M  V30 57222 H 5300.06 5.11082 4.47182 0
M  V30 57223 H 5298.01 3.23663 5.70594 0
M  V30 57224 H 5297.93 4.96777 5.69867 0
M  V30 57225 H 5299.19 4.17345 6.58364 0
M  V30 57226 N 5303.42 -0.760766 1.38022 0
M  V30 57227 C 5304.65 -1.54996 1.37054 0
M  V30 57228 C 5305.07 -1.88754 -0.0414598 0
M  V30 57229 O 5304.42 -1.52257 -1.00618 0
M  V30 57230 C 5304.47 -2.85352 2.21938 0
M  V30 57231 O 5304.19 -2.53037 3.57637 0
M  V30 57232 C 5305.7 -3.79528 2.29071 0
M  V30 57233 H 5302.92 -0.479828 0.469048 0
M  V30 57234 H 5305.46 -0.942084 1.81508 0
M  V30 57235 H 5303.61 -3.42535 1.80965 0
M  V30 57236 H 5304.03 -3.3659 4.02253 0
M  V30 57237 H 5305.5 -4.67967 2.92765 0
M  V30 57238 H 5305.98 -4.19449 1.30228 0
M  V30 57239 H 5306.59 -3.28271 2.70404 0
M  V30 57240 N 5304.9 -1.22773 -0.988158 0
M  V30 57241 C 5306.31 -1.05125 -1.54291 0
M  V30 57242 C 5306.66 0.383836 -1.92409 0
M  V30 57243 O 5305.79 1.26949 -1.75251 0
M  V30 57244 C 5306.38 -1.90207 -2.80369 0
M  V30 57245 C 5304.94 -1.76843 -3.3227 0
M  V30 57246 C 5304.09 -1.86384 -2.0532 0
M  V30 57247 H 5307.04 -1.36549 -0.80871 0
M  V30 57248 H 5307.06 -1.42228 -3.52918 0
M  V30 57249 H 5306.57 -2.94649 -2.52594 0
M  V30 57250 H 5304.67 -0.75154 -3.64942 0
M  V30 57251 H 5304.79 -2.59785 -4.02553 0
M  V30 57252 H 5303.15 -1.29877 -2.19098 0
M  V30 57253 H 5303.93 -2.92366 -1.79936 0
M  V30 57254 N 5306.38 1.18573 -1.03818 0
M  V30 57255 C 5307.31 2.24332 -0.647874 0
M  V30 57256 C 5308.29 1.66509 0.347681 0
M  V30 57257 O 5309.47 1.92853 0.228333 0
M  V30 57258 C 5306.6 3.47299 -0.00747131 0
M  V30 57259 C 5305.56 4.17856 -0.926299 0
M  V30 57260 C 5304.89 5.34488 -0.150505 0
M  V30 57261 C 5306.18 4.71624 -2.24428 0
M  V30 57262 H 5307.88 2.57235 -1.532 0
M  V30 57263 H 5305.43 1.23647 -0.738071 0
M  V30 57264 H 5307.38 4.20487 0.277286 0
M  V30 57265 H 5306.1 3.13622 0.911516 0
M  V30 57266 H 5304.76 3.46563 -1.1954 0
M  V30 57267 H 5304.41 4.97059 0.77081 0
M  V30 57268 H 5304.11 5.8263 -0.762612 0
M  V30 57269 H 5305.63 6.10467 0.127293 0
M  V30 57270 H 5307.05 5.36519 -2.0204 0
M  V30 57271 H 5305.44 5.3029 -2.80913 0
M  V30 57272 H 5306.51 3.89182 -2.8925 0
M  V30 57273 N 5307.86 0.817307 1.34751 0
M  V30 57274 C 5309.1 0.402717 1.98455 0
M  V30 57275 C 5309.43 -1.03282 1.64813 0
M  V30 57276 O 5308.69 -1.73313 0.908912 0
M  V30 57277 C 5308.99 0.545424 3.53214 0
M  V30 57278 C 5308.65 1.94585 4.06752 0
M  V30 57279 C 5307.31 2.32896 4.21086 0
M  V30 57280 C 5309.67 2.86156 4.35619 0
M  V30 57281 C 5306.99 3.62124 4.61609 0
M  V30 57282 C 5309.35 4.14843 4.77586 0
M  V30 57283 C 5308.01 4.53138 4.90124 0
M  V30 57284 H 5307.28 0.147365 0.726199 0
M  V30 57285 H 5309.93 1.04017 1.60788 0
M  V30 57286 H 5308.23 -0.175438 3.91407 0
M  V30 57287 H 5309.93 0.205253 4.00474 0
M  V30 57288 H 5306.52 1.63823 3.96055 0
M  V30 57289 H 5310.7 2.57803 4.24089 0
M  V30 57290 H 5305.96 3.91629 4.69507 0
M  V30 57291 H 5310.13 4.85891 4.98882 0
M  V30 57292 H 5307.76 5.53325 5.21282 0
M  V30 57293 N 5309.34 -1.46863 0.571763 0
M  V30 57294 C 5310.28 -2.31898 -0.180632 0
M  V30 57295 C 5311.28 -1.43818 -0.89514 0
M  V30 57296 O 5312.48 -1.60504 -0.814772 0
M  V30 57297 H 5308.86 -0.748035 -0.0771217 0
M  V30 57298 H 5310.83 -2.93183 0.555535 0
M  V30 57299 C 5309.58 -3.2677 -1.18813 0
M  V30 57300 H 5308.9 -3.94518 -0.647751 0
M  V30 57301 H 5310.34 -3.89073 -1.68519 0
M  V30 57302 C 5308.8 -2.51333 -2.24351 0
M  V30 57303 O 5309.33 -2.26837 -3.31524 0
M  V30 57304 N 5307.54 -2.12086 -1.98665 0
M  V30 57305 H 5307.08 -2.32208 -1.11522 0
M  V30 57306 H 5307.04 -1.6193 -2.69492 0
M  V30 57307 N 5310.81 -0.308963 -1.54542 0
M  V30 57308 C 5312.06 0.298783 -1.99475 0
M  V30 57309 C 5312.38 1.54388 -1.20098 0
M  V30 57310 O 5313.58 2.22672 -1.55337 0
M  V30 57311 C 5312.04 0.582905 -3.55148 0
M  V30 57312 C 5311.65 -0.644313 -4.43343 0
M  V30 57313 C 5313.39 1.15141 -4.08586 0
M  V30 57314 C 5311.3 -0.332902 -5.90462 0
M  V30 57315 H 5310.23 0.115419 -0.745114 0
M  V30 57316 H 5312.88 -0.418911 -1.78654 0
M  V30 57317 H 5311.26 1.3604 -3.71899 0
M  V30 57318 H 5312.43 -1.42027 -4.38366 0
M  V30 57319 H 5310.75 -1.132 -4.00718 0
M  V30 57320 H 5313.35 1.39878 -5.1608 0
M  V30 57321 H 5313.69 2.0962 -3.59674 0
M  V30 57322 H 5314.22 0.435432 -3.9541 0
M  V30 57323 H 5310.96 -1.24647 -6.4354 0
M  V30 57324 H 5310.48 0.405633 -5.98427 0
M  V30 57325 H 5312.16 0.0626271 -6.4697 0
M  V30 57326 N 5312.29 1.57557 -0.0368381 0
M  V30 57327 C 5313.54 1.92117 0.640117 0
M  V30 57328 C 5313.87 0.913948 1.71689 0
M  V30 57329 O 5313.12 -0.0759656 1.95553 0
M  V30 57330 C 5313.42 3.33391 1.28783 0
M  V30 57331 C 5313.09 4.49611 0.340661 0
M  V30 57332 C 5311.75 4.81134 0.0799883 0
M  V30 57333 C 5314.1 5.20282 -0.309289 0
M  V30 57334 C 5311.43 5.8068 -0.838311 0
M  V30 57335 C 5313.78 6.20809 -1.21569 0
M  V30 57336 C 5312.44 6.50768 -1.48518 0
M  V30 57337 H 5311.71 0.703004 0.234235 0
M  V30 57338 H 5314.36 1.91237 -0.100255 0
M  V30 57339 H 5312.67 3.30569 2.10313 0
M  V30 57340 H 5314.36 3.57406 1.8183 0
M  V30 57341 H 5310.95 4.25004 0.554012 0
M  V30 57342 H 5315.14 4.96153 -0.120969 0
M  V30 57343 H 5310.39 6.02234 -1.05472 0
M  V30 57344 H 5314.57 6.74686 -1.72546 0
M  V30 57345 H 5312.19 7.27719 -2.19839 0
M  V30 57346 N 5313.77 -0.236398 1.55817 0
M  V30 57347 C 5315.05 -0.986404 1.68907 0
M  V30 57348 C 5315.43 -2.02982 0.579793 0
M  V30 57349 O 5314.77 -2.24694 -0.41531 0
M  V30 57350 C 5314.98 -1.61027 3.09631 0
M  V30 57351 C 5316.33 -2.10816 3.68567 0
M  V30 57352 O 5317.36 -1.70949 3.12498 0
M  V30 57353 O 5316.22 -2.84047 4.66883 0
M  V30 57354 H 5313.31 -0.459813 0.687387 0
M  V30 57355 H 5315.86 -0.229353 1.68143 0
M  V30 57356 H 5314.63 -0.856098 3.8182 0
M  V30 57357 H 5314.25 -2.43325 3.1445 0
M  V30 57358 N 5315.25 -1.49374 -0.5025 0
M  V30 57359 C 5316.19 -1.65933 -1.60421 0
M  V30 57360 C 5317.16 -0.500823 -1.5837 0
M  V30 57361 O 5318.35 -0.727668 -1.76379 0
M  V30 57362 C 5315.49 -1.73054 -2.98574 0
M  V30 57363 C 5314.6 -3.00198 -3.10653 0
M  V30 57364 C 5313.74 -2.98308 -4.39529 0
M  V30 57365 C 5312.78 -4.20038 -4.45235 0
M  V30 57366 N 5311.91 -4.16066 -5.65538 0
M  V30 57367 H 5316.75 -2.60004 -1.4561 0
M  V30 57368 H 5314.29 -1.28915 -0.708474 0
M  V30 57369 H 5316.25 -1.75164 -3.78647 0
M  V30 57370 H 5314.88 -0.824507 -3.12093 0
M  V30 57371 H 5313.93 -3.07707 -2.23653 0
M  V30 57372 H 5315.24 -3.90191 -3.10728 0
M  V30 57373 H 5314.4 -2.98972 -5.27921 0
M  V30 57374 H 5313.14 -2.0609 -4.42016 0
M  V30 57375 H 5312.14 -4.1962 -3.55246 0
M  V30 57376 H 5313.37 -5.13446 -4.44466 0
M  V30 57377 H 5311.31 -3.26685 -5.6887 0
M  V30 57378 H 5311.23 -4.99793 -5.67224 0
M  V30 57379 H 5312.5 -4.20831 -6.56142 0
M  V30 57380 N 5316.73 0.753436 -1.38424 0
M  V30 57381 C 5317.97 1.5148 -1.34839 0
M  V30 57382 C 5318.3 1.94103 0.0614698 0
M  V30 57383 O 5317.58 1.65443 1.02269 0
M  V30 57384 C 5317.86 2.76728 -2.30421 0
M  V30 57385 C 5317.72 2.40243 -3.80268 0
M  V30 57386 C 5319.03 3.78752 -2.24132 0
M  V30 57387 H 5316.15 0.549517 -0.491121 0
M  V30 57388 H 5318.8 0.862947 -1.69273 0
M  V30 57389 H 5316.95 3.32349 -2.01187 0
M  V30 57390 H 5318.62 1.90395 -4.20176 0
M  V30 57391 H 5316.86 1.727 -3.97941 0
M  V30 57392 H 5317.53 3.29853 -4.42607 0
M  V30 57393 H 5320.01 3.3267 -2.4994 0
M  V30 57394 H 5318.88 4.64081 -2.93121 0
M  V30 57395 H 5319.14 4.24348 -1.2402 0
M  V30 57396 N 5318.2 1.23295 0.981634 0
M  V30 57397 C 5319.62 0.995339 1.2476 0
M  V30 57398 C 5319.82 -0.304309 1.99189 0
M  V30 57399 O 5318.88 -1.02406 2.30801 0
M  V30 57400 C 5320.19 2.20142 2.04836 0
M  V30 57401 C 5321.74 2.24619 2.1798 0
M  V30 57402 C 5322.21 3.4481 3.01446 0
M  V30 57403 N 5323.7 3.45042 3.09031 0
M  V30 57404 C 5324.44 4.34696 3.73935 0
M  V30 57405 N 5323.93 5.34585 4.40671 0
M  V30 57406 N 5325.73 4.22442 3.70808 0
M  V30 57407 H 5317.88 2.06836 0.482979 0
M  V30 57408 H 5320.14 0.906939 0.275982 0
M  V30 57409 H 5319.85 3.14452 1.57521 0
M  V30 57410 H 5319.72 2.21126 3.05586 0
M  V30 57411 H 5322.11 1.3085 2.64504 0
M  V30 57412 H 5322.19 2.27668 1.16623 0
M  V30 57413 H 5321.83 4.38886 2.55619 0
M  V30 57414 H 5321.76 3.39003 4.0297 0
M  V30 57415 H 5324.25 2.72768 2.61546 0
M  V30 57416 H 5324.57 5.99253 4.8797 0
M  V30 57417 H 5322.91 5.38486 4.39384 0
M  V30 57418 H 5326.1 3.43651 3.17839 0
M  V30 57419 H 5326.28 4.92516 4.21108 0
M  V30 57420 N 5319.68 -1.1802 1.04446 0
M  V30 57421 C 5320.63 -2.21783 0.638837 0
M  V30 57422 C 5321.6 -1.62256 -0.355255 0
M  V30 57423 O 5322.78 -1.89176 -0.248374 0
M  V30 57424 C 5319.92 -3.45098 0.0119215 0
M  V30 57425 C 5319.04 -4.18946 1.05394 0
M  V30 57426 C 5318.17 -5.29728 0.395137 0
M  V30 57427 C 5317.21 -5.95354 1.42198 0
M  V30 57428 N 5316.35 -6.97665 0.78788 0
M  V30 57429 H 5321.19 -2.55834 1.52817 0
M  V30 57430 H 5318.72 -1.25678 0.764422 0
M  V30 57431 H 5320.68 -4.15566 -0.368929 0
M  V30 57432 H 5319.31 -3.11655 -0.840911 0
M  V30 57433 H 5318.36 -3.47268 1.5527 0
M  V30 57434 H 5319.68 -4.63871 1.83372 0
M  V30 57435 H 5318.83 -6.06687 -0.0397111 0
M  V30 57436 H 5317.57 -4.85917 -0.416697 0
M  V30 57437 H 5316.57 -5.17132 1.86693 0
M  V30 57438 H 5317.8 -6.41247 2.23559 0
M  V30 57439 H 5315.75 -6.56 -0.00357831 0
M  V30 57440 H 5315.66 -7.40862 1.50531 0
M  V30 57441 H 5316.93 -7.78585 0.377555 0
M  V30 57442 N 5321.16 -0.824441 -1.34316 0
M  V30 57443 C 5322.07 -0.249402 -2.33271 0
M  V30 57444 C 5323.09 0.617009 -1.62693 0
M  V30 57445 O 5324.26 0.524548 -1.94449 0
M  V30 57446 C 5321.33 0.577974 -3.41848 0
M  V30 57447 C 5320.39 -0.311016 -4.28172 0
M  V30 57448 C 5319.62 0.476966 -5.31564 0
M  V30 57449 O 5319.84 1.71009 -5.44162 0
M  V30 57450 O 5318.78 -0.141499 -6.01734 0
M  V30 57451 H 5322.6 -1.06847 -2.84284 0
M  V30 57452 H 5320.19 -0.586619 -1.37401 0
M  V30 57453 H 5322.07 1.04864 -4.08144 0
M  V30 57454 H 5320.75 1.37434 -2.93076 0
M  V30 57455 H 5319.65 -0.829209 -3.64794 0
M  V30 57456 H 5320.99 -1.07178 -4.80389 0
M  V30 57457 N 5322.64 1.46557 -0.579543 0
M  V30 57458 C 5323.88 2.03271 -0.0723284 0
M  V30 57459 C 5324.24 1.44338 1.27217 0
M  V30 57460 O 5323.53 0.597912 1.82032 0
M  V30 57461 C 5323.73 3.57357 0.0551547 0
M  V30 57462 C 5323.56 4.31234 -1.27544 0
M  V30 57463 C 5322.33 4.70266 -1.84874 0
M  V30 57464 C 5324.52 4.6497 -2.1979 0
M  V30 57465 N 5322.51 5.28879 -3.11706 0
M  V30 57466 C 5323.88 5.2412 -3.31207 0
M  V30 57467 C 5325.93 4.46901 -2.19509 0
M  V30 57468 C 5324.63 5.67107 -4.42472 0
M  V30 57469 C 5326.66 4.90902 -3.29802 0
M  V30 57470 C 5326.02 5.5012 -4.3994 0
M  V30 57471 H 5322.12 0.778935 -0.069169 0
M  V30 57472 H 5324.71 1.78752 -0.771746 0
M  V30 57473 H 5322.88 3.81597 0.723734 0
M  V30 57474 H 5324.61 4.00716 0.566465 0
M  V30 57475 H 5321.36 4.52925 -1.38404 0
M  V30 57476 H 5321.79 5.6271 -3.76413 0
M  V30 57477 H 5326.43 4.00455 -1.35632 0
M  V30 57478 H 5324.15 6.12533 -5.27094 0
M  V30 57479 H 5327.73 4.78675 -3.30699 0
M  V30 57480 H 5326.61 5.83545 -5.23874 0
M  V30 57481 N 5324.12 0.317154 1.54376 0
M  V30 57482 C 5325.39 -0.341281 1.926 0
M  V30 57483 C 5325.77 -1.70398 1.24611 0
M  V30 57484 O 5325.12 -2.2519 0.387527 0
M  V30 57485 C 5325.33 -0.439881 3.46217 0
M  V30 57486 C 5326.68 -0.70318 4.18737 0
M  V30 57487 O 5327.7 -0.523057 3.52339 0
M  V30 57488 O 5326.56 -1.05023 5.36314 0
M  V30 57489 H 5323.66 -0.193668 0.804004 0
M  V30 57490 H 5326.2 0.366399 1.65697 0
M  V30 57491 H 5324.97 0.517436 3.87864 0
M  V30 57492 H 5324.6 -1.19539 3.79205 0
M  V30 57493 N 5325.59 -1.57535 0.0451932 0
M  V30 57494 C 5326.82 -1.97175 -0.643191 0
M  V30 57495 C 5327.24 -0.922324 -1.63935 0
M  V30 57496 O 5326.6 0.115091 -1.80934 0
M  V30 57497 C 5326.65 -3.35894 -1.31178 0
M  V30 57498 O 5325.75 -3.33396 -2.42737 0
M  V30 57499 H 5325.1 -0.642475 -0.167697 0
M  V30 57500 H 5327.63 -2.04294 0.111819 0
M  V30 57501 H 5327.64 -3.72487 -1.66486 0
M  V30 57502 H 5326.31 -4.11812 -0.581678 0
M  V30 57503 H 5324.89 -3.0854 -2.09421 0
M  V30 57504 N 5327.07 0.228132 -1.5594 0
M  V30 57505 C 5328.32 0.953489 -1.78647 0
M  V30 57506 C 5328.65 1.84594 -0.612815 0
M  V30 57507 O 5327.9 1.91503 0.403108 0
M  V30 57508 C 5328.2 1.82913 -3.07047 0
M  V30 57509 C 5327.87 1.09047 -4.37515 0
M  V30 57510 C 5326.53 0.886399 -4.72966 0
M  V30 57511 C 5328.88 0.568351 -5.18092 0
M  V30 57512 C 5326.21 0.148207 -5.86513 0
M  V30 57513 C 5328.56 -0.156465 -6.32406 0
M  V30 57514 C 5327.23 -0.371846 -6.66463 0
M  V30 57515 H 5326.5 0.348906 -0.653717 0
M  V30 57516 H 5329.14 0.222144 -1.90207 0
M  V30 57517 H 5327.45 2.62813 -2.9058 0
M  V30 57518 H 5329.14 2.39239 -3.21817 0
M  V30 57519 H 5325.73 1.25949 -4.09677 0
M  V30 57520 H 5329.92 0.713501 -4.91144 0
M  V30 57521 H 5325.17 -0.0289568 -6.11393 0
M  V30 57522 H 5329.35 -0.568577 -6.94075 0
M  V30 57523 H 5326.98 -0.945787 -7.54294 0
M  V30 57524 N 5328.55 1.49639 0.494571 0
M  V30 57525 C 5329.5 1.67276 1.61621 0
M  V30 57526 C 5330.49 0.538643 1.60608 0
M  V30 57527 O 5331.7 0.718469 1.65039 0
M  V30 57528 H 5328.07 0.527576 0.535881 0
M  V30 57529 H 5330.04 2.6141 1.439 0
M  V30 57530 C 5328.79 1.7625 2.99718 0
M  V30 57531 H 5328.12 2.62896 3.01207 0
M  V30 57532 H 5329.56 1.92624 3.77719 0
M  V30 57533 C 5328.02 0.508749 3.33037 0
M  V30 57534 O 5328.55 -0.362687 4.00059 0
M  V30 57535 N 5326.75 0.369768 2.88238 0
M  V30 57536 H 5326.3 1.07992 2.33871 0
M  V30 57537 H 5326.26 -0.468003 3.10897 0
M  V30 57538 N 5330.03 -0.746085 1.38821 0
M  V30 57539 C 5330.94 -1.89058 1.38903 0
M  V30 57540 C 5331.95 -1.71647 0.28519 0
M  V30 57541 O 5333.13 -1.94441 0.524851 0
M  V30 57542 C 5330.2 -3.24519 1.22018 0
M  V30 57543 C 5329.26 -3.54403 2.42275 0
M  V30 57544 C 5328.49 -4.834 2.26186 0
M  V30 57545 O 5328.71 -5.56321 1.2595 0
M  V30 57546 O 5327.65 -5.12931 3.14936 0
M  V30 57547 H 5331.47 -1.91943 2.35354 0
M  V30 57548 H 5329.06 -0.892391 1.1982 0
M  V30 57549 H 5330.94 -4.05492 1.14692 0
M  V30 57550 H 5329.61 -3.22429 0.286569 0
M  V30 57551 H 5328.52 -2.7356 2.55178 0
M  V30 57552 H 5329.85 -3.61261 3.34293 0
M  V30 57553 N 5331.51 -1.23814 -0.975081 0
M  V30 57554 C 5332.92 -1.06756 -1.53167 0
M  V30 57555 C 5333.27 0.363407 -1.92805 0
M  V30 57556 O 5332.39 1.25083 -1.76587 0
M  V30 57557 C 5332.99 -1.9317 -2.78335 0
M  V30 57558 C 5331.55 -1.80357 -3.30376 0
M  V30 57559 C 5330.69 -1.88552 -2.03331 0
M  V30 57560 H 5333.65 -1.37399 -0.794182 0
M  V30 57561 H 5333.67 -1.45963 -3.5139 0
M  V30 57562 H 5333.18 -2.97311 -2.49455 0
M  V30 57563 H 5331.28 -0.790205 -3.64124 0
M  V30 57564 H 5331.39 -2.6404 -3.99775 0
M  V30 57565 H 5329.76 -1.32194 -2.17708 0
M  V30 57566 H 5330.54 -2.94258 -1.76825 0
M  V30 57567 N 5332.98 1.17465 -1.0507 0
M  V30 57568 C 5334.23 1.87973 -0.761179 0
M  V30 57569 C 5334.56 1.80758 0.709932 0
M  V30 57570 O 5333.84 1.21475 1.51902 0
M  V30 57571 C 5334.12 3.38051 -1.24072 0
M  V30 57572 C 5333.97 3.54022 -2.77467 0
M  V30 57573 C 5335.29 4.32033 -0.838764 0
M  V30 57574 H 5332.41 0.682563 -0.277987 0
M  V30 57575 H 5335.05 1.38143 -1.30448 0
M  V30 57576 H 5333.2 3.8062 -0.778522 0
M  V30 57577 H 5334.88 3.20477 -3.31801 0
M  V30 57578 H 5333.12 2.96341 -3.16803 0
M  V30 57579 H 5333.79 4.59367 -3.06082 0
M  V30 57580 H 5336.27 3.97299 -1.23665 0
M  V30 57581 H 5335.14 5.35579 -1.20192 0
M  V30 57582 H 5335.4 4.4135 0.257343 0
M  V30 57583 N 5334.46 0.831553 1.33877 0
M  V30 57584 C 5335.43 0.264853 2.27665 0
M  V30 57585 C 5336.43 -0.56222 1.50651 0
M  V30 57586 O 5337.62 -0.377071 1.7007 0
M  V30 57587 C 5334.75 -0.627697 3.35071 0
M  V30 57588 H 5335.94 1.09235 2.79299 0
M  V30 57589 H 5333.49 0.604071 1.44155 0
M  V30 57590 H 5334.23 -1.47791 2.88666 0
M  V30 57591 H 5334.01 -0.0360173 3.92083 0
M  V30 57592 H 5335.5 -1.01772 4.05009 0
M  V30 57593 N 5335.94 -1.46248 0.587307 0
M  V30 57594 C 5337.19 -2.02662 0.0747563 0
M  V30 57595 C 5337.52 -1.45728 -1.28363 0
M  V30 57596 O 5336.8 -0.624127 -1.84214 0
M  V30 57597 C 5337.08 -3.60097 0.0139374 0
M  V30 57598 C 5336.93 -4.27407 1.40155 0
M  V30 57599 C 5338.25 -4.34747 -0.684338 0
M  V30 57600 H 5335.37 -0.736443 0.0286403 0
M  V30 57601 H 5338.01 -1.74338 0.755389 0
M  V30 57602 H 5336.16 -3.84359 -0.565695 0
M  V30 57603 H 5337.83 -4.14394 2.0267 0
M  V30 57604 H 5336.08 -3.86591 1.96799 0
M  V30 57605 H 5336.75 -5.36196 1.31142 0
M  V30 57606 H 5339.22 -4.15657 -0.191877 0
M  V30 57607 H 5338.1 -5.4447 -0.695936 0
M  V30 57608 H 5338.36 -4.06138 -1.74655 0
M  V30 57609 N 5337.42 -0.325336 -1.54205 0
M  V30 57610 C 5338.64 0.281346 -2.05483 0
M  V30 57611 C 5339.07 1.44865 -1.19982 0
M  V30 57612 O 5338.43 1.80087 -0.209338 0
M  V30 57613 C 5338.48 0.691905 -3.539 0
M  V30 57614 O 5337.58 1.79407 -3.71331 0
M  V30 57615 H 5336.92 0.0504639 -0.66208 0
M  V30 57616 H 5339.45 -0.474261 -1.99027 0
M  V30 57617 H 5339.46 0.974079 -3.96202 0
M  V30 57618 H 5338.14 -0.161856 -4.15585 0
M  V30 57619 H 5336.71 1.51057 -3.40934 0
M  V30 57620 N 5338.9 1.57509 -0.0535471 0
M  V30 57621 C 5340.14 1.92785 0.619704 0
M  V30 57622 C 5340.47 0.932106 1.7071 0
M  V30 57623 O 5339.73 -0.0552203 1.95622 0
M  V30 57624 C 5340.03 3.34739 1.25239 0
M  V30 57625 C 5339.69 4.49947 0.292955 0
M  V30 57626 C 5338.35 4.81191 0.0289531 0
M  V30 57627 C 5340.71 5.19924 -0.364454 0
M  V30 57628 C 5338.03 5.79758 -0.899853 0
M  V30 57629 C 5340.39 6.19485 -1.28147 0
M  V30 57630 C 5339.05 6.49156 -1.55412 0
M  V30 57631 H 5338.32 0.705449 0.226766 0
M  V30 57632 H 5340.97 1.9112 -0.120533 0
M  V30 57633 H 5339.27 3.32781 2.06795 0
M  V30 57634 H 5340.97 3.59314 1.78029 0
M  V30 57635 H 5337.56 4.25568 0.508903 0
M  V30 57636 H 5341.74 4.95996 -0.173586 0
M  V30 57637 H 5337 6.01081 -1.11854 0
M  V30 57638 H 5341.17 6.72818 -1.79692 0
M  V30 57639 H 5338.8 7.25346 -2.27545 0
M  V30 57640 N 5340.38 -0.219858 1.56059 0
M  V30 57641 C 5341.65 -0.968434 1.69943 0
M  V30 57642 C 5342.03 -2.02355 0.60129 0
M  V30 57643 O 5341.38 -2.25122 -0.391455 0
M  V30 57644 C 5341.59 -1.57734 3.11321 0
M  V30 57645 C 5342.94 -2.06895 3.70783 0
M  V30 57646 O 5343.96 -1.67625 3.14294 0
M  V30 57647 O 5342.82 -2.7908 4.69869 0
M  V30 57648 H 5339.92 -0.452497 0.692225 0
M  V30 57649 H 5342.46 -0.211507 1.68377 0
M  V30 57650 H 5341.23 -0.815553 3.82707 0
M  V30 57651 H 5340.86 -2.39976 3.17013 0
M  V30 57652 N 5341.85 -1.49899 -0.486629 0
M  V30 57653 C 5343.08 -1.63841 -1.26347 0
M  V30 57654 C 5343.5 -0.315493 -1.86145 0
M  V30 57655 O 5342.85 0.700772 -1.68509 0
M  V30 57656 C 5342.9 -2.71801 -2.38342 0
M  V30 57657 O 5342.63 -3.98963 -1.80999 0
M  V30 57658 C 5344.13 -2.96577 -3.29479 0
M  V30 57659 H 5341.35 -0.551171 -0.38269 0
M  V30 57660 H 5343.89 -1.96025 -0.582625 0
M  V30 57661 H 5342.05 -2.42355 -3.0223 0
M  V30 57662 H 5342.46 -4.58545 -2.54631 0
M  V30 57663 H 5343.93 -3.75817 -4.04309 0
M  V30 57664 H 5344.41 -2.07045 -3.87336 0
M  V30 57665 H 5345.02 -3.27495 -2.71343 0
M  V30 57666 N 5343.33 0.738712 -1.39215 0
M  V30 57667 C 5344.28 1.85269 -1.37638 0
M  V30 57668 C 5345.25 1.64406 -0.236629 0
M  V30 57669 O 5346.43 1.85864 -0.431169 0
M  V30 57670 C 5343.57 3.22741 -1.22199 0
M  V30 57671 C 5342.69 3.55334 -2.45687 0
M  V30 57672 C 5341.82 4.82188 -2.22864 0
M  V30 57673 C 5340.86 5.07613 -3.42047 0
M  V30 57674 N 5340 6.25668 -3.18565 0
M  V30 57675 H 5344.84 1.85951 -2.32865 0
M  V30 57676 H 5342.37 0.908675 -1.15678 0
M  V30 57677 H 5344.33 4.02091 -1.1126 0
M  V30 57678 H 5342.96 3.21346 -0.306033 0
M  V30 57679 H 5342.01 2.70713 -2.67243 0
M  V30 57680 H 5343.33 3.70042 -3.3447 0
M  V30 57681 H 5342.48 5.69511 -2.09146 0
M  V30 57682 H 5341.22 4.69645 -1.3147 0
M  V30 57683 H 5340.22 4.18752 -3.56267 0
M  V30 57684 H 5341.45 5.22042 -4.34337 0
M  V30 57685 H 5339.4 6.14421 -2.29832 0
M  V30 57686 H 5339.31 6.40947 -4.00903 0
M  V30 57687 H 5340.58 7.15841 -3.08533 0
M  V30 57688 N 5344.81 1.24329 0.968501 0
M  V30 57689 C 5345.77 1.03598 2.04451 0
M  V30 57690 C 5346.77 -0.00642437 1.60799 0
M  V30 57691 O 5347.96 0.234464 1.72615 0
M  V30 57692 C 5345.09 0.570038 3.361 0
M  V30 57693 H 5346.29 1.991 2.24275 0
M  V30 57694 H 5343.84 1.06541 1.14362 0
M  V30 57695 H 5344.58 -0.388211 3.21968 0
M  V30 57696 H 5344.36 1.3224 3.69127 0
M  V30 57697 H 5345.85 0.446 4.15212 0
M  V30 57698 N 5346.29 -1.16906 1.05692 0
M  V30 57699 C 5347.53 -1.87811 0.780937 0
M  V30 57700 C 5347.89 -1.79798 -0.684863 0
M  V30 57701 O 5347.18 -1.19859 -1.49481 0
M  V30 57702 C 5347.38 -3.36574 1.20219 0
M  V30 57703 C 5347.2 -3.59068 2.7074 0
M  V30 57704 C 5345.97 -3.75503 3.3812 0
M  V30 57705 C 5348.17 -3.58294 3.68958 0
M  V30 57706 N 5346.15 -3.8589 4.77454 0
M  V30 57707 C 5347.53 -3.74591 4.94046 0
M  V30 57708 C 5349.58 -3.41472 3.62355 0
M  V30 57709 C 5348.28 -3.75807 6.1332 0
M  V30 57710 C 5350.31 -3.43978 4.81075 0
M  V30 57711 C 5349.67 -3.60788 6.04989 0
M  V30 57712 H 5345.77 -0.705146 0.338072 0
M  V30 57713 H 5348.35 -1.4031 1.34986 0
M  V30 57714 H 5346.53 -3.82731 0.661166 0
M  V30 57715 H 5348.26 -3.95116 0.875516 0
M  V30 57716 H 5345.01 -3.7557 2.88521 0
M  V30 57717 H 5345.44 -3.94866 5.49918 0
M  V30 57718 H 5350.08 -3.27408 2.67514 0
M  V30 57719 H 5347.8 -3.88654 7.08501 0
M  V30 57720 H 5351.38 -3.32213 4.77625 0
M  V30 57721 H 5350.26 -3.62639 6.95315 0
M  V30 57722 N 5347.77 -0.838641 -1.33434 0
M  V30 57723 C 5349.04 -0.356179 -1.9233 0
M  V30 57724 C 5349.42 1.15844 -1.76475 0
M  V30 57725 O 5348.77 1.97277 -1.153 0
M  V30 57726 C 5348.98 -0.802835 -3.3964 0
M  V30 57727 C 5350.33 -0.810722 -4.16788 0
M  V30 57728 O 5351.35 -0.746426 -3.48291 0
M  V30 57729 O 5350.21 -0.898272 -5.39067 0
M  V30 57730 H 5347.31 -0.10074 -0.820841 0
M  V30 57731 H 5349.85 -0.924478 -1.42308 0
M  V30 57732 H 5348.62 -1.84542 -3.45051 0
M  V30 57733 H 5348.25 -0.211095 -3.97039 0
M  V30 57734 N 5349.24 1.45934 -0.595055 0
M  V30 57735 C 5350.47 2.06698 -0.0913657 0
M  V30 57736 C 5350.89 1.4418 1.21892 0
M  V30 57737 O 5350.24 0.551463 1.73969 0
M  V30 57738 C 5350.29 3.61436 0.068053 0
M  V30 57739 O 5350.02 4.21618 -1.19038 0
M  V30 57740 C 5351.52 4.39157 0.60466 0
M  V30 57741 H 5348.74 0.668027 -0.0630972 0
M  V30 57742 H 5351.28 1.87374 -0.819231 0
M  V30 57743 H 5349.44 3.80146 0.74619 0
M  V30 57744 H 5349.85 5.14643 -1.01205 0
M  V30 57745 H 5351.32 5.47976 0.665339 0
M  V30 57746 H 5351.8 4.0806 1.62429 0
M  V30 57747 H 5352.41 4.25282 -0.0390153 0
M  V30 57748 N 5350.72 0.33351 1.54031 0
M  V30 57749 C 5351.65 -0.562096 2.22201 0
M  V30 57750 C 5352.67 -1.07197 1.22526 0
M  V30 57751 O 5353.86 -0.983845 1.48939 0
M  V30 57752 C 5350.96 -1.78515 2.88072 0
M  V30 57753 C 5350.13 -1.41227 4.13973 0
M  V30 57754 C 5349.19 -2.49392 4.63347 0
M  V30 57755 O 5348.21 -2.13119 5.27796 0
M  V30 57756 N 5349.42 -3.80485 4.38419 0
M  V30 57757 H 5352.18 0.0216682 2.99692 0
M  V30 57758 H 5349.74 0.157168 1.61135 0
M  V30 57759 H 5351.73 -2.50287 3.18023 0
M  V30 57760 H 5350.3 -2.27652 2.14227 0
M  V30 57761 H 5349.52 -0.52575 3.90678 0
M  V30 57762 H 5350.81 -1.13898 4.95888 0
M  V30 57763 H 5350.21 -4.12748 3.86854 0
M  V30 57764 H 5348.77 -4.48458 4.73 0
M  V30 57765 N 5352.2 -1.57478 0.0618994 0
M  V30 57766 C 5353.45 -1.93397 -0.610375 0
M  V30 57767 C 5353.78 -0.941394 -1.69857 0
M  V30 57768 O 5353.05 0.0309578 -1.94475 0
M  V30 57769 C 5353.34 -3.3964 -1.19652 0
M  V30 57770 C 5353.19 -4.49651 -0.115647 0
M  V30 57771 C 5354.51 -3.86495 -2.10498 0
M  V30 57772 H 5351.63 -0.703269 -0.220412 0
M  V30 57773 H 5354.27 -1.89583 0.125852 0
M  V30 57774 H 5352.42 -3.43021 -1.82397 0
M  V30 57775 H 5354.09 -4.58395 0.516889 0
M  V30 57776 H 5352.34 -4.30235 0.554981 0
M  V30 57777 H 5353.01 -5.49091 -0.565983 0
M  V30 57778 H 5355.48 -3.85058 -1.57701 0
M  V30 57779 H 5354.36 -4.89453 -2.48449 0
M  V30 57780 H 5354.62 -3.23867 -3.00936 0
M  V30 57781 N 5353.68 0.211579 -1.56173 0
M  V30 57782 C 5354.91 0.951119 -1.83743 0
M  V30 57783 C 5355.32 1.77538 -0.642314 0
M  V30 57784 O 5354.68 1.78304 0.389111 0
M  V30 57785 C 5354.73 1.86064 -3.09939 0
M  V30 57786 O 5354.45 1.06968 -4.2484 0
M  V30 57787 C 5355.95 2.71324 -3.50568 0
M  V30 57788 H 5353.17 0.278291 -0.61057 0
M  V30 57789 H 5355.72 0.2238 -2.03272 0
M  V30 57790 H 5353.87 2.54178 -2.92356 0
M  V30 57791 H 5354.28 1.68798 -4.96596 0
M  V30 57792 H 5355.76 3.30827 -4.41879 0
M  V30 57793 H 5356.24 3.44217 -2.72785 0
M  V30 57794 H 5356.84 2.08607 -3.70625 0
M  V30 57795 N 5355.16 1.50155 0.478672 0
M  V30 57796 C 5356.38 1.64781 1.25945 0
M  V30 57797 C 5356.81 0.327859 1.85221 0
M  V30 57798 O 5356.16 -0.707359 1.66931 0
M  V30 57799 C 5356.21 2.73559 2.34942 0
M  V30 57800 O 5355.32 2.34284 3.39388 0
M  V30 57801 H 5354.66 0.550782 0.370858 0
M  V30 57802 H 5357.19 1.96484 0.570536 0
M  V30 57803 H 5357.2 2.96407 2.8037 0
M  V30 57804 H 5355.87 3.69361 1.91168 0
M  V30 57805 H 5354.45 2.21854 2.99725 0
M  V30 57806 N 5356.63 -0.731319 1.39605 0
M  V30 57807 C 5357.58 -1.84536 1.38619 0
M  V30 57808 C 5358.55 -1.64278 0.245345 0
M  V30 57809 O 5359.74 -1.85633 0.44102 0
M  V30 57810 C 5356.88 -3.22088 1.23909 0
M  V30 57811 C 5355.99 -3.54026 2.47568 0
M  V30 57812 C 5355.12 -4.80999 2.25418 0
M  V30 57813 C 5354.16 -5.05791 3.44734 0
M  V30 57814 N 5353.3 -6.2397 3.21879 0
M  V30 57815 H 5358.14 -1.84714 2.33848 0
M  V30 57816 H 5355.68 -0.902528 1.16159 0
M  V30 57817 H 5357.64 -4.01495 1.1339 0
M  V30 57818 H 5356.27 -3.21179 0.323071 0
M  V30 57819 H 5355.32 -2.69292 2.68675 0
M  V30 57820 H 5356.63 -3.68263 3.36428 0
M  V30 57821 H 5355.78 -5.68394 2.12163 0
M  V30 57822 H 5354.52 -4.68942 1.33959 0
M  V30 57823 H 5353.53 -4.16857 3.58483 0
M  V30 57824 H 5354.75 -5.19732 4.37099 0
M  V30 57825 H 5352.7 -6.13194 2.33087 0
M  V30 57826 H 5352.62 -6.38812 4.04296 0
M  V30 57827 H 5353.88 -7.14194 3.12325 0
M  V30 57828 N 5358.11 -1.24841 -0.961894 0
M  V30 57829 C 5359.39 -0.999449 -1.68138 0
M  V30 57830 C 5359.77 0.476515 -2.05652 0
M  V30 57831 O 5359.12 1.45218 -1.7642 0
M  V30 57832 C 5359.33 -1.92807 -2.90906 0
M  V30 57833 C 5360.68 -2.20232 -3.63019 0
M  V30 57834 O 5361.7 -1.90507 -3.00974 0
M  V30 57835 O 5360.56 -2.70742 -4.74722 0
M  V30 57836 H 5357.65 -0.378445 -0.735329 0
M  V30 57837 H 5360.2 -1.35965 -1.01547 0
M  V30 57838 H 5358.97 -2.92501 -2.59921 0
M  V30 57839 H 5358.59 -1.5714 -3.6523 0
M  V30 57840 N 5359.59 1.16344 -1.0631 0
M  V30 57841 C 5360.52 2.22907 -0.695312 0
M  V30 57842 C 5361.5 1.67209 0.312284 0
M  V30 57843 O 5362.69 1.93294 0.187375 0
M  V30 57844 C 5359.82 3.47205 -0.0811369 0
M  V30 57845 C 5358.77 4.15797 -1.01472 0
M  V30 57846 C 5358.1 5.34049 -0.263844 0
M  V30 57847 C 5359.4 4.66758 -2.34381 0
M  V30 57848 H 5361.09 2.53928 -1.58622 0
M  V30 57849 H 5358.64 1.22053 -0.764132 0
M  V30 57850 H 5360.59 4.2098 0.188032 0
M  V30 57851 H 5359.31 3.15485 0.844787 0
M  V30 57852 H 5357.97 3.43949 -1.26864 0
M  V30 57853 H 5357.62 4.98582 0.665203 0
M  V30 57854 H 5357.32 5.80882 -0.886024 0
M  V30 57855 H 5358.84 6.106 -0.0022246 0
M  V30 57856 H 5360.26 5.32113 -2.13375 0
M  V30 57857 H 5358.66 5.24212 -2.92098 0
M  V30 57858 H 5359.73 3.82959 -2.9744 0
M  V30 57859 N 5361.07 0.845705 1.32987 0
M  V30 57860 C 5362 0.241177 2.27928 0
M  V30 57861 C 5363.01 -0.581994 1.52042 0
M  V30 57862 O 5364.2 -0.407947 1.73776 0
M  V30 57863 C 5361.3 -0.678535 3.32038 0
M  V30 57864 C 5360.48 0.106805 4.3727 0
M  V30 57865 C 5359.53 -0.737294 5.21009 0
M  V30 57866 O 5358.56 -0.17403 5.68934 0
M  V30 57867 N 5359.76 -2.05353 5.42964 0
M  V30 57868 H 5362.53 1.05695 2.80444 0
M  V30 57869 H 5360.09 0.704822 1.45753 0
M  V30 57870 H 5362.08 -1.24836 3.84965 0
M  V30 57871 H 5360.65 -1.395 2.79747 0
M  V30 57872 H 5359.87 0.858032 3.84749 0
M  V30 57873 H 5361.16 0.646563 5.04675 0
M  V30 57874 H 5360.56 -2.5346 5.05742 0
M  V30 57875 H 5359.11 -2.57168 5.98922 0
M  V30 57876 N 5362.55 -1.45617 0.602786 0
M  V30 57877 C 5363.48 -2.33258 -0.10626 0
M  V30 57878 C 5364.46 -1.46546 -0.863612 0
M  V30 57879 O 5365.64 -1.75327 -0.835113 0
M  V30 57880 C 5362.77 -3.29172 -1.10739 0
M  V30 57881 C 5361.73 -4.25482 -0.463567 0
M  V30 57882 C 5361.05 -5.11051 -1.5726 0
M  V30 57883 C 5362.35 -5.187 0.612172 0
M  V30 57884 H 5364.05 -2.92793 0.625526 0
M  V30 57885 H 5361.59 -1.40792 0.302262 0
M  V30 57886 H 5363.55 -3.89351 -1.61194 0
M  V30 57887 H 5362.27 -2.67786 -1.86971 0
M  V30 57888 H 5360.93 -3.66595 0.0200785 0
M  V30 57889 H 5360.58 -4.46037 -2.32508 0
M  V30 57890 H 5360.28 -5.7629 -1.14735 0
M  V30 57891 H 5361.8 -5.74098 -2.07952 0
M  V30 57892 H 5363.21 -5.72979 0.191888 0
M  V30 57893 H 5361.61 -5.92389 0.958894 0
M  V30 57894 H 5362.68 -4.61419 1.49066 0
M  V30 57895 N 5364.02 -0.341674 -1.53852 0
M  V30 57896 C 5365.27 0.256405 -2.00064 0
M  V30 57897 C 5365.59 1.51806 -1.23346 0
M  V30 57898 O 5366.79 2.19327 -1.60025 0
M  V30 57899 C 5365.25 0.507442 -3.56305 0
M  V30 57900 C 5364.86 -0.738207 -4.41876 0
M  V30 57901 C 5366.6 1.06448 -4.10937 0
M  V30 57902 C 5364.51 -0.458073 -5.89623 0
M  V30 57903 H 5363.44 0.099588 -0.747394 0
M  V30 57904 H 5366.09 -0.456712 -1.77726 0
M  V30 57905 H 5364.47 1.28121 -3.74701 0
M  V30 57906 H 5365.64 -1.51294 -4.35255 0
M  V30 57907 H 5363.96 -1.21675 -3.98226 0
M  V30 57908 H 5366.56 1.28899 -5.18931 0
M  V30 57909 H 5366.9 2.01943 -3.64039 0
M  V30 57910 H 5367.43 0.351462 -3.96244 0
M  V30 57911 H 5364.17 -1.38269 -6.40751 0
M  V30 57912 H 5363.69 0.278607 -5.99153 0
M  V30 57913 H 5365.37 -0.0746189 -6.46957 0
M  V30 57914 N 5365.5 1.57443 -0.07025 0
M  V30 57915 C 5366.75 1.93049 0.598039 0
M  V30 57916 C 5367.07 0.9509 1.70244 0
M  V30 57917 O 5366.34 -0.0012029 1.959 0
M  V30 57918 H 5364.92 0.712656 0.223899 0
M  V30 57919 H 5367.58 1.94481 -0.127743 0
M  V30 57920 H 5366.68 2.94811 1.02435 0
M  V30 57921 N 5366.98 -0.203294 1.56283 0
M  V30 57922 C 5367.89 -1.27259 1.97084 0
M  V30 57923 C 5368.91 -1.50265 0.877288 0
M  V30 57924 O 5370.08 -1.6304 1.18237 0
M  V30 57925 C 5367.15 -2.59863 2.29505 0
M  V30 57926 C 5366.21 -2.45 3.52524 0
M  V30 57927 C 5365.44 -3.7128 3.83389 0
M  V30 57928 O 5365.67 -4.75095 3.1566 0
M  V30 57929 O 5364.6 -3.67299 4.76839 0
M  V30 57930 H 5368.43 -0.956359 2.88249 0
M  V30 57931 H 5366.01 -0.407638 1.43731 0
M  V30 57932 H 5367.89 -3.38143 2.5147 0
M  V30 57933 H 5366.57 -2.9113 1.4151 0
M  V30 57934 H 5365.47 -1.64858 3.35817 0
M  V30 57935 H 5366.81 -2.18667 4.4096 0
M  V30 57936 N 5368.46 -1.50407 -0.470702 0
M  V30 57937 C 5369.71 -1.60656 -1.21953 0
M  V30 57938 C 5370.02 -0.312589 -1.93086 0
M  V30 57939 O 5371.23 -0.293996 -2.69904 0
M  V30 57940 C 5369.68 -2.83589 -2.21597 0
M  V30 57941 C 5369.29 -4.19863 -1.56265 0
M  V30 57942 C 5371.04 -3.03183 -2.9712 0
M  V30 57943 C 5368.94 -5.33983 -2.54198 0
M  V30 57944 H 5367.87 -0.598281 -0.458886 0
M  V30 57945 H 5370.52 -1.76837 -0.489979 0
M  V30 57946 H 5368.91 -2.60967 -2.97846 0
M  V30 57947 H 5370.08 -4.52741 -0.858031 0
M  V30 57948 H 5368.39 -4.05877 -0.930223 0
M  V30 57949 H 5370.99 -3.85613 -3.70414 0
M  V30 57950 H 5371.33 -2.14926 -3.56528 0
M  V30 57951 H 5371.87 -3.25988 -2.27984 0
M  V30 57952 H 5368.61 -6.24395 -1.99527 0
M  V30 57953 H 5368.13 -5.05522 -3.22811 0
M  V30 57954 H 5369.81 -5.64572 -3.16019 0
M  V30 57955 N 5369.94 0.723905 -1.39991 0
M  V30 57956 C 5370.87 1.84854 -1.35505 0
M  V30 57957 C 5371.88 1.6068 -0.261869 0
M  V30 57958 O 5373.07 1.70708 -0.521626 0
M  V30 57959 C 5370.17 3.21099 -1.08392 0
M  V30 57960 C 5369.34 3.72538 -2.29203 0
M  V30 57961 C 5368.4 4.87373 -1.98377 0
M  V30 57962 O 5367.43 5.00457 -2.71167 0
M  V30 57963 N 5368.63 5.72563 -0.956662 0
M  V30 57964 H 5371.4 1.89204 -2.32426 0
M  V30 57965 H 5368.96 0.905104 -1.34237 0
M  V30 57966 H 5370.95 3.95507 -0.857703 0
M  V30 57967 H 5369.52 3.11949 -0.201659 0
M  V30 57968 H 5368.74 2.89356 -2.67707 0
M  V30 57969 H 5370.03 4.03641 -3.09761 0
M  V30 57970 H 5369.43 5.64594 -0.353643 0
M  V30 57971 H 5367.98 6.46991 -0.790345 0
M  V30 57972 N 5371.42 1.2535 0.95526 0
M  V30 57973 C 5372.36 1.05679 2.05184 0
M  V30 57974 C 5373.33 -0.0338633 1.66065 0
M  V30 57975 O 5374.52 0.123193 1.90402 0
M  V30 57976 C 5371.66 0.68091 3.38316 0
M  V30 57977 C 5370.77 1.84635 3.90556 0
M  V30 57978 C 5369.91 1.41489 5.1201 0
M  V30 57979 C 5368.94 2.5495 5.56477 0
M  V30 57980 N 5368.08 2.12584 6.69143 0
M  V30 57981 H 5372.92 1.99528 2.21343 0
M  V30 57982 H 5370.46 0.993627 1.08469 0
M  V30 57983 H 5372.42 0.44394 4.14831 0
M  V30 57984 H 5371.05 -0.220587 3.22045 0
M  V30 57985 H 5370.1 2.19665 3.10566 0
M  V30 57986 H 5371.41 2.69845 4.19506 0
M  V30 57987 H 5370.56 1.13753 5.95941 0
M  V30 57988 H 5369.3 0.533504 4.84773 0
M  V30 57989 H 5368.31 2.83431 4.71112 0
M  V30 57990 H 5369.53 3.43666 5.85722 0
M  V30 57991 H 5367.48 1.26861 6.43617 0
M  V30 57992 H 5367.4 2.91341 6.97607 0
M  V30 57993 H 5368.66 1.88022 7.56484 0
M  V30 57994 N 5372.89 -1.15778 1.06926 0
M  V30 57995 C 5374.12 -1.90076 0.809612 0
M  V30 57996 C 5374.53 -1.7803 -0.64046 0
M  V30 57997 O 5373.87 -1.12697 -1.45069 0
M  V30 57998 C 5373.94 -3.41175 1.13314 0
M  V30 57999 C 5373.6 -3.77006 2.58293 0
M  V30 58000 C 5374.6 -3.7839 3.56534 0
M  V30 58001 C 5372.28 -4.07444 2.93759 0
M  V30 58002 C 5374.28 -4.09711 4.88278 0
M  V30 58003 C 5371.96 -4.38431 4.25701 0
M  V30 58004 C 5372.96 -4.39545 5.2277 0
M  V30 58005 O 5372.65 -4.69792 6.52343 0
M  V30 58006 H 5372.38 -0.609386 0.292616 0
M  V30 58007 H 5374.94 -1.47649 1.4279 0
M  V30 58008 H 5373.17 -3.8398 0.457811 0
M  V30 58009 H 5374.85 -3.96756 0.856726 0
M  V30 58010 H 5375.62 -3.54979 3.30477 0
M  V30 58011 H 5371.5 -4.05738 2.18855 0
M  V30 58012 H 5375.04 -4.10496 5.64038 0
M  V30 58013 H 5370.94 -4.61309 4.51513 0
M  V30 58014 H 5371.71 -4.87575 6.57429 0
M  V30 58015 N 5374.37 -0.852746 -1.32537 0
M  V30 58016 C 5375.6 -0.468434 -2.01219 0
M  V30 58017 C 5376.01 0.938908 -1.64259 0
M  V30 58018 O 5375.35 1.62384 -0.858894 0
M  V30 58019 C 5375.41 -0.525582 -3.55637 0
M  V30 58020 C 5375.08 -1.89148 -4.16019 0
M  V30 58021 C 5376.08 -2.85667 -4.34385 0
M  V30 58022 C 5373.76 -2.18811 -4.52136 0
M  V30 58023 C 5375.75 -4.10002 -4.88034 0
M  V30 58024 C 5373.44 -3.43399 -5.0549 0
M  V30 58025 C 5374.44 -4.38811 -5.23387 0
M  V30 58026 O 5374.13 -5.61193 -5.75602 0
M  V30 58027 H 5373.86 -0.182735 -0.650833 0
M  V30 58028 H 5376.41 -1.15082 -1.70133 0
M  V30 58029 H 5374.64 0.213644 -3.86109 0
M  V30 58030 H 5376.33 -0.157141 -4.05596 0
M  V30 58031 H 5377.1 -2.64054 -4.06817 0
M  V30 58032 H 5372.98 -1.45332 -4.37492 0
M  V30 58033 H 5376.52 -4.84483 -5.01919 0
M  V30 58034 H 5372.42 -3.64862 -5.3249 0
M  V30 58035 H 5373.19 -5.63125 -5.93997 0
M  V30 58036 N 5375.85 1.45295 -0.6105 0
M  V30 58037 C 5377.08 2.0629 -0.113119 0
M  V30 58038 C 5377.49 1.45531 1.20902 0
M  V30 58039 O 5376.83 0.564898 1.74799 0
M  V30 58040 C 5376.89 3.59367 0.0978429 0
M  V30 58041 C 5376.56 4.42477 -1.14294 0
M  V30 58042 C 5377.55 4.7727 -2.06178 0
M  V30 58043 C 5375.24 4.83183 -1.37258 0
M  V30 58044 C 5377.23 5.51628 -3.19352 0
M  V30 58045 C 5374.92 5.57294 -2.50733 0
M  V30 58046 C 5375.92 5.91433 -3.41607 0
M  V30 58047 O 5375.61 6.6404 -4.53106 0
M  V30 58048 H 5375.34 0.672638 -0.0673396 0
M  V30 58049 H 5377.89 1.87483 -0.839003 0
M  V30 58050 H 5376.12 3.76585 0.878651 0
M  V30 58051 H 5377.81 4.02195 0.547186 0
M  V30 58052 H 5378.58 4.46378 -1.89663 0
M  V30 58053 H 5374.46 4.56043 -0.67423 0
M  V30 58054 H 5378 5.78193 -3.90306 0
M  V30 58055 H 5373.9 5.87601 -2.672 0
M  V30 58056 H 5374.66 6.82493 -4.51825 0
M  V30 58057 N 5377.33 0.349828 1.53668 0
M  V30 58058 C 5378.27 -0.504042 2.25229 0
M  V30 58059 C 5379.24 -1.09044 1.25294 0
M  V30 58060 O 5380.43 -1.12588 1.54041 0
M  V30 58061 C 5377.57 -1.6459 3.03322 0
M  V30 58062 C 5376.68 -1.0862 4.18122 0
M  V30 58063 C 5375.82 -2.19588 4.83689 0
M  V30 58064 C 5374.86 -1.61002 5.90546 0
M  V30 58065 N 5373.99 -2.65737 6.49868 0
M  V30 58066 H 5378.83 0.112726 2.97787 0
M  V30 58067 H 5376.37 0.067402 1.46945 0
M  V30 58068 H 5378.33 -2.31824 3.46863 0
M  V30 58069 H 5376.96 -2.23356 2.33049 0
M  V30 58070 H 5376.01 -0.304615 3.79178 0
M  V30 58071 H 5377.32 -0.617737 4.9496 0
M  V30 58072 H 5376.48 -2.94674 5.30332 0
M  V30 58073 H 5375.22 -2.69781 4.06288 0
M  V30 58074 H 5374.22 -0.844237 5.4328 0
M  V30 58075 H 5375.45 -1.11653 6.69858 0
M  V30 58076 H 5373.39 -3.15173 5.75328 0
M  V30 58077 H 5373.31 -2.23531 7.22198 0
M  V30 58078 H 5374.58 -3.40573 7.01163 0
M  V30 58079 N 5378.81 -1.57404 0.0785986 0
M  V30 58080 C 5379.75 -2.13107 -0.886235 0
M  V30 58081 C 5380.72 -1.04532 -1.29083 0
M  V30 58082 O 5381.91 -1.32231 -1.37549 0
M  V30 58083 C 5379.05 -2.70259 -2.14602 0
M  V30 58084 C 5378.16 -3.93013 -1.79345 0
M  V30 58085 C 5377.3 -4.38386 -2.99985 0
M  V30 58086 C 5376.33 -5.53771 -2.60777 0
M  V30 58087 N 5375.47 -5.94071 -3.74198 0
M  V30 58088 H 5380.31 -2.95244 -0.404348 0
M  V30 58089 H 5377.85 -1.45895 -0.187931 0
M  V30 58090 H 5379.81 -3.01507 -2.88356 0
M  V30 58091 H 5378.44 -1.90877 -2.60319 0
M  V30 58092 H 5377.49 -3.68185 -0.956254 0
M  V30 58093 H 5378.8 -4.768 -1.46503 0
M  V30 58094 H 5377.95 -4.71331 -3.82011 0
M  V30 58095 H 5376.69 -3.53467 -3.36025 0
M  V30 58096 H 5375.7 -5.2047 -1.77174 0
M  V30 58097 H 5376.92 -6.40427 -2.25899 0
M  V30 58098 H 5374.87 -5.121 -4.09987 0
M  V30 58099 H 5374.79 -6.72614 -3.45147 0
M  V30 58100 H 5376.05 -6.3164 -4.56783 0
M  V30 58101 N 5380.28 0.195003 -1.56389 0
M  V30 58102 C 5381.19 1.26212 -1.97756 0
M  V30 58103 C 5382.21 1.49798 -0.885245 0
M  V30 58104 O 5383.39 1.6241 -1.191 0
M  V30 58105 C 5380.45 2.58642 -2.30879 0
M  V30 58106 C 5379.51 2.43127 -3.53819 0
M  V30 58107 C 5378.75 3.69241 -3.85352 0
M  V30 58108 O 5378.97 4.73414 -3.18175 0
M  V30 58109 O 5377.9 3.64765 -4.7878 0
M  V30 58110 H 5381.73 0.941059 -2.88752 0
M  V30 58111 H 5379.31 0.40001 -1.43945 0
M  V30 58112 H 5381.2 3.36805 -2.53259 0
M  V30 58113 H 5379.87 2.90375 -1.43052 0
M  V30 58114 H 5378.78 1.63074 -3.36686 0
M  V30 58115 H 5380.11 2.16326 -4.42113 0
M  V30 58116 N 5381.76 1.50654 0.462719 0
M  V30 58117 C 5383.01 1.63268 1.21305 0
M  V30 58118 C 5383.36 0.332714 1.89501 0
M  V30 58119 O 5382.66 -0.669931 1.79506 0
M  V30 58120 C 5382.85 2.75645 2.27497 0
M  V30 58121 C 5382.68 4.16444 1.6972 0
M  V30 58122 C 5381.45 4.82732 1.49324 0
M  V30 58123 C 5383.65 5.00403 1.18748 0
M  V30 58124 N 5381.63 6.07722 0.868778 0
M  V30 58125 C 5383 6.16185 0.686753 0
M  V30 58126 C 5385.06 4.86116 1.07682 0
M  V30 58127 C 5383.76 7.19248 0.086274 0
M  V30 58128 C 5385.78 5.89364 0.490266 0
M  V30 58129 C 5385.15 7.044 -3.91526e-05 0
M  V30 58130 H 5381.25 0.651533 0.432468 0
M  V30 58131 H 5383.83 1.87801 0.513684 0
M  V30 58132 H 5382 2.52819 2.94851 0
M  V30 58133 H 5383.73 2.77573 2.94509 0
M  V30 58134 H 5380.49 4.40167 1.74786 0
M  V30 58135 H 5380.91 6.74556 0.57472 0
M  V30 58136 H 5385.55 3.97457 1.4418 0
M  V30 58137 H 5383.27 8.07576 -0.290898 0
M  V30 58138 H 5386.86 5.80375 0.406895 0
M  V30 58139 H 5385.74 7.82926 -0.446796 0
M  V30 58140 N 5383.24 -0.716471 1.40373 0
M  V30 58141 C 5384.19 -1.82214 1.37047 0
M  V30 58142 C 5385.17 -1.58975 0.248172 0
M  V30 58143 O 5386.37 -1.70163 0.487207 0
M  V30 58144 C 5383.5 -3.20333 1.23457 0
M  V30 58145 C 5382.58 -3.49339 2.40464 0
M  V30 58146 N 5382.97 -3.49166 3.65946 0
M  V30 58147 C 5381.27 -3.79792 2.33825 0
M  V30 58148 C 5381.97 -3.76491 4.43429 0
M  V30 58149 N 5380.95 -3.95196 3.73258 0
M  V30 58150 H 5384.75 -1.80413 2.3201 0
M  V30 58151 H 5382.26 -0.915556 1.34132 0
M  V30 58152 H 5384.26 -3.99509 1.19157 0
M  V30 58153 H 5382.92 -3.23361 0.294611 0
M  V30 58154 H 5383.93 -3.30037 3.99119 0
M  V30 58155 H 5380.61 -3.90315 1.48191 0
M  V30 58156 H 5382 -3.8267 5.5228 0
M  V30 58157 N 5384.72 -1.25855 -0.948599 0
M  V30 58158 C 5385.67 -1.06766 -2.04621 0
M  V30 58159 C 5386.64 0.025056 -1.66081 0
M  V30 58160 O 5387.82 -0.133288 -1.90334 0
M  V30 58161 C 5384.96 -0.698842 -3.3795 0
M  V30 58162 C 5384.07 -1.86704 -3.89571 0
M  V30 58163 C 5383.21 -1.44202 -5.11253 0
M  V30 58164 C 5382.25 -2.57898 -5.55117 0
M  V30 58165 N 5381.38 -2.1613 -6.68006 0
M  V30 58166 H 5386.22 -2.00699 -2.20282 0
M  V30 58167 H 5383.76 -0.999365 -1.0794 0
M  V30 58168 H 5385.72 -0.465933 -4.1459 0
M  V30 58169 H 5384.35 0.203505 -3.22158 0
M  V30 58170 H 5383.4 -2.21309 -3.09397 0
M  V30 58171 H 5384.71 -2.72066 -4.18069 0
M  V30 58172 H 5383.87 -1.16912 -5.95329 0
M  V30 58173 H 5382.61 -0.559206 -4.84483 0
M  V30 58174 H 5381.61 -2.85926 -4.69602 0
M  V30 58175 H 5382.84 -3.46767 -5.83892 0
M  V30 58176 H 5380.78 -1.30272 -6.42935 0
M  V30 58177 H 5380.7 -2.95037 -6.96053 0
M  V30 58178 H 5381.97 -1.92031 -7.55476 0
M  V30 58179 N 5386.2 1.1521 -1.07538 0
M  V30 58180 C 5387.44 1.86041 -0.799695 0
M  V30 58181 C 5387.77 1.82438 0.674292 0
M  V30 58182 O 5387.03 1.24384 1.51086 0
M  V30 58183 C 5387.33 3.34619 -1.25559 0
M  V30 58184 C 5386.99 3.58416 -2.73585 0
M  V30 58185 C 5385.65 3.64619 -3.14017 0
M  V30 58186 C 5388.01 3.67964 -3.69123 0
M  V30 58187 C 5385.33 3.77884 -4.48799 0
M  V30 58188 C 5387.69 3.82753 -5.03669 0
M  V30 58189 C 5386.35 3.87203 -5.43719 0
M  V30 58190 H 5385.62 0.680771 -0.292629 0
M  V30 58191 H 5388.27 1.36144 -1.34674 0
M  V30 58192 H 5386.57 3.86735 -0.627964 0
M  V30 58193 H 5388.27 3.87833 -1.01915 0
M  V30 58194 H 5384.86 3.54229 -2.41287 0
M  V30 58195 H 5389.04 3.6247 -3.39012 0
M  V30 58196 H 5384.3 3.79587 -4.79295 0
M  V30 58197 H 5388.47 3.89083 -5.7757 0
M  V30 58198 H 5386.1 3.97234 -6.48158 0
M  V30 58199 N 5387.67 0.859763 1.32083 0
M  V30 58200 C 5388.92 0.461848 1.96341 0
M  V30 58201 C 5389.24 -0.988777 1.68768 0
M  V30 58202 O 5390.44 -1.49236 2.26806 0
M  V30 58203 C 5388.9 0.774964 3.51457 0
M  V30 58204 C 5388.51 2.24166 3.87883 0
M  V30 58205 C 5390.25 0.445021 4.22161 0
M  V30 58206 C 5388.16 2.49773 5.36067 0
M  V30 58207 H 5387.09 0.168977 0.734822 0
M  V30 58208 H 5389.74 1.05125 1.50403 0
M  V30 58209 H 5388.12 0.114932 3.95833 0
M  V30 58210 H 5389.29 2.94391 3.54501 0
M  V30 58211 H 5387.61 2.53663 3.30218 0
M  V30 58212 H 5390.21 0.613695 5.31167 0
M  V30 58213 H 5390.55 -0.613765 4.11751 0
M  V30 58214 H 5391.08 1.06116 3.83385 0
M  V30 58215 H 5387.82 3.54295 5.51502 0
M  V30 58216 H 5387.34 1.84132 5.70838 0
M  V30 58217 H 5389.02 2.33982 6.03209 0
M  V30 58218 N 5389.15 -1.44969 0.618196 0
M  V30 58219 C 5390.43 -1.95538 0.0490582 0
M  V30 58220 C 5390.81 -1.56045 -1.42173 0
M  V30 58221 O 5390.16 -0.828165 -2.12964 0
M  V30 58222 C 5390.37 -3.48043 0.258315 0
M  V30 58223 C 5391.72 -4.24353 0.144691 0
M  V30 58224 O 5392.74 -3.55698 0.188995 0
M  V30 58225 O 5391.6 -5.46486 0.0387111 0
M  V30 58226 H 5388.69 -0.826467 -0.0296965 0
M  V30 58227 H 5391.24 -1.55084 0.688999 0
M  V30 58228 H 5390.01 -3.69794 1.27939 0
M  V30 58229 H 5389.63 -3.95414 -0.416383 0
M  V30 58230 N 5390.63 -0.357973 -1.53481 0
M  V30 58231 C 5391.86 0.235068 -2.0556 0
M  V30 58232 C 5392.27 1.43063 -1.232 0
M  V30 58233 O 5391.63 1.8048 -0.270805 0
M  V30 58234 C 5391.68 0.636022 -3.55861 0
M  V30 58235 O 5391.4 -0.512017 -4.35098 0
M  V30 58236 C 5392.9 1.28826 -4.24168 0
M  V30 58237 H 5390.12 0.042821 -0.669632 0
M  V30 58238 H 5392.67 -0.51414 -1.97931 0
M  V30 58239 H 5390.82 1.33515 -3.63665 0
M  V30 58240 H 5391.24 -0.189512 -5.24158 0
M  V30 58241 H 5392.71 1.51944 -5.30676 0
M  V30 58242 H 5393.19 2.24625 -3.77413 0
M  V30 58243 H 5393.79 0.630767 -4.20597 0
M  V30 58244 N 5392.11 1.5736 -0.086945 0
M  V30 58245 C 5393.36 1.93231 0.578319 0
M  V30 58246 C 5393.67 0.970187 1.69843 0
M  V30 58247 O 5394.88 1.2223 2.42429 0
M  V30 58248 C 5393.33 3.43311 1.08008 0
M  V30 58249 C 5392.94 4.47999 -0.00983885 0
M  V30 58250 C 5394.68 3.88158 1.71855 0
M  V30 58251 C 5392.59 5.89224 0.506821 0
M  V30 58252 H 5391.52 0.721252 0.219798 0
M  V30 58253 H 5394.17 1.82787 -0.16163 0
M  V30 58254 H 5392.55 3.4888 1.87347 0
M  V30 58255 H 5393.73 4.54064 -0.785024 0
M  V30 58256 H 5392.04 4.12712 -0.55299 0
M  V30 58257 H 5394.64 4.91063 2.11568 0
M  V30 58258 H 5394.98 3.26356 2.58452 0
M  V30 58259 H 5395.52 3.85255 0.991124 0
M  V30 58260 H 5392.26 6.54707 -0.322351 0
M  V30 58261 H 5391.78 5.86647 1.24919 0
M  V30 58262 H 5393.45 6.39559 0.978403 0
M  V30 58263 N 5393.59 -0.186707 1.5649 0
M  V30 58264 C 5394.81 -0.921767 1.85232 0
M  V30 58265 C 5395.23 -1.76494 0.670478 0
M  V30 58266 O 5394.59 -1.789 -0.360695 0
M  V30 58267 C 5394.64 -1.8111 3.1286 0
M  V30 58268 O 5394.36 -1.00196 4.26488 0
M  V30 58269 C 5395.86 -2.65713 3.5484 0
M  V30 58270 H 5393.08 -0.268542 0.61492 0
M  V30 58271 H 5395.62 -0.191433 2.03602 0
M  V30 58272 H 5393.78 -2.49495 2.96363 0
M  V30 58273 H 5394.19 -1.60876 4.99219 0
M  V30 58274 H 5395.67 -3.23755 4.47087 0
M  V30 58275 H 5396.14 -3.39833 2.78227 0
M  V30 58276 H 5396.75 -2.02685 3.73897 0
M  V30 58277 N 5395.07 -1.50897 -0.454723 0
M  V30 58278 C 5396.34 -1.53232 -1.21571 0
M  V30 58279 C 5396.72 -0.286432 -2.09148 0
M  V30 58280 O 5396.07 0.729393 -2.16546 0
M  V30 58281 C 5396.28 -2.837 -2.03261 0
M  V30 58282 C 5397.63 -3.3499 -2.60896 0
M  V30 58283 O 5398.65 -2.85133 -2.13489 0
M  V30 58284 O 5397.51 -4.21941 -3.47316 0
M  V30 58285 H 5394.61 -0.615326 -0.552543 0
M  V30 58286 H 5397.15 -1.63199 -0.465209 0
M  V30 58287 H 5395.92 -3.65844 -1.3883 0
M  V30 58288 H 5395.55 -2.76813 -2.85412 0
M  V30 58289 N 5396.54 0.709016 -1.40751 0
M  V30 58290 C 5397.49 1.81485 -1.38012 0
M  V30 58291 C 5398.48 1.58841 -0.256599 0
M  V30 58292 O 5399.67 1.69902 -0.496224 0
M  V30 58293 C 5396.8 3.19674 -1.25154 0
M  V30 58294 C 5395.88 3.48059 -2.42314 0
M  V30 58295 N 5396.28 3.47221 -3.67793 0
M  V30 58296 C 5394.57 3.78547 -2.35835 0
M  V30 58297 C 5395.27 3.74134 -4.4542 0
M  V30 58298 N 5394.25 3.9321 -3.75348 0
M  V30 58299 H 5398.05 1.7918 -2.32963 0
M  V30 58300 H 5395.57 0.908429 -1.34615 0
M  V30 58301 H 5397.56 3.98871 -1.21274 0
M  V30 58302 H 5396.22 3.232 -0.311755 0
M  V30 58303 H 5397.23 3.27916 -4.00864 0
M  V30 58304 H 5393.91 3.89524 -1.50259 0
M  V30 58305 H 5395.3 3.79735 -5.54302 0
M  V30 58306 N 5398.02 1.26356 0.941911 0
M  V30 58307 C 5398.95 1.02171 2.0405 0
M  V30 58308 C 5399.93 -0.0532943 1.62513 0
M  V30 58309 O 5401.12 0.0889725 1.8829 0
M  V30 58310 C 5398.24 0.547025 3.34253 0
M  V30 58311 C 5397.29 1.61447 3.94762 0
M  V30 58312 S 5398.12 3.20321 4.29133 0
M  V30 58313 C 5399.28 2.7462 5.62437 0
M  V30 58314 H 5399.51 1.95188 2.24252 0
M  V30 58315 H 5397.04 1.10028 1.0832 0
M  V30 58316 H 5399 0.279817 4.09545 0
M  V30 58317 H 5397.66 -0.36286 3.11997 0
M  V30 58318 H 5396.86 1.23332 4.88677 0
M  V30 58319 H 5396.46 1.83302 3.26001 0
M  V30 58320 H 5398.75 2.19038 6.41115 0
M  V30 58321 H 5399.69 3.67224 6.05436 0
M  V30 58322 H 5400.1 2.14208 5.22279 0
M  V30 58323 N 5399.5 -1.14638 1.08148 0
M  V30 58324 C 5400.73 -1.89481 0.830931 0
M  V30 58325 C 5401.14 -1.78445 -0.61666 0
M  V30 58326 O 5400.5 -1.14196 -1.42357 0
M  V30 58327 C 5400.55 -3.39549 1.24051 0
M  V30 58328 O 5400.27 -3.50277 2.63131 0
M  V30 58329 C 5401.77 -4.31395 1.02044 0
M  V30 58330 H 5398.99 -0.600273 0.299856 0
M  V30 58331 H 5401.54 -1.45198 1.44006 0
M  V30 58332 H 5399.69 -3.81465 0.675541 0
M  V30 58333 H 5400.11 -4.43471 2.80061 0
M  V30 58334 H 5401.58 -5.35075 1.35644 0
M  V30 58335 H 5402.06 -4.39179 -0.0427153 0
M  V30 58336 H 5402.66 -3.95233 1.57071 0
M  V30 58337 N 5400.98 -0.866756 -1.31625 0
M  V30 58338 C 5401.89 -0.323489 -2.32359 0
M  V30 58339 C 5402.9 0.564937 -1.64574 0
M  V30 58340 O 5404.08 0.46242 -1.96019 0
M  V30 58341 C 5401.14 0.468925 -3.43514 0
M  V30 58342 C 5400.21 -0.447079 -4.26966 0
M  V30 58343 C 5399.44 0.307612 -5.32813 0
M  V30 58344 O 5399.66 1.53611 -5.49327 0
M  V30 58345 O 5398.6 -0.332864 -6.00979 0
M  V30 58346 H 5402.42 -1.15837 -2.80741 0
M  V30 58347 H 5400.01 -0.630035 -1.35466 0
M  V30 58348 H 5401.89 0.918261 -4.11274 0
M  V30 58349 H 5400.56 1.2804 -2.973 0
M  V30 58350 H 5399.47 -0.944846 -3.61972 0
M  V30 58351 H 5400.8 -1.22407 -4.76736 0
M  V30 58352 N 5402.46 1.44639 -0.625876 0
M  V30 58353 C 5403.7 2.02393 -0.128462 0
M  V30 58354 C 5404.03 1.4908 1.24454 0
M  V30 58355 O 5403.31 0.672749 1.82495 0
M  V30 58356 C 5403.59 3.59934 -0.109406 0
M  V30 58357 C 5403.45 4.23541 -1.51438 0
M  V30 58358 C 5404.76 4.36408 0.568832 0
M  V30 58359 H 5401.88 0.735425 -0.0481557 0
M  V30 58360 H 5404.53 1.72274 -0.801346 0
M  V30 58361 H 5402.68 3.85724 0.46359 0
M  V30 58362 H 5404.35 4.08875 -2.13586 0
M  V30 58363 H 5402.59 3.81237 -2.06979 0
M  V30 58364 H 5403.26 5.3253 -1.45313 0
M  V30 58365 H 5405.74 4.1602 0.0816053 0
M  V30 58366 H 5404.61 5.46124 0.551335 0
M  V30 58367 H 5404.87 4.10626 1.63825 0
M  V30 58368 N 5403.93 0.366107 1.53289 0
M  V30 58369 C 5405.34 -0.112991 1.86358 0
M  V30 58370 C 5405.7 -1.48118 1.28668 0
M  V30 58371 O 5404.82 -2.07656 0.608922 0
M  V30 58372 C 5405.42 -0.211805 3.38137 0
M  V30 58373 C 5403.97 -0.635158 3.71002 0
M  V30 58374 C 5403.12 0.2173 2.76447 0
M  V30 58375 H 5406.07 0.584881 1.47529 0
M  V30 58376 H 5406.09 -1.03528 3.66145 0
M  V30 58377 H 5405.61 0.784127 3.80096 0
M  V30 58378 H 5403.71 -1.6393 3.34601 0
M  V30 58379 H 5403.82 -0.409403 4.77348 0
M  V30 58380 H 5402.18 -0.313899 2.52758 0
M  V30 58381 H 5402.97 1.21078 3.2124 0
M  V30 58382 N 5405.41 -1.57312 0.095289 0
M  V30 58383 C 5406.66 -1.94648 -0.569215 0
M  V30 58384 C 5406.99 -0.977211 -1.67822 0
M  V30 58385 O 5406.27 -0.0103002 -1.94497 0
M  V30 58386 C 5406.55 -3.42102 -1.12421 0
M  V30 58387 C 5406.4 -4.49795 -0.0202434 0
M  V30 58388 C 5407.72 -3.90873 -2.02253 0
M  V30 58389 H 5404.84 -0.707786 -0.205445 0
M  V30 58390 H 5407.48 -1.89273 0.166037 0
M  V30 58391 H 5405.63 -3.46813 -1.7508 0
M  V30 58392 H 5407.3 -4.57195 0.614005 0
M  V30 58393 H 5405.55 -4.28961 0.646115 0
M  V30 58394 H 5406.22 -5.50168 -0.449385 0
M  V30 58395 H 5408.69 -3.88316 -1.49498 0
M  V30 58396 H 5407.57 -4.94613 -2.38011 0
M  V30 58397 H 5407.83 -3.30177 -2.93999 0
M  V30 58398 N 5406.89 0.178405 -1.56587 0
M  V30 58399 C 5408.14 0.894439 -1.80784 0
M  V30 58400 C 5408.45 1.83718 -0.671355 0
M  V30 58401 O 5409.66 2.59506 -0.798062 0
M  V30 58402 C 5408.11 1.64098 -3.20312 0
M  V30 58403 C 5407.72 0.742232 -4.41809 0
M  V30 58404 C 5409.47 2.34566 -3.53807 0
M  V30 58405 C 5407.37 1.4886 -5.72359 0
M  V30 58406 H 5406.3 0.337736 -0.674129 0
M  V30 58407 H 5408.95 0.147456 -1.82907 0
M  V30 58408 H 5407.34 2.43246 -3.12486 0
M  V30 58409 H 5408.51 -0.011777 -4.60798 0
M  V30 58410 H 5406.82 0.147559 -4.16138 0
M  V30 58411 H 5409.42 2.90988 -4.48587 0
M  V30 58412 H 5409.76 3.09562 -2.78347 0
M  V30 58413 H 5410.3 1.62368 -3.63155 0
M  V30 58414 H 5407.04 0.781097 -6.5083 0
M  V30 58415 H 5406.56 2.21611 -5.57358 0
M  V30 58416 H 5408.24 2.03797 -6.14065 0
M  V30 58417 N 5408.37 1.51136 0.446714 0
M  V30 58418 C 5409.6 1.67134 1.21959 0
M  V30 58419 C 5410.01 0.364735 1.85243 0
M  V30 58420 O 5409.37 -0.655848 1.70308 0
M  V30 58421 C 5409.42 2.78024 2.31051 0
M  V30 58422 O 5409.14 4.03621 1.70357 0
M  V30 58423 C 5410.64 3.05209 3.215 0
M  V30 58424 H 5407.86 0.561124 0.367942 0
M  V30 58425 H 5410.4 1.97501 0.530447 0
M  V30 58426 H 5408.56 2.50283 2.95698 0
M  V30 58427 H 5408.97 4.65135 2.42384 0
M  V30 58428 H 5410.45 3.86404 3.94203 0
M  V30 58429 H 5410.92 2.17241 3.8171 0
M  V30 58430 H 5411.53 3.34574 2.62565 0
M  V30 58431 N 5409.85 -0.701542 1.41125 0
M  V30 58432 C 5410.81 -1.79728 1.42234 0
M  V30 58433 C 5411.81 -1.57707 0.313887 0
M  V30 58434 O 5413 -1.6449 0.57348 0
M  V30 58435 C 5410.13 -3.18019 1.22787 0
M  V30 58436 H 5411.32 -1.80139 2.3977 0
M  V30 58437 H 5408.88 -0.90858 1.27179 0
M  V30 58438 H 5409.61 -3.23251 0.260666 0
M  V30 58439 H 5409.4 -3.35404 2.03092 0
M  V30 58440 H 5410.89 -3.98016 1.26384 0
M  V30 58441 N 5411.32 -1.26854 -0.935197 0
M  V30 58442 C 5412.6 -1.03489 -1.6598 0
M  V30 58443 C 5412.98 0.432786 -2.06616 0
M  V30 58444 O 5412.33 1.41443 -1.7946 0
M  V30 58445 C 5412.54 -1.98934 -2.86751 0
M  V30 58446 C 5413.89 -2.27883 -3.58266 0
M  V30 58447 O 5414.91 -1.96848 -2.96866 0
M  V30 58448 O 5413.77 -2.80751 -4.68872 0
M  V30 58449 H 5410.86 -0.393958 -0.727136 0
M  V30 58450 H 5413.41 -1.38088 -0.986397 0
M  V30 58451 H 5412.18 -2.97949 -2.53658 0
M  V30 58452 H 5411.81 -1.64851 -3.61815 0
M  V30 58453 N 5412.8 1.14063 -1.08754 0
M  V30 58454 C 5414.05 1.84816 -0.817763 0
M  V30 58455 C 5414.37 1.83548 0.658424 0
M  V30 58456 O 5413.64 1.28639 1.47746 0
M  V30 58457 H 5412.22 0.68432 -0.299526 0
M  V30 58458 H 5414.88 1.38203 -1.37426 0
M  V30 58459 H 5413.98 2.89537 -1.16511 0
M  V30 58460 N 5414.28 0.873724 1.31163 0
M  V30 58461 C 5415.19 0.335807 2.32184 0
M  V30 58462 C 5416.21 -0.556201 1.64871 0
M  V30 58463 O 5417.38 -0.452018 1.96262 0
M  V30 58464 C 5414.45 -0.450701 3.43758 0
M  V30 58465 C 5413.51 0.469715 4.26723 0
M  V30 58466 C 5412.74 -0.279351 5.32968 0
M  V30 58467 O 5412.96 -1.50695 5.50134 0
M  V30 58468 O 5411.9 0.364731 6.00794 0
M  V30 58469 H 5415.72 1.17324 2.80123 0
M  V30 58470 H 5413.31 0.63721 1.3513 0
M  V30 58471 H 5415.19 -0.896437 4.11755 0
M  V30 58472 H 5413.87 -1.26462 2.97975 0
M  V30 58473 H 5412.77 0.964029 3.61465 0
M  V30 58474 H 5414.11 1.24933 4.7608 0
M  V30 58475 N 5415.76 -1.44305 0.633538 0
M  V30 58476 C 5417 -2.02322 0.139194 0
M  V30 58477 C 5417.34 -1.49738 -1.23662 0
M  V30 58478 O 5416.61 -0.682417 -1.82135 0
M  V30 58479 C 5416.9 -3.59871 0.128493 0
M  V30 58480 C 5416.75 -4.22732 1.53682 0
M  V30 58481 C 5418.07 -4.36704 -0.54568 0
M  V30 58482 H 5415.19 -0.735159 0.0520552 0
M  V30 58483 H 5417.83 -1.71847 0.810471 0
M  V30 58484 H 5415.98 -3.85965 -0.443128 0
M  V30 58485 H 5417.65 -4.07737 2.15751 0
M  V30 58486 H 5415.89 -3.80134 2.08998 0
M  V30 58487 H 5416.56 -5.31752 1.48135 0
M  V30 58488 H 5419.04 -4.16057 -0.0595416 0
M  V30 58489 H 5417.92 -5.46409 -0.522365 0
M  V30 58490 H 5418.18 -4.11489 -1.61645 0
M  V30 58491 N 5417.24 -0.374231 -1.53092 0
M  V30 58492 C 5418.47 0.212943 -2.055 0
M  V30 58493 C 5418.87 1.42299 -1.24691 0
M  V30 58494 O 5418.22 1.81511 -0.282766 0
M  V30 58495 C 5418.28 0.662184 -3.53349 0
M  V30 58496 C 5417.94 -0.432343 -4.5495 0
M  V30 58497 C 5418.94 -1.28498 -5.0377 0
M  V30 58498 C 5416.63 -0.595062 -4.98763 0
M  V30 58499 C 5418.62 -2.28559 -5.95012 0
M  V30 58500 C 5416.31 -1.59903 -5.89809 0
M  V30 58501 C 5417.3 -2.44272 -6.37824 0
M  V30 58502 O 5416.99 -3.42956 -7.27074 0
M  V30 58503 H 5416.72 0.0393572 -0.674853 0
M  V30 58504 H 5419.28 -0.533493 -1.98351 0
M  V30 58505 H 5417.51 1.46036 -3.58065 0
M  V30 58506 H 5419.2 1.17333 -3.88571 0
M  V30 58507 H 5419.96 -1.1705 -4.70664 0
M  V30 58508 H 5415.84 0.0518781 -4.60971 0
M  V30 58509 H 5419.39 -2.94448 -6.32413 0
M  V30 58510 H 5415.28 -1.71395 -6.22329 0
M  V30 58511 H 5416.05 -3.38786 -7.45095 0
M  V30 58512 N 5418.71 1.57259 -0.10363 0
M  V30 58513 C 5419.96 1.93834 0.557792 0
M  V30 58514 C 5420.28 0.988146 1.68805 0
M  V30 58515 O 5421.48 1.24794 2.41119 0
M  V30 58516 C 5419.94 3.44437 1.04361 0
M  V30 58517 C 5419.55 4.47963 -0.0573546 0
M  V30 58518 C 5421.29 3.89958 1.67728 0
M  V30 58519 C 5419.2 5.89729 0.444298 0
M  V30 58520 H 5418.13 0.723543 0.212135 0
M  V30 58521 H 5420.78 1.82605 -0.181008 0
M  V30 58522 H 5419.16 3.50847 1.83636 0
M  V30 58523 H 5420.33 4.53206 -0.83314 0
M  V30 58524 H 5418.65 4.12102 -0.596733 0
M  V30 58525 H 5421.25 4.9328 2.06348 0
M  V30 58526 H 5421.59 3.29079 2.54976 0
M  V30 58527 H 5422.12 3.86285 0.950207 0
M  V30 58528 H 5418.86 6.54328 -0.391773 0
M  V30 58529 H 5418.38 5.87939 1.1869 0
M  V30 58530 H 5420.06 6.40561 0.910514 0
M  V30 58531 N 5420.19 -0.170098 1.56679 0
M  V30 58532 C 5421.61 -0.521913 1.50825 0
M  V30 58533 C 5421.81 -1.84586 0.808102 0
M  V30 58534 O 5420.86 -2.4979 0.368979 0
M  V30 58535 C 5422.18 -0.553544 2.95561 0
M  V30 58536 C 5423.73 -0.640661 3.06373 0
M  V30 58537 C 5424.2 -0.703173 4.5257 0
M  V30 58538 N 5425.69 -0.766029 4.56822 0
M  V30 58539 C 5426.43 -0.834993 5.67288 0
M  V30 58540 N 5425.92 -0.864716 6.87382 0
M  V30 58541 N 5427.72 -0.874106 5.55262 0
M  V30 58542 H 5419.87 0.698023 2.00603 0
M  V30 58543 H 5422.13 0.251819 0.913943 0
M  V30 58544 H 5421.84 0.350621 3.49948 0
M  V30 58545 H 5421.71 -1.39961 3.50273 0
M  V30 58546 H 5424.1 -1.53525 2.5202 0
M  V30 58547 H 5424.18 0.232098 2.54745 0
M  V30 58548 H 5423.82 0.187165 5.07555 0
M  V30 58549 H 5423.75 -1.59209 5.01956 0
M  V30 58550 H 5426.24 -0.751293 3.70357 0
M  V30 58551 H 5426.56 -0.918545 7.67322 0
M  V30 58552 H 5424.9 -0.832972 6.8999 0
M  V30 58553 H 5428.09 -0.847895 4.60357 0
M  V30 58554 H 5428.26 -0.924389 6.41373 0
M  V30 58555 N 5421.67 -1.51371 -0.438693 0
M  V30 58556 C 5422.62 -1.73159 -1.55302 0
M  V30 58557 C 5423.61 -0.597881 -1.58498 0
M  V30 58558 O 5424.82 -0.779227 -1.62259 0
M  V30 58559 H 5421.19 -0.547101 -0.515931 0
M  V30 58560 H 5423.16 -2.66571 -1.34099 0
M  V30 58561 C 5421.91 -1.87253 -2.9297 0
M  V30 58562 H 5421.24 -2.73894 -2.91242 0
M  V30 58563 H 5422.68 -2.0651 -3.7031 0
M  V30 58564 C 5421.14 -0.632003 -3.30919 0
M  V30 58565 O 5421.67 0.213958 -4.0113 0
M  V30 58566 N 5419.87 -0.476491 -2.86667 0
M  V30 58567 H 5419.42 -1.16597 -2.29702 0
M  V30 58568 H 5419.38 0.352293 -3.1242 0
M  V30 58569 N 5423.15 0.694048 -1.41495 0
M  V30 58570 C 5424.4 1.45122 -1.40655 0
M  V30 58571 C 5424.72 1.94993 -0.0170974 0
M  V30 58572 O 5423.99 1.71803 0.941312 0
M  V30 58573 H 5422.57 0.538475 -0.517739 0
M  V30 58574 H 5425.23 0.821379 -1.76747 0
M  V30 58575 H 5424.33 2.31365 -2.09468 0
M  V30 58576 N 5424.63 1.27348 0.928456 0
M  V30 58577 C 5425.56 1.05804 2.03318 0
M  V30 58578 C 5426.57 0.0143658 1.62794 0
M  V30 58579 O 5427.76 0.255842 1.76657 0
M  V30 58580 C 5424.86 0.58279 3.33851 0
M  V30 58581 C 5424.03 1.69858 4.03072 0
M  V30 58582 C 5423.09 1.2192 5.11881 0
M  V30 58583 O 5422.12 1.91872 5.35886 0
M  V30 58584 N 5423.32 0.0744433 5.80452 0
M  V30 58585 H 5426.09 2.00936 2.22362 0
M  V30 58586 H 5423.65 1.18904 1.09879 0
M  V30 58587 H 5425.64 0.246004 4.03952 0
M  V30 58588 H 5424.21 -0.27528 3.11386 0
M  V30 58589 H 5423.43 2.20569 3.26716 0
M  V30 58590 H 5424.72 2.44746 4.46068 0
M  V30 58591 H 5424.12 -0.509433 5.63402 0
M  V30 58592 H 5422.67 -0.20317 6.51483 0
M  V30 58593 N 5426.11 -1.13484 1.09357 0
M  V30 58594 C 5427.52 -1.36736 0.823134 0
M  V30 58595 C 5427.72 -1.93478 -0.562895 0
M  V30 58596 O 5426.78 -2.15379 -1.31789 0
M  V30 58597 C 5428.09 -2.31937 1.91379 0
M  V30 58598 C 5429.64 -2.45554 1.94094 0
M  V30 58599 C 5430.11 -3.44061 3.02301 0
M  V30 58600 N 5431.6 -3.51611 3.01536 0
M  V30 58601 C 5432.34 -4.27711 3.81905 0
M  V30 58602 N 5431.84 -5.0697 4.72179 0
M  V30 58603 N 5433.63 -4.23005 3.70167 0
M  V30 58604 H 5425.78 -0.75005 1.98716 0
M  V30 58605 H 5428.04 -0.392534 0.862914 0
M  V30 58606 H 5427.75 -1.97398 2.91079 0
M  V30 58607 H 5427.62 -3.31946 1.79142 0
M  V30 58608 H 5430.01 -2.79379 0.950332 0
M  V30 58609 H 5430.09 -1.45472 2.10408 0
M  V30 58610 H 5429.73 -3.10967 4.01574 0
M  V30 58611 H 5429.66 -4.43946 2.8323 0
M  V30 58612 H 5432.16 -2.95057 2.36113 0
M  V30 58613 H 5432.47 -5.62342 5.30087 0
M  V30 58614 H 5430.81 -5.06206 4.76215 0
M  V30 58615 H 5434 -3.6016 2.99002 0
M  V30 58616 H 5434.18 -4.82059 4.33039 0
M  V30 58617 N 5427.58 -0.880667 -1.30698 0
M  V30 58618 C 5428.83 -0.495963 -1.9592 0
M  V30 58619 C 5429.15 0.957154 -1.69893 0
M  V30 58620 O 5428.42 1.67241 -1.02016 0
M  V30 58621 H 5427 -0.180419 -0.724885 0
M  V30 58622 H 5429.66 -1.1228 -1.59309 0
M  V30 58623 H 5428.76 -0.662616 -3.04985 0
M  V30 58624 N 5429.06 1.43967 -0.641182 0
M  V30 58625 C 5430.29 2.06817 -0.15539 0
M  V30 58626 C 5430.71 1.47669 1.16513 0
M  V30 58627 O 5430.07 0.581981 1.71705 0
M  V30 58628 C 5430.12 3.60542 -0.0648804 0
M  V30 58629 O 5429.22 4.00677 0.976306 0
M  V30 58630 H 5428.56 0.657959 -0.0893636 0
M  V30 58631 H 5431.09 1.84675 -0.880704 0
M  V30 58632 H 5431.1 4.07816 0.122409 0
M  V30 58633 H 5429.78 4.02971 -1.02893 0
M  V30 58634 H 5428.35 3.65015 0.762777 0
M  V30 58635 N 5430.54 0.382345 1.52892 0
M  V30 58636 C 5431.79 -0.201663 2.01091 0
M  V30 58637 C 5432.11 -1.479 1.27085 0
M  V30 58638 O 5431.38 -1.92001 0.388897 0
M  V30 58639 H 5429.96 -0.0775111 0.742968 0
M  V30 58640 H 5432.62 0.512435 1.88043 0
M  V30 58641 H 5431.72 -0.41681 3.09304 0
M  V30 58642 N 5432.02 -1.57202 0.111969 0
M  V30 58643 C 5432.95 -2.11998 -0.871167 0
M  V30 58644 C 5433.96 -1.06106 -1.23472 0
M  V30 58645 O 5435.15 -1.33501 -1.18489 0
M  V30 58646 C 5432.25 -2.59882 -2.17519 0
M  V30 58647 C 5431.42 -3.89795 -1.98441 0
M  V30 58648 C 5430.48 -4.2335 -3.12509 0
M  V30 58649 O 5429.51 -4.92287 -2.85731 0
M  V30 58650 N 5430.71 -3.80105 -4.38749 0
M  V30 58651 H 5433.48 -2.96977 -0.403052 0
M  V30 58652 H 5431.04 -1.61737 -0.072659 0
M  V30 58653 H 5433.03 -2.79364 -2.9281 0
M  V30 58654 H 5431.6 -1.79821 -2.55701 0
M  V30 58655 H 5430.82 -3.79292 -1.07383 0
M  V30 58656 H 5432.11 -4.74755 -1.82991 0
M  V30 58657 H 5431.51 -3.24489 -4.63382 0
M  V30 58658 H 5430.06 -4.04709 -5.10935 0
M  V30 58659 N 5433.5 0.161787 -1.56767 0
M  V30 58660 C 5434.91 0.723324 -1.72119 0
M  V30 58661 C 5435.26 1.82352 -0.724025 0
M  V30 58662 O 5434.38 2.16107 0.112567 0
M  V30 58663 C 5434.98 1.31884 -3.12077 0
M  V30 58664 C 5433.54 1.8271 -3.2908 0
M  V30 58665 C 5432.68 0.709769 -2.68063 0
M  V30 58666 H 5435.63 -0.0637204 -1.58572 0
M  V30 58667 H 5435.66 2.1886 -3.11256 0
M  V30 58668 H 5435.17 0.517875 -3.84629 0
M  V30 58669 H 5433.27 2.65421 -2.61501 0
M  V30 58670 H 5433.38 1.96599 -4.36905 0
M  V30 58671 H 5431.75 1.13265 -2.2813 0
M  V30 58672 H 5432.53 -0.0795091 -3.43208 0
M  V30 58673 N 5434.97 1.51602 0.430659 0
M  V30 58674 C 5436.25 1.55146 1.19118 0
M  V30 58675 C 5436.63 0.319669 2.08666 0
M  V30 58676 O 5435.98 -0.69485 2.17679 0
M  V30 58677 C 5436.19 2.86898 1.98722 0
M  V30 58678 C 5437.54 3.39098 2.55534 0
M  V30 58679 O 5438.56 2.88493 2.08926 0
M  V30 58680 O 5437.42 4.27413 3.40559 0
M  V30 58681 H 5434.51 0.624038 0.542683 0
M  V30 58682 H 5437.06 1.63918 0.439186 0
M  V30 58683 H 5435.83 3.68007 1.32992 0
M  V30 58684 H 5435.45 2.81319 2.80972 0
M  V30 58685 N 5436.45 -0.686534 1.41861 0
M  V30 58686 C 5437.68 -1.47514 1.45077 0
M  V30 58687 C 5438.09 -1.88709 0.0586531 0
M  V30 58688 O 5437.45 -1.57377 -0.92406 0
M  V30 58689 C 5437.5 -2.73186 2.36752 0
M  V30 58690 O 5437.22 -2.33723 3.70547 0
M  V30 58691 C 5438.72 -3.66852 2.48867 0
M  V30 58692 H 5435.94 -0.45429 0.493824 0
M  V30 58693 H 5438.49 -0.844547 1.86246 0
M  V30 58694 H 5436.64 -3.32461 1.98868 0
M  V30 58695 H 5437.06 -3.14794 4.1953 0
M  V30 58696 H 5438.53 -4.5179 3.17159 0
M  V30 58697 H 5439.01 -4.11956 1.52279 0
M  V30 58698 H 5439.61 -3.13476 2.87425 0
M  V30 58699 N 5437.93 -1.27838 -0.92169 0
M  V30 58700 C 5439.15 -1.17471 -1.70925 0
M  V30 58701 C 5439.58 0.264105 -1.86237 0
M  V30 58702 O 5438.94 1.1912 -1.36676 0
M  V30 58703 C 5438.99 -1.86981 -3.08335 0
M  V30 58704 O 5438.09 -1.17187 -3.954 0
M  V30 58705 H 5437.43 -0.408225 -0.523687 0
M  V30 58706 H 5439.96 -1.69017 -1.15301 0
M  V30 58707 H 5439.97 -1.94576 -3.58614 0
M  V30 58708 H 5438.65 -2.91643 -2.96508 0
M  V30 58709 H 5437.22 -1.17701 -3.53837 0
M  V30 58710 N 5439.41 1.12903 -1.09958 0
M  V30 58711 C 5440.37 2.1667 -0.74744 0
M  V30 58712 C 5441.37 1.59208 0.225685 0
M  V30 58713 O 5442.56 1.742 0.00316358 0
M  V30 58714 C 5439.69 3.40734 -0.106289 0
M  V30 58715 H 5440.89 2.49335 -1.66649 0
M  V30 58716 H 5438.44 1.27825 -0.899466 0
M  V30 58717 H 5439.17 3.13664 0.82373 0
M  V30 58718 H 5438.96 3.83715 -0.806569 0
M  V30 58719 H 5440.45 4.17414 0.124493 0
M  V30 58720 N 5440.89 0.887586 1.30229 0
M  V30 58721 C 5442.13 0.506346 1.95654 0
M  V30 58722 C 5442.46 -0.948131 1.70398 0
M  V30 58723 O 5441.73 -1.66698 1.02901 0
M  V30 58724 H 5440.31 0.184261 0.723918 0
M  V30 58725 H 5442.97 1.13123 1.58711 0
M  V30 58726 H 5442.06 0.67878 3.04629 0
M  V30 58727 N 5442.36 -1.43625 0.648807 0
M  V30 58728 C 5443.31 -2.32529 -0.0574543 0
M  V30 58729 C 5444.31 -1.48361 -0.817647 0
M  V30 58730 O 5445.51 -1.64597 -0.728547 0
M  V30 58731 H 5441.89 -0.751071 -0.0373616 0
M  V30 58732 H 5443.86 -2.89826 0.710164 0
M  V30 58733 C 5442.61 -3.32609 -1.01324 0
M  V30 58734 H 5441.93 -3.97397 -0.437715 0
M  V30 58735 H 5443.37 -3.97458 -1.47658 0
M  V30 58736 C 5441.83 -2.62872 -2.10713 0
M  V30 58737 O 5442.36 -2.44091 -3.19033 0
M  V30 58738 N 5440.57 -2.22319 -1.87144 0
M  V30 58739 H 5440.11 -2.37793 -0.990561 0
M  V30 58740 H 5440.07 -1.75988 -2.6053 0
M  V30 58741 N 5443.84 -0.390448 -1.52687 0
M  V30 58742 C 5445.07 0.19394 -2.06491 0
M  V30 58743 C 5445.49 1.39646 -1.26019 0
M  V30 58744 O 5444.85 1.79037 -0.285531 0
M  V30 58745 C 5444.9 0.541181 -3.56516 0
M  V30 58746 O 5444 1.63496 -3.78606 0
M  V30 58747 H 5443.34 0.0223374 -0.663624 0
M  V30 58748 H 5445.87 -0.558249 -1.96837 0
M  V30 58749 H 5445.88 0.80516 -3.99976 0
M  V30 58750 H 5444.56 -0.337974 -4.14524 0
M  V30 58751 H 5443.14 1.36461 -3.47034 0
M  V30 58752 N 5445.32 1.5714 -0.120304 0
M  V30 58753 C 5446.25 2.111 0.866726 0
M  V30 58754 C 5447.23 1.02773 1.26002 0
M  V30 58755 O 5448.42 1.30435 1.36084 0
M  V30 58756 C 5445.54 2.60878 2.1601 0
M  V30 58757 C 5444.59 3.81102 1.91477 0
M  V30 58758 S 5445.42 5.23445 1.12987 0
M  V30 58759 C 5446.58 5.76592 2.43501 0
M  V30 58760 H 5446.81 2.9449 0.407768 0
M  V30 58761 H 5444.34 1.54117 0.0934949 0
M  V30 58762 H 5446.3 2.90211 2.90323 0
M  V30 58763 H 5444.96 1.77667 2.59024 0
M  V30 58764 H 5444.16 4.14085 2.87315 0
M  V30 58765 H 5443.76 3.52391 1.25285 0
M  V30 58766 H 5446.05 5.86396 3.39332 0
M  V30 58767 H 5446.99 6.74651 2.15061 0
M  V30 58768 H 5447.4 5.04666 2.52928 0
M  V30 58769 N 5446.8 -0.153471 1.56851 0
M  V30 58770 C 5447.73 -1.19155 2.00809 0
M  V30 58771 C 5448.71 -1.45169 0.886569 0
M  V30 58772 O 5449.89 -1.56199 1.15392 0
M  V30 58773 C 5447.02 -2.52628 2.3832 0
M  V30 58774 C 5445.98 -2.41149 3.53597 0
M  V30 58775 C 5445.3 -3.79274 3.76902 0
M  V30 58776 C 5446.6 -1.90105 4.86474 0
M  V30 58777 H 5448.3 -0.826069 2.87778 0
M  V30 58778 H 5445.84 -0.395923 1.3845 0
M  V30 58779 H 5447.8 -3.25469 2.67671 0
M  V30 58780 H 5446.52 -2.90999 1.4828 0
M  V30 58781 H 5445.18 -1.70761 3.24401 0
M  V30 58782 H 5444.83 -4.15069 2.84124 0
M  V30 58783 H 5444.53 -3.72456 4.54478 0
M  V30 58784 H 5446.05 -4.53673 4.08673 0
M  V30 58785 H 5447.47 -2.52734 5.14586 0
M  V30 58786 H 5445.86 -1.94194 5.6781 0
M  V30 58787 H 5446.93 -0.856349 4.77278 0
M  V30 58788 N 5448.28 -1.51828 -0.422613 0
M  V30 58789 C 5449.22 -1.74797 -1.53456 0
M  V30 58790 C 5450.22 -0.614658 -1.57855 0
M  V30 58791 O 5451.42 -0.796393 -1.61424 0
M  V30 58792 H 5447.8 -0.552542 -0.510099 0
M  V30 58793 H 5449.77 -2.67978 -1.31264 0
M  V30 58794 C 5448.52 -1.9035 -2.90968 0
M  V30 58795 H 5447.84 -2.76968 -2.88321 0
M  V30 58796 H 5449.28 -2.10426 -3.68099 0
M  V30 58797 C 5447.74 -0.667066 -3.3023 0
M  V30 58798 O 5448.27 0.171401 -4.01334 0
M  V30 58799 N 5446.48 -0.506869 -2.86145 0
M  V30 58800 H 5446.02 -1.19027 -2.28452 0
M  V30 58801 H 5445.98 0.319137 -3.12776 0
M  V30 58802 N 5449.75 0.679002 -1.42223 0
M  V30 58803 C 5451 1.4412 -1.42679 0
M  V30 58804 C 5451.33 1.94156 -0.0415062 0
M  V30 58805 O 5450.61 1.70631 0.93355 0
M  V30 58806 C 5450.89 2.64125 -2.44766 0
M  V30 58807 C 5450.74 2.19748 -3.92468 0
M  V30 58808 C 5452.06 3.66339 -2.43894 0
M  V30 58809 H 5449.18 0.522711 -0.51956 0
M  V30 58810 H 5451.82 0.772006 -1.73609 0
M  V30 58811 H 5449.97 3.21218 -2.18521 0
M  V30 58812 H 5451.65 1.67854 -4.29677 0
M  V30 58813 H 5449.89 1.51363 -4.06536 0
M  V30 58814 H 5450.56 3.05928 -4.5947 0
M  V30 58815 H 5453.04 3.18954 -2.67223 0
M  V30 58816 H 5451.91 4.47891 -3.17308 0
M  V30 58817 H 5452.17 4.17177 -1.4634 0
M  V30 58818 N 5451.23 1.28325 0.914897 0
M  V30 58819 C 5452.16 1.14688 2.03394 0
M  V30 58820 C 5453.14 0.0449537 1.70041 0
M  V30 58821 O 5454.33 0.22174 1.9293 0
M  V30 58822 C 5451.46 0.806741 3.378 0
M  V30 58823 C 5450.41 1.86331 3.85311 0
M  V30 58824 C 5449.74 1.37684 5.16669 0
M  V30 58825 C 5451.04 3.26967 4.07296 0
M  V30 58826 H 5452.73 2.08301 2.15061 0
M  V30 58827 H 5450.28 1.00288 1.03336 0
M  V30 58828 H 5452.23 0.698106 4.15577 0
M  V30 58829 H 5450.96 -0.165088 3.26182 0
M  V30 58830 H 5449.61 1.96107 3.09738 0
M  V30 58831 H 5449.26 0.394103 5.01454 0
M  V30 58832 H 5448.96 2.08333 5.49428 0
M  V30 58833 H 5450.49 1.2814 5.97003 0
M  V30 58834 H 5451.9 3.20119 4.75602 0
M  V30 58835 H 5450.3 3.9544 4.51384 0
M  V30 58836 H 5451.37 3.7107 3.12146 0
M  V30 58837 N 5452.71 -1.12318 1.10555 0
M  V30 58838 C 5453.94 -1.87676 0.870936 0
M  V30 58839 C 5454.35 -1.79713 -0.57867 0
M  V30 58840 O 5453.71 -1.1719 -1.39903 0
M  V30 58841 C 5453.76 -3.36842 1.31225 0
M  V30 58842 O 5453.48 -3.44616 2.70502 0
M  V30 58843 C 5454.98 -4.29134 1.11171 0
M  V30 58844 H 5452.2 -0.593777 0.312521 0
M  V30 58845 H 5454.75 -1.42111 1.47053 0
M  V30 58846 H 5452.9 -3.79946 0.756303 0
M  V30 58847 H 5453.32 -4.3743 2.89404 0
M  V30 58848 H 5454.79 -5.32077 1.46963 0
M  V30 58849 H 5455.27 -4.39171 0.0504507 0
M  V30 58850 H 5455.87 -3.91812 1.65419 0
M  V30 58851 N 5454.19 -0.89448 -1.29757 0
M  V30 58852 C 5455.12 -0.312886 -2.26045 0
M  V30 58853 C 5456.1 0.571971 -1.52208 0
M  V30 58854 O 5457.28 0.519946 -1.81187 0
M  V30 58855 C 5454.41 0.554507 -3.3413 0
M  V30 58856 C 5453.46 -0.262317 -4.25693 0
M  V30 58857 S 5454.29 -1.65674 -5.09227 0
M  V30 58858 C 5455.45 -0.796132 -6.20816 0
M  V30 58859 H 5455.68 -1.12904 -2.75027 0
M  V30 58860 H 5453.21 -0.694494 -1.37899 0
M  V30 58861 H 5455.17 1.04919 -3.96866 0
M  V30 58862 H 5453.83 1.34485 -2.83853 0
M  V30 58863 H 5453.02 0.400039 -5.0241 0
M  V30 58864 H 5452.63 -0.689958 -3.67581 0
M  V30 58865 H 5454.92 -0.0172324 -6.77498 0
M  V30 58866 H 5455.86 -1.53522 -6.91257 0
M  V30 58867 H 5456.27 -0.352828 -5.63396 0
M  V30 58868 N 5455.67 1.43279 -0.656415 0
M  V30 58869 C 5456.6 2.28049 0.0830468 0
M  V30 58870 C 5457.58 1.40012 0.826763 0
M  V30 58871 O 5458.76 1.69455 0.825676 0
M  V30 58872 C 5455.89 3.19491 1.12441 0
M  V30 58873 C 5454.94 4.23809 0.478378 0
M  V30 58874 S 5455.77 5.30216 -0.750434 0
M  V30 58875 C 5456.92 6.25226 0.290314 0
M  V30 58876 H 5457.16 2.90417 -0.636024 0
M  V30 58877 H 5454.69 1.47838 -0.445355 0
M  V30 58878 H 5456.65 3.72719 1.72021 0
M  V30 58879 H 5455.31 2.56295 1.81582 0
M  V30 58880 H 5454.5 4.87905 1.26351 0
M  V30 58881 H 5454.1 3.73975 -0.0433825 0
M  V30 58882 H 5456.4 6.67573 1.15556 0
M  V30 58883 H 5457.34 7.07396 -0.315707 0
M  V30 58884 H 5457.75 5.61001 0.627554 0
M  V30 58885 N 5457.15 0.398539 1.52478 0
M  V30 58886 C 5458.38 -0.180223 2.05812 0
M  V30 58887 C 5458.78 -1.40297 1.26939 0
M  V30 58888 O 5458.13 -1.81038 0.311607 0
M  V30 58889 C 5458.19 -0.605885 3.54358 0
M  V30 58890 C 5457.85 0.504667 4.54205 0
M  V30 58891 C 5458.85 1.36496 5.01662 0
M  V30 58892 C 5456.53 0.674336 4.97753 0
M  V30 58893 C 5458.53 2.37996 5.91301 0
M  V30 58894 C 5456.22 1.69266 5.8719 0
M  V30 58895 C 5457.21 2.54389 6.33858 0
M  V30 58896 O 5456.9 3.54479 7.21526 0
M  V30 58897 H 5456.63 -0.0286159 0.675394 0
M  V30 58898 H 5459.19 0.564981 1.97477 0
M  V30 58899 H 5457.42 -1.40321 3.60343 0
M  V30 58900 H 5459.11 -1.11136 3.90389 0
M  V30 58901 H 5459.87 1.24523 4.68742 0
M  V30 58902 H 5455.75 0.0214649 4.60995 0
M  V30 58903 H 5459.3 3.04472 6.27648 0
M  V30 58904 H 5455.19 1.81274 6.19524 0
M  V30 58905 H 5455.96 3.50597 7.39611 0
M  V30 58906 N 5458.62 -1.57074 0.128636 0
M  V30 58907 C 5459.87 -1.95136 -0.525978 0
M  V30 58908 C 5460.19 -1.01343 -1.66597 0
M  V30 58909 O 5459.46 -0.0715049 -1.95769 0
M  V30 58910 H 5458.04 -0.720475 -0.197295 0
M  V30 58911 H 5460.7 -1.93873 0.199835 0
M  V30 58912 H 5459.8 -2.9841 -0.914228 0
M  V30 58913 N 5460.1 0.14515 -1.5693 0
M  V30 58914 C 5461.35 0.857451 -1.8345 0
M  V30 58915 C 5461.68 1.81086 -0.709803 0
M  V30 58916 O 5460.93 1.93371 0.301029 0
M  V30 58917 C 5461.23 1.6638 -3.16311 0
M  V30 58918 C 5460.9 0.857016 -4.42681 0
M  V30 58919 C 5459.56 0.634444 -4.76999 0
M  V30 58920 C 5461.91 0.292922 -5.20376 0
M  V30 58921 C 5459.24 -0.162899 -5.86474 0
M  V30 58922 C 5461.59 -0.49147 -6.30688 0
M  V30 58923 C 5460.25 -0.724601 -6.63555 0
M  V30 58924 H 5459.52 0.313764 -0.671292 0
M  V30 58925 H 5462.17 0.121007 -1.91117 0
M  V30 58926 H 5460.48 2.4704 -3.04103 0
M  V30 58927 H 5462.17 2.21843 -3.34046 0
M  V30 58928 H 5458.76 1.04056 -4.15777 0
M  V30 58929 H 5462.95 0.452152 -4.94236 0
M  V30 58930 H 5458.2 -0.353002 -6.1038 0
M  V30 58931 H 5462.38 -0.935692 -6.90085 0
M  V30 58932 H 5460 -1.34429 -7.4822 0
M  V30 58933 N 5461.58 1.5205 0.414556 0
M  V30 58934 C 5462.82 1.67516 1.17123 0
M  V30 58935 C 5463.18 0.393897 1.87916 0
M  V30 58936 O 5464.38 0.424589 2.65425 0
M  V30 58937 C 5462.66 2.8599 2.14347 0
M  V30 58938 S 5464.21 3.21909 2.98195 0
M  V30 58939 H 5461.03 0.589937 0.396857 0
M  V30 58940 H 5463.63 1.90027 0.459342 0
M  V30 58941 H 5462.34 3.77494 1.61017 0
M  V30 58942 H 5461.87 2.65736 2.90083 0
M  V30 58943 H 5463.88 2.7011 4.16239 0
M  V30 58944 N 5463.06 -0.67145 1.42581 0
M  V30 58945 C 5463.97 -1.81429 1.4873 0
M  V30 58946 C 5464.98 -1.69894 0.375775 0
M  V30 58947 O 5466.16 -1.91385 0.627182 0
M  V30 58948 C 5463.22 -3.17595 1.39049 0
M  V30 58949 C 5462.29 -3.41062 2.60721 0
M  V30 58950 C 5461.52 -4.70731 2.51492 0
M  V30 58951 O 5461.74 -5.48862 1.55262 0
M  V30 58952 O 5460.68 -4.95516 3.41683 0
M  V30 58953 H 5464.5 -1.79198 2.45198 0
M  V30 58954 H 5462.09 -0.827623 1.24382 0
M  V30 58955 H 5463.97 -3.98842 1.36025 0
M  V30 58956 H 5462.64 -3.20457 0.457078 0
M  V30 58957 H 5461.55 -2.59649 2.6932 0
M  V30 58958 H 5462.88 -3.43033 3.52972 0
M  V30 58959 N 5464.54 -1.28809 -0.908079 0
M  V30 58960 C 5465.76 -1.19277 -1.6967 0
M  V30 58961 C 5466.19 0.244338 -1.86506 0
M  V30 58962 O 5465.54 1.17663 -1.37931 0
M  V30 58963 C 5465.59 -1.90241 -3.06335 0
M  V30 58964 O 5464.7 -1.21374 -3.94135 0
M  V30 58965 H 5464.04 -0.413756 -0.519328 0
M  V30 58966 H 5466.57 -1.70231 -1.13502 0
M  V30 58967 H 5466.58 -1.98369 -3.5653 0
M  V30 58968 H 5465.25 -2.94772 -2.93398 0
M  V30 58969 H 5463.83 -1.21447 -3.52569 0
M  V30 58970 N 5466.01 1.1173 -1.11149 0
M  V30 58971 C 5467.24 1.87212 -0.880877 0
M  V30 58972 C 5467.66 1.80018 0.569131 0
M  V30 58973 O 5467.01 1.1793 1.39279 0
M  V30 58974 C 5467.06 3.36141 -1.3301 0
M  V30 58975 O 5466.79 3.43177 -2.72325 0
M  V30 58976 C 5468.29 4.28538 -1.13446 0
M  V30 58977 H 5465.51 0.592112 -0.315666 0
M  V30 58978 H 5468.05 1.41329 -1.47805 0
M  V30 58979 H 5466.21 3.79539 -0.776442 0
M  V30 58980 H 5466.62 4.3589 -2.9172 0
M  V30 58981 H 5468.09 5.3129 -1.49783 0
M  V30 58982 H 5468.57 4.39138 -0.0737403 0
M  V30 58983 H 5469.18 3.90929 -1.67494 0
M  V30 58984 N 5467.49 0.901349 1.29281 0
M  V30 58985 C 5468.74 0.527069 1.95106 0
M  V30 58986 C 5469.06 -0.930004 1.71394 0
M  V30 58987 O 5468.33 -1.65597 1.04663 0
M  V30 58988 H 5466.91 0.191929 0.721923 0
M  V30 58989 H 5469.57 1.148 1.57502 0
M  V30 58990 H 5468.67 0.711052 3.03892 0
M  V30 58991 N 5468.97 -1.42929 0.664004 0
M  V30 58992 C 5470.22 -2.01981 0.182078 0
M  V30 58993 C 5470.55 -1.52327 -1.20458 0
M  V30 58994 O 5469.82 -0.720897 -1.80647 0
M  V30 58995 C 5470.11 -3.59517 0.204798 0
M  V30 58996 C 5469.96 -4.19377 1.62614 0
M  V30 58997 C 5471.28 -4.37763 -0.452926 0
M  V30 58998 H 5468.4 -0.73389 0.0676373 0
M  V30 58999 H 5471.04 -1.70089 0.84674 0
M  V30 59000 H 5469.19 -3.86818 -0.361159 0
M  V30 59001 H 5470.86 -4.03068 2.24351 0
M  V30 59002 H 5469.11 -3.75616 2.17014 0
M  V30 59003 H 5469.78 -5.2849 1.59381 0
M  V30 59004 H 5472.25 -4.1609 0.0287237 0
M  V30 59005 H 5471.13 -5.47394 -0.406346 0
M  V30 59006 H 5471.39 -4.14825 -1.52881 0
M  V30 59007 N 5470.45 -0.40662 -1.52264 0
M  V30 59008 C 5471.86 0.0635414 -1.86592 0
M  V30 59009 C 5472.21 1.44655 -1.32549 0
M  V30 59010 O 5471.34 2.05969 -0.663764 0
M  V30 59011 C 5471.93 0.122079 -3.3858 0
M  V30 59012 C 5470.49 0.53657 -3.72556 0
M  V30 59013 C 5469.64 -0.290518 -2.75774 0
M  V30 59014 H 5472.59 -0.62379 -1.45927 0
M  V30 59015 H 5472.61 0.937834 -3.68761 0
M  V30 59016 H 5472.12 -0.884628 -3.77884 0
M  V30 59017 H 5470.22 1.55001 -3.3883 0
M  V30 59018 H 5470.33 0.282699 -4.78265 0
M  V30 59019 H 5468.7 0.246775 -2.53502 0
M  V30 59020 H 5469.48 -1.29553 -3.17917 0
M  V30 59021 N 5471.93 1.57004 -0.136964 0
M  V30 59022 C 5473.16 1.99868 0.523106 0
M  V30 59023 C 5473.56 1.0159 1.59612 0
M  V30 59024 O 5472.91 0.00332884 1.837 0
M  V30 59025 C 5472.97 3.39161 1.19205 0
M  V30 59026 C 5472.63 4.56232 0.264839 0
M  V30 59027 C 5473.63 5.17455 -0.503594 0
M  V30 59028 C 5471.32 5.0201 0.17067 0
M  V30 59029 C 5473.31 6.22858 -1.35375 0
M  V30 59030 C 5471 6.0727 -0.683098 0
M  V30 59031 C 5471.99 6.67563 -1.44392 0
M  V30 59032 O 5471.68 7.70787 -2.28348 0
M  V30 59033 H 5471.41 0.66101 0.14157 0
M  V30 59034 H 5473.97 2.04158 -0.225517 0
M  V30 59035 H 5472.2 3.31679 1.98811 0
M  V30 59036 H 5473.89 3.66198 1.75083 0
M  V30 59037 H 5474.65 4.82993 -0.440817 0
M  V30 59038 H 5470.53 4.54816 0.752584 0
M  V30 59039 H 5474.08 6.69848 -1.94807 0
M  V30 59040 H 5469.97 6.41161 -0.747203 0
M  V30 59041 H 5470.74 7.87963 -2.21486 0
M  V30 59042 N 5473.4 -0.136826 1.57005 0
M  V30 59043 C 5474.35 -1.16862 1.99028 0
M  V30 59044 C 5475.32 -1.42134 0.859485 0
M  V30 59045 O 5476.51 -1.54299 1.12234 0
M  V30 59046 C 5473.65 -2.49458 2.38463 0
M  V30 59047 C 5472.76 -2.31273 3.64879 0
M  V30 59048 C 5471.89 -3.56975 3.93373 0
M  V30 59049 C 5470.93 -3.33871 5.13027 0
M  V30 59050 N 5470.07 -4.51729 5.3748 0
M  V30 59051 H 5474.91 -0.803265 2.8697 0
M  V30 59052 H 5472.45 -0.385166 1.41968 0
M  V30 59053 H 5474.41 -3.26785 2.59359 0
M  V30 59054 H 5473.04 -2.83921 1.53587 0
M  V30 59055 H 5472.09 -1.4495 3.51701 0
M  V30 59056 H 5473.4 -2.10167 4.52362 0
M  V30 59057 H 5472.55 -4.42728 4.14822 0
M  V30 59058 H 5471.29 -3.81095 3.04331 0
M  V30 59059 H 5470.3 -2.46507 4.91441 0
M  V30 59060 H 5471.52 -3.11139 6.0363 0
M  V30 59061 H 5469.47 -4.76004 4.51394 0
M  V30 59062 H 5469.39 -4.33663 6.19252 0
M  V30 59063 H 5470.65 -5.38666 5.63435 0
M  V30 59064 N 5474.88 -1.52268 -0.406486 0
M  V30 59065 C 5476.11 -1.70602 -1.17939 0
M  V30 59066 C 5476.53 -0.415857 -1.83445 0
M  V30 59067 O 5475.89 0.626908 -1.70116 0
M  V30 59068 C 5475.94 -2.84457 -2.21623 0
M  V30 59069 O 5475.04 -2.5021 -3.27824 0
M  V30 59070 H 5474.38 -0.567849 -0.344157 0
M  V30 59071 H 5476.91 -1.98983 -0.476141 0
M  V30 59072 H 5476.92 -3.09446 -2.65908 0
M  V30 59073 H 5475.6 -3.78061 -1.73328 0
M  V30 59074 H 5474.18 -2.35902 -2.88799 0
M  V30 59075 N 5476.36 0.663879 -1.42935 0
M  V30 59076 C 5477.61 1.42387 -1.43986 0
M  V30 59077 C 5477.94 1.94407 -0.0602486 0
M  V30 59078 O 5477.19 1.72022 0.933112 0
M  V30 59079 C 5477.49 2.62967 -2.42039 0
M  V30 59080 C 5477.16 2.29428 -3.88167 0
M  V30 59081 C 5475.82 2.19992 -4.27968 0
M  V30 59082 C 5478.17 2.02396 -4.80297 0
M  V30 59083 C 5475.5 1.81666 -5.57866 0
M  V30 59084 C 5477.85 1.65571 -6.10548 0
M  V30 59085 C 5476.51 1.54653 -6.49337 0
M  V30 59086 H 5475.78 0.521033 -0.526883 0
M  V30 59087 H 5478.43 0.755981 -1.75947 0
M  V30 59088 H 5476.74 3.34839 -2.03445 0
M  V30 59089 H 5478.43 3.21165 -2.40112 0
M  V30 59090 H 5475.02 2.37678 -3.56661 0
M  V30 59091 H 5479.21 2.08613 -4.50327 0
M  V30 59092 H 5474.46 1.71791 -5.86769 0
M  V30 59093 H 5478.64 1.43683 -6.81416 0
M  V30 59094 H 5476.26 1.24726 -7.49898 0
M  V30 59095 N 5477.84 1.29288 0.901235 0
M  V30 59096 C 5478.79 1.14166 2.02655 0
M  V30 59097 C 5479.78 0.0576482 1.69302 0
M  V30 59098 O 5480.99 0.217336 1.78683 0
M  V30 59099 H 5477.36 0.352608 0.664208 0
M  V30 59100 H 5479.33 2.09442 2.12548 0
M  V30 59101 C 5478.08 0.833371 3.37565 0
M  V30 59102 H 5477.4 1.65951 3.63731 0
M  V30 59103 H 5478.84 0.767583 4.16994 0
M  V30 59104 C 5477.3 -0.463323 3.33699 0
M  V30 59105 O 5477.83 -1.48985 3.7305 0
M  V30 59106 N 5476.04 -0.468608 2.86797 0
M  V30 59107 H 5475.59 0.367209 2.54969 0
M  V30 59108 H 5475.54 -1.3362 2.84593 0
M  V30 59109 N 5479.32 -1.11139 1.1174 0
M  V30 59110 C 5480.73 -1.34959 0.851953 0
M  V30 59111 C 5480.93 -1.94628 -0.521728 0
M  V30 59112 O 5479.99 -2.18126 -1.27191 0
M  V30 59113 C 5481.3 -2.27825 1.96256 0
M  V30 59114 C 5482.85 -2.41381 1.99259 0
M  V30 59115 C 5483.32 -3.37571 3.09531 0
M  V30 59116 N 5484.82 -3.45136 3.08926 0
M  V30 59117 C 5485.55 -4.19514 3.90891 0
M  V30 59118 N 5485.05 -4.96841 4.82826 0
M  V30 59119 N 5486.84 -4.15058 3.79056 0
M  V30 59120 H 5478.99 -0.707731 2.00262 0
M  V30 59121 H 5481.25 -0.374142 0.871046 0
M  V30 59122 H 5480.96 -1.91179 2.95201 0
M  V30 59123 H 5480.83 -3.28071 1.86143 0
M  V30 59124 H 5483.22 -2.773 1.00938 0
M  V30 59125 H 5483.3 -1.40976 2.13447 0
M  V30 59126 H 5482.95 -3.02379 4.0808 0
M  V30 59127 H 5482.88 -4.37839 2.92583 0
M  V30 59128 H 5485.37 -2.89983 2.42319 0
M  V30 59129 H 5485.68 -5.50971 5.41895 0
M  V30 59130 H 5484.02 -4.9599 4.86845 0
M  V30 59131 H 5487.22 -3.53737 3.06574 0
M  V30 59132 H 5487.39 -4.72766 4.43167 0
M  V30 59133 N 5480.79 -0.908192 -1.28801 0
M  V30 59134 C 5482.04 -0.53927 -1.95499 0
M  V30 59135 C 5482.37 0.913698 -1.71363 0
M  V30 59136 O 5481.65 1.649 -1.03142 0
M  V30 59137 C 5481.93 -0.842495 -3.50106 0
M  V30 59138 C 5481.78 -2.34779 -3.83665 0
M  V30 59139 C 5483.1 -0.334813 -4.38825 0
M  V30 59140 H 5480.22 -0.197398 -0.710073 0
M  V30 59141 H 5482.86 -1.13642 -1.52268 0
M  V30 59142 H 5481.01 -0.334279 -3.87059 0
M  V30 59143 H 5482.69 -2.92619 -3.56611 0
M  V30 59144 H 5480.93 -2.80505 -3.30907 0
M  V30 59145 H 5481.6 -2.51051 -4.91607 0
M  V30 59146 H 5484.08 -0.770105 -4.08911 0
M  V30 59147 H 5482.95 -0.576106 -5.45868 0
M  V30 59148 H 5483.21 0.764725 -4.35436 0
M  V30 59149 N 5482.27 1.42575 -0.671575 0
M  V30 59150 C 5483.24 2.292 -0.000473057 0
M  V30 59151 C 5484.24 1.4316 0.732243 0
M  V30 59152 O 5485.43 1.64585 0.570731 0
M  V30 59153 C 5482.56 3.25594 1.01001 0
M  V30 59154 H 5483.75 2.90035 -0.762885 0
M  V30 59155 H 5481.3 1.50161 -0.433756 0
M  V30 59156 H 5482.04 2.69692 1.80103 0
M  V30 59157 H 5481.82 3.89051 0.488047 0
M  V30 59158 H 5483.31 3.90566 1.4781 0
M  V30 59159 N 5483.75 0.414689 1.52046 0
M  V30 59160 C 5485.17 0.0658366 1.59464 0
M  V30 59161 C 5485.37 -1.42245 1.42718 0
M  V30 59162 O 5484.42 -2.18991 1.25694 0
M  V30 59163 C 5485.74 0.565721 2.9533 0
M  V30 59164 C 5487.28 0.524181 3.0858 0
M  V30 59165 C 5487.76 1.00067 4.46935 0
M  V30 59166 N 5489.25 0.957715 4.53191 0
M  V30 59167 C 5489.99 1.29752 5.58527 0
M  V30 59168 N 5489.48 1.70907 6.71389 0
M  V30 59169 N 5491.27 1.21714 5.48764 0
M  V30 59170 H 5483.43 1.38331 1.61178 0
M  V30 59171 H 5485.69 0.568619 0.758536 0
M  V30 59172 H 5485.39 1.60615 3.12883 0
M  V30 59173 H 5485.27 -0.0216409 3.77194 0
M  V30 59174 H 5487.66 -0.507216 2.90708 0
M  V30 59175 H 5487.74 1.14767 2.28609 0
M  V30 59176 H 5487.38 2.03042 4.6555 0
M  V30 59177 H 5487.31 0.353938 5.25409 0
M  V30 59178 H 5489.8 0.655211 3.72177 0
M  V30 59179 H 5490.11 1.95132 7.47759 0
M  V30 59180 H 5488.46 1.74815 6.72655 0
M  V30 59181 H 5491.65 0.894447 4.59475 0
M  V30 59182 H 5491.82 1.48526 6.30749 0
M  V30 59183 N 5485.23 -1.56929 0.145288 0
M  V30 59184 C 5486.48 -1.95245 -0.506204 0
M  V30 59185 C 5486.79 -1.03255 -1.66125 0
M  V30 59186 O 5488 -1.31143 -2.37726 0
M  V30 59187 C 5486.45 -3.47083 -0.95192 0
M  V30 59188 C 5486.06 -4.47654 0.176104 0
M  V30 59189 C 5487.81 -3.94268 -1.5733 0
M  V30 59190 C 5485.71 -5.90699 -0.287785 0
M  V30 59191 H 5484.64 -0.728913 -0.192877 0
M  V30 59192 H 5487.29 -1.82061 0.229359 0
M  V30 59193 H 5485.68 -3.55593 -1.74269 0
M  V30 59194 H 5486.85 -4.50837 0.953006 0
M  V30 59195 H 5485.16 -4.10375 0.705785 0
M  V30 59196 H 5487.76 -4.98577 -1.93197 0
M  V30 59197 H 5488.1 -3.35723 -2.46162 0
M  V30 59198 H 5488.64 -3.88668 -0.847456 0
M  V30 59199 H 5485.38 -6.53059 0.565119 0
M  V30 59200 H 5484.9 -5.9088 -1.0306 0
M  V30 59201 H 5486.58 -6.4275 -0.74036 0
M  V30 59202 N 5486.71 0.128498 -1.57075 0
M  V30 59203 C 5487.66 1.16366 -1.96069 0
M  V30 59204 C 5488.64 1.37576 -0.834371 0
M  V30 59205 O 5489.83 1.38827 -1.098 0
M  V30 59206 C 5486.96 2.49268 -2.36051 0
M  V30 59207 C 5486.05 2.31574 -3.55295 0
M  V30 59208 N 5486.44 1.83671 -4.71273 0
M  V30 59209 C 5484.74 2.62263 -3.60741 0
M  V30 59210 C 5485.44 1.79459 -5.53326 0
M  V30 59211 N 5484.41 2.23456 -4.95548 0
M  V30 59212 H 5488.22 0.785693 -2.83203 0
M  V30 59213 H 5485.73 0.336354 -1.58879 0
M  V30 59214 H 5487.73 3.24125 -2.62199 0
M  V30 59215 H 5486.39 2.87831 -1.50277 0
M  V30 59216 H 5487.4 1.53359 -4.94673 0
M  V30 59217 H 5484.08 3.04576 -2.85552 0
M  V30 59218 H 5485.47 1.43758 -6.56341 0
M  V30 59219 N 5488.19 1.52481 0.398405 0
M  V30 59220 C 5489.43 1.67313 1.14605 0
M  V30 59221 C 5489.76 0.407161 1.89884 0
M  V30 59222 O 5489.04 -0.594769 1.85183 0
M  V30 59223 C 5489.32 2.90212 2.13188 0
M  V30 59224 C 5489.18 4.26886 1.41735 0
M  V30 59225 C 5490.49 3.08645 3.1373 0
M  V30 59226 H 5487.61 0.608868 0.41527 0
M  V30 59227 H 5490.26 1.85058 0.430508 0
M  V30 59228 H 5488.41 2.75213 2.74208 0
M  V30 59229 H 5490.08 4.53633 0.837517 0
M  V30 59230 H 5488.32 4.27796 0.719237 0
M  V30 59231 H 5488.99 5.08947 2.13722 0
M  V30 59232 H 5491.47 3.22612 2.62794 0
M  V30 59233 H 5490.34 3.96131 3.79963 0
M  V30 59234 H 5490.6 2.22438 3.82065 0
M  V30 59235 N 5489.66 -0.656289 1.43285 0
M  V30 59236 C 5490.9 -1.42805 1.4624 0
M  V30 59237 C 5491.27 -1.9182 0.08308 0
M  V30 59238 O 5492.47 -2.68797 -0.0126756 0
M  V30 59239 C 5490.74 -2.57999 2.47328 0
M  V30 59240 S 5492.3 -3.46572 2.69134 0
M  V30 59241 H 5489.12 -0.487505 0.517552 0
M  V30 59242 H 5491.72 -0.762235 1.80028 0
M  V30 59243 H 5490.42 -2.20258 3.46287 0
M  V30 59244 H 5489.95 -3.29434 2.15028 0
M  V30 59245 H 5491.97 -4.54622 1.98829 0
M  V30 59246 N 5491.14 -1.29765 -0.894366 0
M  V30 59247 C 5492.39 -1.17812 -1.6421 0
M  V30 59248 C 5492.71 0.26952 -1.93128 0
M  V30 59249 O 5491.98 1.18347 -1.56112 0
M  V30 59250 H 5490.56 -0.433024 -0.608687 0
M  V30 59251 H 5493.22 -1.62764 -1.0721 0
M  V30 59252 H 5492.32 -1.7321 -2.59624 0
M  V30 59253 N 5492.62 1.10545 -1.12328 0
M  V30 59254 C 5493.9 1.78965 -0.78935 0
M  V30 59255 C 5494.28 1.98403 0.721086 0
M  V30 59256 O 5493.62 1.57616 1.65437 0
M  V30 59257 C 5493.83 3.12038 -1.56311 0
M  V30 59258 C 5495.18 3.86933 -1.74838 0
M  V30 59259 O 5496.21 3.21755 -1.52814 0
M  V30 59260 O 5495.07 5.03912 -2.11506 0
M  V30 59261 H 5492.16 0.775607 -0.28699 0
M  V30 59262 H 5494.71 1.17205 -1.22724 0
M  V30 59263 H 5493.48 2.93303 -2.59015 0
M  V30 59264 H 5493.1 3.81517 -1.1194 0
M  V30 59265 N 5494.1 0.91501 1.28317 0
M  V30 59266 C 5495.37 0.467707 1.89926 0
M  V30 59267 C 5495.75 -1.05358 1.82929 0
M  V30 59268 O 5495.1 -1.90219 1.26606 0
M  V30 59269 C 5495.31 0.999489 3.34382 0
M  V30 59270 C 5496.66 1.05234 4.11353 0
M  V30 59271 O 5497.68 0.948221 3.43347 0
M  V30 59272 O 5496.54 1.21104 5.32913 0
M  V30 59273 H 5493.64 0.148426 0.813572 0
M  V30 59274 H 5496.18 1.00588 1.36676 0
M  V30 59275 H 5494.96 2.04345 3.33705 0
M  V30 59276 H 5494.58 0.442222 3.95133 0
M  V30 59277 N 5495.58 -1.42217 0.679127 0
M  V30 59278 C 5496.82 -2.0108 0.202788 0
M  V30 59279 C 5497.14 -1.5399 -1.19633 0
M  V30 59280 O 5496.41 -0.763423 -1.80412 0
M  V30 59281 H 5494.99 -0.743524 0.0719809 0
M  V30 59282 H 5497.66 -1.74074 0.876605 0
M  V30 59283 H 5496.75 -3.1141 0.207424 0
M  V30 59284 N 5497.05 -0.422747 -1.51824 0
M  V30 59285 C 5498.3 0.14857 -2.01954 0
M  V30 59286 C 5498.63 1.43978 -1.3077 0
M  V30 59287 O 5497.88 1.91427 -0.406735 0
M  V30 59288 C 5498.18 0.429391 -3.54811 0
M  V30 59289 C 5497.85 -0.774244 -4.44203 0
M  V30 59290 C 5496.51 -1.10436 -4.68356 0
M  V30 59291 C 5498.86 -1.57788 -4.96742 0
M  V30 59292 C 5496.19 -2.23906 -5.42294 0
M  V30 59293 C 5498.54 -2.70345 -5.71923 0
M  V30 59294 C 5497.21 -3.03828 -5.94344 0
M  V30 59295 H 5496.48 0.0543657 -0.739003 0
M  V30 59296 H 5499.12 -0.566957 -1.82915 0
M  V30 59297 H 5497.43 1.22665 -3.72103 0
M  V30 59298 H 5499.13 0.884623 -3.91121 0
M  V30 59299 H 5495.72 -0.506984 -4.25591 0
M  V30 59300 H 5499.9 -1.33606 -4.77978 0
M  V30 59301 H 5495.16 -2.50179 -5.57871 0
M  V30 59302 H 5499.33 -3.32995 -6.11627 0
M  V30 59303 H 5496.96 -3.91867 -6.51417 0
M  V30 59304 N 5498.53 1.5685 -0.153609 0
M  V30 59305 C 5499.46 2.20104 0.779524 0
M  V30 59306 C 5500.44 1.15125 1.25221 0
M  V30 59307 O 5501.63 1.43492 1.30857 0
M  V30 59308 C 5498.76 2.82786 2.01618 0
M  V30 59309 C 5497.71 3.93649 1.68002 0
M  V30 59310 C 5497.04 4.43297 2.98985 0
M  V30 59311 C 5498.34 5.14105 0.921593 0
M  V30 59312 H 5500.03 2.98335 0.252327 0
M  V30 59313 H 5497.58 1.435 0.119925 0
M  V30 59314 H 5499.53 3.25705 2.67384 0
M  V30 59315 H 5498.26 2.01896 2.56721 0
M  V30 59316 H 5496.91 3.51357 1.04611 0
M  V30 59317 H 5496.56 3.59221 3.52093 0
M  V30 59318 H 5496.26 5.18077 2.77254 0
M  V30 59319 H 5497.79 4.88891 3.65811 0
M  V30 59320 H 5499.2 5.53828 1.48147 0
M  V30 59321 H 5497.6 5.9469 0.803976 0
M  V30 59322 H 5498.67 4.84825 -0.0854462 0
M  V30 59323 N 5500.01 -0.120166 1.57141 0
M  V30 59324 C 5501.26 -0.826726 1.83979 0
M  V30 59325 C 5501.57 -1.81099 0.739078 0
M  V30 59326 O 5502.78 -2.56365 0.893826 0
M  V30 59327 C 5501.23 -1.52097 3.26182 0
M  V30 59328 C 5500.84 -0.577746 4.44259 0
M  V30 59329 C 5502.59 -2.21273 3.62269 0
M  V30 59330 C 5500.49 -1.27515 5.77489 0
M  V30 59331 H 5499.42 -0.312484 0.6862 0
M  V30 59332 H 5502.07 -0.0794698 1.83328 0
M  V30 59333 H 5500.46 -2.31481 3.21299 0
M  V30 59334 H 5501.63 0.182791 4.60437 0
M  V30 59335 H 5499.95 0.00698987 4.16399 0
M  V30 59336 H 5502.54 -2.74138 4.59078 0
M  V30 59337 H 5502.89 -2.99018 2.89644 0
M  V30 59338 H 5503.42 -1.48778 3.68931 0
M  V30 59339 H 5500.16 -0.539007 6.5328 0
M  V30 59340 H 5499.68 -2.00773 5.65199 0
M  V30 59341 H 5501.36 -1.80866 6.21206 0
M  V30 59342 N 5501.49 -1.5269 -0.390313 0
M  V30 59343 C 5502.72 -1.71545 -1.15672 0
M  V30 59344 C 5503.13 -0.433236 -1.83762 0
M  V30 59345 O 5502.49 0.592188 -1.72625 0
M  V30 59346 C 5502.54 -2.86408 -2.20574 0
M  V30 59347 O 5502.26 -4.09666 -1.5526 0
M  V30 59348 C 5503.76 -3.16931 -3.09951 0
M  V30 59349 H 5500.98 -0.574393 -0.346863 0
M  V30 59350 H 5503.53 -1.99333 -0.456781 0
M  V30 59351 H 5501.68 -2.61085 -2.86205 0
M  V30 59352 H 5502.09 -4.7381 -2.24953 0
M  V30 59353 H 5503.57 -4.00769 -3.7959 0
M  V30 59354 H 5504.05 -2.31259 -3.73385 0
M  V30 59355 H 5504.65 -3.44088 -2.49967 0
M  V30 59356 N 5502.97 0.648681 -1.43631 0
M  V30 59357 C 5503.88 1.7904 -1.51597 0
M  V30 59358 C 5504.89 1.69275 -0.402756 0
M  V30 59359 O 5506.07 1.90363 -0.657551 0
M  V30 59360 C 5503.13 3.15342 -1.44084 0
M  V30 59361 C 5502.19 3.36871 -2.66114 0
M  V30 59362 C 5501.43 4.6667 -2.58949 0
M  V30 59363 O 5501.65 5.46323 -1.63975 0
M  V30 59364 O 5500.58 4.90018 -3.49523 0
M  V30 59365 H 5504.41 1.75274 -2.48018 0
M  V30 59366 H 5502 0.80773 -1.25682 0
M  V30 59367 H 5503.88 3.96628 -1.42353 0
M  V30 59368 H 5502.55 3.19689 -0.508002 0
M  V30 59369 H 5501.46 2.55332 -2.73416 0
M  V30 59370 H 5502.79 3.37374 -3.58385 0
M  V30 59371 N 5504.44 1.30237 0.887472 0
M  V30 59372 C 5505.39 1.16407 1.99294 0
M  V30 59373 C 5506.36 0.054212 1.66012 0
M  V30 59374 O 5507.55 0.223947 1.89481 0
M  V30 59375 C 5504.69 0.859287 3.34231 0
M  V30 59376 C 5503.8 2.05078 3.8022 0
M  V30 59377 C 5502.93 1.6843 5.0379 0
M  V30 59378 C 5501.97 2.8409 5.4218 0
M  V30 59379 N 5501.11 2.47755 6.56934 0
M  V30 59380 H 5505.95 2.1098 2.10455 0
M  V30 59381 H 5503.49 1.04973 1.03049 0
M  V30 59382 H 5505.45 0.663209 4.11895 0
M  V30 59383 H 5504.08 -0.0495674 3.22762 0
M  V30 59384 H 5503.13 2.35819 2.98486 0
M  V30 59385 H 5504.44 2.91702 4.04612 0
M  V30 59386 H 5503.59 1.45183 5.89073 0
M  V30 59387 H 5502.33 0.789722 4.81264 0
M  V30 59388 H 5501.34 3.08006 4.55426 0
M  V30 59389 H 5502.56 3.7423 5.66682 0
M  V30 59390 H 5500.51 1.60799 6.35987 0
M  V30 59391 H 5500.43 3.27911 6.81183 0
M  V30 59392 H 5501.69 2.27858 7.45454 0
M  V30 59393 N 5505.92 -1.09948 1.12913 0
M  V30 59394 C 5507.17 -1.81654 0.885793 0
M  V30 59395 C 5507.49 -1.85865 -0.589848 0
M  V30 59396 O 5506.76 -1.34033 -1.4287 0
M  V30 59397 H 5505.34 -0.672731 0.324718 0
M  V30 59398 H 5508 -1.33008 1.4246 0
M  V30 59399 H 5507.1 -2.85013 1.27177 0
M  V30 59400 N 5507.4 -0.921802 -1.2783 0
M  V30 59401 C 5508.33 -0.433546 -2.2944 0
M  V30 59402 C 5509.31 0.503075 -1.6249 0
M  V30 59403 O 5510.5 0.409089 -1.89842 0
M  V30 59404 C 5507.63 0.319907 -3.45823 0
M  V30 59405 C 5506.58 -0.528327 -4.24727 0
M  V30 59406 C 5505.91 0.353944 -5.33527 0
M  V30 59407 C 5507.21 -1.78976 -4.90678 0
M  V30 59408 H 5508.9 -1.28273 -2.7053 0
M  V30 59409 H 5506.45 -0.618243 -1.30053 0
M  V30 59410 H 5508.4 0.672379 -4.16001 0
M  V30 59411 H 5507.12 1.20306 -3.03635 0
M  V30 59412 H 5505.78 -0.863427 -3.56287 0
M  V30 59413 H 5505.43 1.23588 -4.87581 0
M  V30 59414 H 5505.13 -0.210061 -5.87224 0
M  V30 59415 H 5506.65 0.70212 -6.0655 0
M  V30 59416 H 5508.07 -1.50571 -5.53174 0
M  V30 59417 H 5506.47 -2.2968 -5.54407 0
M  V30 59418 H 5507.54 -2.5128 -4.14712 0
M  V30 59419 N 5508.88 1.41855 -0.686659 0
M  V30 59420 C 5510.13 2.0097 -0.213449 0
M  V30 59421 C 5510.45 1.54622 1.18815 0
M  V30 59422 O 5509.72 0.77298 1.80005 0
M  V30 59423 H 5508.3 0.743132 -0.0759229 0
M  V30 59424 H 5510.96 1.73606 -0.885824 0
M  V30 59425 H 5510.06 3.11296 -0.223936 0
M  V30 59426 N 5510.36 0.430792 1.51598 0
M  V30 59427 C 5511.29 -0.374614 2.30475 0
M  V30 59428 C 5512.27 -1.02689 1.35606 0
M  V30 59429 O 5513.45 -1.03178 1.64523 0
M  V30 59430 C 5510.58 -1.4797 3.14201 0
M  V30 59431 C 5509.54 -0.951268 4.17295 0
M  V30 59432 C 5508.86 -2.1516 4.895 0
M  V30 59433 C 5510.16 0.00976313 5.22299 0
M  V30 59434 H 5511.86 0.283613 2.98054 0
M  V30 59435 H 5509.4 0.13784 1.43339 0
M  V30 59436 H 5511.36 -2.0503 3.68158 0
M  V30 59437 H 5510.08 -2.16612 2.44432 0
M  V30 59438 H 5508.74 -0.402924 3.64379 0
M  V30 59439 H 5508.39 -2.82407 4.1624 0
M  V30 59440 H 5508.09 -1.80444 5.59208 0
M  V30 59441 H 5509.61 -2.72786 5.46278 0
M  V30 59442 H 5511.02 -0.470326 5.71368 0
M  V30 59443 H 5509.42 0.26917 5.99496 0
M  V30 59444 H 5510.49 0.948465 4.75534 0
M  V30 59445 N 5511.83 -1.56766 0.161924 0
M  V30 59446 C 5512.78 -2.17505 -0.772026 0
M  V30 59447 C 5513.75 -1.11227 -1.2336 0
M  V30 59448 O 5514.94 -1.39336 -1.30346 0
M  V30 59449 C 5512.08 -2.81255 -1.99974 0
M  V30 59450 C 5511.19 -4.01968 -1.5826 0
M  V30 59451 C 5510.32 -4.53671 -2.76325 0
M  V30 59452 C 5509.36 -5.66815 -2.31056 0
M  V30 59453 N 5508.5 -6.13071 -3.42182 0
M  V30 59454 H 5513.34 -2.96972 -0.247277 0
M  V30 59455 H 5510.88 -1.46686 -0.110331 0
M  V30 59456 H 5512.84 -3.16368 -2.71969 0
M  V30 59457 H 5511.47 -2.04407 -2.49835 0
M  V30 59458 H 5510.52 -3.72736 -0.759743 0
M  V30 59459 H 5511.83 -4.83895 -1.21023 0
M  V30 59460 H 5510.98 -4.90918 -3.56489 0
M  V30 59461 H 5509.72 -3.70782 -3.16816 0
M  V30 59462 H 5508.73 -5.2913 -1.49336 0
M  V30 59463 H 5509.95 -6.51501 -1.91634 0
M  V30 59464 H 5507.9 -5.33112 -3.82266 0
M  V30 59465 H 5507.82 -6.89964 -3.09008 0
M  V30 59466 H 5509.08 -6.54965 -4.22659 0
M  V30 59467 N 5513.31 0.11183 -1.57203 0
M  V30 59468 C 5514.56 0.818346 -1.85228 0
M  V30 59469 C 5514.89 1.79539 -0.748054 0
M  V30 59470 O 5514.14 1.93966 0.259944 0
M  V30 59471 C 5514.44 1.59633 -3.19769 0
M  V30 59472 C 5514.11 0.762924 -4.44399 0
M  V30 59473 C 5512.77 0.533122 -4.78238 0
M  V30 59474 C 5515.12 0.182477 -5.2088 0
M  V30 59475 C 5512.45 -0.287262 -5.85996 0
M  V30 59476 C 5514.8 -0.625138 -6.29504 0
M  V30 59477 C 5513.47 -0.865188 -6.61869 0
M  V30 59478 H 5512.74 0.299454 -0.677797 0
M  V30 59479 H 5515.38 0.080441 -1.91331 0
M  V30 59480 H 5513.69 2.40534 -3.09274 0
M  V30 59481 H 5515.39 2.14708 -3.38676 0
M  V30 59482 H 5511.98 0.952131 -4.1789 0
M  V30 59483 H 5516.16 0.347216 -4.95084 0
M  V30 59484 H 5511.42 -0.482393 -6.09494 0
M  V30 59485 H 5515.59 -1.08186 -6.87945 0
M  V30 59486 H 5513.22 -1.5027 -7.452 0
M  V30 59487 N 5514.79 1.52895 0.38221 0
M  V30 59488 C 5515.75 1.77502 1.45002 0
M  V30 59489 C 5516.75 0.645141 1.47291 0
M  V30 59490 O 5517.94 0.913244 1.48342 0
M  V30 59491 C 5515.08 1.88198 2.84244 0
M  V30 59492 H 5516.27 2.72853 1.24464 0
M  V30 59493 H 5513.82 1.4372 0.61436 0
M  V30 59494 H 5514.56 0.94856 3.10117 0
M  V30 59495 H 5514.34 2.70363 2.83983 0
M  V30 59496 H 5515.83 2.08885 3.61603 0
M  V30 59497 N 5516.27 -0.641055 1.43973 0
M  V30 59498 C 5517.22 -1.77468 1.50359 0
M  V30 59499 C 5518.21 -1.65172 0.37611 0
M  V30 59500 O 5519.42 -1.71371 0.550632 0
M  V30 59501 H 5515.79 -0.585731 0.471618 0
M  V30 59502 H 5517.76 -1.69204 2.4579 0
M  V30 59503 C 5516.51 -3.15773 1.45543 0
M  V30 59504 H 5515.84 -3.25878 2.31611 0
M  V30 59505 H 5517.28 -3.95016 1.54072 0
M  V30 59506 C 5515.73 -3.36447 0.174742 0
M  V30 59507 O 5516.26 -3.94463 -0.759077 0
M  V30 59508 N 5514.47 -2.90487 0.0810404 0
M  V30 59509 H 5514.02 -2.43458 0.841776 0
M  V30 59510 H 5513.98 -3.04695 -0.775124 0
M  V30 59511 N 5517.75 -1.30706 -0.880552 0
M  V30 59512 C 5518.69 -1.17462 -1.98674 0
M  V30 59513 C 5519.66 -0.0630152 -1.6598 0
M  V30 59514 O 5520.85 -0.233993 -1.8936 0
M  V30 59515 C 5517.99 -0.877 -3.3377 0
M  V30 59516 C 5517.1 -2.07092 -3.79127 0
M  V30 59517 C 5516.24 -1.711 -5.0289 0
M  V30 59518 C 5515.28 -2.86961 -5.40666 0
M  V30 59519 N 5514.41 -2.51235 -6.55611 0
M  V30 59520 H 5519.25 -2.12093 -2.09333 0
M  V30 59521 H 5516.79 -1.05518 -1.02491 0
M  V30 59522 H 5518.75 -0.685044 -4.11537 0
M  V30 59523 H 5517.38 0.0324498 -3.22784 0
M  V30 59524 H 5516.43 -2.37398 -2.97231 0
M  V30 59525 H 5517.74 -2.93844 -4.0306 0
M  V30 59526 H 5516.9 -1.48305 -5.88295 0
M  V30 59527 H 5515.64 -0.815233 -4.80838 0
M  V30 59528 H 5514.64 -3.10416 -4.53786 0
M  V30 59529 H 5515.87 -3.7723 -5.64689 0
M  V30 59530 H 5513.81 -1.6417 -6.35125 0
M  V30 59531 H 5513.73 -3.31518 -6.79435 0
M  V30 59532 H 5515 -2.31808 -7.44235 0
M  V30 59533 N 5519.23 1.09347 -1.13494 0
M  V30 59534 C 5520.47 1.81182 -0.895414 0
M  V30 59535 C 5520.79 1.86175 0.579982 0
M  V30 59536 O 5520.06 1.34789 1.42157 0
M  V30 59537 H 5518.64 0.671 -0.328281 0
M  V30 59538 H 5521.31 1.3225 -1.43164 0
M  V30 59539 H 5520.4 2.84335 -1.28686 0
M  V30 59540 N 5520.7 0.928568 1.2734 0
M  V30 59541 C 5521.64 0.372707 2.25136 0
M  V30 59542 C 5522.61 -0.531414 1.53671 0
M  V30 59543 O 5523.8 -0.471724 1.82502 0
M  V30 59544 C 5520.93 -0.465723 3.35483 0
M  V30 59545 C 5519.97 0.37509 4.24847 0
M  V30 59546 S 5520.8 1.79117 5.04656 0
M  V30 59547 C 5521.96 0.960451 6.18487 0
M  V30 59548 H 5522.19 1.20157 2.71937 0
M  V30 59549 H 5519.73 0.730811 1.36009 0
M  V30 59550 H 5521.68 -0.9436 3.99508 0
M  V30 59551 H 5520.35 -1.26912 2.87319 0
M  V30 59552 H 5519.54 -0.266694 5.03294 0
M  V30 59553 H 5519.14 0.787173 3.65622 0
M  V30 59554 H 5521.43 0.196853 6.77214 0
M  V30 59555 H 5522.38 1.71795 6.86944 0
M  V30 59556 H 5522.78 0.502079 5.62263 0
M  V30 59557 N 5522.18 -1.41489 0.694172 0
M  V30 59558 C 5523.11 -2.29197 -0.0111936 0
M  V30 59559 C 5524.13 -1.44711 -0.745826 0
M  V30 59560 O 5525.32 -1.68229 -0.596762 0
M  V30 59561 C 5522.42 -3.22551 -1.03992 0
M  V30 59562 C 5521.59 -4.35788 -0.375194 0
M  V30 59563 C 5520.65 -5.09726 -1.30635 0
M  V30 59564 O 5519.67 -5.63561 -0.79926 0
M  V30 59565 N 5520.88 -5.17059 -2.63875 0
M  V30 59566 H 5523.64 -2.90374 0.741807 0
M  V30 59567 H 5521.2 -1.52626 0.540093 0
M  V30 59568 H 5523.19 -3.68883 -1.66455 0
M  V30 59569 H 5521.76 -2.62691 -1.69447 0
M  V30 59570 H 5520.98 -3.91856 0.429283 0
M  V30 59571 H 5522.27 -5.08725 0.087083 0
M  V30 59572 H 5521.67 -4.74767 -3.07592 0
M  V30 59573 H 5520.23 -5.66973 -3.21535 0
M  V30 59574 N 5523.66 -0.438826 -1.51367 0
M  V30 59575 C 5524.91 0.128653 -2.01289 0
M  V30 59576 C 5525.22 1.43655 -1.32751 0
M  V30 59577 O 5526.43 2.08706 -1.7365 0
M  V30 59578 C 5524.88 0.279818 -3.58811 0
M  V30 59579 C 5524.49 -1.01773 -4.36287 0
M  V30 59580 C 5526.24 0.800987 -4.16875 0
M  V30 59581 C 5524.14 -0.832124 -5.85517 0
M  V30 59582 H 5523.07 0.051855 -0.752215 0
M  V30 59583 H 5525.72 -0.568814 -1.74461 0
M  V30 59584 H 5524.11 1.04032 -3.82091 0
M  V30 59585 H 5525.28 -1.78668 -4.24752 0
M  V30 59586 H 5523.59 -1.46754 -3.89682 0
M  V30 59587 H 5526.19 0.956364 -5.26078 0
M  V30 59588 H 5526.53 1.78383 -3.76145 0
M  V30 59589 H 5527.07 0.0987535 -3.97677 0
M  V30 59590 H 5523.81 -1.78739 -6.30661 0
M  V30 59591 H 5523.33 -0.102996 -5.99712 0
M  V30 59592 H 5525.01 -0.485908 -6.45173 0
M  V30 59593 N 5525.14 1.56678 -0.170236 0
M  V30 59594 C 5526.07 2.20918 0.756135 0
M  V30 59595 C 5527.05 1.16447 1.23993 0
M  V30 59596 O 5528.23 1.44872 1.29328 0
M  V30 59597 C 5525.36 2.84908 1.98607 0
M  V30 59598 C 5524.32 3.95409 1.63817 0
M  V30 59599 C 5523.64 4.46443 2.94267 0
M  V30 59600 C 5524.94 5.15054 0.867014 0
M  V30 59601 H 5526.64 2.98586 0.220671 0
M  V30 59602 H 5524.18 1.43619 0.104698 0
M  V30 59603 H 5526.14 3.28523 2.63914 0
M  V30 59604 H 5524.86 2.04607 2.54565 0
M  V30 59605 H 5523.52 3.52447 1.00879 0
M  V30 59606 H 5523.17 3.62935 3.48263 0
M  V30 59607 H 5522.87 5.20989 2.71743 0
M  V30 59608 H 5524.39 4.92744 3.60605 0
M  V30 59609 H 5525.81 5.55368 1.42265 0
M  V30 59610 H 5524.2 5.95509 0.740856 0
M  V30 59611 H 5525.27 4.84707 -0.136864 0
M  V30 59612 N 5526.62 -0.103492 1.5726 0
M  V30 59613 C 5527.57 -1.13232 1.97895 0
M  V30 59614 C 5528.55 -1.36231 0.856152 0
M  V30 59615 O 5529.74 -1.37063 1.11994 0
M  V30 59616 C 5526.87 -2.45481 2.39987 0
M  V30 59617 C 5525.96 -2.25892 3.58934 0
M  V30 59618 N 5526.35 -1.7615 4.74136 0
M  V30 59619 C 5524.65 -2.5649 3.64868 0
M  V30 59620 C 5525.35 -1.70634 5.56111 0
M  V30 59621 N 5524.32 -2.15544 4.99041 0
M  V30 59622 H 5528.12 -0.740538 2.84417 0
M  V30 59623 H 5525.64 -0.311035 1.59394 0
M  V30 59624 H 5527.64 -3.19913 2.67323 0
M  V30 59625 H 5526.3 -2.85404 1.54837 0
M  V30 59626 H 5527.31 -1.4547 4.9705 0
M  V30 59627 H 5523.98 -2.99995 2.90361 0
M  V30 59628 H 5525.37 -1.33298 6.58545 0
M  V30 59629 N 5528.09 -1.53096 -0.374097 0
M  V30 59630 C 5529 -1.81878 -1.48181 0
M  V30 59631 C 5530.02 -0.706543 -1.59009 0
M  V30 59632 O 5531.2 -0.99571 -1.75064 0
M  V30 59633 C 5528.26 -1.99504 -2.83547 0
M  V30 59634 C 5527.32 -3.23412 -2.82317 0
M  V30 59635 C 5526.56 -3.40188 -4.11227 0
M  V30 59636 O 5526.78 -2.61443 -5.06955 0
M  V30 59637 O 5525.71 -4.33508 -4.17558 0
M  V30 59638 H 5529.54 -2.75969 -1.26785 0
M  V30 59639 H 5527.12 -1.3837 -0.563381 0
M  V30 59640 H 5529.01 -2.12718 -3.6377 0
M  V30 59641 H 5527.68 -1.08602 -3.04938 0
M  V30 59642 H 5526.59 -3.15628 -2.00823 0
M  V30 59643 H 5527.92 -4.14209 -2.6588 0
M  V30 59644 N 5529.57 0.633411 -1.44311 0
M  V30 59645 C 5530.54 1.72737 -1.50647 0
M  V30 59646 C 5531.54 1.56029 -0.388773 0
M  V30 59647 O 5532.73 1.61566 -0.651307 0
M  V30 59648 C 5529.86 3.11799 -1.3782 0
M  V30 59649 H 5531.05 1.68494 -2.48092 0
M  V30 59650 H 5528.6 0.846866 -1.31369 0
M  V30 59651 H 5529.34 3.21639 -0.414596 0
M  V30 59652 H 5529.12 3.25332 -2.18864 0
M  V30 59653 H 5530.61 3.91533 -1.4523 0
M  V30 59654 N 5531.05 1.31171 0.873608 0
M  V30 59655 C 5532.3 1.20409 1.62314 0
M  V30 59656 C 5532.62 -0.238761 1.93533 0
M  V30 59657 O 5531.89 -1.15848 1.57975 0
M  V30 59658 H 5530.47 0.442653 0.601721 0
M  V30 59659 H 5533.13 1.64449 1.04607 0
M  V30 59660 H 5532.23 1.77318 2.56836 0
M  V30 59661 N 5532.53 -1.08744 1.14072 0
M  V30 59662 C 5533.48 -2.1557 0.8245 0
M  V30 59663 C 5534.45 -1.64683 -0.216464 0
M  V30 59664 O 5535.63 -1.90601 -0.0871523 0
M  V30 59665 C 5532.77 -3.43755 0.304351 0
M  V30 59666 C 5531.88 -4.08507 1.40521 0
M  V30 59667 C 5531.02 -5.24474 0.842663 0
M  V30 59668 C 5530.06 -5.8116 1.92143 0
M  V30 59669 N 5529.19 -6.88478 1.37632 0
M  V30 59670 H 5534.03 -2.41962 1.7395 0
M  V30 59671 H 5531.57 -1.18747 0.868184 0
M  V30 59672 H 5533.53 -4.17197 -0.0154079 0
M  V30 59673 H 5532.16 -3.1766 -0.573757 0
M  V30 59674 H 5531.21 -3.3286 1.84142 0
M  V30 59675 H 5532.52 -4.46661 2.22025 0
M  V30 59676 H 5531.68 -6.04841 0.474602 0
M  V30 59677 H 5530.42 -4.877 -0.00338067 0
M  V30 59678 H 5529.42 -4.99449 2.29848 0
M  V30 59679 H 5530.65 -6.19994 2.771 0
M  V30 59680 H 5528.59 -6.5367 0.552398 0
M  V30 59681 H 5528.51 -7.25439 2.12778 0
M  V30 59682 H 5529.78 -7.72584 1.03605 0
M  V30 59683 N 5534.01 -0.935308 -1.26845 0
M  V30 59684 C 5535.42 -0.62326 -1.7599 0
M  V30 59685 C 5535.77 0.861585 -1.7627 0
M  V30 59686 O 5534.89 1.67425 -1.37105 0
M  V30 59687 C 5535.49 -1.12462 -3.1959 0
M  V30 59688 C 5534.05 -0.863102 -3.66371 0
M  V30 59689 C 5533.19 -1.27895 -2.46045 0
M  V30 59690 H 5536.15 -1.11426 -1.13005 0
M  V30 59691 H 5536.17 -0.475758 -3.77514 0
M  V30 59692 H 5535.68 -2.20533 -3.19354 0
M  V30 59693 H 5533.78 0.203476 -3.72044 0
M  V30 59694 H 5533.89 -1.48598 -4.55473 0
M  V30 59695 H 5532.26 -0.697421 -2.44966 0
M  V30 59696 H 5533.04 -2.36846 -2.48514 0
M  V30 59697 N 5535.48 1.41118 -0.701666 0
M  V30 59698 C 5536.42 2.292 -0.000961417 0
M  V30 59699 C 5537.43 1.45104 0.738141 0
M  V30 59700 O 5538.62 1.68543 0.587832 0
M  V30 59701 C 5535.72 3.23097 1.0228 0
M  V30 59702 C 5534.89 4.35981 0.352078 0
M  V30 59703 C 5533.95 5.10412 1.27929 0
M  V30 59704 O 5532.98 5.63976 0.769362 0
M  V30 59705 N 5534.18 5.18451 2.61129 0
M  V30 59706 H 5536.94 2.89977 -0.757196 0
M  V30 59707 H 5534.5 1.52337 -0.548179 0
M  V30 59708 H 5536.5 3.69761 1.64496 0
M  V30 59709 H 5535.07 2.63586 1.68052 0
M  V30 59710 H 5534.29 3.91622 -0.450058 0
M  V30 59711 H 5535.57 5.08672 -0.114061 0
M  V30 59712 H 5534.97 4.76391 3.0507 0
M  V30 59713 H 5533.53 5.6867 3.18524 0
M  V30 59714 N 5536.96 0.446847 1.51133 0
M  V30 59715 C 5537.91 -0.359785 2.27978 0
M  V30 59716 C 5538.88 -1.00855 1.31975 0
M  V30 59717 O 5540.06 -1.02564 1.60889 0
M  V30 59718 C 5537.2 -1.44967 3.13175 0
M  V30 59719 C 5536.32 -0.818094 4.24183 0
M  V30 59720 C 5535.45 -1.88382 4.96674 0
M  V30 59721 C 5534.49 -1.23119 5.9959 0
M  V30 59722 N 5533.63 -2.2387 6.65452 0
M  V30 59723 H 5538.47 0.301879 2.96467 0
M  V30 59724 H 5536.01 0.160717 1.46219 0
M  V30 59725 H 5537.96 -2.09295 3.60903 0
M  V30 59726 H 5536.59 -2.08083 2.46782 0
M  V30 59727 H 5535.65 -0.0628552 3.80348 0
M  V30 59728 H 5536.96 -0.30171 4.97887 0
M  V30 59729 H 5536.11 -2.6035 5.47999 0
M  V30 59730 H 5534.85 -2.43396 4.22622 0
M  V30 59731 H 5533.86 -0.497023 5.47549 0
M  V30 59732 H 5535.08 -0.688267 6.75603 0
M  V30 59733 H 5533.03 -2.77946 5.94207 0
M  V30 59734 H 5532.94 -1.7715 7.34952 0
M  V30 59735 H 5534.21 -2.95293 7.21403 0
M  V30 59736 N 5538.44 -1.56585 0.178542 0
M  V30 59737 C 5539.69 -1.96274 -0.464676 0
M  V30 59738 C 5540 -1.06756 -1.63898 0
M  V30 59739 O 5541.21 -1.36156 -2.34891 0
M  V30 59740 C 5539.66 -3.49024 -0.878084 0
M  V30 59741 C 5539.27 -4.47179 0.271018 0
M  V30 59742 C 5541.02 -3.97517 -1.48932 0
M  V30 59743 C 5538.92 -5.91177 -0.162425 0
M  V30 59744 H 5537.85 -0.73284 -0.177373 0
M  V30 59745 H 5540.5 -1.81533 0.267925 0
M  V30 59746 H 5538.89 -3.59209 -1.66687 0
M  V30 59747 H 5540.06 -4.48715 1.04842 0
M  V30 59748 H 5538.38 -4.08786 0.792672 0
M  V30 59749 H 5540.97 -5.02563 -1.82578 0
M  V30 59750 H 5541.32 -3.40869 -2.38985 0
M  V30 59751 H 5541.85 -3.90378 -0.764823 0
M  V30 59752 H 5538.59 -6.51714 0.703515 0
M  V30 59753 H 5538.11 -5.92933 -0.905034 0
M  V30 59754 H 5539.79 -6.44176 -0.603857 0
M  V30 59755 N 5539.92 0.0951507 -1.57313 0
M  V30 59756 C 5541.15 0.812203 -1.90292 0
M  V30 59757 C 5541.56 1.72284 -0.772238 0
M  V30 59758 O 5540.92 1.80699 0.255778 0
M  V30 59759 C 5540.97 1.62561 -3.22887 0
M  V30 59760 O 5540.69 0.751598 -4.31605 0
M  V30 59761 C 5542.19 2.44572 -3.69729 0
M  V30 59762 H 5539.41 0.232233 -0.62953 0
M  V30 59763 H 5541.96 0.0724015 -2.04372 0
M  V30 59764 H 5540.11 2.31792 -3.10405 0
M  V30 59765 H 5540.52 1.31496 -5.07749 0
M  V30 59766 H 5542 2.97138 -4.65202 0
M  V30 59767 H 5542.48 3.23034 -2.97567 0
M  V30 59768 H 5543.08 1.80541 -3.85078 0
M  V30 59769 N 5541.4 1.53292 0.365972 0
M  V30 59770 C 5542.31 1.82661 1.47215 0
M  V30 59771 C 5543.32 0.714966 1.58632 0
M  V30 59772 O 5544.5 1.00498 1.74534 0
M  V30 59773 C 5541.56 2.01005 2.82485 0
M  V30 59774 C 5540.62 3.24905 2.80598 0
M  V30 59775 C 5539.86 3.42364 4.09417 0
M  V30 59776 O 5540.08 2.64128 5.05562 0
M  V30 59777 O 5539.01 4.35716 4.15253 0
M  V30 59778 H 5542.84 2.76638 1.2532 0
M  V30 59779 H 5540.43 1.38667 0.556035 0
M  V30 59780 H 5542.31 2.14644 3.62637 0
M  V30 59781 H 5540.98 1.10218 3.04358 0
M  V30 59782 H 5539.89 3.16689 1.99146 0
M  V30 59783 H 5541.22 4.15613 2.63679 0
M  V30 59784 N 5542.88 -0.625749 1.44645 0
M  V30 59785 C 5544.12 -1.38246 1.47419 0
M  V30 59786 C 5544.44 -1.94689 0.110111 0
M  V30 59787 O 5543.71 -1.76098 -0.858271 0
M  V30 59788 H 5542.29 -0.51316 0.542841 0
M  V30 59789 H 5544.96 -0.736115 1.80464 0
M  V30 59790 H 5544.05 -2.21107 2.20268 0
M  V30 59791 N 5544.35 -1.31632 -0.86664 0
M  V30 59792 C 5545.26 -1.21531 -2.00667 0
M  V30 59793 C 5546.28 -0.131338 -1.73504 0
M  V30 59794 O 5547.46 -0.349769 -1.9834 0
M  V30 59795 C 5544.52 -0.926608 -3.34088 0
M  V30 59796 C 5543.58 -2.09782 -3.74553 0
M  V30 59797 C 5542.81 -1.82279 -5.01607 0
M  V30 59798 O 5543.04 -0.759528 -5.65321 0
M  V30 59799 O 5541.97 -2.6805 -5.38918 0
M  V30 59800 H 5545.8 -2.17343 -2.12122 0
M  V30 59801 H 5543.38 -1.11404 -0.99546 0
M  V30 59802 H 5545.26 -0.781586 -4.14088 0
M  V30 59803 H 5543.94 0.0014445 -3.237 0
M  V30 59804 H 5542.85 -2.29826 -2.95179 0
M  V30 59805 H 5544.18 -3.00824 -3.89571 0
M  V30 59806 N 5545.83 1.08138 -1.14647 0
M  V30 59807 C 5546.78 2.1513 -0.835921 0
M  V30 59808 C 5547.75 1.64796 0.207727 0
M  V30 59809 O 5548.93 1.90644 0.077043 0
M  V30 59810 C 5546.07 3.43589 -0.322577 0
M  V30 59811 C 5545.19 4.07756 -1.42685 0
M  V30 59812 C 5544.32 5.24019 -0.870465 0
M  V30 59813 C 5543.36 5.80133 -1.95223 0
M  V30 59814 N 5542.5 6.87738 -1.41281 0
M  V30 59815 H 5547.34 2.41036 -1.7523 0
M  V30 59816 H 5544.87 1.18285 -0.87447 0
M  V30 59817 H 5546.83 4.17199 -0.00671725 0
M  V30 59818 H 5545.46 3.1796 0.556902 0
M  V30 59819 H 5544.51 3.31879 -1.85905 0
M  V30 59820 H 5545.83 4.45477 -2.24391 0
M  V30 59821 H 5544.98 6.04581 -0.506672 0
M  V30 59822 H 5543.72 4.87695 -0.0224833 0
M  V30 59823 H 5542.72 4.98223 -2.32494 0
M  V30 59824 H 5543.95 6.18515 -2.80384 0
M  V30 59825 H 5541.9 6.53368 -0.587056 0
M  V30 59826 H 5541.81 7.243 -2.16622 0
M  V30 59827 H 5543.08 7.72024 -1.07701 0
M  V30 59828 N 5547.31 0.942022 1.26348 0
M  V30 59829 C 5548.24 0.396565 2.24728 0
M  V30 59830 C 5549.22 -0.515086 1.54226 0
M  V30 59831 O 5550.4 -0.452341 1.82992 0
M  V30 59832 C 5547.53 -0.430114 3.35958 0
M  V30 59833 C 5546.58 0.42013 4.24426 0
M  V30 59834 S 5547.41 1.8446 5.02727 0
M  V30 59835 C 5548.57 1.026 6.17434 0
M  V30 59836 H 5548.8 1.23034 2.70647 0
M  V30 59837 H 5546.33 0.745196 1.35226 0
M  V30 59838 H 5548.29 -0.901174 4.00486 0
M  V30 59839 H 5546.95 -1.23858 2.88649 0
M  V30 59840 H 5546.14 -0.213298 5.03548 0
M  V30 59841 H 5545.75 0.825908 3.64767 0
M  V30 59842 H 5548.04 0.268669 6.76967 0
M  V30 59843 H 5548.98 1.79072 6.85083 0
M  V30 59844 H 5549.39 0.561686 5.61699 0
M  V30 59845 N 5548.79 -1.40744 0.70914 0
M  V30 59846 C 5549.73 -2.3074 0.0524396 0
M  V30 59847 C 5550.7 -1.47842 -0.757093 0
M  V30 59848 O 5551.89 -1.76597 -0.722358 0
M  V30 59849 C 5549.03 -3.34003 -0.868085 0
M  V30 59850 C 5548.14 -4.31973 -0.0487168 0
M  V30 59851 C 5547.28 -5.22303 -0.968128 0
M  V30 59852 C 5546.32 -6.11934 -0.142467 0
M  V30 59853 N 5545.45 -6.94704 -1.01641 0
M  V30 59854 H 5550.29 -2.86335 0.825609 0
M  V30 59855 H 5547.83 -1.41011 0.418835 0
M  V30 59856 H 5549.79 -3.92436 -1.41597 0
M  V30 59857 H 5548.42 -2.79927 -1.60751 0
M  V30 59858 H 5547.47 -3.75375 0.616269 0
M  V30 59859 H 5548.78 -4.95289 0.590799 0
M  V30 59860 H 5547.94 -5.85636 -1.58477 0
M  V30 59861 H 5546.68 -4.59246 -1.64148 0
M  V30 59862 H 5545.68 -5.47637 0.487158 0
M  V30 59863 H 5546.91 -6.7705 0.527284 0
M  V30 59864 H 5544.85 -6.34241 -1.67552 0
M  V30 59865 H 5544.77 -7.5476 -0.432779 0
M  V30 59866 H 5546.04 -7.62492 -1.61943 0
M  V30 59867 N 5550.27 -0.454856 -1.50893 0
M  V30 59868 C 5551.51 0.105856 -2.02524 0
M  V30 59869 C 5551.84 1.4082 -1.33729 0
M  V30 59870 O 5551.12 1.89037 -0.45775 0
M  V30 59871 C 5551.4 0.306509 -3.58793 0
M  V30 59872 C 5551.26 -1.01571 -4.38182 0
M  V30 59873 C 5552.57 1.06843 -4.26934 0
M  V30 59874 H 5549.69 0.0369973 -0.736071 0
M  V30 59875 H 5552.34 -0.597278 -1.80368 0
M  V30 59876 H 5550.49 0.90543 -3.77802 0
M  V30 59877 H 5552.16 -1.64996 -4.30783 0
M  V30 59878 H 5550.4 -1.61622 -4.02568 0
M  V30 59879 H 5551.07 -0.82915 -5.45737 0
M  V30 59880 H 5553.55 0.560941 -4.12302 0
M  V30 59881 H 5552.42 1.17761 -5.36119 0
M  V30 59882 H 5552.68 2.10097 -3.88988 0
M  V30 59883 N 5551.74 1.56489 -0.186844 0
M  V30 59884 C 5552.71 2.17481 0.72352 0
M  V30 59885 C 5553.71 1.12702 1.14695 0
M  V30 59886 O 5554.9 1.38131 1.06138 0
M  V30 59887 C 5552.03 2.77022 1.98675 0
M  V30 59888 H 5553.22 2.99283 0.192298 0
M  V30 59889 H 5550.77 1.56174 0.0627604 0
M  V30 59890 H 5551.51 1.98996 2.56069 0
M  V30 59891 H 5551.29 3.53717 1.69195 0
M  V30 59892 H 5552.78 3.23882 2.6361 0
M  V30 59893 N 5553.22 -0.0868067 1.57361 0
M  V30 59894 C 5554.45 -0.800937 1.90443 0
M  V30 59895 C 5554.86 -1.72393 0.779573 0
M  V30 59896 O 5554.2 -1.81895 -0.256908 0
M  V30 59897 C 5554.26 -1.66044 3.18857 0
M  V30 59898 C 5553.93 -0.908404 4.47881 0
M  V30 59899 C 5554.93 -0.234438 5.19371 0
M  V30 59900 C 5552.61 -0.880027 4.94531 0
M  V30 59901 C 5554.6 0.457843 6.35754 0
M  V30 59902 C 5552.29 -0.183964 6.10823 0
M  V30 59903 C 5553.29 0.483785 6.81284 0
M  V30 59904 O 5552.98 1.16867 7.9536 0
M  V30 59905 H 5552.71 -0.233772 0.634292 0
M  V30 59906 H 5555.26 -0.0659391 2.05294 0
M  V30 59907 H 5553.49 -2.43788 3.00174 0
M  V30 59908 H 5555.18 -2.25189 3.37705 0
M  V30 59909 H 5555.95 -0.247767 4.84367 0
M  V30 59910 H 5551.83 -1.38922 4.3957 0
M  V30 59911 H 5555.37 0.979612 6.90688 0
M  V30 59912 H 5551.27 -0.16851 6.4528 0
M  V30 59913 H 5552.04 1.07641 8.11391 0
M  V30 59914 N 5554.7 -1.53484 -0.357838 0
M  V30 59915 C 5556.12 -1.43429 -0.700022 0
M  V30 59916 C 5556.32 -0.579561 -1.92985 0
M  V30 59917 O 5555.37 -0.0649973 -2.52416 0
M  V30 59918 C 5556.68 -2.86727 -0.905998 0
M  V30 59919 C 5558.23 -2.96409 -1.00552 0
M  V30 59920 C 5558.71 -4.40784 -1.24391 0
M  V30 59921 N 5560.2 -4.44247 -1.31144 0
M  V30 59922 C 5560.93 -5.53075 -1.51314 0
M  V30 59923 N 5560.43 -6.71934 -1.6875 0
M  V30 59924 N 5562.22 -5.40665 -1.53746 0
M  V30 59925 H 5554.37 -2.07557 0.450967 0
M  V30 59926 H 5556.64 -0.937644 0.139744 0
M  V30 59927 H 5556.34 -3.51622 -0.0740343 0
M  V30 59928 H 5556.22 -3.30834 -1.81187 0
M  V30 59929 H 5558.6 -2.31662 -1.82802 0
M  V30 59930 H 5558.68 -2.55684 -0.0768613 0
M  V30 59931 H 5558.33 -5.06107 -0.426397 0
M  V30 59932 H 5558.26 -4.79088 -2.18591 0
M  V30 59933 H 5560.75 -3.58591 -1.19252 0
M  V30 59934 H 5561.06 -7.5064 -1.83736 0
M  V30 59935 H 5559.41 -6.74906 -1.65913 0
M  V30 59936 H 5562.6 -4.46769 -1.39697 0
M  V30 59937 H 5562.77 -6.25541 -1.69124 0
M  V30 59938 N 5556.18 0.618069 -1.44975 0
M  V30 59939 C 5557.42 1.37735 -1.48443 0
M  V30 59940 C 5557.75 1.94117 -0.122067 0
M  V30 59941 O 5557.01 1.74903 0.877912 0
M  V30 59942 C 5557.31 2.55134 -2.50283 0
M  V30 59943 C 5556.97 2.16962 -3.9527 0
M  V30 59944 C 5555.63 2.06265 -4.34751 0
M  V30 59945 C 5557.99 1.87013 -4.86493 0
M  V30 59946 C 5555.31 1.63826 -5.63363 0
M  V30 59947 C 5557.67 1.46063 -6.15507 0
M  V30 59948 C 5556.33 1.33917 -6.53928 0
M  V30 59949 H 5555.6 0.504007 -0.543193 0
M  V30 59950 H 5558.25 0.699622 -1.78263 0
M  V30 59951 H 5556.55 3.28197 -2.13994 0
M  V30 59952 H 5558.25 3.13364 -2.50208 0
M  V30 59953 H 5554.84 2.2621 -3.64042 0
M  V30 59954 H 5559.02 1.9418 -4.56736 0
M  V30 59955 H 5554.28 1.53037 -5.91937 0
M  V30 59956 H 5558.45 1.21932 -6.85643 0
M  V30 59957 H 5556.08 1.00805 -7.53487 0
M  V30 59958 N 5557.66 1.3209 0.859647 0
M  V30 59959 C 5558.57 1.22594 2.0002 0
M  V30 59960 C 5559.58 0.140538 1.73432 0
M  V30 59961 O 5560.76 0.360282 1.98151 0
M  V30 59962 C 5557.82 0.944313 3.33592 0
M  V30 59963 C 5556.88 2.11765 3.73435 0
M  V30 59964 C 5556.12 1.84937 5.00634 0
M  V30 59965 O 5556.34 0.789498 5.6491 0
M  V30 59966 O 5555.27 2.70904 5.37489 0
M  V30 59967 H 5559.1 2.18465 2.10967 0
M  V30 59968 H 5556.69 1.11931 0.989538 0
M  V30 59969 H 5558.57 0.803535 4.13668 0
M  V30 59970 H 5557.24 0.0157221 3.23696 0
M  V30 59971 H 5556.15 2.31388 2.93956 0
M  V30 59972 H 5557.48 3.02886 3.8797 0
M  V30 59973 N 5559.13 -1.07528 1.15219 0
M  V30 59974 C 5560.41 -1.7681 0.836522 0
M  V30 59975 C 5560.79 -2.00245 -0.66823 0
M  V30 59976 O 5560.14 -1.61947 -1.612 0
M  V30 59977 C 5560.35 -3.07784 1.6453 0
M  V30 59978 C 5561.7 -3.82161 1.85035 0
M  V30 59979 O 5562.72 -3.17591 1.61291 0
M  V30 59980 O 5561.58 -4.98127 2.24792 0
M  V30 59981 H 5558.67 -0.767725 0.307453 0
M  V30 59982 H 5561.22 -1.1391 1.25788 0
M  V30 59983 H 5559.99 -2.86333 2.667 0
M  V30 59984 H 5559.62 -3.78415 1.22016 0
M  V30 59985 N 5560.61 -0.948709 -1.25846 0
M  V30 59986 C 5561.86 -0.596006 -1.92693 0
M  V30 59987 C 5562.17 0.870168 -1.75178 0
M  V30 59988 O 5563.38 1.33258 -2.36547 0
M  V30 59989 C 5561.84 -1.01523 -3.45284 0
M  V30 59990 C 5561.44 -2.50354 -3.7152 0
M  V30 59991 C 5563.19 -0.734782 -4.18092 0
M  V30 59992 C 5561.1 -2.86108 -5.17587 0
M  V30 59993 H 5560.03 -0.219196 -0.721435 0
M  V30 59994 H 5562.68 -1.15236 -1.42803 0
M  V30 59995 H 5561.06 -0.38734 -3.94101 0
M  V30 59996 H 5562.23 -3.18112 -3.33379 0
M  V30 59997 H 5560.55 -2.75808 -3.11959 0
M  V30 59998 H 5563.14 -0.978146 -5.25677 0
M  V30 59999 H 5563.49 0.328661 -4.15001 0
M  V30 60000 H 5564.02 -1.32275 -3.75164 0
M  V30 60001 H 5560.76 -3.91446 -5.25786 0
M  V30 60002 H 5560.28 -2.23018 -5.56797 0
M  V30 60003 H 5561.96 -2.7498 -5.85658 0
M  V30 60004 N 5562.09 1.40366 -0.716594 0
M  V30 60005 C 5563 2.34508 -0.0657404 0
M  V30 60006 C 5564.02 1.57355 0.742668 0
M  V30 60007 O 5565.19 1.89738 0.67539 0
M  V30 60008 C 5562.26 3.36265 0.844218 0
M  V30 60009 C 5561.32 4.29292 0.0256462 0
M  V30 60010 C 5560.55 5.26188 0.892267 0
M  V30 60011 O 5560.77 5.29079 2.13147 0
M  V30 60012 O 5559.71 6.00991 0.330722 0
M  V30 60013 H 5563.53 2.91786 -0.842286 0
M  V30 60014 H 5561.12 1.41578 -0.477084 0
M  V30 60015 H 5563 3.98666 1.36541 0
M  V30 60016 H 5561.68 2.81398 1.59989 0
M  V30 60017 H 5560.58 3.70173 -0.540642 0
M  V30 60018 H 5561.92 4.87314 -0.691831 0
M  V30 60019 N 5563.57 0.462852 1.5065 0
M  V30 60020 C 5564.82 -0.0949734 2.02277 0
M  V30 60021 C 5565.14 -1.4046 1.34541 0
M  V30 60022 O 5564.4 -1.90281 0.457346 0
M  V30 60023 C 5564.7 -0.335169 3.55825 0
M  V30 60024 C 5564.36 0.891744 4.41994 0
M  V30 60025 C 5563.03 1.22815 4.65263 0
M  V30 60026 C 5565.38 1.70903 4.92384 0
M  V30 60027 C 5562.71 2.38205 5.36167 0
M  V30 60028 C 5565.06 2.85414 5.64554 0
M  V30 60029 C 5563.72 3.19479 5.8608 0
M  V30 60030 H 5562.99 -0.0347532 0.740185 0
M  V30 60031 H 5565.64 0.615254 1.81347 0
M  V30 60032 H 5563.94 -1.12756 3.75224 0
M  V30 60033 H 5565.64 -0.780614 3.93329 0
M  V30 60034 H 5562.23 0.619644 4.24097 0
M  V30 60035 H 5566.41 1.46232 4.74268 0
M  V30 60036 H 5561.67 2.64882 5.51042 0
M  V30 60037 H 5565.84 3.49094 6.02583 0
M  V30 60038 H 5563.47 4.09 6.40799 0
M  V30 60039 N 5565.05 -1.56387 0.19514 0
M  V30 60040 C 5566.29 -1.9948 -0.445785 0
M  V30 60041 C 5566.65 -1.07925 -1.58796 0
M  V30 60042 O 5567.85 -1.40254 -2.29308 0
M  V30 60043 C 5566.12 -3.46035 -0.894127 0
M  V30 60044 S 5567.68 -4.11155 -1.53288 0
M  V30 60045 H 5564.5 -0.696563 -0.142551 0
M  V30 60046 H 5567.1 -1.93212 0.298217 0
M  V30 60047 H 5565.81 -4.10366 -0.0527815 0
M  V30 60048 H 5565.34 -3.5612 -1.67159 0
M  V30 60049 H 5567.35 -4.08165 -2.82163 0
M  V30 60050 N 5566.52 0.0784603 -1.57405 0
M  V30 60051 C 5567.75 0.795804 -1.91525 0
M  V30 60052 C 5568.17 1.70662 -0.790952 0
M  V30 60053 O 5567.53 1.79475 0.256597 0
M  V30 60054 C 5567.58 1.5711 -3.24575 0
M  V30 60055 O 5566.68 2.68129 -3.13338 0
M  V30 60056 H 5566.03 0.217553 -0.627349 0
M  V30 60057 H 5568.56 0.0487005 -2.04542 0
M  V30 60058 H 5568.57 1.95178 -3.58287 0
M  V30 60059 H 5567.24 0.902766 -4.05984 0
M  V30 60060 H 5565.82 2.32967 -2.91171 0
M  V30 60061 N 5568 1.53671 0.349693 0
M  V30 60062 C 5568.95 1.77609 1.42965 0
M  V30 60063 C 5569.94 0.631088 1.48007 0
M  V30 60064 O 5571.13 0.890281 1.5298 0
M  V30 60065 C 5568.26 1.98364 2.80191 0
M  V30 60066 C 5567.34 3.18911 2.79565 0
M  V30 60067 N 5567.73 4.40505 2.48573 0
M  V30 60068 C 5566.03 3.19956 3.10716 0
M  V30 60069 C 5566.73 5.22327 2.56026 0
M  V30 60070 N 5565.71 4.589 2.91396 0
M  V30 60071 H 5569.51 2.69219 1.17892 0
M  V30 60072 H 5567.03 1.52512 0.558008 0
M  V30 60073 H 5569.02 2.13645 3.57997 0
M  V30 60074 H 5567.68 1.07992 3.06215 0
M  V30 60075 H 5568.69 4.67963 2.21881 0
M  V30 60076 H 5565.37 2.39531 3.41952 0
M  V30 60077 H 5566.76 6.2936 2.35277 0
M  V30 60078 N 5569.48 -0.610372 1.453 0
M  V30 60079 C 5570.71 -1.39616 1.52693 0
M  V30 60080 C 5571.12 -1.88133 0.158601 0
M  V30 60081 O 5570.48 -1.62054 -0.839339 0
M  V30 60082 C 5570.53 -2.60252 2.509 0
M  V30 60083 O 5570.25 -2.13753 3.82415 0
M  V30 60084 C 5571.75 -3.53144 2.67963 0
M  V30 60085 H 5568.97 -0.427475 0.51721 0
M  V30 60086 H 5571.52 -0.744634 1.90461 0
M  V30 60087 H 5569.67 -3.21452 2.16211 0
M  V30 60088 H 5570.09 -2.92113 4.35626 0
M  V30 60089 H 5571.56 -4.34343 3.40662 0
M  V30 60090 H 5572.04 -4.03305 1.73902 0
M  V30 60091 H 5572.64 -2.978 3.03637 0
M  V30 60092 N 5570.96 -1.32544 -0.85263 0
M  V30 60093 C 5572.37 -1.20868 -1.42294 0
M  V30 60094 C 5572.72 0.177982 -1.95391 0
M  V30 60095 O 5571.85 1.07683 -1.87706 0
M  V30 60096 C 5572.44 -2.1882 -2.58656 0
M  V30 60097 C 5571 -2.11025 -3.11681 0
M  V30 60098 C 5570.15 -2.07073 -1.84434 0
M  V30 60099 H 5573.1 -1.44343 -0.659606 0
M  V30 60100 H 5573.12 -1.78791 -3.35878 0
M  V30 60101 H 5572.63 -3.19734 -2.19981 0
M  V30 60102 H 5570.73 -1.13367 -3.54935 0
M  V30 60103 H 5570.84 -3.00942 -3.72788 0
M  V30 60104 H 5569.21 -1.52343 -2.04117 0
M  V30 60105 H 5569.99 -3.09772 -1.47973 0
M  V30 60106 N 5572.44 1.06915 -1.15788 0
M  V30 60107 C 5573.68 1.79862 -0.936878 0
M  V30 60108 C 5574.02 1.86702 0.534412 0
M  V30 60109 O 5573.29 1.354 1.39632 0
M  V30 60110 C 5573.57 3.24686 -1.55728 0
M  V30 60111 C 5573.43 3.25964 -3.09947 0
M  V30 60112 C 5574.75 4.22072 -1.24673 0
M  V30 60113 H 5571.87 0.652959 -0.341779 0
M  V30 60114 H 5574.51 1.2508 -1.43021 0
M  V30 60115 H 5572.66 3.71466 -1.13776 0
M  V30 60116 H 5574.33 2.87393 -3.60837 0
M  V30 60117 H 5572.57 2.64796 -3.43606 0
M  V30 60118 H 5573.24 4.28101 -3.48473 0
M  V30 60119 H 5575.72 3.83703 -1.6097 0
M  V30 60120 H 5574.6 5.21685 -1.70693 0
M  V30 60121 H 5574.86 4.41794 -0.164497 0
M  V30 60122 N 5573.92 0.95537 1.25341 0
M  V30 60123 C 5575.33 0.651179 1.74976 0
M  V30 60124 C 5575.68 -0.833433 1.77619 0
M  V30 60125 O 5574.8 -1.65223 1.39751 0
M  V30 60126 C 5575.4 1.17533 3.1776 0
M  V30 60127 C 5573.96 0.92128 3.64951 0
M  V30 60128 C 5573.1 1.31793 2.43979 0
M  V30 60129 H 5576.05 1.13209 1.11218 0
M  V30 60130 H 5576.08 0.535757 3.76709 0
M  V30 60131 H 5575.59 2.25586 3.15805 0
M  V30 60132 H 5573.69 -0.144261 3.72321 0
M  V30 60133 H 5573.8 1.55826 4.53051 0
M  V30 60134 H 5572.17 0.736305 2.43825 0
M  V30 60135 H 5572.95 2.40769 2.44714 0
M  V30 60136 N 5575.39 -1.39984 0.724028 0
M  V30 60137 C 5576.64 -2.01027 0.267581 0
M  V30 60138 C 5576.97 -1.57299 -1.13889 0
M  V30 60139 O 5576.25 -0.796867 -1.77427 0
M  V30 60140 C 5576.53 -3.58325 0.357097 0
M  V30 60141 C 5576.38 -4.12102 1.80255 0
M  V30 60142 C 5577.7 -4.3929 -0.266848 0
M  V30 60143 H 5574.82 -0.730361 0.0987032 0
M  V30 60144 H 5577.46 -1.66345 0.918119 0
M  V30 60145 H 5575.61 -3.88001 -0.196772 0
M  V30 60146 H 5577.29 -3.9319 2.41245 0
M  V30 60147 H 5575.53 -3.66073 2.3275 0
M  V30 60148 H 5576.2 -5.21255 1.81652 0
M  V30 60149 H 5578.68 -4.15594 0.205176 0
M  V30 60150 H 5577.55 -5.48625 -0.173812 0
M  V30 60151 H 5577.81 -4.20936 -1.35149 0
M  V30 60152 N 5576.87 -0.470835 -1.50402 0
M  V30 60153 C 5578.29 -0.124975 -1.5911 0
M  V30 60154 C 5578.49 1.3685 -1.47899 0
M  V30 60155 O 5577.54 2.14175 -1.33735 0
M  V30 60156 C 5578.86 -0.674942 -2.93027 0
M  V30 60157 C 5580.4 -0.638347 -3.06421 0
M  V30 60158 C 5580.88 -1.16585 -4.42913 0
M  V30 60159 N 5582.37 -1.12525 -4.49324 0
M  V30 60160 C 5583.11 -1.50392 -5.53326 0
M  V30 60161 N 5582.6 -1.95707 -6.64583 0
M  V30 60162 N 5584.39 -1.41997 -5.43869 0
M  V30 60163 H 5576.55 -1.44217 -1.55933 0
M  V30 60164 H 5578.81 -0.59638 -0.736909 0
M  V30 60165 H 5578.51 -1.72117 -3.06706 0
M  V30 60166 H 5578.39 -0.118367 -3.77014 0
M  V30 60167 H 5580.78 0.398973 -2.92391 0
M  V30 60168 H 5580.86 -1.23172 -2.24192 0
M  V30 60169 H 5580.5 -2.2018 -4.57693 0
M  V30 60170 H 5580.43 -0.548697 -5.23734 0
M  V30 60171 H 5582.92 -0.79289 -3.69488 0
M  V30 60172 H 5583.23 -2.2275 -7.40002 0
M  V30 60173 H 5581.58 -1.99659 -6.65703 0
M  V30 60174 H 5584.77 -1.06436 -4.55839 0
M  V30 60175 H 5584.94 -1.71834 -6.24802 0
M  V30 60176 N 5578.35 1.56282 -0.203431 0
M  V30 60177 C 5579.6 1.98865 0.427106 0
M  V30 60178 C 5579.95 1.08834 1.5866 0
M  V30 60179 O 5579.24 0.134466 1.91128 0
M  V30 60180 C 5579.44 3.45152 0.927638 0
M  V30 60181 C 5579.27 4.49332 -0.181818 0
M  V30 60182 C 5578.04 5.01202 -0.642222 0
M  V30 60183 C 5580.23 5.04608 -0.993725 0
M  V30 60184 N 5578.22 5.8906 -1.72863 0
M  V30 60185 C 5579.59 5.89216 -1.92936 0
M  V30 60186 C 5581.64 4.87019 -1.0352 0
M  V30 60187 C 5580.35 6.58115 -2.90305 0
M  V30 60188 C 5582.37 5.56664 -1.99699 0
M  V30 60189 C 5581.73 6.41025 -2.92005 0
M  V30 60190 H 5577.83 0.772191 0.123474 0
M  V30 60191 H 5580.42 1.92199 -0.311042 0
M  V30 60192 H 5578.59 3.52301 1.6352 0
M  V30 60193 H 5580.32 3.74685 1.52948 0
M  V30 60194 H 5577.07 4.73021 -0.234062 0
M  V30 60195 H 5577.5 6.37692 -2.27329 0
M  V30 60196 H 5582.14 4.21467 -0.335527 0
M  V30 60197 H 5579.86 7.22861 -3.61245 0
M  V30 60198 H 5583.44 5.45027 -2.0356 0
M  V30 60199 H 5582.32 6.93966 -3.65213 0
M  V30 60200 N 5579.83 -0.0701116 1.57444 0
M  V30 60201 C 5581.05 -0.785636 1.91944 0
M  V30 60202 C 5581.48 -1.7024 0.799991 0
M  V30 60203 O 5580.84 -1.79609 -0.247076 0
M  V30 60204 C 5580.88 -1.55386 3.25403 0
M  V30 60205 O 5579.99 -2.66464 3.14755 0
M  V30 60206 H 5579.33 -0.214223 0.628494 0
M  V30 60207 H 5581.86 -0.0378524 2.04565 0
M  V30 60208 H 5581.87 -1.93275 3.59317 0
M  V30 60209 H 5580.54 -0.881223 4.06457 0
M  V30 60210 H 5579.12 -2.3142 2.92402 0
M  V30 60211 N 5581.31 -1.53855 -0.341539 0
M  V30 60212 C 5582.58 -1.61827 -1.0987 0
M  V30 60213 C 5582.96 -0.440783 -2.06447 0
M  V30 60214 O 5582.31 0.566755 -2.2136 0
M  V30 60215 C 5582.52 -2.97996 -1.81657 0
M  V30 60216 C 5583.87 -3.5342 -2.35329 0
M  V30 60217 O 5584.89 -3.00184 -1.91751 0
M  V30 60218 O 5583.75 -4.46541 -3.1506 0
M  V30 60219 H 5580.85 -0.654617 -0.505377 0
M  V30 60220 H 5583.39 -1.662 -0.34287 0
M  V30 60221 H 5582.16 -3.75134 -1.1131 0
M  V30 60222 H 5581.79 -2.97222 -2.64093 0
M  V30 60223 N 5582.78 0.602658 -1.45622 0
M  V30 60224 C 5583.73 1.73419 -1.55011 0
M  V30 60225 C 5584.73 1.64117 -0.419771 0
M  V30 60226 O 5585.93 1.69851 -0.595875 0
M  V30 60227 H 5582.31 0.573021 -0.486982 0
M  V30 60228 H 5584.28 1.62628 -2.50189 0
M  V30 60229 C 5583.03 3.11803 -1.53864 0
M  V30 60230 H 5582.35 3.19623 -2.4017 0
M  V30 60231 H 5583.79 3.90792 -1.64491 0
M  V30 60232 C 5582.25 3.35865 -0.263883 0
M  V30 60233 O 5582.78 3.96337 0.654225 0
M  V30 60234 N 5580.98 2.9017 -0.158029 0
M  V30 60235 H 5580.53 2.41141 -0.906029 0
M  V30 60236 H 5580.49 3.06643 0.694067 0
M  V30 60237 N 5584.26 1.32995 0.845589 0
M  V30 60238 C 5585.49 1.27093 1.63264 0
M  V30 60239 C 5585.9 -0.159415 1.88126 0
M  V30 60240 O 5585.26 -1.09943 1.45667 0
M  V30 60241 C 5585.31 2.0366 2.98672 0
M  V30 60242 O 5585.03 3.41113 2.74906 0
M  V30 60243 C 5586.53 2.04889 3.9311 0
M  V30 60244 H 5583.75 0.438125 0.50822 0
M  V30 60245 H 5586.3 1.75261 1.05374 0
M  V30 60246 H 5584.45 1.59191 3.53181 0
M  V30 60247 H 5584.87 3.80417 3.61086 0
M  V30 60248 H 5586.34 2.62928 4.85358 0
M  V30 60249 H 5586.82 1.03743 4.26772 0
M  V30 60250 H 5587.42 2.49346 3.44538 0
M  V30 60251 N 5585.74 -1.063 1.16353 0
M  V30 60252 C 5586.96 -1.83334 0.969704 0
M  V30 60253 C 5587.39 -1.81947 -0.477167 0
M  V30 60254 O 5586.75 -1.22023 -1.3409 0
M  V30 60255 C 5586.8 -3.27845 1.50166 0
M  V30 60256 O 5585.9 -4.06278 0.707948 0
M  V30 60257 H 5585.24 -0.567281 0.345092 0
M  V30 60258 H 5587.77 -1.34028 1.54589 0
M  V30 60259 H 5587.78 -3.78665 1.51911 0
M  V30 60260 H 5586.46 -3.2817 2.55494 0
M  V30 60261 H 5585.03 -3.65052 0.761 0
M  V30 60262 N 5587.22 -0.962004 -1.24833 0
M  V30 60263 C 5588.44 -0.637778 -1.9735 0
M  V30 60264 C 5588.87 0.784858 -1.70943 0
M  V30 60265 O 5588.23 1.53185 -0.969748 0
M  V30 60266 C 5588.27 -0.911607 -3.48887 0
M  V30 60267 O 5587.38 0.0058717 -4.124 0
M  V30 60268 H 5586.72 -0.241707 -0.618445 0
M  V30 60269 H 5589.25 -1.2906 -1.58759 0
M  V30 60270 H 5589.26 -0.840842 -3.99242 0
M  V30 60271 H 5587.93 -1.94843 -3.67436 0
M  V30 60272 H 5586.51 -0.117728 -3.72714 0
M  V30 60273 N 5588.7 1.39598 -0.731441 0
M  V30 60274 C 5589.65 2.27907 -0.0652733 0
M  V30 60275 C 5590.63 1.44077 0.716283 0
M  V30 60276 O 5591.82 1.67022 0.585877 0
M  V30 60277 C 5588.95 3.32766 0.843906 0
M  V30 60278 C 5588.04 4.24062 0.0566897 0
M  V30 60279 N 5588.43 4.96445 -0.968321 0
M  V30 60280 C 5586.73 4.45076 0.286881 0
M  V30 60281 C 5587.43 5.63525 -1.44271 0
M  V30 60282 N 5586.4 5.38233 -0.761961 0
M  V30 60283 H 5590.21 2.81321 -0.850638 0
M  V30 60284 H 5587.72 1.52238 -0.56545 0
M  V30 60285 H 5589.72 3.94893 1.3366 0
M  V30 60286 H 5588.38 2.80911 1.62847 0
M  V30 60287 H 5589.39 5.00006 -1.34959 0
M  V30 60288 H 5586.06 4.04171 1.04653 0
M  V30 60289 H 5587.45 6.31479 -2.2953 0
M  V30 60290 N 5590.17 0.478804 1.50151 0
M  V30 60291 C 5591.11 -0.357505 2.25382 0
M  V30 60292 C 5592.09 -0.989604 1.29018 0
M  V30 60293 O 5593.27 -1.02404 1.58258 0
M  V30 60294 C 5590.4 -1.50156 3.03596 0
M  V30 60295 C 5589.44 -0.986069 4.14944 0
M  V30 60296 S 5590.28 0.105427 5.35396 0
M  V30 60297 C 5591.43 -1.04232 6.1716 0
M  V30 60298 H 5591.66 0.28109 2.95968 0
M  V30 60299 H 5589.2 0.263787 1.5213 0
M  V30 60300 H 5591.16 -2.15721 3.49249 0
M  V30 60301 H 5589.82 -2.11169 2.32522 0
M  V30 60302 H 5589.01 -1.84278 4.69103 0
M  V30 60303 H 5588.61 -0.40801 3.71768 0
M  V30 60304 H 5590.9 -1.95233 6.48761 0
M  V30 60305 H 5591.85 -0.539835 7.06039 0
M  V30 60306 H 5592.25 -1.29963 5.49336 0
M  V30 60307 N 5591.65 -1.56171 0.211716 0
M  V30 60308 C 5592.62 -2.18604 -0.688829 0
M  V30 60309 C 5593.62 -1.14512 -1.12888 0
M  V30 60310 O 5594.81 -1.39803 -1.03927 0
M  V30 60311 C 5591.94 -2.80147 -1.94243 0
M  V30 60312 H 5593.13 -2.99551 -0.14466 0
M  V30 60313 H 5590.68 -1.56254 -0.0379065 0
M  V30 60314 H 5591.42 -2.03044 -2.52871 0
M  V30 60315 H 5591.2 -3.56364 -1.63546 0
M  V30 60316 H 5592.69 -3.28035 -2.58424 0
M  V30 60317 N 5593.13 0.061761 -1.57479 0
M  V30 60318 C 5594.38 0.757503 -1.87367 0
M  V30 60319 C 5594.7 1.77604 -0.805087 0
M  V30 60320 O 5593.97 1.95203 0.165148 0
M  V30 60321 H 5592.55 0.282756 -0.691418 0
M  V30 60322 H 5595.21 0.0354669 -1.94868 0
M  V30 60323 H 5594.31 1.26748 -2.85204 0
M  V30 60324 N 5594.61 1.54034 0.333374 0
M  V30 60325 C 5596.02 1.44524 0.677116 0
M  V30 60326 C 5596.22 0.61019 1.92039 0
M  V30 60327 O 5595.28 0.105146 2.52281 0
M  V30 60328 C 5596.59 2.88132 0.860268 0
M  V30 60329 C 5598.14 2.97971 0.958237 0
M  V30 60330 C 5598.62 4.42707 1.17363 0
M  V30 60331 N 5600.11 4.46277 1.2406 0
M  V30 60332 C 5600.84 5.55412 1.42496 0
M  V30 60333 N 5600.34 6.74534 1.58039 0
M  V30 60334 N 5602.13 5.43042 1.45125 0
M  V30 60335 H 5594.28 2.06814 -0.48393 0
M  V30 60336 H 5596.55 0.935302 -0.154643 0
M  V30 60337 H 5596.25 3.51695 0.0180849 0
M  V30 60338 H 5596.13 3.33674 1.75901 0
M  V30 60339 H 5598.51 2.34541 1.79093 0
M  V30 60340 H 5598.59 2.55774 0.0361744 0
M  V30 60341 H 5598.24 5.06721 0.345826 0
M  V30 60342 H 5598.17 4.82505 2.10942 0
M  V30 60343 H 5600.66 3.60443 1.13532 0
M  V30 60344 H 5600.97 7.53469 1.7177 0
M  V30 60345 H 5599.32 6.7746 1.55155 0
M  V30 60346 H 5602.51 4.48935 1.32572 0
M  V30 60347 H 5602.68 6.28152 1.59151 0
M  V30 60348 N 5596.09 -0.594927 1.4594 0
M  V30 60349 C 5597.36 -1.35472 1.41091 0
M  V30 60350 C 5597.74 -2.10916 0.0880253 0
M  V30 60351 O 5597.09 -2.08707 -0.93025 0
M  V30 60352 C 5597.3 -2.29096 2.63279 0
M  V30 60353 C 5598.65 -2.91309 3.08908 0
M  V30 60354 O 5599.67 -2.39414 2.63741 0
M  V30 60355 O 5598.53 -3.85539 3.87326 0
M  V30 60356 H 5595.63 -0.60808 0.560507 0
M  V30 60357 H 5598.17 -0.61696 1.58088 0
M  V30 60358 H 5596.94 -1.72694 3.5113 0
M  V30 60359 H 5596.57 -3.10232 2.4868 0
M  V30 60360 N 5597.56 -1.33441 -0.838524 0
M  V30 60361 C 5598.79 -1.27957 -1.62587 0
M  V30 60362 C 5599.21 0.149436 -1.88208 0
M  V30 60363 O 5598.56 1.09169 -1.46248 0
M  V30 60364 C 5598.62 -2.05241 -2.97588 0
M  V30 60365 O 5598.34 -3.42567 -2.73093 0
M  V30 60366 C 5599.84 -2.06971 -3.92018 0
M  V30 60367 H 5597.06 -0.440814 -0.50589 0
M  V30 60368 H 5599.6 -1.75818 -1.04444 0
M  V30 60369 H 5597.76 -1.61061 -3.52332 0
M  V30 60370 H 5598.17 -3.82327 -3.59063 0
M  V30 60371 H 5599.64 -2.65498 -4.83957 0
M  V30 60372 H 5600.12 -1.06005 -4.26215 0
M  V30 60373 H 5600.73 -2.5117 -3.43211 0
M  V30 60374 N 5599.04 1.05681 -1.16915 0
M  V30 60375 C 5600.01 2.11478 -0.883721 0
M  V30 60376 C 5601.01 1.60321 0.123977 0
M  V30 60377 O 5602.2 1.73867 -0.107627 0
M  V30 60378 C 5599.33 3.39369 -0.322768 0
M  V30 60379 H 5600.52 2.38232 -1.82169 0
M  V30 60380 H 5598.07 1.21846 -0.978938 0
M  V30 60381 H 5598.81 3.18268 0.622583 0
M  V30 60382 H 5598.59 3.77808 -1.04896 0
M  V30 60383 H 5600.08 4.17361 -0.141219 0
M  V30 60384 N 5600.52 0.96861 1.24321 0
M  V30 60385 C 5601.77 0.631931 1.92703 0
M  V30 60386 C 5602.1 -0.830898 1.75527 0
M  V30 60387 O 5601.37 -1.59791 1.10892 0
M  V30 60388 C 5601.66 1.00858 3.45687 0
M  V30 60389 C 5601.51 2.52817 3.72027 0
M  V30 60390 C 5602.83 0.5438 4.36727 0
M  V30 60391 H 5599.95 0.231052 0.699846 0
M  V30 60392 H 5602.59 1.20778 1.46672 0
M  V30 60393 H 5600.74 0.518569 3.85024 0
M  V30 60394 H 5602.41 3.09301 3.42244 0
M  V30 60395 H 5600.66 2.95974 3.17146 0
M  V30 60396 H 5601.33 2.7422 4.79069 0
M  V30 60397 H 5603.8 0.964325 4.04772 0
M  V30 60398 H 5602.68 0.83589 5.42498 0
M  V30 60399 H 5602.94 -0.556102 4.38589 0
M  V30 60400 N 5602 -1.39208 0.738834 0
M  V30 60401 C 5603.25 -1.99672 0.285324 0
M  V30 60402 C 5603.56 -1.59301 -1.13501 0
M  V30 60403 O 5604.77 -2.12628 -1.68824 0
M  V30 60404 C 5603.22 -3.56959 0.459186 0
M  V30 60405 C 5602.83 -4.0629 1.88766 0
M  V30 60406 C 5604.58 -4.24446 0.0676446 0
M  V30 60407 C 5602.48 -5.56164 2.01087 0
M  V30 60408 H 5601.41 -0.746942 0.102927 0
M  V30 60409 H 5604.06 -1.59159 0.913265 0
M  V30 60410 H 5602.45 -3.95286 -0.237711 0
M  V30 60411 H 5603.62 -3.79288 2.61682 0
M  V30 60412 H 5601.93 -3.51478 2.23276 0
M  V30 60413 H 5604.53 -5.3452 0.138663 0
M  V30 60414 H 5604.87 -4.04657 -0.97768 0
M  V30 60415 H 5605.41 -3.91306 0.715842 0
M  V30 60416 H 5602.15 -5.80838 3.03821 0
M  V30 60417 H 5601.67 -5.84956 1.32612 0
M  V30 60418 H 5603.35 -6.21635 1.79384 0
M  V30 60419 N 5603.48 -0.48676 -1.49895 0
M  V30 60420 C 5604.41 0.288817 -2.31707 0
M  V30 60421 C 5605.39 0.975852 -1.39324 0
M  V30 60422 O 5606.57 0.970006 -1.68239 0
M  V30 60423 C 5603.7 1.36207 -3.19476 0
M  V30 60424 C 5602.66 0.795737 -4.20538 0
M  V30 60425 C 5601.98 1.96845 -4.97148 0
M  V30 60426 C 5603.28 -0.203604 -5.21903 0
M  V30 60427 H 5604.98 -0.394038 -2.96796 0
M  V30 60428 H 5602.52 -0.190945 -1.42728 0
M  V30 60429 H 5604.48 1.91225 -3.75514 0
M  V30 60430 H 5603.2 2.07391 -2.52303 0
M  V30 60431 H 5601.86 0.267409 -3.65623 0
M  V30 60432 H 5601.51 2.66764 -4.26434 0
M  V30 60433 H 5601.21 1.59565 -5.6552 0
M  V30 60434 H 5602.73 2.52324 -5.56026 0
M  V30 60435 H 5604.15 0.257943 -5.72719 0
M  V30 60436 H 5602.54 -0.491484 -5.98084 0
M  V30 60437 H 5603.61 -1.1243 -4.71686 0
M  V30 60438 N 5604.96 1.56057 -0.219996 0
M  V30 60439 C 5606.18 2.03101 0.420069 0
M  V30 60440 C 5606.61 1.09881 1.52669 0
M  V30 60441 O 5605.96 0.0867095 1.81093 0
M  V30 60442 C 5606.01 3.48392 0.930348 0
M  V30 60443 O 5605.12 3.58308 2.0418 0
M  V30 60444 H 5604.46 0.657132 0.095254 0
M  V30 60445 H 5606.99 2.01786 -0.338176 0
M  V30 60446 H 5607 3.88682 1.24056 0
M  V30 60447 H 5605.67 4.15726 0.120393 0
M  V30 60448 H 5604.25 3.29904 1.73833 0
M  V30 60449 N 5606.43 -0.0534086 1.57509 0
M  V30 60450 C 5607.38 -1.06148 2.04942 0
M  V30 60451 C 5608.35 -1.37378 0.933618 0
M  V30 60452 O 5609.54 -1.48133 1.20256 0
M  V30 60453 C 5606.68 -2.36467 2.51351 0
M  V30 60454 C 5605.79 -2.11607 3.76625 0
M  V30 60455 C 5604.92 -3.35621 4.11742 0
M  V30 60456 C 5603.96 -3.06207 5.30003 0
M  V30 60457 N 5603.1 -4.22604 5.6067 0
M  V30 60458 H 5607.94 -0.65002 2.90824 0
M  V30 60459 H 5605.48 -0.309371 1.4381 0
M  V30 60460 H 5607.43 -3.12578 2.76317 0
M  V30 60461 H 5606.06 -2.7538 1.68421 0
M  V30 60462 H 5605.12 -1.26103 3.5889 0
M  V30 60463 H 5606.43 -1.85893 4.62866 0
M  V30 60464 H 5605.58 -4.20116 4.37707 0
M  V30 60465 H 5604.32 -3.64428 3.24105 0
M  V30 60466 H 5603.33 -2.20111 5.03817 0
M  V30 60467 H 5604.55 -2.78704 6.19274 0
M  V30 60468 H 5602.5 -4.51407 4.75991 0
M  V30 60469 H 5602.41 -4.00228 6.41369 0
M  V30 60470 H 5603.68 -5.08042 5.91196 0
M  V30 60471 N 5607.91 -1.54208 -0.325201 0
M  V30 60472 C 5608.84 -1.78323 -1.42395 0
M  V30 60473 C 5609.82 -0.63313 -1.49767 0
M  V30 60474 O 5611.01 -0.870383 -1.67202 0
M  V30 60475 C 5608.13 -1.89832 -2.80502 0
M  V30 60476 C 5607.18 -3.12112 -2.90669 0
M  V30 60477 S 5608.01 -4.70755 -2.55246 0
M  V30 60478 C 5609.17 -4.85168 -3.95427 0
M  V30 60479 H 5609.4 -2.71238 -1.21726 0
M  V30 60480 H 5606.93 -1.4531 -0.521942 0
M  V30 60481 H 5608.89 -1.97149 -3.60059 0
M  V30 60482 H 5607.55 -0.978977 -2.98454 0
M  V30 60483 H 5606.75 -3.16895 -3.9191 0
M  V30 60484 H 5606.35 -3.03117 -2.19081 0
M  V30 60485 H 5608.64 -4.67705 -4.90162 0
M  V30 60486 H 5609.58 -5.87268 -3.95628 0
M  V30 60487 H 5609.99 -4.13485 -3.84305 0
M  V30 60488 N 5609.39 0.587179 -1.46253 0
M  V30 60489 C 5610.35 1.67857 -1.56066 0
M  V30 60490 C 5611.35 1.54714 -0.438216 0
M  V30 60491 O 5612.54 1.59412 -0.702379 0
M  V30 60492 C 5609.67 3.07256 -1.4767 0
M  V30 60493 H 5610.87 1.60516 -2.53327 0
M  V30 60494 H 5608.42 0.804643 -1.33997 0
M  V30 60495 H 5609.16 3.20157 -0.516713 0
M  V30 60496 H 5608.94 3.18205 -2.29103 0
M  V30 60497 H 5610.43 3.86714 -1.57613 0
M  V30 60498 N 5610.87 1.33884 0.831435 0
M  V30 60499 C 5612.1 1.28817 1.61906 0
M  V30 60500 C 5612.51 -0.139453 1.88284 0
M  V30 60501 O 5611.87 -1.08391 1.46825 0
M  V30 60502 C 5611.92 2.06816 2.96495 0
M  V30 60503 O 5611.64 3.4401 2.71272 0
M  V30 60504 C 5613.14 2.09047 3.90915 0
M  V30 60505 H 5610.36 0.44349 0.503545 0
M  V30 60506 H 5612.9 1.76369 1.0351 0
M  V30 60507 H 5611.06 1.62928 3.51473 0
M  V30 60508 H 5611.47 3.84226 3.5703 0
M  V30 60509 H 5612.95 2.68061 4.82542 0
M  V30 60510 H 5613.42 1.08264 4.25647 0
M  V30 60511 H 5614.03 2.52987 3.41874 0
M  V30 60512 N 5612.35 -1.0506 1.17474 0
M  V30 60513 C 5613.76 -1.30253 0.922294 0
M  V30 60514 C 5613.96 -1.9712 -0.417827 0
M  V30 60515 O 5613.02 -2.24561 -1.1545 0
M  V30 60516 C 5614.33 -2.17102 2.08056 0
M  V30 60517 C 5615.88 -2.3048 2.11774 0
M  V30 60518 C 5616.35 -3.20689 3.2699 0
M  V30 60519 N 5617.84 -3.28275 3.26787 0
M  V30 60520 C 5618.58 -3.98204 4.12579 0
M  V30 60521 N 5618.08 -4.70549 5.08484 0
M  V30 60522 N 5619.87 -3.94381 4.00525 0
M  V30 60523 H 5612.02 -0.600581 2.03732 0
M  V30 60524 H 5614.28 -0.327444 0.889654 0
M  V30 60525 H 5613.99 -1.75262 3.0492 0
M  V30 60526 H 5613.86 -3.17743 2.03272 0
M  V30 60527 H 5616.25 -2.7156 1.15495 0
M  V30 60528 H 5616.33 -1.29463 2.20619 0
M  V30 60529 H 5615.97 -2.80322 4.23535 0
M  V30 60530 H 5615.9 -4.21714 3.15381 0
M  V30 60531 H 5618.4 -2.7673 2.5735 0
M  V30 60532 H 5618.71 -5.21472 5.70339 0
M  V30 60533 H 5617.05 -4.69487 5.12452 0
M  V30 60534 H 5620.24 -3.36989 3.24894 0
M  V30 60535 H 5620.42 -4.4861 4.67604 0
M  V30 60536 N 5613.82 -0.97519 -1.23806 0
M  V30 60537 C 5614.75 -0.530469 -2.27395 0
M  V30 60538 C 5615.73 0.433705 -1.64478 0
M  V30 60539 O 5616.92 0.328202 -1.91407 0
M  V30 60540 C 5614.05 0.172944 -3.46869 0
M  V30 60541 C 5613 -0.707993 -4.22104 0
M  V30 60542 C 5612.33 0.127339 -5.34548 0
M  V30 60543 C 5613.63 -1.99626 -4.82645 0
M  V30 60544 H 5615.32 -1.39631 -2.64846 0
M  V30 60545 H 5612.87 -0.672846 -1.27314 0
M  V30 60546 H 5614.82 0.495334 -4.18479 0
M  V30 60547 H 5613.55 1.0732 -3.08464 0
M  V30 60548 H 5612.21 -1.01376 -3.52304 0
M  V30 60549 H 5611.85 1.02797 -4.92384 0
M  V30 60550 H 5611.55 -0.458934 -5.85805 0
M  V30 60551 H 5613.08 0.444229 -6.08982 0
M  V30 60552 H 5614.49 -1.73898 -5.4629 0
M  V30 60553 H 5612.89 -2.52988 -5.44166 0
M  V30 60554 H 5613.96 -2.68643 -4.03682 0
M  V30 60555 N 5615.3 1.38815 -0.746207 0
M  V30 60556 C 5616.58 1.94303 -0.224909 0
M  V30 60557 C 5616.96 1.68211 1.27547 0
M  V30 60558 O 5616.31 1.01654 2.04643 0
M  V30 60559 C 5616.52 3.44304 -0.570621 0
M  V30 60560 C 5617.86 4.21327 -0.526163 0
M  V30 60561 O 5618.89 3.52552 -0.508475 0
M  V30 60562 O 5617.75 5.43918 -0.530574 0
M  V30 60563 H 5614.84 0.825784 -0.0448337 0
M  V30 60564 H 5617.39 1.4825 -0.825827 0
M  V30 60565 H 5616.16 3.56773 -1.60713 0
M  V30 60566 H 5615.78 3.97557 0.0586873 0
M  V30 60567 N 5616.78 0.494703 1.49634 0
M  V30 60568 C 5618.01 -0.0512321 2.07337 0
M  V30 60569 C 5618.43 -1.30633 1.35339 0
M  V30 60570 O 5617.79 -1.76645 0.408188 0
M  V30 60571 C 5617.84 -0.294299 3.59397 0
M  V30 60572 O 5616.94 -1.37026 3.8897 0
M  V30 60573 H 5616.28 0.0234313 0.663586 0
M  V30 60574 H 5618.81 0.692519 1.92524 0
M  V30 60575 H 5618.82 -0.527712 4.04573 0
M  V30 60576 H 5617.5 0.622728 4.11212 0
M  V30 60577 H 5616.07 -1.1223 3.55611 0
M  V30 60578 N 5618.26 -1.55938 0.228269 0
M  V30 60579 C 5619.48 -2.03321 -0.409292 0
M  V30 60580 C 5619.91 -1.10689 -1.52084 0
M  V30 60581 O 5619.27 -0.0963121 -1.81044 0
M  V30 60582 C 5619.31 -3.4888 -0.911859 0
M  V30 60583 O 5618.42 -3.59385 -2.02277 0
M  V30 60584 H 5617.76 -0.657628 -0.0917678 0
M  V30 60585 H 5620.29 -2.01604 0.348873 0
M  V30 60586 H 5620.3 -3.89335 -1.21993 0
M  V30 60587 H 5618.97 -4.15784 -0.098344 0
M  V30 60588 H 5617.55 -3.30821 -1.72081 0
M  V30 60589 N 5619.74 0.0450548 -1.57536 0
M  V30 60590 C 5620.98 0.737588 -1.8816 0
M  V30 60591 C 5621.31 1.76741 -0.82388 0
M  V30 60592 O 5620.58 1.95367 0.144434 0
M  V30 60593 H 5619.16 0.275406 -0.694378 0
M  V30 60594 H 5621.82 0.0147966 -1.94894 0
M  V30 60595 H 5620.91 1.23716 -2.86532 0
M  V30 60596 N 5621.21 1.54379 0.317018 0
M  V30 60597 C 5622.12 1.87252 1.41329 0
M  V30 60598 C 5623.14 0.765072 1.56277 0
M  V30 60599 O 5624.32 1.06 1.71248 0
M  V30 60600 C 5621.38 2.0989 2.75948 0
M  V30 60601 C 5620.44 3.33667 2.7012 0
M  V30 60602 C 5619.68 3.55216 3.98318 0
M  V30 60603 O 5619.9 2.80078 4.96903 0
M  V30 60604 O 5618.83 4.48707 4.01181 0
M  V30 60605 H 5622.66 2.80485 1.16456 0
M  V30 60606 H 5620.24 1.40366 0.511638 0
M  V30 60607 H 5622.13 2.26073 3.55625 0
M  V30 60608 H 5620.8 1.19845 3.00697 0
M  V30 60609 H 5619.71 3.22864 1.8897 0
M  V30 60610 H 5621.04 4.23791 2.50323 0
M  V30 60611 N 5622.69 -0.579414 1.46562 0
M  V30 60612 C 5624.11 -0.903117 1.3159 0
M  V30 60613 C 5624.31 -1.99405 0.28979 0
M  V30 60614 O 5623.36 -2.50633 -0.306492 0
M  V30 60615 C 5624.68 -1.31735 2.70308 0
M  V30 60616 C 5626.23 -1.43002 2.78423 0
M  V30 60617 C 5626.7 -1.87791 4.1773 0
M  V30 60618 N 5628.19 -1.94979 4.20164 0
M  V30 60619 C 5628.93 -2.30916 5.24848 0
M  V30 60620 N 5628.42 -2.65622 6.39857 0
M  V30 60621 N 5630.22 -2.31499 5.12215 0
M  V30 60622 H 5622.37 0.141186 2.1193 0
M  V30 60623 H 5624.63 0.000493631 0.948 0
M  V30 60624 H 5624.34 -0.589742 3.4672 0
M  V30 60625 H 5624.21 -2.27819 3.0063 0
M  V30 60626 H 5626.6 -2.14849 2.02297 0
M  V30 60627 H 5626.68 -0.451612 2.51782 0
M  V30 60628 H 5626.32 -1.16521 4.94353 0
M  V30 60629 H 5626.25 -2.86595 4.41781 0
M  V30 60630 H 5628.74 -1.70633 3.37184 0
M  V30 60631 H 5629.06 -2.92007 7.15508 0
M  V30 60632 H 5627.4 -2.63253 6.43213 0
M  V30 60633 H 5630.59 -2.03809 4.21402 0
M  V30 60634 H 5630.76 -2.59178 5.93912 0
M  V30 60635 N 5624.17 -1.34323 -0.824323 0
M  V30 60636 C 5625.42 -1.26351 -1.57734 0
M  V30 60637 C 5625.74 0.166768 -1.94286 0
M  V30 60638 O 5625.01 1.09905 -1.62165 0
M  V30 60639 H 5623.59 -0.46468 -0.584877 0
M  V30 60640 H 5626.25 -1.68218 -0.984314 0
M  V30 60641 H 5625.35 -1.86728 -2.50078 0
M  V30 60642 N 5625.65 1.04435 -1.1803 0
M  V30 60643 C 5626.88 1.81231 -0.998153 0
M  V30 60644 C 5627.29 1.83273 0.453495 0
M  V30 60645 O 5626.65 1.26549 1.31497 0
M  V30 60646 C 5626.7 3.27002 -1.54118 0
M  V30 60647 O 5626.42 3.25164 -2.93599 0
M  V30 60648 C 5627.92 4.20456 -1.40469 0
M  V30 60649 H 5625.14 0.570838 -0.352683 0
M  V30 60650 H 5627.69 1.31643 -1.56494 0
M  V30 60651 H 5625.84 3.73833 -1.01624 0
M  V30 60652 H 5626.25 4.16455 -3.1885 0
M  V30 60653 H 5627.73 5.20689 -1.83267 0
M  V30 60654 H 5628.21 4.3778 -0.352866 0
M  V30 60655 H 5628.81 3.79486 -1.92017 0
M  V30 60656 N 5627.13 0.981742 1.23287 0
M  V30 60657 C 5628.35 0.669439 1.95771 0
M  V30 60658 C 5628.77 -0.763837 1.72659 0
M  V30 60659 O 5628.13 -1.51415 1.01882 0
M  V30 60660 C 5628.18 0.951985 3.4874 0
M  V30 60661 O 5627.9 2.32893 3.71069 0
M  V30 60662 C 5629.4 0.655822 4.38422 0
M  V30 60663 H 5626.62 0.248567 0.623262 0
M  V30 60664 H 5629.16 1.31349 1.56741 0
M  V30 60665 H 5627.32 0.353923 3.8578 0
M  V30 60666 H 5627.73 2.41964 4.65353 0
M  V30 60667 H 5629.21 0.903874 5.44549 0
M  V30 60668 H 5629.68 -0.410115 4.37281 0
M  V30 60669 H 5630.29 1.23442 4.06991 0
M  V30 60670 N 5628.6 -1.38417 0.753558 0
M  V30 60671 C 5629.57 -2.28807 0.134102 0
M  V30 60672 C 5630.57 -1.47186 -0.647531 0
M  V30 60673 O 5631.76 -1.67633 -0.473802 0
M  V30 60674 C 5628.89 -3.30929 -0.818464 0
M  V30 60675 H 5630.08 -2.85093 0.930686 0
M  V30 60676 H 5627.64 -1.47376 0.520566 0
M  V30 60677 H 5628.37 -2.79733 -1.64073 0
M  V30 60678 H 5628.16 -3.91234 -0.260389 0
M  V30 60679 H 5629.65 -3.98519 -1.24788 0
M  V30 60680 N 5630.08 -0.502631 -1.4937 0
M  V30 60681 C 5631.31 0.038015 -2.06565 0
M  V30 60682 C 5631.72 1.31219 -1.36302 0
M  V30 60683 O 5631.06 1.78461 -0.43558 0
M  V30 60684 C 5631.13 0.360337 -3.5769 0
M  V30 60685 C 5630.79 -0.816361 -4.49649 0
M  V30 60686 C 5631.79 -1.7073 -4.91067 0
M  V30 60687 C 5629.47 -1.01563 -4.91925 0
M  V30 60688 C 5631.47 -2.78164 -5.73501 0
M  V30 60689 C 5629.15 -2.09314 -5.74135 0
M  V30 60690 C 5630.15 -2.9745 -6.14827 0
M  V30 60691 O 5629.84 -4.03342 -6.95393 0
M  V30 60692 H 5629.57 -0.0179786 -0.675761 0
M  V30 60693 H 5632.12 -0.699677 -1.93116 0
M  V30 60694 H 5630.35 1.15164 -3.69153 0
M  V30 60695 H 5632.04 0.839791 -3.97118 0
M  V30 60696 H 5632.81 -1.56518 -4.5905 0
M  V30 60697 H 5628.69 -0.338984 -4.59752 0
M  V30 60698 H 5632.23 -3.46986 -6.05183 0
M  V30 60699 H 5628.13 -2.23521 -6.05565 0
M  V30 60700 H 5628.9 -4.00715 -7.13702 0
M  V30 60701 N 5631.56 1.55815 -0.236535 0
M  V30 60702 C 5632.47 2.24578 0.67836 0
M  V30 60703 C 5633.49 1.2584 1.20168 0
M  V30 60704 O 5634.66 1.5869 1.24013 0
M  V30 60705 C 5631.73 2.92383 1.86315 0
M  V30 60706 C 5630.79 4.06504 1.38033 0
M  V30 60707 C 5630.02 4.71065 2.50865 0
M  V30 60708 O 5630.25 4.34665 3.69354 0
M  V30 60709 O 5629.18 5.59776 2.21213 0
M  V30 60710 H 5633.01 3.03453 0.122495 0
M  V30 60711 H 5630.59 1.49399 -0.00546055 0
M  V30 60712 H 5632.47 3.35126 2.55477 0
M  V30 60713 H 5631.15 2.16456 2.40683 0
M  V30 60714 H 5630.05 3.68298 0.656293 0
M  V30 60715 H 5631.39 4.84217 0.882854 0
M  V30 60716 N 5633.04 -0.0366996 1.57557 0
M  V30 60717 C 5633.99 -1.03968 2.06057 0
M  V30 60718 C 5634.96 -1.3638 0.948137 0
M  V30 60719 O 5636.14 -1.46849 1.2182 0
M  V30 60720 C 5633.28 -2.33788 2.53845 0
M  V30 60721 C 5632.39 -2.076 3.78848 0
M  V30 60722 C 5631.53 -3.31235 4.15279 0
M  V30 60723 C 5630.57 -3.00569 5.33221 0
M  V30 60724 N 5629.71 -4.16633 5.65121 0
M  V30 60725 H 5634.55 -0.619137 2.91497 0
M  V30 60726 H 5632.08 -0.2941 1.4413 0
M  V30 60727 H 5634.04 -3.09629 2.79617 0
M  V30 60728 H 5632.67 -2.73578 1.71332 0
M  V30 60729 H 5631.72 -1.2229 3.60207 0
M  V30 60730 H 5633.03 -1.80973 4.64812 0
M  V30 60731 H 5632.19 -4.1545 4.42138 0
M  V30 60732 H 5630.93 -3.6097 3.27952 0
M  V30 60733 H 5629.93 -2.14755 5.06123 0
M  V30 60734 H 5631.16 -2.7212 6.22196 0
M  V30 60735 H 5629.1 -4.46333 4.80752 0
M  V30 60736 H 5629.02 -3.93403 6.45578 0
M  V30 60737 H 5630.29 -5.01743 5.96552 0
M  V30 60738 N 5634.52 -1.54545 -0.308827 0
M  V30 60739 C 5635.48 -1.84218 -1.36368 0
M  V30 60740 C 5636.48 -0.714681 -1.44045 0
M  V30 60741 O 5637.67 -0.98298 -1.43816 0
M  V30 60742 C 5634.8 -2.01545 -2.74941 0
M  V30 60743 H 5636 -2.78481 -1.11304 0
M  V30 60744 H 5633.55 -1.46487 -0.545089 0
M  V30 60745 H 5634.28 -1.09544 -3.05239 0
M  V30 60746 H 5634.07 -2.83604 -2.7076 0
M  V30 60747 H 5635.56 -2.259 -3.51225 0
M  V30 60748 N 5636 0.571634 -1.46868 0
M  V30 60749 C 5637.24 1.33139 -1.52976 0
M  V30 60750 C 5637.57 1.93313 -0.185412 0
M  V30 60751 O 5636.85 1.77086 0.804408 0
M  V30 60752 C 5637.13 2.45241 -2.63683 0
M  V30 60753 C 5636.99 1.9003 -4.07687 0
M  V30 60754 C 5638.3 3.47238 -2.70396 0
M  V30 60755 H 5635.42 0.482731 -0.556902 0
M  V30 60756 H 5638.07 0.6411 -1.78857 0
M  V30 60757 H 5636.22 3.04123 -2.41746 0
M  V30 60758 H 5637.89 1.35519 -4.40945 0
M  V30 60759 H 5636.13 1.2079 -4.16644 0
M  V30 60760 H 5636.8 2.71003 -4.80897 0
M  V30 60761 H 5639.28 2.98253 -2.90146 0
M  V30 60762 H 5638.15 4.2312 -3.49658 0
M  V30 60763 H 5638.41 4.05173 -1.76882 0
M  V30 60764 N 5637.47 1.34758 0.817188 0
M  V30 60765 C 5638.44 1.26693 1.91001 0
M  V30 60766 C 5639.44 0.180801 1.5978 0
M  V30 60767 O 5640.63 0.433807 1.68712 0
M  V30 60768 C 5637.76 0.957408 3.2718 0
M  V30 60769 H 5638.95 2.23853 1.99574 0
M  V30 60770 H 5636.5 1.19129 1.01183 0
M  V30 60771 H 5637.24 -0.0107777 3.24298 0
M  V30 60772 H 5637.02 1.7431 3.51224 0
M  V30 60773 H 5638.51 0.926304 4.07197 0
M  V30 60774 N 5638.95 -1.03808 1.18582 0
M  V30 60775 C 5640.2 -1.77053 0.98278 0
M  V30 60776 C 5640.53 -1.88295 -0.487355 0
M  V30 60777 O 5639.78 -1.38951 -1.37808 0
M  V30 60778 C 5640.08 -3.20292 1.58582 0
M  V30 60779 C 5639.75 -3.29077 3.08251 0
M  V30 60780 C 5638.41 -3.31182 3.49101 0
M  V30 60781 C 5640.76 -3.28967 4.04265 0
M  V30 60782 C 5638.09 -3.30822 4.84534 0
M  V30 60783 C 5640.44 -3.30147 5.39616 0
M  V30 60784 C 5639.1 -3.30545 5.79911 0
M  V30 60785 H 5638.37 -0.647882 0.359625 0
M  V30 60786 H 5641.02 -1.21906 1.47686 0
M  V30 60787 H 5639.33 -3.78456 1.0138 0
M  V30 60788 H 5641.02 -3.75614 1.40411 0
M  V30 60789 H 5637.61 -3.28161 2.75696 0
M  V30 60790 H 5641.8 -3.26529 3.73754 0
M  V30 60791 H 5637.05 -3.29449 5.15047 0
M  V30 60792 H 5641.23 -3.29011 6.13779 0
M  V30 60793 H 5638.85 -3.3002 6.84829 0
M  V30 60794 N 5640.43 -0.988266 -1.22764 0
M  V30 60795 C 5641.65 -0.679495 -1.95953 0
M  V30 60796 C 5642.08 0.748422 -1.7257 0
M  V30 60797 O 5641.44 1.51093 -1.00202 0
M  V30 60798 C 5641.49 -0.985406 -3.46875 0
M  V30 60799 O 5640.59 -0.0816057 -4.12319 0
M  V30 60800 H 5639.93 -0.25477 -0.613179 0
M  V30 60801 H 5642.46 -1.32399 -1.55986 0
M  V30 60802 H 5642.47 -0.925338 -3.97368 0
M  V30 60803 H 5641.15 -2.02593 -3.6322 0
M  V30 60804 H 5639.72 -0.19676 -3.72381 0
M  V30 60805 N 5641.91 1.38015 -0.760888 0
M  V30 60806 C 5643.15 1.99951 -0.320311 0
M  V30 60807 C 5643.48 1.60401 1.10008 0
M  V30 60808 O 5642.74 0.83647 1.76923 0
M  V30 60809 C 5643.04 3.55167 -0.398903 0
M  V30 60810 C 5642.7 4.14451 -1.77599 0
M  V30 60811 C 5641.36 4.30356 -2.15284 0
M  V30 60812 C 5643.72 4.47079 -2.67899 0
M  V30 60813 C 5641.04 4.76188 -3.42727 0
M  V30 60814 C 5643.4 4.94331 -3.9474 0
M  V30 60815 C 5642.06 5.08442 -4.32484 0
M  V30 60816 H 5641.33 0.731671 -0.11721 0
M  V30 60817 H 5643.98 1.64951 -0.972794 0
M  V30 60818 H 5642.28 3.90347 0.337135 0
M  V30 60819 H 5643.98 4.00981 -0.0394803 0
M  V30 60820 H 5640.57 4.02491 -1.47306 0
M  V30 60821 H 5644.75 4.34386 -2.40047 0
M  V30 60822 H 5640.01 4.85299 -3.7188 0
M  V30 60823 H 5644.18 5.18547 -4.64847 0
M  V30 60824 H 5641.81 5.43717 -5.31297 0
M  V30 60825 N 5643.39 0.510546 1.49101 0
M  V30 60826 C 5644.32 -0.251918 2.32137 0
M  V30 60827 C 5645.3 -0.953564 1.40859 0
M  V30 60828 O 5646.48 -0.943118 1.69761 0
M  V30 60829 C 5643.61 -1.31107 3.21603 0
M  V30 60830 C 5642.57 -0.728732 4.21751 0
M  V30 60831 C 5641.89 -1.8891 5.00217 0
M  V30 60832 C 5643.19 0.286609 5.21513 0
M  V30 60833 H 5644.89 0.441206 2.96131 0
M  V30 60834 H 5642.43 0.213627 1.42407 0
M  V30 60835 H 5644.38 -1.85227 3.78509 0
M  V30 60836 H 5643.11 -2.03351 2.5557 0
M  V30 60837 H 5641.77 -0.209208 3.66003 0
M  V30 60838 H 5641.42 -2.59946 4.30624 0
M  V30 60839 H 5641.12 -1.50548 5.67987 0
M  V30 60840 H 5642.64 -2.43446 5.5997 0
M  V30 60841 H 5644.05 -0.166796 5.73057 0
M  V30 60842 H 5642.45 0.586571 5.97226 0
M  V30 60843 H 5643.52 1.1992 4.69837 0
M  V30 60844 N 5644.86 -1.55687 0.244795 0
M  V30 60845 C 5645.79 -2.24274 -0.649871 0
M  V30 60846 C 5646.77 -1.2223 -1.18296 0
M  V30 60847 O 5647.96 -1.50877 -1.22269 0
M  V30 60848 C 5645.09 -2.94059 -1.84787 0
M  V30 60849 C 5644.04 -4.02774 -1.44765 0
M  V30 60850 C 5643.37 -4.59974 -2.72631 0
M  V30 60851 C 5644.67 -5.18604 -0.620288 0
M  V30 60852 H 5646.36 -2.99298 -0.0779601 0
M  V30 60853 H 5643.91 -1.43955 -0.0360563 0
M  V30 60854 H 5645.86 -3.40741 -2.47939 0
M  V30 60855 H 5644.59 -2.1652 -2.44513 0
M  V30 60856 H 5643.25 -3.56859 -0.839484 0
M  V30 60857 H 5642.89 -3.79138 -3.3055 0
M  V30 60858 H 5642.59 -5.33361 -2.46577 0
M  V30 60859 H 5644.12 -5.09387 -3.36685 0
M  V30 60860 H 5645.53 -5.61523 -1.15606 0
M  V30 60861 H 5643.93 -5.98366 -0.455887 0
M  V30 60862 H 5645 -4.83502 0.367968 0
M  V30 60863 N 5646.34 0.0283435 -1.57575 0
M  V30 60864 C 5647.28 1.06184 -2.01991 0
M  V30 60865 C 5648.25 1.35128 -0.904388 0
M  V30 60866 O 5649.44 1.47773 -1.17028 0
M  V30 60867 C 5646.56 2.39638 -2.39356 0
M  V30 60868 C 5645.61 2.26546 -3.61358 0
M  V30 60869 S 5646.44 1.61821 -5.10465 0
M  V30 60870 C 5647.6 2.96763 -5.51074 0
M  V30 60871 H 5647.83 0.683523 -2.89336 0
M  V30 60872 H 5645.37 0.238341 -1.52549 0
M  V30 60873 H 5647.32 3.16384 -2.61555 0
M  V30 60874 H 5645.98 2.74617 -1.52461 0
M  V30 60875 H 5645.18 3.25065 -3.8516 0
M  V30 60876 H 5644.78 1.57942 -3.39014 0
M  V30 60877 H 5647.07 3.93092 -5.51802 0
M  V30 60878 H 5648.01 2.77693 -6.51377 0
M  V30 60879 H 5648.42 2.99369 -4.78579 0
M  V30 60880 N 5647.82 1.54706 0.300627 0
M  V30 60881 C 5649.05 1.77739 1.05321 0
M  V30 60882 C 5649.46 0.537154 1.81415 0
M  V30 60883 O 5648.8 -0.502601 1.76691 0
M  V30 60884 C 5648.86 2.93229 2.07983 0
M  V30 60885 C 5648.53 4.31305 1.5108 0
M  V30 60886 C 5649.52 5.1132 0.94064 0
M  V30 60887 C 5647.21 4.77906 1.54631 0
M  V30 60888 C 5649.2 6.36057 0.413567 0
M  V30 60889 C 5646.89 6.02606 1.01537 0
M  V30 60890 C 5647.89 6.81516 0.449969 0
M  V30 60891 O 5647.58 8.03867 -0.0729201 0
M  V30 60892 H 5647.31 0.59648 0.318101 0
M  V30 60893 H 5649.86 2.02476 0.345332 0
M  V30 60894 H 5648.09 2.64118 2.82451 0
M  V30 60895 H 5649.78 3.03835 2.69145 0
M  V30 60896 H 5650.55 4.76461 0.9061 0
M  V30 60897 H 5646.43 4.16514 1.97579 0
M  V30 60898 H 5649.97 6.97594 -0.0283986 0
M  V30 60899 H 5645.87 6.36951 1.04706 0
M  V30 60900 H 5646.64 8.1849 0.0403444 0
M  V30 60901 N 5649.3 -0.563837 1.47169 0
M  V30 60902 C 5650.52 -1.3517 1.57301 0
M  V30 60903 C 5650.95 -1.86794 0.221301 0
M  V30 60904 O 5650.31 -1.62609 -0.801752 0
M  V30 60905 C 5650.35 -2.50216 2.59662 0
M  V30 60906 O 5649.46 -3.52243 2.14474 0
M  V30 60907 H 5648.8 -0.401777 0.528651 0
M  V30 60908 H 5651.33 -0.682069 1.92896 0
M  V30 60909 H 5651.34 -2.96876 2.79872 0
M  V30 60910 H 5650.01 -2.11997 3.57813 0
M  V30 60911 H 5648.59 -3.11933 2.04334 0
M  V30 60912 N 5650.78 -1.3519 -0.81003 0
M  V30 60913 C 5652.02 -1.29469 -1.56874 0
M  V30 60914 C 5652.38 0.13077 -1.91955 0
M  V30 60915 O 5651.67 1.0803 -1.5824 0
M  V30 60916 C 5651.86 -2.13145 -2.86887 0
M  V30 60917 C 5651.69 -3.63683 -2.64508 0
M  V30 60918 C 5650.46 -4.32928 -2.6058 0
M  V30 60919 C 5652.66 -4.57406 -2.35125 0
M  V30 60920 N 5650.64 -5.69234 -2.29882 0
M  V30 60921 C 5652.01 -5.8181 -2.14236 0
M  V30 60922 C 5654.07 -4.46185 -2.2096 0
M  V30 60923 C 5652.77 -6.96254 -1.80616 0
M  V30 60924 C 5654.8 -5.60475 -1.88736 0
M  V30 60925 C 5654.16 -6.83905 -1.6868 0
M  V30 60926 H 5650.26 -0.529012 -0.575909 0
M  V30 60927 H 5652.84 -1.70036 -0.948469 0
M  V30 60928 H 5651.01 -1.74854 -3.46815 0
M  V30 60929 H 5652.75 -1.98969 -3.52411 0
M  V30 60930 H 5649.5 -3.85503 -2.75107 0
M  V30 60931 H 5649.93 -6.41166 -2.17337 0
M  V30 60932 H 5654.57 -3.51365 -2.35165 0
M  V30 60933 H 5652.29 -7.91045 -1.65149 0
M  V30 60934 H 5655.87 -5.53744 -1.78489 0
M  V30 60935 H 5654.75 -7.70845 -1.44109 0
M  V30 60936 N 5652.25 1.03178 -1.19131 0
M  V30 60937 C 5653.2 2.13504 -0.922974 0
M  V30 60938 C 5654.2 1.68974 0.120112 0
M  V30 60939 O 5655.4 1.79977 -0.028864 0
M  V30 60940 H 5651.78 0.697506 -0.281051 0
M  V30 60941 H 5653.75 2.33329 -1.86012 0
M  V30 60942 C 5652.5 3.4444 -0.474985 0
M  V30 60943 H 5651.82 3.79121 -1.26915 0
M  V30 60944 H 5653.26 4.22742 -0.326311 0
M  V30 60945 C 5651.72 3.27005 0.810515 0
M  V30 60946 O 5652.25 3.55381 1.87263 0
M  V30 60947 N 5650.46 2.80306 0.766614 0
M  V30 60948 H 5650 2.57414 -0.0979577 0
M  V30 60949 H 5649.96 2.69021 1.62712 0
M  V30 60950 N 5653.73 0.994763 1.22238 0
M  V30 60951 C 5655.14 0.706517 1.72816 0
M  V30 60952 C 5655.49 -0.776503 1.8018 0
M  V30 60953 O 5654.62 -1.60693 1.44937 0
M  V30 60954 C 5655.21 1.27582 3.1386 0
M  V30 60955 C 5653.77 1.03692 3.61836 0
M  V30 60956 C 5652.92 1.39488 2.39663 0
M  V30 60957 H 5655.87 1.1669 1.0756 0
M  V30 60958 H 5655.89 0.655333 3.74814 0
M  V30 60959 H 5655.4 2.35519 3.08468 0
M  V30 60960 H 5653.51 -0.0257369 3.72591 0
M  V30 60961 H 5653.62 1.7016 4.47864 0
M  V30 60962 H 5651.98 0.813503 2.41359 0
M  V30 60963 H 5652.77 2.48433 2.3693 0
M  V30 60964 N 5655.21 -1.3761 0.768196 0
M  V30 60965 C 5656.14 -2.32909 0.165993 0
M  V30 60966 C 5657.12 -1.55603 -0.687151 0
M  V30 60967 O 5658.31 -1.83856 -0.625342 0
M  V30 60968 C 5655.44 -3.39825 -0.71668 0
M  V30 60969 C 5654.39 -4.27986 0.0348768 0
M  V30 60970 C 5653.72 -5.25883 -0.967008 0
M  V30 60971 C 5655.02 -5.08048 1.21182 0
M  V30 60972 H 5656.71 -2.83521 0.962105 0
M  V30 60973 H 5654.26 -1.36316 0.464099 0
M  V30 60974 H 5656.21 -4.05468 -1.14775 0
M  V30 60975 H 5654.93 -2.87731 -1.54527 0
M  V30 60976 H 5653.59 -3.63868 0.446685 0
M  V30 60977 H 5653.24 -4.7007 -1.79006 0
M  V30 60978 H 5652.94 -5.85728 -0.468707 0
M  V30 60979 H 5654.46 -5.94402 -1.39709 0
M  V30 60980 H 5655.88 -5.6685 0.857573 0
M  V30 60981 H 5654.28 -5.772 1.64196 0
M  V30 60982 H 5655.35 -4.40929 2.01765 0
M  V30 60983 N 5656.69 -0.518446 -1.48828 0
M  V30 60984 C 5657.93 0.0198635 -2.0279 0
M  V30 60985 C 5658.27 1.35021 -1.39581 0
M  V30 60986 O 5657.54 1.86925 -0.537515 0
M  V30 60987 C 5657.83 0.154057 -3.5977 0
M  V30 60988 C 5657.68 -1.20065 -4.3348 0
M  V30 60989 C 5659 0.886395 -4.31081 0
M  V30 60990 H 5656.12 0.00574471 -0.736978 0
M  V30 60991 H 5658.76 -0.673241 -1.77672 0
M  V30 60992 H 5656.91 0.744376 -3.81302 0
M  V30 60993 H 5658.58 -1.83119 -4.23397 0
M  V30 60994 H 5656.82 -1.78551 -3.95351 0
M  V30 60995 H 5657.49 -1.05987 -5.41729 0
M  V30 60996 H 5659.97 0.385565 -4.1431 0
M  V30 60997 H 5658.85 0.949165 -5.40631 0
M  V30 60998 H 5659.11 1.9341 -3.97549 0
M  V30 60999 N 5658.17 1.55555 -0.253048 0
M  V30 61000 C 5659.58 1.59276 0.101658 0
M  V30 61001 C 5659.78 1.27024 1.5642 0
M  V30 61002 O 5658.84 1.0205 2.30959 0
M  V30 61003 C 5660.15 2.99633 -0.253075 0
M  V30 61004 C 5661.7 3.12374 -0.197877 0
M  V30 61005 C 5662.17 4.54961 -0.52673 0
M  V30 61006 N 5663.67 4.60733 -0.477458 0
M  V30 61007 C 5664.4 5.6905 -0.704993 0
M  V30 61008 N 5663.9 6.85603 -0.995981 0
M  V30 61009 N 5665.69 5.58498 -0.635283 0
M  V30 61010 H 5657.84 1.74789 -1.20676 0
M  V30 61011 H 5660.1 0.813954 -0.485987 0
M  V30 61012 H 5659.81 3.27993 -1.26938 0
M  V30 61013 H 5659.68 3.7489 0.416852 0
M  V30 61014 H 5662.07 2.83791 0.80911 0
M  V30 61015 H 5662.15 2.39379 -0.901744 0
M  V30 61016 H 5661.8 4.84266 -1.5313 0
M  V30 61017 H 5661.73 5.26225 0.198684 0
M  V30 61018 H 5664.22 3.76994 -0.26153 0
M  V30 61019 H 5664.53 7.64092 -1.15686 0
M  V30 61020 H 5662.87 6.87272 -1.03352 0
M  V30 61021 H 5666.07 4.66319 -0.407953 0
M  V30 61022 H 5666.24 6.42842 -0.816003 0
M  V30 61023 N 5659.64 -0.0199865 1.57587 0
M  V30 61024 C 5661.06 -0.375779 1.55113 0
M  V30 61025 C 5661.26 -1.76043 0.980359 0
M  V30 61026 O 5660.32 -2.45135 0.605383 0
M  V30 61027 C 5661.63 -0.269313 2.99492 0
M  V30 61028 C 5663.18 -0.345728 3.11085 0
M  V30 61029 C 5663.65 -0.26861 4.57212 0
M  V30 61030 N 5665.14 -0.327127 4.62043 0
M  V30 61031 C 5665.88 -0.290487 5.72664 0
M  V30 61032 N 5665.37 -0.205608 6.92495 0
M  V30 61033 N 5667.17 -0.340885 5.61065 0
M  V30 61034 H 5659.32 0.886047 1.93036 0
M  V30 61035 H 5661.58 0.337784 0.88578 0
M  V30 61036 H 5661.29 0.682574 3.45013 0
M  V30 61037 H 5661.16 -1.05938 3.62018 0
M  V30 61038 H 5663.55 -1.28805 2.65506 0
M  V30 61039 H 5663.63 0.473848 2.51373 0
M  V30 61040 H 5663.27 0.670083 5.0346 0
M  V30 61041 H 5663.2 -1.10641 5.14846 0
M  V30 61042 H 5665.69 -0.394872 3.75831 0
M  V30 61043 H 5666.01 -0.182998 7.72583 0
M  V30 61044 H 5664.35 -0.171523 6.94788 0
M  V30 61045 H 5667.54 -0.405251 4.66342 0
M  V30 61046 H 5667.72 -0.308863 6.47263 0
M  V30 61047 N 5661.12 -1.54863 -0.292418 0
M  V30 61048 C 5662.37 -1.7376 -1.02423 0
M  V30 61049 C 5662.69 -0.535231 -1.88135 0
M  V30 61050 O 5663.89 -0.606185 -2.64646 0
M  V30 61051 C 5662.35 -3.07457 -1.87079 0
M  V30 61052 C 5661.96 -4.35199 -1.06328 0
M  V30 61053 C 5663.7 -3.35709 -2.59807 0
M  V30 61054 C 5661.61 -5.59943 -1.9031 0
M  V30 61055 H 5660.54 -0.647631 -0.386122 0
M  V30 61056 H 5663.19 -1.81339 -0.280796 0
M  V30 61057 H 5661.57 -2.93864 -2.65443 0
M  V30 61058 H 5662.74 -4.59651 -0.325173 0
M  V30 61059 H 5661.06 -4.13946 -0.451429 0
M  V30 61060 H 5663.66 -4.2611 -3.23008 0
M  V30 61061 H 5664 -2.54968 -3.29085 0
M  V30 61062 H 5664.53 -3.50311 -1.88486 0
M  V30 61063 H 5661.27 -6.43376 -1.25487 0
M  V30 61064 H 5660.79 -5.39663 -2.6177 0
M  V30 61065 H 5662.47 -5.9752 -2.4815 0
M  V30 61066 N 5662.6 0.556024 -1.47466 0
M  V30 61067 C 5663.84 1.32391 -1.5573 0
M  V30 61068 C 5664.21 1.90792 -0.215024 0
M  V30 61069 O 5665.41 2.68246 -0.172523 0
M  V30 61070 C 5663.68 2.40348 -2.64514 0
M  V30 61071 S 5665.24 3.27209 -2.92369 0
M  V30 61072 H 5662.05 0.450694 -0.549905 0
M  V30 61073 H 5664.66 0.636406 -1.84852 0
M  V30 61074 H 5663.36 1.9588 -3.60637 0
M  V30 61075 H 5662.89 3.13838 -2.37211 0
M  V30 61076 H 5664.91 4.39845 -2.29675 0
M  V30 61077 N 5664.08 1.35617 0.802849 0
M  V30 61078 C 5665.01 1.31513 1.92942 0
M  V30 61079 C 5665.99 0.188902 1.69048 0
M  V30 61080 O 5667.18 0.384451 1.90357 0
M  V30 61081 C 5664.31 1.09013 3.29748 0
M  V30 61082 C 5663.26 2.18316 3.68133 0
M  V30 61083 C 5662.59 1.80976 5.03142 0
M  V30 61084 C 5663.89 3.60309 3.7812 0
M  V30 61085 H 5665.58 2.25778 1.96634 0
M  V30 61086 H 5663.13 1.08685 0.944647 0
M  V30 61087 H 5665.08 1.0478 4.08166 0
M  V30 61088 H 5663.8 0.111947 3.26408 0
M  V30 61089 H 5662.46 2.21652 2.92003 0
M  V30 61090 H 5662.11 0.81767 4.9631 0
M  V30 61091 H 5661.81 2.54147 5.29795 0
M  V30 61092 H 5663.33 1.78275 5.83995 0
M  V30 61093 H 5664.75 3.59275 4.4676 0
M  V30 61094 H 5663.14 4.32272 4.16246 0
M  V30 61095 H 5664.21 3.9619 2.79574 0
M  V30 61096 N 5665.56 -1.02544 1.19676 0
M  V30 61097 C 5666.49 -2.12791 0.961364 0
M  V30 61098 C 5667.47 -1.69766 -0.106516 0
M  V30 61099 O 5668.65 -1.94138 0.049204 0
M  V30 61100 C 5665.78 -3.43638 0.502989 0
M  V30 61101 C 5664.74 -4.00362 1.5131 0
M  V30 61102 C 5664.06 -5.26871 0.911676 0
M  V30 61103 C 5665.36 -4.34772 2.89432 0
M  V30 61104 H 5667.06 -2.32741 1.8834 0
M  V30 61105 H 5664.6 -1.11849 0.906961 0
M  V30 61106 H 5666.56 -4.2014 0.325584 0
M  V30 61107 H 5665.28 -3.2342 -0.45465 0
M  V30 61108 H 5663.94 -3.25958 1.67771 0
M  V30 61109 H 5663.59 -5.02971 -0.0536213 0
M  V30 61110 H 5663.29 -5.65785 1.58622 0
M  V30 61111 H 5664.81 -6.06036 0.745143 0
M  V30 61112 H 5666.23 -5.02197 2.76533 0
M  V30 61113 H 5664.62 -4.84777 3.5371 0
M  V30 61114 H 5665.69 -3.43923 3.41826 0
M  V30 61115 N 5667.04 -1.00123 -1.21709 0
M  V30 61116 C 5668.28 -0.6828 -1.9096 0
M  V30 61117 C 5668.61 0.784068 -1.77668 0
M  V30 61118 O 5667.89 1.56795 -1.1509 0
M  V30 61119 C 5668.17 -1.09987 -3.42892 0
M  V30 61120 C 5668.03 -2.62591 -3.65193 0
M  V30 61121 C 5669.34 -0.6594 -4.35132 0
M  V30 61122 H 5666.46 -0.249525 -0.693474 0
M  V30 61123 H 5669.11 -1.24624 -1.43418 0
M  V30 61124 H 5667.26 -0.620469 -3.83513 0
M  V30 61125 H 5668.93 -3.18266 -3.33923 0
M  V30 61126 H 5667.17 -3.04278 -3.09188 0
M  V30 61127 H 5667.84 -2.86825 -4.7163 0
M  V30 61128 H 5670.32 -1.0713 -4.02072 0
M  V30 61129 H 5669.19 -0.97943 -5.40091 0
M  V30 61130 H 5669.45 0.439622 -4.39909 0
M  V30 61131 N 5668.51 1.37201 -0.775483 0
M  V30 61132 C 5669.44 2.32818 -0.178342 0
M  V30 61133 C 5670.42 1.55965 0.678889 0
M  V30 61134 O 5671.61 1.84185 0.615583 0
M  V30 61135 C 5668.74 3.402 0.698649 0
M  V30 61136 C 5667.69 4.27961 -0.0575734 0
M  V30 61137 C 5667.02 5.26389 0.939105 0
M  V30 61138 C 5668.32 5.07398 -1.23874 0
M  V30 61139 H 5670.01 2.83006 -0.977127 0
M  V30 61140 H 5667.56 1.36068 -0.471322 0
M  V30 61141 H 5669.51 4.06071 1.12623 0
M  V30 61142 H 5668.24 2.88546 1.52999 0
M  V30 61143 H 5666.9 3.63626 -0.465976 0
M  V30 61144 H 5666.54 4.71013 1.7651 0
M  V30 61145 H 5666.24 5.85968 0.437638 0
M  V30 61146 H 5667.77 5.95135 1.36555 0
M  V30 61147 H 5669.18 5.66387 -0.887622 0
M  V30 61148 H 5667.58 5.76321 -1.67255 0
M  V30 61149 H 5668.65 4.39853 -2.04101 0
M  V30 61150 N 5669.99 0.526331 1.48551 0
M  V30 61151 C 5671.22 -0.00724141 2.07399 0
M  V30 61152 C 5671.64 -1.27733 1.3808 0
M  V30 61153 O 5671 -1.7574 0.445565 0
M  V30 61154 C 5671.05 -0.217999 3.5994 0
M  V30 61155 O 5670.15 -1.28745 3.91789 0
M  V30 61156 H 5669.49 0.0375017 0.66294 0
M  V30 61157 H 5672.02 0.7332 1.91011 0
M  V30 61158 H 5672.03 -0.441778 4.05601 0
M  V30 61159 H 5670.71 0.709812 4.09798 0
M  V30 61160 H 5669.28 -1.04662 3.57911 0
M  V30 61161 N 5671.47 -1.55419 0.261294 0
M  V30 61162 C 5672.4 -2.19337 -0.665137 0
M  V30 61163 C 5673.41 -1.17392 -1.12796 0
M  V30 61164 O 5674.6 -1.44187 -1.05225 0
M  V30 61165 C 5671.7 -2.79431 -1.91759 0
M  V30 61166 C 5670.88 -4.06934 -1.60385 0
M  V30 61167 C 5669.94 -4.51209 -2.70735 0
M  V30 61168 O 5668.96 -5.1728 -2.37508 0
M  V30 61169 N 5670.16 -4.20193 -4.00522 0
M  V30 61170 H 5672.93 -2.99467 -0.118157 0
M  V30 61171 H 5670.49 -1.61693 0.0818295 0
M  V30 61172 H 5672.48 -3.06001 -2.6485 0
M  V30 61173 H 5671.05 -2.03374 -2.37398 0
M  V30 61174 H 5670.27 -3.878 -0.707422 0
M  V30 61175 H 5671.56 -4.90035 -1.36907 0
M  V30 61176 H 5670.96 -3.67179 -4.30344 0
M  V30 61177 H 5669.51 -4.51565 -4.70034 0
M  V30 61178 N 5672.95 0.011629 -1.57596 0
M  V30 61179 C 5673.88 1.0347 -2.04515 0
M  V30 61180 C 5674.89 1.31411 -0.960991 0
M  V30 61181 O 5676.08 1.28591 -1.238 0
M  V30 61182 C 5673.18 2.37225 -2.42027 0
M  V30 61183 C 5672.35 2.28392 -3.73036 0
M  V30 61184 C 5671.41 3.44739 -3.97544 0
M  V30 61185 O 5670.44 3.23449 -4.68369 0
M  V30 61186 N 5671.64 4.672 -3.44535 0
M  V30 61187 H 5674.41 0.634655 -2.92903 0
M  V30 61188 H 5671.97 0.199244 -1.60669 0
M  V30 61189 H 5673.96 3.13812 -2.55546 0
M  V30 61190 H 5672.53 2.69013 -1.5922 0
M  V30 61191 H 5671.75 1.36791 -3.69705 0
M  V30 61192 H 5673.04 2.1965 -4.58946 0
M  V30 61193 H 5672.44 4.87397 -2.87159 0
M  V30 61194 H 5670.99 5.41093 -3.63403 0
M  V30 61195 N 5674.43 1.55016 0.284201 0
M  V30 61196 C 5675.84 1.65918 0.856046 0
M  V30 61197 C 5676.19 0.578824 1.87468 0
M  V30 61198 O 5675.31 -0.281657 2.14559 0
M  V30 61199 C 5675.91 3.00776 1.55946 0
M  V30 61200 C 5674.47 3.13742 2.07949 0
M  V30 61201 C 5673.61 2.61673 0.917757 0
M  V30 61202 H 5676.56 1.58583 0.060803 0
M  V30 61203 H 5676.59 2.93139 2.4259 0
M  V30 61204 H 5676.1 3.79385 0.817846 0
M  V30 61205 H 5674.2 2.39886 2.85106 0
M  V30 61206 H 5674.31 4.20146 2.30249 0
M  V30 61207 H 5672.68 2.18547 1.30802 0
M  V30 61208 H 5673.46 3.42775 0.189825 0
M  V30 61209 N 5675.9 -0.548196 1.47758 0
M  V30 61210 C 5676.81 -1.68172 1.63571 0
M  V30 61211 C 5677.83 -1.66098 0.518409 0
M  V30 61212 O 5679.01 -1.85381 0.787126 0
M  V30 61213 C 5676.07 -3.04667 1.65465 0
M  V30 61214 C 5675.13 -3.17739 2.88688 0
M  V30 61215 C 5674.37 -4.47723 2.90482 0
M  V30 61216 O 5674.59 -5.33729 2.0122 0
M  V30 61217 O 5673.52 -4.64776 3.82449 0
M  V30 61218 H 5677.35 -1.57772 2.59503 0
M  V30 61219 H 5674.93 -0.719231 1.30948 0
M  V30 61220 H 5676.82 -3.85879 1.69337 0
M  V30 61221 H 5675.49 -3.1543 0.727023 0
M  V30 61222 H 5674.4 -2.3589 2.90356 0
M  V30 61223 H 5675.73 -3.11884 3.80774 0
M  V30 61224 N 5677.38 -1.36041 -0.795646 0
M  V30 61225 C 5678.61 -1.33065 -1.58434 0
M  V30 61226 C 5679.03 0.0894833 -1.88588 0
M  V30 61227 O 5678.38 1.04461 -1.49647 0
M  V30 61228 C 5678.43 -2.14604 -2.90908 0
M  V30 61229 O 5678.15 -3.51081 -2.62056 0
M  V30 61230 C 5679.66 -2.19338 -3.85235 0
M  V30 61231 H 5676.88 -0.456685 -0.491609 0
M  V30 61232 H 5679.42 -1.79051 -0.987972 0
M  V30 61233 H 5677.57 -1.72189 -3.4703 0
M  V30 61234 H 5677.99 -3.93557 -3.46718 0
M  V30 61235 H 5679.46 -2.80761 -4.75266 0
M  V30 61236 H 5679.94 -1.19511 -4.22627 0
M  V30 61237 H 5680.55 -2.61962 -3.35046 0
M  V30 61238 N 5678.86 1.01908 -1.20218 0
M  V30 61239 C 5680.14 1.72617 -0.919928 0
M  V30 61240 C 5680.52 2.03205 0.57193 0
M  V30 61241 O 5679.87 1.69454 1.5329 0
M  V30 61242 C 5680.08 2.99584 -1.79027 0
M  V30 61243 C 5681.42 3.72897 -2.03058 0
M  V30 61244 O 5682.45 3.09534 -1.7626 0
M  V30 61245 O 5681.31 4.86835 -2.48302 0
M  V30 61246 H 5678.4 0.752182 -0.343732 0
M  V30 61247 H 5680.95 1.07779 -1.3108 0
M  V30 61248 H 5679.72 2.73282 -2.80058 0
M  V30 61249 H 5679.34 3.72163 -1.39931 0
M  V30 61250 N 5680.34 1.00767 1.21176 0
M  V30 61251 C 5681.75 0.724806 1.72057 0
M  V30 61252 C 5682.1 -0.757349 1.80994 0
M  V30 61253 O 5681.23 -1.59147 1.46633 0
M  V30 61254 C 5681.82 1.30904 3.12489 0
M  V30 61255 C 5680.38 1.07524 3.60715 0
M  V30 61256 C 5679.53 1.42022 2.3817 0
M  V30 61257 H 5682.48 1.17825 1.06316 0
M  V30 61258 H 5682.5 0.69505 3.74098 0
M  V30 61259 H 5682.01 2.38777 3.05953 0
M  V30 61260 H 5680.11 0.0137828 3.72597 0
M  V30 61261 H 5680.22 1.74901 4.46034 0
M  V30 61262 H 5678.59 0.839056 2.40483 0
M  V30 61263 H 5679.37 2.50932 2.34282 0
M  V30 61264 N 5681.82 -1.36787 0.782749 0
M  V30 61265 C 5683.04 -2.04205 0.362643 0
M  V30 61266 C 5683.47 -1.58641 -1.01068 0
M  V30 61267 O 5682.82 -0.75175 -1.6498 0
M  V30 61268 C 5682.87 -3.5806 0.427226 0
M  V30 61269 O 5681.98 -4.08465 -0.568306 0
M  V30 61270 H 5681.32 -0.645633 0.155096 0
M  V30 61271 H 5683.85 -1.74879 1.062 0
M  V30 61272 H 5683.86 -4.06979 0.288441 0
M  V30 61273 H 5682.53 -3.90577 1.42906 0
M  V30 61274 H 5681.11 -3.70837 -0.391733 0
M  V30 61275 N 5683.29 -0.534202 -1.4827 0
M  V30 61276 C 5684.24 0.226255 -2.29688 0
M  V30 61277 C 5685.21 0.929888 -1.37631 0
M  V30 61278 O 5686.4 0.93009 -1.66595 0
M  V30 61279 C 5683.54 1.26461 -3.21094 0
M  V30 61280 C 5682.65 0.569392 -4.28231 0
M  V30 61281 C 5681.78 1.59104 -5.06813 0
M  V30 61282 C 5680.82 0.879521 -6.05748 0
M  V30 61283 N 5679.96 1.84692 -6.77372 0
M  V30 61284 H 5684.8 -0.474214 -2.94203 0
M  V30 61285 H 5682.34 -0.245694 -1.45034 0
M  V30 61286 H 5684.3 1.87898 -3.72492 0
M  V30 61287 H 5682.93 1.93341 -2.58494 0
M  V30 61288 H 5681.98 -0.159006 -3.80068 0
M  V30 61289 H 5683.29 0.010915 -4.98799 0
M  V30 61290 H 5682.44 2.27958 -5.62246 0
M  V30 61291 H 5681.18 2.18342 -4.36094 0
M  V30 61292 H 5680.19 0.17694 -5.49515 0
M  V30 61293 H 5681.41 0.2932 -6.78467 0
M  V30 61294 H 5679.36 2.42829 -6.09401 0
M  V30 61295 H 5679.28 1.33999 -7.4403 0
M  V30 61296 H 5680.54 2.5273 -7.37392 0
M  V30 61297 N 5684.77 1.55278 -0.269533 0
M  V30 61298 C 5685.72 2.18986 0.634761 0
M  V30 61299 C 5686.71 1.15273 1.12254 0
M  V30 61300 O 5687.9 1.41107 1.06855 0
M  V30 61301 C 5685.03 2.91021 1.82104 0
M  V30 61302 C 5684.11 4.02016 1.3507 0
M  V30 61303 N 5684.5 5.02275 0.596123 0
M  V30 61304 C 5682.8 4.14985 1.63412 0
M  V30 61305 C 5683.5 5.80649 0.349577 0
M  V30 61306 N 5682.48 5.35752 0.920382 0
M  V30 61307 H 5686.28 2.93857 0.0503483 0
M  V30 61308 H 5683.8 1.62237 -0.0728413 0
M  V30 61309 H 5685.79 3.35106 2.48011 0
M  V30 61310 H 5684.45 2.17659 2.40946 0
M  V30 61311 H 5685.46 5.17325 0.244006 0
M  V30 61312 H 5682.14 3.5281 2.2323 0
M  V30 61313 H 5683.53 6.71418 -0.254375 0
M  V30 61314 N 5686.25 -0.00327115 1.576 0
M  V30 61315 C 5687.21 -0.980555 2.07166 0
M  V30 61316 C 5688.21 -1.27451 0.980447 0
M  V30 61317 O 5689.4 -1.22024 1.24321 0
M  V30 61318 C 5686.54 -2.30638 2.51036 0
M  V30 61319 H 5687.73 -0.551879 2.94778 0
M  V30 61320 H 5685.28 -0.250674 1.54277 0
M  V30 61321 H 5686.02 -2.78201 1.66657 0
M  V30 61322 H 5685.8 -2.10623 3.30727 0
M  V30 61323 H 5687.29 -3.00751 2.89721 0
M  V30 61324 N 5687.73 -1.55165 -0.275976 0
M  V30 61325 C 5688.96 -1.79653 -1.02628 0
M  V30 61326 C 5689.37 -0.568353 -1.80042 0
M  V30 61327 O 5688.73 0.462507 -1.76542 0
M  V30 61328 C 5688.78 -3.01981 -1.98721 0
M  V30 61329 O 5688.5 -4.20054 -1.24444 0
M  V30 61330 C 5690 -3.39049 -2.85588 0
M  V30 61331 H 5687.22 -0.59854 -0.3033 0
M  V30 61332 H 5689.77 -2.02172 -0.307662 0
M  V30 61333 H 5687.92 -2.81596 -2.6605 0
M  V30 61334 H 5688.33 -4.89191 -1.89188 0
M  V30 61335 H 5689.81 -4.27822 -3.48816 0
M  V30 61336 H 5690.29 -2.58318 -3.55202 0
M  V30 61337 H 5690.89 -3.61682 -2.23754 0
M  V30 61338 N 5689.21 0.540352 -1.48047 0
M  V30 61339 C 5690.44 1.3198 -1.58949 0
M  V30 61340 C 5690.84 1.87608 -0.244955 0
M  V30 61341 O 5690.19 1.66579 0.774408 0
M  V30 61342 C 5690.25 2.51538 -2.56844 0
M  V30 61343 C 5689.91 2.17075 -4.02154 0
M  V30 61344 C 5690.91 1.73362 -4.90145 0
M  V30 61345 C 5688.6 2.27916 -4.47615 0
M  V30 61346 C 5690.59 1.40942 -6.21622 0
M  V30 61347 C 5688.28 1.95108 -5.79117 0
M  V30 61348 C 5689.27 1.51691 -6.65942 0
M  V30 61349 O 5688.96 1.19309 -7.94997 0
M  V30 61350 H 5688.69 0.408009 -0.538985 0
M  V30 61351 H 5691.25 0.65968 -1.94518 0
M  V30 61352 H 5689.48 3.20498 -2.16375 0
M  V30 61353 H 5691.17 3.13608 -2.57692 0
M  V30 61354 H 5691.93 1.64465 -4.56263 0
M  V30 61355 H 5687.81 2.60666 -3.80229 0
M  V30 61356 H 5691.36 1.06981 -6.89348 0
M  V30 61357 H 5687.25 2.03643 -6.12536 0
M  V30 61358 H 5688.02 1.32796 -8.07656 0
M  V30 61359 N 5690.69 1.36461 0.78842 0
M  V30 61360 C 5691.92 1.33709 1.57498 0
M  V30 61361 C 5692.32 -0.0834296 1.89016 0
M  V30 61362 O 5691.67 -1.05102 1.50663 0
M  V30 61363 C 5691.73 2.09435 2.92194 0
M  V30 61364 C 5691.39 3.58517 2.83399 0
M  V30 61365 C 5692.39 4.52745 2.55574 0
M  V30 61366 C 5690.07 4.01416 3.01944 0
M  V30 61367 C 5692.07 5.87849 2.46398 0
M  V30 61368 C 5689.76 5.36611 2.9239 0
M  V30 61369 C 5690.75 6.2964 2.64655 0
M  V30 61370 O 5690.44 7.62352 2.55097 0
M  V30 61371 H 5690.17 0.460238 0.495133 0
M  V30 61372 H 5692.73 1.80166 0.986374 0
M  V30 61373 H 5690.96 1.57642 3.53109 0
M  V30 61374 H 5692.65 1.99528 3.53474 0
M  V30 61375 H 5693.41 4.20915 2.40948 0
M  V30 61376 H 5689.29 3.29378 3.22538 0
M  V30 61377 H 5692.84 6.60431 2.2467 0
M  V30 61378 H 5688.73 5.68048 3.0658 0
M  V30 61379 H 5689.5 7.72485 2.70571 0
M  V30 61380 N 5692.16 -1.01269 1.20757 0
M  V30 61381 C 5693.39 -1.78262 1.04434 0
M  V30 61382 C 5693.8 -1.8472 -0.409297 0
M  V30 61383 O 5693.14 -1.302 -1.29591 0
M  V30 61384 C 5693.21 -3.24031 1.55705 0
M  V30 61385 C 5692.87 -3.4117 3.04059 0
M  V30 61386 C 5693.87 -3.30073 4.01681 0
M  V30 61387 C 5691.55 -3.6686 3.43102 0
M  V30 61388 C 5693.55 -3.44418 5.36335 0
M  V30 61389 C 5691.23 -3.80848 4.7791 0
M  V30 61390 C 5692.23 -3.69632 5.74335 0
M  V30 61391 O 5691.92 -3.83186 7.06699 0
M  V30 61392 H 5691.65 -0.567314 0.367602 0
M  V30 61393 H 5694.21 -1.2833 1.60376 0
M  V30 61394 H 5692.44 -3.75063 0.941514 0
M  V30 61395 H 5694.12 -3.82671 1.35342 0
M  V30 61396 H 5694.89 -3.10158 3.72863 0
M  V30 61397 H 5690.77 -3.74676 2.68587 0
M  V30 61398 H 5694.31 -3.35579 6.11582 0
M  V30 61399 H 5690.21 -4.00264 5.06417 0
M  V30 61400 H 5690.98 -4.0018 7.14001 0
M  V30 61401 N 5693.64 -1.01408 -1.2064 0
M  V30 61402 C 5694.59 -0.582188 -2.23337 0
M  V30 61403 C 5695.56 0.396433 -1.613 0
M  V30 61404 O 5696.74 0.296438 -1.88483 0
M  V30 61405 C 5693.88 0.0759078 -3.45017 0
M  V30 61406 C 5693 -0.946977 -4.21493 0
M  V30 61407 C 5692.13 -0.260196 -5.30562 0
M  V30 61408 C 5691.17 -1.27001 -5.9878 0
M  V30 61409 N 5690.31 -0.610073 -6.99444 0
M  V30 61410 H 5695.15 -1.46257 -2.5964 0
M  V30 61411 H 5692.68 -0.73219 -1.27583 0
M  V30 61412 H 5694.64 0.474569 -4.14492 0
M  V30 61413 H 5693.27 0.919953 -3.09413 0
M  V30 61414 H 5692.32 -1.46382 -3.51108 0
M  V30 61415 H 5693.64 -1.71507 -4.68387 0
M  V30 61416 H 5692.79 0.194097 -6.06389 0
M  V30 61417 H 5691.53 0.540225 -4.84699 0
M  V30 61418 H 5690.53 -1.73472 -5.21716 0
M  V30 61419 H 5691.76 -2.07167 -6.46729 0
M  V30 61420 H 5689.71 0.170525 -6.55778 0
M  V30 61421 H 5689.62 -1.31628 -7.44453 0
M  V30 61422 H 5690.89 -0.179288 -7.79294 0
M  V30 61423 N 5695.12 1.3637 -0.789992 0
M  V30 61424 C 5696.37 1.98833 -0.361935 0
M  V30 61425 C 5696.69 1.6301 1.07018 0
M  V30 61426 O 5695.96 0.904373 1.73775 0
M  V30 61427 H 5694.54 0.735453 -0.130837 0
M  V30 61428 H 5697.2 1.66557 -1.01216 0
M  V30 61429 H 5696.3 3.08777 -0.45423 0
M  V30 61430 N 5696.6 0.542057 1.47985 0
M  V30 61431 C 5697.87 -0.0525807 1.95529 0
M  V30 61432 C 5698.25 -1.50087 1.48449 0
M  V30 61433 O 5697.6 -2.16978 0.716423 0
M  V30 61434 C 5697.81 0.0771751 3.48915 0
M  V30 61435 C 5699.16 -0.0759356 4.24532 0
M  V30 61436 O 5700.18 0.00397166 3.562 0
M  V30 61437 O 5699.04 -0.245214 5.4595 0
M  V30 61438 H 5696.14 -0.0725874 0.823808 0
M  V30 61439 H 5698.68 0.60751 1.58453 0
M  V30 61440 H 5697.46 1.08557 3.7594 0
M  V30 61441 H 5697.08 -0.621219 3.92717 0
M  V30 61442 N 5698.08 -1.55133 0.277764 0
M  V30 61443 C 5699.49 -1.85405 -0.219477 0
M  V30 61444 C 5699.84 -1.19978 -1.55241 0
M  V30 61445 O 5698.96 -0.48906 -2.10801 0
M  V30 61446 C 5699.56 -3.36371 -0.405009 0
M  V30 61447 C 5698.12 -3.66758 -0.846481 0
M  V30 61448 C 5697.26 -2.77238 0.0587037 0
M  V30 61449 H 5700.21 -1.50635 0.499475 0
M  V30 61450 H 5700.24 -3.59619 -1.24316 0
M  V30 61451 H 5699.75 -3.83961 0.565273 0
M  V30 61452 H 5697.85 -3.24669 -1.82814 0
M  V30 61453 H 5697.96 -4.74221 -0.681968 0
M  V30 61454 H 5696.33 -2.50547 -0.458065 0
M  V30 61455 H 5697.11 -3.27644 1.02492 0
M  V30 61456 N 5699.55 -0.00508679 -1.57599 0
M  V30 61457 C 5700.8 0.677913 -1.89966 0
M  V30 61458 C 5701.12 1.74654 -0.880652 0
M  V30 61459 O 5702.32 2.48451 -1.09472 0
M  V30 61460 C 5700.78 1.25696 -3.37237 0
M  V30 61461 C 5700.39 0.222888 -4.47445 0
M  V30 61462 C 5702.13 1.91785 -3.78706 0
M  V30 61463 C 5700.04 0.81221 -5.85796 0
M  V30 61464 H 5698.97 0.256966 -0.708861 0
M  V30 61465 H 5701.62 -0.0664632 -1.8338 0
M  V30 61466 H 5700 2.05216 -3.38677 0
M  V30 61467 H 5701.17 -0.5481 -4.57529 0
M  V30 61468 H 5699.49 -0.33786 -4.15027 0
M  V30 61469 H 5702.09 2.36791 -4.7941 0
M  V30 61470 H 5702.43 2.75056 -3.1249 0
M  V30 61471 H 5702.96 1.18991 -3.79587 0
M  V30 61472 H 5699.7 0.0181727 -6.55497 0
M  V30 61473 H 5699.22 1.55224 -5.79367 0
M  V30 61474 H 5700.9 1.3093 -6.33614 0
M  V30 61475 N 5701.03 1.55309 0.267743 0
M  V30 61476 C 5702.28 1.75815 0.996672 0
M  V30 61477 C 5702.6 0.565227 1.86628 0
M  V30 61478 O 5701.87 -0.419708 1.91351 0
M  V30 61479 H 5700.45 0.648366 0.370985 0
M  V30 61480 H 5703.11 1.9272 0.290708 0
M  V30 61481 H 5702.21 2.66119 1.63055 0
M  V30 61482 N 5702.51 -0.532493 1.48332 0
M  V30 61483 C 5703.47 -1.61949 1.62189 0
M  V30 61484 C 5704.47 -1.52981 0.495335 0
M  V30 61485 O 5705.66 -1.56696 0.76106 0
M  V30 61486 C 5702.79 -3.01564 1.58972 0
M  V30 61487 H 5703.99 -1.51003 2.5911 0
M  V30 61488 H 5701.54 -0.754357 1.36891 0
M  V30 61489 H 5702.28 -3.18019 0.635181 0
M  V30 61490 H 5702.06 -3.09483 2.40755 0
M  V30 61491 H 5703.55 -3.80598 1.71857 0
M  V30 61492 N 5703.99 -1.36878 -0.781172 0
M  V30 61493 C 5705.22 -1.34542 -1.56786 0
M  V30 61494 C 5705.63 0.0734045 -1.89058 0
M  V30 61495 O 5704.97 1.04301 -1.51218 0
M  V30 61496 C 5705.03 -2.10981 -2.91079 0
M  V30 61497 C 5704.69 -3.60014 -2.81493 0
M  V30 61498 C 5705.69 -4.54094 -2.53169 0
M  V30 61499 C 5703.38 -4.03012 -2.99811 0
M  V30 61500 C 5705.37 -5.89148 -2.43277 0
M  V30 61501 C 5703.06 -5.38154 -2.89541 0
M  V30 61502 C 5704.06 -6.31035 -2.61312 0
M  V30 61503 O 5703.74 -7.63694 -2.5105 0
M  V30 61504 H 5703.48 -0.462858 -0.492685 0
M  V30 61505 H 5706.03 -1.80687 -0.976805 0
M  V30 61506 H 5704.26 -1.59512 -3.52268 0
M  V30 61507 H 5705.95 -2.01399 -3.5241 0
M  V30 61508 H 5706.71 -4.22187 -2.38712 0
M  V30 61509 H 5702.59 -3.31084 -3.20787 0
M  V30 61510 H 5706.14 -6.61613 -2.21165 0
M  V30 61511 H 5702.03 -5.69666 -3.03563 0
M  V30 61512 H 5702.8 -7.73909 -2.6647 0
M  V30 61513 N 5705.47 1.00628 -1.21292 0
M  V30 61514 C 5706.41 2.09379 -0.971044 0
M  V30 61515 C 5707.38 1.65783 0.102503 0
M  V30 61516 O 5708.57 1.90748 -0.0443557 0
M  V30 61517 C 5705.71 3.40842 -0.540434 0
M  V30 61518 C 5704.82 3.97856 -1.68328 0
M  V30 61519 C 5703.96 5.17423 -1.20196 0
M  V30 61520 C 5703 5.66543 -2.31722 0
M  V30 61521 N 5702.13 6.77361 -1.84733 0
M  V30 61522 H 5706.97 2.29404 -1.90205 0
M  V30 61523 H 5704.51 1.12485 -0.947925 0
M  V30 61524 H 5706.47 4.16312 -0.272027 0
M  V30 61525 H 5705.1 3.20858 0.353564 0
M  V30 61526 H 5704.15 3.19384 -2.06635 0
M  V30 61527 H 5705.46 4.30305 -2.52267 0
M  V30 61528 H 5704.62 6.00135 -0.890137 0
M  V30 61529 H 5703.35 4.86565 -0.332593 0
M  V30 61530 H 5702.36 4.82429 -2.63708 0
M  V30 61531 H 5703.58 5.99432 -3.19152 0
M  V30 61532 H 5701.53 6.48312 -1.00138 0
M  V30 61533 H 5701.45 7.09058 -2.62246 0
M  V30 61534 H 5702.72 7.63612 -1.56581 0
M  V30 61535 N 5706.94 1.02047 1.20101 0
M  V30 61536 C 5708.22 0.626988 1.85279 0
M  V30 61537 C 5708.6 -0.894752 1.912 0
M  V30 61538 O 5707.95 -1.78805 1.42271 0
M  V30 61539 C 5708.16 1.27928 3.24708 0
M  V30 61540 C 5709.51 1.39718 4.00954 0
M  V30 61541 O 5710.53 1.2358 3.34076 0
M  V30 61542 O 5709.39 1.65832 5.20732 0
M  V30 61543 H 5706.48 0.216843 0.798065 0
M  V30 61544 H 5709.03 1.11809 1.27659 0
M  V30 61545 H 5707.8 2.31892 3.15186 0
M  V30 61546 H 5707.43 0.775508 3.89964 0
M  V30 61547 N 5708.42 -1.3595 0.797213 0
M  V30 61548 C 5709.67 -1.99326 0.373765 0
M  V30 61549 C 5710 -1.63115 -1.05391 0
M  V30 61550 O 5709.28 -0.889797 -1.72953 0
M  V30 61551 C 5709.56 -3.55928 0.546535 0
M  V30 61552 C 5709.41 -4.01968 2.01846 0
M  V30 61553 C 5710.73 -4.40087 -0.0336147 0
M  V30 61554 H 5707.85 -0.724102 0.137279 0
M  V30 61555 H 5710.49 -1.61244 1.005 0
M  V30 61556 H 5708.64 -3.88499 0.00917617 0
M  V30 61557 H 5710.31 -3.79849 2.61748 0
M  V30 61558 H 5708.56 -3.53221 2.51828 0
M  V30 61559 H 5709.23 -5.10893 2.09027 0
M  V30 61560 H 5711.7 -4.13922 0.425185 0
M  V30 61561 H 5710.58 -5.48775 0.117247 0
M  V30 61562 H 5710.84 -4.27508 -1.12646 0
M  V30 61563 N 5709.9 -0.549898 -1.47695 0
M  V30 61564 C 5711.15 -0.0210133 -2.01689 0
M  V30 61565 C 5711.46 1.33412 -1.43041 0
M  V30 61566 O 5712.67 1.9525 -1.88652 0
M  V30 61567 C 5711.12 0.0128906 -3.59898 0
M  V30 61568 C 5710.73 -1.33855 -4.27536 0
M  V30 61569 C 5712.48 0.489553 -4.21668 0
M  V30 61570 C 5710.38 -1.26415 -5.77731 0
M  V30 61571 H 5709.31 -0.00408536 -0.753989 0
M  V30 61572 H 5711.96 -0.696658 -1.69761 0
M  V30 61573 H 5710.35 0.754031 -3.88755 0
M  V30 61574 H 5711.52 -2.09683 -4.10329 0
M  V30 61575 H 5709.84 -1.75256 -3.77723 0
M  V30 61576 H 5712.43 0.563497 -5.31722 0
M  V30 61577 H 5712.78 1.4999 -3.88341 0
M  V30 61578 H 5713.31 -0.196506 -3.97314 0
M  V30 61579 H 5710.05 -2.25027 -6.15665 0
M  V30 61580 H 5709.57 -0.547563 -5.97295 0
M  V30 61581 H 5711.25 -0.963143 -6.39791 0
M  V30 61582 N 5711.38 1.54983 -0.285987 0
M  V30 61583 C 5712.63 1.99437 0.32702 0
M  V30 61584 C 5712.95 1.17587 1.55558 0
M  V30 61585 O 5712.22 0.26807 1.94057 0
M  V30 61586 H 5710.8 0.736666 0.12382 0
M  V30 61587 H 5713.46 1.90879 -0.393841 0
M  V30 61588 H 5712.56 3.06092 0.609415 0
M  V30 61589 N 5712.86 0.0134446 1.57594 0
M  V30 61590 C 5714.27 -0.342793 1.55875 0
M  V30 61591 C 5714.47 -1.73924 1.01748 0
M  V30 61592 O 5713.53 -2.43796 0.657244 0
M  V30 61593 C 5714.84 -0.205726 2.99995 0
M  V30 61594 C 5716.39 -0.279665 3.11748 0
M  V30 61595 C 5716.86 -0.171568 4.57679 0
M  V30 61596 N 5718.36 -0.229047 4.62633 0
M  V30 61597 C 5719.09 -0.168951 5.73151 0
M  V30 61598 N 5718.59 -0.058673 6.92775 0
M  V30 61599 N 5720.38 -0.221798 5.61662 0
M  V30 61600 H 5712.53 0.926794 1.91113 0
M  V30 61601 H 5714.79 0.356496 0.878416 0
M  V30 61602 H 5714.5 0.755602 3.43487 0
M  V30 61603 H 5714.37 -0.982348 3.64184 0
M  V30 61604 H 5716.76 -1.23144 2.68178 0
M  V30 61605 H 5716.84 0.527062 2.50311 0
M  V30 61606 H 5716.49 0.776724 5.01926 0
M  V30 61607 H 5716.42 -0.996957 5.17077 0
M  V30 61608 H 5718.91 -0.315063 3.76584 0
M  V30 61609 H 5719.22 -0.019081 7.72798 0
M  V30 61610 H 5717.56 -0.02411 6.94996 0
M  V30 61611 H 5720.76 -0.306242 4.67097 0
M  V30 61612 H 5720.93 -0.1715 6.47773 0
M  V30 61613 N 5714.33 -1.55449 -0.259503 0
M  V30 61614 C 5715.28 -1.9006 -1.34089 0
M  V30 61615 C 5716.28 -0.77832 -1.50461 0
M  V30 61616 O 5717.48 -0.962811 -1.52085 0
M  V30 61617 H 5713.86 -0.60344 -0.448737 0
M  V30 61618 H 5715.83 -2.80369 -1.02156 0
M  V30 61619 C 5714.58 -2.20084 -2.69181 0
M  V30 61620 H 5713.9 -3.05935 -2.57379 0
M  V30 61621 H 5715.34 -2.48213 -3.43753 0
M  V30 61622 C 5713.8 -1.01292 -3.21312 0
M  V30 61623 O 5714.33 -0.254441 -4.00893 0
M  V30 61624 N 5712.54 -0.806953 -2.79171 0
M  V30 61625 H 5712.08 -1.42544 -2.14567 0
M  V30 61626 H 5712.04 -0.0137819 -3.14397 0
M  V30 61627 N 5715.81 0.524619 -1.48612 0
M  V30 61628 C 5716.74 1.63776 -1.66432 0
M  V30 61629 C 5717.72 1.62176 -0.513134 0
M  V30 61630 O 5718.91 1.79288 -0.746293 0
M  V30 61631 C 5716.04 3.02348 -1.70888 0
M  V30 61632 C 5714.99 3.18809 -2.8556 0
M  V30 61633 C 5714.32 4.58496 -2.7511 0
M  V30 61634 C 5715.62 3.01071 -4.26795 0
M  V30 61635 H 5717.31 1.49118 -2.59623 0
M  V30 61636 H 5714.86 0.715953 -1.2494 0
M  V30 61637 H 5716.81 3.80099 -1.81942 0
M  V30 61638 H 5715.54 3.18041 -0.742793 0
M  V30 61639 H 5714.19 2.43477 -2.7407 0
M  V30 61640 H 5713.84 4.71032 -1.76459 0
M  V30 61641 H 5713.54 4.70454 -3.52061 0
M  V30 61642 H 5715.07 5.38338 -2.8814 0
M  V30 61643 H 5716.48 3.68609 -4.3909 0
M  V30 61644 H 5714.88 3.24518 -5.04785 0
M  V30 61645 H 5715.95 1.97438 -4.42884 0
M  V30 61646 N 5717.29 1.3729 0.773902 0
M  V30 61647 C 5718.52 1.35739 1.56811 0
M  V30 61648 C 5718.94 -0.0554885 1.88018 0
M  V30 61649 O 5718.3 -1.03192 1.49068 0
M  V30 61650 C 5718.35 2.2009 2.85644 0
M  V30 61651 O 5717.45 1.60405 3.79926 0
M  V30 61652 H 5716.79 0.463898 0.475074 0
M  V30 61653 H 5719.32 1.80785 0.958023 0
M  V30 61654 H 5719.33 2.33227 3.34767 0
M  V30 61655 H 5718.01 3.2279 2.62258 0
M  V30 61656 H 5716.58 1.56297 3.38564 0
M  V30 61657 N 5718.77 -0.999829 1.21824 0
M  V30 61658 C 5719.68 -2.12299 0.998304 0
M  V30 61659 C 5720.69 -1.73925 -0.0512311 0
M  V30 61660 O 5721.87 -2.00913 0.139966 0
M  V30 61661 C 5718.94 -3.4196 0.571352 0
M  V30 61662 C 5718 -3.94477 1.6937 0
M  V30 61663 C 5717.23 -5.17949 1.28703 0
M  V30 61664 O 5717.45 -5.70168 0.162842 0
M  V30 61665 O 5716.39 -5.64044 2.10091 0
M  V30 61666 H 5720.21 -2.33733 1.93914 0
M  V30 61667 H 5717.8 -1.10674 1.00358 0
M  V30 61668 H 5719.68 -4.19999 0.343282 0
M  V30 61669 H 5718.35 -3.21902 -0.340701 0
M  V30 61670 H 5717.26 -3.17641 1.97623 0
M  V30 61671 H 5718.59 -4.18955 2.58337 0
M  V30 61672 N 5720.25 -1.02682 -1.19558 0
M  V30 61673 C 5721.18 -0.626438 -2.2494 0
M  V30 61674 C 5722.16 0.363554 -1.66169 0
M  V30 61675 O 5723.34 0.246725 -1.92626 0
M  V30 61676 C 5720.47 0.0256691 -3.47291 0
M  V30 61677 C 5719.43 -0.886384 -4.18721 0
M  V30 61678 C 5718.75 -0.099496 -5.34607 0
M  V30 61679 C 5720.05 -2.19917 -4.73744 0
M  V30 61680 H 5721.75 -1.50739 -2.58686 0
M  V30 61681 H 5719.29 -0.726239 -1.24345 0
M  V30 61682 H 5721.25 0.317397 -4.20203 0
M  V30 61683 H 5719.97 0.941401 -3.12738 0
M  V30 61684 H 5718.63 -1.16228 -3.47688 0
M  V30 61685 H 5718.28 0.818205 -4.96301 0
M  V30 61686 H 5717.98 -0.706981 -5.83331 0
M  V30 61687 H 5719.5 0.18554 -6.10318 0
M  V30 61688 H 5720.92 -1.96911 -5.38423 0
M  V30 61689 H 5719.31 -2.7584 -5.32947 0
M  V30 61690 H 5720.38 -2.85523 -3.91924 0
M  V30 61691 N 5721.73 1.35525 -0.804411 0
M  V30 61692 C 5722.67 2.29831 -0.211267 0
M  V30 61693 C 5723.64 1.52706 0.653449 0
M  V30 61694 O 5724.83 1.81154 0.598988 0
M  V30 61695 C 5721.97 3.3919 0.635935 0
M  V30 61696 C 5721.08 4.31282 -0.248976 0
M  V30 61697 C 5720.22 5.27732 0.606024 0
M  V30 61698 C 5719.25 6.11462 -0.27942 0
M  V30 61699 N 5718.39 7.00055 0.535426 0
M  V30 61700 H 5723.23 2.79967 -1.0209 0
M  V30 61701 H 5720.77 1.37791 -0.51498 0
M  V30 61702 H 5722.73 4.01258 1.14227 0
M  V30 61703 H 5721.36 2.90336 1.41085 0
M  V30 61704 H 5720.41 3.70238 -0.873393 0
M  V30 61705 H 5721.72 4.90042 -0.930589 0
M  V30 61706 H 5720.87 5.95162 1.17757 0
M  V30 61707 H 5719.61 4.69463 1.32121 0
M  V30 61708 H 5718.62 5.42981 -0.863256 0
M  V30 61709 H 5719.84 6.71809 -0.992437 0
M  V30 61710 H 5717.79 6.44277 1.23463 0
M  V30 61711 H 5717.71 7.55949 -0.088187 0
M  V30 61712 H 5718.97 7.71837 1.09032 0
M  V30 61713 N 5723.2 0.557723 1.47402 0
M  V30 61714 C 5724.62 0.217528 1.58111 0
M  V30 61715 C 5724.82 -1.27995 1.55627 0
M  V30 61716 O 5723.88 -2.06014 1.45995 0
M  V30 61717 C 5725.19 0.844637 2.88594 0
M  V30 61718 C 5726.74 0.815913 3.02179 0
M  V30 61719 C 5727.21 1.4221 4.35362 0
M  V30 61720 N 5728.7 1.38531 4.41999 0
M  V30 61721 C 5729.44 1.82397 5.43617 0
M  V30 61722 N 5728.93 2.34121 6.52042 0
M  V30 61723 N 5730.73 1.73464 5.34665 0
M  V30 61724 H 5722.88 1.53063 1.47259 0
M  V30 61725 H 5725.14 0.638329 0.700885 0
M  V30 61726 H 5724.85 1.89706 2.96149 0
M  V30 61727 H 5724.72 0.337976 3.75683 0
M  V30 61728 H 5727.11 -0.227822 2.94219 0
M  V30 61729 H 5727.19 1.36034 2.1663 0
M  V30 61730 H 5726.83 2.46491 4.44077 0
M  V30 61731 H 5726.76 0.853115 5.19644 0
M  V30 61732 H 5729.25 1.00696 3.64237 0
M  V30 61733 H 5729.57 2.65515 7.25756 0
M  V30 61734 H 5727.91 2.38132 6.5293 0
M  V30 61735 H 5731.1 1.32832 4.48858 0
M  V30 61736 H 5731.28 2.07969 6.13721 0
M  V30 61737 N 5724.68 -1.5483 0.294202 0
M  V30 61738 C 5725.91 -2.04412 -0.319866 0
M  V30 61739 C 5726.32 -1.17179 -1.48035 0
M  V30 61740 O 5725.68 -0.195944 -1.81445 0
M  V30 61741 C 5725.73 -3.52927 -0.782627 0
M  V30 61742 O 5725.45 -4.36843 0.331665 0
M  V30 61743 C 5726.95 -4.18479 -1.46255 0
M  V30 61744 H 5724.17 -0.667289 -0.0704738 0
M  V30 61745 H 5726.72 -1.99888 0.431855 0
M  V30 61746 H 5724.87 -3.57833 -1.48439 0
M  V30 61747 H 5725.29 -5.24493 -0.0273899 0
M  V30 61748 H 5726.76 -5.23939 -1.73757 0
M  V30 61749 H 5727.24 -3.67802 -2.40039 0
M  V30 61750 H 5727.84 -4.17629 -0.804145 0
M  V30 61751 N 5726.16 -0.021802 -1.57585 0
M  V30 61752 C 5727.41 0.657119 -1.91119 0
M  V30 61753 C 5727.73 1.73087 -0.8981 0
M  V30 61754 O 5727 1.95804 0.0614427 0
M  V30 61755 H 5725.58 0.245708 -0.705434 0
M  V30 61756 H 5728.24 -0.0678781 -1.94782 0
M  V30 61757 H 5727.34 1.11452 -2.91522 0
M  V30 61758 N 5727.64 1.55584 0.251256 0
M  V30 61759 C 5728.88 1.77212 0.979904 0
M  V30 61760 C 5729.21 0.585344 1.85483 0
M  V30 61761 O 5728.47 -0.431492 1.90884 0
M  V30 61762 C 5728.77 3.04298 1.87451 0
M  V30 61763 C 5728.43 4.35848 1.1553 0
M  V30 61764 C 5727.09 4.71598 0.956513 0
M  V30 61765 C 5729.45 5.17191 0.645199 0
M  V30 61766 C 5726.77 5.86228 0.235259 0
M  V30 61767 C 5729.13 6.32569 -0.0625664 0
M  V30 61768 C 5727.79 6.66942 -0.272868 0
M  V30 61769 H 5727.06 0.648465 0.358572 0
M  V30 61770 H 5729.71 1.89856 0.250356 0
M  V30 61771 H 5728.01 2.86646 2.67097 0
M  V30 61772 H 5729.71 3.1823 2.4399 0
M  V30 61773 H 5726.3 4.07762 1.32017 0
M  V30 61774 H 5730.48 4.90031 0.786333 0
M  V30 61775 H 5725.74 6.11369 0.0618083 0
M  V30 61776 H 5729.91 6.94843 -0.465478 0
M  V30 61777 H 5727.54 7.55615 -0.833707 0
M  V30 61778 N 5729.12 -0.516731 1.48888 0
M  V30 61779 C 5730.03 -1.64664 1.67101 0
M  V30 61780 C 5731.04 -1.64961 0.553524 0
M  V30 61781 O 5732.22 -1.8367 0.826271 0
M  V30 61782 C 5729.28 -3.01089 1.7189 0
M  V30 61783 C 5728.34 -3.11544 2.95363 0
M  V30 61784 C 5727.58 -4.41461 2.99914 0
M  V30 61785 O 5727.8 -5.29341 2.12496 0
M  V30 61786 O 5726.73 -4.56559 3.92222 0
M  V30 61787 H 5730.56 -1.52232 2.62791 0
M  V30 61788 H 5728.14 -0.691293 1.32444 0
M  V30 61789 H 5730.03 -3.82201 1.77484 0
M  V30 61790 H 5728.7 -3.13817 0.793766 0
M  V30 61791 H 5727.61 -2.29678 2.95294 0
M  V30 61792 H 5728.94 -3.03737 3.87304 0
M  V30 61793 N 5730.59 -1.37698 -0.766611 0
M  V30 61794 C 5731.54 -1.33877 -1.88004 0
M  V30 61795 C 5732.51 -0.203458 -1.64849 0
M  V30 61796 O 5733.7 -0.393634 -1.86695 0
M  V30 61797 C 5730.84 -1.15672 -3.25137 0
M  V30 61798 C 5729.95 -2.38478 -3.60211 0
M  V30 61799 C 5729.08 -2.13104 -4.8658 0
M  V30 61800 C 5728.12 -3.3175 -5.14401 0
M  V30 61801 N 5727.26 -3.05895 -6.3196 0
M  V30 61802 H 5732.1 -2.29071 -1.90605 0
M  V30 61803 H 5729.64 -1.13824 -0.931797 0
M  V30 61804 H 5731.59 -1.03136 -4.04251 0
M  V30 61805 H 5730.22 -0.241228 -3.21897 0
M  V30 61806 H 5729.28 -2.61735 -2.76042 0
M  V30 61807 H 5730.59 -3.26946 -3.76706 0
M  V30 61808 H 5729.74 -1.97629 -5.73609 0
M  V30 61809 H 5728.48 -1.21981 -4.72199 0
M  V30 61810 H 5727.49 -3.47758 -4.25845 0
M  V30 61811 H 5728.71 -4.23731 -5.30687 0
M  V30 61812 H 5726.66 -2.17406 -6.18927 0
M  V30 61813 H 5726.57 -3.87908 -6.48894 0
M  V30 61814 H 5727.84 -2.94048 -7.21911 0
M  V30 61815 N 5732.07 0.993354 -1.22353 0
M  V30 61816 C 5733 2.10167 -1.01744 0
M  V30 61817 C 5733.98 1.69989 0.0614678 0
M  V30 61818 O 5735.17 1.93939 -0.100659 0
M  V30 61819 C 5732.3 3.42184 -0.593922 0
M  V30 61820 C 5731.25 3.96209 -1.61871 0
M  V30 61821 C 5730.58 5.24268 -1.05105 0
M  V30 61822 C 5731.88 4.26945 -3.00857 0
M  V30 61823 H 5733.57 2.27666 -1.94444 0
M  V30 61824 H 5731.12 1.09405 -0.936297 0
M  V30 61825 H 5733.07 4.19129 -0.436862 0
M  V30 61826 H 5731.79 3.24512 0.368741 0
M  V30 61827 H 5730.45 3.21395 -1.76354 0
M  V30 61828 H 5730.1 5.02937 -0.0797515 0
M  V30 61829 H 5729.8 5.61381 -1.73567 0
M  V30 61830 H 5731.33 6.03848 -0.905561 0
M  V30 61831 H 5732.74 4.94689 -2.89751 0
M  V30 61832 H 5731.14 4.75229 -3.66439 0
M  V30 61833 H 5732.21 3.34739 -3.50824 0
M  V30 61834 N 5733.55 1.03315 1.19012 0
M  V30 61835 C 5734.51 0.622192 2.20593 0
M  V30 61836 C 5735.51 -0.316446 1.57656 0
M  V30 61837 O 5736.7 -0.102871 1.73896 0
M  V30 61838 C 5733.83 -0.0889234 3.40784 0
M  V30 61839 H 5735.03 1.52104 2.58465 0
M  V30 61840 H 5732.58 0.824824 1.32764 0
M  V30 61841 H 5733.32 -1.00192 3.08435 0
M  V30 61842 H 5733.1 0.585606 3.87702 0
M  V30 61843 H 5734.59 -0.363219 4.16017 0
M  V30 61844 N 5735.03 -1.35096 0.811587 0
M  V30 61845 C 5735.98 -2.31617 0.213617 0
M  V30 61846 C 5736.97 -1.5687 -0.639385 0
M  V30 61847 O 5738.18 -1.71959 -0.531991 0
M  V30 61848 H 5734.55 -0.750314 0.0503227 0
M  V30 61849 H 5736.52 -2.79589 1.04272 0
M  V30 61850 C 5735.27 -3.42143 -0.619173 0
M  V30 61851 H 5734.59 -3.9979 0.0278598 0
M  V30 61852 H 5736.03 -4.11945 -1.00387 0
M  V30 61853 C 5734.49 -2.85613 -1.7868 0
M  V30 61854 O 5735.02 -2.7957 -2.8845 0
M  V30 61855 N 5733.23 -2.42592 -1.59992 0
M  V30 61856 H 5732.78 -2.47708 -0.707017 0
M  V30 61857 H 5732.73 -2.05119 -2.38272 0
M  V30 61858 N 5736.51 -0.565532 -1.47104 0
M  V30 61859 C 5737.44 0.165588 -2.32912 0
M  V30 61860 C 5738.42 0.900628 -1.44301 0
M  V30 61861 O 5739.6 0.879462 -1.73145 0
M  V30 61862 C 5736.73 1.1908 -3.26247 0
M  V30 61863 C 5735.69 0.5717 -4.24165 0
M  V30 61864 C 5735.01 1.70215 -5.06884 0
M  V30 61865 C 5736.31 -0.479967 -5.2009 0
M  V30 61866 H 5738.01 -0.550809 -2.9429 0
M  V30 61867 H 5735.55 -0.266333 -1.41516 0
M  V30 61868 H 5737.51 1.71051 -3.85123 0
M  V30 61869 H 5736.23 1.93725 -2.62941 0
M  V30 61870 H 5734.89 0.0732242 -3.66527 0
M  V30 61871 H 5734.54 2.43784 -4.39975 0
M  V30 61872 H 5734.24 1.29364 -5.73183 0
M  V30 61873 H 5735.76 2.22495 -5.6862 0
M  V30 61874 H 5737.17 -0.0460058 -5.73282 0
M  V30 61875 H 5735.57 -0.807824 -5.94638 0
M  V30 61876 H 5736.64 -1.37275 -4.65063 0
M  V30 61877 N 5737.98 1.54671 -0.302409 0
M  V30 61878 C 5738.93 2.25024 0.588791 0
M  V30 61879 C 5739.93 1.25675 1.13587 0
M  V30 61880 O 5741.13 1.43521 1.08635 0
M  V30 61881 H 5737.51 0.722522 0.208483 0
M  V30 61882 H 5739.48 2.98388 -0.0270977 0
M  V30 61883 C 5738.23 3.00538 1.74849 0
M  V30 61884 H 5737.55 3.76791 1.33674 0
M  V30 61885 H 5738.99 3.53044 2.3481 0
M  V30 61886 C 5737.45 2.07589 2.65345 0
M  V30 61887 O 5737.98 1.64486 3.6648 0
M  V30 61888 N 5736.19 1.73516 2.3311 0
M  V30 61889 H 5735.73 2.08766 1.50913 0
M  V30 61890 H 5735.69 1.11601 2.93926 0
M  V30 61891 N 5739.46 0.0301588 1.57571 0
M  V30 61892 C 5740.39 -0.949695 2.13314 0
M  V30 61893 C 5741.37 -1.33861 1.04953 0
M  V30 61894 O 5742.56 -1.41705 1.32791 0
M  V30 61895 C 5739.69 -2.23169 2.66107 0
M  V30 61896 C 5738.64 -1.98348 3.79265 0
M  V30 61897 C 5737.97 -3.32821 4.1849 0
M  V30 61898 C 5739.27 -1.32184 5.05297 0
M  V30 61899 H 5740.96 -0.485458 2.95438 0
M  V30 61900 H 5738.51 -0.232066 1.42118 0
M  V30 61901 H 5740.46 -2.92097 3.03739 0
M  V30 61902 H 5739.19 -2.7176 1.81146 0
M  V30 61903 H 5737.84 -1.31837 3.42074 0
M  V30 61904 H 5737.49 -3.79173 3.30509 0
M  V30 61905 H 5737.19 -3.1702 4.94745 0
M  V30 61906 H 5738.72 -4.03016 4.58705 0
M  V30 61907 H 5740.13 -1.91114 5.40508 0
M  V30 61908 H 5738.53 -1.26776 5.86556 0
M  V30 61909 H 5739.6 -0.29494 4.84002 0
M  V30 61910 N 5740.94 -1.55715 -0.243001 0
M  V30 61911 C 5742.17 -1.82129 -0.992155 0
M  V30 61912 C 5742.59 -0.607728 -1.78012 0
M  V30 61913 O 5741.95 0.443289 -1.75797 0
M  V30 61914 C 5742 -3.06321 -1.90263 0
M  V30 61915 O 5741.1 -2.8351 -2.99493 0
M  V30 61916 H 5740.44 -0.601092 -0.282106 0
M  V30 61917 H 5742.97 -2.02905 -0.262809 0
M  V30 61918 H 5742.98 -3.35858 -2.31654 0
M  V30 61919 H 5741.66 -3.94286 -1.3233 0
M  V30 61920 H 5740.23 -2.6515 -2.62202 0
M  V30 61921 N 5742.42 0.508828 -1.4916 0
M  V30 61922 C 5743.35 1.62002 -1.6816 0
M  V30 61923 C 5744.33 1.61622 -0.530306 0
M  V30 61924 O 5745.51 1.78486 -0.765267 0
M  V30 61925 C 5742.64 3.00519 -1.74085 0
M  V30 61926 C 5741.6 3.15762 -2.88926 0
M  V30 61927 C 5740.92 4.55552 -2.79958 0
M  V30 61928 C 5742.22 2.96527 -4.29964 0
M  V30 61929 H 5743.92 1.46356 -2.6119 0
M  V30 61930 H 5741.46 0.702661 -1.25693 0
M  V30 61931 H 5743.42 3.78147 -1.85964 0
M  V30 61932 H 5742.14 3.17235 -0.776484 0
M  V30 61933 H 5740.8 2.40557 -2.76637 0
M  V30 61934 H 5740.45 4.69134 -1.81445 0
M  V30 61935 H 5740.15 4.66693 -3.57031 0
M  V30 61936 H 5741.67 5.35252 -2.93833 0
M  V30 61937 H 5743.09 3.63931 -4.42975 0
M  V30 61938 H 5741.48 3.19146 -5.08199 0
M  V30 61939 H 5742.55 1.9273 -4.44953 0
M  V30 61940 N 5743.9 1.38103 0.759297 0
M  V30 61941 C 5745.12 1.37395 1.55362 0
M  V30 61942 C 5745.55 -0.0355436 1.88066 0
M  V30 61943 O 5744.9 -1.01605 1.50154 0
M  V30 61944 C 5744.95 2.23108 2.83294 0
M  V30 61945 O 5744.06 1.64425 3.78204 0
M  V30 61946 H 5743.4 0.46891 0.470127 0
M  V30 61947 H 5745.93 1.81791 0.938795 0
M  V30 61948 H 5745.94 2.36764 3.32275 0
M  V30 61949 H 5744.61 3.25554 2.5882 0
M  V30 61950 H 5743.19 1.59879 3.36887 0
M  V30 61951 N 5745.37 -0.986851 1.22878 0
M  V30 61952 C 5746.6 -1.76262 1.08348 0
M  V30 61953 C 5747.02 -1.85228 -0.365537 0
M  V30 61954 O 5746.37 -1.32679 -1.2531 0
M  V30 61955 C 5746.43 -3.19276 1.69544 0
M  V30 61956 O 5746.15 -3.10785 3.08778 0
M  V30 61957 C 5747.65 -4.13275 1.6037 0
M  V30 61958 H 5744.87 -0.553361 0.379517 0
M  V30 61959 H 5747.41 -1.24027 1.62596 0
M  V30 61960 H 5745.57 -3.68559 1.19345 0
M  V30 61961 H 5745.98 -4.00768 3.38357 0
M  V30 61962 H 5747.45 -5.11352 2.07901 0
M  V30 61963 H 5747.93 -4.35598 0.561335 0
M  V30 61964 H 5748.54 -3.69892 2.09904 0
M  V30 61965 N 5746.85 -1.03945 -1.18462 0
M  V30 61966 C 5747.78 -0.65026 -2.24263 0
M  V30 61967 C 5748.76 0.345909 -1.66546 0
M  V30 61968 O 5749.95 0.22628 -1.92877 0
M  V30 61969 C 5747.08 -0.0111672 -3.47298 0
M  V30 61970 C 5746.03 -0.930745 -4.17757 0
M  V30 61971 C 5745.36 -0.156193 -5.34472 0
M  V30 61972 C 5746.66 -2.2493 -4.71385 0
M  V30 61973 H 5748.35 -1.53474 -2.57072 0
M  V30 61974 H 5745.9 -0.739387 -1.23568 0
M  V30 61975 H 5747.85 0.272811 -4.20516 0
M  V30 61976 H 5746.58 0.908178 -3.13719 0
M  V30 61977 H 5745.23 -1.19909 -3.46435 0
M  V30 61978 H 5744.88 0.76552 -4.97141 0
M  V30 61979 H 5744.58 -0.768811 -5.82549 0
M  V30 61980 H 5746.11 0.120797 -6.10481 0
M  V30 61981 H 5747.52 -2.02611 -5.36304 0
M  V30 61982 H 5745.92 -2.81477 -5.29991 0
M  V30 61983 H 5746.99 -2.89664 -3.88874 0
M  V30 61984 N 5748.33 1.34664 -0.81874 0
M  V30 61985 C 5749.58 1.9802 -0.404029 0
M  V30 61986 C 5749.9 1.65243 1.03536 0
M  V30 61987 O 5749.17 0.94103 1.71818 0
M  V30 61988 H 5747.75 0.732512 -0.146408 0
M  V30 61989 H 5750.41 1.64373 -1.04726 0
M  V30 61990 H 5749.51 3.07744 -0.519624 0
M  V30 61991 N 5749.81 0.573325 1.46802 0
M  V30 61992 C 5751.06 0.0554144 2.02724 0
M  V30 61993 C 5751.39 -1.29748 1.44496 0
M  V30 61994 O 5750.66 -1.84801 0.60652 0
M  V30 61995 C 5750.95 -0.0204245 3.60094 0
M  V30 61996 C 5750.8 1.3607 4.28725 0
M  V30 61997 C 5752.12 -0.725791 4.34074 0
M  V30 61998 H 5749.24 0.0216117 0.736683 0
M  V30 61999 H 5751.88 0.738719 1.75051 0
M  V30 62000 H 5750.03 -0.602346 3.83802 0
M  V30 62001 H 5751.7 1.98707 4.16309 0
M  V30 62002 H 5749.94 1.93101 3.88451 0
M  V30 62003 H 5750.62 1.2602 5.37423 0
M  V30 62004 H 5753.09 -0.231531 4.15455 0
M  V30 62005 H 5751.97 -0.747859 5.43781 0
M  V30 62006 H 5752.23 -1.78522 4.04453 0
M  V30 62007 N 5751.29 -1.54509 0.310607 0
M  V30 62008 C 5752.53 -2.01335 -0.289098 0
M  V30 62009 C 5752.89 -1.19505 -1.50786 0
M  V30 62010 O 5752.18 -0.26581 -1.89747 0
M  V30 62011 C 5752.38 -3.50722 -0.687667 0
M  V30 62012 C 5752.2 -4.47012 0.490921 0
M  V30 62013 C 5750.97 -4.95587 0.985964 0
M  V30 62014 C 5753.17 -4.96564 1.33898 0
M  V30 62015 N 5751.15 -5.75752 2.13031 0
M  V30 62016 C 5752.53 -5.74525 2.33068 0
M  V30 62017 C 5754.58 -4.78731 1.36824 0
M  V30 62018 C 5753.28 -6.36553 3.34952 0
M  V30 62019 C 5755.31 -5.41584 2.37572 0
M  V30 62020 C 5754.67 -6.19386 3.3547 0
M  V30 62021 H 5750.77 -0.778862 -0.0699856 0
M  V30 62022 H 5753.35 -1.896 0.442705 0
M  V30 62023 H 5751.53 -3.62728 -1.38862 0
M  V30 62024 H 5753.26 -3.84331 -1.26773 0
M  V30 62025 H 5750.01 -4.70285 0.55936 0
M  V30 62026 H 5750.44 -6.20517 2.70718 0
M  V30 62027 H 5755.08 -4.18154 0.62507 0
M  V30 62028 H 5752.8 -6.96258 4.10183 0
M  V30 62029 H 5756.38 -5.2971 2.40622 0
M  V30 62030 H 5755.26 -6.67159 4.12152 0
M  V30 62031 N 5752.77 -0.0385148 -1.57553 0
M  V30 62032 C 5753.99 0.648008 -1.9649 0
M  V30 62033 C 5754.41 1.6512 -0.915472 0
M  V30 62034 O 5753.77 1.82216 0.101715 0
M  V30 62035 C 5753.82 1.34611 -3.35503 0
M  V30 62036 O 5753.54 0.383107 -4.36422 0
M  V30 62037 C 5755.04 2.12358 -3.89126 0
M  V30 62038 H 5752.26 0.178045 -0.646947 0
M  V30 62039 H 5754.8 -0.101065 -2.0425 0
M  V30 62040 H 5752.96 2.04651 -3.28933 0
M  V30 62041 H 5753.37 0.879913 -5.17067 0
M  V30 62042 H 5754.85 2.56643 -4.88711 0
M  V30 62043 H 5755.32 2.96653 -3.23873 0
M  V30 62044 H 5755.93 1.47255 -3.98994 0
M  V30 62045 N 5754.24 1.55842 0.23474 0
M  V30 62046 C 5755.19 1.9133 1.29079 0
M  V30 62047 C 5756.16 0.76892 1.47231 0
M  V30 62048 O 5757.35 1.02366 1.61015 0
M  V30 62049 C 5754.49 2.22397 2.63882 0
M  V30 62050 C 5753.6 3.49702 2.53638 0
M  V30 62051 C 5752.73 3.7028 3.80876 0
M  V30 62052 C 5751.77 4.91144 3.65299 0
M  V30 62053 N 5750.91 5.0818 4.84456 0
M  V30 62054 H 5755.75 2.81385 0.981147 0
M  V30 62055 H 5753.29 1.39281 0.473191 0
M  V30 62056 H 5755.24 2.38416 3.42365 0
M  V30 62057 H 5753.87 1.35531 2.92969 0
M  V30 62058 H 5752.93 3.41948 1.6666 0
M  V30 62059 H 5754.24 4.38334 2.38044 0
M  V30 62060 H 5753.39 3.86324 4.67802 0
M  V30 62061 H 5752.13 2.79904 3.99381 0
M  V30 62062 H 5751.14 4.75064 2.76757 0
M  V30 62063 H 5752.36 5.82992 3.48277 0
M  V30 62064 H 5750.31 4.20744 5.03299 0
M  V30 62065 H 5750.22 5.90921 4.71538 0
M  V30 62066 H 5751.49 5.28647 5.72846 0
M  V30 62067 N 5755.72 -0.50091 1.49428 0
M  V30 62068 C 5756.67 -1.59933 1.62497 0
M  V30 62069 C 5757.66 -1.53554 0.480638 0
M  V30 62070 O 5758.85 -1.61082 0.733595 0
M  V30 62071 C 5755.98 -2.98543 1.6949 0
M  V30 62072 C 5755.06 -3.09919 2.89502 0
M  V30 62073 N 5755.45 -2.91184 4.13577 0
M  V30 62074 C 5753.75 -3.41019 2.8744 0
M  V30 62075 C 5754.45 -3.06744 4.9425 0
M  V30 62076 N 5753.43 -3.35624 4.27618 0
M  V30 62077 H 5757.23 -1.44102 2.56148 0
M  V30 62078 H 5754.74 -0.707037 1.46201 0
M  V30 62079 H 5756.74 -3.77484 1.76951 0
M  V30 62080 H 5755.4 -3.15444 0.769769 0
M  V30 62081 H 5756.41 -2.67357 4.43555 0
M  V30 62082 H 5753.09 -3.64095 2.04306 0
M  V30 62083 H 5754.48 -2.9675 6.02817 0
M  V30 62084 N 5757.2 -1.38504 -0.751963 0
M  V30 62085 C 5758.43 -1.38038 -1.54121 0
M  V30 62086 C 5758.84 0.0294402 -1.88777 0
M  V30 62087 O 5758.2 0.996468 -1.52895 0
M  V30 62088 C 5758.25 -2.23751 -2.83933 0
M  V30 62089 O 5757.97 -3.59241 -2.50754 0
M  V30 62090 C 5759.47 -2.31483 -3.78062 0
M  V30 62091 H 5756.69 -0.472094 -0.476831 0
M  V30 62092 H 5759.24 -1.82104 -0.930508 0
M  V30 62093 H 5757.39 -1.83142 -3.41376 0
M  V30 62094 H 5757.81 -4.04388 -3.34022 0
M  V30 62095 H 5759.28 -2.95739 -4.66093 0
M  V30 62096 H 5759.76 -1.32896 -4.18611 0
M  V30 62097 H 5760.36 -2.72489 -3.26543 0
M  V30 62098 N 5758.68 0.980321 -1.234 0
M  V30 62099 C 5759.9 1.76219 -1.0937 0
M  V30 62100 C 5760.33 1.84802 0.350694 0
M  V30 62101 O 5759.69 1.3097 1.25366 0
M  V30 62102 C 5759.73 3.16722 -1.72394 0
M  V30 62103 O 5758.84 4.00436 -0.986143 0
M  V30 62104 H 5758.18 0.54216 -0.383351 0
M  V30 62105 H 5760.71 1.2306 -1.63455 0
M  V30 62106 H 5760.72 3.673 -1.77636 0
M  V30 62107 H 5759.39 3.0979 -2.77494 0
M  V30 62108 H 5757.97 3.58943 -1.01067 0
M  V30 62109 N 5760.16 1.04571 1.17909 0
M  V30 62110 C 5761.1 0.641197 2.21714 0
M  V30 62111 C 5762.07 -0.353528 1.62294 0
M  V30 62112 O 5763.26 -0.246361 1.89203 0
M  V30 62113 C 5760.4 0.015594 3.45096 0
M  V30 62114 C 5759.51 1.0584 4.18834 0
M  V30 62115 C 5758.65 0.400774 5.29686 0
M  V30 62116 C 5757.68 1.42832 5.95202 0
M  V30 62117 N 5756.82 0.795304 6.97581 0
M  V30 62118 H 5761.66 1.53089 2.55671 0
M  V30 62119 H 5759.2 0.765759 1.25597 0
M  V30 62120 H 5761.16 -0.364507 4.15605 0
M  V30 62121 H 5759.79 -0.837594 3.11744 0
M  V30 62122 H 5758.84 1.55639 3.47103 0
M  V30 62123 H 5760.15 1.83865 4.63676 0
M  V30 62124 H 5759.3 -0.0332549 6.06691 0
M  V30 62125 H 5758.04 -0.411525 4.85961 0
M  V30 62126 H 5757.05 1.87243 5.16933 0
M  V30 62127 H 5758.27 2.24241 6.41009 0
M  V30 62128 H 5756.22 0.00340264 6.56 0
M  V30 62129 H 5756.14 1.51319 7.40701 0
M  V30 62130 H 5757.4 0.38584 7.78544 0
M  V30 62131 N 5761.63 -1.34228 0.82587 0
M  V30 62132 C 5763.05 -1.51165 0.511998 0
M  V30 62133 C 5763.25 -1.76985 -0.963256 0
M  V30 62134 O 5762.31 -1.8225 -1.74761 0
M  V30 62135 C 5763.62 -2.67469 1.37408 0
M  V30 62136 C 5765.17 -2.81351 1.37151 0
M  V30 62137 C 5765.64 -4.00702 2.21814 0
M  V30 62138 N 5767.13 -4.07915 2.19454 0
M  V30 62139 C 5767.87 -4.99428 2.81708 0
M  V30 62140 N 5767.36 -5.96144 3.52965 0
M  V30 62141 N 5769.16 -4.92323 2.71247 0
M  V30 62142 H 5761.31 -1.15728 1.78103 0
M  V30 62143 H 5763.57 -0.567829 0.759127 0
M  V30 62144 H 5763.28 -2.55028 2.42185 0
M  V30 62145 H 5763.15 -3.62554 1.04087 0
M  V30 62146 H 5765.54 -2.93232 0.331508 0
M  V30 62147 H 5765.62 -1.87066 1.74471 0
M  V30 62148 H 5765.26 -3.89582 3.25866 0
M  V30 62149 H 5765.19 -4.94207 1.81843 0
M  V30 62150 H 5767.68 -3.3869 1.67624 0
M  V30 62151 H 5768 -6.62609 3.97705 0
M  V30 62152 H 5766.34 -5.96259 3.57071 0
M  V30 62153 H 5769.53 -4.15725 2.15151 0
M  V30 62154 H 5769.71 -5.63446 3.2005 0
M  V30 62155 N 5763.11 -0.581102 -1.46496 0
M  V30 62156 C 5764.36 -0.0637898 -2.01599 0
M  V30 62157 C 5764.67 1.30348 -1.45838 0
M  V30 62158 O 5765.88 1.91204 -1.92752 0
M  V30 62159 C 5764.34 -0.0634519 -3.59844 0
M  V30 62160 C 5763.94 -1.42894 -4.246 0
M  V30 62161 C 5765.69 0.400001 -4.22611 0
M  V30 62162 C 5763.59 -1.38641 -5.7492 0
M  V30 62163 H 5762.52 -0.0200777 -0.753733 0
M  V30 62164 H 5765.18 -0.73251 -1.68245 0
M  V30 62165 H 5763.56 0.671401 -3.90267 0
M  V30 62166 H 5764.73 -2.18339 -4.05789 0
M  V30 62167 H 5763.05 -1.83228 -3.7392 0
M  V30 62168 H 5765.64 0.450584 -5.32798 0
M  V30 62169 H 5765.99 1.41719 -3.91435 0
M  V30 62170 H 5766.52 -0.280738 -3.96808 0
M  V30 62171 H 5763.26 -2.38036 -6.10753 0
M  V30 62172 H 5762.78 -0.674135 -5.96 0
M  V30 62173 H 5764.46 -1.09864 -6.37604 0
M  V30 62174 N 5764.59 1.54342 -0.318797 0
M  V30 62175 C 5765.84 1.99661 0.286076 0
M  V30 62176 C 5766.15 1.21079 1.53621 0
M  V30 62177 O 5767.36 1.56752 2.21678 0
M  V30 62178 C 5765.81 3.55512 0.56028 0
M  V30 62179 C 5765.42 4.42923 -0.672529 0
M  V30 62180 C 5767.17 4.09311 1.12537 0
M  V30 62181 C 5765.07 5.90238 -0.370492 0
M  V30 62182 H 5764 0.745834 0.110672 0
M  V30 62183 H 5766.65 1.78384 -0.430278 0
M  V30 62184 H 5765.04 3.72758 1.3367 0
M  V30 62185 H 5766.21 4.37453 -1.44816 0
M  V30 62186 H 5764.53 3.99989 -1.1575 0
M  V30 62187 H 5767.12 5.1696 1.36589 0
M  V30 62188 H 5767.47 3.61001 2.07325 0
M  V30 62189 H 5768 3.95679 0.410246 0
M  V30 62190 H 5764.74 6.42733 -1.28742 0
M  V30 62191 H 5764.26 5.98673 0.367521 0
M  V30 62192 H 5765.94 6.46996 0.0214307 0
M  V30 62193 N 5766.07 0.0468696 1.5753 0
M  V30 62194 C 5767 -0.958084 2.08215 0
M  V30 62195 C 5768.01 -1.27754 1.0091 0
M  V30 62196 O 5769.2 -1.23908 1.28488 0
M  V30 62197 C 5766.3 -2.28079 2.50665 0
M  V30 62198 C 5765.48 -2.14389 3.81256 0
M  V30 62199 C 5764.53 -3.29747 4.10065 0
M  V30 62200 O 5763.56 -3.05842 4.80051 0
M  V30 62201 N 5764.76 -4.54091 3.61637 0
M  V30 62202 H 5767.53 -0.525508 2.95057 0
M  V30 62203 H 5765.09 -0.139475 1.61298 0
M  V30 62204 H 5767.08 -3.04112 2.67017 0
M  V30 62205 H 5765.65 -2.62918 1.69094 0
M  V30 62206 H 5764.87 -1.22975 3.74527 0
M  V30 62207 H 5766.16 -2.02465 4.66782 0
M  V30 62208 H 5765.56 -4.76404 3.05051 0
M  V30 62209 H 5764.11 -5.27232 3.83235 0
M  V30 62210 N 5767.55 -1.55964 -0.226472 0
M  V30 62211 C 5768.82 -1.69531 -0.975629 0
M  V30 62212 C 5769.2 -0.592706 -2.02608 0
M  V30 62213 O 5768.55 0.400994 -2.24954 0
M  V30 62214 C 5768.76 -3.1065 -1.59052 0
M  V30 62215 C 5770.11 -3.69902 -2.08465 0
M  V30 62216 O 5771.13 -3.1358 -1.68955 0
M  V30 62217 O 5769.99 -4.68682 -2.81069 0
M  V30 62218 H 5767.09 -0.690301 -0.455427 0
M  V30 62219 H 5769.63 -1.68286 -0.218642 0
M  V30 62220 H 5768.4 -3.82358 -0.831769 0
M  V30 62221 H 5768.03 -3.15993 -2.41318 0
M  V30 62222 N 5769.02 0.492978 -1.49691 0
M  V30 62223 C 5770.26 1.25667 -1.61205 0
M  V30 62224 C 5770.63 1.89708 -0.295751 0
M  V30 62225 O 5771.83 2.67273 -0.28614 0
M  V30 62226 C 5770.1 2.28913 -2.7447 0
M  V30 62227 S 5771.66 3.14514 -3.05984 0
M  V30 62228 H 5768.48 0.426965 -0.568526 0
M  V30 62229 H 5771.08 0.557432 -1.87384 0
M  V30 62230 H 5769.78 1.80408 -3.6862 0
M  V30 62231 H 5769.31 3.03495 -2.50308 0
M  V30 62232 H 5771.33 4.29708 -2.48123 0
M  V30 62233 N 5770.5 1.38901 0.744607 0
M  V30 62234 C 5771.75 1.35801 1.50619 0
M  V30 62235 C 5772.08 -0.0491093 1.94138 0
M  V30 62236 O 5771.36 -1.01213 1.66091 0
M  V30 62237 C 5771.64 2.32178 2.75255 0
M  V30 62238 C 5771.49 3.8179 2.37816 0
M  V30 62239 C 5772.81 2.26539 3.77317 0
M  V30 62240 H 5769.93 0.49461 0.546379 0
M  V30 62241 H 5772.57 1.69819 0.852151 0
M  V30 62242 H 5770.72 2.03299 3.31062 0
M  V30 62243 H 5772.39 4.21379 1.87715 0
M  V30 62244 H 5770.64 3.99033 1.70162 0
M  V30 62245 H 5771.31 4.44698 3.27028 0
M  V30 62246 H 5773.78 2.52053 3.31072 0
M  V30 62247 H 5772.66 2.9607 4.62206 0
M  V30 62248 H 5772.92 1.2672 4.2355 0
M  V30 62249 N 5771.98 -0.973763 1.23918 0
M  V30 62250 C 5772.94 -2.04888 1.0273 0
M  V30 62251 C 5773.94 -1.60795 -0.0132407 0
M  V30 62252 O 5775.13 -1.72713 0.227145 0
M  V30 62253 C 5772.27 -3.36339 0.555785 0
M  V30 62254 H 5773.46 -2.25117 1.98147 0
M  V30 62255 H 5771.01 -1.14813 1.06055 0
M  V30 62256 H 5771.75 -3.21801 -0.401856 0
M  V30 62257 H 5771.53 -3.69685 1.30674 0
M  V30 62258 H 5773.02 -4.15397 0.428394 0
M  V30 62259 N 5773.46 -1.05195 -1.17353 0
M  V30 62260 C 5774.71 -0.75717 -1.86949 0
M  V30 62261 C 5775.02 0.718573 -1.81923 0
M  V30 62262 O 5776.23 1.12731 -2.4699 0
M  V30 62263 C 5774.68 -1.30421 -3.35438 0
M  V30 62264 C 5774.29 -2.8094 -3.48965 0
M  V30 62265 C 5776.03 -1.08647 -4.10361 0
M  V30 62266 C 5773.94 -3.28944 -4.91477 0
M  V30 62267 H 5772.87 -0.279549 -0.700263 0
M  V30 62268 H 5775.52 -1.26925 -1.32523 0
M  V30 62269 H 5773.9 -0.719949 -3.894 0
M  V30 62270 H 5775.08 -3.45222 -3.05219 0
M  V30 62271 H 5773.39 -3.01255 -2.87462 0
M  V30 62272 H 5775.99 -1.42014 -5.15496 0
M  V30 62273 H 5776.33 -0.0242367 -4.16293 0
M  V30 62274 H 5776.87 -1.63594 -3.62604 0
M  V30 62275 H 5773.61 -4.34598 -4.90719 0
M  V30 62276 H 5773.13 -2.69405 -5.35893 0
M  V30 62277 H 5774.8 -3.23625 -5.60246 0
M  V30 62278 N 5774.94 1.33788 -0.832977 0
M  V30 62279 C 5776.18 1.97581 -0.425009 0
M  V30 62280 C 5776.51 1.66332 1.01778 0
M  V30 62281 O 5775.78 0.959201 1.7081 0
M  V30 62282 H 5774.36 0.730918 -0.154169 0
M  V30 62283 H 5777.02 1.63253 -1.06464 0
M  V30 62284 H 5776.11 3.07175 -0.552235 0
M  V30 62285 N 5776.41 0.588863 1.46185 0
M  V30 62286 C 5777.36 -0.140851 2.3037 0
M  V30 62287 C 5778.33 -0.878167 1.40987 0
M  V30 62288 O 5779.52 -0.867619 1.69932 0
M  V30 62289 C 5776.66 -1.14457 3.25567 0
M  V30 62290 C 5775.77 -0.410064 4.30049 0
M  V30 62291 C 5774.9 -1.40185 5.12369 0
M  V30 62292 C 5773.94 -0.654096 6.08595 0
M  V30 62293 N 5773.08 -1.59424 6.8376 0
M  V30 62294 H 5777.92 0.583079 2.9224 0
M  V30 62295 H 5775.46 0.299353 1.44022 0
M  V30 62296 H 5777.42 -1.73943 3.79209 0
M  V30 62297 H 5776.05 -1.83614 2.65492 0
M  V30 62298 H 5775.1 0.299956 3.79216 0
M  V30 62299 H 5776.41 0.174218 4.98496 0
M  V30 62300 H 5775.56 -2.06933 5.70319 0
M  V30 62301 H 5774.3 -2.02006 4.43897 0
M  V30 62302 H 5773.31 0.0271304 5.49793 0
M  V30 62303 H 5774.53 -0.0411898 6.79088 0
M  V30 62304 H 5772.48 -2.20044 6.17994 0
M  V30 62305 H 5772.4 -1.06292 7.4849 0
M  V30 62306 H 5773.66 -2.25188 7.46264 0
M  V30 62307 N 5777.89 -1.54171 0.326977 0
M  V30 62308 C 5778.8 -2.28151 -0.54627 0
M  V30 62309 C 5779.82 -1.32632 -1.12627 0
M  V30 62310 O 5780.99 -1.65651 -1.1455 0
M  V30 62311 C 5778.06 -3.02748 -1.68951 0
M  V30 62312 C 5777.12 -4.1386 -1.14098 0
M  V30 62313 C 5776.35 -4.8489 -2.22973 0
M  V30 62314 O 5776.58 -4.5546 -3.43383 0
M  V30 62315 O 5775.51 -5.71721 -1.882 0
M  V30 62316 H 5779.34 -3.03651 0.0546355 0
M  V30 62317 H 5776.92 -1.49113 0.0925552 0
M  V30 62318 H 5778.8 -3.49451 -2.35503 0
M  V30 62319 H 5777.48 -2.30121 -2.27654 0
M  V30 62320 H 5776.39 -3.71498 -0.440448 0
M  V30 62321 H 5777.72 -4.88541 -0.59904 0
M  V30 62322 N 5779.37 -0.0552232 -1.57503 0
M  V30 62323 C 5780.28 0.932884 -2.15254 0
M  V30 62324 C 5781.3 1.33881 -1.11139 0
M  V30 62325 O 5782.47 1.4149 -1.43326 0
M  V30 62326 C 5779.54 2.18798 -2.6894 0
M  V30 62327 C 5778.6 1.84002 -3.87868 0
M  V30 62328 C 5777.83 3.03528 -4.38984 0
M  V30 62329 O 5778.06 4.17027 -3.89159 0
M  V30 62330 O 5776.99 2.84306 -5.30522 0
M  V30 62331 H 5780.82 0.471711 -3.00014 0
M  V30 62332 H 5778.4 0.166908 -1.48465 0
M  V30 62333 H 5780.28 2.92428 -3.0342 0
M  V30 62334 H 5778.96 2.64045 -1.87249 0
M  V30 62335 H 5777.86 1.07675 -3.58269 0
M  V30 62336 H 5779.2 1.43551 -4.70801 0
M  V30 62337 N 5780.85 1.56082 0.218198 0
M  V30 62338 C 5782.1 1.78897 0.940233 0
M  V30 62339 C 5782.42 0.624315 1.84736 0
M  V30 62340 O 5781.69 -0.358618 1.9259 0
M  V30 62341 H 5780.27 0.659841 0.35017 0
M  V30 62342 H 5782.93 1.93547 0.229248 0
M  V30 62343 H 5782.03 2.71172 1.54506 0
M  V30 62344 N 5782.33 -0.485033 1.49951 0
M  V30 62345 C 5783.28 -1.60553 1.68302 0
M  V30 62346 C 5784.27 -1.60262 0.548859 0
M  V30 62347 O 5785.48 -1.64579 0.728963 0
M  V30 62348 H 5781.85 -0.53251 0.530977 0
M  V30 62349 H 5783.82 -1.42232 2.62321 0
M  V30 62350 C 5782.57 -2.9859 1.78155 0
M  V30 62351 H 5781.89 -2.99527 2.64809 0
M  V30 62352 H 5783.33 -3.76485 1.95025 0
M  V30 62353 C 5781.79 -3.32706 0.529944 0
M  V30 62354 O 5782.32 -4.00282 -0.337206 0
M  V30 62355 N 5780.53 -2.87997 0.388114 0
M  V30 62356 H 5780.08 -2.33178 1.09479 0
M  V30 62357 H 5780.03 -3.11189 -0.448197 0
M  V30 62358 N 5783.81 -1.39293 -0.73723 0
M  V30 62359 C 5785.05 -1.37602 -1.49791 0
M  V30 62360 C 5785.41 0.0288347 -1.92378 0
M  V30 62361 O 5784.7 0.994906 -1.63744 0
M  V30 62362 C 5784.89 -2.28053 -2.75185 0
M  V30 62363 C 5784.72 -3.77193 -2.44858 0
M  V30 62364 C 5783.49 -4.46132 -2.37265 0
M  V30 62365 C 5785.69 -4.69227 -2.10549 0
M  V30 62366 N 5783.67 -5.80619 -1.99385 0
M  V30 62367 C 5785.04 -5.92348 -1.83094 0
M  V30 62368 C 5787.1 -4.5727 -1.96998 0
M  V30 62369 C 5785.8 -7.0485 -1.43455 0
M  V30 62370 C 5787.83 -5.69692 -1.58761 0
M  V30 62371 C 5787.19 -6.91885 -1.32191 0
M  V30 62372 H 5783.29 -0.558796 -0.547057 0
M  V30 62373 H 5785.87 -1.74824 -0.857004 0
M  V30 62374 H 5784.04 -1.92992 -3.37059 0
M  V30 62375 H 5785.78 -2.1737 -3.41368 0
M  V30 62376 H 5782.53 -3.99544 -2.54286 0
M  V30 62377 H 5782.95 -6.51785 -1.83045 0
M  V30 62378 H 5787.6 -3.63336 -2.16209 0
M  V30 62379 H 5785.31 -7.98687 -1.22985 0
M  V30 62380 H 5788.9 -5.62427 -1.48886 0
M  V30 62381 H 5787.78 -7.774 -1.03046 0
M  V30 62382 N 5785.28 0.967178 -1.24432 0
M  V30 62383 C 5786.21 2.07962 -1.06179 0
M  V30 62384 C 5787.19 1.70081 0.0253969 0
M  V30 62385 O 5788.38 1.93682 -0.141774 0
M  V30 62386 C 5785.51 3.40847 -0.66637 0
M  V30 62387 C 5784.46 3.92686 -1.70239 0
M  V30 62388 C 5783.79 5.21921 -1.16201 0
M  V30 62389 C 5785.09 4.20468 -3.09846 0
M  V30 62390 H 5786.78 2.2349 -1.9923 0
M  V30 62391 H 5784.33 1.07394 -0.959293 0
M  V30 62392 H 5786.28 4.18108 -0.525667 0
M  V30 62393 H 5785.01 3.25221 0.299824 0
M  V30 62394 H 5783.67 3.17582 -1.83132 0
M  V30 62395 H 5783.31 5.02654 -0.186414 0
M  V30 62396 H 5783.01 5.57573 -1.85435 0
M  V30 62397 H 5784.54 6.01791 -1.03344 0
M  V30 62398 H 5785.95 4.88432 -3.00179 0
M  V30 62399 H 5784.35 4.67349 -3.76437 0
M  V30 62400 H 5785.42 3.27223 -3.57845 0
M  V30 62401 N 5786.76 1.05816 1.16794 0
M  V30 62402 C 5788.01 0.773132 1.87485 0
M  V30 62403 C 5788.34 -0.698408 1.81207 0
M  V30 62404 O 5787.62 -1.51125 1.2244 0
M  V30 62405 C 5787.9 1.26222 3.37254 0
M  V30 62406 C 5787.75 2.79716 3.52248 0
M  V30 62407 C 5789.07 0.866256 4.3149 0
M  V30 62408 H 5786.19 0.282328 0.680779 0
M  V30 62409 H 5788.83 1.31325 1.37309 0
M  V30 62410 H 5786.98 0.802742 3.80116 0
M  V30 62411 H 5788.65 3.33835 3.18358 0
M  V30 62412 H 5786.9 3.18684 2.94318 0
M  V30 62413 H 5787.57 3.09001 4.57408 0
M  V30 62414 H 5790.04 1.26192 3.96503 0
M  V30 62415 H 5788.92 1.236 5.34803 0
M  V30 62416 H 5789.18 -0.229236 4.41505 0
M  V30 62417 N 5788.24 -1.33344 0.84006 0
M  V30 62418 C 5789.19 -2.2919 0.272129 0
M  V30 62419 C 5790.16 -1.54385 -0.612732 0
M  V30 62420 O 5791.34 -1.82678 -0.550748 0
M  V30 62421 C 5788.48 -3.40757 -0.545781 0
M  V30 62422 C 5787.59 -4.3047 0.363235 0
M  V30 62423 C 5786.73 -5.29153 -0.465892 0
M  V30 62424 C 5785.77 -6.10506 0.44144 0
M  V30 62425 N 5784.91 -7.01229 -0.349631 0
M  V30 62426 H 5789.75 -2.77162 1.09477 0
M  V30 62427 H 5787.28 -1.36377 0.551332 0
M  V30 62428 H 5789.24 -4.04146 -1.03548 0
M  V30 62429 H 5787.87 -2.93974 -1.33338 0
M  V30 62430 H 5786.92 -3.67792 0.971248 0
M  V30 62431 H 5788.23 -4.87403 1.06019 0
M  V30 62432 H 5787.39 -5.98075 -1.01936 0
M  V30 62433 H 5786.13 -4.72801 -1.19628 0
M  V30 62434 H 5785.13 -5.40501 1.00691 0
M  V30 62435 H 5786.36 -6.68942 1.17021 0
M  V30 62436 H 5784.3 -6.47324 -1.06338 0
M  V30 62437 H 5784.22 -7.55449 0.288582 0
M  V30 62438 H 5785.49 -7.74456 -0.8853 0
M  V30 62439 N 5789.72 -0.596607 -1.45871 0
M  V30 62440 C 5791.13 -0.173823 -1.85889 0
M  V30 62441 C 5791.48 1.2666 -1.49839 0
M  V30 62442 O 5790.6 1.95877 -0.919842 0
M  V30 62443 C 5791.2 -0.308685 -3.37391 0
M  V30 62444 C 5789.76 0.0593261 -3.76353 0
M  V30 62445 C 5788.91 -0.638222 -2.69856 0
M  V30 62446 H 5791.86 -0.803976 -1.36828 0
M  V30 62447 H 5791.88 0.462161 -3.77683 0
M  V30 62448 H 5791.39 -1.35714 -3.63598 0
M  V30 62449 H 5789.49 1.10738 -3.55764 0
M  V30 62450 H 5789.6 -0.326674 -4.77985 0
M  V30 62451 H 5787.97 -0.0770042 -2.54584 0
M  V30 62452 H 5788.75 -1.68859 -2.989 0
M  V30 62453 N 5791.2 1.53995 -0.335149 0
M  V30 62454 C 5792.47 1.92985 0.31878 0
M  V30 62455 C 5792.85 1.26591 1.68932 0
M  V30 62456 O 5792.2 0.413781 2.24722 0
M  V30 62457 C 5792.41 3.46707 0.399446 0
M  V30 62458 C 5793.76 4.19529 0.654264 0
M  V30 62459 O 5794.78 3.52925 0.481902 0
M  V30 62460 O 5793.64 5.37503 0.987567 0
M  V30 62461 H 5790.74 0.806209 0.184272 0
M  V30 62462 H 5793.28 1.65258 -0.385712 0
M  V30 62463 H 5792.05 3.87233 -0.562666 0
M  V30 62464 H 5791.68 3.80574 1.15106 0
M  V30 62465 N 5792.67 0.0635752 1.57472 0
M  V30 62466 C 5794.09 -0.293029 1.56887 0
M  V30 62467 C 5794.29 -1.70599 1.0723 0
M  V30 62468 O 5793.35 -2.41582 0.734473 0
M  V30 62469 C 5794.66 -0.11018 3.00498 0
M  V30 62470 C 5796.21 -0.180343 3.1248 0
M  V30 62471 C 5796.68 -0.0258744 4.57993 0
M  V30 62472 N 5798.17 -0.0817481 4.63128 0
M  V30 62473 C 5798.91 0.013478 5.73398 0
M  V30 62474 N 5798.4 0.161758 6.92611 0
M  V30 62475 N 5800.2 -0.0429972 5.62084 0
M  V30 62476 H 5792.35 0.987126 1.88068 0
M  V30 62477 H 5794.61 0.384262 0.866629 0
M  V30 62478 H 5794.32 0.864498 3.4091 0
M  V30 62479 H 5794.19 -0.865988 3.67125 0
M  V30 62480 H 5796.58 -1.1455 2.7196 0
M  V30 62481 H 5796.66 0.606429 2.48508 0
M  V30 62482 H 5796.3 0.936014 4.99201 0
M  V30 62483 H 5796.23 -0.831948 5.19987 0
M  V30 62484 H 5798.72 -0.195097 3.77396 0
M  V30 62485 H 5799.04 0.226788 7.72467 0
M  V30 62486 H 5797.38 0.19701 6.94721 0
M  V30 62487 H 5800.57 -0.157483 4.67835 0
M  V30 62488 H 5800.75 0.0346713 6.47991 0
M  V30 62489 N 5794.15 -1.56196 -0.209917 0
M  V30 62490 C 5795.08 -1.96383 -1.26317 0
M  V30 62491 C 5796.06 -0.833658 -1.48271 0
M  V30 62492 O 5797.25 -1.09686 -1.60258 0
M  V30 62493 C 5794.38 -2.29057 -2.61056 0
M  V30 62494 C 5793.33 -3.44674 -2.5374 0
M  V30 62495 C 5792.66 -3.62984 -3.92615 0
M  V30 62496 C 5793.96 -4.79305 -2.0752 0
M  V30 62497 H 5795.65 -2.84613 -0.929279 0
M  V30 62498 H 5793.2 -1.36933 -0.445579 0
M  V30 62499 H 5795.15 -2.55764 -3.34907 0
M  V30 62500 H 5793.88 -1.37693 -2.96156 0
M  V30 62501 H 5792.53 -3.18034 -1.82345 0
M  V30 62502 H 5792.18 -2.68976 -4.25043 0
M  V30 62503 H 5791.88 -4.40755 -3.88599 0
M  V30 62504 H 5793.41 -3.92052 -4.68111 0
M  V30 62505 H 5794.82 -5.0514 -2.71121 0
M  V30 62506 H 5793.22 -5.60441 -2.14538 0
M  V30 62507 H 5794.29 -4.73881 -1.02786 0
M  V30 62508 N 5795.63 0.477074 -1.50206 0
M  V30 62509 C 5796.88 1.22633 -1.60137 0
M  V30 62510 C 5797.19 1.93217 -0.304401 0
M  V30 62511 O 5798.4 2.70026 -0.282552 0
M  V30 62512 C 5796.85 2.22797 -2.82647 0
M  V30 62513 C 5796.46 1.58044 -4.19197 0
M  V30 62514 C 5798.21 2.98402 -3.01921 0
M  V30 62515 C 5796.11 2.56459 -5.329 0
M  V30 62516 H 5795.04 0.461418 -0.59633 0
M  V30 62517 H 5797.69 0.497471 -1.76628 0
M  V30 62518 H 5796.08 2.9895 -2.59702 0
M  V30 62519 H 5797.25 0.877215 -4.52373 0
M  V30 62520 H 5795.57 0.94742 -4.05479 0
M  V30 62521 H 5798.16 3.72046 -3.84039 0
M  V30 62522 H 5798.51 3.57436 -2.13413 0
M  V30 62523 H 5799.04 2.29364 -3.25019 0
M  V30 62524 H 5795.78 2.02173 -6.23544 0
M  V30 62525 H 5795.3 3.24951 -5.04149 0
M  V30 62526 H 5796.98 3.18409 -5.63227 0
M  V30 62527 N 5797.11 1.39683 0.729833 0
M  V30 62528 C 5798.33 1.40659 1.52413 0
M  V30 62529 C 5798.76 0.0043561 1.88099 0
M  V30 62530 O 5798.12 -0.98397 1.52275 0
M  V30 62531 C 5798.16 2.29067 2.78497 0
M  V30 62532 O 5797.27 1.72411 3.74631 0
M  V30 62533 H 5796.61 0.478777 0.460075 0
M  V30 62534 H 5799.14 1.83741 0.900023 0
M  V30 62535 H 5799.15 2.43759 3.27178 0
M  V30 62536 H 5797.82 3.3097 2.51856 0
M  V30 62537 H 5796.4 1.66989 3.3342 0
M  V30 62538 N 5798.59 -0.960565 1.24944 0
M  V30 62539 C 5799.81 -1.74457 1.12159 0
M  V30 62540 C 5800.24 -1.85336 -0.321249 0
M  V30 62541 O 5799.59 -1.32948 -1.23266 0
M  V30 62542 C 5799.64 -3.13939 1.77411 0
M  V30 62543 O 5798.75 -3.98816 1.04972 0
M  V30 62544 H 5798.09 -0.535993 0.391928 0
M  V30 62545 H 5800.62 -1.20444 1.65392 0
M  V30 62546 H 5800.63 -3.64428 1.83457 0
M  V30 62547 H 5799.3 -3.05336 2.82388 0
M  V30 62548 H 5797.88 -3.57289 1.06765 0
M  V30 62549 N 5800.06 -1.06434 -1.16231 0
M  V30 62550 C 5801.01 -0.676388 -2.20666 0
M  V30 62551 C 5801.98 0.327664 -1.62836 0
M  V30 62552 O 5803.17 0.216229 -1.89571 0
M  V30 62553 C 5800.31 -0.0704938 -3.45028 0
M  V30 62554 C 5799.42 -1.12489 -4.17097 0
M  V30 62555 C 5798.55 -0.484992 -5.28981 0
M  V30 62556 C 5797.59 -1.52283 -5.92854 0
M  V30 62557 N 5796.73 -0.906183 -6.96228 0
M  V30 62558 H 5801.57 -1.57138 -2.53203 0
M  V30 62559 H 5799.11 -0.785643 -1.24363 0
M  V30 62560 H 5801.07 0.298341 -4.16132 0
M  V30 62561 H 5799.7 0.787892 -3.13037 0
M  V30 62562 H 5798.75 -1.61142 -3.44583 0
M  V30 62563 H 5800.06 -1.91219 -4.60692 0
M  V30 62564 H 5799.21 -0.0632686 -6.06667 0
M  V30 62565 H 5797.95 0.334161 -4.86554 0
M  V30 62566 H 5796.96 -1.95443 -5.13889 0
M  V30 62567 H 5798.18 -2.3441 -6.37361 0
M  V30 62568 H 5796.13 -0.107766 -6.55911 0
M  V30 62569 H 5796.05 -1.63084 -7.382 0
M  V30 62570 H 5797.31 -0.509651 -7.77832 0
M  V30 62571 N 5801.54 1.32897 -0.84712 0
M  V30 62572 C 5802.77 2.01709 -0.460568 0
M  V30 62573 C 5803.19 1.63702 0.940591 0
M  V30 62574 O 5802.54 0.854511 1.61259 0
M  V30 62575 C 5802.59 3.56797 -0.581234 0
M  V30 62576 O 5802.31 3.93435 -1.92719 0
M  V30 62577 C 5803.82 4.42881 -0.192707 0
M  V30 62578 H 5801.04 0.645881 -0.181875 0
M  V30 62579 H 5803.58 1.69644 -1.14198 0
M  V30 62580 H 5801.73 3.87365 0.0523562 0
M  V30 62581 H 5802.15 4.8815 -1.91858 0
M  V30 62582 H 5803.62 5.51024 -0.328163 0
M  V30 62583 H 5804.1 4.30574 0.866163 0
M  V30 62584 H 5804.71 4.17688 -0.801065 0
M  V30 62585 N 5803.02 0.604335 1.45553 0
M  V30 62586 C 5804.27 0.0980631 2.01862 0
M  V30 62587 C 5804.59 -1.27471 1.47568 0
M  V30 62588 O 5803.86 -1.84135 0.668676 0
M  V30 62589 H 5802.44 0.0332612 0.746259 0
M  V30 62590 H 5805.1 0.784999 1.78392 0
M  V30 62591 H 5804.2 0.0453813 3.12067 0
M  V30 62592 N 5804.5 -1.53815 0.343311 0
M  V30 62593 C 5805.45 -2.21765 -0.529557 0
M  V30 62594 C 5806.43 -1.20497 -1.06627 0
M  V30 62595 O 5807.62 -1.46044 -1.00001 0
M  V30 62596 C 5804.75 -2.99378 -1.68011 0
M  V30 62597 C 5803.84 -4.08003 -1.15735 0
M  V30 62598 N 5804.23 -5.04547 -0.355802 0
M  V30 62599 C 5802.53 -4.22309 -1.43427 0
M  V30 62600 C 5803.23 -5.81655 -0.0721436 0
M  V30 62601 N 5802.21 -5.39533 -0.66372 0
M  V30 62602 H 5806.01 -2.93762 0.089912 0
M  V30 62603 H 5803.52 -1.61704 0.150164 0
M  V30 62604 H 5805.52 -3.46558 -2.3174 0
M  V30 62605 H 5804.18 -2.28907 -2.30286 0
M  V30 62606 H 5805.19 -5.179 0.00309434 0
M  V30 62607 H 5801.87 -3.63058 -2.06143 0
M  V30 62608 H 5803.26 -6.6944 0.574427 0
M  V30 62609 N 5805.98 -0.0719254 -1.57436 0
M  V30 62610 C 5806.91 0.892804 -2.15757 0
M  V30 62611 C 5807.89 1.31032 -1.08465 0
M  V30 62612 O 5809.07 1.38134 -1.36501 0
M  V30 62613 C 5806.2 2.16035 -2.71931 0
M  V30 62614 C 5805.16 1.88223 -3.84391 0
M  V30 62615 C 5804.48 3.21609 -4.27167 0
M  V30 62616 C 5805.78 1.1874 -5.08624 0
M  V30 62617 H 5807.48 0.406957 -2.96621 0
M  V30 62618 H 5805.02 0.194304 -1.42683 0
M  V30 62619 H 5806.98 2.83941 -3.11376 0
M  V30 62620 H 5805.7 2.66862 -1.88288 0
M  V30 62621 H 5804.36 1.22722 -3.45449 0
M  V30 62622 H 5804.01 3.70277 -3.40446 0
M  V30 62623 H 5803.71 3.03791 -5.02976 0
M  V30 62624 H 5805.23 3.90713 -4.69229 0
M  V30 62625 H 5806.64 1.76716 -5.45385 0
M  V30 62626 H 5805.04 1.1118 -5.89711 0
M  V30 62627 H 5806.11 0.166512 -4.84614 0
M  V30 62628 N 5807.45 1.56305 0.201631 0
M  V30 62629 C 5808.68 1.84077 0.938038 0
M  V30 62630 C 5809.09 0.651439 1.77631 0
M  V30 62631 O 5808.44 -0.389215 1.79529 0
M  V30 62632 C 5808.5 3.05863 1.88913 0
M  V30 62633 C 5808.16 4.4004 1.23345 0
M  V30 62634 C 5809.16 5.16267 0.613556 0
M  V30 62635 C 5806.84 4.86773 1.23925 0
M  V30 62636 C 5808.84 6.37399 0.00822161 0
M  V30 62637 C 5806.52 6.07843 0.630083 0
M  V30 62638 C 5807.52 6.82998 0.0156398 0
M  V30 62639 O 5807.21 8.01776 -0.584002 0
M  V30 62640 H 5806.94 0.615502 0.279523 0
M  V30 62641 H 5809.5 2.04263 0.215866 0
M  V30 62642 H 5807.73 2.81546 2.65083 0
M  V30 62643 H 5809.42 3.20337 2.49278 0
M  V30 62644 H 5810.18 4.81259 0.601255 0
M  V30 62645 H 5806.06 4.28236 1.7069 0
M  V30 62646 H 5809.6 6.96001 -0.471985 0
M  V30 62647 H 5805.5 6.42321 0.639864 0
M  V30 62648 H 5806.27 8.1709 -0.480266 0
M  V30 62649 N 5808.93 -0.469102 1.50457 0
M  V30 62650 C 5810.18 -1.21782 1.60785 0
M  V30 62651 C 5810.5 -1.93053 0.314644 0
M  V30 62652 O 5811.7 -2.69872 0.296868 0
M  V30 62653 C 5810.16 -2.21295 2.83825 0
M  V30 62654 C 5809.77 -1.55819 4.20029 0
M  V30 62655 C 5811.51 -2.96797 3.03499 0
M  V30 62656 C 5809.42 -2.53629 5.34253 0
M  V30 62657 H 5808.35 -0.458249 0.598769 0
M  V30 62658 H 5811 -0.488097 1.76889 0
M  V30 62659 H 5809.38 -2.97568 2.61284 0
M  V30 62660 H 5810.55 -0.853212 4.52832 0
M  V30 62661 H 5808.87 -0.925904 4.05975 0
M  V30 62662 H 5811.47 -3.70004 3.86007 0
M  V30 62663 H 5811.81 -3.56299 2.15306 0
M  V30 62664 H 5812.34 -2.27637 3.26231 0
M  V30 62665 H 5809.08 -1.98863 6.24607 0
M  V30 62666 H 5808.6 -3.22273 5.05866 0
M  V30 62667 H 5810.28 -3.15418 5.64908 0
M  V30 62668 N 5810.41 -1.40068 -0.722415 0
M  V30 62669 C 5811.82 -1.33881 -1.30126 0
M  V30 62670 C 5812.17 -0.00906267 -1.96198 0
M  V30 62671 O 5811.3 0.893013 -1.97115 0
M  V30 62672 C 5811.89 -2.42478 -2.36622 0
M  V30 62673 C 5810.45 -2.39772 -2.90149 0
M  V30 62674 C 5809.6 -2.2371 -1.63857 0
M  V30 62675 H 5812.55 -1.49973 -0.519024 0
M  V30 62676 H 5812.57 -2.09991 -3.17307 0
M  V30 62677 H 5812.08 -3.39246 -1.88505 0
M  V30 62678 H 5810.18 -1.46681 -3.42513 0
M  V30 62679 H 5810.3 -3.35104 -3.42407 0
M  V30 62680 H 5808.66 -1.71104 -1.88668 0
M  V30 62681 H 5809.44 -3.22466 -1.17774 0
M  V30 62682 N 5811.89 0.953925 -1.25451 0
M  V30 62683 C 5813.17 1.67498 -1.01013 0
M  V30 62684 C 5813.55 2.05951 0.463411 0
M  V30 62685 O 5812.89 1.77341 1.44092 0
M  V30 62686 C 5813.1 2.89673 -1.94656 0
M  V30 62687 C 5814.45 3.6161 -2.22539 0
M  V30 62688 O 5815.48 2.99755 -1.92419 0
M  V30 62689 O 5814.34 4.72988 -2.73759 0
M  V30 62690 H 5811.43 0.732904 -0.38312 0
M  V30 62691 H 5813.98 1.00679 -1.36608 0
M  V30 62692 H 5812.75 2.58053 -2.9415 0
M  V30 62693 H 5812.37 3.64222 -1.59462 0
M  V30 62694 N 5813.37 1.07049 1.15665 0
M  V30 62695 C 5814.31 0.688081 2.20305 0
M  V30 62696 C 5815.28 -0.319024 1.63008 0
M  V30 62697 O 5816.47 -0.206172 1.89683 0
M  V30 62698 C 5813.61 0.0887905 3.44986 0
M  V30 62699 C 5812.72 1.147 4.16495 0
M  V30 62700 C 5811.86 0.513038 5.28717 0
M  V30 62701 C 5810.9 1.55425 5.92038 0
M  V30 62702 N 5810.03 0.943092 6.95737 0
M  V30 62703 H 5814.87 1.58478 2.52366 0
M  V30 62704 H 5812.41 0.792227 1.23944 0
M  V30 62705 H 5814.37 -0.276269 4.16284 0
M  V30 62706 H 5813 -0.77128 3.1345 0
M  V30 62707 H 5812.05 1.62967 3.43724 0
M  V30 62708 H 5813.36 1.93659 4.59671 0
M  V30 62709 H 5812.52 0.0954407 6.06625 0
M  V30 62710 H 5811.26 -0.308353 4.86724 0
M  V30 62711 H 5810.26 1.98166 5.12845 0
M  V30 62712 H 5811.49 2.37787 6.36109 0
M  V30 62713 H 5809.43 0.142549 6.55845 0
M  V30 62714 H 5809.35 1.66996 7.37325 0
M  V30 62715 H 5810.62 0.550894 7.77551 0
M  V30 62716 N 5814.85 -1.32446 0.854156 0
M  V30 62717 C 5816.09 -1.96879 0.456389 0
M  V30 62718 C 5816.41 -1.6793 -0.991189 0
M  V30 62719 O 5815.68 -0.986254 -1.69263 0
M  V30 62720 H 5814.26 -0.728373 0.165778 0
M  V30 62721 H 5816.93 -1.61538 1.09047 0
M  V30 62722 H 5816.02 -3.06258 0.601034 0
M  V30 62723 N 5816.32 -0.612045 -1.4523 0
M  V30 62724 C 5817.57 -0.108982 -2.02207 0
M  V30 62725 C 5817.9 1.26214 -1.47988 0
M  V30 62726 O 5817.15 1.84715 -0.646433 0
M  V30 62727 C 5817.45 -0.0244618 -3.57392 0
M  V30 62728 C 5817.12 -1.33183 -4.30782 0
M  V30 62729 C 5815.78 -1.68994 -4.50549 0
M  V30 62730 C 5818.13 -2.19566 -4.72695 0
M  V30 62731 C 5815.46 -2.90931 -5.09486 0
M  V30 62732 C 5817.81 -3.40756 -5.32981 0
M  V30 62733 C 5816.48 -3.76813 -5.5097 0
M  V30 62734 H 5815.75 -0.0398794 -0.739926 0
M  V30 62735 H 5818.39 -0.794554 -1.74239 0
M  V30 62736 H 5816.7 0.744395 -3.84663 0
M  V30 62737 H 5818.4 0.380998 -3.99186 0
M  V30 62738 H 5814.99 -1.04311 -4.15713 0
M  V30 62739 H 5819.17 -1.93197 -4.57153 0
M  V30 62740 H 5814.43 -3.18968 -5.21602 0
M  V30 62741 H 5818.6 -4.07938 -5.6441 0
M  V30 62742 H 5816.23 -4.71385 -5.96406 0
M  V30 62743 N 5817.8 1.53631 -0.351463 0
M  V30 62744 C 5819.03 2.05459 0.24378 0
M  V30 62745 C 5819.44 1.22593 1.43584 0
M  V30 62746 O 5818.8 0.263152 1.80593 0
M  V30 62747 C 5818.85 3.55588 0.651101 0
M  V30 62748 O 5818.57 4.35311 -0.493568 0
M  V30 62749 C 5820.07 4.23618 1.30623 0
M  V30 62750 H 5817.29 0.669445 0.0456593 0
M  V30 62751 H 5819.84 1.98148 -0.505744 0
M  V30 62752 H 5817.99 3.63096 1.35056 0
M  V30 62753 H 5818.41 5.24233 -0.167291 0
M  V30 62754 H 5819.88 5.30027 1.54192 0
M  V30 62755 H 5820.36 3.76457 2.26222 0
M  V30 62756 H 5820.96 4.20325 0.64859 0
M  V30 62757 N 5819.28 0.0802736 1.57395 0
M  V30 62758 C 5820.21 -0.88135 2.16228 0
M  V30 62759 C 5821.19 -1.30455 1.09158 0
M  V30 62760 O 5822.38 -1.37409 1.37232 0
M  V30 62761 C 5819.51 -2.1459 2.73073 0
M  V30 62762 C 5818.46 -1.86182 3.85383 0
M  V30 62763 C 5817.79 -3.19339 4.28867 0
M  V30 62764 C 5819.09 -1.16041 5.09246 0
M  V30 62765 H 5820.78 -0.391221 2.96833 0
M  V30 62766 H 5818.33 -0.186734 1.42784 0
M  V30 62767 H 5820.28 -2.82286 3.12878 0
M  V30 62768 H 5819 -2.65859 1.89701 0
M  V30 62769 H 5817.66 -1.20888 3.46095 0
M  V30 62770 H 5817.31 -3.68467 3.42405 0
M  V30 62771 H 5817.01 -3.01119 5.0458 0
M  V30 62772 H 5818.53 -3.88219 4.71295 0
M  V30 62773 H 5819.95 -1.73821 5.46314 0
M  V30 62774 H 5818.34 -1.08051 5.90292 0
M  V30 62775 H 5819.41 -0.140809 4.84696 0
M  V30 62776 N 5820.76 -1.5641 -0.193339 0
M  V30 62777 C 5821.69 -1.91215 -1.2637 0
M  V30 62778 C 5822.7 -0.802994 -1.41619 0
M  V30 62779 O 5823.89 -1.08141 -1.42013 0
M  V30 62780 C 5820.99 -2.13048 -2.6356 0
M  V30 62781 C 5820.16 -3.44201 -2.69897 0
M  V30 62782 C 5819.22 -3.55125 -3.88295 0
M  V30 62783 O 5818.25 -4.27933 -3.75316 0
M  V30 62784 N 5819.45 -2.88343 -5.03824 0
M  V30 62785 H 5822.22 -2.83627 -0.968283 0
M  V30 62786 H 5819.78 -1.57299 -0.383247 0
M  V30 62787 H 5821.77 -2.17642 -3.41195 0
M  V30 62788 H 5820.34 -1.27126 -2.85583 0
M  V30 62789 H 5819.56 -3.51459 -1.78523 0
M  V30 62790 H 5820.85 -4.30546 -2.71123 0
M  V30 62791 H 5820.25 -2.29021 -5.17268 0
M  V30 62792 H 5818.8 -2.98562 -5.79399 0
M  V30 62793 N 5822.24 0.461116 -1.50703 0
M  V30 62794 C 5823.48 1.21006 -1.6187 0
M  V30 62795 C 5823.8 1.92259 -0.325804 0
M  V30 62796 O 5823.07 1.84546 0.657241 0
M  V30 62797 H 5821.65 0.44965 -0.596509 0
M  V30 62798 H 5824.32 0.53099 -1.87527 0
M  V30 62799 H 5823.41 1.95257 -2.43477 0
M  V30 62800 N 5823.71 1.40449 0.714977 0
M  V30 62801 C 5824.66 1.40763 1.82906 0
M  V30 62802 C 5825.63 0.2645 1.63981 0
M  V30 62803 O 5826.82 0.462654 1.85106 0
M  V30 62804 C 5823.96 1.27659 3.2062 0
M  V30 62805 C 5823.07 2.51683 3.51112 0
M  V30 62806 C 5822.2 2.31017 4.78335 0
M  V30 62807 C 5821.24 3.50613 5.01734 0
M  V30 62808 N 5820.38 3.29139 6.20171 0
M  V30 62809 H 5825.22 2.35988 1.81972 0
M  V30 62810 H 5822.76 1.17204 0.88891 0
M  V30 62811 H 5824.72 1.18068 4.00145 0
M  V30 62812 H 5823.35 0.360532 3.2078 0
M  V30 62813 H 5822.4 2.71799 2.66138 0
M  V30 62814 H 5823.71 3.40702 3.64312 0
M  V30 62815 H 5822.86 2.18782 5.65879 0
M  V30 62816 H 5821.6 1.39423 4.67346 0
M  V30 62817 H 5820.61 3.63324 4.12645 0
M  V30 62818 H 5821.83 4.43135 5.14595 0
M  V30 62819 H 5819.78 2.40227 6.10432 0
M  V30 62820 H 5819.7 4.11724 6.3405 0
M  V30 62821 H 5820.96 3.20639 7.10501 0
M  V30 62822 N 5825.19 -0.947259 1.25955 0
M  V30 62823 C 5826.14 -2.03073 1.0366 0
M  V30 62824 C 5827.13 -1.60874 -0.0289947 0
M  V30 62825 O 5828.32 -1.76007 0.187231 0
M  V30 62826 C 5825.45 -3.36795 0.665129 0
M  V30 62827 C 5824.53 -3.85496 1.76787 0
M  V30 62828 N 5824.92 -4.06911 3.00428 0
M  V30 62829 C 5823.22 -4.14353 1.65007 0
M  V30 62830 C 5823.92 -4.47157 3.72056 0
M  V30 62831 N 5822.9 -4.53512 2.99713 0
M  V30 62832 H 5826.7 -2.17634 1.97517 0
M  V30 62833 H 5824.22 -1.13264 1.16383 0
M  V30 62834 H 5826.21 -4.14051 0.486573 0
M  V30 62835 H 5824.87 -3.23608 -0.266025 0
M  V30 62836 H 5825.88 -3.93774 3.36397 0
M  V30 62837 H 5822.56 -4.09988 0.788399 0
M  V30 62838 H 5823.95 -4.71968 4.78221 0
M  V30 62839 N 5826.67 -1.07661 -1.15095 0
M  V30 62840 C 5827.9 -0.821698 -1.89557 0
M  V30 62841 C 5828.31 0.629111 -1.78434 0
M  V30 62842 O 5827.65 1.44349 -1.13618 0
M  V30 62843 C 5827.71 -1.15485 -3.40446 0
M  V30 62844 C 5827.38 -2.60689 -3.75354 0
M  V30 62845 C 5828.37 -3.58936 -3.76113 0
M  V30 62846 C 5826.06 -2.96347 -4.05566 0
M  V30 62847 C 5828.05 -4.90877 -4.06594 0
M  V30 62848 C 5825.74 -4.28484 -4.35712 0
M  V30 62849 C 5826.74 -5.25559 -4.36208 0
M  V30 62850 O 5826.43 -6.55321 -4.65628 0
M  V30 62851 H 5826.16 -0.29649 -0.607511 0
M  V30 62852 H 5828.71 -1.43727 -1.46737 0
M  V30 62853 H 5826.94 -0.482252 -3.83681 0
M  V30 62854 H 5828.63 -0.881971 -3.96202 0
M  V30 62855 H 5829.4 -3.3273 -3.52868 0
M  V30 62856 H 5825.28 -2.21434 -4.04337 0
M  V30 62857 H 5828.82 -5.6664 -4.06896 0
M  V30 62858 H 5824.72 -4.54442 -4.58425 0
M  V30 62859 H 5825.49 -6.6052 -4.83379 0
M  V30 62860 N 5828.15 1.31991 -0.861168 0
M  V30 62861 C 5829.06 2.32494 -0.313636 0
M  V30 62862 C 5830.07 1.64333 0.571908 0
M  V30 62863 O 5831.25 1.95822 0.470725 0
M  V30 62864 C 5828.32 3.43312 0.483482 0
M  V30 62865 C 5827.38 4.27151 -0.428975 0
M  V30 62866 C 5826.61 5.32678 0.330195 0
M  V30 62867 O 5826.83 5.48671 1.55938 0
M  V30 62868 O 5825.77 6.01115 -0.307385 0
M  V30 62869 H 5829.59 2.8123 -1.14646 0
M  V30 62870 H 5827.18 1.35731 -0.624287 0
M  V30 62871 H 5829.06 4.10881 0.935687 0
M  V30 62872 H 5827.73 2.96755 1.293 0
M  V30 62873 H 5826.64 3.62369 -0.929494 0
M  V30 62874 H 5827.97 4.77251 -1.20385 0
M  V30 62875 N 5829.63 0.619739 1.44903 0
M  V30 62876 C 5830.56 -0.130235 2.2883 0
M  V30 62877 C 5831.57 -0.81999 1.40641 0
M  V30 62878 O 5832.76 -0.683343 1.64902 0
M  V30 62879 C 5829.86 -1.20607 3.16713 0
M  V30 62880 C 5829.03 -0.601058 4.33251 0
M  V30 62881 C 5828.09 -1.56936 5.02252 0
M  V30 62882 O 5827.12 -1.09092 5.58648 0
M  V30 62883 N 5828.32 -2.90377 5.02654 0
M  V30 62884 H 5831.09 0.58997 2.93836 0
M  V30 62885 H 5828.65 0.460082 1.55225 0
M  V30 62886 H 5830.64 -1.85392 3.59739 0
M  V30 62887 H 5829.21 -1.82864 2.53534 0
M  V30 62888 H 5828.43 0.225154 3.93556 0
M  V30 62889 H 5829.72 -0.177293 5.08491 0
M  V30 62890 H 5829.11 -3.31839 4.58148 0
M  V30 62891 H 5827.67 -3.50553 5.49505 0
M  V30 62892 N 5831.1 -1.53442 0.359606 0
M  V30 62893 C 5832.03 -2.28477 -0.481719 0
M  V30 62894 C 5833.02 -1.30668 -1.08903 0
M  V30 62895 O 5834.2 -1.59531 -1.1074 0
M  V30 62896 C 5831.33 -3.06956 -1.62466 0
M  V30 62897 C 5830.28 -4.12403 -1.14489 0
M  V30 62898 C 5829.61 -4.7893 -2.3776 0
M  V30 62899 C 5830.91 -5.21776 -0.233891 0
M  V30 62900 H 5832.6 -2.99052 0.144267 0
M  V30 62901 H 5830.15 -1.43826 0.0708252 0
M  V30 62902 H 5832.1 -3.58193 -2.21981 0
M  V30 62903 H 5830.83 -2.34061 -2.27779 0
M  V30 62904 H 5829.49 -3.62103 -0.572462 0
M  V30 62905 H 5829.13 -4.02613 -3.01516 0
M  V30 62906 H 5828.83 -5.50182 -2.06334 0
M  V30 62907 H 5830.36 -5.32959 -2.97972 0
M  V30 62908 H 5831.77 -5.68552 -0.736348 0
M  V30 62909 H 5830.17 -6.00099 -0.0107777 0
M  V30 62910 H 5831.24 -4.7944 0.725604 0
M  V30 62911 N 5832.58 -0.0886195 -1.57351 0
M  V30 62912 C 5833.51 0.902543 -2.10682 0
M  V30 62913 C 5834.53 1.25033 -1.04262 0
M  V30 62914 O 5835.72 1.20458 -1.31728 0
M  V30 62915 C 5832.82 2.21353 -2.56624 0
M  V30 62916 C 5831.99 2.04206 -3.86806 0
M  V30 62917 C 5831.05 3.18759 -4.18664 0
M  V30 62918 O 5830.07 2.93007 -4.87991 0
M  V30 62919 N 5831.28 4.44343 -3.73549 0
M  V30 62920 H 5834.04 0.447095 -2.96346 0
M  V30 62921 H 5831.6 0.096661 -1.61611 0
M  V30 62922 H 5833.59 2.96925 -2.74986 0
M  V30 62923 H 5832.16 2.58342 -1.76006 0
M  V30 62924 H 5831.38 1.13002 -3.77656 0
M  V30 62925 H 5832.67 1.90018 -4.71986 0
M  V30 62926 H 5832.07 4.68148 -3.17575 0
M  V30 62927 H 5830.63 5.16886 -3.97079 0
M  V30 62928 N 5834.06 1.5651 0.185041 0
M  V30 62929 C 5834.99 1.98368 1.23177 0
M  V30 62930 C 5835.97 0.857141 1.46925 0
M  V30 62931 O 5837.16 1.12222 1.58493 0
M  V30 62932 C 5834.29 2.33182 2.57378 0
M  V30 62933 C 5833.24 3.48667 2.48224 0
M  V30 62934 C 5832.57 3.69184 3.86791 0
M  V30 62935 C 5833.87 4.82545 1.99868 0
M  V30 62936 H 5835.56 2.86056 0.883882 0
M  V30 62937 H 5833.11 1.37624 0.423737 0
M  V30 62938 H 5835.06 2.6106 3.30796 0
M  V30 62939 H 5833.78 1.42387 2.93928 0
M  V30 62940 H 5832.44 3.20895 1.77262 0
M  V30 62941 H 5832.09 2.75704 4.2071 0
M  V30 62942 H 5831.79 4.46881 3.81537 0
M  V30 62943 H 5833.31 3.99449 4.61815 0
M  V30 62944 H 5834.73 5.09389 2.6305 0
M  V30 62945 H 5833.13 5.63783 2.05594 0
M  V30 62946 H 5834.2 4.75456 0.952335 0
M  V30 62947 N 5835.54 -0.453117 1.50946 0
M  V30 62948 C 5836.95 -0.788344 1.38771 0
M  V30 62949 C 5837.15 -1.96232 0.457745 0
M  V30 62950 O 5836.21 -2.52329 -0.0929764 0
M  V30 62951 C 5837.52 -1.08353 2.805 0
M  V30 62952 C 5839.07 -1.18891 2.89541 0
M  V30 62953 C 5839.55 -1.51712 4.32143 0
M  V30 62954 N 5841.04 -1.58668 4.35177 0
M  V30 62955 C 5841.77 -1.85604 5.4253 0
M  V30 62956 N 5841.27 -2.10439 6.60066 0
M  V30 62957 N 5843.06 -1.87255 5.29992 0
M  V30 62958 H 5835.21 0.32029 2.09971 0
M  V30 62959 H 5837.48 0.0808353 0.944547 0
M  V30 62960 H 5837.18 -0.293773 3.50471 0
M  V30 62961 H 5837.06 -2.01521 3.18856 0
M  V30 62962 H 5839.44 -1.96931 2.19778 0
M  V30 62963 H 5839.52 -0.236601 2.54703 0
M  V30 62964 H 5839.17 -0.742053 5.0245 0
M  V30 62965 H 5839.1 -2.48123 4.64481 0
M  V30 62966 H 5841.59 -1.41443 3.50432 0
M  V30 62967 H 5841.9 -2.30317 7.37682 0
M  V30 62968 H 5840.25 -2.07793 6.6321 0
M  V30 62969 H 5843.44 -1.67362 4.37158 0
M  V30 62970 H 5843.61 -2.07911 6.1374 0
M  V30 62971 N 5837.02 -1.40826 -0.707518 0
M  V30 62972 C 5838.24 -1.42871 -1.49651 0
M  V30 62973 C 5838.66 -0.0306327 -1.88775 0
M  V30 62974 O 5838.02 0.947321 -1.55987 0
M  V30 62975 C 5838.07 -2.32671 -2.76671 0
M  V30 62976 O 5837.79 -3.67036 -2.39198 0
M  V30 62977 C 5839.29 -2.43393 -3.70506 0
M  V30 62978 H 5836.51 -0.487025 -0.461571 0
M  V30 62979 H 5839.05 -1.84972 -0.872102 0
M  V30 62980 H 5837.21 -1.9391 -3.35377 0
M  V30 62981 H 5837.62 -4.1481 -3.20987 0
M  V30 62982 H 5839.1 -3.10417 -4.56448 0
M  V30 62983 H 5839.57 -1.46147 -4.14171 0
M  V30 62984 H 5840.18 -2.82739 -3.17708 0
M  V30 62985 N 5838.5 0.940566 -1.26456 0
M  V30 62986 C 5839.41 2.07295 -1.09846 0
M  V30 62987 C 5840.42 1.73971 -0.0318089 0
M  V30 62988 O 5841.6 2.00016 -0.235665 0
M  V30 62989 C 5838.66 3.38844 -0.733855 0
M  V30 62990 C 5837.72 3.85947 -1.87998 0
M  V30 62991 C 5836.96 5.11219 -1.53268 0
M  V30 62992 O 5837.18 5.68741 -0.434691 0
M  V30 62993 O 5836.11 5.53378 -2.36763 0
M  V30 62994 H 5839.94 2.24215 -2.04844 0
M  V30 62995 H 5837.52 1.0576 -1.05524 0
M  V30 62996 H 5839.41 4.17883 -0.543278 0
M  V30 62997 H 5838.08 3.23161 0.18673 0
M  V30 62998 H 5836.99 3.07851 -2.12553 0
M  V30 62999 H 5838.32 4.06152 -2.78032 0
M  V30 63000 N 5839.97 1.0827 1.14523 0
M  V30 63001 C 5841.2 0.832947 1.89393 0
M  V30 63002 C 5841.62 -0.61476 1.78511 0
M  V30 63003 O 5840.97 -1.42235 1.14348 0
M  V30 63004 C 5841.02 1.24412 3.39417 0
M  V30 63005 O 5840.75 2.63503 3.49996 0
M  V30 63006 C 5842.25 1.02503 4.31287 0
M  V30 63007 H 5839.47 0.300495 0.599953 0
M  V30 63008 H 5842.01 1.4416 1.45045 0
M  V30 63009 H 5840.17 0.6796 3.81392 0
M  V30 63010 H 5840.58 2.80532 4.43172 0
M  V30 63011 H 5842.05 1.36213 5.3493 0
M  V30 63012 H 5842.53 -0.0380417 4.39184 0
M  V30 63013 H 5843.14 1.57491 3.95065 0
M  V30 63014 N 5841.45 -1.31533 0.868156 0
M  V30 63015 C 5842.4 -2.30503 0.311662 0
M  V30 63016 C 5843.39 -1.59441 -0.572276 0
M  V30 63017 O 5844.6 -1.74061 -0.458578 0
M  V30 63018 H 5840.97 -0.747505 0.0821008 0
M  V30 63019 H 5842.95 -2.74915 1.16036 0
M  V30 63020 C 5841.69 -3.44461 -0.473501 0
M  V30 63021 H 5841.02 -3.99312 0.197399 0
M  V30 63022 H 5842.46 -4.15832 -0.828247 0
M  V30 63023 C 5840.92 -2.92935 -1.66405 0
M  V30 63024 O 5841.45 -2.91552 -2.76333 0
M  V30 63025 N 5839.65 -2.4916 -1.49559 0
M  V30 63026 H 5839.2 -2.50483 -0.60132 0
M  V30 63027 H 5839.16 -2.1504 -2.29358 0
M  V30 63028 N 5842.93 -0.627415 -1.44573 0
M  V30 63029 C 5844.34 -0.213214 -1.85479 0
M  V30 63030 C 5844.69 1.23453 -1.52492 0
M  V30 63031 O 5843.82 1.93882 -0.961183 0
M  V30 63032 C 5844.41 -0.380181 -3.3666 0
M  V30 63033 C 5842.97 -0.0205173 -3.76394 0
M  V30 63034 C 5842.12 -0.695319 -2.68441 0
M  V30 63035 H 5845.07 -0.832818 -1.35092 0
M  V30 63036 H 5845.09 0.381945 -3.78578 0
M  V30 63037 H 5844.6 -1.43396 -3.60637 0
M  V30 63038 H 5842.7 1.03167 -3.58033 0
M  V30 63039 H 5842.82 -0.427988 -4.77185 0
M  V30 63040 H 5841.18 -0.130988 -2.54363 0
M  V30 63041 H 5841.96 -1.75162 -2.95251 0
M  V30 63042 N 5844.41 1.5325 -0.367738 0
M  V30 63043 C 5845.65 2.01586 0.221608 0
M  V30 63044 C 5845.99 1.25449 1.48244 0
M  V30 63045 O 5845.26 0.348793 1.91347 0
M  V30 63046 C 5845.54 3.5645 0.511382 0
M  V30 63047 C 5845.4 4.43277 -0.763231 0
M  V30 63048 C 5846.72 4.20118 1.31106 0
M  V30 63049 H 5843.84 0.732746 0.0790697 0
M  V30 63050 H 5846.48 1.83491 -0.493055 0
M  V30 63051 H 5844.63 3.72 1.1202 0
M  V30 63052 H 5846.3 4.39521 -1.40068 0
M  V30 63053 H 5844.54 4.11159 -1.38314 0
M  V30 63054 H 5845.21 5.49589 -0.515408 0
M  V30 63055 H 5847.69 4.08415 0.796025 0
M  V30 63056 H 5846.57 5.28499 1.48256 0
M  V30 63057 H 5846.83 3.76324 2.32019 0
M  V30 63058 N 5845.89 0.096963 1.57301 0
M  V30 63059 C 5846.82 -0.897969 2.0979 0
M  V30 63060 C 5847.8 -1.27514 1.00891 0
M  V30 63061 O 5848.98 -1.38006 1.28401 0
M  V30 63062 C 5846.11 -2.19859 2.57642 0
M  V30 63063 C 5845.15 -1.97114 3.78217 0
M  V30 63064 S 5845.99 -1.20745 5.2171 0
M  V30 63065 C 5847.14 -2.52034 5.72913 0
M  V30 63066 H 5847.38 -0.45144 2.93853 0
M  V30 63067 H 5844.91 -0.116363 1.53961 0
M  V30 63068 H 5846.87 -2.94599 2.8587 0
M  V30 63069 H 5845.53 -2.61633 1.73802 0
M  V30 63070 H 5844.72 -2.93431 4.09774 0
M  V30 63071 H 5844.32 -1.30502 3.50493 0
M  V30 63072 H 5846.61 -3.48 5.81294 0
M  V30 63073 H 5847.56 -2.25053 6.71384 0
M  V30 63074 H 5847.97 -2.60392 5.00855 0
M  V30 63075 N 5847.36 -1.56606 -0.176738 0
M  V30 63076 C 5848.61 -1.81327 -0.892472 0
M  V30 63077 C 5848.93 -0.673075 -1.83016 0
M  V30 63078 O 5848.2 0.30743 -1.93473 0
M  V30 63079 H 5846.78 -0.668893 -0.332553 0
M  V30 63080 H 5849.44 -1.94087 -0.177852 0
M  V30 63081 H 5848.54 -2.75173 -1.47262 0
M  V30 63082 N 5848.84 0.445106 -1.51184 0
M  V30 63083 C 5850.09 1.19695 -1.6371 0
M  V30 63084 C 5850.42 1.91046 -0.348578 0
M  V30 63085 O 5849.7 1.83266 0.651432 0
M  V30 63086 C 5849.98 2.22011 -2.83519 0
M  V30 63087 C 5849.83 1.54795 -4.22325 0
M  V30 63088 C 5851.15 3.23072 -2.98851 0
M  V30 63089 H 5848.27 0.433797 -0.59581 0
M  V30 63090 H 5850.91 0.487211 -1.83647 0
M  V30 63091 H 5849.06 2.82541 -2.66651 0
M  V30 63092 H 5850.73 0.976616 -4.50844 0
M  V30 63093 H 5848.98 0.850446 -4.25382 0
M  V30 63094 H 5849.65 2.29271 -5.02134 0
M  V30 63095 H 5852.12 2.7259 -3.14379 0
M  V30 63096 H 5851 3.91964 -3.84259 0
M  V30 63097 H 5851.26 3.88724 -2.10584 0
M  V30 63098 N 5850.32 1.41199 0.70004 0
M  V30 63099 C 5851.57 1.40039 1.45717 0
M  V30 63100 C 5851.89 0.00883136 1.94998 0
M  V30 63101 O 5851.16 -0.948586 1.71402 0
M  V30 63102 H 5849.74 0.515452 0.540665 0
M  V30 63103 H 5852.4 1.76397 0.828864 0
M  V30 63104 H 5851.5 2.08485 2.3225 0
M  V30 63105 N 5851.8 -0.933846 1.26953 0
M  V30 63106 C 5853.03 -1.71508 1.15727 0
M  V30 63107 C 5853.44 -1.86611 -0.286646 0
M  V30 63108 O 5852.8 -1.37875 -1.1957 0
M  V30 63109 C 5852.85 -3.11798 1.82933 0
M  V30 63110 O 5852.57 -2.97409 3.21682 0
M  V30 63111 C 5854.07 -4.06101 1.77754 0
M  V30 63112 H 5851.29 -0.536766 0.402645 0
M  V30 63113 H 5853.83 -1.17019 1.6771 0
M  V30 63114 H 5851.99 -3.63165 1.34869 0
M  V30 63115 H 5852.4 -3.86056 3.5505 0
M  V30 63116 H 5853.88 -5.02074 2.29403 0
M  V30 63117 H 5854.35 -4.32825 0.745582 0
M  V30 63118 H 5854.96 -3.60657 2.25403 0
M  V30 63119 N 5853.28 -1.08875 -1.13947 0
M  V30 63120 C 5854.19 -0.734947 -2.22791 0
M  V30 63121 C 5855.2 0.260639 -1.72037 0
M  V30 63122 O 5856.38 0.10339 -2.01134 0
M  V30 63123 C 5853.44 -0.154721 -3.46355 0
M  V30 63124 C 5852.5 -1.20553 -4.12026 0
M  V30 63125 C 5851.74 -0.652898 -5.29691 0
M  V30 63126 O 5851.96 0.526064 -5.67969 0
M  V30 63127 O 5850.89 -1.40524 -5.85266 0
M  V30 63128 H 5854.72 -1.64306 -2.55416 0
M  V30 63129 H 5852.31 -0.862759 -1.21971 0
M  V30 63130 H 5854.19 0.165814 -4.21074 0
M  V30 63131 H 5852.86 0.726481 -3.15442 0
M  V30 63132 H 5851.77 -1.57867 -3.39159 0
M  V30 63133 H 5853.1 -2.05918 -4.47056 0
M  V30 63134 N 5854.75 1.3107 -0.875119 0
M  V30 63135 C 5856.17 1.4916 -0.567749 0
M  V30 63136 C 5856.37 1.80438 0.896906 0
M  V30 63137 O 5855.43 1.8861 1.67876 0
M  V30 63138 C 5856.74 2.62185 -1.4724 0
M  V30 63139 C 5858.29 2.76067 -1.47499 0
M  V30 63140 C 5858.76 3.92194 -2.36533 0
M  V30 63141 N 5860.25 3.99489 -2.34442 0
M  V30 63142 C 5860.99 4.88628 -3.0005 0
M  V30 63143 N 5860.48 5.82633 -3.74847 0
M  V30 63144 N 5862.28 4.81916 -2.89332 0
M  V30 63145 H 5854.43 1.09038 -1.82276 0
M  V30 63146 H 5856.69 0.539263 -0.779679 0
M  V30 63147 H 5856.4 2.45864 -2.51484 0
M  V30 63148 H 5856.27 3.58441 -1.17472 0
M  V30 63149 H 5858.66 2.918 -0.44011 0
M  V30 63150 H 5858.74 1.80461 -1.81293 0
M  V30 63151 H 5858.38 3.77219 -3.401 0
M  V30 63152 H 5858.31 4.87118 -2.0006 0
M  V30 63153 H 5860.8 3.32235 -1.80079 0
M  V30 63154 H 5861.12 6.47392 -4.22024 0
M  V30 63155 H 5859.46 5.82596 -3.78955 0
M  V30 63156 H 5862.65 4.07454 -2.30432 0
M  V30 63157 H 5862.83 5.5118 -3.40742 0
M  V30 63158 N 5856.23 0.635073 1.44238 0
M  V30 63159 C 5857.46 0.148117 2.06068 0
M  V30 63160 C 5857.87 -1.18414 1.47562 0
M  V30 63161 O 5857.21 -1.73815 0.594486 0
M  V30 63162 C 5857.28 -0.0368329 3.59481 0
M  V30 63163 C 5856.94 1.21788 4.40473 0
M  V30 63164 C 5857.94 2.14249 4.73702 0
M  V30 63165 C 5855.62 1.4544 4.80783 0
M  V30 63166 C 5857.62 3.28669 5.46128 0
M  V30 63167 C 5855.3 2.60156 5.52958 0
M  V30 63168 C 5856.3 3.51597 5.8555 0
M  V30 63169 O 5855.99 4.64312 6.56254 0
M  V30 63170 H 5855.72 0.0787467 0.671398 0
M  V30 63171 H 5858.27 0.870704 1.86032 0
M  V30 63172 H 5856.5 -0.814606 3.78023 0
M  V30 63173 H 5858.19 -0.478842 4.03066 0
M  V30 63174 H 5858.96 1.97212 4.43094 0
M  V30 63175 H 5854.84 0.751538 4.54833 0
M  V30 63176 H 5858.38 4.00063 5.71485 0
M  V30 63177 H 5854.28 2.77135 5.82981 0
M  V30 63178 H 5855.05 4.63344 6.74725 0
M  V30 63179 N 5857.71 -1.53052 0.37586 0
M  V30 63180 C 5858.66 -2.26052 -0.465741 0
M  V30 63181 C 5859.63 -1.27127 -1.06902 0
M  V30 63182 O 5860.81 -1.5593 -1.09957 0
M  V30 63183 C 5857.95 -3.06072 -1.59418 0
M  V30 63184 C 5857.07 -4.19905 -1.01508 0
M  V30 63185 C 5856.2 -4.87346 -2.11346 0
M  V30 63186 C 5855.24 -5.93194 -1.50955 0
M  V30 63187 N 5854.38 -6.54285 -2.54669 0
M  V30 63188 H 5859.22 -2.97552 0.163254 0
M  V30 63189 H 5856.75 -1.4681 0.0923336 0
M  V30 63190 H 5858.71 -3.50747 -2.25903 0
M  V30 63191 H 5857.34 -2.36807 -2.19368 0
M  V30 63192 H 5856.39 -3.79641 -0.240213 0
M  V30 63193 H 5857.71 -4.95937 -0.533638 0
M  V30 63194 H 5856.86 -5.35257 -2.8563 0
M  V30 63195 H 5855.6 -4.10808 -2.62846 0
M  V30 63196 H 5854.6 -5.44634 -0.751904 0
M  V30 63197 H 5855.83 -6.71657 -1.00268 0
M  V30 63198 H 5853.77 -5.80594 -3.05362 0
M  V30 63199 H 5853.69 -7.25888 -2.11241 0
M  V30 63200 H 5854.96 -7.06843 -3.28623 0
M  V30 63201 N 5859.19 -0.105304 -1.57248 0
M  V30 63202 C 5860.12 0.846838 -2.17603 0
M  V30 63203 C 5861.1 1.28702 -1.1122 0
M  V30 63204 O 5862.28 1.35208 -1.394 0
M  V30 63205 C 5859.41 2.10218 -2.76452 0
M  V30 63206 C 5858.37 1.80027 -3.88297 0
M  V30 63207 C 5857.69 3.12475 -4.33893 0
M  V30 63208 C 5858.99 1.07925 -5.11028 0
M  V30 63209 H 5860.69 0.343948 -2.97418 0
M  V30 63210 H 5858.23 0.163995 -1.43063 0
M  V30 63211 H 5860.19 2.77273 -3.17329 0
M  V30 63212 H 5858.91 2.62808 -1.93906 0
M  V30 63213 H 5857.57 1.15366 -3.47974 0
M  V30 63214 H 5857.22 3.62973 -3.48224 0
M  V30 63215 H 5856.92 2.93054 -5.09307 0
M  V30 63216 H 5858.44 3.80672 -4.77411 0
M  V30 63217 H 5859.86 1.65108 -5.4901 0
M  V30 63218 H 5858.25 0.986466 -5.91937 0
M  V30 63219 H 5859.32 0.0636807 -4.84858 0
M  V30 63220 N 5860.67 1.56697 0.168431 0
M  V30 63221 C 5861.91 1.81797 0.882843 0
M  V30 63222 C 5862.24 0.682771 1.82656 0
M  V30 63223 O 5861.51 -0.297166 1.93633 0
M  V30 63224 H 5860.09 0.670647 0.329001 0
M  V30 63225 H 5862.75 1.94178 0.167557 0
M  V30 63226 H 5861.84 2.7595 1.45801 0
M  V30 63227 N 5862.14 -0.437082 1.51418 0
M  V30 63228 C 5863.56 -1.01694 1.56574 0
M  V30 63229 C 5863.91 -1.92298 0.389358 0
M  V30 63230 O 5863.03 -2.1069 -0.493816 0
M  V30 63231 C 5863.63 -1.85109 2.83761 0
M  V30 63232 C 5862.19 -2.38144 2.91486 0
M  V30 63233 C 5861.33 -1.17365 2.51238 0
M  V30 63234 H 5864.28 -0.218344 1.57191 0
M  V30 63235 H 5864.3 -2.70563 2.67537 0
M  V30 63236 H 5863.82 -1.1914 3.69361 0
M  V30 63237 H 5861.92 -3.07567 2.10317 0
M  V30 63238 H 5862.03 -2.70924 3.95142 0
M  V30 63239 H 5860.39 -1.51905 2.04443 0
M  V30 63240 H 5861.18 -0.530056 3.39183 0
M  V30 63241 N 5863.62 -1.41568 -0.692542 0
M  V30 63242 C 5864.87 -1.40386 -1.44826 0
M  V30 63243 C 5865.18 -0.0172755 -1.95592 0
M  V30 63244 O 5866.39 0.117164 -2.71247 0
M  V30 63245 C 5864.85 -2.46853 -2.619 0
M  V30 63246 C 5864.45 -3.91434 -2.17907 0
M  V30 63247 C 5866.2 -2.54812 -3.39516 0
M  V30 63248 C 5864.11 -4.89447 -3.31957 0
M  V30 63249 H 5863.04 -0.522082 -0.54401 0
M  V30 63250 H 5865.69 -1.67405 -0.75153 0
M  V30 63251 H 5864.07 -2.12971 -3.33855 0
M  V30 63252 H 5865.24 -4.3458 -1.53221 0
M  V30 63253 H 5863.56 -3.87163 -1.53277 0
M  V30 63254 H 5866.15 -3.25222 -4.24423 0
M  V30 63255 H 5866.5 -1.58593 -3.84908 0
M  V30 63256 H 5867.03 -2.87801 -2.74619 0
M  V30 63257 H 5863.77 -5.87082 -2.91574 0
M  V30 63258 H 5863.29 -4.50947 -3.95483 0
M  V30 63259 H 5864.97 -5.10345 -3.9769 0
M  V30 63260 N 5865.1 0.927101 -1.27446 0
M  V30 63261 C 5866.35 1.67734 -1.13988 0
M  V30 63262 C 5866.68 1.91654 0.313443 0
M  V30 63263 O 5865.95 1.50734 1.22921 0
M  V30 63264 C 5866.24 3.0435 -1.92465 0
M  V30 63265 C 5866.09 2.87668 -3.45785 0
M  V30 63266 C 5867.41 4.04689 -1.72958 0
M  V30 63267 H 5864.53 0.608735 -0.415465 0
M  V30 63268 H 5867.17 1.07581 -1.56609 0
M  V30 63269 H 5865.32 3.55697 -1.56244 0
M  V30 63270 H 5866.99 2.43435 -3.91838 0
M  V30 63271 H 5865.24 2.22998 -3.72095 0
M  V30 63272 H 5865.91 3.84626 -3.95938 0
M  V30 63273 H 5868.38 3.62356 -2.04541 0
M  V30 63274 H 5867.26 4.98268 -2.30261 0
M  V30 63275 H 5867.52 4.36875 -0.677659 0
M  V30 63276 N 5866.58 1.09478 1.13368 0
M  V30 63277 C 5867.53 0.729352 2.20869 0
M  V30 63278 C 5868.52 -0.269977 1.67235 0
M  V30 63279 O 5869.73 -0.131382 1.7952 0
M  V30 63280 H 5866.1 0.217877 0.719746 0
M  V30 63281 H 5868.07 1.64514 2.48953 0
M  V30 63282 C 5866.82 0.16664 3.473 0
M  V30 63283 H 5866.14 0.926803 3.88909 0
M  V30 63284 H 5867.58 -0.0511126 4.23969 0
M  V30 63285 C 5866.04 -1.09825 3.18497 0
M  V30 63286 O 5866.57 -2.1814 3.3731 0
M  V30 63287 N 5864.78 -1.01297 2.72373 0
M  V30 63288 H 5864.33 -0.131461 2.57264 0
M  V30 63289 H 5864.28 -1.86002 2.53477 0
M  V30 63290 N 5868.06 -1.30604 0.882058 0
M  V30 63291 C 5868.99 -2.30664 0.362787 0
M  V30 63292 C 5869.97 -1.60867 -0.552804 0
M  V30 63293 O 5871.15 -1.88495 -0.467273 0
M  V30 63294 C 5868.28 -3.44676 -0.426099 0
M  V30 63295 C 5867.24 -4.2615 0.397471 0
M  V30 63296 C 5866.56 -5.32187 -0.51784 0
M  V30 63297 C 5867.86 -4.9595 1.63803 0
M  V30 63298 H 5869.56 -2.74347 1.19893 0
M  V30 63299 H 5867.1 -1.31893 0.577958 0
M  V30 63300 H 5869.06 -4.13737 -0.799984 0
M  V30 63301 H 5867.78 -2.99792 -1.29586 0
M  V30 63302 H 5866.44 -3.58774 0.753458 0
M  V30 63303 H 5866.09 -4.8355 -1.38523 0
M  V30 63304 H 5865.79 -5.87593 0.0293867 0
M  V30 63305 H 5867.31 -6.04104 -0.888305 0
M  V30 63306 H 5868.73 -5.57542 1.3349 0
M  V30 63307 H 5867.12 -5.61208 2.12523 0
M  V30 63308 H 5868.19 -4.22243 2.38409 0
M  V30 63309 N 5869.54 -0.642713 -1.43899 0
M  V30 63310 C 5870.47 0.0418935 -2.33462 0
M  V30 63311 C 5871.45 0.822871 -1.48872 0
M  V30 63312 O 5872.63 0.786446 -1.77563 0
M  V30 63313 C 5869.76 1.01619 -3.32101 0
M  V30 63314 C 5868.72 0.346056 -4.26599 0
M  V30 63315 C 5868.04 1.43107 -5.15194 0
M  V30 63316 C 5869.34 -0.754981 -5.16815 0
M  V30 63317 H 5871.04 -0.706031 -2.90956 0
M  V30 63318 H 5868.58 -0.340973 -1.39905 0
M  V30 63319 H 5870.53 1.50396 -3.93648 0
M  V30 63320 H 5869.26 1.79515 -2.72841 0
M  V30 63321 H 5867.92 -0.121167 -3.664 0
M  V30 63322 H 5867.57 2.20119 -4.52279 0
M  V30 63323 H 5867.27 0.987991 -5.79234 0
M  V30 63324 H 5868.79 1.92041 -5.79614 0
M  V30 63325 H 5870.2 -0.349825 -5.72232 0
M  V30 63326 H 5868.6 -1.12189 -5.8952 0
M  V30 63327 H 5869.67 -1.61734 -4.57132 0
M  V30 63328 N 5871.01 1.52851 -0.383971 0
M  V30 63329 C 5871.94 2.29214 0.44531 0
M  V30 63330 C 5872.92 1.32384 1.0681 0
M  V30 63331 O 5874.11 1.61273 1.08188 0
M  V30 63332 C 5871.24 3.09502 1.57562 0
M  V30 63333 C 5870.19 4.14172 1.07914 0
M  V30 63334 C 5869.52 4.82652 2.30111 0
M  V30 63335 C 5870.82 5.22082 0.150852 0
M  V30 63336 H 5872.51 2.98785 -0.191825 0
M  V30 63337 H 5870.06 1.43695 -0.0936977 0
M  V30 63338 H 5872.01 3.6168 2.16254 0
M  V30 63339 H 5870.74 2.37655 2.24026 0
M  V30 63340 H 5869.4 3.62968 0.514782 0
M  V30 63341 H 5869.04 4.07359 2.95073 0
M  V30 63342 H 5868.74 5.53395 1.97555 0
M  V30 63343 H 5870.27 5.37632 2.89456 0
M  V30 63344 H 5871.68 5.69651 0.645803 0
M  V30 63345 H 5870.08 6.0004 -0.0846942 0
M  V30 63346 H 5871.15 4.78225 -0.801787 0
M  V30 63347 N 5872.49 0.113641 1.5719 0
M  V30 63348 C 5873.91 -0.242968 1.5774 0
M  V30 63349 C 5874.11 -1.67101 1.12603 0
M  V30 63350 O 5873.16 -2.39123 0.810959 0
M  V30 63351 C 5874.48 -0.0145233 3.00696 0
M  V30 63352 C 5876.02 -0.0808385 3.12896 0
M  V30 63353 C 5876.5 0.119846 4.57843 0
M  V30 63354 N 5877.99 0.0656339 4.63153 0
M  V30 63355 C 5878.73 0.195893 5.73065 0
M  V30 63356 N 5878.22 0.382025 6.91746 0
M  V30 63357 N 5880.01 0.135847 5.61936 0
M  V30 63358 H 5872.17 1.04646 1.84832 0
M  V30 63359 H 5874.43 0.411639 0.853966 0
M  V30 63360 H 5874.13 0.972518 3.37987 0
M  V30 63361 H 5874.01 -0.748752 3.69694 0
M  V30 63362 H 5876.4 -1.0584 2.75467 0
M  V30 63363 H 5876.48 0.685183 2.46453 0
M  V30 63364 H 5876.12 1.09436 4.9597 0
M  V30 63365 H 5876.05 -0.666097 5.2237 0
M  V30 63366 H 5878.54 -0.0749321 3.77826 0
M  V30 63367 H 5878.85 0.472428 7.71355 0
M  V30 63368 H 5877.2 0.41793 6.93742 0
M  V30 63369 H 5880.39 -0.00856554 4.68099 0
M  V30 63370 H 5880.56 0.240807 6.47552 0
M  V30 63371 N 5873.97 -1.56785 -0.160118 0
M  V30 63372 C 5875.39 -1.51154 -0.512298 0
M  V30 63373 C 5875.59 -0.819839 -1.84068 0
M  V30 63374 O 5874.64 -0.384876 -2.49549 0
M  V30 63375 C 5875.95 -2.95908 -0.534713 0
M  V30 63376 C 5877.5 -3.06775 -0.62114 0
M  V30 63377 C 5877.98 -4.53008 -0.674342 0
M  V30 63378 N 5879.47 -4.573 -0.736926 0
M  V30 63379 C 5880.2 -5.67808 -0.798854 0
M  V30 63380 N 5879.7 -6.87919 -0.82093 0
M  V30 63381 N 5881.49 -5.55807 -0.838733 0
M  V30 63382 H 5873.64 -2.00154 0.710782 0
M  V30 63383 H 5875.91 -0.912321 0.257633 0
M  V30 63384 H 5875.61 -3.49718 0.372896 0
M  V30 63385 H 5875.49 -3.51157 -1.37727 0
M  V30 63386 H 5877.87 -2.52992 -1.51917 0
M  V30 63387 H 5877.95 -2.54592 0.248314 0
M  V30 63388 H 5877.6 -5.07426 0.219479 0
M  V30 63389 H 5877.53 -5.0296 -1.5601 0
M  V30 63390 H 5880.02 -3.70827 -0.727696 0
M  V30 63391 H 5880.33 -7.67891 -0.869668 0
M  V30 63392 H 5878.68 -6.90507 -0.789021 0
M  V30 63393 H 5881.87 -4.60887 -0.818566 0
M  V30 63394 H 5882.04 -6.41948 -0.883532 0
M  V30 63395 N 5875.45 0.429046 -1.51647 0
M  V30 63396 C 5876.38 1.5286 -1.76511 0
M  V30 63397 C 5877.36 1.58584 -0.615233 0
M  V30 63398 O 5878.54 1.74179 -0.858803 0
M  V30 63399 C 5875.67 2.90869 -1.8977 0
M  V30 63400 C 5874.63 3.00003 -3.05257 0
M  V30 63401 C 5873.95 4.40072 -3.03712 0
M  V30 63402 C 5875.25 2.73319 -4.45078 0
M  V30 63403 H 5876.95 1.32305 -2.68581 0
M  V30 63404 H 5874.49 0.635046 -1.29241 0
M  V30 63405 H 5876.45 3.67758 -2.05747 0
M  V30 63406 H 5875.17 3.12673 -0.943552 0
M  V30 63407 H 5873.83 2.25555 -2.88999 0
M  V30 63408 H 5873.48 4.58856 -2.06058 0
M  V30 63409 H 5873.18 4.47112 -3.81267 0
M  V30 63410 H 5874.7 5.18924 -3.21793 0
M  V30 63411 H 5876.12 3.39938 -4.61644 0
M  V30 63412 H 5874.51 2.91759 -5.24401 0
M  V30 63413 H 5875.58 1.68873 -4.54544 0
M  V30 63414 N 5876.93 1.41934 0.685024 0
M  V30 63415 C 5877.87 1.44611 1.79879 0
M  V30 63416 C 5878.84 0.299223 1.63383 0
M  V30 63417 O 5880.03 0.501813 1.84083 0
M  V30 63418 C 5877.17 1.34431 3.1784 0
M  V30 63419 C 5876.28 2.59074 3.45695 0
M  V30 63420 C 5875.42 2.41111 4.73328 0
M  V30 63421 C 5874.45 3.61177 4.94184 0
M  V30 63422 N 5873.59 3.42219 6.1305 0
M  V30 63423 H 5878.43 2.39794 1.76925 0
M  V30 63424 H 5875.97 1.19063 0.863849 0
M  V30 63425 H 5877.93 1.26529 3.9755 0
M  V30 63426 H 5876.56 0.428493 3.19943 0
M  V30 63427 H 5875.61 2.77383 2.60313 0
M  V30 63428 H 5876.92 3.48353 3.57003 0
M  V30 63429 H 5876.07 2.30736 5.61111 0
M  V30 63430 H 5874.81 1.49304 4.64284 0
M  V30 63431 H 5873.82 3.71995 4.04846 0
M  V30 63432 H 5875.04 4.53951 5.0508 0
M  V30 63433 H 5872.99 2.53122 6.05199 0
M  V30 63434 H 5872.91 4.25081 6.25174 0
M  V30 63435 H 5874.17 3.35637 7.0354 0
M  V30 63436 N 5878.4 -0.920329 1.27936 0
M  V30 63437 C 5879.65 -1.66334 1.14087 0
M  V30 63438 C 5879.97 -1.93108 -0.311256 0
M  V30 63439 O 5881.17 -2.65433 -0.570769 0
M  V30 63440 C 5879.63 -2.99617 1.99394 0
M  V30 63441 C 5879.24 -2.80515 3.49307 0
M  V30 63442 C 5880.98 -3.77468 1.94213 0
M  V30 63443 C 5878.89 -4.09398 4.26787 0
M  V30 63444 H 5877.82 -0.62392 0.423367 0
M  V30 63445 H 5880.47 -1.02184 1.52416 0
M  V30 63446 H 5878.85 -3.64865 1.53915 0
M  V30 63447 H 5880.02 -2.23988 4.02698 0
M  V30 63448 H 5878.34 -2.16085 3.55944 0
M  V30 63449 H 5880.94 -4.72988 2.49372 0
M  V30 63450 H 5881.28 -4.06066 0.917392 0
M  V30 63451 H 5881.81 -3.19028 2.37626 0
M  V30 63452 H 5878.55 -3.85975 5.29815 0
M  V30 63453 H 5878.07 -4.6556 3.78171 0
M  V30 63454 H 5879.75 -4.77705 4.36356 0
M  V30 63455 N 5879.88 -1.10078 -1.12786 0
M  V30 63456 C 5880.81 -0.768223 -2.20501 0
M  V30 63457 C 5881.79 0.25714 -1.68145 0
M  V30 63458 O 5882.98 0.123722 -1.93805 0
M  V30 63459 C 5880.11 -0.195247 -3.46751 0
M  V30 63460 C 5879.06 -1.15088 -4.12236 0
M  V30 63461 C 5878.39 -0.439285 -5.32892 0
M  V30 63462 C 5879.69 -2.49601 -4.58799 0
M  V30 63463 H 5881.38 -1.66885 -2.48576 0
M  V30 63464 H 5878.93 -0.803848 -1.19475 0
M  V30 63465 H 5880.88 0.0495213 -4.21371 0
M  V30 63466 H 5879.6 0.740605 -3.18092 0
M  V30 63467 H 5878.26 -1.38104 -3.39592 0
M  V30 63468 H 5877.91 0.50092 -5.005 0
M  V30 63469 H 5877.61 -1.07653 -5.77654 0
M  V30 63470 H 5879.14 -0.202976 -6.10263 0
M  V30 63471 H 5880.55 -2.30754 -5.2481 0
M  V30 63472 H 5878.95 -3.09175 -5.14325 0
M  V30 63473 H 5880.02 -3.0987 -3.72973 0
M  V30 63474 N 5881.36 1.30135 -0.888972 0
M  V30 63475 C 5882.29 2.30469 -0.375015 0
M  V30 63476 C 5883.27 1.61158 0.544265 0
M  V30 63477 O 5884.46 1.8874 0.45727 0
M  V30 63478 C 5881.59 3.44897 0.407814 0
M  V30 63479 C 5880.54 4.25934 -0.420066 0
M  V30 63480 C 5879.87 5.32454 0.489609 0
M  V30 63481 C 5881.17 4.95074 -1.66431 0
M  V30 63482 H 5882.86 2.73707 -1.21346 0
M  V30 63483 H 5880.41 1.31584 -0.584945 0
M  V30 63484 H 5882.36 4.14155 0.778032 0
M  V30 63485 H 5881.08 3.00475 1.27994 0
M  V30 63486 H 5879.74 3.58369 -0.772474 0
M  V30 63487 H 5879.39 4.84278 1.35957 0
M  V30 63488 H 5879.09 5.87569 -0.0605478 0
M  V30 63489 H 5880.61 6.04566 0.856256 0
M  V30 63490 H 5882.03 5.56827 -1.36444 0
M  V30 63491 H 5880.42 5.60073 -2.15496 0
M  V30 63492 H 5881.49 4.20973 -2.40644 0
M  V30 63493 N 5882.84 0.650335 1.43556 0
M  V30 63494 C 5883.77 -0.0927132 2.28012 0
M  V30 63495 C 5884.75 -0.83269 1.3966 0
M  V30 63496 O 5885.93 -0.832852 1.69103 0
M  V30 63497 C 5883.06 -1.13794 3.19012 0
M  V30 63498 C 5882.11 -0.496339 4.23602 0
M  V30 63499 S 5882.94 0.727951 5.30529 0
M  V30 63500 C 5884.1 -0.316816 6.25098 0
M  V30 63501 H 5884.33 0.623707 2.90684 0
M  V30 63502 H 5881.86 0.439084 1.48025 0
M  V30 63503 H 5883.82 -1.73599 3.71986 0
M  V30 63504 H 5882.48 -1.82667 2.55523 0
M  V30 63505 H 5881.67 -1.28418 4.87365 0
M  V30 63506 H 5881.28 0.027529 3.7399 0
M  V30 63507 H 5883.57 -1.18385 6.67077 0
M  V30 63508 H 5884.51 0.285717 7.07523 0
M  V30 63509 H 5884.92 -0.65133 5.6073 0
M  V30 63510 N 5884.32 -1.52645 0.392072 0
M  V30 63511 C 5885.54 -2.06033 -0.18922 0
M  V30 63512 C 5885.96 -1.26356 -1.40284 0
M  V30 63513 O 5885.32 -0.31094 -1.79832 0
M  V30 63514 C 5885.37 -3.57189 -0.556594 0
M  V30 63515 O 5885.09 -4.33849 0.60881 0
M  V30 63516 C 5886.59 -4.26933 -1.19345 0
M  V30 63517 H 5883.81 -0.67042 -0.0278941 0
M  V30 63518 H 5886.35 -1.96737 0.558102 0
M  V30 63519 H 5884.51 -3.66549 -1.25381 0
M  V30 63520 H 5884.92 -5.23605 0.306223 0
M  V30 63521 H 5886.4 -5.33929 -1.40085 0
M  V30 63522 H 5886.87 -3.82323 -2.16162 0
M  V30 63523 H 5887.48 -4.21897 -0.536921 0
M  V30 63524 N 5885.79 -0.121976 -1.57127 0
M  V30 63525 C 5886.76 0.81283 -2.14303 0
M  V30 63526 C 5887.76 1.19257 -1.07863 0
M  V30 63527 O 5888.95 1.11759 -1.33625 0
M  V30 63528 C 5886.08 2.0996 -2.6857 0
M  V30 63529 H 5887.27 0.315887 -2.98232 0
M  V30 63530 H 5884.83 0.127285 -1.55781 0
M  V30 63531 H 5885.56 2.64078 -1.88237 0
M  V30 63532 H 5885.35 1.83676 -3.46418 0
M  V30 63533 H 5886.84 2.76777 -3.12704 0
M  V30 63534 N 5887.27 1.56867 0.151801 0
M  V30 63535 C 5888.52 1.83356 0.866502 0
M  V30 63536 C 5888.85 0.702848 1.81035 0
M  V30 63537 O 5888.13 -0.293876 1.92267 0
M  V30 63538 C 5888.41 3.20322 1.64518 0
M  V30 63539 C 5888.26 4.43949 0.723141 0
M  V30 63540 C 5889.58 3.5445 2.6087 0
M  V30 63541 H 5886.7 0.666968 0.313564 0
M  V30 63542 H 5889.34 1.89542 0.131887 0
M  V30 63543 H 5887.49 3.1518 2.27143 0
M  V30 63544 H 5889.16 4.61173 0.108258 0
M  V30 63545 H 5887.41 4.33788 0.0324057 0
M  V30 63546 H 5888.08 5.36379 1.30391 0
M  V30 63547 H 5890.55 3.60172 2.08364 0
M  V30 63548 H 5889.43 4.51325 3.12406 0
M  V30 63549 H 5889.69 2.80158 3.41999 0
M  V30 63550 N 5888.75 -0.420997 1.51873 0
M  V30 63551 C 5890 -1.16672 1.65022 0
M  V30 63552 C 5890.32 -1.91328 0.376663 0
M  V30 63553 O 5889.59 -1.86223 -0.608081 0
M  V30 63554 H 5888.17 -0.433677 0.608221 0
M  V30 63555 H 5890.83 -0.481083 1.88869 0
M  V30 63556 H 5889.93 -1.88733 2.48568 0
M  V30 63557 N 5890.23 -1.42295 -0.677488 0
M  V30 63558 C 5891.47 -1.42832 -1.43968 0
M  V30 63559 C 5891.81 -0.0435723 -1.94151 0
M  V30 63560 O 5891.08 0.931734 -1.70731 0
M  V30 63561 C 5891.37 -2.45046 -2.63864 0
M  V30 63562 C 5891.22 -3.92701 -2.1933 0
M  V30 63563 C 5892.54 -2.44283 -3.66079 0
M  V30 63564 H 5889.66 -0.520116 -0.522158 0
M  V30 63565 H 5892.3 -1.73691 -0.770158 0
M  V30 63566 H 5890.45 -2.18863 -3.20985 0
M  V30 63567 H 5892.12 -4.29856 -1.67397 0
M  V30 63568 H 5890.36 -4.06697 -1.5093 0
M  V30 63569 H 5891.03 -4.59795 -3.05439 0
M  V30 63570 H 5893.51 -2.67562 -3.18669 0
M  V30 63571 H 5892.39 -3.17785 -4.47553 0
M  V30 63572 H 5892.65 -1.46784 -4.17022 0
M  V30 63573 N 5891.71 0.913531 -1.28423 0
M  V30 63574 C 5892.93 1.70174 -1.18557 0
M  V30 63575 C 5893.36 1.86401 0.252242 0
M  V30 63576 O 5892.71 1.37431 1.18247 0
M  V30 63577 C 5892.76 3.07138 -1.8894 0
M  V30 63578 O 5891.87 3.94646 -1.19702 0
M  V30 63579 H 5891.21 0.521078 -0.411551 0
M  V30 63580 H 5893.74 1.14222 -1.69748 0
M  V30 63581 H 5893.75 3.57368 -1.96856 0
M  V30 63582 H 5892.42 2.94645 -2.93525 0
M  V30 63583 H 5891 3.53081 -1.19952 0
M  V30 63584 N 5893.18 1.10674 1.122 0
M  V30 63585 C 5894.41 0.873161 1.88124 0
M  V30 63586 C 5894.83 -0.571036 1.79223 0
M  V30 63587 O 5894.19 -1.40247 1.14893 0
M  V30 63588 C 5894.24 1.32934 3.35203 0
M  V30 63589 O 5893.34 0.495951 4.09407 0
M  V30 63590 H 5892.69 0.315159 0.584441 0
M  V30 63591 H 5895.22 1.47418 1.41877 0
M  V30 63592 H 5895.23 1.32036 3.86045 0
M  V30 63593 H 5893.9 2.38103 3.40998 0
M  V30 63594 H 5892.48 0.570346 3.68513 0
M  V30 63595 O 5894.7 -1.2452 1.02844 0
M  V30 63596 H 5895.39 -1.80846 0.693849 0
M  V30 END ATOM
M  V30 BEGIN BOND
M  V30 END BOND
M  V30 END CTAB
M  END
$$$$
