drugbank_target|Q9RYU4 NAD(P)H dehydrogenase (quinone) (DB03247)
 OpenBabel12092120273D

  0  0  0     0  0            999 V3000
M  V30 BEGIN CTAB
M  V30 COUNTS 2972 3001 0 0 0
M  V30 BEGIN ATOM
M  V30 1 H -0.908 1.98254 -0.117106 0
M  V30 2 N 0 1.576 0 0
M  V30 3 C 0.933 2.03868 1.02534 0
M  V30 4 C 1.911 0.928543 1.3348 0
M  V30 5 O 3.095 1.19667 1.45644 0
M  V30 6 C 0.222 2.43627 2.35294 0
M  V30 7 C -0.732 3.65373 2.2001 0
M  V30 8 S 0.101 5.13292 1.52614 0
M  V30 9 C 1.257 5.56322 2.86805 0
M  V30 10 H 1.49 2.90518 0.631377 0
M  V30 11 H -0.977 1.52953 0.210867 0
M  V30 12 H 0.981 2.67203 3.11629 0
M  V30 13 H -0.358 1.57376 2.7183 0
M  V30 14 H -1.165 3.90944 3.18086 0
M  V30 15 H -1.563 3.418 1.51819 0
M  V30 16 H 0.729 5.58782 3.83104 0
M  V30 17 H 1.672 6.56266 2.65933 0
M  V30 18 H 2.08 4.83886 2.90714 0
M  V30 19 N 1.4781 -0.272755 1.55222 0
M  V30 20 C 2.7061 -1.02255 1.79865 0
M  V30 21 C 3.1211 -1.79924 0.572088 0
M  V30 22 O 2.4781 -1.76638 -0.458842 0
M  V30 23 C 2.5291 -1.98094 3.02392 0
M  V30 24 O 2.2501 -1.23572 4.20311 0
M  V30 25 C 3.7511 -2.84884 3.39641 0
M  V30 26 H 0.9711 -0.302057 0.599168 0
M  V30 27 H 3.5151 -0.303465 2.02236 0
M  V30 28 H 1.6701 -2.65465 2.82147 0
M  V30 29 H 2.0841 -1.88172 4.89583 0
M  V30 30 H 3.5581 -3.47927 4.28545 0
M  V30 31 H 4.0351 -3.54665 2.59055 0
M  V30 32 H 4.6411 -2.23003 3.62146 0
M  V30 33 N 2.9562 -1.48159 -0.537278 0
M  V30 34 C 3.9192 -1.61665 -1.62472 0
M  V30 35 C 4.9192 -0.490395 -1.5314 0
M  V30 36 O 6.1092 -0.755998 -1.5694 0
M  V30 37 C 3.2412 -1.57997 -3.02076 0
M  V30 38 H 4.4342 -2.58621 -1.51839 0
M  V30 39 H 1.9872 -1.36647 -0.758771 0
M  V30 40 H 2.7222 -0.624913 -3.18222 0
M  V30 41 H 2.5072 -2.39755 -3.10258 0
M  V30 42 H 3.9972 -1.70627 -3.81151 0
M  V30 43 N 4.4343 0.785586 -1.36625 0
M  V30 44 C 5.8453 1.36101 -1.27803 0
M  V30 45 C 6.1963 1.96035 0.0804875 0
M  V30 46 O 5.3213 1.92834 0.982042 0
M  V30 47 C 5.9163 2.47442 -2.31426 0
M  V30 48 C 4.4753 3.00789 -2.26281 0
M  V30 49 C 3.6223 1.73896 -2.15999 0
M  V30 50 H 6.5733 0.586928 -1.47448 0
M  V30 51 H 6.5943 3.2656 -1.95291 0
M  V30 52 H 6.1063 2.03791 -3.30289 0
M  V30 53 H 4.2073 3.48851 -1.30896 0
M  V30 54 H 4.3203 3.57343 -3.19128 0
M  V30 55 H 2.6843 1.9628 -1.62316 0
M  V30 56 H 3.4673 1.32368 -3.16755 0
M  V30 57 N 5.9124 1.20967 1.01018 0
M  V30 58 C 7.1584 1.02526 1.74975 0
M  V30 59 C 7.4914 -0.4408 1.89131 0
M  V30 60 O 6.7664 -1.32718 1.42184 0
M  V30 61 C 7.0494 1.71699 3.1653 0
M  V30 62 C 6.9024 3.25791 3.10129 0
M  V30 63 C 8.2214 1.45531 4.15342 0
M  V30 64 H 5.3404 0.373863 0.635134 0
M  V30 65 H 7.9824 1.49071 1.17805 0
M  V30 66 H 6.1324 1.32128 3.65341 0
M  V30 67 H 7.8044 3.74697 2.69072 0
M  V30 68 H 6.0474 3.56363 2.47362 0
M  V30 69 H 6.7184 3.69353 4.10222 0
M  V30 70 H 9.1944 1.79872 3.75213 0
M  V30 71 H 8.0704 1.96453 5.1254 0
M  V30 72 H 8.3314 0.384237 4.40427 0
M  V30 73 N 7.3905 -1.2043 1.01659 0
M  V30 74 C 8.3375 -2.23215 0.586822 0
M  V30 75 C 9.3075 -1.61382 -0.393085 0
M  V30 76 O 10.4925 -1.88544 -0.292525 0
M  V30 77 C 7.6325 -3.45032 -0.0687464 0
M  V30 78 C 6.7455 -4.21296 0.955724 0
M  V30 79 C 5.8805 -5.30507 0.271208 0
M  V30 80 C 4.9195 -5.98515 1.28244 0
M  V30 81 N 4.0565 -6.99316 0.62459 0
M  V30 82 H 8.8965 -2.59336 1.46796 0
M  V30 83 H 6.4335 -1.27431 0.734836 0
M  V30 84 H 8.3915 -4.1459 -0.465965 0
M  V30 85 H 7.0215 -3.09604 -0.913529 0
M  V30 86 H 6.0735 -3.50803 1.4711 0
M  V30 87 H 7.3855 -4.6803 1.72479 0
M  V30 88 H 6.5395 -6.06428 -0.18151 0
M  V30 89 H 5.2785 -4.8481 -0.530163 0
M  V30 90 H 4.2835 -5.21355 1.74554 0
M  V30 91 H 5.5085 -6.46298 2.08509 0
M  V30 92 H 3.4545 -6.55812 -0.156914 0
M  V30 93 H 3.3715 -7.44178 1.33172 0
M  V30 94 H 4.6395 -7.79255 0.195462 0
M  V30 95 N 8.8686 -0.792821 -1.36206 0
M  V30 96 C 9.7986 -0.207853 -2.32573 0
M  V30 97 C 10.7796 0.659055 -1.56813 0
M  V30 98 O 11.9646 0.592176 -1.84951 0
M  V30 99 C 9.0946 0.655449 -3.41059 0
M  V30 100 C 8.0486 -0.111842 -4.27854 0
M  V30 101 C 7.3746 0.872274 -5.27537 0
M  V30 102 C 8.6746 -1.30299 -5.05786 0
M  V30 103 H 10.3686 -1.01294 -2.81744 0
M  V30 104 H 7.9146 -0.48854 -1.3546 0
M  V30 105 H 9.8676 1.07464 -4.07467 0
M  V30 106 H 8.5916 1.49328 -2.90463 0
M  V30 107 H 7.2506 -0.512053 -3.63006 0
M  V30 108 H 6.8986 1.70523 -4.73214 0
M  V30 109 H 6.5986 0.363291 -5.86476 0
M  V30 110 H 8.1226 1.28996 -5.96818 0
M  V30 111 H 9.5366 -0.959379 -5.65216 0
M  V30 112 H 7.9336 -1.7455 -5.74154 0
M  V30 113 H 9.0036 -2.09663 -4.37229 0
M  V30 114 N 10.3467 1.47872 -0.545128 0
M  V30 115 C 11.3097 2.28337 0.198717 0
M  V30 116 C 12.3097 1.36255 0.853888 0
M  V30 117 O 13.4997 1.59003 0.711606 0
M  V30 118 C 10.6317 3.15585 1.28915 0
M  V30 119 H 11.8247 2.95567 -0.507941 0
M  V30 120 H 9.3777 1.53362 -0.301616 0
M  V30 121 H 10.1127 2.53019 2.02859 0
M  V30 122 H 9.8977 3.83337 0.824309 0
M  V30 123 H 11.3877 3.76243 1.81194 0
M  V30 124 N 11.8248 0.280983 1.55075 0
M  V30 125 C 13.0738 -0.334784 1.98902 0
M  V30 126 C 13.3868 -1.56534 1.17288 0
M  V30 127 O 14.5928 -2.25443 1.51287 0
M  V30 128 C 13.0488 -0.646994 3.54037 0
M  V30 129 C 12.6568 0.564085 4.44435 0
M  V30 130 C 14.4008 -1.22506 4.06439 0
M  V30 131 C 12.3078 0.226137 5.90967 0
M  V30 132 H 11.2378 -0.128866 0.742906 0
M  V30 133 H 13.8888 0.386556 1.79382 0
M  V30 134 H 12.2708 -1.42739 3.6938 0
M  V30 135 H 13.4448 1.34082 4.40861 0
M  V30 136 H 11.7598 1.0594 4.02698 0
M  V30 137 H 14.3568 -1.49182 5.13468 0
M  V30 138 H 14.6998 -2.16085 3.55827 0
M  V30 139 H 15.2328 -0.50682 3.94558 0
M  V30 140 H 11.9718 1.12996 6.45687 0
M  V30 141 H 11.4918 -0.513717 5.97596 0
M  V30 142 H 13.1708 -0.179539 6.46751 0
M  V30 143 N 13.3029 -1.57598 0.00835791 0
M  V30 144 C 14.5489 -1.91211 -0.675732 0
M  V30 145 C 14.8819 -0.883139 -1.72958 0
M  V30 146 O 14.1569 0.097016 -1.94258 0
M  V30 147 C 14.4399 -3.35379 -1.31123 0
M  V30 148 C 14.2929 -4.48999 -0.268356 0
M  V30 149 C 15.6119 -3.7912 -2.23508 0
M  V30 150 H 12.7309 -0.695374 -0.244179 0
M  V30 151 H 15.3729 -1.89901 0.0613655 0
M  V30 152 H 13.5229 -3.36626 -1.93946 0
M  V30 153 H 15.1949 -4.59887 0.360844 0
M  V30 154 H 13.4379 -4.31873 0.408482 0
M  V30 155 H 14.1089 -5.46851 -0.752218 0
M  V30 156 H 16.5849 -3.79477 -1.70693 0
M  V30 157 H 15.4609 -4.80729 -2.64936 0
M  V30 158 H 15.7219 -3.13455 -3.11766 0
M  V30 159 N 14.781 0.264519 -1.55364 0
M  V30 160 C 16.028 0.994986 -1.7637 0
M  V30 161 C 16.356 1.85976 -0.5695 0
M  V30 162 O 15.611 1.90509 0.44776 0
M  V30 163 C 15.91 1.9004 -3.02687 0
M  V30 164 C 15.576 1.19243 -4.34847 0
M  V30 165 C 14.238 0.996709 -4.70764 0
M  V30 166 C 16.59 0.689296 -5.16622 0
M  V30 167 C 13.918 0.285261 -5.86006 0
M  V30 168 C 16.27 -0.00860079 -6.32599 0
M  V30 169 C 14.934 -0.215963 -6.67151 0
M  V30 170 H 14.204 0.364091 -0.645383 0
M  V30 171 H 16.851 0.266543 -1.89636 0
M  V30 172 H 15.156 2.69533 -2.84357 0
M  V30 173 H 16.853 2.46695 -3.16137 0
M  V30 174 H 13.443 1.3549 -4.06621 0
M  V30 175 H 17.627 0.828108 -4.89342 0
M  V30 176 H 12.883 0.113961 -6.11294 0
M  V30 177 H 17.057 -0.406186 -6.95214 0
M  V30 178 H 14.684 -0.769217 -7.56298 0
M  V30 179 N 16.2591 1.48442 0.529413 0
M  V30 180 C 17.4891 1.59919 1.30804 0
M  V30 181 C 17.8971 0.258792 1.87422 0
M  V30 182 O 17.2401 -0.762096 1.67146 0
M  V30 183 C 17.3021 2.58693 2.49636 0
M  V30 184 C 16.9661 4.03745 2.14101 0
M  V30 185 C 17.9631 4.9141 1.6974 0
M  V30 186 C 15.6481 4.49285 2.24607 0
M  V30 187 C 17.6421 6.22645 1.36351 0
M  V30 188 C 15.3291 5.8054 1.9083 0
M  V30 189 C 16.3271 6.67043 1.46773 0
M  V30 190 O 16.0151 7.95856 1.1344 0
M  V30 191 H 15.7471 0.541981 0.404021 0
M  V30 192 H 18.3011 1.95 0.645309 0
M  V30 193 H 16.5311 2.18734 3.18892 0
M  V30 194 H 18.2201 2.59999 3.11698 0
M  V30 195 H 18.9861 4.57465 1.61094 0
M  V30 196 H 14.8651 3.82142 2.57854 0
M  V30 197 H 18.4091 6.90119 1.01891 0
M  V30 198 H 14.3061 6.14022 1.99117 0
M  V30 199 H 15.0741 8.08613 1.26832 0
M  V30 200 N 17.7372 -0.778329 1.37039 0
M  V30 201 C 18.9622 -1.57248 1.35233 0
M  V30 202 C 19.3872 -1.87999 -0.0615568 0
M  V30 203 O 18.7452 -1.48734 -1.03672 0
M  V30 204 C 18.7932 -2.86353 2.19167 0
M  V30 205 O 17.8972 -3.80442 1.59178 0
M  V30 206 H 17.2382 -0.476569 0.462362 0
M  V30 207 H 19.7682 -0.963853 1.80474 0
M  V30 208 H 19.7782 -3.35519 2.32145 0
M  V30 209 H 18.4532 -2.63299 3.21942 0
M  V30 210 H 17.0302 -3.39067 1.55203 0
M  V30 211 N 19.2153 -1.21501 -1.00376 0
M  V30 212 C 20.4403 -1.05977 -1.78279 0
M  V30 213 C 20.8653 0.385994 -1.84097 0
M  V30 214 O 20.2233 1.27849 -1.28547 0
M  V30 215 C 20.2713 -1.66302 -3.19963 0
M  V30 216 O 19.3753 -0.909333 -4.0225 0
M  V30 217 H 18.7163 -0.372906 -0.549397 0
M  V30 218 H 21.2463 -1.6107 -1.26165 0
M  V30 219 H 21.2563 -1.70574 -3.70632 0
M  V30 220 H 19.9313 -2.71515 -3.15043 0
M  V30 221 H 18.5083 -0.941795 -3.60811 0
M  V30 222 N 20.6934 1.19889 -1.02296 0
M  V30 223 C 21.9214 1.9339 -0.735399 0
M  V30 224 C 22.3364 1.75148 0.704887 0
M  V30 225 O 21.6934 1.06954 1.47875 0
M  V30 226 C 21.7444 3.45313 -1.06962 0
M  V30 227 O 21.4654 3.62964 -2.45334 0
M  V30 228 C 22.9664 4.35948 -0.804021 0
M  V30 229 H 20.1864 0.61448 -0.269546 0
M  V30 230 H 22.7304 1.522 -1.36585 0
M  V30 231 H 20.8854 3.84359 -0.484455 0
M  V30 232 H 21.2994 4.56886 -2.57595 0
M  V30 233 H 22.7734 5.41174 -1.0879 0
M  V30 234 H 23.2504 4.3842 0.261691 0
M  V30 235 H 23.8564 4.02574 -1.37164 0
M  V30 236 N 22.1715 0.800033 1.35784 0
M  V30 237 C 23.4195 0.376597 1.9856 0
M  V30 238 C 23.7405 -1.05812 1.63795 0
M  V30 239 O 23.0105 -1.73103 0.917171 0
M  V30 240 H 21.5905 0.136261 0.734467 0
M  V30 241 H 24.2525 1.02442 1.65806 0
M  V30 242 H 23.3485 0.477002 3.08433 0
M  V30 243 N 23.6496 -1.47581 0.552962 0
M  V30 244 C 24.8776 -2.06875 0.0320556 0
M  V30 245 C 25.2926 -1.40625 -1.25976 0
M  V30 246 O 24.6496 -0.501349 -1.75479 0
M  V30 247 C 24.7006 -3.61092 -0.17167 0
M  V30 248 O 24.4216 -4.24858 1.06899 0
M  V30 249 C 25.9226 -4.37242 -0.730344 0
M  V30 250 H 23.1426 -0.669561 0.043915 0
M  V30 251 H 25.6866 -1.89646 0.765163 0
M  V30 252 H 23.8416 -3.7785 -0.854894 0
M  V30 253 H 24.2556 -5.17334 0.864059 0
M  V30 254 H 25.7296 -5.45842 -0.822203 0
M  V30 255 H 26.2066 -4.03235 -1.74064 0
M  V30 256 H 26.8126 -4.25219 -0.0829543 0
M  V30 257 N 25.1277 -0.289203 -1.54924 0
M  V30 258 C 26.3757 0.322879 -1.99504 0
M  V30 259 C 26.6967 1.55313 -1.1791 0
M  V30 260 O 25.9667 1.94001 -0.272097 0
M  V30 261 H 24.5467 0.122291 -0.736922 0
M  V30 262 H 27.2087 -0.397802 -1.90797 0
M  V30 263 H 26.3047 0.603061 -3.06218 0
M  V30 264 N 26.6058 1.57591 -0.0167156 0
M  V30 265 C 27.8358 1.95292 0.674149 0
M  V30 266 C 28.2438 0.891097 1.66901 0
M  V30 267 O 27.5868 -0.136908 1.83189 0
M  V30 268 C 27.6488 3.29072 1.44747 0
M  V30 269 C 27.3128 4.52879 0.612331 0
M  V30 270 C 28.3098 5.1979 -0.107126 0
M  V30 271 C 25.9948 4.99242 0.553381 0
M  V30 272 C 27.9888 6.31375 -0.874339 0
M  V30 273 C 25.6758 6.10713 -0.217546 0
M  V30 274 C 26.6738 6.76637 -0.930123 0
M  V30 275 O 26.3618 7.85969 -1.68844 0
M  V30 276 H 26.0938 0.648275 0.191615 0
M  V30 277 H 28.6478 2.05284 -0.0690148 0
M  V30 278 H 26.8778 3.15535 2.2355 0
M  V30 279 H 28.5668 3.51764 2.02526 0
M  V30 280 H 29.3328 4.84948 -0.0708392 0
M  V30 281 H 25.2118 4.47744 1.09757 0
M  V30 282 H 28.7558 6.82764 -1.43106 0
M  V30 283 H 24.6528 6.44994 -0.255593 0
M  V30 284 H 25.4208 8.02571 -1.6069 0
M  V30 285 N 28.0839 -0.256276 1.55502 0
M  V30 286 C 29.0469 -1.30047 1.88734 0
M  V30 287 C 30.0469 -1.4154 0.763086 0
M  V30 288 O 31.2369 -1.40403 1.03115 0
M  V30 289 C 28.3689 -2.67953 2.10747 0
M  V30 290 H 29.5619 -1.01802 2.82093 0
M  V30 291 H 27.1149 -0.495134 1.4825 0
M  V30 292 H 27.8499 -3.01351 1.19825 0
M  V30 293 H 27.6349 -2.60993 2.92617 0
M  V30 294 H 29.1249 -3.43368 2.37673 0
M  V30 295 N 29.562 -1.4872 -0.521534 0
M  V30 296 C 30.495 -1.58451 -1.64221 0
M  V30 297 C 31.473 -0.434513 -1.56687 0
M  V30 298 O 32.657 -0.647275 -1.77038 0
M  V30 299 C 29.784 -1.52037 -3.02659 0
M  V30 300 C 28.83 -2.71981 -3.28525 0
M  V30 301 S 29.663 -4.33869 -3.13876 0
M  V30 302 C 30.819 -4.30067 -4.54745 0
M  V30 303 H 31.052 -2.53256 -1.55719 0
M  V30 304 H 28.585 -1.37358 -0.705143 0
M  V30 305 H 30.543 -1.49023 -3.82495 0
M  V30 306 H 29.204 -0.585541 -3.08594 0
M  V30 307 H 28.397 -2.63656 -4.29536 0
M  V30 308 H 27.999 -2.72302 -2.56374 0
M  V30 309 H 30.291 -4.00521 -5.46433 0
M  V30 310 H 31.234 -5.31287 -4.68123 0
M  V30 311 H 31.642 -3.60419 -4.34463 0
M  V30 312 N 31.0401 0.771051 -1.3745 0
M  V30 313 C 32.0031 1.86598 -1.33093 0
M  V30 314 C 33.0031 1.59076 -0.234845 0
M  V30 315 O 34.1931 1.67145 -0.490732 0
M  V30 316 C 31.3251 3.23747 -1.06773 0
M  V30 317 H 32.5181 1.91873 -2.30488 0
M  V30 318 H 30.0711 0.970876 -1.2249 0
M  V30 319 H 30.8061 3.24148 -0.099129 0
M  V30 320 H 30.5911 3.45115 -1.86112 0
M  V30 321 H 32.0811 4.03824 -1.06377 0
M  V30 322 N 32.5182 1.22032 0.997298 0
M  V30 323 C 33.4502 0.944263 2.08845 0
M  V30 324 C 34.4632 -0.0754663 1.62625 0
M  V30 325 O 35.6522 0.157994 1.77799 0
M  V30 326 C 32.7522 0.397723 3.36558 0
M  V30 327 C 31.9252 1.47362 4.11829 0
M  V30 328 C 30.9842 0.934951 5.17827 0
M  V30 329 O 30.0102 1.62016 5.45655 0
M  V30 330 N 31.2122 -0.245895 5.79979 0
M  V30 331 H 33.9772 1.88363 2.33109 0
M  V30 332 H 31.5382 1.12661 1.16272 0
M  V30 333 H 33.5302 0.0227771 4.04694 0
M  V30 334 H 32.1002 -0.446646 3.09393 0
M  V30 335 H 31.3202 2.02208 3.38386 0
M  V30 336 H 32.6082 2.19764 4.58891 0
M  V30 337 H 32.0062 -0.819475 5.59733 0
M  V30 338 H 30.5632 -0.562272 6.4937 0
M  V30 339 N 33.9963 -1.19345 1.0293 0
M  V30 340 C 34.9063 -2.26245 0.620515 0
M  V30 341 C 35.9223 -1.70486 -0.347928 0
M  V30 342 O 37.0983 -2.00347 -0.205704 0
M  V30 343 C 34.1633 -3.46693 -0.0218957 0
M  V30 344 C 33.2243 -4.17632 0.994102 0
M  V30 345 C 32.4573 -5.32329 0.382253 0
M  V30 346 O 32.6803 -5.64552 -0.814676 0
M  V30 347 O 31.6143 -5.91664 1.10531 0
M  V30 348 H 35.4403 -2.63453 1.51083 0
M  V30 349 H 33.0253 -1.26207 0.799513 0
M  V30 350 H 34.9073 -4.19683 -0.380072 0
M  V30 351 H 33.5823 -3.11333 -0.886209 0
M  V30 352 H 32.4893 -3.4676 1.40387 0
M  V30 353 H 33.8223 -4.56964 1.8288 0
M  V30 354 N 35.4744 -0.807222 -1.35358 0
M  V30 355 C 36.4374 -0.223665 -2.28106 0
M  V30 356 C 37.4374 0.589354 -1.4961 0
M  V30 357 O 38.6274 0.407745 -1.69361 0
M  V30 358 C 35.7594 0.688149 -3.33882 0
M  V30 359 H 36.9524 -1.04169 -2.81227 0
M  V30 360 H 34.5054 -0.577921 -1.45223 0
M  V30 361 H 35.2404 1.52984 -2.85948 0
M  V30 362 H 35.0254 0.10687 -3.91954 0
M  V30 363 H 36.5154 1.09075 -4.03104 0
M  V30 364 N 36.9525 1.47285 -0.560781 0
M  V30 365 C 37.9155 2.28535 0.174488 0
M  V30 366 C 38.9155 1.37153 0.839388 0
M  V30 367 O 40.1055 1.59748 0.694702 0
M  V30 368 C 37.2375 3.16934 1.25561 0
M  V30 369 H 38.4305 2.95012 -0.539262 0
M  V30 370 H 35.9835 1.53034 -0.317865 0
M  V30 371 H 36.7185 2.55157 2.00164 0
M  V30 372 H 36.5035 3.8419 0.783604 0
M  V30 373 H 37.9935 3.78143 1.77193 0
M  V30 374 N 38.4306 0.297415 1.54768 0
M  V30 375 C 39.3406 -0.58983 2.27064 0
M  V30 376 C 40.3566 -1.15144 1.30453 0
M  V30 377 O 41.5326 -1.17699 1.63428 0
M  V30 378 C 38.5976 -1.74714 2.9946 0
M  V30 379 C 37.6586 -1.21997 4.11601 0
M  V30 380 C 36.8916 -2.32212 4.80535 0
M  V30 381 O 37.1146 -3.52036 4.48806 0
M  V30 382 O 36.0486 -1.99106 5.68014 0
M  V30 383 H 39.8746 -0.00348199 3.037 0
M  V30 384 H 37.4596 0.0640035 1.49263 0
M  V30 385 H 39.3416 -2.42147 3.44881 0
M  V30 386 H 38.0166 -2.32016 2.25722 0
M  V30 387 H 36.9236 -0.511458 3.70587 0
M  V30 388 H 38.2566 -0.692419 4.87305 0
M  V30 389 N 39.9087 -1.5758 0.0250728 0
M  V30 390 C 40.8717 -2.08896 -0.943139 0
M  V30 391 C 41.8717 -1.00321 -1.25668 0
M  V30 392 O 43.0617 -1.26495 -1.19769 0
M  V30 393 C 40.1937 -2.55143 -2.26086 0
M  V30 394 H 41.3867 -2.95723 -0.498775 0
M  V30 395 H 38.9397 -1.54703 -0.222888 0
M  V30 396 H 39.6747 -1.71633 -2.75159 0
M  V30 397 H 39.4597 -3.34461 -2.04641 0
M  V30 398 H 40.9497 -2.95083 -2.95492 0
M  V30 399 N 41.3868 0.248026 -1.55636 0
M  V30 400 C 42.6348 0.974295 -1.77065 0
M  V30 401 C 42.9558 1.85897 -0.588849 0
M  V30 402 O 42.2258 1.91868 0.395407 0
M  V30 403 H 40.8058 0.362733 -0.653019 0
M  V30 404 H 43.4678 0.266244 -1.93073 0
M  V30 405 H 42.5638 1.59667 -2.68166 0
M  V30 406 N 42.8649 1.48995 0.513639 0
M  V30 407 C 44.2809 1.35478 0.843682 0
M  V30 408 C 44.4809 0.378213 1.97919 0
M  V30 409 O 43.5369 -0.194689 2.51748 0
M  V30 410 C 44.8499 2.75901 1.1958 0
M  V30 411 C 46.3979 2.84509 1.30474 0
M  V30 412 C 46.8729 4.25671 1.69021 0
M  V30 413 N 48.3639 4.28422 1.76094 0
M  V30 414 C 49.0989 5.34601 2.07338 0
M  V30 415 N 48.5949 6.5104 2.36894 0
M  V30 416 N 50.3879 5.22007 2.08483 0
M  V30 417 H 42.5389 2.11092 -0.235328 0
M  V30 418 H 44.8019 0.947039 -0.0426669 0
M  V30 419 H 44.5079 3.49001 0.434913 0
M  V30 420 H 44.3819 3.10467 2.1422 0
M  V30 421 H 46.7689 2.11655 2.05637 0
M  V30 422 H 46.8499 2.53542 0.339155 0
M  V30 423 H 46.4939 4.99048 0.944135 0
M  V30 424 H 46.4239 4.54094 2.66658 0
M  V30 425 H 48.9149 3.44441 1.55464 0
M  V30 426 H 49.2279 7.2779 2.59887 0
M  V30 427 H 47.5729 6.54287 2.34378 0
M  V30 428 H 50.7639 4.30051 1.84861 0
M  V30 429 H 50.9369 6.04854 2.325 0
M  V30 430 N 44.343 -0.763751 1.37857 0
M  V30 431 C 45.306 -1.85889 1.34081 0
M  V30 432 C 46.306 -1.58949 0.243277 0
M  V30 433 O 47.496 -1.66882 0.499589 0
M  V30 434 C 44.628 -3.23176 1.08489 0
M  V30 435 H 45.821 -1.90648 2.31502 0
M  V30 436 H 43.374 -0.964367 1.23003 0
M  V30 437 H 44.109 -3.24091 0.116318 0
M  V30 438 H 43.894 -3.44124 1.8794 0
M  V30 439 H 45.384 -4.03254 1.08517 0
M  V30 440 N 45.8211 -1.22559 -0.990812 0
M  V30 441 C 46.7841 -0.998863 -2.0629 0
M  V30 442 C 47.7841 0.0354834 -1.60761 0
M  V30 443 O 48.9741 -0.203231 -1.7301 0
M  V30 444 C 46.1061 -0.509203 -3.37076 0
M  V30 445 H 47.2991 -1.95014 -2.27837 0
M  V30 446 H 44.8521 -1.04456 -1.16269 0
M  V30 447 H 45.5871 0.446335 -3.21214 0
M  V30 448 H 45.3721 -1.25547 -3.71457 0
M  V30 449 H 46.8621 -0.370888 -4.1595 0
M  V30 450 N 47.2992 1.18797 -1.03562 0
M  V30 451 C 48.5472 1.88278 -0.734569 0
M  V30 452 C 48.8682 1.8043 0.739586 0
M  V30 453 O 48.1382 1.21925 1.53333 0
M  V30 454 H 46.7182 0.696991 -0.268725 0
M  V30 455 H 49.3802 1.44192 -1.31129 0
M  V30 456 H 48.4762 2.94443 -1.03489 0
M  V30 457 N 48.7773 0.814389 1.34928 0
M  V30 458 C 49.7403 0.235759 2.27984 0
M  V30 459 C 50.7403 -0.581412 1.49921 0
M  V30 460 O 51.9303 -0.398758 1.69575 0
M  V30 461 C 49.0623 -0.670433 3.34242 0
M  V30 462 H 50.2553 1.05659 2.80671 0
M  V30 463 H 47.8083 0.585614 1.44915 0
M  V30 464 H 48.5433 -1.51466 2.86755 0
M  V30 465 H 48.3283 -0.0860822 3.92005 0
M  V30 466 H 49.8183 -1.06935 4.03676 0
M  V30 467 N 50.2554 -1.46986 0.568584 0
M  V30 468 C 51.1654 -2.33942 -0.17555 0
M  V30 469 C 52.1814 -1.48891 -0.90041 0
M  V30 470 O 53.3574 -1.81794 -0.86676 0
M  V30 471 C 50.4224 -3.25811 -1.18524 0
M  V30 472 C 49.4834 -4.26757 -0.466582 0
M  V30 473 C 48.7164 -5.14236 -1.42817 0
M  V30 474 O 48.9394 -5.04379 -2.66379 0
M  V30 475 O 47.8734 -5.94412 -0.946453 0
M  V30 476 H 51.6994 -2.98896 0.538036 0
M  V30 477 H 49.2844 -1.4573 0.329097 0
M  V30 478 H 51.1664 -3.82527 -1.76779 0
M  V30 479 H 49.8414 -2.63471 -1.88055 0
M  V30 480 H 48.7484 -3.73769 0.157451 0
M  V30 481 H 50.0814 -4.91843 0.187485 0
M  V30 482 N 51.7335 -0.305618 -1.54608 0
M  V30 483 C 52.9795 0.302746 -2.00528 0
M  V30 484 C 53.3125 1.53184 -1.19367 0
M  V30 485 O 52.5875 1.92598 -0.271321 0
M  V30 486 C 52.8705 0.654756 -3.54097 0
M  V30 487 C 52.7235 -0.583793 -4.45995 0
M  V30 488 C 54.0425 1.47947 -4.14487 0
M  V30 489 H 51.1615 0.108564 -0.72896 0
M  V30 490 H 53.8035 -0.418634 -1.85331 0
M  V30 491 H 51.9535 1.26935 -3.67178 0
M  V30 492 H 53.6255 -1.22224 -4.44814 0
M  V30 493 H 51.8685 -1.21615 -4.16404 0
M  V30 494 H 52.5395 -0.293287 -5.5122 0
M  V30 495 H 55.0155 0.96013 -4.04871 0
M  V30 496 H 53.8915 1.69454 -5.22088 0
M  V30 497 H 54.1525 2.47011 -3.66658 0
M  V30 498 N 53.2116 1.57565 -0.0334293 0
M  V30 499 C 54.6276 1.56297 0.322997 0
M  V30 500 C 54.8276 1.03945 1.7262 0
M  V30 501 O 53.8836 0.688109 2.42943 0
M  V30 502 C 55.1966 3.00232 0.167664 0
M  V30 503 C 56.7446 3.12078 0.240107 0
M  V30 504 C 57.2196 4.57859 0.113513 0
M  V30 505 N 58.7106 4.62887 0.170359 0
M  V30 506 C 59.4456 5.73319 0.0962517 0
M  V30 507 N 58.9416 6.92794 -0.0291881 0
M  V30 508 N 60.7346 5.61898 0.150551 0
M  V30 509 H 52.8856 1.89923 -0.950956 0
M  V30 510 H 55.1486 0.873824 -0.367608 0
M  V30 511 H 54.8546 3.42501 -0.799102 0
M  V30 512 H 54.7286 3.654 0.936083 0
M  V30 513 H 57.1156 2.69718 1.19733 0
M  V30 514 H 57.1966 2.49623 -0.558763 0
M  V30 515 H 56.8406 5.009 -0.840314 0
M  V30 516 H 56.7706 5.18299 0.931302 0
M  V30 517 H 59.2616 3.76954 0.26728 0
M  V30 518 H 59.5746 7.7276 -0.0789252 0
M  V30 519 H 57.9196 6.94971 -0.0640299 0
M  V30 520 H 61.1106 4.67448 0.246981 0
M  V30 521 H 61.2836 6.47938 0.0893365 0
M  V30 522 N 54.6897 -0.239769 1.55765 0
M  V30 523 C 55.6197 -1.30052 1.9393 0
M  V30 524 C 56.6007 -1.49839 0.805132 0
M  V30 525 O 57.7857 -1.62328 1.06599 0
M  V30 526 C 54.9157 -2.65391 2.2402 0
M  V30 527 C 53.8697 -2.60289 3.39755 0
M  V30 528 C 53.1957 -3.99489 3.55405 0
M  V30 529 C 54.4957 -2.16654 4.75246 0
M  V30 530 H 56.1897 -0.983573 2.82783 0
M  V30 531 H 53.7357 -0.471701 1.36055 0
M  V30 532 H 55.6887 -3.3974 2.49308 0
M  V30 533 H 54.4127 -2.98736 1.32 0
M  V30 534 H 53.0717 -1.88398 3.14487 0
M  V30 535 H 52.7197 -4.30112 2.60793 0
M  V30 536 H 52.4197 -3.96962 4.33238 0
M  V30 537 H 53.9437 -4.75528 3.83022 0
M  V30 538 H 55.3577 -2.80737 4.99859 0
M  V30 539 H 53.7547 -2.25223 5.56232 0
M  V30 540 H 54.8247 -1.11835 4.71827 0
M  V30 541 N 56.1678 -1.49265 -0.50573 0
M  V30 542 C 57.0978 -1.68495 -1.61653 0
M  V30 543 C 58.0788 -0.53366 -1.61512 0
M  V30 544 O 59.2638 -0.76897 -1.78327 0
M  V30 545 C 56.3938 -1.74709 -3.00157 0
M  V30 546 C 55.3478 -2.89581 -3.15162 0
M  V30 547 C 54.6738 -2.80903 -4.5497 0
M  V30 548 C 55.9738 -4.30578 -2.95634 0
M  V30 549 H 57.6678 -2.61493 -1.45814 0
M  V30 550 H 55.2138 -1.25838 -0.70005 0
M  V30 551 H 57.1668 -1.86748 -3.77761 0
M  V30 552 H 55.8908 -0.783067 -3.17074 0
M  V30 553 H 54.5498 -2.77136 -2.39982 0
M  V30 554 H 54.1978 -1.82419 -4.68756 0
M  V30 555 H 53.8978 -3.57999 -4.65951 0
M  V30 556 H 55.4218 -2.94944 -5.34641 0
M  V30 557 H 56.8358 -4.4373 -3.63011 0
M  V30 558 H 55.2328 -5.0886 -3.18091 0
M  V30 559 H 56.3028 -4.45352 -1.91806 0
M  V30 560 N 57.6459 0.756429 -1.3826 0
M  V30 561 C 58.5929 1.87011 -1.35261 0
M  V30 562 C 59.5629 1.64695 -0.215616 0
M  V30 563 O 60.7479 1.864 -0.407399 0
M  V30 564 C 57.8879 3.24275 -1.18068 0
M  V30 565 C 57.0009 3.58442 -2.41129 0
M  V30 566 C 56.1359 4.84994 -2.16689 0
M  V30 567 C 55.1749 5.11939 -3.35537 0
M  V30 568 N 54.3119 6.29685 -3.10549 0
M  V30 569 H 59.1519 1.8891 -2.30472 0
M  V30 570 H 56.6889 0.923373 -1.14509 0
M  V30 571 H 58.6469 4.03479 -1.06116 0
M  V30 572 H 57.2769 3.21711 -0.264973 0
M  V30 573 H 56.3289 2.74103 -2.63764 0
M  V30 574 H 57.6409 3.74283 -3.29717 0
M  V30 575 H 56.7949 5.72135 -2.01857 0
M  V30 576 H 55.5339 4.71286 -1.25462 0
M  V30 577 H 54.5389 4.23268 -3.50891 0
M  V30 578 H 55.7639 5.27546 -4.27635 0
M  V30 579 H 53.7099 6.17306 -2.21967 0
M  V30 580 H 53.6269 6.46014 -3.92686 0
M  V30 581 H 54.8949 7.19722 -2.99367 0
M  V30 582 N 59.124 1.23083 0.984299 0
M  V30 583 C 60.37 1.06214 1.72761 0
M  V30 584 C 60.703 -0.400584 1.90024 0
M  V30 585 O 59.978 -1.29672 1.44967 0
M  V30 586 C 60.261 1.78375 3.12817 0
M  V30 587 C 60.114 3.32296 3.03149 0
M  V30 588 C 61.433 1.54309 4.12161 0
M  V30 589 H 58.552 0.387251 0.627061 0
M  V30 590 H 61.194 1.51536 1.14616 0
M  V30 591 H 59.344 1.39848 3.62457 0
M  V30 592 H 61.016 3.8032 2.61064 0
M  V30 593 H 59.259 3.6153 2.39747 0
M  V30 594 H 59.93 3.77972 4.02295 0
M  V30 595 H 62.406 1.87791 3.71314 0
M  V30 596 H 61.282 2.07281 5.08258 0
M  V30 597 H 61.543 0.477572 4.39513 0
M  V30 598 N 60.6021 -1.18246 1.0419 0
M  V30 599 C 62.0181 -1.40269 0.761366 0
M  V30 600 C 62.2181 -1.90777 -0.648578 0
M  V30 601 O 61.2741 -2.0929 -1.41258 0
M  V30 602 C 62.5871 -2.40237 1.8085 0
M  V30 603 C 64.1351 -2.53961 1.82955 0
M  V30 604 C 64.6101 -3.57194 2.86664 0
M  V30 605 N 66.1011 -3.64702 2.85563 0
M  V30 606 C 66.8361 -4.44309 3.6246 0
M  V30 607 N 66.3321 -5.27514 4.49111 0
M  V30 608 N 68.1251 -4.39084 3.50944 0
M  V30 609 H 60.2761 -0.837882 1.95175 0
M  V30 610 H 62.5391 -0.430608 0.84456 0
M  V30 611 H 62.2451 -2.10176 2.81991 0
M  V30 612 H 62.1191 -3.39601 1.64168 0
M  V30 613 H 64.5061 -2.83338 0.824855 0
M  V30 614 H 64.5871 -1.54706 2.03715 0
M  V30 615 H 64.2311 -3.28558 3.87314 0
M  V30 616 H 64.1611 -4.5613 2.6316 0
M  V30 617 H 66.6521 -3.05289 2.22727 0
M  V30 618 H 66.9651 -5.85411 5.04493 0
M  V30 619 H 65.3101 -5.2693 4.53178 0
M  V30 620 H 68.5011 -3.7313 2.82651 0
M  V30 621 H 68.6741 -5.00883 4.11121 0
M  V30 622 N 62.0802 -0.821533 -1.34494 0
M  V30 623 C 62.9902 -0.244355 -2.33324 0
M  V30 624 C 64.0062 0.620527 -1.62559 0
M  V30 625 O 65.1822 0.528754 -1.94335 0
M  V30 626 C 62.2472 0.585368 -3.41723 0
M  V30 627 C 61.3082 -0.301752 -4.28238 0
M  V30 628 C 60.5412 0.488466 -5.3146 0
M  V30 629 O 60.7642 1.72186 -5.4379 0
M  V30 630 O 59.6982 -0.12848 -6.01763 0
M  V30 631 H 63.5242 -1.06231 -2.84515 0
M  V30 632 H 61.1092 -0.583645 -1.37528 0
M  V30 633 H 62.9912 1.05747 -4.07916 0
M  V30 634 H 61.6662 1.38068 -2.92778 0
M  V30 635 H 60.5732 -0.821315 -3.64973 0
M  V30 636 H 61.9062 -1.06138 -4.8062 0
M  V30 637 N 63.5583 1.46682 -0.576371 0
M  V30 638 C 64.7863 2.06798 -0.0649635 0
M  V30 639 C 65.2013 1.42612 1.23723 0
M  V30 640 O 64.5583 0.529203 1.74659 0
M  V30 641 C 64.6093 3.6132 0.114202 0
M  V30 642 O 64.3303 4.23104 -1.13644 0
M  V30 643 C 65.8313 4.38349 0.66069 0
M  V30 644 H 63.0513 0.668778 -0.0545616 0
M  V30 645 H 65.5953 1.88404 -0.795237 0
M  V30 646 H 63.7503 3.79162 0.794673 0
M  V30 647 H 64.1643 5.15894 -0.946253 0
M  V30 648 H 65.6383 5.47081 0.73526 0
M  V30 649 H 66.1153 4.05953 1.67627 0
M  V30 650 H 66.7213 4.25297 0.0152951 0
M  V30 651 N 65.0364 0.313813 1.54444 0
M  V30 652 C 65.9994 -0.54379 2.22656 0
M  V30 653 C 66.9994 -1.05124 1.21678 0
M  V30 654 O 68.1894 -0.945225 1.46325 0
M  V30 655 C 65.3214 -1.75427 2.92298 0
M  V30 656 H 66.5144 0.0523599 2.99854 0
M  V30 657 H 64.0674 0.0647834 1.56166 0
M  V30 658 H 64.8024 -2.38991 2.19211 0
M  V30 659 H 64.5874 -1.39791 3.66334 0
M  V30 660 H 66.0774 -2.36325 3.44297 0
M  V30 661 N 66.5145 -1.57545 0.0417849 0
M  V30 662 C 67.9255 -1.80011 -0.495259 0
M  V30 663 C 68.2765 -0.953199 -1.71489 0
M  V30 664 O 67.4015 -0.167138 -2.15754 0
M  V30 665 C 67.9965 -3.26482 -0.905265 0
M  V30 666 C 66.5555 -3.499 -1.38734 0
M  V30 667 C 65.7025 -2.74979 -0.358056 0
M  V30 668 H 68.6535 -1.56425 0.267736 0
M  V30 669 H 68.6745 -3.36887 -1.76882 0
M  V30 670 H 68.1865 -3.88096 -0.017401 0
M  V30 671 H 66.2875 -2.93553 -2.29471 0
M  V30 672 H 66.4005 -4.58615 -1.38598 0
M  V30 673 H 64.7645 -2.40834 -0.828912 0
M  V30 674 H 65.5475 -3.39315 0.521561 0
M  V30 675 N 67.9926 0.231505 -1.5589 0
M  V30 676 C 68.9246 1.31006 -1.8807 0
M  V30 677 C 69.9376 1.43539 -0.768145 0
M  V30 678 O 71.1266 1.44614 -1.04638 0
M  V30 679 C 68.2266 2.68688 -2.06543 0
M  V30 680 C 67.3996 2.78228 -3.37502 0
M  V30 681 C 66.4586 3.96857 -3.4553 0
M  V30 682 O 65.4846 3.85662 -4.18633 0
M  V30 683 N 66.6866 5.1072 -2.75944 0
M  V30 684 H 69.4516 1.03731 -2.81176 0
M  V30 685 H 67.0126 0.421573 -1.56315 0
M  V30 686 H 69.0046 3.46412 -2.09239 0
M  V30 687 H 67.5746 2.88605 -1.20109 0
M  V30 688 H 66.7946 1.87059 -3.46991 0
M  V30 689 H 68.0826 2.81564 -4.23791 0
M  V30 690 H 67.4806 5.2271 -2.16311 0
M  V30 691 H 66.0376 5.86523 -2.84314 0
M  V30 692 N 69.4707 1.49531 0.497807 0
M  V30 693 C 70.7477 1.49682 1.25915 0
M  V30 694 C 71.1277 0.226339 2.09883 0
M  V30 695 O 70.4757 -0.791189 2.14365 0
M  V30 696 C 70.6857 2.77755 2.11313 0
M  V30 697 C 72.0337 3.27371 2.70395 0
M  V30 698 O 73.0577 2.78894 2.21578 0
M  V30 699 O 71.9167 4.11808 3.59272 0
M  V30 700 H 69.0107 0.599228 0.56996 0
M  V30 701 H 71.5567 1.61798 0.511816 0
M  V30 702 H 70.3287 3.61713 1.49264 0
M  V30 703 H 69.9517 2.68515 2.93233 0
M  V30 704 N 70.9488 -0.749086 1.3866 0
M  V30 705 C 72.1948 -1.51056 1.35314 0
M  V30 706 C 72.5278 -1.94121 -0.0553751 0
M  V30 707 O 71.8028 -1.65763 -1.01749 0
M  V30 708 C 72.0858 -2.76003 2.31288 0
M  V30 709 C 71.9388 -2.39047 3.8102 0
M  V30 710 C 73.2578 -3.78046 2.2532 0
M  V30 711 H 70.3768 -0.547972 0.492844 0
M  V30 712 H 73.0188 -0.857628 1.69543 0
M  V30 713 H 71.1688 -3.31716 2.02229 0
M  V30 714 H 72.8408 -1.89074 4.20771 0
M  V30 715 H 71.0838 -1.71449 3.98482 0
M  V30 716 H 71.7548 -3.28462 4.4364 0
M  V30 717 H 74.2308 -3.31884 2.50983 0
M  V30 718 H 73.1068 -4.63159 2.94576 0
M  V30 719 H 73.3678 -4.23957 1.25352 0
M  V30 720 N 72.4269 -1.23603 -0.977757 0
M  V30 721 C 73.6759 -1.06377 -1.71368 0
M  V30 722 C 73.9889 0.399062 -1.91486 0
M  V30 723 O 75.1949 0.691312 -2.62551 0
M  V30 724 C 73.6509 -1.85512 -3.08404 0
M  V30 725 C 73.2589 -3.36141 -2.96164 0
M  V30 726 C 75.0029 -1.76783 -3.85938 0
M  V30 727 C 72.9099 -4.07659 -4.28449 0
M  V30 728 H 71.8399 -0.394452 -0.642591 0
M  V30 729 H 74.4909 -1.47594 -1.09034 0
M  V30 730 H 72.8729 -1.37103 -3.71509 0
M  V30 731 H 74.0469 -3.92056 -2.42133 0
M  V30 732 H 72.3619 -3.45712 -2.32104 0
M  V30 733 H 74.9589 -2.27526 -4.83876 0
M  V30 734 H 75.3019 -0.731116 -4.0983 0
M  V30 735 H 75.8349 -2.22818 -3.2954 0
M  V30 736 H 72.5739 -5.11648 -4.09752 0
M  V30 737 H 72.0939 -3.5653 -4.82334 0
M  V30 738 H 73.7729 -4.141 -4.97122 0
M  V30 739 N 73.905 1.17692 -1.04816 0
M  V30 740 C 75.182 1.83768 -0.669963 0
M  V30 741 C 75.562 1.93232 0.849986 0
M  V30 742 O 74.91 1.46397 1.75443 0
M  V30 743 C 75.12 3.21641 -1.35455 0
M  V30 744 C 76.468 3.97592 -1.49017 0
M  V30 745 O 77.492 3.31107 -1.31326 0
M  V30 746 O 76.351 5.16729 -1.77914 0
M  V30 747 H 73.445 0.792799 -0.235368 0
M  V30 748 H 75.991 1.25021 -1.14751 0
M  V30 749 H 74.763 3.097 -2.39168 0
M  V30 750 H 74.386 3.88052 -0.866107 0
M  V30 751 N 75.3831 0.828654 1.34056 0
M  V30 752 C 76.6311 0.41863 1.97717 0
M  V30 753 C 76.9521 -1.02314 1.66002 0
M  V30 754 O 76.2221 -1.71119 0.953683 0
M  V30 755 H 74.8021 0.151809 0.731412 0
M  V30 756 H 77.4641 1.05936 1.63596 0
M  V30 757 H 76.5601 0.542318 3.07352 0
M  V30 758 N 76.8612 -1.46375 0.584142 0
M  V30 759 C 77.7932 -2.28443 -0.186119 0
M  V30 760 C 78.8062 -1.38596 -0.854115 0
M  V30 761 O 79.9952 -1.63183 -0.723438 0
M  V30 762 C 77.0952 -3.13671 -1.28311 0
M  V30 763 C 76.2682 -4.31652 -0.706758 0
M  V30 764 C 75.3272 -4.98267 -1.69163 0
M  V30 765 O 74.3532 -5.55815 -1.22712 0
M  V30 766 N 75.5552 -4.95408 -3.02575 0
M  V30 767 H 78.3202 -2.9519 0.517986 0
M  V30 768 H 75.8812 -1.56303 0.42201 0
M  V30 769 H 77.8732 -3.55101 -1.94128 0
M  V30 770 H 76.4432 -2.48989 -1.89005 0
M  V30 771 H 75.6632 -3.93989 0.128908 0
M  V30 772 H 76.9512 -5.07906 -0.301506 0
M  V30 773 H 76.3492 -4.49902 -3.42936 0
M  V30 774 H 74.9062 -5.40774 -3.63877 0
M  V30 775 N 78.3393 -0.321999 -1.54275 0
M  V30 776 C 79.6163 0.335232 -1.92706 0
M  V30 777 C 79.9963 1.70006 -1.25145 0
M  V30 778 O 79.3443 2.25067 -0.394596 0
M  V30 779 C 79.5543 0.429008 -3.46353 0
M  V30 780 C 80.9023 0.690029 -4.18956 0
M  V30 781 O 81.9263 0.511992 -3.52501 0
M  V30 782 O 80.7853 1.03338 -5.36641 0
M  V30 783 H 77.8793 0.191143 -0.804608 0
M  V30 784 H 80.4253 -0.3716 -1.65581 0
M  V30 785 H 79.1973 -0.529611 -3.87699 0
M  V30 786 H 78.8203 1.18348 -3.79578 0
M  V30 787 N 79.8174 1.5752 -0.0501392 0
M  V30 788 C 80.7804 2.1037 0.909786 0
M  V30 789 C 81.7804 1.02308 1.24056 0
M  V30 790 O 82.9704 1.28385 1.17741 0
M  V30 791 C 80.1024 2.58708 2.21998 0
M  V30 792 H 81.2954 2.96479 0.451665 0
M  V30 793 H 78.8484 1.55038 0.198248 0
M  V30 794 H 79.5834 1.75989 2.72394 0
M  V30 795 H 79.3684 3.37675 1.99295 0
M  V30 796 H 80.8584 2.99747 2.9076 0
M  V30 797 N 81.2955 -0.223234 1.56011 0
M  V30 798 C 82.5415 -0.944891 1.8012 0
M  V30 799 C 82.8965 -1.82039 0.622862 0
M  V30 800 O 82.1895 -1.8773 -0.383143 0
M  V30 801 C 82.3835 -1.81948 3.0762 0
M  V30 802 C 82.2125 -1.03014 4.37742 0
M  V30 803 C 80.9825 -0.72574 5.00061 0
M  V30 804 C 83.1805 -0.396256 5.12771 0
M  V30 805 N 81.1625 0.0851816 6.13841 0
M  V30 806 C 82.5335 0.278137 6.19376 0
M  V30 807 C 84.5885 -0.309117 4.9694 0
M  V30 808 C 83.2915 1.03133 7.11868 0
M  V30 809 C 85.3175 0.430607 5.8983 0
M  V30 810 C 84.6795 1.09355 6.9586 0
M  V30 811 H 80.7785 -0.326081 0.710771 0
M  V30 812 H 83.3625 -0.215914 1.93499 0
M  V30 813 H 81.5335 -2.52029 2.95527 0
M  V30 814 H 83.2655 -2.47848 3.19927 0
M  V30 815 H 80.0205 -1.04335 4.61964 0
M  V30 816 H 80.4445 0.479428 6.753 0
M  V30 817 H 85.0865 -0.807313 4.15021 0
M  V30 818 H 82.8045 1.54105 7.9327 0
M  V30 819 H 86.3905 0.499012 5.79656 0
M  V30 820 H 85.2705 1.65679 7.66499 0
M  V30 821 N 82.7736 -1.49793 -0.48987 0
M  V30 822 C 83.7206 -1.67281 -1.59014 0
M  V30 823 C 84.6906 -0.514177 -1.57941 0
M  V30 824 O 85.8756 -0.742533 -1.75759 0
M  V30 825 C 83.0156 -1.75569 -2.97102 0
M  V30 826 C 82.1286 -3.0281 -3.08107 0
M  V30 827 C 81.2636 -3.02008 -4.36995 0
M  V30 828 C 80.3026 -4.23782 -4.41673 0
M  V30 829 N 79.4396 -4.20826 -5.62005 0
M  V30 830 H 84.2796 -2.61224 -1.43409 0
M  V30 831 H 81.8166 -1.29508 -0.697565 0
M  V30 832 H 83.7746 -1.78354 -3.77155 0
M  V30 833 H 82.4046 -0.850827 -3.11385 0
M  V30 834 H 81.4566 -3.09584 -2.21047 0
M  V30 835 H 82.7686 -3.92801 -3.07423 0
M  V30 836 H 81.9226 -3.03418 -5.25378 0
M  V30 837 H 80.6616 -2.09815 -4.4026 0
M  V30 838 H 79.6666 -4.22604 -3.5169 0
M  V30 839 H 80.8916 -5.17181 -4.40115 0
M  V30 840 H 78.8376 -3.31476 -5.66091 0
M  V30 841 H 78.7546 -5.04564 -5.62984 0
M  V30 842 H 80.0226 -4.26355 -6.52565 0
M  V30 843 N 84.2517 0.741722 -1.39055 0
M  V30 844 C 85.2147 1.83733 -1.37021 0
M  V30 845 C 86.2147 1.58542 -0.268534 0
M  V30 846 O 87.4047 1.66067 -0.526076 0
M  V30 847 C 84.5367 3.2141 -1.13617 0
M  V30 848 H 85.7297 1.86941 -2.34506 0
M  V30 849 H 83.2827 0.944676 -1.24521 0
M  V30 850 H 84.0177 3.23865 -0.167863 0
M  V30 851 H 83.8027 3.4109 -1.93391 0
M  V30 852 H 85.2927 4.01477 -1.14918 0
M  V30 853 N 85.7298 1.2412 0.971189 0
M  V30 854 C 86.6778 1.02812 2.08644 0
M  V30 855 C 87.6718 -0.0358403 1.69362 0
M  V30 856 O 88.8778 0.118429 1.7961 0
M  V30 857 H 85.2528 0.315428 0.682649 0
M  V30 858 H 87.2238 1.97397 2.23779 0
M  V30 859 C 85.9728 0.645874 3.41649 0
M  V30 860 H 85.2958 1.45632 3.72332 0
M  V30 861 H 86.7358 0.536366 4.20594 0
M  V30 862 C 85.1948 -0.646713 3.30635 0
M  V30 863 O 85.7248 -1.69338 3.64263 0
M  V30 864 N 83.9308 -0.626115 2.83775 0
M  V30 865 H 83.4778 0.225988 2.56607 0
M  V30 866 H 83.4358 -1.49117 2.76788 0
M  V30 867 N 87.2079 -1.17134 1.05439 0
M  V30 868 C 88.4569 -1.86791 0.761049 0
M  V30 869 C 88.7699 -1.82072 -0.714795 0
M  V30 870 O 89.9759 -2.47223 -1.12218 0
M  V30 871 C 88.4319 -3.35166 1.31117 0
M  V30 872 C 88.0399 -3.48381 2.81664 0
M  V30 873 C 89.7839 -4.10134 1.09499 0
M  V30 874 C 87.6909 -4.90793 3.29964 0
M  V30 875 H 86.6209 -0.699681 0.281002 0
M  V30 876 H 89.2719 -1.3226 1.27199 0
M  V30 877 H 87.6539 -3.8925 0.72803 0
M  V30 878 H 88.8279 -3.04502 3.45855 0
M  V30 879 H 87.1429 -2.86836 3.01851 0
M  V30 880 H 89.7399 -5.152 1.43084 0
M  V30 881 H 90.0829 -4.16287 0.0328772 0
M  V30 882 H 90.6159 -3.62264 1.64346 0
M  V30 883 H 87.3549 -4.89816 4.35616 0
M  V30 884 H 86.8749 -5.35333 2.70516 0
M  V30 885 H 88.5539 -5.59573 3.24787 0
M  V30 886 N 88.686 -0.835752 -1.33615 0
M  V30 887 C 89.596 -0.269088 -2.33052 0
M  V30 888 C 90.612 0.603251 -1.63208 0
M  V30 889 O 91.788 0.508112 -1.94885 0
M  V30 890 C 88.853 0.549091 -3.42324 0
M  V30 891 C 87.914 -0.347156 -4.27894 0
M  V30 892 C 87.147 0.43207 -5.31948 0
M  V30 893 O 87.37 1.66409 -5.45586 0
M  V30 894 O 86.304 -0.192298 -6.01593 0
M  V30 895 H 90.13 -1.09243 -2.83372 0
M  V30 896 H 87.715 -0.598198 -1.36901 0
M  V30 897 H 89.597 1.01414 -4.09015 0
M  V30 898 H 88.272 1.34955 -2.94226 0
M  V30 899 H 87.179 -0.859979 -3.64081 0
M  V30 900 H 88.512 -1.1123 -4.79467 0
M  V30 901 N 90.1641 1.46063 -0.591896 0
M  V30 902 C 91.1271 2.28854 0.125973 0
M  V30 903 C 92.1271 1.38903 0.810107 0
M  V30 904 O 93.3171 1.61186 0.66066 0
M  V30 905 C 90.4491 3.19526 1.1881 0
M  V30 906 H 91.6421 2.93802 -0.601717 0
M  V30 907 H 89.1951 1.52325 -0.350254 0
M  V30 908 H 89.9301 2.59345 1.94707 0
M  V30 909 H 89.7151 3.85766 0.701936 0
M  V30 910 H 91.2051 3.81817 1.69132 0
M  V30 911 N 91.6422 0.330177 1.54103 0
M  V30 912 C 92.5752 -0.575477 2.20825 0
M  V30 913 C 93.5532 -1.11064 1.18758 0
M  V30 914 O 94.7372 -1.17341 1.47524 0
M  V30 915 C 91.8642 -1.79032 2.87516 0
M  V30 916 C 90.9102 -1.38581 4.03358 0
M  V30 917 S 91.7432 -0.416911 5.33875 0
M  V30 918 C 92.8992 -1.63889 6.04062 0
M  V30 919 H 93.1322 -0.00872114 2.97299 0
M  V30 920 H 90.6652 0.114254 1.53977 0
M  V30 921 H 92.6232 -2.48734 3.2656 0
M  V30 922 H 91.2842 -2.32827 2.10832 0
M  V30 923 H 90.4772 -2.29123 4.48908 0
M  V30 924 H 90.0792 -0.768419 3.66021 0
M  V30 925 H 92.3712 -2.57536 6.26643 0
M  V30 926 H 93.3142 -1.22542 6.97416 0
M  V30 927 H 93.7222 -1.82887 5.34053 0
M  V30 928 N 93.1203 -1.57491 0.0584922 0
M  V30 929 C 94.0673 -2.11958 -0.913376 0
M  V30 930 C 95.0373 -1.02875 -1.30407 0
M  V30 931 O 96.2223 -1.30464 -1.39226 0
M  V30 932 C 93.3623 -2.67497 -2.18035 0
M  V30 933 C 92.4753 -3.90691 -1.84349 0
M  V30 934 C 91.6103 -4.3452 -3.05559 0
M  V30 935 C 90.6493 -5.50395 -2.67827 0
M  V30 936 N 89.7863 -5.89244 -3.81754 0
M  V30 937 H 94.6263 -2.94704 -0.442017 0
M  V30 938 H 92.1633 -1.45643 -0.206545 0
M  V30 939 H 94.1213 -2.978 -2.92183 0
M  V30 940 H 92.7513 -1.87537 -2.62735 0
M  V30 941 H 91.8033 -3.66934 -1.00319 0
M  V30 942 H 93.1153 -4.7489 -1.5258 0
M  V30 943 H 92.2693 -4.66414 -3.87998 0
M  V30 944 H 91.0083 -3.49147 -3.40511 0
M  V30 945 H 90.0133 -5.18165 -1.83806 0
M  V30 946 H 91.2383 -6.3749 -2.34059 0
M  V30 947 H 89.1843 -5.06823 -4.16493 0
M  V30 948 H 89.1013 -6.68151 -3.53708 0
M  V30 949 H 90.3693 -6.25756 -4.64811 0
M  V30 950 N 94.5984 0.214957 -1.56127 0
M  V30 951 C 95.8754 0.963093 -1.70247 0
M  V30 952 C 96.2554 2.02166 -0.60764 0
M  V30 953 O 95.6034 2.25244 0.384385 0
M  V30 954 C 95.8134 1.56756 -3.11815 0
M  V30 955 C 97.1614 2.0573 -3.7143 0
M  V30 956 O 98.1854 1.66637 -3.14818 0
M  V30 957 O 97.0444 2.77603 -4.70743 0
M  V30 958 H 94.1384 0.450321 -0.693643 0
M  V30 959 H 96.6844 0.206219 -1.68442 0
M  V30 960 H 95.4564 0.803533 -3.82961 0
M  V30 961 H 95.0794 2.3898 -3.17765 0
M  V30 962 N 96.0765 1.50051 0.48192 0
M  V30 963 C 97.3225 1.60736 1.2366 0
M  V30 964 C 97.6555 0.301786 1.91841 0
M  V30 965 O 96.9305 -0.696025 1.8162 0
M  V30 966 C 97.2135 2.78009 2.28874 0
M  V30 967 C 97.0665 4.18416 1.65069 0
M  V30 968 C 98.3855 2.90867 3.30279 0
M  V30 969 H 95.5045 0.585031 0.448228 0
M  V30 970 H 98.1465 1.82402 0.531946 0
M  V30 971 H 96.2965 2.59667 2.88973 0
M  V30 972 H 97.9685 4.48322 1.0865 0
M  V30 973 H 96.2115 4.23177 0.954148 0
M  V30 974 H 96.8825 4.96381 2.41474 0
M  V30 975 H 99.3585 3.07623 2.80191 0
M  V30 976 H 98.2345 3.74566 4.01238 0
M  V30 977 H 98.4955 2.01021 3.93755 0
M  V30 978 N 97.5546 -0.734337 1.39446 0
M  V30 979 C 98.9656 -1.31264 1.32766 0
M  V30 980 C 99.3166 -1.96198 -0.00767497 0
M  V30 981 O 98.4416 -1.96346 -0.909796 0
M  V30 982 C 99.0366 -2.38682 2.4045 0
M  V30 983 C 97.5956 -2.92184 2.37288 0
M  V30 984 C 96.7426 -1.6576 2.22304 0
M  V30 985 H 99.6936 -0.531799 1.49525 0
M  V30 986 H 99.7146 -3.19087 2.07276 0
M  V30 987 H 99.2266 -1.91392 3.37625 0
M  V30 988 H 97.3276 -3.43752 1.43754 0
M  V30 989 H 97.4406 -3.45253 3.3217 0
M  V30 990 H 95.8046 -1.9012 1.69489 0
M  V30 991 H 96.5876 -1.20521 3.21449 0
M  V30 992 N 99.0327 -1.24633 -0.964593 0
M  V30 993 C 99.9427 -1.05859 -2.09359 0
M  V30 994 C 100.959 0.00148855 -1.74 0
M  V30 995 O 102.135 -0.197346 -2.00431 0
M  V30 996 C 99.1997 -0.668879 -3.40187 0
M  V30 997 C 98.2607 -1.80578 -3.89474 0
M  V30 998 C 97.4937 -1.43457 -5.14058 0
M  V30 999 O 97.7167 -0.325775 -5.69469 0
M  V30 1000 O 96.6507 -2.2613 -5.57807 0
M  V30 1001 H 100.477 -2.00516 -2.28094 0
M  V30 1002 H 98.0617 -1.03481 -1.0776 0
M  V30 1003 H 99.9437 -0.463211 -4.18846 0
M  V30 1004 H 98.6187 0.248536 -3.22744 0
M  V30 1005 H 97.5257 -2.06623 -3.11862 0
M  V30 1006 H 98.8587 -2.70208 -4.11398 0
M  V30 1007 N 100.511 1.16574 -1.06058 0
M  V30 1008 C 101.474 2.19085 -0.673392 0
M  V30 1009 C 102.474 1.5835 0.279648 0
M  V30 1010 O 103.664 1.74088 0.0623488 0
M  V30 1011 C 100.796 3.40899 0.00954234 0
M  V30 1012 H 101.989 2.54853 -1.58081 0
M  V30 1013 H 99.5418 1.30808 -0.855516 0
M  V30 1014 H 100.277 3.10684 0.929826 0
M  V30 1015 H 100.062 3.86233 -0.67573 0
M  V30 1016 H 101.552 4.1675 0.266245 0
M  V30 1017 N 101.989 0.842826 1.3317 0
M  V30 1018 C 103.217 0.454055 2.01856 0
M  V30 1019 C 103.632 -0.94587 1.63397 0
M  V30 1020 O 102.989 -1.61534 0.849302 0
M  V30 1021 C 103.04 0.569715 3.56982 0
M  V30 1022 O 102.761 1.91448 3.94055 0
M  V30 1023 C 104.262 0.178412 4.42941 0
M  V30 1024 H 101.482 0.17979 0.646465 0
M  V30 1025 H 104.026 1.1365 1.70012 0
M  V30 1026 H 102.181 -0.0648587 3.87346 0
M  V30 1027 H 102.595 1.90282 4.88767 0
M  V30 1028 H 104.069 0.310376 5.51127 0
M  V30 1029 H 104.546 -0.880056 4.30293 0
M  V30 1030 H 105.152 0.787579 4.17944 0
M  V30 1031 N 103.467 -1.45747 0.599634 0
M  V30 1032 C 104.878 -1.85853 0.177681 0
M  V30 1033 C 105.229 -1.50102 -1.26348 0
M  V30 1034 O 104.354 -0.923905 -1.95686 0
M  V30 1035 C 104.949 -3.37326 0.315688 0
M  V30 1036 C 103.508 -3.76365 -0.0515144 0
M  V30 1037 C 102.655 -2.69722 0.643822 0
M  V30 1038 H 105.606 -1.36661 0.806814 0
M  V30 1039 H 105.627 -3.77778 -0.454321 0
M  V30 1040 H 105.139 -3.63315 1.36468 0
M  V30 1041 H 103.24 -3.55993 -1.09999 0
M  V30 1042 H 103.353 -4.77916 0.336594 0
M  V30 1043 H 101.717 -2.54567 0.0822881 0
M  V30 1044 H 102.5 -2.98549 1.6948 0
M  V30 1045 N 104.945 -0.338344 -1.53925 0
M  V30 1046 C 105.908 0.508299 -2.23493 0
M  V30 1047 C 106.908 1.03175 -1.23335 0
M  V30 1048 O 108.098 0.921826 -1.47811 0
M  V30 1049 C 105.23 1.70754 -2.95052 0
M  V30 1050 H 106.423 -0.100058 -2.99733 0
M  V30 1051 H 103.976 -0.0896198 -1.56043 0
M  V30 1052 H 104.711 2.35474 -2.22986 0
M  V30 1053 H 104.496 1.33946 -3.68512 0
M  V30 1054 H 105.986 2.30818 -3.48013 0
M  V30 1055 N 106.423 1.57458 -0.0668435 0
M  V30 1056 C 107.7 1.8469 0.644132 0
M  V30 1057 C 108.08 0.958343 1.88093 0
M  V30 1058 O 107.428 0.0233579 2.28488 0
M  V30 1059 C 107.638 3.34767 0.986509 0
M  V30 1060 C 108.986 4.02159 1.36212 0
M  V30 1061 O 110.01 3.39484 1.07839 0
M  V30 1062 O 108.869 5.12694 1.89227 0
M  V30 1063 H 105.963 0.762816 0.319437 0
M  V30 1064 H 108.509 1.6942 -0.0973986 0
M  V30 1065 H 107.281 3.91151 0.107883 0
M  V30 1066 H 106.904 3.55281 1.78497 0
M  V30 1067 N 107.901 -0.206675 1.56239 0
M  V30 1068 C 108.831 -1.25909 1.96645 0
M  V30 1069 C 109.812 -1.48097 0.836734 0
M  V30 1070 O 110.997 -1.6003 1.10019 0
M  V30 1071 C 108.127 -2.6058 2.29599 0
M  V30 1072 C 107.081 -2.53024 3.452 0
M  V30 1073 C 106.407 -3.91861 3.63798 0
M  V30 1074 C 107.707 -2.06524 4.79734 0
M  V30 1075 H 109.401 -0.923369 2.84806 0
M  V30 1076 H 106.947 -0.442735 1.37025 0
M  V30 1077 H 108.9 -3.34375 2.56459 0
M  V30 1078 H 107.624 -2.95869 1.38307 0
M  V30 1079 H 106.283 -1.81684 3.18412 0
M  V30 1080 H 105.931 -4.24483 2.69857 0
M  V30 1081 H 105.631 -3.87683 4.4156 0
M  V30 1082 H 107.155 -4.67296 3.93022 0
M  V30 1083 H 108.569 -2.70072 5.05702 0
M  V30 1084 H 106.966 -2.13374 5.60885 0
M  V30 1085 H 108.036 -1.01802 4.74093 0
M  V30 1086 N 109.379 -1.50304 -0.473955 0
M  V30 1087 C 110.289 -1.7174 -1.5982 0
M  V30 1088 C 111.305 -0.600457 -1.63311 0
M  V30 1089 O 112.481 -0.878441 -1.81233 0
M  V30 1090 C 109.546 -1.80427 -2.96052 0
M  V30 1091 C 108.607 -3.04148 -3.02972 0
M  V30 1092 C 107.84 -3.12411 -4.32706 0
M  V30 1093 O 108.063 -2.27542 -5.23049 0
M  V30 1094 O 106.997 -4.05113 -4.45159 0
M  V30 1095 H 110.823 -2.67035 -1.44657 0
M  V30 1096 H 108.408 -1.34366 -0.653148 0
M  V30 1097 H 110.29 -1.88338 -3.7697 0
M  V30 1098 H 108.965 -0.883156 -3.11419 0
M  V30 1099 H 107.872 -3.0174 -2.21142 0
M  V30 1100 H 109.205 -3.95829 -2.92541 0
M  V30 1101 N 110.857 0.726932 -1.39834 0
M  V30 1102 C 112.103 1.48771 -1.38704 0
M  V30 1103 C 112.458 1.92394 0.0146387 0
M  V30 1104 O 111.751 1.64474 0.982797 0
M  V30 1105 C 111.945 2.73495 -2.30077 0
M  V30 1106 C 111.774 2.42068 -3.78989 0
M  V30 1107 C 110.544 2.33966 -4.4787 0
M  V30 1108 C 112.742 2.0708 -4.70768 0
M  V30 1109 N 110.724 1.95095 -5.82075 0
M  V30 1110 C 112.095 1.78719 -5.93683 0
M  V30 1111 C 114.15 1.93618 -4.58712 0
M  V30 1112 C 112.853 1.3825 -7.05889 0
M  V30 1113 C 114.879 1.54553 -5.70848 0
M  V30 1114 C 114.241 1.27082 -6.92842 0
M  V30 1115 H 110.34 0.542919 -0.562817 0
M  V30 1116 H 112.924 0.84408 -1.75452 0
M  V30 1117 H 111.095 3.35625 -1.95474 0
M  V30 1118 H 112.827 3.39755 -2.19883 0
M  V30 1119 H 109.582 2.51331 -4.0141 0
M  V30 1120 H 110.006 1.7823 -6.53118 0
M  V30 1121 H 114.648 2.13522 -3.64922 0
M  V30 1122 H 112.366 1.17088 -7.99572 0
M  V30 1123 H 115.952 1.44731 -5.6351 0
M  V30 1124 H 114.832 0.973069 -7.78139 0
M  V30 1125 N 112.336 1.25143 0.95797 0
M  V30 1126 C 113.299 1.05321 2.03569 0
M  V30 1127 C 114.299 0.007152 1.60798 0
M  V30 1128 O 115.489 0.24903 1.72411 0
M  V30 1129 C 112.621 0.598394 3.35607 0
M  V30 1130 H 113.814 2.00986 2.22586 0
M  V30 1131 H 111.367 1.07502 1.13459 0
M  V30 1132 H 112.102 -0.361014 3.22284 0
M  V30 1133 H 111.887 1.35351 3.67998 0
M  V30 1134 H 113.377 0.48104 4.1482 0
M  V30 1135 N 113.814 -1.1601 1.06675 0
M  V30 1136 C 114.724 -2.24156 0.692179 0
M  V30 1137 C 115.74 -1.71507 -0.293513 0
M  V30 1138 O 116.916 -2.009 -0.141861 0
M  V30 1139 C 113.981 -3.46587 0.0884131 0
M  V30 1140 C 113.042 -4.14257 1.12646 0
M  V30 1141 C 112.275 -5.30844 0.551416 0
M  V30 1142 O 112.498 -5.66858 -0.634656 0
M  V30 1143 O 111.432 -5.87848 1.29298 0
M  V30 1144 H 115.258 -2.58513 1.59388 0
M  V30 1145 H 112.843 -1.23599 0.83926 0
M  V30 1146 H 114.725 -4.20679 -0.246361 0
M  V30 1147 H 113.4 -3.13994 -0.786712 0
M  V30 1148 H 112.307 -3.42118 1.51348 0
M  V30 1149 H 113.64 -4.50914 1.97325 0
M  V30 1150 N 115.292 -0.849877 -1.32721 0
M  V30 1151 C 116.255 -0.296122 -2.27279 0
M  V30 1152 C 117.255 0.541458 -1.5141 0
M  V30 1153 O 118.445 0.353658 -1.70572 0
M  V30 1154 C 115.577 0.581579 -3.35902 0
M  V30 1155 H 116.77 -1.13064 -2.77771 0
M  V30 1156 H 114.323 -0.62383 -1.43311 0
M  V30 1157 H 115.058 1.43809 -2.9067 0
M  V30 1158 H 114.843 -0.0178814 -3.92096 0
M  V30 1159 H 116.333 0.961951 -4.0637 0
M  V30 1160 N 116.77 1.45427 -0.607355 0
M  V30 1161 C 118.019 2.01452 -0.100036 0
M  V30 1162 C 118.332 1.48159 1.27704 0
M  V30 1163 O 119.538 1.96159 1.87707 0
M  V30 1164 C 117.994 3.59672 -0.128158 0
M  V30 1165 C 117.602 4.21962 -1.50507 0
M  V30 1166 C 119.346 4.23262 0.323932 0
M  V30 1167 C 117.253 5.72333 -1.48959 0
M  V30 1168 H 116.183 0.75325 -0.0336299 0
M  V30 1169 H 118.834 1.66901 -0.76265 0
M  V30 1170 H 117.216 3.91411 0.601105 0
M  V30 1171 H 118.39 4.01796 -2.25602 0
M  V30 1172 H 116.705 3.70565 -1.89923 0
M  V30 1173 H 119.302 5.33522 0.354691 0
M  V30 1174 H 119.645 3.93921 1.34656 0
M  V30 1175 H 120.178 3.96239 -0.352056 0
M  V30 1176 H 116.917 6.06373 -2.48981 0
M  V30 1177 H 116.437 5.94691 -0.781214 0
M  V30 1178 H 118.116 6.35525 -1.21313 0
M  V30 1179 N 118.248 0.346503 1.53744 0
M  V30 1180 C 119.494 -0.249473 2.0126 0
M  V30 1181 C 119.827 -1.49965 1.23386 0
M  V30 1182 O 119.102 -1.91811 0.32229 0
M  V30 1183 C 119.385 -0.560643 3.55709 0
M  V30 1184 C 119.238 0.701836 4.44291 0
M  V30 1185 C 120.557 -1.36905 4.18264 0
M  V30 1186 H 117.676 -0.0891987 0.731582 0
M  V30 1187 H 120.318 0.467624 1.84156 0
M  V30 1188 H 118.468 -1.17156 3.70414 0
M  V30 1189 H 120.14 1.33974 4.41417 0
M  V30 1190 H 118.383 1.32612 4.13033 0
M  V30 1191 H 119.054 0.43933 5.50249 0
M  V30 1192 H 121.53 -0.852448 4.07275 0
M  V30 1193 H 120.406 -1.55553 5.26398 0
M  V30 1194 H 120.667 -2.37203 3.73078 0
M  V30 1195 N 119.726 -1.57421 0.075193 0
M  V30 1196 C 120.973 -1.93618 -0.593146 0
M  V30 1197 C 121.301 -0.955484 -1.69413 0
M  V30 1198 O 120.556 0.0283251 -1.9568 0
M  V30 1199 C 120.855 -3.36428 -1.20626 0
M  V30 1200 C 120.521 -4.50307 -0.231078 0
M  V30 1201 C 119.183 -4.81186 0.0371936 0
M  V30 1202 C 121.535 -5.19374 0.435888 0
M  V30 1203 C 118.863 -5.78466 0.979461 0
M  V30 1204 C 121.215 -6.17665 1.3665 0
M  V30 1205 C 119.879 -6.46958 1.6432 0
M  V30 1206 H 119.149 -0.708499 -0.217047 0
M  V30 1207 H 121.796 -1.90937 0.146793 0
M  V30 1208 H 120.101 -3.35592 -2.02201 0
M  V30 1209 H 121.798 -3.61727 -1.73073 0
M  V30 1210 H 118.388 -4.26227 -0.450357 0
M  V30 1211 H 122.572 -4.95711 0.241748 0
M  V30 1212 H 117.828 -5.99487 1.20106 0
M  V30 1213 H 122.002 -6.70284 1.88924 0
M  V30 1214 H 119.629 -7.2215 2.37494 0
M  V30 1215 N 121.204 0.198386 -1.56346 0
M  V30 1216 C 122.429 0.939682 -1.84891 0
M  V30 1217 C 122.854 1.76202 -0.658369 0
M  V30 1218 O 122.212 1.76993 0.392851 0
M  V30 1219 C 122.26 1.81428 -3.11635 0
M  V30 1220 O 121.364 2.91265 -2.91956 0
M  V30 1221 H 120.705 0.264807 -0.608912 0
M  V30 1222 H 123.235 0.204695 -2.03573 0
M  V30 1223 H 123.245 2.21958 -3.42343 0
M  V30 1224 H 121.92 1.21004 -3.97908 0
M  V30 1225 H 120.497 2.54514 -2.72538 0
M  V30 1226 N 122.682 1.50554 0.465978 0
M  V30 1227 C 123.907 1.65838 1.24549 0
M  V30 1228 C 124.332 0.343486 1.84937 0
M  V30 1229 O 123.69 -0.69324 1.67523 0
M  V30 1230 C 123.738 2.75533 2.32624 0
M  V30 1231 O 122.842 2.37142 3.37398 0
M  V30 1232 H 122.183 0.553893 0.366194 0
M  V30 1233 H 124.713 1.96959 0.553927 0
M  V30 1234 H 124.723 2.98763 2.77857 0
M  V30 1235 H 123.398 3.70962 1.88043 0
M  V30 1236 H 121.975 2.24377 2.97841 0
M  V30 1237 N 124.16 -0.719506 1.40217 0
M  V30 1238 C 125.571 -1.29848 1.34151 0
M  V30 1239 C 125.922 -1.96196 0.0131349 0
M  V30 1240 O 125.047 -1.973 -0.88892 0
M  V30 1241 C 125.642 -2.36118 2.42968 0
M  V30 1242 C 124.201 -2.8965 2.40374 0
M  V30 1243 C 123.348 -1.63393 2.24049 0
M  V30 1244 H 126.299 -0.51591 1.5008 0
M  V30 1245 H 126.32 -3.16871 2.10649 0
M  V30 1246 H 125.832 -1.878 3.39636 0
M  V30 1247 H 123.933 -3.42208 1.47392 0
M  V30 1248 H 124.046 -3.4171 3.35814 0
M  V30 1249 H 122.41 -1.88312 1.71495 0
M  V30 1250 H 123.193 -1.17104 3.2271 0
M  V30 1251 N 125.638 -1.25649 -0.95132 0
M  V30 1252 C 126.866 -1.13343 -1.73092 0
M  V30 1253 C 127.281 0.312434 -1.86197 0
M  V30 1254 O 126.638 1.21465 -1.36207 0
M  V30 1255 C 126.689 -1.78602 -3.14299 0
M  V30 1256 O 126.41 -3.17537 -3.01831 0
M  V30 1257 C 127.911 -1.72119 -4.08522 0
M  V30 1258 H 125.131 -0.395181 -0.542285 0
M  V30 1259 H 127.675 -1.66076 -1.19328 0
M  V30 1260 H 125.83 -1.29832 -3.64996 0
M  V30 1261 H 126.244 -3.49676 -3.90931 0
M  V30 1262 H 127.718 -2.22435 -5.052 0
M  V30 1263 H 128.195 -0.685635 -4.33815 0
M  V30 1264 H 128.801 -2.20393 -3.63741 0
M  V30 1265 N 127.117 1.15442 -1.07289 0
M  V30 1266 C 128.533 1.38201 -0.798288 0
M  V30 1267 C 128.733 1.92429 0.597769 0
M  V30 1268 O 127.789 2.12962 1.3566 0
M  V30 1269 C 129.102 2.35357 -1.87156 0
M  V30 1270 C 130.65 2.49021 -1.89624 0
M  V30 1271 C 131.125 3.49468 -2.96034 0
M  V30 1272 N 132.616 3.57003 -2.95132 0
M  V30 1273 C 133.351 4.34543 -3.74112 0
M  V30 1274 N 132.847 5.15421 -4.6294 0
M  V30 1275 N 134.64 4.29625 -3.62462 0
M  V30 1276 H 126.791 0.78584 -1.97328 0
M  V30 1277 H 129.054 0.408065 -0.855679 0
M  V30 1278 H 128.76 2.02626 -2.87464 0
M  V30 1279 H 128.634 3.35129 -1.73114 0
M  V30 1280 H 131.021 2.81051 -0.899687 0
M  V30 1281 H 131.102 1.4925 -2.07745 0
M  V30 1282 H 130.746 3.18173 -3.95889 0
M  V30 1283 H 130.676 4.48992 -2.75161 0
M  V30 1284 H 133.167 2.99276 -2.30743 0
M  V30 1285 H 133.48 5.7183 -5.19837 0
M  V30 1286 H 131.825 5.14729 -4.66989 0
M  V30 1287 H 135.016 3.65505 -2.92444 0
M  V30 1288 H 135.189 4.89807 -4.24256 0
M  V30 1289 N 128.595 0.856903 1.32268 0
M  V30 1290 C 129.842 0.461386 1.97174 0
M  V30 1291 C 130.17 -0.983491 1.67803 0
M  V30 1292 O 129.425 -1.70541 0.959903 0
M  V30 1293 C 129.724 0.649919 3.51441 0
M  V30 1294 C 129.39 2.0656 4.00804 0
M  V30 1295 C 128.052 2.45279 4.13995 0
M  V30 1296 C 130.404 2.98947 4.26943 0
M  V30 1297 C 127.732 3.75653 4.50668 0
M  V30 1298 C 130.084 4.28822 4.65075 0
M  V30 1299 C 128.748 4.67472 4.76472 0
M  V30 1300 H 128.018 0.168833 0.72151 0
M  V30 1301 H 130.665 1.08739 1.57633 0
M  V30 1302 H 128.97 -0.0593018 3.91755 0
M  V30 1303 H 130.667 0.32391 3.9969 0
M  V30 1304 H 127.257 1.75495 3.91024 0
M  V30 1305 H 131.441 2.70265 4.16258 0
M  V30 1306 H 126.697 4.05379 4.57688 0
M  V30 1307 H 130.871 5.0047 4.84255 0
M  V30 1308 H 128.498 5.68539 5.04646 0
M  V30 1309 N 130.073 -1.45103 0.615059 0
M  V30 1310 C 131.321 -2.01784 0.112955 0
M  V30 1311 C 131.642 -1.48504 -1.26378 0
M  V30 1312 O 130.912 -0.682245 -1.83636 0
M  V30 1313 H 129.492 -0.745993 0.0387668 0
M  V30 1314 H 132.154 -1.77808 0.798141 0
M  V30 1315 H 131.25 -3.12025 0.0684069 0
M  V30 1316 N 131.551 -0.354651 -1.53558 0
M  V30 1317 C 132.799 0.237972 -2.00694 0
M  V30 1318 C 133.12 1.50173 -1.24391 0
M  V30 1319 O 132.39 1.92673 -0.354135 0
M  V30 1320 H 130.97 0.0909256 -0.741446 0
M  V30 1321 H 133.632 -0.478368 -1.88938 0
M  V30 1322 H 132.728 0.47264 -3.085 0
M  V30 1323 N 133.029 1.57378 -0.0835403 0
M  V30 1324 C 133.992 2.12252 0.864959 0
M  V30 1325 C 134.992 1.04916 1.21858 0
M  V30 1326 O 136.182 1.30853 1.14991 0
M  V30 1327 C 133.314 2.63358 2.16461 0
M  V30 1328 H 134.507 2.97371 0.388676 0
M  V30 1329 H 132.06 1.55423 0.165317 0
M  V30 1330 H 132.795 1.81727 2.686 0
M  V30 1331 H 132.58 3.41826 1.92087 0
M  V30 1332 H 134.07 3.05847 2.84337 0
M  V30 1333 N 134.507 -0.190092 1.56449 0
M  V30 1334 C 135.735 -0.925772 1.85033 0
M  V30 1335 C 136.15 -1.76638 0.666658 0
M  V30 1336 O 135.507 -1.78822 -0.364565 0
M  V30 1337 C 135.558 -1.81786 3.12468 0
M  V30 1338 O 135.279 -1.01118 4.26271 0
M  V30 1339 C 136.78 -2.6648 3.54265 0
M  V30 1340 H 134 -0.269872 0.614337 0
M  V30 1341 H 136.544 -0.195837 2.0356 0
M  V30 1342 H 134.699 -2.50136 2.95822 0
M  V30 1343 H 135.113 -1.61956 4.98869 0
M  V30 1344 H 136.587 -3.24722 4.46385 0
M  V30 1345 H 137.064 -3.40434 2.77491 0
M  V30 1346 H 137.67 -2.03493 3.73458 0
M  V30 1347 N 135.985 -1.50799 -0.457987 0
M  V30 1348 C 137.21 -1.66496 -1.23668 0
M  V30 1349 C 137.635 -0.353288 -1.84752 0
M  V30 1350 O 136.993 0.684346 -1.67888 0
M  V30 1351 C 137.041 -2.76763 -2.3116 0
M  V30 1352 O 136.145 -2.38928 -3.36136 0
M  V30 1353 H 135.486 -0.555828 -0.363252 0
M  V30 1354 H 138.016 -1.9725 -0.543474 0
M  V30 1355 H 138.026 -3.00232 -2.76269 0
M  V30 1356 H 136.701 -3.71954 -1.86073 0
M  V30 1357 H 135.278 -2.25953 -2.96647 0
M  V30 1358 N 137.463 0.71206 -1.40597 0
M  V30 1359 C 138.395 1.83704 -1.37061 0
M  V30 1360 C 139.408 1.60453 -0.275426 0
M  V30 1361 O 140.597 1.70262 -0.53602 0
M  V30 1362 C 137.697 3.20172 -1.11099 0
M  V30 1363 C 136.87 3.7059 -2.3234 0
M  V30 1364 C 135.929 4.85681 -2.02485 0
M  V30 1365 O 134.955 4.9815 -2.75382 0
M  V30 1366 N 136.157 5.71735 -1.00497 0
M  V30 1367 H 138.922 1.87235 -2.34016 0
M  V30 1368 H 136.483 0.893739 -1.34996 0
M  V30 1369 H 138.475 3.94768 -0.891064 0
M  V30 1370 H 137.045 3.11767 -0.227989 0
M  V30 1371 H 136.265 2.87085 -2.7014 0
M  V30 1372 H 137.553 4.01011 -3.13157 0
M  V30 1373 H 136.951 5.64275 -0.401298 0
M  V30 1374 H 135.508 6.463 -0.844942 0
M  V30 1375 N 138.941 1.26152 0.944643 0
M  V30 1376 C 139.874 1.01729 2.04271 0
M  V30 1377 C 140.852 -0.0568101 1.62501 0
M  V30 1378 O 142.036 0.0848987 1.88309 0
M  V30 1379 C 139.163 0.539792 3.34371 0
M  V30 1380 C 138.209 1.60593 3.9511 0
M  V30 1381 S 139.042 3.19392 4.29825 0
M  V30 1382 C 140.198 2.73402 5.63029 0
M  V30 1383 H 140.431 1.94703 2.24673 0
M  V30 1384 H 137.964 1.09793 1.08558 0
M  V30 1385 H 139.922 0.270956 4.09605 0
M  V30 1386 H 138.583 -0.369609 3.11918 0
M  V30 1387 H 137.776 1.22275 4.88943 0
M  V30 1388 H 137.378 1.82596 3.26397 0
M  V30 1389 H 139.67 2.1765 6.41588 0
M  V30 1390 H 140.613 3.65913 6.06229 0
M  V30 1391 H 141.021 2.13077 5.22741 0
M  V30 1392 N 140.419 -1.14872 1.07899 0
M  V30 1393 C 141.835 -1.37776 0.805606 0
M  V30 1394 C 142.035 -1.92743 -0.587555 0
M  V30 1395 O 141.091 -2.13678 -1.34528 0
M  V30 1396 C 142.404 -2.34361 1.88402 0
M  V30 1397 C 143.952 -2.48012 1.90942 0
M  V30 1398 C 144.427 -3.47893 2.97883 0
M  V30 1399 N 145.918 -3.55433 2.97021 0
M  V30 1400 C 146.653 -4.32553 3.76412 0
M  V30 1401 N 146.149 -5.12959 4.65666 0
M  V30 1402 N 147.942 -4.27697 3.64735 0
M  V30 1403 H 140.093 -0.775365 1.97742 0
M  V30 1404 H 142.356 -0.403521 0.857831 0
M  V30 1405 H 142.062 -2.01098 2.88535 0
M  V30 1406 H 141.936 -3.34206 1.74889 0
M  V30 1407 H 144.323 -2.8057 0.914579 0
M  V30 1408 H 144.404 -1.48147 2.08534 0
M  V30 1409 H 144.048 -3.16069 3.97571 0
M  V30 1410 H 143.978 -4.47527 2.77538 0
M  V30 1411 H 146.469 -2.98048 2.32326 0
M  V30 1412 H 146.782 -5.69065 5.22862 0
M  V30 1413 H 145.127 -5.12245 4.69712 0
M  V30 1414 H 148.318 -3.63949 2.94378 0
M  V30 1415 H 148.491 -4.8755 4.26848 0
M  V30 1416 N 141.898 -0.863906 -1.31812 0
M  V30 1417 C 142.861 -0.320212 -2.26952 0
M  V30 1418 C 143.861 0.525369 -1.51975 0
M  V30 1419 O 145.051 0.335547 -1.70938 0
M  V30 1420 C 142.183 0.545919 -3.365 0
M  V30 1421 H 143.376 -1.16004 -2.76556 0
M  V30 1422 H 140.929 -0.638995 -1.42641 0
M  V30 1423 H 141.664 1.40718 -2.92179 0
M  V30 1424 H 141.449 -0.0594674 -3.92055 0
M  V30 1425 H 142.939 0.918796 -4.07367 0
M  V30 1426 N 143.376 1.44774 -0.622745 0
M  V30 1427 C 144.623 2.02121 -0.1239 0
M  V30 1428 C 144.951 1.48915 1.25118 0
M  V30 1429 O 144.206 0.660045 1.84233 0
M  V30 1430 C 144.505 3.57364 -0.0508323 0
M  V30 1431 C 144.171 4.29787 -1.36358 0
M  V30 1432 C 142.833 4.4929 -1.72314 0
M  V30 1433 C 145.185 4.71062 -2.23048 0
M  V30 1434 C 142.513 5.07325 -2.94682 0
M  V30 1435 C 144.865 5.30452 -3.44679 0
M  V30 1436 C 143.529 5.48175 -3.80868 0
M  V30 1437 H 142.799 0.739612 -0.0453381 0
M  V30 1438 H 145.446 1.73648 -0.807389 0
M  V30 1439 H 143.751 3.85202 0.715991 0
M  V30 1440 H 145.448 3.99456 0.351533 0
M  V30 1441 H 142.038 4.14932 -1.07375 0
M  V30 1442 H 146.222 4.55715 -1.96565 0
M  V30 1443 H 141.478 5.19235 -3.22809 0
M  V30 1444 H 145.652 5.61385 -4.12092 0
M  V30 1445 H 143.279 5.92912 -4.75773 0
M  V30 1446 N 144.854 0.36279 1.53368 0
M  V30 1447 C 146.103 -0.22888 2.00397 0
M  V30 1448 C 146.416 -1.50096 1.25421 0
M  V30 1449 O 147.622 -2.17106 1.63025 0
M  V30 1450 C 146.078 -0.458417 3.56969 0
M  V30 1451 C 145.686 0.798877 4.4082 0
M  V30 1452 C 147.43 -1.00789 4.12361 0
M  V30 1453 C 145.337 0.539078 5.88938 0
M  V30 1454 H 144.267 -0.089305 0.748693 0
M  V30 1455 H 146.918 0.481099 1.77081 0
M  V30 1456 H 145.3 -1.22959 3.76427 0
M  V30 1457 H 146.474 1.57262 4.33134 0
M  V30 1458 H 144.789 1.27137 3.96516 0
M  V30 1459 H 147.386 -1.21754 5.20653 0
M  V30 1460 H 147.729 -1.9692 3.66781 0
M  V30 1461 H 148.262 -0.296961 3.9669 0
M  V30 1462 H 145.001 1.47064 6.3879 0
M  V30 1463 H 144.521 -0.196222 5.99479 0
M  V30 1464 H 146.2 0.163542 6.46793 0
M  V30 1465 N 146.332 -1.57332 0.0918853 0
M  V30 1466 C 147.609 -1.85691 -0.614668 0
M  V30 1467 C 147.989 -0.988146 -1.86545 0
M  V30 1468 O 147.337 -0.0597055 -2.28422 0
M  V30 1469 C 147.547 -3.36294 -0.933126 0
M  V30 1470 C 148.895 -4.04275 -1.29796 0
M  V30 1471 O 149.919 -3.41157 -1.02424 0
M  V30 1472 O 148.778 -5.1564 -1.81047 0
M  V30 1473 H 145.872 -0.767802 -0.307261 0
M  V30 1474 H 148.418 -1.69244 0.12434 0
M  V30 1475 H 147.19 -3.91273 -0.0456404 0
M  V30 1476 H 146.813 -3.58076 -1.72822 0
M  V30 1477 N 147.81 0.181792 -1.56548 0
M  V30 1478 C 149.038 0.915947 -1.85521 0
M  V30 1479 C 149.453 1.76282 -0.676016 0
M  V30 1480 O 148.81 1.79012 0.355077 0
M  V30 1481 C 148.861 1.80126 -3.13427 0
M  V30 1482 O 148.582 0.988562 -4.26801 0
M  V30 1483 C 150.083 2.64597 -3.55673 0
M  V30 1484 H 147.303 0.26661 -0.61576 0
M  V30 1485 H 149.847 0.185039 -2.03661 0
M  V30 1486 H 148.002 2.48563 -2.97145 0
M  V30 1487 H 148.416 1.59308 -4.99721 0
M  V30 1488 H 149.89 3.2235 -4.48101 0
M  V30 1489 H 150.367 3.38958 -2.79292 0
M  V30 1490 H 150.973 2.0151 -3.74532 0
M  V30 1491 N 149.288 1.51039 0.449983 0
M  V30 1492 C 150.218 1.74379 1.55288 0
M  V30 1493 C 151.199 0.593236 1.5942 0
M  V30 1494 O 152.384 0.834625 1.7535 0
M  V30 1495 C 149.514 1.85728 2.93466 0
M  V30 1496 C 148.468 3.01078 3.04197 0
M  V30 1497 C 147.794 2.97595 4.44231 0
M  V30 1498 C 149.094 4.41254 2.7945 0
M  V30 1499 H 150.788 2.66725 1.36008 0
M  V30 1500 H 148.334 1.2835 0.652864 0
M  V30 1501 H 150.287 2.0064 3.70569 0
M  V30 1502 H 149.011 0.900207 3.13949 0
M  V30 1503 H 147.67 2.85851 2.29531 0
M  V30 1504 H 147.318 1.99691 4.61663 0
M  V30 1505 H 147.018 3.75046 4.52343 0
M  V30 1506 H 148.542 3.14583 5.23326 0
M  V30 1507 H 149.956 4.56897 3.46292 0
M  V30 1508 H 148.353 5.20315 2.98985 0
M  V30 1509 H 149.423 4.52164 1.75144 0
M  V30 1510 N 150.766 -0.704594 1.40972 0
M  V30 1511 C 152.014 -1.46169 1.39568 0
M  V30 1512 C 152.335 -1.95 0.00253745 0
M  V30 1513 O 151.605 -1.71095 -0.954114 0
M  V30 1514 H 150.185 -0.542326 0.513704 0
M  V30 1515 H 152.847 -0.834553 1.76128 0
M  V30 1516 H 151.943 -2.32922 2.07735 0
M  V30 1517 N 152.244 -1.26651 -0.937939 0
M  V30 1518 C 153.492 -1.12165 -1.68118 0
M  V30 1519 C 153.813 0.334983 -1.92101 0
M  V30 1520 O 153.083 1.23583 -1.52 0
M  V30 1521 H 151.663 -0.412093 -0.623048 0
M  V30 1522 H 154.325 -1.59027 -1.12678 0
M  V30 1523 H 153.421 -1.64289 -2.6536 0
M  V30 1524 N 153.722 1.14298 -1.08507 0
M  V30 1525 C 154.652 2.21542 -0.737646 0
M  V30 1526 C 155.633 1.67773 0.280377 0
M  V30 1527 O 156.818 1.93616 0.150521 0
M  V30 1528 C 153.948 3.46988 -0.147259 0
M  V30 1529 C 152.902 4.13789 -1.09374 0
M  V30 1530 C 152.228 5.33449 -0.365524 0
M  V30 1531 C 153.528 4.62208 -2.4323 0
M  V30 1532 H 155.222 2.5086 -1.6343 0
M  V30 1533 H 152.768 1.20576 -0.787243 0
M  V30 1534 H 154.721 4.21262 0.107808 0
M  V30 1535 H 153.445 3.17037 0.784538 0
M  V30 1536 H 152.104 3.4147 -1.33393 0
M  V30 1537 H 151.752 4.99759 0.57011 0
M  V30 1538 H 151.452 5.79088 -0.996512 0
M  V30 1539 H 152.976 6.10485 -0.118534 0
M  V30 1540 H 154.39 5.27952 -2.23472 0
M  V30 1541 H 152.787 5.18553 -3.02031 0
M  V30 1542 H 153.857 3.77224 -3.04681 0
M  V30 1543 N 155.201 0.870884 1.31352 0
M  V30 1544 C 156.447 0.492314 1.97352 0
M  V30 1545 C 156.802 -0.945174 1.67583 0
M  V30 1546 O 156.095 -1.65674 0.962423 0
M  V30 1547 C 156.289 0.687157 3.50732 0
M  V30 1548 C 156.118 2.14203 3.95407 0
M  V30 1549 C 154.888 2.78382 4.21701 0
M  V30 1550 C 157.086 3.1144 4.09279 0
M  V30 1551 N 155.068 4.14611 4.52737 0
M  V30 1552 C 156.439 4.32702 4.44037 0
M  V30 1553 C 158.494 3.07418 3.91661 0
M  V30 1554 C 157.197 5.50463 4.63015 0
M  V30 1555 C 159.223 4.24438 4.11833 0
M  V30 1556 C 158.585 5.44463 4.46923 0
M  V30 1557 H 154.684 0.229206 0.747655 0
M  V30 1558 H 157.268 1.12568 1.5886 0
M  V30 1559 H 155.439 0.083384 3.8831 0
M  V30 1560 H 157.171 0.276883 4.03752 0
M  V30 1561 H 153.926 2.29326 4.14375 0
M  V30 1562 H 154.35 4.84928 4.72413 0
M  V30 1563 H 158.992 2.15732 3.6362 0
M  V30 1564 H 156.71 6.42666 4.89904 0
M  V30 1565 H 160.296 4.2278 3.99685 0
M  V30 1566 H 159.176 6.33504 4.62214 0
M  V30 1567 N 156.679 -1.44442 0.630414 0
M  V30 1568 C 157.904 -2.06927 0.139944 0
M  V30 1569 C 158.329 -1.46795 -1.17613 0
M  V30 1570 O 157.687 -0.569144 -1.72135 0
M  V30 1571 C 157.735 -3.6058 0.0379581 0
M  V30 1572 O 156.839 -3.99937 -1.0062 0
M  V30 1573 H 156.18 -0.658608 0.0844483 0
M  V30 1574 H 158.71 -1.85327 0.866891 0
M  V30 1575 H 158.72 -4.07714 -0.152856 0
M  V30 1576 H 157.395 -4.03728 0.998809 0
M  V30 1577 H 155.972 -3.64436 -0.79001 0
M  V30 1578 N 158.157 -0.370918 -1.53173 0
M  V30 1579 C 159.382 0.220293 -2.06227 0
M  V30 1580 C 159.807 1.41243 -1.24225 0
M  V30 1581 O 159.165 1.79387 -0.262645 0
M  V30 1582 C 159.213 0.586663 -3.55796 0
M  V30 1583 O 158.317 1.68317 -3.76488 0
M  V30 1584 H 157.658 0.0308099 -0.663285 0
M  V30 1585 H 160.188 -0.533068 -1.97534 0
M  V30 1586 H 160.198 0.85617 -3.98916 0
M  V30 1587 H 158.873 -0.285013 -4.14922 0
M  V30 1588 H 157.45 1.40881 -3.45264 0
M  V30 1589 N 159.635 1.57281 -0.100228 0
M  V30 1590 C 160.883 1.94153 0.561157 0
M  V30 1591 C 161.204 0.983157 1.68401 0
M  V30 1592 O 160.474 0.0361132 1.95867 0
M  V30 1593 H 159.054 0.716791 0.210283 0
M  V30 1594 H 161.716 1.94202 -0.164765 0
M  V30 1595 H 160.812 2.96709 0.968008 0
M  V30 1596 N 161.113 -0.173488 1.56642 0
M  V30 1597 C 162.06 -1.21482 1.96242 0
M  V30 1598 C 163.03 -1.44104 0.826027 0
M  V30 1599 O 164.215 -1.5688 1.08597 0
M  V30 1600 C 161.355 -2.54964 2.32567 0
M  V30 1601 C 160.468 -2.39739 3.59373 0
M  V30 1602 C 159.603 -3.66072 3.84921 0
M  V30 1603 C 158.642 -3.45771 5.05083 0
M  V30 1604 N 157.779 -4.64169 5.26775 0
M  V30 1605 H 162.619 -0.870123 2.85014 0
M  V30 1606 H 160.156 -0.418245 1.41029 0
M  V30 1607 H 162.114 -3.32758 2.5165 0
M  V30 1608 H 160.744 -2.87433 1.46908 0
M  V30 1609 H 159.796 -1.53131 3.48217 0
M  V30 1610 H 161.108 -2.20683 4.47326 0
M  V30 1611 H 160.262 -4.52303 4.0436 0
M  V30 1612 H 159.001 -3.88105 2.9534 0
M  V30 1613 H 158.006 -2.57927 4.85545 0
M  V30 1614 H 159.231 -3.25163 5.96193 0
M  V30 1615 H 157.177 -4.86425 4.40144 0
M  V30 1616 H 157.094 -4.48019 6.08946 0
M  V30 1617 H 158.362 -5.51689 5.5069 0
M  V30 1618 N 162.591 -1.51276 -0.441967 0
M  V30 1619 C 163.521 -1.752 -1.54361 0
M  V30 1620 C 164.502 -0.601682 -1.59103 0
M  V30 1621 O 165.687 -0.843913 -1.74905 0
M  V30 1622 C 162.817 -1.87282 -2.92477 0
M  V30 1623 C 161.771 -3.02687 -3.02596 0
M  V30 1624 C 161.097 -2.99947 -4.42647 0
M  V30 1625 C 162.397 -4.4273 -2.77106 0
M  V30 1626 H 164.091 -2.67442 -1.34592 0
M  V30 1627 H 161.637 -1.28694 -0.646048 0
M  V30 1628 H 163.59 -2.02602 -3.695 0
M  V30 1629 H 162.314 -0.916844 -3.13467 0
M  V30 1630 H 160.973 -2.87065 -2.28012 0
M  V30 1631 H 160.621 -2.02136 -4.60597 0
M  V30 1632 H 160.321 -3.77439 -4.50348 0
M  V30 1633 H 161.845 -3.17354 -5.2165 0
M  V30 1634 H 163.259 -4.58727 -3.43864 0
M  V30 1635 H 161.656 -5.21893 -2.96222 0
M  V30 1636 H 162.726 -4.53087 -1.72744 0
M  V30 1637 N 164.069 0.697108 -1.41344 0
M  V30 1638 C 165.032 1.79281 -1.42797 0
M  V30 1639 C 166.032 1.57607 -0.318837 0
M  V30 1640 O 167.222 1.64309 -0.578642 0
M  V30 1641 C 164.354 3.17632 -1.23785 0
M  V30 1642 H 165.547 1.79385 -2.40335 0
M  V30 1643 H 163.1 0.904582 -1.27464 0
M  V30 1644 H 163.835 3.23167 -0.270814 0
M  V30 1645 H 163.62 3.34765 -2.04144 0
M  V30 1646 H 165.11 3.97617 -1.27633 0
M  V30 1647 N 165.547 1.27147 0.931209 0
M  V30 1648 C 166.495 1.09398 2.05268 0
M  V30 1649 C 167.489 0.0180591 1.6939 0
M  V30 1650 O 168.695 0.17551 1.79142 0
M  V30 1651 H 165.07 0.336986 0.672268 0
M  V30 1652 H 167.041 2.04416 2.17386 0
M  V30 1653 C 165.79 0.75424 3.39421 0
M  V30 1654 H 165.113 1.57404 3.67511 0
M  V30 1655 H 166.553 0.669903 4.18674 0
M  V30 1656 C 165.012 -0.541197 3.32525 0
M  V30 1657 O 165.542 -1.57664 3.69466 0
M  V30 1658 N 163.748 -0.535517 2.85623 0
M  V30 1659 H 163.295 0.307511 2.55758 0
M  V30 1660 H 163.253 -1.40236 2.81392 0
M  V30 1661 N 167.025 -1.13721 1.09112 0
M  V30 1662 C 167.972 -2.19031 0.727591 0
M  V30 1663 C 168.942 -1.63555 -0.289656 0
M  V30 1664 O 170.127 -1.90023 -0.172026 0
M  V30 1665 C 167.267 -3.4477 0.15082 0
M  V30 1666 C 166.38 -4.14365 1.22172 0
M  V30 1667 C 165.515 -5.27709 0.608042 0
M  V30 1668 C 164.554 -5.89147 1.66047 0
M  V30 1669 N 163.691 -6.93929 1.06806 0
M  V30 1670 H 168.531 -2.49475 1.62991 0
M  V30 1671 H 166.068 -1.22499 0.81439 0
M  V30 1672 H 168.026 -4.16714 -0.201358 0
M  V30 1673 H 166.656 -3.14787 -0.714783 0
M  V30 1674 H 165.708 -3.40737 1.69122 0
M  V30 1675 H 167.02 -4.56114 2.01895 0
M  V30 1676 H 166.174 -6.06355 0.204523 0
M  V30 1677 H 164.913 -4.872 -0.220769 0
M  V30 1678 H 163.918 -5.09198 2.07357 0
M  V30 1679 H 165.143 -6.31729 2.49189 0
M  V30 1680 H 163.089 -6.55483 0.260476 0
M  V30 1681 H 163.006 -7.34202 1.8023 0
M  V30 1682 H 164.274 -7.76434 0.690644 0
M  V30 1683 N 168.503 -0.877838 -1.30888 0
M  V30 1684 C 169.731 -0.507414 -2.00581 0
M  V30 1685 C 170.146 0.902216 -1.65848 0
M  V30 1686 O 169.503 1.59225 -0.891831 0
M  V30 1687 C 169.554 -0.664162 -3.55347 0
M  V30 1688 O 169.275 -2.01829 -3.8884 0
M  V30 1689 C 170.776 -0.295787 -4.42312 0
M  V30 1690 H 167.996 -0.196866 -0.641471 0
M  V30 1691 H 170.54 -1.18117 -1.66939 0
M  V30 1692 H 168.695 -0.0378619 -3.87381 0
M  V30 1693 H 169.109 -2.03174 -4.8355 0
M  V30 1694 H 170.583 -0.456388 -5.5011 0
M  V30 1695 H 171.06 0.765663 -4.32475 0
M  V30 1696 H 171.666 -0.898113 -4.15709 0
M  V30 1697 N 169.982 1.44106 -0.638065 0
M  V30 1698 C 171.229 2.01978 -0.14533 0
M  V30 1699 C 171.557 1.50234 1.23532 0
M  V30 1700 O 170.812 0.679548 1.83523 0
M  V30 1701 C 171.111 3.5729 -0.0887327 0
M  V30 1702 C 170.777 4.28317 -1.40909 0
M  V30 1703 C 169.439 4.47437 -1.77069 0
M  V30 1704 C 171.791 4.6867 -2.28031 0
M  V30 1705 C 169.119 5.04171 -3.00047 0
M  V30 1706 C 171.471 5.26766 -3.50286 0
M  V30 1707 C 170.135 5.44104 -3.86661 0
M  V30 1708 H 169.405 0.739089 -0.0531801 0
M  V30 1709 H 172.052 1.72781 -0.825761 0
M  V30 1710 H 170.357 3.8594 0.675095 0
M  V30 1711 H 172.054 3.99807 0.309145 0
M  V30 1712 H 168.644 4.1377 -1.1177 0
M  V30 1713 H 172.828 4.53604 -2.01388 0
M  V30 1714 H 168.084 5.15782 -3.28298 0
M  V30 1715 H 172.258 5.56983 -4.18023 0
M  V30 1716 H 169.885 5.87832 -4.82034 0
M  V30 1717 N 171.46 0.379036 1.52974 0
M  V30 1718 C 172.685 -0.209353 2.06341 0
M  V30 1719 C 173.11 -1.40583 1.24972 0
M  V30 1720 O 172.468 -1.79246 0.272155 0
M  V30 1721 C 172.516 -0.567786 3.56102 0
M  V30 1722 O 171.62 -1.66318 3.77375 0
M  V30 1723 H 170.961 -0.0272919 0.663439 0
M  V30 1724 H 173.491 0.543536 1.97248 0
M  V30 1725 H 173.501 -0.835003 3.99364 0
M  V30 1726 H 172.176 0.307013 4.14765 0
M  V30 1727 H 170.753 -1.39048 3.46006 0
M  V30 1728 N 172.938 -1.57226 0.108567 0
M  V30 1729 C 173.901 -2.13602 -0.831082 0
M  V30 1730 C 174.901 -1.06841 -1.20173 0
M  V30 1731 O 176.091 -1.32666 -1.12895 0
M  V30 1732 C 173.223 -2.66769 -2.12243 0
M  V30 1733 H 174.416 -2.97951 -0.341317 0
M  V30 1734 H 171.969 -1.55667 -0.14057 0
M  V30 1735 H 172.704 -1.85977 -2.65675 0
M  V30 1736 H 172.489 -3.44839 -1.86625 0
M  V30 1737 H 173.979 -3.10332 -2.79435 0
M  V30 1738 N 174.416 0.165178 -1.56732 0
M  V30 1739 C 175.349 1.23336 -1.91998 0
M  V30 1740 C 176.327 1.42476 -0.783531 0
M  V30 1741 O 177.511 1.57384 -1.03743 0
M  V30 1742 C 174.638 2.59533 -2.17625 0
M  V30 1743 C 173.684 2.57093 -3.40302 0
M  V30 1744 S 174.517 2.05571 -4.9447 0
M  V30 1745 C 175.673 3.43532 -5.23198 0
M  V30 1746 H 175.906 0.932387 -2.82301 0
M  V30 1747 H 173.439 0.370013 -1.49901 0
M  V30 1748 H 175.397 3.37918 -2.3307 0
M  V30 1749 H 174.058 2.86827 -1.28019 0
M  V30 1750 H 173.251 3.57308 -3.55453 0
M  V30 1751 H 172.853 1.86806 -3.24005 0
M  V30 1752 H 175.145 4.39559 -5.15552 0
M  V30 1753 H 176.088 3.33251 -6.2478 0
M  V30 1754 H 176.496 3.39828 -4.50752 0
M  V30 1755 N 175.894 1.51508 0.433938 0
M  V30 1756 C 177.122 1.68157 1.20543 0
M  V30 1757 C 177.537 0.380362 1.84929 0
M  V30 1758 O 176.894 -0.641446 1.70856 0
M  V30 1759 C 176.945 2.79965 2.28696 0
M  V30 1760 O 176.666 4.05045 1.66943 0
M  V30 1761 C 178.167 3.07912 3.18912 0
M  V30 1762 H 175.387 0.56421 0.363191 0
M  V30 1763 H 177.931 1.97941 0.513754 0
M  V30 1764 H 176.086 2.5277 2.93574 0
M  V30 1765 H 176.5 4.67165 2.38448 0
M  V30 1766 H 177.974 3.89719 3.90926 0
M  V30 1767 H 178.451 2.20456 3.79863 0
M  V30 1768 H 179.057 3.36779 2.59731 0
M  V30 1769 N 177.372 -0.689602 1.41712 0
M  V30 1770 C 178.597 -1.48329 1.44959 0
M  V30 1771 C 179.022 -1.8801 0.0581283 0
M  V30 1772 O 178.38 -1.55026 -0.940035 0
M  V30 1773 C 178.428 -2.71835 2.36935 0
M  V30 1774 O 177.532 -3.69549 1.8305 0
M  V30 1775 H 176.873 -0.446199 0.491734 0
M  V30 1776 H 179.403 -0.847127 1.86239 0
M  V30 1777 H 179.413 -3.20076 2.53013 0
M  V30 1778 H 178.088 -2.42291 3.38035 0
M  V30 1779 H 176.665 -3.2851 1.76452 0
M  V30 1780 N 178.85 -1.27639 -0.924453 0
M  V30 1781 C 179.813 -1.10681 -2.00705 0
M  V30 1782 C 180.813 -0.0497823 -1.60723 0
M  V30 1783 O 182.003 -0.294654 -1.7169 0
M  V30 1784 C 179.135 -0.687164 -3.33902 0
M  V30 1785 H 180.328 -2.06817 -2.17179 0
M  V30 1786 H 177.881 -1.10473 -1.10569 0
M  V30 1787 H 178.616 0.275439 -3.23128 0
M  V30 1788 H 178.401 -1.45061 -3.6428 0
M  V30 1789 H 179.891 -0.590853 -4.13399 0
M  V30 1790 N 180.328 1.1314 -1.09713 0
M  V30 1791 C 181.26 2.18343 -0.697056 0
M  V30 1792 C 182.273 1.60669 0.262551 0
M  V30 1793 O 183.462 1.78435 0.0481527 0
M  V30 1794 C 180.562 3.38899 -0.00684728 0
M  V30 1795 C 179.735 4.26078 -0.988741 0
M  V30 1796 C 178.794 5.25155 -0.331394 0
M  V30 1797 O 177.82 5.60701 -0.979926 0
M  V30 1798 N 179.022 5.73271 0.913261 0
M  V30 1799 H 181.787 2.5328 -1.60216 0
M  V30 1800 H 179.348 1.28491 -0.984971 0
M  V30 1801 H 181.34 4.02255 0.444191 0
M  V30 1802 H 179.91 3.02175 0.800551 0
M  V30 1803 H 179.13 3.59453 -1.61826 0
M  V30 1804 H 180.418 4.81178 -1.65364 0
M  V30 1805 H 179.816 5.46544 1.45966 0
M  V30 1806 H 178.373 6.3855 1.30757 0
M  V30 1807 N 181.806 0.884767 1.30421 0
M  V30 1808 C 182.754 0.340869 2.30089 0
M  V30 1809 C 183.748 -0.55201 1.60154 0
M  V30 1810 O 184.954 -0.436467 1.74628 0
M  V30 1811 H 181.329 0.0915739 0.746404 0
M  V30 1812 H 183.3 1.19513 2.73421 0
M  V30 1813 C 182.049 -0.429779 3.45034 0
M  V30 1814 H 181.372 0.248024 3.9903 0
M  V30 1815 H 182.812 -0.775445 4.16849 0
M  V30 1816 C 181.271 -1.62677 2.95022 0
M  V30 1817 O 181.801 -2.72614 2.95033 0
M  V30 1818 N 180.007 -1.46387 2.51036 0
M  V30 1819 H 179.554 -0.569506 2.51226 0
M  V30 1820 H 179.512 -2.26612 2.17932 0
M  V30 1821 N 183.284 -1.43765 0.645699 0
M  V30 1822 C 184.53 -2.02197 0.156271 0
M  V30 1823 C 184.863 -1.50776 -1.22393 0
M  V30 1824 O 184.138 -0.697771 -1.81553 0
M  V30 1825 C 184.421 -3.59749 0.158872 0
M  V30 1826 C 184.274 -4.21419 1.57245 0
M  V30 1827 C 185.593 -4.37149 -0.50879 0
M  V30 1828 H 182.712 -0.734694 0.0582602 0
M  V30 1829 H 185.354 -1.71157 0.824951 0
M  V30 1830 H 183.504 -3.86325 -0.410525 0
M  V30 1831 H 185.176 -4.059 2.19186 0
M  V30 1832 H 183.419 -3.78356 2.122 0
M  V30 1833 H 184.09 -5.30482 1.52619 0
M  V30 1834 H 186.566 -4.16093 -0.024412 0
M  V30 1835 H 185.442 -5.4683 -0.476213 0
M  V30 1836 H 185.703 -4.12839 -1.58165 0
M  V30 1837 N 184.763 -0.387143 -1.52771 0
M  V30 1838 C 185.711 0.463953 -2.27926 0
M  V30 1839 C 186.705 1.06493 -1.31741 0
M  V30 1840 O 187.911 1.00565 -1.49287 0
M  V30 1841 H 184.286 0.16837 -0.732909 0
M  V30 1842 H 186.257 -0.19141 -2.97785 0
M  V30 1843 C 185.006 1.5803 -3.09713 0
M  V30 1844 H 184.329 1.12718 -3.83581 0
M  V30 1845 H 185.769 2.15008 -3.65442 0
M  V30 1846 C 184.228 2.53509 -2.2189 0
M  V30 1847 O 184.758 3.56863 -1.84422 0
M  V30 1848 N 182.964 2.23199 -1.86093 0
M  V30 1849 H 182.511 1.39185 -2.16761 0
M  V30 1850 H 182.469 2.87333 -1.27621 0
M  V30 1851 N 186.241 1.57166 -0.116904 0
M  V30 1852 C 187.489 1.94737 0.540533 0
M  V30 1853 C 187.81 1.00096 1.67349 0
M  V30 1854 O 187.08 0.0568854 1.95817 0
M  V30 1855 H 185.66 0.718981 0.202669 0
M  V30 1856 H 188.322 1.94017 -0.185353 0
M  V30 1857 H 187.418 2.97719 0.936483 0
M  V30 1858 N 187.719 -0.156864 1.56817 0
M  V30 1859 C 188.967 -0.869404 1.82444 0
M  V30 1860 C 189.288 -1.82147 0.69623 0
M  V30 1861 O 188.558 -1.93847 -0.28287 0
M  V30 1862 H 187.138 -0.324043 0.673056 0
M  V30 1863 H 189.8 -0.153224 1.94297 0
M  V30 1864 H 188.896 -1.43761 2.77019 0
M  V30 1865 N 189.197 -1.51736 -0.425897 0
M  V30 1866 C 190.129 -1.70083 -1.53638 0
M  V30 1867 C 191.142 -0.581349 -1.52066 0
M  V30 1868 O 192.331 -0.856017 -1.56635 0
M  V30 1869 C 189.431 -1.71078 -2.9255 0
M  V30 1870 C 188.604 -2.99795 -3.185 0
M  V30 1871 C 187.663 -2.92825 -4.37196 0
M  V30 1872 O 186.689 -3.66756 -4.35291 0
M  V30 1873 N 187.891 -2.0946 -5.41393 0
M  V30 1874 H 190.656 -2.65882 -1.383 0
M  V30 1875 H 188.217 -1.49765 -0.614988 0
M  V30 1876 H 190.209 -1.63969 -3.69995 0
M  V30 1877 H 188.779 -0.828242 -3.01428 0
M  V30 1878 H 187.999 -3.20684 -2.2925 0
M  V30 1879 H 189.287 -3.84977 -3.32671 0
M  V30 1880 H 188.685 -1.48792 -5.45781 0
M  V30 1881 H 187.242 -2.08221 -6.17647 0
M  V30 1882 N 190.675 0.682077 -1.42076 0
M  V30 1883 C 191.585 1.82535 -1.47371 0
M  V30 1884 C 192.601 1.7017 -0.363079 0
M  V30 1885 O 193.777 1.91848 -0.612875 0
M  V30 1886 C 190.842 3.18624 -1.36674 0
M  V30 1887 C 189.903 3.42999 -2.58167 0
M  V30 1888 C 189.136 4.72595 -2.4797 0
M  V30 1889 O 189.359 5.50006 -1.5116 0
M  V30 1890 O 188.293 4.98054 -3.37974 0
M  V30 1891 H 192.119 1.81023 -2.43853 0
M  V30 1892 H 189.704 0.836887 -1.2376 0
M  V30 1893 H 191.586 3.99847 -1.33043 0
M  V30 1894 H 190.261 3.20789 -0.433138 0
M  V30 1895 H 189.168 2.61653 -2.67373 0
M  V30 1896 H 190.501 3.45659 -3.50401 0
M  V30 1897 N 192.153 1.28127 0.917671 0
M  V30 1898 C 193.381 1.17892 1.70026 0
M  V30 1899 C 193.796 -0.262958 1.8696 0
M  V30 1900 O 193.153 -1.17811 1.3938 0
M  V30 1901 C 193.204 1.86872 3.09453 0
M  V30 1902 O 192.925 3.25428 2.93306 0
M  V30 1903 C 194.426 1.8289 4.03815 0
M  V30 1904 H 191.646 0.40942 0.531617 0
M  V30 1905 H 194.19 1.69181 1.14883 0
M  V30 1906 H 192.345 1.39464 3.61426 0
M  V30 1907 H 192.759 3.59918 3.81523 0
M  V30 1908 H 194.233 2.35751 4.99125 0
M  V30 1909 H 194.71 0.800412 4.31845 0
M  V30 1910 H 195.316 2.29959 3.57769 0
M  V30 1911 N 193.631 -1.12557 1.10312 0
M  V30 1912 C 194.859 -1.87864 0.866873 0
M  V30 1913 C 195.274 -1.79588 -0.582557 0
M  V30 1914 O 194.631 -1.16887 -1.40156 0
M  V30 1915 C 194.682 -3.37125 1.30496 0
M  V30 1916 O 194.403 -3.45201 2.69755 0
M  V30 1917 C 195.904 -4.29373 1.10243 0
M  V30 1918 H 193.124 -0.594452 0.311236 0
M  V30 1919 H 195.668 -1.42429 1.46745 0
M  V30 1920 H 193.823 -3.80109 0.748081 0
M  V30 1921 H 194.237 -4.38056 2.88457 0
M  V30 1922 H 195.711 -5.32394 1.45811 0
M  V30 1923 H 196.188 -4.39181 0.0409492 0
M  V30 1924 H 196.794 -3.92169 1.64571 0
M  V30 1925 N 195.109 -0.891671 -1.2995 0
M  V30 1926 C 196.039 -0.379797 -2.30391 0
M  V30 1927 C 197.02 0.540919 -1.6127 0
M  V30 1928 O 198.205 0.453352 -1.88834 0
M  V30 1929 C 195.335 0.400654 -3.44981 0
M  V30 1930 C 194.289 -0.428905 -4.25846 0
M  V30 1931 C 193.615 0.478557 -5.32554 0
M  V30 1932 C 194.915 -1.67458 -4.94727 0
M  V30 1933 H 196.609 -1.21914 -2.73454 0
M  V30 1934 H 194.155 -0.587675 -1.31462 0
M  V30 1935 H 196.108 0.769434 -4.14316 0
M  V30 1936 H 194.832 1.27371 -3.0074 0
M  V30 1937 H 193.491 -0.779911 -3.58208 0
M  V30 1938 H 193.139 1.34951 -4.84559 0
M  V30 1939 H 192.839 -0.0727433 -5.87555 0
M  V30 1940 H 194.363 0.843705 -6.04743 0
M  V30 1941 H 195.777 -1.376 -5.56542 0
M  V30 1942 H 194.174 -2.16659 -5.59624 0
M  V30 1943 H 195.244 -2.41518 -4.20473 0
M  V30 1944 N 196.587 1.43421 -0.653314 0
M  V30 1945 C 197.519 2.29071 0.0769134 0
M  V30 1946 C 198.532 1.42513 0.787017 0
M  V30 1947 O 199.721 1.66449 0.644757 0
M  V30 1948 C 196.821 3.19436 1.13199 0
M  V30 1949 C 195.994 4.34533 0.500006 0
M  V30 1950 C 195.053 5.05771 1.45198 0
M  V30 1951 O 194.079 5.61037 0.960538 0
M  V30 1952 N 195.281 5.0928 2.78594 0
M  V30 1953 H 198.046 2.92382 -0.658235 0
M  V30 1954 H 195.607 1.54112 -0.496104 0
M  V30 1955 H 197.599 3.63958 1.76964 0
M  V30 1956 H 196.169 2.57724 1.7691 0
M  V30 1957 H 195.389 3.92925 -0.316738 0
M  V30 1958 H 196.677 5.08766 0.0588345 0
M  V30 1959 H 196.075 4.65751 3.2108 0
M  V30 1960 H 194.632 5.57519 3.37662 0
M  V30 1961 N 198.065 0.39524 1.52563 0
M  V30 1962 C 199.293 -0.184943 2.06072 0
M  V30 1963 C 199.708 -1.40021 1.26647 0
M  V30 1964 O 199.065 -1.79767 0.314672 0
M  V30 1965 C 199.116 -0.549179 3.57304 0
M  V30 1966 O 198.837 0.617813 4.33722 0
M  V30 1967 C 200.338 -1.18459 4.2718 0
M  V30 1968 H 197.558 -0.0265025 0.670476 0
M  V30 1969 H 200.102 0.562184 1.96621 0
M  V30 1970 H 198.257 -1.2462 3.66809 0
M  V30 1971 H 198.671 0.317091 5.23541 0
M  V30 1972 H 200.145 -1.38976 5.34219 0
M  V30 1973 H 200.622 -2.15368 3.82771 0
M  V30 1974 H 201.228 -0.528163 4.22008 0
M  V30 1975 N 199.544 -1.57102 0.125237 0
M  V30 1976 C 200.474 -2.18659 -0.819174 0
M  V30 1977 C 201.455 -1.12843 -1.27281 0
M  V30 1978 O 202.64 -1.41104 -1.33429 0
M  V30 1979 C 199.77 -2.79096 -2.06695 0
M  V30 1980 C 198.724 -3.90548 -1.75088 0
M  V30 1981 C 198.05 -4.37821 -3.06948 0
M  V30 1982 C 199.35 -5.12356 -1.01435 0
M  V30 1983 H 201.044 -2.9783 -0.306202 0
M  V30 1984 H 198.59 -1.4326 -0.145839 0
M  V30 1985 H 200.543 -3.2082 -2.73226 0
M  V30 1986 H 199.267 -1.97223 -2.60328 0
M  V30 1987 H 197.926 -3.49409 -1.10944 0
M  V30 1988 H 197.574 -3.52799 -3.58527 0
M  V30 1989 H 197.274 -5.12982 -2.86571 0
M  V30 1990 H 198.798 -4.822 -3.74587 0
M  V30 1991 H 200.212 -5.5106 -1.58132 0
M  V30 1992 H 198.609 -5.9314 -0.911319 0
M  V30 1993 H 199.679 -4.849 -0.00218681 0
M  V30 1994 N 201.022 0.148545 -1.56898 0
M  V30 1995 C 202.252 0.875118 -1.8715 0
M  V30 1996 C 202.66 1.75322 -0.711262 0
M  V30 1997 O 202.003 1.80745 0.328151 0
M  V30 1998 C 202.065 1.7844 -3.12089 0
M  V30 1999 C 201.729 1.08361 -4.43967 0
M  V30 2000 C 202.726 0.438247 -5.1805 0
M  V30 2001 C 200.411 1.07358 -4.90693 0
M  V30 2002 C 202.405 -0.20779 -6.37061 0
M  V30 2003 C 200.092 0.42373 -6.09629 0
M  V30 2004 C 201.09 -0.215829 -6.82659 0
M  V30 2005 O 200.778 -0.855378 -7.99336 0
M  V30 2006 H 200.51 0.258504 -0.624621 0
M  V30 2007 H 203.064 0.14652 -2.04877 0
M  V30 2008 H 201.294 2.55389 -2.90367 0
M  V30 2009 H 202.983 2.38279 -3.286 0
M  V30 2010 H 203.749 0.437817 -4.8302 0
M  V30 2011 H 199.628 1.5608 -4.33774 0
M  V30 2012 H 203.172 -0.70758 -6.94002 0
M  V30 2013 H 199.069 0.421822 -6.4412 0
M  V30 2014 H 199.837 -0.756892 -8.14993 0
M  V30 2015 N 202.5 1.5196 0.417844 0
M  V30 2016 C 203.433 1.69387 1.52916 0
M  V30 2017 C 204.411 0.541419 1.53321 0
M  V30 2018 O 205.595 0.767695 1.72159 0
M  V30 2019 C 202.722 1.72525 2.91467 0
M  V30 2020 C 201.768 2.93967 3.09008 0
M  V30 2021 S 202.601 4.54461 2.83242 0
M  V30 2022 C 203.757 4.60372 4.24038 0
M  V30 2023 H 203.99 2.63382 1.37903 0
M  V30 2024 H 201.523 1.41889 0.608845 0
M  V30 2025 H 203.481 1.75018 3.7132 0
M  V30 2026 H 202.142 0.796733 3.03827 0
M  V30 2027 H 201.335 2.92619 4.10353 0
M  V30 2028 H 200.937 2.89316 2.37007 0
M  V30 2029 H 203.229 4.37213 5.17544 0
M  V30 2030 H 204.172 5.62273 4.30412 0
M  V30 2031 H 204.58 3.89492 4.08602 0
M  V30 2032 N 203.978 -0.674533 1.42435 0
M  V30 2033 C 205.206 -1.46283 1.46317 0
M  V30 2034 C 205.621 -1.88653 0.0745836 0
M  V30 2035 O 204.978 -1.58151 -0.91074 0
M  V30 2036 C 205.029 -2.71178 2.3905 0
M  V30 2037 O 204.75 -2.30586 3.72507 0
M  V30 2038 C 206.251 -3.64738 2.51955 0
M  V30 2039 H 203.471 -0.450104 0.497642 0
M  V30 2040 H 206.015 -0.828792 1.86953 0
M  V30 2041 H 204.17 -3.3077 2.01667 0
M  V30 2042 H 204.584 -3.11241 4.22172 0
M  V30 2043 H 206.058 -4.49096 3.20962 0
M  V30 2044 H 206.535 -4.10656 1.55752 0
M  V30 2045 H 207.141 -3.11038 2.90061 0
M  V30 2046 N 205.456 -1.28612 -0.910864 0
M  V30 2047 C 206.419 -1.12803 -1.9952 0
M  V30 2048 C 207.419 -0.0668264 -1.60661 0
M  V30 2049 O 208.609 -0.312847 -1.71368 0
M  V30 2050 C 205.741 -0.72254 -3.33155 0
M  V30 2051 H 206.934 -2.09109 -2.14973 0
M  V30 2052 H 204.487 -1.11639 -1.09391 0
M  V30 2053 H 205.222 0.241152 -3.23402 0
M  V30 2054 H 205.007 -1.48916 -3.62721 0
M  V30 2055 H 206.497 -0.634666 -4.12749 0
M  V30 2056 N 206.934 1.1197 -1.10907 0
M  V30 2057 C 207.867 2.16998 -0.706192 0
M  V30 2058 C 208.845 1.59903 0.294897 0
M  V30 2059 O 210.029 1.87513 0.192636 0
M  V30 2060 C 207.156 3.38673 -0.0427664 0
M  V30 2061 C 206.202 4.14414 -1.00811 0
M  V30 2062 S 207.035 4.72079 -2.52789 0
M  V30 2063 C 208.191 5.97083 -1.87731 0
M  V30 2064 H 208.424 2.50837 -1.59587 0
M  V30 2065 H 205.957 1.23508 -0.926555 0
M  V30 2066 H 207.915 4.09142 0.333668 0
M  V30 2067 H 206.576 3.03105 0.823788 0
M  V30 2068 H 205.769 5.016 -0.491259 0
M  V30 2069 H 205.371 3.49678 -1.3267 0
M  V30 2070 H 207.663 6.66599 -1.21044 0
M  V30 2071 H 208.606 6.53403 -2.72892 0
M  V30 2072 H 209.014 5.4837 -1.33979 0
M  V30 2073 N 208.412 0.89855 1.29475 0
M  V30 2074 C 209.362 0.346767 2.25348 0
M  V30 2075 C 210.346 -0.532509 1.51833 0
M  V30 2076 O 211.538 -0.374714 1.72988 0
M  V30 2077 C 208.667 -0.425681 3.40651 0
M  V30 2078 C 207.753 0.46845 4.21505 0
M  V30 2079 N 208.144 1.57514 4.80648 0
M  V30 2080 C 206.442 0.26603 4.45206 0
M  V30 2081 C 207.143 2.12889 5.41344 0
M  V30 2082 N 206.119 1.42208 5.24669 0
M  V30 2083 H 209.921 1.19219 2.68634 0
M  V30 2084 H 207.435 0.749473 1.44072 0
M  V30 2085 H 209.432 -0.837716 4.08397 0
M  V30 2086 H 208.092 -1.26838 2.98902 0
M  V30 2087 H 209.103 1.95789 4.79465 0
M  V30 2088 H 205.78 -0.538394 4.14014 0
M  V30 2089 H 207.17 3.05901 5.98226 0
M  V30 2090 N 209.89 -1.43072 0.660911 0
M  V30 2091 C 211.136 -2.02545 0.186337 0
M  V30 2092 C 211.491 -1.51253 -1.18913 0
M  V30 2093 O 210.784 -0.699167 -1.78388 0
M  V30 2094 C 210.978 -3.57103 0.145563 0
M  V30 2095 C 210.807 -4.23393 1.51554 0
M  V30 2096 C 209.577 -4.59144 2.10984 0
M  V30 2097 C 211.775 -4.51897 2.45548 0
M  V30 2098 N 209.757 -5.10545 3.40907 0
M  V30 2099 C 211.128 -5.04698 3.6011 0
M  V30 2100 C 213.183 -4.33872 2.44253 0
M  V30 2101 C 211.886 -5.41371 4.73613 0
M  V30 2102 C 213.912 -4.71612 3.56842 0
M  V30 2103 C 213.274 -5.24553 4.70131 0
M  V30 2104 H 209.373 -0.773823 0.112792 0
M  V30 2105 H 211.957 -1.74137 0.870885 0
M  V30 2106 H 210.128 -3.85059 -0.508353 0
M  V30 2107 H 211.86 -4.03264 -0.340598 0
M  V30 2108 H 208.615 -4.4444 1.63615 0
M  V30 2109 H 209.039 -5.40689 4.07411 0
M  V30 2110 H 213.681 -3.92208 1.579 0
M  V30 2111 H 211.399 -5.81975 5.60652 0
M  V30 2112 H 214.985 -4.59354 3.57051 0
M  V30 2113 H 213.865 -5.53213 5.5581 0
M  V30 2114 N 211.368 -0.403325 -1.52352 0
M  V30 2115 C 212.616 0.174003 -2.0135 0
M  V30 2116 C 212.937 1.46139 -1.29106 0
M  V30 2117 O 212.207 1.91448 -0.415253 0
M  V30 2118 H 210.787 0.0672911 -0.743963 0
M  V30 2119 H 213.449 -0.538235 -1.87321 0
M  V30 2120 H 212.545 0.374254 -3.09848 0
M  V30 2121 N 212.846 1.57033 -0.133567 0
M  V30 2122 C 213.809 2.14897 0.796995 0
M  V30 2123 C 214.809 1.0874 1.18458 0
M  V30 2124 O 215.999 1.34446 1.1077 0
M  V30 2125 C 213.131 2.70112 2.07973 0
M  V30 2126 H 214.324 2.98457 0.293873 0
M  V30 2127 H 211.877 1.55871 0.115787 0
M  V30 2128 H 212.612 1.9018 2.62682 0
M  V30 2129 H 212.397 3.47764 1.81115 0
M  V30 2130 H 213.887 3.14738 2.74462 0
M  V30 2131 N 214.325 -0.140222 1.56975 0
M  V30 2132 C 215.571 -0.852949 1.83991 0
M  V30 2133 C 215.904 -1.80512 0.716187 0
M  V30 2134 O 215.179 -1.92479 -0.279681 0
M  V30 2135 C 215.462 -1.6215 3.21527 0
M  V30 2136 C 215.315 -0.690363 4.4447 0
M  V30 2137 C 216.634 -2.58247 3.56366 0
M  V30 2138 H 213.753 -0.308634 0.669264 0
M  V30 2139 H 216.395 -0.117898 1.89634 0
M  V30 2140 H 214.545 -2.24812 3.16847 0
M  V30 2141 H 216.217 -0.0742264 4.6124 0
M  V30 2142 H 214.46 -0.000396433 4.338 0
M  V30 2143 H 215.131 -1.2643 5.37326 0
M  V30 2144 H 217.607 -2.05701 3.61699 0
M  V30 2145 H 216.483 -3.09067 4.53617 0
M  V30 2146 H 216.744 -3.39923 2.82674 0
M  V30 2147 N 215.803 -1.52179 -0.40978 0
M  V30 2148 C 216.733 -1.78435 -1.5061 0
M  V30 2149 C 217.714 -0.635295 -1.57791 0
M  V30 2150 O 218.899 -0.880823 -1.73076 0
M  V30 2151 C 216.029 -1.93444 -2.88439 0
M  V30 2152 C 214.983 -3.09038 -2.96108 0
M  V30 2153 C 214.309 -3.09268 -4.36185 0
M  V30 2154 C 215.609 -4.48508 -2.67652 0
M  V30 2155 H 217.303 -2.70237 -1.28889 0
M  V30 2156 H 214.849 -1.30036 -0.618605 0
M  V30 2157 H 216.802 -2.10394 -3.65119 0
M  V30 2158 H 215.526 -0.983129 -3.11452 0
M  V30 2159 H 214.185 -2.91837 -2.21872 0
M  V30 2160 H 213.833 -2.11861 -4.56206 0
M  V30 2161 H 213.533 -3.86907 -4.42241 0
M  V30 2162 H 215.057 -3.28348 -5.14801 0
M  V30 2163 H 216.471 -4.65918 -3.34056 0
M  V30 2164 H 214.868 -5.28059 -2.85085 0
M  V30 2165 H 215.938 -4.56649 -1.63095 0
M  V30 2166 N 217.281 0.66697 -1.42791 0
M  V30 2167 C 218.509 1.45505 -1.47091 0
M  V30 2168 C 218.924 1.8861 -0.0845873 0
M  V30 2169 O 218.281 1.58632 0.90234 0
M  V30 2170 C 218.332 2.69906 -2.40485 0
M  V30 2171 O 218.053 2.28608 -3.73725 0
M  V30 2172 C 219.554 3.63396 -2.53886 0
M  V30 2173 H 216.774 0.447459 -0.500022 0
M  V30 2174 H 219.318 0.818866 -1.8739 0
M  V30 2175 H 217.473 3.29696 -2.03419 0
M  V30 2176 H 217.887 3.08997 -4.23817 0
M  V30 2177 H 219.361 4.47387 -3.2334 0
M  V30 2178 H 219.838 4.09824 -1.57927 0
M  V30 2179 H 220.444 3.09495 -2.91706 0
M  V30 2180 N 218.759 1.29093 0.90403 0
M  V30 2181 C 220.17 1.15186 1.46932 0
M  V30 2182 C 220.521 -0.254587 1.94541 0
M  V30 2183 O 219.646 -1.14972 1.83332 0
M  V30 2184 C 220.241 2.08492 2.67051 0
M  V30 2185 C 218.8 1.98621 3.19729 0
M  V30 2186 C 217.947 1.9967 1.92425 0
M  V30 2187 H 220.898 1.41641 0.715789 0
M  V30 2188 H 220.919 1.65461 3.42641 0
M  V30 2189 H 220.431 3.10847 2.3237 0
M  V30 2190 H 218.532 0.993389 3.59114 0
M  V30 2191 H 218.645 2.86068 3.8432 0
M  V30 2192 H 217.009 1.44208 2.09943 0
M  V30 2193 H 217.792 3.03721 1.60026 0
M  V30 2194 N 220.237 -1.11381 1.11499 0
M  V30 2195 C 221.648 -1.6465 0.880191 0
M  V30 2196 C 221.999 -1.87199 -0.587434 0
M  V30 2197 O 221.124 -1.60667 -1.44966 0
M  V30 2198 C 221.719 -2.99105 1.59128 0
M  V30 2199 C 220.278 -3.49279 1.40289 0
M  V30 2200 C 219.425 -2.24077 1.63354 0
M  V30 2201 H 222.376 -0.950123 1.27116 0
M  V30 2202 H 222.397 -3.66107 1.03664 0
M  V30 2203 H 221.909 -2.82661 2.65941 0
M  V30 2204 H 220.01 -3.70887 0.356888 0
M  V30 2205 H 220.123 -4.2803 2.15238 0
M  V30 2206 H 218.487 -2.31733 1.05698 0
M  V30 2207 H 219.27 -2.10175 2.71443 0
M  V30 2208 N 221.715 -0.905404 -1.28997 0
M  V30 2209 C 222.963 -0.533192 -1.9494 0
M  V30 2210 C 223.284 0.924618 -1.71685 0
M  V30 2211 O 222.554 1.65268 -1.05183 0
M  V30 2212 H 221.134 -0.194194 -0.721317 0
M  V30 2213 H 223.796 -1.15294 -1.57141 0
M  V30 2214 H 222.892 -0.72059 -3.03667 0
M  V30 2215 N 223.193 1.4272 -0.668489 0
M  V30 2216 C 224.423 2.05668 -0.196063 0
M  V30 2217 C 224.831 1.5028 1.14946 0
M  V30 2218 O 224.174 0.6348 1.72383 0
M  V30 2219 C 224.236 3.59469 -0.0468879 0
M  V30 2220 C 223.9 4.37518 -1.32012 0
M  V30 2221 C 224.897 4.68584 -2.25222 0
M  V30 2222 C 222.582 4.77266 -1.56596 0
M  V30 2223 C 224.576 5.38326 -3.41297 0
M  V30 2224 C 222.263 5.4675 -2.72962 0
M  V30 2225 C 223.261 5.77204 -3.65137 0
M  V30 2226 O 222.949 6.45264 -4.79468 0
M  V30 2227 H 222.681 0.669382 -0.0943599 0
M  V30 2228 H 225.235 1.83954 -0.913788 0
M  V30 2229 H 223.465 3.79817 0.726357 0
M  V30 2230 H 225.154 4.04071 0.384852 0
M  V30 2231 H 225.92 4.38382 -2.07477 0
M  V30 2232 H 221.799 4.52959 -0.857249 0
M  V30 2233 H 225.343 5.62014 -4.13263 0
M  V30 2234 H 221.24 5.76369 -2.90635 0
M  V30 2235 H 222.008 6.63753 -4.78931 0
M  V30 2236 N 224.671 0.411399 1.52136 0
M  V30 2237 C 225.899 -0.163076 2.06256 0
M  V30 2238 C 226.314 -1.3867 1.28125 0
M  V30 2239 O 225.671 -1.79423 0.333721 0
M  V30 2240 C 225.722 -0.511252 3.57867 0
M  V30 2241 O 225.443 0.66378 4.33042 0
M  V30 2242 C 226.944 -1.13921 4.28412 0
M  V30 2243 H 224.164 -0.0193897 0.67072 0
M  V30 2244 H 226.708 0.583007 1.96013 0
M  V30 2245 H 224.863 -1.20723 3.6811 0
M  V30 2246 H 225.277 0.372601 5.23175 0
M  V30 2247 H 226.751 -1.33302 5.35663 0
M  V30 2248 H 227.228 -2.11296 3.85033 0
M  V30 2249 H 227.834 -0.483373 4.22544 0
M  V30 2250 N 226.149 -1.5696 0.141893 0
M  V30 2251 C 227.426 -1.87553 -0.555281 0
M  V30 2252 C 227.806 -1.04699 -1.83306 0
M  V30 2253 O 227.154 -0.132346 -2.28116 0
M  V30 2254 C 227.364 -3.39093 -0.825664 0
M  V30 2255 C 228.712 -4.08199 -1.16869 0
M  V30 2256 O 229.736 -3.44242 -0.915185 0
M  V30 2257 O 228.595 -5.21139 -1.6455 0
M  V30 2258 H 225.689 -0.777188 -0.282679 0
M  V30 2259 H 228.235 -1.68763 0.17812 0
M  V30 2260 H 227.007 -3.91221 0.0788633 0
M  V30 2261 H 226.63 -3.63393 -1.61343 0
M  V30 2262 N 227.627 0.131896 -1.57047 0
M  V30 2263 C 228.537 1.1815 -2.02676 0
M  V30 2264 C 229.553 1.46113 -0.944824 0
M  V30 2265 O 230.729 1.57485 -1.25541 0
M  V30 2266 C 227.794 2.49139 -2.41103 0
M  V30 2267 C 226.855 2.28688 -3.63318 0
M  V30 2268 C 226.088 3.53431 -3.99903 0
M  V30 2269 O 226.311 4.60223 -3.36973 0
M  V30 2270 O 225.245 3.45198 -4.93074 0
M  V30 2271 H 229.071 0.824069 -2.92306 0
M  V30 2272 H 226.656 0.341745 -1.45439 0
M  V30 2273 H 228.538 3.26338 -2.66611 0
M  V30 2274 H 227.213 2.84382 -1.54624 0
M  V30 2275 H 226.12 1.4939 -3.42977 0
M  V30 2276 H 227.453 1.98355 -4.50462 0
M  V30 2277 N 229.106 1.52395 0.401703 0
M  V30 2278 C 230.352 1.67065 1.14966 0
M  V30 2279 C 230.685 0.403052 1.89971 0
M  V30 2280 O 229.96 -0.598774 1.85054 0
M  V30 2281 C 230.243 2.8975 2.13815 0
M  V30 2282 C 230.096 4.26578 1.42658 0
M  V30 2283 C 231.415 3.07965 3.14397 0
M  V30 2284 H 228.534 0.607968 0.416587 0
M  V30 2285 H 231.176 1.84965 0.434511 0
M  V30 2286 H 229.326 2.74619 2.74803 0
M  V30 2287 H 230.998 4.53451 0.847329 0
M  V30 2288 H 229.241 4.27639 0.72849 0
M  V30 2289 H 229.912 5.08483 2.14823 0
M  V30 2290 H 232.388 3.22043 2.63491 0
M  V30 2291 H 231.264 3.95308 3.80819 0
M  V30 2292 H 231.525 2.21611 3.82545 0
M  V30 2293 N 230.584 -0.659388 1.43143 0
M  V30 2294 C 231.833 -1.41518 1.43721 0
M  V30 2295 C 232.146 -1.95499 0.0628176 0
M  V30 2296 O 233.352 -2.71446 -0.0539683 0
M  V30 2297 C 231.808 -2.5608 2.52885 0
M  V30 2298 C 231.416 -2.08733 3.96402 0
M  V30 2299 C 233.16 -3.3349 2.62649 0
M  V30 2300 C 231.067 -3.20469 4.97045 0
M  V30 2301 H 229.997 -0.531705 0.534608 0
M  V30 2302 H 232.648 -0.712343 1.69109 0
M  V30 2303 H 231.03 -3.28805 2.20688 0
M  V30 2304 H 232.204 -1.43059 4.3803 0
M  V30 2305 H 230.519 -1.44219 3.90627 0
M  V30 2306 H 233.116 -4.16734 3.35017 0
M  V30 2307 H 233.459 -3.8111 1.67513 0
M  V30 2308 H 233.992 -2.67842 2.94118 0
M  V30 2309 H 230.731 -2.77824 5.93712 0
M  V30 2310 H 230.251 -3.84874 4.60034 0
M  V30 2311 H 231.93 -3.85698 5.19467 0
M  V30 2312 N 232.062 -1.29571 -0.897171 0
M  V30 2313 C 233.309 -1.17689 -1.6479 0
M  V30 2314 C 233.637 0.27107 -1.92602 0
M  V30 2315 O 232.892 1.21193 -1.53658 0
M  V30 2316 C 233.191 -1.9382 -3.00281 0
M  V30 2317 C 232.857 -3.43522 -2.92068 0
M  V30 2318 C 231.519 -3.84348 -2.89535 0
M  V30 2319 C 233.871 -4.38906 -2.81089 0
M  V30 2320 C 231.199 -5.18869 -2.73846 0
M  V30 2321 C 233.551 -5.73521 -2.66939 0
M  V30 2322 C 232.215 -6.13601 -2.62774 0
M  V30 2323 H 231.485 -0.430654 -0.603008 0
M  V30 2324 H 234.132 -1.60536 -1.04404 0
M  V30 2325 H 232.437 -1.4357 -3.64547 0
M  V30 2326 H 234.134 -1.82028 -3.57305 0
M  V30 2327 H 230.724 -3.11072 -2.94842 0
M  V30 2328 H 234.908 -4.08315 -2.82121 0
M  V30 2329 H 230.164 -5.4903 -2.69027 0
M  V30 2330 H 234.338 -6.47078 -2.57416 0
M  V30 2331 H 231.965 -7.17786 -2.50375 0
M  V30 2332 N 233.54 1.10788 -1.12088 0
M  V30 2333 C 234.487 2.17025 -0.785407 0
M  V30 2334 C 235.457 1.64265 0.246191 0
M  V30 2335 O 236.642 1.90412 0.121584 0
M  V30 2336 C 233.782 3.44249 -0.242177 0
M  V30 2337 C 232.895 4.1098 -1.33115 0
M  V30 2338 C 232.03 5.25911 -0.747741 0
M  V30 2339 C 231.069 5.84538 -1.81609 0
M  V30 2340 N 230.206 6.90853 -1.25167 0
M  V30 2341 H 235.046 2.45066 -1.69548 0
M  V30 2342 H 232.583 1.20297 -0.846582 0
M  V30 2343 H 234.541 4.17101 0.0908026 0
M  V30 2344 H 233.171 3.16571 0.631072 0
M  V30 2345 H 232.223 3.36133 -1.78097 0
M  V30 2346 H 233.535 4.50601 -2.13917 0
M  V30 2347 H 232.689 6.056 -0.365216 0
M  V30 2348 H 231.428 4.87614 0.0915188 0
M  V30 2349 H 230.433 5.03522 -2.20785 0
M  V30 2350 H 231.658 6.249 -2.6585 0
M  V30 2351 H 229.604 6.54562 -0.434174 0
M  V30 2352 H 229.521 7.29166 -1.99633 0
M  V30 2353 H 230.789 7.7433 -0.896259 0
M  V30 2354 N 235.018 0.912232 1.28515 0
M  V30 2355 C 236.243 0.559774 1.99703 0
M  V30 2356 C 236.668 -0.851393 1.67729 0
M  V30 2357 O 236.026 -1.56875 0.908834 0
M  V30 2358 C 236.074 0.773874 3.52198 0
M  V30 2359 O 235.178 -0.167842 4.12058 0
M  V30 2360 H 234.519 0.21723 0.627461 0
M  V30 2361 H 237.049 1.22725 1.63706 0
M  V30 2362 H 237.059 0.683386 4.02236 0
M  V30 2363 H 235.734 1.80261 3.74805 0
M  V30 2364 H 234.311 -0.0287509 3.72889 0
M  V30 2365 N 236.496 -1.42363 0.676048 0
M  V30 2366 C 237.744 -2.01123 0.198437 0
M  V30 2367 C 238.065 -1.53731 -1.19966 0
M  V30 2368 O 237.335 -0.759518 -1.80577 0
M  V30 2369 H 235.915 -0.743678 0.0703721 0
M  V30 2370 H 238.577 -1.74263 0.872837 0
M  V30 2371 H 237.673 -3.11454 0.200686 0
M  V30 2372 N 237.974 -0.419461 -1.51915 0
M  V30 2373 C 239.222 0.152637 -2.01523 0
M  V30 2374 C 239.543 1.44762 -1.30649 0
M  V30 2375 O 238.813 1.90997 -0.435535 0
M  V30 2376 H 237.393 0.0593966 -0.744635 0
M  V30 2377 H 240.055 -0.558073 -1.86739 0
M  V30 2378 H 239.151 0.341369 -3.10227 0
M  V30 2379 N 239.452 1.56882 -0.150215 0
M  V30 2380 C 240.4 2.18214 0.805313 0
M  V30 2381 C 241.394 1.14006 1.25296 0
M  V30 2382 O 242.6 1.3225 1.22107 0
M  V30 2383 H 238.975 0.698762 0.277913 0
M  V30 2384 H 240.946 2.97231 0.263862 0
M  V30 2385 C 239.695 2.82065 2.03309 0
M  V30 2386 H 239.018 3.61968 1.69763 0
M  V30 2387 H 240.458 3.28477 2.68103 0
M  V30 2388 C 238.917 1.80739 2.84315 0
M  V30 2389 O 239.447 1.27983 3.80767 0
M  V30 2390 N 237.653 1.4997 2.48913 0
M  V30 2391 H 237.2 1.93062 1.70542 0
M  V30 2392 H 237.158 0.824217 3.03404 0
M  V30 2393 N 240.93 -0.123565 1.57115 0
M  V30 2394 C 242.341 -0.681198 1.73829 0
M  V30 2395 C 242.692 -1.80535 0.768214 0
M  V30 2396 O 241.817 -2.16317 -0.0599103 0
M  V30 2397 C 242.412 -1.24246 3.15196 0
M  V30 2398 C 240.971 -1.74643 3.33432 0
M  V30 2399 C 240.118 -0.644284 2.69711 0
M  V30 2400 H 243.069 0.102315 1.5837 0
M  V30 2401 H 243.09 -2.11216 3.16493 0
M  V30 2402 H 242.602 -0.424062 3.85776 0
M  V30 2403 H 240.703 -2.58974 2.67886 0
M  V30 2404 H 240.816 -1.85902 4.41562 0
M  V30 2405 H 239.18 -1.07676 2.3082 0
M  V30 2406 H 239.963 0.163058 3.42913 0
M  V30 2407 N 242.408 -1.52605 -0.393616 0
M  V30 2408 C 243.638 -1.71046 -1.15874 0
M  V30 2409 C 244.046 -0.426483 -1.84331 0
M  V30 2410 O 243.389 0.608513 -1.73329 0
M  V30 2411 C 243.451 -2.80118 -2.25332 0
M  V30 2412 C 243.115 -4.21381 -1.76881 0
M  V30 2413 C 244.112 -5.04697 -1.24808 0
M  V30 2414 C 241.797 -4.67683 -1.83244 0
M  V30 2415 C 243.791 -6.32393 -0.797387 0
M  V30 2416 C 241.478 -5.95364 -1.37787 0
M  V30 2417 C 242.476 -6.77549 -0.861208 0
M  V30 2418 O 242.164 -8.02837 -0.413252 0
M  V30 2419 H 241.896 -0.576155 -0.353583 0
M  V30 2420 H 244.45 -2.00018 -0.467123 0
M  V30 2421 H 242.68 -2.46557 -2.97904 0
M  V30 2422 H 244.369 -2.87006 -2.87023 0
M  V30 2423 H 245.135 -4.70111 -1.19252 0
M  V30 2424 H 241.014 -4.03805 -2.22401 0
M  V30 2425 H 244.558 -6.9649 -0.393437 0
M  V30 2426 H 240.455 -6.29455 -1.43026 0
M  V30 2427 H 241.223 -8.16749 -0.53515 0
M  V30 2428 N 243.887 0.651787 -1.4349 0
M  V30 2429 C 245.135 1.40888 -1.44897 0
M  V30 2430 C 245.456 1.94856 -0.0749086 0
M  V30 2431 O 244.726 1.74518 0.889956 0
M  V30 2432 H 243.306 0.522887 -0.533478 0
M  V30 2433 H 245.968 0.768609 -1.79104 0
M  V30 2434 H 245.064 2.25052 -2.16236 0
M  V30 2435 N 245.365 1.30045 0.890287 0
M  V30 2436 C 246.328 1.15963 1.977 0
M  V30 2437 C 247.328 0.0923777 1.60534 0
M  V30 2438 O 248.518 0.340071 1.70848 0
M  V30 2439 C 245.65 0.775451 3.31963 0
M  V30 2440 H 246.843 2.12502 2.11619 0
M  V30 2441 H 244.396 1.13366 1.07601 0
M  V30 2442 H 245.131 -0.189671 3.23745 0
M  V30 2443 H 244.916 1.54668 3.60306 0
M  V30 2444 H 246.406 0.700251 4.11687 0
M  V30 2445 N 246.843 -1.10192 1.12674 0
M  V30 2446 C 248.068 -1.86523 0.906853 0
M  V30 2447 C 248.493 -1.80221 -0.538711 0
M  V30 2448 O 247.851 -1.17396 -1.38158 0
M  V30 2449 C 247.899 -3.32758 1.3894 0
M  V30 2450 O 247.003 -4.08449 0.5695 0
M  V30 2451 H 246.344 -0.578678 0.325619 0
M  V30 2452 H 248.874 -1.39203 1.49946 0
M  V30 2453 H 248.884 -3.83608 1.38958 0
M  V30 2454 H 247.559 -3.36661 2.44197 0
M  V30 2455 H 246.136 -3.67427 0.636528 0
M  V30 2456 N 248.321 -0.919034 -1.28029 0
M  V30 2457 C 249.567 -0.555757 -1.95036 0
M  V30 2458 C 249.9 0.899198 -1.72128 0
M  V30 2459 O 249.175 1.64023 -1.04531 0
M  V30 2460 C 249.458 -0.872024 -3.49382 0
M  V30 2461 C 249.311 -2.3801 -3.81669 0
M  V30 2462 C 250.63 -0.37185 -4.38526 0
M  V30 2463 H 247.749 -0.203386 -0.708381 0
M  V30 2464 H 250.391 -1.14924 -1.51303 0
M  V30 2465 H 248.541 -0.366946 -3.86763 0
M  V30 2466 H 250.213 -2.9562 -3.54128 0
M  V30 2467 H 248.456 -2.83289 -3.28526 0
M  V30 2468 H 249.127 -2.55192 -4.8947 0
M  V30 2469 H 251.603 -0.804602 -4.08247 0
M  V30 2470 H 250.479 -0.622173 -5.45362 0
M  V30 2471 H 250.74 0.727934 -4.36066 0
M  V30 2472 N 249.799 1.42003 -0.683588 0
M  V30 2473 C 251.027 2.05746 -0.218182 0
M  V30 2474 C 251.442 1.51396 1.12804 0
M  V30 2475 O 250.799 0.657303 1.70252 0
M  V30 2476 C 250.85 3.61171 -0.154131 0
M  V30 2477 O 250.571 4.13508 -1.44716 0
M  V30 2478 C 252.072 4.42042 0.333713 0
M  V30 2479 H 249.292 0.662888 -0.10402 0
M  V30 2480 H 251.836 1.81987 -0.9328 0
M  V30 2481 H 249.991 3.84012 0.511231 0
M  V30 2482 H 250.405 5.07453 -1.32632 0
M  V30 2483 H 251.879 5.51028 0.327423 0
M  V30 2484 H 252.356 4.17269 1.37053 0
M  V30 2485 H 252.962 4.24239 -0.300222 0
M  V30 2486 N 251.277 0.427512 1.51691 0
M  V30 2487 C 252.24 -0.377132 2.26076 0
M  V30 2488 C 253.24 -0.958089 1.29141 0
M  V30 2489 O 254.43 -0.83408 1.52934 0
M  V30 2490 C 251.562 -1.53262 3.04506 0
M  V30 2491 H 252.755 0.27464 2.9864 0
M  V30 2492 H 250.308 0.180445 1.55255 0
M  V30 2493 H 251.043 -2.22072 2.36335 0
M  V30 2494 H 250.828 -1.12232 3.75694 0
M  V30 2495 H 252.318 -2.10135 3.60878 0
M  V30 2496 N 252.755 -1.56801 0.158532 0
M  V30 2497 C 253.703 -2.18638 -0.793729 0
M  V30 2498 C 254.697 -1.14669 -1.24689 0
M  V30 2499 O 255.903 -1.32895 -1.21403 0
M  V30 2500 H 252.278 -0.700226 -0.274204 0
M  V30 2501 H 254.249 -2.97367 -0.248095 0
M  V30 2502 C 252.998 -2.83139 -2.0181 0
M  V30 2503 H 252.321 -3.62863 -1.67841 0
M  V30 2504 H 253.761 -3.29894 -2.66357 0
M  V30 2505 C 252.22 -1.82244 -2.83353 0
M  V30 2506 O 252.75 -1.3 -3.80083 0
M  V30 2507 N 250.956 -1.51288 -2.48114 0
M  V30 2508 H 250.503 -1.93964 -1.69516 0
M  V30 2509 H 250.461 -0.840296 -3.02963 0
M  V30 2510 N 254.233 0.115231 -1.57178 0
M  V30 2511 C 255.481 0.820727 -1.84685 0
M  V30 2512 C 255.802 1.80237 -0.744279 0
M  V30 2513 O 255.072 1.94529 0.231375 0
M  V30 2514 H 253.652 0.306084 -0.681411 0
M  V30 2515 H 256.314 0.101656 -1.94635 0
M  V30 2516 H 255.41 1.36366 -2.80733 0
M  V30 2517 N 255.711 1.52812 0.385517 0
M  V30 2518 C 256.643 1.74096 1.49074 0
M  V30 2519 C 257.656 0.621462 1.50472 0
M  V30 2520 O 258.845 0.897245 1.54311 0
M  V30 2521 C 255.945 1.78774 2.87911 0
M  V30 2522 C 255.118 3.08134 3.10439 0
M  V30 2523 C 254.177 3.04313 4.29278 0
M  V30 2524 O 253.203 3.78168 4.25415 0
M  V30 2525 N 254.405 2.23741 5.35649 0
M  V30 2526 H 257.17 2.69455 1.31202 0
M  V30 2527 H 254.731 1.51343 0.575065 0
M  V30 2528 H 256.723 1.73721 3.65518 0
M  V30 2529 H 255.293 0.907869 2.99126 0
M  V30 2530 H 254.513 3.26649 2.20667 0
M  V30 2531 H 255.801 3.93662 3.22347 0
M  V30 2532 H 255.199 1.63211 5.41645 0
M  V30 2533 H 253.756 2.24524 6.11909 0
M  V30 2534 N 257.189 -0.644168 1.43834 0
M  V30 2535 C 258.6 -1.22554 1.40845 0
M  V30 2536 C 258.951 -1.9585 0.117115 0
M  V30 2537 O 258.076 -2.01734 -0.783086 0
M  V30 2538 C 258.671 -2.22907 2.55143 0
M  V30 2539 C 257.23 -2.76501 2.5539 0
M  V30 2540 C 256.377 -1.51287 2.32396 0
M  V30 2541 H 259.328 -0.43563 1.52604 0
M  V30 2542 H 259.349 -3.05259 2.2715 0
M  V30 2543 H 258.861 -1.69533 3.49114 0
M  V30 2544 H 256.962 -3.33914 1.65324 0
M  V30 2545 H 257.075 -3.23429 3.53455 0
M  V30 2546 H 255.439 -1.78957 1.81236 0
M  V30 2547 H 256.222 -0.998336 3.28463 0
M  V30 2548 N 258.668 -1.30515 -0.883378 0
M  V30 2549 C 259.598 -1.19607 -2.00541 0
M  V30 2550 C 260.579 -0.086346 -1.69881 0
M  V30 2551 O 261.764 -0.268654 -1.92333 0
M  V30 2552 C 258.894 -0.888758 -3.35736 0
M  V30 2553 C 257.848 -1.95659 -3.8066 0
M  V30 2554 C 257.174 -1.50224 -5.13164 0
M  V30 2555 C 258.474 -3.36788 -3.99213 0
M  V30 2556 H 260.168 -2.13476 -2.09925 0
M  V30 2557 H 257.714 -1.02775 -1.00863 0
M  V30 2558 H 259.667 -0.799094 -4.13754 0
M  V30 2559 H 258.391 0.0856125 -3.26488 0
M  V30 2560 H 257.05 -2.03591 -3.04871 0
M  V30 2561 H 256.698 -0.516092 -5.00345 0
M  V30 2562 H 256.398 -2.2165 -5.44192 0
M  V30 2563 H 257.922 -1.42639 -5.93706 0
M  V30 2564 H 259.336 -3.31605 -4.67665 0
M  V30 2565 H 257.733 -4.06314 -4.41621 0
M  V30 2566 H 258.803 -3.78561 -3.03017 0
M  V30 2567 N 260.146 1.09593 -1.13257 0
M  V30 2568 C 261.076 2.18214 -0.830946 0
M  V30 2569 C 262.057 1.68812 0.208966 0
M  V30 2570 O 263.242 1.9408 0.0682666 0
M  V30 2571 C 260.372 3.46051 -0.294296 0
M  V30 2572 C 259.326 4.08778 -1.26826 0
M  V30 2573 C 258.652 5.31419 -0.591449 0
M  V30 2574 C 259.952 4.51476 -2.62615 0
M  V30 2575 H 261.646 2.43703 -1.73923 0
M  V30 2576 H 259.192 1.17128 -0.837675 0
M  V30 2577 H 261.145 4.2134 -0.0709606 0
M  V30 2578 H 259.869 3.20079 0.649366 0
M  V30 2579 H 258.528 3.35505 -1.47756 0
M  V30 2580 H 258.176 5.01727 0.357633 0
M  V30 2581 H 257.876 5.74341 -1.24123 0
M  V30 2582 H 259.4 6.09433 -0.377355 0
M  V30 2583 H 260.814 5.17999 -2.45663 0
M  V30 2584 H 259.211 5.05277 -3.23752 0
M  V30 2585 H 260.281 3.63962 -3.20406 0
M  V30 2586 N 261.624 0.925811 1.2754 0
M  V30 2587 C 262.534 0.428993 2.30644 0
M  V30 2588 C 263.55 -0.489387 1.66976 0
M  V30 2589 O 264.726 -0.372653 1.97922 0
M  V30 2590 C 261.791 -0.311967 3.45294 0
M  V30 2591 C 260.852 0.641098 4.24486 0
M  V30 2592 C 260.085 -0.0645955 5.33661 0
M  V30 2593 O 260.308 -1.28429 5.55754 0
M  V30 2594 O 259.242 0.606265 5.98839 0
M  V30 2595 H 263.068 1.28504 2.75173 0
M  V30 2596 H 260.653 0.691086 1.32455 0
M  V30 2597 H 262.535 -0.729972 4.15029 0
M  V30 2598 H 261.21 -1.14365 3.02824 0
M  V30 2599 H 260.117 1.10874 3.57292 0
M  V30 2600 H 261.45 1.43995 4.70666 0
M  V30 2601 N 263.102 -1.41638 0.69111 0
M  V30 2602 C 264.05 -2.32597 0.0115199 0
M  V30 2603 C 265.044 -1.5072 -0.773296 0
M  V30 2604 O 266.25 -1.66685 -0.67942 0
M  V30 2605 H 262.625 -0.751849 -0.0150746 0
M  V30 2606 H 264.596 -2.87593 0.795791 0
M  V30 2607 C 263.345 -3.35467 -0.914172 0
M  V30 2608 H 262.668 -3.9852 -0.319687 0
M  V30 2609 H 264.108 -4.01662 -1.35808 0
M  V30 2610 C 262.567 -2.69004 -2.02826 0
M  V30 2611 O 263.097 -2.53444 -3.11655 0
M  V30 2612 N 261.303 -2.2777 -1.80469 0
M  V30 2613 H 260.85 -2.40626 -0.919615 0
M  V30 2614 H 260.808 -1.83635 -2.55197 0
M  V30 2615 N 264.58 -0.43555 -1.51462 0
M  V30 2616 C 265.857 0.191364 -1.94662 0
M  V30 2617 C 266.237 1.60254 -1.37411 0
M  V30 2618 O 265.585 2.2152 -0.560458 0
M  V30 2619 C 265.795 0.17091 -3.48581 0
M  V30 2620 C 267.143 0.377357 -4.2292 0
M  V30 2621 O 268.167 0.249104 -3.55328 0
M  V30 2622 O 267.026 0.63247 -5.42828 0
M  V30 2623 H 264.12 0.130932 -0.816569 0
M  V30 2624 H 266.666 -0.4934 -1.62369 0
M  V30 2625 H 265.438 -0.815738 -3.82703 0
M  V30 2626 H 265.061 0.898659 -3.87311 0
M  V30 2627 N 266.058 1.56714 -0.166846 0
M  V30 2628 C 267.474 1.58473 0.189372 0
M  V30 2629 C 267.674 1.18201 1.63189 0
M  V30 2630 O 266.73 0.891528 2.36237 0
M  V30 2631 C 268.043 3.00573 -0.0873872 0
M  V30 2632 C 269.591 3.1299 -0.0252443 0
M  V30 2633 C 270.066 4.57174 -0.274934 0
M  V30 2634 N 271.557 4.62665 -0.222553 0
M  V30 2635 C 272.292 5.72072 -0.389985 0
M  V30 2636 N 271.788 6.90054 -0.616229 0
M  V30 2637 N 273.581 5.61153 -0.326202 0
M  V30 2638 H 265.732 1.8118 -1.10849 0
M  V30 2639 H 267.995 0.839525 -0.440342 0
M  V30 2640 H 267.701 3.34497 -1.0865 0
M  V30 2641 H 267.575 3.72019 0.623037 0
M  V30 2642 H 269.962 2.78895 0.96444 0
M  V30 2643 H 270.043 2.43989 -0.768309 0
M  V30 2644 H 269.687 4.91976 -1.26181 0
M  V30 2645 H 269.617 5.24328 0.48869 0
M  V30 2646 H 272.108 3.77863 -0.0531512 0
M  V30 2647 H 272.421 7.69311 -0.733559 0
M  V30 2648 H 270.766 6.91927 -0.652791 0
M  V30 2649 H 273.957 4.67859 -0.150072 0
M  V30 2650 H 274.13 6.46364 -0.460116 0
M  V30 2651 N 267.536 -0.106894 1.57237 0
M  V30 2652 C 268.499 -1.11466 2.0027 0
M  V30 2653 C 269.499 -1.33623 0.894519 0
M  V30 2654 O 270.689 -1.29935 1.16028 0
M  V30 2655 C 267.821 -2.46646 2.35327 0
M  V30 2656 H 269.014 -0.744516 2.90512 0
M  V30 2657 H 266.567 -0.351576 1.52295 0
M  V30 2658 H 267.302 -2.88558 1.48003 0
M  V30 2659 H 267.087 -2.31915 3.16161 0
M  V30 2660 H 268.577 -3.19151 2.69318 0
M  V30 2661 N 269.014 -1.53014 -0.377408 0
M  V30 2662 C 270.239 -1.72818 -1.14668 0
M  V30 2663 C 270.664 -0.450725 -1.8262 0
M  V30 2664 O 270.022 0.59439 -1.7128 0
M  V30 2665 C 270.07 -2.88627 -2.16164 0
M  V30 2666 O 269.174 -2.56409 -3.22998 0
M  V30 2667 H 268.515 -0.574301 -0.333278 0
M  V30 2668 H 271.045 -1.99853 -0.438152 0
M  V30 2669 H 271.055 -3.14455 -2.59966 0
M  V30 2670 H 269.73 -3.81294 -1.66095 0
M  V30 2671 H 268.307 -2.4136 -2.84253 0
M  V30 2672 N 270.492 0.636531 -1.44174 0
M  V30 2673 C 271.741 1.39213 -1.45954 0
M  V30 2674 C 272.054 1.95374 -0.0939119 0
M  V30 2675 O 273.26 2.71498 0.0107767 0
M  V30 2676 C 271.716 2.52025 -2.56927 0
M  V30 2677 C 271.324 2.024 -3.99673 0
M  V30 2678 C 273.068 3.29269 -2.67922 0
M  V30 2679 C 270.975 3.12521 -5.0208 0
M  V30 2680 H 269.905 0.523132 -0.542999 0
M  V30 2681 H 272.556 0.685349 -1.70221 0
M  V30 2682 H 270.938 3.25253 -2.25891 0
M  V30 2683 H 272.112 1.36073 -4.40251 0
M  V30 2684 H 270.427 1.37987 -3.92872 0
M  V30 2685 H 273.024 4.11352 -3.41605 0
M  V30 2686 H 273.367 3.78397 -1.73555 0
M  V30 2687 H 273.9 2.63129 -2.98342 0
M  V30 2688 H 270.639 2.68343 -5.98057 0
M  V30 2689 H 270.159 3.77507 -4.66099 0
M  V30 2690 H 271.838 3.77385 -5.25538 0
M  V30 2691 N 271.97 1.30982 0.876444 0
M  V30 2692 C 273.386 1.09498 1.16113 0
M  V30 2693 C 273.586 -0.13875 2.01022 0
M  V30 2694 O 272.642 -0.829935 2.38471 0
M  V30 2695 C 273.955 2.36308 1.85954 0
M  V30 2696 C 275.503 2.41856 1.98683 0
M  V30 2697 C 275.978 3.6853 2.71937 0
M  V30 2698 N 277.469 3.69387 2.79477 0
M  V30 2699 C 278.204 4.64096 3.36753 0
M  V30 2700 N 277.7 5.69155 3.95012 0
M  V30 2701 N 279.493 4.51626 3.3465 0
M  V30 2702 H 271.644 2.10118 0.310494 0
M  V30 2703 H 273.907 0.926634 0.200131 0
M  V30 2704 H 273.613 3.26388 1.31011 0
M  V30 2705 H 273.487 2.4561 2.86278 0
M  V30 2706 H 275.874 1.52249 2.52793 0
M  V30 2707 H 275.955 2.36523 0.9742 0
M  V30 2708 H 275.599 4.58499 2.18496 0
M  V30 2709 H 275.529 3.71127 3.73593 0
M  V30 2710 H 278.02 2.93438 2.38123 0
M  V30 2711 H 278.333 6.3751 4.36808 0
M  V30 2712 H 276.678 5.72937 3.93406 0
M  V30 2713 H 279.869 3.68728 2.8837 0
M  V30 2714 H 280.042 5.25614 3.7899 0
M  V30 2715 N 273.449 -1.08991 1.13837 0
M  V30 2716 C 274.399 -2.1393 0.788535 0
M  V30 2717 C 275.383 -1.59396 -0.219516 0
M  V30 2718 O 276.575 -1.76985 -0.0227557 0
M  V30 2719 C 273.704 -3.42305 0.261147 0
M  V30 2720 C 272.79 -4.03736 1.29837 0
M  V30 2721 N 273.181 -4.39659 2.50067 0
M  V30 2722 C 271.479 -4.30993 1.1472 0
M  V30 2723 C 272.18 -4.88113 3.16419 0
M  V30 2724 N 271.156 -4.85846 2.43832 0
M  V30 2725 H 274.958 -2.39516 1.70322 0
M  V30 2726 H 272.472 -1.26263 1.02134 0
M  V30 2727 H 274.469 -4.16899 -0.0077405 0
M  V30 2728 H 273.129 -3.18172 -0.647805 0
M  V30 2729 H 274.14 -4.30878 2.8734 0
M  V30 2730 H 270.817 -4.16444 0.296773 0
M  V30 2731 H 272.207 -5.25336 4.18894 0
M  V30 2732 N 274.927 -0.932562 -1.27047 0
M  V30 2733 C 275.859 -0.392734 -2.2581 0
M  V30 2734 C 276.872 0.479241 -1.55586 0
M  V30 2735 O 278.061 0.291078 -1.76111 0
M  V30 2736 C 275.161 0.455456 -3.35826 0
M  V30 2737 C 274.334 -0.398355 -4.35582 0
M  V30 2738 C 273.393 0.387985 -5.24768 0
M  V30 2739 O 272.419 -0.206003 -5.68827 0
M  V30 2740 N 273.621 1.68664 -5.55457 0
M  V30 2741 H 276.386 -1.24173 -2.72766 0
M  V30 2742 H 273.947 -0.800511 -1.40725 0
M  V30 2743 H 275.939 0.988692 -3.92437 0
M  V30 2744 H 274.509 1.20522 -2.88432 0
M  V30 2745 H 273.729 -1.11286 -3.78165 0
M  V30 2746 H 275.017 -0.981889 -4.99236 0
M  V30 2747 H 274.415 2.19147 -5.21528 0
M  V30 2748 H 272.972 2.1663 -6.14748 0
M  V30 2749 N 276.405 1.4127 -0.698611 0
M  V30 2750 C 277.651 2.01478 -0.231207 0
M  V30 2751 C 277.984 1.55215 1.16713 0
M  V30 2752 O 277.259 0.764672 1.78838 0
M  V30 2753 C 277.542 3.58912 -0.292281 0
M  V30 2754 C 277.395 4.15293 -1.72778 0
M  V30 2755 C 278.714 4.38736 0.346194 0
M  V30 2756 H 275.833 0.732025 -0.0854878 0
M  V30 2757 H 278.475 1.67977 -0.887906 0
M  V30 2758 H 276.625 3.87582 0.26686 0
M  V30 2759 H 278.297 3.97486 -2.341 0
M  V30 2760 H 276.54 3.7022 -2.26096 0
M  V30 2761 H 277.211 5.24452 -1.72202 0
M  V30 2762 H 279.687 4.15897 -0.130035 0
M  V30 2763 H 278.563 5.48221 0.272932 0
M  V30 2764 H 278.824 4.18425 1.42734 0
M  V30 2765 N 277.883 0.443576 1.51229 0
M  V30 2766 C 279.299 0.0962001 1.5931 0
M  V30 2767 C 279.499 -1.39501 1.45402 0
M  V30 2768 O 278.555 -2.16557 1.29843 0
M  V30 2769 C 279.868 0.621875 2.94199 0
M  V30 2770 C 281.416 0.582865 3.07525 0
M  V30 2771 C 281.891 1.08562 4.44948 0
M  V30 2772 N 283.382 1.04387 4.51284 0
M  V30 2773 C 284.117 1.40368 5.55954 0
M  V30 2774 N 283.613 1.83664 6.68011 0
M  V30 2775 N 285.406 1.32145 5.46346 0
M  V30 2776 H 277.557 1.41376 1.58514 0
M  V30 2777 H 279.82 0.582965 0.747567 0
M  V30 2778 H 279.526 1.66546 3.09767 0
M  V30 2779 H 279.4 0.0502125 3.77167 0
M  V30 2780 H 281.787 -0.451749 2.91622 0
M  V30 2781 H 281.868 1.191 2.26382 0
M  V30 2782 H 281.512 2.11873 4.61598 0
M  V30 2783 H 281.442 0.453956 5.2464 0
M  V30 2784 H 283.933 0.725986 3.70861 0
M  V30 2785 H 284.246 2.0934 7.43906 0
M  V30 2786 H 282.591 1.87596 6.69203 0
M  V30 2787 H 285.782 0.981808 4.57688 0
M  V30 2788 H 285.955 1.60514 6.27805 0
M  V30 2789 N 279.361 -1.56624 0.175154 0
M  V30 2790 C 280.777 -1.58571 -0.180966 0
M  V30 2791 C 280.977 -1.19065 -1.6256 0
M  V30 2792 O 280.033 -0.904044 -2.35761 0
M  V30 2793 C 281.346 -3.00522 0.103326 0
M  V30 2794 C 282.894 -3.12972 0.0418426 0
M  V30 2795 C 283.369 -4.57022 0.299175 0
M  V30 2796 N 284.86 -4.62541 0.247086 0
M  V30 2797 C 285.595 -5.71857 0.420318 0
M  V30 2798 N 285.091 -6.89717 0.652816 0
M  V30 2799 N 286.884 -5.60972 0.355957 0
M  V30 2800 H 279.035 -1.80589 1.11809 0
M  V30 2801 H 281.298 -0.837178 0.444788 0
M  V30 2802 H 281.004 -3.33916 1.10422 0
M  V30 2803 H 280.878 -3.72344 -0.603299 0
M  V30 2804 H 283.265 -2.79403 -0.949636 0
M  V30 2805 H 283.346 -2.43578 0.781238 0
M  V30 2806 H 282.99 -4.913 1.28788 0
M  V30 2807 H 282.92 -5.24579 -0.460876 0
M  V30 2808 H 285.411 -3.77829 0.0731895 0
M  V30 2809 H 285.724 -7.68911 0.774347 0
M  V30 2810 H 284.069 -6.91572 0.689476 0
M  V30 2811 H 287.26 -4.67773 0.174882 0
M  V30 2812 H 287.433 -6.46111 0.494388 0
M  V30 2813 N 280.839 0.0985539 -1.57292 0
M  V30 2814 C 281.771 1.14595 -1.98496 0
M  V30 2815 C 282.784 1.36512 -0.887031 0
M  V30 2816 O 283.973 1.35225 -1.16518 0
M  V30 2817 C 281.073 2.50216 -2.28572 0
M  V30 2818 C 280.246 2.48624 -3.59868 0
M  V30 2819 C 279.305 3.66146 -3.7792 0
M  V30 2820 O 278.331 3.48795 -4.49812 0
M  V30 2821 N 279.533 4.85496 -3.18235 0
M  V30 2822 H 282.298 0.795277 -2.88956 0
M  V30 2823 H 279.859 0.287579 -1.59325 0
M  V30 2824 H 281.851 3.27432 -2.37845 0
M  V30 2825 H 280.421 2.77387 -1.44136 0
M  V30 2826 H 279.641 1.56978 -3.61596 0
M  V30 2827 H 280.929 2.44635 -4.46129 0
M  V30 2828 H 280.327 5.02497 -2.59833 0
M  V30 2829 H 278.884 5.60317 -3.32999 0
M  V30 2830 N 282.317 1.53212 0.369288 0
M  V30 2831 C 283.563 1.69466 1.11397 0
M  V30 2832 C 283.896 0.443257 1.89074 0
M  V30 2833 O 283.171 -0.559386 1.86282 0
M  V30 2834 C 283.454 2.9422 2.07621 0
M  V30 2835 C 283.307 4.29508 1.33577 0
M  V30 2836 C 284.626 3.14565 3.07794 0
M  V30 2837 H 281.745 0.616667 0.403597 0
M  V30 2838 H 284.387 1.85845 0.395179 0
M  V30 2839 H 282.537 2.80387 2.68916 0
M  V30 2840 H 284.209 4.55147 0.750955 0
M  V30 2841 H 282.452 4.29088 0.637618 0
M  V30 2842 H 283.123 5.12926 2.03989 0
M  V30 2843 H 285.599 3.2756 2.56601 0
M  V30 2844 H 284.475 4.03297 3.72348 0
M  V30 2845 H 284.736 2.29675 3.77759 0
M  V30 2846 N 283.795 -0.628877 1.44509 0
M  V30 2847 C 284.705 -1.7694 1.54044 0
M  V30 2848 C 285.721 -1.68705 0.425987 0
M  V30 2849 O 286.897 -1.89442 0.683656 0
M  V30 2850 C 283.962 -3.13332 1.48405 0
M  V30 2851 C 283.023 -3.33181 2.70719 0
M  V30 2852 C 282.256 -4.63067 2.6534 0
M  V30 2853 O 282.479 -5.44017 1.71469 0
M  V30 2854 O 281.413 -4.85167 3.56226 0
M  V30 2855 H 285.239 -1.71848 2.50403 0
M  V30 2856 H 282.824 -0.790378 1.26781 0
M  V30 2857 H 284.706 -3.94634 1.47791 0
M  V30 2858 H 283.381 -3.1896 0.551898 0
M  V30 2859 H 282.288 -2.51549 2.769 0
M  V30 2860 H 283.621 -3.32416 3.62988 0
M  V30 2861 N 285.273 -1.31445 -0.869486 0
M  V30 2862 C 286.203 -1.21727 -1.99261 0
M  V30 2863 C 287.184 -0.104359 -1.6978 0
M  V30 2864 O 288.369 -0.289038 -1.92037 0
M  V30 2865 C 285.499 -0.924317 -3.34774 0
M  V30 2866 C 284.453 -1.99685 -3.78563 0
M  V30 2867 C 283.779 -1.55658 -5.11541 0
M  V30 2868 C 285.079 -3.41003 -3.95619 0
M  V30 2869 H 286.773 -2.1569 -2.07649 0
M  V30 2870 H 284.319 -1.03839 -0.997675 0
M  V30 2871 H 286.272 -0.842934 -4.12883 0
M  V30 2872 H 284.996 0.0509793 -3.2656 0
M  V30 2873 H 283.655 -2.06813 -3.02694 0
M  V30 2874 H 283.303 -0.569132 -4.9977 0
M  V30 2875 H 283.003 -2.27409 -5.41811 0
M  V30 2876 H 284.527 -1.48928 -5.92159 0
M  V30 2877 H 285.941 -3.36547 -4.64122 0
M  V30 2878 H 284.338 -4.10975 -4.37286 0
M  V30 2879 H 285.408 -3.81754 -2.98985 0
M  V30 2880 N 286.751 1.08385 -1.14413 0
M  V30 2881 C 287.979 1.84517 -0.936001 0
M  V30 2882 C 288.394 1.81626 0.515503 0
M  V30 2883 O 287.751 1.22008 1.35721 0
M  V30 2884 C 287.802 3.32049 -1.42918 0
M  V30 2885 O 287.523 3.34951 -2.82381 0
M  V30 2886 C 289.024 4.24986 -1.26103 0
M  V30 2887 H 286.244 0.582491 -0.333084 0
M  V30 2888 H 288.788 1.36885 -1.5193 0
M  V30 2889 H 286.943 3.7707 -0.888641 0
M  V30 2890 H 287.357 4.27048 -3.04517 0
M  V30 2891 H 288.831 5.26615 -1.6547 0
M  V30 2892 H 289.308 4.38726 -0.20392 0
M  V30 2893 H 289.914 3.85791 -1.79012 0
M  V30 2894 N 288.23 0.939286 1.26551 0
M  V30 2895 C 289.193 0.451987 2.24699 0
M  V30 2896 C 290.193 -0.435869 1.5478 0
M  V30 2897 O 291.383 -0.235314 1.72603 0
M  V30 2898 C 288.515 -0.348801 3.39111 0
M  V30 2899 H 289.708 1.3193 2.69322 0
M  V30 2900 H 287.261 0.721072 1.38673 0
M  V30 2901 H 287.996 -1.23444 2.99887 0
M  V30 2902 H 287.781 0.287945 3.91041 0
M  V30 2903 H 289.271 -0.679726 4.12031 0
M  V30 2904 N 289.708 -1.40897 0.706093 0
M  V30 2905 C 290.655 -2.30751 0.0474474 0
M  V30 2906 C 291.625 -1.47678 -0.76029 0
M  V30 2907 O 292.81 -1.76441 -0.726177 0
M  V30 2908 C 289.95 -3.33815 -0.875309 0
M  V30 2909 C 289.063 -4.31961 -0.0580623 0
M  V30 2910 C 288.198 -5.22093 -0.979425 0
M  V30 2911 C 287.237 -6.11902 -0.155706 0
M  V30 2912 N 286.374 -6.94482 -1.03144 0
M  V30 2913 H 291.214 -2.86513 0.819413 0
M  V30 2914 H 288.751 -1.41102 0.415783 0
M  V30 2915 H 290.709 -3.92129 -1.42446 0
M  V30 2916 H 289.339 -2.79579 -1.61356 0
M  V30 2917 H 288.391 -3.75507 0.608147 0
M  V30 2918 H 289.703 -4.95415 0.580082 0
M  V30 2919 H 288.857 -5.85292 -1.59744 0
M  V30 2920 H 287.596 -4.5889 -1.65141 0
M  V30 2921 H 286.601 -5.47742 0.475309 0
M  V30 2922 H 287.826 -6.77162 0.512635 0
M  V30 2923 H 285.772 -6.33877 -1.68924 0
M  V30 2924 H 285.689 -7.54665 -0.449108 0
M  V30 2925 H 286.957 -7.6214 -1.63593 0
M  V30 2926 N 291.186 -0.45159 -1.50991 0
M  V30 2927 C 292.116 0.342898 -2.30969 0
M  V30 2928 C 293.097 1.00815 -1.37005 0
M  V30 2929 O 294.282 1.00907 -1.65926 0
M  V30 2930 C 291.412 1.43637 -3.16205 0
M  V30 2931 C 290.366 0.893818 -4.18563 0
M  V30 2932 C 289.692 2.08411 -4.92411 0
M  V30 2933 C 290.992 -0.0815568 -5.22236 0
M  V30 2934 H 292.686 -0.324556 -2.97636 0
M  V30 2935 H 290.232 -0.157531 -1.43136 0
M  V30 2936 H 292.185 1.9995 -3.70942 0
M  V30 2937 H 290.909 2.13232 -2.47386 0
M  V30 2938 H 289.568 0.352798 -3.64898 0
M  V30 2939 H 289.216 2.76658 -4.20082 0
M  V30 2940 H 288.916 1.72741 -5.61636 0
M  V30 2941 H 290.44 2.65251 -5.49976 0
M  V30 2942 H 291.854 0.391742 -5.7196 0
M  V30 2943 H 290.251 -0.351551 -5.99069 0
M  V30 2944 H 291.321 -1.01374 -4.74185 0
M  V30 2945 N 292.664 1.56529 -0.183458 0
M  V30 2946 C 293.594 2.21549 0.737456 0
M  V30 2947 C 294.575 1.17489 1.23005 0
M  V30 2948 O 295.76 1.45959 1.281 0
M  V30 2949 C 292.89 2.86575 1.96194 0
M  V30 2950 C 291.844 3.96778 1.60473 0
M  V30 2951 C 291.17 4.48911 2.90487 0
M  V30 2952 C 292.47 5.15767 0.823497 0
M  V30 2953 H 294.164 2.98761 0.195453 0
M  V30 2954 H 291.71 1.43702 0.0925686 0
M  V30 2955 H 293.663 3.30739 2.61131 0
M  V30 2956 H 292.387 2.06749 2.52828 0
M  V30 2957 H 291.046 3.53286 0.978997 0
M  V30 2958 H 290.694 3.65862 3.45186 0
M  V30 2959 H 290.394 5.23265 2.67335 0
M  V30 2960 H 291.918 4.95771 3.56432 0
M  V30 2961 H 293.332 5.56549 1.37571 0
M  V30 2962 H 291.729 5.96114 0.690551 0
M  V30 2963 H 292.799 4.84574 -0.177782 0
M  V30 2964 N 294.142 -0.090211 1.57342 0
M  V30 2965 C 295.39 -0.791241 1.85967 0
M  V30 2966 C 295.711 -1.7903 0.772859 0
M  V30 2967 O 294.981 -1.94872 -0.200398 0
M  V30 2968 H 293.561 -0.295205 0.686195 0
M  V30 2969 H 296.223 -0.0706782 1.94772 0
M  V30 2970 H 295.319 -1.31882 2.82867 0
M  V30 2971 O 295.659 -1.59794 -0.234115 0
M  V30 2972 H 296.35 -1.72743 -0.876335 0
M  V30 END ATOM
M  V30 BEGIN BOND
M  V30 END BOND
M  V30 END CTAB
M  END
$$$$
