drugbank_drug|DB13173 Cerliponase alfa Sequence
 OpenBabel12092119133D

  0  0  0     0  0            999 V3000
M  V30 BEGIN CTAB
M  V30 COUNTS 8232 8357 0 0 0
M  V30 BEGIN ATOM
M  V30 1 H -0.908 1.98254 -0.117106 0
M  V30 2 N 0 1.576 0 0
M  V30 3 C 1.225 1.95249 0.699468 0
M  V30 4 C 1.65 0.874934 1.66513 0
M  V30 5 O 1.008 -0.166929 1.8053 0
M  V30 6 C 1.056 3.31994 1.40756 0
M  V30 7 O 0.16 3.26298 2.52197 0
M  V30 8 H -0.499 0.637402 0.186051 0
M  V30 9 H 2.031 2.04531 -0.05319 0
M  V30 10 H 2.041 3.6756 1.77098 0
M  V30 11 H 0.716 4.09975 0.69953 0
M  V30 12 H -0.707 3.02408 2.18183 0
M  V30 13 N 1.4781 -0.272755 1.55222 0
M  V30 14 C 2.7081 -1.02107 1.79604 0
M  V30 15 C 3.1161 -1.80419 0.569693 0
M  V30 16 O 2.4591 -1.77566 -0.470743 0
M  V30 17 C 2.5211 -2.02675 2.96922 0
M  V30 18 C 2.1851 -1.43299 4.33952 0
M  V30 19 C 3.1821 -0.84853 5.12929 0
M  V30 20 C 0.8671 -1.46012 4.8061 0
M  V30 21 C 2.8611 -0.299109 6.36698 0
M  V30 22 C 0.5481 -0.906833 6.04334 0
M  V30 23 C 1.5461 -0.32733 6.82215 0
M  V30 24 O 1.2341 0.217479 8.03606 0
M  V30 25 H 0.9661 -0.307322 0.602104 0
M  V30 26 H 3.5201 -0.308862 2.03065 0
M  V30 27 H 1.7501 -2.77656 2.69155 0
M  V30 28 H 3.4391 -2.63637 3.08626 0
M  V30 29 H 4.2051 -0.820265 4.78013 0
M  V30 30 H 0.0841 -1.90056 4.2 0
M  V30 31 H 3.6281 0.153852 6.9743 0
M  V30 32 H -0.4749 -0.932339 6.38731 0
M  V30 33 H 0.2931 0.106863 8.1843 0
M  V30 34 N 2.9562 -1.48159 -0.537278 0
M  V30 35 C 4.1812 -1.59707 -1.32319 0
M  V30 36 C 4.6062 -0.254859 -1.86365 0
M  V30 37 O 3.9642 0.772378 -1.64024 0
M  V30 38 C 4.0122 -2.6412 -2.45505 0
M  V30 39 O 3.1162 -2.20774 -3.48328 0
M  V30 40 H 2.4572 -0.535791 -0.392204 0
M  V30 41 H 4.9872 -1.94092 -0.647268 0
M  V30 42 H 4.9972 -2.85166 -2.91795 0
M  V30 43 H 3.6722 -3.61567 -2.05528 0
M  V30 44 H 2.2492 -2.09911 -3.08207 0
M  V30 45 N 4.4343 0.785586 -1.36625 0
M  V30 46 C 5.8453 1.36101 -1.27803 0
M  V30 47 C 6.1963 1.96035 0.0804875 0
M  V30 48 O 5.3213 1.92834 0.982042 0
M  V30 49 C 5.9163 2.47442 -2.31426 0
M  V30 50 C 4.4753 3.00789 -2.26281 0
M  V30 51 C 3.6223 1.73896 -2.15999 0
M  V30 52 H 6.5733 0.586928 -1.47448 0
M  V30 53 H 6.5943 3.2656 -1.95291 0
M  V30 54 H 6.1063 2.03791 -3.30289 0
M  V30 55 H 4.2073 3.48851 -1.30896 0
M  V30 56 H 4.3203 3.57343 -3.19128 0
M  V30 57 H 2.6843 1.9628 -1.62316 0
M  V30 58 H 3.4673 1.32368 -3.16755 0
M  V30 59 N 5.9124 1.20967 1.01018 0
M  V30 60 C 6.8224 0.980157 2.13143 0
M  V30 61 C 7.8384 -0.0660665 1.73875 0
M  V30 62 O 9.0144 0.122821 2.01025 0
M  V30 63 C 6.0794 0.54216 3.42435 0
M  V30 64 C 5.1404 1.65999 3.95908 0
M  V30 65 C 4.3734 1.2428 5.19028 0
M  V30 66 O 4.5964 0.114196 5.70286 0
M  V30 67 O 3.5304 2.05271 5.65816 0
M  V30 68 H 7.3564 1.91913 2.35379 0
M  V30 69 H 4.9414 0.994099 1.11526 0
M  V30 70 H 6.8234 0.30744 4.20277 0
M  V30 71 H 5.4984 -0.36815 3.216 0
M  V30 72 H 4.4054 1.94906 3.19316 0
M  V30 73 H 5.7384 2.54753 4.21143 0
M  V30 74 N 7.3905 -1.2043 1.01659 0
M  V30 75 C 8.8015 -1.71517 0.737482 0
M  V30 76 C 9.1525 -1.81547 -0.743973 0
M  V30 77 O 8.2775 -1.47803 -1.58061 0
M  V30 78 C 8.8725 -3.11515 1.33206 0
M  V30 79 C 7.4315 -3.59912 1.10183 0
M  V30 80 C 6.5785 -2.37116 1.43776 0
M  V30 81 H 9.5295 -1.05444 1.18606 0
M  V30 82 H 9.5505 -3.73575 0.722636 0
M  V30 83 H 9.0625 -3.04182 2.41028 0
M  V30 84 H 7.1635 -3.72577 0.0412756 0
M  V30 85 H 7.2765 -4.44731 1.78188 0
M  V30 86 H 5.6405 -2.39857 0.856778 0
M  V30 87 H 6.4235 -2.32424 2.52654 0
M  V30 88 N 8.8686 -0.792821 -1.36206 0
M  V30 89 C 10.1456 -0.290627 -1.93429 0
M  V30 90 C 10.5256 1.21773 -1.72437 0
M  V30 91 O 9.8736 2.0108 -1.08531 0
M  V30 92 C 10.0836 -0.686973 -3.42172 0
M  V30 93 C 11.4316 -0.668643 -4.19302 0
M  V30 94 O 12.4556 -0.627658 -3.50626 0
M  V30 95 O 11.3146 -0.714597 -5.41808 0
M  V30 96 H 8.4086 -0.0727927 -0.82379 0
M  V30 97 H 10.9546 -0.875593 -1.45367 0
M  V30 98 H 9.7266 -1.72711 -3.51122 0
M  V30 99 H 9.3496 -0.0760733 -3.97527 0
M  V30 100 N 10.3467 1.47872 -0.545128 0
M  V30 101 C 11.2787 2.27869 0.246621 0
M  V30 102 C 12.2917 1.36282 0.890561 0
M  V30 103 O 13.4807 1.61207 0.766449 0
M  V30 104 C 10.5807 3.10159 1.36582 0
M  V30 105 C 9.7537 4.29627 0.820954 0
M  V30 106 C 8.8127 4.93607 1.82314 0
M  V30 107 O 7.8387 5.52366 1.37406 0
M  V30 108 N 9.0407 4.87211 3.15603 0
M  V30 109 H 11.8057 2.96459 -0.439539 0
M  V30 110 H 9.3667 1.57367 -0.380421 0
M  V30 111 H 11.3587 3.49829 2.03474 0
M  V30 112 H 9.9287 2.43891 1.9554 0
M  V30 113 H 9.1487 3.94192 -0.0244032 0
M  V30 114 H 10.4367 5.06928 0.436063 0
M  V30 115 H 9.8347 4.40651 3.54744 0
M  V30 116 H 8.3917 5.30937 3.78087 0
M  V30 117 N 11.8248 0.280983 1.55075 0
M  V30 118 C 13.2408 -0.0729964 1.59433 0
M  V30 119 C 13.4408 -1.5411 1.29817 0
M  V30 120 O 12.4968 -2.29086 1.06187 0
M  V30 121 C 13.8098 0.306921 2.9913 0
M  V30 122 C 15.3578 0.254023 3.11968 0
M  V30 123 C 15.8328 0.608467 4.5394 0
M  V30 124 N 17.3238 0.560241 4.59799 0
M  V30 125 C 18.0588 0.80722 5.6769 0
M  V30 126 N 17.5548 1.11912 6.83701 0
M  V30 127 N 19.3478 0.735623 5.57266 0
M  V30 128 H 11.4988 1.238 1.7259 0
M  V30 129 H 13.7618 0.500547 0.805082 0
M  V30 130 H 13.4678 1.32816 3.25657 0
M  V30 131 H 13.3418 -0.349363 3.75579 0
M  V30 132 H 15.7288 -0.75794 2.852 0
M  V30 133 H 15.8098 0.944649 2.37718 0
M  V30 134 H 15.4538 1.61814 4.81434 0
M  V30 135 H 15.3838 -0.104013 5.26497 0
M  V30 136 H 17.8748 0.329288 3.76463 0
M  V30 137 H 18.1878 1.29409 7.61888 0
M  V30 138 H 16.5328 1.15695 6.85303 0
M  V30 139 H 19.7238 0.491752 4.6551 0
M  V30 140 H 19.8968 0.931482 6.4127 0
M  V30 141 N 13.3029 -1.57598 0.00835791 0
M  V30 142 C 14.7189 -1.55764 -0.347822 0
M  V30 143 C 14.9189 -1.01186 -1.74252 0
M  V30 144 O 13.9749 -0.649371 -2.44007 0
M  V30 145 C 15.2879 -2.99927 -0.215407 0
M  V30 146 C 16.8359 -3.11656 -0.289725 0
M  V30 147 C 17.3109 -4.57621 -0.18634 0
M  V30 148 N 18.8019 -4.62557 -0.243978 0
M  V30 149 C 19.5369 -5.73094 -0.18745 0
M  V30 150 N 19.0329 -6.92753 -0.0810331 0
M  V30 151 N 20.8259 -5.61588 -0.239925 0
M  V30 152 H 12.9769 -1.91411 0.92062 0
M  V30 153 H 15.2399 -0.879562 0.353659 0
M  V30 154 H 14.9459 -3.43729 0.744512 0
M  V30 155 H 14.8199 -3.63865 -0.994097 0
M  V30 156 H 17.2069 -2.67779 -1.24009 0
M  V30 157 H 17.2879 -2.5048 0.51898 0
M  V30 158 H 16.9319 -5.02174 0.760519 0
M  V30 159 H 16.8619 -5.16752 -1.01364 0
M  V30 160 H 19.3529 -3.76481 -0.327217 0
M  V30 161 H 19.6659 -7.72787 -0.0440241 0
M  V30 162 H 18.0109 -6.94984 -0.0465419 0
M  V30 163 H 21.2019 -4.66996 -0.321317 0
M  V30 164 H 21.3749 -6.47714 -0.192407 0
M  V30 165 N 14.781 0.264519 -1.55364 0
M  V30 166 C 16.009 1.013 -1.80405 0
M  V30 167 C 16.424 1.79618 -0.581622 0
M  V30 168 O 15.781 1.76879 0.449468 0
M  V30 169 C 15.832 1.96487 -3.03439 0
M  V30 170 O 15.553 1.21341 -4.20961 0
M  V30 171 C 17.054 2.83079 -3.41147 0
M  V30 172 H 14.274 0.298875 -0.600762 0
M  V30 173 H 16.818 0.292736 -2.02394 0
M  V30 174 H 14.973 2.63965 -2.83551 0
M  V30 175 H 15.387 1.85573 -4.90574 0
M  V30 176 H 16.861 3.4565 -4.30384 0
M  V30 177 H 17.338 3.53286 -2.60932 0
M  V30 178 H 17.944 2.2108 -3.63323 0
M  V30 179 N 16.2591 1.48442 0.529413 0
M  V30 180 C 17.1891 1.65902 1.64313 0
M  V30 181 C 18.1701 0.507897 1.6234 0
M  V30 182 O 19.3551 0.740503 1.79528 0
M  V30 183 C 16.4851 1.69911 3.02898 0
M  V30 184 C 15.4391 2.8453 3.19729 0
M  V30 185 C 14.7651 2.73629 4.59381 0
M  V30 186 C 16.0651 4.25821 3.02447 0
M  V30 187 H 17.7591 2.5914 1.49955 0
M  V30 188 H 15.3051 1.24709 0.719982 0
M  V30 189 H 17.2581 1.80715 3.80684 0
M  V30 190 H 15.9821 0.732524 3.18279 0
M  V30 191 H 14.6411 2.73283 2.44361 0
M  V30 192 H 14.2891 1.74938 4.71599 0
M  V30 193 H 13.9891 3.50541 4.71588 0
M  V30 194 H 15.5131 2.86401 5.39265 0
M  V30 195 H 16.9271 4.37898 3.70024 0
M  V30 196 H 15.3241 5.03735 3.26146 0
M  V30 197 H 16.3941 4.42244 1.98867 0
M  V30 198 N 17.7372 -0.778329 1.37039 0
M  V30 199 C 19.1482 -1.35421 1.28523 0
M  V30 200 C 19.4992 -1.96075 -0.0700901 0
M  V30 201 O 18.6242 -1.93352 -0.971801 0
M  V30 202 C 19.2192 -2.46211 2.32735 0
M  V30 203 C 17.7782 -2.99585 2.27873 0
M  V30 204 C 16.9252 -1.72748 2.16918 0
M  V30 205 H 19.8762 -0.5791 1.47757 0
M  V30 206 H 19.8972 -3.2552 1.9702 0
M  V30 207 H 19.4092 -2.02036 3.31365 0
M  V30 208 H 17.5102 -3.48152 1.32745 0
M  V30 209 H 17.6232 -3.55646 3.21018 0
M  V30 210 H 15.9872 -1.95416 1.63354 0
M  V30 211 H 16.7702 -1.30686 3.17452 0
M  V30 212 N 19.2153 -1.21501 -1.00376 0
M  V30 213 C 20.6263 -1.03146 -1.55621 0
M  V30 214 C 20.9773 0.408375 -1.91903 0
M  V30 215 O 20.1023 1.29177 -1.73616 0
M  V30 216 C 20.6973 -1.86612 -2.82775 0
M  V30 217 C 19.2563 -1.72586 -3.34501 0
M  V30 218 C 18.4033 -1.83747 -2.07683 0
M  V30 219 H 21.3543 -1.35505 -0.826081 0
M  V30 220 H 21.3753 -1.3771 -3.54706 0
M  V30 221 H 20.8873 -2.91399 -2.56336 0
M  V30 222 H 18.9883 -0.704877 -3.65872 0
M  V30 223 H 19.1013 -2.54623 -4.05837 0
M  V30 224 H 17.4653 -1.27069 -2.20739 0
M  V30 225 H 18.2483 -2.90044 -1.83655 0
M  V30 226 N 20.6934 1.19889 -1.02296 0
M  V30 227 C 21.9414 1.89046 -0.714558 0
M  V30 228 C 22.2624 1.79636 0.758681 0
M  V30 229 O 21.5324 1.20292 1.54618 0
M  V30 230 H 20.1124 0.699802 -0.261317 0
M  V30 231 H 22.7744 1.45574 -1.29592 0
M  V30 232 H 21.8704 2.95524 -1.0036 0
M  V30 233 N 22.1715 0.800033 1.35784 0
M  V30 234 C 23.4175 0.38701 1.99684 0
M  V30 235 C 23.7725 -1.03268 1.62338 0
M  V30 236 O 23.0655 -1.70543 0.87325 0
M  V30 237 C 23.2595 0.500276 3.53881 0
M  V30 238 C 23.0885 1.92942 4.06206 0
M  V30 239 C 21.8585 2.55637 4.35865 0
M  V30 240 C 24.0565 2.89307 4.25213 0
M  V30 241 N 22.0385 3.9003 4.74078 0
M  V30 242 C 23.4095 4.08556 4.66349 0
M  V30 243 C 25.4645 2.86225 4.07406 0
M  V30 244 C 24.1675 5.25146 4.91543 0
M  V30 245 C 26.1935 4.02011 4.33752 0
M  V30 246 C 25.5555 5.20007 4.75155 0
M  V30 247 H 21.6545 0.189252 0.758754 0
M  V30 248 H 24.2385 1.03988 1.64604 0
M  V30 249 H 22.4095 -0.122568 3.88207 0
M  V30 250 H 24.1415 0.0624733 4.04652 0
M  V30 251 H 20.8965 2.07039 4.25948 0
M  V30 252 H 21.3205 4.59205 4.97454 0
M  V30 253 H 25.9625 1.96154 3.74544 0
M  V30 254 H 23.6805 6.15794 5.23281 0
M  V30 255 H 27.2665 4.00999 4.21534 0
M  V30 256 H 26.1465 6.08113 4.95145 0
M  V30 257 N 23.6496 -1.47581 0.552962 0
M  V30 258 C 24.8956 -2.02782 0.0273648 0
M  V30 259 C 25.2286 -1.42687 -1.31734 0
M  V30 260 O 24.5036 -0.580897 -1.85623 0
M  V30 261 C 24.7866 -3.60031 -0.0702371 0
M  V30 262 C 24.6396 -4.30566 1.30126 0
M  V30 263 C 25.9586 -4.33028 -0.785771 0
M  V30 264 H 23.0776 -0.736912 0.0114185 0
M  V30 265 H 25.7196 -1.76056 0.714432 0
M  V30 266 H 23.8696 -3.82932 -0.655382 0
M  V30 267 H 25.5416 -4.19018 1.92929 0
M  V30 268 H 23.7846 -3.91086 1.87709 0
M  V30 269 H 24.4556 -5.39114 1.18573 0
M  V30 270 H 26.9316 -4.15095 -0.288982 0
M  V30 271 H 25.8076 -5.42695 -0.823013 0
M  V30 272 H 26.0686 -4.01945 -1.841 0
M  V30 273 N 25.1277 -0.289203 -1.54924 0
M  V30 274 C 26.3527 0.329299 -2.04769 0
M  V30 275 C 26.7777 1.4763 -1.16564 0
M  V30 276 O 26.1357 1.80527 -0.167186 0
M  V30 277 C 26.1837 0.774438 -3.52186 0
M  V30 278 O 25.2877 1.88038 -3.67036 0
M  V30 279 H 24.6287 0.0659259 -0.660719 0
M  V30 280 H 27.1587 -0.42761 -2.00082 0
M  V30 281 H 27.1687 1.06642 -3.93816 0
M  V30 282 H 25.8437 -0.0646707 -4.1585 0
M  V30 283 H 24.4207 1.58985 -3.3731 0
M  V30 284 N 26.6058 1.57591 -0.0167156 0
M  V30 285 C 27.5358 2.12496 0.967858 0
M  V30 286 C 28.5168 1.03807 1.34752 0
M  V30 287 O 29.7018 1.31577 1.42833 0
M  V30 288 C 26.8318 2.64194 2.25431 0
M  V30 289 C 25.7858 3.77559 2.01576 0
M  V30 290 C 25.1118 4.15636 3.36379 0
M  V30 291 C 26.4118 5.04151 1.36489 0
M  V30 292 H 28.1058 2.95013 0.510643 0
M  V30 293 H 25.6518 1.41915 0.244181 0
M  V30 294 H 27.6048 3.01236 2.94678 0
M  V30 295 H 26.3288 1.78821 2.73296 0
M  V30 296 H 24.9878 3.40937 1.34751 0
M  V30 297 H 24.6358 3.27263 3.81979 0
M  V30 298 H 24.3358 4.92022 3.21229 0
M  V30 299 H 25.8598 4.5525 4.06915 0
M  V30 300 H 27.2738 5.38857 1.95718 0
M  V30 301 H 25.6708 5.85453 1.31776 0
M  V30 302 H 26.7408 4.83733 0.336219 0
M  V30 303 N 28.0839 -0.256276 1.55502 0
M  V30 304 C 29.3319 -0.983672 1.76545 0
M  V30 305 C 29.6529 -1.86206 0.578982 0
M  V30 306 O 28.9229 -1.91656 -0.405577 0
M  V30 307 H 27.5029 -0.366191 0.651086 0
M  V30 308 H 30.1649 -0.276479 1.92929 0
M  V30 309 H 29.2609 -1.61087 2.67315 0
M  V30 310 N 29.562 -1.4872 -0.521534 0
M  V30 311 C 30.978 -1.35028 -0.850855 0
M  V30 312 C 31.178 -0.367712 -1.98116 0
M  V30 313 O 30.234 0.208037 -2.51642 0
M  V30 314 C 31.547 -2.75263 -1.21041 0
M  V30 315 C 33.095 -2.83813 -1.31981 0
M  V30 316 C 33.57 -4.24769 -1.71276 0
M  V30 317 N 35.061 -4.27482 -1.78363 0
M  V30 318 C 35.796 -5.33494 -2.1017 0
M  V30 319 N 35.292 -6.49775 -2.40343 0
M  V30 320 N 37.085 -5.20894 -2.11248 0
M  V30 321 H 29.236 -2.11214 0.22413 0
M  V30 322 H 31.499 -0.947252 0.0376439 0
M  V30 323 H 31.205 -3.48765 -0.453415 0
M  V30 324 H 31.079 -3.09327 -2.15863 0
M  V30 325 H 33.466 -2.10561 -2.06756 0
M  V30 326 H 33.547 -2.53358 -0.352596 0
M  V30 327 H 33.191 -4.9854 -0.970588 0
M  V30 328 H 33.121 -4.52673 -2.69062 0
M  V30 329 H 35.612 -3.43611 -1.57288 0
M  V30 330 H 35.925 -7.26402 -2.63743 0
M  V30 331 H 34.27 -6.53035 -2.37844 0
M  V30 332 H 37.461 -4.29065 -1.87139 0
M  V30 333 H 37.634 -6.03612 -2.35704 0
M  V30 334 N 31.0401 0.771051 -1.3745 0
M  V30 335 C 32.0031 1.86598 -1.33093 0
M  V30 336 C 33.0031 1.59076 -0.234845 0
M  V30 337 O 34.1931 1.67145 -0.490732 0
M  V30 338 C 31.3251 3.23747 -1.06773 0
M  V30 339 H 32.5181 1.91873 -2.30488 0
M  V30 340 H 30.0711 0.970876 -1.2249 0
M  V30 341 H 30.8061 3.24148 -0.099129 0
M  V30 342 H 30.5911 3.45115 -1.86112 0
M  V30 343 H 32.0811 4.03824 -1.06377 0
M  V30 344 N 32.5182 1.22032 0.997298 0
M  V30 345 C 33.7952 0.950823 1.70935 0
M  V30 346 C 34.1752 -0.535292 2.042 0
M  V30 347 O 33.5232 -1.50217 1.72183 0
M  V30 348 C 33.7332 1.84386 2.96315 0
M  V30 349 C 35.0812 2.09732 3.69185 0
M  V30 350 O 36.1052 1.81798 3.06314 0
M  V30 351 O 34.9642 2.57018 4.82291 0
M  V30 352 H 32.0582 0.357204 0.745878 0
M  V30 353 H 34.6042 1.32997 1.05404 0
M  V30 354 H 33.3762 2.84928 2.68201 0
M  V30 355 H 32.9992 1.46602 3.69586 0
M  V30 356 N 33.9963 -1.19345 1.0293 0
M  V30 357 C 35.4073 -1.70725 0.755633 0
M  V30 358 C 35.7583 -1.82326 -0.724676 0
M  V30 359 O 34.8833 -1.49471 -1.56484 0
M  V30 360 C 35.4783 -3.10084 1.36503 0
M  V30 361 C 34.0373 -3.58723 1.13994 0
M  V30 362 C 33.1843 -2.35577 1.46283 0
M  V30 363 H 36.1353 -1.0418 1.19718 0
M  V30 364 H 36.1563 -3.72787 0.762217 0
M  V30 365 H 35.6683 -3.01609 2.44241 0
M  V30 366 H 33.7693 -3.72512 0.0807901 0
M  V30 367 H 33.8823 -4.42816 1.82894 0
M  V30 368 H 32.2463 -2.38935 0.88217 0
M  V30 369 H 33.0293 -2.29731 2.55105 0
M  V30 370 N 35.4744 -0.807222 -1.35358 0
M  V30 371 C 36.3844 -0.219594 -2.3357 0
M  V30 372 C 37.4004 0.637734 -1.61892 0
M  V30 373 O 38.5764 0.549336 -1.93763 0
M  V30 374 C 35.6414 0.62158 -3.41083 0
M  V30 375 C 34.7024 -0.256315 -4.28534 0
M  V30 376 C 33.9354 0.544807 -5.30912 0
M  V30 377 O 34.1584 1.77944 -5.41934 0
M  V30 378 O 33.0924 -0.0646478 -6.01865 0
M  V30 379 H 36.9184 -1.03208 -2.85625 0
M  V30 380 H 34.5034 -0.569025 -1.38139 0
M  V30 381 H 36.3854 1.10067 -4.06772 0
M  V30 382 H 35.0604 1.41165 -2.91297 0
M  V30 383 H 33.9674 -0.782559 -3.65823 0
M  V30 384 H 35.3004 -1.01034 -4.81719 0
M  V30 385 N 36.9525 1.47285 -0.560781 0
M  V30 386 C 37.8625 2.33846 0.187954 0
M  V30 387 C 38.8785 1.48412 0.908293 0
M  V30 388 O 40.0545 1.81332 0.876388 0
M  V30 389 C 37.1195 3.25178 1.2025 0
M  V30 390 C 36.1805 4.26504 0.489208 0
M  V30 391 C 35.4135 5.13472 1.45542 0
M  V30 392 O 35.6365 5.02959 2.6905 0
M  V30 393 O 34.5705 5.93902 0.977963 0
M  V30 394 H 38.3965 2.99177 -0.522177 0
M  V30 395 H 35.9815 1.45903 -0.321364 0
M  V30 396 H 37.8635 3.81584 1.78805 0
M  V30 397 H 36.5385 2.6247 1.89449 0
M  V30 398 H 35.4455 3.73847 -0.137627 0
M  V30 399 H 36.7785 4.91935 -0.161399 0
M  V30 400 N 38.4306 0.297415 1.54768 0
M  V30 401 C 39.3406 -0.58983 2.27064 0
M  V30 402 C 40.3566 -1.15144 1.30453 0
M  V30 403 O 41.5326 -1.17699 1.63428 0
M  V30 404 C 38.5976 -1.74714 2.9946 0
M  V30 405 C 37.6586 -1.21997 4.11601 0
M  V30 406 C 36.8916 -2.32212 4.80535 0
M  V30 407 O 37.1146 -3.52036 4.48806 0
M  V30 408 O 36.0486 -1.99106 5.68014 0
M  V30 409 H 39.8746 -0.00348199 3.037 0
M  V30 410 H 37.4596 0.0640035 1.49263 0
M  V30 411 H 39.3416 -2.42147 3.44881 0
M  V30 412 H 38.0166 -2.32016 2.25722 0
M  V30 413 H 36.9236 -0.511458 3.70587 0
M  V30 414 H 38.2566 -0.692419 4.87305 0
M  V30 415 N 39.9087 -1.5758 0.0250728 0
M  V30 416 C 40.8387 -2.13007 -0.956575 0
M  V30 417 C 41.8197 -1.0452 -1.342 0
M  V30 418 O 43.0047 -1.32332 -1.42133 0
M  V30 419 C 40.1347 -2.65386 -2.24026 0
M  V30 420 C 39.0887 -3.78623 -1.99571 0
M  V30 421 C 38.4147 -4.17414 -3.3417 0
M  V30 422 C 39.7147 -5.04867 -1.33814 0
M  V30 423 H 41.4087 -2.9528 -0.494991 0
M  V30 424 H 38.9547 -1.42042 -0.236651 0
M  V30 425 H 40.9077 -3.02794 -2.93076 0
M  V30 426 H 39.6317 -1.80268 -2.72343 0
M  V30 427 H 38.2907 -3.41646 -1.32941 0
M  V30 428 H 37.9387 -3.29284 -3.80238 0
M  V30 429 H 37.6387 -4.93719 -3.18615 0
M  V30 430 H 39.1627 -4.57402 -4.04495 0
M  V30 431 H 40.5767 -5.39888 -1.92857 0
M  V30 432 H 38.9737 -5.86144 -1.28669 0
M  V30 433 H 40.0437 -4.83904 -0.310561 0
M  V30 434 N 41.3868 0.248026 -1.55636 0
M  V30 435 C 42.6118 0.998028 -1.81808 0
M  V30 436 C 43.0368 1.78207 -0.601979 0
M  V30 437 O 42.3948 1.75653 0.448961 0
M  V30 438 C 42.4428 1.9125 -3.05705 0
M  V30 439 O 41.5468 3.00406 -2.82542 0
M  V30 440 H 40.8878 0.284045 -0.600179 0
M  V30 441 H 43.4178 0.269357 -2.02819 0
M  V30 442 H 43.4278 2.32737 -3.35108 0
M  V30 443 H 42.1028 1.33602 -3.93857 0
M  V30 444 H 40.6798 2.63056 -2.64303 0
M  V30 445 N 42.8649 1.48995 0.513639 0
M  V30 446 C 43.7949 1.67636 1.62544 0
M  V30 447 C 44.7759 0.525087 1.61793 0
M  V30 448 O 45.9609 0.759502 1.78732 0
M  V30 449 C 43.0909 1.73114 3.01079 0
M  V30 450 C 42.0449 2.87905 3.16693 0
M  V30 451 C 41.3709 2.78486 4.56453 0
M  V30 452 C 42.6709 4.29005 2.97913 0
M  V30 453 H 44.3649 2.60716 1.47198 0
M  V30 454 H 41.9109 1.25465 0.706714 0
M  V30 455 H 43.8639 1.84742 3.78746 0
M  V30 456 H 42.5879 0.766241 3.17484 0
M  V30 457 H 41.2469 2.75859 2.41448 0
M  V30 458 H 40.8949 1.7993 4.69717 0
M  V30 459 H 40.5949 3.55523 4.67843 0
M  V30 460 H 42.1189 2.92104 5.36197 0
M  V30 461 H 43.5329 4.41798 3.65359 0
M  V30 462 H 41.9299 5.07166 3.20785 0
M  V30 463 H 42.9999 4.44329 1.94165 0
M  V30 464 N 44.343 -0.763751 1.37857 0
M  V30 465 C 45.571 -1.55293 1.36718 0
M  V30 466 C 45.986 -1.88745 -0.0455434 0
M  V30 467 O 45.343 -1.52039 -1.00947 0
M  V30 468 C 45.394 -2.85831 2.2132 0
M  V30 469 O 45.115 -2.5381 3.57089 0
M  V30 470 C 46.616 -3.80023 2.28249 0
M  V30 471 H 43.836 -0.480841 0.468009 0
M  V30 472 H 46.38 -0.946009 1.81303 0
M  V30 473 H 44.535 -3.42926 1.80223 0
M  V30 474 H 44.949 -3.37459 4.01524 0
M  V30 475 H 46.423 -4.68599 2.91752 0
M  V30 476 H 46.9 -4.1973 1.2932 0
M  V30 477 H 47.506 -3.28855 2.69693 0
M  V30 478 N 45.8211 -1.22559 -0.990812 0
M  V30 479 C 47.0681 -1.05141 -1.73065 0
M  V30 480 C 47.3961 0.413191 -1.9006 0
M  V30 481 O 46.6511 1.32257 -1.44245 0
M  V30 482 C 46.9501 -1.71011 -3.13831 0
M  V30 483 C 46.6161 -3.20911 -3.16745 0
M  V30 484 C 45.2781 -3.61812 -3.17247 0
M  V30 485 C 47.6301 -4.16846 -3.12872 0
M  V30 486 C 44.9581 -4.97127 -3.1158 0
M  V30 487 C 47.3101 -5.5214 -3.08746 0
M  V30 488 C 45.9741 -5.92419 -3.07565 0
M  V30 489 H 45.2441 -0.384738 -0.633291 0
M  V30 490 H 47.8911 -1.5235 -1.16025 0
M  V30 491 H 46.1961 -1.16133 -3.74193 0
M  V30 492 H 47.8931 -1.55023 -3.69823 0
M  V30 493 H 44.4831 -2.88344 -3.17105 0
M  V30 494 H 48.6671 -3.86263 -3.11632 0
M  V30 495 H 43.9231 -5.27562 -3.09012 0
M  V30 496 H 48.0971 -6.26201 -3.04705 0
M  V30 497 H 45.7241 -6.97236 -3.02929 0
M  V30 498 N 47.2992 1.18797 -1.03562 0
M  V30 499 C 48.2622 2.20464 -0.626769 0
M  V30 500 C 49.2622 1.57721 0.313173 0
M  V30 501 O 50.4522 1.73917 0.0992615 0
M  V30 502 C 47.5842 3.40802 0.0818498 0
M  V30 503 H 48.7772 2.58149 -1.5264 0
M  V30 504 H 46.3302 1.32593 -0.827578 0
M  V30 505 H 47.0652 3.08642 0.995518 0
M  V30 506 H 46.8502 3.8758 -0.593652 0
M  V30 507 H 48.3402 4.16092 0.354584 0
M  V30 508 N 48.7773 0.814389 1.34928 0
M  V30 509 C 49.7073 0.244827 2.32213 0
M  V30 510 C 50.6883 -0.634024 1.57842 0
M  V30 511 O 51.8733 -0.562676 1.8587 0
M  V30 512 C 49.0033 -0.601106 3.42058 0
M  V30 513 C 47.9573 0.179896 4.27622 0
M  V30 514 C 47.2833 -0.788237 5.28858 0
M  V30 515 C 48.5833 1.38329 5.03649 0
M  V30 516 H 50.2773 1.05763 2.80097 0
M  V30 517 H 47.8233 0.510029 1.34665 0
M  V30 518 H 49.7763 -1.00968 4.09125 0
M  V30 519 H 48.5003 -1.44688 2.92802 0
M  V30 520 H 47.1593 0.569739 3.62146 0
M  V30 521 H 46.8073 -1.62973 4.75866 0
M  V30 522 H 46.5073 -0.269942 5.8698 0
M  V30 523 H 48.0313 -1.19485 5.98795 0
M  V30 524 H 49.4453 1.04918 5.63618 0
M  V30 525 H 47.8423 1.83662 5.71304 0
M  V30 526 H 48.9123 2.16592 4.33839 0
M  V30 527 N 50.2554 -1.46986 0.568584 0
M  V30 528 C 51.6714 -1.57946 0.229189 0
M  V30 529 C 51.8714 -1.56567 -1.26843 0
M  V30 530 O 50.9274 -1.47511 -2.04931 0
M  V30 531 C 52.2404 -2.87963 0.865909 0
M  V30 532 C 53.7884 -3.01568 0.838188 0
M  V30 533 C 54.2634 -4.34301 1.45419 0
M  V30 534 N 55.7544 -4.40965 1.41788 0
M  V30 535 C 56.4894 -5.42256 1.86403 0
M  V30 536 N 55.9854 -6.50297 2.38926 0
M  V30 537 N 57.7784 -5.3337 1.77405 0
M  V30 538 H 49.9294 -1.46126 1.54146 0
M  V30 539 H 52.1924 -0.696156 0.643484 0
M  V30 540 H 51.8984 -2.94742 1.91886 0
M  V30 541 H 51.7724 -3.75423 0.365687 0
M  V30 542 H 54.1594 -2.94379 -0.206106 0
M  V30 543 H 54.2404 -2.1562 1.37629 0
M  V30 544 H 53.8844 -4.42247 2.49761 0
M  V30 545 H 53.8144 -5.19 0.891435 0
M  V30 546 H 56.3054 -3.63484 1.03381 0
M  V30 547 H 56.6184 -7.23777 2.70863 0
M  V30 548 H 54.9634 -6.51155 2.42944 0
M  V30 549 H 58.1544 -4.47865 1.3614 0
M  V30 550 H 58.3274 -6.12169 2.12492 0
M  V30 551 N 51.7335 -0.305618 -1.54608 0
M  V30 552 C 52.6655 0.602161 -2.21149 0
M  V30 553 C 53.6785 1.09394 -1.20569 0
M  V30 554 O 54.8675 1.0106 -1.47136 0
M  V30 555 C 51.9675 1.83692 -2.84799 0
M  V30 556 C 51.1405 1.48686 -4.11353 0
M  V30 557 C 50.1995 2.57725 -4.58764 0
M  V30 558 O 49.2255 2.22623 -5.23858 0
M  V30 559 N 50.4275 3.88346 -4.31471 0
M  V30 560 H 53.1925 0.0324966 -2.99682 0
M  V30 561 H 50.7535 -0.128021 -1.61393 0
M  V30 562 H 52.7455 2.55994 -3.13448 0
M  V30 563 H 51.3155 2.31486 -2.10078 0
M  V30 564 H 50.5355 0.596269 -3.89664 0
M  V30 565 H 51.8235 1.22842 -4.93748 0
M  V30 566 H 51.2215 4.19671 -3.79331 0
M  V30 567 H 49.7785 4.56932 -4.64818 0
M  V30 568 N 53.2116 1.57565 -0.0334293 0
M  V30 569 C 54.1436 2.0739 0.975811 0
M  V30 570 C 55.1566 0.998166 1.2861 0
M  V30 571 O 56.3456 1.27426 1.25 0
M  V30 572 C 53.4456 2.4871 2.30209 0
M  V30 573 C 52.6186 3.79413 2.17634 0
M  V30 574 C 51.6776 4.07237 3.33233 0
M  V30 575 O 50.7036 4.77425 3.09927 0
M  V30 576 N 51.9056 3.5775 4.5716 0
M  V30 577 H 54.6706 2.94598 0.55066 0
M  V30 578 H 52.2316 1.61173 0.15323 0
M  V30 579 H 54.2236 2.64413 3.06378 0
M  V30 580 H 52.7936 1.66845 2.64351 0
M  V30 581 H 52.0136 3.73465 1.26165 0
M  V30 582 H 53.3016 4.65038 2.0644 0
M  V30 583 H 52.6996 3.00976 4.78989 0
M  V30 584 H 51.2566 3.78724 5.30482 0
M  V30 585 N 54.6897 -0.239769 1.55765 0
M  V30 586 C 55.6377 -1.31668 1.91745 0
M  V30 587 C 56.6317 -1.49462 0.797338 0
M  V30 588 O 57.8377 -1.50852 0.982021 0
M  V30 589 H 54.2127 -0.441048 0.609082 0
M  V30 590 H 56.1837 -0.985923 2.81642 0
M  V30 591 C 54.9327 -2.66368 2.2348 0
M  V30 592 H 54.2557 -2.53478 3.09175 0
M  V30 593 H 55.6957 -3.40578 2.52553 0
M  V30 594 C 54.1547 -3.20002 1.05359 0
M  V30 595 O 54.6847 -4.00538 0.305261 0
M  V30 596 N 52.8907 -2.78126 0.842292 0
M  V30 597 H 52.4377 -2.12742 1.45253 0
M  V30 598 H 52.3957 -3.14354 0.053652 0
M  V30 599 N 56.1678 -1.49265 -0.50573 0
M  V30 600 C 57.4138 -1.58748 -1.26202 0
M  V30 601 C 57.7468 -0.271227 -1.92297 0
M  V30 602 O 57.0218 0.724831 -1.80489 0
M  V30 603 C 57.3048 -2.74332 -2.33268 0
M  V30 604 C 57.1578 -4.15737 -1.71705 0
M  V30 605 C 58.4768 -2.85576 -3.34865 0
M  V30 606 H 55.5958 -0.577826 -0.457478 0
M  V30 607 H 58.2378 -1.81532 -0.560897 0
M  V30 608 H 56.3878 -2.55036 -2.93068 0
M  V30 609 H 58.0598 -4.46537 -1.15769 0
M  V30 610 H 56.3028 -4.21605 -1.02135 0
M  V30 611 H 56.9738 -4.92477 -2.49341 0
M  V30 612 H 59.4498 -3.03127 -2.8505 0
M  V30 613 H 58.3258 -3.68135 -4.07146 0
M  V30 614 H 58.5868 -1.94732 -3.96903 0
M  V30 615 N 57.6459 0.756429 -1.3826 0
M  V30 616 C 58.5559 1.9009 -1.37488 0
M  V30 617 C 59.5719 1.71855 -0.272366 0
M  V30 618 O 60.7479 1.94827 -0.510318 0
M  V30 619 C 57.8129 3.25421 -1.19592 0
M  V30 620 C 56.8739 3.56202 -2.39622 0
M  V30 621 C 56.1069 4.85075 -2.2257 0
M  V30 622 O 56.3299 5.57246 -1.21793 0
M  V30 623 O 55.2639 5.15269 -3.11098 0
M  V30 624 H 59.0899 1.93695 -2.33914 0
M  V30 625 H 56.6749 0.901313 -1.1915 0
M  V30 626 H 58.5569 4.06337 -1.11661 0
M  V30 627 H 57.2319 3.22634 -0.262486 0
M  V30 628 H 56.1389 2.75458 -2.53128 0
M  V30 629 H 57.4719 3.63747 -3.31586 0
M  V30 630 N 59.124 1.23083 0.984299 0
M  V30 631 C 60.54 0.992637 1.24975 0
M  V30 632 C 60.74 -0.308618 1.99123 0
M  V30 633 O 59.796 -1.02905 2.30579 0
M  V30 634 C 61.109 2.19698 2.05312 0
M  V30 635 C 62.657 2.24147 2.18465 0
M  V30 636 C 63.132 3.44157 3.02192 0
M  V30 637 N 64.623 3.44372 3.09777 0
M  V30 638 C 65.358 4.33886 3.74874 0
M  V30 639 N 64.854 5.3363 4.41827 0
M  V30 640 N 66.647 4.21639 3.71721 0
M  V30 641 H 58.798 2.06731 0.487453 0
M  V30 642 H 61.061 0.906339 0.277944 0
M  V30 643 H 60.767 3.1411 1.58201 0
M  V30 644 H 60.641 2.20465 3.06064 0
M  V30 645 H 63.028 1.30277 2.64786 0
M  V30 646 H 63.109 2.27415 1.17115 0
M  V30 647 H 62.753 4.38332 2.56568 0
M  V30 648 H 62.683 3.3813 4.03702 0
M  V30 649 H 65.174 2.72201 2.62135 0
M  V30 650 H 65.487 5.98196 4.89266 0
M  V30 651 H 63.832 5.37534 4.40548 0
M  V30 652 H 67.023 3.42962 3.18582 0
M  V30 653 H 67.196 4.91604 4.22173 0
M  V30 654 N 60.6021 -1.18246 1.0419 0
M  V30 655 C 61.5321 -2.24127 0.654914 0
M  V30 656 C 62.5131 -1.66617 -0.342451 0
M  V30 657 O 63.6981 -1.92924 -0.222277 0
M  V30 658 C 60.8281 -3.47295 0.0183757 0
M  V30 659 C 59.7821 -4.17563 0.939414 0
M  V30 660 C 59.1081 -5.34438 0.167286 0
M  V30 661 C 60.4081 -4.70917 2.25908 0
M  V30 662 H 62.1021 -2.56753 1.54007 0
M  V30 663 H 59.6481 -1.23414 0.74195 0
M  V30 664 H 61.6011 -4.20572 -0.264082 0
M  V30 665 H 60.3251 -3.13907 -0.901664 0
M  V30 666 H 58.9841 -3.46186 1.20628 0
M  V30 667 H 58.6321 -4.97298 -0.7552 0
M  V30 668 H 58.3321 -5.82388 0.780901 0
M  V30 669 H 59.8561 -6.10504 -0.108125 0
M  V30 670 H 61.2701 -5.35882 2.03724 0
M  V30 671 H 59.6671 -5.29406 2.82577 0
M  V30 672 H 60.7371 -3.88272 2.9047 0
M  V30 673 N 62.0802 -0.821533 -1.34494 0
M  V30 674 C 63.3052 -0.420873 -2.03085 0
M  V30 675 C 63.7302 0.964915 -1.61465 0
M  V30 676 O 63.0882 1.62763 -0.798607 0
M  V30 677 C 63.1362 -0.529414 -3.56693 0
M  V30 678 O 62.2402 0.451302 -4.09923 0
M  V30 679 H 61.5812 -0.173489 -0.640935 0
M  V30 680 H 64.1112 -1.11157 -1.71771 0
M  V30 681 H 64.1212 -0.404671 -4.05988 0
M  V30 682 H 62.7962 -1.54014 -3.86332 0
M  V30 683 H 61.3732 0.285558 -3.71805 0
M  V30 684 N 63.5583 1.46682 -0.576371 0
M  V30 685 C 64.4683 2.34032 0.163141 0
M  V30 686 C 65.4843 1.49367 0.892501 0
M  V30 687 O 66.6603 1.82252 0.857106 0
M  V30 688 C 63.7253 3.26435 1.16795 0
M  V30 689 C 62.7863 4.26998 0.443944 0
M  V30 690 C 62.0193 5.14986 1.40088 0
M  V30 691 O 62.2423 5.05785 2.637 0
M  V30 692 O 61.1763 5.94906 0.914917 0
M  V30 693 H 65.0023 2.98607 -0.55388 0
M  V30 694 H 62.5873 1.45554 -0.336821 0
M  V30 695 H 64.4693 3.83459 1.74748 0
M  V30 696 H 63.1443 2.64465 1.86655 0
M  V30 697 H 62.0513 3.7368 -0.177271 0
M  V30 698 H 63.3843 4.91736 -0.213566 0
M  V30 699 N 65.0364 0.313813 1.54444 0
M  V30 700 C 65.9664 -0.549454 2.26943 0
M  V30 701 C 66.9474 -1.12741 1.27372 0
M  V30 702 O 68.1324 -1.15436 1.56167 0
M  V30 703 C 65.2624 -1.71523 3.01989 0
M  V30 704 C 64.2164 -1.26703 4.08816 0
M  V30 705 C 63.5424 -2.51898 4.71647 0
M  V30 706 C 64.8424 -0.388962 5.2085 0
M  V30 707 H 66.5364 0.0552661 2.99349 0
M  V30 708 H 64.0824 0.0280207 1.43973 0
M  V30 709 H 66.0354 -2.32535 3.51433 0
M  V30 710 H 64.7594 -2.34639 2.27183 0
M  V30 711 H 63.4184 -0.679896 3.6024 0
M  V30 712 H 63.0664 -3.13356 3.93468 0
M  V30 713 H 62.7664 -2.22605 5.43802 0
M  V30 714 H 64.2904 -3.1369 5.23861 0
M  V30 715 H 65.7044 -0.905107 5.6611 0
M  V30 716 H 64.1014 -0.18924 5.99802 0
M  V30 717 H 65.1714 0.582699 4.81386 0
M  V30 718 N 66.5145 -1.57545 0.0417849 0
M  V30 719 C 67.7605 -1.92601 -0.635021 0
M  V30 720 C 68.0935 -0.919627 -1.71045 0
M  V30 721 O 67.3685 0.0557892 -1.9442 0
M  V30 722 C 67.6515 -3.38085 -1.23979 0
M  V30 723 C 67.5045 -4.49467 -0.173057 0
M  V30 724 C 68.8235 -3.83776 -2.15416 0
M  V30 725 H 65.9425 -0.700397 -0.229374 0
M  V30 726 H 68.5845 -1.89728 0.101633 0
M  V30 727 H 66.7345 -3.40664 -1.86762 0
M  V30 728 H 68.4065 -4.59018 0.458312 0
M  V30 729 H 66.6495 -4.30909 0.499996 0
M  V30 730 H 67.3205 -5.48323 -0.636054 0
M  V30 731 H 69.7965 -3.83013 -1.62605 0
M  V30 732 H 68.6725 -4.8624 -2.54679 0
M  V30 733 H 68.9335 -3.19998 -3.05047 0
M  V30 734 N 67.9926 0.231505 -1.5589 0
M  V30 735 C 68.9246 1.31006 -1.8807 0
M  V30 736 C 69.9376 1.43539 -0.768145 0
M  V30 737 O 71.1266 1.44614 -1.04638 0
M  V30 738 C 68.2266 2.68688 -2.06543 0
M  V30 739 C 67.3996 2.78228 -3.37502 0
M  V30 740 C 66.4586 3.96857 -3.4553 0
M  V30 741 O 65.4846 3.85662 -4.18633 0
M  V30 742 N 66.6866 5.1072 -2.75944 0
M  V30 743 H 69.4516 1.03731 -2.81176 0
M  V30 744 H 67.0126 0.421573 -1.56315 0
M  V30 745 H 69.0046 3.46412 -2.09239 0
M  V30 746 H 67.5746 2.88605 -1.20109 0
M  V30 747 H 66.7946 1.87059 -3.46991 0
M  V30 748 H 68.0826 2.81564 -4.23791 0
M  V30 749 H 67.4806 5.2271 -2.16311 0
M  V30 750 H 66.0376 5.86523 -2.84314 0
M  V30 751 N 69.4707 1.49531 0.497807 0
M  V30 752 C 70.4337 1.65916 1.58128 0
M  V30 753 C 71.4337 0.530825 1.51786 0
M  V30 754 O 72.6237 0.797342 1.54881 0
M  V30 755 C 69.7557 1.65951 2.9778 0
M  V30 756 H 70.9487 2.62556 1.44929 0
M  V30 757 H 68.5017 1.38611 0.722275 0
M  V30 758 H 69.2367 0.709065 3.16453 0
M  V30 759 H 69.0217 2.47897 3.03792 0
M  V30 760 H 70.5117 1.80673 3.76493 0
M  V30 761 N 70.9488 -0.749086 1.3866 0
M  V30 762 C 72.1948 -1.51056 1.35314 0
M  V30 763 C 72.5278 -1.94121 -0.0553751 0
M  V30 764 O 71.8028 -1.65763 -1.01749 0
M  V30 765 C 72.0858 -2.76003 2.31288 0
M  V30 766 C 71.9388 -2.39047 3.8102 0
M  V30 767 C 73.2578 -3.78046 2.2532 0
M  V30 768 H 70.3768 -0.547972 0.492844 0
M  V30 769 H 73.0188 -0.857628 1.69543 0
M  V30 770 H 71.1688 -3.31716 2.02229 0
M  V30 771 H 72.8408 -1.89074 4.20771 0
M  V30 772 H 71.0838 -1.71449 3.98482 0
M  V30 773 H 71.7548 -3.28462 4.4364 0
M  V30 774 H 74.2308 -3.31884 2.50983 0
M  V30 775 H 73.1068 -4.63159 2.94576 0
M  V30 776 H 73.3678 -4.23957 1.25352 0
M  V30 777 N 72.4269 -1.23603 -0.977757 0
M  V30 778 C 73.6519 -1.09735 -1.75991 0
M  V30 779 C 74.0769 0.346858 -1.84874 0
M  V30 780 O 73.4349 1.25093 -1.3123 0
M  V30 781 C 73.4829 -1.73051 -3.16363 0
M  V30 782 O 72.5869 -0.994452 -4.0023 0
M  V30 783 H 71.9279 -0.384476 -0.541364 0
M  V30 784 H 74.4579 -1.6371 -1.2272 0
M  V30 785 H 74.4679 -1.78398 -3.66931 0
M  V30 786 H 73.1429 -2.78137 -3.09213 0
M  V30 787 H 71.7199 -1.01812 -3.58732 0
M  V30 788 N 73.905 1.17692 -1.04816 0
M  V30 789 C 75.182 1.83768 -0.669963 0
M  V30 790 C 75.562 1.93232 0.849986 0
M  V30 791 O 74.91 1.46397 1.75443 0
M  V30 792 C 75.12 3.21641 -1.35455 0
M  V30 793 C 76.468 3.97592 -1.49017 0
M  V30 794 O 77.492 3.31107 -1.31326 0
M  V30 795 O 76.351 5.16729 -1.77914 0
M  V30 796 H 73.445 0.792799 -0.235368 0
M  V30 797 H 75.991 1.25021 -1.14751 0
M  V30 798 H 74.763 3.097 -2.39168 0
M  V30 799 H 74.386 3.88052 -0.866107 0
M  V30 800 N 75.3831 0.828654 1.34056 0
M  V30 801 C 76.7941 0.477534 1.8049 0
M  V30 802 C 77.1451 -1.00258 1.6865 0
M  V30 803 O 76.2701 -1.78057 1.22982 0
M  V30 804 C 76.8651 0.860018 3.27703 0
M  V30 805 C 75.4241 0.561185 3.72193 0
M  V30 806 C 74.5711 1.07385 2.55663 0
M  V30 807 H 77.5221 1.0183 1.21722 0
M  V30 808 H 77.5431 0.166038 3.80138 0
M  V30 809 H 77.0551 1.93731 3.36288 0
M  V30 810 H 75.1561 -0.506465 3.69142 0
M  V30 811 H 75.2691 1.10926 4.66082 0
M  V30 812 H 73.6331 0.495149 2.49841 0
M  V30 813 H 74.4161 2.15771 2.67016 0
M  V30 814 N 76.8612 -1.46375 0.584142 0
M  V30 815 C 78.0862 -2.07268 0.0740405 0
M  V30 816 C 78.5112 -1.42979 -1.22223 0
M  V30 817 O 77.8692 -0.514092 -1.73859 0
M  V30 818 C 77.9172 -3.60518 -0.0767769 0
M  V30 819 O 77.0212 -3.96533 -1.13292 0
M  V30 820 H 76.3622 -0.660961 0.0634524 0
M  V30 821 H 78.8922 -1.87991 0.807492 0
M  V30 822 H 78.9022 -4.07021 -0.282489 0
M  V30 823 H 77.5772 -4.06702 0.86986 0
M  V30 824 H 76.1542 -3.61738 -0.905553 0
M  V30 825 N 78.3393 -0.321999 -1.54275 0
M  V30 826 C 79.5643 0.285791 -2.05422 0
M  V30 827 C 79.9893 1.45124 -1.19669 0
M  V30 828 O 79.3473 1.80132 -0.205441 0
M  V30 829 C 79.3953 0.69956 -3.53749 0
M  V30 830 O 78.4993 1.8021 -3.70942 0
M  V30 831 H 77.8403 0.0518962 -0.661969 0
M  V30 832 H 80.3703 -0.469954 -1.9913 0
M  V30 833 H 80.3803 0.982649 -3.9599 0
M  V30 834 H 79.0553 -0.152864 -4.15619 0
M  V30 835 H 77.6323 1.51794 -3.40607 0
M  V30 836 N 79.8174 1.5752 -0.0501392 0
M  V30 837 C 81.2284 1.80271 0.485705 0
M  V30 838 C 81.5794 0.96228 1.70981 0
M  V30 839 O 80.7044 0.178578 2.15662 0
M  V30 840 C 81.2994 3.26957 0.887938 0
M  V30 841 C 79.8584 3.5063 1.36877 0
M  V30 842 C 79.0054 2.75165 0.343468 0
M  V30 843 H 81.9564 1.56281 -0.276028 0
M  V30 844 H 81.9774 3.37821 1.75093 0
M  V30 845 H 81.4894 3.881 -0.0031809 0
M  V30 846 H 79.5904 2.94766 2.27911 0
M  V30 847 H 79.7034 4.59343 1.36164 0
M  V30 848 H 78.0674 2.4127 0.816128 0
M  V30 849 H 78.8504 3.39034 -0.539548 0
M  V30 850 N 81.2955 -0.223234 1.56011 0
M  V30 851 C 82.2275 -1.30006 1.88762 0
M  V30 852 C 83.2405 -1.43129 0.775746 0
M  V30 853 O 84.4295 -1.44057 1.05403 0
M  V30 854 C 81.5295 -2.67589 2.07965 0
M  V30 855 C 80.7025 -2.76434 3.38973 0
M  V30 856 C 79.7615 -3.95019 3.47629 0
M  V30 857 O 78.7875 -3.83436 4.20672 0
M  V30 858 N 79.9895 -5.09249 2.78649 0
M  V30 859 H 82.7545 -1.02238 2.81722 0
M  V30 860 H 80.3155 -0.413278 1.56536 0
M  V30 861 H 82.3075 -3.45297 2.11073 0
M  V30 862 H 80.8775 -2.87964 1.21638 0
M  V30 863 H 80.0975 -1.85216 3.47978 0
M  V30 864 H 81.3855 -2.79313 4.25278 0
M  V30 865 H 80.7835 -5.21556 2.19081 0
M  V30 866 H 79.3405 -5.85007 2.8742 0
M  V30 867 N 82.7736 -1.49793 -0.48987 0
M  V30 868 C 84.0036 -1.6333 -1.26518 0
M  V30 869 C 84.4116 -0.308392 -1.8667 0
M  V30 870 O 83.7546 0.717512 -1.69108 0
M  V30 871 C 83.8166 -2.6522 -2.4269 0
M  V30 872 C 83.4806 -4.09279 -2.03321 0
M  V30 873 C 84.4776 -4.95738 -1.56652 0
M  V30 874 C 82.1626 -4.55082 -2.12616 0
M  V30 875 C 84.1566 -6.26041 -1.19795 0
M  V30 876 C 81.8436 -5.85396 -1.75371 0
M  V30 877 C 82.8416 -6.707 -1.29036 0
M  V30 878 O 82.5296 -7.98584 -0.92299 0
M  V30 879 H 82.2616 -0.552502 -0.389509 0
M  V30 880 H 84.8156 -1.96642 -0.593381 0
M  V30 881 H 83.0456 -2.27112 -3.12981 0
M  V30 882 H 84.7346 -2.68171 -3.04695 0
M  V30 883 H 85.5006 -4.61575 -1.48908 0
M  V30 884 H 81.3796 -3.88844 -2.47631 0
M  V30 885 H 84.9236 -6.92578 -0.835582 0
M  V30 886 H 80.8206 -6.19085 -1.82768 0
M  V30 887 H 81.5886 -8.11692 -1.05349 0
M  V30 888 N 84.2517 0.741722 -1.39055 0
M  V30 889 C 85.4997 1.49818 -1.35643 0
M  V30 890 C 85.8207 1.94938 0.0491642 0
M  V30 891 O 85.0907 1.68505 0.999141 0
M  V30 892 H 83.6707 0.555755 -0.499144 0
M  V30 893 H 86.3327 0.880957 -1.73854 0
M  V30 894 H 85.4287 2.38348 -2.01486 0
M  V30 895 N 85.7298 1.2412 0.971189 0
M  V30 896 C 86.6768 1.0305 2.06517 0
M  V30 897 C 87.6468 -0.0550666 1.66009 0
M  V30 898 O 88.8318 0.0988688 1.90544 0
M  V30 899 C 85.9718 0.637653 3.39158 0
M  V30 900 C 85.0848 1.79633 3.92882 0
M  V30 901 C 84.2198 1.34939 5.13775 0
M  V30 902 C 83.2588 2.47823 5.59687 0
M  V30 903 N 82.3958 2.04022 6.71803 0
M  V30 904 H 87.2358 1.96685 2.23873 0
M  V30 905 H 84.7728 0.979694 1.09729 0
M  V30 906 H 86.7308 0.390931 4.15364 0
M  V30 907 H 85.3608 -0.261693 3.21737 0
M  V30 908 H 84.4128 2.15681 3.13346 0
M  V30 909 H 85.7248 2.64466 4.22918 0
M  V30 910 H 84.8788 1.06134 5.97345 0
M  V30 911 H 83.6178 0.471557 4.85415 0
M  V30 912 H 82.6228 2.77392 4.74693 0
M  V30 913 H 83.8478 3.36158 5.90063 0
M  V30 914 H 81.7938 1.18632 6.45184 0
M  V30 915 H 81.7108 2.82409 7.01271 0
M  V30 916 H 82.9788 1.78347 7.58823 0
M  V30 917 N 87.2079 -1.17134 1.05439 0
M  V30 918 C 88.4379 -1.91094 0.785274 0
M  V30 919 C 88.8459 -1.77198 -0.663142 0
M  V30 920 O 88.1889 -1.10835 -1.46497 0
M  V30 921 C 88.2509 -3.42594 1.08949 0
M  V30 922 C 87.9149 -3.80274 2.53458 0
M  V30 923 C 88.9119 -3.82912 3.51673 0
M  V30 924 C 86.5969 -4.11162 2.88532 0
M  V30 925 C 88.5909 -4.15913 4.83006 0
M  V30 926 C 86.2779 -4.43831 4.20068 0
M  V30 927 C 87.2759 -4.46185 5.17115 0
M  V30 928 O 86.9639 -4.78083 6.46291 0
M  V30 929 H 86.6959 -0.613073 0.284811 0
M  V30 930 H 89.2499 -1.49461 1.40893 0
M  V30 931 H 87.4799 -3.84534 0.408741 0
M  V30 932 H 89.1689 -3.97817 0.805991 0
M  V30 933 H 89.9349 -3.5917 3.25917 0
M  V30 934 H 85.8139 -4.085 2.13656 0
M  V30 935 H 89.3579 -4.17665 5.5875 0
M  V30 936 H 85.2549 -4.67037 4.45586 0
M  V30 937 H 86.0229 -4.9593 6.51149 0
M  V30 938 N 88.686 -0.835752 -1.33615 0
M  V30 939 C 89.616 -0.281739 -2.31794 0
M  V30 940 C 90.597 0.608833 -1.58831 0
M  V30 941 O 91.782 0.533035 -1.86741 0
M  V30 942 C 88.912 0.546612 -3.42971 0
M  V30 943 C 87.866 -0.247904 -4.27281 0
M  V30 944 C 87.192 0.704001 -5.30045 0
M  V30 945 C 88.492 -1.46324 -5.01385 0
M  V30 946 H 90.186 -1.10206 -2.78379 0
M  V30 947 H 87.732 -0.531388 -1.33837 0
M  V30 948 H 89.685 0.944467 -4.1068 0
M  V30 949 H 88.409 1.40011 -2.95067 0
M  V30 950 H 87.068 -0.627281 -3.61194 0
M  V30 951 H 86.716 1.55381 -4.78399 0
M  V30 952 H 86.416 0.176524 -5.87335 0
M  V30 953 H 87.94 1.09944 -6.0062 0
M  V30 954 H 89.354 -1.13871 -5.61877 0
M  V30 955 H 87.751 -1.92728 -5.6831 0
M  V30 956 H 88.821 -2.23467 -4.30338 0
M  V30 957 N 90.1641 1.46063 -0.591896 0
M  V30 958 C 91.3921 2.06717 -0.0868936 0
M  V30 959 C 91.8071 1.43916 1.22203 0
M  V30 960 O 91.1641 0.547698 1.74088 0
M  V30 961 C 91.2151 3.6142 0.0758725 0
M  V30 962 O 90.9361 4.21874 -1.18126 0
M  V30 963 C 92.4371 4.39025 0.61416 0
M  V30 964 H 89.6571 0.668162 -0.0616518 0
M  V30 965 H 92.2011 1.8755 -0.815175 0
M  V30 966 H 90.3561 3.79983 0.754413 0
M  V30 967 H 90.7701 5.14861 -1.00092 0
M  V30 968 H 92.2441 5.4783 0.677193 0
M  V30 969 H 92.7211 4.07708 1.63312 0
M  V30 970 H 93.3271 4.2529 -0.0298142 0
M  V30 971 N 91.6422 0.330177 1.54103 0
M  V30 972 C 92.5722 -0.525353 2.27513 0
M  V30 973 C 93.5532 -1.11383 1.2856 0
M  V30 974 O 94.7382 -1.13773 1.57383 0
M  V30 975 C 91.8682 -1.6831 3.03791 0
M  V30 976 C 90.8222 -1.2236 4.10137 0
M  V30 977 C 90.1482 -2.46882 4.74293 0
M  V30 978 C 91.4482 -0.333697 5.21233 0
M  V30 979 H 93.1422 0.087013 2.99274 0
M  V30 980 H 90.6882 0.0432893 1.43935 0
M  V30 981 H 92.6412 -2.28795 3.5388 0
M  V30 982 H 91.3652 -2.32216 2.29659 0
M  V30 983 H 90.0242 -0.64165 3.60941 0
M  V30 984 H 89.6722 -3.09165 3.96769 0
M  V30 985 H 89.3722 -2.16825 5.46133 0
M  V30 986 H 90.8962 -3.08117 5.27159 0
M  V30 987 H 92.3102 -0.845013 5.67038 0
M  V30 988 H 90.7072 -0.125612 5.99969 0
M  V30 989 H 91.7772 0.633724 4.80741 0
M  V30 990 N 93.1203 -1.57491 0.0584922 0
M  V30 991 C 94.0303 -2.15448 -0.928414 0
M  V30 992 C 95.0463 -1.11416 -1.3365 0
M  V30 993 O 96.2223 -1.4362 -1.41193 0
M  V30 994 C 93.2873 -2.69393 -2.18239 0
M  V30 995 C 92.3483 -3.88249 -1.83196 0
M  V30 996 C 91.5813 -4.39613 -3.02616 0
M  V30 997 O 91.8043 -3.90023 -4.16219 0
M  V30 998 O 90.7383 -5.31111 -2.83204 0
M  V30 999 H 94.5643 -3.00112 -0.465483 0
M  V30 1000 H 92.1493 -1.48499 -0.163826 0
M  V30 1001 H 94.0313 -3.04026 -2.91798 0
M  V30 1002 H 92.7063 -1.87796 -2.63656 0
M  V30 1003 H 91.6133 -3.58492 -1.06931 0
M  V30 1004 H 92.9463 -4.71098 -1.42573 0
M  V30 1005 N 94.5984 0.214957 -1.56127 0
M  V30 1006 C 95.5464 1.28601 -1.93816 0
M  V30 1007 C 96.5404 1.48175 -0.821016 0
M  V30 1008 O 97.7464 1.49271 -1.0059 0
M  V30 1009 H 94.1214 0.431302 -0.616022 0
M  V30 1010 H 96.0924 0.940991 -2.83175 0
M  V30 1011 C 94.8414 2.62779 -2.27689 0
M  V30 1012 H 94.1644 2.48527 -3.13168 0
M  V30 1013 H 95.6044 3.36517 -2.57939 0
M  V30 1014 C 94.0634 3.18285 -1.10436 0
M  V30 1015 O 94.5934 4.00002 -0.368945 0
M  V30 1016 N 92.7994 2.7675 -0.886433 0
M  V30 1017 H 92.3464 2.10404 -1.48619 0
M  V30 1018 H 92.3044 3.14229 -0.103656 0
M  V30 1019 N 96.0765 1.50051 0.48192 0
M  V30 1020 C 97.3225 1.60736 1.2366 0
M  V30 1021 C 97.6555 0.301786 1.91841 0
M  V30 1022 O 96.9305 -0.696025 1.8162 0
M  V30 1023 C 97.2135 2.78009 2.28874 0
M  V30 1024 C 97.0665 4.18416 1.65069 0
M  V30 1025 C 98.3855 2.90867 3.30279 0
M  V30 1026 H 95.5045 0.585031 0.448228 0
M  V30 1027 H 98.1465 1.82402 0.531946 0
M  V30 1028 H 96.2965 2.59667 2.88973 0
M  V30 1029 H 97.9685 4.48322 1.0865 0
M  V30 1030 H 96.2115 4.23177 0.954148 0
M  V30 1031 H 96.8825 4.96381 2.41474 0
M  V30 1032 H 99.3585 3.07623 2.80191 0
M  V30 1033 H 98.2345 3.74566 4.01238 0
M  V30 1034 H 98.4955 2.01021 3.93755 0
M  V30 1035 N 97.5546 -0.734337 1.39446 0
M  V30 1036 C 98.5176 -1.83004 1.37994 0
M  V30 1037 C 99.5176 -1.58397 0.276938 0
M  V30 1038 O 100.708 -1.65785 0.534875 0
M  V30 1039 C 97.8396 -3.20802 1.1532 0
M  V30 1040 H 99.0326 -1.85694 2.35494 0
M  V30 1041 H 96.5856 -0.938059 1.25021 0
M  V30 1042 H 97.3206 -3.23772 0.185036 0
M  V30 1043 H 97.1056 -3.4006 1.95197 0
M  V30 1044 H 98.5956 -4.00862 1.17046 0
M  V30 1045 N 99.0327 -1.24633 -0.964593 0
M  V30 1046 C 100.31 -0.995809 -1.68354 0
M  V30 1047 C 100.69 0.480964 -2.05548 0
M  V30 1048 O 100.038 1.45599 -1.76105 0
M  V30 1049 C 100.248 -1.92177 -2.91323 0
M  V30 1050 C 101.596 -2.19446 -3.63495 0
M  V30 1051 O 102.62 -1.89855 -3.01386 0
M  V30 1052 O 101.479 -2.69714 -4.75307 0
M  V30 1053 H 98.5727 -0.376854 -0.736146 0
M  V30 1054 H 101.119 -1.35745 -1.0184 0
M  V30 1055 H 99.8907 -2.91938 -2.60553 0
M  V30 1056 H 99.5137 -1.56349 -3.65569 0
M  V30 1057 N 100.511 1.16574 -1.06058 0
M  V30 1058 C 101.441 2.23057 -0.690488 0
M  V30 1059 C 102.422 1.67141 0.315901 0
M  V30 1060 O 103.607 1.93253 0.191556 0
M  V30 1061 C 100.737 3.47222 -0.073625 0
M  V30 1062 C 99.6908 4.16016 -1.00573 0
M  V30 1063 C 99.0168 5.34104 -0.252289 0
M  V30 1064 C 100.317 4.67264 -2.33371 0
M  V30 1065 H 102.011 2.54271 -1.58072 0
M  V30 1066 H 99.5568 1.22218 -0.76149 0
M  V30 1067 H 101.51 4.20939 0.19714 0
M  V30 1068 H 100.234 3.15302 0.85161 0
M  V30 1069 H 98.8928 3.44223 -1.2612 0
M  V30 1070 H 98.5408 4.98437 0.675988 0
M  V30 1071 H 98.2408 5.81072 -0.873455 0
M  V30 1072 H 99.7648 6.10599 0.0109857 0
M  V30 1073 H 101.179 5.32573 -2.12223 0
M  V30 1074 H 99.5758 5.24843 -2.90963 0
M  V30 1075 H 100.646 3.83602 -2.96611 0
M  V30 1076 N 101.989 0.842826 1.3317 0
M  V30 1077 C 103.235 0.441099 1.97945 0
M  V30 1078 C 103.568 -0.998024 1.66593 0
M  V30 1079 O 102.843 -1.69839 0.947898 0
M  V30 1080 C 103.126 0.666841 3.53872 0
M  V30 1081 C 102.979 2.15352 3.94897 0
M  V30 1082 C 104.298 0.115544 4.39948 0
M  V30 1083 H 101.417 0.161739 0.719034 0
M  V30 1084 H 104.059 1.05907 1.57746 0
M  V30 1085 H 102.209 0.140828 3.88245 0
M  V30 1086 H 103.881 2.7447 3.70761 0
M  V30 1087 H 102.124 2.63653 3.44484 0
M  V30 1088 H 102.795 2.26221 5.03516 0
M  V30 1089 H 105.271 0.565213 4.12243 0
M  V30 1090 H 104.147 0.303152 5.48062 0
M  V30 1091 H 104.408 -0.980935 4.3108 0
M  V30 1092 N 103.467 -1.45747 0.599634 0
M  V30 1093 C 104.883 -1.57424 0.26264 0
M  V30 1094 C 105.083 -1.59222 -1.23493 0
M  V30 1095 O 104.139 -1.51825 -2.01756 0
M  V30 1096 C 105.452 -2.86061 0.926795 0
M  V30 1097 C 107 -2.99722 0.901967 0
M  V30 1098 C 107.475 -4.31119 1.54598 0
M  V30 1099 N 108.966 -4.37858 1.5111 0
M  V30 1100 C 109.701 -5.3818 1.97863 0
M  V30 1101 N 109.197 -6.45083 2.52666 0
M  V30 1102 N 110.99 -5.29487 1.88679 0
M  V30 1103 H 103.141 -1.42823 1.57211 0
M  V30 1104 H 105.404 -0.68235 0.658105 0
M  V30 1105 H 105.11 -2.90605 1.98095 0
M  V30 1106 H 104.984 -3.74563 0.445238 0
M  V30 1107 H 107.371 -2.9475 -0.143617 0
M  V30 1108 H 107.452 -2.12652 1.42171 0
M  V30 1109 H 107.096 -4.36849 2.59085 0
M  V30 1110 H 107.026 -5.16992 1.00132 0
M  V30 1111 H 109.517 -3.61209 1.11068 0
M  V30 1112 H 109.83 -7.17869 2.86155 0
M  V30 1113 H 108.175 -6.45856 2.56701 0
M  V30 1114 H 111.366 -4.44877 1.4561 0
M  V30 1115 H 111.539 -6.07524 2.25429 0
M  V30 1116 N 104.945 -0.338344 -1.53925 0
M  V30 1117 C 106.356 0.146651 -1.86123 0
M  V30 1118 C 106.707 1.5042 -1.2597 0
M  V30 1119 O 105.832 2.08723 -0.571294 0
M  V30 1120 C 106.427 0.272879 -3.37699 0
M  V30 1121 C 104.986 0.702103 -3.69794 0
M  V30 1122 C 104.133 -0.167304 -2.76795 0
M  V30 1123 H 107.084 -0.558123 -1.48562 0
M  V30 1124 H 107.105 1.10128 -3.64214 0
M  V30 1125 H 106.617 -0.715307 -3.81451 0
M  V30 1126 H 104.718 1.6995 -3.31584 0
M  V30 1127 H 104.831 0.495604 -4.7653 0
M  V30 1128 H 103.195 0.359527 -2.5215 0
M  V30 1129 H 103.978 -1.15253 -3.23375 0
M  V30 1130 N 106.423 1.57458 -0.0668435 0
M  V30 1131 C 107.648 1.9804 0.616027 0
M  V30 1132 C 108.073 0.944771 1.62652 0
M  V30 1133 O 107.431 -0.0902094 1.81075 0
M  V30 1134 C 107.479 3.37665 1.26549 0
M  V30 1135 O 106.583 3.36701 2.38131 0
M  V30 1136 H 105.924 0.644719 0.158849 0
M  V30 1137 H 108.454 2.04121 -0.139891 0
M  V30 1138 H 108.464 3.7474 1.6135 0
M  V30 1139 H 107.139 4.12573 0.525016 0
M  V30 1140 H 105.716 3.1139 2.0516 0
M  V30 1141 N 107.901 -0.206675 1.56239 0
M  V30 1142 C 109.312 -0.772383 1.69974 0
M  V30 1143 C 109.663 -1.84353 0.671436 0
M  V30 1144 O 108.788 -2.15695 -0.174491 0
M  V30 1145 C 109.383 -1.40779 3.08167 0
M  V30 1146 C 107.942 -1.92072 3.23706 0
M  V30 1147 C 107.089 -0.786347 2.65917 0
M  V30 1148 H 110.04 0.0182223 1.5869 0
M  V30 1149 H 110.061 -2.27696 3.04852 0
M  V30 1150 H 109.573 -0.627958 3.82986 0
M  V30 1151 H 107.674 -2.7281 2.53782 0
M  V30 1152 H 107.787 -2.09046 4.31087 0
M  V30 1153 H 106.151 -1.1976 2.24788 0
M  V30 1154 H 106.934 -0.0189416 3.43295 0
M  V30 1155 N 109.379 -1.50304 -0.473955 0
M  V30 1156 C 110.309 -1.71886 -1.58042 0
M  V30 1157 C 111.29 -0.567799 -1.60344 0
M  V30 1158 O 112.475 -0.806623 -1.76656 0
M  V30 1159 C 109.605 -1.81036 -2.96384 0
M  V30 1160 C 108.559 -2.962 -3.08949 0
M  V30 1161 C 107.885 -2.9049 -4.48909 0
M  V30 1162 C 109.185 -4.36752 -2.86434 0
M  V30 1163 H 110.879 -2.64527 -1.40234 0
M  V30 1164 H 108.425 -1.27295 -0.673201 0
M  V30 1165 H 110.378 -1.94719 -3.73714 0
M  V30 1166 H 109.102 -0.850147 -3.15341 0
M  V30 1167 H 107.761 -2.82164 -2.3405 0
M  V30 1168 H 107.409 -1.92321 -4.64781 0
M  V30 1169 H 107.109 -3.67802 -4.58253 0
M  V30 1170 H 108.633 -3.06218 -5.28264 0
M  V30 1171 H 110.047 -4.5133 -3.53517 0
M  V30 1172 H 108.444 -5.15493 -3.07225 0
M  V30 1173 H 109.514 -4.49321 -1.82316 0
M  V30 1174 N 110.857 0.726932 -1.39834 0
M  V30 1175 C 112.085 1.51613 -1.40787 0
M  V30 1176 C 112.5 1.88799 -0.00451505 0
M  V30 1177 O 111.857 1.54662 0.968809 0
M  V30 1178 C 111.908 2.79863 -2.28821 0
M  V30 1179 O 111.629 2.44253 -3.63692 0
M  V30 1180 C 113.13 3.73837 -2.38245 0
M  V30 1181 H 110.35 0.468264 -0.480593 0
M  V30 1182 H 112.894 0.897607 -1.83748 0
M  V30 1183 H 111.049 3.38027 -1.89252 0
M  V30 1184 H 111.463 3.26695 -4.1033 0
M  V30 1185 H 112.937 4.60699 -3.04073 0
M  V30 1186 H 113.414 4.16153 -1.40403 0
M  V30 1187 H 114.02 3.21589 -2.78317 0
M  V30 1188 N 112.336 1.25143 0.95797 0
M  V30 1189 C 113.266 1.07711 2.07173 0
M  V30 1190 C 114.247 -0.0128462 1.70095 0
M  V30 1191 O 115.432 0.156061 1.93572 0
M  V30 1192 C 112.562 0.691503 3.40346 0
M  V30 1193 C 111.516 1.73132 3.9142 0
M  V30 1194 C 110.842 1.20049 5.21049 0
M  V30 1195 C 112.142 3.1294 4.1817 0
M  V30 1196 H 113.836 2.00873 2.22014 0
M  V30 1197 H 111.382 0.967191 1.06684 0
M  V30 1198 H 113.335 0.556505 4.17709 0
M  V30 1199 H 112.059 -0.275819 3.25433 0
M  V30 1200 H 110.718 1.8547 3.16222 0
M  V30 1201 H 110.366 0.223499 5.02503 0
M  V30 1202 H 110.066 1.89545 5.56189 0
M  V30 1203 H 111.59 1.07782 6.01012 0
M  V30 1204 H 113.004 3.03775 4.86203 0
M  V30 1205 H 111.401 3.79875 4.64559 0
M  V30 1206 H 112.471 3.6025 3.24573 0
M  V30 1207 N 113.814 -1.1601 1.06675 0
M  V30 1208 C 114.764 -2.18512 0.650888 0
M  V30 1209 C 115.748 -1.57677 -0.320441 0
M  V30 1210 O 116.94 -1.76482 -0.135266 0
M  V30 1211 C 114.069 -3.43273 0.0429255 0
M  V30 1212 C 113.155 -4.11176 1.03898 0
M  V30 1213 N 113.546 -4.54672 2.216 0
M  V30 1214 C 111.844 -4.37417 0.870779 0
M  V30 1215 C 112.545 -5.07248 2.84736 0
M  V30 1216 N 111.521 -5.0037 2.12441 0
M  V30 1217 H 115.323 -2.49863 1.54745 0
M  V30 1218 H 112.837 -1.32503 0.938975 0
M  V30 1219 H 114.834 -4.16006 -0.272857 0
M  V30 1220 H 113.494 -3.13408 -0.84884 0
M  V30 1221 H 114.505 -4.4828 2.59356 0
M  V30 1222 H 111.182 -4.17488 0.0313293 0
M  V30 1223 H 112.572 -5.50912 3.84636 0
M  V30 1224 N 115.292 -0.849877 -1.32721 0
M  V30 1225 C 116.52 -0.464754 -2.01613 0
M  V30 1226 C 116.935 0.937191 -1.63897 0
M  V30 1227 O 116.292 1.61081 -0.857856 0
M  V30 1228 C 116.343 -0.588638 -3.56675 0
M  V30 1229 O 116.064 -1.93535 -3.93034 0
M  V30 1230 C 117.565 -0.2019 -4.4284 0
M  V30 1231 H 114.785 -0.183215 -0.645502 0
M  V30 1232 H 117.329 -1.1455 -1.69407 0
M  V30 1233 H 115.484 0.0443159 -3.87375 0
M  V30 1234 H 115.898 -1.92871 -4.87751 0
M  V30 1235 H 117.372 -0.339599 -5.50954 0
M  V30 1236 H 117.849 0.857224 -4.30753 0
M  V30 1237 H 118.455 -0.809733 -4.17521 0
M  V30 1238 N 116.77 1.45427 -0.607355 0
M  V30 1239 C 118.016 2.0254 -0.102607 0
M  V30 1240 C 118.349 1.47478 1.26348 0
M  V30 1241 O 117.624 0.64939 1.83339 0
M  V30 1242 C 117.907 3.60044 -0.0634347 0
M  V30 1243 C 117.76 4.2544 -1.46017 0
M  V30 1244 C 119.079 4.35646 0.624514 0
M  V30 1245 H 116.198 0.73598 -0.0387607 0
M  V30 1246 H 118.84 1.73284 -0.779282 0
M  V30 1247 H 116.99 3.85101 0.512808 0
M  V30 1248 H 118.662 4.11569 -2.08347 0
M  V30 1249 H 116.905 3.83849 -2.02094 0
M  V30 1250 H 117.576 5.34342 -1.385 0
M  V30 1251 H 120.052 4.15882 0.134723 0
M  V30 1252 H 118.928 5.45376 0.621028 0
M  V30 1253 H 119.189 4.08501 1.69055 0
M  V30 1254 N 118.248 0.346503 1.53744 0
M  V30 1255 C 119.18 -0.543316 2.22667 0
M  V30 1256 C 120.193 -1.06159 1.23427 0
M  V30 1257 O 121.382 -0.971235 1.49764 0
M  V30 1258 C 118.482 -1.76076 2.89569 0
M  V30 1259 C 117.655 -1.37727 4.15151 0
M  V30 1260 C 116.714 -2.45471 4.65436 0
M  V30 1261 O 115.74 -2.08655 5.29577 0
M  V30 1262 N 116.942 -3.7677 4.41616 0
M  V30 1263 H 119.707 0.0469703 2.99663 0
M  V30 1264 H 117.268 0.170766 1.60997 0
M  V30 1265 H 119.26 -2.47593 3.20125 0
M  V30 1266 H 117.83 -2.25835 2.16142 0
M  V30 1267 H 117.05 -0.492746 3.91108 0
M  V30 1268 H 118.338 -1.09708 4.96832 0
M  V30 1269 H 117.736 -4.09467 3.90325 0
M  V30 1270 H 116.293 -4.44448 4.7677 0
M  V30 1271 N 119.726 -1.57421 0.075193 0
M  V30 1272 C 120.673 -2.12915 -0.890843 0
M  V30 1273 C 121.643 -1.04252 -1.29309 0
M  V30 1274 O 122.828 -1.31933 -1.37834 0
M  V30 1275 C 119.968 -2.69795 -2.15186 0
M  V30 1276 C 119.081 -3.92624 -1.80194 0
M  V30 1277 C 118.216 -4.37736 -3.00933 0
M  V30 1278 C 117.255 -5.53205 -2.61974 0
M  V30 1279 N 116.392 -5.9326 -3.75483 0
M  V30 1280 H 121.232 -2.95156 -0.410735 0
M  V30 1281 H 118.769 -1.45854 -0.191086 0
M  V30 1282 H 120.727 -3.00883 -2.89008 0
M  V30 1283 H 119.357 -1.90313 -2.60731 0
M  V30 1284 H 118.409 -3.67977 -0.964218 0
M  V30 1285 H 119.721 -4.76482 -1.47534 0
M  V30 1286 H 118.875 -4.70503 -3.8303 0
M  V30 1287 H 117.614 -3.52739 -3.36789 0
M  V30 1288 H 116.619 -5.20086 -1.783 0
M  V30 1289 H 117.844 -6.39936 -2.27284 0
M  V30 1290 H 115.79 -5.11212 -4.11094 0
M  V30 1291 H 115.707 -6.71865 -3.46602 0
M  V30 1292 H 116.975 -6.30651 -4.58148 0
M  V30 1293 N 121.204 0.198386 -1.56346 0
M  V30 1294 C 122.45 0.916115 -1.81601 0
M  V30 1295 C 122.805 1.81025 -0.651744 0
M  V30 1296 O 122.098 1.88316 0.353229 0
M  V30 1297 C 122.292 1.77031 -3.10475 0
M  V30 1298 C 122.121 0.960365 -4.39326 0
M  V30 1299 C 120.891 0.646093 -5.01152 0
M  V30 1300 C 123.089 0.314628 -5.13337 0
M  V30 1301 N 121.071 -0.182828 -6.13628 0
M  V30 1302 C 122.442 -0.37664 -6.18855 0
M  V30 1303 C 124.497 0.230019 -4.97368 0
M  V30 1304 C 123.2 -1.14445 -7.10137 0
M  V30 1305 C 125.226 -0.524389 -5.89071 0
M  V30 1306 C 124.588 -1.20412 -6.94032 0
M  V30 1307 H 120.687 0.314732 -0.715868 0
M  V30 1308 H 123.271 0.185102 -1.93818 0
M  V30 1309 H 121.442 2.47295 -2.99499 0
M  V30 1310 H 123.174 2.42727 -3.2383 0
M  V30 1311 H 119.929 0.969724 -4.63566 0
M  V30 1312 H 120.353 -0.586802 -6.74452 0
M  V30 1313 H 124.995 0.741184 -4.16253 0
M  V30 1314 H 122.713 -1.66706 -7.90718 0
M  V30 1315 H 126.299 -0.591167 -5.78789 0
M  V30 1316 H 125.179 -1.77853 -7.63766 0
M  V30 1317 N 122.682 1.50554 0.465978 0
M  V30 1318 C 123.612 1.72722 1.57128 0
M  V30 1319 C 124.593 0.576294 1.6004 0
M  V30 1320 O 125.778 0.81598 1.76225 0
M  V30 1321 C 122.908 1.82605 2.95419 0
M  V30 1322 C 121.862 2.97835 3.07373 0
M  V30 1323 C 121.188 2.92867 4.47363 0
M  V30 1324 C 122.488 4.38265 2.84114 0
M  V30 1325 H 124.182 2.65267 1.38829 0
M  V30 1326 H 121.728 1.2765 0.666441 0
M  V30 1327 H 123.681 1.96698 3.72677 0
M  V30 1328 H 122.405 0.866858 3.14886 0
M  V30 1329 H 121.064 2.83401 2.3255 0
M  V30 1330 H 120.712 1.94783 4.63755 0
M  V30 1331 H 120.412 3.70227 4.56296 0
M  V30 1332 H 121.936 3.09015 5.26633 0
M  V30 1333 H 123.35 4.53198 3.51118 0
M  V30 1334 H 121.747 5.17115 3.04487 0
M  V30 1335 H 122.817 4.50281 1.7993 0
M  V30 1336 N 124.16 -0.719506 1.40217 0
M  V30 1337 C 125.09 -1.8465 1.42922 0
M  V30 1338 C 126.071 -1.67599 0.29062 0
M  V30 1339 O 127.256 -1.87688 0.498677 0
M  V30 1340 C 124.386 -3.22565 1.28722 0
M  V30 1341 C 123.34 -3.54281 2.40144 0
M  V30 1342 C 122.666 -4.91298 2.11023 0
M  V30 1343 C 123.966 -3.55676 3.82481 0
M  V30 1344 H 125.66 -1.82644 2.37237 0
M  V30 1345 H 123.206 -0.877305 1.1419 0
M  V30 1346 H 125.159 -4.01095 1.29232 0
M  V30 1347 H 123.883 -3.25137 0.308811 0
M  V30 1348 H 122.542 -2.78088 2.38877 0
M  V30 1349 H 122.19 -4.90468 1.11582 0
M  V30 1350 H 121.89 -5.13485 2.8567 0
M  V30 1351 H 123.414 -5.72166 2.13209 0
M  V30 1352 H 124.828 -4.24254 3.85592 0
M  V30 1353 H 123.225 -3.89388 4.56614 0
M  V30 1354 H 124.295 -2.55144 4.12346 0
M  V30 1355 N 125.638 -1.25649 -0.95132 0
M  V30 1356 C 126.601 -1.06399 -2.03007 0
M  V30 1357 C 127.601 -0.0156794 -1.60792 0
M  V30 1358 O 128.791 -0.25817 -1.72276 0
M  V30 1359 C 125.923 -0.616184 -3.35285 0
M  V30 1360 H 127.116 -2.02164 -2.21517 0
M  V30 1361 H 124.669 -1.08103 -1.12887 0
M  V30 1362 H 125.404 0.343917 -3.22471 0
M  V30 1363 H 125.189 -1.37301 -3.67275 0
M  V30 1364 H 126.679 -0.503032 -4.14559 0
M  V30 1365 N 127.117 1.15442 -1.07289 0
M  V30 1366 C 128.08 2.18358 -0.696591 0
M  V30 1367 C 129.08 1.58637 0.262837 0
M  V30 1368 O 130.27 1.74145 0.0438809 0
M  V30 1369 C 127.402 3.4089 -0.0266151 0
M  V30 1370 H 128.595 2.53162 -1.60776 0
M  V30 1371 H 126.148 1.29893 -0.869342 0
M  V30 1372 H 126.883 3.11653 0.896822 0
M  V30 1373 H 126.668 3.85495 -0.716657 0
M  V30 1374 H 128.158 4.17009 0.222028 0
M  V30 1375 N 128.595 0.856903 1.32268 0
M  V30 1376 C 129.843 0.460474 1.96784 0
M  V30 1377 C 130.164 -0.987701 1.68135 0
M  V30 1378 O 129.434 -1.69058 0.989765 0
M  V30 1379 H 128.014 0.167289 0.728027 0
M  V30 1380 H 130.676 1.09383 1.61312 0
M  V30 1381 H 129.772 0.60739 3.06133 0
M  V30 1382 N 130.073 -1.45103 0.615059 0
M  V30 1383 C 131.036 -2.29025 -0.0895485 0
M  V30 1384 C 132.036 -1.40174 -0.787906 0
M  V30 1385 O 133.226 -1.62217 -0.634933 0
M  V30 1386 C 130.358 -3.21376 -1.13711 0
M  V30 1387 H 131.551 -2.92807 0.648382 0
M  V30 1388 H 129.104 -1.51749 0.374444 0
M  V30 1389 H 129.839 -2.6241 -1.90556 0
M  V30 1390 H 129.624 -3.86834 -0.640475 0
M  V30 1391 H 131.114 -3.84459 -1.63036 0
M  V30 1392 N 131.551 -0.354651 -1.53558 0
M  V30 1393 C 132.483 0.5315 -2.22952 0
M  V30 1394 C 133.496 1.05503 -1.23988 0
M  V30 1395 O 134.685 0.963279 -1.50277 0
M  V30 1396 C 131.785 1.74538 -2.90499 0
M  V30 1397 C 130.958 1.35524 -4.15875 0
M  V30 1398 C 130.017 2.42999 -4.66731 0
M  V30 1399 O 129.043 2.05844 -5.30676 0
M  V30 1400 N 130.245 3.74423 -4.43608 0
M  V30 1401 H 133.01 -0.0628615 -2.99634 0
M  V30 1402 H 130.571 -0.179302 -1.60904 0
M  V30 1403 H 132.563 2.45892 -3.21433 0
M  V30 1404 H 131.133 2.24686 -2.17336 0
M  V30 1405 H 130.353 0.471998 -3.91364 0
M  V30 1406 H 131.641 1.07071 -4.97406 0
M  V30 1407 H 131.039 4.07391 -3.92491 0
M  V30 1408 H 129.596 4.41913 -4.7912 0
M  V30 1409 N 133.029 1.57378 -0.0835403 0
M  V30 1410 C 133.976 2.13384 0.879539 0
M  V30 1411 C 134.946 1.04936 1.28754 0
M  V30 1412 O 136.131 1.32662 1.37133 0
M  V30 1413 C 133.271 2.70932 2.13752 0
M  V30 1414 C 132.384 3.93575 1.7811 0
M  V30 1415 C 131.519 4.39326 2.98607 0
M  V30 1416 C 130.558 5.54587 2.59037 0
M  V30 1417 N 129.695 5.95243 3.72331 0
M  V30 1418 H 134.535 2.9537 0.395076 0
M  V30 1419 H 132.072 1.45953 0.183349 0
M  V30 1420 H 134.03 3.02411 2.87408 0
M  V30 1421 H 132.66 1.91693 2.59718 0
M  V30 1422 H 131.712 3.68483 0.94469 0
M  V30 1423 H 133.024 4.77258 1.45005 0
M  V30 1424 H 132.178 4.72528 3.80529 0
M  V30 1425 H 130.917 3.5452 3.34913 0
M  V30 1426 H 129.922 5.21024 1.75539 0
M  V30 1427 H 131.147 6.41133 2.23887 0
M  V30 1428 H 129.093 5.13385 4.08378 0
M  V30 1429 H 129.01 6.73694 3.43034 0
M  V30 1430 H 130.278 6.33072 4.54797 0
M  V30 1431 N 134.507 -0.190092 1.56449 0
M  V30 1432 C 135.747 -0.916414 1.82705 0
M  V30 1433 C 136.111 -1.80235 0.661763 0
M  V30 1434 O 137.312 -2.56484 0.80433 0
M  V30 1435 C 135.583 -1.70691 3.14005 0
M  V30 1436 S 137.142 -2.48457 3.61683 0
M  V30 1437 H 133.96 -0.307281 0.64117 0
M  V30 1438 H 136.562 -0.179433 1.94675 0
M  V30 1439 H 135.266 -1.04677 3.96826 0
M  V30 1440 H 134.797 -2.48562 3.04927 0
M  V30 1441 H 136.812 -3.72756 3.27517 0
M  V30 1442 N 135.985 -1.50799 -0.457987 0
M  V30 1443 C 136.935 -1.67003 -1.55222 0
M  V30 1444 C 137.919 -0.52434 -1.52117 0
M  V30 1445 O 139.111 -0.779345 -1.58919 0
M  V30 1446 C 136.24 -1.77956 -2.93576 0
M  V30 1447 C 135.326 -2.98243 -3.01516 0
M  V30 1448 N 135.717 -4.21732 -2.79241 0
M  V30 1449 C 134.015 -2.97072 -3.32662 0
M  V30 1450 C 134.716 -5.02817 -2.92489 0
M  V30 1451 N 133.692 -4.37038 -3.23262 0
M  V30 1452 H 137.494 -2.60163 -1.36721 0
M  V30 1453 H 135.008 -1.48163 -0.664952 0
M  V30 1454 H 137.005 -1.87671 -3.72271 0
M  V30 1455 H 135.665 -0.859634 -3.13114 0
M  V30 1456 H 136.676 -4.51016 -2.54567 0
M  V30 1457 H 133.353 -2.14631 -3.58106 0
M  V30 1458 H 134.743 -6.11054 -2.79396 0
M  V30 1459 N 137.463 0.71206 -1.40597 0
M  V30 1460 C 138.688 1.50617 -1.42581 0
M  V30 1461 C 139.113 1.88079 -0.0282102 0
M  V30 1462 O 138.471 1.53511 0.964579 0
M  V30 1463 C 138.519 2.7557 -2.3258 0
M  V30 1464 O 137.623 3.72414 -1.77148 0
M  V30 1465 H 136.964 0.453966 -0.484573 0
M  V30 1466 H 139.494 0.876649 -1.84868 0
M  V30 1467 H 139.504 3.2406 -2.47889 0
M  V30 1468 H 138.179 2.47639 -3.34138 0
M  V30 1469 H 136.756 3.31276 -1.71204 0
M  V30 1470 N 138.941 1.26152 0.944643 0
M  V30 1471 C 140.187 1.11657 1.69294 0
M  V30 1472 C 140.52 -0.339926 1.91202 0
M  V30 1473 O 139.795 -1.24994 1.49019 0
M  V30 1474 C 140.078 1.88236 3.06984 0
M  V30 1475 C 139.931 3.41772 2.92424 0
M  V30 1476 C 141.25 1.67343 4.07043 0
M  V30 1477 H 138.369 0.407004 0.614424 0
M  V30 1478 H 141.011 1.55106 1.09737 0
M  V30 1479 H 139.161 1.51308 3.57824 0
M  V30 1480 H 140.833 3.88433 2.48832 0
M  V30 1481 H 139.076 3.68974 2.28124 0
M  V30 1482 H 139.747 3.90579 3.90067 0
M  V30 1483 H 142.223 1.99509 3.65151 0
M  V30 1484 H 141.099 2.23346 5.01406 0
M  V30 1485 H 141.36 0.617158 4.37771 0
M  V30 1486 N 140.419 -1.14872 1.07899 0
M  V30 1487 C 141.668 -1.85135 0.800499 0
M  V30 1488 C 141.981 -1.83547 -0.676014 0
M  V30 1489 O 143.187 -2.49548 -1.06948 0
M  V30 1490 C 141.643 -3.3231 1.38197 0
M  V30 1491 C 141.251 -3.42329 2.8899 0
M  V30 1492 C 142.995 -4.0772 1.18174 0
M  V30 1493 C 140.902 -4.83684 3.403 0
M  V30 1494 H 139.832 -0.693563 0.29578 0
M  V30 1495 H 142.483 -1.29532 1.29976 0
M  V30 1496 H 140.865 -3.87618 0.810431 0
M  V30 1497 H 142.039 -2.97097 3.52236 0
M  V30 1498 H 140.354 -2.80369 3.07867 0
M  V30 1499 H 142.951 -5.12049 1.5398 0
M  V30 1500 H 143.294 -4.16124 0.12117 0
M  V30 1501 H 143.827 -3.58696 1.71994 0
M  V30 1502 H 140.566 -4.80465 4.45907 0
M  V30 1503 H 140.086 -5.29474 2.81811 0
M  V30 1504 H 141.765 -5.52558 3.36584 0
M  V30 1505 N 141.898 -0.863906 -1.31812 0
M  V30 1506 C 143.126 -0.486111 -2.01108 0
M  V30 1507 C 143.541 0.919755 -1.64882 0
M  V30 1508 O 142.898 1.60162 -0.874893 0
M  V30 1509 C 142.949 -0.626435 -3.56031 0
M  V30 1510 O 142.67 -1.97693 -3.90959 0
M  V30 1511 C 144.171 -0.248857 -4.42601 0
M  V30 1512 H 141.391 -0.190052 -0.643523 0
M  V30 1513 H 143.935 -1.1634 -1.68182 0
M  V30 1514 H 142.09 0.00322717 -3.874 0
M  V30 1515 H 142.504 -1.98034 -4.85678 0
M  V30 1516 H 143.978 -0.398016 -5.50563 0
M  V30 1517 H 144.455 0.811489 -4.31638 0
M  V30 1518 H 145.061 -0.853971 -4.16638 0
M  V30 1519 N 143.376 1.44774 -0.622745 0
M  V30 1520 C 144.308 2.28856 0.125485 0
M  V30 1521 C 145.321 1.40811 0.817069 0
M  V30 1522 O 146.51 1.65044 0.679918 0
M  V30 1523 C 143.61 3.16963 1.19949 0
M  V30 1524 C 142.783 4.33374 0.592064 0
M  V30 1525 C 141.842 5.02577 1.55893 0
M  V30 1526 O 140.868 5.58873 1.07933 0
M  V30 1527 N 142.07 5.03256 2.89334 0
M  V30 1528 H 144.835 2.93713 -0.596068 0
M  V30 1529 H 142.396 1.55129 -0.463303 0
M  V30 1530 H 144.388 3.60123 1.84644 0
M  V30 1531 H 142.958 2.53913 1.82337 0
M  V30 1532 H 142.178 3.93509 -0.233322 0
M  V30 1533 H 143.466 5.08527 0.166738 0
M  V30 1534 H 142.864 4.58836 3.30887 0
M  V30 1535 H 141.421 5.50232 3.49412 0
M  V30 1536 N 144.854 0.36279 1.53368 0
M  V30 1537 C 146.131 -0.284021 1.93527 0
M  V30 1538 C 146.511 -1.66628 1.29608 0
M  V30 1539 O 145.859 -2.23942 0.45413 0
M  V30 1540 C 146.069 -0.337028 3.47369 0
M  V30 1541 C 147.417 -0.578708 4.20638 0
M  V30 1542 O 148.441 -0.418352 3.53735 0
M  V30 1543 O 147.3 -0.89074 5.39192 0
M  V30 1544 H 144.394 -0.169743 0.809393 0
M  V30 1545 H 146.94 0.41537 1.64538 0
M  V30 1546 H 145.712 0.632217 3.86159 0
M  V30 1547 H 145.335 -1.08243 3.82582 0
M  V30 1548 N 146.332 -1.57332 0.0918853 0
M  V30 1549 C 147.579 -1.94236 -0.572577 0
M  V30 1550 C 147.907 -0.973398 -1.6839 0
M  V30 1551 O 147.162 0.00756912 -1.95699 0
M  V30 1552 C 147.461 -3.37689 -1.17051 0
M  V30 1553 C 147.127 -4.50527 -0.183304 0
M  V30 1554 C 145.789 -4.81119 0.0882276 0
M  V30 1555 C 148.141 -5.18883 0.49095 0
M  V30 1556 C 145.469 -5.77395 1.04076 0
M  V30 1557 C 147.821 -6.1618 1.43193 0
M  V30 1558 C 146.485 -6.45179 1.71173 0
M  V30 1559 H 145.755 -0.710762 -0.209521 0
M  V30 1560 H 148.402 -1.9077 0.167036 0
M  V30 1561 H 146.707 -3.37718 -1.9863 0
M  V30 1562 H 148.404 -3.63543 -1.69227 0
M  V30 1563 H 144.994 -4.26681 -0.405124 0
M  V30 1564 H 149.178 -4.95427 0.294312 0
M  V30 1565 H 144.434 -5.98179 1.26457 0
M  V30 1566 H 148.608 -6.68243 1.96023 0
M  V30 1567 H 146.235 -7.1959 2.4514 0
M  V30 1568 N 147.81 0.181792 -1.56548 0
M  V30 1569 C 148.74 1.22765 -1.98623 0
M  V30 1570 C 149.721 1.46747 -0.860189 0
M  V30 1571 O 150.906 1.58259 -1.12551 0
M  V30 1572 C 148.036 2.56894 -2.33715 0
M  V30 1573 C 146.99 2.475 -3.49182 0
M  V30 1574 C 146.316 3.86023 -3.69986 0
M  V30 1575 C 147.616 1.98866 -4.82959 0
M  V30 1576 H 149.31 0.877942 -2.86239 0
M  V30 1577 H 146.856 0.42088 -1.37712 0
M  V30 1578 H 148.809 3.30253 -2.61746 0
M  V30 1579 H 147.533 2.93632 -1.42997 0
M  V30 1580 H 146.192 1.76596 -3.21262 0
M  V30 1581 H 145.84 4.20136 -2.76576 0
M  V30 1582 H 145.54 3.80609 -4.47672 0
M  V30 1583 H 147.064 4.60984 -4.00407 0
M  V30 1584 H 148.478 2.61992 -5.09934 0
M  V30 1585 H 146.875 2.04424 -5.64208 0
M  V30 1586 H 147.945 0.942465 -4.75653 0
M  V30 1587 N 149.288 1.51039 0.449983 0
M  V30 1588 C 150.516 1.66869 1.2232 0
M  V30 1589 C 150.931 0.360727 1.85322 0
M  V30 1590 O 150.288 -0.659531 1.70166 0
M  V30 1591 C 150.339 2.77524 2.31652 0
M  V30 1592 O 150.06 4.03252 1.7123 0
M  V30 1593 C 151.561 3.04512 3.2216 0
M  V30 1594 H 148.781 0.560326 0.369155 0
M  V30 1595 H 151.325 1.97385 0.534719 0
M  V30 1596 H 149.48 2.49642 2.96239 0
M  V30 1597 H 149.894 4.64609 2.43389 0
M  V30 1598 H 151.368 3.85551 3.95038 0
M  V30 1599 H 151.845 2.16415 3.8218 0
M  V30 1600 H 152.451 3.34005 2.63288 0
M  V30 1601 N 150.766 -0.704594 1.40972 0
M  V30 1602 C 152.006 -1.47691 1.41304 0
M  V30 1603 C 152.37 -1.91992 0.0178582 0
M  V30 1604 O 153.571 -2.68599 -0.103996 0
M  V30 1605 C 151.842 -2.66254 2.38419 0
M  V30 1606 S 153.401 -3.55516 2.57204 0
M  V30 1607 H 150.219 -0.504808 0.500689 0
M  V30 1608 H 152.821 -0.822962 1.77335 0
M  V30 1609 H 151.525 -2.31897 3.38603 0
M  V30 1610 H 151.056 -3.3655 2.03711 0
M  V30 1611 H 153.071 -4.61115 1.83268 0
M  V30 1612 N 152.244 -1.26651 -0.937939 0
M  V30 1613 C 153.49 -1.13562 -1.68746 0
M  V30 1614 C 153.845 0.317241 -1.89767 0
M  V30 1615 O 153.138 1.22939 -1.46957 0
M  V30 1616 C 153.332 -1.84168 -3.06295 0
M  V30 1617 C 153.161 -3.36171 -2.98696 0
M  V30 1618 C 151.931 -4.05468 -3.01535 0
M  V30 1619 C 154.129 -4.32312 -2.78588 0
M  V30 1620 N 152.111 -5.44118 -2.84269 0
M  V30 1621 C 153.482 -5.58159 -2.69924 0
M  V30 1622 C 155.537 -4.22524 -2.63396 0
M  V30 1623 C 154.24 -6.75335 -2.47618 0
M  V30 1624 C 156.266 -5.39411 -2.42466 0
M  V30 1625 C 155.628 -6.64208 -2.34536 0
M  V30 1626 H 151.727 -0.470361 -0.624728 0
M  V30 1627 H 154.311 -1.59982 -1.10968 0
M  V30 1628 H 152.482 -1.40219 -3.62206 0
M  V30 1629 H 154.214 -1.63674 -3.70126 0
M  V30 1630 H 150.969 -3.56854 -3.11372 0
M  V30 1631 H 151.393 -6.1693 -2.78795 0
M  V30 1632 H 156.035 -3.26771 -2.68292 0
M  V30 1633 H 153.753 -7.71182 -2.41463 0
M  V30 1634 H 157.339 -5.33711 -2.31611 0
M  V30 1635 H 156.219 -7.53129 -2.18555 0
M  V30 1636 N 153.722 1.14298 -1.08507 0
M  V30 1637 C 154.652 2.21542 -0.737646 0
M  V30 1638 C 155.633 1.67773 0.280377 0
M  V30 1639 O 156.818 1.93616 0.150521 0
M  V30 1640 C 153.948 3.46988 -0.147259 0
M  V30 1641 C 152.902 4.13789 -1.09374 0
M  V30 1642 C 152.228 5.33449 -0.365524 0
M  V30 1643 C 153.528 4.62208 -2.4323 0
M  V30 1644 H 155.222 2.5086 -1.6343 0
M  V30 1645 H 152.768 1.20576 -0.787243 0
M  V30 1646 H 154.721 4.21262 0.107808 0
M  V30 1647 H 153.445 3.17037 0.784538 0
M  V30 1648 H 152.104 3.4147 -1.33393 0
M  V30 1649 H 151.752 4.99759 0.57011 0
M  V30 1650 H 151.452 5.79088 -0.996512 0
M  V30 1651 H 152.976 6.10485 -0.118534 0
M  V30 1652 H 154.39 5.27952 -2.23472 0
M  V30 1653 H 152.787 5.18553 -3.02031 0
M  V30 1654 H 153.857 3.77224 -3.04681 0
M  V30 1655 N 155.201 0.870884 1.31352 0
M  V30 1656 C 156.426 0.495957 2.01383 0
M  V30 1657 C 156.851 -0.904324 1.64935 0
M  V30 1658 O 156.209 -1.59687 0.858466 0
M  V30 1659 C 156.257 0.661433 3.54482 0
M  V30 1660 O 155.361 -0.298851 4.11316 0
M  V30 1661 H 154.702 0.197158 0.634054 0
M  V30 1662 H 157.232 1.17455 1.67527 0
M  V30 1663 H 157.242 0.555072 4.04207 0
M  V30 1664 H 155.917 1.68246 3.8035 0
M  V30 1665 H 154.494 -0.147368 3.72609 0
M  V30 1666 N 156.679 -1.44442 0.630414 0
M  V30 1667 C 157.928 -2.01267 0.132073 0
M  V30 1668 C 158.241 -1.50172 -1.25331 0
M  V30 1669 O 159.447 -1.9912 -1.84562 0
M  V30 1670 C 157.903 -3.59422 0.185362 0
M  V30 1671 C 157.511 -4.19514 1.57201 0
M  V30 1672 C 159.255 -4.23724 -0.256553 0
M  V30 1673 C 157.162 -5.69891 1.58045 0
M  V30 1674 H 156.092 -0.752619 0.0456092 0
M  V30 1675 H 158.743 -1.65666 0.789106 0
M  V30 1676 H 157.125 -3.92318 -0.538759 0
M  V30 1677 H 158.299 -3.98156 2.31966 0
M  V30 1678 H 156.614 -3.67496 1.95795 0
M  V30 1679 H 159.211 -5.34019 -0.269767 0
M  V30 1680 H 159.554 -3.96013 -1.28372 0
M  V30 1681 H 160.087 -3.95629 0.41505 0
M  V30 1682 H 156.826 -6.02336 2.58597 0
M  V30 1683 H 156.346 -5.93373 0.875725 0
M  V30 1684 H 158.025 -6.33515 1.31408 0
M  V30 1685 N 158.157 -0.370918 -1.53173 0
M  V30 1686 C 159.573 -0.0200818 -1.59587 0
M  V30 1687 C 159.773 1.46279 -1.38581 0
M  V30 1688 O 158.829 2.22506 -1.19363 0
M  V30 1689 C 160.142 -0.4808 -2.96831 0
M  V30 1690 C 161.69 -0.435477 -3.09956 0
M  V30 1691 C 162.165 -0.872092 -4.4962 0
M  V30 1692 N 163.656 -0.827364 -4.55751 0
M  V30 1693 C 164.391 -1.13683 -5.62018 0
M  V30 1694 N 163.887 -1.51584 -6.76014 0
M  V30 1695 N 165.68 -1.05927 -5.52029 0
M  V30 1696 H 157.831 -1.33652 -1.65079 0
M  V30 1697 H 160.094 -0.546634 -0.774529 0
M  V30 1698 H 159.8 -1.51577 -3.1736 0
M  V30 1699 H 159.674 0.129796 -3.76977 0
M  V30 1700 H 162.061 0.590371 -2.89134 0
M  V30 1701 H 162.142 -1.08164 -2.31806 0
M  V30 1702 H 161.786 -1.89608 -4.71181 0
M  V30 1703 H 161.716 -0.203127 -5.26208 0
M  V30 1704 H 164.207 -0.548216 -3.73902 0
M  V30 1705 H 164.52 -1.73609 -7.53047 0
M  V30 1706 H 162.865 -1.55454 -6.77391 0
M  V30 1707 H 166.056 -0.762321 -4.61851 0
M  V30 1708 H 166.229 -1.30378 -6.34749 0
M  V30 1709 N 159.635 1.57281 -0.100228 0
M  V30 1710 C 160.567 2.11342 0.886972 0
M  V30 1711 C 161.58 1.05182 1.24261 0
M  V30 1712 O 162.769 1.32613 1.19483 0
M  V30 1713 C 159.869 2.5825 2.19454 0
M  V30 1714 C 159.042 3.88302 2.01346 0
M  V30 1715 C 158.101 4.21004 3.15661 0
M  V30 1716 O 157.127 4.9014 2.89398 0
M  V30 1717 N 158.329 3.76818 4.41575 0
M  V30 1718 H 161.094 2.96668 0.425216 0
M  V30 1719 H 158.655 1.61678 0.0847334 0
M  V30 1720 H 160.647 2.7717 2.94888 0
M  V30 1721 H 159.217 1.77907 2.57037 0
M  V30 1722 H 158.437 3.7848 1.10212 0
M  V30 1723 H 159.725 4.73375 1.8653 0
M  V30 1724 H 159.123 3.2102 4.65792 0
M  V30 1725 H 157.68 4.00882 5.13942 0
M  V30 1726 N 161.113 -0.173488 1.56642 0
M  V30 1727 C 162.076 -1.19859 1.95362 0
M  V30 1728 C 163.076 -1.37296 0.83704 0
M  V30 1729 O 164.266 -1.34739 1.10413 0
M  V30 1730 C 161.398 -2.56405 2.24654 0
M  V30 1731 H 162.591 -0.867062 2.87092 0
M  V30 1732 H 160.144 -0.415853 1.50666 0
M  V30 1733 H 160.879 -2.94576 1.35631 0
M  V30 1734 H 160.664 -2.45115 3.06041 0
M  V30 1735 H 162.154 -3.30287 2.5554 0
M  V30 1736 N 162.591 -1.51276 -0.441967 0
M  V30 1737 C 163.501 -1.75092 -1.56141 0
M  V30 1738 C 164.517 -0.634963 -1.62001 0
M  V30 1739 O 165.693 -0.916686 -1.79329 0
M  V30 1740 C 162.758 -1.86666 -2.92158 0
M  V30 1741 C 161.819 -3.10506 -2.96453 0
M  V30 1742 C 161.052 -3.21519 -4.25982 0
M  V30 1743 O 161.275 -2.38586 -5.18105 0
M  V30 1744 O 160.209 -4.14465 -4.36466 0
M  V30 1745 H 164.035 -2.70044 -1.38961 0
M  V30 1746 H 161.62 -1.35722 -0.624499 0
M  V30 1747 H 163.502 -1.96292 -3.72891 0
M  V30 1748 H 162.177 -0.949014 -3.09476 0
M  V30 1749 H 161.084 -3.06363 -2.14692 0
M  V30 1750 H 162.417 -4.01945 -2.84079 0
M  V30 1751 N 164.069 0.697108 -1.41344 0
M  V30 1752 C 164.999 1.82353 -1.45841 0
M  V30 1753 C 165.98 1.67115 -0.317247 0
M  V30 1754 O 167.165 1.86871 -0.528474 0
M  V30 1755 C 164.295 3.20476 -1.33838 0
M  V30 1756 C 163.249 3.50415 -2.4575 0
M  V30 1757 C 162.575 4.87878 -2.18813 0
M  V30 1758 C 163.875 3.49546 -3.88091 0
M  V30 1759 H 165.569 1.78846 -2.40113 0
M  V30 1760 H 163.115 0.859028 -1.15571 0
M  V30 1761 H 165.068 3.98988 -1.35596 0
M  V30 1762 H 163.792 3.24604 -0.360498 0
M  V30 1763 H 162.451 2.74253 -2.43271 0
M  V30 1764 H 162.099 4.8863 -1.19371 0
M  V30 1765 H 161.799 5.08875 -2.93803 0
M  V30 1766 H 163.323 5.68702 -2.22284 0
M  V30 1767 H 164.737 4.18066 -3.92293 0
M  V30 1768 H 163.134 3.82075 -4.62751 0
M  V30 1769 H 164.204 2.48552 -4.16353 0
M  V30 1770 N 165.547 1.27147 0.931209 0
M  V30 1771 C 166.477 1.12081 2.04842 0
M  V30 1772 C 167.458 0.0232364 1.70084 0
M  V30 1773 O 168.643 0.197085 1.93197 0
M  V30 1774 C 165.773 0.76354 3.38803 0
M  V30 1775 C 164.727 1.81396 3.87659 0
M  V30 1776 C 164.053 1.31075 5.18385 0
M  V30 1777 C 165.353 3.21739 4.11438 0
M  V30 1778 H 167.047 2.05537 2.17703 0
M  V30 1779 H 164.593 0.989603 1.04608 0
M  V30 1780 H 166.546 0.644982 4.16435 0
M  V30 1781 H 165.27 -0.206727 3.25945 0
M  V30 1782 H 163.929 1.92136 3.12217 0
M  V30 1783 H 163.577 0.330037 5.01916 0
M  V30 1784 H 163.277 2.013 5.52044 0
M  V30 1785 H 164.801 1.20506 5.98591 0
M  V30 1786 H 166.215 3.14019 4.79651 0
M  V30 1787 H 164.612 3.89644 4.56397 0
M  V30 1788 H 165.682 3.67054 3.16859 0
M  V30 1789 N 167.025 -1.13721 1.09112 0
M  V30 1790 C 167.955 -2.21148 0.749385 0
M  V30 1791 C 168.936 -1.6792 -0.271475 0
M  V30 1792 O 170.121 -1.93693 -0.140251 0
M  V30 1793 C 167.251 -3.46905 0.165659 0
M  V30 1794 C 166.205 -4.13203 1.11567 0
M  V30 1795 C 165.531 -5.33248 0.393809 0
M  V30 1796 C 166.831 -4.60912 2.45678 0
M  V30 1797 H 168.525 -2.4999 1.64758 0
M  V30 1798 H 166.071 -1.20156 0.793626 0
M  V30 1799 H 168.024 -4.21313 -0.085466 0
M  V30 1800 H 166.748 -3.17449 -0.767714 0
M  V30 1801 H 165.407 -3.40758 1.35202 0
M  V30 1802 H 165.055 -5.00054 -0.543599 0
M  V30 1803 H 164.755 -5.78552 1.02721 0
M  V30 1804 H 166.279 -6.10413 0.150908 0
M  V30 1805 H 167.693 -5.26759 2.26269 0
M  V30 1806 H 166.09 -5.16944 3.04776 0
M  V30 1807 H 167.16 -3.75603 3.06677 0
M  V30 1808 N 168.503 -0.877838 -1.30888 0
M  V30 1809 C 169.914 -0.544193 -1.78593 0
M  V30 1810 C 170.265 0.939301 -1.72254 0
M  V30 1811 O 169.39 1.7337 -1.29505 0
M  V30 1812 C 169.985 -0.98105 -3.24285 0
M  V30 1813 C 168.544 -0.698935 -3.69854 0
M  V30 1814 C 167.691 -1.168 -2.51502 0
M  V30 1815 H 170.642 -1.06278 -1.17859 0
M  V30 1816 H 170.663 -0.307009 -3.79259 0
M  V30 1817 H 170.175 -2.06079 -3.28866 0
M  V30 1818 H 168.276 0.369112 -3.70767 0
M  V30 1819 H 168.389 -1.28148 -4.61644 0
M  V30 1820 H 166.753 -0.587535 -2.47831 0
M  V30 1821 H 167.536 -2.25533 -2.58824 0
M  V30 1822 N 169.982 1.44106 -0.638065 0
M  V30 1823 C 171.23 2.01579 -0.145043 0
M  V30 1824 C 171.551 1.50496 1.24 0
M  V30 1825 O 170.821 0.711374 1.82527 0
M  V30 1826 H 169.401 0.745282 -0.05063 0
M  V30 1827 H 172.063 1.76516 -0.826327 0
M  V30 1828 H 171.159 3.11877 -0.118039 0
M  V30 1829 N 171.46 0.379036 1.52974 0
M  V30 1830 C 172.423 -0.448865 2.24762 0
M  V30 1831 C 173.423 -0.998689 1.26027 0
M  V30 1832 O 174.613 -0.882313 1.50203 0
M  V30 1833 C 171.745 -1.62872 2.99476 0
M  V30 1834 H 172.938 0.179491 2.99362 0
M  V30 1835 H 170.491 0.13096 1.5575 0
M  V30 1836 H 171.226 -2.29479 2.29151 0
M  V30 1837 H 171.011 -1.24128 3.71934 0
M  V30 1838 H 172.501 -2.2151 3.5401 0
M  V30 1839 N 172.938 -1.57226 0.108567 0
M  V30 1840 C 173.848 -2.18292 -0.859401 0
M  V30 1841 C 174.864 -1.15612 -1.30038 0
M  V30 1842 O 176.04 -1.48039 -1.36552 0
M  V30 1843 C 173.105 -2.762 -2.09558 0
M  V30 1844 C 172.166 -3.93881 -1.70752 0
M  V30 1845 C 171.399 -4.49018 -2.88477 0
M  V30 1846 O 171.622 -4.03068 -4.036 0
M  V30 1847 O 170.556 -5.39852 -2.66164 0
M  V30 1848 H 174.382 -3.01441 -0.369769 0
M  V30 1849 H 171.967 -1.48945 -0.1165 0
M  V30 1850 H 173.849 -3.13156 -2.81978 0
M  V30 1851 H 172.524 -1.96089 -2.57548 0
M  V30 1852 H 171.431 -3.61713 -0.954714 0
M  V30 1853 H 172.764 -4.75396 -1.27513 0
M  V30 1854 N 174.416 0.165178 -1.56732 0
M  V30 1855 C 175.663 0.880807 -1.8234 0
M  V30 1856 C 175.991 1.81977 -0.686621 0
M  V30 1857 O 175.246 1.92971 0.325697 0
M  V30 1858 C 175.545 1.70405 -3.1416 0
M  V30 1859 C 175.211 0.913475 -4.4155 0
M  V30 1860 C 173.873 0.695303 -4.7615 0
M  V30 1861 C 176.225 0.359349 -5.1996 0
M  V30 1862 C 173.553 -0.0879947 -5.86634 0
M  V30 1863 C 175.905 -0.410893 -6.31264 0
M  V30 1864 C 174.569 -0.639808 -6.64427 0
M  V30 1865 H 173.839 0.32231 -0.667231 0
M  V30 1866 H 176.486 0.145402 -1.90947 0
M  V30 1867 H 174.791 2.50903 -3.00923 0
M  V30 1868 H 176.488 2.26091 -3.31186 0
M  V30 1869 H 173.078 1.09357 -4.14414 0
M  V30 1870 H 177.262 0.515228 -4.93618 0
M  V30 1871 H 172.518 -0.27503 -6.10781 0
M  V30 1872 H 176.692 -0.847494 -6.91224 0
M  V30 1873 H 174.319 -1.24864 -7.49875 0
M  V30 1874 N 175.894 1.51508 0.433938 0
M  V30 1875 C 176.844 1.69451 1.52546 0
M  V30 1876 C 177.828 0.548474 1.51263 0
M  V30 1877 O 179.02 0.804529 1.57659 0
M  V30 1878 C 176.149 1.82604 2.90707 0
M  V30 1879 C 175.235 3.03002 2.96733 0
M  V30 1880 N 175.626 4.26121 2.72496 0
M  V30 1881 C 173.924 3.02327 3.27894 0
M  V30 1882 C 174.625 5.07407 2.84452 0
M  V30 1883 N 173.601 4.42126 3.16269 0
M  V30 1884 H 177.403 2.62305 1.32564 0
M  V30 1885 H 174.917 1.49202 0.641297 0
M  V30 1886 H 176.914 1.93569 3.69238 0
M  V30 1887 H 175.574 0.909339 3.11707 0
M  V30 1888 H 176.585 4.55009 2.4736 0
M  V30 1889 H 173.262 2.20301 3.54646 0
M  V30 1890 H 174.652 6.15422 2.69639 0
M  V30 1891 N 177.372 -0.689602 1.41712 0
M  V30 1892 C 178.322 -1.79571 1.40493 0
M  V30 1893 C 179.306 -1.58473 0.278409 0
M  V30 1894 O 180.498 -1.69204 0.519532 0
M  V30 1895 C 177.627 -3.17923 1.29536 0
M  V30 1896 C 176.713 -3.44695 2.47075 0
M  V30 1897 N 177.104 -3.42132 3.72531 0
M  V30 1898 C 175.402 -3.75269 2.41017 0
M  V30 1899 C 176.103 -3.67976 4.50521 0
M  V30 1900 N 175.079 -3.88014 3.80718 0
M  V30 1901 H 178.881 -1.75961 2.35404 0
M  V30 1902 H 176.395 -0.889839 1.35851 0
M  V30 1903 H 178.392 -3.97167 1.26745 0
M  V30 1904 H 177.052 -3.22741 0.356153 0
M  V30 1905 H 178.063 -3.22375 4.05333 0
M  V30 1906 H 174.74 -3.87421 1.55599 0
M  V30 1907 H 176.13 -3.7208 5.59469 0
M  V30 1908 N 178.85 -1.27639 -0.924453 0
M  V30 1909 C 180.08 -1.16819 -1.70402 0
M  V30 1910 C 180.488 0.277191 -1.87158 0
M  V30 1911 O 179.831 1.20025 -1.39067 0
M  V30 1912 C 179.893 -1.78305 -3.12166 0
M  V30 1913 C 179.557 -3.27502 -3.18734 0
M  V30 1914 C 180.554 -4.2409 -3.00738 0
M  V30 1915 C 178.239 -3.68269 -3.4159 0
M  V30 1916 C 180.233 -5.59422 -3.05492 0
M  V30 1917 C 177.92 -5.0373 -3.45977 0
M  V30 1918 C 178.918 -5.99116 -3.27946 0
M  V30 1919 O 178.606 -7.32108 -3.32074 0
M  V30 1920 H 178.338 -0.406931 -0.539799 0
M  V30 1921 H 180.892 -1.69078 -1.16626 0
M  V30 1922 H 179.122 -1.20528 -3.67437 0
M  V30 1923 H 180.811 -1.62154 -3.72103 0
M  V30 1924 H 181.577 -3.93931 -2.82919 0
M  V30 1925 H 177.456 -2.94496 -3.54673 0
M  V30 1926 H 181 -6.33852 -2.91337 0
M  V30 1927 H 176.897 -5.33543 -3.63321 0
M  V30 1928 H 177.665 -7.40598 -3.48507 0
M  V30 1929 N 180.328 1.1314 -1.09713 0
M  V30 1930 C 181.574 1.84757 -0.836224 0
M  V30 1931 C 181.907 1.8347 0.636598 0
M  V30 1932 O 181.182 1.27491 1.46889 0
M  V30 1933 C 181.465 3.32782 -1.37578 0
M  V30 1934 C 181.318 3.42567 -2.91493 0
M  V30 1935 C 182.637 4.28307 -1.01198 0
M  V30 1936 H 179.756 0.67082 -0.305236 0
M  V30 1937 H 182.398 1.3278 -1.35903 0
M  V30 1938 H 180.548 3.77177 -0.931097 0
M  V30 1939 H 182.22 3.06862 -3.44432 0
M  V30 1940 H 180.463 2.83349 -3.28475 0
M  V30 1941 H 181.134 4.46674 -3.24324 0
M  V30 1942 H 183.61 3.91999 -1.39556 0
M  V30 1943 H 182.486 5.30307 -1.41653 0
M  V30 1944 H 182.747 4.42029 0.0794833 0
M  V30 1945 N 181.806 0.884767 1.30421 0
M  V30 1946 C 183.054 0.502112 1.95763 0
M  V30 1947 C 183.375 -0.951815 1.70192 0
M  V30 1948 O 182.645 -1.6692 1.0254 0
M  V30 1949 H 181.225 0.182694 0.724315 0
M  V30 1950 H 183.887 1.1278 1.58955 0
M  V30 1951 H 182.983 0.672188 3.04775 0
M  V30 1952 N 183.284 -1.43765 0.645699 0
M  V30 1953 C 184.532 -2.01499 0.155731 0
M  V30 1954 C 184.853 -1.51151 -1.232 0
M  V30 1955 O 184.123 -0.721044 -1.82148 0
M  V30 1956 H 182.703 -0.745003 0.0545817 0
M  V30 1957 H 185.365 -1.76075 0.835677 0
M  V30 1958 H 184.461 -3.1181 0.134577 0
M  V30 1959 N 184.763 -0.387143 -1.52771 0
M  V30 1960 C 186.174 0.0873634 -1.86495 0
M  V30 1961 C 186.525 1.46336 -1.30691 0
M  V30 1962 O 185.65 2.068 -0.637409 0
M  V30 1963 C 186.245 0.165305 -3.38396 0
M  V30 1964 C 184.804 0.584101 -3.7184 0
M  V30 1965 C 183.951 -0.255279 -2.76122 0
M  V30 1966 H 186.902 -0.605104 -1.46711 0
M  V30 1967 H 186.923 0.984848 -3.67534 0
M  V30 1968 H 186.435 -0.836301 -3.78982 0
M  V30 1969 H 184.536 1.59315 -3.36823 0
M  V30 1970 H 184.649 0.343749 -4.77865 0
M  V30 1971 H 183.013 0.279126 -2.53166 0
M  V30 1972 H 183.796 -1.25482 -3.19545 0
M  V30 1973 N 186.241 1.57166 -0.116904 0
M  V30 1974 C 187.469 1.99473 0.549383 0
M  V30 1975 C 187.884 0.996541 1.60357 0
M  V30 1976 O 187.241 -0.0108731 1.82497 0
M  V30 1977 C 187.292 3.41788 1.17741 0
M  V30 1978 O 187.013 4.37788 0.165362 0
M  V30 1979 C 188.514 3.99216 1.92722 0
M  V30 1980 H 185.734 0.655009 0.145616 0
M  V30 1981 H 188.278 2.03494 -0.202625 0
M  V30 1982 H 186.433 3.38713 1.88021 0
M  V30 1983 H 186.847 5.20806 0.621403 0
M  V30 1984 H 188.321 5.00882 2.31995 0
M  V30 1985 H 188.798 3.3824 2.80161 0
M  V30 1986 H 189.404 4.0583 1.27209 0
M  V30 1987 N 187.719 -0.156864 1.56817 0
M  V30 1988 C 188.629 -1.2136 2.00771 0
M  V30 1989 C 189.645 -1.47598 0.921459 0
M  V30 1990 O 190.821 -1.59462 1.2302 0
M  V30 1991 C 187.886 -2.52943 2.37109 0
M  V30 1992 C 186.947 -2.34439 3.59634 0
M  V30 1993 C 186.18 -3.59748 3.94229 0
M  V30 1994 O 186.403 -4.65526 3.29609 0
M  V30 1995 O 185.337 -3.52998 4.8752 0
M  V30 1996 H 189.163 -0.870468 2.90958 0
M  V30 1997 H 186.748 -0.36484 1.44877 0
M  V30 1998 H 188.63 -3.30538 2.61386 0
M  V30 1999 H 187.305 -2.86806 1.5008 0
M  V30 2000 H 186.212 -1.54828 3.40557 0
M  V30 2001 H 187.545 -2.05496 4.4725 0
M  V30 2002 N 189.197 -1.51736 -0.425897 0
M  V30 2003 C 190.425 -1.68794 -1.1965 0
M  V30 2004 C 190.84 -0.390164 -1.84725 0
M  V30 2005 O 190.197 0.632376 -1.71194 0
M  V30 2006 C 190.248 -2.81174 -2.27208 0
M  V30 2007 O 189.969 -4.05925 -1.64793 0
M  V30 2008 C 191.47 -3.09599 -3.17275 0
M  V30 2009 H 188.69 -0.566128 -0.360194 0
M  V30 2010 H 191.234 -1.98211 -0.503249 0
M  V30 2011 H 189.389 -2.54324 -2.9223 0
M  V30 2012 H 189.803 -4.68423 -2.35967 0
M  V30 2013 H 191.277 -3.91786 -3.88854 0
M  V30 2014 H 191.754 -2.22468 -3.78688 0
M  V30 2015 H 192.36 -3.38151 -2.57941 0
M  V30 2016 N 190.675 0.682077 -1.42076 0
M  V30 2017 C 191.625 1.78823 -1.41444 0
M  V30 2018 C 192.609 1.58323 -0.28681 0
M  V30 2019 O 193.801 1.68926 -0.528498 0
M  V30 2020 C 190.93 3.17232 -1.3122 0
M  V30 2021 C 190.016 3.4338 -2.489 0
M  V30 2022 N 190.407 3.40152 -3.7434 0
M  V30 2023 C 188.705 3.73986 -2.43003 0
M  V30 2024 C 189.406 3.65581 -4.52466 0
M  V30 2025 N 188.382 3.85989 -3.8277 0
M  V30 2026 H 192.184 1.7471 -2.36334 0
M  V30 2027 H 189.698 0.882622 -1.36321 0
M  V30 2028 H 191.695 3.96489 -1.2885 0
M  V30 2029 H 190.355 3.22547 -0.373263 0
M  V30 2030 H 191.366 3.20221 -4.07037 0
M  V30 2031 H 188.043 3.86591 -1.57651 0
M  V30 2032 H 189.433 3.69108 -5.61435 0
M  V30 2033 N 192.153 1.28127 0.917671 0
M  V30 2034 C 193.399 1.15223 1.66888 0
M  V30 2035 C 193.732 -0.299293 1.9188 0
M  V30 2036 O 193.007 -1.21805 1.51637 0
M  V30 2037 C 193.29 1.94706 3.02922 0
M  V30 2038 C 193.143 3.47898 2.85109 0
M  V30 2039 C 194.462 1.75939 4.03402 0
M  V30 2040 H 191.581 0.419946 0.605652 0
M  V30 2041 H 194.223 1.57398 1.06423 0
M  V30 2042 H 192.373 1.58864 3.54534 0
M  V30 2043 H 194.045 3.93624 2.40537 0
M  V30 2044 H 192.288 3.7373 2.20246 0
M  V30 2045 H 192.959 3.98765 3.81694 0
M  V30 2046 H 195.435 2.07209 3.60837 0
M  V30 2047 H 194.311 2.33931 4.96556 0
M  V30 2048 H 194.572 0.709877 4.36364 0
M  V30 2049 N 193.631 -1.12557 1.10312 0
M  V30 2050 C 194.877 -1.84311 0.846011 0
M  V30 2051 C 195.21 -1.83805 -0.626859 0
M  V30 2052 O 194.485 -1.28268 -1.46211 0
M  V30 2053 C 194.768 -3.32048 1.39341 0
M  V30 2054 C 194.621 -3.41016 2.93305 0
M  V30 2055 C 195.94 -4.27764 1.03468 0
M  V30 2056 H 193.059 -0.669192 0.30879 0
M  V30 2057 H 195.701 -1.32057 1.36605 0
M  V30 2058 H 193.851 -3.76678 0.951087 0
M  V30 2059 H 195.523 -3.05031 3.46055 0
M  V30 2060 H 193.766 -2.81603 3.29973 0
M  V30 2061 H 194.437 -4.44948 3.26689 0
M  V30 2062 H 196.913 -3.91253 1.41633 0
M  V30 2063 H 195.789 -5.29549 1.44463 0
M  V30 2064 H 196.05 -4.42064 -0.0560404 0
M  V30 2065 N 195.109 -0.891671 -1.2995 0
M  V30 2066 C 196.525 -0.58662 -1.48428 0
M  V30 2067 C 196.725 0.873951 -1.81561 0
M  V30 2068 O 195.781 1.65471 -1.90724 0
M  V30 2069 C 197.094 -1.50553 -2.60296 0
M  V30 2070 C 198.642 -1.50988 -2.74175 0
M  V30 2071 C 199.117 -2.41488 -3.89163 0
M  V30 2072 N 200.608 -2.39489 -3.96483 0
M  V30 2073 C 201.343 -3.06223 -4.84784 0
M  V30 2074 N 200.839 -3.82206 -5.77833 0
M  V30 2075 N 202.632 -2.95421 -4.78208 0
M  V30 2076 H 194.783 -1.83644 -1.06718 0
M  V30 2077 H 197.046 -0.786455 -0.529332 0
M  V30 2078 H 196.752 -2.54581 -2.42654 0
M  V30 2079 H 196.626 -1.22008 -3.56923 0
M  V30 2080 H 199.013 -0.47708 -2.91218 0
M  V30 2081 H 199.094 -1.83567 -1.78148 0
M  V30 2082 H 198.738 -3.44857 -3.72876 0
M  V30 2083 H 198.668 -2.06222 -4.84541 0
M  V30 2084 H 201.159 -1.84278 -3.29924 0
M  V30 2085 H 201.472 -4.302 -6.41988 0
M  V30 2086 H 199.817 -3.86313 -5.77743 0
M  V30 2087 H 203.008 -2.35581 -4.04499 0
M  V30 2088 H 203.181 -3.47704 -5.46814 0
M  V30 2089 N 196.587 1.43421 -0.653314 0
M  V30 2090 C 197.812 2.06678 -0.172846 0
M  V30 2091 C 198.237 1.48648 1.15262 0
M  V30 2092 O 197.595 0.596457 1.71208 0
M  V30 2093 C 197.643 3.60474 -0.0953184 0
M  V30 2094 O 196.747 4.01487 0.942442 0
M  V30 2095 H 196.088 0.657181 -0.0949155 0
M  V30 2096 H 198.618 1.83925 -0.896265 0
M  V30 2097 H 198.628 4.07905 0.0879728 0
M  V30 2098 H 197.303 4.02088 -1.06291 0
M  V30 2099 H 195.88 3.65646 0.731932 0
M  V30 2100 N 198.065 0.39524 1.52563 0
M  V30 2101 C 199.476 -0.0774719 1.86539 0
M  V30 2102 C 199.827 -1.45641 1.31466 0
M  V30 2103 O 198.952 -2.06459 0.648367 0
M  V30 2104 C 199.547 -0.147356 3.38479 0
M  V30 2105 C 198.106 -0.564373 3.72145 0
M  V30 2106 C 197.253 0.269919 2.75983 0
M  V30 2107 H 200.204 0.612876 1.46388 0
M  V30 2108 H 200.225 -0.965343 3.68051 0
M  V30 2109 H 199.737 0.856387 3.78534 0
M  V30 2110 H 197.838 -1.57527 3.37663 0
M  V30 2111 H 197.951 -0.318402 4.78041 0
M  V30 2112 H 196.315 -0.265696 2.5331 0
M  V30 2113 H 197.098 1.27175 3.18875 0
M  V30 2114 N 199.544 -1.57102 0.125237 0
M  V30 2115 C 200.494 -2.12202 -0.833936 0
M  V30 2116 C 201.478 -1.04433 -1.22403 0
M  V30 2117 O 202.67 -1.30655 -1.19408 0
M  V30 2118 C 199.799 -2.72994 -2.08157 0
M  V30 2119 C 198.885 -3.87852 -1.71556 0
M  V30 2120 N 199.276 -4.9464 -1.05662 0
M  V30 2121 C 197.574 -3.98153 -2.00973 0
M  V30 2122 C 198.275 -5.74953 -0.883376 0
M  V30 2123 N 197.251 -5.24985 -1.41036 0
M  V30 2124 H 201.053 -2.92141 -0.321035 0
M  V30 2125 H 198.567 -1.62217 -0.0770315 0
M  V30 2126 H 200.564 -3.10816 -2.77847 0
M  V30 2127 H 199.224 -1.9452 -2.59985 0
M  V30 2128 H 200.235 -5.12872 -0.719878 0
M  V30 2129 H 196.912 -3.30728 -2.54804 0
M  V30 2130 H 198.302 -6.70904 -0.365675 0
M  V30 2131 N 201.022 0.148545 -1.56898 0
M  V30 2132 C 202.433 0.708766 -1.72723 0
M  V30 2133 C 202.784 1.81734 -0.739395 0
M  V30 2134 O 201.909 2.16194 0.0943169 0
M  V30 2135 C 202.504 1.29245 -3.13179 0
M  V30 2136 C 201.063 1.79925 -3.30611 0
M  V30 2137 C 200.21 0.687111 -2.68652 0
M  V30 2138 H 203.161 -0.0771063 -1.58513 0
M  V30 2139 H 203.182 2.16224 -3.13093 0
M  V30 2140 H 202.694 0.485382 -3.85053 0
M  V30 2141 H 200.795 2.63203 -2.63732 0
M  V30 2142 H 200.908 1.92903 -4.38549 0
M  V30 2143 H 199.272 1.11335 -2.29078 0
M  V30 2144 H 200.055 -0.108483 -3.43129 0
M  V30 2145 N 202.5 1.5196 0.417844 0
M  V30 2146 C 203.73 1.69181 1.18581 0
M  V30 2147 C 204.138 0.397104 1.84986 0
M  V30 2148 O 203.481 -0.636011 1.72339 0
M  V30 2149 C 203.543 2.76497 2.29759 0
M  V30 2150 C 203.207 4.18514 1.83563 0
M  V30 2151 C 204.204 5.02648 1.32821 0
M  V30 2152 C 201.889 4.64708 1.90661 0
M  V30 2153 C 203.883 6.31044 0.897894 0
M  V30 2154 C 201.57 5.93096 1.47241 0
M  V30 2155 C 202.568 6.76093 0.968891 0
M  V30 2156 O 202.256 8.02078 0.540924 0
M  V30 2157 H 201.988 0.570457 0.362705 0
M  V30 2158 H 204.542 1.99249 0.498885 0
M  V30 2159 H 202.772 2.41786 3.01789 0
M  V30 2160 H 204.461 2.82403 2.91553 0
M  V30 2161 H 205.227 4.68154 1.26716 0
M  V30 2162 H 201.106 4.00216 2.28797 0
M  V30 2163 H 204.65 6.95776 0.504192 0
M  V30 2164 H 200.547 6.271 1.53022 0
M  V30 2165 H 201.315 8.15794 0.66502 0
M  V30 2166 N 203.978 -0.674533 1.42435 0
M  V30 2167 C 204.91 -1.80005 1.41883 0
M  V30 2168 C 205.923 -1.59667 0.31787 0
M  V30 2169 O 207.112 -1.68781 0.580973 0
M  V30 2170 C 204.212 -3.17114 1.19549 0
M  V30 2171 C 203.385 -3.64299 2.42084 0
M  V30 2172 C 202.444 -4.80142 2.15291 0
M  V30 2173 O 201.47 -4.90673 2.88493 0
M  V30 2174 N 202.672 -5.68869 1.1562 0
M  V30 2175 H 205.437 -1.80964 2.38898 0
M  V30 2176 H 202.998 -0.857633 1.37318 0
M  V30 2177 H 204.99 -3.92267 0.995417 0
M  V30 2178 H 203.56 -3.11053 0.310569 0
M  V30 2179 H 202.78 -2.79822 2.77657 0
M  V30 2180 H 204.068 -3.92567 3.23679 0
M  V30 2181 H 203.466 -5.63012 0.550765 0
M  V30 2182 H 202.023 -6.43833 1.016 0
M  V30 2183 N 205.456 -1.28612 -0.910864 0
M  V30 2184 C 206.386 -1.15326 -2.03032 0
M  V30 2185 C 207.367 -0.0502924 -1.70026 0
M  V30 2186 O 208.552 -0.227797 -1.92859 0
M  V30 2187 C 205.682 -0.817343 -3.37545 0
M  V30 2188 C 204.636 -1.8754 -3.84724 0
M  V30 2189 C 203.962 -1.39305 -5.16235 0
M  V30 2190 C 205.262 -3.28244 -4.06267 0
M  V30 2191 H 206.956 -2.08975 -2.14406 0
M  V30 2192 H 204.502 -1.00612 -1.03021 0
M  V30 2193 H 206.455 -0.711151 -4.15356 0
M  V30 2194 H 205.179 0.154846 -3.26233 0
M  V30 2195 H 203.838 -1.97079 -3.09121 0
M  V30 2196 H 203.486 -0.409846 -5.01328 0
M  V30 2197 H 203.186 -2.10057 -5.48771 0
M  V30 2198 H 204.71 -1.30014 -5.96598 0
M  V30 2199 H 206.124 -3.21611 -4.74594 0
M  V30 2200 H 204.521 -3.96855 -4.5014 0
M  V30 2201 H 205.591 -3.72048 -3.10979 0
M  V30 2202 N 206.934 1.1197 -1.10907 0
M  V30 2203 C 208.345 1.65114 -0.871446 0
M  V30 2204 C 208.696 1.86885 0.597353 0
M  V30 2205 O 207.821 1.59896 1.45816 0
M  V30 2206 C 208.416 2.99944 -1.5754 0
M  V30 2207 C 206.975 3.50018 -1.38435 0
M  V30 2208 C 206.122 2.24941 -1.62164 0
M  V30 2209 H 209.073 0.956851 -1.2661 0
M  V30 2210 H 209.094 3.66651 -1.01721 0
M  V30 2211 H 208.606 2.84067 -2.64438 0
M  V30 2212 H 206.707 3.71071 -0.337214 0
M  V30 2213 H 206.82 4.29165 -2.12965 0
M  V30 2214 H 205.184 2.3229 -1.04467 0
M  V30 2215 H 205.967 2.11612 -2.70324 0
M  V30 2216 N 208.412 0.89855 1.29475 0
M  V30 2217 C 209.344 0.332726 2.26772 0
M  V30 2218 C 210.357 -0.520323 1.54261 0
M  V30 2219 O 211.546 -0.337668 1.75277 0
M  V30 2220 C 208.646 -0.544334 3.345 0
M  V30 2221 C 207.819 0.282728 4.36485 0
M  V30 2222 C 206.878 -0.526982 5.23555 0
M  V30 2223 O 205.904 0.0551165 5.69173 0
M  V30 2224 N 207.106 -1.83331 5.5079 0
M  V30 2225 H 209.871 1.16897 2.75962 0
M  V30 2226 H 207.432 0.762919 1.42798 0
M  V30 2227 H 209.424 -1.09239 3.89678 0
M  V30 2228 H 207.994 -1.28127 2.85136 0
M  V30 2229 H 207.214 1.01221 3.80983 0
M  V30 2230 H 208.502 0.84918 5.01664 0
M  V30 2231 H 207.9 -2.32898 5.15534 0
M  V30 2232 H 206.457 -2.32852 6.08788 0
M  V30 2233 N 209.89 -1.43072 0.660911 0
M  V30 2234 C 210.853 -2.29194 -0.0166406 0
M  V30 2235 C 211.853 -1.42609 -0.742912 0
M  V30 2236 O 213.043 -1.64155 -0.583004 0
M  V30 2237 C 210.175 -3.24831 -1.0343 0
M  V30 2238 H 211.368 -2.90596 0.741208 0
M  V30 2239 H 208.921 -1.5048 0.422532 0
M  V30 2240 H 209.656 -2.68339 -1.82111 0
M  V30 2241 H 209.441 -3.88676 -0.517082 0
M  V30 2242 H 210.931 -3.89451 -1.50723 0
M  V30 2243 N 211.368 -0.403325 -1.52352 0
M  V30 2244 C 212.298 0.416205 -2.29761 0
M  V30 2245 C 213.279 1.05123 -1.33728 0
M  V30 2246 O 214.464 1.06134 -1.62632 0
M  V30 2247 C 211.594 1.53624 -3.11475 0
M  V30 2248 C 210.548 1.02653 -4.15507 0
M  V30 2249 C 209.874 2.23971 -4.85532 0
M  V30 2250 C 211.174 0.08463 -5.22231 0
M  V30 2251 H 212.868 -0.229701 -2.98518 0
M  V30 2252 H 210.414 -0.111913 -1.43564 0
M  V30 2253 H 212.367 2.1165 -3.64393 0
M  V30 2254 H 211.091 2.20994 -2.40477 0
M  V30 2255 H 209.75 0.46871 -3.63591 0
M  V30 2256 H 209.398 2.89883 -4.11068 0
M  V30 2257 H 209.098 1.90521 -5.55856 0
M  V30 2258 H 210.622 2.82614 -5.41259 0
M  V30 2259 H 212.036 0.573509 -5.70424 0
M  V30 2260 H 210.433 -0.160783 -5.99885 0
M  V30 2261 H 211.503 -0.86237 -4.7717 0
M  V30 2262 N 212.846 1.57033 -0.133567 0
M  V30 2263 C 213.809 2.14897 0.796995 0
M  V30 2264 C 214.809 1.0874 1.18458 0
M  V30 2265 O 215.999 1.34446 1.1077 0
M  V30 2266 C 213.131 2.70112 2.07973 0
M  V30 2267 H 214.324 2.98457 0.293873 0
M  V30 2268 H 211.877 1.55871 0.115787 0
M  V30 2269 H 212.612 1.9018 2.62682 0
M  V30 2270 H 212.397 3.47764 1.81115 0
M  V30 2271 H 213.887 3.14738 2.74462 0
M  V30 2272 N 214.325 -0.140222 1.56975 0
M  V30 2273 C 215.736 -0.699596 1.73097 0
M  V30 2274 C 216.087 -1.8134 0.749022 0
M  V30 2275 O 215.212 -2.16241 -0.0828503 0
M  V30 2276 C 215.807 -1.27582 3.1386 0
M  V30 2277 C 214.366 -1.78169 3.31561 0
M  V30 2278 C 213.513 -0.672855 2.69013 0
M  V30 2279 H 216.464 0.0855115 1.58469 0
M  V30 2280 H 216.485 -2.14561 3.14235 0
M  V30 2281 H 215.997 -0.464955 3.85305 0
M  V30 2282 H 214.098 -2.61801 2.65124 0
M  V30 2283 H 214.211 -1.90574 4.39566 0
M  V30 2284 H 212.575 -1.10118 2.29665 0
M  V30 2285 H 213.358 0.126679 3.43066 0
M  V30 2286 N 215.803 -1.52179 -0.40978 0
M  V30 2287 C 216.753 -1.71857 -1.49831 0
M  V30 2288 C 217.737 -0.572469 -1.50372 0
M  V30 2289 O 218.929 -0.829509 -1.56359 0
M  V30 2290 C 216.058 -1.87206 -2.87765 0
M  V30 2291 C 215.144 -3.07685 -2.91875 0
M  V30 2292 N 215.535 -4.30403 -2.65683 0
M  V30 2293 C 213.833 -3.07505 -3.23043 0
M  V30 2294 C 214.534 -5.11868 -2.76344 0
M  V30 2295 N 213.51 -4.47101 -3.09195 0
M  V30 2296 H 217.312 -2.64381 -1.28375 0
M  V30 2297 H 214.826 -1.50203 -0.617479 0
M  V30 2298 H 216.823 -1.99419 -3.66111 0
M  V30 2299 H 215.483 -0.958814 -3.10221 0
M  V30 2300 H 216.494 -4.58887 -2.4009 0
M  V30 2301 H 213.171 -2.25915 -3.51096 0
M  V30 2302 H 214.561 -6.19634 -2.59814 0
M  V30 2303 N 217.281 0.66697 -1.42791 0
M  V30 2304 C 218.527 1.4291 -1.43891 0
M  V30 2305 C 218.86 1.94114 -0.0578972 0
M  V30 2306 O 218.135 1.71414 0.91911 0
M  V30 2307 C 218.418 2.62049 -2.46987 0
M  V30 2308 C 218.271 2.16426 -3.94309 0
M  V30 2309 C 219.59 3.64266 -2.46978 0
M  V30 2310 H 216.709 0.518306 -0.523954 0
M  V30 2311 H 219.351 0.757321 -1.74255 0
M  V30 2312 H 217.501 3.19361 -2.21225 0
M  V30 2313 H 219.173 1.64221 -4.31079 0
M  V30 2314 H 217.416 1.47925 -4.078 0
M  V30 2315 H 218.087 3.02038 -4.62036 0
M  V30 2316 H 220.563 3.16686 -2.69906 0
M  V30 2317 H 219.439 4.45196 -3.21079 0
M  V30 2318 H 219.7 4.15927 -1.49857 0
M  V30 2319 N 218.759 1.29093 0.90403 0
M  V30 2320 C 220.036 1.075 1.63411 0
M  V30 2321 C 220.416 -0.382346 2.07609 0
M  V30 2322 O 219.764 -1.37031 1.82851 0
M  V30 2323 C 219.974 2.05858 2.81822 0
M  V30 2324 C 221.322 2.36539 3.52611 0
M  V30 2325 O 222.346 2.04019 2.91984 0
M  V30 2326 O 221.205 2.92085 4.61897 0
M  V30 2327 H 218.299 0.411547 0.717327 0
M  V30 2328 H 220.845 1.40449 0.952479 0
M  V30 2329 H 219.617 3.04037 2.46327 0
M  V30 2330 H 219.24 1.73613 3.57693 0
M  V30 2331 N 220.237 -1.11381 1.11499 0
M  V30 2332 C 221.484 -1.83132 0.864231 0
M  V30 2333 C 221.812 -1.84683 -0.610114 0
M  V30 2334 O 221.067 -1.29589 -1.46646 0
M  V30 2335 C 221.366 -3.30026 1.37177 0
M  V30 2336 C 221.032 -3.48634 2.85946 0
M  V30 2337 C 219.694 -3.53421 3.26569 0
M  V30 2338 C 222.046 -3.54837 3.81759 0
M  V30 2339 C 219.374 -3.61967 4.61733 0
M  V30 2340 C 221.726 -3.64915 5.1674 0
M  V30 2341 C 220.39 -3.67962 5.5692 0
M  V30 2342 H 219.66 -0.670127 0.316245 0
M  V30 2343 H 222.307 -1.31354 1.3935 0
M  V30 2344 H 220.612 -3.84304 0.762753 0
M  V30 2345 H 222.309 -3.84034 1.15408 0
M  V30 2346 H 218.899 -3.45579 2.53521 0
M  V30 2347 H 223.083 -3.50399 3.51474 0
M  V30 2348 H 218.339 -3.62603 4.92269 0
M  V30 2349 H 222.513 -3.68658 5.90816 0
M  V30 2350 H 220.14 -3.74336 6.61647 0
M  V30 2351 N 221.715 -0.905404 -1.28997 0
M  V30 2352 C 222.961 -0.535039 -1.95615 0
M  V30 2353 C 223.294 0.917404 -1.71165 0
M  V30 2354 O 222.569 1.65123 -1.02785 0
M  V30 2355 C 222.852 -0.834918 -3.50287 0
M  V30 2356 C 222.705 -2.33948 -3.84172 0
M  V30 2357 C 224.024 -0.325318 -4.38896 0
M  V30 2358 H 221.143 -0.195861 -0.710498 0
M  V30 2359 H 223.785 -1.13313 -1.52513 0
M  V30 2360 H 221.935 -0.325904 -3.87131 0
M  V30 2361 H 223.607 -2.91847 -3.57243 0
M  V30 2362 H 221.85 -2.79789 -3.31513 0
M  V30 2363 H 222.521 -2.49987 -4.92149 0
M  V30 2364 H 224.997 -0.761256 -4.09077 0
M  V30 2365 H 223.873 -0.564295 -5.45992 0
M  V30 2366 H 224.134 0.774144 -4.35269 0
M  V30 2367 N 223.193 1.4272 -0.668489 0
M  V30 2368 C 224.441 2.01226 -0.187769 0
M  V30 2369 C 224.762 1.53092 1.2078 0
M  V30 2370 O 224.032 0.74993 1.80977 0
M  V30 2371 H 222.612 0.744041 -0.0664272 0
M  V30 2372 H 225.274 1.74723 -0.863583 0
M  V30 2373 H 224.37 3.11556 -0.184166 0
M  V30 2374 N 224.671 0.411399 1.52136 0
M  V30 2375 C 225.919 -0.163322 2.01439 0
M  V30 2376 C 226.24 -1.45453 1.29879 0
M  V30 2377 O 225.51 -1.91225 0.4254 0
M  V30 2378 H 224.09 -0.0633447 0.744309 0
M  V30 2379 H 226.752 0.548161 1.87033 0
M  V30 2380 H 225.848 -0.357817 3.10042 0
M  V30 2381 N 226.149 -1.5696 0.141893 0
M  V30 2382 C 227.079 -2.19516 -0.795936 0
M  V30 2383 C 228.06 -1.14187 -1.26077 0
M  V30 2384 O 229.245 -1.42511 -1.31925 0
M  V30 2385 C 226.375 -2.81272 -2.03723 0
M  V30 2386 C 225.329 -3.92384 -1.70936 0
M  V30 2387 C 224.655 -4.41052 -3.02287 0
M  V30 2388 C 225.955 -5.13403 -0.959954 0
M  V30 2389 H 227.649 -2.98138 -0.274596 0
M  V30 2390 H 225.195 -1.43406 -0.130636 0
M  V30 2391 H 227.148 -3.237 -2.69808 0
M  V30 2392 H 225.872 -1.99973 -2.58221 0
M  V30 2393 H 224.531 -3.50566 -1.07232 0
M  V30 2394 H 224.179 -3.56582 -3.54765 0
M  V30 2395 H 223.879 -5.15993 -2.81114 0
M  V30 2396 H 225.403 -4.86146 -3.69451 0
M  V30 2397 H 226.817 -5.52706 -1.52279 0
M  V30 2398 H 225.214 -5.94073 -0.848357 0
M  V30 2399 H 226.284 -4.84875 0.0492434 0
M  V30 2400 N 227.627 0.131896 -1.57047 0
M  V30 2401 C 228.577 1.1679 -1.95816 0
M  V30 2402 C 229.561 1.37756 -0.831393 0
M  V30 2403 O 230.753 1.39065 -1.09499 0
M  V30 2404 C 227.882 2.49778 -2.35512 0
M  V30 2405 C 226.968 2.32342 -3.54793 0
M  V30 2406 N 227.359 1.8469 -4.70875 0
M  V30 2407 C 225.657 2.63043 -3.60173 0
M  V30 2408 C 226.358 1.80656 -5.52936 0
M  V30 2409 N 225.334 2.24528 -4.95064 0
M  V30 2410 H 229.136 0.791818 -2.83033 0
M  V30 2411 H 226.65 0.339791 -1.58805 0
M  V30 2412 H 228.647 3.24692 -2.61498 0
M  V30 2413 H 227.307 2.88156 -1.49654 0
M  V30 2414 H 228.318 1.54429 -4.9434 0
M  V30 2415 H 224.995 3.05193 -2.84892 0
M  V30 2416 H 226.385 1.45178 -6.56028 0
M  V30 2417 N 229.106 1.52395 0.401703 0
M  V30 2418 C 230.522 1.41363 0.740864 0
M  V30 2419 C 230.722 0.523982 1.94568 0
M  V30 2420 O 229.778 -0.00741204 2.52499 0
M  V30 2421 C 231.091 2.84011 0.987847 0
M  V30 2422 C 232.639 2.93404 1.09011 0
M  V30 2423 C 233.114 4.37036 1.3698 0
M  V30 2424 N 234.605 4.40304 1.43829 0
M  V30 2425 C 235.34 5.48508 1.67112 0
M  V30 2426 N 234.836 6.66819 1.87949 0
M  V30 2427 N 236.629 5.36034 1.69187 0
M  V30 2428 H 228.78 2.08765 -0.391262 0
M  V30 2429 H 231.043 0.941265 -0.112798 0
M  V30 2430 H 230.749 3.51265 0.174835 0
M  V30 2431 H 230.623 3.25502 1.906 0
M  V30 2432 H 233.01 2.26325 1.8937 0
M  V30 2433 H 233.091 2.55359 0.15015 0
M  V30 2434 H 232.735 5.04676 0.571353 0
M  V30 2435 H 232.665 4.72623 2.3224 0
M  V30 2436 H 235.156 3.55024 1.29486 0
M  V30 2437 H 235.469 7.45063 2.05185 0
M  V30 2438 H 233.814 6.6987 1.85199 0
M  V30 2439 H 237.005 4.42579 1.52451 0
M  V30 2440 H 237.178 6.20434 1.86993 0
M  V30 2441 N 230.584 -0.659388 1.43143 0
M  V30 2442 C 231.831 -1.41935 1.44433 0
M  V30 2443 C 232.159 -1.94387 0.0663522 0
M  V30 2444 O 231.414 -1.72314 -0.927706 0
M  V30 2445 C 231.713 -2.62206 2.42864 0
M  V30 2446 C 231.379 -2.28208 3.88886 0
M  V30 2447 C 230.041 -2.18647 4.28657 0
M  V30 2448 C 232.393 -2.00887 4.8093 0
M  V30 2449 C 229.721 -1.79914 5.58433 0
M  V30 2450 C 232.073 -1.63653 6.11065 0
M  V30 2451 C 230.737 -1.52614 6.49819 0
M  V30 2452 H 230.007 -0.519376 0.528517 0
M  V30 2453 H 232.654 -0.750453 1.76183 0
M  V30 2454 H 230.959 -3.34199 2.04495 0
M  V30 2455 H 232.656 -3.2041 2.41119 0
M  V30 2456 H 229.246 -2.36557 3.57406 0
M  V30 2457 H 233.43 -2.07198 4.5098 0
M  V30 2458 H 228.686 -1.69948 5.87305 0
M  V30 2459 H 232.86 -1.41543 6.81864 0
M  V30 2460 H 230.487 -1.22371 7.50286 0
M  V30 2461 N 232.062 -1.29571 -0.897171 0
M  V30 2462 C 233.473 -1.15964 -1.46319 0
M  V30 2463 C 233.824 0.244267 -1.94674 0
M  V30 2464 O 232.949 1.13998 -1.83939 0
M  V30 2465 C 233.544 -2.09906 -2.65942 0
M  V30 2466 C 232.103 -2.00314 -3.18671 0
M  V30 2467 C 231.25 -2.00687 -1.91363 0
M  V30 2468 H 234.201 -1.42019 -0.708268 0
M  V30 2469 H 234.222 -1.67276 -3.41759 0
M  V30 2470 H 233.734 -3.12075 -2.30718 0
M  V30 2471 H 231.835 -1.01242 -3.58582 0
M  V30 2472 H 231.948 -2.88102 -3.82798 0
M  V30 2473 H 230.312 -1.45319 -2.09175 0
M  V30 2474 H 231.095 -3.04566 -1.58413 0
M  V30 2475 N 233.54 1.10788 -1.12088 0
M  V30 2476 C 234.951 1.64181 -0.88891 0
M  V30 2477 C 235.302 1.87508 0.577498 0
M  V30 2478 O 234.427 1.61434 1.44112 0
M  V30 2479 C 235.022 2.98257 -1.60712 0
M  V30 2480 C 233.581 3.4853 -1.42139 0
M  V30 2481 C 232.728 2.23208 -1.6454 0
M  V30 2482 H 235.679 0.943368 -1.27618 0
M  V30 2483 H 235.7 3.65552 -1.05604 0
M  V30 2484 H 235.212 2.81246 -2.67436 0
M  V30 2485 H 233.313 3.70692 -0.376552 0
M  V30 2486 H 233.426 4.26882 -2.17505 0
M  V30 2487 H 231.79 2.31169 -1.06925 0
M  V30 2488 H 232.573 2.08733 -2.72554 0
M  V30 2489 N 235.018 0.912232 1.28515 0
M  V30 2490 C 236.246 0.560416 1.99166 0
M  V30 2491 C 236.661 -0.857927 1.68182 0
M  V30 2492 O 236.018 -1.56805 0.933733 0
M  V30 2493 C 236.069 0.758142 3.53461 0
M  V30 2494 O 235.79 2.12067 3.83352 0
M  V30 2495 C 237.291 0.412954 4.41372 0
M  V30 2496 H 234.511 0.213805 0.636026 0
M  V30 2497 H 237.055 1.22502 1.63749 0
M  V30 2498 H 235.21 0.140556 3.87145 0
M  V30 2499 H 235.624 2.15923 4.77993 0
M  V30 2500 H 237.098 0.60208 5.48707 0
M  V30 2501 H 237.575 -0.65073 4.34353 0
M  V30 2502 H 238.181 1.00802 4.13182 0
M  V30 2503 N 236.496 -1.42363 0.676048 0
M  V30 2504 C 237.721 -2.06377 0.205705 0
M  V30 2505 C 238.146 -1.50463 -1.12883 0
M  V30 2506 O 237.504 -0.623619 -1.70237 0
M  V30 2507 C 237.552 -3.60277 0.152655 0
M  V30 2508 O 236.656 -4.02935 -0.87845 0
M  V30 2509 H 235.997 -0.655588 0.105359 0
M  V30 2510 H 238.527 -1.82475 0.925412 0
M  V30 2511 H 238.537 -4.07993 -0.0230675 0
M  V30 2512 H 237.212 -4.00346 1.12675 0
M  V30 2513 H 235.789 -3.66764 -0.673668 0
M  V30 2514 N 237.974 -0.419461 -1.51915 0
M  V30 2515 C 239.199 0.154572 -2.06823 0
M  V30 2516 C 239.624 1.3722 -1.28656 0
M  V30 2517 O 238.982 1.78461 -0.319583 0
M  V30 2518 C 239.03 0.473172 -3.57482 0
M  V30 2519 O 238.134 1.56255 -3.81652 0
M  V30 2520 H 237.475 0.0096924 -0.663929 0
M  V30 2521 H 240.005 -0.595642 -1.95738 0
M  V30 2522 H 240.015 0.728825 -4.01438 0
M  V30 2523 H 238.69 -0.416873 -4.13805 0
M  V30 2524 H 237.267 1.29825 -3.49571 0
M  V30 2525 N 239.452 1.56882 -0.150215 0
M  V30 2526 C 240.382 2.19935 0.784284 0
M  V30 2527 C 241.363 1.14854 1.25469 0
M  V30 2528 O 242.548 1.43209 1.31168 0
M  V30 2529 C 239.678 2.82349 2.02229 0
M  V30 2530 C 238.632 3.93285 1.68853 0
M  V30 2531 C 237.958 4.42649 2.99944 0
M  V30 2532 C 239.258 5.13904 0.932714 0
M  V30 2533 H 240.952 2.9828 0.258781 0
M  V30 2534 H 238.498 1.43473 0.123029 0
M  V30 2535 H 240.451 3.25126 2.68088 0
M  V30 2536 H 239.175 2.0134 2.57157 0
M  V30 2537 H 237.834 3.5113 1.05371 0
M  V30 2538 H 237.482 3.58458 3.52869 0
M  V30 2539 H 237.182 5.17476 2.78374 0
M  V30 2540 H 238.706 4.88099 3.66868 0
M  V30 2541 H 240.12 5.53506 1.49345 0
M  V30 2542 H 238.517 5.94515 0.81684 0
M  V30 2543 H 239.587 4.84842 -0.0749568 0
M  V30 2544 N 240.93 -0.123565 1.57115 0
M  V30 2545 C 242.346 -0.476961 1.52306 0
M  V30 2546 C 242.546 -1.82109 0.86248 0
M  V30 2547 O 241.602 -2.48586 0.442884 0
M  V30 2548 C 242.915 -0.465661 2.97073 0
M  V30 2549 C 244.463 -0.549534 3.08138 0
M  V30 2550 C 244.938 -0.568669 4.54456 0
M  V30 2551 N 246.429 -0.630237 4.58892 0
M  V30 2552 C 247.164 -0.666415 5.69514 0
M  V30 2553 N 246.66 -0.660514 6.89644 0
M  V30 2554 N 248.453 -0.709077 5.5761 0
M  V30 2555 H 240.604 0.757198 1.98445 0
M  V30 2556 H 242.867 0.278808 0.906074 0
M  V30 2557 H 242.573 0.454232 3.48754 0
M  V30 2558 H 242.447 -1.29513 3.54269 0
M  V30 2559 H 244.834 -1.45985 2.56461 0
M  V30 2560 H 244.915 0.307532 2.53945 0
M  V30 2561 H 244.559 0.337581 5.06777 0
M  V30 2562 H 244.489 -1.44256 5.06456 0
M  V30 2563 H 246.98 -0.641146 3.72421 0
M  V30 2564 H 247.293 -0.690616 7.69708 0
M  V30 2565 H 245.638 -0.628012 6.92157 0
M  V30 2566 H 248.829 -0.711019 4.62668 0
M  V30 2567 H 249.002 -0.733804 6.43832 0
M  V30 2568 N 242.408 -1.52605 -0.393616 0
M  V30 2569 C 243.34 -1.73303 -1.49995 0
M  V30 2570 C 244.353 -0.613473 -1.50799 0
M  V30 2571 O 245.542 -0.889049 -1.54784 0
M  V30 2572 C 242.642 -1.77245 -2.88855 0
M  V30 2573 C 241.815 -3.06483 -3.12069 0
M  V30 2574 C 240.874 -3.02033 -4.30886 0
M  V30 2575 O 239.9 -3.75907 -4.27414 0
M  V30 2576 N 241.102 -2.20897 -5.36828 0
M  V30 2577 H 243.867 -2.68756 -1.32629 0
M  V30 2578 H 241.428 -1.51036 -0.583083 0
M  V30 2579 H 243.42 -1.7178 -3.66434 0
M  V30 2580 H 241.99 -0.891993 -2.99603 0
M  V30 2581 H 241.21 -3.25474 -2.22396 0
M  V30 2582 H 242.498 -3.91947 -3.2443 0
M  V30 2583 H 241.896 -1.60336 -5.42502 0
M  V30 2584 H 240.453 -2.21275 -6.13091 0
M  V30 2585 N 243.887 0.651787 -1.4349 0
M  V30 2586 C 245.303 0.96762 -1.26922 0
M  V30 2587 C 245.503 2.00602 -0.189982 0
M  V30 2588 O 244.559 2.48793 0.431107 0
M  V30 2589 C 245.872 1.45052 -2.63401 0
M  V30 2590 C 247.42 1.5671 -2.70945 0
M  V30 2591 C 247.895 2.0839 -4.07845 0
M  V30 2592 N 249.386 2.1569 -4.09917 0
M  V30 2593 C 250.121 2.56804 -5.12679 0
M  V30 2594 N 249.617 2.97203 -6.25813 0
M  V30 2595 N 251.41 2.56756 -5.00033 0
M  V30 2596 H 243.561 -0.0353158 -2.12371 0
M  V30 2597 H 245.824 0.0467858 -0.946845 0
M  V30 2598 H 245.53 0.761926 -3.43348 0
M  V30 2599 H 245.404 2.42529 -2.88894 0
M  V30 2600 H 247.791 2.2467 -1.9133 0
M  V30 2601 H 247.872 0.57662 -2.49216 0
M  V30 2602 H 247.516 1.41031 -4.87927 0
M  V30 2603 H 247.446 3.08271 -4.26938 0
M  V30 2604 H 249.937 1.87237 -3.28254 0
M  V30 2605 H 250.25 3.27328 -7.00055 0
M  V30 2606 H 248.595 2.95004 -6.29283 0
M  V30 2607 H 251.786 2.24572 -4.10713 0
M  V30 2608 H 251.959 2.88475 -5.80247 0
M  V30 2609 N 245.365 1.30045 0.890287 0
M  V30 2610 C 246.776 1.16738 1.45702 0
M  V30 2611 C 247.127 -0.233939 1.948 0
M  V30 2612 O 246.252 -1.13021 1.84541 0
M  V30 2613 C 246.847 2.11313 2.64825 0
M  V30 2614 C 245.406 2.02001 3.17604 0
M  V30 2615 C 244.553 2.01699 1.90296 0
M  V30 2616 H 247.504 1.42392 0.700726 0
M  V30 2617 H 247.525 1.69086 3.40867 0
M  V30 2618 H 247.037 3.13294 2.2906 0
M  V30 2619 H 245.138 1.03142 3.5804 0
M  V30 2620 H 245.251 2.90128 3.81264 0
M  V30 2621 H 243.615 1.46427 2.08402 0
M  V30 2622 H 244.398 3.05402 1.56795 0
M  V30 2623 N 246.843 -1.10192 1.12674 0
M  V30 2624 C 247.753 -2.20172 0.810026 0
M  V30 2625 C 248.769 -1.72821 -0.202188 0
M  V30 2626 O 249.945 -2.01369 -0.0351691 0
M  V30 2627 C 247.01 -3.45631 0.272007 0
M  V30 2628 C 246.071 -4.07704 1.34447 0
M  V30 2629 C 245.304 -5.27175 0.832029 0
M  V30 2630 O 245.527 -5.69425 -0.333284 0
M  V30 2631 O 244.461 -5.80168 1.60277 0
M  V30 2632 H 248.287 -2.49701 1.72867 0
M  V30 2633 H 245.872 -1.18977 0.903597 0
M  V30 2634 H 247.754 -4.21394 -0.0230219 0
M  V30 2635 H 246.429 -3.17723 -0.619164 0
M  V30 2636 H 245.336 -3.33614 1.6927 0
M  V30 2637 H 246.669 -4.3982 2.2095 0
M  V30 2638 N 248.321 -0.919034 -1.28029 0
M  V30 2639 C 249.732 -0.600735 -1.76771 0
M  V30 2640 C 250.083 0.884024 -1.75156 0
M  V30 2641 O 249.208 1.69163 -1.34956 0
M  V30 2642 C 249.803 -1.08372 -3.21 0
M  V30 2643 C 248.362 -0.816248 -3.67443 0
M  V30 2644 C 247.509 -1.24742 -2.47658 0
M  V30 2645 H 250.46 -1.09974 -1.14418 0
M  V30 2646 H 250.481 -0.427512 -3.78091 0
M  V30 2647 H 249.993 -2.16437 -3.22144 0
M  V30 2648 H 248.094 0.250968 -3.71754 0
M  V30 2649 H 248.207 -1.4277 -4.57333 0
M  V30 2650 H 246.571 -0.666083 -2.45836 0
M  V30 2651 H 247.354 -2.33653 -2.51518 0
M  V30 2652 N 249.799 1.42003 -0.683588 0
M  V30 2653 C 250.731 2.29183 0.0283068 0
M  V30 2654 C 251.744 1.4415 0.756611 0
M  V30 2655 O 252.933 1.67779 0.609306 0
M  V30 2656 C 250.033 3.21765 1.06398 0
M  V30 2657 C 249.206 4.35496 0.407723 0
M  V30 2658 C 248.265 5.08737 1.34437 0
M  V30 2659 O 247.291 5.62948 0.841318 0
M  V30 2660 N 248.493 5.15075 2.67728 0
M  V30 2661 H 251.258 2.9092 -0.720105 0
M  V30 2662 H 248.819 1.53025 -0.528682 0
M  V30 2663 H 250.811 3.6763 1.69204 0
M  V30 2664 H 249.381 2.61418 1.71404 0
M  V30 2665 H 248.601 3.92165 -0.400012 0
M  V30 2666 H 249.889 5.08776 -0.0490956 0
M  V30 2667 H 249.287 4.72457 3.11129 0
M  V30 2668 H 247.844 5.64556 3.2576 0
M  V30 2669 N 251.277 0.427512 1.51691 0
M  V30 2670 C 252.523 -0.142439 2.02299 0
M  V30 2671 C 252.856 -1.43214 1.31162 0
M  V30 2672 O 252.131 -1.89833 0.423511 0
M  V30 2673 C 252.414 -0.371301 3.58181 0
M  V30 2674 C 252.267 0.936358 4.39946 0
M  V30 2675 C 253.586 -1.14542 4.24933 0
M  V30 2676 H 250.705 -0.0502937 0.735282 0
M  V30 2677 H 253.347 0.564584 1.81418 0
M  V30 2678 H 251.497 -0.973559 3.76104 0
M  V30 2679 H 253.169 1.57184 4.33694 0
M  V30 2680 H 251.412 1.5432 4.05423 0
M  V30 2681 H 252.083 0.730388 5.47147 0
M  V30 2682 H 254.559 -0.635362 4.11221 0
M  V30 2683 H 253.435 -1.27431 5.33903 0
M  V30 2684 H 253.696 -2.17093 3.85127 0
M  V30 2685 N 252.755 -1.56801 0.158532 0
M  V30 2686 C 253.983 -2.00859 -0.496303 0
M  V30 2687 C 254.398 -1.03871 -1.57659 0
M  V30 2688 O 253.755 -0.0375165 -1.82461 0
M  V30 2689 C 253.806 -3.4479 -1.08638 0
M  V30 2690 O 253.527 -4.38072 -0.0492322 0
M  V30 2691 C 255.028 -4.04185 -1.8207 0
M  V30 2692 H 252.248 -0.65864 -0.128199 0
M  V30 2693 H 254.792 -2.02885 0.256506 0
M  V30 2694 H 252.947 -3.43579 -1.78975 0
M  V30 2695 H 253.361 -5.2227 -0.483102 0
M  V30 2696 H 254.835 -5.06857 -2.18633 0
M  V30 2697 H 255.312 -3.45549 -2.71095 0
M  V30 2698 H 255.918 -4.0906 -1.16405 0
M  V30 2699 N 254.233 0.115231 -1.57178 0
M  V30 2700 C 255.481 0.820727 -1.84685 0
M  V30 2701 C 255.802 1.80237 -0.744279 0
M  V30 2702 O 255.072 1.94529 0.231375 0
M  V30 2703 H 253.652 0.306084 -0.681411 0
M  V30 2704 H 256.314 0.101656 -1.94635 0
M  V30 2705 H 255.41 1.36366 -2.80733 0
M  V30 2706 N 255.711 1.52812 0.385517 0
M  V30 2707 C 256.939 1.71907 1.15133 0
M  V30 2708 C 257.354 0.439004 1.83625 0
M  V30 2709 O 256.711 -0.586765 1.7281 0
M  V30 2710 C 256.762 2.87099 2.19673 0
M  V30 2711 O 256.483 4.10151 1.53973 0
M  V30 2712 C 257.984 3.17902 3.08955 0
M  V30 2713 H 255.204 0.575479 0.345057 0
M  V30 2714 H 257.748 1.99476 0.45052 0
M  V30 2715 H 255.903 2.61982 2.85384 0
M  V30 2716 H 256.317 4.74514 2.23465 0
M  V30 2717 H 257.791 4.01959 3.7833 0
M  V30 2718 H 258.268 2.3243 3.72657 0
M  V30 2719 H 258.874 3.44871 2.48885 0
M  V30 2720 N 257.189 -0.644168 1.43834 0
M  V30 2721 C 258.435 -1.40603 1.46146 0
M  V30 2722 C 258.768 -1.93997 0.0887717 0
M  V30 2723 O 258.043 -1.72854 -0.891724 0
M  V30 2724 C 258.326 -2.58086 2.51124 0
M  V30 2725 C 258.179 -2.10126 3.97702 0
M  V30 2726 C 259.498 -3.60291 2.52742 0
M  V30 2727 H 256.617 -0.509905 0.532134 0
M  V30 2728 H 259.259 -0.729502 1.75437 0
M  V30 2729 H 257.409 -3.15801 2.26278 0
M  V30 2730 H 259.081 -1.57342 4.33637 0
M  V30 2731 H 257.324 -1.41419 4.10101 0
M  V30 2732 H 257.995 -2.94649 4.66783 0
M  V30 2733 H 260.471 -3.12352 2.7491 0
M  V30 2734 H 259.347 -4.40032 3.28121 0
M  V30 2735 H 259.608 -4.1349 1.56455 0
M  V30 2736 N 258.668 -1.30515 -0.883378 0
M  V30 2737 C 259.916 -1.19194 -1.63209 0
M  V30 2738 C 260.237 0.253205 -1.93349 0
M  V30 2739 O 259.507 1.17025 -1.57105 0
M  V30 2740 H 258.087 -0.438148 -0.605009 0
M  V30 2741 H 260.749 -1.63663 -1.05832 0
M  V30 2742 H 259.845 -1.75396 -2.58153 0
M  V30 2743 N 260.146 1.09593 -1.13257 0
M  V30 2744 C 261.076 2.18214 -0.830946 0
M  V30 2745 C 262.057 1.68812 0.208966 0
M  V30 2746 O 263.242 1.9408 0.0682666 0
M  V30 2747 C 260.372 3.46051 -0.294296 0
M  V30 2748 C 259.326 4.08778 -1.26826 0
M  V30 2749 C 258.652 5.31419 -0.591449 0
M  V30 2750 C 259.952 4.51476 -2.62615 0
M  V30 2751 H 261.646 2.43703 -1.73923 0
M  V30 2752 H 259.192 1.17128 -0.837675 0
M  V30 2753 H 261.145 4.2134 -0.0709606 0
M  V30 2754 H 259.869 3.20079 0.649366 0
M  V30 2755 H 258.528 3.35505 -1.47756 0
M  V30 2756 H 258.176 5.01727 0.357633 0
M  V30 2757 H 257.876 5.74341 -1.24123 0
M  V30 2758 H 259.4 6.09433 -0.377355 0
M  V30 2759 H 260.814 5.17999 -2.45663 0
M  V30 2760 H 259.211 5.05277 -3.23752 0
M  V30 2761 H 260.281 3.63962 -3.20406 0
M  V30 2762 N 261.624 0.925811 1.2754 0
M  V30 2763 C 262.574 0.394488 2.24561 0
M  V30 2764 C 263.558 -0.500183 1.52928 0
M  V30 2765 O 264.75 -0.337936 1.73744 0
M  V30 2766 C 261.879 -0.353328 3.41477 0
M  V30 2767 C 260.965 0.557752 4.20416 0
M  V30 2768 N 261.356 1.67674 4.77199 0
M  V30 2769 C 259.654 0.360404 4.44541 0
M  V30 2770 C 260.355 2.24324 5.36706 0
M  V30 2771 N 259.331 1.53305 5.21535 0
M  V30 2772 H 263.133 1.2489 2.66045 0
M  V30 2773 H 260.647 0.779864 1.4245 0
M  V30 2774 H 262.644 -0.7509 4.10082 0
M  V30 2775 H 261.304 -1.20469 3.01525 0
M  V30 2776 H 262.315 2.05915 4.75204 0
M  V30 2777 H 258.992 -0.450454 4.15063 0
M  V30 2778 H 260.382 3.18521 5.91603 0
M  V30 2779 N 263.102 -1.41638 0.69111 0
M  V30 2780 C 264.032 -2.3347 0.037248 0
M  V30 2781 C 265.013 -1.51575 -0.771947 0
M  V30 2782 O 266.198 -1.80126 -0.72582 0
M  V30 2783 C 263.328 -3.35354 -0.903064 0
M  V30 2784 C 262.282 -4.27526 -0.201288 0
M  V30 2785 C 261.608 -5.19747 -1.25565 0
M  V30 2786 C 262.908 -5.13959 0.929689 0
M  V30 2787 H 264.602 -2.88397 0.804227 0
M  V30 2788 H 262.148 -1.38669 0.388189 0
M  V30 2789 H 264.101 -3.98519 -1.36969 0
M  V30 2790 H 262.825 -2.78767 -1.70166 0
M  V30 2791 H 261.484 -3.65779 0.245265 0
M  V30 2792 H 261.132 -4.59479 -2.04666 0
M  V30 2793 H 260.832 -5.8225 -0.791128 0
M  V30 2794 H 262.356 -5.85789 -1.72288 0
M  V30 2795 H 263.77 -5.70718 0.543546 0
M  V30 2796 H 262.167 -5.85379 1.32103 0
M  V30 2797 H 263.237 -4.51389 1.77133 0
M  V30 2798 N 264.58 -0.43555 -1.51462 0
M  V30 2799 C 265.828 0.131254 -2.01673 0
M  V30 2800 C 266.149 1.43368 -1.32177 0
M  V30 2801 O 265.419 1.90524 -0.455769 0
M  V30 2802 H 263.999 0.0514954 -0.745223 0
M  V30 2803 H 266.661 -0.577847 -1.86137 0
M  V30 2804 H 265.757 0.308446 -3.10572 0
M  V30 2805 N 266.058 1.56714 -0.166846 0
M  V30 2806 C 267.304 1.97039 0.479962 0
M  V30 2807 C 267.637 1.05264 1.63197 0
M  V30 2808 O 266.912 0.0988833 1.94248 0
M  V30 2809 C 267.195 3.46867 0.967212 0
M  V30 2810 C 267.048 4.49421 -0.18466 0
M  V30 2811 C 268.367 3.9968 1.84238 0
M  V30 2812 H 265.486 0.71641 0.172992 0
M  V30 2813 H 268.128 1.8832 -0.252079 0
M  V30 2814 H 266.278 3.54428 1.59101 0
M  V30 2815 H 267.95 4.53924 -0.821621 0
M  V30 2816 H 266.193 4.25573 -0.840837 0
M  V30 2817 H 266.864 5.51644 0.198317 0
M  V30 2818 H 269.34 3.94723 1.31655 0
M  V30 2819 H 268.216 5.04941 2.15234 0
M  V30 2820 H 268.477 3.43226 2.78654 0
M  V30 2821 N 267.536 -0.106894 1.57237 0
M  V30 2822 C 268.764 -0.826389 1.8968 0
M  V30 2823 C 269.179 -1.72856 0.759353 0
M  V30 2824 O 268.536 -1.80503 -0.269263 0
M  V30 2825 C 268.587 -1.64967 3.21665 0
M  V30 2826 O 268.308 -0.783804 4.31031 0
M  V30 2827 C 269.809 -2.47326 3.67892 0
M  V30 2828 H 267.029 -0.236927 0.627779 0
M  V30 2829 H 269.573 -0.0876593 2.04312 0
M  V30 2830 H 267.728 -2.34103 3.08666 0
M  V30 2831 H 268.142 -1.35284 5.06753 0
M  V30 2832 H 269.616 -3.00604 4.6297 0
M  V30 2833 H 270.093 -3.25247 2.95146 0
M  V30 2834 H 270.699 -1.83411 3.83719 0
M  V30 2835 N 269.014 -1.53014 -0.377408 0
M  V30 2836 C 270.425 -1.60438 -0.954798 0
M  V30 2837 C 270.776 -0.464418 -1.90624 0
M  V30 2838 O 269.901 0.41087 -2.12464 0
M  V30 2839 C 270.496 -2.90797 -1.73847 0
M  V30 2840 C 269.055 -3.00595 -2.26538 0
M  V30 2841 C 268.202 -2.55645 -1.07429 0
M  V30 2842 H 271.153 -1.57926 -0.156575 0
M  V30 2843 H 271.174 -2.77935 -2.5987 0
M  V30 2844 H 270.686 -3.73746 -1.04574 0
M  V30 2845 H 268.787 -2.22208 -2.99089 0
M  V30 2846 H 268.9 -4.05456 -2.5523 0
M  V30 2847 H 267.264 -2.10239 -1.43777 0
M  V30 2848 H 268.047 -3.41 -0.396728 0
M  V30 2849 N 270.492 0.636531 -1.44174 0
M  V30 2850 C 271.717 1.42847 -1.50364 0
M  V30 2851 C 272.142 1.87665 -0.127867 0
M  V30 2852 O 271.5 1.58408 0.88185 0
M  V30 2853 C 271.548 2.62854 -2.4686 0
M  V30 2854 O 270.652 3.62501 -1.9664 0
M  V30 2855 H 269.993 0.427642 -0.507955 0
M  V30 2856 H 272.523 0.777422 -1.89255 0
M  V30 2857 H 272.533 3.10465 -2.64718 0
M  V30 2858 H 271.208 2.29578 -3.46795 0
M  V30 2859 H 269.785 3.21735 -1.88523 0
M  V30 2860 N 271.97 1.30982 0.876444 0
M  V30 2861 C 273.216 1.20474 1.63138 0
M  V30 2862 C 273.549 -0.238096 1.92735 0
M  V30 2863 O 272.824 -1.1692 1.55435 0
M  V30 2864 C 273.107 2.04244 2.96574 0
M  V30 2865 C 272.96 3.56793 2.73896 0
M  V30 2866 C 274.279 1.88684 3.97601 0
M  V30 2867 H 271.398 0.439001 0.591985 0
M  V30 2868 H 274.04 1.60704 1.01361 0
M  V30 2869 H 272.19 1.70063 3.493 0
M  V30 2870 H 273.862 4.01077 2.27892 0
M  V30 2871 H 272.105 3.80548 2.08245 0
M  V30 2872 H 272.776 4.10706 3.68815 0
M  V30 2873 H 275.252 2.18584 3.54062 0
M  V30 2874 H 274.128 2.4961 4.88862 0
M  V30 2875 H 274.389 0.848343 4.33884 0
M  V30 2876 N 273.449 -1.08991 1.13837 0
M  V30 2877 C 274.698 -1.80631 0.897509 0
M  V30 2878 C 275.011 -1.86872 -0.57777 0
M  V30 2879 O 276.217 -2.54866 -0.935701 0
M  V30 2880 C 274.673 -3.24517 1.55618 0
M  V30 2881 C 274.281 -3.26529 3.0673 0
M  V30 2882 C 276.025 -4.00882 1.3962 0
M  V30 2883 C 273.932 -4.64965 3.65461 0
M  V30 2884 H 272.862 -0.67691 0.332129 0
M  V30 2885 H 275.513 -1.2246 1.3666 0
M  V30 2886 H 273.895 -3.82778 1.01476 0
M  V30 2887 H 275.069 -2.78008 3.67489 0
M  V30 2888 H 273.384 -2.63656 3.22296 0
M  V30 2889 H 275.981 -5.03167 1.80906 0
M  V30 2890 H 276.324 -4.14896 0.341578 0
M  V30 2891 H 276.857 -3.49075 1.90766 0
M  V30 2892 H 273.596 -4.56153 4.70749 0
M  V30 2893 H 273.116 -5.13792 3.09481 0
M  V30 2894 H 274.795 -5.3394 3.654 0
M  V30 2895 N 274.927 -0.932562 -1.27047 0
M  V30 2896 C 276.343 -0.633544 -1.46487 0
M  V30 2897 C 276.543 0.815746 -1.84249 0
M  V30 2898 O 275.599 1.59319 -1.95892 0
M  V30 2899 C 276.912 -1.58758 -2.55375 0
M  V30 2900 C 278.46 -1.59634 -2.69232 0
M  V30 2901 C 278.935 -2.53747 -3.81283 0
M  V30 2902 N 280.426 -2.51982 -3.88664 0
M  V30 2903 C 281.161 -3.21491 -4.74796 0
M  V30 2904 N 280.657 -4.00395 -5.65381 0
M  V30 2905 N 282.45 -3.10485 -4.68568 0
M  V30 2906 H 274.601 -1.86946 -1.00821 0
M  V30 2907 H 276.864 -0.802897 -0.504044 0
M  V30 2908 H 276.57 -2.62172 -2.34432 0
M  V30 2909 H 276.444 -1.33301 -3.52861 0
M  V30 2910 H 278.831 -0.569488 -2.89553 0
M  V30 2911 H 278.912 -1.89142 -1.72218 0
M  V30 2912 H 278.556 -3.56545 -3.61715 0
M  V30 2913 H 278.486 -2.21532 -4.77735 0
M  V30 2914 H 280.977 -1.94681 -3.23895 0
M  V30 2915 H 281.29 -4.50406 -6.27976 0
M  V30 2916 H 279.635 -4.04498 -5.65161 0
M  V30 2917 H 282.826 -2.48331 -3.96799 0
M  V30 2918 H 282.999 -3.64925 -5.35475 0
M  V30 2919 N 276.405 1.4127 -0.698611 0
M  V30 2920 C 277.352 2.30773 -0.0352094 0
M  V30 2921 C 278.322 1.47273 0.768111 0
M  V30 2922 O 279.507 1.76053 0.735524 0
M  V30 2923 C 276.647 3.33346 0.893 0
M  V30 2924 C 275.76 4.31924 0.0809695 0
M  V30 2925 C 274.895 5.21566 1.0071 0
M  V30 2926 C 273.934 6.11811 0.188155 0
M  V30 2927 N 273.071 6.93926 1.06825 0
M  V30 2928 H 277.911 2.86943 -0.804207 0
M  V30 2929 H 275.448 1.4132 -0.408294 0
M  V30 2930 H 277.406 3.91368 1.44523 0
M  V30 2931 H 276.036 2.78719 1.62836 0
M  V30 2932 H 275.088 3.75825 -0.588224 0
M  V30 2933 H 276.4 4.95716 -0.553801 0
M  V30 2934 H 275.554 5.84437 1.62845 0
M  V30 2935 H 274.293 4.58008 1.67572 0
M  V30 2936 H 273.298 5.47986 -0.446254 0
M  V30 2937 H 274.523 6.77425 -0.476716 0
M  V30 2938 H 272.469 6.32973 1.72283 0
M  V30 2939 H 272.386 7.54416 0.489123 0
M  V30 2940 H 273.654 7.61262 1.67632 0
M  V30 2941 N 277.883 0.443576 1.51229 0
M  V30 2942 C 279.299 0.0962001 1.5931 0
M  V30 2943 C 279.499 -1.39501 1.45402 0
M  V30 2944 O 278.555 -2.16557 1.29843 0
M  V30 2945 C 279.868 0.621875 2.94199 0
M  V30 2946 C 281.416 0.582865 3.07525 0
M  V30 2947 C 281.891 1.08562 4.44948 0
M  V30 2948 N 283.382 1.04387 4.51284 0
M  V30 2949 C 284.117 1.40368 5.55954 0
M  V30 2950 N 283.613 1.83664 6.68011 0
M  V30 2951 N 285.406 1.32145 5.46346 0
M  V30 2952 H 277.557 1.41376 1.58514 0
M  V30 2953 H 279.82 0.582965 0.747567 0
M  V30 2954 H 279.526 1.66546 3.09767 0
M  V30 2955 H 279.4 0.0502125 3.77167 0
M  V30 2956 H 281.787 -0.451749 2.91622 0
M  V30 2957 H 281.868 1.191 2.26382 0
M  V30 2958 H 281.512 2.11873 4.61598 0
M  V30 2959 H 281.442 0.453956 5.2464 0
M  V30 2960 H 283.933 0.725986 3.70861 0
M  V30 2961 H 284.246 2.0934 7.43906 0
M  V30 2962 H 282.591 1.87596 6.69203 0
M  V30 2963 H 285.782 0.981808 4.57688 0
M  V30 2964 H 285.955 1.60514 6.27805 0
M  V30 2965 N 279.361 -1.56624 0.175154 0
M  V30 2966 C 280.591 -2.01082 -0.474283 0
M  V30 2967 C 280.999 -1.05447 -1.57091 0
M  V30 2968 O 280.342 -0.0480595 -1.83637 0
M  V30 2969 C 280.404 -3.41963 -1.10911 0
M  V30 2970 C 280.068 -4.56742 -0.153666 0
M  V30 2971 C 281.065 -5.16076 0.629448 0
M  V30 2972 C 278.75 -5.02277 -0.0483776 0
M  V30 2973 C 280.744 -6.19377 1.50501 0
M  V30 2974 C 278.431 -6.05427 0.830768 0
M  V30 2975 C 279.429 -6.63849 1.60605 0
M  V30 2976 O 279.117 -7.64998 2.47049 0
M  V30 2977 H 278.849 -0.664261 -0.125432 0
M  V30 2978 H 281.403 -2.03549 0.275163 0
M  V30 2979 H 279.633 -3.36422 -1.90676 0
M  V30 2980 H 281.322 -3.70352 -1.66114 0
M  V30 2981 H 282.088 -4.81776 0.558297 0
M  V30 2982 H 277.967 -4.56513 -0.641611 0
M  V30 2983 H 281.511 -6.64906 2.1106 0
M  V30 2984 H 277.408 -6.39151 0.903107 0
M  V30 2985 H 278.176 -7.82336 2.40607 0
M  V30 2986 N 280.839 0.0985539 -1.57292 0
M  V30 2987 C 281.787 1.1387 -2.02821 0
M  V30 2988 C 282.781 1.41676 -0.928666 0
M  V30 2989 O 283.987 1.41398 -1.11385 0
M  V30 2990 H 280.362 0.384419 -0.646317 0
M  V30 2991 H 282.333 0.728347 -2.89375 0
M  V30 2992 C 281.082 2.45166 -2.46554 0
M  V30 2993 H 280.405 2.24613 -3.3074 0
M  V30 2994 H 281.845 3.16456 -2.8219 0
M  V30 2995 C 280.304 3.09216 -1.33742 0
M  V30 2996 O 280.834 3.96163 -0.66464 0
M  V30 2997 N 279.04 2.69413 -1.08928 0
M  V30 2998 H 278.587 1.98801 -1.63817 0
M  V30 2999 H 278.545 3.12594 -0.336458 0
M  V30 3000 N 282.317 1.53212 0.369288 0
M  V30 3001 C 283.247 1.82365 1.45826 0
M  V30 3002 C 284.228 0.676907 1.56051 0
M  V30 3003 O 285.413 0.926401 1.70679 0
M  V30 3004 C 282.543 2.01023 2.83208 0
M  V30 3005 C 281.497 3.1678 2.8781 0
M  V30 3006 C 280.823 3.20724 4.27832 0
M  V30 3007 C 282.123 4.55447 2.55667 0
M  V30 3008 H 283.817 2.73559 1.21678 0
M  V30 3009 H 281.363 1.3163 0.583911 0
M  V30 3010 H 283.316 2.20001 3.59413 0
M  V30 3011 H 282.04 1.06536 3.08736 0
M  V30 3012 H 280.699 2.97616 2.14056 0
M  V30 3013 H 280.347 2.23882 4.50429 0
M  V30 3014 H 280.047 3.98496 4.31827 0
M  V30 3015 H 281.571 3.41881 5.05915 0
M  V30 3016 H 282.985 4.74611 3.21586 0
M  V30 3017 H 281.382 5.35432 2.70984 0
M  V30 3018 H 282.452 4.60812 1.5093 0
M  V30 3019 N 283.795 -0.628877 1.44509 0
M  V30 3020 C 285.023 -1.41554 1.50897 0
M  V30 3021 C 285.438 -1.8832 0.134564 0
M  V30 3022 O 284.795 -1.60969 -0.859965 0
M  V30 3023 C 284.846 -2.63435 2.47556 0
M  V30 3024 O 284.567 -2.18619 3.79654 0
M  V30 3025 C 286.068 -3.56537 2.63431 0
M  V30 3026 H 283.288 -0.434044 0.511709 0
M  V30 3027 H 285.832 -0.768895 1.89495 0
M  V30 3028 H 283.987 -3.24187 2.12089 0
M  V30 3029 H 284.401 -2.97652 4.31861 0
M  V30 3030 H 285.875 -4.38657 3.35088 0
M  V30 3031 H 286.352 -4.05493 1.68738 0
M  V30 3032 H 286.958 -3.01653 2.9981 0
M  V30 3033 N 285.273 -1.31445 -0.869486 0
M  V30 3034 C 286.498 -1.24256 -1.66058 0
M  V30 3035 C 286.923 0.188928 -1.87149 0
M  V30 3036 O 286.281 1.13522 -1.4136 0
M  V30 3037 C 286.329 -1.9924 -3.00559 0
M  V30 3038 O 285.433 -1.33007 -3.90362 0
M  V30 3039 H 284.774 -0.428973 -0.506831 0
M  V30 3040 H 287.304 -1.73521 -1.08404 0
M  V30 3041 H 287.314 -2.08854 -3.50491 0
M  V30 3042 H 285.989 -3.03342 -2.84528 0
M  V30 3043 H 284.566 -1.31848 -3.48813 0
M  V30 3044 N 286.751 1.08385 -1.14413 0
M  V30 3045 C 287.683 2.1519 -0.789036 0
M  V30 3046 C 288.696 1.61638 0.19417 0
M  V30 3047 O 289.885 1.78479 -0.0275711 0
M  V30 3048 C 286.985 3.38565 -0.15058 0
M  V30 3049 C 286.158 4.21501 -1.16857 0
M  V30 3050 C 285.217 5.23277 -0.553832 0
M  V30 3051 O 284.243 5.56041 -1.21686 0
M  V30 3052 N 285.445 5.76629 0.669296 0
M  V30 3053 H 288.21 2.46257 -1.70814 0
M  V30 3054 H 285.771 1.24198 -1.03858 0
M  V30 3055 H 287.763 4.03777 0.273181 0
M  V30 3056 H 286.333 3.05299 0.671667 0
M  V30 3057 H 285.553 3.52265 -1.76926 0
M  V30 3058 H 286.841 4.73731 -1.85624 0
M  V30 3059 H 286.239 5.52243 1.22654 0
M  V30 3060 H 284.796 6.43521 1.03556 0
M  V30 3061 N 288.23 0.939286 1.26551 0
M  V30 3062 C 289.507 0.5038 1.89001 0
M  V30 3063 C 289.887 -1.01854 1.84903 0
M  V30 3064 O 289.235 -1.87773 1.30206 0
M  V30 3065 C 289.445 1.063 3.32417 0
M  V30 3066 C 290.793 1.13051 4.09273 0
M  V30 3067 O 291.817 1.01345 3.41479 0
M  V30 3068 O 290.676 1.31233 5.30509 0
M  V30 3069 H 287.77 0.163897 0.810597 0
M  V30 3070 H 290.316 1.03173 1.34735 0
M  V30 3071 H 289.088 2.10665 3.29752 0
M  V30 3072 H 288.711 0.517408 3.94219 0
M  V30 3073 N 289.708 -1.40897 0.706093 0
M  V30 3074 C 290.954 -2.01352 0.241889 0
M  V30 3075 C 291.287 -1.55832 -1.15888 0
M  V30 3076 O 290.562 -0.774145 -1.7843 0
M  V30 3077 C 290.845 -3.58752 0.311311 0
M  V30 3078 C 290.698 -4.1437 1.74978 0
M  V30 3079 C 292.017 -4.38914 -0.322922 0
M  V30 3080 H 289.136 -0.731562 0.0893687 0
M  V30 3081 H 291.778 -1.67504 0.896802 0
M  V30 3082 H 289.928 -3.87718 -0.246302 0
M  V30 3083 H 291.6 -3.96239 2.36205 0
M  V30 3084 H 289.843 -3.69016 2.28057 0
M  V30 3085 H 290.514 -5.23532 1.74981 0
M  V30 3086 H 292.99 -4.15822 0.152089 0
M  V30 3087 H 291.866 -5.48358 -0.243855 0
M  V30 3088 H 292.127 -4.19176 -1.40513 0
M  V30 3089 N 291.186 -0.45159 -1.50991 0
M  V30 3090 C 292.434 0.109857 -2.01801 0
M  V30 3091 C 292.755 1.41958 -1.3369 0
M  V30 3092 O 292.025 1.9003 -0.475951 0
M  V30 3093 H 290.605 0.0435884 -0.745727 0
M  V30 3094 H 293.267 -0.597557 -1.85514 0
M  V30 3095 H 292.363 0.275489 -3.10882 0
M  V30 3096 N 292.664 1.56529 -0.183458 0
M  V30 3097 C 293.889 2.02064 0.467428 0
M  V30 3098 C 294.314 1.06282 1.55196 0
M  V30 3099 O 293.672 0.0443565 1.81246 0
M  V30 3100 C 293.72 3.46122 1.01153 0
M  V30 3101 O 292.824 3.53437 2.12499 0
M  V30 3102 H 292.165 0.654726 0.110588 0
M  V30 3103 H 294.695 2.02521 -0.290917 0
M  V30 3104 H 294.705 3.85676 1.33108 0
M  V30 3105 H 293.38 4.15331 0.217533 0
M  V30 3106 H 291.957 3.2575 1.81497 0
M  V30 3107 N 294.142 -0.090211 1.57342 0
M  V30 3108 C 295.39 -0.791241 1.85967 0
M  V30 3109 C 295.711 -1.7903 0.772859 0
M  V30 3110 O 294.981 -1.94872 -0.200398 0
M  V30 3111 H 293.561 -0.295205 0.686195 0
M  V30 3112 H 296.223 -0.0706782 1.94772 0
M  V30 3113 H 295.319 -1.31882 2.82867 0
M  V30 3114 N 295.62 -1.53406 -0.361157 0
M  V30 3115 C 296.848 -1.73717 -1.12383 0
M  V30 3116 C 297.263 -0.468161 -1.82904 0
M  V30 3117 O 296.62 0.559198 -1.73722 0
M  V30 3118 C 296.671 -2.90558 -2.15078 0
M  V30 3119 O 296.392 -4.12549 -1.47428 0
M  V30 3120 C 297.893 -3.22777 -3.03858 0
M  V30 3121 H 295.113 -0.580896 -0.335858 0
M  V30 3122 H 297.657 -2.00167 -0.418728 0
M  V30 3123 H 295.812 -2.66489 -2.8118 0
M  V30 3124 H 296.226 -4.78009 -2.15887 0
M  V30 3125 H 297.7 -4.07927 -3.71887 0
M  V30 3126 H 298.177 -2.38329 -3.68912 0
M  V30 3127 H 298.783 -3.48787 -2.43367 0
M  V30 3128 N 297.098 0.621204 -1.44841 0
M  V30 3129 C 298.323 1.41244 -1.51871 0
M  V30 3130 C 298.748 1.87519 -0.147764 0
M  V30 3131 O 298.106 1.59334 0.865 0
M  V30 3132 C 298.154 2.60221 -2.49634 0
M  V30 3133 O 297.258 3.60395 -2.00473 0
M  V30 3134 H 296.599 0.42223 -0.512463 0
M  V30 3135 H 299.129 0.757305 -1.90069 0
M  V30 3136 H 299.139 3.0764 -2.67996 0
M  V30 3137 H 297.814 2.25887 -3.4921 0
M  V30 3138 H 296.391 3.19717 -1.91925 0
M  V30 3139 N 298.576 1.31904 0.862503 0
M  V30 3140 C 299.524 1.20125 1.9918 0
M  V30 3141 C 300.518 0.107824 1.69056 0
M  V30 3142 O 301.724 0.270223 1.7796 0
M  V30 3143 H 298.099 0.372148 0.65346 0
M  V30 3144 H 300.07 2.15652 2.06244 0
M  V30 3145 C 298.819 0.933099 3.34946 0
M  V30 3146 H 298.142 1.76664 3.5865 0
M  V30 3147 H 299.582 0.890892 4.14535 0
M  V30 3148 C 298.041 -0.364172 3.34926 0
M  V30 3149 O 298.571 -1.37858 3.77304 0
M  V30 3150 N 296.777 -0.383362 2.8806 0
M  V30 3151 H 296.324 0.442651 2.53768 0
M  V30 3152 H 296.282 -1.25123 2.8843 0
M  V30 3153 N 300.054 -1.07777 1.14986 0
M  V30 3154 C 301.002 -2.16964 0.838406 0
M  V30 3155 C 301.996 -1.68372 -0.186386 0
M  V30 3156 O 303.202 -1.79951 -0.0418465 0
M  V30 3157 H 299.577 -0.708006 0.253439 0
M  V30 3158 H 301.548 -2.40454 1.76704 0
M  V30 3159 C 300.297 -3.4604 0.339335 0
M  V30 3160 H 299.62 -3.83813 1.11927 0
M  V30 3161 H 301.06 -4.23698 0.160021 0
M  V30 3162 C 299.519 -3.23569 -0.938325 0
M  V30 3163 O 300.049 -3.47752 -2.01077 0
M  V30 3164 N 298.255 -2.77079 -0.876117 0
M  V30 3165 H 297.802 -2.576 -0.00322037 0
M  V30 3166 H 297.76 -2.62422 -1.73153 0
M  V30 3167 N 301.532 -0.945985 -1.26051 0
M  V30 3168 C 302.757 -0.612525 -1.98149 0
M  V30 3169 C 303.182 0.806623 -1.69927 0
M  V30 3170 O 302.54 1.54411 -0.950108 0
M  V30 3171 C 302.588 -0.866981 -3.50023 0
M  V30 3172 O 301.692 0.0585333 -4.12358 0
M  V30 3173 H 301.033 -0.23379 -0.621481 0
M  V30 3174 H 303.563 -1.27023 -1.60395 0
M  V30 3175 H 303.573 -0.789792 -4.00283 0
M  V30 3176 H 302.248 -1.90135 -3.69894 0
M  V30 3177 H 300.825 -0.0701241 -3.72834 0
M  V30 3178 N 303.011 1.40521 -0.713556 0
M  V30 3179 C 303.943 2.29191 -0.0203126 0
M  V30 3180 C 304.956 1.45723 0.725864 0
M  V30 3181 O 306.145 1.69033 0.573581 0
M  V30 3182 C 303.245 3.2395 0.995486 0
M  V30 3183 C 302.418 4.36262 0.315256 0
M  V30 3184 C 301.477 5.11474 1.23616 0
M  V30 3185 O 300.503 5.64606 0.721719 0
M  V30 3186 N 301.705 5.20638 2.56743 0
M  V30 3187 H 304.47 2.89327 -0.781652 0
M  V30 3188 H 302.031 1.51869 -0.561022 0
M  V30 3189 H 304.023 3.71137 1.61368 0
M  V30 3190 H 302.593 2.64995 1.6582 0
M  V30 3191 H 301.813 3.91228 -0.483106 0
M  V30 3192 H 303.101 5.08558 -0.157004 0
M  V30 3193 H 302.499 4.7895 3.01037 0
M  V30 3194 H 301.056 5.71339 3.13712 0
M  V30 3195 N 304.489 0.459591 1.5075 0
M  V30 3196 C 305.452 -0.329093 2.26825 0
M  V30 3197 C 306.452 -0.930481 1.31144 0
M  V30 3198 O 307.642 -0.801453 1.54669 0
M  V30 3199 C 304.774 -1.46768 3.07688 0
M  V30 3200 H 305.967 0.337924 2.9799 0
M  V30 3201 H 303.52 0.213336 1.54837 0
M  V30 3202 H 304.255 -2.17009 2.40993 0
M  V30 3203 H 304.04 -1.04238 3.77991 0
M  V30 3204 H 305.53 -2.02433 3.65254 0
M  V30 3205 N 305.967 -1.56429 0.191757 0
M  V30 3206 C 307.207 -1.99383 -0.450099 0
M  V30 3207 C 307.571 -1.07581 -1.59029 0
M  V30 3208 O 308.772 -1.39758 -2.29611 0
M  V30 3209 C 307.043 -3.45841 -0.901611 0
M  V30 3210 S 308.602 -4.10822 -1.54177 0
M  V30 3211 H 305.42 -0.696253 -0.144057 0
M  V30 3212 H 308.022 -1.93276 0.294036 0
M  V30 3213 H 306.726 -4.10354 -0.0616596 0
M  V30 3214 H 306.257 -3.55757 -1.67929 0
M  V30 3215 H 308.272 -4.07553 -2.83046 0
M  V30 3216 N 307.445 0.0818655 -1.57387 0
M  V30 3217 C 308.408 1.08265 -2.02018 0
M  V30 3218 C 309.408 1.32183 -0.915664 0
M  V30 3219 O 310.598 1.28073 -1.18081 0
M  V30 3220 C 307.73 2.42871 -2.39221 0
M  V30 3221 H 308.923 0.698204 -2.91659 0
M  V30 3222 H 306.476 0.327303 -1.52835 0
M  V30 3223 H 307.211 2.86167 -1.52575 0
M  V30 3224 H 306.996 2.26855 -3.19811 0
M  V30 3225 H 308.486 3.14826 -2.74362 0
M  V30 3226 N 308.923 1.53595 0.353017 0
M  V30 3227 C 309.855 1.77219 1.45348 0
M  V30 3228 C 310.868 0.65324 1.49119 0
M  V30 3229 O 312.057 0.929775 1.52373 0
M  V30 3230 C 309.157 1.84841 2.84055 0
M  V30 3231 C 308.33 3.14649 3.03833 0
M  V30 3232 C 307.389 3.13351 4.22727 0
M  V30 3233 O 306.415 3.87107 4.17297 0
M  V30 3234 N 307.617 2.35052 5.30783 0
M  V30 3235 H 310.382 2.72178 1.25457 0
M  V30 3236 H 307.943 1.52528 0.542833 0
M  V30 3237 H 309.935 1.81435 3.61751 0
M  V30 3238 H 308.505 0.971114 2.97133 0
M  V30 3239 H 307.725 3.31256 2.13689 0
M  V30 3240 H 309.013 4.00411 3.13925 0
M  V30 3241 H 308.411 1.74663 5.38061 0
M  V30 3242 H 306.968 2.37453 6.07009 0
M  V30 3243 N 310.401 -0.613514 1.45168 0
M  V30 3244 C 311.648 -1.37268 1.48875 0
M  V30 3245 C 311.976 -1.94077 0.128161 0
M  V30 3246 O 311.231 -1.75178 -0.872416 0
M  V30 3247 C 311.53 -2.54347 2.51083 0
M  V30 3248 C 311.196 -2.1572 3.95949 0
M  V30 3249 C 309.858 -2.04899 4.35396 0
M  V30 3250 C 312.21 -1.85485 4.87078 0
M  V30 3251 C 309.538 -1.62057 5.63875 0
M  V30 3252 C 311.89 -1.4413 6.15962 0
M  V30 3253 C 310.554 -1.31863 6.54346 0
M  V30 3254 H 309.824 -0.502299 0.544773 0
M  V30 3255 H 312.471 -0.694021 1.78481 0
M  V30 3256 H 310.776 -3.27524 2.15024 0
M  V30 3257 H 312.473 -3.12577 2.51191 0
M  V30 3258 H 309.063 -2.25066 3.64751 0
M  V30 3259 H 313.247 -1.92745 4.57343 0
M  V30 3260 H 308.503 -1.51177 5.92415 0
M  V30 3261 H 312.677 -1.19778 6.86022 0
M  V30 3262 H 310.304 -0.984392 7.538 0
M  V30 3263 N 311.879 -1.3236 -0.855495 0
M  V30 3264 C 312.809 -1.23833 -1.97958 0
M  V30 3265 C 313.79 -0.122361 -1.69659 0
M  V30 3266 O 314.975 -0.30939 -1.9172 0
M  V30 3267 C 312.105 -0.959772 -3.33775 0
M  V30 3268 C 311.059 -2.03689 -3.76424 0
M  V30 3269 C 310.385 -1.61075 -5.09862 0
M  V30 3270 C 311.685 -3.4518 -3.9198 0
M  V30 3271 H 313.379 -2.1788 -2.0535 0
M  V30 3272 H 310.925 -1.04891 -0.986605 0
M  V30 3273 H 312.878 -0.886678 -4.11966 0
M  V30 3274 H 311.602 0.0163404 -3.26596 0
M  V30 3275 H 310.261 -2.10012 -3.00484 0
M  V30 3276 H 309.909 -0.622107 -4.99138 0
M  V30 3277 H 309.609 -2.33143 -5.39368 0
M  V30 3278 H 311.133 -1.55201 -5.90546 0
M  V30 3279 H 312.547 -3.4145 -4.60526 0
M  V30 3280 H 310.944 -4.1559 -4.32903 0
M  V30 3281 H 312.014 -3.84903 -2.94919 0
M  V30 3282 N 313.357 1.07166 -1.15556 0
M  V30 3283 C 314.267 2.17947 -0.868116 0
M  V30 3284 C 315.283 1.73297 0.156297 0
M  V30 3285 O 316.459 2.01392 -0.0182327 0
M  V30 3286 C 313.524 3.44789 -0.36355 0
M  V30 3287 C 312.585 4.03996 -1.45209 0
M  V30 3288 C 311.818 5.24783 -0.971508 0
M  V30 3289 O 312.041 5.70109 0.182194 0
M  V30 3290 O 310.975 5.75715 -1.75603 0
M  V30 3291 H 314.801 2.4503 -1.79427 0
M  V30 3292 H 312.386 1.16539 -0.934824 0
M  V30 3293 H 314.268 4.21307 -0.0887113 0
M  V30 3294 H 312.943 3.19253 0.534708 0
M  V30 3295 H 311.85 3.29009 -1.78056 0
M  V30 3296 H 313.183 4.33808 -2.32533 0
M  V30 3297 N 314.835 0.952656 1.25548 0
M  V30 3298 C 315.767 0.428609 2.25157 0
M  V30 3299 C 316.78 -0.454428 1.56329 0
M  V30 3300 O 317.969 -0.263023 1.76552 0
M  V30 3301 C 315.069 -0.401972 3.36508 0
M  V30 3302 C 314.242 0.467601 4.34893 0
M  V30 3303 C 313.301 -0.30445 5.25319 0
M  V30 3304 O 312.327 0.296473 5.68427 0
M  V30 3305 N 313.529 -1.59805 5.5807 0
M  V30 3306 H 316.294 1.28497 2.70756 0
M  V30 3307 H 313.855 0.822798 1.39433 0
M  V30 3308 H 315.847 -0.926134 3.9396 0
M  V30 3309 H 314.417 -1.15918 2.90313 0
M  V30 3310 H 313.637 1.17288 3.76347 0
M  V30 3311 H 314.925 1.06119 4.97611 0
M  V30 3312 H 314.323 -2.10823 5.24948 0
M  V30 3313 H 312.88 -2.06822 6.18116 0
M  V30 3314 N 316.313 -1.40141 0.720998 0
M  V30 3315 C 317.543 -2.04798 0.27226 0
M  V30 3316 C 317.951 -1.54442 -1.09289 0
M  V30 3317 O 317.294 -0.698342 -1.69908 0
M  V30 3318 C 317.356 -3.59048 0.18027 0
M  V30 3319 C 317.02 -4.32317 1.48159 0
M  V30 3320 C 318.017 -4.59902 2.42458 0
M  V30 3321 C 315.702 -4.71125 1.74202 0
M  V30 3322 C 317.696 -5.25288 3.61042 0
M  V30 3323 C 315.383 -5.36242 2.93066 0
M  V30 3324 C 316.381 -5.63254 3.86308 0
M  V30 3325 O 316.069 -6.27024 5.03086 0
M  V30 3326 H 315.801 -0.665419 0.119139 0
M  V30 3327 H 318.355 -1.80436 0.981432 0
M  V30 3328 H 316.585 -3.82251 -0.58489 0
M  V30 3329 H 318.274 -4.05221 -0.234618 0
M  V30 3330 H 319.04 -4.30379 2.23604 0
M  V30 3331 H 314.919 -4.49466 1.02477 0
M  V30 3332 H 318.463 -5.46289 4.33837 0
M  V30 3333 H 314.36 -5.65185 3.11826 0
M  V30 3334 H 315.128 -6.4552 5.03235 0
M  V30 3335 N 317.792 -0.46758 -1.50504 0
M  V30 3336 C 319.039 0.0886219 -2.02306 0
M  V30 3337 C 319.367 1.40037 -1.34981 0
M  V30 3338 O 318.622 1.90136 -0.463318 0
M  V30 3339 C 318.921 0.323995 -3.55928 0
M  V30 3340 C 318.587 -0.905618 -4.41712 0
M  V30 3341 C 317.249 -1.24275 -4.64875 0
M  V30 3342 C 319.601 -1.72448 -4.91845 0
M  V30 3343 C 316.929 -2.39888 -5.35417 0
M  V30 3344 C 319.281 -2.87185 -5.63656 0
M  V30 3345 C 317.945 -3.21317 -5.85074 0
M  V30 3346 H 317.215 0.0324291 -0.74029 0
M  V30 3347 H 319.862 -0.620945 -1.81153 0
M  V30 3348 H 318.167 1.11577 -3.75577 0
M  V30 3349 H 319.864 0.76826 -3.93572 0
M  V30 3350 H 316.454 -0.632956 -4.239 0
M  V30 3351 H 320.638 -1.4772 -4.73806 0
M  V30 3352 H 315.894 -2.66611 -5.50208 0
M  V30 3353 H 320.068 -3.50985 -6.01484 0
M  V30 3354 H 317.695 -4.1101 -6.39511 0
M  V30 3355 N 319.27 1.56325 -0.20005 0
M  V30 3356 C 320.22 2.15939 0.731743 0
M  V30 3357 C 321.204 1.10154 1.17281 0
M  V30 3358 O 322.396 1.36203 1.13038 0
M  V30 3359 C 319.525 2.82614 1.94895 0
M  V30 3360 C 318.611 3.95596 1.52855 0
M  V30 3361 N 319.002 4.99118 0.819418 0
M  V30 3362 C 317.3 4.07288 1.81748 0
M  V30 3363 C 318.001 5.78513 0.608053 0
M  V30 3364 N 316.977 5.31117 1.15828 0
M  V30 3365 H 320.779 2.9334 0.181285 0
M  V30 3366 H 318.293 1.624 -0.000452172 0
M  V30 3367 H 320.29 3.23718 2.62702 0
M  V30 3368 H 318.95 2.06702 2.50408 0
M  V30 3369 H 319.961 5.15723 0.47436 0
M  V30 3370 H 316.638 3.42509 2.38734 0
M  V30 3371 H 318.028 6.71885 0.0451619 0
M  V30 3372 N 320.748 -0.0735177 1.57428 0
M  V30 3373 C 322.025 -0.805903 1.78226 0
M  V30 3374 C 322.405 -1.95874 0.787189 0
M  V30 3375 O 321.753 -2.2779 -0.180029 0
M  V30 3376 C 321.963 -1.28045 3.24662 0
M  V30 3377 C 323.311 -1.71453 3.88444 0
M  V30 3378 O 324.335 -1.37616 3.28543 0
M  V30 3379 O 323.194 -2.34093 4.93825 0
M  V30 3380 H 320.288 -0.386041 0.73137 0
M  V30 3381 H 322.834 -0.0537269 1.69615 0
M  V30 3382 H 321.606 -0.455476 3.8864 0
M  V30 3383 H 321.229 -2.094 3.37991 0
M  V30 3384 N 322.226 -1.5378 -0.344866 0
M  V30 3385 C 323.451 -1.75211 -1.10977 0
M  V30 3386 C 323.876 -0.48936 -1.81623 0
M  V30 3387 O 323.234 0.557925 -1.72502 0
M  V30 3388 C 323.282 -2.93147 -2.09993 0
M  V30 3389 O 322.386 -2.63203 -3.17487 0
M  V30 3390 H 321.727 -0.581241 -0.321021 0
M  V30 3391 H 324.257 -2.00738 -0.395661 0
M  V30 3392 H 324.267 -3.19898 -2.53237 0
M  V30 3393 H 322.942 -3.84731 -1.5797 0
M  V30 3394 H 321.519 -2.47336 -2.79069 0
M  V30 3395 N 323.704 0.605807 -1.45491 0
M  V30 3396 C 324.981 1.36522 -1.40075 0
M  V30 3397 C 325.361 2.10976 -0.0722744 0
M  V30 3398 O 324.709 2.08007 0.945808 0
M  V30 3399 C 324.919 2.31056 -2.61561 0
M  V30 3400 C 326.267 2.93608 -3.06724 0
M  V30 3401 O 327.291 2.41376 -2.61946 0
M  V30 3402 O 326.15 3.88421 -3.84437 0
M  V30 3403 H 323.244 0.612248 -0.555951 0
M  V30 3404 H 325.79 0.628747 -1.57623 0
M  V30 3405 H 324.562 1.75311 -3.49831 0
M  V30 3406 H 324.185 3.12081 -2.46356 0
M  V30 3407 N 325.182 1.32811 0.848464 0
M  V30 3408 C 326.112 1.24882 1.97299 0
M  V30 3409 C 327.093 0.131357 1.69592 0
M  V30 3410 O 328.278 0.319553 1.91553 0
M  V30 3411 C 325.408 0.97746 3.33261 0
M  V30 3412 C 324.362 2.05682 3.75338 0
M  V30 3413 C 323.688 1.63777 5.09 0
M  V30 3414 C 324.988 3.47254 3.90144 0
M  V30 3415 H 326.682 2.18966 2.04191 0
M  V30 3416 H 324.228 1.05413 0.981029 0
M  V30 3417 H 326.181 0.908513 4.1149 0
M  V30 3418 H 324.905 0.000980011 3.266 0
M  V30 3419 H 323.564 2.11603 2.99366 0
M  V30 3420 H 323.212 0.648569 4.98801 0
M  V30 3421 H 322.912 2.36 5.38124 0
M  V30 3422 H 324.436 1.5833 5.89715 0
M  V30 3423 H 325.85 3.43888 4.58709 0
M  V30 3424 H 324.247 4.1788 4.30693 0
M  V30 3425 H 325.317 3.86462 2.92874 0
M  V30 3426 N 326.66 -1.06551 1.16123 0
M  V30 3427 C 327.623 -2.12132 0.867906 0
M  V30 3428 C 328.623 -1.60224 -0.135944 0
M  V30 3429 O 329.813 -1.73943 0.0946422 0
M  V30 3430 C 326.945 -3.396 0.297419 0
M  V30 3431 H 328.138 -2.39586 1.80385 0
M  V30 3432 H 325.691 -1.22574 0.969812 0
M  V30 3433 H 326.426 -3.17794 -0.64633 0
M  V30 3434 H 326.211 -3.78581 1.02073 0
M  V30 3435 H 327.701 -4.17455 0.110052 0
M  V30 3436 N 328.138 -0.959301 -1.25041 0
M  V30 3437 C 329.07 -0.440543 -2.24926 0
M  V30 3438 C 330.083 0.446131 -1.56568 0
M  V30 3439 O 331.272 0.253657 -1.76689 0
M  V30 3440 C 328.372 0.38412 -3.36716 0
M  V30 3441 C 327.545 -0.490658 -4.34639 0
M  V30 3442 C 326.604 0.276587 -5.25473 0
M  V30 3443 O 325.63 -0.326614 -5.68262 0
M  V30 3444 N 326.832 1.56844 -5.5891 0
M  V30 3445 H 329.597 -1.29931 -2.70071 0
M  V30 3446 H 327.158 -0.830181 -1.38995 0
M  V30 3447 H 329.15 0.905228 -3.94446 0
M  V30 3448 H 327.72 1.14377 -2.90924 0
M  V30 3449 H 326.94 -1.19282 -3.7572 0
M  V30 3450 H 328.228 -1.08756 -4.97041 0
M  V30 3451 H 327.626 2.08036 -5.26059 0
M  V30 3452 H 326.183 2.03541 -6.19205 0
M  V30 3453 N 329.616 1.39756 -0.72842 0
M  V30 3454 C 330.863 2.00645 -0.273487 0
M  V30 3455 C 331.191 1.57786 1.13727 0
M  V30 3456 O 330.446 0.794886 1.7883 0
M  V30 3457 C 330.745 3.56002 -0.315776 0
M  V30 3458 C 330.411 4.18489 -1.67863 0
M  V30 3459 C 329.073 4.3527 -2.05166 0
M  V30 3460 C 331.425 4.53219 -2.57375 0
M  V30 3461 C 328.753 4.84069 -3.31503 0
M  V30 3462 C 331.105 5.03423 -3.83077 0
M  V30 3463 C 329.769 5.18413 -4.20481 0
M  V30 3464 H 329.039 0.734211 -0.100076 0
M  V30 3465 H 331.686 1.6718 -0.933972 0
M  V30 3466 H 329.991 3.89452 0.428285 0
M  V30 3467 H 331.688 4.00963 0.0542575 0
M  V30 3468 H 328.278 4.05824 -1.37858 0
M  V30 3469 H 332.462 4.39878 -2.29827 0
M  V30 3470 H 327.718 4.93859 -3.60435 0
M  V30 3471 H 331.892 5.2927 -4.52599 0
M  V30 3472 H 329.519 5.55987 -5.18443 0
M  V30 3473 N 331.094 0.475555 1.50254 0
M  V30 3474 C 332.027 -0.362381 2.25304 0
M  V30 3475 C 333.005 -0.992393 1.28803 0
M  V30 3476 O 334.189 -1.02746 1.58036 0
M  V30 3477 C 331.316 -1.50813 3.03271 0
M  V30 3478 C 330.362 -0.995044 4.1473 0
M  V30 3479 S 331.195 0.0938436 5.35418 0
M  V30 3480 C 332.351 -1.05567 6.16933 0
M  V30 3481 H 332.584 0.274686 2.96028 0
M  V30 3482 H 330.117 0.260495 1.52187 0
M  V30 3483 H 332.075 -2.16476 3.48781 0
M  V30 3484 H 330.736 -2.11672 2.32064 0
M  V30 3485 H 329.929 -1.85293 4.68703 0
M  V30 3486 H 329.531 -0.416052 3.71679 0
M  V30 3487 H 331.823 -1.96636 6.48337 0
M  V30 3488 H 332.766 -0.555109 7.05921 0
M  V30 3489 H 333.174 -1.31151 5.49053 0
M  V30 3490 N 332.573 -1.56217 0.208337 0
M  V30 3491 C 333.989 -1.58919 -0.14729 0
M  V30 3492 C 334.189 -1.22486 -1.59998 0
M  V30 3493 O 333.245 -0.953849 -2.3379 0
M  V30 3494 C 334.558 -3.00236 0.167048 0
M  V30 3495 C 336.106 -3.12813 0.108219 0
M  V30 3496 C 336.581 -4.56284 0.396049 0
M  V30 3497 N 338.072 -4.61912 0.345142 0
M  V30 3498 C 338.807 -5.70837 0.541523 0
M  V30 3499 N 338.303 -6.88178 0.798968 0
M  V30 3500 N 340.096 -5.60091 0.474867 0
M  V30 3501 H 332.247 -1.78177 1.15614 0
M  V30 3502 H 334.51 -0.827555 0.462446 0
M  V30 3503 H 334.216 -3.31499 1.1748 0
M  V30 3504 H 334.09 -3.7354 -0.524184 0
M  V30 3505 H 336.477 -2.81354 -0.890157 0
M  V30 3506 H 336.558 -2.41866 0.832729 0
M  V30 3507 H 336.202 -4.88458 1.3918 0
M  V30 3508 H 336.132 -5.25439 -0.349502 0
M  V30 3509 H 338.623 -3.77589 0.153316 0
M  V30 3510 H 338.936 -7.67095 0.93727 0
M  V30 3511 H 337.281 -6.89953 0.836013 0
M  V30 3512 H 340.472 -4.67297 0.274064 0
M  V30 3513 H 340.645 -6.44917 0.631326 0
M  V30 3514 N 334.051 0.0651679 -1.57465 0
M  V30 3515 C 334.981 1.07693 -2.07182 0
M  V30 3516 C 335.962 1.39962 -0.966673 0
M  V30 3517 O 337.147 1.49475 -1.2398 0
M  V30 3518 C 334.277 2.3885 -2.52127 0
M  V30 3519 C 333.231 2.20917 -3.66579 0
M  V30 3520 C 332.557 3.57515 -3.97601 0
M  V30 3521 C 333.857 1.62493 -4.9638 0
M  V30 3522 H 335.551 0.663199 -2.91962 0
M  V30 3523 H 333.097 0.317569 -1.40455 0
M  V30 3524 H 335.05 3.09928 -2.85522 0
M  V30 3525 H 333.774 2.82215 -1.64384 0
M  V30 3526 H 332.433 1.52279 -3.33477 0
M  V30 3527 H 332.081 3.98463 -3.06979 0
M  V30 3528 H 331.781 3.46353 -4.74672 0
M  V30 3529 H 333.305 4.30013 -4.33499 0
M  V30 3530 H 334.719 2.23445 -5.27963 0
M  V30 3531 H 333.116 1.62009 -5.77818 0
M  V30 3532 H 334.186 0.587041 -4.81333 0
M  V30 3533 N 335.529 1.53961 0.336706 0
M  V30 3534 C 336.776 1.71536 1.07618 0
M  V30 3535 C 337.104 0.482125 1.8843 0
M  V30 3536 O 336.359 -0.536142 1.88213 0
M  V30 3537 C 336.658 2.93493 2.03953 0
M  V30 3538 C 336.324 4.28811 1.39399 0
M  V30 3539 C 334.986 4.65602 1.21523 0
M  V30 3540 C 337.338 5.12844 0.929541 0
M  V30 3541 C 334.666 5.84037 0.558312 0
M  V30 3542 C 337.018 6.31951 0.286505 0
M  V30 3543 C 335.682 6.67432 0.0954869 0
M  V30 3544 H 334.952 0.627696 0.393801 0
M  V30 3545 H 337.599 1.88186 0.354715 0
M  V30 3546 H 335.904 2.71475 2.82504 0
M  V30 3547 H 337.601 3.04285 2.61174 0
M  V30 3548 H 334.191 3.99858 1.54311 0
M  V30 3549 H 338.375 4.84947 1.05548 0
M  V30 3550 H 333.631 6.10097 0.398995 0
M  V30 3551 H 337.805 6.96352 -0.0814376 0
M  V30 3552 H 335.432 7.59063 -0.415579 0
M  V30 3553 N 337.007 -0.598083 1.45811 0
M  V30 3554 C 338.255 -1.35413 1.50026 0
M  V30 3555 C 338.576 -1.94444 0.147177 0
M  V30 3556 O 337.846 -1.77701 -0.824571 0
M  V30 3557 H 336.426 -0.502727 0.552517 0
M  V30 3558 H 339.088 -0.701606 1.81834 0
M  V30 3559 H 338.184 -2.16871 2.2444 0
M  V30 3560 N 338.485 -1.33259 -0.841409 0
M  V30 3561 C 339.733 -1.24326 -1.59334 0
M  V30 3562 C 340.054 0.191564 -1.94057 0
M  V30 3563 O 339.324 1.11967 -1.60749 0
M  V30 3564 H 337.904 -0.457174 -0.590763 0
M  V30 3565 H 340.566 -1.66947 -1.00571 0
M  V30 3566 H 339.662 -1.8352 -2.52442 0
M  V30 3567 N 339.963 1.05934 -1.16686 0
M  V30 3568 C 340.911 2.15603 -0.872817 0
M  V30 3569 C 341.905 1.68647 0.159576 0
M  V30 3570 O 343.111 1.79995 0.0132125 0
M  V30 3571 H 339.486 0.703885 -0.264671 0
M  V30 3572 H 341.457 2.37613 -1.80507 0
M  V30 3573 C 340.206 3.45457 -0.394344 0
M  V30 3574 H 339.529 3.81984 -1.18019 0
M  V30 3575 H 340.969 4.2339 -0.227408 0
M  V30 3576 C 339.428 3.25021 0.88673 0
M  V30 3577 O 339.958 3.50906 1.95519 0
M  V30 3578 N 338.164 2.78437 0.831925 0
M  V30 3579 H 337.711 2.57572 -0.0377619 0
M  V30 3580 H 337.669 2.65144 1.68956 0
M  V30 3581 N 341.441 0.965919 1.2453 0
M  V30 3582 C 342.688 0.626831 1.92554 0
M  V30 3583 C 343.016 -0.837739 1.75534 0
M  V30 3584 O 342.271 -1.61793 1.10098 0
M  V30 3585 C 342.57 0.945428 3.44669 0
M  V30 3586 C 342.236 2.39785 3.81856 0
M  V30 3587 C 340.898 2.79483 3.91718 0
M  V30 3588 C 343.25 3.34055 4.00071 0
M  V30 3589 C 340.578 4.12496 4.1721 0
M  V30 3590 C 342.93 4.66694 4.27059 0
M  V30 3591 C 341.594 5.06172 4.3514 0
M  V30 3592 H 340.864 0.229374 0.704605 0
M  V30 3593 H 343.511 1.21707 1.4785 0
M  V30 3594 H 341.816 0.272926 3.90848 0
M  V30 3595 H 343.513 0.661484 3.95507 0
M  V30 3596 H 340.103 2.08003 3.74743 0
M  V30 3597 H 344.287 3.04571 3.91855 0
M  V30 3598 H 339.543 4.42709 4.21685 0
M  V30 3599 H 343.717 5.3971 4.40097 0
M  V30 3600 H 341.344 6.09262 4.54646 0
M  V30 3601 N 342.919 -1.39368 0.735821 0
M  V30 3602 C 343.882 -2.2896 0.104874 0
M  V30 3603 C 344.882 -1.46347 -0.666274 0
M  V30 3604 O 346.072 -1.67014 -0.49517 0
M  V30 3605 C 343.204 -3.29857 -0.860656 0
M  V30 3606 H 344.397 -2.86259 0.894205 0
M  V30 3607 H 341.95 -1.48029 0.501704 0
M  V30 3608 H 342.685 -2.77615 -1.67631 0
M  V30 3609 H 342.47 -3.9087 -0.310327 0
M  V30 3610 H 343.96 -3.96893 -1.29867 0
M  V30 3611 N 344.397 -0.483516 -1.5 0
M  V30 3612 C 345.347 0.32306 -2.257 0
M  V30 3613 C 346.331 0.950755 -1.29805 0
M  V30 3614 O 347.523 0.861247 -1.54634 0
M  V30 3615 C 344.652 1.39724 -3.13579 0
M  V30 3616 C 343.738 0.776663 -4.16928 0
M  V30 3617 N 344.129 -0.1104 -5.0568 0
M  V30 3618 C 342.427 1.03922 -4.33724 0
M  V30 3619 C 343.128 -0.46387 -5.79848 0
M  V30 3620 N 342.104 0.163987 -5.43353 0
M  V30 3621 H 345.906 -0.360086 -2.91686 0
M  V30 3622 H 343.42 -0.298456 -1.59634 0
M  V30 3623 H 345.417 1.98837 -3.66428 0
M  V30 3624 H 344.077 2.08225 -2.49143 0
M  V30 3625 H 345.088 -0.480069 -5.1567 0
M  V30 3626 H 341.765 1.71829 -3.80501 0
M  V30 3627 H 343.155 -1.18854 -6.61304 0
M  V30 3628 N 345.875 1.56104 -0.216619 0
M  V30 3629 C 346.807 2.17339 0.72776 0
M  V30 3630 C 347.82 1.14109 1.16116 0
M  V30 3631 O 349.009 1.4111 1.09317 0
M  V30 3632 C 346.109 2.73818 1.99693 0
M  V30 3633 C 345.282 4.02168 1.71988 0
M  V30 3634 C 344.341 4.43259 2.83562 0
M  V30 3635 O 343.367 5.10257 2.52244 0
M  V30 3636 N 344.569 4.08535 4.12407 0
M  V30 3637 H 347.334 2.99005 0.203983 0
M  V30 3638 H 344.895 1.61861 -0.0354289 0
M  V30 3639 H 346.887 2.9828 2.73516 0
M  V30 3640 H 345.457 1.96483 2.43132 0
M  V30 3641 H 344.677 3.85612 0.818337 0
M  V30 3642 H 345.965 4.85907 1.50903 0
M  V30 3643 H 345.363 3.54687 4.40696 0
M  V30 3644 H 343.92 4.37901 4.8279 0
M  V30 3645 N 347.353 -0.0568162 1.57498 0
M  V30 3646 C 348.316 -1.05038 2.03715 0
M  V30 3647 C 349.316 -1.30709 0.936577 0
M  V30 3648 O 350.506 -1.26178 1.20103 0
M  V30 3649 C 347.638 -2.39034 2.43055 0
M  V30 3650 H 348.831 -0.651715 2.92733 0
M  V30 3651 H 346.384 -0.302947 1.53336 0
M  V30 3652 H 347.119 -2.83703 1.57108 0
M  V30 3653 H 346.904 -2.21739 3.2338 0
M  V30 3654 H 348.394 -3.10421 2.79336 0
M  V30 3655 N 348.832 -1.54138 -0.328536 0
M  V30 3656 C 350.057 -1.76378 -1.09112 0
M  V30 3657 C 350.482 -0.508596 -1.81094 0
M  V30 3658 O 349.84 0.539598 -1.73084 0
M  V30 3659 C 349.888 -2.95358 -2.06872 0
M  V30 3660 O 348.992 -2.66556 -3.14677 0
M  V30 3661 H 348.333 -0.584614 -0.314838 0
M  V30 3662 H 350.863 -2.01146 -0.374348 0
M  V30 3663 H 350.873 -3.22566 -2.4983 0
M  V30 3664 H 349.548 -3.86385 -1.5388 0
M  V30 3665 H 348.125 -2.50282 -2.7643 0
M  V30 3666 N 350.31 0.590341 -1.46126 0
M  V30 3667 C 351.556 1.35082 -1.51264 0
M  V30 3668 C 351.889 1.93534 -0.160711 0
M  V30 3669 O 351.164 1.76045 0.826956 0
M  V30 3670 C 351.447 2.48588 -2.6053 0
M  V30 3671 C 351.3 1.95221 -4.05227 0
M  V30 3672 C 352.619 3.50662 -2.6594 0
M  V30 3673 H 349.738 0.489803 -0.550692 0
M  V30 3674 H 352.38 0.663887 -1.78024 0
M  V30 3675 H 350.53 3.07186 -2.37843 0
M  V30 3676 H 352.202 1.41139 -4.39178 0
M  V30 3677 H 350.445 1.26101 -4.15068 0
M  V30 3678 H 351.116 2.77121 -4.77397 0
M  V30 3679 H 353.592 3.01934 -2.86313 0
M  V30 3680 H 352.468 4.27551 -3.44226 0
M  V30 3681 H 352.729 4.07399 -1.71694 0
M  V30 3682 N 351.788 1.33704 0.83433 0
M  V30 3683 C 352.751 1.24244 1.92603 0
M  V30 3684 C 353.751 0.160383 1.59998 0
M  V30 3685 O 354.941 0.412228 1.69252 0
M  V30 3686 C 352.073 0.91555 3.28376 0
M  V30 3687 H 353.266 2.21287 2.02416 0
M  V30 3688 H 350.819 1.17827 1.02696 0
M  V30 3689 H 351.554 -0.0521886 3.24258 0
M  V30 3690 H 351.339 1.69811 3.53422 0
M  V30 3691 H 352.829 0.874231 4.08347 0
M  V30 3692 N 353.266 -1.05314 1.17247 0
M  V30 3693 C 354.682 -1.30452 0.919473 0
M  V30 3694 C 354.882 -1.9703 -0.42209 0
M  V30 3695 O 353.938 -2.24311 -1.15935 0
M  V30 3696 C 355.251 -2.17551 2.07586 0
M  V30 3697 C 356.799 -2.30937 2.11275 0
M  V30 3698 C 357.274 -3.21396 3.26296 0
M  V30 3699 N 358.765 -3.28981 3.26076 0
M  V30 3700 C 359.5 -3.99095 4.11716 0
M  V30 3701 N 358.996 -4.71648 5.07465 0
M  V30 3702 N 360.789 -3.95247 3.9967 0
M  V30 3703 H 352.94 -0.604988 2.03602 0
M  V30 3704 H 355.203 -0.329368 0.888944 0
M  V30 3705 H 354.909 -1.75921 3.0454 0
M  V30 3706 H 354.783 -3.18182 2.02584 0
M  V30 3707 H 357.17 -2.71809 1.14907 0
M  V30 3708 H 357.251 -1.2994 2.20339 0
M  V30 3709 H 356.895 -2.81238 4.22927 0
M  V30 3710 H 356.825 -4.22395 3.14467 0
M  V30 3711 H 359.316 -2.77286 2.5675 0
M  V30 3712 H 359.629 -5.22705 5.6921 0
M  V30 3713 H 357.974 -4.70594 5.11435 0
M  V30 3714 H 361.165 -3.37691 3.24164 0
M  V30 3715 H 361.338 -4.4962 4.66632 0
M  V30 3716 N 354.744 -0.972509 -1.24016 0
M  V30 3717 C 355.99 -0.637978 -1.92504 0
M  V30 3718 C 356.323 0.825383 -1.75787 0
M  V30 3719 O 355.598 1.59442 -1.11393 0
M  V30 3720 C 355.881 -1.01942 -3.45369 0
M  V30 3721 C 355.734 -2.53983 -3.71231 0
M  V30 3722 C 357.053 -0.55751 -4.36555 0
M  V30 3723 H 354.172 -0.233248 -0.699117 0
M  V30 3724 H 356.814 -1.21238 -1.46292 0
M  V30 3725 H 354.964 -0.530656 -3.84859 0
M  V30 3726 H 356.636 -3.10374 -3.41271 0
M  V30 3727 H 354.879 -2.96968 -3.16216 0
M  V30 3728 H 355.55 -2.75723 -4.78206 0
M  V30 3729 H 358.026 -0.977029 -4.04467 0
M  V30 3730 H 356.902 -0.85292 -5.42233 0
M  V30 3731 H 357.163 0.542328 -4.38761 0
M  V30 3732 N 356.222 1.38976 -0.743202 0
M  V30 3733 C 357.468 2.0064 -0.295189 0
M  V30 3734 C 357.801 1.5885 1.11716 0
M  V30 3735 O 357.076 0.821181 1.76315 0
M  V30 3736 C 357.359 3.578 -0.406318 0
M  V30 3737 C 357.212 4.09586 -1.85903 0
M  V30 3738 C 358.531 4.39616 0.206439 0
M  V30 3739 H 355.65 0.728935 -0.108733 0
M  V30 3740 H 358.292 1.65067 -0.940897 0
M  V30 3741 H 356.442 3.88235 0.143419 0
M  V30 3742 H 358.114 3.89837 -2.46627 0
M  V30 3743 H 356.357 3.6284 -2.3776 0
M  V30 3744 H 357.028 5.18708 -1.888 0
M  V30 3745 H 359.504 4.15273 -0.262283 0
M  V30 3746 H 358.38 5.48812 0.0983819 0
M  V30 3747 H 358.641 4.22754 1.2935 0
M  V30 3748 N 357.7 0.491464 1.49741 0
M  V30 3749 C 358.948 -0.0563141 2.02022 0
M  V30 3750 C 359.269 -1.38363 1.37407 0
M  V30 3751 O 358.539 -1.88702 0.526166 0
M  V30 3752 H 357.119 -0.0238014 0.746621 0
M  V30 3753 H 359.781 0.646533 1.83864 0
M  V30 3754 H 358.877 -0.192967 3.11503 0
M  V30 3755 N 359.178 -1.55987 0.224894 0
M  V30 3756 C 360.11 -2.17722 -0.716224 0
M  V30 3757 C 361.123 -1.14723 -1.15509 0
M  V30 3758 O 362.312 -1.41688 -1.08567 0
M  V30 3759 C 359.412 -2.74873 -1.98238 0
M  V30 3760 C 358.585 -4.03074 -1.69853 0
M  V30 3761 C 357.644 -4.44757 -2.81208 0
M  V30 3762 O 356.67 -5.11587 -2.49534 0
M  V30 3763 N 357.872 -4.10716 -4.10235 0
M  V30 3764 H 360.637 -2.99109 -0.188123 0
M  V30 3765 H 358.198 -1.6184 0.0440123 0
M  V30 3766 H 360.19 -2.99727 -2.7193 0
M  V30 3767 H 358.76 -1.9777 -2.42086 0
M  V30 3768 H 357.98 -3.86041 -0.797875 0
M  V30 3769 H 359.268 -4.86701 -1.48324 0
M  V30 3770 H 358.666 -3.57019 -4.38809 0
M  V30 3771 H 357.223 -4.40455 -4.80461 0
M  V30 3772 N 360.656 0.0484629 -1.57525 0
M  V30 3773 C 361.588 1.08222 -2.02041 0
M  V30 3774 C 362.601 1.33621 -0.930012 0
M  V30 3775 O 363.79 1.3145 -1.20761 0
M  V30 3776 C 360.89 2.42818 -2.36416 0
M  V30 3777 C 360.063 2.37049 -3.67596 0
M  V30 3778 C 359.122 3.53937 -3.89378 0
M  V30 3779 O 358.148 3.34308 -4.60681 0
M  V30 3780 N 359.35 4.75126 -3.3352 0
M  V30 3781 H 362.115 0.702946 -2.9134 0
M  V30 3782 H 359.676 0.236745 -1.6016 0
M  V30 3783 H 361.668 3.197 -2.48141 0
M  V30 3784 H 360.238 2.72661 -1.52888 0
M  V30 3785 H 359.458 1.45395 -3.66407 0
M  V30 3786 H 360.746 2.30318 -4.53686 0
M  V30 3787 H 360.144 4.93976 -2.75688 0
M  V30 3788 H 358.701 5.49439 -3.50656 0
M  V30 3789 N 362.134 1.5431 0.320358 0
M  V30 3790 C 363.382 1.72327 1.05583 0
M  V30 3791 C 363.703 0.50149 1.88441 0
M  V30 3792 O 362.973 -0.48448 1.89815 0
M  V30 3793 H 361.553 0.635387 0.3928 0
M  V30 3794 H 364.215 1.91621 0.356019 0
M  V30 3795 H 363.311 2.60426 1.72003 0
M  V30 3796 N 363.613 -0.582584 1.46437 0
M  V30 3797 C 365.029 -0.905962 1.31394 0
M  V30 3798 C 365.229 -1.99468 0.285476 0
M  V30 3799 O 364.285 -2.50566 -0.311914 0
M  V30 3800 C 365.598 -1.3232 2.70022 0
M  V30 3801 C 367.146 -1.43604 2.78113 0
M  V30 3802 C 367.621 -1.88694 4.17323 0
M  V30 3803 N 369.112 -1.95887 4.19741 0
M  V30 3804 C 369.847 -2.32051 5.24347 0
M  V30 3805 N 369.343 -2.67006 6.39281 0
M  V30 3806 N 371.136 -2.32606 5.11713 0
M  V30 3807 H 363.287 0.1366 2.1196 0
M  V30 3808 H 365.55 -0.00155736 0.947999 0
M  V30 3809 H 365.256 -0.597242 3.46592 0
M  V30 3810 H 365.13 -2.28469 3.00136 0
M  V30 3811 H 367.517 -2.15286 2.01832 0
M  V30 3812 H 367.598 -0.457059 2.51684 0
M  V30 3813 H 367.242 -1.1759 4.941 0
M  V30 3814 H 367.172 -2.8755 4.4116 0
M  V30 3815 H 369.663 -1.71362 3.36814 0
M  V30 3816 H 369.976 -2.93554 7.14875 0
M  V30 3817 H 368.321 -2.64644 6.42642 0
M  V30 3818 H 371.512 -2.04721 4.2096 0
M  V30 3819 H 371.685 -2.60462 5.93349 0
M  V30 3820 N 365.091 -1.34144 -0.827227 0
M  V30 3821 C 366.339 -1.26009 -1.58007 0
M  V30 3822 C 366.66 0.170971 -1.94249 0
M  V30 3823 O 365.93 1.10256 -1.61927 0
M  V30 3824 H 364.51 -0.463414 -0.585881 0
M  V30 3825 H 367.172 -1.68005 -0.987951 0
M  V30 3826 H 366.268 -1.86187 -2.50481 0
M  V30 3827 N 366.569 1.04691 -1.17803 0
M  V30 3828 C 367.985 1.29963 -0.926379 0
M  V30 3829 C 368.185 1.97251 0.411635 0
M  V30 3830 O 367.241 2.24922 1.14744 0
M  V30 3831 C 368.554 2.16447 -2.08737 0
M  V30 3832 C 370.102 2.29814 -2.12496 0
M  V30 3833 C 370.577 3.19661 -3.27995 0
M  V30 3834 N 372.068 3.27247 -3.27816 0
M  V30 3835 C 372.803 3.96906 -4.13827 0
M  V30 3836 N 372.299 4.6895 -5.09959 0
M  V30 3837 N 374.092 3.93122 -4.01761 0
M  V30 3838 H 366.243 0.594182 -2.0392 0
M  V30 3839 H 368.506 0.324649 -0.890678 0
M  V30 3840 H 368.212 1.74304 -3.05469 0
M  V30 3841 H 368.086 3.17103 -2.04268 0
M  V30 3842 H 370.473 2.71196 -1.16347 0
M  V30 3843 H 370.554 1.2877 -2.21025 0
M  V30 3844 H 370.198 2.78991 -4.24413 0
M  V30 3845 H 370.128 4.20722 -3.16703 0
M  V30 3846 H 372.619 2.75921 -2.58217 0
M  V30 3847 H 372.932 5.19679 -5.71974 0
M  V30 3848 H 371.277 4.67875 -5.13924 0
M  V30 3849 H 374.468 3.35967 -3.2595 0
M  V30 3850 H 374.641 4.47139 -4.6901 0
M  V30 3851 N 368.047 0.979072 1.23499 0
M  V30 3852 C 369.01 0.523244 2.23147 0
M  V30 3853 C 370.01 -0.386406 1.56088 0
M  V30 3854 O 371.2 -0.180283 1.73265 0
M  V30 3855 C 368.332 -0.240739 3.40049 0
M  V30 3856 H 369.525 1.40432 2.64989 0
M  V30 3857 H 367.078 0.764824 1.36309 0
M  V30 3858 H 367.813 -1.13841 3.03662 0
M  V30 3859 H 367.598 0.412207 3.89927 0
M  V30 3860 H 369.088 -0.548297 4.13985 0
M  V30 3861 N 369.525 -1.3858 0.750561 0
M  V30 3862 C 370.773 -1.99789 0.30477 0
M  V30 3863 C 371.094 -1.59874 -1.11649 0
M  V30 3864 O 370.364 -0.85417 -1.76297 0
M  V30 3865 H 368.944 -0.738902 0.109694 0
M  V30 3866 H 371.606 -1.69391 0.963983 0
M  V30 3867 H 370.702 -3.09952 0.365499 0
M  V30 3868 N 371.003 -0.499398 -1.49478 0
M  V30 3869 C 372.252 0.0475259 -2.01644 0
M  V30 3870 C 372.565 1.38195 -1.38425 0
M  V30 3871 O 373.771 2.01547 -1.8191 0
M  V30 3872 C 372.227 0.135164 -3.59646 0
M  V30 3873 C 371.835 -1.19252 -4.31837 0
M  V30 3874 C 373.579 0.632538 -4.19761 0
M  V30 3875 C 371.486 -1.06713 -5.81693 0
M  V30 3876 H 370.416 0.0215349 -0.753692 0
M  V30 3877 H 373.067 -0.638577 -1.7203 0
M  V30 3878 H 371.449 0.885681 -3.85969 0
M  V30 3879 H 372.623 -1.9562 -4.17216 0
M  V30 3880 H 370.938 -1.62321 -3.83459 0
M  V30 3881 H 373.535 0.743833 -5.29501 0
M  V30 3882 H 373.878 1.63098 -3.83021 0
M  V30 3883 H 374.411 -0.0613987 -3.97753 0
M  V30 3884 H 371.15 -2.03979 -6.22955 0
M  V30 3885 H 370.67 -0.344307 -5.98811 0
M  V30 3886 H 372.349 -0.745208 -6.42694 0
M  V30 3887 N 372.481 1.55866 -0.233164 0
M  V30 3888 C 373.391 2.24431 0.683217 0
M  V30 3889 C 374.407 1.2558 1.2044 0
M  V30 3890 O 375.583 1.58422 1.24356 0
M  V30 3891 C 372.648 2.91979 1.86947 0
M  V30 3892 C 371.709 4.06204 1.38912 0
M  V30 3893 C 370.942 4.70522 2.51883 0
M  V30 3894 O 371.165 4.33865 3.70293 0
M  V30 3895 O 370.099 5.59296 2.22423 0
M  V30 3896 H 373.925 3.03426 0.129059 0
M  V30 3897 H 371.51 1.494 -0.0022283 0
M  V30 3898 H 373.392 3.34573 2.56201 0
M  V30 3899 H 372.067 2.15935 2.41151 0
M  V30 3900 H 370.974 3.68155 0.664259 0
M  V30 3901 H 372.307 4.84025 0.893328 0
M  V30 3902 N 373.959 -0.0401083 1.57549 0
M  V30 3903 C 374.922 -1.02871 2.04817 0
M  V30 3904 C 375.922 -1.29708 0.950388 0
M  V30 3905 O 377.112 -1.24897 1.21435 0
M  V30 3906 C 374.244 -2.36443 2.45576 0
M  V30 3907 H 375.437 -0.620631 2.93408 0
M  V30 3908 H 372.99 -0.286667 1.53649 0
M  V30 3909 H 373.725 -2.82021 1.60108 0
M  V30 3910 H 373.51 -2.18296 3.25713 0
M  V30 3911 H 375 -3.07441 2.82612 0
M  V30 3912 N 375.437 -1.54477 -0.31217 0
M  V30 3913 C 376.662 -1.77526 -1.07235 0
M  V30 3914 C 377.087 -0.527775 -1.80544 0
M  V30 3915 O 376.445 0.52121 -1.73646 0
M  V30 3916 C 376.493 -2.97535 -2.03728 0
M  V30 3917 O 375.597 -2.69878 -3.11833 0
M  V30 3918 H 374.938 -0.58792 -0.30862 0
M  V30 3919 H 377.468 -2.01532 -0.352993 0
M  V30 3920 H 377.478 -3.25198 -2.46395 0
M  V30 3921 H 376.153 -3.87996 -1.49774 0
M  V30 3922 H 374.73 -2.53199 -2.7376 0
M  V30 3923 N 376.915 0.57481 -1.46744 0
M  V30 3924 C 377.845 1.69337 -1.60771 0
M  V30 3925 C 378.826 1.63825 -0.457736 0
M  V30 3926 O 380.011 1.8172 -0.684947 0
M  V30 3927 C 377.141 3.0798 -1.60517 0
M  V30 3928 C 376.095 3.28327 -2.74564 0
M  V30 3929 C 375.421 4.67578 -2.59373 0
M  V30 3930 C 376.721 3.15398 -4.16319 0
M  V30 3931 H 378.415 1.57853 -2.54407 0
M  V30 3932 H 375.961 0.75799 -1.22436 0
M  V30 3933 H 377.914 3.86061 -1.68923 0
M  V30 3934 H 376.638 3.20381 -0.634305 0
M  V30 3935 H 375.297 2.52649 -2.65639 0
M  V30 3936 H 374.945 4.76755 -1.60353 0
M  V30 3937 H 374.645 4.82144 -3.35873 0
M  V30 3938 H 376.169 5.47817 -2.69682 0
M  V30 3939 H 377.583 3.83315 -4.26313 0
M  V30 3940 H 375.98 3.41482 -4.93468 0
M  V30 3941 H 377.05 2.12372 -4.3592 0
M  V30 3942 N 378.394 1.34581 0.820102 0
M  V30 3943 C 379.671 1.17675 1.56244 0
M  V30 3944 C 380.051 -0.249541 2.0962 0
M  V30 3945 O 379.399 -1.25125 1.91196 0
M  V30 3946 C 379.609 2.23364 2.6816 0
M  V30 3947 C 380.957 2.58485 3.36854 0
M  V30 3948 O 381.981 2.22175 2.78418 0
M  V30 3949 O 380.84 3.20868 4.42386 0
M  V30 3950 H 377.934 0.456333 0.689702 0
M  V30 3951 H 380.48 1.46222 0.861231 0
M  V30 3952 H 379.252 3.19087 2.26493 0
M  V30 3953 H 378.875 1.96009 3.45928 0
M  V30 3954 N 379.872 -1.04064 1.18357 0
M  V30 3955 C 381.118 -1.77528 0.980397 0
M  V30 3956 C 381.451 -1.87948 -0.48879 0
M  V30 3957 O 380.726 -1.3876 -1.36293 0
M  V30 3958 C 381.009 -3.20797 1.63588 0
M  V30 3959 C 380.862 -3.1832 3.17793 0
M  V30 3960 C 382.181 -4.18911 1.34914 0
M  V30 3961 H 379.3 -0.644443 0.357578 0
M  V30 3962 H 381.942 -1.2156 1.46024 0
M  V30 3963 H 380.092 -3.68586 1.22788 0
M  V30 3964 H 381.764 -2.78521 3.67728 0
M  V30 3965 H 380.007 -2.56351 3.49952 0
M  V30 3966 H 380.678 -4.19489 3.58794 0
M  V30 3967 H 383.154 -3.7967 1.70265 0
M  V30 3968 H 382.03 -5.17374 1.83346 0
M  V30 3969 H 382.291 -4.41262 0.272027 0
M  V30 3970 N 381.35 -0.985608 -1.22978 0
M  V30 3971 C 382.282 -0.488154 -2.23941 0
M  V30 3972 C 383.295 0.41282 -1.57479 0
M  V30 3973 O 384.484 0.216121 -1.77187 0
M  V30 3974 C 381.584 0.312611 -3.37455 0
M  V30 3975 C 380.757 -0.582741 -4.33501 0
M  V30 3976 C 379.816 0.165064 -5.25941 0
M  V30 3977 O 378.842 -0.447077 -5.67442 0
M  V30 3978 N 380.044 1.44953 -5.62111 0
M  V30 3979 H 382.809 -1.3563 -2.67254 0
M  V30 3980 H 380.37 -0.859477 -1.37203 0
M  V30 3981 H 382.362 0.821357 -3.96277 0
M  V30 3982 H 380.932 1.0818 -2.93285 0
M  V30 3983 H 380.152 -1.27225 -3.73105 0
M  V30 3984 H 381.44 -1.19275 -4.94622 0
M  V30 3985 H 380.838 1.9683 -5.30353 0
M  V30 3986 H 379.395 1.90361 -6.23383 0
M  V30 3987 N 382.828 1.3818 -0.7579 0
M  V30 3988 C 384.058 2.04004 -0.326463 0
M  V30 3989 C 384.466 1.57286 1.05156 0
M  V30 3990 O 383.809 0.743144 1.67997 0
M  V30 3991 C 383.871 3.58444 -0.275402 0
M  V30 3992 C 383.535 4.28237 -1.59569 0
M  V30 3993 C 384.532 4.53312 -2.54566 0
M  V30 3994 C 382.217 4.66341 -1.86631 0
M  V30 3995 C 384.211 5.15531 -3.74842 0
M  V30 3996 C 381.898 5.28283 -3.0718 0
M  V30 3997 C 382.896 5.52814 -4.01106 0
M  V30 3998 O 382.584 6.13465 -5.19534 0
M  V30 3999 H 382.316 0.662026 -0.136739 0
M  V30 4000 H 384.87 1.7777 -1.02893 0
M  V30 4001 H 383.1 3.83667 0.483337 0
M  V30 4002 H 384.789 4.05701 0.127099 0
M  V30 4003 H 385.555 4.24299 -2.34936 0
M  V30 4004 H 381.434 4.46591 -1.14358 0
M  V30 4005 H 384.978 5.34594 -4.48168 0
M  V30 4006 H 380.875 5.56719 -3.26702 0
M  V30 4007 H 381.643 6.31951 -5.20173 0
M  V30 4008 N 384.306 0.507319 1.49211 0
M  V30 4009 C 385.236 -0.256939 2.32082 0
M  V30 4010 C 386.217 -0.956609 1.40652 0
M  V30 4011 O 387.402 -0.946788 1.69557 0
M  V30 4012 C 384.532 -1.31802 3.21318 0
M  V30 4013 C 383.486 -0.737855 4.21592 0
M  V30 4014 C 382.812 -1.89992 4.99807 0
M  V30 4015 C 384.112 0.275325 5.21574 0
M  V30 4016 H 385.806 0.434798 2.96226 0
M  V30 4017 H 383.352 0.210546 1.42452 0
M  V30 4018 H 385.305 -1.86045 3.78107 0
M  V30 4019 H 384.029 -2.03903 2.5513 0
M  V30 4020 H 382.688 -0.217126 3.65956 0
M  V30 4021 H 382.336 -2.60877 4.30061 0
M  V30 4022 H 382.036 -1.51777 5.6766 0
M  V30 4023 H 383.56 -2.44657 5.59442 0
M  V30 4024 H 384.974 -0.179193 5.7302 0
M  V30 4025 H 383.371 0.573649 5.97352 0
M  V30 4026 H 384.441 1.18903 4.70096 0
M  V30 4027 N 385.784 -1.5574 0.241426 0
M  V30 4028 C 386.717 -2.17168 -0.700935 0
M  V30 4029 C 387.695 -1.12206 -1.1768 0
M  V30 4030 O 388.879 -1.40565 -1.25593 0
M  V30 4031 C 386.006 -2.76796 -1.95196 0
M  V30 4032 C 385.052 -3.94764 -1.61442 0
M  V30 4033 S 385.885 -5.30613 -0.72182 0
M  V30 4034 C 387.041 -5.93691 -1.98197 0
M  V30 4035 H 387.274 -2.96761 -0.178882 0
M  V30 4036 H 384.807 -1.54378 0.0259299 0
M  V30 4037 H 386.765 -3.11787 -2.67019 0
M  V30 4038 H 385.426 -1.9716 -2.44514 0
M  V30 4039 H 384.619 -4.35057 -2.54443 0
M  V30 4040 H 384.221 -3.61022 -0.976672 0
M  V30 4041 H 386.513 -6.10874 -2.92983 0
M  V30 4042 H 387.456 -6.89258 -1.62262 0
M  V30 4043 H 387.864 -5.22709 -2.13156 0
M  V30 4044 N 387.262 0.0317525 -1.57568 0
M  V30 4045 C 388.487 0.738664 -1.938 0
M  V30 4046 C 388.912 1.68242 -0.841208 0
M  V30 4047 O 388.27 1.80157 0.203267 0
M  V30 4048 C 388.318 1.47417 -3.29091 0
M  V30 4049 O 387.422 2.5872 -3.2115 0
M  V30 4050 H 386.763 0.198856 -0.633524 0
M  V30 4051 H 389.293 -0.0119713 -2.04596 0
M  V30 4052 H 389.303 1.84468 -3.63917 0
M  V30 4053 H 387.978 0.781988 -4.08482 0
M  V30 4054 H 386.555 2.24231 -2.97951 0
M  V30 4055 N 388.74 1.54641 0.303973 0
M  V30 4056 C 389.703 1.84646 1.35789 0
M  V30 4057 C 390.703 0.7192 1.4382 0
M  V30 4058 O 391.893 0.987491 1.43507 0
M  V30 4059 C 389.025 2.02407 2.74307 0
M  V30 4060 H 390.218 2.78829 1.10429 0
M  V30 4061 H 387.771 1.46658 0.540487 0
M  V30 4062 H 388.506 1.10502 3.04893 0
M  V30 4063 H 388.291 2.84453 2.69868 0
M  V30 4064 H 389.781 2.27002 3.50514 0
M  V30 4065 N 390.218 -0.567019 1.47046 0
M  V30 4066 C 391.466 -1.322 1.52864 0
M  V30 4067 C 391.787 -1.94088 0.188388 0
M  V30 4068 O 391.057 -1.7941 -0.786693 0
M  V30 4069 H 389.637 -0.490894 0.563056 0
M  V30 4070 H 392.299 -0.662879 1.83281 0
M  V30 4071 H 391.395 -2.12062 2.2899 0
M  V30 4072 N 391.696 -1.35014 -0.812953 0
M  V30 4073 C 392.659 -1.27292 -1.90602 0
M  V30 4074 C 393.659 -0.185817 -1.59723 0
M  V30 4075 O 394.849 -0.439102 -1.68575 0
M  V30 4076 C 391.981 -0.967676 -3.26877 0
M  V30 4077 H 393.174 -2.24479 -1.9887 0
M  V30 4078 H 390.727 -1.19446 -1.00808 0
M  V30 4079 H 391.462 0.0005954 -3.243 0
M  V30 4080 H 391.247 -1.75412 -3.50675 0
M  V30 4081 H 392.737 -0.939085 -4.06904 0
M  V30 4082 N 393.175 1.03435 -1.18907 0
M  V30 4083 C 394.123 2.13703 -0.918353 0
M  V30 4084 C 395.117 1.68947 0.123767 0
M  V30 4085 O 396.323 1.79983 -0.0249701 0
M  V30 4086 H 392.698 0.698112 -0.279542 0
M  V30 4087 H 394.669 2.33731 -1.85506 0
M  V30 4088 C 393.418 3.44542 -0.467532 0
M  V30 4089 H 392.741 3.79394 -1.26095 0
M  V30 4090 H 394.181 4.22812 -0.317164 0
M  V30 4091 C 392.64 3.26829 0.817588 0
M  V30 4092 O 393.17 3.54975 1.88031 0
M  V30 4093 N 391.376 2.80139 0.772677 0
M  V30 4094 H 390.923 2.57434 -0.0923883 0
M  V30 4095 H 390.881 2.68668 1.63294 0
M  V30 4096 N 394.653 0.992116 1.22453 0
M  V30 4097 C 395.902 0.662992 1.90492 0
M  V30 4098 C 396.215 -0.808407 1.78113 0
M  V30 4099 O 397.421 -1.24908 2.41061 0
M  V30 4100 C 395.877 1.1353 3.41524 0
M  V30 4101 C 395.485 2.63187 3.62542 0
M  V30 4102 C 397.229 0.880465 4.15269 0
M  V30 4103 C 395.136 3.04024 5.0727 0
M  V30 4104 H 394.066 0.244278 0.713333 0
M  V30 4105 H 396.717 1.20157 1.38688 0
M  V30 4106 H 395.099 0.52485 3.92506 0
M  V30 4107 H 396.273 3.2957 3.22056 0
M  V30 4108 H 394.588 2.86543 3.02129 0
M  V30 4109 H 397.185 1.16128 5.21937 0
M  V30 4110 H 397.528 -0.183408 4.15896 0
M  V30 4111 H 398.061 1.45307 3.70312 0
M  V30 4112 H 394.8 4.09584 5.11782 0
M  V30 4113 H 394.32 2.42343 5.48662 0
M  V30 4114 H 395.999 2.95282 5.75689 0
M  V30 4115 N 396.131 -1.37776 0.765217 0
M  V30 4116 C 397.356 -2.04651 0.336537 0
M  V30 4117 C 397.781 -1.57337 -1.03086 0
M  V30 4118 O 397.139 -0.730621 -1.65927 0
M  V30 4119 C 397.187 -3.58577 0.381468 0
M  V30 4120 O 396.291 -4.07706 -0.62042 0
M  V30 4121 H 395.632 -0.64756 0.146838 0
M  V30 4122 H 398.162 -1.76221 1.03959 0
M  V30 4123 H 398.172 -4.07314 0.236448 0
M  V30 4124 H 396.847 -3.9237 1.37907 0
M  V30 4125 H 395.424 -3.70306 -0.439056 0
M  V30 4126 N 397.609 -0.515225 -1.4894 0
M  V30 4127 C 398.837 0.0206034 -2.0689 0
M  V30 4128 C 399.252 1.29514 -1.37374 0
M  V30 4129 O 398.609 1.76698 -0.456529 0
M  V30 4130 C 398.66 0.26351 -3.60538 0
M  V30 4131 O 398.381 -0.960517 -4.27441 0
M  V30 4132 C 399.882 0.841383 -4.35242 0
M  V30 4133 H 397.102 -0.0268608 -0.670462 0
M  V30 4134 H 399.646 -0.716651 -1.91532 0
M  V30 4135 H 397.801 0.950777 -3.75552 0
M  V30 4136 H 398.215 -0.73212 -5.19365 0
M  V30 4137 H 399.689 0.96085 -5.43573 0
M  V30 4138 H 400.166 1.8427 -3.98674 0
M  V30 4139 H 400.772 0.191143 -4.2487 0
M  V30 4140 N 399.087 1.5561 -0.249682 0
M  V30 4141 C 400.333 2.00044 0.367952 0
M  V30 4142 C 400.688 1.1349 1.55363 0
M  V30 4143 O 399.981 0.191079 1.90645 0
M  V30 4144 C 400.175 3.4775 0.824887 0
M  V30 4145 C 400.004 4.48596 -0.314973 0
M  V30 4146 C 398.774 4.99077 -0.790555 0
M  V30 4147 C 400.972 5.0144 -1.14291 0
M  V30 4148 N 398.954 5.83675 -1.90254 0
M  V30 4149 C 400.325 5.83236 -2.10322 0
M  V30 4150 C 402.38 4.83736 -1.17916 0
M  V30 4151 C 401.083 6.49217 -3.09692 0
M  V30 4152 C 403.109 5.50497 -2.16117 0
M  V30 4153 C 402.471 6.32084 -3.10884 0
M  V30 4154 H 398.57 0.775512 0.100522 0
M  V30 4155 H 401.154 1.91193 -0.367896 0
M  V30 4156 H 399.325 3.56994 1.53002 0
M  V30 4157 H 401.057 3.79056 1.4177 0
M  V30 4158 H 397.812 4.72119 -0.374218 0
M  V30 4159 H 398.236 6.30671 -2.46137 0
M  V30 4160 H 402.878 4.20286 -0.460352 0
M  V30 4161 H 400.596 7.11832 -3.8252 0
M  V30 4162 H 404.182 5.38752 -2.19631 0
M  V30 4163 H 403.062 6.82832 -3.8563 0
M  V30 4164 N 400.565 -0.0233959 1.57583 0
M  V30 4165 C 401.811 -0.714119 1.89811 0
M  V30 4166 C 402.144 -1.74702 0.848113 0
M  V30 4167 O 401.419 -1.94023 -0.136135 0
M  V30 4168 C 401.702 -1.37853 3.32669 0
M  V30 4169 C 401.555 -0.358764 4.48367 0
M  V30 4170 C 402.874 -2.31101 3.7454 0
M  V30 4171 H 399.993 -0.25814 0.690314 0
M  V30 4172 H 402.635 0.0230927 1.89986 0
M  V30 4173 H 400.785 -2.00689 3.3265 0
M  V30 4174 H 402.457 0.268115 4.6052 0
M  V30 4175 H 400.7 0.321387 4.32608 0
M  V30 4176 H 401.371 -0.862242 5.45224 0
M  V30 4177 H 403.847 -1.78304 3.75961 0
M  V30 4178 H 402.723 -2.74567 4.75294 0
M  V30 4179 H 402.984 -3.18018 3.0711 0
M  V30 4180 N 402.043 -1.548 -0.295768 0
M  V30 4181 C 403.273 -1.78069 -1.04762 0
M  V30 4182 C 403.681 -0.542847 -1.81245 0
M  V30 4183 O 403.024 0.497051 -1.76848 0
M  V30 4184 C 403.086 -2.93881 -2.07061 0
M  V30 4185 C 402.75 -4.31777 -1.49725 0
M  V30 4186 C 403.747 -5.11613 -0.924581 0
M  V30 4187 C 401.432 -4.78389 -1.5313 0
M  V30 4188 C 403.426 -6.36184 -0.393594 0
M  V30 4189 C 401.113 -6.02921 -0.996447 0
M  V30 4190 C 402.111 -6.81654 -0.428569 0
M  V30 4191 O 401.799 -8.0384 0.0981593 0
M  V30 4192 H 401.531 -0.597475 -0.316226 0
M  V30 4193 H 404.085 -2.02584 -0.338973 0
M  V30 4194 H 402.315 -2.65003 -2.81621 0
M  V30 4195 H 404.004 -3.04679 -2.6819 0
M  V30 4196 H 404.77 -4.76743 -0.891136 0
M  V30 4197 H 400.649 -4.17132 -1.9627 0
M  V30 4198 H 404.193 -6.97582 0.0503014 0
M  V30 4199 H 400.09 -6.37277 -1.02706 0
M  V30 4200 H 400.858 -8.18499 -0.0146455 0
M  V30 4201 N 403.521 0.559213 -1.47345 0
M  V30 4202 C 404.746 1.34676 -1.57725 0
M  V30 4203 C 405.171 1.86723 -0.227164 0
M  V30 4204 O 404.529 1.6286 0.796642 0
M  V30 4205 C 404.577 2.49399 -2.60447 0
M  V30 4206 O 403.681 3.51567 -2.15578 0
M  V30 4207 H 403.022 0.400115 -0.52991 0
M  V30 4208 H 405.552 0.676009 -1.93109 0
M  V30 4209 H 405.562 2.95996 -2.80803 0
M  V30 4210 H 404.237 2.10873 -3.58477 0
M  V30 4211 H 402.814 3.11289 -2.05313 0
M  V30 4212 N 404.999 1.35443 0.805782 0
M  V30 4213 C 406.224 1.32037 1.59941 0
M  V30 4214 C 406.649 -0.0994215 1.87837 0
M  V30 4215 O 406.007 -1.06648 1.46615 0
M  V30 4216 C 406.055 2.13354 2.90711 0
M  V30 4217 O 405.159 1.5148 3.83572 0
M  V30 4218 H 404.5 0.452666 0.485787 0
M  V30 4219 H 407.03 1.78496 1.00002 0
M  V30 4220 H 407.04 2.25338 3.40128 0
M  V30 4221 H 405.715 3.16572 2.69732 0
M  V30 4222 H 404.292 1.4834 3.42125 0
M  V30 4223 N 406.477 -1.02803 1.19454 0
M  V30 4224 C 407.888 -1.57667 0.999899 0
M  V30 4225 C 408.239 -1.91041 -0.446956 0
M  V30 4226 O 407.364 -1.70978 -1.32648 0
M  V30 4227 C 407.959 -2.86477 1.80877 0
M  V30 4228 C 406.518 -3.37911 1.65811 0
M  V30 4229 C 405.665 -2.11343 1.79526 0
M  V30 4230 H 408.616 -0.853214 1.33813 0
M  V30 4231 H 408.637 -3.57408 1.30536 0
M  V30 4232 H 408.149 -2.62155 2.86175 0
M  V30 4233 H 406.25 -3.67218 0.63102 0
M  V30 4234 H 406.363 -4.10885 2.46395 0
M  V30 4235 H 404.727 -2.23254 1.22596 0
M  V30 4236 H 405.51 -1.89461 2.86285 0
M  V30 4237 N 407.956 -0.998596 -1.21925 0
M  V30 4238 C 409.204 -0.676325 -1.90448 0
M  V30 4239 C 409.525 0.794719 -1.78071 0
M  V30 4240 O 408.795 1.5701 -1.17152 0
M  V30 4241 H 407.375 -0.247165 -0.704925 0
M  V30 4242 H 410.037 -1.26633 -1.48156 0
M  V30 4243 H 409.133 -0.943858 -2.97486 0
M  V30 4244 N 409.434 1.37368 -0.772513 0
M  V30 4245 C 410.85 1.53059 -0.452231 0
M  V30 4246 C 411.05 1.73065 1.03203 0
M  V30 4247 O 410.106 1.75245 1.81784 0
M  V30 4248 C 411.419 2.72659 -1.26797 0
M  V30 4249 C 412.967 2.86521 -1.25995 0
M  V30 4250 C 413.442 4.09105 -2.05905 0
M  V30 4251 N 414.933 4.16219 -2.03263 0
M  V30 4252 C 415.668 5.10107 -2.61875 0
M  V30 4253 N 415.164 6.09547 -3.29278 0
M  V30 4254 N 416.957 5.02596 -2.51701 0
M  V30 4255 H 409.108 1.22634 -1.7342 0
M  V30 4256 H 411.371 0.597206 -0.736239 0
M  V30 4257 H 411.077 2.64343 -2.31982 0
M  V30 4258 H 410.951 3.66363 -0.897672 0
M  V30 4259 H 413.338 2.94308 -0.216081 0
M  V30 4260 H 413.419 1.93774 -1.66989 0
M  V30 4261 H 413.063 4.0208 -3.10313 0
M  V30 4262 H 412.993 5.00968 -1.62292 0
M  V30 4263 H 415.484 3.45012 -1.54192 0
M  V30 4264 H 415.797 6.77718 -3.71374 0
M  V30 4265 H 414.142 6.09824 -3.33377 0
M  V30 4266 H 417.333 4.23855 -1.98657 0
M  V30 4267 H 417.506 5.75582 -2.97673 0
M  V30 4268 N 410.912 0.523116 1.48665 0
M  V30 4269 C 411.862 -0.263106 2.26477 0
M  V30 4270 C 412.846 -0.916005 1.32281 0
M  V30 4271 O 414.038 -0.819946 1.56863 0
M  V30 4272 C 411.167 -1.31361 3.17174 0
M  V30 4273 C 410.253 -0.665849 4.1884 0
M  V30 4274 N 410.644 0.244434 5.05209 0
M  V30 4275 C 408.942 -0.923863 4.36326 0
M  V30 4276 C 409.643 0.617443 5.78414 0
M  V30 4277 N 408.619 -0.0198686 5.43596 0
M  V30 4278 H 412.421 0.437295 2.90629 0
M  V30 4279 H 409.935 0.340675 1.58787 0
M  V30 4280 H 411.932 -1.89052 3.71571 0
M  V30 4281 H 410.592 -2.01546 2.54576 0
M  V30 4282 H 411.603 0.616621 5.14216 0
M  V30 4283 H 408.28 -1.6168 3.84923 0
M  V30 4284 H 409.67 1.36346 6.57921 0
M  V30 4285 N 412.39 -1.55475 0.257931 0
M  V30 4286 C 413.3 -2.2549 -0.647425 0
M  V30 4287 C 414.316 -1.2748 -1.18427 0
M  V30 4288 O 415.492 -1.6038 -1.2182 0
M  V30 4289 C 412.557 -2.94916 -1.82278 0
M  V30 4290 C 411.618 -4.08363 -1.32432 0
M  V30 4291 C 410.851 -4.74469 -2.44366 0
M  V30 4292 O 411.074 -4.39701 -3.63344 0
M  V30 4293 O 410.008 -5.62763 -2.13497 0
M  V30 4294 H 413.834 -3.03593 -0.0807707 0
M  V30 4295 H 411.419 -1.49377 0.0259962 0
M  V30 4296 H 413.301 -3.38606 -2.50846 0
M  V30 4297 H 411.976 -2.19744 -2.37685 0
M  V30 4298 H 410.883 -3.69166 -0.605605 0
M  V30 4299 H 412.216 -4.85385 -0.816211 0
M  V30 4300 N 413.868 0.0150385 -1.57593 0
M  V30 4301 C 415.116 0.701613 -1.8953 0
M  V30 4302 C 415.437 1.75139 -0.857396 0
M  V30 4303 O 414.707 1.95607 0.107194 0
M  V30 4304 H 413.287 0.26213 -0.699498 0
M  V30 4305 H 415.949 -0.0223304 -1.94887 0
M  V30 4306 H 415.045 1.18236 -2.88837 0
M  V30 4307 N 415.346 1.54954 0.287554 0
M  V30 4308 C 416.278 1.83224 1.37701 0
M  V30 4309 C 417.291 0.715898 1.46215 0
M  V30 4310 O 418.48 0.993565 1.48292 0
M  V30 4311 C 415.58 1.96723 2.75959 0
M  V30 4312 C 414.753 3.27253 2.90215 0
M  V30 4313 C 413.812 3.30998 4.09056 0
M  V30 4314 O 412.838 4.04457 4.00503 0
M  V30 4315 N 414.04 2.57353 5.20336 0
M  V30 4316 H 416.805 2.77254 1.138 0
M  V30 4317 H 414.366 1.54694 0.477652 0
M  V30 4318 H 416.358 1.96615 3.5373 0
M  V30 4319 H 414.928 1.09626 2.92747 0
M  V30 4320 H 414.148 3.40022 1.99447 0
M  V30 4321 H 415.436 4.13365 2.96659 0
M  V30 4322 H 414.834 1.97327 5.30169 0
M  V30 4323 H 413.391 2.62984 5.96391 0
M  V30 4324 N 416.824 -0.551391 1.4764 0
M  V30 4325 C 417.734 -1.68525 1.63207 0
M  V30 4326 C 418.75 -1.6621 0.514815 0
M  V30 4327 O 419.926 -1.85551 0.783113 0
M  V30 4328 C 416.991 -3.05025 1.64805 0
M  V30 4329 C 416.052 -3.18362 2.88 0
M  V30 4330 C 415.285 -4.4835 2.89513 0
M  V30 4331 O 415.508 -5.34163 2.00065 0
M  V30 4332 O 414.442 -4.65602 3.81443 0
M  V30 4333 H 418.268 -1.58333 2.59161 0
M  V30 4334 H 415.853 -0.722063 1.30792 0
M  V30 4335 H 417.735 -3.86245 1.68502 0
M  V30 4336 H 416.41 -3.15587 0.720197 0
M  V30 4337 H 415.317 -2.36518 2.89845 0
M  V30 4338 H 416.65 -3.12707 3.80099 0
M  V30 4339 N 418.302 -1.35869 -0.798587 0
M  V30 4340 C 419.713 -1.26498 -1.37314 0
M  V30 4341 C 420.064 0.0991899 -1.95949 0
M  V30 4342 O 419.189 1.0004 -1.91888 0
M  V30 4343 C 419.784 -2.29054 -2.49639 0
M  V30 4344 C 418.343 -2.234 -3.02935 0
M  V30 4345 C 417.49 -2.14329 -1.75949 0
M  V30 4346 H 420.441 -1.46881 -0.600971 0
M  V30 4347 H 420.462 -1.92166 -3.28409 0
M  V30 4348 H 419.974 -3.2833 -2.06933 0
M  V30 4349 H 418.075 -1.27562 -3.50084 0
M  V30 4350 H 418.188 -3.15703 -3.60372 0
M  V30 4351 H 416.552 -1.60435 -1.9782 0
M  V30 4352 H 417.335 -3.15477 -1.35384 0
M  V30 4353 N 419.78 1.02168 -1.19998 0
M  V30 4354 C 421.027 1.75685 -1.00702 0
M  V30 4355 C 421.355 1.88947 0.461426 0
M  V30 4356 O 420.61 1.40832 1.35885 0
M  V30 4357 C 420.909 3.18081 -1.62969 0
M  V30 4358 C 420.575 3.24809 -3.12746 0
M  V30 4359 C 419.237 3.26352 -3.53621 0
M  V30 4360 C 421.589 3.23379 -4.08749 0
M  V30 4361 C 418.917 3.2413 -4.89036 0
M  V30 4362 C 421.269 3.22698 -5.44104 0
M  V30 4363 C 419.933 3.22542 -5.84399 0
M  V30 4364 H 419.203 0.642877 -0.368496 0
M  V30 4365 H 421.85 1.19865 -1.49348 0
M  V30 4366 H 420.155 3.77027 -1.06573 0
M  V30 4367 H 421.852 3.73648 -1.45561 0
M  V30 4368 H 418.442 3.2434 -2.80181 0
M  V30 4369 H 422.626 3.21361 -3.78207 0
M  V30 4370 H 417.882 3.22338 -5.19527 0
M  V30 4371 H 422.056 3.20543 -6.18244 0
M  V30 4372 H 419.683 3.20575 -6.89301 0
M  V30 4373 N 421.258 1.00505 1.21394 0
M  V30 4374 C 422.188 0.585684 2.26035 0
M  V30 4375 C 423.169 -0.393525 1.65485 0
M  V30 4376 O 424.354 -0.281497 1.92149 0
M  V30 4377 C 421.484 -0.0884283 3.47187 0
M  V30 4378 C 420.438 0.810567 4.20254 0
M  V30 4379 C 419.764 0.00286382 5.347 0
M  V30 4380 C 421.064 2.1132 4.77641 0
M  V30 4381 H 422.758 1.46039 2.61368 0
M  V30 4382 H 420.304 0.703648 1.25638 0
M  V30 4383 H 422.257 -0.393286 4.19561 0
M  V30 4384 H 420.981 -0.997766 3.10986 0
M  V30 4385 H 419.64 1.09925 3.49731 0
M  V30 4386 H 419.288 -0.907765 4.94741 0
M  V30 4387 H 418.988 0.601444 5.84514 0
M  V30 4388 H 420.512 -0.295808 6.09883 0
M  V30 4389 H 421.926 1.87148 5.41893 0
M  V30 4390 H 420.323 2.66164 5.37845 0
M  V30 4391 H 421.393 2.78393 3.9702 0
M  V30 4392 N 422.737 -1.36956 0.779787 0
M  V30 4393 C 423.669 -2.28833 0.129639 0
M  V30 4394 C 424.682 -1.4902 -0.655511 0
M  V30 4395 O 425.871 -1.71578 -0.492279 0
M  V30 4396 C 422.971 -3.2833 -0.839792 0
M  V30 4397 C 422.144 -4.3727 -0.10675 0
M  V30 4398 C 421.203 -5.16789 -0.990717 0
M  V30 4399 O 420.229 -5.67406 -0.451516 0
M  V30 4400 N 421.431 -5.32294 -2.3161 0
M  V30 4401 H 424.196 -2.85268 0.918803 0
M  V30 4402 H 421.757 -1.49019 0.632841 0
M  V30 4403 H 423.749 -3.78413 -1.43477 0
M  V30 4404 H 422.319 -2.72605 -1.52988 0
M  V30 4405 H 421.539 -3.88478 0.669216 0
M  V30 4406 H 422.827 -5.07229 0.399464 0
M  V30 4407 H 422.225 -4.92768 -2.77843 0
M  V30 4408 H 420.782 -5.85656 -2.86095 0
M  V30 4409 N 424.215 -0.530993 -1.48385 0
M  V30 4410 C 425.461 -0.00538653 -2.03399 0
M  V30 4411 C 425.816 1.31899 -1.40073 0
M  V30 4412 O 425.109 1.83901 -0.537676 0
M  V30 4413 C 425.303 0.172742 -3.56982 0
M  V30 4414 C 425.132 -1.13282 -4.35198 0
M  V30 4415 C 423.902 -1.69296 -4.76096 0
M  V30 4416 C 426.1 -2.04367 -4.71952 0
M  V30 4417 N 424.082 -2.9413 -5.38851 0
M  V30 4418 C 425.453 -3.13777 -5.34737 0
M  V30 4419 C 427.508 -2.04681 -4.53883 0
M  V30 4420 C 426.211 -4.23567 -5.81363 0
M  V30 4421 C 428.237 -3.13466 -5.01491 0
M  V30 4422 C 427.599 -4.21595 -5.64302 0
M  V30 4423 H 423.698 -0.0434945 -0.780789 0
M  V30 4424 H 426.282 -0.712495 -1.81195 0
M  V30 4425 H 424.453 0.848937 -3.79009 0
M  V30 4426 H 426.185 0.698046 -3.98634 0
M  V30 4427 H 422.94 -1.23422 -4.57235 0
M  V30 4428 H 423.364 -3.57689 -5.74794 0
M  V30 4429 H 428.006 -1.22378 -4.04702 0
M  V30 4430 H 425.724 -5.06648 -6.2955 0
M  V30 4431 H 429.31 -3.14765 -4.893 0
M  V30 4432 H 428.19 -5.04384 -6.00472 0
M  V30 4433 N 425.693 1.55336 -0.266172 0
M  V30 4434 C 426.623 2.25146 0.618981 0
M  V30 4435 C 427.604 1.23845 1.16604 0
M  V30 4436 O 428.789 1.52544 1.20183 0
M  V30 4437 C 425.919 2.96572 1.80728 0
M  V30 4438 C 424.873 4.04726 1.39215 0
M  V30 4439 C 424.199 4.63678 2.66283 0
M  V30 4440 C 425.499 5.19407 0.548942 0
M  V30 4441 H 427.193 2.99377 0.0368116 0
M  V30 4442 H 424.739 1.43991 0.0162651 0
M  V30 4443 H 426.692 3.44116 2.43232 0
M  V30 4444 H 425.416 2.19861 2.41514 0
M  V30 4445 H 424.075 3.57979 0.790351 0
M  V30 4446 H 423.723 3.83646 3.25308 0
M  V30 4447 H 423.423 5.367 2.39222 0
M  V30 4448 H 424.947 5.13967 3.29651 0
M  V30 4449 H 426.361 5.63059 1.07876 0
M  V30 4450 H 424.758 5.98936 0.373593 0
M  V30 4451 H 425.828 4.8295 -0.434394 0
M  V30 4452 N 427.171 -0.0066808 1.57599 0
M  V30 4453 C 428.104 -1.03397 2.03431 0
M  V30 4454 C 429.082 -1.33872 0.922877 0
M  V30 4455 O 430.266 -1.4615 1.19048 0
M  V30 4456 C 427.393 -2.36325 2.42628 0
M  V30 4457 C 426.439 -2.21557 3.64438 0
M  V30 4458 S 427.272 -1.54789 5.12641 0
M  V30 4459 C 428.428 -2.8916 5.55101 0
M  V30 4460 H 428.661 -0.643687 2.90248 0
M  V30 4461 H 426.194 -0.217349 1.52863 0
M  V30 4462 H 428.152 -3.12759 2.65879 0
M  V30 4463 H 426.813 -2.72495 1.56222 0
M  V30 4464 H 426.006 -3.1974 3.89592 0
M  V30 4465 H 425.608 -1.53267 3.41153 0
M  V30 4466 H 427.9 -3.8547 5.57153 0
M  V30 4467 H 428.843 -2.68713 6.55133 0
M  V30 4468 H 429.251 -2.92762 4.82649 0
M  V30 4469 N 428.649 -1.55105 -0.279332 0
M  V30 4470 C 429.579 -1.90557 -1.34945 0
M  V30 4471 C 430.56 -0.766738 -1.51839 0
M  V30 4472 O 431.745 -1.02434 -1.64988 0
M  V30 4473 C 428.875 -2.17193 -2.71006 0
M  V30 4474 C 427.829 -3.33021 -2.68851 0
M  V30 4475 C 427.155 -3.45123 -4.08405 0
M  V30 4476 C 428.455 -4.69578 -2.28678 0
M  V30 4477 H 430.149 -2.80188 -1.05522 0
M  V30 4478 H 427.695 -1.34811 -0.506173 0
M  V30 4479 H 429.648 -2.40581 -3.45975 0
M  V30 4480 H 428.372 -1.24355 -3.01999 0
M  V30 4481 H 427.031 -3.0959 -1.9634 0
M  V30 4482 H 426.679 -2.49762 -4.3661 0
M  V30 4483 H 426.379 -4.22995 -4.07859 0
M  V30 4484 H 427.903 -3.70796 -4.85121 0
M  V30 4485 H 429.317 -4.92553 -2.93368 0
M  V30 4486 H 427.714 -5.5032 -2.39306 0
M  V30 4487 H 428.784 -4.68828 -1.23807 0
M  V30 4488 N 430.127 0.543554 -1.4793 0
M  V30 4489 C 431.057 1.65888 -1.64327 0
M  V30 4490 C 432.038 1.62818 -0.492383 0
M  V30 4491 O 433.223 1.80226 -0.723338 0
M  V30 4492 C 430.353 3.04506 -1.67013 0
M  V30 4493 C 429.307 3.2243 -2.81466 0
M  V30 4494 C 428.633 4.61972 -2.69233 0
M  V30 4495 C 429.933 3.06496 -4.22915 0
M  V30 4496 H 431.627 1.52421 -2.57698 0
M  V30 4497 H 429.173 0.731849 -1.24016 0
M  V30 4498 H 431.126 3.82391 -1.77074 0
M  V30 4499 H 429.85 3.18964 -0.70212 0
M  V30 4500 H 428.509 2.46957 -2.70938 0
M  V30 4501 H 428.157 4.73247 -1.7043 0
M  V30 4502 H 427.857 4.74911 -3.46025 0
M  V30 4503 H 429.381 5.41974 -2.81242 0
M  V30 4504 H 430.795 3.74186 -4.34348 0
M  V30 4505 H 429.192 3.30938 -5.006 0
M  V30 4506 H 430.262 2.03077 -4.40327 0
M  V30 4507 N 431.605 1.3629 0.791371 0
M  V30 4508 C 432.83 1.33726 1.58531 0
M  V30 4509 C 433.255 -0.0794933 1.87932 0
M  V30 4510 O 432.613 -1.05087 1.47738 0
M  V30 4511 C 432.661 2.16425 2.88431 0
M  V30 4512 O 431.765 1.5554 3.81944 0
M  V30 4513 H 431.106 0.457793 0.480959 0
M  V30 4514 H 433.636 1.79547 0.981031 0
M  V30 4515 H 433.646 2.28933 3.37718 0
M  V30 4516 H 432.321 3.19415 2.66359 0
M  V30 4517 H 430.898 1.51961 3.40532 0
M  V30 4518 N 433.083 -1.0153 1.20538 0
M  V30 4519 C 434.031 -2.12215 0.952235 0
M  V30 4520 C 435.025 -1.69123 -0.0968735 0
M  V30 4521 O 436.231 -1.7992 0.0536006 0
M  V30 4522 H 432.606 -0.693576 0.290613 0
M  V30 4523 H 434.577 -2.3075 1.89201 0
M  V30 4524 C 433.326 -3.43755 0.522287 0
M  V30 4525 H 432.649 -3.7734 1.32115 0
M  V30 4526 H 434.089 -4.22254 0.384389 0
M  V30 4527 C 432.548 -3.28088 -0.765489 0
M  V30 4528 O 433.078 -3.57921 -1.8236 0
M  V30 4529 N 431.284 -2.81333 -0.728011 0
M  V30 4530 H 430.831 -2.57255 0.133332 0
M  V30 4531 H 430.789 -2.71232 -1.58999 0
M  V30 4532 N 434.561 -1.01147 -1.20859 0
M  V30 4533 C 435.471 -0.58686 -2.27141 0
M  V30 4534 C 436.487 0.373198 -1.69951 0
M  V30 4535 O 437.663 0.235423 -2.00019 0
M  V30 4536 C 434.728 0.0733602 -3.46622 0
M  V30 4537 C 433.789 -0.931995 -4.19061 0
M  V30 4538 C 433.022 -0.303186 -5.32838 0
M  V30 4539 O 433.245 0.898395 -5.63281 0
M  V30 4540 O 432.179 -1.01735 -5.9324 0
M  V30 4541 H 436.005 -1.47155 -2.65667 0
M  V30 4542 H 433.59 -0.780689 -1.2738 0
M  V30 4543 H 435.472 0.442333 -4.19072 0
M  V30 4544 H 434.147 0.932329 -3.09983 0
M  V30 4545 H 433.054 -1.35224 -3.48805 0
M  V30 4546 H 434.387 -1.76076 -4.59628 0
M  V30 4547 N 436.039 1.36541 -0.78704 0
M  V30 4548 C 437.264 2.0409 -0.369053 0
M  V30 4549 C 437.689 1.58957 1.00569 0
M  V30 4550 O 437.047 0.756926 1.64743 0
M  V30 4551 C 437.095 3.57924 -0.438466 0
M  V30 4552 O 436.199 4.08642 0.555479 0
M  V30 4553 H 435.54 0.645142 -0.157122 0
M  V30 4554 H 438.07 1.74545 -1.06749 0
M  V30 4555 H 438.08 4.06887 -0.301218 0
M  V30 4556 H 436.755 3.90127 -1.44132 0
M  V30 4557 H 435.332 3.70958 0.380088 0
M  V30 4558 N 437.518 0.538854 1.48102 0
M  V30 4559 C 438.481 -0.208395 2.28251 0
M  V30 4560 C 439.481 -0.859656 1.35892 0
M  V30 4561 O 440.671 -0.71834 1.58699 0
M  V30 4562 C 437.803 -1.30252 3.15035 0
M  V30 4563 H 438.996 0.495407 2.9578 0
M  V30 4564 H 436.549 0.295112 1.53489 0
M  V30 4565 H 437.284 -2.0393 2.52157 0
M  V30 4566 H 437.069 -0.840551 3.82985 0
M  V30 4567 H 438.559 -1.82787 3.75471 0
M  V30 4568 N 438.996 -1.55193 0.274407 0
M  V30 4569 C 439.926 -2.25471 -0.607032 0
M  V30 4570 C 440.907 -1.24461 -1.15946 0
M  V30 4571 O 442.092 -1.53179 -1.19373 0
M  V30 4572 C 439.222 -2.97526 -1.79153 0
M  V30 4573 C 438.176 -4.05459 -1.37067 0
M  V30 4574 C 437.502 -4.65084 -2.6382 0
M  V30 4575 C 438.802 -5.19691 -0.521389 0
M  V30 4576 H 440.496 -2.99393 -0.0209343 0
M  V30 4577 H 438.042 -1.43997 -0.00862866 0
M  V30 4578 H 439.995 -3.45402 -2.41404 0
M  V30 4579 H 438.719 -2.21138 -2.40344 0
M  V30 4580 H 437.378 -3.58393 -0.771355 0
M  V30 4581 H 437.026 -3.85365 -3.23268 0
M  V30 4582 H 436.726 -5.37961 -2.36372 0
M  V30 4583 H 438.25 -5.15708 -3.26921 0
M  V30 4584 H 439.664 -5.63623 -1.04889 0
M  V30 4585 H 438.061 -5.99126 -0.341825 0
M  V30 4586 H 439.131 -4.82713 0.46 0
M  V30 4587 N 440.474 -0.00167713 -1.576 0
M  V30 4588 C 441.885 0.54091 -1.78693 0
M  V30 4589 C 442.236 1.7386 -0.909247 0
M  V30 4590 O 441.361 2.16109 -0.112176 0
M  V30 4591 C 441.956 0.98806 -3.24072 0
M  V30 4592 C 440.515 1.47594 -3.46256 0
M  V30 4593 C 439.662 0.42792 -2.73978 0
M  V30 4594 H 442.613 -0.22784 -1.57056 0
M  V30 4595 H 442.634 1.85398 -3.32277 0
M  V30 4596 H 442.146 0.116164 -3.87926 0
M  V30 4597 H 440.247 2.36868 -2.87618 0
M  V30 4598 H 440.36 1.50225 -4.54939 0
M  V30 4599 H 438.724 0.889934 -2.38647 0
M  V30 4600 H 439.507 -0.435038 -3.40532 0
M  V30 4601 N 441.952 1.55251 0.271103 0
M  V30 4602 C 442.902 1.84649 1.33749 0
M  V30 4603 C 443.886 0.705529 1.44607 0
M  V30 4604 O 445.078 0.966916 1.48256 0
M  V30 4605 C 442.207 2.12354 2.69742 0
M  V30 4606 C 441.293 3.32714 2.62988 0
M  V30 4607 N 441.684 4.52575 2.25853 0
M  V30 4608 C 439.982 3.35341 2.94045 0
M  V30 4609 C 440.683 5.34669 2.29136 0
M  V30 4610 N 439.659 4.73123 2.67685 0
M  V30 4611 H 443.461 2.74865 1.0405 0
M  V30 4612 H 440.975 1.55152 0.479738 0
M  V30 4613 H 442.972 2.31572 3.4667 0
M  V30 4614 H 441.632 1.23422 3.00328 0
M  V30 4615 H 442.643 4.78639 1.978 0
M  V30 4616 H 439.32 2.56608 3.2933 0
M  V30 4617 H 440.71 6.40509 2.02971 0
M  V30 4618 N 443.43 -0.535701 1.48216 0
M  V30 4619 C 444.676 -1.29375 1.56173 0
M  V30 4620 C 445.009 -1.92804 0.232429 0
M  V30 4621 O 444.284 -1.78992 -0.761048 0
M  V30 4622 C 444.567 -2.38747 2.69577 0
M  V30 4623 C 444.42 -1.80046 4.12193 0
M  V30 4624 C 445.739 -3.40551 2.78771 0
M  V30 4625 H 442.858 -0.469027 0.568491 0
M  V30 4626 H 445.5 -0.597358 1.80365 0
M  V30 4627 H 443.65 -2.98147 2.4908 0
M  V30 4628 H 445.322 -1.24742 4.44114 0
M  V30 4629 H 443.565 -1.10609 4.19462 0
M  V30 4630 H 444.236 -2.59212 4.87353 0
M  V30 4631 H 446.712 -2.91099 2.97322 0
M  V30 4632 H 445.588 -4.1448 3.59857 0
M  V30 4633 H 445.849 -4.00746 1.86696 0
M  V30 4634 N 444.908 -1.36708 -0.784132 0
M  V30 4635 C 445.858 -1.2799 -1.88686 0
M  V30 4636 C 446.842 -0.170282 -1.59996 0
M  V30 4637 O 448.034 -0.403571 -1.72338 0
M  V30 4638 C 445.163 -1.07674 -3.25977 0
M  V30 4639 C 444.249 -2.23127 -3.60659 0
M  V30 4640 N 444.64 -3.48467 -3.66612 0
M  V30 4641 C 442.938 -2.15009 -3.90752 0
M  V30 4642 C 443.639 -4.24525 -3.97685 0
M  V30 4643 N 442.615 -3.53524 -4.12943 0
M  V30 4644 H 446.417 -2.22927 -1.91522 0
M  V30 4645 H 443.931 -1.29503 -0.979933 0
M  V30 4646 H 445.928 -0.995151 -4.04849 0
M  V30 4647 H 444.588 -0.13643 -3.24413 0
M  V30 4648 H 445.599 -3.82534 -3.49125 0
M  V30 4649 H 442.276 -1.28963 -3.97083 0
M  V30 4650 H 443.666 -5.32944 -4.0917 0
M  V30 4651 N 446.386 1.0089 -1.21074 0
M  V30 4652 C 447.614 1.78191 -1.05145 0
M  V30 4653 C 448.029 1.84537 0.398952 0
M  V30 4654 O 447.386 1.30393 1.27687 0
M  V30 4655 C 447.437 3.22288 -1.63746 0
M  V30 4656 O 447.158 3.16315 -3.03111 0
M  V30 4657 C 448.659 4.16106 -1.52875 0
M  V30 4658 H 445.879 0.560129 -0.369454 0
M  V30 4659 H 448.423 1.26945 -1.60328 0
M  V30 4660 H 446.578 3.70655 -1.12664 0
M  V30 4661 H 446.992 4.06817 -3.31059 0
M  V30 4662 H 448.466 5.15026 -1.98626 0
M  V30 4663 H 448.943 4.36541 -0.482521 0
M  V30 4664 H 449.549 3.73625 -2.03185 0
M  V30 4665 N 447.864 1.01787 1.20321 0
M  V30 4666 C 449.11 0.708985 1.90003 0
M  V30 4667 C 449.443 -0.759572 1.78729 0
M  V30 4668 O 448.718 -1.55198 1.17234 0
M  V30 4669 C 449.001 1.1469 3.41348 0
M  V30 4670 C 448.854 2.67586 3.61549 0
M  V30 4671 C 450.173 0.71915 4.34185 0
M  V30 4672 H 447.292 0.259034 0.689978 0
M  V30 4673 H 449.934 1.26584 1.41692 0
M  V30 4674 H 448.084 0.673128 3.82624 0
M  V30 4675 H 449.756 3.22826 3.29517 0
M  V30 4676 H 447.999 3.085 3.04976 0
M  V30 4677 H 448.67 2.93281 4.67643 0
M  V30 4678 H 451.146 1.12647 4.00562 0
M  V30 4679 H 450.022 1.05358 5.38694 0
M  V30 4680 H 450.283 -0.379111 4.40472 0
M  V30 4681 N 449.342 -1.36122 0.79427 0
M  V30 4682 C 450.567 -2.03891 0.379871 0
M  V30 4683 C 450.992 -1.59488 -0.997251 0
M  V30 4684 O 450.35 -0.765652 -1.64339 0
M  V30 4685 C 450.398 -3.57687 0.457442 0
M  V30 4686 O 449.502 -4.08931 -0.5338 0
M  V30 4687 H 448.843 -0.6443 0.160541 0
M  V30 4688 H 451.373 -1.73976 1.07673 0
M  V30 4689 H 451.383 -4.06721 0.322792 0
M  V30 4690 H 450.058 -3.89357 1.46199 0
M  V30 4691 H 448.635 -3.71154 -0.360409 0
M  V30 4692 N 450.82 -0.546701 -1.47814 0
M  V30 4693 C 452.05 -0.0232519 -2.06587 0
M  V30 4694 C 452.458 1.2712 -1.40133 0
M  V30 4695 O 451.801 1.77091 -0.488305 0
M  V30 4696 C 451.863 0.254117 -3.58601 0
M  V30 4697 C 451.527 -0.949331 -4.47031 0
M  V30 4698 C 452.524 -1.85216 -4.85789 0
M  V30 4699 C 450.209 -1.16104 -4.88697 0
M  V30 4700 C 452.203 -2.95047 -5.65001 0
M  V30 4701 C 449.89 -2.26247 -5.67676 0
M  V30 4702 C 450.888 -3.1555 -6.05737 0
M  V30 4703 O 450.576 -4.23784 -6.83127 0
M  V30 4704 H 450.308 -0.0380082 -0.674931 0
M  V30 4705 H 452.862 -0.756631 -1.90956 0
M  V30 4706 H 451.092 1.04168 -3.72406 0
M  V30 4707 H 452.781 0.72167 -3.99433 0
M  V30 4708 H 453.547 -1.70061 -4.54207 0
M  V30 4709 H 449.426 -0.475159 -4.58545 0
M  V30 4710 H 452.97 -3.64778 -5.94628 0
M  V30 4711 H 448.867 -2.41379 -5.98671 0
M  V30 4712 H 449.635 -4.21701 -7.01506 0
M  V30 4713 N 452.299 1.55045 -0.282633 0
M  V30 4714 C 453.547 1.99365 0.331334 0
M  V30 4715 C 453.868 1.1725 1.55812 0
M  V30 4716 O 453.138 0.263871 1.94115 0
M  V30 4717 H 451.718 0.736397 0.125414 0
M  V30 4718 H 454.38 1.90964 -0.389711 0
M  V30 4719 H 453.476 3.0596 0.616036 0
M  V30 4720 N 453.777 0.010035 1.57597 0
M  V30 4721 C 455.054 -0.710296 1.82248 0
M  V30 4722 C 455.434 -1.91426 0.889911 0
M  V30 4723 O 454.782 -2.28424 -0.0590292 0
M  V30 4724 C 454.992 -1.10655 3.30993 0
M  V30 4725 C 456.34 -1.50621 3.96987 0
M  V30 4726 O 457.364 -1.20007 3.35375 0
M  V30 4727 O 456.223 -2.07587 5.05539 0
M  V30 4728 H 453.317 -0.34673 0.750804 0
M  V30 4729 H 455.863 0.0362578 1.69661 0
M  V30 4730 H 454.635 -0.248826 3.90508 0
M  V30 4731 H 454.258 -1.91189 3.48615 0
M  V30 4732 N 455.255 -1.55392 -0.262866 0
M  V30 4733 C 456.532 -1.67204 -1.01499 0
M  V30 4734 C 456.912 -0.545186 -2.03939 0
M  V30 4735 O 456.26 0.453467 -2.23955 0
M  V30 4736 C 456.47 -3.06847 -1.6627 0
M  V30 4737 C 457.818 -3.64928 -2.17054 0
M  V30 4738 O 458.842 -3.09545 -1.76239 0
M  V30 4739 O 457.701 -4.61984 -2.91947 0
M  V30 4740 H 454.795 -0.679467 -0.471438 0
M  V30 4741 H 457.341 -1.67729 -0.257918 0
M  V30 4742 H 456.113 -3.80309 -0.920915 0
M  V30 4743 H 455.736 -3.10266 -2.48638 0
M  V30 4744 N 456.733 0.527833 -1.48498 0
M  V30 4745 C 457.643 1.65907 -1.65867 0
M  V30 4746 C 458.659 1.6537 -0.541192 0
M  V30 4747 O 459.835 1.84282 -0.812534 0
M  V30 4748 C 456.9 3.02364 -1.69637 0
M  V30 4749 C 455.961 3.1374 -2.93028 0
M  V30 4750 C 455.194 4.43688 -2.96609 0
M  V30 4751 O 455.417 5.30913 -2.08538 0
M  V30 4752 O 454.351 4.59475 -3.88802 0
M  V30 4753 H 458.177 1.5419 -2.61647 0
M  V30 4754 H 455.762 0.701163 -1.31924 0
M  V30 4755 H 457.644 3.83515 -1.74625 0
M  V30 4756 H 456.319 3.14401 -0.770312 0
M  V30 4757 H 455.226 2.31877 -2.93571 0
M  V30 4758 H 456.559 3.06621 -3.85026 0
M  V30 4759 N 458.211 1.37122 0.776871 0
M  V30 4760 C 459.488 1.22586 1.52421 0
M  V30 4761 C 459.868 -0.182726 2.10308 0
M  V30 4762 O 459.216 -1.18979 1.9508 0
M  V30 4763 C 459.426 2.31782 2.60918 0
M  V30 4764 C 460.774 2.69071 3.2846 0
M  V30 4765 O 461.798 2.3092 2.71209 0
M  V30 4766 O 460.657 3.3478 4.31954 0
M  V30 4767 H 457.751 0.478045 0.674835 0
M  V30 4768 H 460.297 1.48888 0.814275 0
M  V30 4769 H 459.069 3.26131 2.16227 0
M  V30 4770 H 458.692 2.06916 3.39517 0
M  V30 4771 N 459.689 -1.00246 1.21608 0
M  V30 4772 C 460.914 -1.78167 1.06167 0
M  V30 4773 C 461.339 -1.84138 -0.384035 0
M  V30 4774 O 460.697 -1.28683 -1.27712 0
M  V30 4775 C 460.745 -3.19786 1.66642 0
M  V30 4776 O 459.849 -4.02153 0.913613 0
M  V30 4777 H 459.19 -0.549 0.37349 0
M  V30 4778 H 461.72 -1.25994 1.61204 0
M  V30 4779 H 461.73 -3.70451 1.70969 0
M  V30 4780 H 460.405 -3.14754 2.7185 0
M  V30 4781 H 458.982 -3.60711 0.945635 0
M  V30 4782 N 461.167 -1.02423 -1.1978 0
M  V30 4783 C 462.097 -0.62157 -2.25075 0
M  V30 4784 C 463.078 0.367148 -1.6609 0
M  V30 4785 O 464.263 0.250892 -1.92573 0
M  V30 4786 C 461.393 0.0331826 -3.47284 0
M  V30 4787 C 460.347 -0.877323 -4.18912 0
M  V30 4788 C 459.673 -0.0879296 -5.34628 0
M  V30 4789 C 460.973 -2.18892 -4.74219 0
M  V30 4790 H 462.667 -1.50179 -2.59011 0
M  V30 4791 H 460.213 -0.723547 -1.24502 0
M  V30 4792 H 462.166 0.326488 -4.20133 0
M  V30 4793 H 460.89 0.948164 -3.12534 0
M  V30 4794 H 459.549 -1.15475 -3.47938 0
M  V30 4795 H 459.197 0.828941 -4.96123 0
M  V30 4796 H 458.897 -0.694359 -5.83483 0
M  V30 4797 H 460.421 0.198743 -6.10276 0
M  V30 4798 H 461.835 -1.95746 -5.38847 0
M  V30 4799 H 460.232 -2.74686 -5.33542 0
M  V30 4800 H 461.302 -2.84674 -3.92541 0
M  V30 4801 N 462.645 1.35699 -0.801477 0
M  V30 4802 C 463.87 2.03687 -0.390678 0
M  V30 4803 C 464.295 1.60015 0.988778 0
M  V30 4804 O 463.653 0.774357 1.63931 0
M  V30 4805 C 463.701 3.57439 -0.476404 0
M  V30 4806 O 462.805 4.09208 0.512106 0
M  V30 4807 H 462.146 0.64344 -0.163956 0
M  V30 4808 H 464.676 1.73403 -1.08594 0
M  V30 4809 H 464.686 4.06544 -0.344357 0
M  V30 4810 H 463.361 3.88576 -1.48262 0
M  V30 4811 H 461.938 3.7134 0.340721 0
M  V30 4812 N 464.123 0.554532 1.47522 0
M  V30 4813 C 465.348 0.0322661 2.07375 0
M  V30 4814 C 465.773 -1.25079 1.40488 0
M  V30 4815 O 465.131 -1.74859 0.47896 0
M  V30 4816 C 465.179 -0.149397 3.6029 0
M  V30 4817 O 464.283 -1.21259 3.9417 0
M  V30 4818 H 463.624 0.0501228 0.662106 0
M  V30 4819 H 466.154 0.769452 1.8958 0
M  V30 4820 H 466.164 -0.364437 4.06369 0
M  V30 4821 H 464.839 0.787743 4.08372 0
M  V30 4822 H 463.416 -0.97825 3.5984 0
M  V30 4823 N 465.601 -1.54893 0.290851 0
M  V30 4824 C 466.564 -2.21824 -0.576784 0
M  V30 4825 C 467.564 -1.20104 -1.06919 0
M  V30 4826 O 468.754 -1.44906 -0.966843 0
M  V30 4827 C 465.886 -2.89662 -1.79747 0
M  V30 4828 H 467.079 -2.99899 0.00784051 0
M  V30 4829 H 464.632 -1.56245 0.0415934 0
M  V30 4830 H 465.367 -2.15639 -2.42219 0
M  V30 4831 H 465.152 -3.64219 -1.45214 0
M  V30 4832 H 466.642 -3.4075 -2.4141 0
M  V30 4833 N 467.08 -0.0183926 -1.57589 0
M  V30 4834 C 468.31 0.67207 -1.95363 0
M  V30 4835 C 468.718 1.66807 -0.892872 0
M  V30 4836 O 468.061 1.83204 0.134958 0
M  V30 4837 C 468.123 1.44397 -3.29226 0
M  V30 4838 C 467.787 0.607511 -4.52944 0
M  V30 4839 C 468.784 -0.112657 -5.19778 0
M  V30 4840 C 466.469 0.548068 -4.99301 0
M  V30 4841 C 468.463 -0.881057 -6.31281 0
M  V30 4842 C 466.15 -0.224044 -6.10689 0
M  V30 4843 C 467.148 -0.937323 -6.76538 0
M  V30 4844 O 466.836 -1.6968 -7.85789 0
M  V30 4845 H 466.568 0.190925 -0.648478 0
M  V30 4846 H 469.122 -0.0711994 -2.05277 0
M  V30 4847 H 467.352 2.23214 -3.15773 0
M  V30 4848 H 469.041 2.02152 -3.51979 0
M  V30 4849 H 469.807 -0.0759998 -4.8494 0
M  V30 4850 H 465.686 1.09281 -4.4786 0
M  V30 4851 H 469.23 -1.43832 -6.82611 0
M  V30 4852 H 465.127 -0.262457 -6.44966 0
M  V30 4853 H 465.895 -1.61544 -8.024 0
M  V30 4854 N 468.558 1.5553 0.254621 0
M  V30 4855 C 469.807 1.76202 0.981612 0
M  V30 4856 C 470.12 0.580883 1.86776 0
M  V30 4857 O 471.326 0.670448 2.63092 0
M  V30 4858 C 469.782 3.11921 1.79537 0
M  V30 4859 C 469.39 4.37659 0.956991 0
M  V30 4860 C 471.134 3.41936 2.51555 0
M  V30 4861 C 469.041 5.64411 1.76619 0
M  V30 4862 H 467.971 0.656841 0.370237 0
M  V30 4863 H 470.622 1.81969 0.236556 0
M  V30 4864 H 469.004 3.00241 2.58208 0
M  V30 4865 H 470.178 4.60307 0.21315 0
M  V30 4866 H 468.493 4.14922 0.350497 0
M  V30 4867 H 471.09 4.33849 3.12536 0
M  V30 4868 H 471.433 2.62905 3.22779 0
M  V30 4869 H 471.966 3.54797 1.799 0
M  V30 4870 H 468.705 6.46241 1.09783 0
M  V30 4871 H 468.225 5.45877 2.48551 0
M  V30 4872 H 469.904 6.03386 2.33527 0
M  V30 4873 N 470.036 -0.519951 1.48776 0
M  V30 4874 C 470.968 -1.63973 1.60142 0
M  V30 4875 C 471.981 -1.55404 0.485117 0
M  V30 4876 O 473.17 -1.61682 0.756391 0
M  V30 4877 C 470.27 -3.02676 1.52449 0
M  V30 4878 C 469.443 -3.36624 2.79291 0
M  V30 4879 C 468.502 -4.54652 2.64912 0
M  V30 4880 O 467.528 -4.57374 3.38818 0
M  V30 4881 N 468.73 -5.53432 1.75195 0
M  V30 4882 H 471.495 -1.54656 2.56713 0
M  V30 4883 H 469.056 -0.707439 1.45626 0
M  V30 4884 H 471.048 -3.79525 1.4051 0
M  V30 4885 H 469.618 -3.06018 0.638125 0
M  V30 4886 H 468.838 -2.48855 3.0572 0
M  V30 4887 H 470.126 -3.56094 3.6342 0
M  V30 4888 H 469.524 -5.54018 1.14371 0
M  V30 4889 H 468.081 -6.29459 1.69189 0
M  V30 4890 N 471.514 -1.37532 -0.769588 0
M  V30 4891 C 472.93 -1.18379 -1.07045 0
M  V30 4892 C 473.13 -0.0214312 -2.01489 0
M  V30 4893 O 472.186 0.637809 -2.44312 0
M  V30 4894 C 473.499 -2.50338 -1.66588 0
M  V30 4895 C 475.047 -2.56879 -1.78835 0
M  V30 4896 C 475.522 -3.88974 -2.41792 0
M  V30 4897 N 477.013 -3.90428 -2.4924 0
M  V30 4898 C 477.748 -4.89388 -2.98809 0
M  V30 4899 N 477.244 -5.98745 -3.48535 0
M  V30 4900 N 479.037 -4.76791 -2.97703 0
M  V30 4901 H 471.188 -2.11921 -0.142541 0
M  V30 4902 H 473.451 -0.939608 -0.125863 0
M  V30 4903 H 473.157 -3.35767 -1.0466 0
M  V30 4904 H 473.031 -2.67583 -2.65856 0
M  V30 4905 H 475.418 -1.71856 -2.39895 0
M  V30 4906 H 475.499 -2.43516 -0.783166 0
M  V30 4907 H 475.143 -4.74412 -1.81371 0
M  V30 4908 H 475.073 -3.99641 -3.4292 0
M  V30 4909 H 477.564 -3.11433 -2.14052 0
M  V30 4910 H 477.877 -6.70205 -3.84767 0
M  V30 4911 H 476.222 -6.02387 -3.46634 0
M  V30 4912 H 479.413 -3.90478 -2.58157 0
M  V30 4913 H 479.586 -5.54069 -3.36024 0
M  V30 4914 N 472.992 0.995999 -1.22138 0
M  V30 4915 C 474.238 1.73767 -1.04561 0
M  V30 4916 C 474.571 1.89633 0.418698 0
M  V30 4917 O 473.846 1.43723 1.3105 0
M  V30 4918 C 474.129 3.14505 -1.75382 0
M  V30 4919 C 473.982 3.06306 -3.29388 0
M  V30 4920 C 475.301 4.13615 -1.50369 0
M  V30 4921 H 472.42 0.630728 -0.38125 0
M  V30 4922 H 475.062 1.16057 -1.50435 0
M  V30 4923 H 473.212 3.63775 -1.36383 0
M  V30 4924 H 474.884 2.64681 -3.77812 0
M  V30 4925 H 473.127 2.43186 -3.59226 0
M  V30 4926 H 473.798 4.05884 -3.74116 0
M  V30 4927 H 476.274 3.73089 -1.84239 0
M  V30 4928 H 475.15 5.10212 -2.02421 0
M  V30 4929 H 475.411 4.39949 -0.435611 0
M  V30 4930 N 474.47 1.03057 1.19235 0
M  V30 4931 C 475.418 0.606391 2.24557 0
M  V30 4932 C 476.412 -0.361826 1.65491 0
M  V30 4933 O 477.618 -0.23022 1.78522 0
M  V30 4934 H 473.993 0.177838 0.730669 0
M  V30 4935 H 475.964 1.50529 2.5765 0
M  V30 4936 C 474.713 -0.0252127 3.47691 0
M  V30 4937 H 474.036 0.710838 3.9343 0
M  V30 4938 H 475.476 -0.284931 4.23042 0
M  V30 4939 C 473.935 -1.27229 3.11953 0
M  V30 4940 O 474.465 -2.36416 3.24762 0
M  V30 4941 N 472.671 -1.16169 2.6637 0
M  V30 4942 H 472.218 -0.273189 2.56147 0
M  V30 4943 H 472.176 -1.99703 2.42829 0
M  V30 4944 N 475.948 -1.35272 0.808662 0
M  V30 4945 C 477.176 -2.02946 0.402537 0
M  V30 4946 C 477.591 -1.60937 -0.987147 0
M  V30 4947 O 476.948 -0.807917 -1.63643 0
M  V30 4948 C 476.999 -3.58317 0.47868 0
M  V30 4949 O 476.72 -3.98799 1.81358 0
M  V30 4950 C 478.221 -4.43251 0.0656281 0
M  V30 4951 H 475.441 -0.650831 0.163279 0
M  V30 4952 H 477.985 -1.72849 1.09286 0
M  V30 4953 H 476.14 -3.87055 -0.163415 0
M  V30 4954 H 476.554 -4.93451 1.77781 0
M  V30 4955 H 478.028 -5.51738 0.170017 0
M  V30 4956 H 478.505 -4.27913 -0.989278 0
M  V30 4957 H 479.111 -4.19813 0.68096 0
M  V30 4958 N 477.426 -0.562348 -1.47226 0
M  V30 4959 C 478.336 0.185466 -2.33866 0
M  V30 4960 C 479.352 0.906713 -1.48508 0
M  V30 4961 O 480.528 0.874458 -1.81425 0
M  V30 4962 C 477.593 1.19904 -3.25306 0
M  V30 4963 C 476.654 0.484669 -4.26555 0
M  V30 4964 C 475.887 1.44996 -5.13626 0
M  V30 4965 O 476.11 2.68515 -5.03245 0
M  V30 4966 O 475.044 0.971642 -5.94006 0
M  V30 4967 H 478.87 -0.525361 -2.99121 0
M  V30 4968 H 476.455 -0.322916 -1.45868 0
M  V30 4969 H 478.337 1.78399 -3.81774 0
M  V30 4970 H 477.012 1.8917 -2.62672 0
M  V30 4971 H 475.919 -0.141605 -3.73832 0
M  V30 4972 H 477.252 -0.166634 -4.91918 0
M  V30 4973 N 478.904 1.54736 -0.299062 0
M  V30 4974 C 479.834 2.26409 0.571085 0
M  V30 4975 C 480.815 1.2629 1.13951 0
M  V30 4976 O 482 1.55059 1.16921 0
M  V30 4977 C 479.13 3.00338 1.74396 0
M  V30 4978 C 478.084 4.07588 1.30599 0
M  V30 4979 C 477.41 4.69222 2.56387 0
M  V30 4980 C 478.71 5.20455 0.438645 0
M  V30 4981 H 480.404 2.99388 -0.0266991 0
M  V30 4982 H 477.95 1.43993 -0.0142812 0
M  V30 4983 H 479.903 3.49198 2.35878 0
M  V30 4984 H 478.627 2.24934 2.36796 0
M  V30 4985 H 477.286 3.59575 0.71424 0
M  V30 4986 H 476.934 3.9046 3.17097 0
M  V30 4987 H 476.634 5.41653 2.27784 0
M  V30 4988 H 478.158 5.20844 3.18675 0
M  V30 4989 H 479.572 5.65221 0.959085 0
M  V30 4990 H 477.969 5.99594 0.246466 0
M  V30 4991 H 479.039 4.8192 -0.536738 0
M  V30 4992 N 480.382 0.0267497 1.57577 0
M  V30 4993 C 481.315 -0.99059 2.05579 0
M  V30 4994 C 482.293 -1.31884 0.951065 0
M  V30 4995 O 483.477 -1.43592 1.22121 0
M  V30 4996 C 480.604 -2.31125 2.47586 0
M  V30 4997 C 479.65 -2.13777 3.69055 0
M  V30 4998 S 480.483 -1.4388 5.15809 0
M  V30 4999 C 481.639 -2.77321 5.6111 0
M  V30 5000 H 481.872 -0.581976 2.91548 0
M  V30 5001 H 479.405 -0.184876 1.53289 0
M  V30 5002 H 481.363 -3.07049 2.72454 0
M  V30 5003 H 480.024 -2.6912 1.61967 0
M  V30 5004 H 479.217 -3.11405 3.96287 0
M  V30 5005 H 478.819 -1.45996 3.44327 0
M  V30 5006 H 481.111 -3.73565 5.65204 0
M  V30 5007 H 482.054 -2.54756 6.60685 0
M  V30 5008 H 482.462 -2.82459 4.88751 0
M  V30 5009 N 481.861 -1.55662 -0.24637 0
M  V30 5010 C 482.808 -1.90361 -1.30504 0
M  V30 5011 C 483.778 -0.757905 -1.47801 0
M  V30 5012 O 484.963 -1.01161 -1.61775 0
M  V30 5013 C 482.103 -2.2042 -2.65535 0
M  V30 5014 C 481.216 -3.47799 -2.56242 0
M  V30 5015 C 480.351 -3.67426 -3.8363 0
M  V30 5016 C 479.39 -4.88403 -3.68956 0
M  V30 5017 N 478.527 -5.04548 -4.88237 0
M  V30 5018 H 483.367 -2.80645 -1.00213 0
M  V30 5019 H 480.904 -1.38924 -0.483577 0
M  V30 5020 H 482.862 -2.35853 -3.44135 0
M  V30 5021 H 481.492 -1.3334 -2.93973 0
M  V30 5022 H 480.544 -3.40694 -1.69208 0
M  V30 5023 H 481.856 -4.36544 -2.4131 0
M  V30 5024 H 481.01 -3.82821 -4.70673 0
M  V30 5025 H 479.749 -2.76914 -4.01459 0
M  V30 5026 H 478.754 -4.72984 -2.80296 0
M  V30 5027 H 479.979 -5.80375 -3.52621 0
M  V30 5028 H 477.925 -4.16974 -5.06427 0
M  V30 5029 H 477.842 -5.87384 -4.75937 0
M  V30 5030 H 479.11 -5.24355 -5.76777 0
M  V30 5031 N 483.339 0.512053 -1.4905 0
M  V30 5032 C 484.302 1.59704 -1.64399 0
M  V30 5033 C 485.302 1.52285 -0.516317 0
M  V30 5034 O 486.492 1.55635 -0.782527 0
M  V30 5035 C 483.624 2.9935 -1.63102 0
M  V30 5036 H 484.817 1.47428 -2.61161 0
M  V30 5037 H 482.37 0.735469 -1.37915 0
M  V30 5038 H 483.105 3.17116 -0.678836 0
M  V30 5039 H 482.89 3.06144 -2.44986 0
M  V30 5040 H 484.38 3.782 -1.77072 0
M  V30 5041 N 484.817 1.37938 0.762283 0
M  V30 5042 C 485.78 1.34279 1.85747 0
M  V30 5043 C 486.78 0.244969 1.58923 0
M  V30 5044 O 487.97 0.501365 1.66829 0
M  V30 5045 C 485.102 1.08833 3.23061 0
M  V30 5046 H 486.295 2.31705 1.90401 0
M  V30 5047 H 483.848 1.23105 0.963057 0
M  V30 5048 H 484.583 0.119767 3.24079 0
M  V30 5049 H 484.368 1.88306 3.43923 0
M  V30 5050 H 485.858 1.08946 4.03138 0
M  V30 5051 N 486.295 -0.989507 1.22664 0
M  V30 5052 C 487.258 -2.06183 1.00106 0
M  V30 5053 C 488.258 -1.60765 -0.0337726 0
M  V30 5054 O 489.448 -1.72989 0.205072 0
M  V30 5055 C 486.58 -3.37021 0.51279 0
M  V30 5056 H 487.773 -2.27629 1.95256 0
M  V30 5057 H 485.326 -1.16158 1.0458 0
M  V30 5058 H 486.061 -3.21261 -0.442917 0
M  V30 5059 H 485.846 -3.71323 1.25942 0
M  V30 5060 H 487.336 -4.1591 0.375315 0
M  V30 5061 N 487.773 -1.03688 -1.18687 0
M  V30 5062 C 489.189 -0.755413 -1.4059 0
M  V30 5063 C 489.389 0.656659 -1.905 0
M  V30 5064 O 488.445 1.42144 -2.08689 0
M  V30 5065 C 489.758 -1.7983 -2.41001 0
M  V30 5066 C 491.306 -1.81877 -2.54735 0
M  V30 5067 C 491.781 -2.85148 -3.58406 0
M  V30 5068 N 493.272 -2.84015 -3.6591 0
M  V30 5069 C 494.007 -3.60573 -4.45841 0
M  V30 5070 N 493.503 -4.46871 -5.29413 0
M  V30 5071 N 495.296 -3.49079 -4.40568 0
M  V30 5072 H 487.447 -1.94818 -0.846148 0
M  V30 5073 H 489.71 -0.842727 -0.434184 0
M  V30 5074 H 489.416 -2.81097 -2.1137 0
M  V30 5075 H 489.29 -1.62727 -3.40294 0
M  V30 5076 H 491.677 -0.812836 -2.83685 0
M  V30 5077 H 491.758 -2.03057 -1.55568 0
M  V30 5078 H 491.402 -3.85918 -3.30197 0
M  V30 5079 H 491.332 -2.61224 -4.57241 0
M  V30 5080 H 493.823 -2.21431 -3.0623 0
M  V30 5081 H 494.136 -5.02007 -5.87545 0
M  V30 5082 H 492.481 -4.5094 -5.28846 0
M  V30 5083 H 495.672 -2.81066 -3.74325 0
M  V30 5084 H 495.845 -4.08994 -5.02621 0
M  V30 5085 N 489.251 1.34841 -0.815825 0
M  V30 5086 C 490.499 1.98107 -0.399744 0
M  V30 5087 C 490.82 1.65019 1.03894 0
M  V30 5088 O 490.09 0.937311 1.72021 0
M  V30 5089 H 488.67 0.732827 -0.144823 0
M  V30 5090 H 491.332 1.64599 -1.0437 0
M  V30 5091 H 490.428 3.07856 -0.512965 0
M  V30 5092 N 490.729 0.570148 1.46925 0
M  V30 5093 C 491.659 -0.158274 2.32963 0
M  V30 5094 C 492.64 -0.896093 1.44583 0
M  V30 5095 O 493.825 -0.874022 1.7342 0
M  V30 5096 C 490.955 -1.18055 3.26619 0
M  V30 5097 C 489.909 -0.558379 4.24342 0
M  V30 5098 C 489.235 -1.68623 5.07415 0
M  V30 5099 C 490.535 0.496295 5.19937 0
M  V30 5100 H 492.229 0.560046 2.94115 0
M  V30 5101 H 489.775 0.270775 1.41431 0
M  V30 5102 H 491.728 -1.69841 3.85658 0
M  V30 5103 H 490.452 -1.92899 2.63548 0
M  V30 5104 H 489.111 -0.0617157 3.66548 0
M  V30 5105 H 488.759 -2.42402 4.40738 0
M  V30 5106 H 488.459 -1.27564 5.73586 0
M  V30 5107 H 489.983 -2.20709 5.69315 0
M  V30 5108 H 491.397 0.0640052 5.73264 0
M  V30 5109 H 489.794 0.82649 5.94381 0
M  V30 5110 H 490.864 1.38735 4.6463 0
M  V30 5111 N 492.207 -1.54576 0.307264 0
M  V30 5112 C 493.435 -2.04675 -0.302597 0
M  V30 5113 C 493.85 -1.18425 -1.47041 0
M  V30 5114 O 493.207 -0.211257 -1.81273 0
M  V30 5115 C 493.258 -3.53575 -0.752801 0
M  V30 5116 O 492.979 -4.36547 0.368536 0
M  V30 5117 C 494.48 -4.19699 -1.42717 0
M  V30 5118 H 491.7 -0.66786 -0.0648374 0
M  V30 5119 H 494.244 -1.99516 0.448716 0
M  V30 5120 H 492.399 -3.59074 -1.45412 0
M  V30 5121 H 492.813 -5.24497 0.0168937 0
M  V30 5122 H 494.287 -5.25388 -1.69327 0
M  V30 5123 H 494.764 -3.69815 -2.36925 0
M  V30 5124 H 495.37 -4.18293 -0.768856 0
M  V30 5125 N 493.685 -0.035106 -1.57561 0
M  V30 5126 C 494.615 0.942993 -2.13612 0
M  V30 5127 C 495.596 1.33531 -1.05373 0
M  V30 5128 O 496.781 1.41287 -1.33235 0
M  V30 5129 C 493.911 2.22332 -2.66807 0
M  V30 5130 C 492.865 1.97156 -3.79886 0
M  V30 5131 C 492.191 3.31506 -4.19533 0
M  V30 5132 C 493.491 1.30596 -5.05709 0
M  V30 5133 H 495.185 0.476179 -2.95589 0
M  V30 5134 H 492.731 0.227602 -1.4219 0
M  V30 5135 H 494.684 2.91142 -3.04654 0
M  V30 5136 H 493.408 2.7119 -1.81999 0
M  V30 5137 H 492.067 1.30763 -3.42486 0
M  V30 5138 H 491.715 3.78134 -3.31698 0
M  V30 5139 H 491.415 3.15465 -4.95738 0
M  V30 5140 H 492.939 4.01574 -4.59968 0
M  V30 5141 H 494.353 1.89416 -5.41105 0
M  V30 5142 H 492.75 1.24934 -5.86951 0
M  V30 5143 H 493.82 0.279742 -4.84092 0
M  V30 5144 N 495.163 1.55791 0.238111 0
M  V30 5145 C 496.093 1.94068 1.29846 0
M  V30 5146 C 497.074 0.806726 1.49753 0
M  V30 5147 O 498.259 1.06772 1.62214 0
M  V30 5148 C 495.389 2.24302 2.65153 0
M  V30 5149 C 494.343 3.40032 2.59927 0
M  V30 5150 C 493.669 3.55829 3.99111 0
M  V30 5151 C 494.969 4.75476 2.16148 0
M  V30 5152 H 496.663 2.82887 0.980563 0
M  V30 5153 H 494.209 1.36105 0.470253 0
M  V30 5154 H 496.162 2.4967 3.39475 0
M  V30 5155 H 494.886 1.32318 2.98596 0
M  V30 5156 H 493.545 3.14687 1.88063 0
M  V30 5157 H 493.193 2.6125 4.29834 0
M  V30 5158 H 492.893 4.3366 3.96501 0
M  V30 5159 H 494.417 3.83528 4.7512 0
M  V30 5160 H 495.831 5.00158 2.80205 0
M  V30 5161 H 494.228 5.56472 2.24631 0
M  V30 5162 H 495.298 4.71946 1.11333 0
M  V30 5163 N 496.642 -0.504142 1.49319 0
M  V30 5164 C 497.889 -1.25846 1.58647 0
M  V30 5165 C 498.217 -1.92592 0.27177 0
M  V30 5166 O 497.472 -1.81167 -0.74007 0
M  V30 5167 C 497.771 -2.35021 2.69258 0
M  V30 5168 C 497.437 -1.85755 4.1086 0
M  V30 5169 C 496.099 -1.72038 4.49395 0
M  V30 5170 C 498.451 -1.48844 4.99495 0
M  V30 5171 C 495.779 -1.19783 5.74342 0
M  V30 5172 C 498.131 -0.980422 6.24956 0
M  V30 5173 C 496.795 -0.829622 6.62324 0
M  V30 5174 H 496.065 -0.460505 0.580531 0
M  V30 5175 H 498.712 -0.559716 1.83138 0
M  V30 5176 H 497.017 -3.10672 2.38726 0
M  V30 5177 H 498.714 -2.93083 2.73685 0
M  V30 5178 H 495.304 -1.9739 3.80441 0
M  V30 5179 H 499.488 -1.5829 4.70381 0
M  V30 5180 H 494.744 -1.06817 6.01997 0
M  V30 5181 H 498.918 -0.685608 6.93017 0
M  V30 5182 H 496.545 -0.42253 7.59025 0
M  V30 5183 N 498.12 -1.38341 -0.754957 0
M  V30 5184 C 499.083 -1.35262 -1.85032 0
M  V30 5185 C 500.083 -0.253393 -1.58791 0
M  V30 5186 O 501.273 -0.510205 -1.66561 0
M  V30 5187 C 498.405 -1.10544 -3.22479 0
M  V30 5188 H 499.598 -2.32712 -1.8917 0
M  V30 5189 H 497.151 -1.23614 -0.956515 0
M  V30 5190 H 497.886 -0.136952 -3.24011 0
M  V30 5191 H 497.671 -1.90127 -3.4292 0
M  V30 5192 H 499.161 -1.11082 -4.02555 0
M  V30 5193 N 499.598 0.982988 -1.23187 0
M  V30 5194 C 500.823 1.76455 -1.08988 0
M  V30 5195 C 501.248 1.84726 0.354691 0
M  V30 5196 O 500.606 1.30699 1.25649 0
M  V30 5197 C 500.654 3.17094 -1.71708 0
M  V30 5198 O 499.758 4.00648 -0.977477 0
M  V30 5199 H 499.099 0.542988 -0.382177 0
M  V30 5200 H 501.629 1.23413 -1.63188 0
M  V30 5201 H 501.639 3.67684 -1.76841 0
M  V30 5202 H 500.314 3.10389 -2.76823 0
M  V30 5203 H 498.891 3.59161 -1.0029 0
M  V30 5204 N 501.076 1.04316 1.18135 0
M  V30 5205 C 502.324 0.746542 1.87806 0
M  V30 5206 C 502.645 -0.728082 1.80898 0
M  V30 5207 O 501.915 -1.52554 1.22899 0
M  V30 5208 H 500.495 0.273157 0.695265 0
M  V30 5209 H 503.157 1.32044 1.43354 0
M  V30 5210 H 502.253 1.05362 2.93778 0
M  V30 5211 N 502.554 -1.34406 0.822964 0
M  V30 5212 C 503.831 -1.92733 0.333641 0
M  V30 5213 C 504.211 -1.75107 -1.17901 0
M  V30 5214 O 503.559 -1.12983 -1.98613 0
M  V30 5215 C 503.769 -3.40557 0.763023 0
M  V30 5216 C 505.117 -4.17709 0.761879 0
M  V30 5217 O 506.141 -3.49141 0.705606 0
M  V30 5218 O 505 -5.40082 0.835109 0
M  V30 5219 H 502.094 -0.821964 0.0911249 0
M  V30 5220 H 504.64 -1.4338 0.907757 0
M  V30 5221 H 503.412 -3.47187 1.8049 0
M  V30 5222 H 503.035 -3.97259 0.164605 0
M  V30 5223 N 504.032 -0.577932 -1.46621 0
M  V30 5224 C 505.257 -0.0652536 -2.07297 0
M  V30 5225 C 505.682 1.22828 -1.4246 0
M  V30 5226 O 505.04 1.74075 -0.506718 0
M  V30 5227 C 505.088 0.0920589 -3.60482 0
M  V30 5228 O 504.192 1.14972 -3.96049 0
M  V30 5229 H 503.533 -0.06065 -0.661224 0
M  V30 5230 H 506.063 -0.799515 -1.88332 0
M  V30 5231 H 506.073 0.299741 -4.06897 0
M  V30 5232 H 504.748 -0.852612 -4.07067 0
M  V30 5233 H 503.325 0.920879 -3.61351 0
M  V30 5234 N 505.51 1.54411 -0.315457 0
M  V30 5235 C 506.758 2.00023 0.288971 0
M  V30 5236 C 507.079 1.20529 1.5329 0
M  V30 5237 O 506.349 0.304986 1.93511 0
M  V30 5238 H 504.929 0.738891 0.109766 0
M  V30 5239 H 507.591 1.90094 -0.430129 0
M  V30 5240 H 506.687 3.07198 0.550999 0
M  V30 5241 N 506.988 0.0434614 1.5754 0
M  V30 5242 C 507.951 -0.918696 2.09982 0
M  V30 5243 C 508.951 -1.24488 1.01781 0
M  V30 5244 O 510.141 -1.18284 1.27885 0
M  V30 5245 C 507.273 -2.23093 2.57764 0
M  V30 5246 H 508.466 -0.464229 2.96285 0
M  V30 5247 H 506.019 -0.204818 1.54952 0
M  V30 5248 H 506.754 -2.73137 1.74832 0
M  V30 5249 H 506.539 -2.00724 3.36827 0
M  V30 5250 H 508.029 -2.92028 2.98512 0
M  V30 5251 N 508.466 -1.55915 -0.229846 0
M  V30 5252 C 509.714 -1.7819 -0.953565 0
M  V30 5253 C 510.035 -0.610504 -1.85197 0
M  V30 5254 O 509.305 0.372988 -1.92316 0
M  V30 5255 H 507.885 -0.657208 -0.355087 0
M  V30 5256 H 510.547 -1.9337 -0.243693 0
M  V30 5257 H 509.643 -2.70011 -1.56527 0
M  V30 5258 N 509.944 0.496216 -1.49584 0
M  V30 5259 C 511.184 1.26015 -1.60933 0
M  V30 5260 C 511.548 1.89772 -0.291646 0
M  V30 5261 O 512.749 2.67334 -0.280357 0
M  V30 5262 C 511.02 2.29506 -2.73974 0
M  V30 5263 S 512.579 3.15175 -3.05303 0
M  V30 5264 H 509.397 0.428194 -0.567601 0
M  V30 5265 H 511.999 0.561484 -1.87263 0
M  V30 5266 H 510.703 1.81205 -3.68229 0
M  V30 5267 H 510.234 3.04036 -2.49651 0
M  V30 5268 H 512.249 4.30244 -2.47193 0
M  V30 5269 N 511.423 1.38739 0.74761 0
M  V30 5270 C 512.669 1.3648 1.50814 0
M  V30 5271 C 513.024 -0.0431982 1.92351 0
M  V30 5272 O 512.317 -1.0071 1.62997 0
M  V30 5273 C 512.511 2.25992 2.7688 0
M  V30 5274 C 512.34 3.75354 2.47668 0
M  V30 5275 C 511.11 4.44348 2.40589 0
M  V30 5276 C 513.308 4.67642 2.14046 0
M  V30 5277 N 511.29 5.79114 2.03715 0
M  V30 5278 C 512.661 5.90965 1.87512 0
M  V30 5279 C 514.716 4.55787 2.00407 0
M  V30 5280 C 513.419 7.03759 1.48714 0
M  V30 5281 C 515.445 5.68491 1.63011 0
M  V30 5282 C 514.807 6.90879 1.37353 0
M  V30 5283 H 510.906 0.554695 0.551214 0
M  V30 5284 H 513.49 1.7418 0.870033 0
M  V30 5285 H 511.661 1.9047 3.3849 0
M  V30 5286 H 513.393 2.14815 3.42982 0
M  V30 5287 H 510.148 3.97634 2.57262 0
M  V30 5288 H 510.572 6.504 1.87906 0
M  V30 5289 H 515.214 3.61712 2.18916 0
M  V30 5290 H 512.932 7.97746 1.28945 0
M  V30 5291 H 516.518 5.613 1.53081 0
M  V30 5292 H 515.398 7.76609 1.08848 0
M  V30 5293 N 512.901 -0.976442 1.23707 0
M  V30 5294 C 514.126 -1.75875 1.09922 0
M  V30 5295 C 514.551 -1.84911 -0.34489 0
M  V30 5296 O 513.909 -1.31363 -1.24954 0
M  V30 5297 C 513.957 -3.16179 1.73388 0
M  V30 5298 O 513.061 -4.00124 0.99871 0
M  V30 5299 H 512.402 -0.540954 0.385052 0
M  V30 5300 H 514.932 -1.22546 1.6384 0
M  V30 5301 H 514.942 -3.66741 1.78788 0
M  V30 5302 H 513.617 -3.08917 2.78466 0
M  V30 5303 H 512.194 -3.58624 1.02193 0
M  V30 5304 N 514.379 -1.04941 -1.1758 0
M  V30 5305 C 515.625 -0.759112 -1.88057 0
M  V30 5306 C 515.958 0.711918 -1.8068 0
M  V30 5307 O 515.233 1.52035 -1.21308 0
M  V30 5308 C 515.516 -1.237 -3.38187 0
M  V30 5309 C 515.369 -2.77078 -3.54327 0
M  V30 5310 C 516.688 -0.834014 -4.32125 0
M  V30 5311 H 513.807 -0.277237 -0.682868 0
M  V30 5312 H 516.449 -1.30296 -1.38286 0
M  V30 5313 H 514.599 -0.774337 -3.80705 0
M  V30 5314 H 516.271 -3.31449 -3.20842 0
M  V30 5315 H 514.514 -3.16477 -2.96689 0
M  V30 5316 H 515.185 -3.05577 -4.59703 0
M  V30 5317 H 517.661 -1.23228 -3.97434 0
M  V30 5318 H 516.537 -1.19603 -5.35711 0
M  V30 5319 H 516.798 0.262195 -4.41322 0
M  V30 5320 N 515.857 1.33968 -0.830081 0
M  V30 5321 C 517.082 2.02813 -0.433796 0
M  V30 5322 C 517.507 1.62076 0.954614 0
M  V30 5323 O 516.865 0.808955 1.62252 0
M  V30 5324 C 516.913 3.56348 -0.552115 0
M  V30 5325 O 516.017 4.10202 0.425191 0
M  V30 5326 H 515.358 0.639817 -0.177567 0
M  V30 5327 H 517.888 1.7106 -1.12248 0
M  V30 5328 H 517.898 4.05722 -0.430513 0
M  V30 5329 H 516.573 3.85344 -1.56471 0
M  V30 5330 H 515.15 3.71979 0.261878 0
M  V30 5331 N 517.335 0.585699 1.46312 0
M  V30 5332 C 518.583 0.072278 2.01971 0
M  V30 5333 C 518.904 -1.29345 1.45928 0
M  V30 5334 O 518.174 -1.84973 0.645109 0
M  V30 5335 H 516.754 0.023729 0.746623 0
M  V30 5336 H 519.416 0.762155 1.7938 0
M  V30 5337 H 518.512 0.00552767 3.121 0
M  V30 5338 N 518.813 -1.54241 0.323641 0
M  V30 5339 C 520.229 -1.59574 -0.0290018 0
M  V30 5340 C 520.429 -1.34017 -1.50472 0
M  V30 5341 O 519.485 -1.12464 -2.26071 0
M  V30 5342 C 520.798 -2.98169 0.389295 0
M  V30 5343 C 522.346 -3.11148 0.339958 0
M  V30 5344 C 522.821 -4.5209 0.733418 0
M  V30 5345 N 524.312 -4.5808 0.686827 0
M  V30 5346 C 525.047 -5.65248 0.963464 0
M  V30 5347 N 524.543 -6.80355 1.30724 0
M  V30 5348 N 526.336 -5.55025 0.88902 0
M  V30 5349 H 518.487 -1.6911 1.28512 0
M  V30 5350 H 520.75 -0.790972 0.522558 0
M  V30 5351 H 520.456 -3.21871 1.41746 0
M  V30 5352 H 520.33 -3.76399 -0.245657 0
M  V30 5353 H 522.717 -2.87182 -0.679002 0
M  V30 5354 H 522.798 -2.35023 1.00985 0
M  V30 5355 H 522.442 -4.76788 1.75029 0
M  V30 5356 H 522.372 -5.26584 0.0412189 0
M  V30 5357 H 524.863 -3.75411 0.43298 0
M  V30 5358 H 525.176 -7.58029 1.5037 0
M  V30 5359 H 523.521 -6.81851 1.3455 0
M  V30 5360 H 526.712 -4.63977 0.619939 0
M  V30 5361 H 526.885 -6.38458 1.10797 0
M  V30 5362 N 520.291 -0.0518155 -1.57515 0
M  V30 5363 C 521.241 0.932017 -2.0808 0
M  V30 5364 C 522.225 1.27141 -0.986098 0
M  V30 5365 O 523.417 1.25373 -1.24943 0
M  V30 5366 C 520.546 2.20665 -2.62986 0
M  V30 5367 C 519.632 1.89462 -3.79427 0
M  V30 5368 N 520.023 1.28621 -4.89173 0
M  V30 5369 C 518.321 2.19327 -3.88345 0
M  V30 5370 C 519.022 1.15062 -5.70207 0
M  V30 5371 N 517.998 1.65372 -5.17835 0
M  V30 5372 H 521.8 0.456964 -2.90326 0
M  V30 5373 H 519.314 0.152619 -1.61681 0
M  V30 5374 H 521.311 2.92044 -2.97516 0
M  V30 5375 H 519.971 2.68776 -1.8218 0
M  V30 5376 H 520.982 0.958341 -5.08956 0
M  V30 5377 H 517.659 2.69955 -3.18482 0
M  V30 5378 H 519.049 0.678243 -6.68468 0
M  V30 5379 N 521.769 1.56035 0.221574 0
M  V30 5380 C 522.701 1.889 1.29805 0
M  V30 5381 C 523.714 0.777269 1.43047 0
M  V30 5382 O 524.903 1.05557 1.43945 0
M  V30 5383 C 522.003 2.0825 2.67367 0
M  V30 5384 C 521.176 3.39267 2.76073 0
M  V30 5385 C 520.235 3.48049 3.94649 0
M  V30 5386 O 519.261 4.2108 3.82988 0
M  V30 5387 N 520.463 2.79191 5.08953 0
M  V30 5388 H 523.228 2.81831 1.01938 0
M  V30 5389 H 520.789 1.5658 0.411612 0
M  V30 5390 H 522.781 2.11441 3.45072 0
M  V30 5391 H 521.351 1.21944 2.87834 0
M  V30 5392 H 520.571 3.48175 1.84846 0
M  V30 5393 H 521.859 4.25575 2.7886 0
M  V30 5394 H 521.257 2.19635 5.21322 0
M  V30 5395 H 519.814 2.88043 5.84701 0
M  V30 5396 N 523.247 -0.488276 1.49845 0
M  V30 5397 C 524.494 -1.24157 1.59973 0
M  V30 5398 C 524.822 -1.92293 0.292182 0
M  V30 5399 O 524.077 -1.81942 -0.720813 0
M  V30 5400 C 524.376 -2.32152 2.71735 0
M  V30 5401 C 524.042 -1.81387 4.12807 0
M  V30 5402 C 522.704 -1.67262 4.51195 0
M  V30 5403 C 525.056 -1.43537 5.01045 0
M  V30 5404 C 522.384 -1.13685 5.7558 0
M  V30 5405 C 524.736 -0.914081 6.25961 0
M  V30 5406 C 523.4 -0.759327 6.63167 0
M  V30 5407 H 522.67 -0.454322 0.585383 0
M  V30 5408 H 525.317 -0.540261 1.83721 0
M  V30 5409 H 523.622 -3.08122 2.42008 0
M  V30 5410 H 525.319 -2.90164 2.76778 0
M  V30 5411 H 521.909 -1.93344 3.82513 0
M  V30 5412 H 526.093 -1.53292 4.72033 0
M  V30 5413 H 521.349 -1.00426 6.03096 0
M  V30 5414 H 525.523 -0.612066 6.93705 0
M  V30 5415 H 523.15 -0.342002 7.5943 0
M  V30 5416 N 524.725 -1.39134 -0.740242 0
M  V30 5417 C 526.141 -1.20623 -1.0451 0
M  V30 5418 C 526.341 -0.0641651 -2.01398 0
M  V30 5419 O 525.397 0.585843 -2.4561 0
M  V30 5420 C 526.71 -2.53815 -1.6124 0
M  V30 5421 C 528.258 -2.60615 -1.73346 0
M  V30 5422 C 528.733 -3.94015 -2.33486 0
M  V30 5423 N 530.224 -3.95627 -2.40902 0
M  V30 5424 C 530.959 -4.95616 -2.88361 0
M  V30 5425 N 530.455 -6.06003 -3.35756 0
M  V30 5426 N 532.248 -4.82998 -2.87523 0
M  V30 5427 H 524.399 -2.12176 -0.0975576 0
M  V30 5428 H 526.662 -0.942066 -0.105904 0
M  V30 5429 H 526.368 -3.37911 -0.975144 0
M  V30 5430 H 526.242 -2.73162 -2.6012 0
M  V30 5431 H 528.629 -1.76906 -2.36195 0
M  V30 5432 H 528.71 -2.45123 -0.731336 0
M  V30 5433 H 528.354 -4.78153 -1.71267 0
M  V30 5434 H 528.284 -4.06825 -3.34366 0
M  V30 5435 H 530.775 -3.15903 -2.07398 0
M  V30 5436 H 531.088 -6.78215 -3.70464 0
M  V30 5437 H 529.433 -6.09604 -3.33778 0
M  V30 5438 H 532.624 -3.95866 -2.49816 0
M  V30 5439 H 532.797 -5.61072 -3.24196 0
M  V30 5440 N 526.204 0.969867 -1.24223 0
M  V30 5441 C 527.615 1.52717 -1.07399 0
M  V30 5442 C 527.966 1.92956 0.355298 0
M  V30 5443 O 527.091 1.77112 1.2434 0
M  V30 5444 C 527.686 2.77521 -1.94339 0
M  V30 5445 C 526.245 3.29615 -1.81744 0
M  V30 5446 C 525.392 2.02537 -1.89405 0
M  V30 5447 H 528.343 0.788399 -1.37732 0
M  V30 5448 H 528.364 3.50773 -1.47439 0
M  V30 5449 H 527.876 2.48203 -2.98357 0
M  V30 5450 H 525.977 3.63789 -0.805505 0
M  V30 5451 H 526.09 3.98661 -2.65718 0
M  V30 5452 H 524.454 2.17151 -1.33108 0
M  V30 5453 H 525.237 1.75587 -2.94999 0
M  V30 5454 N 527.682 1.05563 1.17022 0
M  V30 5455 C 528.91 0.78845 1.91288 0
M  V30 5456 C 529.325 -0.656318 1.77025 0
M  V30 5457 O 528.682 -1.44869 1.10992 0
M  V30 5458 C 528.733 1.16444 3.42232 0
M  V30 5459 O 528.454 2.5525 3.5606 0
M  V30 5460 C 529.955 0.923937 4.33565 0
M  V30 5461 H 527.175 0.286389 0.606813 0
M  V30 5462 H 529.719 1.4073 1.48375 0
M  V30 5463 H 527.874 0.590266 3.82877 0
M  V30 5464 H 528.288 2.70097 4.49609 0
M  V30 5465 H 529.762 1.23672 5.37968 0
M  V30 5466 H 530.239 -0.140688 4.38975 0
M  V30 5467 H 530.845 1.48214 3.98639 0
M  V30 5468 N 529.16 -1.33526 0.837174 0
M  V30 5469 C 530.407 -1.97837 0.432064 0
M  V30 5470 C 530.735 -1.66324 -1.00829 0
M  V30 5471 O 529.99 -0.93448 -1.71948 0
M  V30 5472 C 530.289 -3.52367 0.597675 0
M  V30 5473 C 529.955 -4.03826 2.00587 0
M  V30 5474 C 528.617 -4.1759 2.39106 0
M  V30 5475 C 530.969 -4.31333 2.92576 0
M  V30 5476 C 528.297 -4.56195 3.68921 0
M  V30 5477 C 530.649 -4.7139 4.2187 0
M  V30 5478 C 529.313 -4.8336 4.60347 0
M  V30 5479 H 528.583 -0.723937 0.158104 0
M  V30 5480 H 531.23 -1.5923 1.06387 0
M  V30 5481 H 529.535 -3.91624 -0.117452 0
M  V30 5482 H 531.232 -4.00126 0.26454 0
M  V30 5483 H 527.822 -3.93586 1.69671 0
M  V30 5484 H 532.006 -4.20224 2.64056 0
M  V30 5485 H 527.262 -4.63655 3.9854 0
M  V30 5486 H 531.436 -4.91631 4.93226 0
M  V30 5487 H 529.063 -5.1303 5.60985 0
M  V30 5488 N 530.638 -0.59345 -1.46 0
M  V30 5489 C 532.049 -0.169801 -1.85926 0
M  V30 5490 C 532.4 1.26984 -1.49565 0
M  V30 5491 O 531.525 1.96076 -0.915602 0
M  V30 5492 C 532.12 -0.301385 -3.37457 0
M  V30 5493 C 530.679 0.0674684 -3.7634 0
M  V30 5494 C 529.826 -0.632383 -2.69993 0
M  V30 5495 H 532.777 -0.801014 -1.37002 0
M  V30 5496 H 532.798 0.470331 -3.77582 0
M  V30 5497 H 532.31 -1.34927 -3.63891 0
M  V30 5498 H 530.411 1.11507 -3.55523 0
M  V30 5499 H 530.524 -0.316332 -4.78055 0
M  V30 5500 H 528.888 -0.0714961 -2.546 0
M  V30 5501 H 529.671 -1.68212 -2.99265 0
M  V30 5502 N 532.116 1.54067 -0.331816 0
M  V30 5503 C 533.079 2.23275 0.517768 0
M  V30 5504 C 534.079 1.22897 1.03697 0
M  V30 5505 O 535.269 1.47419 0.928084 0
M  V30 5506 C 532.401 2.94326 1.72004 0
M  V30 5507 H 533.594 2.99773 -0.0873507 0
M  V30 5508 H 531.147 1.56079 -0.0830042 0
M  V30 5509 H 531.882 2.21986 2.36417 0
M  V30 5510 H 531.667 3.67941 1.35507 0
M  V30 5511 H 533.157 3.47031 2.32291 0
M  V30 5512 N 533.594 0.0601682 1.57485 0
M  V30 5513 C 534.819 -0.624416 1.97777 0
M  V30 5514 C 535.244 -1.63051 0.937867 0
M  V30 5515 O 534.602 -1.81036 -0.0978845 0
M  V30 5516 C 534.65 -1.27979 3.37126 0
M  V30 5517 O 533.754 -2.39556 3.35688 0
M  V30 5518 H 533.095 -0.161581 0.64404 0
M  V30 5519 H 535.625 0.131237 2.04179 0
M  V30 5520 H 535.635 -1.62937 3.74053 0
M  V30 5521 H 534.31 -0.542501 4.12347 0
M  V30 5522 H 532.887 -2.06478 3.10517 0
M  V30 5523 N 535.072 -1.5615 -0.213296 0
M  V30 5524 C 536.297 -1.83986 -0.957282 0
M  V30 5525 C 536.722 -0.641526 -1.76822 0
M  V30 5526 O 536.08 0.409722 -1.7661 0
M  V30 5527 C 536.128 -3.09889 -1.84393 0
M  V30 5528 O 535.232 -2.89163 -2.94038 0
M  V30 5529 H 534.573 -0.606357 -0.270605 0
M  V30 5530 H 537.103 -2.03369 -0.224111 0
M  V30 5531 H 537.113 -3.40209 -2.25215 0
M  V30 5532 H 535.788 -3.96735 -1.24795 0
M  V30 5533 H 534.365 -2.70097 -2.57103 0
M  V30 5534 N 536.55 0.480323 -1.50102 0
M  V30 5535 C 537.961 1.06142 -1.53593 0
M  V30 5536 C 538.312 1.93335 -0.334055 0
M  V30 5537 O 537.437 2.09188 0.55403 0
M  V30 5538 C 538.032 1.9317 -2.78336 0
M  V30 5539 C 536.591 2.46405 -2.84538 0
M  V30 5540 C 535.738 1.24521 -2.4777 0
M  V30 5541 H 538.689 0.26333 -1.565 0
M  V30 5542 H 538.71 2.78123 -2.59669 0
M  V30 5543 H 538.222 1.29683 -3.65792 0
M  V30 5544 H 536.323 3.13472 -2.01411 0
M  V30 5545 H 536.436 2.82143 -3.87211 0
M  V30 5546 H 534.8 1.57706 -2.00003 0
M  V30 5547 H 535.583 0.627102 -3.37524 0
M  V30 5548 N 538.028 1.39524 0.732853 0
M  V30 5549 C 539.258 1.3994 1.51988 0
M  V30 5550 C 539.666 -0.00727973 1.89199 0
M  V30 5551 O 539.009 -0.989521 1.54771 0
M  V30 5552 C 539.071 2.21026 2.83527 0
M  V30 5553 C 538.735 3.69633 2.68738 0
M  V30 5554 C 539.732 4.62665 2.37143 0
M  V30 5555 C 537.417 4.13244 2.85542 0
M  V30 5556 C 539.411 5.97291 2.22536 0
M  V30 5557 C 537.098 5.47945 2.70554 0
M  V30 5558 C 538.096 6.39783 2.39097 0
M  V30 5559 O 537.784 7.72002 2.24204 0
M  V30 5560 H 537.516 0.479795 0.476206 0
M  V30 5561 H 540.07 1.8399 0.913054 0
M  V30 5562 H 538.3 1.71728 3.46477 0
M  V30 5563 H 539.989 2.13594 3.45156 0
M  V30 5564 H 540.755 4.30272 2.2381 0
M  V30 5565 H 536.634 3.42094 3.09019 0
M  V30 5566 H 540.178 6.68939 1.97905 0
M  V30 5567 H 536.075 5.79928 2.83466 0
M  V30 5568 H 536.843 7.8275 2.39258 0
M  V30 5569 N 539.506 -0.963266 1.24736 0
M  V30 5570 C 540.752 -1.70933 1.09131 0
M  V30 5571 C 541.085 -1.90676 -0.368273 0
M  V30 5572 O 540.36 -1.47147 -1.27193 0
M  V30 5573 C 540.643 -3.09744 1.83658 0
M  V30 5574 C 540.496 -2.97465 3.37394 0
M  V30 5575 C 541.815 -4.09483 1.61282 0
M  V30 5576 H 538.934 -0.620398 0.397838 0
M  V30 5577 H 541.576 -1.12028 1.53459 0
M  V30 5578 H 539.726 -3.60031 1.4598 0
M  V30 5579 H 541.398 -2.54571 3.84696 0
M  V30 5580 H 539.641 -2.33576 3.65547 0
M  V30 5581 H 540.312 -3.95822 3.84745 0
M  V30 5582 H 542.788 -3.68073 1.94066 0
M  V30 5583 H 541.664 -5.04666 2.15878 0
M  V30 5584 H 541.925 -4.38639 0.552102 0
M  V30 5585 N 540.985 -1.06182 -1.16461 0
M  V30 5586 C 542.213 -0.798583 -1.90867 0
M  V30 5587 C 542.628 0.646921 -1.77371 0
M  V30 5588 O 541.985 1.44279 -1.11758 0
M  V30 5589 C 542.036 -1.18258 -3.4161 0
M  V30 5590 O 541.757 -2.57135 -3.54701 0
M  V30 5591 C 543.258 -0.946917 -4.33069 0
M  V30 5592 H 540.478 -0.289603 -0.605286 0
M  V30 5593 H 543.022 -1.41515 -1.47627 0
M  V30 5594 H 541.177 -0.610562 -3.82558 0
M  V30 5595 H 541.591 -2.72477 -4.4817 0
M  V30 5596 H 543.065 -1.26523 -5.37304 0
M  V30 5597 H 543.542 0.117406 -4.39043 0
M  V30 5598 H 544.148 -1.50326 -3.97847 0
M  V30 5599 N 542.463 1.3308 -0.844243 0
M  V30 5600 C 543.691 2.01808 -0.456203 0
M  V30 5601 C 544.106 1.63498 0.944131 0
M  V30 5602 O 543.463 0.85102 1.61443 0
M  V30 5603 C 543.514 3.56922 -0.573513 0
M  V30 5604 O 543.235 3.93851 -1.91868 0
M  V30 5605 C 544.736 4.42922 -0.183125 0
M  V30 5606 H 541.956 0.646273 -0.180477 0
M  V30 5607 H 544.5 1.69891 -1.1383 0
M  V30 5608 H 542.655 3.87352 0.0607367 0
M  V30 5609 H 543.069 4.88564 -1.90802 0
M  V30 5610 H 544.543 5.51093 -0.316241 0
M  V30 5611 H 545.02 4.30386 0.875477 0
M  V30 5612 H 545.626 4.1786 -0.792027 0
M  V30 5613 N 543.941 0.601185 1.45683 0
M  V30 5614 C 545.187 0.0940202 2.02582 0
M  V30 5615 C 545.52 -1.26972 1.46941 0
M  V30 5616 O 544.795 -1.83613 0.641612 0
M  V30 5617 C 545.078 0.0481715 3.60068 0
M  V30 5618 C 544.931 1.44212 4.26055 0
M  V30 5619 C 546.25 -0.642975 4.35378 0
M  V30 5620 H 543.369 0.0356404 0.736138 0
M  V30 5621 H 546.011 0.771929 1.73612 0
M  V30 5622 H 544.161 -0.529128 3.8488 0
M  V30 5623 H 545.833 2.06601 4.12449 0
M  V30 5624 H 544.076 2.00465 3.84703 0
M  V30 5625 H 544.747 1.36234 5.34925 0
M  V30 5626 H 547.223 -0.152351 4.15821 0
M  V30 5627 H 546.099 -0.644141 5.45107 0
M  V30 5628 H 546.36 -1.70785 4.0778 0
M  V30 5629 N 545.419 -1.53889 0.339982 0
M  V30 5630 C 546.667 -2.00458 -0.257112 0
M  V30 5631 C 546.988 -1.22953 -1.51353 0
M  V30 5632 O 546.258 -0.335734 -1.93002 0
M  V30 5633 H 544.838 -0.740544 -0.0979965 0
M  V30 5634 H 547.5 -1.89386 0.460317 0
M  V30 5635 H 546.596 -3.08035 -0.502057 0
M  V30 5636 N 546.897 -0.0685191 -1.57451 0
M  V30 5637 C 548.145 0.60016 -1.92983 0
M  V30 5638 C 548.466 1.70348 -0.949028 0
M  V30 5639 O 547.736 1.959 0.00335647 0
M  V30 5640 H 546.316 0.224682 -0.712409 0
M  V30 5641 H 548.978 -0.125605 -1.94495 0
M  V30 5642 H 548.074 1.02759 -2.94698 0
M  V30 5643 N 548.375 1.56261 0.205012 0
M  V30 5644 C 549.603 1.84141 0.943386 0
M  V30 5645 C 550.018 0.649772 1.77266 0
M  V30 5646 O 549.375 -0.381612 1.78466 0
M  V30 5647 C 549.426 3.10719 1.84759 0
M  V30 5648 O 549.147 4.25286 1.05181 0
M  V30 5649 C 550.648 3.51706 2.69848 0
M  V30 5650 H 547.868 0.611734 0.275721 0
M  V30 5651 H 550.412 2.03364 0.215253 0
M  V30 5652 H 548.567 2.93422 2.52947 0
M  V30 5653 H 548.981 4.97301 1.66709 0
M  V30 5654 H 550.455 4.43266 3.28967 0
M  V30 5655 H 550.932 2.7423 3.43067 0
M  V30 5656 H 551.538 3.71499 2.07047 0
M  V30 5657 N 549.853 -0.472356 1.50355 0
M  V30 5658 C 551.078 -1.25251 1.65309 0
M  V30 5659 C 551.503 -1.85081 0.335643 0
M  V30 5660 O 550.861 -1.67227 -0.700335 0
M  V30 5661 C 550.909 -2.3379 2.74544 0
M  V30 5662 O 550.013 -3.38401 2.35709 0
M  V30 5663 H 549.354 -0.368539 0.552336 0
M  V30 5664 H 551.884 -0.562271 1.96722 0
M  V30 5665 H 551.894 -2.79121 2.97583 0
M  V30 5666 H 550.569 -1.89614 3.70161 0
M  V30 5667 H 549.146 -2.9879 2.23112 0
M  V30 5668 N 551.331 -1.39911 -0.725443 0
M  V30 5669 C 552.578 -1.37654 -1.48518 0
M  V30 5670 C 552.906 0.0243982 -1.94485 0
M  V30 5671 O 552.161 1.00708 -1.67799 0
M  V30 5672 C 552.46 -2.30368 -2.7325 0
M  V30 5673 C 552.126 -3.77817 -2.461 0
M  V30 5674 C 550.788 -4.17991 -2.38405 0
M  V30 5675 C 553.14 -4.71036 -2.23103 0
M  V30 5676 C 550.468 -5.49433 -2.05768 0
M  V30 5677 C 552.82 -6.02766 -1.9198 0
M  V30 5678 C 551.484 -6.41993 -1.82761 0
M  V30 5679 H 550.754 -0.503713 -0.543465 0
M  V30 5680 H 553.401 -1.7249 -0.831822 0
M  V30 5681 H 551.706 -1.88683 -3.43375 0
M  V30 5682 H 553.403 -2.2591 -3.31309 0
M  V30 5683 H 549.993 -3.45982 -2.52972 0
M  V30 5684 H 554.177 -4.40823 -2.2801 0
M  V30 5685 H 549.433 -5.78738 -1.9716 0
M  V30 5686 H 553.607 -6.74519 -1.73197 0
M  V30 5687 H 551.234 -7.43761 -1.57237 0
M  V30 5688 N 552.809 0.956637 -1.25245 0
M  V30 5689 C 553.741 2.05628 -1.01242 0
M  V30 5690 C 554.754 1.62785 0.0219579 0
M  V30 5691 O 555.943 1.77184 -0.216365 0
M  V30 5692 C 553.043 3.35069 -0.508161 0
M  V30 5693 C 552.216 4.06761 -1.60823 0
M  V30 5694 C 551.275 5.14473 -1.1047 0
M  V30 5695 O 550.301 5.40033 -1.79868 0
M  V30 5696 N 551.503 5.80474 0.0550773 0
M  V30 5697 H 554.268 2.2679 -1.95925 0
M  V30 5698 H 551.829 1.12505 -1.16423 0
M  V30 5699 H 553.821 4.044 -0.155819 0
M  V30 5700 H 552.391 3.10694 0.344683 0
M  V30 5701 H 551.611 3.31555 -2.13224 0
M  V30 5702 H 552.899 4.51418 -2.34733 0
M  V30 5703 H 552.297 5.62125 0.635004 0
M  V30 5704 H 550.854 6.50868 0.348469 0
M  V30 5705 N 554.287 1.06798 1.15896 0
M  V30 5706 C 555.197 0.694564 2.24083 0
M  V30 5707 C 556.213 -0.291687 1.71538 0
M  V30 5708 O 557.389 -0.139723 2.00915 0
M  V30 5709 C 554.454 0.0921014 3.46578 0
M  V30 5710 C 553.515 1.13087 4.14137 0
M  V30 5711 C 552.748 0.557064 5.30785 0
M  V30 5712 O 552.971 -0.628623 5.66925 0
M  V30 5713 O 551.905 1.29924 5.8771 0
M  V30 5714 H 555.731 1.59663 2.58344 0
M  V30 5715 H 553.316 0.840575 1.2351 0
M  V30 5716 H 555.198 -0.241884 4.20705 0
M  V30 5717 H 553.873 -0.78337 3.14078 0
M  V30 5718 H 552.78 1.51712 3.41957 0
M  V30 5719 H 554.113 1.97805 4.50704 0
M  V30 5720 N 555.766 -1.3263 0.851289 0
M  V30 5721 C 557.177 -1.79653 0.5081 0
M  V30 5722 C 557.528 -1.70327 -0.973815 0
M  V30 5723 O 556.653 -1.25986 -1.75944 0
M  V30 5724 C 557.248 -3.26196 0.915515 0
M  V30 5725 C 555.807 -3.71187 0.624277 0
M  V30 5726 C 554.954 -2.53804 1.11709 0
M  V30 5727 H 557.905 -1.19976 1.03882 0
M  V30 5728 H 557.926 -3.79801 0.230535 0
M  V30 5729 H 557.438 -3.32952 1.99411 0
M  V30 5730 H 555.539 -3.69948 -0.443737 0
M  V30 5731 H 555.652 -4.64132 1.18821 0
M  V30 5732 H 554.016 -2.48964 0.537484 0
M  V30 5733 H 554.799 -2.63315 2.20272 0
M  V30 5734 N 557.244 -0.608902 -1.45362 0
M  V30 5735 C 558.491 -0.104607 -2.0223 0
M  V30 5736 C 558.819 1.26534 -1.47714 0
M  V30 5737 O 558.074 1.84855 -0.642435 0
M  V30 5738 C 558.373 -0.0167296 -3.57396 0
M  V30 5739 C 558.039 -1.32251 -4.31069 0
M  V30 5740 C 556.701 -1.68019 -4.50914 0
M  V30 5741 C 559.053 -2.18542 -4.73169 0
M  V30 5742 C 556.381 -2.89828 -5.10114 0
M  V30 5743 C 558.733 -3.39602 -5.33717 0
M  V30 5744 C 557.397 -3.7562 -5.51784 0
M  V30 5745 H 556.667 -0.0382785 -0.740011 0
M  V30 5746 H 559.314 -0.790782 -1.7441 0
M  V30 5747 H 557.619 0.752715 -3.84502 0
M  V30 5748 H 559.316 0.389634 -3.99103 0
M  V30 5749 H 555.906 -1.03411 -4.15938 0
M  V30 5750 H 560.09 -1.92208 -4.5757 0
M  V30 5751 H 555.346 -3.17839 -5.22291 0
M  V30 5752 H 559.52 -4.06716 -5.65292 0
M  V30 5753 H 557.147 -4.70093 -5.97425 0
M  V30 5754 N 558.722 1.53707 -0.348139 0
M  V30 5755 C 559.652 2.28111 0.498766 0
M  V30 5756 C 560.633 1.29851 1.09876 0
M  V30 5757 O 561.818 1.587 1.11928 0
M  V30 5758 C 558.948 3.05735 1.64753 0
M  V30 5759 C 557.902 4.11537 1.17565 0
M  V30 5760 C 557.228 4.77142 2.4133 0
M  V30 5761 C 558.528 5.21587 0.272844 0
M  V30 5762 H 560.222 2.99152 -0.121934 0
M  V30 5763 H 557.768 1.43875 -0.0600842 0
M  V30 5764 H 559.721 3.56526 2.24649 0
M  V30 5765 H 558.445 2.32354 2.2952 0
M  V30 5766 H 557.104 3.61665 0.599483 0
M  V30 5767 H 556.752 4.0035 3.04514 0
M  V30 5768 H 556.452 5.48626 2.10436 0
M  V30 5769 H 557.976 5.30719 3.01943 0
M  V30 5770 H 559.39 5.67986 0.778779 0
M  V30 5771 H 557.787 6.00074 0.0555849 0
M  V30 5772 H 558.857 4.79969 -0.689785 0
M  V30 5773 N 560.2 0.0768682 1.57412 0
M  V30 5774 C 561.449 -0.590679 1.92857 0
M  V30 5775 C 561.762 -1.70461 0.959293 0
M  V30 5776 O 562.968 -2.43207 1.20675 0
M  V30 5777 C 561.424 -1.10204 3.42612 0
M  V30 5778 C 561.032 -0.0188447 4.47996 0
M  V30 5779 C 562.776 -1.74336 3.87049 0
M  V30 5780 C 560.683 -0.544536 5.88888 0
M  V30 5781 H 559.613 -0.224411 0.71983 0
M  V30 5782 H 562.264 0.149924 1.82887 0
M  V30 5783 H 560.646 -1.89577 3.47673 0
M  V30 5784 H 561.82 0.755936 4.54557 0
M  V30 5785 H 560.135 0.526555 4.13057 0
M  V30 5786 H 562.732 -2.14708 4.89699 0
M  V30 5787 H 563.075 -2.60537 3.24694 0
M  V30 5788 H 563.608 -1.01577 3.84613 0
M  V30 5789 H 560.347 0.280426 6.549 0
M  V30 5790 H 559.867 -1.28673 5.85836 0
M  V30 5791 H 561.546 -1.01933 6.3892 0
M  V30 5792 N 561.678 -1.56367 -0.196722 0
M  V30 5793 C 562.906 -1.84639 -0.933608 0
M  V30 5794 C 563.321 -0.659164 -1.76919 0
M  V30 5795 O 562.678 0.372142 -1.78665 0
M  V30 5796 C 562.729 -3.11694 -1.83109 0
M  V30 5797 O 562.45 -4.25838 -1.02924 0
M  V30 5798 C 563.951 -3.53132 -2.67979 0
M  V30 5799 H 561.171 -0.613188 -0.272473 0
M  V30 5800 H 563.715 -2.03475 -0.204465 0
M  V30 5801 H 561.87 -2.94759 -2.51387 0
M  V30 5802 H 562.284 -4.98178 -1.64069 0
M  V30 5803 H 563.758 -4.45005 -3.26611 0
M  V30 5804 H 564.235 -2.76045 -3.41608 0
M  V30 5805 H 564.841 -3.72592 -2.05074 0
M  V30 5806 N 563.156 0.464375 -1.50603 0
M  V30 5807 C 564.104 1.58224 -1.70493 0
M  V30 5808 C 565.098 1.59492 -0.570836 0
M  V30 5809 O 566.304 1.63561 -0.751517 0
M  V30 5810 H 562.679 0.525161 -0.538247 0
M  V30 5811 H 564.65 1.38613 -2.64252 0
M  V30 5812 C 563.399 2.96113 -1.82243 0
M  V30 5813 H 562.722 2.95858 -2.68901 0
M  V30 5814 H 564.162 3.73769 -2.00182 0
M  V30 5815 C 562.621 3.31946 -0.575628 0
M  V30 5816 O 563.151 4.00708 0.282152 0
M  V30 5817 N 561.357 2.87436 -0.427665 0
M  V30 5818 H 560.904 2.31652 -1.12674 0
M  V30 5819 H 560.862 3.11776 0.405379 0
M  V30 5820 N 564.634 1.40294 0.718013 0
M  V30 5821 C 565.544 1.42678 1.86226 0
M  V30 5822 C 566.56 0.319655 1.71039 0
M  V30 5823 O 567.736 0.563852 1.93346 0
M  V30 5824 C 564.801 1.2852 3.21999 0
M  V30 5825 C 563.862 2.49354 3.49458 0
M  V30 5826 C 563.095 2.35863 4.78753 0
M  V30 5827 O 563.318 1.37114 5.53675 0
M  V30 5828 O 562.252 3.25189 5.06494 0
M  V30 5829 H 566.078 2.39167 1.87171 0
M  V30 5830 H 563.663 1.2159 0.868112 0
M  V30 5831 H 565.545 1.22824 4.03103 0
M  V30 5832 H 564.22 0.351359 3.21787 0
M  V30 5833 H 563.127 2.60628 2.68373 0
M  V30 5834 H 564.46 3.41491 3.54464 0
M  V30 5835 N 566.112 -0.949982 1.2575 0
M  V30 5836 C 567.361 -1.68956 1.10168 0
M  V30 5837 C 567.674 -1.92327 -0.356309 0
M  V30 5838 O 568.88 -2.64026 -0.632657 0
M  V30 5839 C 567.336 -3.04196 1.92336 0
M  V30 5840 C 566.944 -2.88603 3.42655 0
M  V30 5841 C 568.688 -3.81904 1.85336 0
M  V30 5842 C 566.595 -4.19262 4.17101 0
M  V30 5843 H 565.525 -0.633645 0.408668 0
M  V30 5844 H 568.176 -1.05719 1.49986 0
M  V30 5845 H 566.558 -3.68363 1.45344 0
M  V30 5846 H 567.732 -2.3334 3.97353 0
M  V30 5847 H 566.047 -2.24345 3.50796 0
M  V30 5848 H 568.644 -4.78688 2.38248 0
M  V30 5849 H 568.987 -4.08099 0.822226 0
M  V30 5850 H 569.52 -3.24495 2.30104 0
M  V30 5851 H 566.259 -3.98254 5.20648 0
M  V30 5852 H 565.779 -4.74273 3.67186 0
M  V30 5853 H 567.458 -4.87775 4.25071 0
M  V30 5854 N 567.59 -1.07411 -1.15328 0
M  V30 5855 C 568.836 -0.798831 -1.86404 0
M  V30 5856 C 569.169 0.673433 -1.8215 0
M  V30 5857 O 568.444 1.49428 -1.24505 0
M  V30 5858 C 568.727 -1.30846 -3.35487 0
M  V30 5859 C 568.58 -2.84532 -3.4837 0
M  V30 5860 C 569.899 -0.925486 -4.30259 0
M  V30 5861 H 567.018 -0.291659 -0.676834 0
M  V30 5862 H 569.66 -1.332 -1.35491 0
M  V30 5863 H 567.81 -0.854916 -3.78977 0
M  V30 5864 H 569.482 -3.3818 -3.13739 0
M  V30 5865 H 567.725 -3.22699 -2.8991 0
M  V30 5866 H 568.396 -3.15259 -4.53118 0
M  V30 5867 H 570.872 -1.3163 -3.94731 0
M  V30 5868 H 569.748 -1.3094 -5.33053 0
M  V30 5869 H 570.009 0.168525 -4.41779 0
M  V30 5870 N 569.068 1.32177 -0.85831 0
M  V30 5871 C 570.345 1.91781 -0.384624 0
M  V30 5872 C 570.725 1.78171 1.13217 0
M  V30 5873 O 570.073 1.18209 1.95548 0
M  V30 5874 C 570.283 3.38414 -0.853047 0
M  V30 5875 C 571.631 4.15542 -0.872359 0
M  V30 5876 O 572.655 3.47148 -0.797926 0
M  V30 5877 O 571.514 5.37678 -0.978009 0
M  V30 5878 H 568.608 0.819259 -0.112886 0
M  V30 5879 H 571.154 1.40923 -0.945453 0
M  V30 5880 H 569.926 3.4228 -1.89632 0
M  V30 5881 H 569.549 3.96683 -0.269874 0
M  V30 5882 N 570.547 0.616602 1.45037 0
M  V30 5883 C 571.777 0.121791 2.06241 0
M  V30 5884 C 572.185 -1.20289 1.46038 0
M  V30 5885 O 571.528 -1.7456 0.572242 0
M  V30 5886 C 571.59 -0.0827345 3.59405 0
M  V30 5887 C 571.254 1.16153 4.41993 0
M  V30 5888 C 572.251 2.08183 4.76399 0
M  V30 5889 C 569.936 1.39288 4.82601 0
M  V30 5890 C 571.93 3.21668 5.5028 0
M  V30 5891 C 569.617 2.53073 5.56235 0
M  V30 5892 C 570.615 3.44091 5.89992 0
M  V30 5893 O 570.303 4.55894 6.6213 0
M  V30 5894 H 570.035 0.0701667 0.672349 0
M  V30 5895 H 572.589 0.846877 1.87129 0
M  V30 5896 H 570.819 -0.862812 3.76952 0
M  V30 5897 H 572.508 -0.530273 4.02421 0
M  V30 5898 H 573.274 1.91538 4.45576 0
M  V30 5899 H 569.153 0.693396 4.55755 0
M  V30 5900 H 572.697 3.92733 5.76547 0
M  V30 5901 H 568.594 2.69667 5.86472 0
M  V30 5902 H 569.362 4.5469 6.80587 0
M  V30 5903 N 572.025 -1.5352 0.356285 0
M  V30 5904 C 573.274 -2.00298 -0.237373 0
M  V30 5905 C 573.587 -1.24784 -1.50627 0
M  V30 5906 O 574.793 -1.62103 -2.17795 0
M  V30 5907 C 573.249 -3.56771 -0.473545 0
M  V30 5908 C 572.857 -4.41154 0.780183 0
M  V30 5909 C 574.601 -4.1193 -1.02537 0
M  V30 5910 C 572.508 -5.89161 0.514108 0
M  V30 5911 H 571.438 -0.748307 -0.092478 0
M  V30 5912 H 574.089 -1.77283 0.473588 0
M  V30 5913 H 572.471 -3.75902 -1.24553 0
M  V30 5914 H 573.645 -4.33797 1.55425 0
M  V30 5915 H 571.96 -3.97052 1.25455 0
M  V30 5916 H 574.557 -5.20133 -1.2396 0
M  V30 5917 H 574.9 -3.65943 -1.98473 0
M  V30 5918 H 575.433 -3.96561 -0.313775 0
M  V30 5919 H 572.172 -6.39408 1.44355 0
M  V30 5920 H 571.692 -5.9939 -0.221632 0
M  V30 5921 H 573.371 -6.46857 0.136122 0
M  V30 5922 N 573.503 -0.0852151 -1.57369 0
M  V30 5923 C 574.728 0.592872 -1.98746 0
M  V30 5924 C 575.153 1.61538 -0.963689 0
M  V30 5925 O 574.511 1.81168 0.069071 0
M  V30 5926 C 574.559 1.22599 -3.39119 0
M  V30 5927 O 573.663 2.34185 -3.39457 0
M  V30 5928 H 573.004 0.151314 -0.646529 0
M  V30 5929 H 575.534 -0.163703 -2.03944 0
M  V30 5930 H 575.544 1.56965 -3.76598 0
M  V30 5931 H 574.219 0.476831 -4.13158 0
M  V30 5932 H 572.796 2.01512 -3.13763 0
M  V30 5933 N 574.981 1.5647 0.188427 0
M  V30 5934 C 576.229 1.80655 0.905986 0
M  V30 5935 C 576.55 0.659391 1.83513 0
M  V30 5936 O 575.82 -0.321868 1.93238 0
M  V30 5937 H 574.4 0.666391 0.337538 0
M  V30 5938 H 577.062 1.93949 0.192339 0
M  V30 5939 H 576.158 2.74066 1.49313 0
M  V30 5940 N 576.459 -0.456382 1.50847 0
M  V30 5941 C 577.707 -1.20497 1.62249 0
M  V30 5942 C 578.028 -1.92156 0.331839 0
M  V30 5943 O 577.298 -1.84751 -0.651443 0
M  V30 5944 H 575.878 -0.447775 0.597918 0
M  V30 5945 H 578.54 -0.525099 1.87693 0
M  V30 5946 H 577.636 -1.94492 2.44089 0
M  V30 5947 N 577.937 -1.40673 -0.710563 0
M  V30 5948 C 579.185 -1.38947 -1.46759 0
M  V30 5949 C 579.506 0.00572879 -1.94999 0
M  V30 5950 O 578.776 0.961358 -1.70689 0
M  V30 5951 H 577.356 -0.5114 -0.544499 0
M  V30 5952 H 580.018 -1.75773 -0.842012 0
M  V30 5953 H 579.114 -2.06745 -2.33801 0
M  V30 5954 N 579.415 0.9433 -1.26252 0
M  V30 5955 C 580.662 1.68925 -1.11672 0
M  V30 5956 C 580.99 1.91499 0.340329 0
M  V30 5957 O 580.245 1.49189 1.26653 0
M  V30 5958 C 580.544 3.07073 -1.82868 0
M  V30 5959 C 580.21 3.04262 -3.32769 0
M  V30 5960 C 578.872 3.03203 -3.7366 0
M  V30 5961 C 581.224 2.96729 -4.28487 0
M  V30 5962 C 578.552 2.92373 -5.0866 0
M  V30 5963 C 580.904 2.87442 -5.63525 0
M  V30 5964 C 579.568 2.84724 -6.03729 0
M  V30 5965 H 578.838 0.618141 -0.408635 0
M  V30 5966 H 581.485 1.10124 -1.56668 0
M  V30 5967 H 579.79 3.69486 -1.30335 0
M  V30 5968 H 581.487 3.63635 -1.69029 0
M  V30 5969 H 578.077 3.05865 -3.00241 0
M  V30 5970 H 582.261 2.96658 -3.97879 0
M  V30 5971 H 577.517 2.88645 -5.38975 0
M  V30 5972 H 581.691 2.80576 -6.37377 0
M  V30 5973 H 579.318 2.76089 -7.08293 0
M  V30 5974 N 580.893 1.08022 1.14757 0
M  V30 5975 C 582.118 0.82895 1.90114 0
M  V30 5976 C 582.543 -0.612772 1.77839 0
M  V30 5977 O 581.901 -1.42895 1.11583 0
M  V30 5978 C 581.949 1.25062 3.38219 0
M  V30 5979 O 581.053 0.400119 4.10454 0
M  V30 5980 H 580.394 0.301412 0.591648 0
M  V30 5981 H 582.924 1.44062 1.45284 0
M  V30 5982 H 582.934 1.22977 3.89025 0
M  V30 5983 H 581.609 2.30067 3.46471 0
M  V30 5984 H 580.186 0.484052 3.69745 0
M  V30 5985 N 582.371 -1.3172 0.865308 0
M  V30 5986 C 583.319 -2.30569 0.306674 0
M  V30 5987 C 584.313 -1.59317 -0.575724 0
M  V30 5988 O 585.519 -1.73961 -0.462343 0
M  V30 5989 H 581.894 -0.747681 0.0804834 0
M  V30 5990 H 583.865 -2.75165 1.15441 0
M  V30 5991 C 582.614 -3.44358 -0.480952 0
M  V30 5992 H 581.937 -3.99354 0.18876 0
M  V30 5993 H 583.377 -4.15652 -0.837241 0
M  V30 5994 C 581.836 -2.92574 -1.67039 0
M  V30 5995 O 582.366 -2.90954 -2.76964 0
M  V30 5996 N 580.572 -2.48835 -1.50097 0
M  V30 5997 H 580.119 -2.50353 -0.606738 0
M  V30 5998 H 580.077 -2.14543 -2.29823 0
M  V30 5999 N 583.85 -0.624285 -1.44708 0
M  V30 6000 C 585.096 -0.126237 -2.02407 0
M  V30 6001 C 585.428 1.24618 -1.48943 0
M  V30 6002 O 584.704 1.82569 -0.670742 0
M  V30 6003 C 584.986 -0.105449 -3.59946 0
M  V30 6004 C 584.84 -1.50972 -4.23707 0
M  V30 6005 C 586.159 0.573629 -4.36346 0
M  V30 6006 H 583.278 -0.0473472 -0.735478 0
M  V30 6007 H 585.92 -0.799452 -1.72362 0
M  V30 6008 H 584.07 0.46783 -3.85673 0
M  V30 6009 H 585.742 -2.13136 -4.0911 0
M  V30 6010 H 583.985 -2.0656 -3.81465 0
M  V30 6011 H 584.656 -1.44727 -5.32689 0
M  V30 6012 H 587.132 0.0861787 -4.16011 0
M  V30 6013 H 586.008 0.557338 -5.46063 0
M  V30 6014 H 586.269 1.64276 -4.10446 0
M  V30 6015 N 585.328 1.53329 -0.364422 0
M  V30 6016 C 586.575 2.01239 0.225634 0
M  V30 6017 C 586.903 1.25172 1.48869 0
M  V30 6018 O 586.158 0.333289 1.92841 0
M  V30 6019 C 586.457 3.52911 0.564661 0
M  V30 6020 C 586.123 4.46837 -0.603936 0
M  V30 6021 C 584.785 4.72234 -0.924585 0
M  V30 6022 C 587.137 5.02409 -1.38691 0
M  V30 6023 C 584.465 5.50454 -2.0302 0
M  V30 6024 C 586.817 5.81836 -2.48293 0
M  V30 6025 C 585.481 6.0552 -2.80894 0
M  V30 6026 H 584.751 0.736386 0.0825654 0
M  V30 6027 H 587.398 1.84948 -0.496645 0
M  V30 6028 H 585.703 3.67144 1.36794 0
M  V30 6029 H 587.4 3.87455 1.03344 0
M  V30 6030 H 583.99 4.27217 -0.343983 0
M  V30 6031 H 588.174 4.82735 -1.15243 0
M  V30 6032 H 583.43 5.67024 -2.28678 0
M  V30 6033 H 587.604 6.23905 -3.0938 0
M  V30 6034 H 585.231 6.65916 -3.66688 0
M  V30 6035 N 586.806 0.0935595 1.57322 0
M  V30 6036 C 588.217 -0.435807 1.81542 0
M  V30 6037 C 588.568 -1.68263 1.00907 0
M  V30 6038 O 587.693 -2.15087 0.237983 0
M  V30 6039 C 588.288 -0.797436 3.29282 0
M  V30 6040 C 586.847 -1.27155 3.54272 0
M  V30 6041 C 585.994 -0.267455 2.76007 0
M  V30 6042 H 588.945 0.31902 1.5546 0
M  V30 6043 H 588.966 -1.6571 3.42521 0
M  V30 6044 H 588.478 0.110206 3.87943 0
M  V30 6045 H 586.579 -2.19696 3.00939 0
M  V30 6046 H 586.692 -1.23445 4.62923 0
M  V30 6047 H 585.056 -0.749282 2.43429 0
M  V30 6048 H 585.839 0.632839 3.37417 0
M  V30 6049 N 588.284 -1.56567 -0.180126 0
M  V30 6050 C 589.7 -1.50488 -0.531559 0
M  V30 6051 C 589.9 -0.796267 -1.851 0
M  V30 6052 O 588.956 -0.352978 -2.50021 0
M  V30 6053 C 590.269 -2.95201 -0.572456 0
M  V30 6054 C 591.817 -3.05957 -0.660264 0
M  V30 6055 C 592.292 -4.5211 -0.732135 0
M  V30 6056 N 593.783 -4.56322 -0.795262 0
M  V30 6057 C 594.518 -5.66742 -0.871296 0
M  V30 6058 N 594.014 -6.86815 -0.908708 0
M  V30 6059 N 595.807 -5.54691 -0.909639 0
M  V30 6060 H 587.958 -2.01045 0.685165 0
M  V30 6061 H 590.221 -0.915536 0.245962 0
M  V30 6062 H 589.927 -3.50165 0.328208 0
M  V30 6063 H 589.801 -3.49369 -1.422 0
M  V30 6064 H 592.188 -2.51032 -1.55136 0
M  V30 6065 H 592.269 -2.54888 0.215783 0
M  V30 6066 H 591.913 -5.07664 0.154664 0
M  V30 6067 H 591.843 -5.00926 -1.6242 0
M  V30 6068 H 594.334 -3.69868 -0.77499 0
M  V30 6069 H 594.647 -7.66718 -0.967654 0
M  V30 6070 H 592.992 -6.89443 -0.877132 0
M  V30 6071 H 596.183 -4.59804 -0.877353 0
M  V30 6072 H 596.356 -6.40768 -0.965434 0
M  V30 6073 N 589.762 0.448376 -1.51087 0
M  V30 6074 C 591.173 1.0286 -1.5581 0
M  V30 6075 C 591.524 1.92583 -0.374989 0
M  V30 6076 O 590.649 2.10316 0.509533 0
M  V30 6077 C 591.244 1.87223 -2.8237 0
M  V30 6078 C 589.803 2.40314 -2.897 0
M  V30 6079 C 588.95 1.19238 -2.50355 0
M  V30 6080 H 591.901 0.230075 -1.57023 0
M  V30 6081 H 591.922 2.72553 -2.6551 0
M  V30 6082 H 591.434 1.21894 -3.68461 0
M  V30 6083 H 589.535 3.09129 -2.08014 0
M  V30 6084 H 589.648 2.73866 -3.93108 0
M  V30 6085 H 588.012 1.53428 -2.03303 0
M  V30 6086 H 588.795 0.555367 -3.38778 0
M  V30 6087 N 591.24 1.41047 0.703093 0
M  V30 6088 C 592.465 1.43537 1.49706 0
M  V30 6089 C 592.89 0.0401853 1.88057 0
M  V30 6090 O 592.248 -0.954785 1.54122 0
M  V30 6091 C 592.296 2.3433 2.74084 0
M  V30 6092 O 591.4 1.79515 3.71279 0
M  V30 6093 H 590.741 0.487454 0.450871 0
M  V30 6094 H 593.271 1.85422 0.86486 0
M  V30 6095 H 593.281 2.49947 3.22476 0
M  V30 6096 H 591.956 3.35708 2.45506 0
M  V30 6097 H 590.533 1.7331 3.30179 0
M  V30 6098 N 592.718 -0.936591 1.26751 0
M  V30 6099 C 593.948 -1.71509 1.15188 0
M  V30 6100 C 594.356 -1.86885 -0.295037 0
M  V30 6101 O 593.699 -1.37915 -1.21347 0
M  V30 6102 C 593.761 -3.13853 1.75318 0
M  V30 6103 C 593.425 -3.21845 3.24445 0
M  V30 6104 C 594.422 -3.04771 4.21201 0
M  V30 6105 C 592.107 -3.45088 3.64992 0
M  V30 6106 C 594.101 -3.10816 5.56482 0
M  V30 6107 C 591.788 -3.50767 5.00405 0
M  V30 6108 C 592.786 -3.33648 5.9596 0
M  V30 6109 O 592.474 -3.39045 7.28906 0
M  V30 6110 H 592.206 -0.543658 0.401761 0
M  V30 6111 H 594.76 -1.18234 1.67958 0
M  V30 6112 H 592.99 -3.6857 1.17016 0
M  V30 6113 H 594.679 -3.73634 1.58596 0
M  V30 6114 H 595.445 -2.86665 3.91214 0
M  V30 6115 H 591.324 -3.57467 2.91098 0
M  V30 6116 H 594.868 -2.97372 6.31043 0
M  V30 6117 H 590.765 -3.68396 5.30052 0
M  V30 6118 H 591.533 -3.55558 7.37238 0
M  V30 6119 N 594.196 -1.08629 -1.14182 0
M  V30 6120 C 595.128 -0.676189 -2.18998 0
M  V30 6121 C 596.141 0.277871 -1.60411 0
M  V30 6122 O 597.33 0.0651771 -1.78381 0
M  V30 6123 C 594.43 0.0254916 -3.3889 0
M  V30 6124 C 593.603 -0.948039 -4.27002 0
M  V30 6125 C 592.662 -0.281268 -5.25448 0
M  V30 6126 O 591.688 -0.926378 -5.61611 0
M  V30 6127 N 592.89 0.967923 -5.72374 0
M  V30 6128 H 595.655 -1.57792 -2.54798 0
M  V30 6129 H 593.216 -0.972665 -1.29425 0
M  V30 6130 H 595.208 0.482554 -4.01813 0
M  V30 6131 H 593.778 0.829348 -3.01398 0
M  V30 6132 H 592.998 -1.58388 -3.6098 0
M  V30 6133 H 594.286 -1.60765 -4.82734 0
M  V30 6134 H 593.684 1.51175 -5.45126 0
M  V30 6135 H 592.241 1.36844 -6.37273 0
M  V30 6136 N 595.674 1.31259 -0.872281 0
M  V30 6137 C 596.584 2.32221 -0.333255 0
M  V30 6138 C 597.6 1.6481 0.558013 0
M  V30 6139 O 598.776 1.96212 0.454175 0
M  V30 6140 C 595.841 3.43708 0.454479 0
M  V30 6141 C 594.902 4.26774 -0.465024 0
M  V30 6142 C 594.135 5.32937 0.28521 0
M  V30 6143 O 594.358 5.49968 1.513 0
M  V30 6144 O 593.292 6.00834 -0.358126 0
M  V30 6145 H 597.118 2.80252 -1.17016 0
M  V30 6146 H 594.703 1.352 -0.635724 0
M  V30 6147 H 596.585 4.11656 0.900963 0
M  V30 6148 H 595.26 2.97836 1.26789 0
M  V30 6149 H 594.167 3.61571 -0.960055 0
M  V30 6150 H 595.5 4.76217 -1.2441 0
M  V30 6151 N 597.152 0.631951 1.44375 0
M  V30 6152 C 598.062 -0.073674 2.34484 0
M  V30 6153 C 599.078 -0.834825 1.52665 0
M  V30 6154 O 600.254 -0.786902 1.85391 0
M  V30 6155 C 597.319 -1.04247 3.30656 0
M  V30 6156 C 596.38 -0.280602 4.28382 0
M  V30 6157 C 595.613 -1.20325 5.19959 0
M  V30 6158 O 595.836 -2.44199 5.15484 0
M  V30 6159 O 594.77 -0.687128 5.97965 0
M  V30 6160 H 598.596 0.667477 2.96274 0
M  V30 6161 H 596.181 0.392144 1.44162 0
M  V30 6162 H 598.063 -1.59981 3.89851 0
M  V30 6163 H 596.738 -1.76422 2.71398 0
M  V30 6164 H 595.645 0.319804 3.72731 0
M  V30 6165 H 596.978 0.401144 4.90563 0
M  V30 6166 N 598.631 -1.53133 0.372548 0
M  V30 6167 C 599.594 -2.24569 -0.458389 0
M  V30 6168 C 600.594 -1.25603 -1.00402 0
M  V30 6169 O 601.784 -1.49827 -0.888672 0
M  V30 6170 C 598.916 -2.98783 -1.6414 0
M  V30 6171 H 600.109 -2.99436 0.166799 0
M  V30 6172 H 597.662 -1.55805 0.124357 0
M  V30 6173 H 598.397 -2.28176 -2.30448 0
M  V30 6174 H 598.182 -3.71404 -1.25704 0
M  V30 6175 H 599.672 -3.53068 -2.23008 0
M  V30 6176 N 600.109 -0.101901 -1.5727 0
M  V30 6177 C 601.355 0.561027 -1.94885 0
M  V30 6178 C 601.688 1.6741 -0.984258 0
M  V30 6179 O 600.963 1.94491 -0.0184767 0
M  V30 6180 C 601.246 1.10982 -3.42571 0
M  V30 6181 C 601.099 0.00133418 -4.498 0
M  V30 6182 C 602.418 2.00608 -3.9172 0
M  V30 6183 H 599.537 0.202467 -0.708644 0
M  V30 6184 H 602.179 -0.173992 -1.89202 0
M  V30 6185 H 600.329 1.73621 -3.47546 0
M  V30 6186 H 602.001 -0.63322 -4.56933 0
M  V30 6187 H 600.244 -0.664143 -4.28686 0
M  V30 6188 H 600.915 0.426253 -5.50352 0
M  V30 6189 H 603.391 1.47864 -3.88941 0
M  V30 6190 H 602.267 2.3593 -4.95609 0
M  V30 6191 H 602.528 2.92608 -3.3141 0
M  V30 6192 N 601.587 1.56661 0.17182 0
M  V30 6193 C 602.815 1.861 0.904115 0
M  V30 6194 C 603.23 0.687227 1.75848 0
M  V30 6195 O 602.587 -0.343671 1.79235 0
M  V30 6196 C 602.638 3.14568 1.78127 0
M  V30 6197 O 602.359 4.27422 0.961366 0
M  V30 6198 C 603.86 3.5735 2.62327 0
M  V30 6199 H 601.08 0.617445 0.262684 0
M  V30 6200 H 603.624 2.03775 0.172068 0
M  V30 6201 H 601.779 2.98721 2.46666 0
M  V30 6202 H 602.193 5.00725 1.56123 0
M  V30 6203 H 603.667 4.50144 3.1949 0
M  V30 6204 H 604.144 2.81445 3.37173 0
M  V30 6205 H 604.75 3.75807 1.99121 0
M  V30 6206 N 603.065 -0.440357 1.51323 0
M  V30 6207 C 604.012 -1.53429 1.72419 0
M  V30 6208 C 604.982 -1.56165 0.565826 0
M  V30 6209 O 606.167 -1.73222 0.799917 0
M  V30 6210 C 603.307 -2.91169 1.85242 0
M  V30 6211 C 602.42 -2.97985 3.12777 0
M  V30 6212 C 601.555 -4.26829 3.16212 0
M  V30 6213 C 600.594 -4.27501 4.38074 0
M  V30 6214 N 599.731 -5.47866 4.39076 0
M  V30 6215 H 604.571 -1.34743 2.65797 0
M  V30 6216 H 602.108 -0.654608 1.31732 0
M  V30 6217 H 604.066 -3.71087 1.90658 0
M  V30 6218 H 602.696 -3.0842 0.952744 0
M  V30 6219 H 601.748 -2.10749 3.16685 0
M  V30 6220 H 603.06 -2.94342 4.02696 0
M  V30 6221 H 602.214 -5.15118 3.20527 0
M  V30 6222 H 600.953 -4.33124 2.24176 0
M  V30 6223 H 599.958 -3.37606 4.33938 0
M  V30 6224 H 601.183 -4.22873 5.31371 0
M  V30 6225 H 599.129 -5.54887 3.49909 0
M  V30 6226 H 599.046 -5.46091 5.22801 0
M  V30 6227 H 600.314 -6.38195 4.4758 0
M  V30 6228 N 604.543 -1.41418 -0.695603 0
M  V30 6229 C 605.79 -1.40774 -1.45564 0
M  V30 6230 C 606.118 -0.0168604 -1.94493 0
M  V30 6231 O 605.373 0.971259 -1.69897 0
M  V30 6232 C 605.672 -2.36112 -2.68302 0
M  V30 6233 C 605.338 -3.82952 -2.38031 0
M  V30 6234 C 604 -4.22954 -2.29486 0
M  V30 6235 C 606.352 -4.75662 -2.13061 0
M  V30 6236 C 603.68 -5.53674 -1.94067 0
M  V30 6237 C 606.032 -6.06702 -1.79151 0
M  V30 6238 C 604.696 -6.45725 -1.69102 0
M  V30 6239 H 603.966 -0.515128 -0.532658 0
M  V30 6240 H 606.613 -1.74216 -0.795047 0
M  V30 6241 H 604.918 -1.95924 -3.39295 0
M  V30 6242 H 606.615 -2.32887 -3.26442 0
M  V30 6243 H 603.205 -3.5127 -2.45576 0
M  V30 6244 H 607.389 -4.45561 -2.18608 0
M  V30 6245 H 602.645 -5.8279 -1.8484 0
M  V30 6246 H 606.819 -6.78041 -1.5885 0
M  V30 6247 H 604.446 -7.46929 -1.41426 0
M  V30 6248 N 606.021 0.929856 -1.27246 0
M  V30 6249 C 606.951 2.04722 -1.12299 0
M  V30 6250 C 607.932 1.70082 -0.0250464 0
M  V30 6251 O 609.117 1.93176 -0.199141 0
M  V30 6252 C 606.247 3.38721 -0.767145 0
M  V30 6253 C 605.201 3.87466 -1.81808 0
M  V30 6254 C 604.527 5.18246 -1.31626 0
M  V30 6255 C 605.827 4.11095 -3.22177 0
M  V30 6256 H 607.521 2.17485 -2.05769 0
M  V30 6257 H 605.067 1.04503 -0.990715 0
M  V30 6258 H 607.02 4.16366 -0.649413 0
M  V30 6259 H 605.744 3.25967 0.203259 0
M  V30 6260 H 604.403 3.12012 -1.92468 0
M  V30 6261 H 604.051 5.01881 -0.335378 0
M  V30 6262 H 603.751 5.51829 -2.01887 0
M  V30 6263 H 605.275 5.98462 -1.21143 0
M  V30 6264 H 606.689 4.79316 -3.1453 0
M  V30 6265 H 605.086 4.55982 -3.90129 0
M  V30 6266 H 606.156 3.16468 -3.67391 0
M  V30 6267 N 607.499 1.09233 1.13605 0
M  V30 6268 C 608.724 0.849067 1.89224 0
M  V30 6269 C 609.149 -0.593875 1.78479 0
M  V30 6270 O 608.507 -1.41703 1.13092 0
M  V30 6271 C 608.555 1.28642 3.36873 0
M  V30 6272 O 607.659 0.44363 4.10007 0
M  V30 6273 H 607 0.30767 0.588417 0
M  V30 6274 H 609.53 1.45595 1.43748 0
M  V30 6275 H 609.54 1.27096 3.87699 0
M  V30 6276 H 608.215 2.33729 3.44011 0
M  V30 6277 H 606.792 0.523241 3.69211 0
M  V30 6278 N 608.977 -1.30795 0.87923 0
M  V30 6279 C 610.202 -2.01063 0.508769 0
M  V30 6280 C 610.627 -1.65508 -0.893803 0
M  V30 6281 O 609.985 -0.868616 -1.59138 0
M  V30 6282 C 610.033 -3.54054 0.683991 0
M  V30 6283 O 609.137 -4.11498 -0.272654 0
M  V30 6284 H 608.478 -0.632786 0.201191 0
M  V30 6285 H 611.008 -1.66776 1.18519 0
M  V30 6286 H 611.018 -4.03845 0.580798 0
M  V30 6287 H 609.693 -3.79271 1.70665 0
M  V30 6288 H 608.27 -3.72695 -0.12364 0
M  V30 6289 N 610.455 -0.639598 -1.44038 0
M  V30 6290 C 611.68 -0.153117 -2.06834 0
M  V30 6291 C 612.105 1.16676 -1.47541 0
M  V30 6292 O 611.463 1.71769 -0.580093 0
M  V30 6293 C 611.511 -0.0609169 -3.60549 0
M  V30 6294 O 610.615 0.98071 -4.00569 0
M  V30 6295 H 609.956 -0.0886402 -0.658057 0
M  V30 6296 H 612.486 -0.878674 -1.84771 0
M  V30 6297 H 612.496 0.126892 -4.07803 0
M  V30 6298 H 611.171 -1.0245 -4.03084 0
M  V30 6299 H 609.748 0.766789 -3.64931 0
M  V30 6300 N 611.933 1.52934 -0.380664 0
M  V30 6301 C 613.344 1.86457 0.0952684 0
M  V30 6302 C 613.695 1.3007 1.46889 0
M  V30 6303 O 612.82 0.628636 2.07068 0
M  V30 6304 C 613.415 3.38323 0.179648 0
M  V30 6305 C 611.974 3.71589 0.599858 0
M  V30 6306 C 611.121 2.76228 -0.243572 0
M  V30 6307 H 614.072 1.46966 -0.59888 0
M  V30 6308 H 614.093 3.67113 1.00042 0
M  V30 6309 H 613.605 3.79333 -0.820228 0
M  V30 6310 H 611.706 3.36144 1.60742 0
M  V30 6311 H 611.819 4.77715 0.364003 0
M  V30 6312 H 610.183 2.53045 0.289855 0
M  V30 6313 H 610.966 3.20074 -1.24127 0
M  V30 6314 N 613.412 0.11024 1.57214 0
M  V30 6315 C 614.362 -0.854147 2.11396 0
M  V30 6316 C 615.346 -1.23394 1.03261 0
M  V30 6317 O 616.538 -1.20649 1.2951 0
M  V30 6318 C 613.667 -2.10752 2.70995 0
M  V30 6319 C 612.753 -1.75249 3.86198 0
M  V30 6320 N 613.144 -1.10377 4.9361 0
M  V30 6321 C 611.442 -2.04763 3.96217 0
M  V30 6322 C 612.143 -0.938199 5.74084 0
M  V30 6323 N 611.119 -1.46039 5.23616 0
M  V30 6324 H 614.921 -0.348897 2.91822 0
M  V30 6325 H 612.435 -0.0925071 1.62136 0
M  V30 6326 H 614.432 -2.80801 3.0815 0
M  V30 6327 H 613.092 -2.61829 1.9203 0
M  V30 6328 H 614.103 -0.768785 5.12162 0
M  V30 6329 H 610.78 -2.57948 3.28282 0
M  V30 6330 H 612.17 -0.429678 6.70525 0
M  V30 6331 N 614.89 -1.56749 -0.16351 0
M  V30 6332 C 615.82 -2.00042 -1.20438 0
M  V30 6333 C 616.801 -0.877256 -1.45733 0
M  V30 6334 O 617.986 -1.1439 -1.56935 0
M  V30 6335 C 615.116 -2.36697 -2.54149 0
M  V30 6336 C 614.07 -3.52046 -2.43408 0
M  V30 6337 C 613.396 -3.74466 -3.81679 0
M  V30 6338 C 614.696 -4.85247 -1.93216 0
M  V30 6339 H 616.39 -2.87244 -0.844477 0
M  V30 6340 H 613.936 -1.38194 -0.40478 0
M  V30 6341 H 615.889 -2.65582 -3.27176 0
M  V30 6342 H 614.613 -1.46414 -2.91943 0
M  V30 6343 H 613.272 -3.23301 -1.72834 0
M  V30 6344 H 612.92 -2.81461 -4.1688 0
M  V30 6345 H 612.62 -4.52084 -3.75359 0
M  V30 6346 H 614.144 -4.0576 -4.5628 0
M  V30 6347 H 615.558 -5.12957 -2.56023 0
M  V30 6348 H 613.955 -5.66556 -1.97825 0
M  V30 6349 H 615.025 -4.7672 -0.88689 0
M  V30 6350 N 616.368 0.432326 -1.51554 0
M  V30 6351 C 617.779 1.01202 -1.56892 0
M  V30 6352 C 618.13 1.92175 -0.395394 0
M  V30 6353 O 617.255 2.10844 0.487198 0
M  V30 6354 C 617.85 1.84217 -2.8434 0
M  V30 6355 C 616.409 2.37228 -2.92233 0
M  V30 6356 C 615.556 1.16576 -2.51606 0
M  V30 6357 H 618.507 0.213407 -1.57259 0
M  V30 6358 H 618.528 2.69721 -2.68385 0
M  V30 6359 H 618.04 1.17979 -3.69733 0
M  V30 6360 H 616.141 3.06905 -2.11282 0
M  V30 6361 H 616.254 2.69682 -3.95991 0
M  V30 6362 H 614.618 1.51263 -2.04919 0
M  V30 6363 H 615.401 0.519404 -3.39348 0
M  V30 6364 N 617.846 1.41785 0.688094 0
M  V30 6365 C 619.257 1.3701 1.26828 0
M  V30 6366 C 619.608 0.056835 1.96118 0
M  V30 6367 O 618.733 -0.84475 1.99231 0
M  V30 6368 C 619.328 2.48168 2.30648 0
M  V30 6369 C 617.887 2.46766 2.84224 0
M  V30 6370 C 617.034 2.27633 1.58361 0
M  V30 6371 H 619.985 1.51192 0.482351 0
M  V30 6372 H 620.006 2.17655 3.121 0
M  V30 6373 H 619.518 3.43735 1.80188 0
M  V30 6374 H 617.619 1.54978 3.3884 0
M  V30 6375 H 617.732 3.43342 3.34145 0
M  V30 6376 H 616.096 1.75648 1.84445 0
M  V30 6377 H 616.879 3.25238 1.09887 0
M  V30 6378 N 619.324 -0.923095 1.27737 0
M  V30 6379 C 620.549 -1.71054 1.17283 0
M  V30 6380 C 620.974 -1.86208 -0.266153 0
M  V30 6381 O 620.332 -1.36545 -1.1927 0
M  V30 6382 C 620.38 -3.0854 1.86642 0
M  V30 6383 O 619.484 -3.95528 1.16752 0
M  V30 6384 H 618.825 -0.524136 0.407649 0
M  V30 6385 H 621.355 -1.15487 1.6889 0
M  V30 6386 H 621.365 -3.58828 1.94182 0
M  V30 6387 H 620.04 -2.96828 2.91317 0
M  V30 6388 H 618.617 -3.53967 1.17312 0
M  V30 6389 N 620.802 -1.09834 -1.13024 0
M  V30 6390 C 622.027 -0.85909 -1.88771 0
M  V30 6391 C 622.452 0.584402 -1.78791 0
M  V30 6392 O 621.81 1.41101 -1.13842 0
M  V30 6393 C 621.858 -1.30427 -3.36186 0
M  V30 6394 O 620.962 -0.465368 -4.09766 0
M  V30 6395 H 620.303 -0.310786 -0.586778 0
M  V30 6396 H 622.833 -1.46355 -1.42973 0
M  V30 6397 H 622.843 -1.2915 -3.8702 0
M  V30 6398 H 621.518 -2.3555 -3.42767 0
M  V30 6399 H 620.095 -0.542814 -3.68928 0
M  V30 6400 N 622.28 1.30327 -0.886154 0
M  V30 6401 C 623.51 1.99964 -0.519421 0
M  V30 6402 C 623.918 1.66593 0.89686 0
M  V30 6403 O 623.261 0.899886 1.60149 0
M  V30 6404 C 623.323 3.54187 -0.615795 0
M  V30 6405 C 622.987 4.11078 -1.9966 0
M  V30 6406 C 623.984 4.26985 -2.96614 0
M  V30 6407 C 621.669 4.46429 -2.30231 0
M  V30 6408 C 623.663 4.77456 -4.22273 0
M  V30 6409 C 621.35 4.966 -3.56135 0
M  V30 6410 C 622.348 5.12066 -4.5197 0
M  V30 6411 O 622.036 5.61154 -5.7564 0
M  V30 6412 H 621.768 0.645979 -0.199217 0
M  V30 6413 H 624.322 1.67154 -1.19368 0
M  V30 6414 H 622.552 3.86528 0.115448 0
M  V30 6415 H 624.241 4.05065 -0.26017 0
M  V30 6416 H 625.007 3.99975 -2.74308 0
M  V30 6417 H 620.886 4.33658 -1.56404 0
M  V30 6418 H 624.43 4.89444 -4.97082 0
M  V30 6419 H 620.327 5.23045 -3.78277 0
M  V30 6420 H 621.095 5.79494 -5.78039 0
M  V30 6421 N 623.758 0.647228 1.43697 0
M  V30 6422 C 625.005 0.158188 2.01881 0
M  V30 6423 C 625.333 -1.22573 1.51017 0
M  V30 6424 O 624.588 -1.83086 0.69122 0
M  V30 6425 C 624.887 0.111481 3.57226 0
M  V30 6426 C 624.553 1.43633 4.27411 0
M  V30 6427 C 623.215 1.79915 4.463 0
M  V30 6428 C 625.567 2.31011 4.67208 0
M  V30 6429 C 622.895 3.03251 5.02251 0
M  V30 6430 C 625.247 3.53633 5.24525 0
M  V30 6431 C 623.911 3.90118 5.41631 0
M  V30 6432 H 623.181 0.0578851 0.738736 0
M  V30 6433 H 625.828 0.836746 1.72252 0
M  V30 6434 H 624.133 -0.650507 3.86362 0
M  V30 6435 H 625.83 -0.283682 3.99995 0
M  V30 6436 H 622.42 1.14403 4.1305 0
M  V30 6437 H 626.604 2.04272 4.52313 0
M  V30 6438 H 621.86 3.31575 5.13681 0
M  V30 6439 H 626.034 4.21561 5.5431 0
M  V30 6440 H 623.661 4.85768 5.84751 0
M  V30 6441 N 625.236 -1.5273 0.388769 0
M  V30 6442 C 626.184 -2.27975 -0.461527 0
M  V30 6443 C 627.178 -1.31854 -1.06352 0
M  V30 6444 O 628.384 -1.49394 -1.00406 0
M  V30 6445 H 624.759 -0.733088 -0.16759 0
M  V30 6446 H 626.73 -2.97765 0.194579 0
M  V30 6447 C 625.479 -3.09881 -1.577 0
M  V30 6448 H 624.802 -3.83701 -1.12309 0
M  V30 6449 H 626.242 -3.6567 -2.14619 0
M  V30 6450 C 624.701 -2.22159 -2.53272 0
M  V30 6451 O 625.231 -1.84802 -3.56667 0
M  V30 6452 N 623.437 -1.8633 -2.23001 0
M  V30 6453 H 622.984 -2.16909 -1.38954 0
M  V30 6454 H 622.942 -1.27927 -2.87197 0
M  V30 6455 N 626.714 -0.118576 -1.57153 0
M  V30 6456 C 627.677 0.817464 -2.14127 0
M  V30 6457 C 628.677 1.1949 -1.07604 0
M  V30 6458 O 629.867 1.12048 -1.33382 0
M  V30 6459 C 626.999 2.10541 -2.68115 0
M  V30 6460 H 628.192 0.322339 -2.98163 0
M  V30 6461 H 625.745 0.130655 -1.55753 0
M  V30 6462 H 626.48 2.64485 -1.87665 0
M  V30 6463 H 626.265 1.84425 -3.4602 0
M  V30 6464 H 627.755 2.77453 -3.12105 0
M  V30 6465 N 628.193 1.56834 0.155195 0
M  V30 6466 C 629.418 1.87412 0.888337 0
M  V30 6467 C 629.843 0.70671 1.74319 0
M  V30 6468 O 629.201 -0.343892 1.78009 0
M  V30 6469 C 629.249 3.1652 1.72765 0
M  V30 6470 O 628.353 2.99877 2.83103 0
M  V30 6471 H 627.694 0.615983 0.247914 0
M  V30 6472 H 630.224 2.04061 0.148478 0
M  V30 6473 H 630.234 3.48334 2.12433 0
M  V30 6474 H 628.909 4.01094 1.09985 0
M  V30 6475 H 627.486 2.79453 2.46902 0
M  V30 6476 N 629.671 -0.424282 1.51781 0
M  V30 6477 C 630.919 -1.17028 1.64769 0
M  V30 6478 C 631.24 -1.91409 0.372523 0
M  V30 6479 O 630.51 -1.86091 -0.612108 0
M  V30 6480 H 629.09 -0.434992 0.607282 0
M  V30 6481 H 631.752 -0.485169 1.88765 0
M  V30 6482 H 630.848 -1.8927 2.4816 0
M  V30 6483 N 631.149 -1.42148 -0.680565 0
M  V30 6484 C 632.565 -1.24947 -0.992995 0
M  V30 6485 C 632.765 -0.149527 -2.00944 0
M  V30 6486 O 631.821 0.481145 -2.47873 0
M  V30 6487 C 633.134 -2.60426 -1.5033 0
M  V30 6488 C 634.682 -2.67733 -1.62137 0
M  V30 6489 C 635.157 -4.03564 -2.16565 0
M  V30 6490 N 636.648 -4.05488 -2.23905 0
M  V30 6491 C 637.383 -5.07401 -2.67081 0
M  V30 6492 N 636.879 -6.19698 -3.09751 0
M  V30 6493 N 638.672 -4.94758 -2.66778 0
M  V30 6494 H 630.823 -2.12399 -0.0074788 0
M  V30 6495 H 633.086 -0.94571 -0.0658529 0
M  V30 6496 H 632.792 -3.41743 -0.830947 0
M  V30 6497 H 632.666 -2.83949 -2.483 0
M  V30 6498 H 635.053 -1.86765 -2.2848 0
M  V30 6499 H 635.134 -2.48004 -0.626713 0
M  V30 6500 H 634.778 -4.84987 -1.50833 0
M  V30 6501 H 634.708 -4.20641 -3.1681 0
M  V30 6502 H 637.199 -3.24415 -1.93812 0
M  V30 6503 H 637.512 -6.93318 -3.41365 0
M  V30 6504 H 635.857 -6.23212 -3.07623 0
M  V30 6505 H 639.048 -4.06105 -2.32801 0
M  V30 6506 H 639.221 -5.74317 -3.00107 0
M  V30 6507 N 632.627 0.916307 -1.28225 0
M  V30 6508 C 633.59 1.99996 -1.11957 0
M  V30 6509 C 634.59 1.60688 -0.0600152 0
M  V30 6510 O 635.78 1.71499 -0.30558 0
M  V30 6511 C 632.912 3.33458 -0.708411 0
M  V30 6512 H 634.105 2.15858 -2.08196 0
M  V30 6513 H 631.658 1.09863 -1.11175 0
M  V30 6514 H 632.393 3.23297 0.254859 0
M  V30 6515 H 632.178 3.63349 -1.47377 0
M  V30 6516 H 633.668 4.13014 -0.617164 0
M  V30 6517 N 634.105 1.10431 1.1244 0
M  V30 6518 C 635.335 0.867612 1.87499 0
M  V30 6519 C 635.743 -0.585475 1.79913 0
M  V30 6520 O 635.086 -1.41539 1.171 0
M  V30 6521 C 635.148 1.2374 3.37533 0
M  V30 6522 C 634.812 2.69751 3.68895 0
M  V30 6523 C 635.809 3.67988 3.67261 0
M  V30 6524 C 633.494 3.06135 3.98229 0
M  V30 6525 C 635.488 5.00632 3.9452 0
M  V30 6526 C 633.175 4.38967 4.25149 0
M  V30 6527 C 634.173 5.36025 4.23281 0
M  V30 6528 O 633.861 6.66465 4.49533 0
M  V30 6529 H 633.593 0.311196 0.600111 0
M  V30 6530 H 636.147 1.47257 1.43194 0
M  V30 6531 H 634.377 0.575537 3.82393 0
M  V30 6532 H 636.066 0.978187 3.93937 0
M  V30 6533 H 636.832 3.41224 3.44661 0
M  V30 6534 H 632.711 2.31214 3.98825 0
M  V30 6535 H 636.255 5.7638 3.92978 0
M  V30 6536 H 632.152 4.6547 4.47223 0
M  V30 6537 H 632.92 6.72095 4.67152 0
M  V30 6538 N 635.583 -1.29855 0.893053 0
M  V30 6539 C 636.994 -1.77946 0.564998 0
M  V30 6540 C 637.345 -1.73339 -0.919134 0
M  V30 6541 O 636.47 -1.3152 -1.71847 0
M  V30 6542 C 637.065 -3.23118 1.01883 0
M  V30 6543 C 635.624 -3.69013 0.742051 0
M  V30 6544 C 634.771 -2.50121 1.19727 0
M  V30 6545 H 637.722 -1.16611 1.07646 0
M  V30 6546 H 637.743 -3.78875 0.351249 0
M  V30 6547 H 637.255 -3.26439 2.09903 0
M  V30 6548 H 635.356 -3.71173 -0.325816 0
M  V30 6549 H 635.469 -4.60117 1.33527 0
M  V30 6550 H 633.833 -2.47128 0.616418 0
M  V30 6551 H 634.616 -2.56174 2.28538 0
M  V30 6552 N 637.061 -0.65484 -1.43351 0
M  V30 6553 C 638.338 -0.0987371 -1.95351 0
M  V30 6554 C 638.718 1.38161 -1.59608 0
M  V30 6555 O 638.066 2.10791 -0.882021 0
M  V30 6556 C 638.276 -0.346684 -3.47274 0
M  V30 6557 C 639.624 -0.25249 -4.23849 0
M  V30 6558 O 640.648 -0.279332 -3.55103 0
M  V30 6559 O 639.507 -0.177584 -5.46211 0
M  V30 6560 H 636.601 0.0086829 -0.826954 0
M  V30 6561 H 639.147 -0.728189 -1.53282 0
M  V30 6562 H 637.919 -1.37296 -3.66423 0
M  V30 6563 H 637.542 0.315757 -3.96344 0
M  V30 6564 N 638.539 1.52521 -0.396863 0
M  V30 6565 C 639.785 2.01971 0.183169 0
M  V30 6566 C 640.118 1.2825 1.45827 0
M  V30 6567 O 639.393 0.385179 1.90648 0
M  V30 6568 C 639.676 3.5736 0.443391 0
M  V30 6569 C 639.529 4.41743 -0.84753 0
M  V30 6570 C 640.848 4.22539 1.2308 0
M  V30 6571 H 637.967 0.734119 0.0650976 0
M  V30 6572 H 640.609 1.82519 -0.527918 0
M  V30 6573 H 638.759 3.74066 1.04914 0
M  V30 6574 H 640.431 4.36773 -1.48414 0
M  V30 6575 H 638.674 4.0845 -1.4612 0
M  V30 6576 H 639.345 5.48507 -0.620003 0
M  V30 6577 H 641.821 4.09857 0.718084 0
M  V30 6578 H 640.697 5.31227 1.38162 0
M  V30 6579 H 640.958 3.80675 2.24808 0
M  V30 6580 N 640.017 0.126909 1.57088 0
M  V30 6581 C 640.98 -0.806097 2.14557 0
M  V30 6582 C 641.98 -1.18918 1.08236 0
M  V30 6583 O 643.17 -1.11339 1.33975 0
M  V30 6584 C 640.302 -2.09116 2.69227 0
M  V30 6585 H 641.495 -0.306522 2.98329 0
M  V30 6586 H 639.048 -0.122393 1.5582 0
M  V30 6587 H 639.783 -2.63486 1.89065 0
M  V30 6588 H 639.568 -1.82588 3.46993 0
M  V30 6589 H 641.058 -2.75794 3.13572 0
M  V30 6590 N 641.495 -1.56914 -0.146875 0
M  V30 6591 C 642.458 -1.97368 -1.16526 0
M  V30 6592 C 643.458 -0.860223 -1.35856 0
M  V30 6593 O 644.648 -1.12684 -1.32846 0
M  V30 6594 C 641.78 -2.28974 -2.52555 0
M  V30 6595 H 642.973 -2.88523 -0.818209 0
M  V30 6596 H 640.526 -1.5135 -0.390221 0
M  V30 6597 H 641.261 -1.40611 -2.92231 0
M  V30 6598 H 641.046 -3.10157 -2.39886 0
M  V30 6599 H 642.536 -2.61109 -3.25902 0
M  V30 6600 N 642.974 0.416227 -1.52004 0
M  V30 6601 C 643.904 1.51365 -1.77795 0
M  V30 6602 C 644.885 1.58059 -0.628601 0
M  V30 6603 O 646.07 1.73447 -0.873478 0
M  V30 6604 C 643.2 2.89256 -1.92219 0
M  V30 6605 C 642.154 2.97415 -3.0778 0
M  V30 6606 C 641.48 4.37492 -3.07417 0
M  V30 6607 C 642.78 2.69551 -4.47369 0
M  V30 6608 H 644.474 1.30033 -2.69688 0
M  V30 6609 H 642.02 0.624112 -1.29772 0
M  V30 6610 H 643.973 3.66008 -2.08845 0
M  V30 6611 H 642.697 3.11866 -0.969917 0
M  V30 6612 H 641.356 2.23107 -2.90893 0
M  V30 6613 H 641.004 4.571 -2.09925 0
M  V30 6614 H 640.704 4.43877 -3.85029 0
M  V30 6615 H 642.228 5.16188 -3.26162 0
M  V30 6616 H 643.642 3.36028 -4.64497 0
M  V30 6617 H 642.039 2.87321 -5.26846 0
M  V30 6618 H 643.109 1.65029 -4.55953 0
M  V30 6619 N 644.452 1.42507 0.673017 0
M  V30 6620 C 645.677 1.4668 1.46627 0
M  V30 6621 C 646.102 0.080066 1.8793 0
M  V30 6622 O 645.46 -0.921879 1.56112 0
M  V30 6623 C 645.508 2.40091 2.69051 0
M  V30 6624 O 644.612 1.8735 3.67387 0
M  V30 6625 H 643.953 0.496908 0.44043 0
M  V30 6626 H 646.483 1.87215 0.825334 0
M  V30 6627 H 646.493 2.56731 3.17101 0
M  V30 6628 H 645.168 3.4084 2.3833 0
M  V30 6629 H 643.745 1.80274 3.26429 0
M  V30 6630 N 645.93 -0.909495 1.28709 0
M  V30 6631 C 647.207 -1.63865 1.06806 0
M  V30 6632 C 647.587 -2.07445 -0.391143 0
M  V30 6633 O 646.935 -1.82269 -1.37805 0
M  V30 6634 C 647.145 -2.82692 2.04661 0
M  V30 6635 C 648.493 -3.5361 2.35042 0
M  V30 6636 O 649.517 -2.92847 2.02779 0
M  V30 6637 O 648.376 -4.63131 2.90124 0
M  V30 6638 H 645.47 -0.719065 0.408502 0
M  V30 6639 H 648.016 -0.958424 1.40044 0
M  V30 6640 H 646.788 -2.47614 3.0299 0
M  V30 6641 H 646.411 -3.58426 1.72095 0
M  V30 6642 N 647.408 -1.11026 -1.11852 0
M  V30 6643 C 648.656 -0.854769 -1.83134 0
M  V30 6644 C 648.977 0.621375 -1.84835 0
M  V30 6645 O 648.247 1.45129 -1.31584 0
M  V30 6646 H 646.827 -0.313229 -0.678157 0
M  V30 6647 H 649.489 -1.40178 -1.35411 0
M  V30 6648 H 648.585 -1.22311 -2.87135 0
M  V30 6649 N 648.886 1.2938 -0.899927 0
M  V30 6650 C 650.116 1.99402 -0.540601 0
M  V30 6651 C 650.524 1.67534 0.87914 0
M  V30 6652 O 649.867 0.916821 1.59186 0
M  V30 6653 C 649.929 3.53514 -0.653326 0
M  V30 6654 C 649.593 4.08937 -2.04009 0
M  V30 6655 C 650.59 4.23815 -3.01126 0
M  V30 6656 C 648.275 4.43962 -2.34953 0
M  V30 6657 C 650.269 4.72951 -4.27313 0
M  V30 6658 C 647.956 4.92795 -3.61382 0
M  V30 6659 C 648.954 5.07244 -4.57376 0
M  V30 6660 O 648.642 5.55017 -5.8156 0
M  V30 6661 H 648.374 0.64383 -0.206057 0
M  V30 6662 H 650.928 1.65878 -1.21134 0
M  V30 6663 H 649.158 3.86628 0.0744449 0
M  V30 6664 H 650.847 4.04767 -0.303118 0
M  V30 6665 H 651.613 3.97043 -2.78535 0
M  V30 6666 H 647.492 4.31974 -1.60994 0
M  V30 6667 H 651.036 4.84144 -5.02245 0
M  V30 6668 H 646.933 5.19004 -3.83804 0
M  V30 6669 H 647.701 5.73331 -5.84153 0
M  V30 6670 N 650.364 0.662433 1.43002 0
M  V30 6671 C 651.61 0.188492 2.02525 0
M  V30 6672 C 651.965 -1.18752 1.51379 0
M  V30 6673 O 651.258 -1.78313 0.701065 0
M  V30 6674 C 651.452 0.149363 3.57088 0
M  V30 6675 C 651.281 1.52004 4.23231 0
M  V30 6676 C 650.051 2.11473 4.5892 0
M  V30 6677 C 652.249 2.46028 4.51635 0
M  V30 6678 N 650.231 3.4145 5.10181 0
M  V30 6679 C 651.602 3.60647 5.04315 0
M  V30 6680 C 653.657 2.44715 4.33612 0
M  V30 6681 C 652.36 4.74189 5.40867 0
M  V30 6682 C 654.386 3.57344 4.71232 0
M  V30 6683 C 653.748 4.70689 5.24053 0
M  V30 6684 H 649.847 0.113615 0.773703 0
M  V30 6685 H 652.431 0.872738 1.74044 0
M  V30 6686 H 650.602 -0.504255 3.85113 0
M  V30 6687 H 652.334 -0.336307 4.033 0
M  V30 6688 H 649.089 1.64087 4.44266 0
M  V30 6689 H 649.513 4.07987 5.40255 0
M  V30 6690 H 654.155 1.58318 3.9204 0
M  V30 6691 H 651.873 5.61271 5.81378 0
M  V30 6692 H 655.459 3.5754 4.58973 0
M  V30 6693 H 654.339 5.56398 5.52621 0
M  V30 6694 N 651.842 -1.52309 0.404946 0
M  V30 6695 C 653.088 -2.02065 -0.172455 0
M  V30 6696 C 653.421 -1.29022 -1.45145 0
M  V30 6697 O 652.696 -0.395284 -1.90441 0
M  V30 6698 C 652.979 -3.5759 -0.424433 0
M  V30 6699 C 652.832 -4.41287 0.870945 0
M  V30 6700 C 654.151 -4.23186 -1.20837 0
M  V30 6701 H 651.27 -0.734454 -0.0612035 0
M  V30 6702 H 653.912 -1.82236 0.53759 0
M  V30 6703 H 652.062 -3.74617 -1.02929 0
M  V30 6704 H 653.734 -4.3598 1.50729 0
M  V30 6705 H 651.977 -4.07669 1.48284 0
M  V30 6706 H 652.648 -5.48171 0.649083 0
M  V30 6707 H 655.124 -4.10232 -0.696338 0
M  V30 6708 H 654 -5.31953 -1.35343 0
M  V30 6709 H 654.261 -3.81862 -2.22786 0
M  V30 6710 N 653.32 -0.135238 -1.57019 0
M  V30 6711 C 654.566 0.519563 -1.96032 0
M  V30 6712 C 654.899 1.65284 -1.01955 0
M  V30 6713 O 654.174 1.94408 -0.059727 0
M  V30 6714 C 654.457 1.0369 -3.44848 0
M  V30 6715 C 654.31 -0.0940754 -4.49702 0
M  V30 6716 C 655.629 1.92254 -3.95887 0
M  V30 6717 H 652.748 0.18739 -0.712779 0
M  V30 6718 H 655.39 -0.214086 -1.8879 0
M  V30 6719 H 653.54 1.66209 -3.5115 0
M  V30 6720 H 655.212 -0.73 -4.55487 0
M  V30 6721 H 653.455 -0.754924 -4.27181 0
M  V30 6722 H 654.126 0.309419 -5.51132 0
M  V30 6723 H 656.602 1.39581 -3.9199 0
M  V30 6724 H 655.478 2.25364 -5.00502 0
M  V30 6725 H 655.739 2.85513 -3.37543 0
M  V30 6726 N 654.798 1.5699 0.138552 0
M  V30 6727 C 656.023 1.88344 0.86841 0
M  V30 6728 C 656.448 0.725159 1.7356 0
M  V30 6729 O 655.806 -0.324992 1.78363 0
M  V30 6730 C 655.854 3.18334 1.69398 0
M  V30 6731 O 654.958 3.02863 2.79907 0
M  V30 6732 H 654.299 0.618577 0.241367 0
M  V30 6733 H 656.829 2.04207 0.126826 0
M  V30 6734 H 656.839 3.50567 2.08726 0
M  V30 6735 H 655.514 4.02238 1.05725 0
M  V30 6736 H 654.091 2.82056 2.43924 0
M  V30 6737 N 656.276 -0.40816 1.52223 0
M  V30 6738 C 657.224 -1.51788 1.76248 0
M  V30 6739 C 658.218 -1.57264 0.629638 0
M  V30 6740 O 659.424 -1.60659 0.811704 0
M  V30 6741 H 655.799 -0.504823 0.557367 0
M  V30 6742 H 657.77 -1.2871 2.69214 0
M  V30 6743 C 656.519 -2.89145 1.93107 0
M  V30 6744 H 655.842 -2.85674 2.79697 0
M  V30 6745 H 657.282 -3.66082 2.13916 0
M  V30 6746 C 655.741 -3.29581 0.698431 0
M  V30 6747 O 656.271 -4.01479 -0.133238 0
M  V30 6748 N 654.477 -2.85651 0.53405 0
M  V30 6749 H 654.024 -2.2731 1.21194 0
M  V30 6750 H 653.982 -3.13065 -0.289387 0
M  V30 6751 N 657.755 -1.42862 -0.66545 0
M  V30 6752 C 659.171 -1.25993 -0.979687 0
M  V30 6753 C 659.371 -0.170831 -2.00775 0
M  V30 6754 O 658.427 0.454827 -2.4837 0
M  V30 6755 C 659.74 -2.62005 -1.47559 0
M  V30 6756 C 661.288 -2.69437 -1.59288 0
M  V30 6757 C 661.763 -4.05838 -2.12272 0
M  V30 6758 N 663.254 -4.0784 -2.19592 0
M  V30 6759 C 663.989 -5.10205 -2.61684 0
M  V30 6760 N 663.485 -6.22949 -3.03161 0
M  V30 6761 N 665.278 -4.9756 -2.61516 0
M  V30 6762 H 657.429 -2.12395 0.0150493 0
M  V30 6763 H 659.692 -0.946355 -0.0558187 0
M  V30 6764 H 659.398 -3.42605 -0.794654 0
M  V30 6765 H 659.272 -2.86566 -2.45275 0
M  V30 6766 H 661.659 -1.89178 -2.26486 0
M  V30 6767 H 661.74 -2.48655 -0.600374 0
M  V30 6768 H 661.384 -4.86559 -1.4568 0
M  V30 6769 H 661.314 -4.23977 -3.12331 0
M  V30 6770 H 663.805 -3.26452 -1.90361 0
M  V30 6771 H 664.118 -6.96899 -3.33993 0
M  V30 6772 H 662.463 -6.2644 -3.00995 0
M  V30 6773 H 665.654 -4.08551 -2.28481 0
M  V30 6774 H 665.827 -5.77468 -2.93999 0
M  V30 6775 N 659.233 0.902656 -1.29189 0
M  V30 6776 C 660.479 1.65532 -1.17163 0
M  V30 6777 C 660.812 1.92216 0.276879 0
M  V30 6778 O 660.087 1.53048 1.20027 0
M  V30 6779 C 660.37 3.00629 -1.98228 0
M  V30 6780 C 660.223 2.81029 -3.51202 0
M  V30 6781 C 661.542 4.01321 -1.80635 0
M  V30 6782 H 658.661 0.60071 -0.426985 0
M  V30 6783 H 661.303 1.04578 -1.5863 0
M  V30 6784 H 659.453 3.52656 -1.62991 0
M  V30 6785 H 661.125 2.35927 -3.96404 0
M  V30 6786 H 659.368 2.1587 -3.76275 0
M  V30 6787 H 660.039 3.77014 -4.03192 0
M  V30 6788 H 662.515 3.58394 -2.11406 0
M  V30 6789 H 661.391 4.93792 -2.3971 0
M  V30 6790 H 661.652 4.35505 -0.760754 0
M  V30 6791 N 660.711 1.11618 1.11262 0
M  V30 6792 C 662.122 0.881942 1.64556 0
M  V30 6793 C 662.473 -0.585442 1.87262 0
M  V30 6794 O 661.598 -1.44795 1.60821 0
M  V30 6795 C 662.193 1.59446 2.98935 0
M  V30 6796 C 660.752 1.40661 3.4913 0
M  V30 6797 C 659.899 1.63593 2.23903 0
M  V30 6798 H 662.85 1.27217 0.94877 0
M  V30 6799 H 662.871 1.04054 3.65996 0
M  V30 6800 H 662.383 2.66241 2.82378 0
M  V30 6801 H 660.484 0.360835 3.70849 0
M  V30 6802 H 660.597 2.15693 4.27801 0
M  V30 6803 H 658.961 1.05944 2.3162 0
M  V30 6804 H 659.744 2.71666 2.09886 0
M  V30 6805 N 662.189 -1.289 0.906776 0
M  V30 6806 C 663.438 -1.9455 0.532262 0
M  V30 6807 C 663.751 -1.72219 -0.927353 0
M  V30 6808 O 664.957 -2.32033 -1.40971 0
M  V30 6809 C 663.413 -3.48438 0.901041 0
M  V30 6810 C 663.021 -3.79558 2.37991 0
M  V30 6811 C 664.765 -4.20284 0.596777 0
M  V30 6812 C 662.672 -5.26723 2.68918 0
M  V30 6813 H 661.602 -0.728259 0.195333 0
M  V30 6814 H 664.253 -1.46519 1.10474 0
M  V30 6815 H 662.635 -3.95162 0.257419 0
M  V30 6816 H 663.809 -3.43668 3.06967 0
M  V30 6817 H 662.124 -3.20868 2.65391 0
M  V30 6818 H 664.721 -5.28612 0.8046 0
M  V30 6819 H 665.064 -4.13694 -0.465072 0
M  V30 6820 H 665.597 -3.79315 1.19855 0
M  V30 6821 H 662.336 -5.38384 3.73928 0
M  V30 6822 H 661.856 -5.63836 2.04571 0
M  V30 6823 H 663.535 -5.94391 2.55555 0
M  V30 6824 N 663.667 -0.670007 -1.42649 0
M  V30 6825 C 665.078 -0.268118 -1.84765 0
M  V30 6826 C 665.429 1.18877 -1.56086 0
M  V30 6827 O 664.554 1.90947 -1.01825 0
M  V30 6828 C 665.149 -0.47984 -3.35385 0
M  V30 6829 C 663.708 -0.132116 -3.76168 0
M  V30 6830 C 662.855 -0.774611 -2.66261 0
M  V30 6831 H 665.806 -0.872509 -1.32563 0
M  V30 6832 H 665.827 0.269522 -3.79544 0
M  V30 6833 H 665.339 -1.54026 -3.56227 0
M  V30 6834 H 663.44 0.92505 -3.60934 0
M  V30 6835 H 663.553 -0.569294 -4.75706 0
M  V30 6836 H 661.917 -0.206353 -2.53863 0
M  V30 6837 H 662.7 -1.83839 -2.89928 0
M  V30 6838 N 665.145 1.52092 -0.413018 0
M  V30 6839 C 666.391 2.02815 0.154104 0
M  V30 6840 C 666.746 1.293 1.42475 0
M  V30 6841 O 666.039 0.391835 1.87551 0
M  V30 6842 C 666.233 3.54529 0.4521 0
M  V30 6843 C 666.062 4.4274 -0.788116 0
M  V30 6844 C 664.832 4.87903 -1.31447 0
M  V30 6845 C 667.03 4.86522 -1.66735 0
M  V30 6846 N 665.012 5.60254 -2.50976 0
M  V30 6847 C 666.383 5.57692 -2.70886 0
M  V30 6848 C 668.438 4.68534 -1.68465 0
M  V30 6849 C 667.141 6.12783 -3.76682 0
M  V30 6850 C 669.167 5.24524 -2.73182 0
M  V30 6851 C 668.529 5.9562 -3.76054 0
M  V30 6852 H 664.628 0.781796 0.0178567 0
M  V30 6853 H 667.212 1.86223 -0.568237 0
M  V30 6854 H 665.383 3.71186 1.14348 0
M  V30 6855 H 667.115 3.91934 1.00844 0
M  V30 6856 H 663.87 4.65504 -0.871931 0
M  V30 6857 H 664.294 6.01069 -3.11521 0
M  V30 6858 H 668.936 4.13051 -0.902708 0
M  V30 6859 H 666.654 6.67335 -4.55729 0
M  V30 6860 H 670.24 5.12473 -2.75433 0
M  V30 6861 H 669.12 6.38169 -4.55752 0
M  V30 6862 N 666.623 0.143563 1.56945 0
M  V30 6863 C 667.869 -0.50916 1.96304 0
M  V30 6864 C 668.202 -1.64741 1.0283 0
M  V30 6865 O 667.477 -1.94374 0.0700361 0
M  V30 6866 C 667.76 -1.0186 3.45393 0
M  V30 6867 C 667.613 0.117923 4.49645 0
M  V30 6868 C 668.932 -1.90151 3.96901 0
M  V30 6869 H 666.051 -0.183608 0.713763 0
M  V30 6870 H 668.693 0.224095 1.88674 0
M  V30 6871 H 666.843 -1.64345 3.52027 0
M  V30 6872 H 668.515 0.754145 4.55094 0
M  V30 6873 H 666.758 0.777568 4.26774 0
M  V30 6874 H 667.429 -0.280187 5.51288 0
M  V30 6875 H 669.905 -1.375 3.92725 0
M  V30 6876 H 668.781 -2.22707 5.0169 0
M  V30 6877 H 669.042 -2.83718 3.39052 0
M  V30 6878 N 668.101 -1.57061 -0.130224 0
M  V30 6879 C 669.326 -1.88802 -0.858409 0
M  V30 6880 C 669.751 -0.734353 -1.73173 0
M  V30 6881 O 669.109 0.315529 -1.78533 0
M  V30 6882 C 669.157 -3.19228 -1.67708 0
M  V30 6883 O 668.261 -3.04343 -2.78297 0
M  V30 6884 H 667.602 -0.619849 -0.238083 0
M  V30 6885 H 670.132 -2.04271 -0.115995 0
M  V30 6886 H 670.142 -3.51669 -2.06864 0
M  V30 6887 H 668.817 -4.02793 -1.0359 0
M  V30 6888 H 667.394 -2.83346 -2.42425 0
M  V30 6889 N 669.579 0.400081 -1.52437 0
M  V30 6890 C 670.827 1.14392 -1.6661 0
M  V30 6891 C 671.148 1.90792 -0.402927 0
M  V30 6892 O 670.418 1.87042 0.582425 0
M  V30 6893 H 668.998 0.425275 -0.614125 0
M  V30 6894 H 671.66 0.455076 -1.89513 0
M  V30 6895 H 670.756 1.85298 -2.51139 0
M  V30 6896 N 671.057 1.43213 0.657864 0
M  V30 6897 C 672.285 1.48015 1.44566 0
M  V30 6898 C 672.7 0.0965951 1.88553 0
M  V30 6899 O 672.057 -0.892221 1.59203 0
M  V30 6900 C 672.108 2.42199 2.68369 0
M  V30 6901 O 671.829 3.75173 2.26223 0
M  V30 6902 C 673.33 2.56195 3.61772 0
M  V30 6903 H 670.55 0.502861 0.444266 0
M  V30 6904 H 673.094 1.87907 0.806917 0
M  V30 6905 H 671.249 2.05514 3.28394 0
M  V30 6906 H 671.663 4.25776 3.06293 0
M  V30 6907 H 673.137 3.26182 4.4532 0
M  V30 6908 H 673.614 1.60534 4.0881 0
M  V30 6909 H 674.22 2.93671 3.07632 0
M  V30 6910 N 672.536 -0.895792 1.29666 0
M  V30 6911 C 673.761 -1.68528 1.20885 0
M  V30 6912 C 674.186 -1.8673 -0.226595 0
M  V30 6913 O 673.544 -1.39044 -1.16347 0
M  V30 6914 C 673.592 -3.04512 1.93144 0
M  V30 6915 O 672.696 -3.92963 1.25115 0
M  V30 6916 H 672.037 -0.515371 0.418675 0
M  V30 6917 H 674.567 -1.11878 1.71302 0
M  V30 6918 H 674.577 -3.54628 2.0175 0
M  V30 6919 H 673.252 -2.90582 2.97548 0
M  V30 6920 H 671.829 -3.51399 1.24794 0
M  V30 6921 N 674.014 -1.12206 -1.10668 0
M  V30 6922 C 674.977 -0.790867 -2.15123 0
M  V30 6923 C 675.977 0.193618 -1.5963 0
M  V30 6924 O 677.167 -0.0318728 -1.74171 0
M  V30 6925 C 674.299 -0.174797 -3.40452 0
M  V30 6926 H 675.492 -1.7163 -2.45933 0
M  V30 6927 H 673.045 -0.924993 -1.2599 0
M  V30 6928 H 673.78 0.760478 -3.15257 0
M  V30 6929 H 673.565 -0.88358 -3.82015 0
M  V30 6930 H 675.055 0.0405162 -4.1758 0
M  V30 6931 N 675.492 1.28418 -0.913599 0
M  V30 6932 C 676.717 1.99643 -0.561899 0
M  V30 6933 C 677.142 1.67819 0.849608 0
M  V30 6934 O 676.5 0.910503 1.56779 0
M  V30 6935 C 676.548 3.52116 -0.777622 0
M  V30 6936 O 675.652 4.12076 0.163457 0
M  V30 6937 H 674.993 0.627229 -0.217898 0
M  V30 6938 H 677.523 1.63575 -1.229 0
M  V30 6939 H 677.533 4.02163 -0.687666 0
M  V30 6940 H 676.208 3.74613 -1.8066 0
M  V30 6941 H 674.785 3.72892 0.0247827 0
M  V30 6942 N 676.97 0.677563 1.42291 0
M  V30 6943 C 678.198 0.209459 2.05837 0
M  V30 6944 C 678.613 -1.13444 1.50917 0
M  V30 6945 O 677.97 -1.70529 0.65008 0
M  V30 6946 C 678.021 0.138819 3.61233 0
M  V30 6947 O 677.742 1.42962 4.14118 0
M  V30 6948 C 679.243 -0.352449 4.41897 0
M  V30 6949 H 676.463 0.101209 0.663323 0
M  V30 6950 H 679.007 0.925077 1.8238 0
M  V30 6951 H 677.162 -0.527505 3.83792 0
M  V30 6952 H 677.576 1.3048 5.08011 0
M  V30 6953 H 679.05 -0.350778 5.50884 0
M  V30 6954 H 679.527 -1.3882 4.16684 0
M  V30 6955 H 680.133 0.282236 4.24362 0
M  V30 6956 N 678.448 -1.51871 0.421078 0
M  V30 6957 C 679.859 -1.86644 -0.0457991 0
M  V30 6958 C 680.21 -1.33919 -1.43388 0
M  V30 6959 O 679.335 -0.683316 -2.05328 0
M  V30 6960 C 679.93 -3.38681 -0.0898844 0
M  V30 6961 C 678.489 -3.73049 -0.501127 0
M  V30 6962 C 677.636 -2.75485 0.316723 0
M  V30 6963 H 680.587 -1.45327 0.637635 0
M  V30 6964 H 680.608 -3.69636 -0.902734 0
M  V30 6965 H 680.12 -3.77025 0.920513 0
M  V30 6966 H 678.221 -3.40288 -1.51773 0
M  V30 6967 H 678.334 -4.78512 -0.237217 0
M  V30 6968 H 676.698 -2.53725 -0.222663 0
M  V30 6969 H 677.481 -3.16671 1.32569 0
M  V30 6970 N 679.926 -0.151884 -1.56866 0
M  V30 6971 C 681.172 0.498742 -1.96572 0
M  V30 6972 C 681.505 1.64194 -1.03702 0
M  V30 6973 O 680.78 1.94334 -0.0803432 0
M  V30 6974 C 681.063 1.00027 -3.45929 0
M  V30 6975 C 680.916 -0.141767 -4.49577 0
M  V30 6976 C 682.235 1.88044 -3.97904 0
M  V30 6977 H 679.354 0.17982 -0.714726 0
M  V30 6978 H 681.996 -0.234097 -1.88552 0
M  V30 6979 H 680.146 1.62476 -3.52894 0
M  V30 6980 H 681.818 -0.778269 -4.54687 0
M  V30 6981 H 680.061 -0.80019 -4.26356 0
M  V30 6982 H 680.732 0.250947 -5.51429 0
M  V30 6983 H 683.208 1.35416 -3.93449 0
M  V30 6984 H 682.084 2.20043 -5.02864 0
M  V30 6985 H 682.345 2.81916 -3.40552 0
M  V30 6986 N 681.404 1.57128 0.121893 0
M  V30 6987 C 682.651 1.847 0.830188 0
M  V30 6988 C 682.979 0.736543 1.80015 0
M  V30 6989 O 682.234 -0.272358 1.93796 0
M  V30 6990 C 682.533 3.1874 1.61677 0
M  V30 6991 C 682.199 4.43901 0.791361 0
M  V30 6992 C 680.861 4.77887 0.563731 0
M  V30 6993 C 683.213 5.20753 0.215823 0
M  V30 6994 C 680.541 5.86168 -0.249737 0
M  V30 6995 C 682.893 6.29891 -0.584821 0
M  V30 6996 C 681.557 6.6241 -0.822794 0
M  V30 6997 H 680.827 0.675866 0.303787 0
M  V30 6998 H 683.474 1.91276 0.0926894 0
M  V30 6999 H 681.779 3.07728 2.42509 0
M  V30 7000 H 683.476 3.37295 2.16872 0
M  V30 7001 H 680.066 4.17272 0.978867 0
M  V30 7002 H 684.25 4.94851 0.378907 0
M  V30 7003 H 679.506 6.0979 -0.44336 0
M  V30 7004 H 683.68 6.88624 -1.03779 0
M  V30 7005 H 681.307 7.46147 -1.45496 0
M  V30 7006 N 682.882 -0.391992 1.52647 0
M  V30 7007 C 684.13 -1.13507 1.67214 0
M  V30 7008 C 684.451 -1.90575 0.41304 0
M  V30 7009 O 683.721 -1.87348 -0.572498 0
M  V30 7010 H 682.301 -0.422013 0.616372 0
M  V30 7011 H 684.963 -0.44502 1.89751 0
M  V30 7012 H 684.059 -1.83964 2.52118 0
M  V30 7013 N 684.36 -1.4356 -0.65026 0
M  V30 7014 C 685.608 -1.45046 -1.40734 0
M  V30 7015 C 685.929 -0.0769822 -1.94848 0
M  V30 7016 O 685.199 0.888098 -1.74613 0
M  V30 7017 H 683.779 -0.534034 -0.522318 0
M  V30 7018 H 686.441 -1.79186 -0.766703 0
M  V30 7019 H 685.537 -2.16476 -2.24822 0
M  V30 7020 N 685.838 0.888903 -1.30139 0
M  V30 7021 C 687.087 1.63507 -1.18103 0
M  V30 7022 C 687.4 1.93808 0.264141 0
M  V30 7023 O 688.606 2.66744 0.505966 0
M  V30 7024 C 687.062 2.94673 -2.0663 0
M  V30 7025 C 686.67 2.71926 -3.56034 0
M  V30 7026 C 688.414 3.72626 -2.03346 0
M  V30 7027 C 686.321 3.98884 -4.3663 0
M  V30 7028 H 685.251 0.613426 -0.438435 0
M  V30 7029 H 687.902 0.984427 -1.54859 0
M  V30 7030 H 686.284 3.61009 -1.62754 0
M  V30 7031 H 687.458 2.14116 -4.08033 0
M  V30 7032 H 685.773 2.07353 -3.61101 0
M  V30 7033 H 688.37 4.66775 -2.60816 0
M  V30 7034 H 688.713 4.03712 -1.016 0
M  V30 7035 H 689.246 3.13147 -2.45324 0
M  V30 7036 H 685.985 3.72959 -5.39056 0
M  V30 7037 H 685.505 4.56214 -3.89396 0
M  V30 7038 H 687.184 4.66938 -4.47859 0
M  V30 7039 N 687.317 1.12792 1.10072 0
M  V30 7040 C 688.247 0.821688 2.18565 0
M  V30 7041 C 689.228 -0.21612 1.68721 0
M  V30 7042 O 690.413 -0.0764932 1.94049 0
M  V30 7043 C 687.543 0.279624 3.46172 0
M  V30 7044 C 686.497 1.25092 4.09312 0
M  V30 7045 C 685.823 0.568916 5.31665 0
M  V30 7046 C 687.123 2.60699 4.52585 0
M  V30 7047 H 688.817 1.72888 2.44438 0
M  V30 7048 H 686.363 0.832702 1.17482 0
M  V30 7049 H 688.316 0.053099 4.21367 0
M  V30 7050 H 687.04 -0.662929 3.19801 0
M  V30 7051 H 685.699 1.46332 3.36129 0
M  V30 7052 H 685.347 -0.378898 5.01571 0
M  V30 7053 H 685.047 1.21687 5.74862 0
M  V30 7054 H 686.571 0.351517 6.09587 0
M  V30 7055 H 687.985 2.43465 5.19035 0
M  V30 7056 H 686.382 3.21608 5.06644 0
M  V30 7057 H 687.452 3.1886 3.65317 0
M  V30 7058 N 688.795 -1.27931 0.920396 0
M  V30 7059 C 690.02 -1.99343 0.572478 0
M  V30 7060 C 690.445 -1.68267 -0.840696 0
M  V30 7061 O 689.803 -0.918805 -1.56294 0
M  V30 7062 C 689.851 -3.51698 0.796284 0
M  V30 7063 O 688.955 -4.12157 -0.141602 0
M  V30 7064 H 688.296 -0.626065 0.221221 0
M  V30 7065 H 690.826 -1.62921 1.23765 0
M  V30 7066 H 690.836 -4.01793 0.708984 0
M  V30 7067 H 689.511 -3.73649 1.82644 0
M  V30 7068 H 688.088 -3.729 -0.005007 0
M  V30 7069 N 690.273 -0.685099 -1.4193 0
M  V30 7070 C 691.203 -0.0273506 -2.33484 0
M  V30 7071 C 692.184 0.778366 -1.51246 0
M  V30 7072 O 693.369 0.733449 -1.79817 0
M  V30 7073 C 690.499 0.917272 -3.34968 0
M  V30 7074 C 689.453 0.21941 -4.27437 0
M  V30 7075 C 688.779 1.27768 -5.1921 0
M  V30 7076 C 690.079 -0.907894 -5.14349 0
M  V30 7077 H 691.773 -0.791994 -2.88735 0
M  V30 7078 H 689.319 -0.382308 -1.38832 0
M  V30 7079 H 691.272 1.38657 -3.97935 0
M  V30 7080 H 689.996 1.71346 -2.78043 0
M  V30 7081 H 688.655 -0.229757 -3.65879 0
M  V30 7082 H 688.303 2.06612 -4.58607 0
M  V30 7083 H 688.003 0.815803 -5.81909 0
M  V30 7084 H 689.527 1.7477 -5.85054 0
M  V30 7085 H 690.941 -0.519348 -5.70943 0
M  V30 7086 H 689.338 -1.2962 -5.85934 0
M  V30 7087 H 690.408 -1.75218 -4.52136 0
M  V30 7088 N 691.751 1.51645 -0.429126 0
M  V30 7089 C 693 2.01203 0.141538 0
M  V30 7090 C 693.313 1.31828 1.44502 0
M  V30 7091 O 694.519 1.7231 2.09813 0
M  V30 7092 C 692.975 3.58624 0.302786 0
M  V30 7093 C 692.583 4.3693 -0.989775 0
M  V30 7094 C 694.327 4.16353 0.827661 0
M  V30 7095 C 692.234 5.86037 -0.794619 0
M  V30 7096 H 691.164 0.751867 0.05667 0
M  V30 7097 H 693.815 1.74822 -0.557633 0
M  V30 7098 H 692.197 3.81417 1.06476 0
M  V30 7099 H 693.371 4.25887 -1.75945 0
M  V30 7100 H 691.686 3.90614 -1.44256 0
M  V30 7101 H 694.283 5.25455 0.990026 0
M  V30 7102 H 694.626 3.74995 1.80787 0
M  V30 7103 H 695.159 3.97606 0.124213 0
M  V30 7104 H 691.898 6.31792 -1.74697 0
M  V30 7105 H 691.418 5.99765 -0.0645968 0
M  V30 7106 H 693.097 6.45471 -0.444591 0
M  V30 7107 N 693.229 0.160201 1.56784 0
M  V30 7108 C 694.177 -0.791402 2.18723 0
M  V30 7109 C 695.171 -1.24567 1.14801 0
M  V30 7110 O 696.377 -1.21262 1.33025 0
M  V30 7111 H 692.752 -0.273458 0.700517 0
M  V30 7112 H 694.723 -0.244931 2.97393 0
M  V30 7113 C 693.472 -2.01509 2.83354 0
M  V30 7114 H 692.795 -1.67454 3.63041 0
M  V30 7115 H 694.235 -2.66006 3.30177 0
M  V30 7116 C 692.694 -2.83159 1.82545 0
M  V30 7117 O 693.224 -3.79944 1.30405 0
M  V30 7118 N 691.43 -2.47953 1.51552 0
M  V30 7119 H 690.977 -1.69309 1.94144 0
M  V30 7120 H 690.935 -3.02873 0.843519 0
M  V30 7121 N 694.707 -1.5719 -0.113559 0
M  V30 7122 C 695.617 -2.04041 -1.15777 0
M  V30 7123 C 696.633 -0.961812 -1.45001 0
M  V30 7124 O 697.809 -1.2737 -1.56009 0
M  V30 7125 C 694.874 -2.43994 -2.46308 0
M  V30 7126 C 693.935 -3.65962 -2.24433 0
M  V30 7127 C 693.168 -4.04 -3.4874 0
M  V30 7128 O 693.391 -3.42321 -4.56259 0
M  V30 7129 O 692.325 -4.97069 -3.3942 0
M  V30 7130 H 696.151 -2.93248 -0.789899 0
M  V30 7131 H 693.736 -1.45828 -0.324748 0
M  V30 7132 H 695.618 -2.70401 -3.23204 0
M  V30 7133 H 694.293 -1.57932 -2.82558 0
M  V30 7134 H 693.2 -3.44697 -1.45377 0
M  V30 7135 H 694.533 -4.52746 -1.93084 0
M  V30 7136 N 696.185 0.383891 -1.52853 0
M  V30 7137 C 697.135 1.46892 -1.74375 0
M  V30 7138 C 698.119 1.49378 -0.597909 0
M  V30 7139 O 699.311 1.54929 -0.855929 0
M  V30 7140 C 696.44 2.84547 -1.92063 0
M  V30 7141 C 695.526 2.8661 -3.12594 0
M  V30 7142 N 695.917 2.58339 -4.3485 0
M  V30 7143 C 694.215 3.17777 -3.12944 0
M  V30 7144 C 694.916 2.67616 -5.16485 0
M  V30 7145 N 693.892 3.01561 -4.52285 0
M  V30 7146 H 697.694 1.23869 -2.66522 0
M  V30 7147 H 695.208 0.591895 -1.51229 0
M  V30 7148 H 697.205 3.62674 -2.05604 0
M  V30 7149 H 695.865 3.08549 -1.01133 0
M  V30 7150 H 696.876 2.32266 -4.62896 0
M  V30 7151 H 693.553 3.47211 -2.31842 0
M  V30 7152 H 694.943 2.4926 -6.23955 0
M  V30 7153 N 697.663 1.43903 0.642637 0
M  V30 7154 C 699.079 1.27536 0.959519 0
M  V30 7155 C 699.279 0.202751 2.00477 0
M  V30 7156 O 698.335 -0.415256 2.49062 0
M  V30 7157 C 699.648 2.6432 1.43372 0
M  V30 7158 C 701.196 2.71937 1.54981 0
M  V30 7159 C 701.671 4.09164 2.05789 0
M  V30 7160 N 703.162 4.11282 2.13076 0
M  V30 7161 C 703.897 5.14303 2.53534 0
M  V30 7162 N 703.393 6.27693 2.93212 0
M  V30 7163 N 705.186 5.01657 2.53567 0
M  V30 7164 H 697.337 2.12344 -0.0488376 0
M  V30 7165 H 699.6 0.947124 0.0407559 0
M  V30 7166 H 699.306 3.43826 0.740048 0
M  V30 7167 H 699.18 2.90432 2.40685 0
M  V30 7168 H 701.567 1.92757 2.23448 0
M  V30 7169 H 701.648 2.49578 0.560739 0
M  V30 7170 H 701.292 4.88815 1.37921 0
M  V30 7171 H 701.222 4.28893 3.05546 0
M  V30 7172 H 703.713 3.2944 1.85143 0
M  V30 7173 H 704.026 7.02125 3.22863 0
M  V30 7174 H 702.371 6.31149 2.90991 0
M  V30 7175 H 705.562 4.12134 2.21952 0
M  V30 7176 H 705.735 5.82072 2.84774 0
M  V30 7177 N 699.141 -0.881989 1.30609 0
M  V30 7178 C 700.39 -1.62878 1.18969 0
M  V30 7179 C 700.703 -1.93946 -0.253859 0
M  V30 7180 O 701.909 -2.67008 -0.491813 0
M  V30 7181 C 700.365 -2.93573 2.0819 0
M  V30 7182 C 699.973 -2.70034 3.57471 0
M  V30 7183 C 701.717 -3.71543 2.0532 0
M  V30 7184 C 699.624 -3.96563 4.38739 0
M  V30 7185 H 698.554 -0.611092 0.441682 0
M  V30 7186 H 701.205 -0.976201 1.55379 0
M  V30 7187 H 699.587 -3.6014 1.64666 0
M  V30 7188 H 700.761 -2.11949 4.09163 0
M  V30 7189 H 699.076 -2.05435 3.62195 0
M  V30 7190 H 701.673 -4.65386 2.63288 0
M  V30 7191 H 702.016 -4.03167 1.03739 0
M  V30 7192 H 702.549 -3.11842 2.46981 0
M  V30 7193 H 699.288 -3.70095 5.41027 0
M  V30 7194 H 698.808 -4.54142 3.9181 0
M  V30 7195 H 700.487 -4.64557 4.50329 0
M  V30 7196 N 700.619 -1.13374 -1.09472 0
M  V30 7197 C 701.549 -0.833268 -2.18126 0
M  V30 7198 C 702.53 0.207169 -1.68834 0
M  V30 7199 O 703.715 0.0662012 -1.94087 0
M  V30 7200 C 700.845 -0.297979 -3.46019 0
M  V30 7201 C 699.799 -1.27261 -4.08642 0
M  V30 7202 C 699.125 -0.597104 -5.31356 0
M  V30 7203 C 700.425 -2.63095 -4.51197 0
M  V30 7204 H 702.119 -1.74182 -2.43518 0
M  V30 7205 H 699.665 -0.838921 -1.17039 0
M  V30 7206 H 701.618 -0.0754444 -4.21332 0
M  V30 7207 H 700.342 0.645959 -3.20148 0
M  V30 7208 H 699.001 -1.48113 -3.35348 0
M  V30 7209 H 698.649 0.352293 -5.01765 0
M  V30 7210 H 698.349 -1.24734 -5.74208 0
M  V30 7211 H 699.873 -0.38384 -6.09392 0
M  V30 7212 H 701.287 -2.46214 -5.17737 0
M  V30 7213 H 699.684 -3.2429 -5.04932 0
M  V30 7214 H 700.754 -3.20793 -3.6362 0
M  V30 7215 N 702.098 1.27442 -0.927168 0
M  V30 7216 C 703.323 1.99036 -0.583042 0
M  V30 7217 C 703.748 1.68711 0.83176 0
M  V30 7218 O 703.106 0.927081 1.55804 0
M  V30 7219 C 703.154 3.51271 -0.814925 0
M  V30 7220 O 702.258 4.12226 0.119742 0
M  V30 7221 H 701.599 0.624883 -0.224538 0
M  V30 7222 H 704.129 1.62263 -1.24628 0
M  V30 7223 H 704.139 4.01411 -0.730282 0
M  V30 7224 H 702.814 3.72676 -1.84623 0
M  V30 7225 H 701.391 3.72897 -0.0147688 0
M  V30 7226 N 703.576 0.692616 1.41565 0
M  V30 7227 C 704.824 0.221896 2.00878 0
M  V30 7228 C 705.145 -1.18164 1.5512 0
M  V30 7229 O 704.415 -1.79679 0.78054 0
M  V30 7230 H 702.995 0.0790463 0.742806 0
M  V30 7231 H 705.657 0.893115 1.73232 0
M  V30 7232 H 704.753 0.23702 3.11199 0
M  V30 7233 N 705.054 -1.51416 0.437162 0
M  V30 7234 C 706.47 -1.59349 0.0894459 0
M  V30 7235 C 706.67 -1.44809 -1.40116 0
M  V30 7236 O 705.726 -1.28924 -2.17106 0
M  V30 7237 C 707.039 -2.9446 0.609398 0
M  V30 7238 C 708.587 -3.07769 0.569824 0
M  V30 7239 C 709.062 -4.45404 1.06675 0
M  V30 7240 N 710.553 -4.51723 1.02473 0
M  V30 7241 C 711.288 -5.56544 1.3801 0
M  V30 7242 N 710.784 -6.68784 1.80831 0
M  V30 7243 N 712.577 -5.46901 1.29828 0
M  V30 7244 H 704.728 -1.59112 1.40703 0
M  V30 7245 H 706.991 -0.750031 0.579791 0
M  V30 7246 H 706.697 -3.1047 1.65231 0
M  V30 7247 H 706.571 -3.77184 0.0342236 0
M  V30 7248 H 708.958 -2.91428 -0.464107 0
M  V30 7249 H 709.039 -2.26885 1.1814 0
M  V30 7250 H 708.683 -4.62492 2.09914 0
M  V30 7251 H 708.613 -5.24827 0.431712 0
M  V30 7252 H 711.104 -3.71165 0.710258 0
M  V30 7253 H 711.417 -7.44787 2.06185 0
M  V30 7254 H 709.762 -6.69992 1.84757 0
M  V30 7255 H 712.953 -4.581 0.962397 0
M  V30 7256 H 713.126 -6.2848 1.57851 0
M  V30 7257 N 706.532 -0.168513 -1.56696 0
M  V30 7258 C 707.943 0.348694 -1.83415 0
M  V30 7259 C 708.294 1.63257 -1.0882 0
M  V30 7260 O 707.419 2.13707 -0.340333 0
M  V30 7261 C 708.014 0.639423 -3.32711 0
M  V30 7262 C 706.573 1.10108 -3.59935 0
M  V30 7263 C 705.72 0.135464 -2.76969 0
M  V30 7264 H 708.671 -0.392829 -1.53761 0
M  V30 7265 H 708.692 1.49179 -3.50037 0
M  V30 7266 H 708.204 -0.295173 -3.86976 0
M  V30 7267 H 706.305 2.05088 -3.11079 0
M  V30 7268 H 706.418 1.01218 -4.68286 0
M  V30 7269 H 704.782 0.632286 -2.46727 0
M  V30 7270 H 705.565 -0.793104 -3.34013 0
M  V30 7271 N 708.01 1.57248 0.105221 0
M  V30 7272 C 709.421 1.74612 0.660865 0
M  V30 7273 C 709.772 0.789231 1.79626 0
M  V30 7274 O 708.897 -0.0346611 2.16372 0
M  V30 7275 C 709.492 3.16624 1.20559 0
M  V30 7276 C 708.051 3.35447 1.7074 0
M  V30 7277 C 707.198 2.70445 0.612764 0
M  V30 7278 H 710.149 1.5824 -0.12079 0
M  V30 7279 H 710.17 3.18937 2.07508 0
M  V30 7280 H 709.682 3.86245 0.379012 0
M  V30 7281 H 707.783 2.7089 2.5583 0
M  V30 7282 H 707.896 4.43702 1.80736 0
M  V30 7283 H 706.26 2.32061 1.04975 0
M  V30 7284 H 707.043 3.42699 -0.203066 0
M  V30 7285 N 709.488 -0.375779 1.53054 0
M  V30 7286 C 710.418 -1.46598 1.81745 0
M  V30 7287 C 711.399 -1.56337 0.670286 0
M  V30 7288 O 712.584 -1.71071 0.919158 0
M  V30 7289 C 709.714 -2.84058 1.99821 0
M  V30 7290 C 708.668 -2.8915 3.15557 0
M  V30 7291 C 707.994 -4.29187 3.18908 0
M  V30 7292 C 709.294 -2.57595 4.54359 0
M  V30 7293 H 710.988 -1.22837 2.73041 0
M  V30 7294 H 708.534 -0.589485 1.31381 0
M  V30 7295 H 710.487 -3.60342 2.18475 0
M  V30 7296 H 709.211 -3.09184 1.05226 0
M  V30 7297 H 707.87 -2.15316 2.96706 0
M  V30 7298 H 707.518 -4.51374 2.2197 0
M  V30 7299 H 707.218 -4.33512 3.96662 0
M  V30 7300 H 708.742 -5.07359 3.39734 0
M  V30 7301 H 710.156 -3.23595 4.73243 0
M  V30 7302 H 708.553 -2.73252 5.34279 0
M  V30 7303 H 709.623 -1.52882 4.60169 0
M  V30 7304 N 710.966 -1.44241 -0.634997 0
M  V30 7305 C 712.214 -1.46531 -1.39187 0
M  V30 7306 C 712.535 -0.0976441 -1.94755 0
M  V30 7307 O 711.805 0.869528 -1.75545 0
M  V30 7308 H 710.385 -0.539544 -0.516625 0
M  V30 7309 H 713.047 -1.79989 -0.747655 0
M  V30 7310 H 712.143 -2.18848 -2.22513 0
M  V30 7311 N 712.444 0.87505 -1.31075 0
M  V30 7312 C 713.691 1.62768 -1.20469 0
M  V30 7313 C 714.019 1.93034 0.23834 0
M  V30 7314 O 713.274 1.55693 1.18567 0
M  V30 7315 C 713.573 2.96948 -1.98888 0
M  V30 7316 C 713.239 2.86195 -3.4843 0
M  V30 7317 C 711.901 2.82969 -3.89207 0
M  V30 7318 C 714.253 2.73599 -4.43614 0
M  V30 7319 C 711.581 2.64999 -5.23443 0
M  V30 7320 C 713.933 2.57166 -5.77969 0
M  V30 7321 C 712.597 2.52321 -6.17973 0
M  V30 7322 H 711.867 0.595611 -0.440827 0
M  V30 7323 H 714.514 1.01665 -1.62285 0
M  V30 7324 H 712.819 3.62058 -1.49737 0
M  V30 7325 H 714.516 3.54164 -1.88067 0
M  V30 7326 H 711.106 2.8952 -3.16032 0
M  V30 7327 H 715.29 2.7515 -4.13045 0
M  V30 7328 H 710.546 2.5967 -5.53517 0
M  V30 7329 H 714.72 2.46396 -6.51354 0
M  V30 7330 H 712.347 2.38156 -7.21932 0
M  V30 7331 N 713.922 1.13953 1.08869 0
M  V30 7332 C 714.852 0.844824 2.17681 0
M  V30 7333 C 715.833 -0.198213 1.68941 0
M  V30 7334 O 717.018 -0.0559073 1.9412 0
M  V30 7335 C 714.148 0.316325 3.45856 0
M  V30 7336 C 713.102 1.29426 4.07962 0
M  V30 7337 C 712.428 0.625275 5.31031 0
M  V30 7338 C 713.728 2.65484 4.49795 0
M  V30 7339 H 715.422 1.75471 2.42591 0
M  V30 7340 H 712.968 0.845116 1.16592 0
M  V30 7341 H 714.921 0.0977876 4.21287 0
M  V30 7342 H 713.645 -0.628972 3.20486 0
M  V30 7343 H 712.304 1.49889 3.34558 0
M  V30 7344 H 711.952 -0.325678 5.01945 0
M  V30 7345 H 711.652 1.27777 5.73539 0
M  V30 7346 H 713.176 0.416152 6.0918 0
M  V30 7347 H 714.59 2.48957 5.16424 0
M  V30 7348 H 712.987 3.26963 5.03205 0
M  V30 7349 H 714.057 3.22717 3.61914 0
M  V30 7350 N 715.4 -1.26948 0.933913 0
M  V30 7351 C 716.348 -2.2862 0.428463 0
M  V30 7352 C 717.342 -1.62144 -0.490464 0
M  V30 7353 O 718.548 -1.76167 -0.36948 0
M  V30 7354 H 714.923 -0.742363 0.120003 0
M  V30 7355 H 716.894 -2.68659 1.29865 0
M  V30 7356 C 715.643 -3.46423 -0.29774 0
M  V30 7357 H 714.966 -3.97792 0.400183 0
M  V30 7358 H 716.406 -4.19505 -0.615736 0
M  V30 7359 C 714.865 -3.01017 -1.51295 0
M  V30 7360 O 715.395 -3.05226 -2.61151 0
M  V30 7361 N 713.601 -2.56442 -1.36696 0
M  V30 7362 H 713.148 -2.53217 -0.473178 0
M  V30 7363 H 713.106 -2.26424 -2.18127 0
M  V30 7364 N 716.879 -0.700114 -1.41195 0
M  V30 7365 C 718.29 -0.307249 -1.84154 0
M  V30 7366 C 718.641 1.15539 -1.58572 0
M  V30 7367 O 717.766 1.88744 -1.05852 0
M  V30 7368 C 718.361 -0.550872 -3.34292 0
M  V30 7369 C 716.92 -0.211877 -3.75803 0
M  V30 7370 C 716.067 -0.830915 -2.64558 0
M  V30 7371 H 719.018 -0.900431 -1.30683 0
M  V30 7372 H 719.039 0.188954 -3.80031 0
M  V30 7373 H 718.551 -1.61548 -3.5288 0
M  V30 7374 H 716.652 0.848283 -3.62815 0
M  V30 7375 H 716.765 -0.67007 -4.74391 0
M  V30 7376 H 715.129 -0.260155 -2.53368 0
M  V30 7377 H 715.912 -1.89948 -2.85963 0
M  V30 7378 N 718.357 1.51182 -0.445186 0
M  V30 7379 C 719.773 1.59299 -0.0978954 0
M  V30 7380 C 719.973 1.4555 1.39346 0
M  V30 7381 O 719.029 1.30073 2.16419 0
M  V30 7382 C 720.342 2.94133 -0.625005 0
M  V30 7383 C 721.89 3.07463 -0.586137 0
M  V30 7384 C 722.365 4.44832 -1.09035 0
M  V30 7385 N 723.856 4.51173 -1.04867 0
M  V30 7386 C 724.591 5.55804 -1.40959 0
M  V30 7387 N 724.087 6.67816 -1.84375 0
M  V30 7388 N 725.88 5.46205 -1.32726 0
M  V30 7389 H 718.031 1.58363 -1.41544 0
M  V30 7390 H 720.294 0.746946 -0.58376 0
M  V30 7391 H 720 3.09589 -1.66876 0
M  V30 7392 H 719.874 3.77161 -0.0542262 0
M  V30 7393 H 722.261 2.9167 0.448646 0
M  V30 7394 H 722.342 2.26255 -1.19341 0
M  V30 7395 H 721.986 4.61372 -2.12364 0
M  V30 7396 H 721.916 5.24591 -0.459539 0
M  V30 7397 H 724.407 3.70783 -0.729932 0
M  V30 7398 H 724.72 7.43683 -2.10131 0
M  V30 7399 H 723.065 6.69003 -1.88308 0
M  V30 7400 H 726.256 4.57583 -0.986678 0
M  V30 7401 H 726.429 6.27634 -1.61182 0
M  V30 7402 N 719.835 0.176821 1.56605 0
M  V30 7403 C 720.765 -0.746841 2.21234 0
M  V30 7404 C 721.746 -1.23502 1.16967 0
M  V30 7405 O 722.931 -1.28718 1.45414 0
M  V30 7406 C 720.061 -1.97407 2.8574 0
M  V30 7407 C 719.015 -1.62153 3.96094 0
M  V30 7408 C 718.341 -2.92387 4.47676 0
M  V30 7409 C 719.641 -0.845353 5.15413 0
M  V30 7410 H 721.335 -0.208116 2.98676 0
M  V30 7411 H 718.881 -0.0986594 1.43662 0
M  V30 7412 H 720.834 -2.62531 3.2963 0
M  V30 7413 H 719.558 -2.53703 2.05676 0
M  V30 7414 H 718.217 -0.993964 3.52868 0
M  V30 7415 H 717.865 -3.46734 3.64396 0
M  V30 7416 H 717.565 -2.69551 5.22127 0
M  V30 7417 H 719.089 -3.5853 4.94255 0
M  V30 7418 H 720.503 -1.39929 5.55961 0
M  V30 7419 H 718.9 -0.715814 5.95815 0
M  V30 7420 H 719.97 0.157239 4.84645 0
M  V30 7421 N 721.313 -1.57302 -0.09688 0
M  V30 7422 C 722.543 -1.89926 -0.813114 0
M  V30 7423 C 722.951 -0.76852 -1.72888 0
M  V30 7424 O 722.294 0.268549 -1.81726 0
M  V30 7425 C 722.356 -3.17787 -1.68082 0
M  V30 7426 C 722.02 -4.4729 -0.937061 0
M  V30 7427 C 723.017 -5.1921 -0.267687 0
M  V30 7428 C 720.702 -4.93957 -0.911671 0
M  V30 7429 C 722.696 -6.36034 0.417129 0
M  V30 7430 C 720.383 -6.10693 -0.223068 0
M  V30 7431 C 721.381 -6.8158 0.440155 0
M  V30 7432 O 721.069 -7.96092 1.11772 0
M  V30 7433 H 720.801 -0.632783 -0.237828 0
M  V30 7434 H 723.355 -2.05248 -0.0790818 0
M  V30 7435 H 721.585 -2.98607 -2.45705 0
M  V30 7436 H 723.274 -3.36257 -2.27346 0
M  V30 7437 H 724.04 -4.84198 -0.278774 0
M  V30 7438 H 719.919 -4.38671 -1.41734 0
M  V30 7439 H 723.463 -6.91301 0.93537 0
M  V30 7440 H 719.36 -6.45159 -0.209821 0
M  V30 7441 H 720.128 -8.12064 1.02443 0
M  V30 7442 N 722.791 0.367657 -1.53252 0
M  V30 7443 C 723.723 1.47032 -1.75824 0
M  V30 7444 C 724.736 1.49736 -0.63898 0
M  V30 7445 O 725.925 1.53253 -0.915193 0
M  V30 7446 C 723.025 2.85805 -1.82122 0
M  V30 7447 C 722.198 3.06822 -3.11736 0
M  V30 7448 C 721.257 4.25698 -3.09302 0
M  V30 7449 O 720.283 4.20972 -3.83107 0
M  V30 7450 N 721.485 5.33002 -2.29977 0
M  V30 7451 H 724.25 1.28048 -2.70968 0
M  V30 7452 H 721.811 0.557363 -1.52004 0
M  V30 7453 H 723.803 3.63465 -1.77975 0
M  V30 7454 H 722.373 2.98046 -0.942716 0
M  V30 7455 H 721.593 2.1684 -3.29202 0
M  V30 7456 H 722.881 3.17731 -3.97397 0
M  V30 7457 H 722.279 5.39703 -1.69521 0
M  V30 7458 H 720.836 6.09247 -2.3165 0
M  V30 7459 N 724.269 1.44576 0.627338 0
M  V30 7460 C 725.201 1.47724 1.75243 0
M  V30 7461 C 726.214 0.370193 1.58535 0
M  V30 7462 O 727.403 0.636151 1.66779 0
M  V30 7463 C 724.503 1.2991 3.13012 0
M  V30 7464 C 723.676 2.5393 3.56143 0
M  V30 7465 C 722.735 2.30961 4.72804 0
M  V30 7466 O 721.761 3.04469 4.80923 0
M  V30 7467 N 722.963 1.34261 5.6476 0
M  V30 7468 H 725.728 2.44718 1.73012 0
M  V30 7469 H 723.289 1.40064 0.812022 0
M  V30 7470 H 725.281 1.12385 3.88782 0
M  V30 7471 H 723.851 0.412668 3.09864 0
M  V30 7472 H 723.071 2.86707 2.70542 0
M  V30 7473 H 724.359 3.36411 3.81713 0
M  V30 7474 H 723.757 0.735573 5.60897 0
M  V30 7475 H 722.314 1.22713 6.40144 0
M  V30 7476 N 725.747 -0.868086 1.31537 0
M  V30 7477 C 726.697 -1.96321 1.1594 0
M  V30 7478 C 727.681 -1.60748 0.0698962 0
M  V30 7479 O 728.873 -1.74524 0.295011 0
M  V30 7480 C 726.002 -3.32073 0.870789 0
M  V30 7481 C 725.088 -3.73907 2.00136 0
M  V30 7482 N 725.479 -3.87685 3.24859 0
M  V30 7483 C 723.777 -4.03433 1.90152 0
M  V30 7484 C 724.478 -4.23454 3.98825 0
M  V30 7485 N 723.454 -4.34242 3.27009 0
M  V30 7486 H 727.256 -2.05088 2.10514 0
M  V30 7487 H 724.77 -1.059 1.23122 0
M  V30 7488 H 726.767 -4.10279 0.740034 0
M  V30 7489 H 725.427 -3.24631 -0.0667068 0
M  V30 7490 H 726.438 -3.72363 3.59953 0
M  V30 7491 H 723.115 -4.0437 1.03879 0
M  V30 7492 H 724.505 -4.41696 5.06314 0
M  V30 7493 N 727.225 -1.14528 -1.08264 0
M  V30 7494 C 728.473 -0.912599 -1.80322 0
M  V30 7495 C 728.794 0.562256 -1.86718 0
M  V30 7496 O 728.064 1.40869 -1.36135 0
M  V30 7497 H 726.644 -0.334645 -0.667849 0
M  V30 7498 H 729.306 -1.44415 -1.30883 0
M  V30 7499 H 728.402 -1.31384 -2.83098 0
M  V30 7500 N 728.703 1.26451 -0.940633 0
M  V30 7501 C 729.666 2.24651 -0.454378 0
M  V30 7502 C 730.666 1.54826 0.434222 0
M  V30 7503 O 731.856 1.72628 0.233477 0
M  V30 7504 C 728.988 3.39148 0.345192 0
M  V30 7505 H 730.181 2.69182 -1.32217 0
M  V30 7506 H 727.734 1.38596 -0.722547 0
M  V30 7507 H 728.469 3.00018 1.23125 0
M  V30 7508 H 728.254 3.9101 -0.292107 0
M  V30 7509 H 729.744 4.12103 0.675341 0
M  V30 7510 N 730.181 0.707592 1.40822 0
M  V30 7511 C 731.429 0.243189 2.00632 0
M  V30 7512 C 731.75 -1.16512 1.56365 0
M  V30 7513 O 731.02 -1.78841 0.799553 0
M  V30 7514 H 729.6 0.0869203 0.741926 0
M  V30 7515 H 732.262 0.911438 1.72275 0
M  V30 7516 H 731.358 0.270014 3.1093 0
M  V30 7517 N 731.66 -1.50943 0.453197 0
M  V30 7518 C 732.59 -2.31005 -0.34044 0
M  V30 7519 C 733.571 -1.37112 -1.00669 0
M  V30 7520 O 734.756 -1.66033 -1.0073 0
M  V30 7521 C 731.886 -3.16358 -1.433 0
M  V30 7522 C 730.84 -4.18658 -0.889363 0
M  V30 7523 C 730.166 -4.92633 -2.07887 0
M  V30 7524 C 731.466 -5.22227 0.0871142 0
M  V30 7525 H 733.16 -2.97601 0.327723 0
M  V30 7526 H 730.706 -1.43119 0.159054 0
M  V30 7527 H 732.659 -3.71155 -1.99555 0
M  V30 7528 H 731.383 -2.47613 -2.12968 0
M  V30 7529 H 730.042 -3.64936 -0.348915 0
M  V30 7530 H 729.69 -4.20376 -2.76211 0
M  V30 7531 H 729.39 -5.61819 -1.72143 0
M  V30 7532 H 730.914 -5.50258 -2.64666 0
M  V30 7533 H 732.328 -5.72001 -0.385656 0
M  V30 7534 H 730.725 -5.99032 0.357926 0
M  V30 7535 H 731.795 -4.74077 1.01879 0
M  V30 7536 N 733.138 -0.185124 -1.56509 0
M  V30 7537 C 734.385 0.456258 -1.97293 0
M  V30 7538 C 734.713 1.62314 -1.07165 0
M  V30 7539 O 733.968 1.95398 -0.108621 0
M  V30 7540 C 734.267 0.967977 -3.44042 0
M  V30 7541 C 733.933 -0.084476 -4.50821 0
M  V30 7542 C 732.595 -0.373689 -4.79747 0
M  V30 7543 C 734.947 -0.79812 -5.15053 0
M  V30 7544 C 732.275 -1.3817 -5.70198 0
M  V30 7545 C 734.627 -1.79521 -6.06593 0
M  V30 7546 C 733.291 -2.09172 -6.3388 0
M  V30 7547 H 732.561 0.166957 -0.721946 0
M  V30 7548 H 735.208 -0.279992 -1.89442 0
M  V30 7549 H 733.513 1.78231 -3.48914 0
M  V30 7550 H 735.21 1.47347 -3.72948 0
M  V30 7551 H 731.8 0.15111 -4.28334 0
M  V30 7552 H 735.984 -0.587903 -4.92806 0
M  V30 7553 H 731.24 -1.61745 -5.89617 0
M  V30 7554 H 735.414 -2.35347 -6.55427 0
M  V30 7555 H 733.041 -2.87427 -7.03768 0
M  V30 7556 N 734.616 1.57351 0.0885366 0
M  V30 7557 C 735.893 1.77449 0.822873 0
M  V30 7558 C 736.273 0.768463 1.96616 0
M  V30 7559 O 735.621 -0.201757 2.27608 0
M  V30 7560 C 735.831 3.23425 1.31137 0
M  V30 7561 C 737.179 3.86791 1.75152 0
M  V30 7562 O 738.203 3.27215 1.40745 0
M  V30 7563 O 737.062 4.91568 2.38794 0
M  V30 7564 H 734.156 0.727653 0.393002 0
M  V30 7565 H 736.702 1.69556 0.0699095 0
M  V30 7566 H 735.474 3.88188 0.49254 0
M  V30 7567 H 735.097 3.35977 2.12615 0
M  V30 7568 N 736.094 -0.359525 1.53444 0
M  V30 7569 C 737.34 -1.10315 1.70172 0
M  V30 7570 C 737.673 -1.88788 0.455287 0
M  V30 7571 O 736.948 -1.86635 -0.547514 0
M  V30 7572 C 737.231 -2.05744 2.95536 0
M  V30 7573 C 737.084 -1.3084 4.3035 0
M  V30 7574 C 738.403 -3.05784 3.16518 0
M  V30 7575 H 735.522 -0.399662 0.619225 0
M  V30 7576 H 738.164 -0.383338 1.86093 0
M  V30 7577 H 736.314 -2.67125 2.82093 0
M  V30 7578 H 737.986 -0.721959 4.55615 0
M  V30 7579 H 736.229 -0.610283 4.29486 0
M  V30 7580 H 736.9 -2.00718 5.14214 0
M  V30 7581 H 739.376 -2.5451 3.29187 0
M  V30 7582 H 738.252 -3.69772 4.05659 0
M  V30 7583 H 738.513 -3.76289 2.32076 0
M  V30 7584 N 737.572 -1.44907 -0.619662 0
M  V30 7585 C 738.8 -1.51795 -1.40591 0
M  V30 7586 C 739.215 -0.146553 -1.8823 0
M  V30 7587 O 738.572 0.849698 -1.61513 0
M  V30 7588 C 738.623 -2.49229 -2.61853 0
M  V30 7589 O 738.344 -3.81039 -2.16197 0
M  V30 7590 C 739.845 -2.65696 -3.54853 0
M  V30 7591 H 737.065 -0.514463 -0.430777 0
M  V30 7592 H 739.609 -1.8998 -0.756813 0
M  V30 7593 H 737.764 -2.14149 -3.2283 0
M  V30 7594 H 738.178 -4.33747 -2.94896 0
M  V30 7595 H 739.652 -3.37874 -4.36515 0
M  V30 7596 H 740.129 -1.71316 -4.0441 0
M  V30 7597 H 740.735 -3.01724 -2.99737 0
M  V30 7598 N 739.05 0.861098 -1.31996 0
M  V30 7599 C 740.466 1.14827 -1.10846 0
M  V30 7600 C 740.666 2.0117 0.11528 0
M  V30 7601 O 739.722 2.39423 0.802048 0
M  V30 7602 C 741.035 1.83183 -2.38462 0
M  V30 7603 C 742.583 1.95847 -2.44158 0
M  V30 7604 C 743.058 2.67617 -3.71679 0
M  V30 7605 N 744.549 2.75147 -3.72624 0
M  V30 7606 C 745.284 3.31314 -4.67994 0
M  V30 7607 N 744.78 3.88343 -5.73726 0
M  V30 7608 N 746.573 3.29356 -4.55501 0
M  V30 7609 H 738.724 0.285951 -2.10466 0
M  V30 7610 H 740.987 0.189303 -0.928907 0
M  V30 7611 H 740.693 1.27193 -3.27895 0
M  V30 7612 H 740.567 2.83393 -2.48935 0
M  V30 7613 H 742.954 2.50999 -1.55189 0
M  V30 7614 H 743.035 0.94653 -2.37644 0
M  V30 7615 H 742.679 2.13131 -4.61018 0
M  V30 7616 H 742.609 3.69237 -3.75462 0
M  V30 7617 H 745.1 2.34682 -2.96197 0
M  V30 7618 H 745.413 4.29338 -6.42564 0
M  V30 7619 H 743.758 3.86693 -5.77489 0
M  V30 7620 H 746.949 2.84047 -3.72069 0
M  V30 7621 H 747.122 3.7283 -5.30001 0
M  V30 7622 N 740.528 1.15101 1.07655 0
M  V30 7623 C 741.776 0.922149 1.79836 0
M  V30 7624 C 742.097 -0.552346 1.87014 0
M  V30 7625 O 741.367 -1.40145 1.3688 0
M  V30 7626 H 739.947 0.338182 0.666064 0
M  V30 7627 H 742.609 1.45107 1.30115 0
M  V30 7628 H 741.705 1.32883 2.82398 0
M  V30 7629 N 742.006 -1.2595 0.947325 0
M  V30 7630 C 743.246 -1.95218 0.605743 0
M  V30 7631 C 743.61 -1.72624 -0.84054 0
M  V30 7632 O 744.811 -2.35748 -1.29136 0
M  V30 7633 C 743.082 -3.44654 0.94596 0
M  V30 7634 S 744.641 -4.32922 0.715849 0
M  V30 7635 H 741.459 -0.675159 0.222894 0
M  V30 7636 H 744.061 -1.52766 1.21995 0
M  V30 7637 H 742.765 -3.586 1.99585 0
M  V30 7638 H 742.296 -3.92082 0.321718 0
M  V30 7639 H 744.311 -4.94445 -0.416959 0
M  V30 7640 N 743.484 -0.715051 -1.40445 0
M  V30 7641 C 744.434 -0.038591 -2.27967 0
M  V30 7642 C 745.418 0.733099 -1.43229 0
M  V30 7643 O 746.61 0.605388 -1.66325 0
M  V30 7644 C 743.739 0.882801 -3.31755 0
M  V30 7645 C 742.825 0.106325 -4.23967 0
M  V30 7646 N 743.216 -0.910143 -4.97544 0
M  V30 7647 C 741.514 0.33896 -4.4471 0
M  V30 7648 C 742.215 -1.37665 -5.65175 0
M  V30 7649 N 741.191 -0.698905 -5.39088 0
M  V30 7650 H 744.993 -0.81765 -2.82297 0
M  V30 7651 H 742.507 -0.547591 -1.5289 0
M  V30 7652 H 744.504 1.38273 -3.93302 0
M  V30 7653 H 743.164 1.66124 -2.78985 0
M  V30 7654 H 744.175 -1.29097 -5.01552 0
M  V30 7655 H 740.852 1.09377 -4.02918 0
M  V30 7656 H 742.242 -2.22122 -6.34123 0
M  V30 7657 N 744.962 1.50701 -0.461195 0
M  V30 7658 C 745.872 2.32069 0.343661 0
M  V30 7659 C 746.888 1.42016 1.00535 0
M  V30 7660 O 748.064 1.75077 0.995498 0
M  V30 7661 C 745.129 3.16424 1.41692 0
M  V30 7662 C 744.19 4.22286 0.772869 0
M  V30 7663 C 743.423 5.02609 1.79499 0
M  V30 7664 O 743.646 4.83874 3.0203 0
M  V30 7665 O 742.58 5.86047 1.3723 0
M  V30 7666 H 746.406 3.01996 -0.321268 0
M  V30 7667 H 743.991 1.47723 -0.223235 0
M  V30 7668 H 745.873 3.68795 2.03883 0
M  V30 7669 H 744.548 2.49236 2.0655 0
M  V30 7670 H 743.455 3.73931 0.112277 0
M  V30 7671 H 744.788 4.91915 0.167399 0
M  V30 7672 N 746.441 0.193421 1.56409 0
M  V30 7673 C 747.666 -0.454552 2.02358 0
M  V30 7674 C 748.091 -1.54516 1.07268 0
M  V30 7675 O 747.449 -1.81214 0.0558962 0
M  V30 7676 C 747.497 -0.989469 3.46759 0
M  V30 7677 O 746.601 -2.10244 3.54783 0
M  V30 7678 H 745.942 -0.106417 0.655417 0
M  V30 7679 H 748.472 0.303807 2.02332 0
M  V30 7680 H 748.482 -1.30649 3.86516 0
M  V30 7681 H 747.157 -0.191083 4.15461 0
M  V30 7682 H 745.734 -1.79419 3.26899 0
M  V30 7683 N 747.919 -1.57396 -0.0801906 0
M  V30 7684 C 749.159 -1.88668 -0.786367 0
M  V30 7685 C 749.523 -0.786216 -1.75165 0
M  V30 7686 O 750.724 -0.981769 -2.50229 0
M  V30 7687 C 748.995 -3.25176 -1.48308 0
M  V30 7688 S 750.554 -3.78177 -2.22549 0
M  V30 7689 H 747.372 -0.661094 -0.261679 0
M  V30 7690 H 749.974 -1.95453 -0.0428196 0
M  V30 7691 H 748.678 -4.03176 -0.766629 0
M  V30 7692 H 748.209 -3.21567 -2.26623 0
M  V30 7693 H 750.224 -3.52789 -3.48934 0
M  V30 7694 N 749.397 0.351382 -1.53633 0
M  V30 7695 C 750.327 1.43688 -1.84055 0
M  V30 7696 C 751.308 1.55251 -0.695073 0
M  V30 7697 O 752.493 1.69587 -0.946257 0
M  V30 7698 C 749.623 2.80843 -2.04315 0
M  V30 7699 C 748.577 2.84094 -3.20117 0
M  V30 7700 C 747.903 4.2406 -3.25696 0
M  V30 7701 C 749.203 2.50334 -4.58399 0
M  V30 7702 H 750.897 1.18478 -2.74961 0
M  V30 7703 H 748.443 0.568509 -1.32303 0
M  V30 7704 H 750.396 3.56821 -2.2418 0
M  V30 7705 H 749.12 3.07471 -1.10132 0
M  V30 7706 H 747.779 2.10568 -3.00094 0
M  V30 7707 H 747.427 4.47785 -2.29123 0
M  V30 7708 H 747.127 4.27147 -4.03509 0
M  V30 7709 H 748.651 5.0189 -3.47762 0
M  V30 7710 H 750.065 3.16025 -4.78332 0
M  V30 7711 H 748.462 2.64717 -5.38558 0
M  V30 7712 H 749.532 1.45542 -4.62543 0
M  V30 7713 N 750.875 1.45233 0.611969 0
M  V30 7714 C 752.152 1.39495 1.37115 0
M  V30 7715 C 752.532 0.0633303 2.11005 0
M  V30 7716 O 751.88 -0.954617 2.07604 0
M  V30 7717 C 752.09 2.60579 2.32163 0
M  V30 7718 C 753.438 3.05477 2.94905 0
M  V30 7719 O 754.462 2.60921 2.42485 0
M  V30 7720 O 753.321 3.82787 3.90047 0
M  V30 7721 H 750.415 0.55335 0.614599 0
M  V30 7722 H 752.961 1.57355 0.635423 0
M  V30 7723 H 751.733 3.49085 1.76793 0
M  V30 7724 H 751.356 2.45031 3.13122 0
M  V30 7725 N 752.353 -0.854086 1.3245 0
M  V30 7726 C 753.263 -1.99503 1.23434 0
M  V30 7727 C 754.279 -1.73371 0.147828 0
M  V30 7728 O 755.455 -1.97998 0.368609 0
M  V30 7729 C 752.52 -3.33192 0.958328 0
M  V30 7730 C 751.581 -3.72542 2.13333 0
M  V30 7731 C 750.814 -4.99852 1.8704 0
M  V30 7732 O 751.037 -5.64573 0.813239 0
M  V30 7733 O 749.971 -5.36345 2.73161 0
M  V30 7734 H 753.797 -2.10046 2.1935 0
M  V30 7735 H 751.382 -0.984823 1.12346 0
M  V30 7736 H 753.264 -4.13327 0.820918 0
M  V30 7737 H 751.939 -3.23687 0.0293299 0
M  V30 7738 H 750.846 -2.92981 2.32622 0
M  V30 7739 H 752.179 -3.86694 3.04514 0
M  V30 7740 N 753.831 -1.1567 -1.07043 0
M  V30 7741 C 754.741 -0.870435 -2.17855 0
M  V30 7742 C 755.757 0.154452 -1.73313 0
M  V30 7743 O 756.933 -0.0203759 -2.0139 0
M  V30 7744 C 753.998 -0.367219 -3.4475 0
M  V30 7745 C 753.059 -1.45639 -4.03841 0
M  V30 7746 C 752.292 -0.977092 -5.2468 0
M  V30 7747 O 752.515 0.176127 -5.70128 0
M  V30 7748 O 751.449 -1.76215 -5.75527 0
M  V30 7749 H 755.275 -1.79687 -2.44839 0
M  V30 7750 H 752.86 -0.936064 -1.1644 0
M  V30 7751 H 754.742 -0.0931947 -4.21297 0
M  V30 7752 H 753.417 0.53131 -3.1931 0
M  V30 7753 H 752.324 -1.78406 -3.28819 0
M  V30 7754 H 753.657 -2.32995 -4.3356 0
M  V30 7755 N 755.309 1.25446 -0.953992 0
M  V30 7756 C 756.555 1.9343 -0.60933 0
M  V30 7757 C 756.888 1.74542 0.851388 0
M  V30 7758 O 756.163 1.09014 1.61078 0
M  V30 7759 C 756.446 3.46844 -0.968041 0
M  V30 7760 C 756.299 3.74961 -2.48444 0
M  V30 7761 C 757.618 4.37334 -0.492641 0
M  V30 7762 H 754.737 0.702502 -0.222844 0
M  V30 7763 H 757.379 1.48076 -1.19053 0
M  V30 7764 H 755.529 3.85604 -0.473465 0
M  V30 7765 H 757.201 3.45841 -3.05273 0
M  V30 7766 H 755.444 3.20589 -2.92241 0
M  V30 7767 H 756.115 4.82246 -2.68594 0
M  V30 7768 H 758.591 4.05873 -0.916878 0
M  V30 7769 H 757.467 5.43439 -0.772331 0
M  V30 7770 H 757.728 4.37908 0.607403 0
M  V30 7771 N 756.787 0.722489 1.40064 0
M  V30 7772 C 757.697 0.0755984 2.34478 0
M  V30 7773 C 758.713 -0.736046 1.57665 0
M  V30 7774 O 759.889 -0.667407 1.9002 0
M  V30 7775 C 756.954 -0.830075 3.36616 0
M  V30 7776 C 756.015 -0.00759884 4.29299 0
M  V30 7777 C 755.248 -0.870139 5.26559 0
M  V30 7778 O 755.471 -2.10921 5.2997 0
M  V30 7779 O 754.405 -0.305454 6.01124 0
M  V30 7780 H 758.231 0.854545 2.9143 0
M  V30 7781 H 755.816 0.483032 1.41376 0
M  V30 7782 H 757.698 -1.34864 3.99236 0
M  V30 7783 H 756.373 -1.58805 2.82069 0
M  V30 7784 H 755.28 0.556199 3.69942 0
M  V30 7785 H 756.613 0.712312 4.87018 0
M  V30 7786 N 758.265 -1.50454 0.469181 0
M  V30 7787 C 759.513 -2.01916 -0.0862982 0
M  V30 7788 C 759.834 -1.35337 -1.40388 0
M  V30 7789 O 759.104 -0.498096 -1.89462 0
M  V30 7790 H 757.684 -0.746185 -0.0348825 0
M  V30 7791 H 760.346 -1.84804 0.619167 0
M  V30 7792 H 759.442 -3.11182 -0.239189 0
M  V30 7793 N 759.743 -0.201713 -1.56304 0
M  V30 7794 C 760.675 0.748466 -2.16635 0
M  V30 7795 C 761.688 1.172 -1.12996 0
M  V30 7796 O 762.877 1.10658 -1.40061 0
M  V30 7797 C 759.977 2.02296 -2.719 0
M  V30 7798 C 759.15 1.75818 -4.00508 0
M  V30 7799 C 758.209 2.87779 -4.40533 0
M  V30 7800 O 757.235 2.57101 -5.07826 0
M  V30 7801 N 758.437 4.16287 -4.04581 0
M  V30 7802 H 761.202 0.232505 -2.98797 0
M  V30 7803 H 758.763 -0.0199822 -1.61888 0
M  V30 7804 H 760.755 2.7635 -2.95657 0
M  V30 7805 H 759.325 2.44996 -1.94154 0
M  V30 7806 H 758.545 0.855095 -3.84814 0
M  V30 7807 H 759.833 1.55532 -4.84445 0
M  V30 7808 H 759.231 4.44061 -3.50466 0
M  V30 7809 H 757.788 4.86946 -4.33274 0
M  V30 7810 N 761.222 1.57436 0.0718424 0
M  V30 7811 C 762.47 1.86878 0.769484 0
M  V30 7812 C 762.791 0.7937 1.78116 0
M  V30 7813 O 762.061 -0.177642 1.95093 0
M  V30 7814 H 760.641 0.689593 0.287177 0
M  V30 7815 H 763.303 1.94841 0.0479427 0
M  V30 7816 H 762.399 2.84387 1.28572 0
M  V30 7817 N 762.7 -0.34323 1.53817 0
M  V30 7818 C 763.947 -1.08344 1.71079 0
M  V30 7819 C 764.275 -1.88633 0.474133 0
M  V30 7820 O 763.53 -1.87984 -0.544116 0
M  V30 7821 C 763.829 -2.05195 2.92626 0
M  V30 7822 C 763.495 -1.41215 4.28216 0
M  V30 7823 C 762.157 -1.23495 4.65083 0
M  V30 7824 C 764.509 -0.951273 5.12445 0
M  V30 7825 C 761.837 -0.583065 5.83796 0
M  V30 7826 C 764.189 -0.313292 6.31824 0
M  V30 7827 C 762.853 -0.123779 6.67385 0
M  V30 7828 H 762.123 -0.396458 0.626021 0
M  V30 7829 H 764.77 -0.362689 1.88034 0
M  V30 7830 H 763.075 -2.83653 2.70275 0
M  V30 7831 H 764.772 -2.62462 3.03175 0
M  V30 7832 H 761.362 -1.56005 3.992 0
M  V30 7833 H 765.546 -1.07602 4.84495 0
M  V30 7834 H 760.802 -0.424854 6.09922 0
M  V30 7835 H 764.976 0.0519179 6.96381 0
M  V30 7836 H 762.603 0.383398 7.59233 0
M  V30 7837 N 764.178 -1.45556 -0.604258 0
M  V30 7838 C 765.418 -1.51289 -1.37445 0
M  V30 7839 C 765.782 -0.152112 -1.91397 0
M  V30 7840 O 766.983 -0.0841419 -2.68668 0
M  V30 7841 C 765.254 -2.5646 -2.48924 0
M  V30 7842 S 766.813 -2.81442 -3.36654 0
M  V30 7843 H 763.631 -0.534774 -0.468549 0
M  V30 7844 H 766.233 -1.82657 -0.696902 0
M  V30 7845 H 764.937 -3.53995 -2.07644 0
M  V30 7846 H 764.468 -2.26753 -3.21476 0
M  V30 7847 H 766.483 -2.15074 -4.47166 0
M  V30 7848 N 765.656 0.84705 -1.32902 0
M  V30 7849 C 766.881 1.63925 -1.27056 0
M  V30 7850 C 767.306 1.87443 0.157136 0
M  V30 7851 O 766.664 1.43266 1.11106 0
M  V30 7852 C 766.712 2.97134 -2.04313 0
M  V30 7853 O 765.816 3.88049 -1.39614 0
M  V30 7854 H 765.157 0.499477 -0.437514 0
M  V30 7855 H 767.687 1.05443 -1.75336 0
M  V30 7856 H 767.697 3.46896 -2.14772 0
M  V30 7857 H 766.372 2.79339 -3.08128 0
M  V30 7858 H 764.949 3.46525 -1.3775 0
M  V30 7859 N 767.134 1.16236 1.06428 0
M  V30 7860 C 768.382 0.941171 1.78847 0
M  V30 7861 C 768.703 -0.53248 1.87589 0
M  V30 7862 O 767.973 -1.38686 1.38358 0
M  V30 7863 H 766.553 0.345228 0.66244 0
M  V30 7864 H 769.215 1.46479 1.28569 0
M  V30 7865 H 768.311 1.35871 2.80972 0
M  V30 7866 N 768.612 -1.24939 0.960631 0
M  V30 7867 C 770.023 -1.74701 0.658529 0
M  V30 7868 C 770.374 -1.77967 -0.825959 0
M  V30 7869 O 769.499 -1.40444 -1.64634 0
M  V30 7870 C 770.094 -3.17263 1.18867 0
M  V30 7871 C 768.653 -3.64561 0.936614 0
M  V30 7872 C 767.8 -2.43423 1.32817 0
M  V30 7873 H 770.751 -1.10741 1.13676 0
M  V30 7874 H 770.772 -3.76481 0.551589 0
M  V30 7875 H 770.284 -3.14854 2.26912 0
M  V30 7876 H 768.385 -3.72378 -0.128608 0
M  V30 7877 H 768.498 -4.52392 1.57729 0
M  V30 7878 H 766.862 -2.43513 0.746548 0
M  V30 7879 H 767.645 -2.437 2.41796 0
M  V30 7880 N 770.09 -0.729906 -1.39679 0
M  V30 7881 C 771.338 -0.275077 -2.00219 0
M  V30 7882 C 771.659 1.1401 -1.58199 0
M  V30 7883 O 770.929 1.77546 -0.827904 0
M  V30 7884 H 769.509 -0.0987127 -0.740449 0
M  V30 7885 H 772.171 -0.93873 -1.70804 0
M  V30 7886 H 771.267 -0.319446 -3.10461 0
M  V30 7887 N 771.568 1.50203 -0.477153 0
M  V30 7888 C 772.814 2.03286 0.0679442 0
M  V30 7889 C 773.169 1.35227 1.36863 0
M  V30 7890 O 772.462 0.471029 1.8572 0
M  V30 7891 C 772.656 3.56127 0.301325 0
M  V30 7892 C 772.485 4.38999 -0.975188 0
M  V30 7893 C 771.255 4.81889 -1.52022 0
M  V30 7894 C 773.453 4.79013 -1.8722 0
M  V30 7895 N 771.435 5.49105 -2.74513 0
M  V30 7896 C 772.806 5.45701 -2.94296 0
M  V30 7897 C 774.861 4.60967 -1.88185 0
M  V30 7898 C 773.564 5.96255 -4.02333 0
M  V30 7899 C 775.59 5.12466 -2.95183 0
M  V30 7900 C 774.952 5.79134 -4.00977 0
M  V30 7901 H 771.051 0.78185 -0.015318 0
M  V30 7902 H 773.635 1.83646 -0.64671 0
M  V30 7903 H 771.806 3.75702 0.985021 0
M  V30 7904 H 773.538 3.95859 0.841304 0
M  V30 7905 H 770.293 4.61387 -1.06858 0
M  V30 7906 H 770.717 5.87315 -3.36734 0
M  V30 7907 H 775.359 4.0885 -1.07708 0
M  V30 7908 H 773.077 6.47406 -4.83623 0
M  V30 7909 H 776.663 5.00329 -2.96921 0
M  V30 7910 H 775.543 6.18265 -4.82409 0
M  V30 7911 N 773.046 0.209999 1.56195 0
M  V30 7912 C 774.323 -0.473214 1.89789 0
M  V30 7913 C 774.703 -1.78581 1.1257 0
M  V30 7914 O 774.051 -2.27325 0.231398 0
M  V30 7915 C 774.261 -0.677458 3.42362 0
M  V30 7916 C 775.609 -0.990114 4.12895 0
M  V30 7917 O 776.633 -0.764655 3.47896 0
M  V30 7918 O 775.492 -1.41737 5.278 0
M  V30 7919 H 772.586 -0.248622 0.788743 0
M  V30 7920 H 775.132 0.251324 1.67829 0
M  V30 7921 H 773.904 0.248878 3.90508 0
M  V30 7922 H 773.527 -1.45391 3.70064 0
M  V30 7923 N 774.524 -1.57472 -0.0634922 0
M  V30 7924 C 775.935 -1.76303 -0.614337 0
M  V30 7925 C 776.286 -0.836578 -1.77471 0
M  V30 7926 O 775.411 -0.0227184 -2.16388 0
M  V30 7927 C 776.006 -3.19709 -1.12122 0
M  V30 7928 C 774.565 -3.39856 -1.61786 0
M  V30 7929 C 773.712 -2.71975 -0.540845 0
M  V30 7930 H 776.663 -1.57864 0.162702 0
M  V30 7931 H 776.684 -3.24326 -1.98979 0
M  V30 7932 H 776.196 -3.87114 -0.276472 0
M  V30 7933 H 774.297 -2.77578 -2.48558 0
M  V30 7934 H 774.41 -4.48338 -1.68908 0
M  V30 7935 H 772.774 -2.34763 -0.987854 0
M  V30 7936 H 773.557 -3.4204 0.293856 0
M  V30 7937 N 776.003 0.335068 -1.53997 0
M  V30 7938 C 777.249 1.07594 -1.71905 0
M  V30 7939 C 777.582 1.88039 -0.485264 0
M  V30 7940 O 776.857 1.87482 0.517752 0
M  V30 7941 C 777.14 2.01016 -2.98772 0
M  V30 7942 C 776.993 1.23977 -4.32377 0
M  V30 7943 C 778.312 3.0071 -3.21343 0
M  V30 7944 H 775.431 0.38976 -0.625505 0
M  V30 7945 H 778.073 0.353684 -1.86679 0
M  V30 7946 H 776.223 2.62603 -2.86307 0
M  V30 7947 H 777.895 0.649383 -4.56706 0
M  V30 7948 H 776.138 0.541878 -4.30402 0
M  V30 7949 H 776.809 1.92512 -5.17342 0
M  V30 7950 H 779.285 2.4924 -3.33194 0
M  V30 7951 H 778.161 3.63272 -4.11491 0
M  V30 7952 H 778.422 3.72549 -2.38033 0
M  V30 7953 N 777.481 1.45874 0.596531 0
M  V30 7954 C 778.709 1.54013 1.38158 0
M  V30 7955 C 779.124 0.17648 1.87973 0
M  V30 7956 O 778.481 -0.823895 1.62844 0
M  V30 7957 C 778.532 2.53363 2.57855 0
M  V30 7958 O 778.253 3.8443 2.10108 0
M  V30 7959 C 779.754 2.71308 3.50581 0
M  V30 7960 H 776.974 0.521251 0.422538 0
M  V30 7961 H 779.518 1.9116 0.726493 0
M  V30 7962 H 777.673 2.19257 3.19382 0
M  V30 7963 H 778.087 4.38384 2.87958 0
M  V30 7964 H 779.561 3.44776 4.31084 0
M  V30 7965 H 780.038 1.77728 4.01633 0
M  V30 7966 H 780.644 3.06455 2.94899 0
M  V30 7967 N 778.959 -0.83999 1.33349 0
M  V30 7968 C 780.207 -1.59202 1.24496 0
M  V30 7969 C 780.528 -1.94077 -0.189499 0
M  V30 7970 O 779.798 -1.60868 -1.11796 0
M  V30 7971 H 778.378 -0.590276 0.457802 0
M  V30 7972 H 781.04 -1.00394 1.67054 0
M  V30 7973 H 780.136 -2.52247 1.83788 0
M  V30 7974 N 780.437 -1.16799 -1.0581 0
M  V30 7975 C 781.683 -0.963929 -1.79109 0
M  V30 7976 C 782.038 0.502569 -1.8572 0
M  V30 7977 O 781.331 1.36813 -1.34137 0
M  V30 7978 C 781.525 -1.53111 -3.22942 0
M  V30 7979 C 781.354 -3.05123 -3.30348 0
M  V30 7980 C 780.124 -3.73804 -3.39998 0
M  V30 7981 C 782.322 -4.02777 -3.19805 0
M  V30 7982 N 780.304 -5.1348 -3.36469 0
M  V30 7983 C 781.675 -5.28866 -3.23576 0
M  V30 7984 C 783.73 -3.94533 -3.03724 0
M  V30 7985 C 782.433 -6.47669 -3.12918 0
M  V30 7986 C 784.459 -5.12913 -2.94405 0
M  V30 7987 C 783.821 -6.37884 -2.98803 0
M  V30 7988 H 779.92 -0.406555 -0.66801 0
M  V30 7989 H 782.504 -1.48277 -1.26183 0
M  V30 7990 H 780.675 -1.03869 -3.74254 0
M  V30 7991 H 782.407 -1.2643 -3.84444 0
M  V30 7992 H 779.162 -3.24457 -3.44999 0
M  V30 7993 H 779.586 -5.86477 -3.38191 0
M  V30 7994 H 784.228 -2.98763 -2.99166 0
M  V30 7995 H 781.946 -7.43656 -3.16231 0
M  V30 7996 H 785.532 -5.08309 -2.83042 0
M  V30 7997 H 784.412 -7.27946 -2.91657 0
M  V30 7998 N 781.915 1.24427 -0.967243 0
M  V30 7999 C 783.163 1.92107 -0.627638 0
M  V30 8000 C 783.484 1.75991 0.83978 0
M  V30 8001 O 782.754 1.13118 1.59941 0
M  V30 8002 H 781.334 0.710986 -0.229145 0
M  V30 8003 H 783.996 1.51331 -1.22821 0
M  V30 8004 H 783.092 2.99791 -0.867844 0
M  V30 8005 N 783.393 0.737304 1.3929 0
M  V30 8006 C 784.621 0.296573 2.04763 0
M  V30 8007 C 785.036 -1.06941 1.55592 0
M  V30 8008 O 784.393 -1.67619 0.721822 0
M  V30 8009 C 784.444 0.291906 3.6032 0
M  V30 8010 O 784.165 1.60397 4.07682 0
M  V30 8011 C 785.666 -0.164708 4.42994 0
M  V30 8012 H 782.886 0.129251 0.658434 0
M  V30 8013 H 785.43 1.0016 1.78293 0
M  V30 8014 H 783.585 -0.364251 3.85684 0
M  V30 8015 H 783.999 1.51909 5.0202 0
M  V30 8016 H 785.473 -0.116814 5.51876 0
M  V30 8017 H 785.95 -1.21022 4.22197 0
M  V30 8018 H 786.556 0.461968 4.22784 0
M  V30 8019 N 784.871 -1.49948 0.485112 0
M  V30 8020 C 786.282 -1.8667 0.0334041 0
M  V30 8021 C 786.633 -1.3988 -1.37579 0
M  V30 8022 O 785.758 -0.769788 -2.02245 0
M  V30 8023 C 786.353 -3.38757 0.0538426 0
M  V30 8024 C 784.912 -3.74839 -0.342453 0
M  V30 8025 C 784.059 -2.73894 0.433281 0
M  V30 8026 H 787.01 -1.42492 0.698699 0
M  V30 8027 H 787.031 -3.73132 -0.745146 0
M  V30 8028 H 786.543 -3.72782 1.07959 0
M  V30 8029 H 784.644 -3.46419 -1.37203 0
M  V30 8030 H 784.757 -4.79088 -0.0340503 0
M  V30 8031 H 783.121 -2.54441 -0.114849 0
M  V30 8032 H 783.904 -3.10763 1.45881 0
M  V30 8033 N 786.349 -0.21828 -1.56081 0
M  V30 8034 C 787.297 0.709679 -2.21509 0
M  V30 8035 C 788.291 1.20221 -1.19346 0
M  V30 8036 O 789.497 1.16241 -1.37433 0
M  V30 8037 H 785.872 0.247271 -0.710184 0
M  V30 8038 H 787.843 0.134386 -2.98097 0
M  V30 8039 C 786.592 1.90853 -2.90638 0
M  V30 8040 H 785.915 1.53865 -3.69006 0
M  V30 8041 H 787.355 2.53568 -3.39822 0
M  V30 8042 C 785.814 2.76189 -1.92929 0
M  V30 8043 O 786.344 3.74842 -1.44416 0
M  V30 8044 N 784.55 2.42157 -1.6065 0
M  V30 8045 H 784.097 1.61987 -2.00294 0
M  V30 8046 H 784.055 2.99534 -0.955347 0
M  V30 8047 N 787.827 1.57504 0.0551401 0
M  V30 8048 C 789.074 1.88055 0.751104 0
M  V30 8049 C 789.402 0.812231 1.76729 0
M  V30 8050 O 788.657 -0.189918 1.94776 0
M  V30 8051 C 788.956 3.25311 1.48013 0
M  V30 8052 C 788.622 4.46858 0.602375 0
M  V30 8053 C 787.284 4.79847 0.360536 0
M  V30 8054 C 789.636 5.212 -0.00524047 0
M  V30 8055 C 786.964 5.84582 -0.498127 0
M  V30 8056 C 789.316 6.26844 -0.851453 0
M  V30 8057 C 787.98 6.58324 -1.103 0
M  V30 8058 H 787.25 0.688142 0.274848 0
M  V30 8059 H 789.897 1.91497 0.0114795 0
M  V30 8060 H 788.202 3.17737 2.29239 0
M  V30 8061 H 789.899 3.46189 2.02371 0
M  V30 8062 H 786.489 4.21049 0.801007 0
M  V30 8063 H 790.673 4.96013 0.168682 0
M  V30 8064 H 785.929 6.07361 -0.701594 0
M  V30 8065 H 790.103 6.83603 -1.32893 0
M  V30 8066 H 787.73 7.39304 -1.77011 0
M  V30 8067 N 789.305 -0.326896 1.54172 0
M  V30 8068 C 790.716 -0.901533 1.63491 0
M  V30 8069 C 791.067 -1.88994 0.52684 0
M  V30 8070 O 790.192 -2.137 -0.340794 0
M  V30 8071 C 790.787 -1.64192 2.96355 0
M  V30 8072 C 789.346 -2.16533 3.07881 0
M  V30 8073 C 788.493 -0.98966 2.59039 0
M  V30 8074 H 791.444 -0.104568 1.58355 0
M  V30 8075 H 791.465 -2.50592 2.86328 0
M  V30 8076 H 790.977 -0.922291 3.76982 0
M  V30 8077 H 789.078 -2.91622 2.31922 0
M  V30 8078 H 789.191 -2.41762 4.13628 0
M  V30 8079 H 787.555 -1.36787 2.14852 0
M  V30 8080 H 788.338 -0.284401 3.4212 0
M  V30 8081 N 790.784 -1.46188 -0.588786 0
M  V30 8082 C 791.747 -1.55882 -1.68029 0
M  V30 8083 C 792.747 -0.436515 -1.54762 0
M  V30 8084 O 793.937 -0.700626 -1.59489 0
M  V30 8085 C 791.069 -1.47332 -3.07418 0
M  V30 8086 H 792.262 -2.5315 -1.60795 0
M  V30 8087 H 789.815 -1.33908 -0.806116 0
M  V30 8088 H 790.55 -0.513193 -3.20214 0
M  V30 8089 H 790.335 -2.28753 -3.18456 0
M  V30 8090 H 791.825 -1.57187 -3.86887 0
M  V30 8091 N 792.262 0.832906 -1.33792 0
M  V30 8092 C 793.192 1.95828 -1.27176 0
M  V30 8093 C 794.173 1.69427 -0.15114 0
M  V30 8094 O 795.358 1.91167 -0.341886 0
M  V30 8095 C 792.488 3.32098 -1.01629 0
M  V30 8096 C 791.442 3.72912 -2.10049 0
M  V30 8097 C 790.768 5.07054 -1.69706 0
M  V30 8098 C 792.068 3.86064 -3.51783 0
M  V30 8099 H 793.762 2.01622 -2.21334 0
M  V30 8100 H 791.308 0.96866 -1.0655 0
M  V30 8101 H 793.261 4.10402 -0.956474 0
M  V30 8102 H 791.985 3.26577 -0.0390956 0
M  V30 8103 H 790.644 2.96876 -2.15082 0
M  V30 8104 H 790.292 4.9801 -0.706737 0
M  V30 8105 H 789.992 5.35333 -2.42264 0
M  V30 8106 H 791.516 5.87827 -1.65202 0
M  V30 8107 H 792.93 4.54665 -3.49218 0
M  V30 8108 H 791.327 4.25787 -4.22878 0
M  V30 8109 H 792.397 2.88344 -3.89854 0
M  V30 8110 N 793.74 1.17359 1.05189 0
M  V30 8111 C 794.67 0.91365 2.14883 0
M  V30 8112 C 795.651 -0.144365 1.69486 0
M  V30 8113 O 796.836 0.00587861 1.94199 0
M  V30 8114 C 793.966 0.426196 3.44675 0
M  V30 8115 C 792.92 1.4234 4.03638 0
M  V30 8116 C 792.246 0.793902 5.28773 0
M  V30 8117 C 793.546 2.7966 4.41121 0
M  V30 8118 H 795.24 1.831 2.36885 0
M  V30 8119 H 792.786 0.881781 1.13845 0
M  V30 8120 H 794.739 0.231767 4.20762 0
M  V30 8121 H 793.463 -0.526693 3.22325 0
M  V30 8122 H 792.122 1.60457 3.2962 0
M  V30 8123 H 791.77 -0.165824 5.02727 0
M  V30 8124 H 791.47 1.45959 5.69183 0
M  V30 8125 H 792.994 0.609747 6.07548 0
M  V30 8126 H 794.408 2.6526 5.08242 0
M  V30 8127 H 792.805 3.42807 4.92548 0
M  V30 8128 H 793.875 3.34068 3.51464 0
M  V30 8129 N 795.218 -1.23913 0.973828 0
M  V30 8130 C 796.165 -2.25132 0.508366 0
M  V30 8131 C 797.135 -1.59908 -0.449307 0
M  V30 8132 O 798.32 -1.87405 -0.358313 0
M  V30 8133 C 795.46 -3.4458 -0.189422 0
M  V30 8134 C 794.573 -4.24381 0.807738 0
M  V30 8135 C 793.708 -5.31131 0.0854315 0
M  V30 8136 C 792.747 -6.02635 1.07225 0
M  V30 8137 N 791.884 -7.01073 0.379535 0
M  V30 8138 H 796.724 -2.64313 1.37632 0
M  V30 8139 H 794.261 -1.29924 0.689802 0
M  V30 8140 H 796.219 -4.12706 -0.610733 0
M  V30 8141 H 794.849 -3.06218 -1.02129 0
M  V30 8142 H 793.901 -3.55735 1.34747 0
M  V30 8143 H 795.213 -4.73778 1.55998 0
M  V30 8144 H 794.367 -6.05422 -0.393572 0
M  V30 8145 H 793.106 -4.82658 -0.699461 0
M  V30 8146 H 792.111 -5.27143 1.56207 0
M  V30 8147 H 793.336 -6.53197 1.85769 0
M  V30 8148 H 791.282 -6.54862 -0.386269 0
M  V30 8149 H 791.199 -7.48382 1.07054 0
M  V30 8150 H 792.467 -7.79462 -0.0772984 0
M  V30 8151 N 796.696 -0.74468 -1.38897 0
M  V30 8152 C 797.924 -0.307428 -2.04603 0
M  V30 8153 C 798.339 1.06115 -1.56157 0
M  V30 8154 O 797.696 1.67233 -0.730701 0
M  V30 8155 C 797.747 -0.31101 -3.6016 0
M  V30 8156 O 797.468 -1.62557 -4.06825 0
M  V30 8157 C 798.969 0.141213 -4.43075 0
M  V30 8158 H 796.189 -0.132741 -0.657739 0
M  V30 8159 H 798.733 -1.01104 -1.77759 0
M  V30 8160 H 796.888 0.343792 -3.85872 0
M  V30 8161 H 797.302 -1.54569 -5.01207 0
M  V30 8162 H 798.776 0.0875449 -5.51931 0
M  V30 8163 H 799.253 1.18782 -4.22833 0
M  V30 8164 H 799.859 -0.484383 -4.22533 0
M  V30 8165 N 798.174 1.49689 -0.493057 0
M  V30 8166 C 799.104 2.31826 0.279073 0
M  V30 8167 C 800.085 1.39733 0.969987 0
M  V30 8168 O 801.27 1.68646 0.962925 0
M  V30 8169 C 798.4 3.20046 1.34862 0
M  V30 8170 C 797.354 4.20869 0.77805 0
M  V30 8171 C 796.68 4.97971 1.94753 0
M  V30 8172 C 797.98 5.21813 -0.225543 0
M  V30 8173 H 799.674 2.96627 -0.406512 0
M  V30 8174 H 797.22 1.42647 -0.196943 0
M  V30 8175 H 799.173 3.76315 1.89645 0
M  V30 8176 H 797.897 2.53172 2.06328 0
M  V30 8177 H 796.556 3.65733 0.252036 0
M  V30 8178 H 796.204 4.27552 2.64969 0
M  V30 8179 H 795.904 5.66186 1.57187 0
M  V30 8180 H 797.428 5.57082 2.49984 0
M  V30 8181 H 798.842 5.72823 0.233864 0
M  V30 8182 H 797.239 5.97872 -0.516622 0
M  V30 8183 H 798.309 4.71209 -1.14412 0
M  V30 8184 N 799.652 0.226554 1.55963 0
M  V30 8185 C 800.582 -0.676079 2.23498 0
M  V30 8186 C 801.563 -1.19718 1.20837 0
M  V30 8187 O 802.748 -1.24027 1.49436 0
M  V30 8188 C 799.878 -1.88217 2.91876 0
M  V30 8189 C 798.832 -1.4947 4.01052 0
M  V30 8190 C 798.158 -2.77997 4.56751 0
M  V30 8191 C 799.458 -0.680951 5.17842 0
M  V30 8192 H 801.152 -0.112989 2.99187 0
M  V30 8193 H 798.698 -0.0529046 1.43903 0
M  V30 8194 H 800.651 -2.51911 3.37815 0
M  V30 8195 H 799.375 -2.47031 2.13643 0
M  V30 8196 H 798.034 -0.881199 3.55852 0
M  V30 8197 H 797.682 -3.34966 3.75243 0
M  V30 8198 H 797.382 -2.52803 5.30438 0
M  V30 8199 H 798.906 -3.42625 5.05411 0
M  V30 8200 H 800.32 -1.22171 5.60131 0
M  V30 8201 H 798.717 -0.525898 5.97791 0
M  V30 8202 H 799.787 0.311346 4.83899 0
M  V30 8203 N 801.13 -1.57531 -0.0467866 0
M  V30 8204 C 802.078 -2.06455 -1.0714 0
M  V30 8205 C 803.072 -0.974744 -1.38546 0
M  V30 8206 O 804.278 -1.15974 -1.37659 0
M  V30 8207 H 800.653 -0.658607 -0.362962 0
M  V30 8208 H 802.624 -2.91613 -0.632813 0
M  V30 8209 C 801.373 -2.54481 -2.36927 0
M  V30 8210 H 800.696 -3.37946 -2.13617 0
M  V30 8211 H 802.136 -2.92442 -3.07007 0
M  V30 8212 C 800.595 -1.43836 -3.04652 0
M  V30 8213 O 801.125 -0.794531 -3.93764 0
M  V30 8214 N 799.331 -1.17727 -2.65686 0
M  V30 8215 H 798.878 -1.70265 -1.93307 0
M  V30 8216 H 798.836 -0.439051 -3.11319 0
M  V30 8217 N 802.608 0.318715 -1.54344 0
M  V30 8218 C 804.019 0.89285 -1.63967 0
M  V30 8219 C 804.37 1.88712 -0.536855 0
M  V30 8220 O 803.495 2.13877 0.329457 0
M  V30 8221 C 804.09 1.62618 -2.97222 0
M  V30 8222 C 802.649 2.14897 -3.09025 0
M  V30 8223 C 801.796 0.975909 -2.5956 0
M  V30 8224 H 804.747 0.0961687 -1.58408 0
M  V30 8225 H 804.768 2.4907 -2.87653 0
M  V30 8226 H 804.28 0.902286 -3.77466 0
M  V30 8227 H 802.381 2.90387 -2.33465 0
M  V30 8228 H 802.494 2.39565 -4.14904 0
M  V30 8229 H 800.858 1.35646 -2.15574 0
M  V30 8230 H 801.641 0.266253 -3.42266 0
M  V30 8231 O 804.125 1.54671 0.464657 0
M  V30 8232 H 804.816 1.58115 1.1189 0
M  V30 END ATOM
M  V30 BEGIN BOND
M  V30 END BOND
M  V30 END CTAB
M  END
$$$$
