drugbank_target|P84124 Osmotically inducible protein C (DB02153)
 OpenBabel12092120243D

  0  0  0     0  0            999 V3000
M  V30 BEGIN CTAB
M  V30 COUNTS 2151 2170 0 0 0
M  V30 BEGIN ATOM
M  V30 1 H -0.908 1.98254 -0.117106 0
M  V30 2 N 0 1.576 0 0
M  V30 3 C 0.933 2.03868 1.02534 0
M  V30 4 C 1.911 0.928543 1.3348 0
M  V30 5 O 3.095 1.19667 1.45644 0
M  V30 6 C 0.222 2.43627 2.35294 0
M  V30 7 C -0.732 3.65373 2.2001 0
M  V30 8 S 0.101 5.13292 1.52614 0
M  V30 9 C 1.257 5.56322 2.86805 0
M  V30 10 H 1.49 2.90518 0.631377 0
M  V30 11 H -0.977 1.52953 0.210867 0
M  V30 12 H 0.981 2.67203 3.11629 0
M  V30 13 H -0.358 1.57376 2.7183 0
M  V30 14 H -1.165 3.90944 3.18086 0
M  V30 15 H -1.563 3.418 1.51819 0
M  V30 16 H 0.729 5.58782 3.83104 0
M  V30 17 H 1.672 6.56266 2.65933 0
M  V30 18 H 2.08 4.83886 2.90714 0
M  V30 19 N 1.4781 -0.272755 1.55222 0
M  V30 20 C 2.8891 -0.84378 1.66545 0
M  V30 21 C 3.2401 -1.87035 0.592641 0
M  V30 22 O 2.3651 -2.14761 -0.265818 0
M  V30 23 C 2.9601 -1.53723 3.01918 0
M  V30 24 C 1.5191 -2.05628 3.15268 0
M  V30 25 C 0.6661 -0.898424 2.62343 0
M  V30 26 H 3.6171 -0.0490998 1.58624 0
M  V30 27 H 3.6381 -2.40421 2.94921 0
M  V30 28 H 3.1501 -0.78983 3.79978 0
M  V30 29 H 1.2511 -2.83329 2.41983 0
M  V30 30 H 1.3641 -2.27142 4.21833 0
M  V30 31 H -0.2719 -1.29186 2.19506 0
M  V30 32 H 0.5111 -0.164528 3.42906 0
M  V30 33 N 2.9562 -1.48159 -0.537278 0
M  V30 34 C 4.2022 -1.56035 -1.29541 0
M  V30 35 C 4.5352 -0.230377 -1.92829 0
M  V30 36 O 3.8102 0.762952 -1.78911 0
M  V30 37 C 4.0932 -2.69323 -2.39034 0
M  V30 38 C 3.9462 -4.12002 -1.80485 0
M  V30 39 C 5.2652 -2.78408 -3.40847 0
M  V30 40 H 2.3842 -0.567992 -0.469632 0
M  V30 41 H 5.0262 -1.80302 -0.599277 0
M  V30 42 H 3.1762 -2.48763 -2.98412 0
M  V30 43 H 4.8482 -4.43981 -1.25215 0
M  V30 44 H 3.0912 -4.19344 -1.11055 0
M  V30 45 H 3.7622 -4.87077 -2.59731 0
M  V30 46 H 6.2382 -2.97012 -2.91416 0
M  V30 47 H 5.1142 -3.59416 -4.14863 0
M  V30 48 H 5.3752 -1.86269 -4.00944 0
M  V30 49 N 4.4343 0.785586 -1.36625 0
M  V30 50 C 5.8503 1.08419 -1.17122 0
M  V30 51 C 6.0503 2.015 0.00208491 0
M  V30 52 O 5.1063 2.43551 0.666278 0
M  V30 53 C 6.4193 1.69498 -2.48377 0
M  V30 54 C 7.9673 1.81821 -2.54775 0
M  V30 55 C 8.4423 2.46315 -3.86126 0
M  V30 56 N 9.9333 2.53779 -3.87492 0
M  V30 57 C 10.6683 3.045 -4.85868 0
M  V30 58 N 10.1643 3.55499 -5.94637 0
M  V30 59 N 11.9573 3.03247 -4.73284 0
M  V30 60 H 4.1083 0.167264 -2.1174 0
M  V30 61 H 6.3713 0.13682 -0.938075 0
M  V30 62 H 6.0773 1.08571 -3.34522 0
M  V30 63 H 5.9513 2.6896 -2.64462 0
M  V30 64 H 8.3383 2.41884 -1.69045 0
M  V30 65 H 8.4193 0.811532 -2.42586 0
M  V30 66 H 8.0633 1.86895 -4.72263 0
M  V30 67 H 7.9933 3.47561 -3.95612 0
M  V30 68 H 10.4843 2.17672 -3.08913 0
M  V30 69 H 10.7973 3.92562 -6.65669 0
M  V30 70 H 9.1423 3.5364 -5.98301 0
M  V30 71 H 12.3333 2.62696 -3.87438 0
M  V30 72 H 12.5063 3.42467 -5.50109 0
M  V30 73 N 5.9124 1.20967 1.01018 0
M  V30 74 C 6.8594 0.964281 2.09691 0
M  V30 75 C 7.8294 -0.107853 1.65749 0
M  V30 76 O 9.0144 0.0381987 1.90762 0
M  V30 77 C 6.1544 0.52943 3.41015 0
M  V30 78 C 5.2674 1.67043 3.98398 0
M  V30 79 C 4.4024 1.18525 5.17808 0
M  V30 80 C 3.4414 2.29892 5.67288 0
M  V30 81 N 2.5784 1.82546 6.77954 0
M  V30 82 H 7.4184 1.89463 2.30017 0
M  V30 83 H 4.9554 0.944289 1.1279 0
M  V30 84 H 6.9134 0.258588 4.16398 0
M  V30 85 H 5.5434 -0.363919 3.20742 0
M  V30 86 H 4.5954 2.05603 3.20049 0
M  V30 87 H 5.9074 2.50877 4.31117 0
M  V30 88 H 5.0614 0.870762 6.00419 0
M  V30 89 H 3.8004 0.316887 4.86669 0
M  V30 90 H 2.8054 2.6215 4.83278 0
M  V30 91 H 4.0304 3.17216 6.00459 0
M  V30 92 H 1.9764 0.980454 6.48632 0
M  V30 93 H 1.8934 2.59956 7.09901 0
M  V30 94 H 3.1614 1.54115 7.64113 0
M  V30 95 N 7.3905 -1.2043 1.01659 0
M  V30 96 C 8.3535 -2.21433 0.591616 0
M  V30 97 C 9.3535 -1.57203 -0.338226 0
M  V30 98 O 10.5435 -1.73737 -0.126918 0
M  V30 99 C 7.6755 -3.40628 -0.136058 0
M  V30 100 H 8.8685 -2.60545 1.48514 0
M  V30 101 H 6.4215 -1.33893 0.806379 0
M  V30 102 H 7.1565 -3.07019 -1.04449 0
M  V30 103 H 6.9415 -3.88475 0.531917 0
M  V30 104 H 8.4315 -4.15475 -0.420735 0
M  V30 105 N 8.8686 -0.792821 -1.36206 0
M  V30 106 C 9.8156 -0.191653 -2.30003 0
M  V30 107 C 10.7856 0.666453 -1.52143 0
M  V30 108 O 11.9706 0.61442 -1.80636 0
M  V30 109 C 9.1106 0.664848 -3.38635 0
M  V30 110 C 8.2236 -0.212175 -4.31479 0
M  V30 111 C 7.3586 0.651022 -5.27196 0
M  V30 112 C 6.3976 -0.227247 -6.11678 0
M  V30 113 N 5.5346 0.595127 -6.99573 0
M  V30 114 H 10.3746 -0.996978 -2.80828 0
M  V30 115 H 7.9116 -0.503206 -1.38225 0
M  V30 116 H 9.8696 1.17645 -4.00269 0
M  V30 117 H 8.4996 1.43557 -2.89122 0
M  V30 118 H 7.5516 -0.841777 -3.70969 0
M  V30 119 H 8.8636 -0.888751 -4.90818 0
M  V30 120 H 8.0176 1.2283 -5.94136 0
M  V30 121 H 6.7566 1.36121 -4.68319 0
M  V30 122 H 5.7616 -0.816904 -5.43697 0
M  V30 123 H 6.9866 -0.93509 -6.72631 0
M  V30 124 H 4.9326 1.28955 -6.432 0
M  V30 125 H 4.8496 -0.0236952 -7.55996 0
M  V30 126 H 6.1176 1.15613 -7.70879 0
M  V30 127 N 10.3467 1.47872 -0.545128 0
M  V30 128 C 11.3097 2.28337 0.198717 0
M  V30 129 C 12.3097 1.36255 0.853888 0
M  V30 130 O 13.4997 1.59003 0.711606 0
M  V30 131 C 10.6317 3.15585 1.28915 0
M  V30 132 H 11.8247 2.95567 -0.507941 0
M  V30 133 H 9.3777 1.53362 -0.301616 0
M  V30 134 H 10.1127 2.53019 2.02859 0
M  V30 135 H 9.8977 3.83337 0.824309 0
M  V30 136 H 11.3877 3.76243 1.81194 0
M  V30 137 N 11.8248 0.280983 1.55075 0
M  V30 138 C 13.0708 -0.33461 2.00021 0
M  V30 139 C 13.4038 -1.55063 1.16915 0
M  V30 140 O 12.6788 -1.93006 0.240646 0
M  V30 141 C 12.9618 -0.711007 3.53011 0
M  V30 142 C 12.8148 0.512766 4.46868 0
M  V30 143 C 14.1338 -1.54522 4.12081 0
M  V30 144 H 11.2528 -0.120147 0.727141 0
M  V30 145 H 13.8948 0.389097 1.85973 0
M  V30 146 H 12.0448 -1.32761 3.65112 0
M  V30 147 H 13.7168 1.15131 4.46702 0
M  V30 148 H 11.9598 1.14975 4.18286 0
M  V30 149 H 12.6308 0.205556 5.51617 0
M  V30 150 H 15.1068 -1.02442 4.03293 0
M  V30 151 H 13.9828 -1.77739 5.19327 0
M  V30 152 H 14.2438 -2.52813 3.62682 0
M  V30 153 N 13.3029 -1.57598 0.00835791 0
M  V30 154 C 14.5489 -1.92046 -0.670055 0
M  V30 155 C 14.9039 -0.88351 -1.70915 0
M  V30 156 O 14.1969 0.103223 -1.91322 0
M  V30 157 C 14.3909 -3.3101 -1.34787 0
M  V30 158 C 14.2199 -4.48126 -0.375945 0
M  V30 159 C 12.9899 -5.05297 0.0166914 0
M  V30 160 C 15.1879 -5.1303 0.361272 0
M  V30 161 N 13.1699 -6.05931 0.985952 0
M  V30 162 C 14.5409 -6.08571 1.18495 0
M  V30 163 C 16.5959 -4.9609 0.42421 0
M  V30 164 C 15.2989 -6.88996 2.06584 0
M  V30 165 C 17.3249 -5.77107 1.29236 0
M  V30 166 C 16.6869 -6.72248 2.10386 0
M  V30 167 H 12.7859 -0.75096 -0.218136 0
M  V30 168 H 15.3699 -1.94572 0.0706669 0
M  V30 169 H 13.5409 -3.29342 -2.05884 0
M  V30 170 H 15.2729 -3.52864 -1.98164 0
M  V30 171 H 12.0279 -4.72279 -0.353435 0
M  V30 172 H 12.4519 -6.60932 1.4662 0
M  V30 173 H 17.0939 -4.22378 -0.188915 0
M  V30 174 H 14.8119 -7.62028 2.6896 0
M  V30 175 H 18.3979 -5.66038 1.34508 0
M  V30 176 H 17.2779 -7.33846 2.76476 0
M  V30 177 N 14.781 0.264519 -1.55364 0
M  V30 178 C 15.691 1.34902 -1.91934 0
M  V30 179 C 16.707 1.53595 -0.817593 0
M  V30 180 O 17.883 1.67558 -1.11742 0
M  V30 181 C 14.948 2.68676 -2.19121 0
M  V30 182 C 14.009 2.58657 -3.4263 0
M  V30 183 C 13.242 3.86051 -3.68511 0
M  V30 184 O 13.465 4.87126 -2.96757 0
M  V30 185 O 12.399 3.85744 -4.62045 0
M  V30 186 H 16.225 1.06883 -2.8427 0
M  V30 187 H 13.81 0.463775 -1.42019 0
M  V30 188 H 15.692 3.47759 -2.37995 0
M  V30 189 H 14.367 2.96463 -1.29966 0
M  V30 190 H 13.274 1.7792 -3.29082 0
M  V30 191 H 14.607 2.35818 -4.32031 0
M  V30 192 N 16.2591 1.48442 0.529413 0
M  V30 193 C 17.5071 1.56179 1.28267 0
M  V30 194 C 17.8281 0.237721 1.93546 0
M  V30 195 O 17.0981 -0.740779 1.81354 0
M  V30 196 H 15.6781 0.575367 0.476405 0
M  V30 197 H 18.3401 1.84909 0.61602 0
M  V30 198 H 17.4361 2.34312 2.06165 0
M  V30 199 N 17.7372 -0.778329 1.37039 0
M  V30 200 C 18.9852 -1.53361 1.31623 0
M  V30 201 C 19.3062 -1.94739 -0.100831 0
M  V30 202 O 18.5762 -1.65797 -1.04347 0
M  V30 203 H 17.1562 -0.568794 0.484234 0
M  V30 204 H 19.8182 -0.926742 1.71457 0
M  V30 205 H 18.9142 -2.43606 1.95096 0
M  V30 206 N 19.2153 -1.21501 -1.00376 0
M  V30 207 C 20.1453 -0.999478 -2.11028 0
M  V30 208 C 21.1263 0.0759671 -1.6993 0
M  V30 209 O 22.3113 -0.0841106 -1.94018 0
M  V30 210 C 19.4413 -0.564709 -3.42678 0
M  V30 211 C 18.3953 -1.58486 -3.97576 0
M  V30 212 C 17.7213 -1.00628 -5.25146 0
M  V30 213 C 19.0213 -2.97204 -4.29496 0
M  V30 214 H 20.7153 -1.92495 -2.29317 0
M  V30 215 H 18.2613 -0.92693 -1.102 0
M  V30 216 H 20.2143 -0.401091 -4.19487 0
M  V30 217 H 18.9383 0.396411 -3.24185 0
M  V30 218 H 17.5973 -1.73606 -3.22888 0
M  V30 219 H 17.2453 -0.0368439 -5.02987 0
M  V30 220 H 16.9453 -1.68771 -5.62841 0
M  V30 221 H 18.4693 -0.854015 -6.04598 0
M  V30 222 H 19.8833 -2.8552 -4.97143 0
M  V30 223 H 18.2803 -3.62372 -4.78338 0
M  V30 224 H 19.3503 -3.47956 -3.3772 0
M  V30 225 N 20.6934 1.19889 -1.02296 0
M  V30 226 C 22.1094 1.41462 -0.738954 0
M  V30 227 C 22.3094 1.89721 0.678846 0
M  V30 228 O 21.3654 2.07016 1.4457 0
M  V30 229 C 22.6784 2.43083 -1.77005 0
M  V30 230 C 24.2264 2.5684 -1.78892 0
M  V30 231 C 24.7014 3.61709 -2.80945 0
M  V30 232 N 26.1924 3.69199 -2.79725 0
M  V30 233 C 26.9274 4.50019 -3.55345 0
M  V30 234 N 26.4234 5.34592 -4.40662 0
M  V30 235 N 28.2164 4.44612 -3.43914 0
M  V30 236 H 20.3674 0.868827 -1.93817 0
M  V30 237 H 22.6304 0.44399 -0.837602 0
M  V30 238 H 22.3364 2.14636 -2.78612 0
M  V30 239 H 22.2104 3.4217 -1.58744 0
M  V30 240 H 24.5974 2.84614 -0.779674 0
M  V30 241 H 24.6784 1.57927 -2.01228 0
M  V30 242 H 24.3224 3.34678 -3.82038 0
M  V30 243 H 24.2524 4.60259 -2.5587 0
M  V30 244 H 26.7434 3.08794 -2.17842 0
M  V30 245 H 27.0564 5.93363 -4.95116 0
M  V30 246 H 25.4014 5.34073 -4.44737 0
M  V30 247 H 28.5924 3.7758 -2.76679 0
M  V30 248 H 28.7654 5.0736 -4.031 0
M  V30 249 N 22.1715 0.800033 1.35784 0
M  V30 250 C 23.1035 0.163596 2.28615 0
M  V30 251 C 24.1165 -0.633317 1.49976 0
M  V30 252 O 25.3055 -0.466754 1.72289 0
M  V30 253 C 22.4055 -0.790958 3.29541 0
M  V30 254 C 21.5785 -0.0418255 4.3738 0
M  V30 255 C 20.6375 -0.91389 5.18203 0
M  V30 256 O 19.6635 -0.367234 5.68014 0
M  V30 257 N 20.8655 -2.23682 5.35674 0
M  V30 258 H 23.6305 0.96105 2.83873 0
M  V30 259 H 21.1915 0.654894 1.48063 0
M  V30 260 H 23.1835 -1.37844 3.80501 0
M  V30 261 H 21.7535 -1.48925 2.74846 0
M  V30 262 H 20.9735 0.726813 3.87442 0
M  V30 263 H 22.2615 0.474719 5.06581 0
M  V30 264 H 21.6595 -2.70497 4.96838 0
M  V30 265 H 20.2165 -2.77369 5.89839 0
M  V30 266 N 23.6496 -1.47581 0.552962 0
M  V30 267 C 24.8976 -2.02082 0.0272703 0
M  V30 268 C 25.2186 -1.4301 -1.32563 0
M  V30 269 O 24.4886 -0.603745 -1.86365 0
M  V30 270 H 23.0686 -0.746966 0.00709182 0
M  V30 271 H 25.7306 -1.81033 0.722008 0
M  V30 272 H 24.8266 -3.12034 -0.0639951 0
M  V30 273 N 25.1277 -0.289203 -1.54924 0
M  V30 274 C 26.0747 0.592115 -2.23075 0
M  V30 275 C 27.0447 1.13881 -1.20915 0
M  V30 276 O 28.2297 1.18551 -1.495 0
M  V30 277 C 25.3697 1.76376 -2.96623 0
M  V30 278 C 24.4827 1.24959 -4.13533 0
M  V30 279 C 23.6177 2.38416 -4.74691 0
M  V30 280 C 22.6567 1.84072 -5.83767 0
M  V30 281 N 21.7937 2.91057 -6.38929 0
M  V30 282 H 26.6337 0.00432038 -2.98 0
M  V30 283 H 24.1707 -0.00963529 -1.47097 0
M  V30 284 H 26.1287 2.45268 -3.3749 0
M  V30 285 H 24.7587 2.32337 -2.24097 0
M  V30 286 H 23.8107 0.453307 -3.77689 0
M  V30 287 H 25.1227 0.811662 -4.92152 0
M  V30 288 H 24.2767 3.15276 -5.18349 0
M  V30 289 H 23.0157 2.8553 -3.95378 0
M  V30 290 H 22.0207 1.05697 -5.39545 0
M  V30 291 H 23.2457 1.37877 -6.64956 0
M  V30 292 H 21.1917 3.37526 -5.62505 0
M  V30 293 H 21.1087 2.51724 -7.12861 0
M  V30 294 H 22.3767 3.6785 -6.87246 0
M  V30 295 N 26.6058 1.57591 -0.0167156 0
M  V30 296 C 27.8538 1.90906 0.663285 0
M  V30 297 C 28.1748 0.892509 1.73376 0
M  V30 298 O 27.4448 -0.0677623 1.95783 0
M  V30 299 H 26.0248 0.704637 0.247983 0
M  V30 300 H 28.6868 1.94803 -0.0615909 0
M  V30 301 H 27.7828 2.9116 1.12393 0
M  V30 302 N 28.0839 -0.256276 1.55502 0
M  V30 303 C 29.3299 -0.987079 1.77157 0
M  V30 304 C 29.6629 -1.85327 0.580315 0
M  V30 305 O 28.9379 -1.89874 -0.421686 0
M  V30 306 C 29.2209 -1.85553 3.08613 0
M  V30 307 C 29.0739 -1.01816 4.38125 0
M  V30 308 C 30.3929 -2.8397 3.36228 0
M  V30 309 H 27.5119 -0.357428 0.644526 0
M  V30 310 H 30.1539 -0.258239 1.88237 0
M  V30 311 H 28.3039 -2.47695 2.99298 0
M  V30 312 H 29.9759 -0.416159 4.59419 0
M  V30 313 H 28.2189 -0.322178 4.32602 0
M  V30 314 H 28.8899 -1.65939 5.26468 0
M  V30 315 H 31.3659 -2.31964 3.45445 0
M  V30 316 H 30.2419 -3.41864 4.29442 0
M  V30 317 H 30.5029 -3.59955 2.56681 0
M  V30 318 N 29.562 -1.4872 -0.521534 0
M  V30 319 C 30.495 -1.58451 -1.64221 0
M  V30 320 C 31.473 -0.434513 -1.56687 0
M  V30 321 O 32.657 -0.647275 -1.77038 0
M  V30 322 C 29.784 -1.52037 -3.02659 0
M  V30 323 C 28.83 -2.71981 -3.28525 0
M  V30 324 S 29.663 -4.33869 -3.13876 0
M  V30 325 C 30.819 -4.30067 -4.54745 0
M  V30 326 H 31.052 -2.53256 -1.55719 0
M  V30 327 H 28.585 -1.37358 -0.705143 0
M  V30 328 H 30.543 -1.49023 -3.82495 0
M  V30 329 H 29.204 -0.585541 -3.08594 0
M  V30 330 H 28.397 -2.63656 -4.29536 0
M  V30 331 H 27.999 -2.72302 -2.56374 0
M  V30 332 H 30.291 -4.00521 -5.46433 0
M  V30 333 H 31.234 -5.31287 -4.68123 0
M  V30 334 H 31.642 -3.60419 -4.34463 0
M  V30 335 N 31.0401 0.771051 -1.3745 0
M  V30 336 C 31.9501 1.91538 -1.35464 0
M  V30 337 C 32.9661 1.72134 -0.254123 0
M  V30 338 O 34.1421 1.95358 -0.489626 0
M  V30 339 C 31.2071 3.26671 -1.16134 0
M  V30 340 C 30.2681 3.58723 -2.35831 0
M  V30 341 C 29.5011 4.87409 -2.17413 0
M  V30 342 O 29.7241 5.58506 -1.15876 0
M  V30 343 O 28.6581 5.18539 -3.05615 0
M  V30 344 H 32.4841 1.96165 -2.31847 0
M  V30 345 H 30.0691 0.9139 -1.18187 0
M  V30 346 H 31.9511 4.07499 -1.07345 0
M  V30 347 H 30.6261 3.22894 -0.228251 0
M  V30 348 H 29.5331 2.78127 -2.50192 0
M  V30 349 H 30.8661 3.67243 -3.27709 0
M  V30 350 N 32.5182 1.22032 0.997298 0
M  V30 351 C 33.4482 1.01065 2.10495 0
M  V30 352 C 34.4292 -0.0669542 1.69968 0
M  V30 353 O 35.6142 0.0943987 1.9397 0
M  V30 354 C 32.7442 0.582874 3.42374 0
M  V30 355 C 31.6982 1.60592 3.96729 0
M  V30 356 C 31.0242 1.03412 5.24605 0
M  V30 357 C 32.3242 2.99478 4.27914 0
M  V30 358 H 34.0182 1.93708 2.28292 0
M  V30 359 H 31.5642 0.932761 1.09707 0
M  V30 360 H 33.5172 0.423332 4.19268 0
M  V30 361 H 32.2412 -0.379213 3.24391 0
M  V30 362 H 30.9002 1.75316 3.21963 0
M  V30 363 H 30.5482 0.063518 5.0296 0
M  V30 364 H 30.2482 1.71754 5.61938 0
M  V30 365 H 31.7722 0.886066 6.04137 0
M  V30 366 H 33.1862 2.88153 4.95622 0
M  V30 367 H 31.5832 3.64903 4.76409 0
M  V30 368 H 32.6532 3.49742 3.3587 0
M  V30 369 N 33.9963 -1.19345 1.0293 0
M  V30 370 C 34.9283 -2.22036 0.56857 0
M  V30 371 C 35.9413 -1.58865 -0.355779 0
M  V30 372 O 37.1303 -1.77851 -0.152103 0
M  V30 373 C 34.2303 -3.38363 -0.190752 0
M  V30 374 C 33.4033 -4.31118 0.738643 0
M  V30 375 C 32.4623 -5.26194 0.0246497 0
M  V30 376 O 31.4883 -5.65461 0.651354 0
M  V30 377 N 32.6903 -5.66971 -1.24594 0
M  V30 378 H 35.4553 -2.6219 1.45177 0
M  V30 379 H 33.0163 -1.34015 0.908381 0
M  V30 380 H 35.0083 -3.98981 -0.677961 0
M  V30 381 H 33.5783 -2.96994 -0.975366 0
M  V30 382 H 32.7983 -3.68276 1.40593 0
M  V30 383 H 34.0863 -4.90001 1.37029 0
M  V30 384 H 33.4843 -5.37104 -1.77583 0
M  V30 385 H 32.0413 -6.2984 -1.67764 0
M  V30 386 N 35.4744 -0.807222 -1.35358 0
M  V30 387 C 36.6994 -0.399309 -2.0352 0
M  V30 388 C 37.1244 0.981986 -1.60433 0
M  V30 389 O 36.4824 1.63601 -0.781299 0
M  V30 390 C 36.5304 -0.491552 -3.57234 0
M  V30 391 O 35.6344 0.494754 -4.09421 0
M  V30 392 H 34.9754 -0.166682 -0.642739 0
M  V30 393 H 37.5054 -1.09328 -1.72941 0
M  V30 394 H 37.5154 -0.361588 -4.06395 0
M  V30 395 H 36.1904 -1.49907 -3.87944 0
M  V30 396 H 34.7674 0.324977 -3.71481 0
M  V30 397 N 36.9525 1.47285 -0.560781 0
M  V30 398 C 37.8845 2.28118 0.222438 0
M  V30 399 C 38.8975 1.37219 0.876056 0
M  V30 400 O 40.0865 1.62011 0.749307 0
M  V30 401 C 37.1865 3.1159 1.33285 0
M  V30 402 C 36.3595 4.30473 0.77534 0
M  V30 403 C 35.4185 4.95513 1.77069 0
M  V30 404 O 34.4445 5.53792 1.31539 0
M  V30 405 N 35.6465 4.90531 3.10418 0
M  V30 406 H 38.4115 2.95976 -0.470958 0
M  V30 407 H 35.9725 1.56955 -0.39709 0
M  V30 408 H 37.9645 3.51967 1.99752 0
M  V30 409 H 36.5345 2.45951 1.92943 0
M  V30 410 H 35.7545 3.94144 -0.0662113 0
M  V30 411 H 37.0425 5.07362 0.382272 0
M  V30 412 H 36.4405 4.44389 3.5005 0
M  V30 413 H 34.9975 5.34917 3.72434 0
M  V30 414 N 38.4306 0.297415 1.54768 0
M  V30 415 C 39.3936 -0.567375 2.22066 0
M  V30 416 C 40.3936 -1.06409 1.20556 0
M  V30 417 O 41.5836 -0.960691 1.45315 0
M  V30 418 C 38.7156 -1.78517 2.90421 0
M  V30 419 H 39.9086 0.0205534 2.99893 0
M  V30 420 H 37.4616 0.0482163 1.56226 0
M  V30 421 H 38.1966 -2.41303 2.16664 0
M  V30 422 H 37.9816 -1.43669 3.64831 0
M  V30 423 H 39.4716 -2.39964 3.41771 0
M  V30 424 N 39.9087 -1.5758 0.0250728 0
M  V30 425 C 41.1557 -1.91633 -0.654444 0
M  V30 426 C 41.4837 -0.901103 -1.72367 0
M  V30 427 O 40.7387 0.0905647 -1.9549 0
M  V30 428 C 41.0377 -3.32421 -1.31268 0
M  V30 429 C 40.7037 -4.49344 -0.374223 0
M  V30 430 C 39.3657 -4.8106 -0.115911 0
M  V30 431 C 41.7177 -5.20498 0.270432 0
M  V30 432 C 39.0457 -5.8129 0.79493 0
M  V30 433 C 41.3977 -6.21699 1.1693 0
M  V30 434 C 40.0617 -6.51859 1.43655 0
M  V30 435 H 39.3317 -0.701236 -0.239478 0
M  V30 436 H 41.9787 -1.91307 0.0859734 0
M  V30 437 H 40.2837 -3.28989 -2.12775 0
M  V30 438 H 41.9807 -3.56038 -1.84494 0
M  V30 439 H 38.5707 -4.24579 -0.58573 0
M  V30 440 H 42.7547 -4.96229 0.0839194 0
M  V30 441 H 38.0107 -6.03005 1.00973 0
M  V30 442 H 42.1847 -6.75955 1.67504 0
M  V30 443 H 39.8117 -7.2934 2.144 0
M  V30 444 N 41.3868 0.248026 -1.55636 0
M  V30 445 C 42.3188 1.32993 -1.8667 0
M  V30 446 C 43.3318 1.44345 -0.752877 0
M  V30 447 O 44.5208 1.45715 -1.03098 0
M  V30 448 C 41.6208 2.70863 -2.03682 0
M  V30 449 C 40.7938 2.81792 -3.34532 0
M  V30 450 C 39.8528 4.005 -3.41301 0
M  V30 451 O 38.8788 3.9008 -4.14519 0
M  V30 452 N 40.0808 5.13618 -2.70512 0
M  V30 453 H 42.8458 1.06707 -2.8006 0
M  V30 454 H 40.4068 0.438129 -1.55859 0
M  V30 455 H 42.3988 3.48612 -2.05553 0
M  V30 456 H 40.9688 2.89862 -1.17041 0
M  V30 457 H 40.1888 1.90729 -3.44987 0
M  V30 458 H 41.4768 2.86043 -4.20781 0
M  V30 459 H 40.8748 5.24975 -2.10755 0
M  V30 460 H 39.4318 5.89505 -2.78077 0
M  V30 461 N 42.8649 1.48995 0.513639 0
M  V30 462 C 44.1129 1.57531 1.26604 0
M  V30 463 C 44.4339 0.258236 1.93283 0
M  V30 464 O 43.7039 -0.721502 1.8213 0
M  V30 465 H 42.2839 0.580387 0.470276 0
M  V30 466 H 44.9459 1.85552 0.596373 0
M  V30 467 H 44.0419 2.36486 2.03669 0
M  V30 468 N 44.343 -0.763751 1.37857 0
M  V30 469 C 45.754 -1.3405 1.29952 0
M  V30 470 C 46.105 -1.96138 -0.0492898 0
M  V30 471 O 45.23 -1.94372 -0.951239 0
M  V30 472 C 45.825 -2.43729 2.35333 0
M  V30 473 C 44.384 -2.97151 2.31037 0
M  V30 474 C 43.531 -1.70438 2.18738 0
M  V30 475 H 46.482 -0.563396 1.48363 0
M  V30 476 H 46.503 -3.23412 2.00462 0
M  V30 477 H 46.015 -1.9851 3.33489 0
M  V30 478 H 44.116 -3.46724 1.3643 0
M  V30 479 H 44.229 -3.52221 3.24772 0
M  V30 480 H 42.593 -1.93673 1.65418 0
M  V30 481 H 43.376 -1.27312 3.18821 0
M  V30 482 N 45.8211 -1.22559 -0.990812 0
M  V30 483 C 47.0511 -1.07623 -1.76355 0
M  V30 484 C 47.4591 0.37601 -1.85426 0
M  V30 485 O 46.8021 1.27228 -1.32509 0
M  V30 486 C 46.8641 -1.61507 -3.21179 0
M  V30 487 C 46.5281 -3.10146 -3.35646 0
M  V30 488 C 47.5251 -4.07553 -3.22796 0
M  V30 489 C 45.2101 -3.49644 -3.60631 0
M  V30 490 C 47.2041 -5.42442 -3.34716 0
M  V30 491 C 44.8911 -4.84682 -3.72192 0
M  V30 492 C 45.8891 -5.8089 -3.59243 0
M  V30 493 O 45.5771 -7.13476 -3.70415 0
M  V30 494 H 45.3091 -0.377745 -0.560611 0
M  V30 495 H 47.8631 -1.62658 -1.25425 0
M  V30 496 H 46.0931 -1.00881 -3.73309 0
M  V30 497 H 47.7821 -1.42202 -3.80175 0
M  V30 498 H 48.5481 -3.78381 -3.03403 0
M  V30 499 H 44.4271 -2.75282 -3.69785 0
M  V30 500 H 47.9711 -6.17518 -3.24526 0
M  V30 501 H 43.8681 -5.13534 -3.91092 0
M  V30 502 H 44.6361 -7.21083 -3.87275 0
M  V30 503 N 47.2992 1.18797 -1.03562 0
M  V30 504 C 48.5242 1.9314 -0.755764 0
M  V30 505 C 48.9492 1.7537 0.68022 0
M  V30 506 O 48.3072 1.06046 1.47051 0
M  V30 507 C 48.3552 3.42747 -1.12058 0
M  V30 508 O 47.4592 4.11683 -0.243124 0
M  V30 509 H 46.8002 0.602724 -0.278604 0
M  V30 510 H 49.3302 1.50678 -1.3841 0
M  V30 511 H 49.3402 3.93437 -1.08035 0
M  V30 512 H 48.0152 3.55002 -2.16672 0
M  V30 513 H 46.5922 3.71323 -0.342539 0
M  V30 514 N 48.7773 0.814389 1.34928 0
M  V30 515 C 50.0073 0.41054 2.0248 0
M  V30 516 C 50.4153 -0.985625 1.61499 0
M  V30 517 O 49.7583 -1.64781 0.811976 0
M  V30 518 C 49.8203 0.423384 3.56998 0
M  V30 519 C 49.4843 1.77141 4.21272 0
M  V30 520 C 50.4813 2.73093 4.42398 0
M  V30 521 C 48.1663 2.05755 4.58225 0
M  V30 522 C 50.1603 3.95838 4.9959 0
M  V30 523 C 47.8473 3.28762 5.1513 0
M  V30 524 C 48.8453 4.23621 5.35755 0
M  V30 525 O 48.5333 5.44456 5.91458 0
M  V30 526 H 48.2653 0.163997 0.655806 0
M  V30 527 H 50.8193 1.10155 1.73364 0
M  V30 528 H 49.0493 -0.324276 3.85338 0
M  V30 529 H 50.7383 0.0407683 4.0588 0
M  V30 530 H 51.5043 2.5228 4.14222 0
M  V30 531 H 47.3833 1.32727 4.4148 0
M  V30 532 H 50.9273 4.69891 5.15605 0
M  V30 533 H 46.8243 3.49443 5.42734 0
M  V30 534 H 47.5923 5.4586 6.09901 0
M  V30 535 N 50.2554 -1.46986 0.568584 0
M  V30 536 C 51.6664 -1.86188 0.138219 0
M  V30 537 C 52.0174 -1.47388 -1.29504 0
M  V30 538 O 51.1424 -0.88219 -1.97602 0
M  V30 539 C 51.7374 -3.3792 0.244065 0
M  V30 540 C 50.2964 -3.76171 -0.131335 0
M  V30 541 C 49.4434 -2.71027 0.586465 0
M  V30 542 H 52.3944 -1.38342 0.777645 0
M  V30 543 H 52.4154 -3.76729 -0.534351 0
M  V30 544 H 51.9274 -3.66128 1.28731 0
M  V30 545 H 50.0284 -3.5358 -1.17526 0
M  V30 546 H 50.1414 -4.78523 0.235146 0
M  V30 547 H 48.5054 -2.54684 0.0282722 0
M  V30 548 H 49.2884 -3.02077 1.63109 0
M  V30 549 N 51.7335 -0.305618 -1.54608 0
M  V30 550 C 52.9585 0.307562 -2.05107 0
M  V30 551 C 53.3835 1.46385 -1.18123 0
M  V30 552 O 52.7415 1.8034 -0.186324 0
M  V30 553 C 52.7895 0.73704 -3.52987 0
M  V30 554 O 51.8935 1.84134 -3.6901 0
M  V30 555 H 51.2345 0.0589143 -0.661381 0
M  V30 556 H 53.7645 -0.448807 -1.99617 0
M  V30 557 H 53.7745 1.02459 -3.94925 0
M  V30 558 H 52.4495 -0.108773 -4.15758 0
M  V30 559 H 51.0265 1.55398 -3.38978 0
M  V30 560 N 53.2116 1.57565 -0.0334293 0
M  V30 561 C 54.6276 1.56297 0.322997 0
M  V30 562 C 54.8276 1.03945 1.7262 0
M  V30 563 O 53.8836 0.688109 2.42943 0
M  V30 564 C 55.1966 3.00232 0.167664 0
M  V30 565 C 56.7446 3.12078 0.240107 0
M  V30 566 C 57.2196 4.57859 0.113513 0
M  V30 567 N 58.7106 4.62887 0.170359 0
M  V30 568 C 59.4456 5.73319 0.0962517 0
M  V30 569 N 58.9416 6.92794 -0.0291881 0
M  V30 570 N 60.7346 5.61898 0.150551 0
M  V30 571 H 52.8856 1.89923 -0.950956 0
M  V30 572 H 55.1486 0.873824 -0.367608 0
M  V30 573 H 54.8546 3.42501 -0.799102 0
M  V30 574 H 54.7286 3.654 0.936083 0
M  V30 575 H 57.1156 2.69718 1.19733 0
M  V30 576 H 57.1966 2.49623 -0.558763 0
M  V30 577 H 56.8406 5.009 -0.840314 0
M  V30 578 H 56.7706 5.18299 0.931302 0
M  V30 579 H 59.2616 3.76954 0.26728 0
M  V30 580 H 59.5746 7.7276 -0.0789252 0
M  V30 581 H 57.9196 6.94971 -0.0640299 0
M  V30 582 H 61.1106 4.67448 0.246981 0
M  V30 583 H 61.2836 6.47938 0.0893365 0
M  V30 584 N 54.6897 -0.239769 1.55765 0
M  V30 585 C 55.9367 -0.966801 1.7793 0
M  V30 586 C 56.2647 -1.85046 0.599015 0
M  V30 587 O 55.5197 -1.91197 -0.417395 0
M  V30 588 C 55.8187 -1.852 3.05672 0
M  V30 589 C 55.4847 -1.1231 4.36689 0
M  V30 590 C 54.1467 -0.921689 4.72291 0
M  V30 591 C 56.4987 -0.607019 5.17653 0
M  V30 592 C 53.8267 -0.191996 5.86386 0
M  V30 593 C 56.1787 0.109241 6.32506 0
M  V30 594 C 54.8427 0.322073 6.66723 0
M  V30 595 H 54.1127 -0.353778 0.651093 0
M  V30 596 H 56.7597 -0.23634 1.90036 0
M  V30 597 H 55.0647 -2.64975 2.8861 0
M  V30 598 H 56.7617 -2.41635 3.20021 0
M  V30 599 H 53.3517 -1.29004 4.08725 0
M  V30 600 H 57.5357 -0.750153 4.90598 0
M  V30 601 H 52.7917 -0.0166949 6.11398 0
M  V30 602 H 56.9657 0.516737 6.9448 0
M  V30 603 H 54.5927 0.88944 7.54979 0
M  V30 604 N 56.1678 -1.49265 -0.50573 0
M  V30 605 C 57.0778 -1.68312 -1.63427 0
M  V30 606 C 58.0938 -0.565682 -1.64548 0
M  V30 607 O 59.2698 -0.839801 -1.83055 0
M  V30 608 C 56.3348 -1.74107 -2.99813 0
M  V30 609 C 55.3958 -2.97653 -3.09356 0
M  V30 610 C 54.6288 -3.03163 -4.39236 0
M  V30 611 O 54.8518 -2.16396 -5.27758 0
M  V30 612 O 53.7858 -3.9558 -4.53652 0
M  V30 613 H 57.6118 -2.63907 -1.50289 0
M  V30 614 H 55.1968 -1.32951 -0.681502 0
M  V30 615 H 57.0788 -1.803 -3.80881 0
M  V30 616 H 55.7538 -0.816901 -3.13223 0
M  V30 617 H 54.6608 -2.96981 -2.27493 0
M  V30 618 H 55.9938 -3.89535 -3.00871 0
M  V30 619 N 57.6459 0.756429 -1.3826 0
M  V30 620 C 58.5559 1.9009 -1.37488 0
M  V30 621 C 59.5719 1.71855 -0.272366 0
M  V30 622 O 60.7479 1.94827 -0.510318 0
M  V30 623 C 57.8129 3.25421 -1.19592 0
M  V30 624 C 56.8739 3.56202 -2.39622 0
M  V30 625 C 56.1069 4.85075 -2.2257 0
M  V30 626 O 56.3299 5.57246 -1.21793 0
M  V30 627 O 55.2639 5.15269 -3.11098 0
M  V30 628 H 59.0899 1.93695 -2.33914 0
M  V30 629 H 56.6749 0.901313 -1.1915 0
M  V30 630 H 58.5569 4.06337 -1.11661 0
M  V30 631 H 57.2319 3.22634 -0.262486 0
M  V30 632 H 56.1389 2.75458 -2.53128 0
M  V30 633 H 57.4719 3.63747 -3.31586 0
M  V30 634 N 59.124 1.23083 0.984299 0
M  V30 635 C 60.372 1.05848 1.72165 0
M  V30 636 C 60.693 -0.406049 1.90726 0
M  V30 637 O 59.963 -1.29139 1.47309 0
M  V30 638 H 58.543 0.388685 0.637913 0
M  V30 639 H 61.205 1.54736 1.18503 0
M  V30 640 H 60.301 1.54327 2.71274 0
M  V30 641 N 60.6021 -1.18246 1.0419 0
M  V30 642 C 61.5121 -2.25574 0.644476 0
M  V30 643 C 62.5281 -1.70845 -0.329826 0
M  V30 644 O 63.7041 -2.00554 -0.184443 0
M  V30 645 C 60.7691 -3.46697 0.014877 0
M  V30 646 C 59.8301 -4.16554 1.03834 0
M  V30 647 C 59.0631 -5.31894 0.438692 0
M  V30 648 O 59.2861 -5.65385 -0.754752 0
M  V30 649 O 58.2201 -5.90459 1.168 0
M  V30 650 H 62.0461 -2.61836 1.53869 0
M  V30 651 H 59.6311 -1.25352 0.812854 0
M  V30 652 H 61.5131 -4.20062 -0.335538 0
M  V30 653 H 60.1881 -3.12255 -0.853138 0
M  V30 654 H 59.0951 -3.45251 1.44057 0
M  V30 655 H 60.4281 -4.54998 1.87716 0
M  V30 656 N 62.0802 -0.821533 -1.34494 0
M  V30 657 C 63.3282 -0.408139 -1.97936 0
M  V30 658 C 63.6492 1.03193 -1.65457 0
M  V30 659 O 62.9192 1.71622 -0.944595 0
M  V30 660 H 61.4992 -0.147928 -0.732206 0
M  V30 661 H 64.1612 -1.05067 -1.64155 0
M  V30 662 H 63.2572 -0.52601 -3.07635 0
M  V30 663 N 63.5583 1.46682 -0.576371 0
M  V30 664 C 64.7863 2.06798 -0.0649635 0
M  V30 665 C 65.2013 1.42612 1.23723 0
M  V30 666 O 64.5583 0.529203 1.74659 0
M  V30 667 C 64.6093 3.6132 0.114202 0
M  V30 668 O 64.3303 4.23104 -1.13644 0
M  V30 669 C 65.8313 4.38349 0.66069 0
M  V30 670 H 63.0513 0.668778 -0.0545616 0
M  V30 671 H 65.5953 1.88404 -0.795237 0
M  V30 672 H 63.7503 3.79162 0.794673 0
M  V30 673 H 64.1643 5.15894 -0.946253 0
M  V30 674 H 65.6383 5.47081 0.73526 0
M  V30 675 H 66.1153 4.05953 1.67627 0
M  V30 676 H 66.7213 4.25297 0.0152951 0
M  V30 677 N 65.0364 0.313813 1.54444 0
M  V30 678 C 65.9844 -0.572171 2.25453 0
M  V30 679 C 66.9784 -1.12657 1.2651 0
M  V30 680 O 68.1844 -1.07573 1.44319 0
M  V30 681 H 64.5594 -0.203146 0.724041 0
M  V30 682 H 66.5304 0.0491145 2.9836 0
M  V30 683 C 65.2794 -1.72626 3.0182 0
M  V30 684 H 64.6024 -1.30891 3.77767 0
M  V30 685 H 66.0424 -2.32199 3.54767 0
M  V30 686 C 64.5014 -2.63806 2.09542 0
M  V30 687 O 65.0314 -3.65256 1.67185 0
M  V30 688 N 63.2374 -2.31824 1.75232 0
M  V30 689 H 62.7844 -1.49368 2.09873 0
M  V30 690 H 62.7424 -2.93095 1.13767 0
M  V30 691 N 66.5145 -1.57545 0.0417849 0
M  V30 692 C 67.9255 -1.80011 -0.495259 0
M  V30 693 C 68.2765 -0.953199 -1.71489 0
M  V30 694 O 67.4015 -0.167138 -2.15754 0
M  V30 695 C 67.9965 -3.26482 -0.905265 0
M  V30 696 C 66.5555 -3.499 -1.38734 0
M  V30 697 C 65.7025 -2.74979 -0.358056 0
M  V30 698 H 68.6535 -1.56425 0.267736 0
M  V30 699 H 68.6745 -3.36887 -1.76882 0
M  V30 700 H 68.1865 -3.88096 -0.017401 0
M  V30 701 H 66.2875 -2.93553 -2.29471 0
M  V30 702 H 66.4005 -4.58615 -1.38598 0
M  V30 703 H 64.7645 -2.40834 -0.828912 0
M  V30 704 H 65.5475 -3.39315 0.521561 0
M  V30 705 N 67.9926 0.231505 -1.5589 0
M  V30 706 C 68.9026 1.308 -1.94752 0
M  V30 707 C 69.9186 1.51826 -0.849989 0
M  V30 708 O 71.0946 1.6515 -1.15271 0
M  V30 709 C 68.1596 2.63968 -2.24771 0
M  V30 710 C 67.2206 2.51331 -3.48039 0
M  V30 711 C 66.4536 3.78148 -3.76616 0
M  V30 712 O 66.6766 4.80722 -3.07022 0
M  V30 713 O 65.6106 3.75857 -4.70123 0
M  V30 714 H 69.4366 1.0083 -2.86474 0
M  V30 715 H 67.0216 0.433547 -1.42971 0
M  V30 716 H 68.9036 3.42633 -2.45318 0
M  V30 717 H 67.5786 2.9364 -1.36225 0
M  V30 718 H 66.4856 1.709 -3.32782 0
M  V30 719 H 67.8186 2.26601 -4.36936 0
M  V30 720 N 69.4707 1.49531 0.497807 0
M  V30 721 C 70.3807 1.69176 1.62532 0
M  V30 722 C 71.3967 0.5744 1.64246 0
M  V30 723 O 72.5727 0.849497 1.82608 0
M  V30 724 C 69.6377 1.75695 2.98885 0
M  V30 725 C 68.6987 2.9929 3.07773 0
M  V30 726 C 67.9317 3.05488 4.37622 0
M  V30 727 O 68.1547 2.19192 5.26603 0
M  V30 728 O 67.0887 3.9798 4.51548 0
M  V30 729 H 70.9147 2.647 1.48887 0
M  V30 730 H 68.4997 1.3331 0.674441 0
M  V30 731 H 70.3817 1.82317 3.79919 0
M  V30 732 H 69.0567 0.8335 3.12785 0
M  V30 733 H 67.9637 2.98183 2.25915 0
M  V30 734 H 69.2967 3.91125 2.98801 0
M  V30 735 N 70.9488 -0.749086 1.3866 0
M  V30 736 C 71.8788 -1.8764 1.38973 0
M  V30 737 C 72.8598 -1.68178 0.255004 0
M  V30 738 O 74.0448 -1.88704 0.458754 0
M  V30 739 C 71.1748 -3.25222 1.21851 0
M  V30 740 C 70.1288 -3.59295 2.32575 0
M  V30 741 C 69.4548 -4.95663 2.00555 0
M  V30 742 C 70.7548 -3.63709 3.7485 0
M  V30 743 H 72.4488 -1.87635 2.3331 0
M  V30 744 H 69.9948 -0.901329 1.12303 0
M  V30 745 H 71.9478 -4.03746 1.20695 0
M  V30 746 H 70.6718 -3.25719 0.239775 0
M  V30 747 H 69.3308 -2.83093 2.32925 0
M  V30 748 H 68.9788 -4.92724 1.01154 0
M  V30 749 H 68.6788 -5.19429 2.74714 0
M  V30 750 H 70.2028 -5.7656 2.01024 0
M  V30 751 H 71.6168 -4.32338 3.76506 0
M  V30 752 H 70.0138 -3.98986 4.48252 0
M  V30 753 H 71.0838 -2.63834 4.06841 0
M  V30 754 N 72.4269 -1.23603 -0.977757 0
M  V30 755 C 73.6759 -1.06377 -1.71368 0
M  V30 756 C 73.9889 0.399062 -1.91486 0
M  V30 757 O 75.1949 0.691312 -2.62551 0
M  V30 758 C 73.6509 -1.85512 -3.08404 0
M  V30 759 C 73.2589 -3.36141 -2.96164 0
M  V30 760 C 75.0029 -1.76783 -3.85938 0
M  V30 761 C 72.9099 -4.07659 -4.28449 0
M  V30 762 H 71.8399 -0.394452 -0.642591 0
M  V30 763 H 74.4909 -1.47594 -1.09034 0
M  V30 764 H 72.8729 -1.37103 -3.71509 0
M  V30 765 H 74.0469 -3.92056 -2.42133 0
M  V30 766 H 72.3619 -3.45712 -2.32104 0
M  V30 767 H 74.9589 -2.27526 -4.83876 0
M  V30 768 H 75.3019 -0.731116 -4.0983 0
M  V30 769 H 75.8349 -2.22818 -3.2954 0
M  V30 770 H 72.5739 -5.11648 -4.09752 0
M  V30 771 H 72.0939 -3.5653 -4.82334 0
M  V30 772 H 73.7729 -4.141 -4.97122 0
M  V30 773 N 73.905 1.17692 -1.04816 0
M  V30 774 C 74.868 2.19787 -0.650117 0
M  V30 775 C 75.868 1.58044 0.296427 0
M  V30 776 O 77.058 1.74012 0.0808097 0
M  V30 777 C 74.19 3.40869 0.0456987 0
M  V30 778 H 75.383 2.56516 -1.5537 0
M  V30 779 H 72.936 1.31708 -0.841594 0
M  V30 780 H 73.671 3.09681 0.962726 0
M  V30 781 H 73.456 3.86928 -0.634727 0
M  V30 782 H 74.946 4.16445 0.310432 0
M  V30 783 N 75.3831 0.828654 1.34056 0
M  V30 784 C 76.3461 0.259927 2.27721 0
M  V30 785 C 77.3461 -0.565478 1.50529 0
M  V30 786 O 78.5361 -0.38075 1.69988 0
M  V30 787 C 75.6681 -0.634944 3.34935 0
M  V30 788 H 76.8611 1.0863 2.79534 0
M  V30 789 H 74.4141 0.600951 1.44285 0
M  V30 790 H 75.1491 -1.48416 2.88346 0
M  V30 791 H 74.9341 -0.0444999 3.92075 0
M  V30 792 H 76.4241 -1.02648 4.04788 0
M  V30 793 N 76.8612 -1.46375 0.584142 0
M  V30 794 C 77.8242 -2.28784 -0.138108 0
M  V30 795 C 78.8242 -1.38471 -0.817462 0
M  V30 796 O 80.0142 -1.60833 -0.669199 0
M  V30 797 C 77.1462 -3.18892 -1.20503 0
M  V30 798 H 78.3392 -2.94117 0.586127 0
M  V30 799 H 75.8922 -1.52509 0.342171 0
M  V30 800 H 76.6272 -2.58309 -1.96079 0
M  V30 801 H 76.4122 -3.85388 -0.722384 0
M  V30 802 H 77.9022 -3.80914 -1.71155 0
M  V30 803 N 78.3393 -0.321999 -1.54275 0
M  V30 804 C 79.2893 0.560185 -2.21011 0
M  V30 805 C 80.2733 1.08283 -1.19011 0
M  V30 806 O 81.4653 1.02011 -1.44647 0
M  V30 807 C 78.5943 1.72137 -2.97025 0
M  V30 808 C 77.6803 1.21369 -4.06363 0
M  V30 809 N 78.0713 0.425566 -5.04007 0
M  V30 810 C 76.3693 1.49255 -4.20284 0
M  V30 811 C 77.0703 0.152601 -5.815 0
M  V30 812 N 76.0463 0.738294 -5.38563 0
M  V30 813 H 79.8483 -0.049265 -2.93859 0
M  V30 814 H 77.3623 -0.127779 -1.61897 0
M  V30 815 H 79.3593 2.36512 -3.43319 0
M  V30 816 H 78.0193 2.33431 -2.25699 0
M  V30 817 H 79.0303 0.068551 -5.17855 0
M  V30 818 H 75.7073 2.11145 -3.60172 0
M  V30 819 H 77.0973 -0.481764 -6.70171 0
M  V30 820 N 79.8174 1.5752 -0.0501392 0
M  V30 821 C 80.7804 2.1037 0.909786 0
M  V30 822 C 81.7804 1.02308 1.24056 0
M  V30 823 O 82.9704 1.28385 1.17741 0
M  V30 824 C 80.1024 2.58708 2.21998 0
M  V30 825 H 81.2954 2.96479 0.451665 0
M  V30 826 H 78.8484 1.55038 0.198248 0
M  V30 827 H 79.5834 1.75989 2.72394 0
M  V30 828 H 79.3684 3.37675 1.99295 0
M  V30 829 H 80.8584 2.99747 2.9076 0
M  V30 830 N 81.2955 -0.223234 1.56011 0
M  V30 831 C 82.5435 -0.946003 1.78592 0
M  V30 832 C 82.8645 -1.84936 0.618349 0
M  V30 833 O 82.1345 -1.92473 -0.364833 0
M  V30 834 H 80.7145 -0.352298 0.658707 0
M  V30 835 H 83.3765 -0.235494 1.93472 0
M  V30 836 H 82.4725 -1.55381 2.70672 0
M  V30 837 N 82.7736 -1.49793 -0.48987 0
M  V30 838 C 83.7366 -1.66752 -1.57246 0
M  V30 839 C 84.7366 -0.538867 -1.51502 0
M  V30 840 O 85.9266 -0.805545 -1.54456 0
M  V30 841 N 84.2517 0.741722 -1.39055 0
M  V30 842 C 85.4987 1.50114 -1.35912 0
M  V30 843 C 85.8267 1.94443 0.0470937 0
M  V30 844 O 85.0817 1.66612 1.02659 0
M  V30 845 C 85.3807 2.7592 -2.27163 0
M  V30 846 C 85.0467 2.50493 -3.74919 0
M  V30 847 C 83.7087 2.43267 -4.1518 0
M  V30 848 C 86.0607 2.28585 -4.684 0
M  V30 849 C 83.3887 2.12166 -5.46994 0
M  V30 850 C 85.7407 1.99002 -6.00484 0
M  V30 851 C 84.4047 1.90241 -6.39816 0
M  V30 852 H 83.6747 0.549306 -0.497336 0
M  V30 853 H 86.3217 0.851896 -1.71508 0
M  V30 854 H 84.6267 3.45553 -1.84663 0
M  V30 855 H 86.3237 3.33923 -2.22028 0
M  V30 856 H 82.9137 2.56992 -3.43006 0
M  V30 857 H 87.0977 2.33139 -4.38132 0
M  V30 858 H 82.3537 2.03901 -5.76398 0
M  V30 859 H 86.5277 1.81057 -6.72452 0
M  V30 860 H 84.1547 1.65907 -7.41875 0
M  V30 861 N 85.7298 1.2412 0.971189 0
M  V30 862 C 86.9548 1.10667 1.75407 0
M  V30 863 C 87.3798 -0.337048 1.85056 0
M  V30 864 O 86.7378 -1.24396 1.31892 0
M  V30 865 C 86.7858 1.74726 3.15441 0
M  V30 866 O 85.8898 1.01566 3.99697 0
M  V30 867 H 85.2308 0.387341 0.539317 0
M  V30 868 H 87.7608 1.64358 1.2185 0
M  V30 869 H 87.7708 1.80341 3.6598 0
M  V30 870 H 86.4458 2.79773 3.07734 0
M  V30 871 H 85.0228 1.03713 3.58187 0
M  V30 872 N 87.2079 -1.17134 1.05439 0
M  V30 873 C 88.1409 -2.2012 0.601855 0
M  V30 874 C 89.1189 -1.58314 -0.370854 0
M  V30 875 O 90.3029 -1.8638 -0.281882 0
M  V30 876 C 87.4299 -3.38491 -0.118868 0
M  V30 877 C 86.4759 -4.18752 0.809242 0
M  V30 878 S 87.3089 -4.83602 2.29977 0
M  V30 879 C 88.4649 -6.0536 1.59029 0
M  V30 880 H 88.6979 -2.58165 1.47438 0
M  V30 881 H 86.2309 -1.27788 0.866573 0
M  V30 882 H 88.1889 -4.07084 -0.528495 0
M  V30 883 H 86.8499 -2.98829 -0.967465 0
M  V30 884 H 86.0429 -5.03373 0.251379 0
M  V30 885 H 85.6449 -3.5561 1.15835 0
M  V30 886 H 87.9369 -6.71615 0.891017 0
M  V30 887 H 88.8799 -6.65679 2.41407 0
M  V30 888 H 89.2879 -5.54138 1.07663 0
M  V30 889 N 88.686 -0.835752 -1.33615 0
M  V30 890 C 89.649 -0.272 -2.2758 0
M  V30 891 C 90.649 0.557487 -1.50827 0
M  V30 892 O 91.839 0.37173 -1.70188 0
M  V30 893 C 88.971 0.617173 -3.35267 0
M  V30 894 H 90.164 -1.10111 -2.78954 0
M  V30 895 H 87.717 -0.608594 -1.43965 0
M  V30 896 H 88.452 1.46884 -2.89129 0
M  V30 897 H 88.237 0.0237066 -3.92093 0
M  V30 898 H 89.727 1.005 -4.05326 0
M  V30 899 N 90.1641 1.46063 -0.591896 0
M  V30 900 C 91.0941 2.33172 0.123673 0
M  V30 901 C 92.0751 1.45897 0.87453 0
M  V30 902 O 93.2601 1.74698 0.848181 0
M  V30 903 C 90.3901 3.28336 1.13194 0
M  V30 904 C 89.3441 4.25124 0.495324 0
M  V30 905 C 88.6701 5.09863 1.61071 0
M  V30 906 C 89.9701 5.19143 -0.573425 0
M  V30 907 H 91.6641 2.93252 -0.603646 0
M  V30 908 H 89.2101 1.41014 -0.291741 0
M  V30 909 H 91.1631 3.88137 1.64097 0
M  V30 910 H 89.8871 2.66383 1.88965 0
M  V30 911 H 88.5461 3.66599 0.00729452 0
M  V30 912 H 88.1941 4.44288 2.35832 0
M  V30 913 H 87.8941 5.75417 1.19035 0
M  V30 914 H 89.4181 5.72529 2.12233 0
M  V30 915 H 90.8321 5.73106 -0.1491 0
M  V30 916 H 89.2291 5.93089 -0.914636 0
M  V30 917 H 90.2991 4.62519 -1.45617 0
M  V30 918 N 91.6422 0.330177 1.54103 0
M  V30 919 C 92.6052 -0.520144 2.2322 0
M  V30 920 C 93.6052 -1.03828 1.22786 0
M  V30 921 O 94.7952 -0.929652 1.4732 0
M  V30 922 C 91.9272 -1.72317 2.94142 0
M  V30 923 H 93.1202 0.0841605 2.99782 0
M  V30 924 H 90.6732 0.0813433 1.56088 0
M  V30 925 H 91.4082 -2.36653 2.21734 0
M  V30 926 H 91.1932 -1.35898 3.67796 0
M  V30 927 H 92.6832 -2.3266 3.46784 0
M  V30 928 N 93.1203 -1.57491 0.0584922 0
M  V30 929 C 94.0833 -2.1085 -0.898617 0
M  V30 930 C 95.0833 -1.02964 -1.23511 0
M  V30 931 O 96.2733 -1.29007 -1.17059 0
M  V30 932 C 93.4053 -2.59881 -2.20623 0
M  V30 933 H 94.5983 -2.96715 -0.435936 0
M  V30 934 H 92.1513 -1.55141 -0.190023 0
M  V30 935 H 92.8863 -1.77431 -2.71457 0
M  V30 936 H 92.6713 -3.38727 -1.97501 0
M  V30 937 H 94.1613 -3.01285 -2.89166 0
M  V30 938 N 94.5984 0.214957 -1.56127 0
M  V30 939 C 95.8234 0.95924 -1.83884 0
M  V30 940 C 96.2484 1.7689 -0.639644 0
M  V30 941 O 95.6064 1.76566 0.411601 0
M  V30 942 C 95.6544 1.84723 -3.09693 0
M  V30 943 O 94.7584 2.94346 -2.8885 0
M  V30 944 H 94.0994 0.27125 -0.606069 0
M  V30 945 H 96.6294 0.226276 -2.03345 0
M  V30 946 H 96.6394 2.25576 -3.39969 0
M  V30 947 H 95.3144 1.25218 -3.96602 0
M  V30 948 H 93.8914 2.57391 -2.69823 0
M  V30 949 N 96.0765 1.50051 0.48192 0
M  V30 950 C 97.0065 1.71046 1.58951 0
M  V30 951 C 97.9875 0.559288 1.60642 0
M  V30 952 O 99.1725 0.797243 1.77081 0
M  V30 953 C 96.3025 1.79462 2.97339 0
M  V30 954 C 95.2565 2.94558 3.10515 0
M  V30 955 C 94.5825 2.88105 4.50444 0
M  V30 956 C 95.8825 4.35227 2.88747 0
M  V30 957 H 97.5765 2.6378 1.41635 0
M  V30 958 H 95.1225 1.26936 0.679942 0
M  V30 959 H 97.0755 1.92734 3.74742 0
M  V30 960 H 95.7995 0.833412 3.15788 0
M  V30 961 H 94.4585 2.80918 2.35543 0
M  V30 962 H 94.1065 1.89853 4.65795 0
M  V30 963 H 93.8065 3.65366 4.60197 0
M  V30 964 H 95.3305 3.03412 5.29881 0
M  V30 965 H 96.7445 4.49449 3.55905 0
M  V30 966 H 95.1415 5.13856 3.09955 0
M  V30 967 H 96.2115 4.48347 1.84696 0
M  V30 968 N 97.5546 -0.734337 1.39446 0
M  V30 969 C 98.4646 -1.87879 1.40495 0
M  V30 970 C 99.4806 -1.714 0.299672 0
M  V30 971 O 100.657 -1.93991 0.541249 0
M  V30 972 C 97.7216 -3.23477 1.24754 0
M  V30 973 C 96.7826 -3.52344 2.45259 0
M  V30 974 C 96.0156 -4.81473 2.30259 0
M  V30 975 O 96.2386 -5.55237 1.30643 0
M  V30 976 O 95.1726 -5.10254 3.19256 0
M  V30 977 H 98.9986 -1.89949 2.36966 0
M  V30 978 H 96.5836 -0.882243 1.20569 0
M  V30 979 H 98.4656 -4.04509 1.18111 0
M  V30 980 H 97.1406 -3.22176 0.313781 0
M  V30 981 H 96.0476 -2.71396 2.57478 0
M  V30 982 H 97.3806 -3.58426 3.37331 0
M  V30 983 N 99.0327 -1.24633 -0.964593 0
M  V30 984 C 100.449 -1.01239 -1.2338 0
M  V30 985 C 100.649 0.2769 -1.99588 0
M  V30 986 O 99.7047 0.992241 -2.32187 0
M  V30 987 C 101.018 -2.22937 -2.01791 0
M  V30 988 C 102.566 -2.27594 -2.14872 0
M  V30 989 C 103.041 -3.48921 -2.96678 0
M  V30 990 N 104.532 -3.49257 -3.04259 0
M  V30 991 C 105.267 -4.39795 -3.67924 0
M  V30 992 N 104.763 -5.40591 -4.33281 0
M  V30 993 N 106.556 -4.275 -3.64966 0
M  V30 994 H 98.7067 -2.0748 -0.454502 0
M  V30 995 H 100.97 -0.910647 -0.26349 0
M  V30 996 H 100.676 -3.16587 -1.53184 0
M  V30 997 H 100.55 -2.25306 -3.02518 0
M  V30 998 H 102.937 -1.34473 -2.6268 0
M  V30 999 H 103.018 -2.2925 -1.13482 0
M  V30 1000 H 102.662 -4.42359 -2.49562 0
M  V30 1001 H 102.592 -3.4451 -3.98272 0
M  V30 1002 H 105.083 -2.76337 -2.57771 0
M  V30 1003 H 105.396 -6.05904 -4.79687 0
M  V30 1004 H 103.741 -5.44475 -4.3194 0
M  V30 1005 H 106.932 -3.47987 -3.13086 0
M  V30 1006 H 107.105 -4.98258 -4.14298 0
M  V30 1007 N 100.511 1.16574 -1.06058 0
M  V30 1008 C 101.421 2.2452 -0.680282 0
M  V30 1009 C 102.437 1.71348 0.302604 0
M  V30 1010 O 103.613 2.00822 0.152513 0
M  V30 1011 C 100.678 3.46629 -0.0700315 0
M  V30 1012 C 99.7388 4.14849 -1.10448 0
M  V30 1013 C 98.9718 5.31129 -0.523256 0
M  V30 1014 O 99.1948 5.66514 0.664709 0
M  V30 1015 O 98.1288 5.88526 -1.26179 0
M  V30 1016 H 101.955 2.59355 -1.58015 0
M  V30 1017 H 99.5398 1.24043 -0.832694 0
M  V30 1018 H 101.422 4.20543 0.268667 0
M  V30 1019 H 100.097 3.13573 0.803353 0
M  V30 1020 H 99.0038 3.42916 -1.49532 0
M  V30 1021 H 100.337 4.51954 -1.94931 0
M  V30 1022 N 101.989 0.842826 1.3317 0
M  V30 1023 C 103.237 0.439577 1.97262 0
M  V30 1024 C 103.558 -1.00548 1.67078 0
M  V30 1025 O 102.828 -1.70098 0.971779 0
M  V30 1026 H 101.408 0.159558 0.72976 0
M  V30 1027 H 104.07 1.07665 1.62463 0
M  V30 1028 H 103.166 0.574886 3.0676 0
M  V30 1029 N 103.467 -1.45747 0.599634 0
M  V30 1030 C 104.714 -2.02292 0.0917284 0
M  V30 1031 C 105.042 -1.46906 -1.27472 0
M  V30 1032 O 104.297 -0.630652 -1.8526 0
M  V30 1033 C 104.596 -3.57399 -0.00602758 0
M  V30 1034 C 104.262 -4.31902 1.29503 0
M  V30 1035 C 102.924 -4.51974 1.65144 0
M  V30 1036 C 105.276 -4.74551 2.15525 0
M  V30 1037 C 102.604 -5.11949 2.86574 0
M  V30 1038 C 104.956 -5.35868 3.36196 0
M  V30 1039 C 103.62 -5.54165 3.72099 0
M  V30 1040 H 102.89 -0.740239 0.0335658 0
M  V30 1041 H 105.537 -1.7491 0.779661 0
M  V30 1042 H 103.842 -3.84014 -0.777183 0
M  V30 1043 H 105.539 -3.98846 -0.415038 0
M  V30 1044 H 102.129 -4.16588 1.00761 0
M  V30 1045 H 106.313 -4.58784 1.8929 0
M  V30 1046 H 101.569 -5.24305 3.14507 0
M  V30 1047 H 105.743 -5.6787 4.03109 0
M  V30 1048 H 103.37 -6.00406 4.6628 0
M  V30 1049 N 104.945 -0.338344 -1.53925 0
M  V30 1050 C 106.356 0.146651 -1.86123 0
M  V30 1051 C 106.707 1.5042 -1.2597 0
M  V30 1052 O 105.832 2.08723 -0.571294 0
M  V30 1053 C 106.427 0.272879 -3.37699 0
M  V30 1054 C 104.986 0.702103 -3.69794 0
M  V30 1055 C 104.133 -0.167304 -2.76795 0
M  V30 1056 H 107.084 -0.558123 -1.48562 0
M  V30 1057 H 107.105 1.10128 -3.64214 0
M  V30 1058 H 106.617 -0.715307 -3.81451 0
M  V30 1059 H 104.718 1.6995 -3.31584 0
M  V30 1060 H 104.831 0.495604 -4.7653 0
M  V30 1061 H 103.195 0.359527 -2.5215 0
M  V30 1062 H 103.978 -1.15253 -3.23375 0
M  V30 1063 N 106.423 1.57458 -0.0668435 0
M  V30 1064 C 107.834 1.80776 0.466558 0
M  V30 1065 C 108.185 0.980361 1.69951 0
M  V30 1066 O 107.31 0.201441 2.1546 0
M  V30 1067 C 107.905 3.27881 0.85321 0
M  V30 1068 C 106.464 3.52062 1.3315 0
M  V30 1069 C 105.611 2.75513 0.314264 0
M  V30 1070 H 108.562 1.5598 -0.292588 0
M  V30 1071 H 108.583 3.39659 1.715 0
M  V30 1072 H 108.095 3.88075 -0.0443439 0
M  V30 1073 H 106.196 2.97167 2.24772 0
M  V30 1074 H 106.309 4.60762 1.31285 0
M  V30 1075 H 104.673 2.42123 0.790492 0
M  V30 1076 H 105.456 3.38442 -0.575477 0
M  V30 1077 N 107.901 -0.206675 1.56239 0
M  V30 1078 C 108.848 -1.25617 1.93621 0
M  V30 1079 C 109.818 -1.45824 0.795274 0
M  V30 1080 O 111.003 -1.59148 1.05245 0
M  V30 1081 C 108.143 -2.59839 2.27107 0
M  V30 1082 C 107.256 -2.47308 3.54207 0
M  V30 1083 C 106.391 -3.74155 3.7707 0
M  V30 1084 C 105.43 -3.56407 4.97635 0
M  V30 1085 N 104.567 -4.75238 5.1681 0
M  V30 1086 H 109.407 -0.930383 2.83104 0
M  V30 1087 H 106.944 -0.448065 1.4011 0
M  V30 1088 H 108.902 -3.38021 2.44535 0
M  V30 1089 H 107.532 -2.90485 1.40778 0
M  V30 1090 H 106.584 -1.60483 3.4489 0
M  V30 1091 H 107.896 -2.30122 4.42544 0
M  V30 1092 H 107.05 -4.60778 3.94675 0
M  V30 1093 H 105.789 -3.94282 2.87042 0
M  V30 1094 H 104.794 -2.68168 4.79964 0
M  V30 1095 H 106.019 -3.37736 5.89161 0
M  V30 1096 H 103.965 -4.95651 4.29728 0
M  V30 1097 H 103.882 -4.60835 5.99306 0
M  V30 1098 H 105.15 -5.63246 5.38864 0
M  V30 1099 N 109.379 -1.50304 -0.473955 0
M  V30 1100 C 110.795 -1.37667 -0.807466 0
M  V30 1101 C 110.995 -0.430555 -1.96846 0
M  V30 1102 O 110.051 0.127874 -2.52176 0
M  V30 1103 C 111.364 -2.78974 -1.12223 0
M  V30 1104 C 112.912 -2.87868 -1.22885 0
M  V30 1105 C 113.387 -4.30003 -1.57676 0
M  V30 1106 N 114.878 -4.3294 -1.64673 0
M  V30 1107 C 115.613 -5.3991 -1.93091 0
M  V30 1108 N 115.109 -6.57092 -2.1955 0
M  V30 1109 N 116.902 -5.27351 -1.94569 0
M  V30 1110 H 109.053 -2.10394 0.291212 0
M  V30 1111 H 111.316 -0.945575 0.0677609 0
M  V30 1112 H 111.022 -3.50031 -0.342229 0
M  V30 1113 H 110.896 -3.16038 -2.05913 0
M  V30 1114 H 113.283 -2.17032 -1.99953 0
M  V30 1115 H 113.364 -2.54352 -0.271814 0
M  V30 1116 H 113.008 -5.01375 -0.81149 0
M  V30 1117 H 112.938 -4.61004 -2.54525 0
M  V30 1118 H 115.429 -3.48441 -1.46277 0
M  V30 1119 H 115.742 -7.34425 -2.405 0
M  V30 1120 H 114.087 -6.60272 -2.16948 0
M  V30 1121 H 117.278 -4.34801 -1.73394 0
M  V30 1122 H 117.451 -6.10805 -2.16381 0
M  V30 1123 N 110.857 0.726932 -1.39834 0
M  V30 1124 C 112.103 1.48884 -1.377 0
M  V30 1125 C 112.436 1.94185 0.0244852 0
M  V30 1126 O 111.711 1.67361 0.990986 0
M  V30 1127 C 111.994 2.72288 -2.3565 0
M  V30 1128 C 111.847 2.32956 -3.84775 0
M  V30 1129 C 113.166 3.74414 -2.31306 0
M  V30 1130 H 110.285 0.540062 -0.5015 0
M  V30 1131 H 112.927 0.830547 -1.70886 0
M  V30 1132 H 111.077 3.28457 -2.07481 0
M  V30 1133 H 112.749 1.82356 -4.23726 0
M  V30 1134 H 110.992 1.65088 -4.01159 0
M  V30 1135 H 111.663 3.21362 -4.4881 0
M  V30 1136 H 114.139 3.27849 -2.56231 0
M  V30 1137 H 113.015 4.58414 -3.01907 0
M  V30 1138 H 113.276 4.21909 -1.32081 0
M  V30 1139 N 112.336 1.25143 0.95797 0
M  V30 1140 C 113.561 1.12521 1.74223 0
M  V30 1141 C 113.986 -0.317402 1.85403 0
M  V30 1142 O 113.344 -1.2299 1.33204 0
M  V30 1143 C 113.392 1.78062 3.1357 0
M  V30 1144 O 112.496 1.058 3.98598 0
M  V30 1145 H 111.837 0.39304 0.535178 0
M  V30 1146 H 114.367 1.65641 1.201 0
M  V30 1147 H 114.377 1.84213 3.64046 0
M  V30 1148 H 113.052 2.83021 3.04749 0
M  V30 1149 H 111.629 1.07506 3.57067 0
M  V30 1150 N 113.814 -1.1601 1.06675 0
M  V30 1151 C 115.042 -1.90527 0.806667 0
M  V30 1152 C 115.457 -1.77643 -0.639396 0
M  V30 1153 O 114.814 -1.12369 -1.43803 0
M  V30 1154 C 114.865 -3.41106 1.19705 0
M  V30 1155 O 114.586 -3.53608 2.58636 0
M  V30 1156 C 116.087 -4.32663 0.965266 0
M  V30 1157 H 113.307 -0.604053 0.292166 0
M  V30 1158 H 115.851 -1.47026 1.4214 0
M  V30 1159 H 114.006 -3.82296 0.626774 0
M  V30 1160 H 114.42 -4.47011 2.74375 0
M  V30 1161 H 115.894 -5.36763 1.288 0
M  V30 1162 H 116.371 -4.39089 -0.0987936 0
M  V30 1163 H 116.977 -3.97206 1.52011 0
M  V30 1164 N 115.292 -0.849877 -1.32721 0
M  V30 1165 C 116.202 -0.293791 -2.32753 0
M  V30 1166 C 117.218 0.585906 -1.63839 0
M  V30 1167 O 118.394 0.487413 -1.95413 0
M  V30 1168 C 115.459 0.512752 -3.42887 0
M  V30 1169 C 114.52 -0.39252 -4.27502 0
M  V30 1170 C 113.753 0.375625 -5.32377 0
M  V30 1171 O 113.976 1.60613 -5.4732 0
M  V30 1172 O 112.91 -0.256094 -6.01355 0
M  V30 1173 H 116.736 -1.12242 -2.82197 0
M  V30 1174 H 114.321 -0.612685 -1.36259 0
M  V30 1175 H 116.203 0.970704 -4.10067 0
M  V30 1176 H 114.878 1.31826 -2.95641 0
M  V30 1177 H 113.785 -0.898547 -3.63149 0
M  V30 1178 H 115.118 -1.16309 -4.7826 0
M  V30 1179 N 116.77 1.45427 -0.607355 0
M  V30 1180 C 117.733 2.28974 0.101693 0
M  V30 1181 C 118.733 1.39754 0.795329 0
M  V30 1182 O 119.923 1.61878 0.643527 0
M  V30 1183 C 117.055 3.20768 1.15414 0
M  V30 1184 H 118.248 2.93147 -0.632844 0
M  V30 1185 H 115.801 1.51945 -0.366391 0
M  V30 1186 H 116.536 2.61395 1.91945 0
M  V30 1187 H 116.321 3.86489 0.66098 0
M  V30 1188 H 117.811 3.83589 1.65073 0
M  V30 1189 N 118.248 0.346503 1.53744 0
M  V30 1190 C 119.664 -0.00530975 1.59599 0
M  V30 1191 C 119.864 -1.48465 1.36236 0
M  V30 1192 O 118.92 -2.24376 1.15808 0
M  V30 1193 C 120.233 0.433516 2.97559 0
M  V30 1194 C 121.781 0.386111 3.10609 0
M  V30 1195 C 122.256 0.800451 4.50951 0
M  V30 1196 N 123.747 0.754753 4.5701 0
M  V30 1197 C 124.482 1.04727 5.63755 0
M  V30 1198 N 123.978 1.4081 6.7834 0
M  V30 1199 N 125.771 0.971316 5.53644 0
M  V30 1200 H 117.922 1.31009 1.67184 0
M  V30 1201 H 120.185 0.534242 0.783128 0
M  V30 1202 H 119.891 1.46509 3.19731 0
M  V30 1203 H 119.765 -0.189753 3.76722 0
M  V30 1204 H 122.152 -0.636295 2.88158 0
M  V30 1205 H 122.233 1.04462 2.33498 0
M  V30 1206 H 121.877 1.82088 4.74137 0
M  V30 1207 H 121.807 0.119386 5.26465 0
M  V30 1208 H 124.298 0.488662 3.74727 0
M  V30 1209 H 124.611 1.61607 7.55714 0
M  V30 1210 H 122.956 1.44657 6.79779 0
M  V30 1211 H 126.147 0.688748 4.63005 0
M  V30 1212 H 126.32 1.20263 6.36742 0
M  V30 1213 N 119.726 -1.57421 0.075193 0
M  V30 1214 C 120.972 -1.93905 -0.594025 0
M  V30 1215 C 121.305 -0.955701 -1.69056 0
M  V30 1216 O 120.58 0.0145373 -1.94495 0
M  V30 1217 C 120.863 -3.40638 -1.1678 0
M  V30 1218 C 120.716 -4.49733 -0.0776792 0
M  V30 1219 C 122.035 -3.88259 -2.07228 0
M  V30 1220 H 119.154 -0.705105 -0.214466 0
M  V30 1221 H 121.796 -1.8947 0.141854 0
M  V30 1222 H 119.946 -3.44549 -1.79494 0
M  V30 1223 H 121.618 -4.57942 0.555573 0
M  V30 1224 H 119.861 -4.29751 0.591286 0
M  V30 1225 H 120.532 -5.49549 -0.519603 0
M  V30 1226 H 123.008 -3.86376 -1.54445 0
M  V30 1227 H 121.884 -4.91533 -2.44308 0
M  V30 1228 H 122.145 -3.26396 -2.98191 0
M  V30 1229 N 121.204 0.198386 -1.56346 0
M  V30 1230 C 122.154 1.2499 -1.90687 0
M  V30 1231 C 123.138 1.41158 -0.772217 0
M  V30 1232 O 124.33 1.43584 -1.03502 0
M  V30 1233 C 121.459 2.59542 -2.24706 0
M  V30 1234 C 120.545 2.47181 -3.44619 0
M  V30 1235 N 120.936 2.04495 -4.62618 0
M  V30 1236 C 119.234 2.78082 -3.48692 0
M  V30 1237 C 119.935 2.03945 -5.44776 0
M  V30 1238 N 118.911 2.45323 -4.85095 0
M  V30 1239 H 122.713 0.911149 -2.7942 0
M  V30 1240 H 120.227 0.40684 -1.57221 0
M  V30 1241 H 122.224 3.3549 -2.47491 0
M  V30 1242 H 120.884 2.94244 -1.37298 0
M  V30 1243 H 121.895 1.75256 -4.87345 0
M  V30 1244 H 118.572 3.17002 -2.71691 0
M  V30 1245 H 119.962 1.72872 -6.4928 0
M  V30 1246 N 122.682 1.50554 0.465978 0
M  V30 1247 C 123.612 1.72722 1.57128 0
M  V30 1248 C 124.593 0.576294 1.6004 0
M  V30 1249 O 125.778 0.81598 1.76225 0
M  V30 1250 C 122.908 1.82605 2.95419 0
M  V30 1251 C 121.862 2.97835 3.07373 0
M  V30 1252 C 121.188 2.92867 4.47363 0
M  V30 1253 C 122.488 4.38265 2.84114 0
M  V30 1254 H 124.182 2.65267 1.38829 0
M  V30 1255 H 121.728 1.2765 0.666441 0
M  V30 1256 H 123.681 1.96698 3.72677 0
M  V30 1257 H 122.405 0.866858 3.14886 0
M  V30 1258 H 121.064 2.83401 2.3255 0
M  V30 1259 H 120.712 1.94783 4.63755 0
M  V30 1260 H 120.412 3.70227 4.56296 0
M  V30 1261 H 121.936 3.09015 5.26633 0
M  V30 1262 H 123.35 4.53198 3.51118 0
M  V30 1263 H 121.747 5.17115 3.04487 0
M  V30 1264 H 122.817 4.50281 1.7993 0
M  V30 1265 N 124.16 -0.719506 1.40217 0
M  V30 1266 C 125.07 -1.86378 1.42479 0
M  V30 1267 C 126.086 -1.71073 0.317834 0
M  V30 1268 O 127.262 -1.93406 0.561794 0
M  V30 1269 C 124.327 -3.22136 1.28178 0
M  V30 1270 C 123.388 -3.49723 2.48982 0
M  V30 1271 C 122.621 -4.79004 2.35353 0
M  V30 1272 O 122.844 -5.53821 1.36524 0
M  V30 1273 O 121.778 -5.06839 3.2465 0
M  V30 1274 H 125.604 -1.87425 2.38968 0
M  V30 1275 H 123.189 -0.869405 1.21498 0
M  V30 1276 H 125.071 -4.03234 1.22395 0
M  V30 1277 H 123.746 -3.21825 0.347934 0
M  V30 1278 H 122.653 -2.6865 2.60342 0
M  V30 1279 H 123.986 -3.54828 3.41113 0
M  V30 1280 N 125.638 -1.25649 -0.95132 0
M  V30 1281 C 126.884 -1.10757 -1.69884 0
M  V30 1282 C 127.217 0.350061 -1.91019 0
M  V30 1283 O 126.492 1.25783 -1.48354 0
M  V30 1284 C 126.775 -1.86606 -3.07978 0
M  V30 1285 C 126.628 -3.40217 -2.94232 0
M  V30 1286 C 127.947 -1.65182 -4.07925 0
M  V30 1287 H 125.066 -0.40374 -0.616574 0
M  V30 1288 H 127.708 -1.54521 -1.10558 0
M  V30 1289 H 125.858 -1.49409 -3.58621 0
M  V30 1290 H 127.53 -3.87108 -2.50889 0
M  V30 1291 H 125.773 -3.67759 -2.30078 0
M  V30 1292 H 126.444 -3.88505 -3.92133 0
M  V30 1293 H 128.92 -1.9757 -3.66204 0
M  V30 1294 H 127.796 -2.20683 -5.02583 0
M  V30 1295 H 128.057 -0.593933 -4.38092 0
M  V30 1296 N 127.117 1.15442 -1.07289 0
M  V30 1297 C 128.363 1.86489 -0.796846 0
M  V30 1298 C 128.696 1.82078 0.675371 0
M  V30 1299 O 127.971 1.24346 1.4956 0
M  V30 1300 C 128.254 3.35626 -1.30489 0
M  V30 1301 C 128.107 3.48673 -2.84161 0
M  V30 1302 C 129.426 4.30357 -0.920907 0
M  V30 1303 H 126.545 0.677144 -0.290939 0
M  V30 1304 H 129.187 1.35633 -1.33056 0
M  V30 1305 H 127.337 3.79068 -0.850883 0
M  V30 1306 H 129.009 3.14099 -3.37846 0
M  V30 1307 H 127.252 2.90253 -3.22391 0
M  V30 1308 H 127.923 4.53453 -3.14777 0
M  V30 1309 H 130.399 3.94871 -1.3121 0
M  V30 1310 H 129.275 5.33193 -1.30372 0
M  V30 1311 H 129.536 4.4176 0.173226 0
M  V30 1312 N 128.595 0.856903 1.32268 0
M  V30 1313 C 129.872 0.382583 1.91822 0
M  V30 1314 C 130.252 -1.13407 1.78051 0
M  V30 1315 O 129.6 -1.95673 1.18001 0
M  V30 1316 C 129.81 0.849446 3.38505 0
M  V30 1317 C 131.158 0.867936 4.15634 0
M  V30 1318 O 132.182 0.794232 3.47232 0
M  V30 1319 O 131.041 0.972286 5.37781 0
M  V30 1320 H 128.135 0.112014 0.819379 0
M  V30 1321 H 130.681 0.943952 1.41024 0
M  V30 1322 H 129.453 1.89267 3.42482 0
M  V30 1323 H 129.076 0.265652 3.96712 0
M  V30 1324 N 130.073 -1.45103 0.615059 0
M  V30 1325 C 131.321 -2.01784 0.112955 0
M  V30 1326 C 131.642 -1.48504 -1.26378 0
M  V30 1327 O 130.912 -0.682245 -1.83636 0
M  V30 1328 H 129.492 -0.745993 0.0387668 0
M  V30 1329 H 132.154 -1.77808 0.798141 0
M  V30 1330 H 131.25 -3.12025 0.0684069 0
M  V30 1331 N 131.551 -0.354651 -1.53558 0
M  V30 1332 C 132.498 0.496968 -2.25386 0
M  V30 1333 C 133.468 1.0865 -1.25636 0
M  V30 1334 O 134.653 1.12104 -1.54394 0
M  V30 1335 C 131.793 1.63637 -3.03837 0
M  V30 1336 C 130.906 1.07307 -4.18461 0
M  V30 1337 C 130.041 2.18068 -4.84376 0
M  V30 1338 C 129.08 1.59147 -5.91049 0
M  V30 1339 N 128.217 2.63695 -6.50699 0
M  V30 1340 H 133.057 -0.122075 -2.9775 0
M  V30 1341 H 130.594 -0.0720154 -1.46924 0
M  V30 1342 H 132.552 2.30734 -3.47589 0
M  V30 1343 H 131.182 2.22623 -2.33749 0
M  V30 1344 H 130.234 0.292708 -3.79272 0
M  V30 1345 H 131.546 0.602193 -4.95152 0
M  V30 1346 H 130.7 2.93007 -5.31255 0
M  V30 1347 H 129.439 2.68504 -4.07133 0
M  V30 1348 H 128.444 0.827175 -5.43542 0
M  V30 1349 H 129.669 1.09549 -6.70206 0
M  V30 1350 H 127.615 3.13365 -5.76315 0
M  V30 1351 H 127.532 2.21263 -7.22896 0
M  V30 1352 H 128.8 3.3837 -7.02229 0
M  V30 1353 N 133.029 1.57378 -0.0835403 0
M  V30 1354 C 134.44 1.81261 0.447358 0
M  V30 1355 C 134.791 0.998331 1.68902 0
M  V30 1356 O 133.916 0.224282 2.15235 0
M  V30 1357 C 134.511 3.28767 0.818386 0
M  V30 1358 C 133.07 3.53455 1.29409 0
M  V30 1359 C 132.217 2.75831 0.285024 0
M  V30 1360 H 135.168 1.5566 -0.309115 0
M  V30 1361 H 135.189 3.41459 1.67887 0
M  V30 1362 H 134.701 3.88006 -0.0855019 0
M  V30 1363 H 132.802 2.99534 2.21608 0
M  V30 1364 H 132.915 4.62128 1.2639 0
M  V30 1365 H 131.279 2.42947 0.764767 0
M  V30 1366 H 132.062 3.37813 -0.611341 0
M  V30 1367 N 134.507 -0.190092 1.56449 0
M  V30 1368 C 135.735 -0.925772 1.85033 0
M  V30 1369 C 136.15 -1.76638 0.666658 0
M  V30 1370 O 135.507 -1.78822 -0.364565 0
M  V30 1371 C 135.558 -1.81786 3.12468 0
M  V30 1372 O 135.279 -1.01118 4.26271 0
M  V30 1373 C 136.78 -2.6648 3.54265 0
M  V30 1374 H 134 -0.269872 0.614337 0
M  V30 1375 H 136.544 -0.195837 2.0356 0
M  V30 1376 H 134.699 -2.50136 2.95822 0
M  V30 1377 H 135.113 -1.61956 4.98869 0
M  V30 1378 H 136.587 -3.24722 4.46385 0
M  V30 1379 H 137.064 -3.40434 2.77491 0
M  V30 1380 H 137.67 -2.03493 3.73458 0
M  V30 1381 N 135.985 -1.50799 -0.457987 0
M  V30 1382 C 136.915 -1.73553 -1.5621 0
M  V30 1383 C 137.896 -0.584774 -1.59732 0
M  V30 1384 O 139.081 -0.825314 -1.7579 0
M  V30 1385 C 136.211 -1.84169 -2.94447 0
M  V30 1386 C 135.165 -2.99461 -3.0579 0
M  V30 1387 C 134.491 -2.95235 -4.45803 0
M  V30 1388 C 135.791 -4.39766 -2.81786 0
M  V30 1389 H 137.485 -2.66 -1.37421 0
M  V30 1390 H 135.031 -1.28002 -0.659662 0
M  V30 1391 H 136.984 -1.98672 -3.71628 0
M  V30 1392 H 135.708 -0.883545 -3.14422 0
M  V30 1393 H 134.367 -2.8463 -2.31044 0
M  V30 1394 H 134.015 -1.97239 -4.62715 0
M  V30 1395 H 133.715 -3.72642 -4.54326 0
M  V30 1396 H 135.239 -3.11803 -5.24987 0
M  V30 1397 H 136.653 -4.55054 -3.4871 0
M  V30 1398 H 135.05 -5.18722 -3.0174 0
M  V30 1399 H 136.12 -4.51229 -1.7754 0
M  V30 1400 N 137.463 0.71206 -1.40597 0
M  V30 1401 C 138.691 1.50111 -1.42388 0
M  V30 1402 C 139.106 1.88784 -0.0245395 0
M  V30 1403 O 138.463 1.55681 0.952351 0
M  V30 1404 C 138.514 2.7742 -2.31776 0
M  V30 1405 O 138.235 2.40382 -3.66262 0
M  V30 1406 C 139.736 3.7129 -2.42196 0
M  V30 1407 H 136.956 0.46314 -0.485533 0
M  V30 1408 H 139.5 0.878068 -1.8469 0
M  V30 1409 H 137.655 3.36001 -1.92827 0
M  V30 1410 H 138.069 3.22324 -4.13772 0
M  V30 1411 H 139.543 4.57448 -3.08943 0
M  V30 1412 H 140.02 4.14641 -1.44809 0
M  V30 1413 H 140.626 3.18619 -2.81712 0
M  V30 1414 N 138.941 1.26152 0.944643 0
M  V30 1415 C 140.357 1.03189 1.21754 0
M  V30 1416 C 140.557 -0.245112 2.00004 0
M  V30 1417 O 139.613 -0.955176 2.33736 0
M  V30 1418 C 140.926 2.26119 1.98219 0
M  V30 1419 C 142.474 2.30984 2.11224 0
M  V30 1420 C 142.949 3.53597 2.91089 0
M  V30 1421 N 144.44 3.54053 2.98664 0
M  V30 1422 C 145.175 4.45593 3.60881 0
M  V30 1423 N 144.671 5.47416 4.24626 0
M  V30 1424 N 146.464 4.33252 3.58119 0
M  V30 1425 H 138.615 2.08177 0.421437 0
M  V30 1426 H 140.878 0.914723 0.248969 0
M  V30 1427 H 140.584 3.18984 1.48128 0
M  V30 1428 H 140.458 2.3009 2.98895 0
M  V30 1429 H 142.845 1.38635 2.60508 0
M  V30 1430 H 142.926 2.31026 1.09821 0
M  V30 1431 H 142.57 4.46273 2.42493 0
M  V30 1432 H 142.5 3.50802 3.92741 0
M  V30 1433 H 144.991 2.80403 2.53343 0
M  V30 1434 H 145.304 6.13459 4.69987 0
M  V30 1435 H 143.649 5.51278 4.23223 0
M  V30 1436 H 146.84 3.52924 3.0751 0
M  V30 1437 H 147.013 5.04786 4.06319 0
M  V30 1438 N 140.419 -1.14872 1.07899 0
M  V30 1439 C 141.668 -1.85135 0.800499 0
M  V30 1440 C 141.981 -1.83547 -0.676014 0
M  V30 1441 O 143.187 -2.49548 -1.06948 0
M  V30 1442 C 141.643 -3.3231 1.38197 0
M  V30 1443 C 141.251 -3.42329 2.8899 0
M  V30 1444 C 142.995 -4.0772 1.18174 0
M  V30 1445 C 140.902 -4.83684 3.403 0
M  V30 1446 H 139.832 -0.693563 0.29578 0
M  V30 1447 H 142.483 -1.29532 1.29976 0
M  V30 1448 H 140.865 -3.87618 0.810431 0
M  V30 1449 H 142.039 -2.97097 3.52236 0
M  V30 1450 H 140.354 -2.80369 3.07867 0
M  V30 1451 H 142.951 -5.12049 1.5398 0
M  V30 1452 H 143.294 -4.16124 0.12117 0
M  V30 1453 H 143.827 -3.58696 1.71994 0
M  V30 1454 H 140.566 -4.80465 4.45907 0
M  V30 1455 H 140.086 -5.29474 2.81811 0
M  V30 1456 H 141.765 -5.52558 3.36584 0
M  V30 1457 N 141.898 -0.863906 -1.31812 0
M  V30 1458 C 142.808 -0.318461 -2.32428 0
M  V30 1459 C 143.824 0.568496 -1.64451 0
M  V30 1460 O 145 0.46666 -1.95919 0
M  V30 1461 C 142.065 0.476355 -3.43412 0
M  V30 1462 C 141.126 -0.43784 -4.27061 0
M  V30 1463 C 140.359 0.319138 -5.32745 0
M  V30 1464 O 140.582 1.54799 -5.48993 0
M  V30 1465 O 139.516 -0.319861 -6.01049 0
M  V30 1466 H 143.342 -1.15229 -2.80991 0
M  V30 1467 H 140.927 -0.627103 -1.35602 0
M  V30 1468 H 142.809 0.927156 -4.11074 0
M  V30 1469 H 141.484 1.28683 -2.97022 0
M  V30 1470 H 140.391 -0.937013 -3.62175 0
M  V30 1471 H 141.724 -1.21375 -4.77 0
M  V30 1472 N 143.376 1.44774 -0.622745 0
M  V30 1473 C 144.306 2.33382 0.0741861 0
M  V30 1474 C 145.287 1.47719 0.843387 0
M  V30 1475 O 146.472 1.76458 0.810934 0
M  V30 1476 C 143.602 3.30663 1.06204 0
M  V30 1477 C 142.556 4.26079 0.405037 0
M  V30 1478 C 141.882 5.13165 1.5022 0
M  V30 1479 C 143.182 5.1781 -0.683414 0
M  V30 1480 H 144.876 2.91905 -0.665713 0
M  V30 1481 H 142.422 1.40363 -0.321587 0
M  V30 1482 H 144.375 3.9153 1.55827 0
M  V30 1483 H 143.099 2.70331 1.83272 0
M  V30 1484 H 141.758 3.66532 -0.0704683 0
M  V30 1485 H 141.406 4.49191 2.26355 0
M  V30 1486 H 141.106 5.77812 1.06803 0
M  V30 1487 H 142.63 5.76902 2.00041 0
M  V30 1488 H 144.044 5.72661 -0.270631 0
M  V30 1489 H 142.441 5.91015 -1.04023 0
M  V30 1490 H 143.511 4.59326 -1.55395 0
M  V30 1491 N 144.854 0.36279 1.53368 0
M  V30 1492 C 145.784 -0.476976 2.28576 0
M  V30 1493 C 146.765 -1.08631 1.30894 0
M  V30 1494 O 147.95 -1.10409 1.59761 0
M  V30 1495 C 145.08 -1.61828 3.07293 0
M  V30 1496 C 144.034 -1.13633 4.1264 0
M  V30 1497 C 143.36 -2.36766 4.79423 0
M  V30 1498 C 144.66 -0.223061 5.21823 0
M  V30 1499 H 146.354 0.150474 2.99022 0
M  V30 1500 H 143.9 0.0738103 1.43811 0
M  V30 1501 H 145.853 -2.21237 3.58653 0
M  V30 1502 H 144.577 -2.27292 2.34533 0
M  V30 1503 H 143.236 -0.564945 3.62221 0
M  V30 1504 H 142.884 -3.0068 4.03238 0
M  V30 1505 H 142.584 -2.05192 5.50609 0
M  V30 1506 H 144.108 -2.96865 5.33576 0
M  V30 1507 H 145.522 -0.724545 5.68703 0
M  V30 1508 H 143.919 0.001678 6.001 0
M  V30 1509 H 144.989 0.735553 4.79289 0
M  V30 1510 N 146.332 -1.57332 0.0918853 0
M  V30 1511 C 147.56 -1.98574 -0.581048 0
M  V30 1512 C 147.975 -0.970903 -1.61923 0
M  V30 1513 O 147.332 0.0399054 -1.82456 0
M  V30 1514 C 147.383 -3.39872 -1.23164 0
M  V30 1515 O 147.104 -4.37469 -0.234989 0
M  V30 1516 C 148.605 -3.96099 -1.99049 0
M  V30 1517 H 145.825 -0.65261 -0.156018 0
M  V30 1518 H 148.369 -2.0379 0.170225 0
M  V30 1519 H 146.524 -3.35679 -1.93386 0
M  V30 1520 H 146.938 -5.19751 -0.70418 0
M  V30 1521 H 148.412 -4.97127 -2.39934 0
M  V30 1522 H 148.889 -3.3374 -2.85507 0
M  V30 1523 H 149.495 -4.03755 -1.3365 0
M  V30 1524 N 147.81 0.181792 -1.56548 0
M  V30 1525 C 148.72 1.24538 -1.98815 0
M  V30 1526 C 149.736 1.49045 -0.897861 0
M  V30 1527 O 150.912 1.61399 -1.20467 0
M  V30 1528 C 147.977 2.56683 -2.33055 0
M  V30 1529 C 147.038 2.40131 -3.55859 0
M  V30 1530 C 146.271 3.65975 -3.88456 0
M  V30 1531 O 146.494 4.70711 -3.22161 0
M  V30 1532 O 145.428 3.6071 -4.81842 0
M  V30 1533 H 149.254 0.916647 -2.89536 0
M  V30 1534 H 146.839 0.387842 -1.44278 0
M  V30 1535 H 148.721 3.34655 -2.56094 0
M  V30 1536 H 147.396 2.89157 -1.45498 0
M  V30 1537 H 146.303 1.60226 -3.38051 0
M  V30 1538 H 147.636 2.12585 -4.43924 0
M  V30 1539 N 149.288 1.51039 0.449983 0
M  V30 1540 C 150.251 1.70863 1.5277 0
M  V30 1541 C 151.251 0.578846 1.5002 0
M  V30 1542 O 152.441 0.846213 1.52266 0
M  V30 1543 C 149.573 1.75341 2.9235 0
M  V30 1544 H 150.766 2.67034 1.36502 0
M  V30 1545 H 148.319 1.40838 0.677812 0
M  V30 1546 H 149.054 0.809383 3.14037 0
M  V30 1547 H 148.839 2.57436 2.95752 0
M  V30 1548 H 150.329 1.92559 3.70555 0
M  V30 1549 N 150.766 -0.704594 1.40972 0
M  V30 1550 C 151.676 -1.84856 1.44448 0
M  V30 1551 C 152.692 -1.70726 0.335961 0
M  V30 1552 O 153.868 -1.92799 0.582276 0
M  V30 1553 C 150.933 -3.20758 1.31587 0
M  V30 1554 C 149.994 -3.47063 2.52677 0
M  V30 1555 C 149.227 -4.76481 2.4042 0
M  V30 1556 O 149.45 -5.52341 1.42391 0
M  V30 1557 O 148.384 -5.03367 3.30007 0
M  V30 1558 H 152.21 -1.8488 2.40942 0
M  V30 1559 H 149.795 -0.85647 1.22413 0
M  V30 1560 H 151.677 -4.01913 1.26665 0
M  V30 1561 H 150.352 -3.21438 0.382049 0
M  V30 1562 H 149.259 -2.65873 2.63177 0
M  V30 1563 H 150.592 -3.5119 3.44858 0
M  V30 1564 N 152.244 -1.26651 -0.937939 0
M  V30 1565 C 153.49 -1.12553 -1.687 0
M  V30 1566 C 153.823 0.329782 -1.91379 0
M  V30 1567 O 153.098 1.24202 -1.4968 0
M  V30 1568 C 153.381 -1.89862 -3.05981 0
M  V30 1569 C 153.234 -3.43318 -2.90607 0
M  V30 1570 C 154.553 -1.69499 -4.0615 0
M  V30 1571 H 151.672 -0.410257 -0.612257 0
M  V30 1572 H 154.314 -1.55685 -1.08913 0
M  V30 1573 H 152.464 -1.53204 -3.57017 0
M  V30 1574 H 154.136 -3.89747 -2.46769 0
M  V30 1575 H 152.379 -3.70179 -2.26164 0
M  V30 1576 H 153.05 -3.92642 -3.8799 0
M  V30 1577 H 155.526 -2.01442 -3.64088 0
M  V30 1578 H 154.402 -2.26002 -5.00214 0
M  V30 1579 H 154.663 -0.640365 -4.37438 0
M  V30 1580 N 153.722 1.14298 -1.08507 0
M  V30 1581 C 155.133 1.66926 -0.836227 0
M  V30 1582 C 155.484 1.85576 0.63686 0
M  V30 1583 O 154.609 1.56767 1.49175 0
M  V30 1584 C 155.204 3.03219 -1.51142 0
M  V30 1585 C 153.763 3.52876 -1.30979 0
M  V30 1586 C 152.91 2.2833 -1.57356 0
M  V30 1587 H 155.861 0.983491 -1.24552 0
M  V30 1588 H 155.882 3.68726 -0.939211 0
M  V30 1589 H 155.394 2.89612 -2.58353 0
M  V30 1590 H 153.495 3.71703 -0.258429 0
M  V30 1591 H 153.608 4.33586 -2.03814 0
M  V30 1592 H 151.972 2.34454 -0.995164 0
M  V30 1593 H 152.755 2.17298 -2.65775 0
M  V30 1594 N 155.201 0.870884 1.31352 0
M  V30 1595 C 156.449 0.48132 1.96285 0
M  V30 1596 C 156.77 -0.969813 1.69173 0
M  V30 1597 O 156.04 -1.67998 1.00764 0
M  V30 1598 H 154.62 0.175002 0.726212 0
M  V30 1599 H 157.282 1.11087 1.60143 0
M  V30 1600 H 156.378 0.639825 3.05471 0
M  V30 1601 N 156.679 -1.44442 0.630414 0
M  V30 1602 C 157.928 -2.01267 0.132073 0
M  V30 1603 C 158.241 -1.50172 -1.25331 0
M  V30 1604 O 159.447 -1.9912 -1.84562 0
M  V30 1605 C 157.903 -3.59422 0.185362 0
M  V30 1606 C 157.511 -4.19514 1.57201 0
M  V30 1607 C 159.255 -4.23724 -0.256553 0
M  V30 1608 C 157.162 -5.69891 1.58045 0
M  V30 1609 H 156.092 -0.752619 0.0456092 0
M  V30 1610 H 158.743 -1.65666 0.789106 0
M  V30 1611 H 157.125 -3.92318 -0.538759 0
M  V30 1612 H 158.299 -3.98156 2.31966 0
M  V30 1613 H 156.614 -3.67496 1.95795 0
M  V30 1614 H 159.211 -5.34019 -0.269767 0
M  V30 1615 H 159.554 -3.96013 -1.28372 0
M  V30 1616 H 160.087 -3.95629 0.41505 0
M  V30 1617 H 156.826 -6.02336 2.58597 0
M  V30 1618 H 156.346 -5.93373 0.875725 0
M  V30 1619 H 158.025 -6.33515 1.31408 0
M  V30 1620 N 158.157 -0.370918 -1.53173 0
M  V30 1621 C 159.382 0.220293 -2.06227 0
M  V30 1622 C 159.807 1.41243 -1.24225 0
M  V30 1623 O 159.165 1.79387 -0.262645 0
M  V30 1624 C 159.213 0.586663 -3.55796 0
M  V30 1625 O 158.317 1.68317 -3.76488 0
M  V30 1626 H 157.658 0.0308099 -0.663285 0
M  V30 1627 H 160.188 -0.533068 -1.97534 0
M  V30 1628 H 160.198 0.85617 -3.98916 0
M  V30 1629 H 158.873 -0.285013 -4.14922 0
M  V30 1630 H 157.45 1.40881 -3.45264 0
M  V30 1631 N 159.635 1.57281 -0.100228 0
M  V30 1632 C 160.86 1.99302 0.573881 0
M  V30 1633 C 161.285 0.979059 1.60611 0
M  V30 1634 O 160.643 -0.0517803 1.81226 0
M  V30 1635 C 160.691 3.40274 1.19358 0
M  V30 1636 O 159.795 3.41676 2.30935 0
M  V30 1637 H 159.136 0.647944 0.145138 0
M  V30 1638 H 161.666 2.03779 -0.183156 0
M  V30 1639 H 161.676 3.78078 1.53365 0
M  V30 1640 H 160.351 4.13594 0.437385 0
M  V30 1641 H 158.928 3.15672 1.98509 0
M  V30 1642 N 161.113 -0.173488 1.56642 0
M  V30 1643 C 162.023 -1.23482 1.99473 0
M  V30 1644 C 163.039 -1.48567 0.905752 0
M  V30 1645 O 164.215 -1.60758 1.21321 0
M  V30 1646 C 161.28 -2.55444 2.34413 0
M  V30 1647 C 160.341 -2.38241 3.57127 0
M  V30 1648 C 159.574 -3.63909 3.90392 0
M  V30 1649 O 159.797 -4.68996 3.24653 0
M  V30 1650 O 158.731 -3.58149 4.83749 0
M  V30 1651 H 162.557 -0.901279 2.90018 0
M  V30 1652 H 160.142 -0.380185 1.44482 0
M  V30 1653 H 162.024 -3.33292 2.57865 0
M  V30 1654 H 160.699 -2.88382 1.4703 0
M  V30 1655 H 159.606 -1.58431 3.38896 0
M  V30 1656 H 160.939 -2.10228 4.45045 0
M  V30 1657 N 162.591 -1.51276 -0.441967 0
M  V30 1658 C 163.538 -1.72256 -1.53612 0
M  V30 1659 C 164.508 -0.564164 -1.56225 0
M  V30 1660 O 165.693 -0.798074 -1.73307 0
M  V30 1661 C 162.833 -1.84932 -2.91366 0
M  V30 1662 C 161.946 -3.12459 -2.98317 0
M  V30 1663 C 161.081 -3.15758 -4.27166 0
M  V30 1664 C 160.12 -4.37619 -4.27967 0
M  V30 1665 N 159.257 -4.38493 -5.48333 0
M  V30 1666 H 164.097 -2.65654 -1.35026 0
M  V30 1667 H 161.634 -1.31662 -0.656009 0
M  V30 1668 H 163.592 -1.90263 -3.7129 0
M  V30 1669 H 162.222 -0.949461 -3.08521 0
M  V30 1670 H 161.274 -3.1646 -2.11086 0
M  V30 1671 H 162.586 -4.02382 -2.94771 0
M  V30 1672 H 161.74 -3.19979 -5.15459 0
M  V30 1673 H 160.479 -2.23715 -4.33362 0
M  V30 1674 H 159.484 -4.33579 -3.38067 0
M  V30 1675 H 160.709 -5.30921 -4.23438 0
M  V30 1676 H 158.655 -3.49318 -5.55259 0
M  V30 1677 H 158.572 -5.22219 -5.46647 0
M  V30 1678 H 159.84 -4.469 -6.38671 0
M  V30 1679 N 164.069 0.697108 -1.41344 0
M  V30 1680 C 165.316 1.45714 -1.40619 0
M  V30 1681 C 165.644 1.94494 -0.0147907 0
M  V30 1682 O 164.899 1.69794 0.973066 0
M  V30 1683 C 165.198 2.68553 -2.35826 0
M  V30 1684 C 164.864 2.38438 -3.82698 0
M  V30 1685 C 163.526 2.29936 -4.22709 0
M  V30 1686 C 165.878 2.13567 -4.75435 0
M  V30 1687 C 163.206 1.94656 -5.53467 0
M  V30 1688 C 165.558 1.79797 -6.06511 0
M  V30 1689 C 164.222 1.69789 -6.45545 0
M  V30 1690 H 163.492 0.533206 -0.51456 0
M  V30 1691 H 166.139 0.796901 -1.74131 0
M  V30 1692 H 164.444 3.39503 -1.95563 0
M  V30 1693 H 166.141 3.2669 -2.32539 0
M  V30 1694 H 162.731 2.4595 -3.51008 0
M  V30 1695 H 166.915 2.19082 -4.45328 0
M  V30 1696 H 162.171 1.8546 -5.82593 0
M  V30 1697 H 166.345 1.59572 -6.77872 0
M  V30 1698 H 163.972 1.4222 -7.46778 0
M  V30 1699 N 165.547 1.27147 0.931209 0
M  V30 1700 C 166.477 1.12081 2.04842 0
M  V30 1701 C 167.458 0.0232364 1.70084 0
M  V30 1702 O 168.643 0.197085 1.93197 0
M  V30 1703 C 165.773 0.76354 3.38803 0
M  V30 1704 C 164.727 1.81396 3.87659 0
M  V30 1705 C 164.053 1.31075 5.18385 0
M  V30 1706 C 165.353 3.21739 4.11438 0
M  V30 1707 H 167.047 2.05537 2.17703 0
M  V30 1708 H 164.593 0.989603 1.04608 0
M  V30 1709 H 166.546 0.644982 4.16435 0
M  V30 1710 H 165.27 -0.206727 3.25945 0
M  V30 1711 H 163.929 1.92136 3.12217 0
M  V30 1712 H 163.577 0.330037 5.01916 0
M  V30 1713 H 163.277 2.013 5.52044 0
M  V30 1714 H 164.801 1.20506 5.98591 0
M  V30 1715 H 166.215 3.14019 4.79651 0
M  V30 1716 H 164.612 3.89644 4.56397 0
M  V30 1717 H 165.682 3.67054 3.16859 0
M  V30 1718 N 167.025 -1.13721 1.09112 0
M  V30 1719 C 167.935 -2.22638 0.73957 0
M  V30 1720 C 168.951 -1.72091 -0.257068 0
M  V30 1721 O 170.127 -2.01155 -0.0992154 0
M  V30 1722 C 167.192 -3.46322 0.16191 0
M  V30 1723 C 166.253 -4.11775 1.21408 0
M  V30 1724 C 165.486 -5.29555 0.663891 0
M  V30 1725 O 165.709 -5.68077 -0.514274 0
M  V30 1726 O 164.643 -5.84973 1.41738 0
M  V30 1727 H 168.469 -2.55074 1.64836 0
M  V30 1728 H 166.054 -1.21791 0.865289 0
M  V30 1729 H 167.936 -4.21107 -0.157073 0
M  V30 1730 H 166.611 -3.15593 -0.719932 0
M  V30 1731 H 165.518 -3.3883 1.58571 0
M  V30 1732 H 166.851 -4.46627 2.06845 0
M  V30 1733 N 168.503 -0.877838 -1.30888 0
M  V30 1734 C 169.752 -0.488793 -1.95688 0
M  V30 1735 C 170.065 0.965485 -1.70111 0
M  V30 1736 O 171.271 1.46104 -2.28836 0
M  V30 1737 C 169.727 -0.823201 -3.50359 0
M  V30 1738 C 169.335 -2.29477 -3.84765 0
M  V30 1739 C 171.079 -0.503009 -4.21509 0
M  V30 1740 C 168.986 -2.57118 -5.32583 0
M  V30 1741 H 167.916 -0.179062 -0.732429 0
M  V30 1742 H 170.567 -1.07183 -1.48943 0
M  V30 1743 H 168.949 -0.169331 -3.95638 0
M  V30 1744 H 170.123 -2.99236 -3.5042 0
M  V30 1745 H 168.438 -2.58178 -3.267 0
M  V30 1746 H 171.035 -0.68665 -5.30273 0
M  V30 1747 H 171.378 0.557109 -4.12555 0
M  V30 1748 H 171.911 -1.11376 -3.8189 0
M  V30 1749 H 168.65 -3.61843 -5.4658 0
M  V30 1750 H 168.17 -1.91961 -5.68253 0
M  V30 1751 H 169.849 -2.42251 -5.99936 0
M  V30 1752 N 169.982 1.44106 -0.638065 0
M  V30 1753 C 170.945 2.29138 0.0531013 0
M  V30 1754 C 171.945 1.41409 0.765506 0
M  V30 1755 O 173.135 1.63206 0.609046 0
M  V30 1756 C 170.267 3.23144 1.08584 0
M  V30 1757 H 171.46 2.91739 -0.694883 0
M  V30 1758 H 169.013 1.51134 -0.398538 0
M  V30 1759 H 169.748 2.65408 1.86357 0
M  V30 1760 H 169.533 3.87804 0.578852 0
M  V30 1761 H 171.023 3.87004 1.56899 0
M  V30 1762 N 171.46 0.379036 1.52974 0
M  V30 1763 C 172.37 -0.468639 2.29872 0
M  V30 1764 C 173.386 -1.08067 1.36373 0
M  V30 1765 O 174.562 -1.08871 1.69438 0
M  V30 1766 C 171.627 -1.58594 3.083 0
M  V30 1767 C 170.688 -1.00007 4.17489 0
M  V30 1768 C 169.921 -2.06413 4.92168 0
M  V30 1769 O 170.144 -3.27751 4.66835 0
M  V30 1770 O 169.078 -1.68717 5.7777 0
M  V30 1771 H 172.904 0.157508 3.03291 0
M  V30 1772 H 170.489 0.143035 1.48714 0
M  V30 1773 H 172.371 -2.23525 3.57232 0
M  V30 1774 H 171.046 -2.19724 2.37703 0
M  V30 1775 H 169.953 -0.314299 3.72777 0
M  V30 1776 H 171.286 -0.433135 4.90291 0
M  V30 1777 N 172.938 -1.57226 0.108567 0
M  V30 1778 C 173.901 -2.13602 -0.831082 0
M  V30 1779 C 174.901 -1.06841 -1.20173 0
M  V30 1780 O 176.091 -1.32666 -1.12895 0
M  V30 1781 C 173.223 -2.66769 -2.12243 0
M  V30 1782 H 174.416 -2.97951 -0.341317 0
M  V30 1783 H 171.969 -1.55667 -0.14057 0
M  V30 1784 H 172.704 -1.85977 -2.65675 0
M  V30 1785 H 172.489 -3.44839 -1.86625 0
M  V30 1786 H 173.979 -3.10332 -2.79435 0
M  V30 1787 N 174.416 0.165178 -1.56732 0
M  V30 1788 C 175.379 1.18822 -1.95995 0
M  V30 1789 C 176.379 1.3685 -0.84431 0
M  V30 1790 O 177.569 1.34152 -1.11126 0
M  V30 1791 C 174.701 2.5521 -2.26011 0
M  V30 1792 H 175.894 0.851825 -2.87548 0
M  V30 1793 H 173.447 0.407857 -1.50885 0
M  V30 1794 H 174.182 2.93852 -1.37191 0
M  V30 1795 H 173.967 2.43489 -3.07336 0
M  V30 1796 H 175.457 3.28927 -2.57288 0
M  V30 1797 N 175.894 1.51508 0.433938 0
M  V30 1798 C 176.841 1.73068 1.52696 0
M  V30 1799 C 177.811 0.572441 1.55924 0
M  V30 1800 O 178.996 0.807253 1.72882 0
M  V30 1801 C 176.136 1.86474 2.90381 0
M  V30 1802 C 175.249 3.14037 2.96656 0
M  V30 1803 C 174.384 3.18019 4.25485 0
M  V30 1804 C 173.423 4.39882 4.2564 0
M  V30 1805 N 172.56 4.41394 5.45999 0
M  V30 1806 H 177.4 2.66366 1.33615 0
M  V30 1807 H 174.937 1.32008 0.649018 0
M  V30 1808 H 176.895 1.92229 3.70275 0
M  V30 1809 H 175.525 0.965809 3.08013 0
M  V30 1810 H 174.577 3.17575 2.09404 0
M  V30 1811 H 175.889 4.0394 2.92633 0
M  V30 1812 H 175.043 3.22708 5.13755 0
M  V30 1813 H 173.782 2.2601 4.3217 0
M  V30 1814 H 172.787 4.35366 3.35763 0
M  V30 1815 H 174.012 5.33159 4.20617 0
M  V30 1816 H 171.958 3.52258 5.53399 0
M  V30 1817 H 171.875 5.25111 5.4387 0
M  V30 1818 H 173.143 4.50281 6.36292 0
M  V30 1819 N 177.372 -0.689602 1.41712 0
M  V30 1820 C 178.282 -1.83314 1.46401 0
M  V30 1821 C 179.298 -1.7036 0.35405 0
M  V30 1822 O 180.474 -1.92171 0.602692 0
M  V30 1823 C 177.539 -3.19344 1.34982 0
M  V30 1824 C 176.6 -3.44363 2.56344 0
M  V30 1825 C 175.833 -4.73904 2.45461 0
M  V30 1826 O 176.056 -5.508 1.48241 0
M  V30 1827 O 174.99 -4.99839 3.35328 0
M  V30 1828 H 178.816 -1.82314 2.42889 0
M  V30 1829 H 176.401 -0.843438 1.23315 0
M  V30 1830 H 178.283 -4.00547 1.3092 0
M  V30 1831 H 176.958 -3.21014 0.41612 0
M  V30 1832 H 175.865 -2.63067 2.65982 0
M  V30 1833 H 177.198 -3.47512 3.48563 0
M  V30 1834 N 178.85 -1.27639 -0.924453 0
M  V30 1835 C 180.098 -1.13941 -1.66918 0
M  V30 1836 C 180.419 0.314589 -1.92446 0
M  V30 1837 O 179.689 1.21964 -1.53303 0
M  V30 1838 H 178.269 -0.418678 -0.618642 0
M  V30 1839 H 180.931 -1.60213 -1.10985 0
M  V30 1840 H 180.027 -1.67094 -2.63602 0
M  V30 1841 N 180.328 1.1314 -1.09713 0
M  V30 1842 C 181.568 1.8613 -0.844683 0
M  V30 1843 C 181.932 1.81765 0.618491 0
M  V30 1844 O 183.133 2.50024 0.98699 0
M  V30 1845 C 181.404 3.30151 -1.36877 0
M  V30 1846 S 182.963 4.206 -1.25064 0
M  V30 1847 H 179.781 0.642056 -0.305427 0
M  V30 1848 H 182.383 1.36343 -1.4011 0
M  V30 1849 H 181.087 3.30883 -2.42786 0
M  V30 1850 H 180.618 3.85 -0.808614 0
M  V30 1851 H 182.633 4.95783 -0.203486 0
M  V30 1852 N 181.806 0.884767 1.30421 0
M  V30 1853 C 183.217 0.553656 1.78302 0
M  V30 1854 C 183.568 -0.930153 1.7275 0
M  V30 1855 O 182.693 -1.72681 1.30423 0
M  V30 1856 C 183.288 0.998234 3.2376 0
M  V30 1857 C 181.847 0.71854 3.69478 0
M  V30 1858 C 180.994 1.18132 2.50879 0
M  V30 1859 H 183.945 1.06901 1.17294 0
M  V30 1860 H 183.966 0.327118 3.79091 0
M  V30 1861 H 183.478 2.0782 3.27769 0
M  V30 1862 H 181.579 -0.349444 3.70958 0
M  V30 1863 H 181.692 1.30595 4.60958 0
M  V30 1864 H 180.056 0.600669 2.47516 0
M  V30 1865 H 180.839 2.26902 2.57624 0
M  V30 1866 N 183.284 -1.43765 0.645699 0
M  V30 1867 C 184.53 -2.02197 0.156271 0
M  V30 1868 C 184.863 -1.50776 -1.22393 0
M  V30 1869 O 184.138 -0.697771 -1.81553 0
M  V30 1870 C 184.421 -3.59749 0.158872 0
M  V30 1871 C 184.274 -4.21419 1.57245 0
M  V30 1872 C 185.593 -4.37149 -0.50879 0
M  V30 1873 H 182.712 -0.734694 0.0582602 0
M  V30 1874 H 185.354 -1.71157 0.824951 0
M  V30 1875 H 183.504 -3.86325 -0.410525 0
M  V30 1876 H 185.176 -4.059 2.19186 0
M  V30 1877 H 183.419 -3.78356 2.122 0
M  V30 1878 H 184.09 -5.30482 1.52619 0
M  V30 1879 H 186.566 -4.16093 -0.024412 0
M  V30 1880 H 185.442 -5.4683 -0.476213 0
M  V30 1881 H 185.703 -4.12839 -1.58165 0
M  V30 1882 N 184.763 -0.387143 -1.52771 0
M  V30 1883 C 185.988 0.198407 -2.06449 0
M  V30 1884 C 186.413 1.39918 -1.25716 0
M  V30 1885 O 185.771 1.79099 -0.281657 0
M  V30 1886 C 185.819 0.548893 -3.56398 0
M  V30 1887 O 184.923 1.64315 -3.78252 0
M  V30 1888 H 184.264 0.0237731 -0.663574 0
M  V30 1889 H 186.794 -0.553989 -1.96957 0
M  V30 1890 H 186.804 0.813812 -3.99801 0
M  V30 1891 H 185.479 -0.329005 -4.14597 0
M  V30 1892 H 184.056 1.37211 -3.46738 0
M  V30 1893 N 186.241 1.57166 -0.116904 0
M  V30 1894 C 187.657 1.5779 0.239693 0
M  V30 1895 C 187.857 1.1295 1.66867 0
M  V30 1896 O 186.913 0.81592 2.38954 0
M  V30 1897 C 188.226 3.00699 0.00828202 0
M  V30 1898 C 189.774 3.12912 0.0743438 0
M  V30 1899 C 190.249 4.57817 -0.129348 0
M  V30 1900 N 191.74 4.63139 -0.075247 0
M  V30 1901 C 192.475 5.73023 -0.207788 0
M  V30 1902 N 191.971 6.91665 -0.396382 0
M  V30 1903 N 193.764 5.61906 -0.14751 0
M  V30 1904 H 185.915 1.84615 -1.05029 0
M  V30 1905 H 188.178 0.85311 -0.41341 0
M  V30 1906 H 187.884 3.37784 -0.979531 0
M  V30 1907 H 187.758 3.69848 0.741077 0
M  V30 1908 H 190.145 2.75686 1.05268 0
M  V30 1909 H 190.226 2.4631 -0.690297 0
M  V30 1910 H 189.87 4.95742 -1.10465 0
M  V30 1911 H 189.8 5.22507 0.655253 0
M  V30 1912 H 192.291 3.7784 0.0670898 0
M  V30 1913 H 192.604 7.71255 -0.488437 0
M  V30 1914 H 190.949 6.93654 -0.432329 0
M  V30 1915 H 194.14 4.681 -0.00115036 0
M  V30 1916 H 194.313 6.47501 -0.254247 0
M  V30 1917 N 187.719 -0.156864 1.56817 0
M  V30 1918 C 188.682 -1.17781 1.96622 0
M  V30 1919 C 189.682 -1.36401 0.851555 0
M  V30 1920 O 190.872 -1.33561 1.11836 0
M  V30 1921 C 188.004 -2.54008 2.27361 0
M  V30 1922 H 189.197 -0.836564 2.87996 0
M  V30 1923 H 186.75 -0.39985 1.51099 0
M  V30 1924 H 187.485 -2.9312 1.38748 0
M  V30 1925 H 187.27 -2.41856 3.08623 0
M  V30 1926 H 188.76 -3.27558 2.59029 0
M  V30 1927 N 189.197 -1.51736 -0.425897 0
M  V30 1928 C 190.127 -1.76827 -1.52494 0
M  V30 1929 C 191.108 -0.618524 -1.58456 0
M  V30 1930 O 192.293 -0.862416 -1.74 0
M  V30 1931 C 189.423 -1.90374 -2.90474 0
M  V30 1932 C 188.377 -3.0588 -2.99369 0
M  V30 1933 C 187.703 -3.04625 -4.3944 0
M  V30 1934 C 189.003 -4.45644 -2.72394 0
M  V30 1935 H 190.697 -2.68855 -1.31748 0
M  V30 1936 H 188.243 -1.29372 -0.632362 0
M  V30 1937 H 190.196 -2.0651 -3.6733 0
M  V30 1938 H 188.92 -0.95004 -3.12477 0
M  V30 1939 H 187.579 -2.89467 -2.24954 0
M  V30 1940 H 187.227 -2.0701 -4.58428 0
M  V30 1941 H 186.927 -3.82195 -4.46319 0
M  V30 1942 H 188.451 -3.22869 -5.18255 0
M  V30 1943 H 189.865 -4.62348 -3.38979 0
M  V30 1944 H 188.262 -5.25006 -2.9067 0
M  V30 1945 H 189.332 -4.54893 -1.67929 0
M  V30 1946 N 190.675 0.682077 -1.42076 0
M  V30 1947 C 191.638 1.77756 -1.44691 0
M  V30 1948 C 192.638 1.5726 -0.335535 0
M  V30 1949 O 193.828 1.63686 -0.596037 0
M  V30 1950 C 190.96 3.16301 -1.27146 0
M  V30 1951 H 192.153 1.76826 -2.42224 0
M  V30 1952 H 189.706 0.891012 -1.28416 0
M  V30 1953 H 190.441 3.22862 -0.305075 0
M  V30 1954 H 190.226 3.32581 -2.07683 0
M  V30 1955 H 191.716 3.96241 -1.31843 0
M  V30 1956 N 192.153 1.28127 0.917671 0
M  V30 1957 C 193.401 1.14825 1.66312 0
M  V30 1958 C 193.722 -0.304379 1.9261 0
M  V30 1959 O 192.992 -1.21149 1.53947 0
M  V30 1960 H 191.572 0.421953 0.616413 0
M  V30 1961 H 194.234 1.608 1.10134 0
M  V30 1962 H 193.33 1.68489 2.62712 0
M  V30 1963 N 193.631 -1.12557 1.10312 0
M  V30 1964 C 194.877 -1.84311 0.846011 0
M  V30 1965 C 195.21 -1.83805 -0.626859 0
M  V30 1966 O 194.485 -1.28268 -1.46211 0
M  V30 1967 C 194.768 -3.32048 1.39341 0
M  V30 1968 C 194.621 -3.41016 2.93305 0
M  V30 1969 C 195.94 -4.27764 1.03468 0
M  V30 1970 H 193.059 -0.669192 0.30879 0
M  V30 1971 H 195.701 -1.32057 1.36605 0
M  V30 1972 H 193.851 -3.76678 0.951087 0
M  V30 1973 H 195.523 -3.05031 3.46055 0
M  V30 1974 H 193.766 -2.81603 3.29973 0
M  V30 1975 H 194.437 -4.44948 3.26689 0
M  V30 1976 H 196.913 -3.91253 1.41633 0
M  V30 1977 H 195.789 -5.29549 1.44463 0
M  V30 1978 H 196.05 -4.42064 -0.0560404 0
M  V30 1979 N 195.109 -0.891671 -1.2995 0
M  V30 1980 C 196.056 -0.361736 -2.27948 0
M  V30 1981 C 197.026 0.551761 -1.56668 0
M  V30 1982 O 198.211 0.478736 -1.84696 0
M  V30 1983 C 195.351 0.411825 -3.42634 0
M  V30 1984 C 194.464 -0.531651 -4.28716 0
M  V30 1985 C 193.599 0.258167 -5.30572 0
M  V30 1986 C 192.638 -0.680349 -6.08307 0
M  V30 1987 N 191.775 0.0745613 -7.0206 0
M  V30 1988 H 196.615 -1.20254 -2.72659 0
M  V30 1989 H 194.152 -0.604352 -1.34112 0
M  V30 1990 H 196.11 0.876304 -4.07893 0
M  V30 1991 H 194.74 1.21715 -2.98974 0
M  V30 1992 H 193.792 -1.11463 -3.63703 0
M  V30 1993 H 195.104 -1.25038 -4.82874 0
M  V30 1994 H 194.258 0.784204 -6.0161 0
M  V30 1995 H 192.997 1.01008 -4.77126 0
M  V30 1996 H 192.002 -1.21796 -5.3614 0
M  V30 1997 H 193.227 -1.43145 -6.63842 0
M  V30 1998 H 191.173 0.808883 -6.50994 0
M  V30 1999 H 191.09 -0.584409 -7.53738 0
M  V30 2000 H 192.358 0.581123 -7.77331 0
M  V30 2001 N 196.587 1.43421 -0.653314 0
M  V30 2002 C 197.497 2.34568 0.0388565 0
M  V30 2003 C 198.513 1.53888 0.81207 0
M  V30 2004 O 199.689 1.86539 0.759294 0
M  V30 2005 C 196.754 3.32167 0.993269 0
M  V30 2006 C 195.815 4.28751 0.216977 0
M  V30 2007 C 195.048 5.21688 1.12593 0
M  V30 2008 O 195.271 5.19052 2.36519 0
M  V30 2009 O 194.205 5.98919 0.598284 0
M  V30 2010 H 198.031 2.95251 -0.711386 0
M  V30 2011 H 195.616 1.43564 -0.413502 0
M  V30 2012 H 197.498 3.92183 1.54176 0
M  V30 2013 H 196.173 2.73987 1.72374 0
M  V30 2014 H 195.08 3.72215 -0.375101 0
M  V30 2015 H 196.413 4.89913 -0.473924 0
M  V30 2016 N 198.065 0.39524 1.52563 0
M  V30 2017 C 199.311 -0.185318 2.01952 0
M  V30 2018 C 199.644 -1.45964 1.28095 0
M  V30 2019 O 198.919 -1.90689 0.38315 0
M  V30 2020 C 199.202 -0.447193 3.57312 0
M  V30 2021 C 199.055 0.842828 4.41833 0
M  V30 2022 C 200.374 -1.23529 4.22408 0
M  V30 2023 H 197.493 -0.0658788 0.73405 0
M  V30 2024 H 200.135 0.525975 1.82575 0
M  V30 2025 H 198.285 -1.05312 3.73954 0
M  V30 2026 H 199.957 1.4795 4.36931 0
M  V30 2027 H 198.2 1.45686 4.08605 0
M  V30 2028 H 198.871 0.614165 5.48573 0
M  V30 2029 H 201.347 -0.722445 4.0978 0
M  V30 2030 H 200.223 -1.38727 5.3108 0
M  V30 2031 H 200.484 -2.25213 3.80436 0
M  V30 2032 N 199.544 -1.57102 0.125237 0
M  V30 2033 C 200.79 -1.95697 -0.532035 0
M  V30 2034 C 201.123 -1.009 -1.6593 0
M  V30 2035 O 200.398 -0.047347 -1.94442 0
M  V30 2036 C 200.681 -3.44181 -1.05884 0
M  V30 2037 C 200.534 -4.49752 0.0654392 0
M  V30 2038 C 201.853 -3.94655 -1.9477 0
M  V30 2039 H 198.972 -0.711571 -0.191925 0
M  V30 2040 H 201.614 -1.88923 0.20206 0
M  V30 2041 H 199.764 -3.50085 -1.68442 0
M  V30 2042 H 201.436 -4.55943 0.700982 0
M  V30 2043 H 199.679 -4.27653 0.727709 0
M  V30 2044 H 200.35 -5.50924 -0.344505 0
M  V30 2045 H 202.826 -3.91094 -1.42074 0
M  V30 2046 H 201.702 -4.99057 -2.28546 0
M  V30 2047 H 201.963 -3.35718 -2.87656 0
M  V30 2048 N 201.022 0.148545 -1.56898 0
M  V30 2049 C 201.952 1.18524 -2.01182 0
M  V30 2050 C 202.933 1.4489 -0.891123 0
M  V30 2051 O 204.118 1.55836 -1.15882 0
M  V30 2052 C 201.248 2.51879 -2.39112 0
M  V30 2053 C 200.202 2.40038 -3.54353 0
M  V30 2054 C 199.528 3.78089 -3.78091 0
M  V30 2055 C 200.828 1.88577 -4.87069 0
M  V30 2056 H 202.522 0.817029 -2.88036 0
M  V30 2057 H 200.068 0.391575 -1.38574 0
M  V30 2058 H 202.021 3.24627 -2.68692 0
M  V30 2059 H 200.745 2.90532 -1.49193 0
M  V30 2060 H 199.404 1.69742 -3.24936 0
M  V30 2061 H 199.052 4.14175 -2.85426 0
M  V30 2062 H 198.752 3.71028 -4.55645 0
M  V30 2063 H 200.276 4.52387 -4.10095 0
M  V30 2064 H 201.69 2.51117 -5.15377 0
M  V30 2065 H 200.087 1.9241 -5.68417 0
M  V30 2066 H 201.157 0.84136 -4.77545 0
M  V30 2067 N 202.5 1.5196 0.417844 0
M  V30 2068 C 203.728 1.69426 1.18753 0
M  V30 2069 C 204.143 0.399955 1.84515 0
M  V30 2070 O 203.5 -0.623288 1.71527 0
M  V30 2071 C 203.551 2.82375 2.25714 0
M  V30 2072 O 203.272 4.06793 1.62638 0
M  V30 2073 C 204.773 3.11277 3.15628 0
M  V30 2074 H 201.993 0.568031 0.357186 0
M  V30 2075 H 204.537 1.98475 0.49273 0
M  V30 2076 H 202.692 2.5587 2.90877 0
M  V30 2077 H 203.106 4.69667 2.3348 0
M  V30 2078 H 204.58 3.93843 3.86771 0
M  V30 2079 H 205.057 2.24473 3.77503 0
M  V30 2080 H 205.663 3.39515 2.56144 0
M  V30 2081 N 203.978 -0.674533 1.42435 0
M  V30 2082 C 204.941 -1.76986 1.45632 0
M  V30 2083 C 205.941 -1.5708 0.343871 0
M  V30 2084 O 207.131 -1.63367 0.604709 0
M  V30 2085 C 204.263 -3.15623 1.28822 0
M  V30 2086 H 205.456 -1.75539 2.43158 0
M  V30 2087 H 203.009 -0.884189 1.28887 0
M  V30 2088 H 203.744 -3.22696 0.322193 0
M  V30 2089 H 203.529 -3.31475 2.09444 0
M  V30 2090 H 205.019 -3.95537 1.33942 0
M  V30 2091 N 205.456 -1.28612 -0.910864 0
M  V30 2092 C 206.872 -1.06381 -1.18976 0
M  V30 2093 C 207.072 0.191998 -2.00583 0
M  V30 2094 O 206.128 0.892869 -2.36187 0
M  V30 2095 C 207.441 -2.31295 -1.92154 0
M  V30 2096 C 208.989 -2.36503 -2.05025 0
M  V30 2097 C 209.464 -3.61191 -2.81612 0
M  V30 2098 N 210.955 -3.61847 -2.89172 0
M  V30 2099 C 211.69 -4.55004 -3.4894 0
M  V30 2100 N 211.186 -5.58482 -4.09963 0
M  V30 2101 N 212.979 -4.42594 -3.46506 0
M  V30 2102 H 205.13 -2.09221 -0.366094 0
M  V30 2103 H 207.393 -0.921003 -0.224629 0
M  V30 2104 H 207.099 -3.228 -1.39618 0
M  V30 2105 H 206.973 -2.37934 -2.9269 0
M  V30 2106 H 209.36 -1.45494 -2.5674 0
M  V30 2107 H 209.441 -2.33857 -1.03657 0
M  V30 2108 H 209.085 -4.52545 -2.30576 0
M  V30 2109 H 209.015 -3.61092 -3.83302 0
M  V30 2110 H 211.506 -2.87022 -2.45819 0
M  V30 2111 H 211.819 -6.25704 -4.53557 0
M  V30 2112 H 210.164 -5.62305 -4.08459 0
M  V30 2113 H 213.355 -3.60953 -2.98045 0
M  V30 2114 H 213.528 -5.15381 -3.92793 0
M  V30 2115 N 206.934 1.1197 -1.10907 0
M  V30 2116 C 207.864 2.19928 -0.784473 0
M  V30 2117 C 208.845 1.6833 0.244726 0
M  V30 2118 O 210.03 1.93892 0.109418 0
M  V30 2119 C 207.16 3.46597 -0.220827 0
M  V30 2120 C 206.114 4.11376 -1.18127 0
M  V30 2121 C 205.44 5.32554 -0.478594 0
M  V30 2122 C 206.74 4.56945 -2.52979 0
M  V30 2123 H 208.434 2.47337 -1.68715 0
M  V30 2124 H 205.98 1.18879 -0.812642 0
M  V30 2125 H 207.933 4.21396 0.0184278 0
M  V30 2126 H 206.657 3.1863 0.717113 0
M  V30 2127 H 205.316 3.38564 -1.40606 0
M  V30 2128 H 204.964 5.00856 0.463976 0
M  V30 2129 H 204.664 5.76844 -1.11912 0
M  V30 2130 H 206.188 6.10096 -0.248 0
M  V30 2131 H 207.602 5.23093 -2.3462 0
M  V30 2132 H 205.999 5.1203 -3.12962 0
M  V30 2133 H 207.069 3.70676 -3.12614 0
M  V30 2134 N 208.412 0.89855 1.29475 0
M  V30 2135 C 209.658 0.524658 1.95896 0
M  V30 2136 C 209.991 -0.926468 1.70676 0
M  V30 2137 O 209.266 -1.65665 1.01908 0
M  V30 2138 C 209.549 0.81633 3.50725 0
M  V30 2139 C 209.402 2.31907 3.85408 0
M  V30 2140 C 210.721 0.302038 4.39062 0
M  V30 2141 H 207.84 0.19209 0.711527 0
M  V30 2142 H 210.482 1.12502 1.53112 0
M  V30 2143 H 208.632 0.305369 3.87298 0
M  V30 2144 H 210.304 2.89949 3.58786 0
M  V30 2145 H 208.547 2.78027 3.32992 0
M  V30 2146 H 209.218 2.47373 4.93468 0
M  V30 2147 H 211.694 0.739551 4.09475 0
M  V30 2148 H 210.57 0.535331 5.46283 0
M  V30 2149 H 210.831 -0.797216 4.34853 0
M  V30 2150 O 209.929 -1.40275 0.80033 0
M  V30 2151 H 210.62 -1.90048 0.374337 0
M  V30 END ATOM
M  V30 BEGIN BOND
M  V30 END BOND
M  V30 END CTAB
M  END
$$$$
