drugbank_target|P49888 Estrogen sulfotransferase (DB01176; DB01812; DB02902; DB03346)
 OpenBabel12092119443D

  0  0  0     0  0            999 V3000
M  V30 BEGIN CTAB
M  V30 COUNTS 4909 4982 0 0 0
M  V30 BEGIN ATOM
M  V30 1 H -0.908 1.98254 -0.117106 0
M  V30 2 N 0 1.576 0 0
M  V30 3 C 0.933 2.03868 1.02534 0
M  V30 4 C 1.911 0.928543 1.3348 0
M  V30 5 O 3.095 1.19667 1.45644 0
M  V30 6 C 0.222 2.43627 2.35294 0
M  V30 7 C -0.732 3.65373 2.2001 0
M  V30 8 S 0.101 5.13292 1.52614 0
M  V30 9 C 1.257 5.56322 2.86805 0
M  V30 10 H 1.49 2.90518 0.631377 0
M  V30 11 H -0.977 1.52953 0.210867 0
M  V30 12 H 0.981 2.67203 3.11629 0
M  V30 13 H -0.358 1.57376 2.7183 0
M  V30 14 H -1.165 3.90944 3.18086 0
M  V30 15 H -1.563 3.418 1.51819 0
M  V30 16 H 0.729 5.58782 3.83104 0
M  V30 17 H 1.672 6.56266 2.65933 0
M  V30 18 H 2.08 4.83886 2.90714 0
M  V30 19 N 1.4781 -0.272755 1.55222 0
M  V30 20 C 2.4261 -1.35705 1.88909 0
M  V30 21 C 3.4201 -1.5112 0.765456 0
M  V30 22 O 4.6261 -1.52901 0.949802 0
M  V30 23 H 1.0011 -0.453868 0.59959 0
M  V30 24 H 2.9721 -1.04544 2.79487 0
M  V30 25 C 1.7211 -2.71049 2.17779 0
M  V30 26 H 1.0441 -2.59979 3.03728 0
M  V30 27 H 2.4841 -3.45858 2.45272 0
M  V30 28 C 0.9431 -3.22165 0.985473 0
M  V30 29 O 1.4731 -4.01096 0.220233 0
M  V30 30 N -0.3209 -2.7985 0.783108 0
M  V30 31 H -0.7739 -2.15775 1.40708 0
M  V30 32 H -0.8159 -3.14397 -0.0130392 0
M  V30 33 N 2.9562 -1.48159 -0.537278 0
M  V30 34 C 4.1812 -1.59707 -1.32319 0
M  V30 35 C 4.6062 -0.254859 -1.86365 0
M  V30 36 O 3.9642 0.772378 -1.64024 0
M  V30 37 C 4.0122 -2.6412 -2.45505 0
M  V30 38 O 3.1162 -2.20774 -3.48328 0
M  V30 39 H 2.4572 -0.535791 -0.392204 0
M  V30 40 H 4.9872 -1.94092 -0.647268 0
M  V30 41 H 4.9972 -2.85166 -2.91795 0
M  V30 42 H 3.6722 -3.61567 -2.05528 0
M  V30 43 H 2.2492 -2.09911 -3.08207 0
M  V30 44 N 4.4343 0.785586 -1.36625 0
M  V30 45 C 5.3443 1.92964 -1.33425 0
M  V30 46 C 6.3603 1.72394 -0.235851 0
M  V30 47 O 7.5363 1.95866 -0.468878 0
M  V30 48 C 4.6013 3.27884 -1.12662 0
M  V30 49 C 3.6623 3.61204 -2.32013 0
M  V30 50 C 2.8953 4.89687 -2.12231 0
M  V30 51 O 3.1183 5.59704 -1.09945 0
M  V30 52 O 2.0523 5.21752 -3.00098 0
M  V30 53 H 5.8783 1.98613 -2.29753 0
M  V30 54 H 3.4633 0.926384 -1.17211 0
M  V30 55 H 5.3453 4.08614 -1.03016 0
M  V30 56 H 4.0203 3.23118 -0.193991 0
M  V30 57 H 2.9273 2.80765 -2.47228 0
M  V30 58 H 4.2603 3.70698 -3.23796 0
M  V30 59 N 5.9124 1.20967 1.01018 0
M  V30 60 C 6.8424 0.988272 2.11555 0
M  V30 61 C 7.8234 -0.0849778 1.69888 0
M  V30 62 O 9.0084 0.0738202 1.9406 0
M  V30 63 C 6.1384 0.546528 3.42973 0
M  V30 64 C 5.0924 1.56375 3.9841 0
M  V30 65 C 4.4184 0.97842 5.25672 0
M  V30 66 C 5.7184 2.94922 4.31066 0
M  V30 67 H 7.4124 1.91276 2.30334 0
M  V30 68 H 4.9584 0.921073 1.1069 0
M  V30 69 H 6.9114 0.378839 4.19694 0
M  V30 70 H 5.6354 -0.413598 3.23971 0
M  V30 71 H 4.2944 1.71891 3.23804 0
M  V30 72 H 3.9424 0.0101688 5.02999 0
M  V30 73 H 3.6424 1.65784 5.63728 0
M  V30 74 H 5.1664 0.821939 6.05043 0
M  V30 75 H 6.5804 2.8288 4.9865 0
M  V30 76 H 4.9774 3.5983 4.80253 0
M  V30 77 H 6.0474 3.4616 3.39561 0
M  V30 78 N 7.3905 -1.2043 1.01659 0
M  V30 79 C 8.6675 -1.8548 0.621004 0
M  V30 80 C 9.0475 -1.9091 -0.900919 0
M  V30 81 O 8.3955 -1.41694 -1.79263 0
M  V30 82 C 8.6055 -3.25119 1.2688 0
M  V30 83 C 9.9535 -4.01403 1.38423 0
M  V30 84 O 10.9775 -3.34473 1.22501 0
M  V30 85 O 9.8365 -5.21265 1.64151 0
M  V30 86 H 6.9305 -0.798761 0.214266 0
M  V30 87 H 9.4765 -1.28019 1.11396 0
M  V30 88 H 8.2485 -3.15932 2.30873 0
M  V30 89 H 7.8715 -3.90212 0.762917 0
M  V30 90 N 8.8686 -0.792821 -1.36206 0
M  V30 91 C 10.0986 -0.378275 -2.03107 0
M  V30 92 C 10.5066 1.01119 -1.59911 0
M  V30 93 O 9.8496 1.66052 -0.785658 0
M  V30 94 C 9.9116 -0.366535 -3.57627 0
M  V30 95 C 9.5756 -1.70416 -4.24037 0
M  V30 96 C 10.5726 -2.6602 -4.46687 0
M  V30 97 C 8.2576 -1.98439 -4.6144 0
M  V30 98 C 10.2516 -3.8784 -5.05825 0
M  V30 99 C 7.9386 -3.20525 -5.20295 0
M  V30 100 C 8.9366 -4.15044 -5.42427 0
M  V30 101 O 8.6246 -5.34978 -6.00045 0
M  V30 102 H 8.3566 -0.153543 -0.658332 0
M  V30 103 H 10.9106 -1.07383 -1.75094 0
M  V30 104 H 9.1406 0.385539 -3.84773 0
M  V30 105 H 10.8296 0.0238088 -4.05893 0
M  V30 106 H 11.5956 -2.45658 -4.18183 0
M  V30 107 H 7.4746 -1.25686 -4.43536 0
M  V30 108 H 11.0186 -4.61628 -5.23015 0
M  V30 109 H 6.9156 -3.40764 -5.48225 0
M  V30 110 H 7.6836 -5.36088 -6.18508 0
M  V30 111 N 10.3467 1.47872 -0.545128 0
M  V30 112 C 11.5767 2.06589 -0.0210534 0
M  V30 113 C 11.9847 1.39997 1.27269 0
M  V30 114 O 11.3277 0.486421 1.77143 0
M  V30 115 C 11.3897 3.58574 0.257933 0
M  V30 116 C 11.0537 4.47132 -0.944573 0
M  V30 117 C 12.0507 4.85986 -1.84699 0
M  V30 118 C 9.7357 4.88821 -1.15584 0
M  V30 119 C 11.7297 5.65314 -2.94446 0
M  V30 120 C 9.4167 5.67916 -2.25642 0
M  V30 121 C 10.4147 6.06073 -3.14905 0
M  V30 122 O 10.1027 6.83578 -4.23057 0
M  V30 123 H 9.8347 0.674971 -0.0372899 0
M  V30 124 H 12.3887 1.91037 -0.754599 0
M  V30 125 H 10.6187 3.72295 1.04564 0
M  V30 126 H 12.3077 3.99356 0.72592 0
M  V30 127 H 13.0737 4.54388 -1.69577 0
M  V30 128 H 8.9527 4.58595 -0.470279 0
M  V30 129 H 12.4967 5.95016 -3.64145 0
M  V30 130 H 8.3937 5.98927 -2.40742 0
M  V30 131 H 9.1617 7.01954 -4.20954 0
M  V30 132 N 11.8248 0.280983 1.55075 0
M  V30 133 C 12.7348 -0.61388 2.26426 0
M  V30 134 C 13.7508 -1.16521 1.29224 0
M  V30 135 O 14.9268 -1.19426 1.62171 0
M  V30 136 C 11.9918 -1.7788 2.9759 0
M  V30 137 C 11.0528 -1.26355 4.10284 0
M  V30 138 C 10.2858 -2.37295 4.78045 0
M  V30 139 O 10.5088 -3.56777 4.45047 0
M  V30 140 O 9.4428 -2.05119 5.65871 0
M  V30 141 H 13.2688 -0.0356932 3.03679 0
M  V30 142 H 10.8538 0.0481686 1.49322 0
M  V30 143 H 12.7358 -2.45791 3.42293 0
M  V30 144 H 11.4108 -2.34397 2.23249 0
M  V30 145 H 10.3178 -0.550735 3.70024 0
M  V30 146 H 11.6508 -0.744065 4.86543 0
M  V30 147 N 13.3029 -1.57598 0.00835791 0
M  V30 148 C 14.2499 -2.08945 -0.980346 0
M  V30 149 C 15.2199 -0.986738 -1.33614 0
M  V30 150 O 16.4049 -1.25968 -1.43306 0
M  V30 151 C 13.5449 -2.60425 -2.26435 0
M  V30 152 C 12.6579 -3.84628 -1.96685 0
M  V30 153 C 11.7929 -4.24579 -3.19228 0
M  V30 154 C 10.8319 -5.41596 -2.85202 0
M  V30 155 N 9.9689 -5.768 -4.00307 0
M  V30 156 H 14.8089 -2.93148 -0.535551 0
M  V30 157 H 12.3459 -1.44912 -0.252776 0
M  V30 158 H 14.3039 -2.88354 -3.01509 0
M  V30 159 H 12.9339 -1.79083 -2.68568 0
M  V30 160 H 11.9859 -3.63556 -1.11942 0
M  V30 161 H 13.2979 -4.69796 -1.67611 0
M  V30 162 H 12.4519 -4.53834 -4.02641 0
M  V30 163 H 11.1909 -3.38137 -3.51447 0
M  V30 164 H 10.1959 -5.12056 -2.00198 0
M  V30 165 H 11.4209 -6.29721 -2.54222 0
M  V30 166 H 9.3669 -4.93316 -4.32407 0
M  V30 167 H 9.2839 -6.5656 -3.74786 0
M  V30 168 H 10.5519 -6.10652 -4.84484 0
M  V30 169 N 14.781 0.264519 -1.55364 0
M  V30 170 C 16.028 0.994986 -1.7637 0
M  V30 171 C 16.356 1.85976 -0.5695 0
M  V30 172 O 15.611 1.90509 0.44776 0
M  V30 173 C 15.91 1.9004 -3.02687 0
M  V30 174 C 15.576 1.19243 -4.34847 0
M  V30 175 C 14.238 0.996709 -4.70764 0
M  V30 176 C 16.59 0.689296 -5.16622 0
M  V30 177 C 13.918 0.285261 -5.86006 0
M  V30 178 C 16.27 -0.00860079 -6.32599 0
M  V30 179 C 14.934 -0.215963 -6.67151 0
M  V30 180 H 14.204 0.364091 -0.645383 0
M  V30 181 H 16.851 0.266543 -1.89636 0
M  V30 182 H 15.156 2.69533 -2.84357 0
M  V30 183 H 16.853 2.46695 -3.16137 0
M  V30 184 H 13.443 1.3549 -4.06621 0
M  V30 185 H 17.627 0.828108 -4.89342 0
M  V30 186 H 12.883 0.113961 -6.11294 0
M  V30 187 H 17.057 -0.406186 -6.95214 0
M  V30 188 H 14.684 -0.769217 -7.56298 0
M  V30 189 N 16.2591 1.48442 0.529413 0
M  V30 190 C 17.1691 1.6569 1.66084 0
M  V30 191 C 18.1851 0.539432 1.65427 0
M  V30 192 O 19.3611 0.810572 1.84368 0
M  V30 193 C 16.4261 1.69315 3.02545 0
M  V30 194 C 15.4871 2.92694 3.14052 0
M  V30 195 C 14.7201 2.96137 4.44003 0
M  V30 196 O 14.9431 2.07973 5.31134 0
M  V30 197 O 13.8771 3.88312 4.59888 0
M  V30 198 H 17.7031 2.61483 1.54469 0
M  V30 199 H 15.2881 1.3185 0.702567 0
M  V30 200 H 17.1701 1.74217 3.83701 0
M  V30 201 H 15.8451 0.766966 3.14483 0
M  V30 202 H 14.7521 2.93324 2.32189 0
M  V30 203 H 16.0851 3.84699 3.0703 0
M  V30 204 N 17.7372 -0.778329 1.37039 0
M  V30 205 C 18.6472 -1.92253 1.34446 0
M  V30 206 C 19.6632 -1.72267 0.244991 0
M  V30 207 O 20.8392 -1.95615 0.479258 0
M  V30 208 C 17.9042 -3.27282 1.144 0
M  V30 209 C 16.9652 -3.59969 2.33925 0
M  V30 210 C 16.1982 -4.88555 2.14825 0
M  V30 211 O 16.4212 -5.59113 1.12912 0
M  V30 212 O 15.3552 -5.20153 3.02861 0
M  V30 213 H 19.1812 -1.97392 2.30803 0
M  V30 214 H 16.7662 -0.920154 1.17701 0
M  V30 215 H 18.6482 -4.08062 1.05182 0
M  V30 216 H 17.3232 -3.23011 0.211124 0
M  V30 217 H 16.2302 -2.7945 2.48714 0
M  V30 218 H 17.5632 -3.68976 3.25757 0
M  V30 219 N 19.2153 -1.21501 -1.00376 0
M  V30 220 C 20.4613 -1.03452 -1.74429 0
M  V30 221 C 20.7943 0.430764 -1.89362 0
M  V30 222 O 20.0693 1.31962 -1.42886 0
M  V30 223 C 20.3523 -1.73375 -3.15615 0
M  V30 224 C 20.2053 -3.27431 -3.08397 0
M  V30 225 C 21.5243 -1.47732 -4.14564 0
M  V30 226 H 18.6433 -0.377226 -0.633143 0
M  V30 227 H 21.2853 -1.49693 -1.17013 0
M  V30 228 H 19.4353 -1.34064 -3.64636 0
M  V30 229 H 21.1073 -3.76119 -2.67081 0
M  V30 230 H 19.3503 -3.5767 -2.45468 0
M  V30 231 H 20.0213 -3.71524 -4.08258 0
M  V30 232 H 22.4973 -1.8186 -3.74254 0
M  V30 233 H 21.3733 -1.99169 -5.11491 0
M  V30 234 H 21.6343 -0.407589 -4.40217 0
M  V30 235 N 20.6934 1.19889 -1.02296 0
M  V30 236 C 21.6434 2.20777 -0.56934 0
M  V30 237 C 22.6274 1.56379 0.378741 0
M  V30 238 O 23.8194 1.75859 0.200673 0
M  V30 239 C 20.9484 3.43196 0.0845077 0
M  V30 240 C 20.0344 4.14749 -0.88566 0
M  V30 241 N 20.4254 4.62584 -2.04573 0
M  V30 242 C 18.7234 4.40347 -0.707835 0
M  V30 243 C 19.4244 5.17466 -2.65714 0
M  V30 244 N 18.4004 5.0791 -1.93723 0
M  V30 245 H 22.2024 2.55434 -1.45365 0
M  V30 246 H 19.7164 1.35897 -0.88915 0
M  V30 247 H 21.7134 4.14707 0.427067 0
M  V30 248 H 20.3734 3.10042 0.964574 0
M  V30 249 H 21.3844 4.57597 -2.4254 0
M  V30 250 H 18.0614 4.17317 0.12364 0
M  V30 251 H 19.4514 5.64808 -3.63925 0
M  V30 252 N 22.1715 0.800033 1.35784 0
M  V30 253 C 23.4195 0.376597 1.9856 0
M  V30 254 C 23.7405 -1.05812 1.63795 0
M  V30 255 O 23.0105 -1.73103 0.917171 0
M  V30 256 H 21.5905 0.136261 0.734467 0
M  V30 257 H 24.2525 1.02442 1.65806 0
M  V30 258 H 23.3485 0.477002 3.08433 0
M  V30 259 N 23.6496 -1.47581 0.552962 0
M  V30 260 C 24.8986 -2.01684 0.0251995 0
M  V30 261 C 25.2116 -1.43317 -1.33115 0
M  V30 262 O 26.4176 -1.89057 -1.94858 0
M  V30 263 C 24.8736 -3.599 -0.00542052 0
M  V30 264 C 24.4816 -4.27257 1.34742 0
M  V30 265 C 26.2256 -4.21768 -0.4808 0
M  V30 266 C 24.1326 -5.77467 1.27614 0
M  V30 267 H 23.0626 -0.753979 0.00565033 0
M  V30 268 H 25.7136 -1.69616 0.70018 0
M  V30 269 H 24.0956 -3.88911 -0.745961 0
M  V30 270 H 25.2696 -4.09893 2.10534 0
M  V30 271 H 23.5846 -3.77358 1.76039 0
M  V30 272 H 26.1816 -5.31838 -0.55246 0
M  V30 273 H 26.5246 -3.88651 -1.49184 0
M  V30 274 H 27.0576 -3.97273 0.204752 0
M  V30 275 H 23.7966 -6.15196 2.26304 0
M  V30 276 H 23.3166 -5.9718 0.55996 0
M  V30 277 H 24.9956 -6.3959 0.976421 0
M  V30 278 N 25.1277 -0.289203 -1.54924 0
M  V30 279 C 26.0577 0.58549 -2.2604 0
M  V30 280 C 27.0387 1.14753 -1.25562 0
M  V30 281 O 28.2237 1.17906 -1.54311 0
M  V30 282 C 25.3537 1.76305 -2.99222 0
M  V30 283 C 24.3077 1.33191 -4.06748 0
M  V30 284 C 23.6337 2.5937 -4.6758 0
M  V30 285 C 24.9337 0.471775 -5.20165 0
M  V30 286 H 26.6277 -0.00763532 -2.99399 0
M  V30 287 H 24.1737 -0.00511229 -1.43999 0
M  V30 288 H 26.1267 2.38097 -3.47689 0
M  V30 289 H 24.8507 2.38223 -2.23422 0
M  V30 290 H 23.5097 0.737121 -3.59113 0
M  V30 291 H 23.1577 3.19576 -3.88433 0
M  V30 292 H 22.8577 2.31228 -5.40192 0
M  V30 293 H 24.3817 3.21985 -5.18804 0
M  V30 294 H 25.7957 0.995056 -5.64599 0
M  V30 295 H 24.1927 0.284639 -5.99425 0
M  V30 296 H 25.2627 -0.506041 -4.82252 0
M  V30 297 N 26.6058 1.57591 -0.0167156 0
M  V30 298 C 27.5388 2.04944 1.00366 0
M  V30 299 C 28.5168 0.942648 1.32487 0
M  V30 300 O 29.7008 1.21205 1.44367 0
M  V30 301 C 26.8278 2.46109 2.32697 0
M  V30 302 C 25.8738 3.67686 2.16123 0
M  V30 303 S 26.7068 5.14882 1.47161 0
M  V30 304 C 27.8628 5.59332 2.80888 0
M  V30 305 H 28.0958 2.91172 0.600528 0
M  V30 306 H 25.6288 1.53168 0.194632 0
M  V30 307 H 27.5868 2.70493 3.08778 0
M  V30 308 H 26.2478 1.6025 2.70146 0
M  V30 309 H 25.4408 3.94296 3.13922 0
M  V30 310 H 25.0428 3.43391 1.48185 0
M  V30 311 H 27.3348 5.62814 3.77156 0
M  V30 312 H 28.2778 6.5905 2.58958 0
M  V30 313 H 28.6858 4.86942 2.85565 0
M  V30 314 N 28.0839 -0.256276 1.55502 0
M  V30 315 C 29.3139 -1.00196 1.80677 0
M  V30 316 C 29.7219 -1.79805 0.588797 0
M  V30 317 O 29.0649 -1.78055 -0.451883 0
M  V30 318 C 29.1269 -1.99515 2.99055 0
M  V30 319 C 28.7909 -1.38688 4.35448 0
M  V30 320 C 29.7879 -0.794079 5.138 0
M  V30 321 C 27.4729 -1.40906 4.82132 0
M  V30 322 C 29.4669 -0.231562 6.36979 0
M  V30 323 C 27.1539 -0.842684 6.05262 0
M  V30 324 C 28.1519 -0.254953 6.82524 0
M  V30 325 O 27.8399 0.3027 8.0333 0
M  V30 326 H 27.5719 -0.300919 0.60533 0
M  V30 327 H 30.1259 -0.287307 2.03381 0
M  V30 328 H 28.3559 -2.74785 2.72084 0
M  V30 329 H 30.0449 -2.60349 3.11405 0
M  V30 330 H 30.8109 -0.769519 4.78856 0
M  V30 331 H 26.6899 -1.85591 4.21992 0
M  V30 332 H 30.2339 0.227816 6.97228 0
M  V30 333 H 26.1309 -0.86454 6.39684 0
M  V30 334 H 26.8989 0.193662 8.18271 0
M  V30 335 N 29.562 -1.4872 -0.521534 0
M  V30 336 C 30.509 -1.63871 -1.62527 0
M  V30 337 C 31.479 -0.480559 -1.58996 0
M  V30 338 O 32.664 -0.705085 -1.77294 0
M  V30 339 C 29.804 -1.69227 -3.00759 0
M  V30 340 C 28.917 -2.96207 -3.14461 0
M  V30 341 C 28.052 -2.92671 -4.43303 0
M  V30 342 C 27.091 -4.14318 -4.50563 0
M  V30 343 N 26.228 -4.0881 -5.70805 0
M  V30 344 H 31.068 -2.58123 -1.48918 0
M  V30 345 H 28.605 -1.28 -0.724878 0
M  V30 346 H 30.563 -1.70314 -3.80853 0
M  V30 347 H 29.193 -0.784586 -3.1312 0
M  V30 348 H 28.245 -3.04826 -2.27564 0
M  V30 349 H 29.557 -3.86192 -3.15686 0
M  V30 350 H 28.711 -2.92206 -5.31696 0
M  V30 351 H 27.45 -2.00429 -4.44612 0
M  V30 352 H 26.455 -4.15049 -3.60575 0
M  V30 353 H 27.68 -5.07729 -4.50986 0
M  V30 354 H 25.626 -3.19394 -5.72995 0
M  V30 355 H 25.543 -4.92509 -5.7356 0
M  V30 356 H 26.811 -4.12418 -6.61462 0
M  V30 357 N 31.0401 0.771051 -1.3745 0
M  V30 358 C 32.3171 1.519 -1.23231 0
M  V30 359 C 32.6971 2.10383 0.173809 0
M  V30 360 O 32.0451 1.95583 1.18151 0
M  V30 361 C 32.2551 2.59933 -2.32886 0
M  V30 362 C 33.6031 3.27316 -2.70461 0
M  V30 363 O 34.6271 2.70228 -2.32068 0
M  V30 364 O 33.4861 4.30531 -3.36608 0
M  V30 365 H 30.5801 0.672803 -0.480901 0
M  V30 366 H 33.1261 0.807957 -1.49232 0
M  V30 367 H 31.8981 2.14842 -3.27045 0
M  V30 368 H 31.5211 3.38637 -2.08353 0
M  V30 369 N 32.5182 1.22032 0.997298 0
M  V30 370 C 33.7652 1.04222 1.73621 0
M  V30 371 C 34.0932 -0.423264 1.89839 0
M  V30 372 O 33.3482 -1.3302 1.43542 0
M  V30 373 C 33.6472 1.69345 3.14733 0
M  V30 374 C 33.3132 3.19226 3.18442 0
M  V30 375 C 31.9752 3.60124 3.19161 0
M  V30 376 C 34.3272 4.15181 3.15078 0
M  V30 377 C 31.6552 4.95467 3.14212 0
M  V30 378 C 34.0072 5.50495 3.1167 0
M  V30 379 C 32.6712 5.90779 3.10703 0
M  V30 380 H 31.9412 0.381374 0.635323 0
M  V30 381 H 34.5882 1.51732 1.16831 0
M  V30 382 H 32.8932 1.14147 3.74803 0
M  V30 383 H 34.5902 1.53059 3.7064 0
M  V30 384 H 31.1802 2.86659 3.18629 0
M  V30 385 H 35.3642 3.84605 3.13676 0
M  V30 386 H 30.6202 5.25916 3.11805 0
M  V30 387 H 34.7942 6.24576 3.08022 0
M  V30 388 H 32.4212 6.9562 3.06622 0
M  V30 389 N 33.9963 -1.19345 1.0293 0
M  V30 390 C 35.2423 -1.89318 0.727083 0
M  V30 391 C 35.5753 -1.79446 -0.742483 0
M  V30 392 O 34.8503 -1.1871 -1.54072 0
M  V30 393 C 35.1333 -3.40238 1.17942 0
M  V30 394 C 34.9863 -3.58979 2.71024 0
M  V30 395 C 36.3053 -4.33479 0.760548 0
M  V30 396 H 33.4243 -0.687475 0.265606 0
M  V30 397 H 36.0663 -1.40477 1.2793 0
M  V30 398 H 34.2163 -3.81964 0.709608 0
M  V30 399 H 35.8883 -3.26421 3.25955 0
M  V30 400 H 34.1313 -3.02018 3.11396 0
M  V30 401 H 34.8023 -4.64823 2.9773 0
M  V30 402 H 37.2783 -3.99469 1.16464 0
M  V30 403 H 36.1543 -5.37664 1.10493 0
M  V30 404 H 36.4153 -4.40813 -0.337063 0
M  V30 405 N 35.4744 -0.807222 -1.35358 0
M  V30 406 C 36.4214 -0.216037 -2.29787 0
M  V30 407 C 37.3914 0.650278 -1.52842 0
M  V30 408 O 38.5764 0.595227 -1.81278 0
M  V30 409 C 35.7164 0.628893 -3.39321 0
M  V30 410 C 34.8294 -0.257927 -4.31229 0
M  V30 411 C 33.9644 0.595069 -5.27856 0
M  V30 412 C 33.0034 -0.292111 -6.11403 0
M  V30 413 N 32.1404 0.520895 -7.00165 0
M  V30 414 H 36.9804 -1.02671 -2.79755 0
M  V30 415 H 34.5174 -0.517839 -1.37684 0
M  V30 416 H 36.4754 1.13393 -4.01494 0
M  V30 417 H 35.1054 1.40482 -2.90628 0
M  V30 418 H 34.1574 -0.881076 -3.70056 0
M  V30 419 H 35.4694 -0.940759 -4.89848 0
M  V30 420 H 34.6234 1.16522 -5.95405 0
M  V30 421 H 33.3624 1.31146 -4.69736 0
M  V30 422 H 32.3674 -0.874525 -5.428 0
M  V30 423 H 33.5924 -1.00638 -6.71602 0
M  V30 424 H 31.5384 1.22125 -6.44532 0
M  V30 425 H 31.4554 -0.103877 -7.55929 0
M  V30 426 H 32.7234 1.0743 -7.72062 0
M  V30 427 N 36.9525 1.47285 -0.560781 0
M  V30 428 C 38.1825 2.06555 -0.0429638 0
M  V30 429 C 38.5905 1.41339 1.25777 0
M  V30 430 O 37.9335 0.505182 1.76617 0
M  V30 431 C 37.9955 3.58827 0.219887 0
M  V30 432 C 37.6595 4.46105 -0.991944 0
M  V30 433 C 38.6565 4.84 -1.89843 0
M  V30 434 C 36.3415 4.87567 -1.20762 0
M  V30 435 C 38.3355 5.6216 -3.00425 0
M  V30 436 C 36.0225 5.65491 -2.31653 0
M  V30 437 C 37.0205 6.02699 -3.21315 0
M  V30 438 O 36.7085 6.79052 -4.30283 0
M  V30 439 H 36.4405 0.674537 -0.0444468 0
M  V30 440 H 38.9945 1.90225 -0.774818 0
M  V30 441 H 37.2245 3.73383 1.00609 0
M  V30 442 H 38.9135 4.00103 0.683522 0
M  V30 443 H 39.6795 4.52564 -1.74387 0
M  V30 444 H 35.5585 4.5807 -0.518893 0
M  V30 445 H 39.1025 5.9112 -3.70436 0
M  V30 446 H 34.9995 5.9634 -2.47081 0
M  V30 447 H 35.7675 6.9745 -4.28376 0
M  V30 448 N 38.4306 0.297415 1.54768 0
M  V30 449 C 39.6766 -0.306263 2.01081 0
M  V30 450 C 40.0316 -1.518 1.18214 0
M  V30 451 O 39.3246 -1.89967 0.249613 0
M  V30 452 C 39.5186 -0.717561 3.50123 0
M  V30 453 C 39.3476 0.45277 4.47415 0
M  V30 454 C 38.1176 0.943651 4.9641 0
M  V30 455 C 40.3156 1.29657 4.97688 0
M  V30 456 N 38.2976 2.08112 5.77549 0
M  V30 457 C 39.6686 2.28158 5.76493 0
M  V30 458 C 41.7236 1.32735 4.79881 0
M  V30 459 C 40.4266 3.29509 6.39387 0
M  V30 460 C 42.4526 2.32943 5.43591 0
M  V30 461 C 41.8146 3.30174 6.22225 0
M  V30 462 H 37.9136 -0.0766274 0.778237 0
M  V30 463 H 40.4976 0.426515 1.89971 0
M  V30 464 H 38.6686 -1.41952 3.6153 0
M  V30 465 H 40.4006 -1.30047 3.83236 0
M  V30 466 H 37.1556 0.51922 4.70745 0
M  V30 467 H 37.5796 2.65414 6.22803 0
M  V30 468 H 42.2216 0.589375 4.18672 0
M  V30 469 H 39.9396 4.04228 6.99732 0
M  V30 470 H 43.5256 2.36094 5.31743 0
M  V30 471 H 42.4056 4.06445 6.7065 0
M  V30 472 N 39.9087 -1.5758 0.0250728 0
M  V30 473 C 41.1857 -1.82917 -0.692873 0
M  V30 474 C 41.5657 -0.908137 -1.90568 0
M  V30 475 O 40.9137 0.0372298 -2.2847 0
M  V30 476 C 41.1237 -3.32034 -1.07492 0
M  V30 477 C 42.4717 -3.98406 -1.46826 0
M  V30 478 O 43.4957 -3.36505 -1.16801 0
M  V30 479 O 42.3547 -5.07497 -2.02754 0
M  V30 480 H 39.4487 -0.754079 -0.33955 0
M  V30 481 H 41.9947 -1.69619 0.0524456 0
M  V30 482 H 40.7667 -3.90728 -0.211552 0
M  V30 483 H 40.3897 -3.50424 -1.87854 0
M  V30 484 N 41.3868 0.248026 -1.55636 0
M  V30 485 C 42.3348 1.32683 -1.91045 0
M  V30 486 C 43.3288 1.49883 -0.789401 0
M  V30 487 O 44.5348 1.51371 -0.974007 0
M  V30 488 H 40.9098 0.444272 -0.606734 0
M  V30 489 H 42.8808 1.00085 -2.81115 0
M  V30 490 C 41.6298 2.6755 -2.22064 0
M  V30 491 H 40.9528 2.55114 -3.07826 0
M  V30 492 H 42.3928 3.41912 -2.50743 0
M  V30 493 C 40.8518 3.20556 -1.0366 0
M  V30 494 O 41.3818 4.00695 -0.284016 0
M  V30 495 N 39.5878 2.78568 -0.82753 0
M  V30 496 H 39.1348 2.1351 -1.44123 0
M  V30 497 H 39.0928 3.14378 -0.0369803 0
M  V30 498 N 42.8649 1.48995 0.513639 0
M  V30 499 C 44.1109 1.58076 1.27042 0
M  V30 500 C 44.4439 0.261026 1.92438 0
M  V30 501 O 43.7189 -0.734393 1.80103 0
M  V30 502 C 44.0019 2.73091 2.34719 0
M  V30 503 C 43.8549 4.14821 1.73907 0
M  V30 504 C 45.1739 2.83796 3.36375 0
M  V30 505 H 42.2929 0.575391 0.460536 0
M  V30 506 H 44.9349 1.81232 0.570516 0
M  V30 507 H 43.0849 2.53479 2.94416 0
M  V30 508 H 44.7569 4.45917 1.18135 0
M  V30 509 H 42.9999 4.21058 1.0437 0
M  V30 510 H 43.6709 4.91147 2.51949 0
M  V30 511 H 46.1469 3.01611 2.86653 0
M  V30 512 H 45.0229 3.65971 4.09093 0
M  V30 513 H 45.2839 1.92624 3.9793 0
M  V30 514 N 44.343 -0.763751 1.37857 0
M  V30 515 C 45.253 -1.90817 1.36478 0
M  V30 516 C 46.269 -1.71997 0.263248 0
M  V30 517 O 47.445 -1.95095 0.499979 0
M  V30 518 C 44.51 -3.2605 1.17864 0
M  V30 519 C 43.571 -3.57467 2.3773 0
M  V30 520 C 42.804 -4.86249 2.19995 0
M  V30 521 O 43.027 -5.57884 1.18836 0
M  V30 522 O 41.961 -5.16911 3.08361 0
M  V30 523 H 45.787 -1.94933 2.32884 0
M  V30 524 H 43.372 -0.907619 1.1867 0
M  V30 525 H 45.254 -4.06924 1.09504 0
M  V30 526 H 43.929 -3.22769 0.245372 0
M  V30 527 H 42.836 -2.76796 2.51664 0
M  V30 528 H 44.169 -3.655 3.29652 0
M  V30 529 N 45.8211 -1.22559 -0.990812 0
M  V30 530 C 46.7841 -0.998863 -2.0629 0
M  V30 531 C 47.7841 0.0354834 -1.60761 0
M  V30 532 O 48.9741 -0.203231 -1.7301 0
M  V30 533 C 46.1061 -0.509203 -3.37076 0
M  V30 534 H 47.2991 -1.95014 -2.27837 0
M  V30 535 H 44.8521 -1.04456 -1.16269 0
M  V30 536 H 45.5871 0.446335 -3.21214 0
M  V30 537 H 45.3721 -1.25547 -3.71457 0
M  V30 538 H 46.8621 -0.370888 -4.1595 0
M  V30 539 N 47.2992 1.18797 -1.03562 0
M  V30 540 C 48.5462 1.8865 -0.736023 0
M  V30 541 C 48.8742 1.80041 0.735889 0
M  V30 542 O 48.1292 1.19179 1.55225 0
M  V30 543 C 48.4282 3.38692 -1.14117 0
M  V30 544 C 48.0942 3.67504 -2.6125 0
M  V30 545 C 46.7562 3.75078 -3.01447 0
M  V30 546 C 49.1082 3.80293 -3.56408 0
M  V30 547 C 46.4362 3.92915 -4.35701 0
M  V30 548 C 48.7882 3.99645 -4.90374 0
M  V30 549 C 47.4522 4.05453 -5.30249 0
M  V30 550 H 46.7222 0.690321 -0.26933 0
M  V30 551 H 49.3692 1.40641 -1.29971 0
M  V30 552 H 47.6742 3.88645 -0.496202 0
M  V30 553 H 49.3712 3.91072 -0.886789 0
M  V30 554 H 45.9612 3.62223 -2.29113 0
M  V30 555 H 50.1452 3.73779 -3.26501 0
M  V30 556 H 45.4012 3.95653 -4.66121 0
M  V30 557 H 49.5752 4.08482 -5.64017 0
M  V30 558 H 47.2022 4.19027 -6.34288 0
M  V30 559 N 48.7773 0.814389 1.34928 0
M  V30 560 C 49.7093 0.187834 2.28429 0
M  V30 561 C 50.7223 -0.617374 1.5064 0
M  V30 562 O 51.9113 -0.448454 1.72775 0
M  V30 563 C 49.0113 -0.755962 3.30361 0
M  V30 564 C 48.1843 0.00456686 4.374 0
M  V30 565 C 47.2433 -0.858876 5.19143 0
M  V30 566 O 46.2693 -0.306968 5.68372 0
M  V30 567 N 47.4713 -2.17988 5.38016 0
M  V30 568 H 50.2363 0.991105 2.82838 0
M  V30 569 H 47.7973 0.670561 1.4736 0
M  V30 570 H 49.7893 -1.338 3.81942 0
M  V30 571 H 48.3593 -1.46001 2.7641 0
M  V30 572 H 47.5793 0.767865 3.86649 0
M  V30 573 H 48.8673 0.528422 5.06049 0
M  V30 574 H 48.2653 -2.65212 4.99679 0
M  V30 575 H 46.8223 -2.71098 5.92747 0
M  V30 576 N 50.2554 -1.46986 0.568584 0
M  V30 577 C 51.2184 -2.28624 -0.162366 0
M  V30 578 C 52.2184 -1.37596 -0.832103 0
M  V30 579 O 53.4084 -1.60115 -0.68622 0
M  V30 580 C 50.5404 -3.17596 -1.23878 0
M  V30 581 H 51.7334 -2.94722 0.554899 0
M  V30 582 H 49.2864 -1.52863 0.325976 0
M  V30 583 H 50.0214 -2.56214 -1.98808 0
M  V30 584 H 49.8064 -3.846 -0.763219 0
M  V30 585 H 51.2964 -3.79078 -1.75185 0
M  V30 586 N 51.7335 -0.305618 -1.54608 0
M  V30 587 C 53.1495 0.0476228 -1.59529 0
M  V30 588 C 53.3495 1.52025 -1.32252 0
M  V30 589 O 52.4055 2.27368 -1.09818 0
M  V30 590 C 53.7185 -0.354471 -2.98603 0
M  V30 591 C 55.2665 -0.303622 -3.11524 0
M  V30 592 C 55.7415 -0.680608 -4.52915 0
M  V30 593 N 57.2325 -0.63332 -4.5885 0
M  V30 594 C 57.9675 -0.897432 -5.66334 0
M  V30 595 N 57.4635 -1.22775 -6.81834 0
M  V30 596 N 59.2565 -0.824186 -5.56025 0
M  V30 597 H 51.4075 -1.2653 -1.70599 0
M  V30 598 H 53.6705 -0.513291 -0.797017 0
M  V30 599 H 53.3765 -1.3798 -3.23503 0
M  V30 600 H 53.2505 0.289568 -3.76087 0
M  V30 601 H 55.6375 0.712472 -2.8637 0
M  V30 602 H 55.7185 -0.982348 -2.36185 0
M  V30 603 H 55.3625 -1.69453 -4.78799 0
M  V30 604 H 55.2925 0.0202385 -5.26596 0
M  V30 605 H 57.7835 -0.389138 -3.75891 0
M  V30 606 H 58.0965 -1.41513 -7.59733 0
M  V30 607 H 56.4415 -1.26583 -6.83375 0
M  V30 608 H 59.6325 -0.565748 -4.64669 0
M  V30 609 H 59.8055 -1.03338 -6.39707 0
M  V30 610 N 53.2116 1.57565 -0.0334293 0
M  V30 611 C 54.6226 1.79746 0.504798 0
M  V30 612 C 54.9736 0.944091 1.71992 0
M  V30 613 O 54.0986 0.155694 2.15839 0
M  V30 614 C 54.6936 3.25997 0.922567 0
M  V30 615 C 53.2526 3.49159 1.40588 0
M  V30 616 C 52.3996 2.74785 0.372633 0
M  V30 617 H 55.3506 1.56565 -0.259436 0
M  V30 618 H 55.3716 3.35945 1.78666 0
M  V30 619 H 54.8836 3.88081 0.0379825 0
M  V30 620 H 52.9846 2.92332 2.31025 0
M  V30 621 H 53.0976 4.57873 1.41028 0
M  V30 622 H 51.4616 2.40391 0.841672 0
M  V30 623 H 52.2446 3.39587 -0.503559 0
M  V30 624 N 54.6897 -0.239769 1.55765 0
M  V30 625 C 55.9667 -0.990056 1.68693 0
M  V30 626 C 56.3467 -2.03107 0.5754 0
M  V30 627 O 55.6947 -2.24604 -0.42017 0
M  V30 628 C 55.9047 -1.61696 3.09282 0
M  V30 629 C 57.2527 -2.11613 3.6811 0
M  V30 630 O 58.2767 -1.71624 3.12127 0
M  V30 631 O 57.1357 -2.85057 4.66267 0
M  V30 632 H 54.2297 -0.461299 0.686391 0
M  V30 633 H 56.7757 -0.232991 1.68093 0
M  V30 634 H 55.5477 -0.864357 3.81634 0
M  V30 635 H 55.1707 -2.44005 3.13923 0
M  V30 636 N 56.1678 -1.49265 -0.50573 0
M  V30 637 C 57.4448 -1.49012 -1.26707 0
M  V30 638 C 57.8248 -0.215205 -2.1 0
M  V30 639 O 57.1728 0.802547 -2.13943 0
M  V30 640 C 57.3828 -2.7663 -2.12783 0
M  V30 641 C 58.7308 -3.25932 -2.72127 0
M  V30 642 O 59.7548 -2.77715 -2.23054 0
M  V30 643 O 58.6138 -4.09897 -3.61451 0
M  V30 644 H 55.7078 -0.596197 -0.57313 0
M  V30 645 H 58.2538 -1.61524 -0.52039 0
M  V30 646 H 57.0258 -3.60916 -1.5118 0
M  V30 647 H 56.6488 -2.66956 -2.94653 0
M  V30 648 N 57.6459 0.756429 -1.3826 0
M  V30 649 C 58.5759 1.88374 -1.37976 0
M  V30 650 C 59.5569 1.68311 -0.246082 0
M  V30 651 O 60.7419 1.88944 -0.44874 0
M  V30 652 C 57.8719 3.25864 -1.20125 0
M  V30 653 C 56.8259 3.60523 -2.30666 0
M  V30 654 C 56.1519 4.9672 -1.97923 0
M  V30 655 C 57.4519 3.65692 -3.72916 0
M  V30 656 H 59.1459 1.88869 -2.32312 0
M  V30 657 H 56.6919 0.907272 -1.11824 0
M  V30 658 H 58.6449 4.0438 -1.18552 0
M  V30 659 H 57.3689 3.25841 -0.222498 0
M  V30 660 H 56.0279 2.84324 -2.3142 0
M  V30 661 H 55.6759 4.93253 -0.985393 0
M  V30 662 H 55.3759 5.20878 -2.71955 0
M  V30 663 H 56.8999 5.77618 -1.97964 0
M  V30 664 H 58.3139 4.34328 -3.74208 0
M  V30 665 H 56.7109 4.01358 -4.4613 0
M  V30 666 H 57.7809 2.65987 -4.05436 0
M  V30 667 N 59.124 1.23083 0.984299 0
M  V30 668 C 60.37 1.06214 1.72761 0
M  V30 669 C 60.703 -0.400584 1.90024 0
M  V30 670 O 59.978 -1.29672 1.44967 0
M  V30 671 C 60.261 1.78375 3.12817 0
M  V30 672 C 60.114 3.32296 3.03149 0
M  V30 673 C 61.433 1.54309 4.12161 0
M  V30 674 H 58.552 0.387251 0.627061 0
M  V30 675 H 61.194 1.51536 1.14616 0
M  V30 676 H 59.344 1.39848 3.62457 0
M  V30 677 H 61.016 3.8032 2.61064 0
M  V30 678 H 59.259 3.6153 2.39747 0
M  V30 679 H 59.93 3.77972 4.02295 0
M  V30 680 H 62.406 1.87791 3.71314 0
M  V30 681 H 61.282 2.07281 5.08258 0
M  V30 682 H 61.543 0.477572 4.39513 0
M  V30 683 N 60.6021 -1.18246 1.0419 0
M  V30 684 C 61.8511 -1.87588 0.741194 0
M  V30 685 C 62.1641 -1.81303 -0.734066 0
M  V30 686 O 63.3701 -2.46019 -1.14834 0
M  V30 687 C 61.8261 -3.36538 1.27555 0
M  V30 688 C 61.4341 -3.51349 2.77953 0
M  V30 689 C 63.1781 -4.11273 1.05143 0
M  V30 690 C 61.0851 -4.94265 3.2474 0
M  V30 691 H 60.0151 -0.702622 0.273565 0
M  V30 692 H 62.6661 -1.33601 1.25789 0
M  V30 693 H 61.0481 -3.9 0.686703 0
M  V30 694 H 62.2221 -3.08153 3.42605 0
M  V30 695 H 60.5371 -2.90022 2.98791 0
M  V30 696 H 63.1341 -5.16689 1.37611 0
M  V30 697 H 63.4771 -4.16298 -0.0112774 0
M  V30 698 H 64.0101 -3.63987 1.60495 0
M  V30 699 H 60.7491 -4.94408 4.30396 0
M  V30 700 H 60.2691 -5.38172 2.64823 0
M  V30 701 H 61.9481 -5.62987 3.18834 0
M  V30 702 N 62.0802 -0.821533 -1.34494 0
M  V30 703 C 63.0432 -0.247847 -2.27856 0
M  V30 704 C 64.0432 0.573453 -1.50227 0
M  V30 705 O 65.2332 0.389759 -1.69784 0
M  V30 706 C 62.3652 0.652698 -3.34593 0
M  V30 707 H 63.5582 -1.07146 -2.80107 0
M  V30 708 H 61.1112 -0.593291 -1.44602 0
M  V30 709 H 61.8462 1.49943 -2.87555 0
M  V30 710 H 61.6312 0.065292 -3.92046 0
M  V30 711 H 63.1212 1.04793 -4.04238 0
M  V30 712 N 63.5583 1.46682 -0.576371 0
M  V30 713 C 64.7863 2.06798 -0.0649635 0
M  V30 714 C 65.2013 1.42612 1.23723 0
M  V30 715 O 64.5583 0.529203 1.74659 0
M  V30 716 C 64.6093 3.6132 0.114202 0
M  V30 717 O 64.3303 4.23104 -1.13644 0
M  V30 718 C 65.8313 4.38349 0.66069 0
M  V30 719 H 63.0513 0.668778 -0.0545616 0
M  V30 720 H 65.5953 1.88404 -0.795237 0
M  V30 721 H 63.7503 3.79162 0.794673 0
M  V30 722 H 64.1643 5.15894 -0.946253 0
M  V30 723 H 65.6383 5.47081 0.73526 0
M  V30 724 H 66.1153 4.05953 1.67627 0
M  V30 725 H 66.7213 4.25297 0.0152951 0
M  V30 726 N 65.0364 0.313813 1.54444 0
M  V30 727 C 66.2664 -0.293491 2.04505 0
M  V30 728 C 66.6744 -1.47086 1.19005 0
M  V30 729 O 66.0174 -1.82481 0.211257 0
M  V30 730 C 66.0794 -0.800455 3.50475 0
M  V30 731 C 65.7434 0.253322 4.56297 0
M  V30 732 C 66.7404 1.08612 5.08428 0
M  V30 733 C 64.4254 0.398708 5.00715 0
M  V30 734 C 66.4194 2.05013 6.0353 0
M  V30 735 C 64.1064 1.36614 5.95634 0
M  V30 736 C 65.1044 2.19033 6.46926 0
M  V30 737 O 64.7924 3.14134 7.39983 0
M  V30 738 H 64.5244 -0.0658325 0.672787 0
M  V30 739 H 67.0784 0.455177 2.00293 0
M  V30 740 H 65.3084 -1.59987 3.52053 0
M  V30 741 H 66.9974 -1.32504 3.83663 0
M  V30 742 H 67.7634 0.984736 4.74898 0
M  V30 743 H 63.6424 -0.23289 4.60411 0
M  V30 744 H 67.1864 2.69382 6.4349 0
M  V30 745 H 63.0834 1.4682 6.28581 0
M  V30 746 H 63.8514 3.0926 7.57826 0
M  V30 747 N 66.5145 -1.57545 0.0417849 0
M  V30 748 C 67.9255 -1.80011 -0.495259 0
M  V30 749 C 68.2765 -0.953199 -1.71489 0
M  V30 750 O 67.4015 -0.167138 -2.15754 0
M  V30 751 C 67.9965 -3.26482 -0.905265 0
M  V30 752 C 66.5555 -3.499 -1.38734 0
M  V30 753 C 65.7025 -2.74979 -0.358056 0
M  V30 754 H 68.6535 -1.56425 0.267736 0
M  V30 755 H 68.6745 -3.36887 -1.76882 0
M  V30 756 H 68.1865 -3.88096 -0.017401 0
M  V30 757 H 66.2875 -2.93553 -2.29471 0
M  V30 758 H 66.4005 -4.58615 -1.38598 0
M  V30 759 H 64.7645 -2.40834 -0.828912 0
M  V30 760 H 65.5475 -3.39315 0.521561 0
M  V30 761 N 67.9926 0.231505 -1.5589 0
M  V30 762 C 68.9396 1.28682 -1.91598 0
M  V30 763 C 69.9096 1.47071 -0.771974 0
M  V30 764 O 71.0946 1.60802 -1.027 0
M  V30 765 C 68.2346 2.6342 -2.22944 0
M  V30 766 C 67.3476 2.52912 -3.50228 0
M  V30 767 C 66.4826 3.80106 -3.7107 0
M  V30 768 C 65.5216 3.64279 -4.91902 0
M  V30 769 N 64.6586 4.834 -5.09184 0
M  V30 770 H 69.4986 0.975305 -2.81588 0
M  V30 771 H 67.0356 0.470299 -1.39379 0
M  V30 772 H 68.9936 3.41869 -2.39126 0
M  V30 773 H 67.6236 2.92687 -1.36139 0
M  V30 774 H 66.6756 1.6595 -3.42294 0
M  V30 775 H 67.9876 2.37133 -4.38827 0
M  V30 776 H 67.1416 4.66999 -3.87295 0
M  V30 777 H 65.8806 3.98799 -2.80733 0
M  V30 778 H 64.8856 2.7577 -4.75637 0
M  V30 779 H 66.1106 3.47067 -5.83714 0
M  V30 780 H 64.0566 5.02425 -4.21788 0
M  V30 781 H 63.9736 4.70311 -5.91898 0
M  V30 782 H 65.2416 5.71747 -5.29835 0
M  V30 783 N 69.4707 1.49531 0.497807 0
M  V30 784 C 70.6957 1.63159 1.28039 0
M  V30 785 C 71.1207 0.30418 1.85624 0
M  V30 786 O 70.4787 -0.728618 1.66015 0
M  V30 787 C 70.5267 2.70537 2.38416 0
M  V30 788 O 69.6307 2.29931 3.42353 0
M  V30 789 H 68.9717 0.546001 0.377861 0
M  V30 790 H 71.5017 1.9574 0.59558 0
M  V30 791 H 71.5117 2.92802 2.84132 0
M  V30 792 H 70.1867 3.6689 1.95869 0
M  V30 793 H 68.7637 2.18009 3.02533 0
M  V30 794 N 70.9488 -0.749086 1.3866 0
M  V30 795 C 72.1968 -1.50535 1.34847 0
M  V30 796 C 72.5178 -1.94909 -0.0595016 0
M  V30 797 O 71.7878 -1.67973 -1.00806 0
M  V30 798 H 70.3678 -0.558395 0.49619 0
M  V30 799 H 73.0298 -0.890165 1.73384 0
M  V30 800 H 72.1258 -2.39413 2.00219 0
M  V30 801 N 72.4269 -1.23603 -0.977757 0
M  V30 802 C 73.6549 -1.09646 -1.75458 0
M  V30 803 C 74.0699 0.351859 -1.85492 0
M  V30 804 O 73.4269 1.24327 -1.336 0
M  V30 805 C 73.4779 -1.71895 -3.18016 0
M  V30 806 O 73.1989 -3.11063 -3.08498 0
M  V30 807 C 74.6999 -1.63415 -4.12081 0
M  V30 808 H 71.9199 -0.38359 -0.550545 0
M  V30 809 H 74.4639 -1.63507 -1.22824 0
M  V30 810 H 72.6189 -1.22061 -3.67668 0
M  V30 811 H 73.0329 -3.41305 -3.9826 0
M  V30 812 H 74.5069 -2.11669 -5.09804 0
M  V30 813 H 74.9839 -0.593462 -4.35172 0
M  V30 814 H 75.5899 -2.12628 -3.68334 0
M  V30 815 N 73.905 1.17692 -1.04816 0
M  V30 816 C 75.133 1.91786 -0.776254 0
M  V30 817 C 75.548 1.76604 0.667577 0
M  V30 818 O 74.905 1.10067 1.45573 0
M  V30 819 C 74.956 3.42967 -1.14263 0
M  V30 820 O 74.677 3.57678 -2.52978 0
M  V30 821 C 76.178 4.34144 -0.896311 0
M  V30 822 H 73.398 0.608624 -0.282519 0
M  V30 823 H 75.942 1.49268 -1.39783 0
M  V30 824 H 74.097 3.83245 -0.565874 0
M  V30 825 H 74.511 4.51319 -2.67229 0
M  V30 826 H 75.985 5.38744 -1.20244 0
M  V30 827 H 76.462 4.38876 0.168636 0
M  V30 828 H 77.068 3.99574 -1.45672 0
M  V30 829 N 75.3831 0.828654 1.34056 0
M  V30 830 C 76.6291 0.429279 1.98818 0
M  V30 831 C 76.9841 -0.998011 1.64492 0
M  V30 832 O 76.2771 -1.68652 0.909228 0
M  V30 833 C 76.4711 0.575226 3.52741 0
M  V30 834 C 76.3001 2.01515 4.02022 0
M  V30 835 C 75.0701 2.64825 4.30344 0
M  V30 836 C 77.2681 2.98261 4.18981 0
M  V30 837 N 75.2501 3.99998 4.65698 0
M  V30 838 C 76.6211 4.18356 4.57578 0
M  V30 839 C 78.6761 2.94802 4.01243 0
M  V30 840 C 77.3791 5.35454 4.80293 0
M  V30 841 C 79.4051 4.11121 4.25128 0
M  V30 842 C 78.7671 5.29969 4.64018 0
M  V30 843 H 74.8661 0.205304 0.754569 0
M  V30 844 H 77.4501 1.07457 1.62361 0
M  V30 845 H 75.6211 -0.0401962 3.88379 0
M  V30 846 H 77.3531 0.148292 4.04428 0
M  V30 847 H 74.1081 2.16027 4.21461 0
M  V30 848 H 74.5321 4.69653 4.87601 0
M  V30 849 H 79.1741 2.04054 3.70299 0
M  V30 850 H 76.8921 6.26755 5.10102 0
M  V30 851 H 80.4781 4.0985 4.12934 0
M  V30 852 H 79.3581 6.18479 4.82134 0
M  V30 853 N 76.8612 -1.46375 0.584142 0
M  V30 854 C 78.1072 -2.02678 0.0703716 0
M  V30 855 C 78.4402 -1.4545 -1.28678 0
M  V30 856 O 77.7152 -0.62014 -1.84349 0
M  V30 857 C 77.9982 -3.60099 0.00614674 0
M  V30 858 C 77.8512 -4.27709 1.3923 0
M  V30 859 C 79.1702 -4.34598 -0.693742 0
M  V30 860 H 76.2892 -0.736504 0.027047 0
M  V30 861 H 78.9312 -1.74501 0.751615 0
M  V30 862 H 77.0812 -3.84236 -0.574009 0
M  V30 863 H 78.7532 -4.14832 2.01773 0
M  V30 864 H 76.9962 -3.87016 1.95962 0
M  V30 865 H 77.6672 -5.36478 1.29982 0
M  V30 866 H 80.1432 -4.15615 -0.200869 0
M  V30 867 H 79.0192 -5.44318 -0.707714 0
M  V30 868 H 79.2802 -4.05759 -1.75533 0
M  V30 869 N 78.3393 -0.321999 -1.54275 0
M  V30 870 C 79.5643 0.285791 -2.05422 0
M  V30 871 C 79.9893 1.45124 -1.19669 0
M  V30 872 O 79.3473 1.80132 -0.205441 0
M  V30 873 C 79.3953 0.69956 -3.53749 0
M  V30 874 O 78.4993 1.8021 -3.70942 0
M  V30 875 H 77.8403 0.0518962 -0.661969 0
M  V30 876 H 80.3703 -0.469954 -1.9913 0
M  V30 877 H 80.3803 0.982649 -3.9599 0
M  V30 878 H 79.0553 -0.152864 -4.15619 0
M  V30 879 H 77.6323 1.51794 -3.40607 0
M  V30 880 N 79.8174 1.5752 -0.0501392 0
M  V30 881 C 80.7274 2.14952 0.939827 0
M  V30 882 C 81.7434 1.10706 1.34239 0
M  V30 883 O 82.9194 1.42869 1.41952 0
M  V30 884 C 79.9844 2.68232 2.19665 0
M  V30 885 C 79.0454 3.87272 1.85253 0
M  V30 886 C 78.2784 4.38002 3.04943 0
M  V30 887 O 78.5014 3.87811 4.18281 0
M  V30 888 O 77.4354 5.29602 2.86017 0
M  V30 889 H 81.2614 2.9986 0.481392 0
M  V30 890 H 78.8464 1.4841 0.171699 0
M  V30 891 H 80.7284 3.02475 2.93406 0
M  V30 892 H 79.4034 1.86395 2.64648 0
M  V30 893 H 78.3104 3.5792 1.0883 0
M  V30 894 H 79.6434 4.70336 1.4507 0
M  V30 895 N 81.2955 -0.223234 1.56011 0
M  V30 896 C 82.5445 -0.945912 1.78144 0
M  V30 897 C 82.8575 -1.85567 0.618396 0
M  V30 898 O 84.0635 -2.61688 0.723318 0
M  V30 899 C 82.5195 -1.73216 3.15475 0
M  V30 900 C 82.1275 -0.868619 4.39499 0
M  V30 901 C 83.8715 -2.44615 3.46935 0
M  V30 902 C 81.7785 -1.65212 5.67855 0
M  V30 903 H 80.7085 -0.356929 0.664167 0
M  V30 904 H 83.3595 -0.199845 1.82409 0
M  V30 905 H 81.7415 -2.52107 3.05382 0
M  V30 906 H 82.9155 -0.120366 4.60643 0
M  V30 907 H 81.2305 -0.26683 4.15544 0
M  V30 908 H 83.8275 -3.03732 4.40058 0
M  V30 909 H 84.1705 -3.17417 2.69355 0
M  V30 910 H 84.7035 -1.72715 3.58349 0
M  V30 911 H 81.4425 -0.967407 6.48322 0
M  V30 912 H 80.9625 -2.37503 5.50774 0
M  V30 913 H 82.6415 -2.21322 6.07968 0
M  V30 914 N 82.7736 -1.49793 -0.48987 0
M  V30 915 C 84.0196 -1.60078 -1.24511 0
M  V30 916 C 84.3526 -0.291608 -1.91998 0
M  V30 917 O 83.6276 0.705647 -1.81248 0
M  V30 918 C 83.9106 -2.76791 -2.30345 0
M  V30 919 C 83.7636 -4.17535 -1.67286 0
M  V30 920 C 85.0826 -2.89111 -3.31817 0
M  V30 921 H 82.2016 -0.582645 -0.451324 0
M  V30 922 H 84.8436 -1.82117 -0.541612 0
M  V30 923 H 82.9936 -2.5813 -2.90346 0
M  V30 924 H 84.6656 -4.4774 -1.11026 0
M  V30 925 H 82.9086 -4.22665 -0.976577 0
M  V30 926 H 83.5796 -4.95094 -2.44103 0
M  V30 927 H 86.0556 -3.06133 -2.81819 0
M  V30 928 H 84.9316 -3.72433 -4.03219 0
M  V30 929 H 85.1926 -1.9893 -3.94815 0
M  V30 930 N 84.2517 0.741722 -1.39055 0
M  V30 931 C 85.4817 1.52876 -1.3897 0
M  V30 932 C 85.8897 1.8919 0.0193266 0
M  V30 933 O 85.2327 1.54138 0.999356 0
M  V30 934 C 85.2947 2.84929 -2.19216 0
M  V30 935 C 84.9587 2.71086 -3.67915 0
M  V30 936 C 85.9557 2.40084 -4.61146 0
M  V30 937 C 83.6407 2.88168 -4.11418 0
M  V30 938 C 85.6347 2.26335 -5.95862 0
M  V30 939 C 83.3217 2.74037 -5.46211 0
M  V30 940 C 84.3197 2.43166 -6.38247 0
M  V30 941 O 84.0077 2.29115 -7.70559 0
M  V30 942 H 83.7397 0.479252 -0.476753 0
M  V30 943 H 86.2937 0.924751 -1.83405 0
M  V30 944 H 84.5237 3.47564 -1.69518 0
M  V30 945 H 86.2127 3.46509 -2.11392 0
M  V30 946 H 86.9787 2.26545 -4.28838 0
M  V30 947 H 82.8577 3.11191 -3.40119 0
M  V30 948 H 86.4017 2.0216 -6.67665 0
M  V30 949 H 82.2987 2.87153 -5.78112 0
M  V30 950 H 83.0667 2.44237 -7.81211 0
M  V30 951 N 85.7298 1.2412 0.971189 0
M  V30 952 C 86.6628 0.97373 2.06382 0
M  V30 953 C 87.6408 -0.0912662 1.62344 0
M  V30 954 O 88.8248 0.0449365 1.88446 0
M  V30 955 C 85.9518 0.468746 3.35441 0
M  V30 956 C 84.9978 1.52176 3.98428 0
M  V30 957 S 85.8308 3.10203 4.36503 0
M  V30 958 C 86.9868 2.61398 5.68702 0
M  V30 959 H 87.2198 1.89893 2.28753 0
M  V30 960 H 84.7528 1.07466 1.10862 0
M  V30 961 H 86.7108 0.184012 4.10087 0
M  V30 962 H 85.3718 -0.435688 3.11064 0
M  V30 963 H 84.5648 1.11876 4.91426 0
M  V30 964 H 84.1668 1.75632 3.30196 0
M  V30 965 H 86.4588 2.03992 6.4606 0
M  V30 966 H 87.4018 3.52972 6.13854 0
M  V30 967 H 87.8098 2.01941 5.27143 0
M  V30 968 N 87.2079 -1.17134 1.05439 0
M  V30 969 C 88.4569 -1.86791 0.761049 0
M  V30 970 C 88.7699 -1.82072 -0.714795 0
M  V30 971 O 89.9759 -2.47223 -1.12218 0
M  V30 972 C 88.4319 -3.35166 1.31117 0
M  V30 973 C 88.0399 -3.48381 2.81664 0
M  V30 974 C 89.7839 -4.10134 1.09499 0
M  V30 975 C 87.6909 -4.90793 3.29964 0
M  V30 976 H 86.6209 -0.699681 0.281002 0
M  V30 977 H 89.2719 -1.3226 1.27199 0
M  V30 978 H 87.6539 -3.8925 0.72803 0
M  V30 979 H 88.8279 -3.04502 3.45855 0
M  V30 980 H 87.1429 -2.86836 3.01851 0
M  V30 981 H 89.7399 -5.152 1.43084 0
M  V30 982 H 90.0829 -4.16287 0.0328772 0
M  V30 983 H 90.6159 -3.62264 1.64346 0
M  V30 984 H 87.3549 -4.89816 4.35616 0
M  V30 985 H 86.8749 -5.35333 2.70516 0
M  V30 986 H 88.5539 -5.59573 3.24787 0
M  V30 987 N 88.686 -0.835752 -1.33615 0
M  V30 988 C 89.916 -0.442701 -2.01801 0
M  V30 989 C 90.324 0.959807 -1.63047 0
M  V30 990 O 89.667 1.63468 -0.838088 0
M  V30 991 C 89.729 -0.480125 -3.56279 0
M  V30 992 C 89.393 -1.8382 -4.18401 0
M  V30 993 C 90.39 -2.80097 -4.37998 0
M  V30 994 C 88.075 -2.13019 -4.54894 0
M  V30 995 C 90.069 -4.03736 -4.9323 0
M  V30 996 C 87.756 -3.36916 -5.09834 0
M  V30 997 C 88.754 -4.32091 -5.28948 0
M  V30 998 O 88.442 -5.53797 -5.82721 0
M  V30 999 H 88.174 -0.17441 -0.653114 0
M  V30 1000 H 90.728 -1.129 -1.71589 0
M  V30 1001 H 88.958 0.262931 -3.85805 0
M  V30 1002 H 90.647 -0.105335 -4.05763 0
M  V30 1003 H 91.413 -2.58838 -4.10156 0
M  V30 1004 H 87.292 -1.39733 -4.39313 0
M  V30 1005 H 90.836 -4.78034 -5.08064 0
M  V30 1006 H 86.733 -3.58033 -5.37106 0
M  V30 1007 H 87.501 -5.55494 -6.0114 0
M  V30 1008 N 90.1641 1.46063 -0.591896 0
M  V30 1009 C 91.1111 2.30399 0.136069 0
M  V30 1010 C 92.0811 1.41169 0.875238 0
M  V30 1011 O 93.2661 1.70112 0.86409 0
M  V30 1012 C 90.4061 3.25804 1.13781 0
M  V30 1013 C 89.5191 4.30134 0.401137 0
M  V30 1014 C 88.6541 5.12659 1.39121 0
M  V30 1015 C 87.6931 6.0873 0.641462 0
M  V30 1016 N 86.8301 6.8409 1.58004 0
M  V30 1017 H 91.6701 2.92118 -0.589144 0
M  V30 1018 H 89.2071 1.43959 -0.302342 0
M  V30 1019 H 91.1651 3.79569 1.73156 0
M  V30 1020 H 89.7951 2.65872 1.83062 0
M  V30 1021 H 88.8471 3.79152 -0.307826 0
M  V30 1022 H 90.1591 4.98458 -0.184565 0
M  V30 1023 H 89.3131 5.70747 2.05749 0
M  V30 1024 H 88.0521 4.44316 2.01084 0
M  V30 1025 H 87.0571 5.49786 -0.0385419 0
M  V30 1026 H 88.2821 6.79095 0.0270945 0
M  V30 1027 H 86.2281 6.18449 2.18761 0
M  V30 1028 H 86.1451 7.48709 1.04738 0
M  V30 1029 H 87.4131 7.4673 2.23639 0
M  V30 1030 N 91.6422 0.330177 1.54103 0
M  V30 1031 C 92.5522 -0.541534 2.28264 0
M  V30 1032 C 93.5682 -1.12351 1.32866 0
M  V30 1033 O 94.7442 -1.14206 1.65888 0
M  V30 1034 C 91.8092 -1.68322 3.03098 0
M  V30 1035 C 90.8702 -1.13238 4.14096 0
M  V30 1036 C 90.1032 -2.21966 4.85352 0
M  V30 1037 O 90.3262 -3.42437 4.56172 0
M  V30 1038 O 89.2602 -1.87013 5.7211 0
M  V30 1039 H 93.0862 0.060938 3.03639 0
M  V30 1040 H 90.6712 0.09565 1.49093 0
M  V30 1041 H 92.5532 -2.34777 3.49939 0
M  V30 1042 H 91.2282 -2.27176 2.30593 0
M  V30 1043 H 90.1352 -0.432736 3.71589 0
M  V30 1044 H 91.4682 -0.588898 4.88664 0
M  V30 1045 N 93.1203 -1.57491 0.0584922 0
M  V30 1046 C 94.3683 -1.92597 -0.612436 0
M  V30 1047 C 94.6893 -0.938162 -1.70949 0
M  V30 1048 O 93.9593 0.0158301 -1.95894 0
M  V30 1049 H 92.5393 -0.710964 -0.229214 0
M  V30 1050 H 95.2013 -1.94571 0.113218 0
M  V30 1051 H 94.2973 -2.94038 -1.04633 0
M  V30 1052 N 94.5984 0.214957 -1.56127 0
M  V30 1053 C 95.8754 0.963093 -1.70247 0
M  V30 1054 C 96.2554 2.02166 -0.60764 0
M  V30 1055 O 95.6034 2.25244 0.384385 0
M  V30 1056 C 95.8134 1.56756 -3.11815 0
M  V30 1057 C 97.1614 2.0573 -3.7143 0
M  V30 1058 O 98.1854 1.66637 -3.14818 0
M  V30 1059 O 97.0444 2.77603 -4.70743 0
M  V30 1060 H 94.1384 0.450321 -0.693643 0
M  V30 1061 H 96.6844 0.206219 -1.68442 0
M  V30 1062 H 95.4564 0.803533 -3.82961 0
M  V30 1063 H 95.0794 2.3898 -3.17765 0
M  V30 1064 N 96.0765 1.50051 0.48192 0
M  V30 1065 C 97.3225 1.60736 1.2366 0
M  V30 1066 C 97.6555 0.301786 1.91841 0
M  V30 1067 O 96.9305 -0.696025 1.8162 0
M  V30 1068 C 97.2135 2.78009 2.28874 0
M  V30 1069 C 97.0665 4.18416 1.65069 0
M  V30 1070 C 98.3855 2.90867 3.30279 0
M  V30 1071 H 95.5045 0.585031 0.448228 0
M  V30 1072 H 98.1465 1.82402 0.531946 0
M  V30 1073 H 96.2965 2.59667 2.88973 0
M  V30 1074 H 97.9685 4.48322 1.0865 0
M  V30 1075 H 96.2115 4.23177 0.954148 0
M  V30 1076 H 96.8825 4.96381 2.41474 0
M  V30 1077 H 99.3585 3.07623 2.80191 0
M  V30 1078 H 98.2345 3.74566 4.01238 0
M  V30 1079 H 98.4955 2.01021 3.93755 0
M  V30 1080 N 97.5546 -0.734337 1.39446 0
M  V30 1081 C 98.4646 -1.87879 1.40495 0
M  V30 1082 C 99.4806 -1.714 0.299672 0
M  V30 1083 O 100.657 -1.93991 0.541249 0
M  V30 1084 C 97.7216 -3.23477 1.24754 0
M  V30 1085 C 96.7826 -3.52344 2.45259 0
M  V30 1086 C 96.0156 -4.81473 2.30259 0
M  V30 1087 O 96.2386 -5.55237 1.30643 0
M  V30 1088 O 95.1726 -5.10254 3.19256 0
M  V30 1089 H 98.9986 -1.89949 2.36966 0
M  V30 1090 H 96.5836 -0.882243 1.20569 0
M  V30 1091 H 98.4656 -4.04509 1.18111 0
M  V30 1092 H 97.1406 -3.22176 0.313781 0
M  V30 1093 H 96.0476 -2.71396 2.57478 0
M  V30 1094 H 97.3806 -3.58426 3.37331 0
M  V30 1095 N 99.0327 -1.24633 -0.964593 0
M  V30 1096 C 99.9797 -1.04144 -2.05968 0
M  V30 1097 C 100.95 0.046262 -1.66036 0
M  V30 1098 O 102.135 -0.108972 -1.90489 0
M  V30 1099 C 99.2747 -0.65563 -3.38815 0
M  V30 1100 C 98.3877 -1.81714 -3.91923 0
M  V30 1101 C 97.5227 -1.37662 -5.13052 0
M  V30 1102 C 96.5617 -2.50788 -5.58365 0
M  V30 1103 N 95.6987 -2.07582 -6.70712 0
M  V30 1104 H 100.539 -1.9787 -2.22827 0
M  V30 1105 H 98.0757 -0.9855 -1.09208 0
M  V30 1106 H 100.034 -0.412954 -4.15151 0
M  V30 1107 H 98.6637 0.244627 -3.21872 0
M  V30 1108 H 97.7157 -2.1734 -3.12198 0
M  V30 1109 H 99.0277 -2.66705 -4.21509 0
M  V30 1110 H 98.1817 -1.093 -5.96773 0
M  V30 1111 H 96.9207 -0.497293 -4.85158 0
M  V30 1112 H 95.9257 -2.79906 -4.73215 0
M  V30 1113 H 97.1507 -3.39283 -5.88272 0
M  V30 1114 H 95.0967 -1.22051 -6.44546 0
M  V30 1115 H 95.0137 -2.86125 -6.99763 0
M  V30 1116 H 96.2817 -1.82369 -7.57867 0
M  V30 1117 N 100.511 1.16574 -1.06058 0
M  V30 1118 C 101.751 1.88723 -0.78504 0
M  V30 1119 C 102.115 1.79706 0.676006 0
M  V30 1120 O 103.316 2.46757 1.06603 0
M  V30 1121 C 101.587 3.34338 -1.26304 0
M  V30 1122 S 103.146 4.24366 -1.1162 0
M  V30 1123 H 99.9638 0.651448 -0.284846 0
M  V30 1124 H 102.566 1.40732 -1.35701 0
M  V30 1125 H 101.27 3.38439 -2.32136 0
M  V30 1126 H 100.801 3.87378 -0.685719 0
M  V30 1127 H 102.816 4.96179 -0.0456539 0
M  V30 1128 N 101.989 0.842826 1.3317 0
M  V30 1129 C 102.936 0.276885 2.29133 0
M  V30 1130 C 103.906 -0.609527 1.54512 0
M  V30 1131 O 105.091 -0.546955 1.82792 0
M  V30 1132 C 102.231 -0.538707 3.40869 0
M  V30 1133 C 101.344 0.372169 4.30394 0
M  V30 1134 C 100.479 -0.454908 5.29249 0
M  V30 1135 C 99.5179 0.45411 6.10413 0
M  V30 1136 N 98.6549 -0.335075 7.013 0
M  V30 1137 H 103.495 1.10052 2.76934 0
M  V30 1138 H 101.032 0.554161 1.36262 0
M  V30 1139 H 102.99 -1.02709 4.0436 0
M  V30 1140 H 101.62 -1.32727 2.9425 0
M  V30 1141 H 100.672 0.97888 3.6759 0
M  V30 1142 H 101.984 1.0703 4.87182 0
M  V30 1143 H 101.138 -1.00695 5.98285 0
M  V30 1144 H 99.8769 -1.18646 4.73048 0
M  V30 1145 H 98.8819 1.01813 5.40291 0
M  V30 1146 H 100.107 1.18409 6.68697 0
M  V30 1147 H 98.0529 -1.04994 6.47543 0
M  V30 1148 H 97.9699 0.304262 7.55387 0
M  V30 1149 H 99.2379 -0.869224 7.74638 0
M  V30 1150 N 103.467 -1.45747 0.599634 0
M  V30 1151 C 104.377 -2.34262 -0.125888 0
M  V30 1152 C 105.393 -1.50768 -0.868625 0
M  V30 1153 O 106.569 -1.83592 -0.828003 0
M  V30 1154 C 103.634 -3.28252 -1.11587 0
M  V30 1155 C 102.695 -4.27651 -0.375956 0
M  V30 1156 C 101.928 -5.1715 -1.31877 0
M  V30 1157 O 102.151 -5.09916 -2.55621 0
M  V30 1158 O 101.085 -5.96286 -0.820157 0
M  V30 1159 H 104.911 -2.97688 0.601315 0
M  V30 1160 H 102.496 -1.44999 0.359934 0
M  V30 1161 H 104.378 -3.86191 -1.68626 0
M  V30 1162 H 103.053 -2.67401 -1.82424 0
M  V30 1163 H 101.96 -3.7335 0.236698 0
M  V30 1164 H 103.293 -4.91334 0.29177 0
M  V30 1165 N 104.945 -0.338344 -1.53925 0
M  V30 1166 C 106.222 0.314774 -1.93051 0
M  V30 1167 C 106.602 1.68669 -1.26941 0
M  V30 1168 O 105.95 2.24636 -0.418445 0
M  V30 1169 C 106.16 0.392249 -3.46789 0
M  V30 1170 C 107.508 0.645554 -4.19664 0
M  V30 1171 O 108.532 0.474575 -3.53024 0
M  V30 1172 O 107.391 0.976408 -5.37707 0
M  V30 1173 H 104.485 0.182598 -0.80659 0
M  V30 1174 H 107.031 -0.389141 -1.65178 0
M  V30 1175 H 105.803 -0.570702 -3.87116 0
M  V30 1176 H 105.426 1.14316 -3.80812 0
M  V30 1177 N 106.423 1.57458 -0.0668435 0
M  V30 1178 C 107.669 1.93587 0.6043 0
M  V30 1179 C 108.002 0.946722 1.69561 0
M  V30 1180 O 107.277 -0.0248516 1.94484 0
M  V30 1181 C 107.56 3.40014 1.18585 0
M  V30 1182 C 107.413 4.49685 0.101529 0
M  V30 1183 C 108.732 3.87154 2.09284 0
M  V30 1184 H 105.851 0.703958 0.218202 0
M  V30 1185 H 108.493 1.89542 -0.131804 0
M  V30 1186 H 106.643 3.43592 1.81319 0
M  V30 1187 H 108.315 4.5823 -0.531279 0
M  V30 1188 H 106.558 4.30059 -0.568487 0
M  V30 1189 H 107.229 5.49266 0.54874 0
M  V30 1190 H 109.705 3.85551 1.56491 0
M  V30 1191 H 108.581 4.90231 2.46911 0
M  V30 1192 H 108.842 3.2481 2.99918 0
M  V30 1193 N 107.901 -0.206675 1.56239 0
M  V30 1194 C 109.15 -0.926964 1.79138 0
M  V30 1195 C 109.463 -1.84901 0.638043 0
M  V30 1196 O 110.669 -2.60906 0.751033 0
M  V30 1197 C 109.125 -1.6986 3.17294 0
M  V30 1198 C 108.733 -0.821956 4.40395 0
M  V30 1199 C 110.477 -2.40922 3.4951 0
M  V30 1200 C 108.384 -1.59179 5.69575 0
M  V30 1201 H 107.314 -0.349864 0.667915 0
M  V30 1202 H 109.965 -0.180487 1.8261 0
M  V30 1203 H 108.347 -2.48853 3.08039 0
M  V30 1204 H 109.521 -0.0715019 4.60745 0
M  V30 1205 H 107.836 -0.222741 4.15804 0
M  V30 1206 H 110.433 -2.99047 4.43255 0
M  V30 1207 H 110.776 -3.14542 2.72707 0
M  V30 1208 H 111.309 -1.68905 3.60161 0
M  V30 1209 H 108.048 -0.898589 6.49312 0
M  V30 1210 H 107.568 -2.31648 5.53262 0
M  V30 1211 H 109.247 -2.14862 6.10281 0
M  V30 1212 N 109.379 -1.50304 -0.473955 0
M  V30 1213 C 110.626 -1.6115 -1.22625 0
M  V30 1214 C 110.954 -0.310517 -1.92005 0
M  V30 1215 O 110.209 0.703419 -1.82621 0
M  V30 1216 C 110.508 -2.73938 -2.29549 0
M  V30 1217 C 110.174 -4.14519 -1.7744 0
M  V30 1218 C 108.836 -4.5277 -1.62949 0
M  V30 1219 C 111.188 -5.02392 -1.3875 0
M  V30 1220 C 108.516 -5.76639 -1.08187 0
M  V30 1221 C 110.868 -6.26805 -0.854309 0
M  V30 1222 C 109.532 -6.63861 -0.696011 0
M  V30 1223 H 108.802 -0.589691 -0.448715 0
M  V30 1224 H 111.449 -1.84228 -0.522705 0
M  V30 1225 H 109.754 -2.44937 -3.05799 0
M  V30 1226 H 111.451 -2.79534 -2.87509 0
M  V30 1227 H 108.041 -3.8434 -1.89685 0
M  V30 1228 H 112.225 -4.73474 -1.4878 0
M  V30 1229 H 107.481 -6.04027 -0.946666 0
M  V30 1230 H 111.655 -6.94258 -0.545843 0
M  V30 1231 H 109.282 -7.59722 -0.26952 0
M  V30 1232 N 110.857 0.726932 -1.39834 0
M  V30 1233 C 111.805 1.86235 -1.39353 0
M  V30 1234 C 112.799 1.67144 -0.275555 0
M  V30 1235 O 114.005 1.74387 -0.44601 0
M  V30 1236 H 110.38 0.613174 -0.43534 0
M  V30 1237 H 112.351 1.83756 -2.35109 0
M  V30 1238 C 111.1 3.23995 -1.26185 0
M  V30 1239 H 110.423 3.39285 -2.11484 0
M  V30 1240 H 111.863 4.03609 -1.29907 0
M  V30 1241 C 110.322 3.36888 0.0290018 0
M  V30 1242 O 110.852 3.89152 0.99619 0
M  V30 1243 N 109.058 2.90446 0.0947437 0
M  V30 1244 H 108.605 2.48102 -0.693035 0
M  V30 1245 H 108.563 2.99451 0.957932 0
M  V30 1246 N 112.336 1.25143 0.95797 0
M  V30 1247 C 113.752 1.01892 1.22842 0
M  V30 1248 C 113.952 -0.266311 1.99732 0
M  V30 1249 O 113.008 -0.979913 2.3271 0
M  V30 1250 C 114.321 2.24004 2.00606 0
M  V30 1251 C 115.869 2.28731 2.13662 0
M  V30 1252 C 116.344 3.5049 2.94823 0
M  V30 1253 N 117.835 3.50866 3.02403 0
M  V30 1254 C 118.57 4.4174 3.65586 0
M  V30 1255 N 118.066 5.42882 4.30408 0
M  V30 1256 N 119.859 4.29429 3.62694 0
M  V30 1257 H 112.01 2.07718 0.443493 0
M  V30 1258 H 114.273 0.912031 0.258657 0
M  V30 1259 H 113.979 3.17395 1.51503 0
M  V30 1260 H 113.853 2.26907 3.01319 0
M  V30 1261 H 116.24 1.35865 2.61963 0
M  V30 1262 H 116.321 2.29848 1.12265 0
M  V30 1263 H 115.965 4.43676 2.47213 0
M  V30 1264 H 115.895 3.46617 3.96439 0
M  V30 1265 H 118.386 2.777 2.56302 0
M  V30 1266 H 118.699 6.0844 4.76467 0
M  V30 1267 H 117.044 5.46758 4.29047 0
M  V30 1268 H 120.235 3.49643 3.11236 0
M  V30 1269 H 120.408 5.00448 4.1165 0
M  V30 1270 N 113.814 -1.1601 1.06675 0
M  V30 1271 C 115.063 -1.85973 0.780818 0
M  V30 1272 C 115.376 -1.82819 -0.695444 0
M  V30 1273 O 116.582 -2.484 -1.09589 0
M  V30 1274 C 115.038 -3.33757 1.34665 0
M  V30 1275 C 114.646 -3.45374 2.85343 0
M  V30 1276 C 116.39 -4.0895 1.13843 0
M  V30 1277 C 114.297 -4.87266 3.35151 0
M  V30 1278 H 113.227 -0.696661 0.288407 0
M  V30 1279 H 115.878 -1.30903 1.28595 0
M  V30 1280 H 114.26 -3.88456 0.769274 0
M  V30 1281 H 115.434 -3.00816 3.49065 0
M  V30 1282 H 113.749 -2.83619 3.04876 0
M  V30 1283 H 116.346 -5.13654 1.4854 0
M  V30 1284 H 116.689 -4.16229 0.0770282 0
M  V30 1285 H 117.222 -3.605 1.68179 0
M  V30 1286 H 113.961 -4.85168 4.40786 0
M  V30 1287 H 113.481 -5.32433 2.76179 0
M  V30 1288 H 115.16 -5.56097 3.30704 0
M  V30 1289 N 115.292 -0.849877 -1.32721 0
M  V30 1290 C 116.703 -0.506188 -1.79707 0
M  V30 1291 C 117.054 0.975627 -1.70223 0
M  V30 1292 O 116.179 1.76078 -1.25799 0
M  V30 1293 C 116.774 -0.912044 -3.26293 0
M  V30 1294 C 115.333 -0.620326 -3.71253 0
M  V30 1295 C 114.48 -1.11439 -2.53922 0
M  V30 1296 H 117.431 -1.03754 -1.20087 0
M  V30 1297 H 117.452 -0.226493 -3.79825 0
M  V30 1298 H 116.964 -1.99057 -3.33164 0
M  V30 1299 H 115.065 0.447674 -3.69901 0
M  V30 1300 H 115.178 -1.18327 -4.64258 0
M  V30 1301 H 113.542 -0.534834 -2.49021 0
M  V30 1302 H 114.325 -2.19992 -2.6355 0
M  V30 1303 N 116.77 1.45427 -0.607355 0
M  V30 1304 C 118.017 2.02241 -0.102455 0
M  V30 1305 C 118.345 1.4758 1.26691 0
M  V30 1306 O 117.6 0.640468 1.84923 0
M  V30 1307 C 117.899 3.57398 -0.0129263 0
M  V30 1308 C 117.565 4.3121 -1.31792 0
M  V30 1309 C 116.227 4.51092 -1.67539 0
M  V30 1310 C 118.579 4.73401 -2.18039 0
M  V30 1311 C 115.907 5.10422 -2.89285 0
M  V30 1312 C 118.259 5.34078 -3.39034 0
M  V30 1313 C 116.923 5.52184 -3.75033 0
M  V30 1314 H 116.193 0.740051 -0.037491 0
M  V30 1315 H 118.84 1.74494 -0.788926 0
M  V30 1316 H 117.145 3.84421 0.756806 0
M  V30 1317 H 118.842 3.99061 0.393881 0
M  V30 1318 H 115.432 4.16047 -1.02968 0
M  V30 1319 H 119.616 4.57774 -1.91721 0
M  V30 1320 H 114.872 5.22629 -3.17283 0
M  V30 1321 H 119.046 5.65724 -4.06115 0
M  V30 1322 H 116.673 5.97925 -4.69457 0
M  V30 1323 N 118.248 0.346503 1.53744 0
M  V30 1324 C 119.178 -0.501193 2.28058 0
M  V30 1325 C 120.159 -1.10014 1.29734 0
M  V30 1326 O 121.344 -1.12097 1.58581 0
M  V30 1327 C 118.474 -1.65078 3.05559 0
M  V30 1328 C 117.428 -1.18003 4.11411 0
M  V30 1329 C 116.754 -2.41837 4.76884 0
M  V30 1330 C 118.054 -0.278394 5.21558 0
M  V30 1331 H 119.748 0.11875 2.99164 0
M  V30 1332 H 117.294 0.0585531 1.43881 0
M  V30 1333 H 119.247 -2.25028 3.56287 0
M  V30 1334 H 117.971 -2.29767 2.32109 0
M  V30 1335 H 116.63 -0.603331 3.61601 0
M  V30 1336 H 116.278 -3.0494 4.00026 0
M  V30 1337 H 115.978 -2.1102 5.48402 0
M  V30 1338 H 117.502 -3.02508 5.30397 0
M  V30 1339 H 118.916 -0.784823 5.67903 0
M  V30 1340 H 117.313 -0.0619707 6.00068 0
M  V30 1341 H 118.383 0.684677 4.80042 0
M  V30 1342 N 119.726 -1.57421 0.075193 0
M  V30 1343 C 120.636 -2.1642 -0.905511 0
M  V30 1344 C 121.652 -1.12828 -1.32461 0
M  V30 1345 O 122.828 -1.45109 -1.39661 0
M  V30 1346 C 119.893 -2.71693 -2.15369 0
M  V30 1347 C 118.954 -3.90171 -1.79068 0
M  V30 1348 C 118.187 -4.42798 -2.97936 0
M  V30 1349 O 118.41 -3.94416 -4.12058 0
M  V30 1350 O 117.344 -5.34085 -2.77555 0
M  V30 1351 H 121.17 -3.00588 -0.433626 0
M  V30 1352 H 118.755 -1.48664 -0.148067 0
M  V30 1353 H 120.637 -3.07104 -2.88557 0
M  V30 1354 H 119.312 -1.90582 -2.61649 0
M  V30 1355 H 118.219 -3.59606 -1.03122 0
M  V30 1356 H 119.552 -4.72584 -1.37569 0
M  V30 1357 N 121.204 0.198386 -1.56346 0
M  V30 1358 C 122.444 0.92609 -1.82217 0
M  V30 1359 C 122.808 1.80584 -0.652195 0
M  V30 1360 O 124.009 2.56907 -0.790716 0
M  V30 1361 C 122.28 1.72354 -3.13096 0
M  V30 1362 S 123.839 2.50371 -3.6036 0
M  V30 1363 H 120.657 0.310677 -0.639532 0
M  V30 1364 H 123.259 0.189755 -1.94577 0
M  V30 1365 H 121.963 1.0678 -3.96265 0
M  V30 1366 H 121.494 2.50175 -3.03605 0
M  V30 1367 H 123.509 3.74488 -3.25535 0
M  V30 1368 N 122.682 1.50554 0.465978 0
M  V30 1369 C 124.098 1.38093 0.800154 0
M  V30 1370 C 124.298 0.440988 1.96615 0
M  V30 1371 O 123.354 -0.114499 2.5224 0
M  V30 1372 C 124.667 2.79565 1.10742 0
M  V30 1373 C 126.215 2.88516 1.21357 0
M  V30 1374 C 126.69 4.30833 1.55393 0
M  V30 1375 N 128.181 4.33807 1.62375 0
M  V30 1376 C 128.916 5.40927 1.90225 0
M  V30 1377 N 128.412 6.58247 2.16062 0
M  V30 1378 N 130.205 5.28376 1.9177 0
M  V30 1379 H 122.356 2.10237 -0.302366 0
M  V30 1380 H 124.619 0.945203 -0.0727746 0
M  V30 1381 H 124.325 3.50208 0.323661 0
M  V30 1382 H 124.199 3.17125 2.04234 0
M  V30 1383 H 126.586 2.1809 1.98799 0
M  V30 1384 H 126.667 2.54492 0.258321 0
M  V30 1385 H 126.311 5.01799 0.784889 0
M  V30 1386 H 126.241 4.62347 2.52076 0
M  V30 1387 H 128.732 3.49212 1.44427 0
M  V30 1388 H 129.045 7.3569 2.36601 0
M  V30 1389 H 127.39 6.61413 2.13444 0
M  V30 1390 H 130.581 4.35715 1.71085 0
M  V30 1391 H 130.754 6.11944 2.13139 0
M  V30 1392 N 124.16 -0.719506 1.40217 0
M  V30 1393 C 125.107 -1.83359 1.40172 0
M  V30 1394 C 126.077 -1.64065 0.259206 0
M  V30 1395 O 127.262 -1.85254 0.456677 0
M  V30 1396 C 124.402 -3.2103 1.26624 0
M  V30 1397 C 123.515 -3.51923 2.50548 0
M  V30 1398 C 122.65 -4.79079 2.29471 0
M  V30 1399 C 121.689 -5.02863 3.48992 0
M  V30 1400 N 120.826 -6.2123 3.27135 0
M  V30 1401 H 125.666 -1.82733 2.35399 0
M  V30 1402 H 123.203 -0.892688 1.16917 0
M  V30 1403 H 125.161 -4.00524 1.16776 0
M  V30 1404 H 123.791 -3.20895 0.350176 0
M  V30 1405 H 122.843 -2.67014 2.70939 0
M  V30 1406 H 124.155 -3.6541 3.39525 0
M  V30 1407 H 123.309 -5.66582 2.16955 0
M  V30 1408 H 122.048 -4.67794 1.37913 0
M  V30 1409 H 121.053 -4.13816 3.6199 0
M  V30 1410 H 122.278 -5.16023 4.41472 0
M  V30 1411 H 120.224 -6.11204 2.38256 0
M  V30 1412 H 120.141 -6.35375 4.09675 0
M  V30 1413 H 121.409 -7.11532 3.18344 0
M  V30 1414 N 125.638 -1.25649 -0.95132 0
M  V30 1415 C 126.548 -1.08073 -2.08224 0
M  V30 1416 C 127.564 -0.0169666 -1.73992 0
M  V30 1417 O 128.74 -0.218593 -2.0021 0
M  V30 1418 C 125.805 -0.704922 -3.39458 0
M  V30 1419 C 124.866 -1.84699 -3.87537 0
M  V30 1420 C 124.099 -1.48902 -5.12508 0
M  V30 1421 O 124.322 -0.386156 -5.69091 0
M  V30 1422 O 123.256 -2.32033 -5.55378 0
M  V30 1423 H 127.082 -2.02924 -2.25954 0
M  V30 1424 H 124.667 -1.04618 -1.06656 0
M  V30 1425 H 126.549 -0.507609 -4.18332 0
M  V30 1426 H 125.224 0.214291 -3.2299 0
M  V30 1427 H 124.131 -2.09919 -3.09653 0
M  V30 1428 H 125.464 -2.74557 -4.08509 0
M  V30 1429 N 127.117 1.15442 -1.07289 0
M  V30 1430 C 128.065 2.22225 -0.686952 0
M  V30 1431 C 129.059 1.66688 0.30193 0
M  V30 1432 O 130.265 1.79236 0.165712 0
M  V30 1433 H 126.64 0.723783 -0.204064 0
M  V30 1434 H 128.611 2.52056 -1.5972 0
M  V30 1435 C 127.36 3.47556 -0.100149 0
M  V30 1436 H 126.683 3.90612 -0.852211 0
M  V30 1437 H 128.123 4.23794 0.132235 0
M  V30 1438 C 126.582 3.16337 1.159 0
M  V30 1439 O 127.112 3.33074 2.24555 0
M  V30 1440 N 125.318 2.70385 1.06491 0
M  V30 1441 H 124.865 2.56966 0.180668 0
M  V30 1442 H 124.823 2.49871 1.90819 0
M  V30 1443 N 128.595 0.856903 1.32268 0
M  V30 1444 C 129.525 0.31858 2.31316 0
M  V30 1445 C 130.506 -0.583487 1.59779 0
M  V30 1446 O 131.691 -0.503259 1.87566 0
M  V30 1447 C 128.821 -0.491979 3.43798 0
M  V30 1448 C 127.775 0.315849 4.26833 0
M  V30 1449 C 127.101 -0.619586 5.31098 0
M  V30 1450 C 128.401 1.54282 4.98993 0
M  V30 1451 H 130.095 1.14621 2.76591 0
M  V30 1452 H 127.641 0.552613 1.32974 0
M  V30 1453 H 129.594 -0.879012 4.1213 0
M  V30 1454 H 128.318 -1.35299 2.97257 0
M  V30 1455 H 126.977 0.684664 3.6015 0
M  V30 1456 H 126.625 -1.47751 4.8081 0
M  V30 1457 H 126.325 -0.0830621 5.87541 0
M  V30 1458 H 127.849 -1.00375 6.02293 0
M  V30 1459 H 129.263 1.22796 5.59995 0
M  V30 1460 H 127.66 2.01745 5.65172 0
M  V30 1461 H 128.73 2.30285 4.26728 0
M  V30 1462 N 130.073 -1.45103 0.615059 0
M  V30 1463 C 131.006 -2.27717 -0.148408 0
M  V30 1464 C 131.984 -1.37584 -0.866572 0
M  V30 1465 O 133.168 -1.67017 -0.87393 0
M  V30 1466 C 130.295 -3.16136 -1.21557 0
M  V30 1467 C 129.341 -4.22263 -0.599712 0
M  V30 1468 S 130.174 -5.3215 0.598081 0
M  V30 1469 C 131.33 -6.24137 -0.469484 0
M  V30 1470 H 131.563 -2.92121 0.552483 0
M  V30 1471 H 129.096 -1.49054 0.402778 0
M  V30 1472 H 131.054 -3.67633 -1.82638 0
M  V30 1473 H 129.715 -2.50982 -1.88857 0
M  V30 1474 H 128.908 -4.84081 -1.4029 0
M  V30 1475 H 128.51 -3.73945 -0.063876 0
M  V30 1476 H 130.802 -6.63984 -1.34652 0
M  V30 1477 H 131.745 -7.0801 0.112725 0
M  V30 1478 H 132.153 -5.58971 -0.788168 0
M  V30 1479 N 131.551 -0.354651 -1.53558 0
M  V30 1480 C 132.499 0.512195 -2.26891 0
M  V30 1481 C 133.493 1.09263 -1.29452 0
M  V30 1482 O 134.699 1.03709 -1.47121 0
M  V30 1483 H 131.074 0.183878 -0.729173 0
M  V30 1484 H 133.045 -0.128202 -2.98124 0
M  V30 1485 C 131.794 1.64563 -3.06291 0
M  V30 1486 H 131.117 1.20829 -3.81104 0
M  V30 1487 H 132.557 2.22711 -3.60799 0
M  V30 1488 C 131.016 2.58158 -2.16462 0
M  V30 1489 O 131.546 3.60695 -1.76811 0
M  V30 1490 N 129.752 2.27096 -1.81317 0
M  V30 1491 H 129.299 1.43751 -2.1376 0
M  V30 1492 H 129.257 2.89975 -1.21498 0
M  V30 1493 N 133.029 1.57378 -0.0835403 0
M  V30 1494 C 134.277 1.93547 0.581718 0
M  V30 1495 C 134.598 0.96524 1.69435 0
M  V30 1496 O 133.868 0.0153369 1.95894 0
M  V30 1497 H 132.448 0.714521 0.217874 0
M  V30 1498 H 135.11 1.94366 -0.144158 0
M  V30 1499 H 134.206 2.95665 0.999423 0
M  V30 1500 N 134.507 -0.190092 1.56449 0
M  V30 1501 C 135.753 -0.911052 1.81184 0
M  V30 1502 C 136.086 -1.82699 0.658396 0
M  V30 1503 O 135.361 -1.91491 -0.340775 0
M  V30 1504 C 135.644 -1.72297 3.16205 0
M  V30 1505 C 135.497 -0.831419 4.42049 0
M  V30 1506 C 136.816 -2.69454 3.47969 0
M  V30 1507 H 133.935 -0.32977 0.659106 0
M  V30 1508 H 136.577 -0.178169 1.89163 0
M  V30 1509 H 134.727 -2.34778 3.09534 0
M  V30 1510 H 136.399 -0.220929 4.60771 0
M  V30 1511 H 134.642 -0.138406 4.33579 0
M  V30 1512 H 135.313 -1.43461 5.33032 0
M  V30 1513 H 137.789 -2.17104 3.54972 0
M  V30 1514 H 136.665 -3.23342 4.43555 0
M  V30 1515 H 136.926 -3.48744 2.71717 0
M  V30 1516 N 135.985 -1.50799 -0.457987 0
M  V30 1517 C 136.932 -1.70617 -1.5543 0
M  V30 1518 C 137.902 -0.547562 -1.56815 0
M  V30 1519 O 139.087 -0.779647 -1.74144 0
M  V30 1520 C 136.227 -1.81831 -2.93311 0
M  V30 1521 C 135.34 -3.09278 -3.01615 0
M  V30 1522 C 134.475 -3.11209 -4.30491 0
M  V30 1523 C 133.514 -4.33055 -4.32585 0
M  V30 1524 N 132.651 -4.32652 -5.52952 0
M  V30 1525 H 137.491 -2.64207 -1.37836 0
M  V30 1526 H 135.028 -1.30959 -0.669937 0
M  V30 1527 H 136.986 -1.86314 -3.73287 0
M  V30 1528 H 135.616 -0.916685 -3.0951 0
M  V30 1529 H 134.668 -3.14203 -2.1443 0
M  V30 1530 H 135.98 -3.99233 -2.99022 0
M  V30 1531 H 135.134 -3.14494 -5.18824 0
M  V30 1532 H 133.873 -2.19106 -4.35711 0
M  V30 1533 H 132.878 -4.29969 -3.42647 0
M  V30 1534 H 134.103 -5.264 -4.29046 0
M  V30 1535 H 132.049 -3.43409 -5.58933 0
M  V30 1536 H 131.966 -5.16392 -5.52155 0
M  V30 1537 H 133.234 -4.40101 -6.43375 0
M  V30 1538 N 137.463 0.71206 -1.40597 0
M  V30 1539 C 138.395 1.83704 -1.37061 0
M  V30 1540 C 139.408 1.60453 -0.275426 0
M  V30 1541 O 140.597 1.70262 -0.53602 0
M  V30 1542 C 137.697 3.20172 -1.11099 0
M  V30 1543 C 136.87 3.7059 -2.3234 0
M  V30 1544 C 135.929 4.85681 -2.02485 0
M  V30 1545 O 134.955 4.9815 -2.75382 0
M  V30 1546 N 136.157 5.71735 -1.00497 0
M  V30 1547 H 138.922 1.87235 -2.34016 0
M  V30 1548 H 136.483 0.893739 -1.34996 0
M  V30 1549 H 138.475 3.94768 -0.891064 0
M  V30 1550 H 137.045 3.11767 -0.227989 0
M  V30 1551 H 136.265 2.87085 -2.7014 0
M  V30 1552 H 137.553 4.01011 -3.13157 0
M  V30 1553 H 136.951 5.64275 -0.401298 0
M  V30 1554 H 135.508 6.463 -0.844942 0
M  V30 1555 N 138.941 1.26152 0.944643 0
M  V30 1556 C 139.871 1.09902 2.06019 0
M  V30 1557 C 140.852 0.00519538 1.70099 0
M  V30 1558 O 142.037 0.176583 1.93396 0
M  V30 1559 C 139.167 0.727562 3.39594 0
M  V30 1560 C 138.121 1.77274 3.89561 0
M  V30 1561 C 137.447 1.25569 5.19747 0
M  V30 1562 C 138.747 3.17357 4.14827 0
M  V30 1563 H 140.441 2.03217 2.19871 0
M  V30 1564 H 137.987 0.978452 1.05652 0
M  V30 1565 H 139.94 0.600777 4.17095 0
M  V30 1566 H 138.664 -0.241287 3.25707 0
M  V30 1567 H 137.323 1.88814 3.14237 0
M  V30 1568 H 136.971 0.276783 5.02238 0
M  V30 1569 H 136.671 1.95433 5.54148 0
M  V30 1570 H 138.195 1.1415 5.99835 0
M  V30 1571 H 139.609 3.08914 4.82954 0
M  V30 1572 H 138.006 3.84781 4.60504 0
M  V30 1573 H 139.076 3.63673 3.20734 0
M  V30 1574 N 140.419 -1.14872 1.07899 0
M  V30 1575 C 141.696 -1.81928 0.71845 0
M  V30 1576 C 142.076 -1.95417 -0.798455 0
M  V30 1577 O 141.424 -1.50997 -1.715 0
M  V30 1578 C 141.634 -3.17937 1.43935 0
M  V30 1579 C 142.982 -3.93501 1.59506 0
M  V30 1580 O 144.006 -3.27509 1.40058 0
M  V30 1581 O 142.865 -5.1183 1.91551 0
M  V30 1582 H 139.959 -0.78628 0.256305 0
M  V30 1583 H 142.505 -1.21934 1.18026 0
M  V30 1584 H 141.277 -3.0325 2.47295 0
M  V30 1585 H 140.9 -3.85619 0.968687 0
M  V30 1586 N 141.898 -0.863906 -1.31812 0
M  V30 1587 C 142.808 -0.318461 -2.32428 0
M  V30 1588 C 143.824 0.568496 -1.64451 0
M  V30 1589 O 145 0.46666 -1.95919 0
M  V30 1590 C 142.065 0.476355 -3.43412 0
M  V30 1591 C 141.126 -0.43784 -4.27061 0
M  V30 1592 C 140.359 0.319138 -5.32745 0
M  V30 1593 O 140.582 1.54799 -5.48993 0
M  V30 1594 O 139.516 -0.319861 -6.01049 0
M  V30 1595 H 143.342 -1.15229 -2.80991 0
M  V30 1596 H 140.927 -0.627103 -1.35602 0
M  V30 1597 H 142.809 0.927156 -4.11074 0
M  V30 1598 H 141.484 1.28683 -2.97022 0
M  V30 1599 H 140.391 -0.937013 -3.62175 0
M  V30 1600 H 141.724 -1.21375 -4.77 0
M  V30 1601 N 143.376 1.44774 -0.622745 0
M  V30 1602 C 144.309 2.27792 0.136329 0
M  V30 1603 C 145.287 1.38041 0.859264 0
M  V30 1604 O 146.471 1.67478 0.86506 0
M  V30 1605 C 143.598 3.16776 1.19878 0
M  V30 1606 C 142.644 4.22575 0.57731 0
M  V30 1607 S 143.477 5.31825 -0.626294 0
M  V30 1608 C 144.633 6.24377 0.436378 0
M  V30 1609 H 144.866 2.91824 -0.567967 0
M  V30 1610 H 142.399 1.48838 -0.410677 0
M  V30 1611 H 144.357 3.68596 1.80686 0
M  V30 1612 H 143.018 2.5198 1.87523 0
M  V30 1613 H 142.211 4.84818 1.37721 0
M  V30 1614 H 141.813 3.73974 0.0440439 0
M  V30 1615 H 144.105 6.64689 1.31128 0
M  V30 1616 H 145.048 7.07941 -0.150271 0
M  V30 1617 H 145.456 5.59381 0.758513 0
M  V30 1618 N 144.854 0.36279 1.53368 0
M  V30 1619 C 145.802 -0.500155 2.27159 0
M  V30 1620 C 146.796 -1.08575 1.3003 0
M  V30 1621 O 148.002 -1.02927 1.47668 0
M  V30 1622 H 144.377 -0.180009 0.730138 0
M  V30 1623 H 146.348 0.14401 2.98052 0
M  V30 1624 C 145.097 -1.62937 3.07159 0
M  V30 1625 H 144.42 -1.18806 3.8174 0
M  V30 1626 H 145.86 -2.20795 3.61975 0
M  V30 1627 C 144.319 -2.57007 2.17829 0
M  V30 1628 O 144.849 -3.59752 1.78721 0
M  V30 1629 N 143.055 -2.26131 1.82518 0
M  V30 1630 H 142.602 -1.42616 2.14519 0
M  V30 1631 H 142.56 -2.89327 1.23034 0
M  V30 1632 N 146.332 -1.57332 0.0918853 0
M  V30 1633 C 147.557 -1.98995 -0.584442 0
M  V30 1634 C 147.982 -0.970528 -1.61128 0
M  V30 1635 O 147.34 0.0613904 -1.81196 0
M  V30 1636 C 147.388 -3.39636 -1.21161 0
M  V30 1637 O 146.492 -3.40447 -2.32744 0
M  V30 1638 H 145.833 -0.647165 -0.148572 0
M  V30 1639 H 148.363 -2.03873 0.172347 0
M  V30 1640 H 148.373 -3.7726 -1.55367 0
M  V30 1641 H 147.048 -4.13356 -0.459313 0
M  V30 1642 H 145.625 -3.14614 -2.0018 0
M  V30 1643 N 147.81 0.181792 -1.56548 0
M  V30 1644 C 149.221 0.745244 -1.71181 0
M  V30 1645 C 149.572 1.83262 -0.70068 0
M  V30 1646 O 148.697 2.15946 0.140154 0
M  V30 1647 C 149.292 1.35859 -3.10367 0
M  V30 1648 C 147.851 1.86898 -3.2672 0
M  V30 1649 C 146.998 0.743942 -2.67134 0
M  V30 1650 H 149.949 -0.0434661 -1.5864 0
M  V30 1651 H 149.97 2.22817 -3.08436 0
M  V30 1652 H 149.482 0.566948 -3.83937 0
M  V30 1653 H 147.583 2.68738 -2.5809 0
M  V30 1654 H 147.696 2.02162 -4.34359 0
M  V30 1655 H 146.06 1.16169 -2.26665 0
M  V30 1656 H 146.843 -0.035676 -3.43281 0
M  V30 1657 N 149.288 1.51039 0.449983 0
M  V30 1658 C 150.704 1.38934 0.785462 0
M  V30 1659 C 150.904 0.461817 1.96136 0
M  V30 1660 O 149.96 -0.0877389 2.52348 0
M  V30 1661 C 151.273 2.80724 1.0777 0
M  V30 1662 C 152.821 2.89787 1.1829 0
M  V30 1663 C 153.296 4.32457 1.50815 0
M  V30 1664 N 154.787 4.35505 1.57764 0
M  V30 1665 C 155.522 5.42914 1.84477 0
M  V30 1666 N 155.018 6.60502 2.09068 0
M  V30 1667 N 156.811 5.3038 1.86155 0
M  V30 1668 H 148.962 2.09904 -0.324647 0
M  V30 1669 H 151.225 0.944378 -0.0827957 0
M  V30 1670 H 150.931 3.50531 0.286498 0
M  V30 1671 H 150.805 3.19273 2.00859 0
M  V30 1672 H 153.192 2.20186 1.96474 0
M  V30 1673 H 153.273 2.54752 0.231314 0
M  V30 1674 H 152.917 5.02603 0.731622 0
M  V30 1675 H 152.847 4.64995 2.47158 0
M  V30 1676 H 155.338 3.50724 1.40715 0
M  V30 1677 H 155.651 7.38158 2.28785 0
M  V30 1678 H 153.996 6.63639 2.06416 0
M  V30 1679 H 157.187 4.37505 1.66454 0
M  V30 1680 H 157.36 6.1417 2.06637 0
M  V30 1681 N 150.766 -0.704594 1.40972 0
M  V30 1682 C 152.015 -1.46018 1.39146 0
M  V30 1683 C 152.328 -1.956 0.000589254 0
M  V30 1684 O 153.534 -2.71137 -0.1403 0
M  V30 1685 C 151.99 -2.63996 2.4461 0
M  V30 1686 C 151.598 -2.21238 3.89561 0
M  V30 1687 C 153.342 -3.41677 2.51907 0
M  V30 1688 C 151.249 -3.3612 4.86598 0
M  V30 1689 H 150.179 -0.548444 0.517422 0
M  V30 1690 H 152.83 -0.765784 1.66757 0
M  V30 1691 H 151.212 -3.3566 2.10115 0
M  V30 1692 H 152.386 -1.56923 4.33257 0
M  V30 1693 H 150.701 -1.56574 3.85841 0
M  V30 1694 H 153.298 -4.27182 3.2159 0
M  V30 1695 H 153.641 -3.86247 1.55303 0
M  V30 1696 H 154.174 -2.77064 2.85448 0
M  V30 1697 H 150.913 -2.96572 5.84573 0
M  V30 1698 H 150.433 -3.99315 4.47557 0
M  V30 1699 H 152.112 -4.02029 5.06934 0
M  V30 1700 N 152.244 -1.26651 -0.937939 0
M  V30 1701 C 153.49 -1.12553 -1.687 0
M  V30 1702 C 153.823 0.329782 -1.91379 0
M  V30 1703 O 153.098 1.24202 -1.4968 0
M  V30 1704 C 153.381 -1.89862 -3.05981 0
M  V30 1705 C 153.234 -3.43318 -2.90607 0
M  V30 1706 C 154.553 -1.69499 -4.0615 0
M  V30 1707 H 151.672 -0.410257 -0.612257 0
M  V30 1708 H 154.314 -1.55685 -1.08913 0
M  V30 1709 H 152.464 -1.53204 -3.57017 0
M  V30 1710 H 154.136 -3.89747 -2.46769 0
M  V30 1711 H 152.379 -3.70179 -2.26164 0
M  V30 1712 H 153.05 -3.92642 -3.8799 0
M  V30 1713 H 155.526 -2.01442 -3.64088 0
M  V30 1714 H 154.402 -2.26002 -5.00214 0
M  V30 1715 H 154.663 -0.640365 -4.37438 0
M  V30 1716 N 153.722 1.14298 -1.08507 0
M  V30 1717 C 154.669 2.19414 -0.715965 0
M  V30 1718 C 155.639 1.63399 0.298326 0
M  V30 1719 O 156.824 1.89929 0.182101 0
M  V30 1720 C 153.964 3.44845 -0.132534 0
M  V30 1721 C 153.077 4.15007 -1.19973 0
M  V30 1722 C 152.212 5.28024 -0.580048 0
M  V30 1723 C 151.251 5.9002 -1.62921 0
M  V30 1724 N 150.388 6.94485 -1.03125 0
M  V30 1725 H 155.228 2.50336 -1.61666 0
M  V30 1726 H 152.765 1.2293 -0.807882 0
M  V30 1727 H 154.723 4.16601 0.223454 0
M  V30 1728 H 153.353 3.14403 0.731467 0
M  V30 1729 H 152.405 3.41629 -1.67313 0
M  V30 1730 H 153.717 4.57178 -1.99473 0
M  V30 1731 H 152.871 6.06455 -0.172364 0
M  V30 1732 H 151.61 4.87076 0.246603 0
M  V30 1733 H 150.615 5.10291 -2.04654 0
M  V30 1734 H 151.84 6.33042 -2.45835 0
M  V30 1735 H 149.786 6.55612 -0.225711 0
M  V30 1736 H 149.703 7.35148 -1.76334 0
M  V30 1737 H 150.971 7.7679 -0.649458 0
M  V30 1738 N 155.201 0.870884 1.31352 0
M  V30 1739 C 156.429 0.49677 2.00848 0
M  V30 1740 C 156.844 -0.910998 1.65367 0
M  V30 1741 O 156.201 -1.59696 0.883374 0
M  V30 1742 C 156.252 0.645308 3.55694 0
M  V30 1743 O 155.973 1.99764 3.89905 0
M  V30 1744 C 157.474 0.272326 4.42463 0
M  V30 1745 H 154.694 0.193462 0.642506 0
M  V30 1746 H 157.238 1.1723 1.67563 0
M  V30 1747 H 155.393 0.0173176 3.87396 0
M  V30 1748 H 155.807 2.00607 4.84621 0
M  V30 1749 H 157.281 0.427208 5.50344 0
M  V30 1750 H 157.758 -0.788587 4.32062 0
M  V30 1751 H 158.364 0.876054 4.1618 0
M  V30 1752 N 156.679 -1.44442 0.630414 0
M  V30 1753 C 157.629 -2.27794 -0.0968103 0
M  V30 1754 C 158.613 -1.38624 -0.816834 0
M  V30 1755 O 159.805 -1.62438 -0.70306 0
M  V30 1756 C 156.934 -3.25929 -1.07819 0
M  V30 1757 C 156.02 -4.22588 -0.357826 0
M  V30 1758 N 156.411 -5.0207 0.613169 0
M  V30 1759 C 154.709 -4.41914 -0.602365 0
M  V30 1760 C 155.41 -5.72351 1.03871 0
M  V30 1761 N 154.386 -5.42287 0.377642 0
M  V30 1762 H 158.188 -2.86653 0.648621 0
M  V30 1763 H 155.702 -1.55871 0.455862 0
M  V30 1764 H 157.699 -3.84399 -1.61378 0
M  V30 1765 H 156.359 -2.68631 -1.82393 0
M  V30 1766 H 157.37 -5.08331 0.990947 0
M  V30 1767 H 154.047 -3.95714 -1.33103 0
M  V30 1768 H 155.437 -6.4619 1.84086 0
M  V30 1769 N 158.157 -0.370918 -1.53173 0
M  V30 1770 C 159.087 0.464847 -2.28826 0
M  V30 1771 C 160.068 1.07936 -1.31468 0
M  V30 1772 O 161.253 1.0956 -1.60344 0
M  V30 1773 C 158.383 1.60196 -3.08147 0
M  V30 1774 C 157.337 1.11443 -4.13237 0
M  V30 1775 C 156.663 2.3422 -4.80672 0
M  V30 1776 C 157.963 0.195384 -5.21934 0
M  V30 1777 H 159.657 -0.166329 -2.98938 0
M  V30 1778 H 157.203 -0.0814359 -1.4377 0
M  V30 1779 H 159.156 2.19332 -3.59822 0
M  V30 1780 H 157.88 2.26045 -2.35735 0
M  V30 1781 H 156.539 0.545727 -3.62515 0
M  V30 1782 H 156.187 2.98537 -4.04827 0
M  V30 1783 H 155.887 2.02269 -5.51689 0
M  V30 1784 H 157.411 2.94032 -5.35143 0
M  V30 1785 H 158.825 0.694375 -5.69079 0
M  V30 1786 H 157.222 -0.0335027 -6.00091 0
M  V30 1787 H 158.292 -0.760961 -4.78892 0
M  V30 1788 N 159.635 1.57281 -0.100228 0
M  V30 1789 C 161.046 1.81725 0.428107 0
M  V30 1790 C 161.397 1.01619 1.67833 0
M  V30 1791 O 160.522 0.247098 2.14985 0
M  V30 1792 C 161.117 3.29617 0.78347 0
M  V30 1793 C 159.676 3.54808 1.25653 0
M  V30 1794 C 158.823 2.76118 0.255752 0
M  V30 1795 H 161.774 1.55324 -0.325608 0
M  V30 1796 H 161.795 3.4322 1.64256 0
M  V30 1797 H 161.307 3.87893 -0.12665 0
M  V30 1798 H 159.408 3.01868 2.18418 0
M  V30 1799 H 159.521 4.63443 1.21482 0
M  V30 1800 H 157.885 2.43745 0.738956 0
M  V30 1801 H 158.668 3.37145 -0.647136 0
M  V30 1802 N 161.113 -0.173488 1.56642 0
M  V30 1803 C 162.524 -0.736155 1.71574 0
M  V30 1804 C 162.875 -1.82888 0.710389 0
M  V30 1805 O 162 -2.16017 -0.1287 0
M  V30 1806 C 162.595 -1.34211 3.11083 0
M  V30 1807 C 161.154 -1.85162 3.27707 0
M  V30 1808 C 160.301 -0.729765 2.67525 0
M  V30 1809 H 163.252 0.0518786 1.58615 0
M  V30 1810 H 163.273 -2.21178 3.09613 0
M  V30 1811 H 162.785 -0.546579 3.84232 0
M  V30 1812 H 160.886 -2.67366 2.59512 0
M  V30 1813 H 160.999 -1.99855 4.35425 0
M  V30 1814 H 159.363 -1.14965 2.27278 0
M  V30 1815 H 160.146 0.0538806 3.43258 0
M  V30 1816 N 162.591 -1.51276 -0.441967 0
M  V30 1817 C 163.501 -1.75092 -1.56141 0
M  V30 1818 C 164.517 -0.634963 -1.62001 0
M  V30 1819 O 165.693 -0.916686 -1.79329 0
M  V30 1820 C 162.758 -1.86666 -2.92158 0
M  V30 1821 C 161.819 -3.10506 -2.96453 0
M  V30 1822 C 161.052 -3.21519 -4.25982 0
M  V30 1823 O 161.275 -2.38586 -5.18105 0
M  V30 1824 O 160.209 -4.14465 -4.36466 0
M  V30 1825 H 164.035 -2.70044 -1.38961 0
M  V30 1826 H 161.62 -1.35722 -0.624499 0
M  V30 1827 H 163.502 -1.96292 -3.72891 0
M  V30 1828 H 162.177 -0.949014 -3.09476 0
M  V30 1829 H 161.084 -3.06363 -2.14692 0
M  V30 1830 H 162.417 -4.01945 -2.84079 0
M  V30 1831 N 164.069 0.697108 -1.41344 0
M  V30 1832 C 164.999 1.82353 -1.45841 0
M  V30 1833 C 165.98 1.67115 -0.317247 0
M  V30 1834 O 167.165 1.86871 -0.528474 0
M  V30 1835 C 164.295 3.20476 -1.33838 0
M  V30 1836 C 163.249 3.50415 -2.4575 0
M  V30 1837 C 162.575 4.87878 -2.18813 0
M  V30 1838 C 163.875 3.49546 -3.88091 0
M  V30 1839 H 165.569 1.78846 -2.40113 0
M  V30 1840 H 163.115 0.859028 -1.15571 0
M  V30 1841 H 165.068 3.98988 -1.35596 0
M  V30 1842 H 163.792 3.24604 -0.360498 0
M  V30 1843 H 162.451 2.74253 -2.43271 0
M  V30 1844 H 162.099 4.8863 -1.19371 0
M  V30 1845 H 161.799 5.08875 -2.93803 0
M  V30 1846 H 163.323 5.68702 -2.22284 0
M  V30 1847 H 164.737 4.18066 -3.92293 0
M  V30 1848 H 163.134 3.82075 -4.62751 0
M  V30 1849 H 164.204 2.48552 -4.16353 0
M  V30 1850 N 165.547 1.27147 0.931209 0
M  V30 1851 C 166.477 1.12081 2.04842 0
M  V30 1852 C 167.458 0.0232364 1.70084 0
M  V30 1853 O 168.643 0.197085 1.93197 0
M  V30 1854 C 165.773 0.76354 3.38803 0
M  V30 1855 C 164.727 1.81396 3.87659 0
M  V30 1856 C 164.053 1.31075 5.18385 0
M  V30 1857 C 165.353 3.21739 4.11438 0
M  V30 1858 H 167.047 2.05537 2.17703 0
M  V30 1859 H 164.593 0.989603 1.04608 0
M  V30 1860 H 166.546 0.644982 4.16435 0
M  V30 1861 H 165.27 -0.206727 3.25945 0
M  V30 1862 H 163.929 1.92136 3.12217 0
M  V30 1863 H 163.577 0.330037 5.01916 0
M  V30 1864 H 163.277 2.013 5.52044 0
M  V30 1865 H 164.801 1.20506 5.98591 0
M  V30 1866 H 166.215 3.14019 4.79651 0
M  V30 1867 H 164.612 3.89644 4.56397 0
M  V30 1868 H 165.682 3.67054 3.16859 0
M  V30 1869 N 167.025 -1.13721 1.09112 0
M  V30 1870 C 168.436 -1.6648 0.845068 0
M  V30 1871 C 168.787 -1.85911 -0.62701 0
M  V30 1872 O 167.912 -1.57556 -1.48341 0
M  V30 1873 C 168.507 -3.02413 1.52748 0
M  V30 1874 C 167.066 -3.52176 1.32849 0
M  V30 1875 C 166.213 -2.27492 1.58564 0
M  V30 1876 H 169.164 -0.976872 1.25072 0
M  V30 1877 H 169.185 -3.68223 0.958752 0
M  V30 1878 H 168.697 -2.88238 2.59885 0
M  V30 1879 H 166.798 -3.7156 0.278137 0
M  V30 1880 H 166.911 -4.32499 2.0611 0
M  V30 1881 H 165.275 -2.33923 1.00758 0
M  V30 1882 H 166.058 -2.15886 2.66924 0
M  V30 1883 N 168.503 -0.877838 -1.30888 0
M  V30 1884 C 169.466 -0.344265 -2.266 0
M  V30 1885 C 170.466 0.50922 -1.52524 0
M  V30 1886 O 171.656 0.317398 -1.71284 0
M  V30 1887 C 168.788 0.510198 -3.37061 0
M  V30 1888 H 169.981 -1.1893 -2.7531 0
M  V30 1889 H 167.534 -0.654088 -1.41956 0
M  V30 1890 H 168.269 1.37612 -2.93655 0
M  V30 1891 H 168.054 -0.101047 -3.9197 0
M  V30 1892 H 169.544 0.875537 -4.08319 0
M  V30 1893 N 169.982 1.44106 -0.638065 0
M  V30 1894 C 171.207 2.0685 -0.150916 0
M  V30 1895 C 171.632 1.47417 1.16833 0
M  V30 1896 O 170.99 0.578264 1.71831 0
M  V30 1897 C 171.038 3.60555 -0.05708 0
M  V30 1898 O 170.142 4.00465 0.984972 0
M  V30 1899 H 169.483 0.658151 -0.0879399 0
M  V30 1900 H 172.013 1.84865 -0.876707 0
M  V30 1901 H 172.023 4.07789 0.131232 0
M  V30 1902 H 170.698 4.03193 -1.02021 0
M  V30 1903 H 169.275 3.64849 0.770672 0
M  V30 1904 N 171.46 0.379036 1.52974 0
M  V30 1905 C 172.707 -0.206421 2.01445 0
M  V30 1906 C 173.035 -1.47668 1.26587 0
M  V30 1907 O 172.29 -1.92514 0.351675 0
M  V30 1908 C 172.589 -0.53096 3.53434 0
M  V30 1909 C 172.255 0.646546 4.46241 0
M  V30 1910 C 170.917 0.969604 4.7133 0
M  V30 1911 C 173.269 1.43479 5.01062 0
M  V30 1912 C 170.597 2.08263 5.48492 0
M  V30 1913 C 172.949 2.53834 5.7944 0
M  V30 1914 C 171.613 2.86659 6.02812 0
M  V30 1915 H 170.883 -0.0755349 0.73714 0
M  V30 1916 H 173.53 0.514271 1.84465 0
M  V30 1917 H 171.835 -1.33285 3.68432 0
M  V30 1918 H 173.532 -0.996417 3.88423 0
M  V30 1919 H 170.122 0.384734 4.2687 0
M  V30 1920 H 174.306 1.19844 4.81613 0
M  V30 1921 H 169.562 2.34078 5.64816 0
M  V30 1922 H 173.736 3.15319 6.20924 0
M  V30 1923 H 171.363 3.73026 6.62387 0
M  V30 1924 N 172.938 -1.57226 0.108567 0
M  V30 1925 C 174.184 -1.95919 -0.546564 0
M  V30 1926 C 174.539 -0.990417 -1.6495 0
M  V30 1927 O 173.832 -0.0186593 -1.91591 0
M  V30 1928 C 174.026 -3.38911 -1.13463 0
M  V30 1929 C 173.855 -4.4961 -0.0901926 0
M  V30 1930 C 172.625 -5.04168 0.338008 0
M  V30 1931 C 174.823 -5.09693 0.686808 0
M  V30 1932 N 172.805 -5.98434 1.36931 0
M  V30 1933 C 174.176 -5.99804 1.56958 0
M  V30 1934 C 176.231 -4.92388 0.738846 0
M  V30 1935 C 174.934 -6.74463 2.49983 0
M  V30 1936 C 176.96 -5.67719 1.65676 0
M  V30 1937 C 176.322 -6.57507 2.52713 0
M  V30 1938 H 172.421 -0.763312 -0.169936 0
M  V30 1939 H 175.005 -1.93728 0.194264 0
M  V30 1940 H 173.176 -3.41769 -1.84522 0
M  V30 1941 H 174.908 -3.64752 -1.75322 0
M  V30 1942 H 171.663 -4.73571 -0.0523673 0
M  V30 1943 H 172.087 -6.5027 1.88356 0
M  V30 1944 H 176.729 -4.22724 0.080084 0
M  V30 1945 H 174.447 -7.4338 3.16878 0
M  V30 1946 H 178.033 -5.56338 1.70233 0
M  V30 1947 H 176.913 -7.14778 3.22586 0
M  V30 1948 N 174.416 0.165178 -1.56732 0
M  V30 1949 C 175.326 1.22423 -2.00125 0
M  V30 1950 C 176.342 1.48084 -0.913619 0
M  V30 1951 O 177.518 1.60112 -1.22172 0
M  V30 1952 C 174.583 2.54197 -2.35764 0
M  V30 1953 C 173.644 2.36343 -3.58386 0
M  V30 1954 C 172.877 3.61834 -3.92316 0
M  V30 1955 O 173.1 4.67267 -3.27135 0
M  V30 1956 O 172.034 3.55579 -4.85641 0
M  V30 1957 H 175.86 0.885886 -2.90492 0
M  V30 1958 H 173.445 0.372518 -1.44681 0
M  V30 1959 H 175.327 3.3192 -2.59629 0
M  V30 1960 H 174.002 2.87598 -1.48557 0
M  V30 1961 H 172.909 1.56632 -3.39731 0
M  V30 1962 H 174.242 2.07865 -4.46154 0
M  V30 1963 N 175.894 1.51508 0.433938 0
M  V30 1964 C 176.841 1.73068 1.52696 0
M  V30 1965 C 177.811 0.572441 1.55924 0
M  V30 1966 O 178.996 0.807253 1.72882 0
M  V30 1967 C 176.136 1.86474 2.90381 0
M  V30 1968 C 175.249 3.14037 2.96656 0
M  V30 1969 C 174.384 3.18019 4.25485 0
M  V30 1970 C 173.423 4.39882 4.2564 0
M  V30 1971 N 172.56 4.41394 5.45999 0
M  V30 1972 H 177.4 2.66366 1.33615 0
M  V30 1973 H 174.937 1.32008 0.649018 0
M  V30 1974 H 176.895 1.92229 3.70275 0
M  V30 1975 H 175.525 0.965809 3.08013 0
M  V30 1976 H 174.577 3.17575 2.09404 0
M  V30 1977 H 175.889 4.0394 2.92633 0
M  V30 1978 H 175.043 3.22708 5.13755 0
M  V30 1979 H 173.782 2.2601 4.3217 0
M  V30 1980 H 172.787 4.35366 3.35763 0
M  V30 1981 H 174.012 5.33159 4.20617 0
M  V30 1982 H 171.958 3.52258 5.53399 0
M  V30 1983 H 171.875 5.25111 5.4387 0
M  V30 1984 H 173.143 4.50281 6.36292 0
M  V30 1985 N 177.372 -0.689602 1.41712 0
M  V30 1986 C 178.649 -1.44457 1.31877 0
M  V30 1987 C 179.029 -2.11039 -0.0508537 0
M  V30 1988 O 178.377 -2.02138 -1.06547 0
M  V30 1989 C 178.587 -2.45913 2.47645 0
M  V30 1990 C 179.935 -3.10991 2.89084 0
M  V30 1991 O 180.959 -2.56238 2.47428 0
M  V30 1992 O 179.818 -4.10174 3.61137 0
M  V30 1993 H 176.912 -0.64362 0.519309 0
M  V30 1994 H 179.458 -0.719576 1.53689 0
M  V30 1995 H 178.23 -1.95409 3.39015 0
M  V30 1996 H 177.853 -3.25913 2.27742 0
M  V30 1997 N 178.85 -1.27639 -0.924453 0
M  V30 1998 C 180.09 -1.15407 -1.68703 0
M  V30 1999 C 180.454 0.294581 -1.89727 0
M  V30 2000 O 181.655 0.539385 -2.63333 0
M  V30 2001 C 179.926 -1.9195 -3.0148 0
M  V30 2002 S 181.485 -1.95969 -3.92609 0
M  V30 2003 H 178.303 -0.411937 -0.579507 0
M  V30 2004 H 180.905 -1.61592 -1.10038 0
M  V30 2005 H 179.609 -2.96387 -2.83871 0
M  V30 2006 H 179.14 -1.46272 -3.65196 0
M  V30 2007 H 181.155 -1.05846 -4.84779 0
M  V30 2008 N 180.328 1.1314 -1.09713 0
M  V30 2009 C 181.275 2.18642 -0.739196 0
M  V30 2010 C 182.245 1.63706 0.280978 0
M  V30 2011 O 183.43 1.90111 0.161946 0
M  V30 2012 C 180.57 3.44685 -0.169102 0
M  V30 2013 C 179.683 4.13711 -1.24367 0
M  V30 2014 C 178.818 5.27379 -0.636019 0
M  V30 2015 C 177.857 5.88259 -1.69169 0
M  V30 2016 N 176.994 6.93352 -1.10485 0
M  V30 2017 H 181.834 2.48607 -1.64312 0
M  V30 2018 H 179.371 1.22066 -0.820875 0
M  V30 2019 H 181.329 4.16815 0.179256 0
M  V30 2020 H 179.959 3.15161 0.698079 0
M  V30 2021 H 179.011 3.39835 -1.70927 0
M  V30 2022 H 180.323 4.55037 -2.04311 0
M  V30 2023 H 179.477 6.06238 -0.236677 0
M  V30 2024 H 178.216 4.8731 0.194928 0
M  V30 2025 H 177.221 5.08092 -2.10055 0
M  V30 2026 H 178.446 6.30399 -2.52536 0
M  V30 2027 H 176.392 6.55335 -0.295234 0
M  V30 2028 H 176.309 7.33236 -1.84121 0
M  V30 2029 H 177.577 7.76057 -0.73181 0
M  V30 2030 N 181.806 0.884767 1.30421 0
M  V30 2031 C 183.055 0.499164 1.95426 0
M  V30 2032 C 183.368 -0.95645 1.70621 0
M  V30 2033 O 184.574 -1.44889 2.29607 0
M  V30 2034 C 183.03 0.84177 3.49917 0
M  V30 2035 C 182.638 2.31514 3.83543 0
M  V30 2036 C 184.382 0.525355 4.21237 0
M  V30 2037 C 182.289 2.59939 5.31212 0
M  V30 2038 H 181.219 0.182944 0.73147 0
M  V30 2039 H 183.87 1.07971 1.48373 0
M  V30 2040 H 182.252 0.190311 3.95542 0
M  V30 2041 H 183.426 3.0109 3.48829 0
M  V30 2042 H 181.741 2.59907 3.25326 0
M  V30 2043 H 184.338 0.714762 5.29901 0
M  V30 2044 H 184.681 -0.535222 4.12845 0
M  V30 2045 H 185.214 1.134 3.81294 0
M  V30 2046 H 181.953 3.64736 5.44654 0
M  V30 2047 H 181.473 1.94972 5.67227 0
M  V30 2048 H 183.152 2.45429 5.98643 0
M  V30 2049 N 183.284 -1.43765 0.645699 0
M  V30 2050 C 184.533 -2.01116 0.153412 0
M  V30 2051 C 184.846 -1.51493 -1.23731 0
M  V30 2052 O 186.052 -2.01067 -1.8244 0
M  V30 2053 C 184.508 -3.59206 0.223473 0
M  V30 2054 C 184.116 -4.17823 1.61642 0
M  V30 2055 C 185.86 -4.23972 -0.211597 0
M  V30 2056 C 183.767 -5.68183 1.64081 0
M  V30 2057 H 182.697 -0.752093 0.0535891 0
M  V30 2058 H 185.348 -1.6482 0.806633 0
M  V30 2059 H 183.73 -3.92867 -0.497118 0
M  V30 2060 H 184.904 -3.95674 2.36176 0
M  V30 2061 H 183.219 -3.65399 1.99681 0
M  V30 2062 H 185.816 -5.34275 -0.213112 0
M  V30 2063 H 186.159 -3.97352 -1.24165 0
M  V30 2064 H 186.692 -3.95166 0.456988 0
M  V30 2065 H 183.431 -5.99559 2.64971 0
M  V30 2066 H 182.951 -5.9241 0.938611 0
M  V30 2067 H 184.63 -6.32085 1.3812 0
M  V30 2068 N 184.763 -0.387143 -1.52771 0
M  V30 2069 C 185.993 0.195585 -2.05672 0
M  V30 2070 C 186.401 1.41241 -1.25887 0
M  V30 2071 O 185.744 1.81265 -0.298081 0
M  V30 2072 C 185.806 0.632327 -3.53895 0
M  V30 2073 C 185.47 -0.470739 -4.54569 0
M  V30 2074 C 186.467 -1.32746 -5.02667 0
M  V30 2075 C 184.152 -0.637151 -4.98243 0
M  V30 2076 C 186.146 -2.33574 -5.93061 0
M  V30 2077 C 183.833 -1.64877 -5.88438 0
M  V30 2078 C 184.831 -2.49649 -6.35739 0
M  V30 2079 O 184.519 -3.49082 -7.24153 0
M  V30 2080 H 184.251 0.033658 -0.675162 0
M  V30 2081 H 186.805 -0.550221 -1.97893 0
M  V30 2082 H 185.035 1.43008 -3.59285 0
M  V30 2083 H 186.724 1.14048 -3.89548 0
M  V30 2084 H 187.49 -1.21019 -4.69659 0
M  V30 2085 H 183.369 0.0129567 -4.60998 0
M  V30 2086 H 186.913 -2.99777 -6.29904 0
M  V30 2087 H 182.81 -1.76643 -6.2086 0
M  V30 2088 H 183.578 -3.45065 -7.42208 0
M  V30 2089 N 186.241 1.57166 -0.116904 0
M  V30 2090 C 187.171 2.18222 0.830759 0
M  V30 2091 C 188.152 1.12167 1.27877 0
M  V30 2092 O 189.337 1.40394 1.34176 0
M  V30 2093 C 186.467 2.77996 2.08172 0
M  V30 2094 C 185.421 3.89614 1.77157 0
M  V30 2095 C 184.747 4.36187 3.09265 0
M  V30 2096 C 186.047 5.1181 1.04151 0
M  V30 2097 H 187.741 2.97664 0.321992 0
M  V30 2098 H 185.287 1.4318 0.153434 0
M  V30 2099 H 187.24 3.19366 2.74924 0
M  V30 2100 H 185.964 1.9584 2.6137 0
M  V30 2101 H 184.623 3.48816 1.12796 0
M  V30 2102 H 184.271 3.50893 3.60393 0
M  V30 2103 H 183.971 5.11455 2.89288 0
M  V30 2104 H 185.495 4.80207 3.77139 0
M  V30 2105 H 186.909 5.50214 1.61052 0
M  V30 2106 H 185.306 5.92648 0.942762 0
M  V30 2107 H 186.376 4.84892 0.0279022 0
M  V30 2108 N 187.719 -0.156864 1.56817 0
M  V30 2109 C 188.959 -0.877453 1.84608 0
M  V30 2110 C 189.323 -1.78791 0.699845 0
M  V30 2111 O 190.524 -2.5472 0.858553 0
M  V30 2112 C 188.795 -1.63992 3.17555 0
M  V30 2113 S 190.354 -2.40729 3.66872 0
M  V30 2114 H 187.172 -0.293612 0.647544 0
M  V30 2115 H 189.774 -0.138099 1.95012 0
M  V30 2116 H 188.478 -0.962363 3.98957 0
M  V30 2117 H 188.009 -2.42038 3.10131 0
M  V30 2118 H 190.024 -3.65725 3.3535 0
M  V30 2119 N 189.197 -1.51736 -0.425897 0
M  V30 2120 C 190.613 -1.40166 -0.76326 0
M  V30 2121 C 190.813 -0.492962 -1.95377 0
M  V30 2122 O 189.869 0.0475815 -2.52455 0
M  V30 2123 C 191.182 -2.82403 -1.03291 0
M  V30 2124 C 192.73 -2.91632 -1.13665 0
M  V30 2125 C 193.205 -4.34801 -1.43916 0
M  V30 2126 N 194.696 -4.3796 -1.50816 0
M  V30 2127 C 195.431 -5.4578 -1.75817 0
M  V30 2128 N 194.927 -6.63744 -1.98534 0
M  V30 2129 N 196.72 -5.33274 -1.77694 0
M  V30 2130 H 188.871 -2.09361 0.358 0
M  V30 2131 H 191.134 -0.942941 0.0978094 0
M  V30 2132 H 190.84 -3.50943 -0.230696 0
M  V30 2133 H 190.714 -3.22428 -1.95754 0
M  V30 2134 H 193.101 -2.23284 -1.92947 0
M  V30 2135 H 193.182 -2.55088 -0.190756 0
M  V30 2136 H 192.826 -5.03703 -0.65157 0
M  V30 2137 H 192.756 -4.68868 -2.39729 0
M  V30 2138 H 195.247 -3.52919 -1.35118 0
M  V30 2139 H 195.56 -7.41704 -2.17013 0
M  V30 2140 H 193.905 -6.66839 -1.95832 0
M  V30 2141 H 197.096 -4.40098 -1.59473 0
M  V30 2142 H 197.269 -6.1738 -1.9684 0
M  V30 2143 N 190.675 0.682077 -1.42076 0
M  V30 2144 C 191.623 1.81707 -1.45208 0
M  V30 2145 C 192.617 1.66183 -0.328591 0
M  V30 2146 O 193.823 1.7288 -0.501264 0
M  V30 2147 H 190.198 0.599014 -0.454628 0
M  V30 2148 H 192.169 1.76183 -2.40836 0
M  V30 2149 C 190.918 3.19816 -1.36428 0
M  V30 2150 H 190.241 3.32385 -2.22171 0
M  V30 2151 H 191.681 3.99272 -1.42681 0
M  V30 2152 C 190.14 3.36809 -0.078191 0
M  V30 2153 O 190.67 3.92124 0.87188 0
M  V30 2154 N 188.876 2.906 0.00229266 0
M  V30 2155 H 188.423 2.45772 -0.771616 0
M  V30 2156 H 188.381 3.02347 0.862179 0
M  V30 2157 N 192.153 1.28127 0.917671 0
M  V30 2158 C 193.116 1.11744 2.00115 0
M  V30 2159 C 194.116 0.0583052 1.60694 0
M  V30 2160 O 195.306 0.303755 1.71531 0
M  V30 2161 C 192.438 0.704862 3.33533 0
M  V30 2162 H 193.631 2.07966 2.16079 0
M  V30 2163 H 191.184 1.11058 1.09981 0
M  V30 2164 H 191.919 -0.258299 3.2327 0
M  V30 2165 H 191.704 1.4699 3.63505 0
M  V30 2166 H 193.194 0.612768 4.1308 0
M  V30 2167 N 193.631 -1.12557 1.10312 0
M  V30 2168 C 194.578 -2.18247 0.750781 0
M  V30 2169 C 195.548 -1.63853 -0.272293 0
M  V30 2170 O 196.733 -1.90195 -0.151862 0
M  V30 2171 C 193.873 -3.44591 0.187379 0
M  V30 2172 C 192.986 -4.13046 1.2656 0
M  V30 2173 C 192.121 -5.27034 0.663978 0
M  V30 2174 C 191.16 -5.87353 1.72287 0
M  V30 2175 N 190.297 -6.92757 1.1416 0
M  V30 2176 H 195.137 -2.47732 1.65628 0
M  V30 2177 H 192.674 -1.21629 0.827337 0
M  V30 2178 H 194.632 -4.16904 -0.157148 0
M  V30 2179 H 193.262 -3.15527 -0.681355 0
M  V30 2180 H 192.314 -3.38924 1.72727 0
M  V30 2181 H 193.626 -4.53947 2.06721 0
M  V30 2182 H 192.78 -6.06104 0.268824 0
M  V30 2183 H 191.519 -4.87407 -0.169082 0
M  V30 2184 H 190.524 -5.06971 2.12746 0
M  V30 2185 H 191.749 -6.29051 2.55875 0
M  V30 2186 H 189.695 -6.5517 0.329984 0
M  V30 2187 H 189.612 -7.3225 1.88007 0
M  V30 2188 H 190.88 -7.75658 0.772956 0
M  V30 2189 N 195.109 -0.891671 -1.2995 0
M  V30 2190 C 196.386 -0.433307 -1.9074 0
M  V30 2191 C 196.766 1.08646 -1.80995 0
M  V30 2192 O 196.114 1.92476 -1.23147 0
M  V30 2193 C 196.324 -0.938895 -3.36134 0
M  V30 2194 C 197.672 -0.977829 -4.13187 0
M  V30 2195 O 198.696 -0.886015 -3.45005 0
M  V30 2196 O 197.555 -1.11453 -5.35015 0
M  V30 2197 H 194.649 -0.133699 -0.816121 0
M  V30 2198 H 197.195 -0.981011 -1.38471 0
M  V30 2199 H 195.967 -1.98281 -3.37343 0
M  V30 2200 H 195.59 -0.37074 -3.95868 0
M  V30 2201 N 196.587 1.43421 -0.653314 0
M  V30 2202 C 197.833 2.02111 -0.166992 0
M  V30 2203 C 198.166 1.51423 1.21592 0
M  V30 2204 O 197.441 0.707389 1.8118 0
M  V30 2205 C 197.724 3.5966 -0.177948 0
M  V30 2206 C 197.577 4.20579 -1.59478 0
M  V30 2207 C 198.896 4.37413 0.4856 0
M  V30 2208 H 196.015 0.734374 -0.0621557 0
M  V30 2209 H 198.657 1.70717 -0.834016 0
M  V30 2210 H 196.807 3.86537 0.390032 0
M  V30 2211 H 198.479 4.04732 -2.21336 0
M  V30 2212 H 196.722 3.77226 -2.14204 0
M  V30 2213 H 197.393 5.29665 -1.5543 0
M  V30 2214 H 199.869 4.161 0.00234528 0
M  V30 2215 H 198.745 5.47075 0.447207 0
M  V30 2216 H 199.006 4.13672 1.55974 0
M  V30 2217 N 198.065 0.39524 1.52563 0
M  V30 2218 C 199.028 -0.425001 2.25225 0
M  V30 2219 C 200.028 -0.985266 1.27079 0
M  V30 2220 O 201.218 -0.866332 1.5113 0
M  V30 2221 C 198.35 -1.59686 3.01186 0
M  V30 2222 H 199.543 0.211233 2.99155 0
M  V30 2223 H 197.096 0.147472 1.55603 0
M  V30 2224 H 197.831 -2.27035 2.31572 0
M  V30 2225 H 197.616 -1.20176 3.73229 0
M  V30 2226 H 199.106 -2.17743 3.5634 0
M  V30 2227 N 199.544 -1.57102 0.125237 0
M  V30 2228 C 200.79 -1.95697 -0.532035 0
M  V30 2229 C 201.123 -1.009 -1.6593 0
M  V30 2230 O 200.398 -0.047347 -1.94442 0
M  V30 2231 C 200.681 -3.44181 -1.05884 0
M  V30 2232 C 200.534 -4.49752 0.0654392 0
M  V30 2233 C 201.853 -3.94655 -1.9477 0
M  V30 2234 H 198.972 -0.711571 -0.191925 0
M  V30 2235 H 201.614 -1.88923 0.20206 0
M  V30 2236 H 199.764 -3.50085 -1.68442 0
M  V30 2237 H 201.436 -4.55943 0.700982 0
M  V30 2238 H 199.679 -4.27653 0.727709 0
M  V30 2239 H 200.35 -5.50924 -0.344505 0
M  V30 2240 H 202.826 -3.91094 -1.42074 0
M  V30 2241 H 201.702 -4.99057 -2.28546 0
M  V30 2242 H 201.963 -3.35718 -2.87656 0
M  V30 2243 N 201.022 0.148545 -1.56898 0
M  V30 2244 C 202.247 0.880385 -1.87787 0
M  V30 2245 C 202.672 1.74018 -0.714093 0
M  V30 2246 O 202.03 1.78153 0.336343 0
M  V30 2247 C 202.078 1.71422 -3.17249 0
M  V30 2248 O 201.182 2.8183 -3.01074 0
M  V30 2249 H 200.523 0.245301 -0.617028 0
M  V30 2250 H 203.053 0.139826 -2.04122 0
M  V30 2251 H 203.063 2.10954 -3.49231 0
M  V30 2252 H 201.738 1.08284 -4.01556 0
M  V30 2253 H 200.315 2.45715 -2.80497 0
M  V30 2254 N 202.5 1.5196 0.417844 0
M  V30 2255 C 203.747 1.65591 1.16559 0
M  V30 2256 C 204.075 0.381565 1.90721 0
M  V30 2257 O 203.33 -0.635156 1.85106 0
M  V30 2258 C 203.629 2.82269 2.19223 0
M  V30 2259 C 203.295 4.20819 1.61933 0
M  V30 2260 C 201.957 4.58506 1.46033 0
M  V30 2261 C 204.309 5.07196 1.20008 0
M  V30 2262 C 201.637 5.80257 0.867113 0
M  V30 2263 C 203.989 6.29544 0.621086 0
M  V30 2264 C 202.653 6.65987 0.449144 0
M  V30 2265 H 201.923 0.605939 0.42652 0
M  V30 2266 H 204.57 1.86041 0.45397 0
M  V30 2267 H 202.875 2.56118 2.96498 0
M  V30 2268 H 204.572 2.90012 2.76936 0
M  V30 2269 H 201.162 3.91116 1.7529 0
M  V30 2270 H 205.346 4.7867 1.31105 0
M  V30 2271 H 200.602 6.07124 0.721833 0
M  V30 2272 H 204.776 6.95805 0.287798 0
M  V30 2273 H 202.403 7.60199 -0.012632 0
M  V30 2274 N 203.978 -0.674533 1.42435 0
M  V30 2275 C 205.208 -1.46071 1.46105 0
M  V30 2276 C 205.616 -1.89067 0.0709605 0
M  V30 2277 O 204.959 -1.58731 -0.924677 0
M  V30 2278 C 205.021 -2.74145 2.32561 0
M  V30 2279 C 204.685 -2.53224 3.8043 0
M  V30 2280 C 205.682 -2.17809 4.72075 0
M  V30 2281 C 203.367 -2.6821 4.24698 0
M  V30 2282 C 205.361 -1.97648 6.05982 0
M  V30 2283 C 203.048 -2.47665 5.58664 0
M  V30 2284 C 204.046 -2.12437 6.49122 0
M  V30 2285 O 203.734 -1.9209 7.80613 0
M  V30 2286 H 203.466 -0.455959 0.499076 0
M  V30 2287 H 206.02 -0.836193 1.87609 0
M  V30 2288 H 204.25 -3.3908 1.85908 0
M  V30 2289 H 205.939 -3.36028 2.27683 0
M  V30 2290 H 206.705 -2.05826 4.39159 0
M  V30 2291 H 202.584 -2.94609 3.54579 0
M  V30 2292 H 206.128 -1.70075 6.7655 0
M  V30 2293 H 202.025 -2.59244 5.91154 0
M  V30 2294 H 202.793 -2.06686 7.91974 0
M  V30 2295 N 205.456 -1.28612 -0.910864 0
M  V30 2296 C 206.686 -1.1862 -1.69153 0
M  V30 2297 C 207.094 0.257324 -1.87442 0
M  V30 2298 O 206.437 1.18543 -1.40332 0
M  V30 2299 C 206.499 -1.81606 -3.10257 0
M  V30 2300 C 206.163 -3.30864 -3.15243 0
M  V30 2301 C 207.16 -4.27256 -2.96223 0
M  V30 2302 C 204.845 -3.71871 -3.37664 0
M  V30 2303 C 206.839 -5.62631 -2.99541 0
M  V30 2304 C 204.526 -5.07371 -3.40614 0
M  V30 2305 C 205.524 -6.02561 -3.21573 0
M  V30 2306 O 205.212 -7.35589 -3.2429 0
M  V30 2307 H 204.944 -0.412633 -0.535453 0
M  V30 2308 H 207.498 -1.70306 -1.14827 0
M  V30 2309 H 205.728 -1.24418 -3.66138 0
M  V30 2310 H 207.417 -1.66092 -3.70362 0
M  V30 2311 H 208.183 -3.9691 -2.78725 0
M  V30 2312 H 204.062 -2.98241 -3.5153 0
M  V30 2313 H 207.606 -6.36907 -2.84597 0
M  V30 2314 H 203.503 -5.37366 -3.57642 0
M  V30 2315 H 204.271 -7.44252 -3.40633 0
M  V30 2316 N 206.934 1.1197 -1.10907 0
M  V30 2317 C 208.181 1.83588 -0.854507 0
M  V30 2318 C 208.509 1.84357 0.6199 0
M  V30 2319 O 207.764 1.28809 1.47332 0
M  V30 2320 C 208.063 3.30749 -1.35425 0
M  V30 2321 C 207.729 3.50146 -2.84093 0
M  V30 2322 C 206.391 3.55148 -3.2469 0
M  V30 2323 C 208.743 3.56857 -3.79872 0
M  V30 2324 C 206.071 3.6441 -4.59806 0
M  V30 2325 C 208.423 3.6765 -5.14797 0
M  V30 2326 C 207.087 3.7091 -5.54961 0
M  V30 2327 H 206.357 0.671795 -0.312686 0
M  V30 2328 H 209.004 1.32091 -1.38652 0
M  V30 2329 H 207.309 3.84703 -0.742361 0
M  V30 2330 H 209.006 3.8464 -1.1337 0
M  V30 2331 H 205.596 3.46919 -2.51685 0
M  V30 2332 H 209.78 3.52258 -3.49611 0
M  V30 2333 H 205.036 3.65208 -4.9034 0
M  V30 2334 H 209.21 3.71786 -5.88853 0
M  V30 2335 H 206.837 3.7784 -6.59652 0
M  V30 2336 N 208.412 0.89855 1.29475 0
M  V30 2337 C 209.659 0.523882 1.95606 0
M  V30 2338 C 209.987 -0.929608 1.70847 0
M  V30 2339 O 209.242 -1.67401 1.01367 0
M  V30 2340 C 209.541 0.761398 3.49195 0
M  V30 2341 C 209.207 2.19207 3.94029 0
M  V30 2342 C 207.869 2.58326 4.05982 0
M  V30 2343 C 210.221 3.12379 4.17216 0
M  V30 2344 C 207.549 3.898 4.38489 0
M  V30 2345 C 209.901 4.43401 4.51197 0
M  V30 2346 C 208.565 4.82394 4.61359 0
M  V30 2347 H 207.835 0.191702 0.715773 0
M  V30 2348 H 210.482 1.13699 1.54094 0
M  V30 2349 H 208.787 0.0653622 3.91745 0
M  V30 2350 H 210.484 0.450904 3.98457 0
M  V30 2351 H 207.074 1.87846 3.85242 0
M  V30 2352 H 211.258 2.83371 4.07449 0
M  V30 2353 H 206.514 4.19734 4.44559 0
M  V30 2354 H 210.688 5.15623 4.68087 0
M  V30 2355 H 208.315 5.84306 4.86303 0
M  V30 2356 N 209.89 -1.43072 0.660911 0
M  V30 2357 C 210.82 -2.33497 -0.0122829 0
M  V30 2358 C 211.801 -1.49903 -0.803925 0
M  V30 2359 O 212.986 -1.78546 -0.763864 0
M  V30 2360 C 210.116 -3.33363 -0.973994 0
M  V30 2361 C 209.07 -4.27003 -0.291928 0
M  V30 2362 C 208.396 -5.16967 -1.36562 0
M  V30 2363 C 209.696 -5.15816 0.820462 0
M  V30 2364 H 211.39 -2.90038 0.742873 0
M  V30 2365 H 208.936 -1.39461 0.358688 0
M  V30 2366 H 210.889 -3.95524 -1.45392 0
M  V30 2367 H 209.613 -2.75095 -1.7604 0
M  V30 2368 H 208.272 -3.66217 0.167623 0
M  V30 2369 H 207.92 -4.55034 -2.14366 0
M  V30 2370 H 207.62 -5.80441 -0.914454 0
M  V30 2371 H 209.144 -5.82003 -1.84675 0
M  V30 2372 H 210.558 -5.71742 0.422366 0
M  V30 2373 H 208.955 -5.8805 1.19656 0
M  V30 2374 H 210.025 -4.55045 1.67518 0
M  V30 2375 N 211.368 -0.403325 -1.52352 0
M  V30 2376 C 212.301 0.469463 -2.23319 0
M  V30 2377 C 213.279 1.05272 -1.23922 0
M  V30 2378 O 214.463 1.10169 -1.52954 0
M  V30 2379 C 211.59 1.6511 -2.9573 0
M  V30 2380 C 210.636 1.19178 -4.0951 0
M  V30 2381 S 211.469 0.161718 -5.35256 0
M  V30 2382 C 212.625 1.34882 -6.11194 0
M  V30 2383 H 212.858 -0.133134 -2.97002 0
M  V30 2384 H 210.391 -0.187588 -1.53256 0
M  V30 2385 H 212.349 2.3287 -3.38056 0
M  V30 2386 H 211.01 2.22503 -2.21701 0
M  V30 2387 H 210.203 2.07444 -4.59329 0
M  V30 2388 H 209.805 0.592911 -3.6927 0
M  V30 2389 H 212.097 2.27345 -6.38217 0
M  V30 2390 H 213.04 0.89128 -7.02468 0
M  V30 2391 H 213.448 1.57198 -5.42171 0
M  V30 2392 N 212.846 1.57033 -0.133567 0
M  V30 2393 C 214.092 1.95976 0.521649 0
M  V30 2394 C 214.425 1.01779 1.65393 0
M  V30 2395 O 213.7 0.0576581 1.94415 0
M  V30 2396 C 213.983 3.44738 1.04057 0
M  V30 2397 C 213.836 4.49711 -0.0892897 0
M  V30 2398 C 215.155 3.95682 1.92675 0
M  V30 2399 H 212.274 0.712579 0.188149 0
M  V30 2400 H 214.916 1.88813 -0.212076 0
M  V30 2401 H 213.066 3.50973 1.66583 0
M  V30 2402 H 214.738 4.55565 -0.725152 0
M  V30 2403 H 212.981 4.27261 -0.750378 0
M  V30 2404 H 213.652 5.51099 0.315284 0
M  V30 2405 H 216.128 3.91841 1.39998 0
M  V30 2406 H 215.004 5.00262 2.25897 0
M  V30 2407 H 215.265 3.37239 2.85872 0
M  V30 2408 N 214.325 -0.140222 1.56975 0
M  V30 2409 C 215.288 -1.15689 1.97861 0
M  V30 2410 C 216.288 -1.3549 0.865974 0
M  V30 2411 O 217.478 -1.32367 1.13246 0
M  V30 2412 C 214.61 -2.51582 2.30042 0
M  V30 2413 H 215.803 -0.805971 2.88867 0
M  V30 2414 H 213.356 -0.383801 1.51515 0
M  V30 2415 H 214.091 -2.91632 1.41849 0
M  V30 2416 H 213.876 -2.38569 3.11171 0
M  V30 2417 H 215.366 -3.24792 2.62488 0
M  V30 2418 N 215.803 -1.52179 -0.40978 0
M  V30 2419 C 217.051 -1.65878 -1.15451 0
M  V30 2420 C 217.372 -0.390771 -1.91044 0
M  V30 2421 O 216.642 0.594323 -1.86667 0
M  V30 2422 H 215.222 -0.611405 -0.429177 0
M  V30 2423 H 217.884 -1.89219 -0.467134 0
M  V30 2424 H 216.98 -2.49954 -1.86894 0
M  V30 2425 N 217.281 0.66697 -1.42791 0
M  V30 2426 C 218.231 1.77313 -1.43332 0
M  V30 2427 C 219.215 1.5801 -0.303586 0
M  V30 2428 O 220.407 1.68356 -0.546385 0
M  V30 2429 C 217.536 3.15822 -1.34578 0
M  V30 2430 C 216.622 3.40721 -2.52528 0
M  V30 2431 N 217.013 3.36162 -3.77927 0
M  V30 2432 C 215.311 3.71387 -2.46956 0
M  V30 2433 C 216.012 3.60762 -4.56318 0
M  V30 2434 N 214.988 3.81908 -3.86843 0
M  V30 2435 H 218.79 1.72193 -2.38174 0
M  V30 2436 H 216.304 0.868114 -1.3725 0
M  V30 2437 H 218.301 3.951 -1.33048 0
M  V30 2438 H 216.961 3.22133 -0.407453 0
M  V30 2439 H 217.972 3.15885 -4.10411 0
M  V30 2440 H 214.649 3.84897 -1.61743 0
M  V30 2441 H 216.039 3.63132 -5.65318 0
M  V30 2442 N 218.759 1.29093 0.90403 0
M  V30 2443 C 220.17 1.15186 1.46932 0
M  V30 2444 C 220.521 -0.254587 1.94541 0
M  V30 2445 O 219.646 -1.14972 1.83332 0
M  V30 2446 C 220.241 2.08492 2.67051 0
M  V30 2447 C 218.8 1.98621 3.19729 0
M  V30 2448 C 217.947 1.9967 1.92425 0
M  V30 2449 H 220.898 1.41641 0.715789 0
M  V30 2450 H 220.919 1.65461 3.42641 0
M  V30 2451 H 220.431 3.10847 2.3237 0
M  V30 2452 H 218.532 0.993389 3.59114 0
M  V30 2453 H 218.645 2.86068 3.8432 0
M  V30 2454 H 217.009 1.44208 2.09943 0
M  V30 2455 H 217.792 3.03721 1.60026 0
M  V30 2456 N 220.237 -1.11381 1.11499 0
M  V30 2457 C 221.185 -2.19522 0.768956 0
M  V30 2458 C 222.179 -1.67693 -0.239857 0
M  V30 2459 O 223.385 -1.79727 -0.0990755 0
M  V30 2460 H 219.76 -0.715711 0.230786 0
M  V30 2461 H 221.731 -2.45954 1.68964 0
M  V30 2462 C 220.48 -3.46945 0.229073 0
M  V30 2463 H 219.803 -3.8718 0.996596 0
M  V30 2464 H 221.243 -4.23993 0.0251441 0
M  V30 2465 C 219.702 -3.2042 -1.04079 0
M  V30 2466 O 220.232 -3.41178 -2.12038 0
M  V30 2467 N 218.438 -2.74151 -0.963823 0
M  V30 2468 H 217.985 -2.57459 -0.0851722 0
M  V30 2469 H 217.943 -2.56781 -1.81414 0
M  V30 2470 N 221.715 -0.905404 -1.28997 0
M  V30 2471 C 223.126 -0.581953 -1.77398 0
M  V30 2472 C 223.477 0.902552 -1.74208 0
M  V30 2473 O 222.602 1.70584 -1.33154 0
M  V30 2474 C 223.197 -1.04961 -3.22131 0
M  V30 2475 C 221.756 -0.777229 -3.68288 0
M  V30 2476 C 220.903 -1.22109 -2.48967 0
M  V30 2477 H 223.854 -1.08754 -1.15578 0
M  V30 2478 H 223.875 -0.387387 -3.78523 0
M  V30 2479 H 223.387 -2.13008 -3.24421 0
M  V30 2480 H 221.488 0.290383 -3.71467 0
M  V30 2481 H 221.601 -1.37911 -4.58822 0
M  V30 2482 H 219.965 -0.639971 -2.46529 0
M  V30 2483 H 220.748 -2.30972 -2.53982 0
M  V30 2484 N 223.193 1.4272 -0.668489 0
M  V30 2485 C 224.441 2.01226 -0.187769 0
M  V30 2486 C 224.762 1.53092 1.2078 0
M  V30 2487 O 224.032 0.74993 1.80977 0
M  V30 2488 H 222.612 0.744041 -0.0664272 0
M  V30 2489 H 225.274 1.74723 -0.863583 0
M  V30 2490 H 224.37 3.11556 -0.184166 0
M  V30 2491 N 224.671 0.411399 1.52136 0
M  V30 2492 C 225.896 -0.165538 2.06738 0
M  V30 2493 C 226.321 -1.379 1.27926 0
M  V30 2494 O 225.679 -1.78628 0.310114 0
M  V30 2495 C 225.727 -0.492124 3.57226 0
M  V30 2496 O 224.831 -1.58276 3.80818 0
M  V30 2497 H 224.172 -0.0132132 0.663869 0
M  V30 2498 H 226.702 0.585253 1.96051 0
M  V30 2499 H 226.712 -0.750104 4.01045 0
M  V30 2500 H 225.387 0.394922 4.14021 0
M  V30 2501 H 223.964 -1.31677 3.48877 0
M  V30 2502 N 226.149 -1.5696 0.141893 0
M  V30 2503 C 227.396 -1.9596 -0.510492 0
M  V30 2504 C 227.724 -1.02648 -1.65208 0
M  V30 2505 O 226.979 -0.0546947 -1.95624 0
M  V30 2506 C 227.278 -3.41242 -1.06249 0
M  V30 2507 C 226.944 -4.50882 -0.0398791 0
M  V30 2508 C 225.606 -4.80595 0.241247 0
M  V30 2509 C 227.958 -5.17058 0.65578 0
M  V30 2510 C 225.286 -5.73792 1.22393 0
M  V30 2511 C 227.638 -6.11313 1.62724 0
M  V30 2512 C 226.302 -6.39407 1.91612 0
M  V30 2513 H 225.572 -0.717068 -0.186802 0
M  V30 2514 H 228.219 -1.90142 0.227643 0
M  V30 2515 H 226.524 -3.43866 -1.87785 0
M  V30 2516 H 228.221 -3.68742 -1.57576 0
M  V30 2517 H 224.811 -4.27754 -0.269174 0
M  V30 2518 H 228.995 -4.94239 0.451779 0
M  V30 2519 H 224.251 -5.93853 1.45424 0
M  V30 2520 H 228.425 -6.61668 2.17183 0
M  V30 2521 H 226.052 -7.11427 2.6791 0
M  V30 2522 N 227.627 0.131896 -1.57047 0
M  V30 2523 C 229.038 0.690407 -1.73465 0
M  V30 2524 C 229.389 1.8094 -0.758629 0
M  V30 2525 O 228.514 2.16282 0.0713813 0
M  V30 2526 C 229.109 1.25916 -3.14532 0
M  V30 2527 C 227.668 1.76409 -3.32501 0
M  V30 2528 C 226.815 0.658579 -2.69366 0
M  V30 2529 H 229.766 -0.0939144 -1.58422 0
M  V30 2530 H 229.787 2.12892 -3.15369 0
M  V30 2531 H 229.299 0.444515 -3.85546 0
M  V30 2532 H 227.4 2.60391 -2.66509 0
M  V30 2533 H 227.513 1.88241 -4.4057 0
M  V30 2534 H 225.877 1.08899 -2.30246 0
M  V30 2535 H 226.66 -0.14487 -3.42994 0
M  V30 2536 N 229.106 1.52395 0.401703 0
M  V30 2537 C 230.016 1.7917 1.51444 0
M  V30 2538 C 231.032 0.677691 1.6026 0
M  V30 2539 O 232.208 0.963909 1.76835 0
M  V30 2540 C 229.273 1.94347 2.87107 0
M  V30 2541 C 228.334 3.18257 2.88116 0
M  V30 2542 C 227.567 3.32701 4.17308 0
M  V30 2543 O 227.79 2.52238 5.11598 0
M  V30 2544 O 226.724 4.25891 4.25324 0
M  V30 2545 H 230.55 2.73633 1.31752 0
M  V30 2546 H 228.135 1.3733 0.588296 0
M  V30 2547 H 230.017 2.06109 3.67555 0
M  V30 2548 H 228.692 1.03073 3.06851 0
M  V30 2549 H 227.599 3.11947 2.06494 0
M  V30 2550 H 228.932 4.09336 2.73322 0
M  V30 2551 N 230.584 -0.659388 1.43143 0
M  V30 2552 C 231.831 -1.41935 1.44433 0
M  V30 2553 C 232.159 -1.94387 0.0663522 0
M  V30 2554 O 231.414 -1.72314 -0.927706 0
M  V30 2555 C 231.713 -2.62206 2.42864 0
M  V30 2556 C 231.379 -2.28208 3.88886 0
M  V30 2557 C 230.041 -2.18647 4.28657 0
M  V30 2558 C 232.393 -2.00887 4.8093 0
M  V30 2559 C 229.721 -1.79914 5.58433 0
M  V30 2560 C 232.073 -1.63653 6.11065 0
M  V30 2561 C 230.737 -1.52614 6.49819 0
M  V30 2562 H 230.007 -0.519376 0.528517 0
M  V30 2563 H 232.654 -0.750453 1.76183 0
M  V30 2564 H 230.959 -3.34199 2.04495 0
M  V30 2565 H 232.656 -3.2041 2.41119 0
M  V30 2566 H 229.246 -2.36557 3.57406 0
M  V30 2567 H 233.43 -2.07198 4.5098 0
M  V30 2568 H 228.686 -1.69948 5.87305 0
M  V30 2569 H 232.86 -1.41543 6.81864 0
M  V30 2570 H 230.487 -1.22371 7.50286 0
M  V30 2571 N 232.062 -1.29571 -0.897171 0
M  V30 2572 C 233.308 -1.17863 -1.65034 0
M  V30 2573 C 233.641 0.268729 -1.92332 0
M  V30 2574 O 232.916 1.19378 -1.53555 0
M  V30 2575 C 233.199 -1.995 -2.99786 0
M  V30 2576 C 233.052 -3.5239 -2.79538 0
M  V30 2577 C 234.371 -1.82335 -4.00552 0
M  V30 2578 H 231.49 -0.429528 -0.598895 0
M  V30 2579 H 234.132 -1.59072 -1.03905 0
M  V30 2580 H 232.282 -1.64485 -3.51962 0
M  V30 2581 H 233.954 -3.97401 -2.34244 0
M  V30 2582 H 232.197 -3.77187 -2.14273 0
M  V30 2583 H 232.868 -4.04787 -3.75302 0
M  V30 2584 H 235.344 -2.12924 -3.57495 0
M  V30 2585 H 234.22 -2.41801 -4.92771 0
M  V30 2586 H 234.481 -0.779209 -4.35179 0
M  V30 2587 N 233.54 1.10788 -1.12088 0
M  V30 2588 C 234.45 2.20599 -0.798338 0
M  V30 2589 C 235.466 1.72712 0.21135 0
M  V30 2590 O 236.642 2.01348 0.0458477 0
M  V30 2591 C 233.707 3.45771 -0.253674 0
M  V30 2592 C 232.768 4.08411 -1.32283 0
M  V30 2593 C 232.001 5.27608 -0.80406 0
M  V30 2594 O 232.224 5.69241 0.363478 0
M  V30 2595 O 231.158 5.8101 -1.57198 0
M  V30 2596 H 234.984 2.50614 -1.7154 0
M  V30 2597 H 232.569 1.19454 -0.897275 0
M  V30 2598 H 234.451 4.21376 0.0453691 0
M  V30 2599 H 233.126 3.1739 0.636005 0
M  V30 2600 H 232.033 3.34507 -1.67499 0
M  V30 2601 H 233.366 4.40986 -2.18614 0
M  V30 2602 N 235.018 0.912232 1.28515 0
M  V30 2603 C 235.965 0.397954 2.27343 0
M  V30 2604 C 236.935 -0.526766 1.57526 0
M  V30 2605 O 238.12 -0.449292 1.85435 0
M  V30 2606 C 235.26 -0.357263 3.43246 0
M  V30 2607 C 234.373 0.599788 4.27816 0
M  V30 2608 C 233.508 -0.173725 5.30916 0
M  V30 2609 C 232.547 0.777039 6.07148 0
M  V30 2610 N 231.684 0.0371398 7.0209 0
M  V30 2611 H 236.524 1.24577 2.70711 0
M  V30 2612 H 234.061 0.625612 1.33133 0
M  V30 2613 H 236.019 -0.8113 4.09236 0
M  V30 2614 H 234.649 -1.16943 3.00872 0
M  V30 2615 H 233.701 1.17235 3.61884 0
M  V30 2616 H 235.013 1.32704 4.80823 0
M  V30 2617 H 234.167 -0.688394 6.02782 0
M  V30 2618 H 232.906 -0.934041 4.78672 0
M  V30 2619 H 231.911 1.3031 5.34134 0
M  V30 2620 H 233.136 1.53689 6.61481 0
M  V30 2621 H 231.082 -0.705213 6.52198 0
M  V30 2622 H 230.999 0.704249 7.52713 0
M  V30 2623 H 232.267 -0.457383 7.78157 0
M  V30 2624 N 236.496 -1.42363 0.676048 0
M  V30 2625 C 237.743 -2.01522 0.19883 0
M  V30 2626 C 238.071 -1.53456 -1.19505 0
M  V30 2627 O 237.326 -0.727967 -1.81657 0
M  V30 2628 C 237.625 -3.56929 0.183431 0
M  V30 2629 C 237.291 -4.24431 1.52215 0
M  V30 2630 C 235.953 -4.42585 1.8887 0
M  V30 2631 C 238.305 -4.62459 2.40377 0
M  V30 2632 C 235.633 -4.96039 3.13309 0
M  V30 2633 C 237.985 -5.17294 3.64129 0
M  V30 2634 C 236.649 -5.33661 4.00951 0
M  V30 2635 H 235.919 -0.737419 0.0727571 0
M  V30 2636 H 238.566 -1.70531 0.871281 0
M  V30 2637 H 236.871 -3.87594 -0.572532 0
M  V30 2638 H 238.568 -4.00486 -0.203035 0
M  V30 2639 H 235.158 -4.10661 1.22701 0
M  V30 2640 H 239.342 -4.48105 2.13343 0
M  V30 2641 H 234.598 -5.06896 3.41857 0
M  V30 2642 H 238.772 -5.45704 4.32644 0
M  V30 2643 H 236.399 -5.74845 4.9745 0
M  V30 2644 N 237.974 -0.419461 -1.51915 0
M  V30 2645 C 238.907 0.445751 -2.23804 0
M  V30 2646 C 239.885 1.03951 -1.25031 0
M  V30 2647 O 241.069 1.08541 -1.54114 0
M  V30 2648 C 238.196 1.61964 -2.97465 0
M  V30 2649 C 237.242 1.14828 -4.10751 0
M  V30 2650 S 238.075 0.104938 -5.35397 0
M  V30 2651 C 239.231 1.28391 -6.1259 0
M  V30 2652 H 239.464 -0.164627 -2.96844 0
M  V30 2653 H 236.997 -0.203833 -1.53049 0
M  V30 2654 H 238.955 2.29271 -3.40507 0
M  V30 2655 H 237.616 2.20139 -2.24048 0
M  V30 2656 H 236.809 2.02561 -4.61503 0
M  V30 2657 H 236.411 0.553712 -3.69878 0
M  V30 2658 H 238.703 2.20563 -6.40592 0
M  V30 2659 H 239.646 0.816724 -7.03374 0
M  V30 2660 H 240.054 1.51439 -5.43807 0
M  V30 2661 N 239.452 1.56882 -0.150215 0
M  V30 2662 C 240.384 2.14057 0.819286 0
M  V30 2663 C 241.397 1.09082 1.20851 0
M  V30 2664 O 242.586 1.36347 1.15203 0
M  V30 2665 C 239.686 2.65102 2.11127 0
M  V30 2666 C 238.859 3.94511 1.88891 0
M  V30 2667 C 237.918 4.30834 3.02107 0
M  V30 2668 O 236.944 4.99099 2.73659 0
M  V30 2669 N 238.146 3.90676 4.29363 0
M  V30 2670 H 240.911 2.97871 0.330618 0
M  V30 2671 H 238.472 1.61866 0.0332538 0
M  V30 2672 H 240.464 2.86411 2.85921 0
M  V30 2673 H 239.034 1.85994 2.51247 0
M  V30 2674 H 238.254 3.81795 0.981152 0
M  V30 2675 H 239.542 4.7907 1.71376 0
M  V30 2676 H 238.94 3.35677 4.55343 0
M  V30 2677 H 237.497 4.1703 5.00928 0
M  V30 2678 N 240.93 -0.123565 1.57115 0
M  V30 2679 C 242.178 -0.83051 1.84247 0
M  V30 2680 C 242.499 -1.80629 0.73471 0
M  V30 2681 O 241.769 -1.94403 -0.241688 0
M  V30 2682 H 240.349 -0.309694 0.679778 0
M  V30 2683 H 243.011 -0.111976 1.94578 0
M  V30 2684 H 242.107 -1.37852 2.80006 0
M  V30 2685 N 242.408 -1.52605 -0.393616 0
M  V30 2686 C 243.34 -1.73303 -1.49995 0
M  V30 2687 C 244.353 -0.613473 -1.50799 0
M  V30 2688 O 245.542 -0.889049 -1.54784 0
M  V30 2689 C 242.642 -1.77245 -2.88855 0
M  V30 2690 C 241.815 -3.06483 -3.12069 0
M  V30 2691 C 240.874 -3.02033 -4.30886 0
M  V30 2692 O 239.9 -3.75907 -4.27414 0
M  V30 2693 N 241.102 -2.20897 -5.36828 0
M  V30 2694 H 243.867 -2.68756 -1.32629 0
M  V30 2695 H 241.428 -1.51036 -0.583083 0
M  V30 2696 H 243.42 -1.7178 -3.66434 0
M  V30 2697 H 241.99 -0.891993 -2.99603 0
M  V30 2698 H 241.21 -3.25474 -2.22396 0
M  V30 2699 H 242.498 -3.91947 -3.2443 0
M  V30 2700 H 241.896 -1.60336 -5.42502 0
M  V30 2701 H 240.453 -2.21275 -6.13091 0
M  V30 2702 N 243.887 0.651787 -1.4349 0
M  V30 2703 C 245.133 1.41376 -1.45398 0
M  V30 2704 C 245.466 1.94041 -0.0784823 0
M  V30 2705 O 244.741 1.72379 0.900878 0
M  V30 2706 C 245.024 2.59414 -2.49752 0
M  V30 2707 C 244.877 2.12232 -3.96582 0
M  V30 2708 C 246.196 3.61626 -2.50827 0
M  V30 2709 H 243.315 0.512719 -0.529422 0
M  V30 2710 H 245.957 0.738796 -1.75048 0
M  V30 2711 H 244.107 3.16997 -2.246 0
M  V30 2712 H 245.779 1.59639 -4.32797 0
M  V30 2713 H 244.022 1.43592 -4.09346 0
M  V30 2714 H 244.693 2.9712 -4.65214 0
M  V30 2715 H 247.169 3.13805 -2.7325 0
M  V30 2716 H 246.045 4.41766 -3.25783 0
M  V30 2717 H 246.306 4.14314 -1.5426 0
M  V30 2718 N 245.365 1.30045 0.890287 0
M  V30 2719 C 246.776 1.16738 1.45702 0
M  V30 2720 C 247.127 -0.233939 1.948 0
M  V30 2721 O 246.252 -1.13021 1.84541 0
M  V30 2722 C 246.847 2.11313 2.64825 0
M  V30 2723 C 245.406 2.02001 3.17604 0
M  V30 2724 C 244.553 2.01699 1.90296 0
M  V30 2725 H 247.504 1.42392 0.700726 0
M  V30 2726 H 247.525 1.69086 3.40867 0
M  V30 2727 H 247.037 3.13294 2.2906 0
M  V30 2728 H 245.138 1.03142 3.5804 0
M  V30 2729 H 245.251 2.90128 3.81264 0
M  V30 2730 H 243.615 1.46427 2.08402 0
M  V30 2731 H 244.398 3.05402 1.56795 0
M  V30 2732 N 246.843 -1.10192 1.12674 0
M  V30 2733 C 248.073 -1.85713 0.905213 0
M  V30 2734 C 248.481 -1.81056 -0.549108 0
M  V30 2735 O 247.824 -1.19927 -1.39151 0
M  V30 2736 C 247.886 -3.34972 1.30516 0
M  V30 2737 C 247.55 -3.63385 2.77129 0
M  V30 2738 C 248.547 -3.59772 3.75313 0
M  V30 2739 C 246.232 -3.91981 3.14096 0
M  V30 2740 C 248.226 -3.84354 5.08479 0
M  V30 2741 C 245.913 -4.16218 4.47443 0
M  V30 2742 C 246.911 -4.12395 5.44444 0
M  V30 2743 O 246.599 -4.36014 6.75387 0
M  V30 2744 H 246.331 -0.593719 0.323223 0
M  V30 2745 H 248.885 -1.40198 1.50112 0
M  V30 2746 H 247.115 -3.81156 0.652463 0
M  V30 2747 H 248.804 -3.91886 1.05736 0
M  V30 2748 H 249.57 -3.37716 3.48099 0
M  V30 2749 H 245.449 -3.94085 2.39202 0
M  V30 2750 H 248.993 -3.81285 5.84181 0
M  V30 2751 H 244.89 -4.37754 4.74386 0
M  V30 2752 H 245.658 -4.53516 6.8137 0
M  V30 2753 N 248.321 -0.919034 -1.28029 0
M  V30 2754 C 249.569 -0.553838 -1.94363 0
M  V30 2755 C 249.89 0.906357 -1.72656 0
M  V30 2756 O 249.16 1.64143 -1.0693 0
M  V30 2757 H 247.74 -0.201834 -0.719216 0
M  V30 2758 H 250.402 -1.16954 -1.55909 0
M  V30 2759 H 249.498 -0.752758 -3.02886 0
M  V30 2760 N 249.799 1.42003 -0.683588 0
M  V30 2761 C 251.024 2.06265 -0.216647 0
M  V30 2762 C 251.449 1.51059 1.12083 0
M  V30 2763 O 250.807 0.632638 1.69904 0
M  V30 2764 C 250.855 3.60191 -0.171759 0
M  V30 2765 O 249.959 4.03396 0.857069 0
M  V30 2766 H 249.3 0.65502 -0.108834 0
M  V30 2767 H 251.83 1.81982 -0.935077 0
M  V30 2768 H 251.84 4.08 0.0014303 0
M  V30 2769 H 250.515 3.99743 -1.14796 0
M  V30 2770 H 249.092 3.67117 0.654208 0
M  V30 2771 N 251.277 0.427512 1.51691 0
M  V30 2772 C 252.523 -0.134744 2.02953 0
M  V30 2773 C 252.878 -1.41235 1.30654 0
M  V30 2774 O 252.171 -1.87168 0.409713 0
M  V30 2775 C 252.365 -0.418249 3.54944 0
M  V30 2776 C 252.194 0.830327 4.41968 0
M  V30 2777 C 250.964 1.36097 4.86627 0
M  V30 2778 C 253.162 1.7137 4.84909 0
M  V30 2779 N 251.144 2.56311 5.57833 0
M  V30 2780 C 252.515 2.76195 5.55082 0
M  V30 2781 C 254.57 1.72928 4.66905 0
M  V30 2782 C 253.273 3.82512 6.09161 0
M  V30 2783 C 255.299 2.78175 5.21894 0
M  V30 2784 C 254.661 3.8172 5.92004 0
M  V30 2785 H 250.76 -0.0103958 0.781931 0
M  V30 2786 H 253.344 0.585981 1.85673 0
M  V30 2787 H 251.515 -1.10801 3.7226 0
M  V30 2788 H 253.247 -0.970999 3.92879 0
M  V30 2789 H 250.002 0.916311 4.64651 0
M  V30 2790 H 250.426 3.17242 5.98069 0
M  V30 2791 H 255.068 0.942081 4.12171 0
M  V30 2792 H 252.786 4.62077 6.62956 0
M  V30 2793 H 256.372 2.8031 5.09821 0
M  V30 2794 H 255.252 4.61821 6.33791 0
M  V30 2795 N 252.755 -1.56801 0.158532 0
M  V30 2796 C 253.985 -2.00568 -0.495583 0
M  V30 2797 C 254.393 -1.03774 -1.58201 0
M  V30 2798 O 253.736 -0.0285797 -1.83678 0
M  V30 2799 C 253.798 -3.40768 -1.14532 0
M  V30 2800 C 253.462 -4.56553 -0.202101 0
M  V30 2801 C 254.459 -5.16714 0.574675 0
M  V30 2802 C 252.144 -5.02197 -0.101648 0
M  V30 2803 C 254.138 -6.20939 1.43924 0
M  V30 2804 C 251.825 -6.06274 0.766508 0
M  V30 2805 C 252.823 -6.65515 1.53555 0
M  V30 2806 O 252.511 -7.67575 2.38922 0
M  V30 2807 H 252.243 -0.662893 -0.13247 0
M  V30 2808 H 254.797 -2.03829 0.253559 0
M  V30 2809 H 253.027 -3.34381 -1.94233 0
M  V30 2810 H 254.716 -3.6857 -1.70033 0
M  V30 2811 H 255.482 -4.82341 0.507167 0
M  V30 2812 H 251.361 -4.55807 -0.689994 0
M  V30 2813 H 254.905 -6.67107 2.03996 0
M  V30 2814 H 250.802 -6.40073 0.835266 0
M  V30 2815 H 251.57 -7.84844 2.32296 0
M  V30 2816 N 254.233 0.115231 -1.57178 0
M  V30 2817 C 255.18 1.14115 -2.00615 0
M  V30 2818 C 256.15 1.40939 -0.878941 0
M  V30 2819 O 257.335 1.52741 -1.14345 0
M  V30 2820 C 254.475 2.46156 -2.4187 0
M  V30 2821 C 253.588 2.26236 -3.68024 0
M  V30 2822 C 252.723 3.51534 -3.98243 0
M  V30 2823 C 251.762 3.26787 -5.17568 0
M  V30 2824 N 250.899 4.44298 -5.43639 0
M  V30 2825 H 255.739 0.763743 -2.88047 0
M  V30 2826 H 253.276 0.365615 -1.42484 0
M  V30 2827 H 255.234 3.23189 -2.63827 0
M  V30 2828 H 253.864 2.81783 -1.57475 0
M  V30 2829 H 252.916 1.40102 -3.5366 0
M  V30 2830 H 254.228 2.03929 -4.55208 0
M  V30 2831 H 253.382 4.36984 -4.20868 0
M  V30 2832 H 252.121 3.76876 -3.09541 0
M  V30 2833 H 251.126 2.39729 -4.94783 0
M  V30 2834 H 252.351 3.02812 -6.0785 0
M  V30 2835 H 250.297 4.69754 -4.57895 0
M  V30 2836 H 250.214 4.25109 -6.25154 0
M  V30 2837 H 251.482 5.3087 -5.70786 0
M  V30 2838 N 255.711 1.52812 0.385517 0
M  V30 2839 C 256.661 1.74219 1.47078 0
M  V30 2840 C 257.645 0.59632 1.49442 0
M  V30 2841 O 258.837 0.85428 1.5502 0
M  V30 2842 C 255.966 1.9176 2.84751 0
M  V30 2843 C 255.052 3.12289 2.86943 0
M  V30 2844 N 255.443 4.34575 2.58802 0
M  V30 2845 C 253.741 3.12605 3.1811 0
M  V30 2846 C 254.442 5.162 2.68166 0
M  V30 2847 N 253.418 4.51964 3.02043 0
M  V30 2848 H 257.22 2.6639 1.24152 0
M  V30 2849 H 254.734 1.51166 0.593504 0
M  V30 2850 H 256.731 2.05218 3.62893 0
M  V30 2851 H 255.391 1.00805 3.08656 0
M  V30 2852 H 256.402 4.62649 2.32759 0
M  V30 2853 H 253.079 2.31472 3.47458 0
M  V30 2854 H 254.469 6.23689 2.49923 0
M  V30 2855 N 257.189 -0.644168 1.43834 0
M  V30 2856 C 258.435 -1.40603 1.46146 0
M  V30 2857 C 258.768 -1.93997 0.0887717 0
M  V30 2858 O 258.043 -1.72854 -0.891724 0
M  V30 2859 C 258.326 -2.58086 2.51124 0
M  V30 2860 C 258.179 -2.10126 3.97702 0
M  V30 2861 C 259.498 -3.60291 2.52742 0
M  V30 2862 H 256.617 -0.509905 0.532134 0
M  V30 2863 H 259.259 -0.729502 1.75437 0
M  V30 2864 H 257.409 -3.15801 2.26278 0
M  V30 2865 H 259.081 -1.57342 4.33637 0
M  V30 2866 H 257.324 -1.41419 4.10101 0
M  V30 2867 H 257.995 -2.94649 4.66783 0
M  V30 2868 H 260.471 -3.12352 2.7491 0
M  V30 2869 H 259.347 -4.40032 3.28121 0
M  V30 2870 H 259.608 -4.1349 1.56455 0
M  V30 2871 N 258.668 -1.30515 -0.883378 0
M  V30 2872 C 259.615 -1.17032 -1.98927 0
M  V30 2873 C 260.585 -0.0594241 -1.65994 0
M  V30 2874 O 261.77 -0.229895 -1.8941 0
M  V30 2875 C 258.91 -0.869777 -3.33959 0
M  V30 2876 C 258.023 -2.06271 -3.79574 0
M  V30 2877 C 257.158 -1.70011 -5.03259 0
M  V30 2878 C 256.197 -2.8579 -5.41286 0
M  V30 2879 N 255.334 -2.49816 -6.56153 0
M  V30 2880 H 260.174 -2.1164 -2.09792 0
M  V30 2881 H 257.711 -1.05296 -1.02719 0
M  V30 2882 H 259.669 -0.676138 -4.11685 0
M  V30 2883 H 258.299 0.0394332 -3.22776 0
M  V30 2884 H 257.351 -2.36755 -2.97744 0
M  V30 2885 H 258.663 -2.92971 -4.03694 0
M  V30 2886 H 257.817 -1.47032 -5.88614 0
M  V30 2887 H 256.556 -0.804829 -4.81013 0
M  V30 2888 H 255.561 -3.09434 -4.54456 0
M  V30 2889 H 256.786 -3.76008 -5.65504 0
M  V30 2890 H 254.732 -1.62795 -6.35479 0
M  V30 2891 H 254.649 -3.30048 -6.8015 0
M  V30 2892 H 255.917 -2.30197 -7.44735 0
M  V30 2893 N 260.146 1.09593 -1.13257 0
M  V30 2894 C 261.371 1.8604 -0.916732 0
M  V30 2895 C 261.796 1.80504 0.529146 0
M  V30 2896 O 261.154 1.18127 1.37534 0
M  V30 2897 C 261.202 3.32017 -1.40703 0
M  V30 2898 O 260.306 4.08141 -0.591153 0
M  V30 2899 H 259.647 0.576943 -0.328683 0
M  V30 2900 H 262.177 1.38405 -1.50682 0
M  V30 2901 H 262.187 3.82865 -1.4099 0
M  V30 2902 H 260.862 3.35361 -2.45979 0
M  V30 2903 H 259.439 3.67084 -0.656005 0
M  V30 2904 N 261.624 0.925811 1.2754 0
M  V30 2905 C 262.87 0.575575 1.95086 0
M  V30 2906 C 263.225 -0.873246 1.71441 0
M  V30 2907 O 262.518 -1.61443 1.03183 0
M  V30 2908 C 262.712 0.835296 3.47502 0
M  V30 2909 C 262.541 2.30781 3.85967 0
M  V30 2910 C 261.311 2.96017 4.09514 0
M  V30 2911 C 263.509 3.28519 3.95702 0
M  V30 2912 N 261.491 4.3344 4.34744 0
M  V30 2913 C 262.862 4.51146 4.25285 0
M  V30 2914 C 264.917 3.23753 3.7827 0
M  V30 2915 C 263.62 5.69606 4.39251 0
M  V30 2916 C 265.646 4.41523 3.9346 0
M  V30 2917 C 265.008 5.62928 4.23428 0
M  V30 2918 H 261.107 0.260711 0.737261 0
M  V30 2919 H 263.691 1.19204 1.53943 0
M  V30 2920 H 261.862 0.248005 3.87607 0
M  V30 2921 H 263.594 0.447878 4.02214 0
M  V30 2922 H 260.349 2.46695 4.04275 0
M  V30 2923 H 260.773 5.04528 4.5142 0
M  V30 2924 H 265.415 2.3096 3.54143 0
M  V30 2925 H 263.133 6.62866 4.62205 0
M  V30 2926 H 266.719 4.39351 3.81394 0
M  V30 2927 H 265.599 6.52538 4.34929 0
M  V30 2928 N 263.102 -1.41638 0.69111 0
M  V30 2929 C 264.348 -2.02104 0.229258 0
M  V30 2930 C 264.703 -1.53741 -1.15678 0
M  V30 2931 O 263.996 -0.736849 -1.76865 0
M  V30 2932 C 264.19 -3.56714 0.221277 0
M  V30 2933 C 264.019 -4.20083 1.605 0
M  V30 2934 C 262.789 -4.54566 2.20676 0
M  V30 2935 C 264.987 -4.46587 2.55078 0
M  V30 2936 N 262.969 -5.03199 3.5166 0
M  V30 2937 C 264.34 -4.96946 3.70735 0
M  V30 2938 C 266.395 -4.28593 2.53401 0
M  V30 2939 C 265.098 -5.31203 4.8499 0
M  V30 2940 C 267.124 -4.63936 3.66765 0
M  V30 2941 C 266.486 -5.14463 4.81152 0
M  V30 2942 H 262.585 -0.771256 0.12918 0
M  V30 2943 H 265.169 -1.72251 0.907626 0
M  V30 2944 H 263.34 -3.86051 -0.426562 0
M  V30 2945 H 265.072 -4.03896 -0.254983 0
M  V30 2946 H 261.827 -4.4087 1.73005 0
M  V30 2947 H 262.251 -5.31926 4.18789 0
M  V30 2948 H 266.893 -3.88771 1.66184 0
M  V30 2949 H 264.611 -5.69951 5.72871 0
M  V30 2950 H 268.197 -4.51677 3.66714 0
M  V30 2951 H 267.077 -5.41299 5.67419 0
M  V30 2952 N 264.58 -0.43555 -1.51462 0
M  V30 2953 C 265.49 0.383001 -2.31453 0
M  V30 2954 C 266.506 1.02931 -1.4029 0
M  V30 2955 O 267.682 1.02507 -1.73362 0
M  V30 2956 C 264.747 1.47043 -3.13973 0
M  V30 2957 C 263.808 0.844433 -4.20913 0
M  V30 2958 C 263.041 1.88004 -4.9949 0
M  V30 2959 O 263.264 3.10199 -4.78678 0
M  V30 2960 O 262.198 1.47157 -5.83634 0
M  V30 2961 H 266.024 -0.269964 -3.02498 0
M  V30 2962 H 263.609 -0.19813 -1.4808 0
M  V30 2963 H 265.491 2.10113 -3.65281 0
M  V30 2964 H 264.166 2.10751 -2.45695 0
M  V30 2965 H 263.073 0.175729 -3.73687 0
M  V30 2966 H 264.406 0.250869 -4.9156 0
M  V30 2967 N 266.058 1.56714 -0.166846 0
M  V30 2968 C 267.005 2.17746 0.765193 0
M  V30 2969 C 267.975 1.11614 1.23011 0
M  V30 2970 O 269.16 1.39745 1.29908 0
M  V30 2971 C 266.3 2.81882 1.9909 0
M  V30 2972 C 265.413 4.02462 1.56997 0
M  V30 2973 C 264.548 4.54537 2.749 0
M  V30 2974 C 263.587 5.67538 2.29275 0
M  V30 2975 N 262.724 6.14142 3.40255 0
M  V30 2976 H 267.564 2.97048 0.237952 0
M  V30 2977 H 265.101 1.4672 0.105725 0
M  V30 2978 H 267.059 3.17221 2.70974 0
M  V30 2979 H 265.689 2.05191 2.49192 0
M  V30 2980 H 264.741 3.72973 0.748037 0
M  V30 2981 H 266.053 4.84273 1.19503 0
M  V30 2982 H 265.207 4.92035 3.54946 0
M  V30 2983 H 263.946 3.71774 3.1565 0
M  V30 2984 H 262.951 5.29597 1.47674 0
M  V30 2985 H 264.176 6.52099 1.89588 0
M  V30 2986 H 262.122 5.3431 3.8059 0
M  V30 2987 H 262.039 6.9093 3.06841 0
M  V30 2988 H 263.307 6.56289 4.206 0
M  V30 2989 N 267.536 -0.106894 1.57237 0
M  V30 2990 C 268.784 -0.810921 1.85117 0
M  V30 2991 C 269.105 -1.7984 0.753827 0
M  V30 2992 O 268.375 -1.94649 -0.221056 0
M  V30 2993 H 266.955 -0.302466 0.683025 0
M  V30 2994 H 269.617 -0.0913324 1.94686 0
M  V30 2995 H 268.713 -1.34875 2.81452 0
M  V30 2996 N 269.014 -1.53014 -0.377408 0
M  V30 2997 C 269.961 -1.78616 -1.46168 0
M  V30 2998 C 270.931 -0.629917 -1.53692 0
M  V30 2999 O 272.116 -0.870861 -1.69766 0
M  V30 3000 C 269.256 -1.97123 -2.8326 0
M  V30 3001 C 268.369 -3.24831 -2.84796 0
M  V30 3002 C 267.504 -3.33591 -4.13389 0
M  V30 3003 C 266.543 -4.55377 -4.09021 0
M  V30 3004 N 265.68 -4.61355 -5.29241 0
M  V30 3005 H 270.52 -2.71142 -1.23637 0
M  V30 3006 H 268.057 -1.34326 -0.599577 0
M  V30 3007 H 270.015 -2.05839 -3.62886 0
M  V30 3008 H 268.645 -1.07946 -3.04216 0
M  V30 3009 H 267.697 -3.25128 -1.97474 0
M  V30 3010 H 269.009 -4.14523 -2.77439 0
M  V30 3011 H 268.163 -3.41554 -5.01424 0
M  V30 3012 H 266.902 -2.41894 -4.23484 0
M  V30 3013 H 265.907 -4.47527 -3.19373 0
M  V30 3014 H 267.132 -5.48402 -4.00539 0
M  V30 3015 H 265.078 -3.72554 -5.39944 0
M  V30 3016 H 264.995 -5.44935 -5.24006 0
M  V30 3017 H 266.263 -4.73586 -6.19141 0
M  V30 3018 N 270.492 0.636531 -1.44174 0
M  V30 3019 C 271.717 1.42847 -1.50364 0
M  V30 3020 C 272.142 1.87665 -0.127867 0
M  V30 3021 O 271.5 1.58408 0.88185 0
M  V30 3022 C 271.548 2.62854 -2.4686 0
M  V30 3023 O 270.652 3.62501 -1.9664 0
M  V30 3024 H 269.993 0.427642 -0.507955 0
M  V30 3025 H 272.523 0.777422 -1.89255 0
M  V30 3026 H 272.533 3.10465 -2.64718 0
M  V30 3027 H 271.208 2.29578 -3.46795 0
M  V30 3028 H 269.785 3.21735 -1.88523 0
M  V30 3029 N 271.97 1.30982 0.876444 0
M  V30 3030 C 273.381 1.18277 1.44456 0
M  V30 3031 C 273.732 -0.213265 1.95037 0
M  V30 3032 O 272.857 -1.11057 1.85729 0
M  V30 3033 C 273.452 2.1411 2.62569 0
M  V30 3034 C 272.011 2.05358 3.15444 0
M  V30 3035 C 271.158 2.03706 1.88146 0
M  V30 3036 H 274.109 1.43127 0.685584 0
M  V30 3037 H 274.13 1.72692 3.39054 0
M  V30 3038 H 273.642 3.15706 2.25724 0
M  V30 3039 H 271.743 1.06934 3.56926 0
M  V30 3040 H 271.856 2.94156 3.78166 0
M  V30 3041 H 270.22 1.48629 2.06837 0
M  V30 3042 H 271.003 3.07047 1.53547 0
M  V30 3043 N 273.449 -1.08991 1.13837 0
M  V30 3044 C 274.865 -1.33312 0.877506 0
M  V30 3045 C 275.065 -1.95587 -0.48456 0
M  V30 3046 O 274.121 -2.20509 -1.23013 0
M  V30 3047 C 275.434 -2.24045 2.0056 0
M  V30 3048 C 276.982 -2.37542 2.03821 0
M  V30 3049 C 277.457 -3.31614 3.15905 0
M  V30 3050 N 278.948 -3.39189 3.15445 0
M  V30 3051 C 279.683 -4.11992 3.98811 0
M  V30 3052 N 279.179 -4.87553 4.92203 0
M  V30 3053 N 280.972 -4.07762 3.86894 0
M  V30 3054 H 273.123 -0.669456 2.01574 0
M  V30 3055 H 275.386 -0.357482 0.878015 0
M  V30 3056 H 275.092 -1.85521 2.98789 0
M  V30 3057 H 274.966 -3.24466 1.92359 0
M  V30 3058 H 277.353 -2.75327 1.06202 0
M  V30 3059 H 277.434 -1.36884 2.16093 0
M  V30 3060 H 277.078 -2.94551 4.13766 0
M  V30 3061 H 277.008 -4.32186 3.0087 0
M  V30 3062 H 279.499 -2.85314 2.47799 0
M  V30 3063 H 279.812 -5.40549 5.52292 0
M  V30 3064 H 278.157 -4.86627 4.96205 0
M  V30 3065 H 281.348 -3.47833 3.13257 0
M  V30 3066 H 281.521 -4.64238 4.52092 0
M  V30 3067 N 274.927 -0.932562 -1.27047 0
M  V30 3068 C 276.173 -0.576412 -1.94436 0
M  V30 3069 C 276.506 0.880891 -1.73072 0
M  V30 3070 O 275.781 1.62905 -1.06264 0
M  V30 3071 C 276.064 -0.909031 -3.48437 0
M  V30 3072 C 275.917 -2.42044 -3.79123 0
M  V30 3073 C 277.236 -0.418341 -4.38107 0
M  V30 3074 H 274.355 -0.210888 -0.706184 0
M  V30 3075 H 276.997 -1.16522 -1.50075 0
M  V30 3076 H 275.147 -0.407947 -3.86352 0
M  V30 3077 H 276.819 -2.99359 -3.50973 0
M  V30 3078 H 275.062 -2.86758 -3.25503 0
M  V30 3079 H 275.733 -2.6037 -4.86736 0
M  V30 3080 H 278.209 -0.847856 -4.0737 0
M  V30 3081 H 277.085 -0.679981 -5.44672 0
M  V30 3082 H 277.346 0.681642 -4.36814 0
M  V30 3083 N 276.405 1.4127 -0.698611 0
M  V30 3084 C 277.335 2.33447 -0.049629 0
M  V30 3085 C 278.316 1.51982 0.763898 0
M  V30 3086 O 279.501 1.80509 0.716257 0
M  V30 3087 C 276.631 3.35828 0.885267 0
M  V30 3088 C 275.585 4.27627 0.178613 0
M  V30 3089 C 274.911 5.20406 1.22807 0
M  V30 3090 C 276.211 5.13459 -0.956933 0
M  V30 3091 H 277.905 2.87966 -0.81951 0
M  V30 3092 H 275.451 1.38461 -0.395538 0
M  V30 3093 H 277.404 3.9924 1.34854 0
M  V30 3094 H 276.128 2.79666 1.68685 0
M  V30 3095 H 274.787 3.65643 -0.26466 0
M  V30 3096 H 274.435 4.60558 2.02226 0
M  V30 3097 H 274.135 5.82661 0.760239 0
M  V30 3098 H 275.659 5.86695 1.69179 0
M  V30 3099 H 277.073 5.70421 -0.573805 0
M  V30 3100 H 275.47 5.8467 -1.35205 0
M  V30 3101 H 276.54 4.50443 -1.79524 0
M  V30 3102 N 277.883 0.443576 1.51229 0
M  V30 3103 C 279.13 -0.120796 2.02139 0
M  V30 3104 C 279.458 -1.42166 1.32736 0
M  V30 3105 O 278.713 -1.90849 0.43301 0
M  V30 3106 C 279.012 -0.380579 3.55368 0
M  V30 3107 C 278.678 0.83523 4.43097 0
M  V30 3108 C 277.34 1.16864 4.66794 0
M  V30 3109 C 279.692 1.64601 4.94526 0
M  V30 3110 C 277.02 2.31339 5.39165 0
M  V30 3111 C 279.372 2.78181 5.68153 0
M  V30 3112 C 278.036 3.11969 5.90112 0
M  V30 3113 H 277.306 -0.0442023 0.73968 0
M  V30 3114 H 279.953 0.592046 1.82118 0
M  V30 3115 H 278.258 -1.17538 3.73754 0
M  V30 3116 H 279.955 -0.830777 3.923 0
M  V30 3117 H 276.545 0.565437 4.24854 0
M  V30 3118 H 280.729 1.40163 4.76097 0
M  V30 3119 H 275.985 2.57823 5.5438 0
M  V30 3120 H 280.159 3.41371 6.06992 0
M  V30 3121 H 277.786 4.00784 6.45969 0
M  V30 3122 N 279.361 -1.56624 0.175154 0
M  V30 3123 C 280.291 -2.21155 -0.749195 0
M  V30 3124 C 281.272 -1.16836 -1.23626 0
M  V30 3125 O 282.457 -1.45277 -1.28873 0
M  V30 3126 C 279.587 -2.8553 -1.97711 0
M  V30 3127 C 278.541 -3.95921 -1.62575 0
M  V30 3128 C 277.867 -4.47365 -2.92864 0
M  V30 3129 C 279.167 -5.15323 -0.850838 0
M  V30 3130 H 280.861 -2.98653 -0.211295 0
M  V30 3131 H 278.407 -1.43651 -0.100188 0
M  V30 3132 H 280.36 -3.2935 -2.62881 0
M  V30 3133 H 279.084 -2.05406 -2.53921 0
M  V30 3134 H 277.743 -3.52762 -0.997719 0
M  V30 3135 H 277.391 -3.64027 -3.47122 0
M  V30 3136 H 277.091 -5.21839 -2.70106 0
M  V30 3137 H 278.615 -4.93873 -3.59056 0
M  V30 3138 H 280.029 -5.55812 -1.40521 0
M  V30 3139 H 278.426 -5.95739 -0.722154 0
M  V30 3140 H 279.496 -4.84661 0.152082 0
M  V30 3141 N 280.839 0.0985539 -1.57292 0
M  V30 3142 C 282.086 0.802678 -1.85912 0
M  V30 3143 C 282.414 1.78901 -0.763186 0
M  V30 3144 O 281.669 1.94178 0.243559 0
M  V30 3145 C 281.968 1.56927 -3.21105 0
M  V30 3146 C 281.634 0.725376 -4.45027 0
M  V30 3147 C 280.296 0.492726 -4.78671 0
M  V30 3148 C 282.648 0.138493 -5.21016 0
M  V30 3149 C 279.976 -0.336727 -5.85733 0
M  V30 3150 C 282.328 -0.678264 -6.28953 0
M  V30 3151 C 280.992 -0.921039 -6.61115 0
M  V30 3152 H 280.262 0.293721 -0.680301 0
M  V30 3153 H 282.909 0.0642841 -1.91392 0
M  V30 3154 H 281.214 2.37914 -3.11294 0
M  V30 3155 H 282.911 2.11841 -3.40477 0
M  V30 3156 H 279.501 0.916815 -4.18679 0
M  V30 3157 H 283.685 0.305404 -4.95359 0
M  V30 3158 H 278.941 -0.533836 -6.09065 0
M  V30 3159 H 283.115 -1.1399 -6.87007 0
M  V30 3160 H 280.742 -1.56556 -7.43905 0
M  V30 3161 N 282.317 1.53212 0.369288 0
M  V30 3162 C 283.547 1.72868 1.13139 0
M  V30 3163 C 283.955 0.455754 1.83629 0
M  V30 3164 O 283.298 -0.580861 1.74275 0
M  V30 3165 C 283.36 2.83667 2.20847 0
M  V30 3166 C 283.024 4.24142 1.70155 0
M  V30 3167 C 284.021 5.06619 1.16763 0
M  V30 3168 C 281.706 4.70539 1.7578 0
M  V30 3169 C 283.7 6.33581 0.696678 0
M  V30 3170 C 281.387 5.97481 1.28297 0
M  V30 3171 C 282.385 6.78833 0.753307 0
M  V30 3172 O 282.073 8.03393 0.285475 0
M  V30 3173 H 281.805 0.581707 0.344373 0
M  V30 3174 H 284.359 2.00736 0.435243 0
M  V30 3175 H 282.589 2.51265 2.93944 0
M  V30 3176 H 284.278 2.91536 2.82421 0
M  V30 3177 H 285.044 4.71948 1.11758 0
M  V30 3178 H 280.923 4.07293 2.15949 0
M  V30 3179 H 284.467 6.97027 0.282581 0
M  V30 3180 H 280.364 6.31651 1.32994 0
M  V30 3181 H 281.132 8.17497 0.405145 0
M  V30 3182 N 283.795 -0.628877 1.44509 0
M  V30 3183 C 284.705 -1.7694 1.54044 0
M  V30 3184 C 285.721 -1.68705 0.425987 0
M  V30 3185 O 286.897 -1.89442 0.683656 0
M  V30 3186 C 283.962 -3.13332 1.48405 0
M  V30 3187 C 283.023 -3.33181 2.70719 0
M  V30 3188 C 282.256 -4.63067 2.6534 0
M  V30 3189 O 282.479 -5.44017 1.71469 0
M  V30 3190 O 281.413 -4.85167 3.56226 0
M  V30 3191 H 285.239 -1.71848 2.50403 0
M  V30 3192 H 282.824 -0.790378 1.26781 0
M  V30 3193 H 284.706 -3.94634 1.47791 0
M  V30 3194 H 283.381 -3.1896 0.551898 0
M  V30 3195 H 282.288 -2.51549 2.769 0
M  V30 3196 H 283.621 -3.32416 3.62988 0
M  V30 3197 N 285.273 -1.31445 -0.869486 0
M  V30 3198 C 286.55 -1.11795 -1.60503 0
M  V30 3199 C 286.93 0.327168 -2.08549 0
M  V30 3200 O 286.278 1.32135 -1.8642 0
M  V30 3201 C 286.488 -2.13258 -2.76265 0
M  V30 3202 C 287.836 -2.45805 -3.46215 0
M  V30 3203 O 288.86 -2.11688 -2.86473 0
M  V30 3204 O 287.719 -3.04228 -4.5399 0
M  V30 3205 H 284.813 -0.430421 -0.706163 0
M  V30 3206 H 287.359 -1.42925 -0.914907 0
M  V30 3207 H 286.131 -3.10461 -2.3818 0
M  V30 3208 H 285.754 -1.83035 -3.52964 0
M  V30 3209 N 286.751 1.08385 -1.14413 0
M  V30 3210 C 287.681 2.17321 -0.854044 0
M  V30 3211 C 288.662 1.69024 0.191049 0
M  V30 3212 O 289.847 1.94141 0.0476779 0
M  V30 3213 C 286.977 3.45719 -0.330983 0
M  V30 3214 C 285.931 4.07409 -1.31155 0
M  V30 3215 C 285.257 5.30762 -0.64778 0
M  V30 3216 C 286.557 4.48665 -2.67388 0
M  V30 3217 H 288.251 2.41845 -1.76498 0
M  V30 3218 H 285.797 1.16233 -0.850051 0
M  V30 3219 H 287.75 4.21241 -0.115645 0
M  V30 3220 H 286.474 3.2075 0.615381 0
M  V30 3221 H 285.133 3.33919 -1.51306 0
M  V30 3222 H 284.781 5.02078 0.304398 0
M  V30 3223 H 284.481 5.72992 -1.30207 0
M  V30 3224 H 286.005 6.08998 -0.441972 0
M  V30 3225 H 287.419 5.15364 -2.51143 0
M  V30 3226 H 285.816 5.01814 -3.29093 0
M  V30 3227 H 286.886 3.60543 -3.24248 0
M  V30 3228 N 288.23 0.939286 1.26551 0
M  V30 3229 C 289.177 0.446088 2.26448 0
M  V30 3230 C 290.147 -0.493234 1.58608 0
M  V30 3231 O 291.332 -0.409857 1.86346 0
M  V30 3232 C 288.472 -0.284375 3.43926 0
M  V30 3233 C 287.585 0.690399 4.26448 0
M  V30 3234 C 286.72 -0.0610712 5.31165 0
M  V30 3235 C 285.759 0.905649 6.05363 0
M  V30 3236 N 284.896 0.186055 7.01853 0
M  V30 3237 H 289.736 1.30291 2.68008 0
M  V30 3238 H 287.273 0.65371 1.31776 0
M  V30 3239 H 289.231 -0.724313 4.10864 0
M  V30 3240 H 287.861 -1.10535 3.03285 0
M  V30 3241 H 286.913 1.24885 3.59316 0
M  V30 3242 H 288.225 1.42873 4.779 0
M  V30 3243 H 287.379 -0.56038 6.04106 0
M  V30 3244 H 286.118 -0.832297 4.80546 0
M  V30 3245 H 285.123 1.4161 5.3125 0
M  V30 3246 H 286.348 1.67685 6.58072 0
M  V30 3247 H 284.294 -0.566714 6.53548 0
M  V30 3248 H 284.211 0.863752 7.51049 0
M  V30 3249 H 285.479 -0.292221 7.78952 0
M  V30 3250 N 289.708 -1.40897 0.706093 0
M  V30 3251 C 290.618 -2.3455 0.0482286 0
M  V30 3252 C 291.634 -1.56796 -0.754396 0
M  V30 3253 O 292.81 -1.89228 -0.689538 0
M  V30 3254 C 289.875 -3.35625 -0.869303 0
M  V30 3255 C 288.936 -4.29261 -0.0576994 0
M  V30 3256 C 288.169 -5.25508 -0.931531 0
M  V30 3257 O 288.392 -5.27472 -2.17092 0
M  V30 3258 O 287.326 -6.00727 -0.375587 0
M  V30 3259 H 291.152 -2.92407 0.820476 0
M  V30 3260 H 288.737 -1.4193 0.4665 0
M  V30 3261 H 290.619 -3.97635 -1.39514 0
M  V30 3262 H 289.294 -2.80196 -1.62086 0
M  V30 3263 H 288.201 -3.70566 0.512988 0
M  V30 3264 H 289.534 -4.87817 0.655426 0
M  V30 3265 N 291.186 -0.45159 -1.50991 0
M  V30 3266 C 292.463 0.170707 -1.94854 0
M  V30 3267 C 292.843 1.58788 -1.39103 0
M  V30 3268 O 292.191 2.20913 -0.583921 0
M  V30 3269 C 292.401 0.133929 -3.48743 0
M  V30 3270 C 293.749 0.33248 -4.23296 0
M  V30 3271 O 294.773 0.211403 -3.55572 0
M  V30 3272 O 293.632 0.57486 -5.43468 0
M  V30 3273 H 290.726 0.122264 -0.817912 0
M  V30 3274 H 293.272 -0.510594 -1.61836 0
M  V30 3275 H 292.044 -0.856283 -3.81816 0
M  V30 3276 H 291.667 0.857529 -3.88242 0
M  V30 3277 N 292.664 1.56529 -0.183458 0
M  V30 3278 C 293.913 1.96419 0.458511 0
M  V30 3279 C 294.226 1.0727 1.63562 0
M  V30 3280 O 295.432 1.36893 2.34462 0
M  V30 3281 C 293.888 3.49298 0.867122 0
M  V30 3282 C 293.496 4.47092 -0.285057 0
M  V30 3283 C 295.24 3.97983 1.47683 0
M  V30 3284 C 293.147 5.91225 0.143862 0
M  V30 3285 H 292.077 0.733394 0.175071 0
M  V30 3286 H 294.728 1.81448 -0.273624 0
M  V30 3287 H 293.11 3.59731 1.65559 0
M  V30 3288 H 294.284 4.48383 -1.0625 0
M  V30 3289 H 292.599 4.08535 -0.805503 0
M  V30 3290 H 295.196 5.03134 1.80999 0
M  V30 3291 H 295.539 3.41618 2.37914 0
M  V30 3292 H 296.072 3.90617 0.752562 0
M  V30 3293 H 292.811 6.5149 -0.723974 0
M  V30 3294 H 292.331 5.93214 0.886413 0
M  V30 3295 H 294.01 6.44362 0.583628 0
M  V30 3296 N 294.142 -0.090211 1.57342 0
M  V30 3297 C 295.558 -0.444547 1.53284 0
M  V30 3298 C 295.758 -1.80238 0.900914 0
M  V30 3299 O 294.814 -2.4759 0.495513 0
M  V30 3300 C 296.127 -0.402543 2.97993 0
M  V30 3301 C 297.675 -0.48405 3.09234 0
M  V30 3302 C 298.15 -0.472144 4.5556 0
M  V30 3303 N 299.641 -0.532757 4.60126 0
M  V30 3304 C 300.376 -0.545462 5.708 0
M  V30 3305 N 299.872 -0.514082 6.9089 0
M  V30 3306 N 301.665 -0.59064 5.58988 0
M  V30 3307 H 293.816 0.799121 1.96794 0
M  V30 3308 H 296.079 0.297965 0.899956 0
M  V30 3309 H 295.785 0.528106 3.47712 0
M  V30 3310 H 295.659 -1.21969 3.56936 0
M  V30 3311 H 298.046 -1.40512 2.595 0
M  V30 3312 H 298.127 0.361328 2.53235 0
M  V30 3313 H 297.771 0.445 5.05947 0
M  V30 3314 H 297.701 -1.3348 5.09402 0
M  V30 3315 H 300.192 -0.562006 3.73698 0
M  V30 3316 H 300.505 -0.527195 7.71 0
M  V30 3317 H 298.85 -0.481054 6.93333 0
M  V30 3318 H 302.041 -0.61272 4.64073 0
M  V30 3319 H 302.214 -0.597073 6.45243 0
M  V30 3320 N 295.62 -1.53406 -0.361157 0
M  V30 3321 C 296.567 -1.80156 -1.44265 0
M  V30 3322 C 297.537 -0.646183 -1.53015 0
M  V30 3323 O 298.722 -0.888818 -1.68833 0
M  V30 3324 C 295.862 -2.00116 -2.81154 0
M  V30 3325 C 294.975 -3.27833 -2.81335 0
M  V30 3326 C 294.11 -3.37957 -4.09828 0
M  V30 3327 C 293.149 -4.59689 -4.04168 0
M  V30 3328 N 292.286 -4.66942 -5.24318 0
M  V30 3329 H 297.126 -2.72438 -1.20754 0
M  V30 3330 H 294.663 -1.34954 -0.585296 0
M  V30 3331 H 296.621 -2.09677 -3.60682 0
M  V30 3332 H 295.251 -1.11167 -3.03054 0
M  V30 3333 H 294.303 -3.27204 -1.94014 0
M  V30 3334 H 295.615 -4.17442 -2.73027 0
M  V30 3335 H 294.769 -3.46853 -4.97773 0
M  V30 3336 H 293.508 -2.46372 -4.20894 0
M  V30 3337 H 292.513 -4.50889 -3.14609 0
M  V30 3338 H 293.738 -5.5262 -3.947 0
M  V30 3339 H 291.684 -3.7826 -5.35962 0
M  V30 3340 H 291.601 -5.50462 -5.18197 0
M  V30 3341 H 292.869 -4.80127 -6.14084 0
M  V30 3342 N 297.098 0.621204 -1.44841 0
M  V30 3343 C 298.008 1.7612 -1.5498 0
M  V30 3344 C 299.024 1.68477 -0.434927 0
M  V30 3345 O 300.2 1.89076 -0.693693 0
M  V30 3346 C 297.265 3.1254 -1.50065 0
M  V30 3347 C 296.326 3.31741 -2.72482 0
M  V30 3348 C 295.559 4.61653 -2.67792 0
M  V30 3349 O 295.782 5.431 -1.74352 0
M  V30 3350 O 294.716 4.83271 -3.58794 0
M  V30 3351 H 298.542 1.70518 -2.51311 0
M  V30 3352 H 296.127 0.783643 -1.27198 0
M  V30 3353 H 298.009 3.93844 -1.49882 0
M  V30 3354 H 296.684 3.18663 -0.568806 0
M  V30 3355 H 295.591 2.50077 -2.7823 0
M  V30 3356 H 296.924 3.30486 -3.64746 0
M  V30 3357 N 298.576 1.31904 0.862503 0
M  V30 3358 C 299.822 1.22197 1.61851 0
M  V30 3359 C 300.155 -0.217641 1.92977 0
M  V30 3360 O 299.43 -1.15264 1.56666 0
M  V30 3361 C 299.713 2.07378 2.94391 0
M  V30 3362 C 299.566 3.59678 2.70096 0
M  V30 3363 C 300.885 1.92891 3.95577 0
M  V30 3364 H 298.004 0.445255 0.587296 0
M  V30 3365 H 300.646 1.6177 0.99651 0
M  V30 3366 H 298.796 1.73758 3.47477 0
M  V30 3367 H 300.468 4.03472 2.23625 0
M  V30 3368 H 298.711 3.82735 2.04197 0
M  V30 3369 H 299.382 4.14595 3.64438 0
M  V30 3370 H 301.858 2.22327 3.51724 0
M  V30 3371 H 300.734 2.54781 4.86187 0
M  V30 3372 H 300.995 0.894315 4.3296 0
M  V30 3373 N 300.054 -1.07777 1.14986 0
M  V30 3374 C 301.303 -1.79669 0.916617 0
M  V30 3375 C 301.616 -1.87474 -0.557917 0
M  V30 3376 O 302.822 -2.55845 -0.908617 0
M  V30 3377 C 301.278 -3.22848 1.59051 0
M  V30 3378 C 300.886 -3.23257 3.10176 0
M  V30 3379 C 302.63 -3.99379 1.43864 0
M  V30 3380 C 300.537 -4.61063 3.70372 0
M  V30 3381 H 299.467 -0.673349 0.33929 0
M  V30 3382 H 302.118 -1.21003 1.37951 0
M  V30 3383 H 300.5 -3.8168 1.0553 0
M  V30 3384 H 301.674 -2.74095 3.70417 0
M  V30 3385 H 299.989 -2.60222 3.25074 0
M  V30 3386 H 302.586 -5.0122 1.86232 0
M  V30 3387 H 302.929 -4.14511 0.385564 0
M  V30 3388 H 303.462 -3.47032 1.94457 0
M  V30 3389 H 300.201 -4.51135 4.7556 0
M  V30 3390 H 299.721 -5.1048 3.14913 0
M  V30 3391 H 301.4 -5.30034 3.71043 0
M  V30 3392 N 301.532 -0.945985 -1.26051 0
M  V30 3393 C 302.479 -0.45809 -2.26208 0
M  V30 3394 C 303.449 0.484816 -1.58867 0
M  V30 3395 O 304.634 0.399969 -1.86561 0
M  V30 3396 C 301.774 0.266131 -3.44072 0
M  V30 3397 C 300.887 -0.713005 -4.26075 0
M  V30 3398 C 300.022 0.0329013 -5.3119 0
M  V30 3399 C 299.061 -0.93774 -6.04874 0
M  V30 3400 N 298.198 -0.223274 -7.01745 0
M  V30 3401 H 303.038 -1.3171 -2.67313 0
M  V30 3402 H 300.575 -0.66069 -1.31428 0
M  V30 3403 H 302.533 0.702514 -4.11243 0
M  V30 3404 H 301.163 1.08925 -3.03867 0
M  V30 3405 H 300.215 -1.26789 -3.58648 0
M  V30 3406 H 301.527 -1.45406 -4.77136 0
M  V30 3407 H 300.681 0.528335 -6.04395 0
M  V30 3408 H 299.42 0.806801 -4.8098 0
M  V30 3409 H 298.425 -1.44425 -5.30492 0
M  V30 3410 H 299.65 -1.71172 -6.57173 0
M  V30 3411 H 297.596 0.532046 -6.53839 0
M  V30 3412 H 297.513 -0.90357 -7.50581 0
M  V30 3413 H 298.781 0.250907 -7.79096 0
M  V30 3414 N 303.011 1.40521 -0.713556 0
M  V30 3415 C 303.941 2.33381 -0.0743864 0
M  V30 3416 C 304.922 1.52784 0.747735 0
M  V30 3417 O 306.107 1.81258 0.697071 0
M  V30 3418 C 303.237 3.36748 0.849598 0
M  V30 3419 C 302.191 4.27793 0.133247 0
M  V30 3420 C 301.517 5.21679 1.17281 0
M  V30 3421 C 302.817 5.12415 -1.01134 0
M  V30 3422 H 304.511 2.87081 -0.850007 0
M  V30 3423 H 302.057 1.38034 -0.410201 0
M  V30 3424 H 304.01 4.00648 1.30612 0
M  V30 3425 H 302.734 2.81439 1.65709 0
M  V30 3426 H 301.393 3.65342 -0.303426 0
M  V30 3427 H 301.041 4.62677 1.9733 0
M  V30 3428 H 300.741 5.83435 0.698397 0
M  V30 3429 H 302.265 5.88456 1.62947 0
M  V30 3430 H 303.679 5.69781 -0.634274 0
M  V30 3431 H 302.076 5.83203 -1.41399 0
M  V30 3432 H 303.146 4.48514 -1.84292 0
M  V30 3433 N 304.489 0.459591 1.5075 0
M  V30 3434 C 305.738 -0.100971 2.01447 0
M  V30 3435 C 306.051 -1.41816 1.34713 0
M  V30 3436 O 307.257 -2.06299 1.76502 0
M  V30 3437 C 305.713 -0.23047 3.59161 0
M  V30 3438 C 305.321 1.0776 4.34847 0
M  V30 3439 C 307.065 -0.743608 4.17936 0
M  V30 3440 C 304.972 0.91253 5.84317 0
M  V30 3441 H 303.902 -0.0415102 0.752856 0
M  V30 3442 H 306.553 0.592742 1.73663 0
M  V30 3443 H 304.935 -0.987703 3.83485 0
M  V30 3444 H 306.109 1.8449 4.22256 0
M  V30 3445 H 304.424 1.52097 3.87628 0
M  V30 3446 H 307.021 -0.883959 5.27343 0
M  V30 3447 H 307.364 -1.73196 3.78562 0
M  V30 3448 H 307.897 -0.04408 3.97776 0
M  V30 3449 H 304.636 1.87391 6.28144 0
M  V30 3450 H 304.156 0.185422 5.99513 0
M  V30 3451 H 305.835 0.574547 6.44444 0
M  V30 3452 N 305.967 -1.56429 0.191757 0
M  V30 3453 C 306.917 -2.15548 -0.743184 0
M  V30 3454 C 307.901 -1.09531 -1.17863 0
M  V30 3455 O 309.093 -1.35602 -1.13759 0
M  V30 3456 C 306.222 -2.81577 -1.96391 0
M  V30 3457 C 305.308 -3.9478 -1.54951 0
M  V30 3458 N 305.699 -4.98677 -0.845876 0
M  V30 3459 C 303.997 -4.06319 -1.83905 0
M  V30 3460 C 304.698 -5.78183 -0.638724 0
M  V30 3461 N 303.674 -5.30495 -1.18643 0
M  V30 3462 H 307.476 -2.9324 -0.196839 0
M  V30 3463 H 304.99 -1.62398 -0.0081603 0
M  V30 3464 H 306.987 -3.22321 -2.64415 0
M  V30 3465 H 305.647 -2.05371 -2.51501 0
M  V30 3466 H 306.658 -5.15464 -0.501704 0
M  V30 3467 H 303.335 -3.41238 -2.40548 0
M  V30 3468 H 304.725 -6.71851 -0.0807929 0
M  V30 3469 N 307.445 0.0818655 -1.57387 0
M  V30 3470 C 308.692 0.782914 -1.86753 0
M  V30 3471 C 309.02 1.78082 -0.782118 0
M  V30 3472 O 308.275 1.94426 0.22295 0
M  V30 3473 C 308.574 1.53513 -3.22752 0
M  V30 3474 C 308.24 0.678134 -4.45771 0
M  V30 3475 C 306.902 0.441929 -4.79166 0
M  V30 3476 C 309.254 0.0832243 -5.21134 0
M  V30 3477 C 306.582 -0.398833 -5.85343 0
M  V30 3478 C 308.934 -0.744935 -6.28199 0
M  V30 3479 C 307.598 -0.991107 -6.60101 0
M  V30 3480 H 306.868 0.286489 -0.683378 0
M  V30 3481 H 309.515 0.0439808 -1.91449 0
M  V30 3482 H 307.82 2.34599 -3.138 0
M  V30 3483 H 309.517 2.08218 -3.42705 0
M  V30 3484 H 306.107 0.872357 -4.19628 0
M  V30 3485 H 310.291 0.252847 -4.95655 0
M  V30 3486 H 305.547 -0.598405 -6.08465 0
M  V30 3487 H 309.721 -1.21271 -6.8576 0
M  V30 3488 H 307.348 -1.64437 -7.42202 0
M  V30 3489 N 308.923 1.53595 0.353017 0
M  V30 3490 C 309.853 1.83902 1.43883 0
M  V30 3491 C 310.834 0.693421 1.55324 0
M  V30 3492 O 312.019 0.944452 1.69687 0
M  V30 3493 C 309.149 2.04016 2.8106 0
M  V30 3494 C 308.103 3.19814 2.84434 0
M  V30 3495 C 307.429 3.25244 4.24406 0
M  V30 3496 C 308.729 4.58133 2.50822 0
M  V30 3497 H 310.423 2.74835 1.1877 0
M  V30 3498 H 307.969 1.32242 0.569917 0
M  V30 3499 H 309.922 2.238 3.57059 0
M  V30 3500 H 308.646 1.09804 3.07588 0
M  V30 3501 H 307.305 2.9987 2.10887 0
M  V30 3502 H 306.953 2.28646 4.48029 0
M  V30 3503 H 306.653 4.03054 4.27576 0
M  V30 3504 H 308.177 3.47228 5.0226 0
M  V30 3505 H 309.591 4.77995 3.16534 0
M  V30 3506 H 307.988 5.38276 2.6529 0
M  V30 3507 H 309.058 4.62387 1.46034 0
M  V30 3508 N 310.401 -0.613514 1.45168 0
M  V30 3509 C 311.311 -1.75296 1.55912 0
M  V30 3510 C 312.327 -1.68244 0.443856 0
M  V30 3511 O 313.503 -1.88706 0.70371 0
M  V30 3512 C 310.568 -3.1174 1.5172 0
M  V30 3513 C 309.629 -3.30291 2.74238 0
M  V30 3514 C 308.862 -4.60226 2.70236 0
M  V30 3515 O 309.085 -5.42168 1.77229 0
M  V30 3516 O 308.019 -4.81361 3.61352 0
M  V30 3517 H 311.845 -1.69183 2.52212 0
M  V30 3518 H 309.43 -0.776886 1.27612 0
M  V30 3519 H 311.312 -3.93044 1.51968 0
M  V30 3520 H 309.987 -3.18357 0.585697 0
M  V30 3521 H 308.894 -2.48598 2.79553 0
M  V30 3522 H 310.227 -3.28547 3.66494 0
M  V30 3523 N 311.879 -1.3236 -0.855495 0
M  V30 3524 C 313.295 -1.11332 -1.14356 0
M  V30 3525 C 313.495 0.106751 -2.01217 0
M  V30 3526 O 312.551 0.791891 -2.39761 0
M  V30 3527 C 313.864 -2.39237 -1.82171 0
M  V30 3528 C 315.412 -2.44986 -1.9481 0
M  V30 3529 C 315.887 -3.7281 -2.66039 0
M  V30 3530 N 317.378 -3.73787 -2.73565 0
M  V30 3531 C 318.113 -4.69394 -3.29327 0
M  V30 3532 N 317.609 -5.75367 -3.85907 0
M  V30 3533 N 319.402 -4.56893 -3.27423 0
M  V30 3534 H 311.553 -2.10586 -0.277027 0
M  V30 3535 H 313.816 -0.929701 -0.185364 0
M  V30 3536 H 313.522 -3.28431 -1.25802 0
M  V30 3537 H 313.396 -2.50134 -2.82335 0
M  V30 3538 H 315.783 -1.56252 -2.50338 0
M  V30 3539 H 315.864 -2.38043 -0.936448 0
M  V30 3540 H 315.508 -4.61918 -2.11174 0
M  V30 3541 H 315.438 -3.77024 -3.67642 0
M  V30 3542 H 317.929 -2.97189 -2.33424 0
M  V30 3543 H 318.242 -6.44378 -4.26611 0
M  V30 3544 H 316.587 -5.79123 -3.84242 0
M  V30 3545 H 319.778 -3.73269 -2.82467 0
M  V30 3546 H 319.951 -5.31577 -3.7058 0
M  V30 3547 N 313.357 1.07166 -1.15556 0
M  V30 3548 C 314.304 2.14417 -0.854055 0
M  V30 3549 C 315.274 1.64965 0.193806 0
M  V30 3550 O 316.459 1.90703 0.0609443 0
M  V30 3551 C 313.599 3.43304 -0.351574 0
M  V30 3552 C 312.712 4.06537 -1.46123 0
M  V30 3553 C 311.847 5.23266 -0.914677 0
M  V30 3554 C 310.886 5.78464 -2.00114 0
M  V30 3555 N 310.023 6.86521 -1.47083 0
M  V30 3556 H 314.863 2.39548 -1.77259 0
M  V30 3557 H 312.4 1.17543 -0.884425 0
M  V30 3558 H 314.358 4.17179 -0.0419409 0
M  V30 3559 H 312.988 3.18419 0.530037 0
M  V30 3560 H 312.04 3.30297 -1.88701 0
M  V30 3561 H 313.352 4.43567 -2.28144 0
M  V30 3562 H 312.506 6.04131 -0.557698 0
M  V30 3563 H 311.245 4.87658 -0.0636583 0
M  V30 3564 H 310.25 4.96243 -2.36692 0
M  V30 3565 H 311.475 6.16126 -2.85597 0
M  V30 3566 H 309.421 6.52849 -0.642198 0
M  V30 3567 H 309.338 7.22446 -2.22729 0
M  V30 3568 H 310.606 7.71087 -1.14215 0
M  V30 3569 N 314.835 0.952656 1.25548 0
M  V30 3570 C 316.246 0.647392 1.75116 0
M  V30 3571 C 316.597 -0.837274 1.77438 0
M  V30 3572 O 315.722 -1.65525 1.39393 0
M  V30 3573 C 316.317 1.16845 3.18014 0
M  V30 3574 C 314.876 0.913382 3.6515 0
M  V30 3575 C 314.023 1.31265 2.44264 0
M  V30 3576 H 316.974 1.12968 1.11462 0
M  V30 3577 H 316.995 0.527606 3.76824 0
M  V30 3578 H 316.507 2.24902 3.16292 0
M  V30 3579 H 314.608 -0.152316 3.72289 0
M  V30 3580 H 314.721 1.54845 4.53387 0
M  V30 3581 H 313.085 0.731028 2.43984 0
M  V30 3582 H 313.868 2.40239 2.45234 0
M  V30 3583 N 316.313 -1.40141 0.720998 0
M  V30 3584 C 317.538 -2.05618 0.271258 0
M  V30 3585 C 317.963 -1.53978 -1.08039 0
M  V30 3586 O 317.321 -0.677463 -1.68167 0
M  V30 3587 C 317.369 -3.59609 0.267197 0
M  V30 3588 O 316.473 -4.05526 -0.749814 0
M  V30 3589 H 315.814 -0.651904 0.126162 0
M  V30 3590 H 318.344 -1.79439 0.982997 0
M  V30 3591 H 318.354 -4.0786 0.106744 0
M  V30 3592 H 317.029 -3.96559 1.25354 0
M  V30 3593 H 315.606 -3.68722 -0.556644 0
M  V30 3594 N 317.792 -0.46758 -1.50504 0
M  V30 3595 C 318.702 0.33382 -2.32213 0
M  V30 3596 C 319.718 0.999323 -1.42441 0
M  V30 3597 O 320.894 0.988068 -1.75497 0
M  V30 3598 C 317.959 1.4035 -3.17022 0
M  V30 3599 C 317.02 0.754961 -4.2261 0
M  V30 3600 C 316.253 1.77367 -5.03365 0
M  V30 3601 O 316.476 2.99976 -4.8515 0
M  V30 3602 O 315.41 1.34744 -5.86624 0
M  V30 3603 H 319.236 -0.334067 -3.01857 0
M  V30 3604 H 316.821 -0.229496 -1.47627 0
M  V30 3605 H 318.703 2.02318 -3.69656 0
M  V30 3606 H 317.378 2.05492 -2.5011 0
M  V30 3607 H 316.285 0.0964244 -3.73976 0
M  V30 3608 H 317.618 0.146545 -4.91982 0
M  V30 3609 N 319.27 1.56325 -0.20005 0
M  V30 3610 C 320.18 2.22931 0.730668 0
M  V30 3611 C 321.196 1.22997 1.23076 0
M  V30 3612 O 322.372 1.55748 1.27689 0
M  V30 3613 C 319.437 2.87948 1.93098 0
M  V30 3614 C 318.498 4.03166 1.47497 0
M  V30 3615 C 317.731 4.65073 2.61807 0
M  V30 3616 O 317.954 4.25913 3.79413 0
M  V30 3617 O 316.888 5.54452 2.34237 0
M  V30 3618 H 320.714 3.03084 0.193391 0
M  V30 3619 H 318.299 1.49371 0.0294621 0
M  V30 3620 H 320.181 3.29063 2.6324 0
M  V30 3621 H 318.856 2.10771 2.45677 0
M  V30 3622 H 317.763 3.66664 0.742201 0
M  V30 3623 H 319.096 4.82022 0.995796 0
M  V30 3624 N 320.748 -0.0735177 1.57428 0
M  V30 3625 C 321.678 -1.0879 2.06608 0
M  V30 3626 C 322.659 -1.40473 0.959237 0
M  V30 3627 O 323.844 -1.5013 1.23185 0
M  V30 3628 C 320.974 -2.40183 2.50857 0
M  V30 3629 C 319.928 -2.22858 3.65402 0
M  V30 3630 C 319.254 -3.59619 3.957 0
M  V30 3631 C 320.554 -1.65123 4.95511 0
M  V30 3632 H 322.248 -0.678673 2.91607 0
M  V30 3633 H 319.794 -0.325013 1.40284 0
M  V30 3634 H 321.747 -3.11437 2.83874 0
M  V30 3635 H 320.471 -2.83083 1.62885 0
M  V30 3636 H 319.13 -1.54045 3.32664 0
M  V30 3637 H 318.778 -4.00086 3.04861 0
M  V30 3638 H 318.478 -3.48866 4.72828 0
M  V30 3639 H 320.002 -4.32306 4.31212 0
M  V30 3640 H 321.416 -2.26241 5.26771 0
M  V30 3641 H 319.813 -1.65071 5.7695 0
M  V30 3642 H 320.883 -0.612559 4.81015 0
M  V30 3643 N 322.226 -1.5378 -0.344866 0
M  V30 3644 C 323.472 -1.71216 -1.08687 0
M  V30 3645 C 323.805 -0.473281 -1.88345 0
M  V30 3646 O 323.08 0.52968 -1.87149 0
M  V30 3647 C 323.363 -2.97486 -2.02914 0
M  V30 3648 C 323.216 -4.31579 -1.26727 0
M  V30 3649 C 324.535 -3.19422 -3.0275 0
M  V30 3650 H 321.654 -0.62301 -0.393735 0
M  V30 3651 H 324.296 -1.8645 -0.365563 0
M  V30 3652 H 322.446 -2.84629 -2.64421 0
M  V30 3653 H 324.118 -4.56284 -0.67845 0
M  V30 3654 H 322.361 -4.30049 -0.569273 0
M  V30 3655 H 323.032 -5.16106 -1.95803 0
M  V30 3656 H 325.508 -3.316 -2.51357 0
M  V30 3657 H 324.384 -4.09169 -3.65885 0
M  V30 3658 H 324.645 -2.35656 -3.74057 0
M  V30 3659 N 323.704 0.605807 -1.45491 0
M  V30 3660 C 324.981 1.36522 -1.40075 0
M  V30 3661 C 325.361 2.10976 -0.0722744 0
M  V30 3662 O 324.709 2.08007 0.945808 0
M  V30 3663 C 324.919 2.31056 -2.61561 0
M  V30 3664 C 326.267 2.93608 -3.06724 0
M  V30 3665 O 327.291 2.41376 -2.61946 0
M  V30 3666 O 326.15 3.88421 -3.84437 0
M  V30 3667 H 323.244 0.612248 -0.555951 0
M  V30 3668 H 325.79 0.628747 -1.57623 0
M  V30 3669 H 324.562 1.75311 -3.49831 0
M  V30 3670 H 324.185 3.12081 -2.46356 0
M  V30 3671 N 325.182 1.32811 0.848464 0
M  V30 3672 C 326.598 1.11937 1.13764 0
M  V30 3673 C 326.798 -0.0960789 2.01271 0
M  V30 3674 O 325.854 -0.779165 2.40178 0
M  V30 3675 C 327.167 2.402 1.809 0
M  V30 3676 C 328.715 2.46016 1.93508 0
M  V30 3677 C 329.19 3.74215 2.64059 0
M  V30 3678 N 330.681 3.75232 2.71579 0
M  V30 3679 C 331.416 4.71134 3.26833 0
M  V30 3680 N 330.912 5.77406 3.8285 0
M  V30 3681 N 332.705 4.58623 3.24995 0
M  V30 3682 H 324.856 2.1073 0.265855 0
M  V30 3683 H 327.119 0.930671 0.180431 0
M  V30 3684 H 326.825 3.29093 1.24058 0
M  V30 3685 H 326.699 2.51628 2.81004 0
M  V30 3686 H 329.086 1.57577 2.49506 0
M  V30 3687 H 329.167 2.38536 0.923811 0
M  V30 3688 H 328.811 4.63031 2.08722 0
M  V30 3689 H 328.741 3.78968 3.65637 0
M  V30 3690 H 331.232 2.98423 2.31845 0
M  V30 3691 H 331.545 6.46632 4.23187 0
M  V30 3692 H 329.89 5.81152 3.81165 0
M  V30 3693 H 333.081 3.74762 2.80484 0
M  V30 3694 H 333.254 5.33535 3.67756 0
M  V30 3695 N 326.66 -1.06551 1.16123 0
M  V30 3696 C 327.909 -1.78687 0.935622 0
M  V30 3697 C 328.222 -1.88056 -0.538001 0
M  V30 3698 O 329.428 -2.56794 -0.88143 0
M  V30 3699 C 327.884 -3.21143 1.62466 0
M  V30 3700 C 327.492 -3.19949 3.13587 0
M  V30 3701 C 329.236 -3.9783 1.48092 0
M  V30 3702 C 327.143 -4.57108 3.75241 0
M  V30 3703 H 326.073 -0.669712 0.346412 0
M  V30 3704 H 328.724 -1.19534 1.39226 0
M  V30 3705 H 327.106 -3.80539 1.09572 0
M  V30 3706 H 328.28 -2.70151 3.73303 0
M  V30 3707 H 326.595 -2.5676 3.27816 0
M  V30 3708 H 329.192 -4.99217 1.91538 0
M  V30 3709 H 329.535 -4.14078 0.429507 0
M  V30 3710 H 330.068 -3.4495 1.98127 0
M  V30 3711 H 326.807 -4.46065 4.80319 0
M  V30 3712 H 326.327 -5.07111 3.20309 0
M  V30 3713 H 328.006 -5.26069 3.76644 0
M  V30 3714 N 328.138 -0.959301 -1.25041 0
M  V30 3715 C 329.387 -0.612254 -1.92183 0
M  V30 3716 C 329.7 0.855347 -1.75907 0
M  V30 3717 O 330.906 1.31256 -2.37664 0
M  V30 3718 C 329.362 -1.04435 -3.44414 0
M  V30 3719 C 328.97 -2.53482 -3.69393 0
M  V30 3720 C 330.714 -0.770055 -4.17457 0
M  V30 3721 C 328.621 -2.90468 -5.15153 0
M  V30 3722 H 327.551 -0.225279 -0.719559 0
M  V30 3723 H 330.202 -1.16438 -1.41825 0
M  V30 3724 H 328.584 -0.4206 -3.9376 0
M  V30 3725 H 329.758 -3.20916 -3.30681 0
M  V30 3726 H 328.073 -2.78432 -3.0962 0
M  V30 3727 H 330.67 -1.02249 -5.24832 0
M  V30 3728 H 331.013 0.293611 -4.15263 0
M  V30 3729 H 331.546 -1.35437 -3.74034 0
M  V30 3730 H 328.285 -3.95871 -5.22462 0
M  V30 3731 H 327.805 -2.27711 -5.54894 0
M  V30 3732 H 329.484 -2.79914 -5.83315 0
M  V30 3733 N 329.616 1.39756 -0.72842 0
M  V30 3734 C 330.566 2.2792 -0.0603424 0
M  V30 3735 C 331.55 1.43922 0.719399 0
M  V30 3736 O 332.742 1.66895 0.589489 0
M  V30 3737 C 329.871 3.32582 0.851104 0
M  V30 3738 C 328.957 4.24049 0.0658641 0
M  V30 3739 N 329.348 4.96653 -0.957578 0
M  V30 3740 C 327.646 4.45013 0.296509 0
M  V30 3741 C 328.347 5.63836 -1.43052 0
M  V30 3742 N 327.323 5.38397 -0.750315 0
M  V30 3743 H 331.125 2.81504 -0.84455 0
M  V30 3744 H 328.639 1.5236 -0.562155 0
M  V30 3745 H 330.636 3.94603 1.34514 0
M  V30 3746 H 329.296 2.80558 1.63454 0
M  V30 3747 H 330.307 5.00297 -1.33877 0
M  V30 3748 H 326.984 4.03943 1.05527 0
M  V30 3749 H 328.374 6.31974 -2.28163 0
M  V30 3750 N 331.094 0.475555 1.50254 0
M  V30 3751 C 332.044 -0.335025 2.25525 0
M  V30 3752 C 333.028 -0.957625 1.29299 0
M  V30 3753 O 334.22 -0.869436 1.54175 0
M  V30 3754 C 331.349 -1.41385 3.12834 0
M  V30 3755 C 330.435 -0.798762 4.1651 0
M  V30 3756 N 330.826 0.0835815 5.05731 0
M  V30 3757 C 329.124 -1.06221 4.33166 0
M  V30 3758 C 329.825 0.433113 5.80085 0
M  V30 3759 N 328.801 -0.1928 5.43258 0
M  V30 3760 H 332.603 0.344612 2.91873 0
M  V30 3761 H 330.117 0.289986 1.5979 0
M  V30 3762 H 332.114 -2.00777 3.65368 0
M  V30 3763 H 330.774 -2.09543 2.48036 0
M  V30 3764 H 331.785 0.452715 5.15918 0
M  V30 3765 H 328.462 -1.73844 3.79585 0
M  V30 3766 H 329.852 1.15346 6.61925 0
M  V30 3767 N 332.573 -1.56217 0.208337 0
M  V30 3768 C 333.801 -2.02337 -0.43215 0
M  V30 3769 C 334.216 -1.08834 -1.54275 0
M  V30 3770 O 333.573 -0.0955462 -1.8225 0
M  V30 3771 C 333.624 -3.48072 -0.976138 0
M  V30 3772 O 333.345 -4.38007 0.0901621 0
M  V30 3773 C 334.846 -4.09773 -1.69119 0
M  V30 3774 H 332.066 -0.662385 -0.10718 0
M  V30 3775 H 334.61 -2.01966 0.320923 0
M  V30 3776 H 332.765 -3.49099 -1.67954 0
M  V30 3777 H 333.179 -5.23543 -0.316701 0
M  V30 3778 H 334.653 -5.13556 -2.02397 0
M  V30 3779 H 335.13 -3.53999 -2.59964 0
M  V30 3780 H 335.736 -4.12556 -1.03332 0
M  V30 3781 N 334.051 0.0651679 -1.57465 0
M  V30 3782 C 335.276 0.779605 -1.9219 0
M  V30 3783 C 335.701 1.69988 -0.805333 0
M  V30 3784 O 335.059 1.79685 0.241435 0
M  V30 3785 C 335.107 1.54364 -3.2589 0
M  V30 3786 O 334.211 2.65474 -3.1559 0
M  V30 3787 H 333.552 0.212249 -0.629163 0
M  V30 3788 H 336.082 0.0314294 -2.04576 0
M  V30 3789 H 336.092 1.92146 -3.59922 0
M  V30 3790 H 334.767 0.868457 -4.06732 0
M  V30 3791 H 333.344 2.30501 -2.93128 0
M  V30 3792 N 335.529 1.53961 0.336706 0
M  V30 3793 C 336.776 1.71536 1.07618 0
M  V30 3794 C 337.104 0.482125 1.8843 0
M  V30 3795 O 336.359 -0.536142 1.88213 0
M  V30 3796 C 336.658 2.93493 2.03953 0
M  V30 3797 C 336.324 4.28811 1.39399 0
M  V30 3798 C 334.986 4.65602 1.21523 0
M  V30 3799 C 337.338 5.12844 0.929541 0
M  V30 3800 C 334.666 5.84037 0.558312 0
M  V30 3801 C 337.018 6.31951 0.286505 0
M  V30 3802 C 335.682 6.67432 0.0954869 0
M  V30 3803 H 334.952 0.627696 0.393801 0
M  V30 3804 H 337.599 1.88186 0.354715 0
M  V30 3805 H 335.904 2.71475 2.82504 0
M  V30 3806 H 337.601 3.04285 2.61174 0
M  V30 3807 H 334.191 3.99858 1.54311 0
M  V30 3808 H 338.375 4.84947 1.05548 0
M  V30 3809 H 333.631 6.10097 0.398995 0
M  V30 3810 H 337.805 6.96352 -0.0814376 0
M  V30 3811 H 335.432 7.59063 -0.415579 0
M  V30 3812 N 337.007 -0.598083 1.45811 0
M  V30 3813 C 337.939 -1.72231 1.51225 0
M  V30 3814 C 338.952 -1.57757 0.402059 0
M  V30 3815 O 340.141 -1.65464 0.669624 0
M  V30 3816 C 337.241 -3.10331 1.3619 0
M  V30 3817 C 336.414 -3.50955 2.61054 0
M  V30 3818 C 335.473 -4.68055 2.40439 0
M  V30 3819 O 334.499 -4.74691 3.14097 0
M  V30 3820 N 335.701 -5.61941 1.45612 0
M  V30 3821 H 338.466 -1.68046 2.48154 0
M  V30 3822 H 336.027 -0.783637 1.41671 0
M  V30 3823 H 338.019 -3.86439 1.20195 0
M  V30 3824 H 336.589 -3.0897 0.475015 0
M  V30 3825 H 335.809 -2.64711 2.92099 0
M  V30 3826 H 337.097 -3.74858 3.44034 0
M  V30 3827 H 336.495 -5.59301 0.848431 0
M  V30 3828 H 335.052 -6.37542 1.35585 0
M  V30 3829 N 338.485 -1.33259 -0.841409 0
M  V30 3830 C 339.395 -1.25332 -1.98316 0
M  V30 3831 C 340.411 -0.164364 -1.73222 0
M  V30 3832 O 341.587 -0.387486 -1.97637 0
M  V30 3833 C 338.652 -0.990078 -3.32262 0
M  V30 3834 C 337.713 -2.16879 -3.70489 0
M  V30 3835 C 336.946 -1.91801 -4.98044 0
M  V30 3836 O 337.169 -0.867075 -5.63771 0
M  V30 3837 O 336.103 -2.78267 -5.33714 0
M  V30 3838 H 339.929 -2.21344 -2.07944 0
M  V30 3839 H 337.514 -1.1328 -0.974058 0
M  V30 3840 H 339.396 -0.860321 -4.12524 0
M  V30 3841 H 338.071 -0.0602155 -3.23644 0
M  V30 3842 H 336.978 -2.35407 -2.90748 0
M  V30 3843 H 338.311 -3.0819 -3.8377 0
M  V30 3844 N 339.963 1.05934 -1.16686 0
M  V30 3845 C 340.896 2.1295 -0.820225 0
M  V30 3846 C 341.874 1.61242 0.209722 0
M  V30 3847 O 343.058 1.88271 0.0929688 0
M  V30 3848 C 340.185 3.3797 -0.22223 0
M  V30 3849 C 339.231 4.08488 -1.22637 0
M  V30 3850 S 340.064 4.58015 -2.77457 0
M  V30 3851 C 341.22 5.86292 -2.19117 0
M  V30 3852 H 341.453 2.42025 -1.72659 0
M  V30 3853 H 338.986 1.18423 -0.990722 0
M  V30 3854 H 340.944 4.10335 0.116322 0
M  V30 3855 H 339.605 3.07045 0.66196 0
M  V30 3856 H 338.798 4.98291 -0.756455 0
M  V30 3857 H 338.4 3.42154 -1.51019 0
M  V30 3858 H 340.692 6.59246 -1.56209 0
M  V30 3859 H 341.635 6.38019 -3.07144 0
M  V30 3860 H 342.043 5.40497 -1.62858 0
M  V30 3861 N 341.441 0.965919 1.2453 0
M  V30 3862 C 342.388 0.49402 2.25451 0
M  V30 3863 C 343.358 -0.45948 1.59618 0
M  V30 3864 O 344.543 -0.370238 1.87173 0
M  V30 3865 C 341.683 -0.211359 3.44452 0
M  V30 3866 C 340.796 0.7807 4.24887 0
M  V30 3867 C 339.931 0.0516105 5.31175 0
M  V30 3868 C 338.97 1.03385 6.03306 0
M  V30 3869 N 338.107 0.334887 7.01301 0
M  V30 3870 H 342.947 1.35946 2.65184 0
M  V30 3871 H 340.484 0.681515 1.3036 0
M  V30 3872 H 342.442 -0.637 4.12308 0
M  V30 3873 H 341.072 -1.04077 3.05562 0
M  V30 3874 H 340.124 1.32479 3.56586 0
M  V30 3875 H 341.436 1.52978 4.74762 0
M  V30 3876 H 340.59 -0.432114 6.05159 0
M  V30 3877 H 339.329 -0.730179 4.82203 0
M  V30 3878 H 338.334 1.52847 5.28127 0
M  V30 3879 H 339.559 1.81606 6.54367 0
M  V30 3880 H 337.505 -0.427959 6.54603 0
M  V30 3881 H 337.422 1.02287 7.49048 0
M  V30 3882 H 338.69 -0.126928 7.79397 0
M  V30 3883 N 342.919 -1.39368 0.735821 0
M  V30 3884 C 343.867 -2.32443 0.0855131 0
M  V30 3885 C 344.861 -1.53104 -0.724954 0
M  V30 3886 O 346.067 -1.68762 -0.626047 0
M  V30 3887 H 342.442 -0.751948 0.00885257 0
M  V30 3888 H 344.413 -2.84916 0.886883 0
M  V30 3889 C 343.162 -3.38206 -0.806983 0
M  V30 3890 H 342.485 -3.99335 -0.19274 0
M  V30 3891 H 343.925 -4.05779 -1.2296 0
M  V30 3892 C 342.384 -2.75321 -1.94165 0
M  V30 3893 O 342.914 -2.63231 -3.03435 0
M  V30 3894 N 341.12 -2.33396 -1.73132 0
M  V30 3895 H 340.667 -2.4343 -0.842596 0
M  V30 3896 H 340.625 -1.91661 -2.49225 0
M  V30 3897 N 344.397 -0.483516 -1.5 0
M  V30 3898 C 345.345 0.318061 -2.30415 0
M  V30 3899 C 346.339 0.978988 -1.38247 0
M  V30 3900 O 347.545 0.908673 -1.55381 0
M  V30 3901 H 343.92 0.121419 -0.742133 0
M  V30 3902 H 345.891 -0.380403 -2.95965 0
M  V30 3903 C 344.64 1.38013 -3.19136 0
M  V30 3904 H 343.963 0.880952 -3.89973 0
M  V30 3905 H 345.403 1.91332 -3.78375 0
M  V30 3906 C 343.862 2.38884 -2.37563 0
M  V30 3907 O 344.392 3.44412 -2.06744 0
M  V30 3908 N 342.598 2.10912 -1.99911 0
M  V30 3909 H 342.145 1.25118 -2.25174 0
M  V30 3910 H 342.103 2.78635 -1.45636 0
M  V30 3911 N 345.875 1.56104 -0.216619 0
M  V30 3912 C 347.286 1.844 0.292128 0
M  V30 3913 C 347.637 1.13788 1.59833 0
M  V30 3914 O 346.762 0.405888 2.12559 0
M  V30 3915 C 347.357 3.3452 0.53681 0
M  V30 3916 C 345.916 3.63151 0.989876 0
M  V30 3917 C 345.063 2.77255 0.0502302 0
M  V30 3918 H 348.014 1.52481 -0.439926 0
M  V30 3919 H 348.035 3.54459 1.38345 0
M  V30 3920 H 347.547 3.85885 -0.414031 0
M  V30 3921 H 345.648 3.17238 1.95425 0
M  V30 3922 H 345.761 4.71177 0.867698 0
M  V30 3923 H 344.125 2.48555 0.556117 0
M  V30 3924 H 344.908 3.31416 -0.89544 0
M  V30 3925 N 347.353 -0.0568162 1.57498 0
M  V30 3926 C 348.578 -0.769402 1.92601 0
M  V30 3927 C 349.003 -1.69559 0.814336 0
M  V30 3928 O 348.361 -1.79811 -0.231903 0
M  V30 3929 C 348.409 -1.52634 3.26704 0
M  V30 3930 O 347.513 -2.63797 3.16994 0
M  V30 3931 H 346.854 -0.208909 0.63028 0
M  V30 3932 H 349.384 -0.0205798 2.0459 0
M  V30 3933 H 349.394 -1.90234 3.60936 0
M  V30 3934 H 348.069 -0.846875 4.07186 0
M  V30 3935 H 346.646 -2.28943 2.94346 0
M  V30 3936 N 348.832 -1.54138 -0.328536 0
M  V30 3937 C 350.06 -1.76062 -1.08673 0
M  V30 3938 C 350.475 -0.506852 -1.81869 0
M  V30 3939 O 349.832 0.522223 -1.74869 0
M  V30 3940 C 349.883 -2.95054 -2.08866 0
M  V30 3941 O 349.604 -4.15583 -1.38644 0
M  V30 3942 C 351.105 -3.2915 -2.96943 0
M  V30 3943 H 348.325 -0.587889 -0.323461 0
M  V30 3944 H 350.869 -2.0101 -0.376175 0
M  V30 3945 H 349.024 -2.72394 -2.75464 0
M  V30 3946 H 349.438 -4.82481 -2.05699 0
M  V30 3947 H 350.912 -4.15723 -3.63151 0
M  V30 3948 H 351.389 -2.461 -3.63774 0
M  V30 3949 H 351.995 -3.53871 -2.35914 0
M  V30 3950 N 350.31 0.590341 -1.46126 0
M  V30 3951 C 351.258 1.72105 -1.5647 0
M  V30 3952 C 352.252 1.63756 -0.433612 0
M  V30 3953 O 353.458 1.69342 -0.610194 0
M  V30 3954 H 349.833 0.568889 -0.491802 0
M  V30 3955 H 351.804 1.6051 -2.51553 0
M  V30 3956 C 350.553 3.10493 -1.56491 0
M  V30 3957 H 349.876 3.17583 -2.4286 0
M  V30 3958 H 351.316 3.8939 -1.67785 0
M  V30 3959 C 349.775 3.3563 -0.292231 0
M  V30 3960 O 350.305 3.96875 0.620739 0
M  V30 3961 N 348.511 2.90026 -0.182523 0
M  V30 3962 H 348.058 2.40367 -0.926356 0
M  V30 3963 H 348.016 3.07218 0.668152 0
M  V30 3964 N 351.788 1.33704 0.83433 0
M  V30 3965 C 353.018 1.28281 1.6195 0
M  V30 3966 C 353.426 -0.147603 1.88623 0
M  V30 3967 O 352.769 -1.1016 1.47005 0
M  V30 3968 C 352.831 1.99386 2.99141 0
M  V30 3969 C 352.495 3.48681 2.95416 0
M  V30 3970 C 353.492 4.438 2.70809 0
M  V30 3971 C 351.177 3.90925 3.15409 0
M  V30 3972 C 353.171 5.79138 2.66229 0
M  V30 3973 C 350.858 5.26366 3.10454 0
M  V30 3974 C 351.856 6.20284 2.85895 0
M  V30 3975 O 351.544 7.53245 2.80852 0
M  V30 3976 H 351.276 0.44315 0.510484 0
M  V30 3977 H 353.83 1.76711 1.04702 0
M  V30 3978 H 352.06 1.45554 3.58261 0
M  V30 3979 H 353.749 1.87403 3.60049 0
M  V30 3980 H 354.515 4.12485 2.5511 0
M  V30 3981 H 350.394 3.18229 3.33543 0
M  V30 3982 H 353.938 6.52416 2.4698 0
M  V30 3983 H 349.835 5.57304 3.25703 0
M  V30 3984 H 350.603 7.62846 2.96661 0
M  V30 3985 N 353.266 -1.05314 1.17247 0
M  V30 3986 C 354.494 -1.81971 0.984593 0
M  V30 3987 C 354.909 -1.82929 -0.467166 0
M  V30 3988 O 354.266 -1.25564 -1.32438 0
M  V30 3989 C 354.317 -3.28143 1.51672 0
M  V30 3990 O 354.038 -3.27347 2.91163 0
M  V30 3991 C 355.539 -4.21493 1.37326 0
M  V30 3992 H 352.759 -0.573455 0.348411 0
M  V30 3993 H 355.303 -1.32808 1.55506 0
M  V30 3994 H 353.458 -3.74582 0.988302 0
M  V30 3995 H 353.872 -4.18824 3.15732 0
M  V30 3996 H 355.346 -5.22043 1.79375 0
M  V30 3997 H 355.823 -4.38031 0.320169 0
M  V30 3998 H 356.429 -3.80909 1.89178 0
M  V30 3999 N 354.744 -0.972509 -1.24016 0
M  V30 4000 C 355.972 -0.654803 -1.96265 0
M  V30 4001 C 356.387 0.776708 -1.72083 0
M  V30 4002 O 355.744 1.52171 -1.00748 0
M  V30 4003 C 355.795 -0.92592 -3.49441 0
M  V30 4004 O 355.516 -2.30116 -3.72798 0
M  V30 4005 C 357.017 -0.623068 -4.38899 0
M  V30 4006 H 354.237 -0.243907 -0.6251 0
M  V30 4007 H 356.781 -1.30175 -1.57717 0
M  V30 4008 H 354.936 -0.325108 -3.86033 0
M  V30 4009 H 355.35 -2.38483 -4.67147 0
M  V30 4010 H 356.824 -0.863189 -5.45209 0
M  V30 4011 H 357.301 0.442754 -4.36963 0
M  V30 4012 H 357.907 -1.204 -4.07902 0
M  V30 4013 N 356.222 1.38976 -0.743202 0
M  V30 4014 C 357.152 2.33171 -0.123873 0
M  V30 4015 C 358.133 1.54336 0.71516 0
M  V30 4016 O 359.318 1.82696 0.658467 0
M  V30 4017 C 356.448 3.38474 0.777978 0
M  V30 4018 C 355.402 4.27979 0.0424758 0
M  V30 4019 C 354.728 5.2405 1.06189 0
M  V30 4020 C 356.028 5.10155 -1.1198 0
M  V30 4021 H 357.722 2.85213 -0.910709 0
M  V30 4022 H 355.268 1.37133 -0.439388 0
M  V30 4023 H 357.221 4.03328 1.22084 0
M  V30 4024 H 355.945 2.84891 1.59702 0
M  V30 4025 H 354.604 3.64616 -0.380853 0
M  V30 4026 H 354.252 4.66758 1.87472 0
M  V30 4027 H 353.952 5.84785 0.574485 0
M  V30 4028 H 355.476 5.9178 1.50428 0
M  V30 4029 H 356.89 5.68307 -0.75499 0
M  V30 4030 H 355.287 5.80073 -1.53738 0
M  V30 4031 H 356.357 4.44504 -1.93764 0
M  V30 4032 N 357.7 0.491464 1.49741 0
M  V30 4033 C 359.111 0.0413169 1.86654 0
M  V30 4034 C 359.462 -1.36985 1.40462 0
M  V30 4035 O 358.587 -2.01917 0.778354 0
M  V30 4036 C 359.182 0.0682023 3.38731 0
M  V30 4037 C 357.741 -0.32656 3.74981 0
M  V30 4038 C 356.888 0.444888 2.73708 0
M  V30 4039 H 359.839 0.704733 1.42194 0
M  V30 4040 H 359.86 -0.729322 3.73445 0
M  V30 4041 H 359.372 1.09539 3.72321 0
M  V30 4042 H 357.473 -1.35734 3.46997 0
M  V30 4043 H 357.586 -0.013741 4.79098 0
M  V30 4044 H 355.95 -0.104062 2.54487 0
M  V30 4045 H 356.733 1.47197 3.10142 0
M  V30 4046 N 359.178 -1.55987 0.224894 0
M  V30 4047 C 360.455 -1.90232 -0.455083 0
M  V30 4048 C 360.835 -1.14269 -1.77499 0
M  V30 4049 O 360.183 -0.253079 -2.27094 0
M  V30 4050 C 360.393 -3.42993 -0.644758 0
M  V30 4051 C 361.741 -4.13821 -0.950669 0
M  V30 4052 O 362.765 -3.4861 -0.731423 0
M  V30 4053 O 361.624 -5.29128 -1.36695 0
M  V30 4054 H 358.718 -0.79108 -0.241084 0
M  V30 4055 H 361.264 -1.67581 0.267327 0
M  V30 4056 H 360.036 -3.90252 0.28613 0
M  V30 4057 H 359.659 -3.71434 -1.41853 0
M  V30 4058 N 360.656 0.0484629 -1.57525 0
M  V30 4059 C 361.566 1.07241 -2.08654 0
M  V30 4060 C 362.582 1.409 -1.02095 0
M  V30 4061 O 363.758 1.50609 -1.33712 0
M  V30 4062 C 360.823 2.36008 -2.5397 0
M  V30 4063 C 359.884 2.09108 -3.7493 0
M  V30 4064 C 359.117 3.31736 -4.18075 0
M  V30 4065 O 359.34 4.41714 -3.60895 0
M  V30 4066 O 358.274 3.18576 -5.10679 0
M  V30 4067 H 362.1 0.667965 -2.96263 0
M  V30 4068 H 359.685 0.26417 -1.47046 0
M  V30 4069 H 361.567 3.11747 -2.83535 0
M  V30 4070 H 360.242 2.75786 -1.69481 0
M  V30 4071 H 359.149 1.31 -3.50414 0
M  V30 4072 H 360.482 1.74198 -4.60343 0
M  V30 4073 N 362.134 1.5431 0.320358 0
M  V30 4074 C 363.383 1.7188 1.05546 0
M  V30 4075 C 363.696 0.501143 1.89071 0
M  V30 4076 O 364.902 0.558258 2.65699 0
M  V30 4077 C 363.358 3.04025 1.92605 0
M  V30 4078 C 362.966 4.33207 1.14176 0
M  V30 4079 C 364.71 3.30959 2.65832 0
M  V30 4080 C 362.617 5.56412 2.00399 0
M  V30 4081 H 361.547 0.640547 0.397763 0
M  V30 4082 H 364.198 1.80802 0.313522 0
M  V30 4083 H 362.58 2.89019 2.7071 0
M  V30 4084 H 363.754 4.58989 0.40819 0
M  V30 4085 H 362.069 4.13062 0.526165 0
M  V30 4086 H 364.666 4.20203 3.30656 0
M  V30 4087 H 365.009 2.48979 3.33639 0
M  V30 4088 H 365.542 3.46847 1.94787 0
M  V30 4089 H 362.281 6.41004 1.37094 0
M  V30 4090 H 361.801 5.34844 2.7148 0
M  V30 4091 H 363.48 5.92938 2.58908 0
M  V30 4092 N 363.613 -0.582584 1.46437 0
M  V30 4093 C 364.546 -1.70633 1.51524 0
M  V30 4094 C 365.524 -1.58349 0.369351 0
M  V30 4095 O 366.708 -1.79563 0.573516 0
M  V30 4096 C 363.835 -3.08687 1.39392 0
M  V30 4097 C 362.881 -3.3949 2.58164 0
M  V30 4098 S 363.714 -3.31548 4.20519 0
M  V30 4099 C 364.87 -4.72139 4.10896 0
M  V30 4100 H 365.103 -1.66058 2.46601 0
M  V30 4101 H 362.636 -0.761337 1.34324 0
M  V30 4102 H 364.594 -3.8833 1.33079 0
M  V30 4103 H 363.255 -3.10751 0.457436 0
M  V30 4104 H 362.448 -4.40071 2.45669 0
M  V30 4105 H 362.05 -2.67415 2.61468 0
M  V30 4106 H 364.342 -5.62527 3.77584 0
M  V30 4107 H 365.285 -4.89692 5.11476 0
M  V30 4108 H 365.693 -4.48995 3.42146 0
M  V30 4109 N 365.091 -1.34144 -0.827227 0
M  V30 4110 C 366.039 -1.25364 -1.95925 0
M  V30 4111 C 367.033 -0.152608 -1.68711 0
M  V30 4112 O 368.239 -0.317311 -1.77181 0
M  V30 4113 H 364.614 -0.389342 -0.643364 0
M  V30 4114 H 366.585 -2.21045 -2.00454 0
M  V30 4115 C 365.334 -1.02158 -3.32354 0
M  V30 4116 H 364.657 -1.86111 -3.5384 0
M  V30 4117 H 366.097 -1.00048 -4.12027 0
M  V30 4118 C 364.556 0.275244 -3.35774 0
M  V30 4119 O 365.086 1.27806 -3.80826 0
M  V30 4120 N 363.292 0.306853 -2.88975 0
M  V30 4121 H 362.839 -0.509777 -2.52506 0
M  V30 4122 H 362.797 1.17432 -2.91646 0
M  V30 4123 N 366.569 1.04691 -1.17803 0
M  V30 4124 C 367.501 2.12571 -0.857097 0
M  V30 4125 C 368.514 1.62174 0.142647 0
M  V30 4126 O 369.703 1.78301 -0.0843387 0
M  V30 4127 C 366.803 3.37915 -0.258216 0
M  V30 4128 C 365.976 4.1757 -1.30207 0
M  V30 4129 C 365.035 5.2125 -0.720029 0
M  V30 4130 O 364.061 5.51888 -1.39314 0
M  V30 4131 N 365.263 5.78466 0.485507 0
M  V30 4132 H 368.028 2.40698 -1.78562 0
M  V30 4133 H 365.589 1.20831 -1.07757 0
M  V30 4134 H 367.581 4.04442 0.144584 0
M  V30 4135 H 366.151 3.07281 0.574199 0
M  V30 4136 H 365.371 3.46458 -1.88043 0
M  V30 4137 H 366.659 4.67586 -2.00601 0
M  V30 4138 H 366.057 5.55866 1.05022 0
M  V30 4139 H 364.614 6.4649 0.830307 0
M  V30 4140 N 368.047 0.979072 1.23499 0
M  V30 4141 C 368.994 0.517904 2.24914 0
M  V30 4142 C 369.964 -0.442525 1.60097 0
M  V30 4143 O 371.149 -0.350365 1.87556 0
M  V30 4144 C 368.289 -0.174813 3.44657 0
M  V30 4145 C 367.402 0.825721 4.24035 0
M  V30 4146 C 366.537 0.107946 5.3109 0
M  V30 4147 C 365.576 1.09778 6.02175 0
M  V30 4148 N 364.713 0.40925 7.00906 0
M  V30 4149 H 369.553 1.38751 2.63727 0
M  V30 4150 H 367.09 0.695303 1.2963 0
M  V30 4151 H 369.048 -0.593233 4.12961 0
M  V30 4152 H 367.678 -1.0083 3.06648 0
M  V30 4153 H 366.73 1.36253 3.55161 0
M  V30 4154 H 368.042 1.58005 4.73113 0
M  V30 4155 H 367.196 -0.367904 6.05583 0
M  V30 4156 H 365.935 -0.678994 4.8295 0
M  V30 4157 H 364.94 1.5844 5.26476 0
M  V30 4158 H 366.165 1.88536 6.52404 0
M  V30 4159 H 364.111 -0.358506 6.5502 0
M  V30 4160 H 364.028 1.10226 7.47921 0
M  V30 4161 H 365.296 -0.0442557 7.79487 0
M  V30 4162 N 369.525 -1.3858 0.750561 0
M  V30 4163 C 370.455 -2.33102 0.136237 0
M  V30 4164 C 371.436 -1.54713 -0.706965 0
M  V30 4165 O 372.621 -1.83043 -0.648769 0
M  V30 4166 C 369.751 -3.38882 -0.760017 0
M  V30 4167 C 368.705 -4.27995 -0.0197785 0
M  V30 4168 C 368.031 -5.24605 -1.03408 0
M  V30 4169 C 369.331 -5.09554 1.14684 0
M  V30 4170 H 371.025 -2.84726 0.925822 0
M  V30 4171 H 368.571 -1.36898 0.446654 0
M  V30 4172 H 370.524 -4.0397 -1.19943 0
M  V30 4173 H 369.248 -2.85734 -1.58189 0
M  V30 4174 H 367.907 -3.64409 0.400184 0
M  V30 4175 H 367.555 -4.67746 -1.84994 0
M  V30 4176 H 367.255 -5.85081 -0.543464 0
M  V30 4177 H 368.779 -5.9257 -1.47288 0
M  V30 4178 H 370.193 -5.67899 0.785118 0
M  V30 4179 H 368.59 -5.7925 1.56812 0
M  V30 4180 H 369.66 -4.4347 1.96118 0
M  V30 4181 N 371.003 -0.499398 -1.49478 0
M  V30 4182 C 372.228 0.044722 -2.07352 0
M  V30 4183 C 372.653 1.30207 -1.35749 0
M  V30 4184 O 372.011 1.76516 -0.413732 0
M  V30 4185 C 372.059 0.283013 -3.59488 0
M  V30 4186 O 371.163 1.35804 -3.89398 0
M  V30 4187 H 370.504 -0.0255147 -0.66351 0
M  V30 4188 H 373.034 -0.698561 -1.92305 0
M  V30 4189 H 373.044 0.515007 -4.04737 0
M  V30 4190 H 371.719 -0.635636 -4.11014 0
M  V30 4191 H 370.296 1.11113 -3.55961 0
M  V30 4192 N 372.481 1.55866 -0.233164 0
M  V30 4193 C 373.892 1.847 0.272554 0
M  V30 4194 C 374.243 1.15477 1.58617 0
M  V30 4195 O 373.368 0.42841 2.12117 0
M  V30 4196 C 373.963 3.35071 0.501299 0
M  V30 4197 C 372.522 3.6418 0.951304 0
M  V30 4198 C 371.669 2.77292 0.0208209 0
M  V30 4199 H 374.62 1.52005 -0.456074 0
M  V30 4200 H 374.641 3.55906 1.34577 0
M  V30 4201 H 374.153 3.85424 -0.454936 0
M  V30 4202 H 372.254 3.19293 1.92049 0
M  V30 4203 H 372.367 4.72071 0.817675 0
M  V30 4204 H 370.731 2.49131 0.529723 0
M  V30 4205 H 371.514 3.30448 -0.93054 0
M  V30 4206 N 373.959 -0.0401083 1.57549 0
M  V30 4207 C 375.206 -0.733125 1.88763 0
M  V30 4208 C 375.534 -1.75946 0.829058 0
M  V30 4209 O 374.789 -1.94949 -0.171323 0
M  V30 4210 C 375.088 -1.44902 3.26708 0
M  V30 4211 C 374.754 -0.559707 4.47413 0
M  V30 4212 C 373.416 -0.314731 4.8017 0
M  V30 4213 C 375.768 0.0549743 5.21171 0
M  V30 4214 C 373.096 0.553886 5.8408 0
M  V30 4215 C 375.448 0.911229 6.26003 0
M  V30 4216 C 374.112 1.16577 6.57241 0
M  V30 4217 H 373.382 -0.268269 0.690733 0
M  V30 4218 H 376.029 0.00679408 1.91499 0
M  V30 4219 H 374.334 -2.26197 3.1991 0
M  V30 4220 H 376.031 -1.99058 3.48105 0
M  V30 4221 H 372.621 -0.760793 4.21794 0
M  V30 4222 H 376.805 -0.121344 4.96152 0
M  V30 4223 H 372.061 0.759518 6.06664 0
M  V30 4224 H 376.235 1.3941 6.82303 0
M  V30 4225 H 373.862 1.84058 7.37582 0
M  V30 4226 N 375.437 -1.54477 -0.31217 0
M  V30 4227 C 376.37 -1.79519 -1.40884 0
M  V30 4228 C 377.348 -0.645753 -1.49227 0
M  V30 4229 O 378.532 -0.884468 -1.66461 0
M  V30 4230 C 375.659 -1.92194 -2.78889 0
M  V30 4231 C 374.705 -3.14555 -2.88023 0
M  V30 4232 S 375.538 -4.72893 -2.51262 0
M  V30 4233 C 376.694 -4.8849 -3.91317 0
M  V30 4234 H 376.927 -2.72256 -1.19432 0
M  V30 4235 H 374.46 -1.45746 -0.509654 0
M  V30 4236 H 376.418 -2.00182 -3.58382 0
M  V30 4237 H 375.079 -1.00414 -2.97617 0
M  V30 4238 H 374.272 -3.20193 -3.89221 0
M  V30 4239 H 373.874 -3.04955 -2.16514 0
M  V30 4240 H 376.166 -4.71826 -4.86196 0
M  V30 4241 H 377.109 -5.90588 -3.90656 0
M  V30 4242 H 377.517 -4.16715 -3.80801 0
M  V30 4243 N 376.915 0.57481 -1.46744 0
M  V30 4244 C 378.331 0.898981 -1.31873 0
M  V30 4245 C 378.531 1.99313 -0.29605 0
M  V30 4246 O 377.587 2.50728 0.298621 0
M  V30 4247 C 378.9 1.30886 -2.7072 0
M  V30 4248 C 380.448 1.42127 -2.78871 0
M  V30 4249 C 380.923 1.86478 -4.18318 0
M  V30 4250 N 382.414 1.93658 -4.20774 0
M  V30 4251 C 383.149 2.29267 -5.2557 0
M  V30 4252 N 382.645 2.63612 -6.40688 0
M  V30 4253 N 384.438 2.29889 -5.1294 0
M  V30 4254 H 376.589 -0.147839 -2.11885 0
M  V30 4255 H 378.852 -0.00347013 -0.947994 0
M  V30 4256 H 378.558 0.578853 -3.46904 0
M  V30 4257 H 378.432 2.26874 -3.01343 0
M  V30 4258 H 380.819 2.14213 -2.0297 0
M  V30 4259 H 380.9 0.443705 -2.51922 0
M  V30 4260 H 380.544 1.14968 -4.94717 0
M  V30 4261 H 380.474 2.85207 -4.42679 0
M  V30 4262 H 382.965 1.69574 -3.37718 0
M  V30 4263 H 383.278 2.89759 -7.16421 0
M  V30 4264 H 381.623 2.61232 -6.44036 0
M  V30 4265 H 384.814 2.02485 -4.22039 0
M  V30 4266 H 384.987 2.57312 -5.94722 0
M  V30 4267 N 378.394 1.34581 0.820102 0
M  V30 4268 C 379.341 1.2639 1.93117 0
M  V30 4269 C 380.311 0.138554 1.65521 0
M  V30 4270 O 381.496 0.320004 1.88097 0
M  V30 4271 C 378.636 1.02812 3.29429 0
M  V30 4272 C 377.749 2.24146 3.693 0
M  V30 4273 C 376.884 1.93829 4.94574 0
M  V30 4274 C 375.923 3.1129 5.27034 0
M  V30 4275 N 375.06 2.80838 6.43486 0
M  V30 4276 H 379.9 2.21408 1.99455 0
M  V30 4277 H 377.437 1.10077 0.975784 0
M  V30 4278 H 379.395 0.871788 4.0799 0
M  V30 4279 H 378.025 0.114612 3.22596 0
M  V30 4280 H 377.077 2.50691 2.86109 0
M  V30 4281 H 378.389 3.11899 3.89257 0
M  V30 4282 H 377.543 1.74948 5.80929 0
M  V30 4283 H 376.282 1.03341 4.76626 0
M  V30 4284 H 375.287 3.30764 4.39175 0
M  V30 4285 H 376.512 4.02561 5.4692 0
M  V30 4286 H 374.458 1.92929 6.26988 0
M  V30 4287 H 374.375 3.62123 6.63629 0
M  V30 4288 H 375.643 2.65467 7.32903 0
M  V30 4289 N 379.872 -1.04064 1.18357 0
M  V30 4290 C 381.12 -1.76915 0.977013 0
M  V30 4291 C 381.441 -1.88624 -0.494577 0
M  V30 4292 O 380.711 -1.41125 -1.3587 0
M  V30 4293 H 379.291 -0.65535 0.358504 0
M  V30 4294 H 381.953 -1.25592 1.49039 0
M  V30 4295 H 381.049 -2.78178 1.41504 0
M  V30 4296 N 381.35 -0.985608 -1.22978 0
M  V30 4297 C 382.599 -0.652881 -1.90841 0
M  V30 4298 C 382.912 0.817842 -1.77681 0
M  V30 4299 O 384.118 1.26185 -2.40395 0
M  V30 4300 C 382.574 -1.11717 -3.42122 0
M  V30 4301 C 382.182 -2.6126 -3.63933 0
M  V30 4302 C 383.926 -0.85843 -4.1573 0
M  V30 4303 C 381.833 -3.0133 -5.08876 0
M  V30 4304 H 380.763 -0.240491 -0.714619 0
M  V30 4305 H 383.414 -1.1942 -1.39324 0
M  V30 4306 H 381.796 -0.504027 -3.92779 0
M  V30 4307 H 382.97 -3.27858 -3.23799 0
M  V30 4308 H 381.285 -2.84937 -3.03644 0
M  V30 4309 H 383.882 -1.13359 -5.22546 0
M  V30 4310 H 384.225 0.205461 -4.15793 0
M  V30 4311 H 384.758 -1.43341 -3.71077 0
M  V30 4312 H 381.497 -4.06864 -5.13947 0
M  V30 4313 H 381.017 -2.3943 -5.49939 0
M  V30 4314 H 382.696 -2.92224 -5.77247 0
M  V30 4315 N 382.828 1.3818 -0.7579 0
M  V30 4316 C 384.056 2.04301 -0.326937 0
M  V30 4317 C 384.471 1.57163 1.0462 0
M  V30 4318 O 383.828 0.746626 1.66529 0
M  V30 4319 C 383.879 3.59846 -0.345363 0
M  V30 4320 O 383.6 4.05256 -1.66432 0
M  V30 4321 C 385.101 4.4319 0.098927 0
M  V30 4322 H 382.321 0.656443 -0.139012 0
M  V30 4323 H 384.865 1.76786 -1.02796 0
M  V30 4324 H 383.02 3.86182 0.306955 0
M  V30 4325 H 383.434 4.99709 -1.59345 0
M  V30 4326 H 384.908 5.51989 0.0348745 0
M  V30 4327 H 385.385 4.23947 1.14741 0
M  V30 4328 H 385.991 4.22051 -0.52468 0
M  V30 4329 N 384.306 0.507319 1.49211 0
M  V30 4330 C 385.554 -0.0348839 2.0207 0
M  V30 4331 C 385.875 -1.36898 1.38866 0
M  V30 4332 O 385.145 -1.88133 0.546151 0
M  V30 4333 H 383.725 -0.0158812 0.746831 0
M  V30 4334 H 386.387 0.665998 1.83168 0
M  V30 4335 H 385.483 -0.159917 3.1169 0
M  V30 4336 N 385.784 -1.5574 0.241426 0
M  V30 4337 C 387.061 -1.90704 -0.434881 0
M  V30 4338 C 387.441 -1.16145 -1.76277 0
M  V30 4339 O 386.789 -0.277152 -2.26813 0
M  V30 4340 C 386.999 -3.43657 -0.608343 0
M  V30 4341 C 388.347 -4.14806 -0.906725 0
M  V30 4342 O 389.371 -3.49366 -0.694408 0
M  V30 4343 O 388.23 -5.30548 -1.31075 0
M  V30 4344 H 385.324 -0.793592 -0.23268 0
M  V30 4345 H 387.87 -1.67288 0.285086 0
M  V30 4346 H 386.642 -3.89927 0.327505 0
M  V30 4347 H 386.265 -3.72918 -1.37906 0
M  V30 4348 N 387.262 0.0317525 -1.57568 0
M  V30 4349 C 388.508 0.718712 -1.90279 0
M  V30 4350 C 388.863 1.73108 -0.839727 0
M  V30 4351 O 388.156 1.90997 0.15188 0
M  V30 4352 C 388.35 1.43167 -3.27472 0
M  V30 4353 C 388.179 0.489869 -4.47024 0
M  V30 4354 C 386.949 0.111909 -5.05176 0
M  V30 4355 C 389.147 -0.230592 -5.13783 0
M  V30 4356 N 387.129 -0.831427 -6.08244 0
M  V30 4357 C 388.5 -1.02968 -6.1139 0
M  V30 4358 C 390.555 -0.297821 -4.97008 0
M  V30 4359 C 389.258 -1.88982 -6.9403 0
M  V30 4360 C 391.284 -1.14507 -5.80209 0
M  V30 4361 C 390.646 -1.9321 -6.77384 0
M  V30 4362 H 386.745 0.237177 -0.745165 0
M  V30 4363 H 389.329 -0.0211267 -1.94689 0
M  V30 4364 H 387.5 2.14199 -3.23996 0
M  V30 4365 H 389.232 2.0708 -3.47707 0
M  V30 4366 H 385.987 0.473513 -4.71227 0
M  V30 4367 H 386.411 -1.29752 -6.6445 0
M  V30 4368 H 391.053 0.296346 -4.2176 0
M  V30 4369 H 388.771 -2.4948 -7.68626 0
M  V30 4370 H 392.357 -1.20059 -5.69278 0
M  V30 4371 H 391.237 -2.57711 -7.40645 0
M  V30 4372 N 388.74 1.54641 0.303973 0
M  V30 4373 C 389.687 1.85386 1.37479 0
M  V30 4374 C 390.657 0.702528 1.50512 0
M  V30 4375 O 391.842 0.950867 1.65418 0
M  V30 4376 C 388.982 2.10413 2.73533 0
M  V30 4377 C 388.095 3.38049 2.68974 0
M  V30 4378 C 387.23 3.52934 3.97002 0
M  V30 4379 C 386.269 4.74373 3.86829 0
M  V30 4380 N 385.406 4.8608 5.06627 0
M  V30 4381 H 390.246 2.76732 1.1056 0
M  V30 4382 H 387.783 1.37034 0.534805 0
M  V30 4383 H 389.741 2.22919 3.52652 0
M  V30 4384 H 388.371 1.22338 2.98719 0
M  V30 4385 H 387.423 3.3418 1.81736 0
M  V30 4386 H 388.735 4.27288 2.57346 0
M  V30 4387 H 387.889 3.65088 4.84557 0
M  V30 4388 H 386.628 2.61824 4.1146 0
M  V30 4389 H 385.633 4.62255 2.97658 0
M  V30 4390 H 386.858 5.66888 3.73918 0
M  V30 4391 H 384.804 3.97891 5.21554 0
M  V30 4392 H 384.721 5.69315 4.9741 0
M  V30 4393 H 385.989 5.02587 5.95841 0
M  V30 4394 N 390.218 -0.567019 1.47046 0
M  V30 4395 C 391.166 -1.69593 1.59188 0
M  V30 4396 C 392.16 -1.63046 0.459609 0
M  V30 4397 O 393.366 -1.6835 0.637058 0
M  V30 4398 H 389.741 -0.560993 0.500791 0
M  V30 4399 H 391.712 -1.56488 2.54075 0
M  V30 4400 C 390.461 -3.07964 1.61411 0
M  V30 4401 H 389.784 -3.13679 2.47881 0
M  V30 4402 H 391.224 -3.86671 1.73958 0
M  V30 4403 C 389.683 -3.35123 0.34559 0
M  V30 4404 O 390.213 -3.97812 -0.557521 0
M  V30 4405 N 388.419 -2.89699 0.22864 0
M  V30 4406 H 387.966 -2.38863 0.964479 0
M  V30 4407 H 387.924 -3.08242 -0.619192 0
M  V30 4408 N 391.696 -1.35014 -0.812953 0
M  V30 4409 C 392.646 -1.23959 -1.91359 0
M  V30 4410 C 393.63 -0.136306 -1.60322 0
M  V30 4411 O 394.822 -0.366925 -1.73155 0
M  V30 4412 C 391.951 -1.00736 -3.28188 0
M  V30 4413 C 391.037 -2.15426 -3.65311 0
M  V30 4414 N 391.428 -3.40612 -3.73921 0
M  V30 4415 C 389.726 -2.06672 -3.95225 0
M  V30 4416 C 390.427 -4.15994 -4.06601 0
M  V30 4417 N 389.403 -3.44685 -4.20349 0
M  V30 4418 H 393.205 -2.18815 -1.96208 0
M  V30 4419 H 390.719 -1.27395 -1.00718 0
M  V30 4420 H 392.716 -0.909052 -4.06868 0
M  V30 4421 H 391.376 -0.067586 -3.2463 0
M  V30 4422 H 392.387 -3.75043 -3.5716 0
M  V30 4423 H 389.064 -1.20511 -3.99729 0
M  V30 4424 H 390.454 -5.24145 -4.20382 0
M  V30 4425 N 393.175 1.03435 -1.18907 0
M  V30 4426 C 394.422 1.76743 -0.988334 0
M  V30 4427 C 394.75 1.88447 0.481441 0
M  V30 4428 O 394.005 1.39383 1.37371 0
M  V30 4429 C 394.304 3.19792 -1.59586 0
M  V30 4430 C 393.97 3.28108 -3.09283 0
M  V30 4431 C 392.632 3.30084 -3.5014 0
M  V30 4432 C 394.984 3.27696 -4.05296 0
M  V30 4433 C 392.312 3.29299 -4.85571 0
M  V30 4434 C 394.664 3.28451 -5.4065 0
M  V30 4435 C 393.328 3.28723 -5.80946 0
M  V30 4436 H 392.598 0.64675 -0.361657 0
M  V30 4437 H 395.245 1.21442 -1.48068 0
M  V30 4438 H 393.55 3.78136 -1.02568 0
M  V30 4439 H 395.247 3.75171 -1.41589 0
M  V30 4440 H 391.837 3.27294 -2.76725 0
M  V30 4441 H 396.021 3.25354 -3.74778 0
M  V30 4442 H 391.277 3.2783 -5.16079 0
M  V30 4443 H 395.451 3.27082 -6.14809 0
M  V30 4444 H 393.078 3.27868 -6.85862 0
M  V30 4445 N 394.653 0.992116 1.22453 0
M  V30 4446 C 395.881 0.685944 1.95198 0
M  V30 4447 C 396.296 -0.749233 1.73297 0
M  V30 4448 O 395.653 -1.50549 1.03156 0
M  V30 4449 C 395.704 0.981395 3.47924 0
M  V30 4450 O 395.425 2.36018 3.6909 0
M  V30 4451 C 396.926 0.692815 4.37853 0
M  V30 4452 H 394.146 0.253821 0.621141 0
M  V30 4453 H 396.69 1.32668 1.55626 0
M  V30 4454 H 394.845 0.386481 3.85467 0
M  V30 4455 H 395.259 2.45884 4.63294 0
M  V30 4456 H 396.733 0.949818 5.43767 0
M  V30 4457 H 397.21 -0.373181 4.37612 0
M  V30 4458 H 397.816 1.26874 4.05935 0
M  V30 4459 N 396.131 -1.37776 0.765217 0
M  V30 4460 C 397.377 -2.00145 0.327072 0
M  V30 4461 C 397.71 -1.60607 -1.09175 0
M  V30 4462 O 396.985 -0.849127 -1.74986 0
M  V30 4463 C 397.268 -3.57109 0.46319 0
M  V30 4464 C 397.121 -4.06576 1.92395 0
M  V30 4465 C 398.44 -4.39888 -0.136473 0
M  V30 4466 H 395.559 -0.727113 0.120316 0
M  V30 4467 H 398.201 -1.63549 0.967039 0
M  V30 4468 H 396.351 -3.88414 -0.0816358 0
M  V30 4469 H 398.023 -3.85864 2.52798 0
M  V30 4470 H 396.266 -3.59011 2.43503 0
M  V30 4471 H 396.937 -5.15639 1.97028 0
M  V30 4472 H 399.413 -4.14803 0.328317 0
M  V30 4473 H 398.289 -5.48899 -0.0110582 0
M  V30 4474 H 398.55 -4.24758 -1.22608 0
M  V30 4475 N 397.609 -0.515225 -1.4894 0
M  V30 4476 C 398.572 0.244681 -2.2789 0
M  V30 4477 C 399.572 0.881166 -1.34507 0
M  V30 4478 O 400.762 0.743497 -1.57537 0
M  V30 4479 C 397.894 1.35247 -3.12923 0
M  V30 4480 H 399.087 -0.448289 -2.96531 0
M  V30 4481 H 396.64 -0.270656 -1.53939 0
M  V30 4482 H 397.375 2.07916 -2.48881 0
M  V30 4483 H 397.16 0.901374 -3.81599 0
M  V30 4484 H 398.65 1.88737 -3.72516 0
M  V30 4485 N 399.087 1.5561 -0.249682 0
M  V30 4486 C 400.017 2.24477 0.642826 0
M  V30 4487 C 400.998 1.22601 1.17911 0
M  V30 4488 O 402.183 1.5126 1.21795 0
M  V30 4489 C 399.313 2.94638 1.83863 0
M  V30 4490 C 398.267 4.03227 1.435 0
M  V30 4491 C 397.593 4.60828 2.71186 0
M  V30 4492 C 398.893 5.18796 0.604002 0
M  V30 4493 H 400.587 2.99321 0.0685625 0
M  V30 4494 H 398.133 1.43965 0.0315363 0
M  V30 4495 H 400.086 3.41517 2.46868 0
M  V30 4496 H 398.81 2.17287 2.43832 0
M  V30 4497 H 397.469 3.57121 0.828275 0
M  V30 4498 H 397.117 3.80174 3.29358 0
M  V30 4499 H 396.817 5.34132 2.44901 0
M  V30 4500 H 398.341 5.10442 3.35084 0
M  V30 4501 H 399.755 5.61883 1.13842 0
M  V30 4502 H 398.152 5.98506 0.437097 0
M  V30 4503 H 399.222 4.83384 -0.383147 0
M  V30 4504 N 400.565 -0.0233959 1.57583 0
M  V30 4505 C 401.513 -1.04063 2.08023 0
M  V30 4506 C 402.507 -1.37084 0.995204 0
M  V30 4507 O 403.713 -1.35923 1.18004 0
M  V30 4508 H 400.088 -0.353144 0.663922 0
M  V30 4509 H 402.059 -0.589453 2.9252 0
M  V30 4510 C 400.808 -2.33123 2.57971 0
M  V30 4511 H 400.131 -2.08577 3.4108 0
M  V30 4512 H 401.571 -3.02632 2.96967 0
M  V30 4513 C 400.03 -3.02483 1.48342 0
M  V30 4514 O 400.56 -3.92541 0.852898 0
M  V30 4515 N 398.766 -2.63909 1.21658 0
M  V30 4516 H 398.313 -1.90758 1.73116 0
M  V30 4517 H 398.271 -3.10633 0.485218 0
M  V30 4518 N 402.043 -1.548 -0.295768 0
M  V30 4519 C 402.953 -1.89177 -1.38742 0
M  V30 4520 C 403.969 -0.786481 -1.55211 0
M  V30 4521 O 405.145 -1.08344 -1.69775 0
M  V30 4522 C 402.21 -2.13663 -2.73036 0
M  V30 4523 C 401.271 -3.37349 -2.65508 0
M  V30 4524 C 400.504 -3.60658 -3.93398 0
M  V30 4525 O 400.727 -2.86882 -4.93006 0
M  V30 4526 O 399.661 -4.54179 -3.94975 0
M  V30 4527 H 403.487 -2.82059 -1.12589 0
M  V30 4528 H 401.072 -1.41056 -0.492295 0
M  V30 4529 H 402.954 -2.3094 -3.52484 0
M  V30 4530 H 401.629 -1.23967 -2.99022 0
M  V30 4531 H 400.536 -3.25431 -1.84514 0
M  V30 4532 H 401.869 -4.27192 -2.44474 0
M  V30 4533 N 403.521 0.559213 -1.47345 0
M  V30 4534 C 404.468 1.66645 -1.59682 0
M  V30 4535 C 405.438 1.60168 -0.43994 0
M  V30 4536 O 406.623 1.79031 -0.659736 0
M  V30 4537 C 403.763 3.04969 -1.61518 0
M  V30 4538 C 402.876 3.21897 -2.88108 0
M  V30 4539 C 402.011 4.50608 -2.81294 0
M  V30 4540 C 401.05 4.60961 -4.02717 0
M  V30 4541 N 400.187 5.81024 -3.94151 0
M  V30 4542 H 405.027 1.55439 -2.54249 0
M  V30 4543 H 402.564 0.757219 -1.26113 0
M  V30 4544 H 404.522 3.85064 -1.60566 0
M  V30 4545 H 403.152 3.15015 -0.704645 0
M  V30 4546 H 402.204 2.35248 -2.98936 0
M  V30 4547 H 403.516 3.25412 -3.78032 0
M  V30 4548 H 402.67 5.3896 -2.7858 0
M  V30 4549 H 401.409 4.49568 -1.89049 0
M  V30 4550 H 400.414 3.71021 -4.05738 0
M  V30 4551 H 401.639 4.63761 -4.96087 0
M  V30 4552 H 399.585 5.80938 -3.04708 0
M  V30 4553 H 399.502 5.85909 -4.77752 0
M  V30 4554 H 400.77 6.71744 -3.9545 0
M  V30 4555 N 404.999 1.35443 0.805782 0
M  V30 4556 C 406.246 1.28761 1.56291 0
M  V30 4557 C 406.574 -0.137747 1.94012 0
M  V30 4558 O 405.829 -1.1032 1.61642 0
M  V30 4559 C 406.128 2.14045 2.86216 0
M  V30 4560 C 405.794 3.62826 2.67709 0
M  V30 4561 C 404.456 4.0338 2.6237 0
M  V30 4562 C 406.808 4.57227 2.50186 0
M  V30 4563 C 404.136 5.36501 2.37451 0
M  V30 4564 C 406.488 5.90547 2.26797 0
M  V30 4565 C 405.152 6.30245 2.1988 0
M  V30 4566 H 404.422 0.471171 0.571908 0
M  V30 4567 H 407.069 1.67347 0.930974 0
M  V30 4568 H 405.374 1.68342 3.53791 0
M  V30 4569 H 407.071 2.0621 3.43917 0
M  V30 4570 H 403.661 3.30644 2.72713 0
M  V30 4571 H 407.845 4.2678 2.53323 0
M  V30 4572 H 403.101 5.66259 2.30567 0
M  V30 4573 H 407.275 6.63274 2.12228 0
M  V30 4574 H 404.902 7.33328 2.00333 0
M  V30 4575 N 406.477 -1.02803 1.19454 0
M  V30 4576 C 407.754 -1.73299 0.907013 0
M  V30 4577 C 408.134 -2.02772 -0.587086 0
M  V30 4578 O 407.482 -1.68304 -1.54551 0
M  V30 4579 C 407.692 -3.00912 1.76785 0
M  V30 4580 C 409.04 -3.74403 2.00268 0
M  V30 4581 O 410.064 -3.10841 1.73943 0
M  V30 4582 O 408.923 -4.88675 2.4466 0
M  V30 4583 H 406.017 -0.754727 0.338106 0
M  V30 4584 H 408.563 -1.08754 1.30271 0
M  V30 4585 H 407.335 -2.75366 2.7801 0
M  V30 4586 H 406.958 -3.73197 1.37149 0
M  V30 4587 N 407.956 -0.998596 -1.21925 0
M  V30 4588 C 408.903 -0.553621 -2.24062 0
M  V30 4589 C 409.873 0.416999 -1.6078 0
M  V30 4590 O 411.058 0.320482 -1.88089 0
M  V30 4591 C 408.198 0.119959 -3.44891 0
M  V30 4592 C 407.311 -0.893077 -4.22668 0
M  V30 4593 C 406.446 -0.192424 -5.30851 0
M  V30 4594 C 405.485 -1.19344 -6.00353 0
M  V30 4595 N 404.622 -0.520707 -7.00166 0
M  V30 4596 H 409.462 -1.4293 -2.61486 0
M  V30 4597 H 406.999 -0.715838 -1.28507 0
M  V30 4598 H 408.957 0.527459 -4.13852 0
M  V30 4599 H 407.587 0.959389 -3.08214 0
M  V30 4600 H 406.639 -1.41886 -3.52948 0
M  V30 4601 H 407.951 -1.65512 -4.70539 0
M  V30 4602 H 407.105 0.271515 -6.06092 0
M  V30 4603 H 405.844 0.602075 -4.83969 0
M  V30 4604 H 404.849 -1.66795 -5.23889 0
M  V30 4605 H 406.074 -1.98891 -6.49322 0
M  V30 4606 H 404.02 0.254252 -6.55507 0
M  V30 4607 H 403.937 -1.2211 -7.46073 0
M  V30 4608 H 405.205 -0.0797596 -7.79459 0
M  V30 4609 N 409.434 1.37368 -0.772513 0
M  V30 4610 C 410.384 2.27613 -0.132823 0
M  V30 4611 C 411.368 1.46138 0.673247 0
M  V30 4612 O 412.56 1.68686 0.536095 0
M  V30 4613 C 409.689 3.35122 0.744864 0
M  V30 4614 C 408.775 4.24044 -0.0690771 0
M  V30 4615 N 409.166 4.93355 -1.1151 0
M  V30 4616 C 407.464 4.45731 0.154782 0
M  V30 4617 C 408.165 5.59 -1.60917 0
M  V30 4618 N 407.141 5.35737 -0.921222 0
M  V30 4619 H 410.943 2.78675 -0.933681 0
M  V30 4620 H 408.457 1.50494 -0.610342 0
M  V30 4621 H 410.454 3.98683 1.21892 0
M  V30 4622 H 409.114 2.85616 1.54446 0
M  V30 4623 H 410.125 4.95785 -1.49726 0
M  V30 4624 H 406.802 4.07096 0.926224 0
M  V30 4625 H 408.192 6.24395 -2.48153 0
M  V30 4626 N 410.912 0.523116 1.48665 0
M  V30 4627 C 412.142 -0.00961724 2.06598 0
M  V30 4628 C 412.55 -1.29333 1.38093 0
M  V30 4629 O 411.893 -1.77846 0.46007 0
M  V30 4630 C 411.955 -0.311135 3.58151 0
M  V30 4631 C 411.619 0.878092 4.48485 0
M  V30 4632 C 412.616 1.77464 4.88674 0
M  V30 4633 C 410.301 1.08315 4.90483 0
M  V30 4634 C 412.295 2.86021 5.69623 0
M  V30 4635 C 409.982 2.17187 5.71203 0
M  V30 4636 C 410.98 3.05873 6.10681 0
M  V30 4637 O 410.668 4.12862 6.89783 0
M  V30 4638 H 410.4 0.0272658 0.67545 0
M  V30 4639 H 412.954 0.726156 1.92136 0
M  V30 4640 H 411.184 -1.10079 3.70701 0
M  V30 4641 H 412.873 -0.785125 3.98234 0
M  V30 4642 H 413.639 1.62813 4.56855 0
M  V30 4643 H 409.518 0.402149 4.59243 0
M  V30 4644 H 413.062 3.55272 6.00356 0
M  V30 4645 H 408.959 2.31824 6.02435 0
M  V30 4646 H 409.727 4.10487 7.08126 0
M  V30 4647 N 412.39 -1.55475 0.257931 0
M  V30 4648 C 413.3 -2.2549 -0.647425 0
M  V30 4649 C 414.316 -1.2748 -1.18427 0
M  V30 4650 O 415.492 -1.6038 -1.2182 0
M  V30 4651 C 412.557 -2.94916 -1.82278 0
M  V30 4652 C 411.618 -4.08363 -1.32432 0
M  V30 4653 C 410.851 -4.74469 -2.44366 0
M  V30 4654 O 411.074 -4.39701 -3.63344 0
M  V30 4655 O 410.008 -5.62763 -2.13497 0
M  V30 4656 H 413.834 -3.03593 -0.0807707 0
M  V30 4657 H 411.419 -1.49377 0.0259962 0
M  V30 4658 H 413.301 -3.38606 -2.50846 0
M  V30 4659 H 411.976 -2.19744 -2.37685 0
M  V30 4660 H 410.883 -3.69166 -0.605605 0
M  V30 4661 H 412.216 -4.85385 -0.816211 0
M  V30 4662 N 413.868 0.0150385 -1.57593 0
M  V30 4663 C 414.8 1.03912 -2.04291 0
M  V30 4664 C 415.813 1.31618 -0.958146 0
M  V30 4665 O 417.002 1.28859 -1.23522 0
M  V30 4666 C 414.102 2.37749 -2.41514 0
M  V30 4667 C 413.275 2.29198 -3.72541 0
M  V30 4668 C 412.334 3.45598 -3.96797 0
M  V30 4669 O 411.36 3.24461 -4.67668 0
M  V30 4670 N 412.562 4.67945 -3.43523 0
M  V30 4671 H 415.327 0.64099 -2.92765 0
M  V30 4672 H 412.888 0.20272 -1.60626 0
M  V30 4673 H 414.88 3.14364 -2.54867 0
M  V30 4674 H 413.45 2.69357 -1.58637 0
M  V30 4675 H 412.67 1.3759 -3.69408 0
M  V30 4676 H 413.958 2.20642 -4.5847 0
M  V30 4677 H 413.356 4.88017 -2.86104 0
M  V30 4678 H 411.913 5.41878 -3.62232 0
M  V30 4679 N 415.346 1.54954 0.287554 0
M  V30 4680 C 416.278 1.83224 1.37701 0
M  V30 4681 C 417.291 0.715898 1.46215 0
M  V30 4682 O 418.48 0.993565 1.48292 0
M  V30 4683 C 415.58 1.96723 2.75959 0
M  V30 4684 C 414.753 3.27253 2.90215 0
M  V30 4685 C 413.812 3.30998 4.09056 0
M  V30 4686 O 412.838 4.04457 4.00503 0
M  V30 4687 N 414.04 2.57353 5.20336 0
M  V30 4688 H 416.805 2.77254 1.138 0
M  V30 4689 H 414.366 1.54694 0.477652 0
M  V30 4690 H 416.358 1.96615 3.5373 0
M  V30 4691 H 414.928 1.09626 2.92747 0
M  V30 4692 H 414.148 3.40022 1.99447 0
M  V30 4693 H 415.436 4.13365 2.96659 0
M  V30 4694 H 414.834 1.97327 5.30169 0
M  V30 4695 H 413.391 2.62984 5.96391 0
M  V30 4696 N 416.824 -0.551391 1.4764 0
M  V30 4697 C 417.757 -1.6738 1.5511 0
M  V30 4698 C 418.735 -1.5753 0.402856 0
M  V30 4699 O 419.919 -1.78307 0.611475 0
M  V30 4700 C 417.046 -3.05661 1.45908 0
M  V30 4701 C 416.092 -3.33938 2.65307 0
M  V30 4702 S 416.925 -3.22553 4.27457 0
M  V30 4703 C 418.081 -4.63317 4.20818 0
M  V30 4704 H 418.314 -1.6079 2.50068 0
M  V30 4705 H 415.847 -0.732674 1.35909 0
M  V30 4706 H 417.805 -3.8542 1.41286 0
M  V30 4707 H 416.466 -3.09711 0.523248 0
M  V30 4708 H 415.659 -4.34761 2.54948 0
M  V30 4709 H 415.261 -2.61809 2.67081 0
M  V30 4710 H 417.553 -5.54391 3.89431 0
M  V30 4711 H 418.496 -4.78732 5.21748 0
M  V30 4712 H 418.904 -4.41636 3.51593 0
M  V30 4713 N 418.302 -1.35869 -0.798587 0
M  V30 4714 C 419.249 -1.29446 -1.91082 0
M  V30 4715 C 420.219 -0.16487 -1.6528 0
M  V30 4716 O 421.404 -0.349888 -1.87564 0
M  V30 4717 C 418.544 -1.0804 -3.27752 0
M  V30 4718 C 417.657 -2.29993 -3.65687 0
M  V30 4719 C 416.792 -2.01673 -4.91428 0
M  V30 4720 C 415.831 -3.19636 -5.22015 0
M  V30 4721 N 414.968 -2.91039 -6.38937 0
M  V30 4722 H 419.808 -2.24553 -1.95907 0
M  V30 4723 H 417.345 -1.11615 -0.958148 0
M  V30 4724 H 419.303 -0.936586 -4.06551 0
M  V30 4725 H 417.933 -0.16592 -3.22373 0
M  V30 4726 H 416.985 -2.55211 -2.82085 0
M  V30 4727 H 418.297 -3.18052 -3.84245 0
M  V30 4728 H 417.451 -1.84168 -5.78072 0
M  V30 4729 H 416.19 -1.10911 -4.74921 0
M  V30 4730 H 415.195 -3.37709 -4.33858 0
M  V30 4731 H 416.42 -4.11211 -5.40447 0
M  V30 4732 H 414.366 -2.0288 -6.2384 0
M  V30 4733 H 414.283 -3.72635 -6.57784 0
M  V30 4734 H 415.551 -2.77093 -7.28587 0
M  V30 4735 N 419.78 1.02168 -1.19998 0
M  V30 4736 C 420.69 2.14069 -0.959774 0
M  V30 4737 C 421.706 1.73804 0.082655 0
M  V30 4738 O 422.882 2.01133 -0.103633 0
M  V30 4739 C 419.947 3.42936 -0.509459 0
M  V30 4740 C 419.008 3.97474 -1.62213 0
M  V30 4741 C 418.241 5.2019 -1.19321 0
M  V30 4742 O 418.464 5.70369 -0.0597726 0
M  V30 4743 O 417.398 5.67749 -1.99863 0
M  V30 4744 H 421.224 2.37199 -1.89658 0
M  V30 4745 H 418.809 1.12469 -0.983411 0
M  V30 4746 H 420.691 4.20551 -0.267322 0
M  V30 4747 H 419.366 3.21234 0.398821 0
M  V30 4748 H 418.273 3.21161 -1.9185 0
M  V30 4749 H 419.606 4.23555 -2.50723 0
M  V30 4750 N 421.258 1.00505 1.21394 0
M  V30 4751 C 422.483 0.706367 1.95001 0
M  V30 4752 C 422.908 -0.72463 1.73582 0
M  V30 4753 O 422.266 -1.49702 1.0227 0
M  V30 4754 C 422.314 1.03299 3.45487 0
M  V30 4755 O 421.418 0.138275 4.12168 0
M  V30 4756 H 420.759 0.263175 0.609619 0
M  V30 4757 H 423.289 1.34531 1.54151 0
M  V30 4758 H 423.299 0.979872 3.96059 0
M  V30 4759 H 421.974 2.07567 3.60401 0
M  V30 4760 H 420.551 0.247928 3.72075 0
M  V30 4761 N 422.737 -1.36956 0.779787 0
M  V30 4762 C 423.965 -2.03755 0.359398 0
M  V30 4763 C 424.38 -1.58807 -1.02106 0
M  V30 4764 O 423.737 -0.773024 -1.6532 0
M  V30 4765 C 423.788 -3.59251 0.402568 0
M  V30 4766 O 423.509 -4.02557 1.72858 0
M  V30 4767 C 425.01 -4.43291 -0.0284068 0
M  V30 4768 H 422.23 -0.654148 0.149437 0
M  V30 4769 H 424.774 -1.75128 1.05595 0
M  V30 4770 H 422.929 -3.86621 -0.245478 0
M  V30 4771 H 423.343 -4.97111 1.67275 0
M  V30 4772 H 424.817 -5.51975 0.0529466 0
M  V30 4773 H 425.294 -4.25719 -1.07982 0
M  V30 4774 H 425.9 -4.21163 0.591758 0
M  V30 4775 N 424.215 -0.530993 -1.48385 0
M  V30 4776 C 425.145 0.219985 -2.32461 0
M  V30 4777 C 426.126 0.934111 -1.42156 0
M  V30 4778 O 427.311 0.919694 -1.71042 0
M  V30 4779 C 424.441 1.26674 -3.23375 0
M  V30 4780 C 423.395 0.67069 -4.22712 0
M  V30 4781 C 422.721 1.82017 -5.02766 0
M  V30 4782 C 424.021 -0.358268 -5.2107 0
M  V30 4783 H 425.715 -0.48187 -2.95497 0
M  V30 4784 H 423.261 -0.233182 -1.42099 0
M  V30 4785 H 425.214 1.80006 -3.81019 0
M  V30 4786 H 423.938 1.99818 -2.58341 0
M  V30 4787 H 422.597 0.158878 -3.66256 0
M  V30 4788 H 422.245 2.54002 -4.34157 0
M  V30 4789 H 421.945 1.42727 -5.70003 0
M  V30 4790 H 423.469 2.35725 -5.63264 0
M  V30 4791 H 424.883 0.0880081 -5.73232 0
M  V30 4792 H 423.28 -0.66861 -5.96364 0
M  V30 4793 H 424.35 -1.26367 -4.68145 0
M  V30 4794 N 425.693 1.55336 -0.266172 0
M  V30 4795 C 426.64 2.22172 0.625165 0
M  V30 4796 C 427.61 1.19211 1.15663 0
M  V30 4797 O 428.795 1.47723 1.20758 0
M  V30 4798 C 425.935 2.93972 1.8076 0
M  V30 4799 C 425.048 4.11632 1.31084 0
M  V30 4800 C 424.183 4.71099 2.45436 0
M  V30 4801 C 423.222 5.8097 1.92718 0
M  V30 4802 N 422.359 6.34538 3.00509 0
M  V30 4803 H 427.199 2.9796 0.0485582 0
M  V30 4804 H 424.736 1.47095 0.0122024 0
M  V30 4805 H 426.694 3.33811 2.50251 0
M  V30 4806 H 425.324 2.20623 2.35638 0
M  V30 4807 H 424.376 3.76975 0.509326 0
M  V30 4808 H 425.688 4.90893 0.884633 0
M  V30 4809 H 424.842 5.13612 3.22936 0
M  V30 4810 H 423.581 3.91096 2.91368 0
M  V30 4811 H 422.586 5.37916 1.13695 0
M  V30 4812 H 423.811 6.62836 1.47733 0
M  V30 4813 H 421.757 5.57433 3.45839 0
M  V30 4814 H 421.674 7.09046 2.62279 0
M  V30 4815 H 422.942 6.81709 3.78011 0
M  V30 4816 N 427.171 -0.0066808 1.57599 0
M  V30 4817 C 428.418 -0.69292 1.90276 0
M  V30 4818 C 428.746 -1.74148 0.866192 0
M  V30 4819 O 428.001 -1.95268 -0.129933 0
M  V30 4820 C 428.3 -1.37939 3.29708 0
M  V30 4821 C 427.966 -0.464679 4.48499 0
M  V30 4822 C 426.628 -0.212809 4.80729 0
M  V30 4823 C 428.98 0.16551 5.20937 0
M  V30 4824 C 426.308 0.677653 5.82773 0
M  V30 4825 C 428.66 1.04381 6.23929 0
M  V30 4826 C 427.324 1.30492 6.54621 0
M  V30 4827 H 426.594 -0.253558 0.696268 0
M  V30 4828 H 429.241 0.0474123 1.91441 0
M  V30 4829 H 427.546 -2.1936 3.24636 0
M  V30 4830 H 429.243 -1.9163 3.52249 0
M  V30 4831 H 425.833 -0.671153 4.23313 0
M  V30 4832 H 430.017 -0.0160756 4.96297 0
M  V30 4833 H 425.273 0.88803 6.04917 0
M  V30 4834 H 429.447 1.53851 6.79193 0
M  V30 4835 H 427.074 1.99662 7.33512 0
M  V30 4836 N 428.649 -1.55105 -0.279332 0
M  V30 4837 C 430.065 -1.46803 -0.626187 0
M  V30 4838 C 430.265 -0.676939 -1.89789 0
M  V30 4839 O 429.321 -0.19326 -2.51759 0
M  V30 4840 C 430.634 -2.90962 -0.759034 0
M  V30 4841 C 432.182 -3.01138 -0.853504 0
M  V30 4842 C 432.657 -4.46539 -1.01818 0
M  V30 4843 N 434.148 -4.50341 -1.08386 0
M  V30 4844 C 434.883 -5.60053 -1.22996 0
M  V30 4845 N 434.379 -6.79645 -1.34366 0
M  V30 4846 N 436.172 -5.47783 -1.26056 0
M  V30 4847 H 428.323 -2.04996 0.555921 0
M  V30 4848 H 430.586 -0.929325 0.187239 0
M  V30 4849 H 430.292 -3.51544 0.104852 0
M  V30 4850 H 430.166 -3.39619 -1.64131 0
M  V30 4851 H 432.553 -2.40658 -1.70786 0
M  V30 4852 H 432.634 -2.55745 0.0532466 0
M  V30 4853 H 432.278 -5.0762 -0.168504 0
M  V30 4854 H 432.208 -4.89583 -1.93948 0
M  V30 4855 H 434.699 -3.64191 -1.00864 0
M  V30 4856 H 435.012 -7.59012 -1.4533 0
M  V30 4857 H 433.357 -6.82469 -1.31382 0
M  V30 4858 H 436.548 -4.53294 -1.168 0
M  V30 4859 H 436.721 -6.33331 -1.37098 0
M  V30 4860 N 430.127 0.543554 -1.4793 0
M  V30 4861 C 431.355 1.32516 -1.58894 0
M  V30 4862 C 431.77 1.87215 -0.244131 0
M  V30 4863 O 431.127 1.65709 0.764652 0
M  V30 4864 C 431.178 2.48554 -2.62494 0
M  V30 4865 O 430.899 1.96112 -3.91755 0
M  V30 4866 C 432.4 3.40572 -2.8377 0
M  V30 4867 H 429.62 0.403472 -0.536145 0
M  V30 4868 H 432.164 0.657106 -1.93655 0
M  V30 4869 H 430.319 3.1127 -2.30629 0
M  V30 4870 H 430.733 2.71967 -4.4848 0
M  V30 4871 H 432.207 4.18375 -3.60093 0
M  V30 4872 H 432.684 3.94965 -1.92092 0
M  V30 4873 H 433.29 2.8366 -3.16887 0
M  V30 4874 N 431.605 1.3629 0.791371 0
M  V30 4875 C 432.515 1.32606 1.93527 0
M  V30 4876 C 433.531 0.228541 1.72493 0
M  V30 4877 O 434.707 0.460571 1.96063 0
M  V30 4878 C 431.772 1.11271 3.28359 0
M  V30 4879 C 430.833 2.3048 3.62185 0
M  V30 4880 C 430.066 2.10154 4.90583 0
M  V30 4881 O 430.289 1.07572 5.60165 0
M  V30 4882 O 429.223 2.97884 5.23019 0
M  V30 4883 H 433.049 2.28909 1.99585 0
M  V30 4884 H 430.634 1.16818 0.931344 0
M  V30 4885 H 432.516 1.01283 4.09047 0
M  V30 4886 H 431.191 0.180292 3.23198 0
M  V30 4887 H 430.098 2.46036 2.81811 0
M  V30 4888 H 431.431 3.22221 3.72068 0
M  V30 4889 N 433.083 -1.0153 1.20538 0
M  V30 4890 C 434.332 -1.74558 1.01057 0
M  V30 4891 C 434.645 -1.90168 -0.457756 0
M  V30 4892 O 435.851 -2.60301 -0.771722 0
M  V30 4893 C 434.307 -3.13963 1.75941 0
M  V30 4894 C 433.915 -3.06361 3.26875 0
M  V30 4895 C 435.659 -3.91191 1.64832 0
M  V30 4896 C 433.566 -4.40782 3.94291 0
M  V30 4897 H 432.496 -0.654417 0.374505 0
M  V30 4898 H 435.147 -1.13521 1.44171 0
M  V30 4899 H 433.529 -3.75549 1.25614 0
M  V30 4900 H 434.703 -2.54074 3.84425 0
M  V30 4901 H 433.018 -2.42625 3.38411 0
M  V30 4902 H 435.615 -4.90644 2.12539 0
M  V30 4903 H 435.958 -4.11884 0.604745 0
M  V30 4904 H 436.491 -3.36236 2.12579 0
M  V30 4905 H 433.23 -4.25292 4.98805 0
M  V30 4906 H 432.75 -4.9307 3.41529 0
M  V30 4907 H 434.429 -5.09621 3.98617 0
M  V30 4908 O 434.6 -1.13875 -1.14519 0
M  V30 4909 H 435.291 -0.85746 -1.73687 0
M  V30 END ATOM
M  V30 BEGIN BOND
M  V30 END BOND
M  V30 END CTAB
M  END
$$$$
