drugbank_target|L0LZJ6 30S ribosomal protein S11 (DB12615)
 OpenBabel12092121193D

  0  0  0     0  0            999 V3000
M  V30 BEGIN CTAB
M  V30 COUNTS 1982 1999 0 0 0
M  V30 BEGIN ATOM
M  V30 1 H -0.908 1.98254 -0.117106 0
M  V30 2 N 0 1.576 0 0
M  V30 3 C 0.933 2.03868 1.02534 0
M  V30 4 C 1.911 0.928543 1.3348 0
M  V30 5 O 3.095 1.19667 1.45644 0
M  V30 6 C 0.222 2.43627 2.35294 0
M  V30 7 C -0.732 3.65373 2.2001 0
M  V30 8 S 0.101 5.13292 1.52614 0
M  V30 9 C 1.257 5.56322 2.86805 0
M  V30 10 H 1.49 2.90518 0.631377 0
M  V30 11 H -0.977 1.52953 0.210867 0
M  V30 12 H 0.981 2.67203 3.11629 0
M  V30 13 H -0.358 1.57376 2.7183 0
M  V30 14 H -1.165 3.90944 3.18086 0
M  V30 15 H -1.563 3.418 1.51819 0
M  V30 16 H 0.729 5.58782 3.83104 0
M  V30 17 H 1.672 6.56266 2.65933 0
M  V30 18 H 2.08 4.83886 2.90714 0
M  V30 19 N 1.4781 -0.272755 1.55222 0
M  V30 20 C 2.4411 -1.32041 1.87344 0
M  V30 21 C 3.4411 -1.42342 0.74803 0
M  V30 22 O 4.6311 -1.41488 1.0162 0
M  V30 23 C 1.7631 -2.70173 2.07893 0
M  V30 24 H 2.9561 -1.04789 2.80997 0
M  V30 25 H 0.5091 -0.51083 1.47717 0
M  V30 26 H 1.2441 -3.02605 1.16622 0
M  V30 27 H 1.0291 -2.64082 2.89833 0
M  V30 28 H 2.5191 -3.45869 2.34017 0
M  V30 29 N 2.9562 -1.48159 -0.537278 0
M  V30 30 C 3.9032 -1.62138 -1.64256 0
M  V30 31 C 4.8732 -0.463668 -1.59497 0
M  V30 32 O 6.0582 -0.686241 -1.78032 0
M  V30 33 C 3.1982 -1.66028 -3.02537 0
M  V30 34 C 2.3112 -2.92855 -3.17585 0
M  V30 35 C 1.4462 -2.87952 -4.46382 0
M  V30 36 C 0.4852 -4.09516 -4.54932 0
M  V30 37 N -0.3778 -4.02733 -5.75109 0
M  V30 38 H 4.4622 -2.56529 -1.51647 0
M  V30 39 H 1.9992 -1.27224 -0.738414 0
M  V30 40 H 3.9572 -1.66265 -3.82638 0
M  V30 41 H 2.5872 -0.751331 -3.13934 0
M  V30 42 H 1.6392 -3.02395 -2.30784 0
M  V30 43 H 2.9512 -3.82822 -3.19764 0
M  V30 44 H 2.1052 -2.8655 -5.34765 0
M  V30 45 H 0.8442 -1.95702 -4.46712 0
M  V30 46 H -0.1508 -4.11201 -3.64957 0
M  V30 47 H 1.0742 -5.02917 -4.56346 0
M  V30 48 H -0.9798 -3.13299 -5.76351 0
M  V30 49 H -1.0628 -4.86397 -5.78752 0
M  V30 50 H 0.2052 -4.05379 -6.65799 0
M  V30 51 N 4.4343 0.785586 -1.36625 0
M  V30 52 C 5.3973 1.87999 -1.31107 0
M  V30 53 C 6.3973 1.59316 -0.217959 0
M  V30 54 O 7.5873 1.67656 -0.472977 0
M  V30 55 C 4.7193 3.24861 -1.03334 0
M  V30 56 H 5.9123 1.94307 -2.2844 0
M  V30 57 H 3.4653 0.983813 -1.21453 0
M  V30 58 H 4.2003 3.24235 -0.0647432 0
M  V30 59 H 3.9853 3.4707 -1.82441 0
M  V30 60 H 5.4753 4.04929 -1.02088 0
M  V30 61 N 5.9124 1.20967 1.01018 0
M  V30 62 C 7.3234 1.02319 1.56165 0
M  V30 63 C 7.6744 -0.418546 1.91684 0
M  V30 64 O 6.7994 -1.30096 1.72928 0
M  V30 65 C 7.3944 1.85109 2.8376 0
M  V30 66 C 5.9534 1.70809 3.35412 0
M  V30 67 C 5.1004 1.82643 2.08655 0
M  V30 68 H 8.0514 1.35065 0.833255 0
M  V30 69 H 8.0724 1.35827 3.55431 0
M  V30 70 H 7.5844 2.90035 2.57878 0
M  V30 71 H 5.6854 0.685464 3.66241 0
M  V30 72 H 5.7984 2.52467 4.07182 0
M  V30 73 H 4.1624 1.25896 2.21409 0
M  V30 74 H 4.9454 2.89066 1.85191 0
M  V30 75 N 7.3905 -1.2043 1.01659 0
M  V30 76 C 8.6395 -1.89118 0.701237 0
M  V30 77 C 8.9525 -1.79705 -0.772358 0
M  V30 78 O 10.1585 -2.43528 -1.20026 0
M  V30 79 C 8.6145 -3.39168 1.20388 0
M  V30 80 C 8.2225 -3.57166 2.70438 0
M  V30 81 C 9.9665 -4.1341 0.963953 0
M  V30 82 C 7.8735 -5.01042 3.14183 0
M  V30 83 H 6.8035 -0.708267 0.2586 0
M  V30 84 H 9.4545 -1.36239 1.22927 0
M  V30 85 H 7.8365 -3.91369 0.603824 0
M  V30 86 H 9.0105 -3.15351 3.35992 0
M  V30 87 H 7.3255 -2.96294 2.92572 0
M  V30 88 H 9.9225 -5.19491 1.26621 0
M  V30 89 H 10.2655 -4.16181 -0.099578 0
M  V30 90 H 10.7985 -3.67309 1.52738 0
M  V30 91 H 7.5375 -5.03426 4.19812 0
M  V30 92 H 7.0575 -5.43668 2.53348 0
M  V30 93 H 8.7365 -5.69623 3.0682 0
M  V30 94 N 8.8686 -0.792821 -1.36206 0
M  V30 95 C 10.2846 -0.474903 -1.52371 0
M  V30 96 C 10.4846 1.00622 -1.74578 0
M  V30 97 O 9.5406 1.79162 -1.77924 0
M  V30 98 C 10.8536 -1.3083 -2.70747 0
M  V30 99 C 12.4016 -1.30234 -2.84619 0
M  V30 100 C 12.8766 -2.11956 -4.06004 0
M  V30 101 N 14.3676 -2.09419 -4.13156 0
M  V30 102 C 15.1026 -2.69419 -5.06163 0
M  V30 103 N 14.5986 -3.3829 -6.04592 0
M  V30 104 N 16.3916 -2.59134 -4.98804 0
M  V30 105 H 8.5426 -1.75222 -1.20046 0
M  V30 106 H 10.8056 -0.745024 -0.586211 0
M  V30 107 H 10.5116 -2.35881 -2.6087 0
M  V30 108 H 10.3856 -0.95196 -3.6499 0
M  V30 109 H 12.7726 -0.259748 -2.93955 0
M  V30 110 H 12.8536 -1.69847 -1.91274 0
M  V30 111 H 12.4976 -3.16248 -3.97429 0
M  V30 112 H 12.4276 -1.69711 -4.98503 0
M  V30 113 H 14.9186 -1.59297 -3.42685 0
M  V30 114 H 15.2316 -3.81394 -6.7213 0
M  V30 115 H 13.5766 -3.42393 -6.04807 0
M  V30 116 H 16.7676 -2.04927 -4.20859 0
M  V30 117 H 16.9406 -3.06185 -5.711 0
M  V30 118 N 10.3467 1.47872 -0.545128 0
M  V30 119 C 11.3097 2.28337 0.198717 0
M  V30 120 C 12.3097 1.36255 0.853888 0
M  V30 121 O 13.4997 1.59003 0.711606 0
M  V30 122 C 10.6317 3.15585 1.28915 0
M  V30 123 H 11.8247 2.95567 -0.507941 0
M  V30 124 H 9.3777 1.53362 -0.301616 0
M  V30 125 H 10.1127 2.53019 2.02859 0
M  V30 126 H 9.8977 3.83337 0.824309 0
M  V30 127 H 11.3877 3.76243 1.81194 0
M  V30 128 N 11.8248 0.280983 1.55075 0
M  V30 129 C 13.2408 -0.0729964 1.59433 0
M  V30 130 C 13.4408 -1.5411 1.29817 0
M  V30 131 O 12.4968 -2.29086 1.06187 0
M  V30 132 C 13.8098 0.306921 2.9913 0
M  V30 133 C 15.3578 0.254023 3.11968 0
M  V30 134 C 15.8328 0.608467 4.5394 0
M  V30 135 N 17.3238 0.560241 4.59799 0
M  V30 136 C 18.0588 0.80722 5.6769 0
M  V30 137 N 17.5548 1.11912 6.83701 0
M  V30 138 N 19.3478 0.735623 5.57266 0
M  V30 139 H 11.4988 1.238 1.7259 0
M  V30 140 H 13.7618 0.500547 0.805082 0
M  V30 141 H 13.4678 1.32816 3.25657 0
M  V30 142 H 13.3418 -0.349363 3.75579 0
M  V30 143 H 15.7288 -0.75794 2.852 0
M  V30 144 H 15.8098 0.944649 2.37718 0
M  V30 145 H 15.4538 1.61814 4.81434 0
M  V30 146 H 15.3838 -0.104013 5.26497 0
M  V30 147 H 17.8748 0.329288 3.76463 0
M  V30 148 H 18.1878 1.29409 7.61888 0
M  V30 149 H 16.5328 1.15695 6.85303 0
M  V30 150 H 19.7238 0.491752 4.6551 0
M  V30 151 H 19.8968 0.931482 6.4127 0
M  V30 152 N 13.3029 -1.57598 0.00835791 0
M  V30 153 C 14.2499 -2.08945 -0.980346 0
M  V30 154 C 15.2199 -0.986738 -1.33614 0
M  V30 155 O 16.4049 -1.25968 -1.43306 0
M  V30 156 C 13.5449 -2.60425 -2.26435 0
M  V30 157 C 12.6579 -3.84628 -1.96685 0
M  V30 158 C 11.7929 -4.24579 -3.19228 0
M  V30 159 C 10.8319 -5.41596 -2.85202 0
M  V30 160 N 9.9689 -5.768 -4.00307 0
M  V30 161 H 14.8089 -2.93148 -0.535551 0
M  V30 162 H 12.3459 -1.44912 -0.252776 0
M  V30 163 H 14.3039 -2.88354 -3.01509 0
M  V30 164 H 12.9339 -1.79083 -2.68568 0
M  V30 165 H 11.9859 -3.63556 -1.11942 0
M  V30 166 H 13.2979 -4.69796 -1.67611 0
M  V30 167 H 12.4519 -4.53834 -4.02641 0
M  V30 168 H 11.1909 -3.38137 -3.51447 0
M  V30 169 H 10.1959 -5.12056 -2.00198 0
M  V30 170 H 11.4209 -6.29721 -2.54222 0
M  V30 171 H 9.3669 -4.93316 -4.32407 0
M  V30 172 H 9.2839 -6.5656 -3.74786 0
M  V30 173 H 10.5519 -6.10652 -4.84484 0
M  V30 174 N 14.781 0.264519 -1.55364 0
M  V30 175 C 16.197 0.61215 -1.47394 0
M  V30 176 C 16.397 1.89134 -0.695018 0
M  V30 177 O 15.453 2.51563 -0.217275 0
M  V30 178 C 16.766 0.731235 -2.91674 0
M  V30 179 C 18.314 0.82473 -3.01939 0
M  V30 180 C 18.789 0.975522 -4.4749 0
M  V30 181 N 20.28 1.04083 -4.51354 0
M  V30 182 C 21.015 1.17646 -5.61201 0
M  V30 183 N 20.511 1.27874 -6.80896 0
M  V30 184 N 22.304 1.20823 -5.48961 0
M  V30 185 H 14.455 -0.575456 -2.04456 0
M  V30 186 H 16.718 -0.196099 -0.927496 0
M  V30 187 H 16.424 -0.138392 -3.51428 0
M  V30 188 H 16.298 1.60883 -3.41169 0
M  V30 189 H 18.685 1.68482 -2.42276 0
M  V30 190 H 18.766 -0.0776479 -2.55682 0
M  V30 191 H 18.41 0.120058 -5.07758 0
M  V30 192 H 18.34 1.89268 -4.91412 0
M  V30 193 H 20.831 0.973846 -3.65136 0
M  V30 194 H 21.144 1.38081 -7.60364 0
M  V30 195 H 19.489 1.24863 -6.83692 0
M  V30 196 H 22.68 1.12469 -4.54388 0
M  V30 197 H 22.853 1.31049 -6.3461 0
M  V30 198 N 16.2591 1.48442 0.529413 0
M  V30 199 C 17.5051 1.5672 1.28711 0
M  V30 200 C 17.8381 0.2406 1.92704 0
M  V30 201 O 17.1131 -0.753454 1.79313 0
M  V30 202 C 17.3961 2.70587 2.37603 0
M  V30 203 C 17.2491 4.12953 1.78297 0
M  V30 204 C 18.5681 2.80212 3.39366 0
M  V30 205 H 15.6871 0.570474 0.466613 0
M  V30 206 H 18.3291 1.80617 0.589706 0
M  V30 207 H 16.4791 2.50342 2.97088 0
M  V30 208 H 18.1511 4.44639 1.22858 0
M  V30 209 H 16.3941 4.19927 1.0883 0
M  V30 210 H 17.0651 4.88448 2.57144 0
M  V30 211 H 19.5411 2.98553 2.89836 0
M  V30 212 H 18.4171 3.61611 4.12951 0
M  V30 213 H 18.6781 1.88393 3.99951 0
M  V30 214 N 17.7372 -0.778329 1.37039 0
M  V30 215 C 19.1532 -1.07796 1.17695 0
M  V30 216 C 19.3532 -2.01498 0.00860115 0
M  V30 217 O 18.4092 -2.43901 -0.653352 0
M  V30 218 C 19.7222 -1.68178 2.49272 0
M  V30 219 C 21.2702 -1.80467 2.55735 0
M  V30 220 C 21.7452 -2.44263 3.87427 0
M  V30 221 N 23.2362 -2.51721 3.88833 0
M  V30 222 C 23.9712 -3.01919 4.87476 0
M  V30 223 N 23.4672 -3.5234 5.96513 0
M  V30 224 N 25.2602 -3.00733 4.74885 0
M  V30 225 H 17.4112 -0.156032 2.11826 0
M  V30 226 H 19.6742 -0.131844 0.938787 0
M  V30 227 H 19.3802 -1.06796 3.35093 0
M  V30 228 H 19.2542 -2.67554 2.65885 0
M  V30 229 H 21.6412 -2.40984 1.70325 0
M  V30 230 H 21.7222 -0.798656 2.43013 0
M  V30 231 H 21.3662 -1.84388 4.73248 0
M  V30 232 H 21.2962 -3.45458 3.9745 0
M  V30 233 H 23.7872 -2.1603 3.10063 0
M  V30 234 H 24.1002 -3.89027 6.67741 0
M  V30 235 H 22.4452 -3.50462 6.00168 0
M  V30 236 H 25.6362 -2.60638 3.88826 0
M  V30 237 H 25.8092 -3.39545 5.51918 0
M  V30 238 N 19.2153 -1.21501 -1.00376 0
M  V30 239 C 20.1623 -0.975387 -2.09177 0
M  V30 240 C 21.1323 0.0990615 -1.65804 0
M  V30 241 O 22.3173 -0.0483147 -1.90739 0
M  V30 242 C 19.4573 -0.547507 -3.40729 0
M  V30 243 C 18.5703 -1.69153 -3.97506 0
M  V30 244 C 17.7053 -1.2127 -5.17172 0
M  V30 245 C 16.7443 -2.32897 -5.66061 0
M  V30 246 N 15.8813 -1.86138 -6.76976 0
M  V30 247 H 20.7213 -1.9068 -2.29009 0
M  V30 248 H 18.2583 -0.950257 -1.12288 0
M  V30 249 H 20.2163 -0.280667 -4.16255 0
M  V30 250 H 18.8463 0.346904 -3.20931 0
M  V30 251 H 17.8983 -2.07298 -3.18954 0
M  V30 252 H 19.2103 -2.5316 -4.29781 0
M  V30 253 H 18.3643 -0.902591 -5.99948 0
M  V30 254 H 17.1033 -0.342692 -4.86495 0
M  V30 255 H 16.1083 -2.64709 -4.81881 0
M  V30 256 H 17.3333 -3.20396 -5.98768 0
M  V30 257 H 15.2793 -1.01484 -6.48103 0
M  V30 258 H 15.1963 -2.63717 -7.08512 0
M  V30 259 H 16.4643 -1.58165 -7.63285 0
M  V30 260 N 20.6934 1.19889 -1.02296 0
M  V30 261 C 21.6254 2.22334 -0.556787 0
M  V30 262 C 22.6384 1.58674 0.364199 0
M  V30 263 O 23.8274 1.77768 0.161533 0
M  V30 264 C 20.9274 3.38257 0.208694 0
M  V30 265 C 20.1004 4.31504 -0.71577 0
M  V30 266 C 19.1594 5.262 0.00325597 0
M  V30 267 O 18.1854 5.65798 -0.621357 0
M  V30 268 N 19.3874 5.66303 1.27599 0
M  V30 269 H 22.1524 2.62957 -1.43784 0
M  V30 270 H 19.7134 1.34495 -0.901261 0
M  V30 271 H 21.7054 3.98616 0.699111 0
M  V30 272 H 20.2754 2.96472 0.991102 0
M  V30 273 H 19.4954 3.69016 -1.38638 0
M  V30 274 H 20.7834 4.9072 -1.34428 0
M  V30 275 H 20.1814 5.36155 1.80429 0
M  V30 276 H 18.7384 6.28942 1.71102 0
M  V30 277 N 22.1715 0.800033 1.35784 0
M  V30 278 C 23.4175 0.377901 1.99248 0
M  V30 279 C 23.7505 -1.05052 1.63333 0
M  V30 280 O 23.0255 -1.72768 0.893385 0
M  V30 281 C 23.3085 0.553922 3.55814 0
M  V30 282 C 23.1615 2.0268 4.01548 0
M  V30 283 C 24.4805 -0.0244802 4.40093 0
M  V30 284 H 21.5995 0.138782 0.723815 0
M  V30 285 H 24.2415 1.00835 1.61035 0
M  V30 286 H 22.3915 0.0172398 3.88496 0
M  V30 287 H 24.0635 2.62536 3.79305 0
M  V30 288 H 22.3065 2.5256 3.52698 0
M  V30 289 H 22.9775 2.10087 5.10458 0
M  V30 290 H 25.4535 0.433775 4.13833 0
M  V30 291 H 24.3295 0.128637 5.48749 0
M  V30 292 H 24.5905 -1.11758 4.27741 0
M  V30 293 N 23.6496 -1.47581 0.552962 0
M  V30 294 C 24.8746 -2.07378 0.0300593 0
M  V30 295 C 25.2996 -1.40355 -1.25229 0
M  V30 296 O 24.6576 -0.477099 -1.7491 0
M  V30 297 C 24.7056 -3.60274 -0.153231 0
M  V30 298 O 23.8096 -3.94041 -1.21678 0
M  V30 299 H 23.1506 -0.662158 0.0494182 0
M  V30 300 H 25.6806 -1.89662 0.767434 0
M  V30 301 H 25.6906 -4.0633 -0.368761 0
M  V30 302 H 24.3656 -4.08455 0.783397 0
M  V30 303 H 22.9426 -3.59735 -0.982079 0
M  V30 304 N 25.1277 -0.289203 -1.54924 0
M  V30 305 C 26.4047 0.376032 -1.91951 0
M  V30 306 C 26.7847 1.72622 -1.21511 0
M  V30 307 O 26.1327 2.25853 -0.346767 0
M  V30 308 C 26.3427 0.502378 -3.45365 0
M  V30 309 C 27.6907 0.778741 -4.17398 0
M  V30 310 O 28.7147 0.586647 -3.51336 0
M  V30 311 O 27.5737 1.14698 -5.34328 0
M  V30 312 H 24.6677 0.208167 -0.800372 0
M  V30 313 H 27.2137 -0.336394 -1.66332 0
M  V30 314 H 25.9857 -0.447255 -3.88736 0
M  V30 315 H 25.6087 1.26373 -3.76982 0
M  V30 316 N 26.6058 1.57591 -0.0167156 0
M  V30 317 C 27.8538 1.90906 0.663285 0
M  V30 318 C 28.1748 0.892509 1.73376 0
M  V30 319 O 27.4448 -0.0677623 1.95783 0
M  V30 320 H 26.0248 0.704637 0.247983 0
M  V30 321 H 28.6868 1.94803 -0.0615909 0
M  V30 322 H 27.7828 2.9116 1.12393 0
M  V30 323 N 28.0839 -0.256276 1.55502 0
M  V30 324 C 29.3299 -0.987079 1.77157 0
M  V30 325 C 29.6629 -1.85327 0.580315 0
M  V30 326 O 28.9379 -1.89874 -0.421686 0
M  V30 327 C 29.2209 -1.85553 3.08613 0
M  V30 328 C 29.0739 -1.01816 4.38125 0
M  V30 329 C 30.3929 -2.8397 3.36228 0
M  V30 330 H 27.5119 -0.357428 0.644526 0
M  V30 331 H 30.1539 -0.258239 1.88237 0
M  V30 332 H 28.3039 -2.47695 2.99298 0
M  V30 333 H 29.9759 -0.416159 4.59419 0
M  V30 334 H 28.2189 -0.322178 4.32602 0
M  V30 335 H 28.8899 -1.65939 5.26468 0
M  V30 336 H 31.3659 -2.31964 3.45445 0
M  V30 337 H 30.2419 -3.41864 4.29442 0
M  V30 338 H 30.5029 -3.59955 2.56681 0
M  V30 339 N 29.562 -1.4872 -0.521534 0
M  V30 340 C 30.525 -1.63379 -1.60748 0
M  V30 341 C 31.525 -0.50661 -1.52611 0
M  V30 342 O 32.715 -0.772601 -1.5613 0
M  V30 343 C 29.847 -1.61192 -3.00383 0
M  V30 344 H 31.04 -2.60217 -1.49087 0
M  V30 345 H 28.593 -1.37444 -0.744235 0
M  V30 346 H 29.328 -0.65863 -3.17541 0
M  V30 347 H 29.113 -2.43032 -3.07698 0
M  V30 348 H 30.603 -1.7466 -3.7932 0
M  V30 349 N 31.0401 0.771051 -1.3745 0
M  V30 350 C 31.9901 1.87456 -1.29785 0
M  V30 351 C 32.9741 1.59827 -0.185541 0
M  V30 352 O 34.1661 1.71945 -0.419997 0
M  V30 353 C 31.2951 3.24935 -1.1078 0
M  V30 354 C 30.3811 3.58514 -2.26558 0
M  V30 355 N 30.7721 3.6327 -3.5195 0
M  V30 356 C 29.0701 3.88683 -2.18727 0
M  V30 357 C 29.7711 3.93616 -4.283 0
M  V30 358 N 28.7471 4.09551 -3.57448 0
M  V30 359 H 32.5491 1.89386 -2.24745 0
M  V30 360 H 30.0631 0.967531 -1.30432 0
M  V30 361 H 32.0601 4.03881 -1.03374 0
M  V30 362 H 30.7201 3.24268 -0.16738 0
M  V30 363 H 31.7311 3.45458 -3.85848 0
M  V30 364 H 28.4081 3.95834 -1.32746 0
M  V30 365 H 29.7981 4.04066 -5.36824 0
M  V30 366 N 32.5182 1.22032 0.997298 0
M  V30 367 C 33.7672 1.03637 1.73038 0
M  V30 368 C 34.0802 -0.429475 1.90827 0
M  V30 369 O 35.2862 -0.732995 2.61418 0
M  V30 370 C 33.7422 1.80582 3.11317 0
M  V30 371 C 33.3502 3.31387 3.01474 0
M  V30 372 C 35.0942 1.70621 3.88701 0
M  V30 373 C 33.0012 4.00791 4.3488 0
M  V30 374 H 31.9312 0.384179 0.648785 0
M  V30 375 H 34.5822 1.4584 1.11368 0
M  V30 376 H 32.9642 1.31175 3.73643 0
M  V30 377 H 34.1382 3.88155 2.4834 0
M  V30 378 H 32.4532 3.41976 2.37575 0
M  V30 379 H 35.0502 2.19799 4.87434 0
M  V30 380 H 35.3932 0.665823 4.10941 0
M  V30 381 H 35.9262 2.17547 3.33044 0
M  V30 382 H 32.6652 5.05064 4.1784 0
M  V30 383 H 32.1852 3.48811 4.87945 0
M  V30 384 H 33.8642 4.06139 5.03647 0
M  V30 385 N 33.9963 -1.19345 1.0293 0
M  V30 386 C 34.9463 -2.20472 0.58104 0
M  V30 387 C 35.9303 -1.56578 -0.370442 0
M  V30 388 O 37.1223 -1.75963 -0.191344 0
M  V30 389 C 34.2513 -3.43236 -0.066306 0
M  V30 390 C 33.3373 -4.14274 0.907642 0
M  V30 391 N 33.7283 -4.61492 2.07023 0
M  V30 392 C 32.0263 -4.39966 0.731177 0
M  V30 393 C 32.7273 -5.1605 2.68454 0
M  V30 394 N 31.7033 -5.06875 1.96414 0
M  V30 395 H 35.5053 -2.54659 1.46717 0
M  V30 396 H 33.0193 -1.35423 0.896345 0
M  V30 397 H 35.0163 -4.14927 -0.405068 0
M  V30 398 H 33.6763 -3.10549 -0.948118 0
M  V30 399 H 34.6873 -4.56304 2.44963 0
M  V30 400 H 31.3643 -4.17377 -0.101507 0
M  V30 401 H 32.7543 -5.6287 3.66915 0
M  V30 402 N 35.4744 -0.807222 -1.35358 0
M  V30 403 C 36.4374 -0.223665 -2.28106 0
M  V30 404 C 37.4374 0.589354 -1.4961 0
M  V30 405 O 38.6274 0.407745 -1.69361 0
M  V30 406 C 35.7594 0.688149 -3.33882 0
M  V30 407 H 36.9524 -1.04169 -2.81227 0
M  V30 408 H 34.5054 -0.577921 -1.45223 0
M  V30 409 H 35.2404 1.52984 -2.85948 0
M  V30 410 H 35.0254 0.10687 -3.91954 0
M  V30 411 H 36.5154 1.09075 -4.03104 0
M  V30 412 N 36.9525 1.47285 -0.560781 0
M  V30 413 C 38.1775 2.07359 -0.0410566 0
M  V30 414 C 38.6025 1.41017 1.24483 0
M  V30 415 O 37.9605 0.486368 1.74654 0
M  V30 416 C 38.0085 3.6035 0.134123 0
M  V30 417 O 37.1125 3.94681 1.19587 0
M  V30 418 H 36.4535 0.661887 -0.0529291 0
M  V30 419 H 38.9835 1.89252 -0.777482 0
M  V30 420 H 38.9935 4.0652 0.347207 0
M  V30 421 H 37.6685 4.08034 -0.805047 0
M  V30 422 H 36.2455 3.60251 0.962987 0
M  V30 423 N 38.4306 0.297415 1.54768 0
M  V30 424 C 39.6776 -0.312913 2.00068 0
M  V30 425 C 40.0056 -1.54171 1.18582 0
M  V30 426 O 39.2606 -1.94108 0.249133 0
M  V30 427 C 39.5596 -0.717561 3.50123 0
M  V30 428 C 39.2256 0.409095 4.4904 0
M  V30 429 C 37.8876 0.718399 4.75807 0
M  V30 430 C 40.2396 1.16717 5.07963 0
M  V30 431 C 37.5676 1.78896 5.5876 0
M  V30 432 C 39.9196 2.22762 5.92081 0
M  V30 433 C 38.5836 2.54303 6.1716 0
M  V30 434 H 37.8536 -0.114503 0.7321 0
M  V30 435 H 40.5006 0.415767 1.86932 0
M  V30 436 H 38.8056 -1.52627 3.60849 0
M  V30 437 H 40.5026 -1.20091 3.82595 0
M  V30 438 H 37.0926 0.157918 4.28309 0
M  V30 439 H 41.2766 0.941466 4.87289 0
M  V30 440 H 36.5326 2.0381 5.7643 0
M  V30 441 H 40.7066 2.81962 6.36765 0
M  V30 442 H 38.3336 3.3739 6.81229 0
M  V30 443 N 39.9087 -1.5758 0.0250728 0
M  V30 444 C 40.8567 -2.11125 -0.97617 0
M  V30 445 C 41.8507 -1.03689 -1.33959 0
M  V30 446 O 43.0567 -1.22128 -1.3223 0
M  V30 447 H 39.4317 -0.674468 -0.332561 0
M  V30 448 H 41.4027 -2.94194 -0.499223 0
M  V30 449 C 40.1517 -2.65017 -2.2508 0
M  V30 450 H 39.4747 -3.47333 -1.9799 0
M  V30 451 H 40.9147 -3.06133 -2.93357 0
M  V30 452 C 39.3737 -1.57574 -2.97779 0
M  V30 453 O 39.9037 -0.973203 -3.89733 0
M  V30 454 N 38.1097 -1.29716 -2.60043 0
M  V30 455 H 37.6567 -1.789 -1.85345 0
M  V30 456 H 37.6147 -0.58051 -3.08994 0
M  V30 457 N 41.3868 0.248026 -1.55636 0
M  V30 458 C 42.3348 1.32683 -1.91045 0
M  V30 459 C 43.3288 1.49883 -0.789401 0
M  V30 460 O 44.5348 1.51371 -0.974007 0
M  V30 461 H 40.9098 0.444272 -0.606734 0
M  V30 462 H 42.8808 1.00085 -2.81115 0
M  V30 463 C 41.6298 2.6755 -2.22064 0
M  V30 464 H 40.9528 2.55114 -3.07826 0
M  V30 465 H 42.3928 3.41912 -2.50743 0
M  V30 466 C 40.8518 3.20556 -1.0366 0
M  V30 467 O 41.3818 4.00695 -0.284016 0
M  V30 468 N 39.5878 2.78568 -0.82753 0
M  V30 469 H 39.1348 2.1351 -1.44123 0
M  V30 470 H 39.0928 3.14378 -0.0369803 0
M  V30 471 N 42.8649 1.48995 0.513639 0
M  V30 472 C 44.0929 1.61531 1.29288 0
M  V30 473 C 44.5079 0.281801 1.86685 0
M  V30 474 O 43.8649 -0.731111 1.67215 0
M  V30 475 C 43.9159 2.67449 2.43215 0
M  V30 476 O 43.6369 3.95626 1.88179 0
M  V30 477 C 45.1379 2.90575 3.34785 0
M  V30 478 H 42.3579 0.544165 0.392588 0
M  V30 479 H 44.9019 1.9494 0.617956 0
M  V30 480 H 43.0569 2.36853 3.0656 0
M  V30 481 H 43.4709 4.53868 2.62876 0
M  V30 482 H 44.9449 3.68449 4.11035 0
M  V30 483 H 45.4219 2.00011 3.91015 0
M  V30 484 H 46.0279 3.22538 2.77218 0
M  V30 485 N 44.343 -0.763751 1.37857 0
M  V30 486 C 45.592 -1.51789 1.32827 0
M  V30 487 C 45.905 -1.95426 -0.0823719 0
M  V30 488 O 47.111 -2.70298 -0.255172 0
M  V30 489 C 45.567 -2.74133 2.33193 0
M  V30 490 C 45.175 -2.37562 3.79827 0
M  V30 491 C 46.919 -3.52054 2.37188 0
M  V30 492 C 44.826 -3.56456 4.71904 0
M  V30 493 H 43.756 -0.569896 0.493695 0
M  V30 494 H 46.407 -0.835822 1.63359 0
M  V30 495 H 44.789 -3.4427 1.9569 0
M  V30 496 H 45.963 -1.75157 4.26212 0
M  V30 497 H 44.278 -1.72798 3.78853 0
M  V30 498 H 46.875 -4.40437 3.03182 0
M  V30 499 H 47.218 -3.92486 1.38782 0
M  V30 500 H 47.751 -2.88921 2.7344 0
M  V30 501 H 44.49 -3.21099 5.71468 0
M  V30 502 H 44.01 -4.17938 4.30218 0
M  V30 503 H 45.689 -4.23168 4.89426 0
M  V30 504 N 45.8211 -1.22559 -0.990812 0
M  V30 505 C 47.0671 -1.05297 -1.73322 0
M  V30 506 C 47.4001 0.410655 -1.89808 0
M  V30 507 O 46.6751 1.30439 -1.44277 0
M  V30 508 C 46.9581 -1.76713 -3.13759 0
M  V30 509 C 46.8111 -3.30684 -3.04907 0
M  V30 510 C 48.1301 -1.52121 -4.12974 0
M  V30 511 H 45.2491 -0.38392 -0.629106 0
M  V30 512 H 47.8911 -1.50926 -1.15418 0
M  V30 513 H 46.0411 -1.37924 -3.63193 0
M  V30 514 H 47.7131 -3.7893 -2.63077 0
M  V30 515 H 45.9561 -3.60253 -2.41661 0
M  V30 516 H 46.6271 -3.75833 -4.04294 0
M  V30 517 H 49.1031 -1.85819 -3.72304 0
M  V30 518 H 47.9791 -2.04582 -5.0935 0
M  V30 519 H 48.2401 -0.454257 -4.3976 0
M  V30 520 N 47.2992 1.18797 -1.03562 0
M  V30 521 C 48.5272 1.92599 -0.755869 0
M  V30 522 C 48.9422 1.75886 0.686271 0
M  V30 523 O 48.2992 1.08517 1.46732 0
M  V30 524 C 48.3502 3.44159 -1.10619 0
M  V30 525 O 48.0712 3.60341 -2.4917 0
M  V30 526 C 49.5722 4.3507 -0.850214 0
M  V30 527 H 46.7922 0.611587 -0.276048 0
M  V30 528 H 49.3362 1.50742 -1.38192 0
M  V30 529 H 47.4912 3.83823 -0.525194 0
M  V30 530 H 47.9052 4.54128 -2.62427 0
M  V30 531 H 49.3792 5.39989 -1.14523 0
M  V30 532 H 49.8562 4.38673 0.215176 0
M  V30 533 H 50.4622 4.01097 -1.41426 0
M  V30 534 N 48.7773 0.814389 1.34928 0
M  V30 535 C 50.0263 0.394871 1.97797 0
M  V30 536 C 50.3393 -1.04555 1.65311 0
M  V30 537 O 51.5453 -1.56856 2.21604 0
M  V30 538 C 50.0013 0.655103 3.53888 0
M  V30 539 C 49.6093 2.10858 3.95276 0
M  V30 540 C 51.3533 0.301329 4.23429 0
M  V30 541 C 49.2603 2.31415 5.44244 0
M  V30 542 H 48.1903 0.143913 0.740139 0
M  V30 543 H 50.8413 0.999544 1.53888 0
M  V30 544 H 49.2233 -0.0196253 3.95995 0
M  V30 545 H 50.3973 2.82176 3.64298 0
M  V30 546 H 48.7123 2.42297 3.38646 0
M  V30 547 H 51.3093 0.432869 5.32945 0
M  V30 548 H 51.6523 -0.75331 4.09428 0
M  V30 549 H 52.1853 0.930288 3.86769 0
M  V30 550 H 48.9243 3.35353 5.63222 0
M  V30 551 H 48.4443 1.6463 5.76764 0
M  V30 552 H 50.1233 2.13352 6.10811 0
M  V30 553 N 50.2554 -1.46986 0.568584 0
M  V30 554 C 51.4834 -2.0683 0.0539956 0
M  V30 555 C 51.8984 -1.41953 -1.24478 0
M  V30 556 O 51.2554 -0.519933 -1.74937 0
M  V30 557 C 51.3064 -3.61254 -0.133362 0
M  V30 558 O 51.0274 -4.237 1.11399 0
M  V30 559 C 52.5284 -4.37992 -0.683927 0
M  V30 560 H 49.7484 -0.669058 0.0510141 0
M  V30 561 H 52.2924 -1.88824 0.785234 0
M  V30 562 H 50.4474 -3.78735 -0.81477 0
M  V30 563 H 50.8614 -5.16388 0.91888 0
M  V30 564 H 52.3354 -5.46684 -0.764263 0
M  V30 565 H 52.8124 -4.05058 -1.69778 0
M  V30 566 H 53.4184 -4.25283 -0.0378494 0
M  V30 567 N 51.7335 -0.305618 -1.54608 0
M  V30 568 C 53.0105 0.355652 -1.92339 0
M  V30 569 C 53.3905 1.71324 -1.23335 0
M  V30 570 O 52.7385 2.25473 -0.370702 0
M  V30 571 C 52.9485 0.46572 -3.45879 0
M  V30 572 C 54.2965 0.734426 -4.182 0
M  V30 573 O 55.3205 0.54935 -3.51938 0
M  V30 574 O 54.1795 1.09024 -5.35515 0
M  V30 575 H 51.2735 0.199666 -0.802535 0
M  V30 576 H 53.8195 -0.354017 -1.65966 0
M  V30 577 H 52.5915 -0.488461 -3.88239 0
M  V30 578 H 52.2145 1.22367 -3.78301 0
M  V30 579 N 53.2116 1.57565 -0.0334293 0
M  V30 580 C 54.6276 1.56297 0.322997 0
M  V30 581 C 54.8276 1.03945 1.7262 0
M  V30 582 O 53.8836 0.688109 2.42943 0
M  V30 583 C 55.1966 3.00232 0.167664 0
M  V30 584 C 56.7446 3.12078 0.240107 0
M  V30 585 C 57.2196 4.57859 0.113513 0
M  V30 586 N 58.7106 4.62887 0.170359 0
M  V30 587 C 59.4456 5.73319 0.0962517 0
M  V30 588 N 58.9416 6.92794 -0.0291881 0
M  V30 589 N 60.7346 5.61898 0.150551 0
M  V30 590 H 52.8856 1.89923 -0.950956 0
M  V30 591 H 55.1486 0.873824 -0.367608 0
M  V30 592 H 54.8546 3.42501 -0.799102 0
M  V30 593 H 54.7286 3.654 0.936083 0
M  V30 594 H 57.1156 2.69718 1.19733 0
M  V30 595 H 57.1966 2.49623 -0.558763 0
M  V30 596 H 56.8406 5.009 -0.840314 0
M  V30 597 H 56.7706 5.18299 0.931302 0
M  V30 598 H 59.2616 3.76954 0.26728 0
M  V30 599 H 59.5746 7.7276 -0.0789252 0
M  V30 600 H 57.9196 6.94971 -0.0640299 0
M  V30 601 H 61.1106 4.67448 0.246981 0
M  V30 602 H 61.2836 6.47938 0.0893365 0
M  V30 603 N 54.6897 -0.239769 1.55765 0
M  V30 604 C 55.6217 -1.32001 1.87372 0
M  V30 605 C 56.6347 -1.43944 0.760522 0
M  V30 606 O 57.8237 -1.45167 1.0387 0
M  V30 607 C 54.9237 -2.69779 2.05115 0
M  V30 608 C 54.0967 -2.80014 3.36022 0
M  V30 609 C 53.1557 -3.98684 3.4342 0
M  V30 610 O 52.1817 -3.87877 4.16582 0
M  V30 611 N 53.3837 -5.12176 2.73232 0
M  V30 612 H 56.1487 -1.0522 2.80622 0
M  V30 613 H 53.7097 -0.429857 1.56089 0
M  V30 614 H 55.7017 -3.47517 2.07399 0
M  V30 615 H 54.2717 -2.89237 1.18577 0
M  V30 616 H 53.4917 -1.88896 3.45994 0
M  V30 617 H 54.7797 -2.83808 4.22292 0
M  V30 618 H 54.1777 -5.2385 2.13536 0
M  V30 619 H 52.7347 -5.88022 2.81199 0
M  V30 620 N 56.1678 -1.49265 -0.50573 0
M  V30 621 C 57.4158 -1.582 -1.25766 0
M  V30 622 C 57.7368 -0.268482 -1.93143 0
M  V30 623 O 57.0068 0.711833 -1.8251 0
M  V30 624 H 55.5868 -0.582873 -0.467191 0
M  V30 625 H 58.2488 -1.85865 -0.586525 0
M  V30 626 H 57.3448 -2.37563 -2.02412 0
M  V30 627 N 57.6459 0.756429 -1.3826 0
M  V30 628 C 58.5939 1.89149 -1.35372 0
M  V30 629 C 59.5879 1.67691 -0.24004 0
M  V30 630 O 60.7939 1.75294 -0.408919 0
M  V30 631 H 57.1689 0.622271 -0.422236 0
M  V30 632 H 59.1399 1.88701 -2.31159 0
M  V30 633 C 57.8889 3.26599 -1.19284 0
M  V30 634 H 57.2119 3.43695 -2.0424 0
M  V30 635 H 58.6519 4.06274 -1.21316 0
M  V30 636 C 57.1109 3.3675 0.100454 0
M  V30 637 O 57.6409 3.86951 1.07851 0
M  V30 638 N 55.8469 2.90179 0.15633 0
M  V30 639 H 55.3939 2.49517 -0.640253 0
M  V30 640 H 55.3519 2.97352 1.02123 0
M  V30 641 N 59.124 1.23083 0.984299 0
M  V30 642 C 60.087 1.00979 2.05757 0
M  V30 643 C 61.087 -0.0269573 1.60777 0
M  V30 644 O 62.277 0.212403 1.729 0
M  V30 645 C 59.409 0.527072 3.36801 0
M  V30 646 H 60.602 1.9622 2.26799 0
M  V30 647 H 58.155 1.05072 1.15714 0
M  V30 648 H 58.89 -0.429294 3.21446 0
M  V30 649 H 58.675 1.27515 3.70786 0
M  V30 650 H 60.165 0.392942 4.15747 0
M  V30 651 N 60.6021 -1.18246 1.0419 0
M  V30 652 C 61.5321 -2.24127 0.654914 0
M  V30 653 C 62.5131 -1.66617 -0.342451 0
M  V30 654 O 63.6981 -1.92924 -0.222277 0
M  V30 655 C 60.8281 -3.47295 0.0183757 0
M  V30 656 C 59.7821 -4.17563 0.939414 0
M  V30 657 C 59.1081 -5.34438 0.167286 0
M  V30 658 C 60.4081 -4.70917 2.25908 0
M  V30 659 H 62.1021 -2.56753 1.54007 0
M  V30 660 H 59.6481 -1.23414 0.74195 0
M  V30 661 H 61.6011 -4.20572 -0.264082 0
M  V30 662 H 60.3251 -3.13907 -0.901664 0
M  V30 663 H 58.9841 -3.46186 1.20628 0
M  V30 664 H 58.6321 -4.97298 -0.7552 0
M  V30 665 H 58.3321 -5.82388 0.780901 0
M  V30 666 H 59.8561 -6.10504 -0.108125 0
M  V30 667 H 61.2701 -5.35882 2.03724 0
M  V30 668 H 59.6671 -5.29406 2.82577 0
M  V30 669 H 60.7371 -3.88272 2.9047 0
M  V30 670 N 62.0802 -0.821533 -1.34494 0
M  V30 671 C 63.3282 -0.408139 -1.97936 0
M  V30 672 C 63.6492 1.03193 -1.65457 0
M  V30 673 O 62.9192 1.71622 -0.944595 0
M  V30 674 H 61.4992 -0.147928 -0.732206 0
M  V30 675 H 64.1612 -1.05067 -1.64155 0
M  V30 676 H 63.2572 -0.52601 -3.07635 0
M  V30 677 N 63.5583 1.46682 -0.576371 0
M  V30 678 C 64.8043 2.03287 -0.0679305 0
M  V30 679 C 65.1593 1.44063 1.27529 0
M  V30 680 O 64.4523 0.593973 1.82161 0
M  V30 681 C 64.6463 3.57345 0.062886 0
M  V30 682 C 64.4753 4.31509 -1.26611 0
M  V30 683 C 63.2453 4.70664 -1.83856 0
M  V30 684 C 65.4433 4.65444 -2.18783 0
M  V30 685 N 63.4253 5.29552 -3.10561 0
M  V30 686 C 64.7963 5.24835 -3.30072 0
M  V30 687 C 66.8513 4.47375 -2.18542 0
M  V30 688 C 65.5543 5.68063 -4.41244 0
M  V30 689 C 67.5803 4.91614 -3.28739 0
M  V30 690 C 66.9423 5.51071 -4.38748 0
M  V30 691 H 63.0413 0.779083 -0.0674836 0
M  V30 692 H 65.6253 1.78918 -0.767877 0
M  V30 693 H 63.7963 3.8144 0.731988 0
M  V30 694 H 65.5283 4.00592 0.575134 0
M  V30 695 H 62.2833 4.53224 -1.37424 0
M  V30 696 H 62.7073 5.63523 -3.75195 0
M  V30 697 H 67.3493 4.00747 -1.34765 0
M  V30 698 H 65.0673 6.13672 -5.25768 0
M  V30 699 H 68.6533 4.79389 -3.29662 0
M  V30 700 H 67.5333 5.84678 -5.22611 0
M  V30 701 N 65.0364 0.313813 1.54444 0
M  V30 702 C 65.9994 -0.54379 2.22656 0
M  V30 703 C 66.9994 -1.05124 1.21678 0
M  V30 704 O 68.1894 -0.945225 1.46325 0
M  V30 705 C 65.3214 -1.75427 2.92298 0
M  V30 706 H 66.5144 0.0523599 2.99854 0
M  V30 707 H 64.0674 0.0647834 1.56166 0
M  V30 708 H 64.8024 -2.38991 2.19211 0
M  V30 709 H 64.5874 -1.39791 3.66334 0
M  V30 710 H 66.0774 -2.36325 3.44297 0
M  V30 711 N 66.5145 -1.57545 0.0417849 0
M  V30 712 C 67.7425 -1.96624 -0.643928 0
M  V30 713 C 68.1575 -0.918897 -1.64929 0
M  V30 714 O 67.5145 0.0979323 -1.82237 0
M  V30 715 C 67.5655 -3.35781 -1.33914 0
M  V30 716 O 67.2865 -4.365 -0.374048 0
M  V30 717 C 68.7875 -3.89566 -2.1155 0
M  V30 718 H 66.0075 -0.647316 -0.176702 0
M  V30 719 H 68.5515 -2.04229 0.105304 0
M  V30 720 H 66.7065 -3.29357 -2.03968 0
M  V30 721 H 67.1205 -5.17248 -0.869179 0
M  V30 722 H 68.5945 -4.89242 -2.55628 0
M  V30 723 H 69.0715 -3.24488 -2.9598 0
M  V30 724 H 69.6775 -3.99298 -1.46427 0
M  V30 725 N 67.9926 0.231505 -1.5589 0
M  V30 726 C 68.9556 1.27028 -1.90779 0
M  V30 727 C 69.9556 1.40308 -0.785507 0
M  V30 728 O 71.1456 1.38744 -1.05336 0
M  V30 729 C 68.2776 2.64566 -2.14983 0
M  V30 730 H 69.4706 0.973017 -2.83677 0
M  V30 731 H 67.0236 0.471486 -1.49019 0
M  V30 732 H 67.7586 2.99406 -1.24604 0
M  V30 733 H 67.5436 2.56305 -2.96732 0
M  V30 734 H 69.0336 3.39543 -2.43105 0
M  V30 735 N 69.4707 1.49531 0.497807 0
M  V30 736 C 70.7187 1.58865 1.24926 0
M  V30 737 C 71.0397 0.278721 1.92998 0
M  V30 738 O 70.3097 -0.702144 1.82885 0
M  V30 739 H 68.8897 0.585343 0.464094 0
M  V30 740 H 71.5517 1.86174 0.57666 0
M  V30 741 H 70.6477 2.38633 2.01149 0
M  V30 742 N 70.9488 -0.749086 1.3866 0
M  V30 743 C 72.1968 -1.50535 1.34847 0
M  V30 744 C 72.5178 -1.94909 -0.0595016 0
M  V30 745 O 71.7878 -1.67973 -1.00806 0
M  V30 746 H 70.3678 -0.558395 0.49619 0
M  V30 747 H 73.0298 -0.890165 1.73384 0
M  V30 748 H 72.1258 -2.39413 2.00219 0
M  V30 749 N 72.4269 -1.23603 -0.977757 0
M  V30 750 C 73.6519 -1.09735 -1.75991 0
M  V30 751 C 74.0769 0.346858 -1.84874 0
M  V30 752 O 73.4349 1.25093 -1.3123 0
M  V30 753 C 73.4829 -1.73051 -3.16363 0
M  V30 754 O 72.5869 -0.994452 -4.0023 0
M  V30 755 H 71.9279 -0.384476 -0.541364 0
M  V30 756 H 74.4579 -1.6371 -1.2272 0
M  V30 757 H 74.4679 -1.78398 -3.66931 0
M  V30 758 H 73.1429 -2.78137 -3.09213 0
M  V30 759 H 71.7199 -1.01812 -3.58732 0
M  V30 760 N 73.905 1.17692 -1.04816 0
M  V30 761 C 75.153 1.87488 -0.754497 0
M  V30 762 C 75.474 1.81205 0.720407 0
M  V30 763 O 74.744 1.23544 1.52032 0
M  V30 764 H 73.324 0.694101 -0.276102 0
M  V30 765 H 75.986 1.42793 -1.32651 0
M  V30 766 H 75.082 2.93328 -1.06606 0
M  V30 767 N 75.3831 0.828654 1.34056 0
M  V30 768 C 76.6301 0.419458 1.98108 0
M  V30 769 C 76.9581 -1.01886 1.65679 0
M  V30 770 O 76.2131 -1.72539 0.923512 0
M  V30 771 C 76.5121 0.575226 3.52741 0
M  V30 772 C 76.1781 1.98012 4.05095 0
M  V30 773 C 74.8401 2.36442 4.19104 0
M  V30 774 C 77.1921 2.89824 4.33188 0
M  V30 775 C 74.5201 3.66009 4.58535 0
M  V30 776 C 76.8721 4.1886 4.74066 0
M  V30 777 C 75.5361 4.5726 4.86281 0
M  V30 778 H 74.8061 0.153491 0.724929 0
M  V30 779 H 77.4531 1.05371 1.59904 0
M  V30 780 H 75.7581 -0.142385 3.91541 0
M  V30 781 H 77.4551 0.239057 4.00287 0
M  V30 782 H 74.0451 1.67162 3.94658 0
M  V30 783 H 78.2291 2.61375 4.21897 0
M  V30 784 H 73.4851 3.95579 4.66184 0
M  V30 785 H 77.6591 4.90086 4.94761 0
M  V30 786 H 75.2861 5.57707 5.16592 0
M  V30 787 N 76.8612 -1.46375 0.584142 0
M  V30 788 C 78.2772 -1.57694 0.245929 0
M  V30 789 C 78.4772 -1.57903 -1.25175 0
M  V30 790 O 77.5332 -1.49676 -2.03355 0
M  V30 791 C 78.8462 -2.87028 0.896402 0
M  V30 792 C 80.3942 -3.00662 0.870127 0
M  V30 793 C 80.8692 -4.32734 1.50017 0
M  V30 794 N 82.3602 -4.39436 1.46458 0
M  V30 795 C 83.0952 -5.40248 1.92144 0
M  V30 796 N 82.5912 -6.47726 2.4581 0
M  V30 797 N 84.3842 -5.31459 1.83052 0
M  V30 798 H 76.5352 -1.44483 1.55687 0
M  V30 799 H 78.7982 -0.689291 0.650831 0
M  V30 800 H 78.5042 -2.9269 1.95002 0
M  V30 801 H 78.3782 -3.75014 0.405486 0
M  V30 802 H 80.7652 -2.94581 -0.174871 0
M  V30 803 H 80.8462 -2.14148 1.39908 0
M  V30 804 H 80.4902 -4.39573 2.54437 0
M  V30 805 H 80.4202 -5.18025 0.946432 0
M  V30 806 H 82.9112 -3.62367 1.07231 0
M  V30 807 H 83.2242 -7.20863 2.78525 0
M  V30 808 H 81.5692 -6.48542 2.49836 0
M  V30 809 H 84.7602 -4.46396 1.40883 0
M  V30 810 H 84.9332 -6.09881 2.18973 0
M  V30 811 N 78.3393 -0.321999 -1.54275 0
M  V30 812 C 79.5873 0.280489 -2.00144 0
M  V30 813 C 79.9083 1.52777 -1.21178 0
M  V30 814 O 79.1783 1.9338 -0.313187 0
M  V30 815 H 77.7583 0.106632 -0.73935 0
M  V30 816 H 80.4203 -0.438184 -1.8991 0
M  V30 817 H 79.5163 0.537972 -3.07428 0
M  V30 818 N 79.8174 1.5752 -0.0501392 0
M  V30 819 C 81.0424 1.97376 0.636997 0
M  V30 820 C 81.4674 0.927466 1.63645 0
M  V30 821 O 80.8254 -0.10941 1.8097 0
M  V30 822 C 80.8734 3.36304 1.30123 0
M  V30 823 O 79.9774 3.34156 2.41689 0
M  V30 824 H 79.3184 0.642998 0.165679 0
M  V30 825 H 81.8484 2.04258 -0.118233 0
M  V30 826 H 81.8584 3.73008 1.65315 0
M  V30 827 H 80.5334 4.11993 0.568746 0
M  V30 828 H 79.1104 3.09196 2.08451 0
M  V30 829 N 81.2955 -0.223234 1.56011 0
M  V30 830 C 82.7115 -0.572856 1.48965 0
M  V30 831 C 82.9115 -1.87225 0.74492 0
M  V30 832 O 81.9675 -2.50899 0.283896 0
M  V30 833 C 83.2805 -0.653646 2.9351 0
M  V30 834 C 84.8285 -0.744386 3.0402 0
M  V30 835 C 85.3035 -0.856535 4.49919 0
M  V30 836 N 86.7945 -0.9208 4.53955 0
M  V30 837 C 87.5295 -1.02726 5.64123 0
M  V30 838 N 87.0255 -1.09777 6.84047 0
M  V30 839 N 88.8185 -1.06226 5.51971 0
M  V30 840 H 80.9695 0.629462 2.02858 0
M  V30 841 H 83.2325 0.220621 0.921971 0
M  V30 842 H 82.9385 0.231518 3.50937 0
M  V30 843 H 82.8125 -1.51781 3.45315 0
M  V30 844 H 85.1995 -1.61999 2.46658 0
M  V30 845 H 85.2805 0.14541 2.55386 0
M  V30 846 H 84.9245 0.0146069 5.07898 0
M  V30 847 H 84.8545 -1.76172 4.96257 0
M  V30 848 H 87.3455 -0.876694 3.6759 0
M  V30 849 H 87.6585 -1.17872 7.63758 0
M  V30 850 H 86.0035 -1.06693 6.86762 0
M  V30 851 H 89.1945 -1.00382 4.5721 0
M  V30 852 H 89.3675 -1.14177 6.37862 0
M  V30 853 N 82.7736 -1.49793 -0.48987 0
M  V30 854 C 83.7206 -1.67281 -1.59014 0
M  V30 855 C 84.6906 -0.514177 -1.57941 0
M  V30 856 O 85.8756 -0.742533 -1.75759 0
M  V30 857 C 83.0156 -1.75569 -2.97102 0
M  V30 858 C 82.1286 -3.0281 -3.08107 0
M  V30 859 C 81.2636 -3.02008 -4.36995 0
M  V30 860 C 80.3026 -4.23782 -4.41673 0
M  V30 861 N 79.4396 -4.20826 -5.62005 0
M  V30 862 H 84.2796 -2.61224 -1.43409 0
M  V30 863 H 81.8166 -1.29508 -0.697565 0
M  V30 864 H 83.7746 -1.78354 -3.77155 0
M  V30 865 H 82.4046 -0.850827 -3.11385 0
M  V30 866 H 81.4566 -3.09584 -2.21047 0
M  V30 867 H 82.7686 -3.92801 -3.07423 0
M  V30 868 H 81.9226 -3.03418 -5.25378 0
M  V30 869 H 80.6616 -2.09815 -4.4026 0
M  V30 870 H 79.6666 -4.22604 -3.5169 0
M  V30 871 H 80.8916 -5.17181 -4.40115 0
M  V30 872 H 78.8376 -3.31476 -5.66091 0
M  V30 873 H 78.7546 -5.04564 -5.62984 0
M  V30 874 H 80.0226 -4.26355 -6.52565 0
M  V30 875 N 84.2517 0.741722 -1.39055 0
M  V30 876 C 85.4767 1.53607 -1.39354 0
M  V30 877 C 85.9017 1.88096 0.0116905 0
M  V30 878 O 85.2597 1.5143 0.996924 0
M  V30 879 C 85.3077 2.80441 -2.26682 0
M  V30 880 O 84.4117 3.76088 -1.69208 0
M  V30 881 H 83.7527 0.464142 -0.474835 0
M  V30 882 H 86.2827 0.915665 -1.82967 0
M  V30 883 H 86.2927 3.29246 -2.40959 0
M  V30 884 H 84.9677 2.5467 -3.2881 0
M  V30 885 H 83.5447 3.34833 -1.64138 0
M  V30 886 N 85.7298 1.2412 0.971189 0
M  V30 887 C 86.9578 1.10575 1.74874 0
M  V30 888 C 87.3728 -0.342017 1.85676 0
M  V30 889 O 86.7298 -1.23617 1.34258 0
M  V30 890 C 86.7808 1.73579 3.171 0
M  V30 891 O 86.5018 3.12695 3.06844 0
M  V30 892 C 88.0028 1.65598 4.11208 0
M  V30 893 H 85.2228 0.386504 0.548503 0
M  V30 894 H 87.7668 1.64156 1.21955 0
M  V30 895 H 85.9218 1.24009 3.67016 0
M  V30 896 H 86.3358 3.43412 3.96445 0
M  V30 897 H 87.8098 2.1437 5.08674 0
M  V30 898 H 88.2868 0.616532 4.34851 0
M  V30 899 H 88.8928 2.14578 3.67201 0
M  V30 900 N 87.2079 -1.17134 1.05439 0
M  V30 901 C 88.6189 -1.69084 0.791676 0
M  V30 902 C 88.9699 -1.83822 -0.685839 0
M  V30 903 O 88.0949 -1.52757 -1.53278 0
M  V30 904 C 88.6899 -3.07119 1.4305 0
M  V30 905 C 87.2489 -3.56225 1.21577 0
M  V30 906 C 86.3959 -2.32421 1.51247 0
M  V30 907 H 89.3469 -1.01617 1.219 0
M  V30 908 H 89.3679 -3.71087 0.84112 0
M  V30 909 H 88.8799 -2.9636 2.50584 0
M  V30 910 H 86.9809 -3.72257 0.159787 0
M  V30 911 H 87.0939 -4.38837 1.92246 0
M  V30 912 H 85.4579 -2.3701 0.932653 0
M  V30 913 H 86.2409 -2.24268 2.5992 0
M  V30 914 N 88.686 -0.835752 -1.33615 0
M  V30 915 C 89.933 -0.429959 -1.97883 0
M  V30 916 C 90.261 1.01006 -1.66217 0
M  V30 917 O 89.516 1.72047 -0.93265 0
M  V30 918 C 89.815 -0.593925 -3.52431 0
M  V30 919 C 89.481 -2.00158 -4.04039 0
M  V30 920 C 88.143 -2.38662 -4.17844 0
M  V30 921 C 90.495 -2.92117 -4.31644 0
M  V30 922 C 87.823 -3.68435 -4.56588 0
M  V30 923 C 90.175 -4.21368 -4.71838 0
M  V30 924 C 88.839 -4.59833 -4.83849 0
M  V30 925 H 88.109 -0.157333 -0.724104 0
M  V30 926 H 90.756 -1.06217 -1.59343 0
M  V30 927 H 89.061 0.121619 -3.91611 0
M  V30 928 H 90.758 -0.260282 -4.00154 0
M  V30 929 H 87.348 -1.69252 -3.93766 0
M  V30 930 H 91.532 -2.63608 -4.20505 0
M  V30 931 H 86.788 -3.98046 -4.64079 0
M  V30 932 H 90.962 -4.92703 -4.92155 0
M  V30 933 H 88.589 -5.60438 -5.13627 0
M  V30 934 N 90.1641 1.46063 -0.591896 0
M  V30 935 C 91.1271 2.28854 0.125973 0
M  V30 936 C 92.1271 1.38903 0.810107 0
M  V30 937 O 93.3171 1.61186 0.66066 0
M  V30 938 C 90.4491 3.19526 1.1881 0
M  V30 939 H 91.6421 2.93802 -0.601717 0
M  V30 940 H 89.1951 1.52325 -0.350254 0
M  V30 941 H 89.9301 2.59345 1.94707 0
M  V30 942 H 89.7151 3.85766 0.701936 0
M  V30 943 H 91.2051 3.81817 1.69132 0
M  V30 944 N 91.6422 0.330177 1.54103 0
M  V30 945 C 92.6052 -0.520144 2.2322 0
M  V30 946 C 93.6052 -1.03828 1.22786 0
M  V30 947 O 94.7952 -0.929652 1.4732 0
M  V30 948 C 91.9272 -1.72317 2.94142 0
M  V30 949 H 93.1202 0.0841605 2.99782 0
M  V30 950 H 90.6732 0.0813433 1.56088 0
M  V30 951 H 91.4082 -2.36653 2.21734 0
M  V30 952 H 91.1932 -1.35898 3.67796 0
M  V30 953 H 92.6832 -2.3266 3.46784 0
M  V30 954 N 93.1203 -1.57491 0.0584922 0
M  V30 955 C 94.0523 -2.08916 -0.942694 0
M  V30 956 C 95.0653 -1.0185 -1.27006 0
M  V30 957 O 96.2543 -1.29398 -1.22957 0
M  V30 958 C 93.3543 -2.52341 -2.26224 0
M  V30 959 C 92.5273 -3.82827 -2.1157 0
M  V30 960 C 91.5863 -4.12487 -3.26712 0
M  V30 961 O 90.6123 -4.82295 -3.02292 0
M  V30 962 N 91.8143 -3.64978 -4.5141 0
M  V30 963 H 94.5793 -2.95437 -0.503722 0
M  V30 964 H 92.1403 -1.61397 -0.12757 0
M  V30 965 H 94.1323 -2.69254 -3.02133 0
M  V30 966 H 92.7023 -1.7103 -2.61663 0
M  V30 967 H 91.9223 -3.75425 -1.20208 0
M  V30 968 H 93.2103 -4.68263 -1.99015 0
M  V30 969 H 92.6083 -3.08558 -4.7414 0
M  V30 970 H 91.1653 -3.87115 -5.2439 0
M  V30 971 N 94.5984 0.214957 -1.56127 0
M  V30 972 C 95.8444 0.939762 -1.79712 0
M  V30 973 C 96.1774 1.83723 -0.629247 0
M  V30 974 O 95.4524 1.90925 0.371197 0
M  V30 975 C 95.7354 1.77306 -3.13424 0
M  V30 976 C 95.5884 0.90164 -4.40671 0
M  V30 977 C 96.9074 2.74956 -3.43638 0
M  V30 978 H 94.0264 0.340214 -0.653776 0
M  V30 979 H 96.6684 0.20824 -1.88855 0
M  V30 980 H 94.8184 2.39673 -3.0576 0
M  V30 981 H 96.4904 0.294206 -4.60361 0
M  V30 982 H 94.7334 0.207368 -4.33304 0
M  V30 983 H 95.4044 1.51923 -5.30682 0
M  V30 984 H 97.8804 2.22724 -3.51473 0
M  V30 985 H 96.7564 3.30358 -4.38355 0
M  V30 986 H 97.0174 3.53023 -2.66134 0
M  V30 987 N 96.0765 1.50051 0.48192 0
M  V30 988 C 97.0395 1.67584 1.5636 0
M  V30 989 C 98.0395 0.546894 1.51214 0
M  V30 990 O 99.2295 0.813725 1.54026 0
M  V30 991 C 96.3615 1.691 2.96003 0
M  V30 992 H 97.5545 2.64078 1.42136 0
M  V30 993 H 95.1075 1.39369 0.707533 0
M  V30 994 H 95.8425 0.742589 3.15684 0
M  V30 995 H 95.6275 2.51105 3.01146 0
M  V30 996 H 97.1175 1.84656 3.74556 0
M  V30 997 N 97.5546 -0.734337 1.39446 0
M  V30 998 C 98.5176 -1.83004 1.37994 0
M  V30 999 C 99.5176 -1.58397 0.276938 0
M  V30 1000 O 100.708 -1.65785 0.534875 0
M  V30 1001 C 97.8396 -3.20802 1.1532 0
M  V30 1002 H 99.0326 -1.85694 2.35494 0
M  V30 1003 H 96.5856 -0.938059 1.25021 0
M  V30 1004 H 97.3206 -3.23772 0.185036 0
M  V30 1005 H 97.1056 -3.4006 1.95197 0
M  V30 1006 H 98.5956 -4.00862 1.17046 0
M  V30 1007 N 99.0327 -1.24633 -0.964593 0
M  V30 1008 C 99.9427 -1.05859 -2.09359 0
M  V30 1009 C 100.959 0.00148855 -1.74 0
M  V30 1010 O 102.135 -0.197346 -2.00431 0
M  V30 1011 C 99.1997 -0.668879 -3.40187 0
M  V30 1012 C 98.2607 -1.80578 -3.89474 0
M  V30 1013 C 97.4937 -1.43457 -5.14058 0
M  V30 1014 O 97.7167 -0.325775 -5.69469 0
M  V30 1015 O 96.6507 -2.2613 -5.57807 0
M  V30 1016 H 100.477 -2.00516 -2.28094 0
M  V30 1017 H 98.0617 -1.03481 -1.0776 0
M  V30 1018 H 99.9437 -0.463211 -4.18846 0
M  V30 1019 H 98.6187 0.248536 -3.22744 0
M  V30 1020 H 97.5257 -2.06623 -3.11862 0
M  V30 1021 H 98.8587 -2.70208 -4.11398 0
M  V30 1022 N 100.511 1.16574 -1.06058 0
M  V30 1023 C 101.927 1.3904 -0.783585 0
M  V30 1024 C 102.127 1.91784 0.618145 0
M  V30 1025 O 101.183 2.11511 1.37911 0
M  V30 1026 C 102.496 2.37329 -1.84649 0
M  V30 1027 C 104.044 2.51018 -1.86973 0
M  V30 1028 C 104.519 3.52588 -2.92311 0
M  V30 1029 N 106.01 3.60113 -2.91329 0
M  V30 1030 C 106.745 4.38486 -3.69482 0
M  V30 1031 N 106.241 5.20302 -4.57447 0
M  V30 1032 N 108.034 4.33446 -3.57885 0
M  V30 1033 H 100.185 0.806725 -1.96483 0
M  V30 1034 H 102.448 0.417117 -0.851303 0
M  V30 1035 H 102.154 2.05663 -2.85299 0
M  V30 1036 H 102.028 3.36946 -1.6955 0
M  V30 1037 H 104.415 2.81989 -0.869827 0
M  V30 1038 H 104.496 1.51445 -2.0615 0
M  V30 1039 H 104.14 3.22354 -3.92492 0
M  V30 1040 H 104.07 4.51886 -2.70383 0
M  V30 1041 H 106.561 3.01707 -2.27555 0
M  V30 1042 H 106.874 5.77311 -5.13743 0
M  V30 1043 H 105.219 5.19653 -4.61503 0
M  V30 1044 H 108.41 3.68586 -2.88551 0
M  V30 1045 H 108.583 4.94279 -4.19037 0
M  V30 1046 N 101.989 0.842826 1.3317 0
M  V30 1047 C 103.229 0.446574 1.99462 0
M  V30 1048 C 103.593 -0.976818 1.65295 0
M  V30 1049 O 104.794 -1.477 2.24584 0
M  V30 1050 C 103.065 0.665353 3.51152 0
M  V30 1051 S 104.624 0.364911 4.3728 0
M  V30 1052 H 101.442 0.167803 0.690915 0
M  V30 1053 H 104.044 1.09297 1.62094 0
M  V30 1054 H 102.748 1.7006 3.73507 0
M  V30 1055 H 102.279 0.00494568 3.934 0
M  V30 1056 H 104.294 -0.813761 4.89482 0
M  V30 1057 N 103.467 -1.45747 0.599634 0
M  V30 1058 C 104.43 -2.28917 -0.113835 0
M  V30 1059 C 105.43 -1.3933 -0.802729 0
M  V30 1060 O 106.62 -1.61534 -0.652103 0
M  V30 1061 C 103.752 -3.20152 -1.17114 0
M  V30 1062 H 104.945 -2.93478 0.617289 0
M  V30 1063 H 102.498 -1.52137 0.358327 0
M  V30 1064 H 103.233 -2.60374 -1.93329 0
M  V30 1065 H 103.018 -3.86133 -0.681468 0
M  V30 1066 H 104.508 -3.82708 -1.67105 0
M  V30 1067 N 104.945 -0.338344 -1.53925 0
M  V30 1068 C 105.855 0.529421 -2.28548 0
M  V30 1069 C 106.871 1.11645 -1.3346 0
M  V30 1070 O 108.047 1.13325 -1.66492 0
M  V30 1071 C 105.112 1.66713 -3.03987 0
M  V30 1072 C 104.173 1.11041 -4.14691 0
M  V30 1073 C 103.406 2.19389 -4.86522 0
M  V30 1074 O 103.629 3.40013 -4.57982 0
M  V30 1075 O 102.563 1.83976 -5.73094 0
M  V30 1076 H 106.389 -0.0770399 -3.03602 0
M  V30 1077 H 103.974 -0.103555 -1.49041 0
M  V30 1078 H 105.856 2.32918 -3.5118 0
M  V30 1079 H 104.531 2.25949 -2.31794 0
M  V30 1080 H 103.438 0.413024 -3.71813 0
M  V30 1081 H 104.771 0.562975 -4.8897 0
M  V30 1082 N 106.423 1.57458 -0.0668435 0
M  V30 1083 C 107.386 2.11323 0.887422 0
M  V30 1084 C 108.386 1.03618 1.22964 0
M  V30 1085 O 109.576 1.29626 1.16373 0
M  V30 1086 C 106.708 2.61048 2.19242 0
M  V30 1087 H 107.901 2.96942 0.420194 0
M  V30 1088 H 105.454 1.55239 0.181793 0
M  V30 1089 H 106.189 1.78868 2.70512 0
M  V30 1090 H 105.974 3.39769 1.95702 0
M  V30 1091 H 107.464 3.02814 2.87565 0
M  V30 1092 N 107.901 -0.206675 1.56239 0
M  V30 1093 C 109.147 -0.930218 1.80208 0
M  V30 1094 C 109.48 -1.83387 0.638981 0
M  V30 1095 O 108.755 -1.91119 -0.361066 0
M  V30 1096 C 109.038 -1.75641 3.1436 0
M  V30 1097 C 108.891 -0.878257 4.41142 0
M  V30 1098 C 110.21 -2.73129 3.45092 0
M  V30 1099 H 107.329 -0.336742 0.655571 0
M  V30 1100 H 109.971 -0.198222 1.88963 0
M  V30 1101 H 108.121 -2.38048 3.07027 0
M  V30 1102 H 109.793 -0.269787 4.6051 0
M  V30 1103 H 108.036 -0.184385 4.33408 0
M  V30 1104 H 108.707 -1.49106 5.3148 0
M  V30 1105 H 111.183 -2.20856 3.52649 0
M  V30 1106 H 110.059 -3.28028 4.40101 0
M  V30 1107 H 110.32 -3.51606 2.68003 0
M  V30 1108 N 109.379 -1.50304 -0.473955 0
M  V30 1109 C 110.326 -1.68959 -1.57231 0
M  V30 1110 C 111.296 -0.530899 -1.57387 0
M  V30 1111 O 112.481 -0.761133 -1.74961 0
M  V30 1112 C 109.621 -1.7871 -2.95223 0
M  V30 1113 C 108.734 -3.06061 -3.04878 0
M  V30 1114 C 107.869 -3.06626 -4.33767 0
M  V30 1115 C 106.908 -4.28443 -4.37154 0
M  V30 1116 N 106.045 -4.26763 -5.5751 0
M  V30 1117 H 110.885 -2.6273 -1.40631 0
M  V30 1118 H 108.422 -1.30241 -0.683789 0
M  V30 1119 H 110.38 -1.82344 -3.75242 0
M  V30 1120 H 109.01 -0.883806 -3.10465 0
M  V30 1121 H 108.062 -3.11911 -2.17751 0
M  V30 1122 H 109.374 -3.96039 -3.0324 0
M  V30 1123 H 108.528 -3.08973 -5.22131 0
M  V30 1124 H 107.267 -2.14473 -4.3801 0
M  V30 1125 H 106.272 -4.2631 -3.47188 0
M  V30 1126 H 107.497 -5.2182 -4.34605 0
M  V30 1127 H 105.443 -3.37462 -5.62544 0
M  V30 1128 H 105.36 -5.10507 -5.57601 0
M  V30 1129 H 106.628 -4.33253 -6.48006 0
M  V30 1130 N 110.857 0.726932 -1.39834 0
M  V30 1131 C 111.767 1.87131 -1.41489 0
M  V30 1132 C 112.783 1.71239 -0.308757 0
M  V30 1133 O 113.959 1.93701 -0.551529 0
M  V30 1134 C 111.024 3.22811 -1.26468 0
M  V30 1135 C 110.085 3.51039 -2.47124 0
M  V30 1136 C 109.318 4.80245 -2.3281 0
M  V30 1137 O 109.541 5.54537 -1.33585 0
M  V30 1138 O 108.475 5.08554 -3.21957 0
M  V30 1139 H 112.301 1.8869 -2.3797 0
M  V30 1140 H 109.886 0.875837 -1.21035 0
M  V30 1141 H 111.768 4.03877 -1.20255 0
M  V30 1142 H 110.443 3.22005 -0.330862 0
M  V30 1143 H 109.35 2.70027 -2.58914 0
M  V30 1144 H 110.683 3.56632 -3.39227 0
M  V30 1145 N 112.336 1.25143 0.95797 0
M  V30 1146 C 113.566 1.12261 1.73439 0
M  V30 1147 C 113.974 -0.326715 1.86358 0
M  V30 1148 O 113.317 -1.2367 1.35836 0
M  V30 1149 C 113.379 1.69966 3.16784 0
M  V30 1150 C 113.043 3.18936 3.27305 0
M  V30 1151 C 114.04 4.15968 3.11877 0
M  V30 1152 C 111.725 3.59083 3.51234 0
M  V30 1153 C 113.719 5.51126 3.20217 0
M  V30 1154 C 111.406 4.9438 3.5921 0
M  V30 1155 C 112.404 5.90211 3.43716 0
M  V30 1156 O 112.092 7.23046 3.51368 0
M  V30 1157 H 111.824 0.392476 0.550399 0
M  V30 1158 H 114.378 1.65927 1.21068 0
M  V30 1159 H 112.608 1.10744 3.70503 0
M  V30 1160 H 114.297 1.52232 3.76272 0
M  V30 1161 H 115.063 3.86292 2.93264 0
M  V30 1162 H 110.942 2.84989 3.62356 0
M  V30 1163 H 114.486 6.25905 3.0804 0
M  V30 1164 H 110.383 5.23723 3.77339 0
M  V30 1165 H 111.151 7.31097 3.6802 0
M  V30 1166 N 113.814 -1.1601 1.06675 0
M  V30 1167 C 115.062 -1.86264 0.784229 0
M  V30 1168 C 115.383 -1.82328 -0.691488 0
M  V30 1169 O 114.653 -1.25947 -1.50047 0
M  V30 1170 H 113.233 -0.689621 0.28711 0
M  V30 1171 H 115.895 -1.40664 1.34906 0
M  V30 1172 H 114.991 -2.91595 1.11259 0
M  V30 1173 N 115.292 -0.849877 -1.32721 0
M  V30 1174 C 116.541 -0.447175 -1.96681 0
M  V30 1175 C 116.854 1.00135 -1.68025 0
M  V30 1176 O 118.06 1.50926 -2.25685 0
M  V30 1177 C 116.516 -0.7487 -3.52026 0
M  V30 1178 C 116.124 -2.21264 -3.89546 0
M  V30 1179 C 117.868 -0.413487 -4.22481 0
M  V30 1180 C 115.775 -2.45763 -5.37917 0
M  V30 1181 H 114.705 -0.163486 -0.736063 0
M  V30 1182 H 117.356 -1.03999 -1.51183 0
M  V30 1183 H 115.738 -0.0853727 -3.95908 0
M  V30 1184 H 116.912 -2.91736 -3.56689 0
M  V30 1185 H 115.227 -2.5119 -3.32103 0
M  V30 1186 H 117.824 -0.574017 -5.3161 0
M  V30 1187 H 118.167 0.644492 -4.11281 0
M  V30 1188 H 118.7 -1.03251 -3.84167 0
M  V30 1189 H 115.439 -3.50168 -5.54132 0
M  V30 1190 H 114.959 -1.79864 -5.72197 0
M  V30 1191 H 116.638 -2.29471 -6.0494 0
M  V30 1192 N 116.77 1.45427 -0.607355 0
M  V30 1193 C 117.717 2.3053 0.111625 0
M  V30 1194 C 118.687 1.4209 0.860216 0
M  V30 1195 O 119.872 1.71019 0.845998 0
M  V30 1196 C 117.012 3.26992 1.10319 0
M  V30 1197 C 116.125 4.30535 0.355493 0
M  V30 1198 C 115.26 5.14105 1.33676 0
M  V30 1199 C 114.299 6.09376 0.576862 0
M  V30 1200 N 113.436 6.85727 1.5074 0
M  V30 1201 H 118.276 2.91477 -0.620093 0
M  V30 1202 H 115.813 1.43631 -0.317594 0
M  V30 1203 H 117.771 3.81385 1.6912 0
M  V30 1204 H 116.401 2.67799 1.80232 0
M  V30 1205 H 115.453 3.78805 -0.348023 0
M  V30 1206 H 116.765 4.98235 -0.237423 0
M  V30 1207 H 115.919 5.72897 1.99684 0
M  V30 1208 H 114.658 4.46423 1.9636 0
M  V30 1209 H 113.663 5.49715 -0.0968519 0
M  V30 1210 H 114.888 6.79085 -0.0449341 0
M  V30 1211 H 112.834 6.20735 2.12189 0
M  V30 1212 H 112.751 7.49778 0.967913 0
M  V30 1213 H 114.019 7.4906 2.15706 0
M  V30 1214 N 118.248 0.346503 1.53744 0
M  V30 1215 C 119.196 -0.52422 2.26616 0
M  V30 1216 C 120.19 -1.09948 1.28871 0
M  V30 1217 O 121.396 -1.04488 1.46568 0
M  V30 1218 H 117.771 -0.187743 0.728187 0
M  V30 1219 H 119.742 0.11239 2.98188 0
M  V30 1220 C 118.491 -1.66186 3.05414 0
M  V30 1221 H 117.814 -1.22848 3.80458 0
M  V30 1222 H 119.254 -2.24622 3.59612 0
M  V30 1223 C 117.713 -2.59302 2.1509 0
M  V30 1224 O 118.243 -3.61628 1.74895 0
M  V30 1225 N 116.449 -2.28055 1.8011 0
M  V30 1226 H 115.996 -1.44883 2.12994 0
M  V30 1227 H 115.954 -2.90615 1.19958 0
M  V30 1228 N 119.726 -1.57421 0.075193 0
M  V30 1229 C 120.656 -2.15942 -0.888324 0
M  V30 1230 C 121.637 -1.08737 -1.30806 0
M  V30 1231 O 122.822 -1.36787 -1.37851 0
M  V30 1232 C 119.952 -2.72379 -2.1547 0
M  V30 1233 C 118.906 -3.8478 -1.87425 0
M  V30 1234 C 118.232 -4.27834 -3.20721 0
M  V30 1235 C 119.532 -5.08869 -1.17684 0
M  V30 1236 H 121.226 -2.96705 -0.400799 0
M  V30 1237 H 118.772 -1.42723 -0.191342 0
M  V30 1238 H 120.725 -3.11965 -2.83295 0
M  V30 1239 H 119.449 -1.88841 -2.6647 0
M  V30 1240 H 118.108 -3.45703 -1.22004 0
M  V30 1241 H 117.756 -3.41214 -3.6957 0
M  V30 1242 H 117.456 -5.03605 -3.02746 0
M  V30 1243 H 118.98 -4.70039 -3.89738 0
M  V30 1244 H 120.394 -5.4575 -1.75584 0
M  V30 1245 H 118.791 -5.8994 -1.09956 0
M  V30 1246 H 119.861 -4.84648 -0.156453 0
M  V30 1247 N 121.204 0.198386 -1.56346 0
M  V30 1248 C 122.114 1.2664 -1.97483 0
M  V30 1249 C 123.13 1.49989 -0.882002 0
M  V30 1250 O 124.306 1.62668 -1.18748 0
M  V30 1251 C 121.371 2.59141 -2.30319 0
M  V30 1252 C 120.432 2.43892 -3.53292 0
M  V30 1253 C 119.665 3.70074 -3.84553 0
M  V30 1254 O 119.888 4.74101 -3.1715 0
M  V30 1255 O 118.822 3.658 -4.7799 0
M  V30 1256 H 122.648 0.947304 -2.88548 0
M  V30 1257 H 120.233 0.403123 -1.43859 0
M  V30 1258 H 122.115 3.37352 -2.5253 0
M  V30 1259 H 120.79 2.90684 -1.42423 0
M  V30 1260 H 119.697 1.63803 -3.36332 0
M  V30 1261 H 121.03 2.17282 -4.41644 0
M  V30 1262 N 122.682 1.50554 0.465978 0
M  V30 1263 C 123.928 1.62038 1.21949 0
M  V30 1264 C 124.261 0.322116 1.9151 0
M  V30 1265 O 123.536 -0.676723 1.82348 0
M  V30 1266 C 123.819 2.80421 2.25912 0
M  V30 1267 C 123.672 4.20144 1.60622 0
M  V30 1268 C 124.991 2.94354 3.27176 0
M  V30 1269 H 122.11 0.589752 0.441998 0
M  V30 1270 H 124.752 1.82956 0.51257 0
M  V30 1271 H 122.902 2.62717 2.86203 0
M  V30 1272 H 124.574 4.49449 1.03889 0
M  V30 1273 H 122.817 4.24165 0.909211 0
M  V30 1274 H 123.488 4.98914 2.36196 0
M  V30 1275 H 125.964 3.10578 2.76913 0
M  V30 1276 H 124.84 3.788 3.97242 0
M  V30 1277 H 125.101 2.05186 3.916 0
M  V30 1278 N 124.16 -0.719506 1.40217 0
M  V30 1279 C 125.093 -1.84298 1.34571 0
M  V30 1280 C 126.071 -1.61149 0.216741 0
M  V30 1281 O 127.255 -1.84212 0.399756 0
M  V30 1282 C 124.382 -3.20568 1.09335 0
M  V30 1283 C 123.428 -3.62551 2.24631 0
M  V30 1284 S 124.261 -3.7012 3.87004 0
M  V30 1285 C 125.417 -5.09154 3.64024 0
M  V30 1286 H 125.65 -1.88807 2.2965 0
M  V30 1287 H 123.183 -0.885901 1.26456 0
M  V30 1288 H 125.141 -3.99246 0.954602 0
M  V30 1289 H 123.802 -3.13696 0.159164 0
M  V30 1290 H 122.995 -4.61483 2.02606 0
M  V30 1291 H 122.597 -2.91119 2.34789 0
M  V30 1292 H 124.889 -5.95955 3.22248 0
M  V30 1293 H 125.832 -5.36213 4.62473 0
M  V30 1294 H 126.24 -4.79562 2.97793 0
M  V30 1295 N 125.638 -1.25649 -0.95132 0
M  V30 1296 C 126.884 -1.10757 -1.69884 0
M  V30 1297 C 127.217 0.350061 -1.91019 0
M  V30 1298 O 126.492 1.25783 -1.48354 0
M  V30 1299 C 126.775 -1.86606 -3.07978 0
M  V30 1300 C 126.628 -3.40217 -2.94232 0
M  V30 1301 C 127.947 -1.65182 -4.07925 0
M  V30 1302 H 125.066 -0.40374 -0.616574 0
M  V30 1303 H 127.708 -1.54521 -1.10558 0
M  V30 1304 H 125.858 -1.49409 -3.58621 0
M  V30 1305 H 127.53 -3.87108 -2.50889 0
M  V30 1306 H 125.773 -3.67759 -2.30078 0
M  V30 1307 H 126.444 -3.88505 -3.92133 0
M  V30 1308 H 128.92 -1.9757 -3.66204 0
M  V30 1309 H 127.796 -2.20683 -5.02583 0
M  V30 1310 H 128.057 -0.593933 -4.38092 0
M  V30 1311 N 127.117 1.15442 -1.07289 0
M  V30 1312 C 128.064 2.20161 -0.692653 0
M  V30 1313 C 129.034 1.63073 0.31564 0
M  V30 1314 O 130.219 1.89725 0.202235 0
M  V30 1315 C 127.359 3.44967 -0.0959509 0
M  V30 1316 C 126.472 4.16256 -1.15564 0
M  V30 1317 C 125.607 5.28609 -0.524011 0
M  V30 1318 C 124.646 5.91715 -1.56653 0
M  V30 1319 N 123.783 6.9554 -0.957531 0
M  V30 1320 H 128.623 2.52037 -1.59002 0
M  V30 1321 H 126.16 1.2378 -0.794798 0
M  V30 1322 H 128.118 4.16341 0.267628 0
M  V30 1323 H 126.748 3.1361 0.764772 0
M  V30 1324 H 125.8 3.43385 -1.6368 0
M  V30 1325 H 127.112 4.59268 -1.94613 0
M  V30 1326 H 126.266 6.06604 -0.108032 0
M  V30 1327 H 125.005 4.86787 0.29825 0
M  V30 1328 H 124.01 5.12433 -1.9923 0
M  V30 1329 H 125.235 6.35614 -2.39107 0
M  V30 1330 H 123.181 6.55814 -0.156162 0
M  V30 1331 H 123.098 7.36977 -1.68526 0
M  V30 1332 H 124.366 7.77435 -0.567032 0
M  V30 1333 N 128.595 0.856903 1.32268 0
M  V30 1334 C 129.843 0.460474 1.96784 0
M  V30 1335 C 130.164 -0.987701 1.68135 0
M  V30 1336 O 129.434 -1.69058 0.989765 0
M  V30 1337 H 128.014 0.167289 0.728027 0
M  V30 1338 H 130.676 1.09383 1.61312 0
M  V30 1339 H 129.772 0.60739 3.06133 0
M  V30 1340 N 130.073 -1.45103 0.615059 0
M  V30 1341 C 131.484 -1.85654 0.197383 0
M  V30 1342 C 131.835 -1.51433 -1.24749 0
M  V30 1343 O 130.96 -0.944608 -1.94695 0
M  V30 1344 C 131.555 -3.36972 0.351448 0
M  V30 1345 C 130.114 -3.76398 -0.011593 0
M  V30 1346 C 129.261 -2.69024 0.672394 0
M  V30 1347 H 132.212 -1.35797 0.821263 0
M  V30 1348 H 132.233 -3.78239 -0.414227 0
M  V30 1349 H 131.745 -3.61847 1.40314 0
M  V30 1350 H 129.846 -3.5714 -1.06217 0
M  V30 1351 H 129.959 -4.77532 0.387265 0
M  V30 1352 H 128.323 -2.54465 0.109284 0
M  V30 1353 H 129.106 -2.96735 1.72636 0
M  V30 1354 N 131.551 -0.354651 -1.53558 0
M  V30 1355 C 132.799 0.237972 -2.00694 0
M  V30 1356 C 133.12 1.50173 -1.24391 0
M  V30 1357 O 132.39 1.92673 -0.354135 0
M  V30 1358 H 130.97 0.0909256 -0.741446 0
M  V30 1359 H 133.632 -0.478368 -1.88938 0
M  V30 1360 H 132.728 0.47264 -3.085 0
M  V30 1361 N 133.029 1.57378 -0.0835403 0
M  V30 1362 C 134.44 1.81261 0.447358 0
M  V30 1363 C 134.791 0.998331 1.68902 0
M  V30 1364 O 133.916 0.224282 2.15235 0
M  V30 1365 C 134.511 3.28767 0.818386 0
M  V30 1366 C 133.07 3.53455 1.29409 0
M  V30 1367 C 132.217 2.75831 0.285024 0
M  V30 1368 H 135.168 1.5566 -0.309115 0
M  V30 1369 H 135.189 3.41459 1.67887 0
M  V30 1370 H 134.701 3.88006 -0.0855019 0
M  V30 1371 H 132.802 2.99534 2.21608 0
M  V30 1372 H 132.915 4.62128 1.2639 0
M  V30 1373 H 131.279 2.42947 0.764767 0
M  V30 1374 H 132.062 3.37813 -0.611341 0
M  V30 1375 N 134.507 -0.190092 1.56449 0
M  V30 1376 C 135.755 -0.907908 1.80559 0
M  V30 1377 C 136.076 -1.83583 0.657438 0
M  V30 1378 O 135.346 -1.93203 -0.323924 0
M  V30 1379 H 133.926 -0.338247 0.666032 0
M  V30 1380 H 136.588 -0.194403 1.93928 0
M  V30 1381 H 135.684 -1.49604 2.73907 0
M  V30 1382 N 135.985 -1.50799 -0.457987 0
M  V30 1383 C 137.401 -1.38515 -0.792819 0
M  V30 1384 C 137.601 -0.451409 -1.96379 0
M  V30 1385 O 136.657 0.10112 -2.52297 0
M  V30 1386 C 137.97 -2.80149 -1.09258 0
M  V30 1387 C 139.518 -2.89156 -1.19825 0
M  V30 1388 C 139.993 -4.31651 -1.53106 0
M  V30 1389 N 141.484 -4.34662 -1.60072 0
M  V30 1390 C 142.219 -5.41928 -1.87354 0
M  V30 1391 N 141.715 -6.59384 -2.12568 0
M  V30 1392 N 143.508 -5.29385 -1.88965 0
M  V30 1393 H 135.659 -2.10073 0.313511 0
M  V30 1394 H 137.922 -0.944803 0.0777862 0
M  V30 1395 H 137.628 -3.50374 -0.305084 0
M  V30 1396 H 137.502 -3.18204 -2.02549 0
M  V30 1397 H 139.889 -2.19141 -1.97639 0
M  V30 1398 H 139.97 -2.54626 -0.244821 0
M  V30 1399 H 139.614 -5.02208 -0.758266 0
M  V30 1400 H 139.544 -4.63678 -2.49621 0
M  V30 1401 H 142.035 -3.49973 -1.42573 0
M  V30 1402 H 142.348 -7.36934 -2.32696 0
M  V30 1403 H 140.693 -6.62535 -2.09933 0
M  V30 1404 H 143.884 -4.36616 -1.68772 0
M  V30 1405 H 144.057 -6.13066 -2.09891 0
M  V30 1406 N 137.463 0.71206 -1.40597 0
M  V30 1407 C 138.373 1.8562 -1.43466 0
M  V30 1408 C 139.389 1.70902 -0.326902 0
M  V30 1409 O 140.565 1.93105 -0.572043 0
M  V30 1410 C 137.63 3.21451 -1.29884 0
M  V30 1411 C 136.691 3.48398 -2.50833 0
M  V30 1412 C 135.924 4.77749 -2.3789 0
M  V30 1413 O 136.147 5.53089 -1.39459 0
M  V30 1414 O 135.081 5.05111 -3.27333 0
M  V30 1415 H 138.907 1.86155 -2.39958 0
M  V30 1416 H 136.492 0.86295 -1.21957 0
M  V30 1417 H 138.374 4.02579 -1.24531 0
M  V30 1418 H 137.049 3.21636 -0.364997 0
M  V30 1419 H 135.956 2.67265 -2.61763 0
M  V30 1420 H 137.289 3.53014 -3.4299 0
M  V30 1421 N 138.941 1.26152 0.944643 0
M  V30 1422 C 140.166 1.14363 1.7302 0
M  V30 1423 C 140.591 -0.29772 1.85729 0
M  V30 1424 O 139.949 -1.2157 1.34501 0
M  V30 1425 C 139.997 1.81378 3.11664 0
M  V30 1426 O 139.101 1.10022 3.97453 0
M  V30 1427 H 138.442 0.398694 0.53098 0
M  V30 1428 H 140.972 1.66906 1.18337 0
M  V30 1429 H 140.982 1.88064 3.62072 0
M  V30 1430 H 139.657 2.86237 3.0173 0
M  V30 1431 H 138.234 1.11287 3.55907 0
M  V30 1432 N 140.419 -1.14872 1.07899 0
M  V30 1433 C 141.647 -1.89661 0.82683 0
M  V30 1434 C 142.062 -1.78312 -0.620519 0
M  V30 1435 O 141.419 -1.13888 -1.42604 0
M  V30 1436 C 141.47 -3.39817 1.23316 0
M  V30 1437 O 141.191 -3.50845 2.62372 0
M  V30 1438 C 142.692 -4.31615 1.0111 0
M  V30 1439 H 139.912 -0.60092 0.298557 0
M  V30 1440 H 142.456 -1.4551 1.43691 0
M  V30 1441 H 140.611 -3.8161 0.667286 0
M  V30 1442 H 141.025 -4.44076 2.79101 0
M  V30 1443 H 142.499 -5.35367 1.34486 0
M  V30 1444 H 142.976 -4.39169 -0.0522168 0
M  V30 1445 H 143.582 -3.95572 1.56215 0
M  V30 1446 N 141.898 -0.863906 -1.31812 0
M  V30 1447 C 143.147 -0.46801 -1.96195 0
M  V30 1448 C 143.46 0.983474 -1.69077 0
M  V30 1449 O 144.666 1.48523 -2.27273 0
M  V30 1450 C 143.122 -0.785995 -3.51212 0
M  V30 1451 C 142.73 -2.25383 -3.87178 0
M  V30 1452 C 144.474 -0.458274 -4.22019 0
M  V30 1453 C 142.381 -2.51455 -5.3528 0
M  V30 1454 H 141.311 -0.171283 -0.734287 0
M  V30 1455 H 143.962 -1.05597 -1.50072 0
M  V30 1456 H 142.344 -0.127359 -3.95795 0
M  V30 1457 H 143.518 -2.95502 -3.53575 0
M  V30 1458 H 141.833 -2.54698 -3.2942 0
M  V30 1459 H 144.43 -0.630369 -5.30971 0
M  V30 1460 H 144.773 0.600834 -4.11941 0
M  V30 1461 H 145.306 -1.07319 -3.8305 0
M  V30 1462 H 142.045 -3.56025 -5.50387 0
M  V30 1463 H 141.565 -1.85923 -5.70257 0
M  V30 1464 H 143.244 -2.35874 -6.02472 0
M  V30 1465 N 143.376 1.44774 -0.622745 0
M  V30 1466 C 144.792 1.56986 -0.287652 0
M  V30 1467 C 144.992 1.61167 1.20944 0
M  V30 1468 O 144.048 1.55015 1.99315 0
M  V30 1469 C 145.361 2.84551 -0.972188 0
M  V30 1470 C 146.909 2.9825 -0.949536 0
M  V30 1471 C 147.384 4.28605 -1.61437 0
M  V30 1472 N 148.875 4.35399 -1.58057 0
M  V30 1473 C 149.61 5.34964 -2.064 0
M  V30 1474 N 149.106 6.40981 -2.62897 0
M  V30 1475 N 150.899 5.26419 -1.97078 0
M  V30 1476 H 143.05 1.40304 -1.59463 0
M  V30 1477 H 145.313 0.671794 -0.668878 0
M  V30 1478 H 145.019 2.87417 -2.02693 0
M  V30 1479 H 144.893 3.73807 -0.504771 0
M  V30 1480 H 147.28 2.94941 0.0967067 0
M  V30 1481 H 147.361 2.10364 -1.45536 0
M  V30 1482 H 147.005 4.32672 -2.66002 0
M  V30 1483 H 146.935 5.15334 -1.08344 0
M  V30 1484 H 149.426 3.59397 -1.16801 0
M  V30 1485 H 149.739 7.13225 -2.97539 0
M  V30 1486 H 148.084 6.4169 -2.66943 0
M  V30 1487 H 151.275 4.42504 -1.52669 0
M  V30 1488 H 151.448 6.03861 -2.35066 0
M  V30 1489 N 144.854 0.36279 1.53368 0
M  V30 1490 C 145.817 -0.472679 2.24273 0
M  V30 1491 C 146.817 -1.012 1.24961 0
M  V30 1492 O 148.007 -0.898194 1.49259 0
M  V30 1493 C 145.139 -1.66039 2.97731 0
M  V30 1494 H 146.332 0.14773 2.99536 0
M  V30 1495 H 143.885 0.114434 1.55881 0
M  V30 1496 H 144.62 -2.31896 2.26704 0
M  V30 1497 H 144.405 -1.28066 3.70596 0
M  V30 1498 H 145.895 -2.25252 3.51641 0
M  V30 1499 N 146.332 -1.57332 0.0918853 0
M  V30 1500 C 147.262 -2.16872 -0.865371 0
M  V30 1501 C 148.243 -1.10118 -1.29646 0
M  V30 1502 O 149.428 -1.38242 -1.36392 0
M  V30 1503 C 146.558 -2.74649 -2.12569 0
M  V30 1504 C 145.512 -3.86747 -1.83333 0
M  V30 1505 C 144.838 -4.31212 -3.16166 0
M  V30 1506 C 146.138 -5.10089 -1.1228 0
M  V30 1507 H 147.832 -2.97114 -0.369307 0
M  V30 1508 H 145.378 -1.42918 -0.176194 0
M  V30 1509 H 147.331 -3.14952 -2.7997 0
M  V30 1510 H 146.055 -1.91657 -2.64452 0
M  V30 1511 H 144.714 -3.46978 -1.18331 0
M  V30 1512 H 144.362 -3.45115 -3.6593 0
M  V30 1513 H 144.062 -5.06788 -2.97388 0
M  V30 1514 H 145.586 -4.74146 -3.84731 0
M  V30 1515 H 147 -5.47582 -1.69785 0
M  V30 1516 H 145.397 -5.91073 -1.03693 0
M  V30 1517 H 146.467 -4.84786 -0.105041 0
M  V30 1518 N 147.81 0.181792 -1.56548 0
M  V30 1519 C 148.758 1.24461 -1.965 0
M  V30 1520 C 149.752 1.464 -0.852261 0
M  V30 1521 O 150.958 1.47103 -1.03733 0
M  V30 1522 H 147.333 0.418138 -0.625031 0
M  V30 1523 H 149.304 0.880714 -2.85107 0
M  V30 1524 C 148.053 2.57891 -2.33212 0
M  V30 1525 H 147.376 2.41829 -3.18369 0
M  V30 1526 H 148.816 3.3097 -2.65019 0
M  V30 1527 C 147.275 3.15871 -1.17163 0
M  V30 1528 O 147.805 3.9913 -0.453708 0
M  V30 1529 N 146.011 2.74808 -0.944936 0
M  V30 1530 H 145.558 2.07205 -1.53049 0
M  V30 1531 H 145.516 3.13939 -0.170286 0
M  V30 1532 N 149.288 1.51039 0.449983 0
M  V30 1533 C 150.251 1.70863 1.5277 0
M  V30 1534 C 151.251 0.578846 1.5002 0
M  V30 1535 O 152.441 0.846213 1.52266 0
M  V30 1536 C 149.573 1.75341 2.9235 0
M  V30 1537 H 150.766 2.67034 1.36502 0
M  V30 1538 H 148.319 1.40838 0.677812 0
M  V30 1539 H 149.054 0.809383 3.14037 0
M  V30 1540 H 148.839 2.57436 2.95752 0
M  V30 1541 H 150.329 1.92559 3.70555 0
M  V30 1542 N 150.766 -0.704594 1.40972 0
M  V30 1543 C 151.729 -1.80035 1.41845 0
M  V30 1544 C 152.729 -1.57774 0.310474 0
M  V30 1545 O 153.919 -1.64613 0.56992 0
M  V30 1546 C 151.051 -3.18284 1.22098 0
M  V30 1547 H 152.244 -1.80658 2.3938 0
M  V30 1548 H 149.797 -0.911329 1.26982 0
M  V30 1549 H 150.532 -3.23306 0.253672 0
M  V30 1550 H 150.317 -3.35843 2.02366 0
M  V30 1551 H 151.807 -3.98289 1.25522 0
M  V30 1552 N 152.244 -1.26651 -0.937939 0
M  V30 1553 C 153.492 -1.12165 -1.68118 0
M  V30 1554 C 153.813 0.334983 -1.92101 0
M  V30 1555 O 153.083 1.23583 -1.52 0
M  V30 1556 H 151.663 -0.412093 -0.623048 0
M  V30 1557 H 154.325 -1.59027 -1.12678 0
M  V30 1558 H 153.421 -1.64289 -2.6536 0
M  V30 1559 N 153.722 1.14298 -1.08507 0
M  V30 1560 C 154.969 1.85359 -0.815373 0
M  V30 1561 C 155.297 1.83001 0.658865 0
M  V30 1562 O 154.552 1.25655 1.50031 0
M  V30 1563 C 154.851 3.33547 -1.28379 0
M  V30 1564 C 154.517 3.56093 -2.76602 0
M  V30 1565 C 153.179 3.61955 -3.17084 0
M  V30 1566 C 155.531 3.64834 -3.72217 0
M  V30 1567 C 152.859 3.74082 -4.51973 0
M  V30 1568 C 155.211 3.78487 -5.06883 0
M  V30 1569 C 153.875 3.82598 -5.46969 0
M  V30 1570 H 153.145 0.678276 -0.298366 0
M  V30 1571 H 155.792 1.35002 -1.35819 0
M  V30 1572 H 154.097 3.86191 -0.660593 0
M  V30 1573 H 155.794 3.86959 -1.05186 0
M  V30 1574 H 152.384 3.52179 -2.4427 0
M  V30 1575 H 156.568 3.59595 -3.42061 0
M  V30 1576 H 151.824 3.75527 -4.82483 0
M  V30 1577 H 155.998 3.84193 -5.80834 0
M  V30 1578 H 153.625 3.91747 -6.51489 0
M  V30 1579 N 155.201 0.870884 1.31352 0
M  V30 1580 C 156.617 0.562932 1.49343 0
M  V30 1581 C 156.817 -0.902725 1.80148 0
M  V30 1582 O 155.873 -1.68484 1.88067 0
M  V30 1583 C 157.186 1.46393 2.62659 0
M  V30 1584 C 158.734 1.46607 2.76542 0
M  V30 1585 C 159.209 2.35266 3.92955 0
M  V30 1586 N 160.7 2.33151 4.00243 0
M  V30 1587 C 161.435 2.98471 4.89594 0
M  V30 1588 N 160.931 3.72964 5.8384 0
M  V30 1589 N 162.724 2.87775 4.82848 0
M  V30 1590 H 154.875 1.81923 1.09626 0
M  V30 1591 H 157.138 0.777934 0.541777 0
M  V30 1592 H 156.844 2.50689 2.46674 0
M  V30 1593 H 156.718 1.16314 3.58819 0
M  V30 1594 H 159.105 0.43069 2.9194 0
M  V30 1595 H 159.186 1.8071 1.81046 0
M  V30 1596 H 158.83 3.38881 3.78315 0
M  V30 1597 H 158.76 1.98487 4.87761 0
M  V30 1598 H 161.251 1.79006 3.32814 0
M  V30 1599 H 161.564 4.19932 6.4875 0
M  V30 1600 H 159.909 3.77073 5.83816 0
M  V30 1601 H 163.1 2.29116 4.08195 0
M  V30 1602 H 163.273 3.38961 5.52277 0
M  V30 1603 N 156.679 -1.44442 0.630414 0
M  V30 1604 C 157.928 -2.01267 0.132073 0
M  V30 1605 C 158.241 -1.50172 -1.25331 0
M  V30 1606 O 159.447 -1.9912 -1.84562 0
M  V30 1607 C 157.903 -3.59422 0.185362 0
M  V30 1608 C 157.511 -4.19514 1.57201 0
M  V30 1609 C 159.255 -4.23724 -0.256553 0
M  V30 1610 C 157.162 -5.69891 1.58045 0
M  V30 1611 H 156.092 -0.752619 0.0456092 0
M  V30 1612 H 158.743 -1.65666 0.789106 0
M  V30 1613 H 157.125 -3.92318 -0.538759 0
M  V30 1614 H 158.299 -3.98156 2.31966 0
M  V30 1615 H 156.614 -3.67496 1.95795 0
M  V30 1616 H 159.211 -5.34019 -0.269767 0
M  V30 1617 H 159.554 -3.96013 -1.28372 0
M  V30 1618 H 160.087 -3.95629 0.41505 0
M  V30 1619 H 156.826 -6.02336 2.58597 0
M  V30 1620 H 156.346 -5.93373 0.875725 0
M  V30 1621 H 158.025 -6.33515 1.31408 0
M  V30 1622 N 158.157 -0.370918 -1.53173 0
M  V30 1623 C 159.385 0.217704 -2.05751 0
M  V30 1624 C 159.8 1.42018 -1.24404 0
M  V30 1625 O 159.157 1.80245 -0.286033 0
M  V30 1626 C 159.208 0.605954 -3.56385 0
M  V30 1627 O 158.929 -0.548734 -4.3465 0
M  V30 1628 C 160.43 1.2524 -4.25241 0
M  V30 1629 H 157.65 0.0371659 -0.66997 0
M  V30 1630 H 160.194 -0.530832 -1.9749 0
M  V30 1631 H 158.349 1.3044 -3.6478 0
M  V30 1632 H 158.763 -0.23376 -5.23979 0
M  V30 1633 H 160.237 1.47458 -5.3194 0
M  V30 1634 H 160.714 2.2143 -3.79296 0
M  V30 1635 H 161.32 0.595233 -4.21114 0
M  V30 1636 N 159.635 1.57281 -0.100228 0
M  V30 1637 C 160.583 2.15542 0.874328 0
M  V30 1638 C 161.577 1.09962 1.28859 0
M  V30 1639 O 162.783 1.28298 1.26252 0
M  V30 1640 H 159.158 0.689567 0.300003 0
M  V30 1641 H 161.129 2.96241 0.35829 0
M  V30 1642 C 159.878 2.75454 2.1218 0
M  V30 1643 H 159.201 3.56384 1.81193 0
M  V30 1644 H 160.641 3.19781 2.78417 0
M  V30 1645 C 159.1 1.71602 2.89921 0
M  V30 1646 O 159.63 1.15804 3.84646 0
M  V30 1647 N 157.836 1.41975 2.53558 0
M  V30 1648 H 157.383 1.87539 1.76598 0
M  V30 1649 H 157.341 0.727274 3.05873 0
M  V30 1650 N 161.113 -0.173488 1.56642 0
M  V30 1651 C 162.362 -0.888758 1.81063 0
M  V30 1652 C 162.675 -1.83506 0.67712 0
M  V30 1653 O 163.881 -2.59254 0.806206 0
M  V30 1654 C 162.337 -1.63091 3.20826 0
M  V30 1655 C 161.945 -0.728357 4.4204 0
M  V30 1656 C 163.689 -2.33454 3.54541 0
M  V30 1657 C 161.596 -1.47062 5.72823 0
M  V30 1658 H 160.526 -0.335618 0.675186 0
M  V30 1659 H 163.177 -0.141712 1.82952 0
M  V30 1660 H 161.559 -2.42263 3.13248 0
M  V30 1661 H 162.733 0.0262449 4.60793 0
M  V30 1662 H 161.048 -0.134492 4.16183 0
M  V30 1663 H 163.645 -2.89578 4.49498 0
M  V30 1664 H 163.988 -3.08687 2.79317 0
M  V30 1665 H 164.521 -1.61227 3.63663 0
M  V30 1666 H 161.26 -0.760658 6.51072 0
M  V30 1667 H 160.78 -2.1986 5.58052 0
M  V30 1668 H 162.459 -2.01868 6.14702 0
M  V30 1669 N 162.591 -1.51276 -0.441967 0
M  V30 1670 C 163.819 -1.67516 -1.21434 0
M  V30 1671 C 164.234 -0.37055 -1.85128 0
M  V30 1672 O 163.591 0.650498 -1.70513 0
M  V30 1673 C 163.642 -2.78748 -2.30177 0
M  V30 1674 O 163.363 -4.04154 -1.69089 0
M  V30 1675 C 164.864 -3.06217 -3.20541 0
M  V30 1676 H 162.084 -0.562276 -0.366178 0
M  V30 1677 H 164.628 -1.97666 -0.524244 0
M  V30 1678 H 162.783 -2.5121 -2.94911 0
M  V30 1679 H 163.197 -4.65894 -2.40922 0
M  V30 1680 H 164.671 -3.8764 -3.92987 0
M  V30 1681 H 165.148 -2.18439 -3.81026 0
M  V30 1682 H 165.754 -3.35397 -2.61513 0
M  V30 1683 N 164.069 0.697108 -1.41344 0
M  V30 1684 C 165.346 1.45154 -1.31109 0
M  V30 1685 C 165.726 2.11009 0.0620449 0
M  V30 1686 O 165.074 2.01571 1.07618 0
M  V30 1687 C 165.284 2.47223 -2.46337 0
M  V30 1688 C 166.632 3.1252 -2.87431 0
M  V30 1689 O 167.656 2.57547 -2.46065 0
M  V30 1690 O 166.515 4.12083 -3.58957 0
M  V30 1691 H 163.609 0.646365 -0.515889 0
M  V30 1692 H 166.155 0.727716 -1.53305 0
M  V30 1693 H 164.927 1.97204 -3.37974 0
M  V30 1694 H 164.55 3.27116 -2.2601 0
M  V30 1695 N 165.547 1.27147 0.931209 0
M  V30 1696 C 166.793 1.13446 1.68101 0
M  V30 1697 C 167.126 -0.319628 1.91552 0
M  V30 1698 O 166.401 -1.23407 1.50336 0
M  V30 1699 C 166.684 1.91482 3.0497 0
M  V30 1700 C 166.537 3.44855 2.88782 0
M  V30 1701 C 167.856 1.71651 4.05246 0
M  V30 1702 H 164.975 0.413498 0.610072 0
M  V30 1703 H 167.617 1.56261 1.08086 0
M  V30 1704 H 165.767 1.55095 3.56199 0
M  V30 1705 H 167.439 3.9105 2.44698 0
M  V30 1706 H 165.682 3.71373 2.24198 0
M  V30 1707 H 166.353 3.94694 3.85902 0
M  V30 1708 H 168.829 2.0337 3.63015 0
M  V30 1709 H 167.705 2.28651 4.99009 0
M  V30 1710 H 167.966 0.663555 4.37092 0
M  V30 1711 N 167.025 -1.13721 1.09112 0
M  V30 1712 C 168.253 -1.88773 0.846899 0
M  V30 1713 C 168.668 -1.7896 -0.601572 0
M  V30 1714 O 168.025 -1.15394 -1.41388 0
M  V30 1715 C 168.076 -3.3849 1.26913 0
M  V30 1716 O 167.797 -3.48043 2.66079 0
M  V30 1717 C 169.298 -4.30518 1.05682 0
M  V30 1718 H 166.518 -0.59772 0.304914 0
M  V30 1719 H 169.062 -1.43977 1.45227 0
M  V30 1720 H 167.217 -3.80881 0.707723 0
M  V30 1721 H 167.631 -4.4109 2.83795 0
M  V30 1722 H 169.105 -5.3391 1.40156 0
M  V30 1723 H 169.582 -4.392 -0.00563416 0
M  V30 1724 H 170.188 -3.93893 1.60402 0
M  V30 1725 N 168.503 -0.877838 -1.30888 0
M  V30 1726 C 169.914 -0.544193 -1.78593 0
M  V30 1727 C 170.265 0.939301 -1.72254 0
M  V30 1728 O 169.39 1.7337 -1.29505 0
M  V30 1729 C 169.985 -0.98105 -3.24285 0
M  V30 1730 C 168.544 -0.698935 -3.69854 0
M  V30 1731 C 167.691 -1.168 -2.51502 0
M  V30 1732 H 170.642 -1.06278 -1.17859 0
M  V30 1733 H 170.663 -0.307009 -3.79259 0
M  V30 1734 H 170.175 -2.06079 -3.28866 0
M  V30 1735 H 168.276 0.369112 -3.70767 0
M  V30 1736 H 168.389 -1.28148 -4.61644 0
M  V30 1737 H 166.753 -0.587535 -2.47831 0
M  V30 1738 H 167.536 -2.25533 -2.58824 0
M  V30 1739 N 169.982 1.44106 -0.638065 0
M  V30 1740 C 171.231 2.01194 -0.142744 0
M  V30 1741 C 171.544 1.50835 1.24532 0
M  V30 1742 O 172.75 2.00096 1.83504 0
M  V30 1743 C 171.206 3.59319 -0.20442 0
M  V30 1744 C 170.814 4.18674 -1.59423 0
M  V30 1745 C 172.558 4.23854 0.234079 0
M  V30 1746 C 170.465 5.69045 -1.61065 0
M  V30 1747 H 169.395 0.752367 -0.0495998 0
M  V30 1748 H 172.046 1.65246 -0.797881 0
M  V30 1749 H 170.428 3.92598 0.517946 0
M  V30 1750 H 171.602 3.96921 -2.34074 0
M  V30 1751 H 169.917 3.66453 -1.97741 0
M  V30 1752 H 172.514 5.34155 0.241443 0
M  V30 1753 H 172.857 3.96688 1.2627 0
M  V30 1754 H 173.39 3.95403 -0.436025 0
M  V30 1755 H 170.129 6.00956 -2.61787 0
M  V30 1756 H 169.649 5.929 -0.90718 0
M  V30 1757 H 171.328 6.32809 -1.34766 0
M  V30 1758 N 171.46 0.379036 1.52974 0
M  V30 1759 C 172.871 -0.0972525 1.86447 0
M  V30 1760 C 173.222 -1.47027 1.29914 0
M  V30 1761 O 172.347 -2.07135 0.626433 0
M  V30 1762 C 172.942 -0.183248 3.38304 0
M  V30 1763 C 171.501 -0.603812 3.71525 0
M  V30 1764 C 170.648 0.240632 2.76254 0
M  V30 1765 H 173.599 0.597316 1.4703 0
M  V30 1766 H 173.62 -1.00432 3.67006 0
M  V30 1767 H 173.132 0.816191 3.79421 0
M  V30 1768 H 171.233 -1.61099 3.35973 0
M  V30 1769 H 171.346 -0.369086 4.77676 0
M  V30 1770 H 169.71 -0.292548 2.53014 0
M  V30 1771 H 170.493 1.23786 3.20206 0
M  V30 1772 N 172.938 -1.57226 0.108567 0
M  V30 1773 C 173.888 -2.11305 -0.856396 0
M  V30 1774 C 174.872 -1.03129 -1.23504 0
M  V30 1775 O 176.064 -1.29381 -1.20787 0
M  V30 1776 C 173.193 -2.70771 -2.11041 0
M  V30 1777 C 172.279 -3.86011 -1.7566 0
M  V30 1778 N 172.67 -4.93492 -1.10902 0
M  V30 1779 C 170.968 -3.95999 -2.05185 0
M  V30 1780 C 171.669 -5.73984 -0.944308 0
M  V30 1781 N 170.645 -5.2346 -1.46596 0
M  V30 1782 H 174.447 -2.91784 -0.352002 0
M  V30 1783 H 171.961 -1.62126 -0.0942324 0
M  V30 1784 H 173.958 -3.07851 -2.81128 0
M  V30 1785 H 172.618 -1.91751 -2.62034 0
M  V30 1786 H 173.629 -5.1208 -0.774235 0
M  V30 1787 H 170.306 -3.28007 -2.58298 0
M  V30 1788 H 171.696 -6.70479 -0.436813 0
M  V30 1789 N 174.416 0.165178 -1.56732 0
M  V30 1790 C 175.364 1.22369 -1.97809 0
M  V30 1791 C 176.358 1.45488 -0.867741 0
M  V30 1792 O 177.564 1.45995 -1.05288 0
M  V30 1793 H 173.939 0.411486 -0.629431 0
M  V30 1794 H 175.91 0.850425 -2.86025 0
M  V30 1795 C 174.659 2.55403 -2.35934 0
M  V30 1796 H 173.982 2.38438 -3.20916 0
M  V30 1797 H 175.422 3.2814 -2.68514 0
M  V30 1798 C 173.881 3.14611 -1.20506 0
M  V30 1799 O 174.411 3.98626 -0.496016 0
M  V30 1800 N 172.617 2.7379 -0.97403 0
M  V30 1801 H 172.164 2.0557 -1.55238 0
M  V30 1802 H 172.122 3.1374 -0.203573 0
M  V30 1803 N 175.894 1.51508 0.433938 0
M  V30 1804 C 177.142 1.6402 1.18075 0
M  V30 1805 C 177.463 0.360328 1.91642 0
M  V30 1806 O 176.733 -0.623945 1.85698 0
M  V30 1807 H 175.313 0.6045 0.43885 0
M  V30 1808 H 177.975 1.88452 0.497178 0
M  V30 1809 H 177.071 2.46949 1.90847 0
M  V30 1810 N 177.372 -0.689602 1.41712 0
M  V30 1811 C 178.612 -1.46184 1.42862 0
M  V30 1812 C 178.976 -1.91962 0.0382204 0
M  V30 1813 O 180.177 -2.68694 -0.0755019 0
M  V30 1814 C 178.448 -2.6371 2.4123 0
M  V30 1815 S 180.007 -3.52768 2.6096 0
M  V30 1816 H 176.825 -0.49947 0.506015 0
M  V30 1817 H 179.427 -0.804107 1.78198 0
M  V30 1818 H 178.131 -2.28293 3.41044 0
M  V30 1819 H 177.662 -3.3437 2.07269 0
M  V30 1820 H 179.677 -4.59146 1.88148 0
M  V30 1821 N 178.85 -1.27639 -0.924453 0
M  V30 1822 C 180.266 -1.05113 -1.20097 0
M  V30 1823 C 180.466 0.213262 -2.00368 0
M  V30 1824 O 179.522 0.91787 -2.35226 0
M  V30 1825 C 180.835 -2.29244 -1.94596 0
M  V30 1826 C 182.383 -2.34315 -2.07522 0
M  V30 1827 C 182.858 -3.58183 -2.85427 0
M  V30 1828 N 184.349 -3.5876 -2.92994 0
M  V30 1829 C 185.084 -4.51277 -3.53746 0
M  V30 1830 N 184.58 -5.54102 -4.15863 0
M  V30 1831 N 186.373 -4.38894 -3.51181 0
M  V30 1832 H 178.524 -2.08821 -0.388264 0
M  V30 1833 H 180.787 -0.918568 -0.234385 0
M  V30 1834 H 180.493 -3.21301 -1.43034 0
M  V30 1835 H 180.367 -2.34816 -2.95197 0
M  V30 1836 H 182.754 -1.42762 -2.58269 0
M  V30 1837 H 182.835 -2.32744 -1.06131 0
M  V30 1838 H 182.479 -4.50074 -2.35363 0
M  V30 1839 H 182.409 -3.57006 -3.8711 0
M  V30 1840 H 184.9 -2.84398 -2.4885 0
M  V30 1841 H 185.213 -6.20859 -4.60168 0
M  V30 1842 H 183.558 -5.57941 -4.144 0
M  V30 1843 H 186.749 -3.57772 -3.01856 0
M  V30 1844 H 186.922 -5.11186 -3.98237 0
M  V30 1845 N 180.328 1.1314 -1.09713 0
M  V30 1846 C 181.739 1.66029 -0.853885 0
M  V30 1847 C 182.09 1.86241 0.617142 0
M  V30 1848 O 181.215 1.5834 1.47503 0
M  V30 1849 C 181.81 3.01599 -1.5435 0
M  V30 1850 C 180.369 3.51467 -1.34714 0
M  V30 1851 C 179.516 2.26648 -1.59769 0
M  V30 1852 H 182.467 0.970226 -1.25588 0
M  V30 1853 H 182.488 3.67709 -0.978267 0
M  V30 1854 H 182 2.86856 -2.6141 0
M  V30 1855 H 180.101 3.71408 -0.297838 0
M  V30 1856 H 180.214 4.314 -2.08401 0
M  V30 1857 H 178.578 2.33385 -1.01998 0
M  V30 1858 H 179.361 2.14467 -2.68065 0
M  V30 1859 N 181.806 0.884767 1.30421 0
M  V30 1860 C 183.217 0.553656 1.78302 0
M  V30 1861 C 183.568 -0.930153 1.7275 0
M  V30 1862 O 182.693 -1.72681 1.30423 0
M  V30 1863 C 183.288 0.998234 3.2376 0
M  V30 1864 C 181.847 0.71854 3.69478 0
M  V30 1865 C 180.994 1.18132 2.50879 0
M  V30 1866 H 183.945 1.06901 1.17294 0
M  V30 1867 H 183.966 0.327118 3.79091 0
M  V30 1868 H 183.478 2.0782 3.27769 0
M  V30 1869 H 181.579 -0.349444 3.70958 0
M  V30 1870 H 181.692 1.30595 4.60958 0
M  V30 1871 H 180.056 0.600669 2.47516 0
M  V30 1872 H 180.839 2.26902 2.57624 0
M  V30 1873 N 183.284 -1.43765 0.645699 0
M  V30 1874 C 184.231 -2.30745 -0.0504648 0
M  V30 1875 C 185.201 -1.4432 -0.822241 0
M  V30 1876 O 186.386 -1.73202 -0.800358 0
M  V30 1877 C 183.526 -3.29802 -1.0161 0
M  V30 1878 C 182.639 -4.31326 -0.241219 0
M  V30 1879 C 181.774 -5.17469 -1.19998 0
M  V30 1880 C 180.813 -6.10691 -0.415094 0
M  V30 1881 N 179.95 -6.89483 -1.32506 0
M  V30 1882 H 184.79 -2.8973 0.697155 0
M  V30 1883 H 182.327 -1.42738 0.355563 0
M  V30 1884 H 184.285 -3.85734 -1.58949 0
M  V30 1885 H 182.915 -2.72483 -1.73069 0
M  V30 1886 H 181.967 -3.77749 0.448334 0
M  V30 1887 H 183.279 -4.9743 0.369437 0
M  V30 1888 H 182.433 -5.7799 -1.84424 0
M  V30 1889 H 181.172 -4.51473 -1.84455 0
M  V30 1890 H 180.177 -5.49265 0.242565 0
M  V30 1891 H 181.402 -6.78727 0.224966 0
M  V30 1892 H 179.348 -6.26142 -1.95657 0
M  V30 1893 H 179.265 -7.52081 -0.768783 0
M  V30 1894 H 180.533 -7.54516 -1.9577 0
M  V30 1895 N 184.763 -0.387143 -1.52771 0
M  V30 1896 C 185.71 0.449048 -2.26389 0
M  V30 1897 C 186.68 1.05961 -1.27912 0
M  V30 1898 O 187.865 1.08804 -1.56737 0
M  V30 1899 C 185.005 1.57155 -3.0724 0
M  V30 1900 C 184.118 0.984066 -4.20643 0
M  V30 1901 C 183.253 2.07745 -4.88892 0
M  V30 1902 C 182.292 1.46574 -5.94292 0
M  V30 1903 N 181.429 2.49834 -6.56146 0
M  V30 1904 H 186.269 -0.185205 -2.97424 0
M  V30 1905 H 183.806 -0.103164 -1.46738 0
M  V30 1906 H 185.764 2.23309 -3.52405 0
M  V30 1907 H 184.394 2.17615 -2.38419 0
M  V30 1908 H 183.446 0.212193 -3.79808 0
M  V30 1909 H 184.758 0.497029 -4.96318 0
M  V30 1910 H 183.912 2.81673 -5.3735 0
M  V30 1911 H 182.651 2.59807 -4.12737 0
M  V30 1912 H 181.656 0.711696 -5.45174 0
M  V30 1913 H 182.881 0.953088 -6.72379 0
M  V30 1914 H 180.827 3.0107 -5.82832 0
M  V30 1915 H 180.744 2.05879 -7.27427 0
M  V30 1916 H 182.012 3.23399 -7.09249 0
M  V30 1917 N 186.241 1.57166 -0.116904 0
M  V30 1918 C 187.657 1.5779 0.239693 0
M  V30 1919 C 187.857 1.1295 1.66867 0
M  V30 1920 O 186.913 0.81592 2.38954 0
M  V30 1921 C 188.226 3.00699 0.00828202 0
M  V30 1922 C 189.774 3.12912 0.0743438 0
M  V30 1923 C 190.249 4.57817 -0.129348 0
M  V30 1924 N 191.74 4.63139 -0.075247 0
M  V30 1925 C 192.475 5.73023 -0.207788 0
M  V30 1926 N 191.971 6.91665 -0.396382 0
M  V30 1927 N 193.764 5.61906 -0.14751 0
M  V30 1928 H 185.915 1.84615 -1.05029 0
M  V30 1929 H 188.178 0.85311 -0.41341 0
M  V30 1930 H 187.884 3.37784 -0.979531 0
M  V30 1931 H 187.758 3.69848 0.741077 0
M  V30 1932 H 190.145 2.75686 1.05268 0
M  V30 1933 H 190.226 2.4631 -0.690297 0
M  V30 1934 H 189.87 4.95742 -1.10465 0
M  V30 1935 H 189.8 5.22507 0.655253 0
M  V30 1936 H 192.291 3.7784 0.0670898 0
M  V30 1937 H 192.604 7.71255 -0.488437 0
M  V30 1938 H 190.949 6.93654 -0.432329 0
M  V30 1939 H 194.14 4.681 -0.00115036 0
M  V30 1940 H 194.313 6.47501 -0.254247 0
M  V30 1941 N 187.719 -0.156864 1.56817 0
M  V30 1942 C 189.135 -0.50916 1.5126 0
M  V30 1943 C 189.335 -1.83897 0.823658 0
M  V30 1944 O 188.391 -2.49469 0.390055 0
M  V30 1945 C 189.704 -0.52857 2.96018 0
M  V30 1946 C 191.252 -0.614771 3.06903 0
M  V30 1947 C 191.727 -0.664938 4.53147 0
M  V30 1948 N 193.218 -0.727433 4.57452 0
M  V30 1949 C 193.953 -0.787067 5.67973 0
M  V30 1950 N 193.449 -0.806649 6.88088 0
M  V30 1951 N 195.242 -0.827195 5.5598 0
M  V30 1952 H 187.393 0.714935 2.00006 0
M  V30 1953 H 189.656 0.259526 0.911784 0
M  V30 1954 H 189.362 0.380154 3.49639 0
M  V30 1955 H 189.236 -1.36998 3.51442 0
M  V30 1956 H 191.623 -1.51392 2.53307 0
M  V30 1957 H 191.704 0.253597 2.5454 0
M  V30 1958 H 191.348 0.230011 5.07379 0
M  V30 1959 H 191.278 -1.54966 5.03282 0
M  V30 1960 H 193.769 -0.719998 3.70978 0
M  V30 1961 H 194.082 -0.853727 7.6807 0
M  V30 1962 H 192.427 -0.774687 6.90669 0
M  V30 1963 H 195.618 -0.808998 4.61056 0
M  V30 1964 H 195.791 -0.870206 6.4213 0
M  V30 1965 N 189.197 -1.51736 -0.425897 0
M  V30 1966 C 190.443 -1.65214 -1.1761 0
M  V30 1967 C 190.776 -0.372778 -1.90589 0
M  V30 1968 O 190.051 0.628139 -1.84078 0
M  V30 1969 C 190.334 -2.86312 -2.18398 0
M  V30 1970 C 190.187 -4.24254 -1.49426 0
M  V30 1971 C 191.506 -3.02925 -3.19256 0
M  V30 1972 H 188.625 -0.601263 -0.426206 0
M  V30 1973 H 191.267 -1.8425 -0.463882 0
M  V30 1974 H 189.417 -2.70213 -2.79137 0
M  V30 1975 H 191.089 -4.52046 -0.919362 0
M  V30 1976 H 189.332 -4.26426 -0.796432 0
M  V30 1977 H 190.003 -5.05001 -2.22885 0
M  V30 1978 H 192.479 -3.1781 -2.68581 0
M  V30 1979 H 191.355 -3.89199 -3.8706 0
M  V30 1980 H 191.616 -2.15497 -3.86023 0
M  V30 1981 O 190.714 0.571711 -1.51042 0
M  V30 1982 H 191.405 1.22676 -1.49901 0
M  V30 END ATOM
M  V30 BEGIN BOND
M  V30 END BOND
M  V30 END CTAB
M  END
$$$$
