drugbank_target|Q9X0V0 Mannoside ABC transport system, sugar-binding protein (DB01942)
 OpenBabel12092120233D

  0  0  0     0  0            999 V3000
M  V30 BEGIN CTAB
M  V30 COUNTS 8984 9136 0 0 0
M  V30 BEGIN ATOM
M  V30 1 H -0.908 1.98254 -0.117106 0
M  V30 2 N 0 1.576 0 0
M  V30 3 C 0.933 2.03868 1.02534 0
M  V30 4 C 1.911 0.928543 1.3348 0
M  V30 5 O 3.095 1.19667 1.45644 0
M  V30 6 C 0.222 2.43627 2.35294 0
M  V30 7 C -0.732 3.65373 2.2001 0
M  V30 8 S 0.101 5.13292 1.52614 0
M  V30 9 C 1.257 5.56322 2.86805 0
M  V30 10 H 1.49 2.90518 0.631377 0
M  V30 11 H -0.977 1.52953 0.210867 0
M  V30 12 H 0.981 2.67203 3.11629 0
M  V30 13 H -0.358 1.57376 2.7183 0
M  V30 14 H -1.165 3.90944 3.18086 0
M  V30 15 H -1.563 3.418 1.51819 0
M  V30 16 H 0.729 5.58782 3.83104 0
M  V30 17 H 1.672 6.56266 2.65933 0
M  V30 18 H 2.08 4.83886 2.90714 0
M  V30 19 N 1.4781 -0.272755 1.55222 0
M  V30 20 C 2.4251 -1.33716 1.88119 0
M  V30 21 C 3.3951 -1.49066 0.73271 0
M  V30 22 O 4.5801 -1.63469 0.984002 0
M  V30 23 C 1.7201 -2.69238 2.15882 0
M  V30 24 C 0.8331 -2.62108 3.43399 0
M  V30 25 C -0.0319 -3.89811 3.60861 0
M  V30 26 C -0.9929 -3.77193 4.8207 0
M  V30 27 N -1.8559 -4.9673 4.96189 0
M  V30 28 H 2.9841 -1.04962 2.78903 0
M  V30 29 H 0.5211 -0.507088 1.38083 0
M  V30 30 H 2.4791 -3.48089 2.29978 0
M  V30 31 H 1.1091 -2.96194 1.28331 0
M  V30 32 H 0.1611 -1.74967 3.37773 0
M  V30 33 H 1.4731 -2.48685 4.32386 0
M  V30 34 H 0.6271 -4.77103 3.74777 0
M  V30 35 H -0.6339 -4.06102 2.7006 0
M  V30 36 H -1.6289 -2.88284 4.68159 0
M  V30 37 H -0.4039 -3.62421 5.74307 0
M  V30 38 H -2.4579 -5.13431 4.08319 0
M  V30 39 H -2.5409 -4.85839 5.79221 0
M  V30 40 H -1.2729 -5.85594 5.1449 0
M  V30 41 N 2.9562 -1.48159 -0.537278 0
M  V30 42 C 4.3722 -1.34118 -0.865129 0
M  V30 43 C 4.5722 -0.346678 -1.98495 0
M  V30 44 O 3.6282 0.234715 -2.51407 0
M  V30 45 C 4.9412 -2.73963 -1.23954 0
M  V30 46 C 6.4892 -2.82397 -1.34984 0
M  V30 47 C 6.9642 -4.22928 -1.75772 0
M  V30 48 N 8.4552 -4.25566 -1.82887 0
M  V30 49 C 9.1902 -5.31235 -2.15817 0
M  V30 50 N 8.6862 -6.47189 -2.47222 0
M  V30 51 N 10.4792 -5.18624 -2.16761 0
M  V30 52 H 2.6302 -2.1144 0.201715 0
M  V30 53 H 4.8932 -0.947598 0.0275949 0
M  V30 54 H 4.5992 -3.48264 -0.490381 0
M  V30 55 H 4.4732 -3.0702 -2.19132 0
M  V30 56 H 6.8602 -2.08356 -2.08978 0
M  V30 57 H 6.9412 -2.5297 -0.379448 0
M  V30 58 H 6.5852 -4.97482 -1.02341 0
M  V30 59 H 6.5152 -4.49794 -2.73848 0
M  V30 60 H 9.0062 -3.41924 -1.60924 0
M  V30 61 H 9.3192 -7.23564 -2.71433 0
M  V30 62 H 7.6642 -6.50476 -2.44757 0
M  V30 63 H 10.8552 -4.27056 -1.91679 0
M  V30 64 H 11.0282 -6.01078 -2.42093 0
M  V30 65 N 4.4343 0.785586 -1.36625 0
M  V30 66 C 5.6813 1.54362 -1.31067 0
M  V30 67 C 6.0093 1.94195 0.10893 0
M  V30 68 O 5.2643 1.63262 1.07908 0
M  V30 69 C 5.5633 2.83007 -2.1827 0
M  V30 70 C 5.2293 2.62294 -3.6676 0
M  V30 71 C 3.8913 2.56353 -4.0723 0
M  V30 72 C 6.2433 2.43371 -4.6089 0
M  V30 73 C 3.5713 2.29461 -5.39967 0
M  V30 74 C 5.9233 2.18005 -5.93849 0
M  V30 75 C 4.5873 2.105 -6.3344 0
M  V30 76 H 3.8573 0.564851 -0.479609 0
M  V30 77 H 6.5043 0.906028 -1.68711 0
M  V30 78 H 4.8093 3.51253 -1.73576 0
M  V30 79 H 6.5063 3.40817 -2.11292 0
M  V30 80 H 3.0963 2.67774 -3.34656 0
M  V30 81 H 7.2803 2.46959 -4.30494 0
M  V30 82 H 2.5363 2.22135 -5.69619 0
M  V30 83 H 6.7103 2.02359 -6.66351 0
M  V30 84 H 4.3373 1.89425 -7.36222 0
M  V30 85 N 5.9124 1.20967 1.01018 0
M  V30 86 C 6.8424 0.988272 2.11555 0
M  V30 87 C 7.8234 -0.0849778 1.69888 0
M  V30 88 O 9.0084 0.0738202 1.9406 0
M  V30 89 C 6.1384 0.546528 3.42973 0
M  V30 90 C 5.0924 1.56375 3.9841 0
M  V30 91 C 4.4184 0.97842 5.25672 0
M  V30 92 C 5.7184 2.94922 4.31066 0
M  V30 93 H 7.4124 1.91276 2.30334 0
M  V30 94 H 4.9584 0.921073 1.1069 0
M  V30 95 H 6.9114 0.378839 4.19694 0
M  V30 96 H 5.6354 -0.413598 3.23971 0
M  V30 97 H 4.2944 1.71891 3.23804 0
M  V30 98 H 3.9424 0.0101688 5.02999 0
M  V30 99 H 3.6424 1.65784 5.63728 0
M  V30 100 H 5.1664 0.821939 6.05043 0
M  V30 101 H 6.5804 2.8288 4.9865 0
M  V30 102 H 4.9774 3.5983 4.80253 0
M  V30 103 H 6.0474 3.4616 3.39561 0
M  V30 104 N 7.3905 -1.2043 1.01659 0
M  V30 105 C 8.6365 -1.90079 0.706963 0
M  V30 106 C 8.9695 -1.78648 -0.761474 0
M  V30 107 O 8.2445 -1.17069 -1.55323 0
M  V30 108 C 8.5275 -3.41469 1.14327 0
M  V30 109 C 8.3805 -3.61833 2.67201 0
M  V30 110 C 9.6995 -4.34261 0.714529 0
M  V30 111 H 6.8185 -0.690254 0.2583 0
M  V30 112 H 9.4605 -1.41826 1.26433 0
M  V30 113 H 7.6105 -3.82696 0.669056 0
M  V30 114 H 9.2825 -3.2986 3.22475 0
M  V30 115 H 7.5255 -3.05304 3.08175 0
M  V30 116 H 8.1965 -4.67955 2.92783 0
M  V30 117 H 10.6725 -4.00682 1.12221 0
M  V30 118 H 9.5485 -5.38806 1.04784 0
M  V30 119 H 9.8095 -4.40431 -0.383799 0
M  V30 120 N 8.8686 -0.792821 -1.36206 0
M  V30 121 C 10.1146 -0.36733 -1.99446 0
M  V30 122 C 10.4476 1.05917 -1.62774 0
M  V30 123 O 9.7226 1.7324 -0.88421 0
M  V30 124 C 10.0056 -0.535044 -3.56103 0
M  V30 125 C 9.8586 -2.00548 -4.02617 0
M  V30 126 C 11.1776 0.0478191 -4.40074 0
M  V30 127 H 8.2966 -0.134941 -0.724541 0
M  V30 128 H 10.9386 -0.999794 -1.61568 0
M  V30 129 H 9.0886 0.00336329 -3.885 0
M  V30 130 H 10.7606 -2.60521 -3.80692 0
M  V30 131 H 9.0036 -2.50686 -3.54032 0
M  V30 132 H 9.6746 -2.07377 -5.11565 0
M  V30 133 H 12.1506 -0.411822 -4.14057 0
M  V30 134 H 11.0266 -0.0995336 -5.4881 0
M  V30 135 H 11.2876 1.14025 -4.27142 0
M  V30 136 N 10.3467 1.47872 -0.545128 0
M  V30 137 C 11.2767 2.32661 0.197793 0
M  V30 138 C 12.2577 1.43041 0.920504 0
M  V30 139 O 13.4427 1.71912 0.90333 0
M  V30 140 C 10.5727 3.24569 1.23582 0
M  V30 141 C 9.5267 4.23333 0.630323 0
M  V30 142 C 8.8527 5.0448 1.77211 0
M  V30 143 C 10.1527 5.20704 -0.407974 0
M  V30 144 H 11.8467 2.95024 -0.510045 0
M  V30 145 H 9.3927 1.4187 -0.246731 0
M  V30 146 H 11.3457 3.8272 1.76362 0
M  V30 147 H 10.0697 2.60236 1.97344 0
M  V30 148 H 8.7287 3.6639 0.123922 0
M  V30 149 H 8.3767 4.36561 2.49847 0
M  V30 150 H 8.0767 5.71339 1.37281 0
M  V30 151 H 9.6007 5.65487 2.3034 0
M  V30 152 H 11.0147 5.7329 0.033305 0
M  V30 153 H 9.4117 5.95699 -0.725486 0
M  V30 154 H 10.4817 4.66917 -1.30828 0
M  V30 155 N 11.8248 0.280983 1.55075 0
M  V30 156 C 13.0708 -0.33461 2.00021 0
M  V30 157 C 13.4038 -1.55063 1.16915 0
M  V30 158 O 12.6788 -1.93006 0.240646 0
M  V30 159 C 12.9618 -0.711007 3.53011 0
M  V30 160 C 12.8148 0.512766 4.46868 0
M  V30 161 C 14.1338 -1.54522 4.12081 0
M  V30 162 H 11.2528 -0.120147 0.727141 0
M  V30 163 H 13.8948 0.389097 1.85973 0
M  V30 164 H 12.0448 -1.32761 3.65112 0
M  V30 165 H 13.7168 1.15131 4.46702 0
M  V30 166 H 11.9598 1.14975 4.18286 0
M  V30 167 H 12.6308 0.205556 5.51617 0
M  V30 168 H 15.1068 -1.02442 4.03293 0
M  V30 169 H 13.9828 -1.77739 5.19327 0
M  V30 170 H 14.2438 -2.52813 3.62682 0
M  V30 171 N 13.3029 -1.57598 0.00835791 0
M  V30 172 C 14.2329 -2.1198 -0.979113 0
M  V30 173 C 15.2139 -1.03091 -1.35301 0
M  V30 174 O 16.3989 -1.30818 -1.43528 0
M  V30 175 C 13.5289 -2.62995 -2.26828 0
M  V30 176 C 12.4829 -3.76485 -2.03576 0
M  V30 177 C 11.8089 -4.13846 -3.38579 0
M  V30 178 C 13.1089 -5.0342 -1.39161 0
M  V30 179 H 14.8029 -2.94738 -0.526281 0
M  V30 180 H 12.3489 -1.41783 -0.251704 0
M  V30 181 H 14.3019 -2.99669 -2.96271 0
M  V30 182 H 13.0259 -1.7737 -2.7424 0
M  V30 183 H 11.6849 -3.40217 -1.36557 0
M  V30 184 H 11.3329 -3.25232 -3.83709 0
M  V30 185 H 11.0329 -4.90312 -3.23834 0
M  V30 186 H 12.5569 -4.53086 -4.09323 0
M  V30 187 H 13.9709 -5.37812 -1.98573 0
M  V30 188 H 12.3679 -5.84746 -1.34878 0
M  V30 189 H 13.4379 -4.83548 -0.361868 0
M  V30 190 N 14.781 0.264519 -1.55364 0
M  V30 191 C 16.027 0.99646 -1.76631 0
M  V30 192 C 16.36 1.85632 -0.570478 0
M  V30 193 O 15.635 1.89647 0.43175 0
M  V30 194 C 15.918 1.87187 -3.07625 0
M  V30 195 C 15.771 1.04138 -4.37579 0
M  V30 196 C 17.09 2.85749 -3.34717 0
M  V30 197 H 14.209 0.360841 -0.642622 0
M  V30 198 H 16.851 0.268218 -1.88097 0
M  V30 199 H 15.001 2.49279 -2.9798 0
M  V30 200 H 16.673 0.440517 -4.59192 0
M  V30 201 H 14.916 0.345115 -4.32425 0
M  V30 202 H 15.587 1.68729 -5.2558 0
M  V30 203 H 18.063 2.33793 -3.4421 0
M  V30 204 H 16.939 3.44136 -4.27623 0
M  V30 205 H 17.2 3.61311 -2.54768 0
M  V30 206 N 16.2591 1.48442 0.529413 0
M  V30 207 C 17.1891 1.65902 1.64313 0
M  V30 208 C 18.1701 0.507897 1.6234 0
M  V30 209 O 19.3551 0.740503 1.79528 0
M  V30 210 C 16.4851 1.69911 3.02898 0
M  V30 211 C 15.4391 2.8453 3.19729 0
M  V30 212 C 14.7651 2.73629 4.59381 0
M  V30 213 C 16.0651 4.25821 3.02447 0
M  V30 214 H 17.7591 2.5914 1.49955 0
M  V30 215 H 15.3051 1.24709 0.719982 0
M  V30 216 H 17.2581 1.80715 3.80684 0
M  V30 217 H 15.9821 0.732524 3.18279 0
M  V30 218 H 14.6411 2.73283 2.44361 0
M  V30 219 H 14.2891 1.74938 4.71599 0
M  V30 220 H 13.9891 3.50541 4.71588 0
M  V30 221 H 15.5131 2.86401 5.39265 0
M  V30 222 H 16.9271 4.37898 3.70024 0
M  V30 223 H 15.3241 5.03735 3.26146 0
M  V30 224 H 16.3941 4.42244 1.98867 0
M  V30 225 N 17.7372 -0.778329 1.37039 0
M  V30 226 C 18.7002 -1.87301 1.32102 0
M  V30 227 C 19.7002 -1.59198 0.226405 0
M  V30 228 O 20.8902 -1.67403 0.481861 0
M  V30 229 C 18.0222 -3.24309 1.05055 0
M  V30 230 H 19.2152 -1.93093 2.29467 0
M  V30 231 H 16.7682 -0.977358 1.21973 0
M  V30 232 H 17.5032 -3.24196 0.0819373 0
M  V30 233 H 17.2882 -3.46098 1.84279 0
M  V30 234 H 18.7782 -4.04382 1.04234 0
M  V30 235 N 19.2153 -1.21501 -1.00376 0
M  V30 236 C 20.1453 -0.999478 -2.11028 0
M  V30 237 C 21.1263 0.0759671 -1.6993 0
M  V30 238 O 22.3113 -0.0841106 -1.94018 0
M  V30 239 C 19.4413 -0.564709 -3.42678 0
M  V30 240 C 18.3953 -1.58486 -3.97576 0
M  V30 241 C 17.7213 -1.00628 -5.25146 0
M  V30 242 C 19.0213 -2.97204 -4.29496 0
M  V30 243 H 20.7153 -1.92495 -2.29317 0
M  V30 244 H 18.2613 -0.92693 -1.102 0
M  V30 245 H 20.2143 -0.401091 -4.19487 0
M  V30 246 H 18.9383 0.396411 -3.24185 0
M  V30 247 H 17.5973 -1.73606 -3.22888 0
M  V30 248 H 17.2453 -0.0368439 -5.02987 0
M  V30 249 H 16.9453 -1.68771 -5.62841 0
M  V30 250 H 18.4693 -0.854015 -6.04598 0
M  V30 251 H 19.8833 -2.8552 -4.97143 0
M  V30 252 H 18.2803 -3.62372 -4.78338 0
M  V30 253 H 19.3503 -3.47956 -3.3772 0
M  V30 254 N 20.6934 1.19889 -1.02296 0
M  V30 255 C 21.9394 1.89701 -0.717033 0
M  V30 256 C 22.2724 1.7905 0.751989 0
M  V30 257 O 21.5474 1.17891 1.547 0
M  V30 258 C 21.8304 3.40858 -1.16136 0
M  V30 259 C 21.6834 3.60411 -2.69117 0
M  V30 260 C 23.0024 4.33876 -0.737549 0
M  V30 261 H 20.1214 0.688874 -0.261957 0
M  V30 262 H 22.7634 1.41154 -1.27183 0
M  V30 263 H 20.9134 3.82335 -0.689342 0
M  V30 264 H 22.5854 3.28145 -3.2422 0
M  V30 265 H 20.8284 3.03665 -3.0979 0
M  V30 266 H 21.4994 4.66396 -2.95261 0
M  V30 267 H 23.9754 4.00081 -1.14344 0
M  V30 268 H 22.8514 5.38242 -1.0764 0
M  V30 269 H 23.1124 4.40628 0.360436 0
M  V30 270 N 22.1715 0.800033 1.35784 0
M  V30 271 C 23.3965 0.388511 2.03729 0
M  V30 272 C 23.8215 -0.990481 1.5991 0
M  V30 273 O 23.1795 -1.64013 0.772612 0
M  V30 274 C 23.2275 0.4726 3.5749 0
M  V30 275 O 22.3315 -0.51646 4.09153 0
M  V30 276 H 21.6725 0.163271 0.643614 0
M  V30 277 H 24.2025 1.0841 1.73518 0
M  V30 278 H 24.2125 0.34003 4.06581 0
M  V30 279 H 22.8875 1.47848 3.88734 0
M  V30 280 H 21.4645 -0.344673 3.71304 0
M  V30 281 N 23.6496 -1.47581 0.552962 0
M  V30 282 C 24.8956 -2.02782 0.0273648 0
M  V30 283 C 25.2286 -1.42687 -1.31734 0
M  V30 284 O 24.5036 -0.580897 -1.85623 0
M  V30 285 C 24.7866 -3.60031 -0.0702371 0
M  V30 286 C 24.6396 -4.30566 1.30126 0
M  V30 287 C 25.9586 -4.33028 -0.785771 0
M  V30 288 H 23.0776 -0.736912 0.0114185 0
M  V30 289 H 25.7196 -1.76056 0.714432 0
M  V30 290 H 23.8696 -3.82932 -0.655382 0
M  V30 291 H 25.5416 -4.19018 1.92929 0
M  V30 292 H 23.7846 -3.91086 1.87709 0
M  V30 293 H 24.4556 -5.39114 1.18573 0
M  V30 294 H 26.9316 -4.15095 -0.288982 0
M  V30 295 H 25.8076 -5.42695 -0.823013 0
M  V30 296 H 26.0686 -4.01945 -1.841 0
M  V30 297 N 25.1277 -0.289203 -1.54924 0
M  V30 298 C 26.3747 0.323519 -1.99899 0
M  V30 299 C 26.7027 1.54797 -1.17762 0
M  V30 300 O 25.9577 1.94237 -0.238835 0
M  V30 301 C 26.2567 0.736119 -3.49737 0
M  V30 302 C 25.9227 -0.385276 -4.49251 0
M  V30 303 C 24.5847 -0.693156 -4.76181 0
M  V30 304 C 26.9367 -1.14021 -5.08575 0
M  V30 305 C 24.2647 -1.7593 -5.59701 0
M  V30 306 C 26.6167 -2.19619 -5.93254 0
M  V30 307 C 25.2807 -2.51026 -6.185 0
M  V30 308 H 24.5507 0.118384 -0.731482 0
M  V30 309 H 27.1977 -0.405847 -1.8715 0
M  V30 310 H 25.5027 1.54539 -3.60035 0
M  V30 311 H 27.1997 1.22118 -3.81953 0
M  V30 312 H 23.7897 -0.135202 -4.28387 0
M  V30 313 H 27.9737 -0.915611 -4.87781 0
M  V30 314 H 23.2297 -2.0075 -5.77503 0
M  V30 315 H 27.4037 -2.78581 -6.38252 0
M  V30 316 H 25.0307 -3.33772 -6.83008 0
M  V30 317 N 26.6058 1.57591 -0.0167156 0
M  V30 318 C 27.8538 1.90906 0.663285 0
M  V30 319 C 28.1748 0.892509 1.73376 0
M  V30 320 O 27.4448 -0.0677623 1.95783 0
M  V30 321 H 26.0248 0.704637 0.247983 0
M  V30 322 H 28.6868 1.94803 -0.0615909 0
M  V30 323 H 27.7828 2.9116 1.12393 0
M  V30 324 N 28.0839 -0.256276 1.55502 0
M  V30 325 C 29.0159 -1.33981 1.85962 0
M  V30 326 C 30.0289 -1.44743 0.745212 0
M  V30 327 O 31.2179 -1.4626 1.02324 0
M  V30 328 C 28.3179 -2.7194 2.02242 0
M  V30 329 C 27.4909 -2.83562 3.33033 0
M  V30 330 C 26.5499 -4.02304 3.39172 0
M  V30 331 O 25.5759 -3.92273 4.12444 0
M  V30 332 N 26.7779 -5.15045 2.67784 0
M  V30 333 H 29.5429 -1.08191 2.7949 0
M  V30 334 H 27.1039 -0.446388 1.55624 0
M  V30 335 H 29.0959 -3.49697 2.03701 0
M  V30 336 H 27.6659 -2.90479 1.15502 0
M  V30 337 H 26.8859 -1.92555 3.43971 0
M  V30 338 H 28.1739 -2.88271 4.19258 0
M  V30 339 H 27.5719 -5.26085 2.07968 0
M  V30 340 H 26.1289 -5.90972 2.74947 0
M  V30 341 N 29.562 -1.4872 -0.521534 0
M  V30 342 C 30.79 -1.60843 -1.30142 0
M  V30 343 C 31.205 -0.271897 -1.86832 0
M  V30 344 O 30.562 0.739969 -1.66825 0
M  V30 345 C 30.613 -2.66155 -2.4463 0
M  V30 346 O 30.334 -3.94623 -1.90275 0
M  V30 347 C 31.835 -2.88795 -3.36322 0
M  V30 348 H 29.055 -0.542075 -0.395468 0
M  V30 349 H 31.599 -1.94609 -0.628285 0
M  V30 350 H 29.754 -2.35224 -3.07812 0
M  V30 351 H 30.168 -4.52468 -2.65279 0
M  V30 352 H 31.642 -3.66264 -4.12983 0
M  V30 353 H 32.119 -1.97934 -3.9207 0
M  V30 354 H 32.725 -3.21063 -2.78924 0
M  V30 355 N 31.0401 0.771051 -1.3745 0
M  V30 356 C 32.2871 1.52963 -1.32697 0
M  V30 357 C 32.6151 1.94299 0.0883274 0
M  V30 358 O 31.8701 1.64397 1.0617 0
M  V30 359 C 32.1691 2.80676 -2.2126 0
M  V30 360 C 31.8351 2.58389 -3.69521 0
M  V30 361 C 30.4971 2.52019 -4.09927 0
M  V30 362 C 32.8491 2.38469 -4.63446 0
M  V30 363 C 30.1771 2.23721 -5.42371 0
M  V30 364 C 32.5291 2.11694 -5.96128 0
M  V30 365 C 31.1931 2.03769 -6.35637 0
M  V30 366 H 30.4631 0.559732 -0.485573 0
M  V30 367 H 33.1101 0.888083 -1.69662 0
M  V30 368 H 31.4151 3.49392 -1.77291 0
M  V30 369 H 33.1121 3.38557 -2.14895 0
M  V30 370 H 29.7021 2.6421 -3.37478 0
M  V30 371 H 33.8861 2.4238 -4.33089 0
M  V30 372 H 29.1421 2.16081 -5.71943 0
M  V30 373 H 33.3161 1.9528 -6.6846 0
M  V30 374 H 30.9431 1.81606 -7.38189 0
M  V30 375 N 32.5182 1.22032 0.997298 0
M  V30 376 C 33.4282 1.00271 2.12092 0
M  V30 377 C 34.4442 -0.047621 1.73935 0
M  V30 378 O 35.6202 0.144136 2.00884 0
M  V30 379 C 32.6852 0.578449 3.4184 0
M  V30 380 C 31.7462 1.70189 3.94125 0
M  V30 381 C 30.9792 1.29778 5.17681 0
M  V30 382 O 31.2022 0.174676 5.70132 0
M  V30 383 O 30.1362 2.11261 5.63607 0
M  V30 384 H 33.9622 1.94398 2.3333 0
M  V30 385 H 31.5472 1.00587 1.10465 0
M  V30 386 H 33.4292 0.351998 4.19927 0
M  V30 387 H 32.1042 -0.334019 3.21972 0
M  V30 388 H 31.0112 1.98282 3.1723 0
M  V30 389 H 32.3442 2.59206 4.18417 0
M  V30 390 N 33.9963 -1.19345 1.0293 0
M  V30 391 C 35.4123 -1.41069 0.746446 0
M  V30 392 C 35.6123 -1.90078 -0.668776 0
M  V30 393 O 34.6683 -2.0778 -1.4347 0
M  V30 394 C 35.9813 -2.42141 1.78292 0
M  V30 395 C 37.5293 -2.55887 1.80252 0
M  V30 396 C 38.0043 -3.60214 2.8286 0
M  V30 397 N 39.4953 -3.67711 2.81679 0
M  V30 398 C 40.2303 -4.48128 3.57727 0
M  V30 399 N 39.7263 -5.32248 4.43491 0
M  V30 400 N 41.5193 -4.42782 3.46267 0
M  V30 401 H 33.6703 -0.858536 1.94275 0
M  V30 402 H 35.9333 -0.439541 0.839945 0
M  V30 403 H 35.6393 -2.13155 2.79746 0
M  V30 404 H 35.5133 -3.41323 1.60557 0
M  V30 405 H 37.9003 -2.84196 0.794757 0
M  V30 406 H 37.9813 -1.56858 2.02062 0
M  V30 407 H 37.6253 -3.32647 3.83807 0
M  V30 408 H 37.5553 -4.58895 2.58307 0
M  V30 409 H 40.0463 -3.07634 2.19476 0
M  V30 410 H 40.3593 -5.90729 4.98256 0
M  V30 411 H 38.7043 -5.31707 4.47564 0
M  V30 412 H 41.8953 -3.76107 2.78677 0
M  V30 413 H 42.0683 -5.05215 4.05785 0
M  V30 414 N 35.4744 -0.807222 -1.35358 0
M  V30 415 C 36.4224 -0.20614 -2.31685 0
M  V30 416 C 37.4164 0.644445 -1.56663 0
M  V30 417 O 38.6224 0.537538 -1.71786 0
M  V30 418 H 34.9974 -0.0479006 -0.750473 0
M  V30 419 H 36.9684 -1.03369 -2.79924 0
M  V30 420 C 35.7174 0.630212 -3.41941 0
M  V30 421 H 35.0404 -0.0149558 -3.99797 0
M  V30 422 H 36.4804 1.01716 -4.11619 0
M  V30 423 C 34.9394 1.79601 -2.85035 0
M  V30 424 O 35.4694 2.89351 -2.78637 0
M  V30 425 N 33.6754 1.60774 -2.42074 0
M  V30 426 H 33.2224 0.715009 -2.47478 0
M  V30 427 H 33.1804 2.38933 -2.04349 0
M  V30 428 N 36.9525 1.47285 -0.560781 0
M  V30 429 C 37.8995 2.30058 0.18491 0
M  V30 430 C 38.8695 1.39281 0.904986 0
M  V30 431 O 40.0545 1.68241 0.899979 0
M  V30 432 C 37.1945 3.23317 1.20666 0
M  V30 433 C 36.3075 4.29186 0.492285 0
M  V30 434 C 35.4425 5.09592 1.49964 0
M  V30 435 C 34.4815 6.07232 0.770439 0
M  V30 436 N 33.6185 6.80584 1.72479 0
M  V30 437 H 38.4585 2.93302 -0.527048 0
M  V30 438 H 35.9955 1.44568 -0.271738 0
M  V30 439 H 37.9535 3.75811 1.81168 0
M  V30 440 H 36.5835 2.61929 1.88661 0
M  V30 441 H 35.6355 3.7972 -0.227333 0
M  V30 442 H 36.9475 4.98738 -0.0787929 0
M  V30 443 H 36.1015 5.66254 2.17809 0
M  V30 444 H 34.8405 4.3995 2.10464 0
M  V30 445 H 33.8455 5.49745 0.0780846 0
M  V30 446 H 35.0705 6.78884 0.171134 0
M  V30 447 H 33.0165 6.1367 2.3183 0
M  V30 448 H 32.9335 7.46319 1.20596 0
M  V30 449 H 34.2015 7.41818 2.39428 0
M  V30 450 N 38.4306 0.297415 1.54768 0
M  V30 451 C 39.6586 -0.315623 2.04478 0
M  V30 452 C 40.0736 -1.47792 1.17486 0
M  V30 453 O 39.4306 -1.81404 0.19971 0
M  V30 454 C 39.4816 -0.7753 3.53088 0
M  V30 455 O 39.2026 0.340732 4.36773 0
M  V30 456 C 40.7036 -1.45386 4.18781 0
M  V30 457 H 37.9236 -0.0690887 0.667434 0
M  V30 458 H 40.4676 0.436003 1.99798 0
M  V30 459 H 38.6226 -1.47696 3.58141 0
M  V30 460 H 39.0366 -0.0165035 5.24497 0
M  V30 461 H 40.5106 -1.72669 5.24299 0
M  V30 462 H 40.9876 -2.39275 3.68299 0
M  V30 463 H 41.5936 -0.795475 4.17795 0
M  V30 464 N 39.9087 -1.5758 0.0250728 0
M  V30 465 C 40.8387 -2.13007 -0.956575 0
M  V30 466 C 41.8197 -1.0452 -1.342 0
M  V30 467 O 43.0047 -1.32332 -1.42133 0
M  V30 468 C 40.1347 -2.65386 -2.24026 0
M  V30 469 C 39.0887 -3.78623 -1.99571 0
M  V30 470 C 38.4147 -4.17414 -3.3417 0
M  V30 471 C 39.7147 -5.04867 -1.33814 0
M  V30 472 H 41.4087 -2.9528 -0.494991 0
M  V30 473 H 38.9547 -1.42042 -0.236651 0
M  V30 474 H 40.9077 -3.02794 -2.93076 0
M  V30 475 H 39.6317 -1.80268 -2.72343 0
M  V30 476 H 38.2907 -3.41646 -1.32941 0
M  V30 477 H 37.9387 -3.29284 -3.80238 0
M  V30 478 H 37.6387 -4.93719 -3.18615 0
M  V30 479 H 39.1627 -4.57402 -4.04495 0
M  V30 480 H 40.5767 -5.39888 -1.92857 0
M  V30 481 H 38.9737 -5.86144 -1.28669 0
M  V30 482 H 40.0437 -4.83904 -0.310561 0
M  V30 483 N 41.3868 0.248026 -1.55636 0
M  V30 484 C 42.6168 0.992367 -1.81206 0
M  V30 485 C 43.0248 1.7949 -0.598324 0
M  V30 486 O 42.3678 1.78292 0.442434 0
M  V30 487 C 42.4298 1.97926 -3.00109 0
M  V30 488 C 42.0938 1.36377 -4.36177 0
M  V30 489 C 43.0908 0.76682 -5.14214 0
M  V30 490 C 40.7758 1.38347 -4.82872 0
M  V30 491 C 42.7698 0.197778 -6.37093 0
M  V30 492 C 40.4568 0.810574 -6.057 0
M  V30 493 C 41.4548 0.218754 -6.8265 0
M  V30 494 O 41.1428 -0.345298 -8.03158 0
M  V30 495 H 40.8748 0.297704 -0.606917 0
M  V30 496 H 43.4288 0.276517 -2.0353 0
M  V30 497 H 41.6588 2.73339 -2.73538 0
M  V30 498 H 43.3478 2.58694 -3.12781 0
M  V30 499 H 44.1138 0.744114 -4.79258 0
M  V30 500 H 39.9928 1.8335 -4.2297 0
M  V30 501 H 43.5368 -0.264788 -6.97097 0
M  V30 502 H 39.4338 0.830604 -6.40134 0
M  V30 503 H 40.2018 -0.237055 -8.18157 0
M  V30 504 N 42.8649 1.48995 0.513639 0
M  V30 505 C 44.1109 1.59053 1.26783 0
M  V30 506 C 44.4659 0.268136 1.90522 0
M  V30 507 O 43.7589 -0.730534 1.77126 0
M  V30 508 C 43.9529 2.67756 2.36731 0
M  V30 509 C 43.7819 4.10437 1.83771 0
M  V30 510 C 42.5519 4.7738 1.65639 0
M  V30 511 C 44.7499 4.9608 1.35681 0
M  V30 512 N 42.7319 6.04419 1.07476 0
M  V30 513 C 44.1029 6.13496 0.895715 0
M  V30 514 C 46.1579 4.82177 1.24136 0
M  V30 515 C 44.8609 7.1854 0.3306 0
M  V30 516 C 46.8869 5.87358 0.690229 0
M  V30 517 C 46.2489 7.03993 0.239292 0
M  V30 518 H 42.3479 0.636463 0.454355 0
M  V30 519 H 44.9319 1.85948 0.577196 0
M  V30 520 H 43.1029 2.42655 3.03271 0
M  V30 521 H 44.8349 2.67406 3.0377 0
M  V30 522 H 41.5899 4.33974 1.8964 0
M  V30 523 H 42.0139 6.72214 0.803579 0
M  V30 524 H 46.6559 3.92329 1.57601 0
M  V30 525 H 44.3739 8.08098 -0.0163435 0
M  V30 526 H 47.9599 5.78658 0.603852 0
M  V30 527 H 46.8399 7.83992 -0.180526 0
M  V30 528 N 44.343 -0.763751 1.37857 0
M  V30 529 C 45.591 -1.51957 1.33243 0
M  V30 530 C 45.912 -1.94835 -0.0801709 0
M  V30 531 O 45.182 -1.66894 -1.02582 0
M  V30 532 H 43.762 -0.563626 0.49024 0
M  V30 533 H 46.424 -0.908504 1.7243 0
M  V30 534 H 45.52 -2.41523 1.97669 0
M  V30 535 N 45.8211 -1.22559 -0.990812 0
M  V30 536 C 47.0691 -1.04933 -1.72724 0
M  V30 537 C 47.3901 0.416158 -1.90508 0
M  V30 538 O 46.6601 1.29918 -1.46622 0
M  V30 539 H 45.2401 -0.385296 -0.639965 0
M  V30 540 H 47.9021 -1.54105 -1.19322 0
M  V30 541 H 46.9981 -1.52886 -2.72089 0
M  V30 542 N 47.2992 1.18797 -1.03562 0
M  V30 543 C 48.2622 2.20464 -0.626769 0
M  V30 544 C 49.2622 1.57721 0.313173 0
M  V30 545 O 50.4522 1.73917 0.0992615 0
M  V30 546 C 47.5842 3.40802 0.0818498 0
M  V30 547 H 48.7772 2.58149 -1.5264 0
M  V30 548 H 46.3302 1.32593 -0.827578 0
M  V30 549 H 47.0652 3.08642 0.995518 0
M  V30 550 H 46.8502 3.8758 -0.593652 0
M  V30 551 H 48.3402 4.16092 0.354584 0
M  V30 552 N 48.7773 0.814389 1.34928 0
M  V30 553 C 49.7073 0.244827 2.32213 0
M  V30 554 C 50.6883 -0.634024 1.57842 0
M  V30 555 O 51.8733 -0.562676 1.8587 0
M  V30 556 C 49.0033 -0.601106 3.42058 0
M  V30 557 C 47.9573 0.179896 4.27622 0
M  V30 558 C 47.2833 -0.788237 5.28858 0
M  V30 559 C 48.5833 1.38329 5.03649 0
M  V30 560 H 50.2773 1.05763 2.80097 0
M  V30 561 H 47.8233 0.510029 1.34665 0
M  V30 562 H 49.7763 -1.00968 4.09125 0
M  V30 563 H 48.5003 -1.44688 2.92802 0
M  V30 564 H 47.1593 0.569739 3.62146 0
M  V30 565 H 46.8073 -1.62973 4.75866 0
M  V30 566 H 46.5073 -0.269942 5.8698 0
M  V30 567 H 48.0313 -1.19485 5.98795 0
M  V30 568 H 49.4453 1.04918 5.63618 0
M  V30 569 H 47.8423 1.83662 5.71304 0
M  V30 570 H 48.9123 2.16592 4.33839 0
M  V30 571 N 50.2554 -1.46986 0.568584 0
M  V30 572 C 51.5014 -2.0332 0.0571487 0
M  V30 573 C 51.8564 -1.43384 -1.28291 0
M  V30 574 O 51.1494 -0.584304 -1.82473 0
M  V30 575 C 51.3434 -3.57306 -0.081836 0
M  V30 576 C 51.1724 -4.32174 1.24321 0
M  V30 577 C 49.9424 -4.71633 1.81358 0
M  V30 578 C 52.1404 -4.66598 2.16312 0
M  V30 579 N 50.1224 -5.31191 3.07748 0
M  V30 580 C 51.4934 -5.26578 3.27285 0
M  V30 581 C 53.5484 -4.48527 2.16166 0
M  V30 582 C 52.2514 -5.70395 4.38226 0
M  V30 583 C 54.2774 -4.93351 3.26127 0
M  V30 584 C 53.6394 -5.5339 4.3582 0
M  V30 585 H 49.7384 -0.77943 0.063351 0
M  V30 586 H 52.3224 -1.79323 0.758378 0
M  V30 587 H 50.4934 -3.81046 -0.752207 0
M  V30 588 H 52.2254 -4.00282 -0.59637 0
M  V30 589 H 48.9804 -4.53946 1.35019 0
M  V30 590 H 49.4044 -5.65505 3.72201 0
M  V30 591 H 54.0464 -4.01456 1.32638 0
M  V30 592 H 51.7644 -6.16452 5.22506 0
M  V30 593 H 55.3504 -4.81131 3.27115 0
M  V30 594 H 54.2304 -5.87441 5.19503 0
M  V30 595 N 51.7335 -0.305618 -1.54608 0
M  V30 596 C 52.9585 0.307562 -2.05107 0
M  V30 597 C 53.3835 1.46385 -1.18123 0
M  V30 598 O 52.7415 1.8034 -0.186324 0
M  V30 599 C 52.7895 0.73704 -3.52987 0
M  V30 600 O 51.8935 1.84134 -3.6901 0
M  V30 601 H 51.2345 0.0589143 -0.661381 0
M  V30 602 H 53.7645 -0.448807 -1.99617 0
M  V30 603 H 53.7745 1.02459 -3.94925 0
M  V30 604 H 52.4495 -0.108773 -4.15758 0
M  V30 605 H 51.0265 1.55398 -3.38978 0
M  V30 606 N 53.2116 1.57565 -0.0334293 0
M  V30 607 C 54.6226 1.79746 0.504798 0
M  V30 608 C 54.9736 0.944091 1.71992 0
M  V30 609 O 54.0986 0.155694 2.15839 0
M  V30 610 C 54.6936 3.25997 0.922567 0
M  V30 611 C 53.2526 3.49159 1.40588 0
M  V30 612 C 52.3996 2.74785 0.372633 0
M  V30 613 H 55.3506 1.56565 -0.259436 0
M  V30 614 H 55.3716 3.35945 1.78666 0
M  V30 615 H 54.8836 3.88081 0.0379825 0
M  V30 616 H 52.9846 2.92332 2.31025 0
M  V30 617 H 53.0976 4.57873 1.41028 0
M  V30 618 H 51.4616 2.40391 0.841672 0
M  V30 619 H 52.2446 3.39587 -0.503559 0
M  V30 620 N 54.6897 -0.239769 1.55765 0
M  V30 621 C 56.1007 -0.808263 1.68297 0
M  V30 622 C 56.4517 -1.85736 0.632181 0
M  V30 623 O 55.5767 -2.15277 -0.220204 0
M  V30 624 C 56.1717 -1.47284 3.05111 0
M  V30 625 C 54.7307 -1.98895 3.19559 0
M  V30 626 C 53.8777 -0.842575 2.64189 0
M  V30 627 H 56.8287 -0.0154422 1.58692 0
M  V30 628 H 56.8497 -2.34111 2.99954 0
M  V30 629 H 56.3617 -0.709053 3.81568 0
M  V30 630 H 54.4627 -2.78132 2.47938 0
M  V30 631 H 54.5757 -2.18143 4.26556 0
M  V30 632 H 52.9397 -1.24501 2.22197 0
M  V30 633 H 53.7227 -0.0917552 3.43177 0
M  V30 634 N 56.1678 -1.49265 -0.50573 0
M  V30 635 C 57.3928 -1.62478 -1.28902 0
M  V30 636 C 57.8178 -0.294332 -1.85783 0
M  V30 637 O 57.1758 0.737412 -1.65626 0
M  V30 638 C 57.2238 -2.69268 -2.39848 0
M  V30 639 O 56.3278 -2.28113 -3.43567 0
M  V30 640 H 55.6688 -0.54399 -0.380751 0
M  V30 641 H 58.1988 -1.95421 -0.605952 0
M  V30 642 H 58.2088 -2.91291 -2.85681 0
M  V30 643 H 56.8838 -3.65846 -1.97812 0
M  V30 644 H 55.4608 -2.16401 -3.03685 0
M  V30 645 N 57.6459 0.756429 -1.3826 0
M  V30 646 C 58.5939 1.89149 -1.35372 0
M  V30 647 C 59.5879 1.67691 -0.24004 0
M  V30 648 O 60.7939 1.75294 -0.408919 0
M  V30 649 H 57.1689 0.622271 -0.422236 0
M  V30 650 H 59.1399 1.88701 -2.31159 0
M  V30 651 C 57.8889 3.26599 -1.19284 0
M  V30 652 H 57.2119 3.43695 -2.0424 0
M  V30 653 H 58.6519 4.06274 -1.21316 0
M  V30 654 C 57.1109 3.3675 0.100454 0
M  V30 655 O 57.6409 3.86951 1.07851 0
M  V30 656 N 55.8469 2.90179 0.15633 0
M  V30 657 H 55.3939 2.49517 -0.640253 0
M  V30 658 H 55.3519 2.97352 1.02123 0
M  V30 659 N 59.124 1.23083 0.984299 0
M  V30 660 C 60.37 1.07221 1.72845 0
M  V30 661 C 60.725 -0.387453 1.88458 0
M  V30 662 O 60.018 -1.28309 1.42293 0
M  V30 663 C 60.212 1.72673 3.1292 0
M  V30 664 C 60.041 3.24853 3.10967 0
M  V30 665 C 58.811 3.93998 3.16376 0
M  V30 666 C 61.009 4.21674 2.94441 0
M  V30 667 N 58.991 5.33192 3.04268 0
M  V30 668 C 60.362 5.47756 2.90453 0
M  V30 669 C 62.417 4.12457 2.78897 0
M  V30 670 C 61.12 6.6568 2.72512 0
M  V30 671 C 63.146 5.3004 2.62319 0
M  V30 672 C 62.508 6.55046 2.59026 0
M  V30 673 H 58.607 0.44685 0.641755 0
M  V30 674 H 61.191 1.55753 1.16829 0
M  V30 675 H 59.362 1.26679 3.67161 0
M  V30 676 H 61.094 1.49824 3.75945 0
M  V30 677 H 57.849 3.45052 3.24401 0
M  V30 678 H 58.273 6.06157 3.015 0
M  V30 679 H 62.915 3.16588 2.80235 0
M  V30 680 H 60.633 7.61689 2.69919 0
M  V30 681 H 64.219 5.24747 2.5126 0
M  V30 682 H 63.099 7.44498 2.46357 0
M  V30 683 N 60.6021 -1.18246 1.0419 0
M  V30 684 C 61.5501 -2.23968 0.627792 0
M  V30 685 C 62.5441 -1.65828 -0.346019 0
M  V30 686 O 63.7501 -1.78733 -0.213175 0
M  V30 687 H 60.1251 -0.728939 0.184802 0
M  V30 688 H 62.0961 -2.56202 1.52981 0
M  V30 689 C 60.8451 -3.47699 0.00796591 0
M  V30 690 H 60.1681 -3.92734 0.748347 0
M  V30 691 H 61.6081 -4.23294 -0.24455 0
M  V30 692 C 60.0671 -3.13153 -1.24246 0
M  V30 693 O 60.5971 -3.27003 -2.33307 0
M  V30 694 N 58.8031 -2.67467 -1.13622 0
M  V30 695 H 58.3501 -2.56396 -0.248734 0
M  V30 696 H 58.3081 -2.44724 -1.97377 0
M  V30 697 N 62.0802 -0.821533 -1.34494 0
M  V30 698 C 63.4912 -0.467956 -1.8074 0
M  V30 699 C 63.8422 1.01151 -1.68116 0
M  V30 700 O 62.9672 1.78707 -1.22036 0
M  V30 701 C 63.5622 -0.842627 -3.28154 0
M  V30 702 C 62.1212 -0.541439 -3.72485 0
M  V30 703 C 61.2682 -1.06028 -2.56229 0
M  V30 704 H 64.2192 -1.01183 -1.22261 0
M  V30 705 H 64.2402 -0.145876 -3.8022 0
M  V30 706 H 63.7522 -1.91945 -3.37311 0
M  V30 707 H 61.8532 0.526034 -3.68868 0
M  V30 708 H 61.9662 -1.08453 -4.66663 0
M  V30 709 H 60.3302 -0.481892 -2.501 0
M  V30 710 H 61.1132 -2.14352 -2.68157 0
M  V30 711 N 63.5583 1.46682 -0.576371 0
M  V30 712 C 64.8053 2.02412 -0.0595339 0
M  V30 713 C 65.1333 1.44859 1.29793 0
M  V30 714 O 64.3883 0.601099 1.8624 0
M  V30 715 C 64.6873 3.57345 0.062886 0
M  V30 716 C 64.3533 4.33908 -1.22616 0
M  V30 717 C 63.0153 4.54544 -1.57933 0
M  V30 718 C 65.3673 4.77919 -2.07948 0
M  V30 719 C 62.6953 5.16444 -2.78393 0
M  V30 720 C 65.0473 5.41149 -3.27629 0
M  V30 721 C 63.7113 5.60014 -3.63236 0
M  V30 722 H 62.9813 0.74068 -0.021785 0
M  V30 723 H 65.6283 1.76128 -0.751735 0
M  V30 724 H 63.9333 3.82729 0.838178 0
M  V30 725 H 65.6303 3.98136 0.478439 0
M  V30 726 H 62.2203 4.18138 -0.941202 0
M  V30 727 H 66.4043 4.61738 -1.81967 0
M  V30 728 H 61.6603 5.29242 -3.06126 0
M  V30 729 H 65.8343 5.74211 -3.94023 0
M  V30 730 H 63.4613 6.07748 -4.56669 0
M  V30 731 N 65.0364 0.313813 1.54444 0
M  V30 732 C 66.2644 -0.293918 2.04802 0
M  V30 733 C 66.6794 -1.46537 1.19047 0
M  V30 734 O 66.0364 -1.81182 0.218939 0
M  V30 735 C 66.0874 -0.737806 3.53891 0
M  V30 736 O 65.8084 0.387038 4.36387 0
M  V30 737 C 67.3094 -1.40936 4.203 0
M  V30 738 H 64.5294 -0.0620057 0.668129 0
M  V30 739 H 67.0734 0.457169 1.99324 0
M  V30 740 H 65.2284 -1.43889 3.59687 0
M  V30 741 H 65.6424 0.0391274 5.24485 0
M  V30 742 H 67.1164 -1.67099 5.26101 0
M  V30 743 H 67.5934 -2.35355 3.70816 0
M  V30 744 H 68.1994 -0.751117 4.18615 0
M  V30 745 N 66.5145 -1.57545 0.0417849 0
M  V30 746 C 67.9255 -1.80011 -0.495259 0
M  V30 747 C 68.2765 -0.953199 -1.71489 0
M  V30 748 O 67.4015 -0.167138 -2.15754 0
M  V30 749 C 67.9965 -3.26482 -0.905265 0
M  V30 750 C 66.5555 -3.499 -1.38734 0
M  V30 751 C 65.7025 -2.74979 -0.358056 0
M  V30 752 H 68.6535 -1.56425 0.267736 0
M  V30 753 H 68.6745 -3.36887 -1.76882 0
M  V30 754 H 68.1865 -3.88096 -0.017401 0
M  V30 755 H 66.2875 -2.93553 -2.29471 0
M  V30 756 H 66.4005 -4.58615 -1.38598 0
M  V30 757 H 64.7645 -2.40834 -0.828912 0
M  V30 758 H 65.5475 -3.39315 0.521561 0
M  V30 759 N 67.9926 0.231505 -1.5589 0
M  V30 760 C 69.2386 0.954429 -1.79617 0
M  V30 761 C 69.5936 1.82367 -0.613199 0
M  V30 762 O 68.8866 1.87524 0.393094 0
M  V30 763 C 69.0806 1.83577 -3.0665 0
M  V30 764 C 68.9096 1.05334 -4.3719 0
M  V30 765 C 67.6796 0.75225 -4.99669 0
M  V30 766 C 69.8776 0.423444 -5.12554 0
M  V30 767 N 67.8596 -0.052627 -6.13877 0
M  V30 768 C 69.2306 -0.245287 -6.19515 0
M  V30 769 C 71.2856 0.335466 -4.96769 0
M  V30 770 C 69.9886 -0.993566 -7.12405 0
M  V30 771 C 72.0146 -0.399321 -5.9005 0
M  V30 772 C 71.3766 -1.05663 -6.9643 0
M  V30 773 H 67.4756 0.329846 -0.709031 0
M  V30 774 H 70.0596 0.226172 -1.93382 0
M  V30 775 H 68.2306 2.53592 -2.94186 0
M  V30 776 H 69.9626 2.49541 -3.18608 0
M  V30 777 H 66.7176 1.06783 -4.61405 0
M  V30 778 H 67.1416 -0.443609 -6.75545 0
M  V30 779 H 71.7836 0.829311 -4.14587 0
M  V30 780 H 69.5016 -1.49896 -7.94076 0
M  V30 781 H 73.0876 -0.468265 -5.79913 0
M  V30 782 H 71.9676 -1.61612 -7.67366 0
M  V30 783 N 69.4707 1.49531 0.497807 0
M  V30 784 C 70.4187 1.66926 1.61983 0
M  V30 785 C 71.4127 0.535167 1.60724 0
M  V30 786 O 72.6187 0.714896 1.65195 0
M  V30 787 H 68.9937 0.526415 0.537021 0
M  V30 788 H 70.9647 2.61098 1.44465 0
M  V30 789 C 69.7137 1.75602 3.00099 0
M  V30 790 H 69.0367 2.62244 3.01775 0
M  V30 791 H 70.4767 1.91807 3.78135 0
M  V30 792 C 68.9357 0.501543 3.33146 0
M  V30 793 O 69.4657 -0.371342 3.9998 0
M  V30 794 N 67.6717 0.363531 2.88317 0
M  V30 795 H 67.2187 1.07485 2.34104 0
M  V30 796 H 67.1767 -0.474728 3.10795 0
M  V30 797 N 70.9488 -0.749086 1.3866 0
M  V30 798 C 71.9118 -1.84457 1.36045 0
M  V30 799 C 72.9118 -1.58682 0.260122 0
M  V30 800 O 74.1018 -1.66343 0.517261 0
M  V30 801 C 71.2338 -3.22008 1.11911 0
M  V30 802 H 72.4268 -1.88182 2.33512 0
M  V30 803 H 69.9798 -0.951266 1.24019 0
M  V30 804 H 70.7148 -3.2395 0.150686 0
M  V30 805 H 70.4998 -3.42111 1.91579 0
M  V30 806 H 71.9898 -4.0208 1.12788 0
M  V30 807 N 72.4269 -1.23603 -0.977757 0
M  V30 808 C 73.6729 -1.07129 -1.72195 0
M  V30 809 C 74.0059 0.390501 -1.90233 0
M  V30 810 O 73.2809 1.28902 -1.45653 0
M  V30 811 C 73.5639 -1.80031 -3.11867 0
M  V30 812 C 73.4169 -3.33899 -3.01383 0
M  V30 813 C 74.7359 -1.56492 -4.11337 0
M  V30 814 H 71.8549 -0.390571 -0.624999 0
M  V30 815 H 74.4969 -1.52142 -1.13811 0
M  V30 816 H 72.6469 -1.41768 -3.6171 0
M  V30 817 H 74.3189 -3.81699 -2.59043 0
M  V30 818 H 72.5619 -3.62796 -2.37827 0
M  V30 819 H 73.2329 -3.801 -4.00285 0
M  V30 820 H 75.7089 -1.89757 -3.70313 0
M  V30 821 H 74.5849 -2.09973 -5.07151 0
M  V30 822 H 74.8459 -0.500874 -4.39254 0
M  V30 823 N 73.905 1.17692 -1.04816 0
M  V30 824 C 74.868 2.19787 -0.650117 0
M  V30 825 C 75.868 1.58044 0.296427 0
M  V30 826 O 77.058 1.74012 0.0808097 0
M  V30 827 C 74.19 3.40869 0.0456987 0
M  V30 828 H 75.383 2.56516 -1.5537 0
M  V30 829 H 72.936 1.31708 -0.841594 0
M  V30 830 H 73.671 3.09681 0.962726 0
M  V30 831 H 73.456 3.86928 -0.634727 0
M  V30 832 H 74.946 4.16445 0.310432 0
M  V30 833 N 75.3831 0.828654 1.34056 0
M  V30 834 C 76.6311 0.41863 1.97717 0
M  V30 835 C 76.9521 -1.02314 1.66002 0
M  V30 836 O 76.2221 -1.71119 0.953683 0
M  V30 837 H 74.8021 0.151809 0.731412 0
M  V30 838 H 77.4641 1.05936 1.63596 0
M  V30 839 H 76.5601 0.542318 3.07352 0
M  V30 840 N 76.8612 -1.46375 0.584142 0
M  V30 841 C 78.0892 -2.06761 0.0759296 0
M  V30 842 C 78.5042 -1.43266 -1.22965 0
M  V30 843 O 77.8612 -0.538458 -1.74376 0
M  V30 844 C 77.9122 -3.61375 -0.0950384 0
M  V30 845 O 77.6332 -4.22495 1.15887 0
M  V30 846 C 79.1342 -4.38693 -0.637434 0
M  V30 847 H 76.3542 -0.668479 0.0581075 0
M  V30 848 H 78.8982 -1.8798 0.805218 0
M  V30 849 H 77.0532 -3.79578 -0.774554 0
M  V30 850 H 77.4672 -5.15385 0.973598 0
M  V30 851 H 78.9412 -5.47464 -0.706237 0
M  V30 852 H 79.4182 -4.06836 -1.65472 0
M  V30 853 H 80.0242 -4.25299 0.00725967 0
M  V30 854 N 78.3393 -0.321999 -1.54275 0
M  V30 855 C 79.5883 0.281931 -1.9972 0
M  V30 856 C 79.9013 1.53369 -1.21397 0
M  V30 857 O 81.1073 2.21352 -1.57211 0
M  V30 858 C 79.5633 0.5529 -3.55628 0
M  V30 859 C 79.1713 -0.681721 -4.42783 0
M  V30 860 C 80.9153 1.11687 -4.09544 0
M  V30 861 C 78.8223 -0.382742 -5.9016 0
M  V30 862 H 77.7523 0.109124 -0.746062 0
M  V30 863 H 80.4033 -0.43398 -1.78294 0
M  V30 864 H 78.7853 1.32896 -3.73035 0
M  V30 865 H 79.9593 -1.45723 -4.37151 0
M  V30 866 H 78.2743 -1.1658 -3.99748 0
M  V30 867 H 80.8713 1.35515 -5.17242 0
M  V30 868 H 81.2143 2.06575 -3.61431 0
M  V30 869 H 81.7473 0.402032 -3.95763 0
M  V30 870 H 78.4863 -1.30076 -6.42464 0
M  V30 871 H 78.0063 0.355094 -5.98748 0
M  V30 872 H 79.6853 0.00800157 -6.47 0
M  V30 873 N 79.8174 1.5752 -0.0501392 0
M  V30 874 C 81.0654 1.9227 0.622642 0
M  V30 875 C 81.3864 0.929083 1.71444 0
M  V30 876 O 80.6564 -0.0262186 1.95882 0
M  V30 877 H 79.2364 0.709739 0.232981 0
M  V30 878 H 81.8984 1.94628 -0.102898 0
M  V30 879 H 80.9944 2.93479 1.06191 0
M  V30 880 N 81.2955 -0.223234 1.56011 0
M  V30 881 C 82.2255 -1.27988 1.95298 0
M  V30 882 C 83.2065 -1.48976 0.820979 0
M  V30 883 O 84.3915 -1.61188 1.08315 0
M  V30 884 C 81.5215 -2.63 2.26822 0
M  V30 885 C 80.4755 -2.56671 3.42497 0
M  V30 886 C 79.8015 -3.95697 3.59622 0
M  V30 887 C 81.1015 -2.11601 4.77517 0
M  V30 888 H 82.7955 -0.953525 2.8381 0
M  V30 889 H 80.3415 -0.457244 1.36548 0
M  V30 890 H 82.2945 -3.37077 2.52898 0
M  V30 891 H 81.0185 -2.9732 1.35161 0
M  V30 892 H 79.6775 -1.85051 3.16467 0
M  V30 893 H 79.3255 -4.27322 2.6534 0
M  V30 894 H 79.0255 -3.92345 4.37424 0
M  V30 895 H 80.5495 -4.71438 3.88044 0
M  V30 896 H 81.9635 -2.7542 5.02809 0
M  V30 897 H 80.3605 -2.19311 5.5859 0
M  V30 898 H 81.4305 -1.06824 4.72987 0
M  V30 899 N 82.7736 -1.49793 -0.48987 0
M  V30 900 C 84.0196 -1.60078 -1.24511 0
M  V30 901 C 84.3526 -0.291608 -1.91998 0
M  V30 902 O 83.6276 0.705647 -1.81248 0
M  V30 903 C 83.9106 -2.76791 -2.30345 0
M  V30 904 C 83.7636 -4.17535 -1.67286 0
M  V30 905 C 85.0826 -2.89111 -3.31817 0
M  V30 906 H 82.2016 -0.582645 -0.451324 0
M  V30 907 H 84.8436 -1.82117 -0.541612 0
M  V30 908 H 82.9936 -2.5813 -2.90346 0
M  V30 909 H 84.6656 -4.4774 -1.11026 0
M  V30 910 H 82.9086 -4.22665 -0.976577 0
M  V30 911 H 83.5796 -4.95094 -2.44103 0
M  V30 912 H 86.0556 -3.06133 -2.81819 0
M  V30 913 H 84.9316 -3.72433 -4.03219 0
M  V30 914 H 85.1926 -1.9893 -3.94815 0
M  V30 915 N 84.2517 0.741722 -1.39055 0
M  V30 916 C 85.4817 1.52876 -1.3897 0
M  V30 917 C 85.8897 1.8919 0.0193266 0
M  V30 918 O 85.2327 1.54138 0.999356 0
M  V30 919 C 85.2947 2.84929 -2.19216 0
M  V30 920 C 84.9587 2.71086 -3.67915 0
M  V30 921 C 85.9557 2.40084 -4.61146 0
M  V30 922 C 83.6407 2.88168 -4.11418 0
M  V30 923 C 85.6347 2.26335 -5.95862 0
M  V30 924 C 83.3217 2.74037 -5.46211 0
M  V30 925 C 84.3197 2.43166 -6.38247 0
M  V30 926 O 84.0077 2.29115 -7.70559 0
M  V30 927 H 83.7397 0.479252 -0.476753 0
M  V30 928 H 86.2937 0.924751 -1.83405 0
M  V30 929 H 84.5237 3.47564 -1.69518 0
M  V30 930 H 86.2127 3.46509 -2.11392 0
M  V30 931 H 86.9787 2.26545 -4.28838 0
M  V30 932 H 82.8577 3.11191 -3.40119 0
M  V30 933 H 86.4017 2.0216 -6.67665 0
M  V30 934 H 82.2987 2.87153 -5.78112 0
M  V30 935 H 83.0667 2.44237 -7.81211 0
M  V30 936 N 85.7298 1.2412 0.971189 0
M  V30 937 C 86.6398 1.04747 2.09917 0
M  V30 938 C 87.6558 -0.0107162 1.73997 0
M  V30 939 O 88.8318 0.186714 2.00533 0
M  V30 940 C 85.8968 0.650828 3.40537 0
M  V30 941 C 84.9578 1.7851 3.90426 0
M  V30 942 C 84.1908 1.40729 5.14812 0
M  V30 943 O 84.4138 0.29557 5.69634 0
M  V30 944 O 83.3478 2.23168 5.58999 0
M  V30 945 H 87.1738 1.99304 2.29154 0
M  V30 946 H 84.7588 1.02908 1.08307 0
M  V30 947 H 86.6408 0.440992 4.19086 0
M  V30 948 H 85.3158 -0.265649 3.22608 0
M  V30 949 H 84.2228 2.04966 3.12953 0
M  V30 950 H 85.5558 2.68023 4.12825 0
M  V30 951 N 87.2079 -1.17134 1.05439 0
M  V30 952 C 88.6189 -1.69084 0.791676 0
M  V30 953 C 88.9699 -1.83822 -0.685839 0
M  V30 954 O 88.0949 -1.52757 -1.53278 0
M  V30 955 C 88.6899 -3.07119 1.4305 0
M  V30 956 C 87.2489 -3.56225 1.21577 0
M  V30 957 C 86.3959 -2.32421 1.51247 0
M  V30 958 H 89.3469 -1.01617 1.219 0
M  V30 959 H 89.3679 -3.71087 0.84112 0
M  V30 960 H 88.8799 -2.9636 2.50584 0
M  V30 961 H 86.9809 -3.72257 0.159787 0
M  V30 962 H 87.0939 -4.38837 1.92246 0
M  V30 963 H 85.4579 -2.3701 0.932653 0
M  V30 964 H 86.2409 -2.24268 2.5992 0
M  V30 965 N 88.686 -0.835752 -1.33615 0
M  V30 966 C 89.616 -0.281739 -2.31794 0
M  V30 967 C 90.597 0.608833 -1.58831 0
M  V30 968 O 91.782 0.533035 -1.86741 0
M  V30 969 C 88.912 0.546612 -3.42971 0
M  V30 970 C 87.866 -0.247904 -4.27281 0
M  V30 971 C 87.192 0.704001 -5.30045 0
M  V30 972 C 88.492 -1.46324 -5.01385 0
M  V30 973 H 90.186 -1.10206 -2.78379 0
M  V30 974 H 87.732 -0.531388 -1.33837 0
M  V30 975 H 89.685 0.944467 -4.1068 0
M  V30 976 H 88.409 1.40011 -2.95067 0
M  V30 977 H 87.068 -0.627281 -3.61194 0
M  V30 978 H 86.716 1.55381 -4.78399 0
M  V30 979 H 86.416 0.176524 -5.87335 0
M  V30 980 H 87.94 1.09944 -6.0062 0
M  V30 981 H 89.354 -1.13871 -5.61877 0
M  V30 982 H 87.751 -1.92728 -5.6831 0
M  V30 983 H 88.821 -2.23467 -4.30338 0
M  V30 984 N 90.1641 1.46063 -0.591896 0
M  V30 985 C 91.4111 2.02338 -0.0809991 0
M  V30 986 C 91.7391 1.46228 1.28249 0
M  V30 987 O 90.9941 0.620818 1.85592 0
M  V30 988 C 91.2931 3.57391 0.0249813 0
M  V30 989 C 90.9591 4.32583 -1.27211 0
M  V30 990 C 89.6211 4.52844 -1.62745 0
M  V30 991 C 91.9731 4.75687 -2.13005 0
M  V30 992 C 89.3011 5.13462 -2.83855 0
M  V30 993 C 91.6531 5.37644 -3.3335 0
M  V30 994 C 90.3171 5.5613 -3.69155 0
M  V30 995 H 89.5871 0.740407 -0.0296397 0
M  V30 996 H 92.2341 1.75321 -0.770374 0
M  V30 997 H 90.5391 3.83597 0.797537 0
M  V30 998 H 92.2361 3.98621 0.436184 0
M  V30 999 H 88.8261 4.17116 -0.985499 0
M  V30 1000 H 93.0101 4.59782 -1.86855 0
M  V30 1001 H 88.2661 5.25965 -3.11722 0
M  V30 1002 H 92.4401 5.7 -4.00092 0
M  V30 1003 H 90.0671 6.0287 -4.63089 0
M  V30 1004 N 91.6422 0.330177 1.54103 0
M  V30 1005 C 92.5722 -0.525353 2.27513 0
M  V30 1006 C 93.5532 -1.11383 1.2856 0
M  V30 1007 O 94.7382 -1.13773 1.57383 0
M  V30 1008 C 91.8682 -1.6831 3.03791 0
M  V30 1009 C 90.8222 -1.2236 4.10137 0
M  V30 1010 C 90.1482 -2.46882 4.74293 0
M  V30 1011 C 91.4482 -0.333697 5.21233 0
M  V30 1012 H 93.1422 0.087013 2.99274 0
M  V30 1013 H 90.6882 0.0432893 1.43935 0
M  V30 1014 H 92.6412 -2.28795 3.5388 0
M  V30 1015 H 91.3652 -2.32216 2.29659 0
M  V30 1016 H 90.0242 -0.64165 3.60941 0
M  V30 1017 H 89.6722 -3.09165 3.96769 0
M  V30 1018 H 89.3722 -2.16825 5.46133 0
M  V30 1019 H 90.8962 -3.08117 5.27159 0
M  V30 1020 H 92.3102 -0.845013 5.67038 0
M  V30 1021 H 90.7072 -0.125612 5.99969 0
M  V30 1022 H 91.7772 0.633724 4.80741 0
M  V30 1023 N 93.1203 -1.57491 0.0584922 0
M  V30 1024 C 94.3503 -1.9701 -0.622134 0
M  V30 1025 C 94.7583 -0.935034 -1.6448 0
M  V30 1026 O 94.1013 0.0882904 -1.83488 0
M  V30 1027 C 94.1633 -3.32794 -1.35972 0
M  V30 1028 C 93.8273 -4.54343 -0.492043 0
M  V30 1029 C 94.8243 -5.19323 0.244901 0
M  V30 1030 C 92.5093 -5.00534 -0.420821 0
M  V30 1031 C 94.5033 -6.28835 1.04143 0
M  V30 1032 C 92.1903 -6.09921 0.379389 0
M  V30 1033 C 93.1883 -6.73933 1.10919 0
M  V30 1034 O 92.8763 -7.81216 1.89623 0
M  V30 1035 H 92.6083 -0.653127 -0.174359 0
M  V30 1036 H 95.1623 -2.05029 0.123418 0
M  V30 1037 H 93.3923 -3.21351 -2.15105 0
M  V30 1038 H 95.0813 -3.5701 -1.93129 0
M  V30 1039 H 95.8473 -4.8459 0.19939 0
M  V30 1040 H 91.7263 -4.50496 -0.978474 0
M  V30 1041 H 95.2703 -6.7873 1.61157 0
M  V30 1042 H 91.1673 -6.44089 0.426512 0
M  V30 1043 H 91.9353 -7.98029 1.81913 0
M  V30 1044 N 94.5984 0.214957 -1.56127 0
M  V30 1045 C 95.8754 0.963093 -1.70247 0
M  V30 1046 C 96.2554 2.02166 -0.60764 0
M  V30 1047 O 95.6034 2.25244 0.384385 0
M  V30 1048 C 95.8134 1.56756 -3.11815 0
M  V30 1049 C 97.1614 2.0573 -3.7143 0
M  V30 1050 O 98.1854 1.66637 -3.14818 0
M  V30 1051 O 97.0444 2.77603 -4.70743 0
M  V30 1052 H 94.1384 0.450321 -0.693643 0
M  V30 1053 H 96.6844 0.206219 -1.68442 0
M  V30 1054 H 95.4564 0.803533 -3.82961 0
M  V30 1055 H 95.0794 2.3898 -3.17765 0
M  V30 1056 N 96.0765 1.50051 0.48192 0
M  V30 1057 C 97.4875 1.5348 1.06305 0
M  V30 1058 C 97.8385 0.331997 1.93371 0
M  V30 1059 O 96.9635 -0.556256 2.09129 0
M  V30 1060 C 97.5585 2.7813 1.93466 0
M  V30 1061 C 96.1175 2.84275 2.46707 0
M  V30 1062 C 95.2645 2.47637 1.24785 0
M  V30 1063 H 98.2155 1.56472 0.264995 0
M  V30 1064 H 98.2365 2.59372 2.78399 0
M  V30 1065 H 97.7485 3.65654 1.30072 0
M  V30 1066 H 95.8495 2.01077 3.13686 0
M  V30 1067 H 95.9625 3.8691 2.82555 0
M  V30 1068 H 94.3265 1.99835 1.57918 0
M  V30 1069 H 95.1095 3.37457 0.630694 0
M  V30 1070 N 97.5546 -0.734337 1.39446 0
M  V30 1071 C 98.4846 -1.86155 1.40955 0
M  V30 1072 C 99.4656 -1.67898 0.272827 0
M  V30 1073 O 100.651 -1.88207 0.478743 0
M  V30 1074 C 97.7806 -3.23912 1.25294 0
M  V30 1075 C 96.7346 -3.56808 2.36373 0
M  V30 1076 C 96.0606 -4.93508 2.058 0
M  V30 1077 C 97.3606 -3.59713 3.78687 0
M  V30 1078 H 99.0546 -1.8515 2.35287 0
M  V30 1079 H 96.6006 -0.889367 1.13253 0
M  V30 1080 H 98.5536 -4.02443 1.2497 0
M  V30 1081 H 97.2776 -3.25446 0.274308 0
M  V30 1082 H 95.9366 -2.80606 2.35914 0
M  V30 1083 H 95.5846 -4.91623 1.06374 0
M  V30 1084 H 95.2846 -5.16486 2.80208 0
M  V30 1085 H 96.8086 -5.74396 2.07128 0
M  V30 1086 H 98.2226 -4.2832 3.81071 0
M  V30 1087 H 96.6196 -3.94209 4.52459 0
M  V30 1088 H 97.6896 -2.59504 4.09617 0
M  V30 1089 N 99.0327 -1.24633 -0.964593 0
M  V30 1090 C 99.9807 -1.03917 -2.08096 0
M  V30 1091 C 100.975 0.0268581 -1.69379 0
M  V30 1092 O 102.181 -0.127952 -1.79545 0
M  V30 1093 H 98.5557 -0.319044 -0.680966 0
M  V30 1094 H 100.527 -1.98581 -2.22729 0
M  V30 1095 C 99.2757 -0.663983 -3.41301 0
M  V30 1096 H 98.5987 -1.47605 -3.71555 0
M  V30 1097 H 100.039 -0.558663 -4.20303 0
M  V30 1098 C 98.4977 0.629169 -3.30973 0
M  V30 1099 O 99.0277 1.67404 -3.65156 0
M  V30 1100 N 97.2337 0.611057 -2.84103 0
M  V30 1101 H 96.7807 -0.239593 -2.56483 0
M  V30 1102 H 96.7387 1.47647 -2.77575 0
M  V30 1103 N 100.511 1.16574 -1.06058 0
M  V30 1104 C 101.788 1.83048 -0.689416 0
M  V30 1105 C 102.168 1.94122 0.829443 0
M  V30 1106 O 101.516 1.48249 1.7388 0
M  V30 1107 C 101.726 3.20186 -1.38859 0
M  V30 1108 C 103.074 3.95989 -1.53226 0
M  V30 1109 O 104.098 3.29696 -1.3483 0
M  V30 1110 O 102.957 5.14813 -1.83384 0
M  V30 1111 H 100.051 0.790258 -0.243764 0
M  V30 1112 H 102.597 1.23797 -1.16071 0
M  V30 1113 H 101.369 3.07146 -2.4244 0
M  V30 1114 H 100.992 3.87112 -0.907216 0
M  V30 1115 N 101.989 0.842826 1.3317 0
M  V30 1116 C 102.936 0.276885 2.29133 0
M  V30 1117 C 103.906 -0.609527 1.54512 0
M  V30 1118 O 105.091 -0.546955 1.82792 0
M  V30 1119 C 102.231 -0.538707 3.40869 0
M  V30 1120 C 101.344 0.372169 4.30394 0
M  V30 1121 C 100.479 -0.454908 5.29249 0
M  V30 1122 C 99.5179 0.45411 6.10413 0
M  V30 1123 N 98.6549 -0.335075 7.013 0
M  V30 1124 H 103.495 1.10052 2.76934 0
M  V30 1125 H 101.032 0.554161 1.36262 0
M  V30 1126 H 102.99 -1.02709 4.0436 0
M  V30 1127 H 101.62 -1.32727 2.9425 0
M  V30 1128 H 100.672 0.97888 3.6759 0
M  V30 1129 H 101.984 1.0703 4.87182 0
M  V30 1130 H 101.138 -1.00695 5.98285 0
M  V30 1131 H 99.8769 -1.18646 4.73048 0
M  V30 1132 H 98.8819 1.01813 5.40291 0
M  V30 1133 H 100.107 1.18409 6.68697 0
M  V30 1134 H 98.0529 -1.04994 6.47543 0
M  V30 1135 H 97.9699 0.304262 7.55387 0
M  V30 1136 H 99.2379 -0.869224 7.74638 0
M  V30 1137 N 103.467 -1.45747 0.599634 0
M  V30 1138 C 104.714 -2.02292 0.0917284 0
M  V30 1139 C 105.042 -1.46906 -1.27472 0
M  V30 1140 O 104.297 -0.630652 -1.8526 0
M  V30 1141 C 104.596 -3.57399 -0.00602758 0
M  V30 1142 C 104.262 -4.31902 1.29503 0
M  V30 1143 C 102.924 -4.51974 1.65144 0
M  V30 1144 C 105.276 -4.74551 2.15525 0
M  V30 1145 C 102.604 -5.11949 2.86574 0
M  V30 1146 C 104.956 -5.35868 3.36196 0
M  V30 1147 C 103.62 -5.54165 3.72099 0
M  V30 1148 H 102.89 -0.740239 0.0335658 0
M  V30 1149 H 105.537 -1.7491 0.779661 0
M  V30 1150 H 103.842 -3.84014 -0.777183 0
M  V30 1151 H 105.539 -3.98846 -0.415038 0
M  V30 1152 H 102.129 -4.16588 1.00761 0
M  V30 1153 H 106.313 -4.58784 1.8929 0
M  V30 1154 H 101.569 -5.24305 3.14507 0
M  V30 1155 H 105.743 -5.6787 4.03109 0
M  V30 1156 H 103.37 -6.00406 4.6628 0
M  V30 1157 N 104.945 -0.338344 -1.53925 0
M  V30 1158 C 105.855 0.529421 -2.28548 0
M  V30 1159 C 106.871 1.11645 -1.3346 0
M  V30 1160 O 108.047 1.13325 -1.66492 0
M  V30 1161 C 105.112 1.66713 -3.03987 0
M  V30 1162 C 104.173 1.11041 -4.14691 0
M  V30 1163 C 103.406 2.19389 -4.86522 0
M  V30 1164 O 103.629 3.40013 -4.57982 0
M  V30 1165 O 102.563 1.83976 -5.73094 0
M  V30 1166 H 106.389 -0.0770399 -3.03602 0
M  V30 1167 H 103.974 -0.103555 -1.49041 0
M  V30 1168 H 105.856 2.32918 -3.5118 0
M  V30 1169 H 104.531 2.25949 -2.31794 0
M  V30 1170 H 103.438 0.413024 -3.71813 0
M  V30 1171 H 104.771 0.562975 -4.8897 0
M  V30 1172 N 106.423 1.57458 -0.0668435 0
M  V30 1173 C 107.834 1.80776 0.466558 0
M  V30 1174 C 108.185 0.980361 1.69951 0
M  V30 1175 O 107.31 0.201441 2.1546 0
M  V30 1176 C 107.905 3.27881 0.85321 0
M  V30 1177 C 106.464 3.52062 1.3315 0
M  V30 1178 C 105.611 2.75513 0.314264 0
M  V30 1179 H 108.562 1.5598 -0.292588 0
M  V30 1180 H 108.583 3.39659 1.715 0
M  V30 1181 H 108.095 3.88075 -0.0443439 0
M  V30 1182 H 106.196 2.97167 2.24772 0
M  V30 1183 H 106.309 4.60762 1.31285 0
M  V30 1184 H 104.673 2.42123 0.790492 0
M  V30 1185 H 105.456 3.38442 -0.575477 0
M  V30 1186 N 107.901 -0.206675 1.56239 0
M  V30 1187 C 109.147 -0.925733 1.81113 0
M  V30 1188 C 109.502 -1.81368 0.642135 0
M  V30 1189 O 108.795 -1.88126 -0.363211 0
M  V30 1190 C 108.989 -1.78675 3.09532 0
M  V30 1191 C 108.818 -0.98365 4.3881 0
M  V30 1192 C 107.588 -0.672661 5.00803 0
M  V30 1193 C 109.786 -0.341847 5.13163 0
M  V30 1194 N 107.768 0.150283 6.13716 0
M  V30 1195 C 109.139 0.343815 6.19046 0
M  V30 1196 C 111.194 -0.256392 4.97239 0
M  V30 1197 C 109.897 1.10678 7.10734 0
M  V30 1198 C 111.923 0.493142 5.8934 0
M  V30 1199 C 111.285 1.16729 6.94661 0
M  V30 1200 H 107.384 -0.318524 0.714189 0
M  V30 1201 H 109.968 -0.195378 1.93717 0
M  V30 1202 H 108.139 -2.4888 2.98183 0
M  V30 1203 H 109.871 -2.44441 3.22538 0
M  V30 1204 H 106.626 -0.994294 4.63045 0
M  V30 1205 H 107.05 0.551026 6.74754 0
M  V30 1206 H 111.692 -0.763249 4.15854 0
M  V30 1207 H 109.41 1.6251 7.91591 0
M  V30 1208 H 112.996 0.560465 5.79094 0
M  V30 1209 H 111.876 1.738 7.64698 0
M  V30 1210 N 109.379 -1.50304 -0.473955 0
M  V30 1211 C 110.309 -1.71886 -1.58042 0
M  V30 1212 C 111.29 -0.567799 -1.60344 0
M  V30 1213 O 112.475 -0.806623 -1.76656 0
M  V30 1214 C 109.605 -1.81036 -2.96384 0
M  V30 1215 C 108.559 -2.962 -3.08949 0
M  V30 1216 C 107.885 -2.9049 -4.48909 0
M  V30 1217 C 109.185 -4.36752 -2.86434 0
M  V30 1218 H 110.879 -2.64527 -1.40234 0
M  V30 1219 H 108.425 -1.27295 -0.673201 0
M  V30 1220 H 110.378 -1.94719 -3.73714 0
M  V30 1221 H 109.102 -0.850147 -3.15341 0
M  V30 1222 H 107.761 -2.82164 -2.3405 0
M  V30 1223 H 107.409 -1.92321 -4.64781 0
M  V30 1224 H 107.109 -3.67802 -4.58253 0
M  V30 1225 H 108.633 -3.06218 -5.28264 0
M  V30 1226 H 110.047 -4.5133 -3.53517 0
M  V30 1227 H 108.444 -5.15493 -3.07225 0
M  V30 1228 H 109.514 -4.49321 -1.82316 0
M  V30 1229 N 110.857 0.726932 -1.39834 0
M  V30 1230 C 111.82 1.82269 -1.38962 0
M  V30 1231 C 112.82 1.58248 -0.285334 0
M  V30 1232 O 114.01 1.65499 -0.54366 0
M  V30 1233 C 111.142 3.20186 -1.17019 0
M  V30 1234 H 112.335 1.84443 -2.36476 0
M  V30 1235 H 109.888 0.931416 -1.25516 0
M  V30 1236 H 110.623 3.23669 -0.202204 0
M  V30 1237 H 110.408 3.3902 -1.96998 0
M  V30 1238 H 111.898 4.00235 -1.1917 0
M  V30 1239 N 112.336 1.25143 0.95797 0
M  V30 1240 C 113.246 1.06968 2.08794 0
M  V30 1241 C 114.262 0.00773911 1.73998 0
M  V30 1242 O 115.438 0.207972 2.00323 0
M  V30 1243 C 112.503 0.68691 3.39827 0
M  V30 1244 C 111.564 1.82641 3.88511 0
M  V30 1245 C 110.797 1.46181 5.1329 0
M  V30 1246 O 111.02 0.355971 5.69288 0
M  V30 1247 O 109.954 2.29085 5.566 0
M  V30 1248 H 113.78 2.01723 2.27027 0
M  V30 1249 H 111.365 1.04051 1.07209 0
M  V30 1250 H 113.247 0.485417 4.18595 0
M  V30 1251 H 111.922 -0.231417 3.22872 0
M  V30 1252 H 110.829 2.08274 3.10762 0
M  V30 1253 H 112.162 2.72386 4.09959 0
M  V30 1254 N 113.814 -1.1601 1.06675 0
M  V30 1255 C 114.761 -2.20525 0.680967 0
M  V30 1256 C 115.731 -1.62904 -0.324283 0
M  V30 1257 O 116.916 -1.89615 -0.212294 0
M  V30 1258 C 114.056 -3.45013 0.0776551 0
M  V30 1259 C 113.169 -4.16863 1.13355 0
M  V30 1260 C 112.304 -5.2888 0.49597 0
M  V30 1261 C 111.343 -5.92537 1.53513 0
M  V30 1262 N 110.48 -6.96038 0.920631 0
M  V30 1263 H 115.32 -2.52876 1.57663 0
M  V30 1264 H 112.857 -1.24199 0.788223 0
M  V30 1265 H 114.815 -4.16193 -0.289704 0
M  V30 1266 H 113.445 -3.132 -0.781393 0
M  V30 1267 H 112.497 -3.44248 1.61857 0
M  V30 1268 H 113.809 -4.60294 1.92174 0
M  V30 1269 H 112.963 -6.06653 0.0758604 0
M  V30 1270 H 111.702 -4.86622 -0.324062 0
M  V30 1271 H 110.707 -5.13482 1.9651 0
M  V30 1272 H 111.932 -6.36873 2.35733 0
M  V30 1273 H 109.878 -6.55888 0.12138 0
M  V30 1274 H 109.795 -7.3786 1.64616 0
M  V30 1275 H 111.063 -7.77725 0.525795 0
M  V30 1276 N 115.292 -0.849877 -1.32721 0
M  V30 1277 C 116.54 -0.450032 -1.97026 0
M  V30 1278 C 116.861 0.996604 -1.67609 0
M  V30 1279 O 116.131 1.6958 -0.980786 0
M  V30 1280 H 114.711 -0.163426 -0.728904 0
M  V30 1281 H 117.373 -1.08526 -1.6189 0
M  V30 1282 H 116.469 -0.591146 -3.0645 0
M  V30 1283 N 116.77 1.45427 -0.607355 0
M  V30 1284 C 117.68 2.34325 0.113463 0
M  V30 1285 C 118.696 1.51226 0.860617 0
M  V30 1286 O 119.872 1.84029 0.818255 0
M  V30 1287 C 116.937 3.28839 1.09844 0
M  V30 1288 C 115.998 4.27844 0.353271 0
M  V30 1289 C 115.231 5.17842 1.29133 0
M  V30 1290 O 115.454 5.11264 2.52913 0
M  V30 1291 O 114.388 5.96713 0.788523 0
M  V30 1292 H 118.214 2.97364 -0.617094 0
M  V30 1293 H 115.799 1.44807 -0.367619 0
M  V30 1294 H 117.681 3.8708 1.66575 0
M  V30 1295 H 116.356 2.68365 1.81003 0
M  V30 1296 H 115.263 3.7322 -0.256494 0
M  V30 1297 H 116.596 4.91173 -0.317822 0
M  V30 1298 N 118.248 0.346503 1.53744 0
M  V30 1299 C 119.494 -0.242135 2.01954 0
M  V30 1300 C 119.849 -1.47962 1.22984 0
M  V30 1301 O 119.142 -1.89077 0.309924 0
M  V30 1302 C 119.336 -0.605809 3.52228 0
M  V30 1303 C 119.165 0.594882 4.45748 0
M  V30 1304 C 117.935 1.1011 4.93157 0
M  V30 1305 C 120.133 1.45425 4.93311 0
M  V30 1306 N 118.115 2.26381 5.70636 0
M  V30 1307 C 119.486 2.46383 5.68942 0
M  V30 1308 C 121.541 1.47935 4.75415 0
M  V30 1309 C 120.244 3.49684 6.28581 0
M  V30 1310 C 122.27 2.50119 5.35905 0
M  V30 1311 C 121.632 3.49803 6.11406 0
M  V30 1312 H 117.731 -0.0518296 0.780281 0
M  V30 1313 H 120.315 0.486736 1.88518 0
M  V30 1314 H 118.486 -1.30378 3.65864 0
M  V30 1315 H 120.218 -1.17789 3.87179 0
M  V30 1316 H 116.973 0.668721 4.68855 0
M  V30 1317 H 117.397 2.85094 6.14044 0
M  V30 1318 H 122.039 0.722274 4.16585 0
M  V30 1319 H 119.757 4.26285 6.86518 0
M  V30 1320 H 123.343 2.52892 5.23963 0
M  V30 1321 H 122.223 4.27576 6.5738 0
M  V30 1322 N 119.726 -1.57421 0.075193 0
M  V30 1323 C 120.972 -1.93905 -0.594025 0
M  V30 1324 C 121.305 -0.955701 -1.69056 0
M  V30 1325 O 120.58 0.0145373 -1.94495 0
M  V30 1326 C 120.863 -3.40638 -1.1678 0
M  V30 1327 C 120.716 -4.49733 -0.0776792 0
M  V30 1328 C 122.035 -3.88259 -2.07228 0
M  V30 1329 H 119.154 -0.705105 -0.214466 0
M  V30 1330 H 121.796 -1.8947 0.141854 0
M  V30 1331 H 119.946 -3.44549 -1.79494 0
M  V30 1332 H 121.618 -4.57942 0.555573 0
M  V30 1333 H 119.861 -4.29751 0.591286 0
M  V30 1334 H 120.532 -5.49549 -0.519603 0
M  V30 1335 H 123.008 -3.86376 -1.54445 0
M  V30 1336 H 121.884 -4.91533 -2.44308 0
M  V30 1337 H 122.145 -3.26396 -2.98191 0
M  V30 1338 N 121.204 0.198386 -1.56346 0
M  V30 1339 C 122.429 0.939682 -1.84891 0
M  V30 1340 C 122.854 1.76202 -0.658369 0
M  V30 1341 O 122.212 1.76993 0.392851 0
M  V30 1342 C 122.26 1.81428 -3.11635 0
M  V30 1343 O 121.364 2.91265 -2.91956 0
M  V30 1344 H 120.705 0.264807 -0.608912 0
M  V30 1345 H 123.235 0.204695 -2.03573 0
M  V30 1346 H 123.245 2.21958 -3.42343 0
M  V30 1347 H 121.92 1.21004 -3.97908 0
M  V30 1348 H 120.497 2.54514 -2.72538 0
M  V30 1349 N 122.682 1.50554 0.465978 0
M  V30 1350 C 123.63 1.70324 1.58406 0
M  V30 1351 C 124.624 0.569139 1.59553 0
M  V30 1352 O 125.83 0.749776 1.63641 0
M  V30 1353 H 122.205 0.537688 0.525734 0
M  V30 1354 H 124.176 2.64104 1.38894 0
M  V30 1355 C 122.925 1.81928 2.96307 0
M  V30 1356 H 122.248 2.68586 2.96144 0
M  V30 1357 H 123.688 1.99784 3.73982 0
M  V30 1358 C 122.147 0.572095 3.32007 0
M  V30 1359 O 122.677 -0.286416 4.00678 0
M  V30 1360 N 120.883 0.424606 2.87481 0
M  V30 1361 H 120.43 1.12427 2.31771 0
M  V30 1362 H 120.388 -0.408697 3.11732 0
M  V30 1363 N 124.16 -0.719506 1.40217 0
M  V30 1364 C 125.108 -1.85493 1.40339 0
M  V30 1365 C 126.102 -1.66995 0.284415 0
M  V30 1366 O 127.308 -1.74148 0.455252 0
M  V30 1367 H 123.683 -0.610857 0.438586 0
M  V30 1368 H 125.654 -1.82506 2.36081 0
M  V30 1369 C 124.403 -3.23321 1.27901 0
M  V30 1370 H 123.726 -3.38159 2.1328 0
M  V30 1371 H 125.166 -4.02914 1.32045 0
M  V30 1372 C 123.625 -3.36898 -0.0111355 0
M  V30 1373 O 124.155 -3.89674 -0.975538 0
M  V30 1374 N 122.361 -2.90492 -0.0793393 0
M  V30 1375 H 121.908 -2.47731 0.706183 0
M  V30 1376 H 121.866 -2.99955 -0.942038 0
M  V30 1377 N 125.638 -1.25649 -0.95132 0
M  V30 1378 C 126.548 -1.08073 -2.08224 0
M  V30 1379 C 127.564 -0.0169666 -1.73992 0
M  V30 1380 O 128.74 -0.218593 -2.0021 0
M  V30 1381 C 125.805 -0.704922 -3.39458 0
M  V30 1382 C 124.866 -1.84699 -3.87537 0
M  V30 1383 C 124.099 -1.48902 -5.12508 0
M  V30 1384 O 124.322 -0.386156 -5.69091 0
M  V30 1385 O 123.256 -2.32033 -5.55378 0
M  V30 1386 H 127.082 -2.02924 -2.25954 0
M  V30 1387 H 124.667 -1.04618 -1.06656 0
M  V30 1388 H 126.549 -0.507609 -4.18332 0
M  V30 1389 H 125.224 0.214291 -3.2299 0
M  V30 1390 H 124.131 -2.09919 -3.09653 0
M  V30 1391 H 125.464 -2.74557 -4.08509 0
M  V30 1392 N 127.117 1.15442 -1.07289 0
M  V30 1393 C 128.347 1.89821 -0.815576 0
M  V30 1394 C 128.755 1.7823 0.634867 0
M  V30 1395 O 128.098 1.13152 1.44715 0
M  V30 1396 C 128.16 3.40817 -1.14385 0
M  V30 1397 C 127.824 3.76193 -2.59476 0
M  V30 1398 C 128.821 3.77269 -3.57721 0
M  V30 1399 C 126.506 4.0652 -2.95037 0
M  V30 1400 C 128.5 4.08176 -4.89562 0
M  V30 1401 C 126.187 4.37092 -4.27076 0
M  V30 1402 C 127.185 4.37902 -5.24148 0
M  V30 1403 O 126.873 4.67741 -6.53815 0
M  V30 1404 H 126.605 0.608465 -0.294528 0
M  V30 1405 H 129.159 1.472 -1.43252 0
M  V30 1406 H 127.389 3.83835 -0.469865 0
M  V30 1407 H 129.078 3.96485 -0.869179 0
M  V30 1408 H 129.844 3.5394 -3.3159 0
M  V30 1409 H 125.723 4.05049 -2.20128 0
M  V30 1410 H 129.267 4.08723 -5.65324 0
M  V30 1411 H 125.164 4.59889 -4.5296 0
M  V30 1412 H 125.932 4.85509 -6.58957 0
M  V30 1413 N 128.595 0.856903 1.32268 0
M  V30 1414 C 129.841 0.462069 1.97466 0
M  V30 1415 C 130.174 -0.980298 1.67642 0
M  V30 1416 O 129.449 -1.68824 0.965858 0
M  V30 1417 C 129.732 0.704336 3.53145 0
M  V30 1418 C 129.585 2.19529 3.9259 0
M  V30 1419 C 130.904 0.1622 4.39801 0
M  V30 1420 H 128.023 0.169357 0.717278 0
M  V30 1421 H 130.665 1.07574 1.56614 0
M  V30 1422 H 128.815 0.181999 3.88073 0
M  V30 1423 H 130.487 2.78387 3.67829 0
M  V30 1424 H 128.73 2.67292 3.41668 0
M  V30 1425 H 129.401 2.31549 5.01088 0
M  V30 1426 H 131.877 0.608905 4.11621 0
M  V30 1427 H 130.753 0.361265 5.4771 0
M  V30 1428 H 131.014 -0.935158 4.32096 0
M  V30 1429 N 130.073 -1.45103 0.615059 0
M  V30 1430 C 131.003 -2.33339 -0.0865619 0
M  V30 1431 C 131.984 -1.4727 -0.851209 0
M  V30 1432 O 133.169 -1.76026 -0.820281 0
M  V30 1433 C 130.299 -3.30095 -1.07956 0
M  V30 1434 C 129.253 -4.25858 -0.427628 0
M  V30 1435 C 128.579 -5.12361 -1.5294 0
M  V30 1436 C 129.879 -5.18165 0.655944 0
M  V30 1437 H 131.573 -2.92254 0.650224 0
M  V30 1438 H 129.119 -1.40532 0.314138 0
M  V30 1439 H 131.072 -3.90698 -1.57901 0
M  V30 1440 H 129.796 -2.69355 -1.84703 0
M  V30 1441 H 128.455 -3.66564 0.0510292 0
M  V30 1442 H 128.103 -4.47984 -2.28734 0
M  V30 1443 H 127.803 -5.77238 -1.09865 0
M  V30 1444 H 129.327 -5.75833 -2.03098 0
M  V30 1445 H 130.741 -5.72796 0.240257 0
M  V30 1446 H 129.138 -5.91559 1.00888 0
M  V30 1447 H 130.208 -4.60144 1.52957 0
M  V30 1448 N 131.551 -0.354651 -1.53558 0
M  V30 1449 C 132.779 0.239515 -2.05509 0
M  V30 1450 C 133.194 1.4333 -1.2289 0
M  V30 1451 O 132.551 1.80538 -0.266899 0
M  V30 1452 C 132.602 0.643719 -3.55723 0
M  V30 1453 O 132.323 -0.502602 -4.35207 0
M  V30 1454 C 133.824 1.29743 -4.23889 0
M  V30 1455 H 131.044 0.0442697 -0.669538 0
M  V30 1456 H 133.588 -0.509856 -1.98042 0
M  V30 1457 H 131.743 1.34302 -3.63376 0
M  V30 1458 H 132.157 -0.178172 -5.24197 0
M  V30 1459 H 133.631 1.53091 -5.30346 0
M  V30 1460 H 134.108 2.25441 -3.76926 0
M  V30 1461 H 134.714 0.639865 -4.20459 0
M  V30 1462 N 133.029 1.57378 -0.0835403 0
M  V30 1463 C 133.959 2.1641 0.87686 0
M  V30 1464 C 134.94 1.09429 1.30228 0
M  V30 1465 O 136.125 1.37516 1.37124 0
M  V30 1466 C 133.255 2.73517 2.14022 0
M  V30 1467 C 132.209 3.85769 1.85381 0
M  V30 1468 C 131.535 4.29529 3.18448 0
M  V30 1469 C 132.835 5.09486 1.14984 0
M  V30 1470 H 134.529 2.96914 0.385059 0
M  V30 1471 H 132.075 1.42823 0.18377 0
M  V30 1472 H 134.028 3.13463 2.81636 0
M  V30 1473 H 132.752 1.90252 2.65465 0
M  V30 1474 H 131.411 3.46345 1.20169 0
M  V30 1475 H 131.059 3.43169 3.67755 0
M  V30 1476 H 130.759 5.05204 3.00071 0
M  V30 1477 H 132.283 4.72099 3.8724 0
M  V30 1478 H 133.697 5.46674 1.72687 0
M  V30 1479 H 132.094 5.90515 1.06826 0
M  V30 1480 H 133.164 4.84724 0.130749 0
M  V30 1481 N 134.507 -0.190092 1.56449 0
M  V30 1482 C 135.923 -0.54113 1.50146 0
M  V30 1483 C 136.123 -1.85603 0.784465 0
M  V30 1484 O 135.179 -2.5024 0.337051 0
M  V30 1485 C 136.492 -0.591241 2.9483 0
M  V30 1486 C 138.04 -0.679732 3.0553 0
M  V30 1487 C 138.515 -0.760908 4.51635 0
M  V30 1488 N 140.006 -0.824302 4.55806 0
M  V30 1489 C 140.741 -0.907365 5.66175 0
M  V30 1490 N 140.237 -0.952422 6.86222 0
M  V30 1491 N 142.03 -0.94494 5.541 0
M  V30 1492 H 134.181 0.67235 2.01478 0
M  V30 1493 H 136.444 0.240127 0.917084 0
M  V30 1494 H 136.15 0.305905 3.50367 0
M  V30 1495 H 136.024 -1.44422 3.48457 0
M  V30 1496 H 138.411 -1.56731 2.50039 0
M  V30 1497 H 138.492 0.199549 2.5502 0
M  V30 1498 H 138.136 0.122336 5.07753 0
M  V30 1499 H 138.066 -1.65606 4.99882 0
M  V30 1500 H 140.557 -0.798526 3.69367 0
M  V30 1501 H 140.87 -1.01645 7.66086 0
M  V30 1502 H 139.215 -0.921014 6.8887 0
M  V30 1503 H 142.406 -0.906612 4.59236 0
M  V30 1504 H 142.579 -1.00622 6.4014 0
M  V30 1505 N 135.985 -1.50799 -0.457987 0
M  V30 1506 C 136.932 -1.70617 -1.5543 0
M  V30 1507 C 137.902 -0.547562 -1.56815 0
M  V30 1508 O 139.087 -0.779647 -1.74144 0
M  V30 1509 C 136.227 -1.81831 -2.93311 0
M  V30 1510 C 135.34 -3.09278 -3.01615 0
M  V30 1511 C 134.475 -3.11209 -4.30491 0
M  V30 1512 C 133.514 -4.33055 -4.32585 0
M  V30 1513 N 132.651 -4.32652 -5.52952 0
M  V30 1514 H 137.491 -2.64207 -1.37836 0
M  V30 1515 H 135.028 -1.30959 -0.669937 0
M  V30 1516 H 136.986 -1.86314 -3.73287 0
M  V30 1517 H 135.616 -0.916685 -3.0951 0
M  V30 1518 H 134.668 -3.14203 -2.1443 0
M  V30 1519 H 135.98 -3.99233 -2.99022 0
M  V30 1520 H 135.134 -3.14494 -5.18824 0
M  V30 1521 H 133.873 -2.19106 -4.35711 0
M  V30 1522 H 132.878 -4.29969 -3.42647 0
M  V30 1523 H 134.103 -5.264 -4.29046 0
M  V30 1524 H 132.049 -3.43409 -5.58933 0
M  V30 1525 H 131.966 -5.16392 -5.52155 0
M  V30 1526 H 133.234 -4.40101 -6.43375 0
M  V30 1527 N 137.463 0.71206 -1.40597 0
M  V30 1528 C 138.711 1.46907 -1.38791 0
M  V30 1529 C 139.032 1.94998 0.00780391 0
M  V30 1530 O 138.302 1.70587 0.963174 0
M  V30 1531 H 136.882 0.545043 -0.51082 0
M  V30 1532 H 139.544 0.843882 -1.75683 0
M  V30 1533 H 138.64 2.34021 -2.06496 0
M  V30 1534 N 138.941 1.26152 0.944643 0
M  V30 1535 C 139.871 1.09902 2.06019 0
M  V30 1536 C 140.852 0.00519538 1.70099 0
M  V30 1537 O 142.037 0.176583 1.93396 0
M  V30 1538 C 139.167 0.727562 3.39594 0
M  V30 1539 C 138.121 1.77274 3.89561 0
M  V30 1540 C 137.447 1.25569 5.19747 0
M  V30 1541 C 138.747 3.17357 4.14827 0
M  V30 1542 H 140.441 2.03217 2.19871 0
M  V30 1543 H 137.987 0.978452 1.05652 0
M  V30 1544 H 139.94 0.600777 4.17095 0
M  V30 1545 H 138.664 -0.241287 3.25707 0
M  V30 1546 H 137.323 1.88814 3.14237 0
M  V30 1547 H 136.971 0.276783 5.02238 0
M  V30 1548 H 136.671 1.95433 5.54148 0
M  V30 1549 H 138.195 1.1415 5.99835 0
M  V30 1550 H 139.609 3.08914 4.82954 0
M  V30 1551 H 138.006 3.84781 4.60504 0
M  V30 1552 H 139.076 3.63673 3.20734 0
M  V30 1553 N 140.419 -1.14872 1.07899 0
M  V30 1554 C 141.835 -1.37776 0.805606 0
M  V30 1555 C 142.035 -1.92743 -0.587555 0
M  V30 1556 O 141.091 -2.13678 -1.34528 0
M  V30 1557 C 142.404 -2.34361 1.88402 0
M  V30 1558 C 143.952 -2.48012 1.90942 0
M  V30 1559 C 144.427 -3.47893 2.97883 0
M  V30 1560 N 145.918 -3.55433 2.97021 0
M  V30 1561 C 146.653 -4.32553 3.76412 0
M  V30 1562 N 146.149 -5.12959 4.65666 0
M  V30 1563 N 147.942 -4.27697 3.64735 0
M  V30 1564 H 140.093 -0.775365 1.97742 0
M  V30 1565 H 142.356 -0.403521 0.857831 0
M  V30 1566 H 142.062 -2.01098 2.88535 0
M  V30 1567 H 141.936 -3.34206 1.74889 0
M  V30 1568 H 144.323 -2.8057 0.914579 0
M  V30 1569 H 144.404 -1.48147 2.08534 0
M  V30 1570 H 144.048 -3.16069 3.97571 0
M  V30 1571 H 143.978 -4.47527 2.77538 0
M  V30 1572 H 146.469 -2.98048 2.32326 0
M  V30 1573 H 146.782 -5.69065 5.22862 0
M  V30 1574 H 145.127 -5.12245 4.69712 0
M  V30 1575 H 148.318 -3.63949 2.94378 0
M  V30 1576 H 148.491 -4.8755 4.26848 0
M  V30 1577 N 141.898 -0.863906 -1.31812 0
M  V30 1578 C 143.144 -0.481841 -1.9761 0
M  V30 1579 C 143.499 0.954048 -1.6708 0
M  V30 1580 O 142.792 1.66182 -0.953624 0
M  V30 1581 C 142.986 -0.668547 -3.51091 0
M  V30 1582 C 142.815 -2.12103 -3.96538 0
M  V30 1583 C 141.585 -2.76141 -4.23171 0
M  V30 1584 C 143.783 -3.09265 -4.10925 0
M  V30 1585 N 141.765 -4.12205 -4.54929 0
M  V30 1586 C 143.136 -4.30341 -4.46326 0
M  V30 1587 C 145.191 -3.05337 -3.93286 0
M  V30 1588 C 143.894 -5.48 -4.65928 0
M  V30 1589 C 145.92 -4.22248 -4.14078 0
M  V30 1590 C 145.282 -5.42085 -4.49804 0
M  V30 1591 H 141.381 -0.225238 -0.74886 0
M  V30 1592 H 143.965 -1.11723 -1.59455 0
M  V30 1593 H 142.136 -0.0627898 -3.88349 0
M  V30 1594 H 143.868 -0.255467 -4.03893 0
M  V30 1595 H 140.623 -2.27125 -4.15585 0
M  V30 1596 H 141.047 -4.82416 -4.74978 0
M  V30 1597 H 145.689 -2.138 -3.64759 0
M  V30 1598 H 143.407 -6.40059 -4.93305 0
M  V30 1599 H 146.993 -4.20654 -4.01922 0
M  V30 1600 H 145.873 -6.31044 -4.65567 0
M  V30 1601 N 143.376 1.44774 -0.622745 0
M  V30 1602 C 144.308 2.28856 0.125485 0
M  V30 1603 C 145.321 1.40811 0.817069 0
M  V30 1604 O 146.51 1.65044 0.679918 0
M  V30 1605 C 143.61 3.16963 1.19949 0
M  V30 1606 C 142.783 4.33374 0.592064 0
M  V30 1607 C 141.842 5.02577 1.55893 0
M  V30 1608 O 140.868 5.58873 1.07933 0
M  V30 1609 N 142.07 5.03256 2.89334 0
M  V30 1610 H 144.835 2.93713 -0.596068 0
M  V30 1611 H 142.396 1.55129 -0.463303 0
M  V30 1612 H 144.388 3.60123 1.84644 0
M  V30 1613 H 142.958 2.53913 1.82337 0
M  V30 1614 H 142.178 3.93509 -0.233322 0
M  V30 1615 H 143.466 5.08527 0.166738 0
M  V30 1616 H 142.864 4.58836 3.30887 0
M  V30 1617 H 141.421 5.50232 3.49412 0
M  V30 1618 N 144.854 0.36279 1.53368 0
M  V30 1619 C 146.131 -0.284021 1.93527 0
M  V30 1620 C 146.511 -1.66628 1.29608 0
M  V30 1621 O 145.859 -2.23942 0.45413 0
M  V30 1622 C 146.069 -0.337028 3.47369 0
M  V30 1623 C 147.417 -0.578708 4.20638 0
M  V30 1624 O 148.441 -0.418352 3.53735 0
M  V30 1625 O 147.3 -0.89074 5.39192 0
M  V30 1626 H 144.394 -0.169743 0.809393 0
M  V30 1627 H 146.94 0.41537 1.64538 0
M  V30 1628 H 145.712 0.632217 3.86159 0
M  V30 1629 H 145.335 -1.08243 3.82582 0
M  V30 1630 N 146.332 -1.57332 0.0918853 0
M  V30 1631 C 147.58 -1.93853 -0.571446 0
M  V30 1632 C 147.901 -0.974212 -1.6892 0
M  V30 1633 O 147.171 -0.0257254 -1.95883 0
M  V30 1634 H 145.751 -0.715666 -0.214082 0
M  V30 1635 H 148.413 -1.94287 0.154464 0
M  V30 1636 H 147.509 -2.96191 -0.983729 0
M  V30 1637 N 147.81 0.181792 -1.56548 0
M  V30 1638 C 149.056 0.901431 -1.81665 0
M  V30 1639 C 149.389 1.82347 -0.668075 0
M  V30 1640 O 148.664 1.91669 0.330615 0
M  V30 1641 C 148.947 1.70618 -3.17115 0
M  V30 1642 C 148.8 0.807964 -4.42484 0
M  V30 1643 C 150.119 2.67605 -3.49393 0
M  V30 1644 H 147.238 0.32627 -0.660846 0
M  V30 1645 H 149.88 0.168134 -1.89255 0
M  V30 1646 H 148.03 2.33133 -3.10775 0
M  V30 1647 H 149.702 0.19649 -4.60881 0
M  V30 1648 H 147.945 0.115411 -4.33646 0
M  V30 1649 H 148.616 1.40632 -5.33785 0
M  V30 1650 H 151.092 2.15218 -3.56118 0
M  V30 1651 H 149.968 3.20985 -4.45264 0
M  V30 1652 H 150.229 3.47298 -2.73563 0
M  V30 1653 N 149.288 1.51039 0.449983 0
M  V30 1654 C 150.699 1.557 1.03026 0
M  V30 1655 C 151.05 0.372939 1.92623 0
M  V30 1656 O 150.175 -0.511771 2.10261 0
M  V30 1657 C 150.77 2.82171 1.87523 0
M  V30 1658 C 149.329 2.89444 2.40622 0
M  V30 1659 C 148.476 2.50228 1.19504 0
M  V30 1660 H 151.427 1.56999 0.231745 0
M  V30 1661 H 151.448 2.65219 2.72835 0
M  V30 1662 H 150.96 3.68331 1.22286 0
M  V30 1663 H 149.061 2.07685 3.0935 0
M  V30 1664 H 149.174 3.92816 2.74285 0
M  V30 1665 H 147.538 2.03139 1.53644 0
M  V30 1666 H 148.321 3.38719 0.558972 0
M  V30 1667 N 150.766 -0.704594 1.40972 0
M  V30 1668 C 151.696 -1.83124 1.44872 0
M  V30 1669 C 152.677 -1.67281 0.30838 0
M  V30 1670 O 153.862 -1.87149 0.518556 0
M  V30 1671 C 150.992 -3.21181 1.32136 0
M  V30 1672 C 149.946 -3.51714 2.43888 0
M  V30 1673 C 149.272 -4.89032 2.16222 0
M  V30 1674 C 150.572 -3.516 3.86232 0
M  V30 1675 H 152.266 -1.80117 2.39161 0
M  V30 1676 H 149.812 -0.865145 1.15114 0
M  V30 1677 H 151.765 -3.99702 1.33479 0
M  V30 1678 H 150.489 -3.24791 0.343279 0
M  V30 1679 H 149.148 -2.75539 2.41813 0
M  V30 1680 H 148.796 -4.89256 1.16778 0
M  V30 1681 H 148.496 -5.10426 2.911 0
M  V30 1682 H 150.02 -5.69873 2.19265 0
M  V30 1683 H 151.434 -4.2014 3.9007 0
M  V30 1684 H 149.831 -3.84523 4.60719 0
M  V30 1685 H 150.901 -2.50757 4.15029 0
M  V30 1686 N 152.244 -1.26651 -0.937939 0
M  V30 1687 C 153.472 -1.15173 -1.7188 0
M  V30 1688 C 153.887 0.292668 -1.86518 0
M  V30 1689 O 153.244 1.20014 -1.37488 0
M  V30 1690 C 153.295 -1.81925 -3.12387 0
M  V30 1691 O 153.016 -3.2072 -2.98446 0
M  V30 1692 C 154.517 -1.76442 -4.06673 0
M  V30 1693 H 151.737 -0.400911 -0.538063 0
M  V30 1694 H 154.281 -1.67332 -1.1756 0
M  V30 1695 H 152.436 -1.33696 -3.63599 0
M  V30 1696 H 152.85 -3.53802 -3.872 0
M  V30 1697 H 154.324 -2.27781 -5.02812 0
M  V30 1698 H 154.801 -0.731608 -4.33064 0
M  V30 1699 H 155.407 -2.24238 -3.61382 0
M  V30 1700 N 153.722 1.14298 -1.08507 0
M  V30 1701 C 154.685 2.17607 -0.719711 0
M  V30 1702 C 155.685 1.58907 0.245997 0
M  V30 1703 O 156.875 1.74181 0.0254081 0
M  V30 1704 C 154.007 3.40842 -0.0627695 0
M  V30 1705 H 155.2 2.51443 -1.63452 0
M  V30 1706 H 152.753 1.28963 -0.88307 0
M  V30 1707 H 153.488 3.12587 0.863716 0
M  V30 1708 H 153.273 3.84713 -0.757504 0
M  V30 1709 H 154.763 4.17221 0.177786 0
M  V30 1710 N 155.201 0.870884 1.31352 0
M  V30 1711 C 156.478 0.402907 1.91405 0
M  V30 1712 C 156.858 -1.11512 1.79244 0
M  V30 1713 O 156.206 -1.94411 1.2007 0
M  V30 1714 C 156.416 0.885301 3.37585 0
M  V30 1715 C 157.764 0.911971 4.14691 0
M  V30 1716 O 158.788 0.831016 3.46371 0
M  V30 1717 O 157.647 1.02927 5.3672 0
M  V30 1718 H 154.741 0.120698 0.818145 0
M  V30 1719 H 157.287 0.958857 1.40014 0
M  V30 1720 H 156.059 1.92889 3.40455 0
M  V30 1721 H 155.682 0.307714 3.96407 0
M  V30 1722 N 156.679 -1.44442 0.630414 0
M  V30 1723 C 157.956 -1.9549 0.0655657 0
M  V30 1724 C 158.336 -1.5724 -1.40851 0
M  V30 1725 O 157.684 -0.846116 -2.12257 0
M  V30 1726 C 157.894 -3.47812 0.287691 0
M  V30 1727 C 159.242 -4.24216 0.180513 0
M  V30 1728 O 160.266 -3.55526 0.219019 0
M  V30 1729 O 159.125 -5.46434 0.0848493 0
M  V30 1730 H 156.219 -0.826688 -0.0227177 0
M  V30 1731 H 158.765 -1.54496 0.702068 0
M  V30 1732 H 157.537 -3.687 1.31056 0
M  V30 1733 H 157.16 -3.95751 -0.382984 0
M  V30 1734 N 158.157 -0.370918 -1.53173 0
M  V30 1735 C 159.403 0.217423 -2.01631 0
M  V30 1736 C 159.736 1.47983 -1.25756 0
M  V30 1737 O 159.011 1.91274 -0.352764 0
M  V30 1738 C 159.294 0.503982 -3.56556 0
M  V30 1739 C 159.147 -0.77243 -4.43118 0
M  V30 1740 C 160.466 1.30234 -4.20389 0
M  V30 1741 H 157.585 0.0775486 -0.732909 0
M  V30 1742 H 160.227 -0.496863 -1.83388 0
M  V30 1743 H 158.377 1.11248 -3.72231 0
M  V30 1744 H 160.049 -1.4098 -4.39229 0
M  V30 1745 H 158.292 -1.39167 -4.10871 0
M  V30 1746 H 158.963 -0.526815 -5.4948 0
M  V30 1747 H 161.439 0.787546 -4.08579 0
M  V30 1748 H 160.315 1.47158 -5.28806 0
M  V30 1749 H 160.576 2.31237 -3.76805 0
M  V30 1750 N 159.635 1.57281 -0.100228 0
M  V30 1751 C 160.881 1.94826 0.563101 0
M  V30 1752 C 161.214 0.982475 1.67514 0
M  V30 1753 O 160.489 0.0164069 1.94493 0
M  V30 1754 C 160.772 3.42453 1.11346 0
M  V30 1755 C 160.625 4.498 0.00612081 0
M  V30 1756 C 161.944 3.91506 2.01024 0
M  V30 1757 H 159.063 0.708428 0.203221 0
M  V30 1758 H 161.705 1.8922 -0.171979 0
M  V30 1759 H 159.855 3.47361 1.7399 0
M  V30 1760 H 161.527 4.57 -0.628357 0
M  V30 1761 H 159.77 4.28756 -0.659581 0
M  V30 1762 H 160.441 5.50306 0.432109 0
M  V30 1763 H 162.917 3.88784 1.48278 0
M  V30 1764 H 161.793 4.95358 2.36457 0
M  V30 1765 H 162.054 3.31099 2.92961 0
M  V30 1766 N 161.113 -0.173488 1.56642 0
M  V30 1767 C 162.36 -0.890465 1.81871 0
M  V30 1768 C 162.688 -1.82339 0.67696 0
M  V30 1769 O 161.943 -1.92795 -0.335926 0
M  V30 1770 C 162.242 -1.72069 3.13252 0
M  V30 1771 C 161.908 -0.936878 4.41059 0
M  V30 1772 C 160.57 -0.720545 4.75775 0
M  V30 1773 C 162.922 -0.386919 5.19762 0
M  V30 1774 C 160.25 0.0568829 5.86672 0
M  V30 1775 C 162.602 0.37741 6.31473 0
M  V30 1776 C 161.266 0.604563 6.64757 0
M  V30 1777 H 160.536 -0.325844 0.665512 0
M  V30 1778 H 163.183 -0.155527 1.90867 0
M  V30 1779 H 161.488 -2.52496 2.99588 0
M  V30 1780 H 163.185 -2.27844 3.29982 0
M  V30 1781 H 159.775 -1.11553 4.13828 0
M  V30 1782 H 163.959 -0.541398 4.93338 0
M  V30 1783 H 159.215 0.242635 6.10918 0
M  V30 1784 H 163.389 0.810825 6.91664 0
M  V30 1785 H 161.016 1.20885 7.50527 0
M  V30 1786 N 162.591 -1.51276 -0.441967 0
M  V30 1787 C 163.819 -1.67516 -1.21434 0
M  V30 1788 C 164.234 -0.37055 -1.85128 0
M  V30 1789 O 163.591 0.650498 -1.70513 0
M  V30 1790 C 163.642 -2.78748 -2.30177 0
M  V30 1791 O 163.363 -4.04154 -1.69089 0
M  V30 1792 C 164.864 -3.06217 -3.20541 0
M  V30 1793 H 162.084 -0.562276 -0.366178 0
M  V30 1794 H 164.628 -1.97666 -0.524244 0
M  V30 1795 H 162.783 -2.5121 -2.94911 0
M  V30 1796 H 163.197 -4.65894 -2.40922 0
M  V30 1797 H 164.671 -3.8764 -3.92987 0
M  V30 1798 H 165.148 -2.18439 -3.81026 0
M  V30 1799 H 165.754 -3.35397 -2.61513 0
M  V30 1800 N 164.069 0.697108 -1.41344 0
M  V30 1801 C 165.316 1.45714 -1.40619 0
M  V30 1802 C 165.644 1.94494 -0.0147907 0
M  V30 1803 O 164.899 1.69794 0.973066 0
M  V30 1804 C 165.198 2.68553 -2.35826 0
M  V30 1805 C 164.864 2.38438 -3.82698 0
M  V30 1806 C 163.526 2.29936 -4.22709 0
M  V30 1807 C 165.878 2.13567 -4.75435 0
M  V30 1808 C 163.206 1.94656 -5.53467 0
M  V30 1809 C 165.558 1.79797 -6.06511 0
M  V30 1810 C 164.222 1.69789 -6.45545 0
M  V30 1811 H 163.492 0.533206 -0.51456 0
M  V30 1812 H 166.139 0.796901 -1.74131 0
M  V30 1813 H 164.444 3.39503 -1.95563 0
M  V30 1814 H 166.141 3.2669 -2.32539 0
M  V30 1815 H 162.731 2.4595 -3.51008 0
M  V30 1816 H 166.915 2.19082 -4.45328 0
M  V30 1817 H 162.171 1.8546 -5.82593 0
M  V30 1818 H 166.345 1.59572 -6.77872 0
M  V30 1819 H 163.972 1.4222 -7.46778 0
M  V30 1820 N 165.547 1.27147 0.931209 0
M  V30 1821 C 166.457 1.11372 2.06478 0
M  V30 1822 C 167.473 0.044645 1.73943 0
M  V30 1823 O 168.649 0.250417 1.99837 0
M  V30 1824 C 165.714 0.758838 3.38294 0
M  V30 1825 C 164.775 1.90841 3.84549 0
M  V30 1826 C 164.008 1.57036 5.10074 0
M  V30 1827 O 164.231 0.476645 5.68405 0
M  V30 1828 O 163.165 2.40839 5.51616 0
M  V30 1829 H 166.991 2.06493 2.22698 0
M  V30 1830 H 164.576 1.06301 1.04978 0
M  V30 1831 H 166.458 0.574098 4.17471 0
M  V30 1832 H 165.133 -0.162879 3.2329 0
M  V30 1833 H 164.04 2.14819 3.06274 0
M  V30 1834 H 165.373 2.81021 4.04089 0
M  V30 1835 N 167.025 -1.13721 1.09112 0
M  V30 1836 C 168.274 -1.84275 0.82009 0
M  V30 1837 C 168.587 -1.84253 -0.656509 0
M  V30 1838 O 169.793 -2.50668 -1.04296 0
M  V30 1839 C 168.249 -3.30825 1.41714 0
M  V30 1840 C 167.857 -3.39244 2.92605 0
M  V30 1841 C 169.601 -4.06443 1.22492 0
M  V30 1842 C 167.508 -4.80047 3.45411 0
M  V30 1843 H 166.438 -0.690387 0.30312 0
M  V30 1844 H 169.089 -1.28146 1.31343 0
M  V30 1845 H 167.471 -3.86737 0.851498 0
M  V30 1846 H 168.645 -2.93344 3.55367 0
M  V30 1847 H 166.96 -2.77088 3.10823 0
M  V30 1848 H 169.557 -5.10387 1.59402 0
M  V30 1849 H 169.9 -4.15972 0.165299 0
M  V30 1850 H 170.433 -3.56852 1.75788 0
M  V30 1851 H 167.172 -4.75709 4.50978 0
M  V30 1852 H 166.692 -5.26455 2.87411 0
M  V30 1853 H 168.371 -5.48957 3.42425 0
M  V30 1854 N 168.503 -0.877838 -1.30888 0
M  V30 1855 C 169.466 -0.344265 -2.266 0
M  V30 1856 C 170.466 0.50922 -1.52524 0
M  V30 1857 O 171.656 0.317398 -1.71284 0
M  V30 1858 C 168.788 0.510198 -3.37061 0
M  V30 1859 H 169.981 -1.1893 -2.7531 0
M  V30 1860 H 167.534 -0.654088 -1.41956 0
M  V30 1861 H 168.269 1.37612 -2.93655 0
M  V30 1862 H 168.054 -0.101047 -3.9197 0
M  V30 1863 H 169.544 0.875537 -4.08319 0
M  V30 1864 N 169.982 1.44106 -0.638065 0
M  V30 1865 C 170.929 2.30715 0.062701 0
M  V30 1866 C 171.899 1.43882 0.829883 0
M  V30 1867 O 173.084 1.72775 0.809532 0
M  V30 1868 C 170.224 3.29258 1.03358 0
M  V30 1869 C 169.337 4.31192 0.26409 0
M  V30 1870 C 168.472 5.16825 1.22741 0
M  V30 1871 C 167.511 6.10462 0.447475 0
M  V30 1872 N 166.648 6.8877 1.36161 0
M  V30 1873 H 171.488 2.90096 -0.681781 0
M  V30 1874 H 169.025 1.42925 -0.347988 0
M  V30 1875 H 170.983 3.84886 1.60992 0
M  V30 1876 H 169.613 2.71562 1.74511 0
M  V30 1877 H 168.665 3.77981 -0.428295 0
M  V30 1878 H 169.977 4.97619 -0.343052 0
M  V30 1879 H 169.131 5.77004 1.87487 0
M  V30 1880 H 167.87 4.50488 1.86847 0
M  V30 1881 H 166.875 5.49386 -0.213433 0
M  V30 1882 H 168.1 6.78837 -0.188968 0
M  V30 1883 H 166.046 6.25096 1.98975 0
M  V30 1884 H 165.963 7.51663 0.808656 0
M  V30 1885 H 167.231 7.53467 1.99769 0
M  V30 1886 N 171.46 0.379036 1.52974 0
M  V30 1887 C 172.407 -0.461048 2.26148 0
M  V30 1888 C 173.377 -1.06637 1.27349 0
M  V30 1889 O 174.562 -1.09633 1.56157 0
M  V30 1890 C 171.702 -1.58782 3.06402 0
M  V30 1891 C 170.815 -1.00636 4.20115 0
M  V30 1892 C 169.95 -2.10334 4.87784 0
M  V30 1893 C 168.989 -1.49724 5.93506 0
M  V30 1894 N 168.126 -2.5331 6.54812 0
M  V30 1895 H 172.966 0.169429 2.97518 0
M  V30 1896 H 170.503 0.0953806 1.4679 0
M  V30 1897 H 172.461 -2.25174 3.51215 0
M  V30 1898 H 171.091 -2.18876 2.37261 0
M  V30 1899 H 170.143 -0.232332 3.7969 0
M  V30 1900 H 171.455 -0.523343 4.96047 0
M  V30 1901 H 170.609 -2.84519 5.35849 0
M  V30 1902 H 169.348 -2.61992 4.11353 0
M  V30 1903 H 168.353 -0.740598 5.44789 0
M  V30 1904 H 169.578 -0.988732 6.71864 0
M  V30 1905 H 167.524 -3.04156 5.81227 0
M  V30 1906 H 167.441 -2.09734 7.26325 0
M  V30 1907 H 168.709 -3.27155 7.07524 0
M  V30 1908 N 172.938 -1.57226 0.108567 0
M  V30 1909 C 174.168 -1.9889 -0.559142 0
M  V30 1910 C 174.576 -0.986889 -1.61422 0
M  V30 1911 O 173.919 0.0298705 -1.83676 0
M  V30 1912 C 173.981 -3.36952 -1.25315 0
M  V30 1913 C 173.645 -4.55679 -0.347248 0
M  V30 1914 C 174.642 -5.18281 0.409996 0
M  V30 1915 C 172.327 -5.0162 -0.261367 0
M  V30 1916 C 174.321 -6.25203 1.24096 0
M  V30 1917 C 172.008 -6.08405 0.573238 0
M  V30 1918 C 173.006 -6.70063 1.32304 0
M  V30 1919 O 172.694 -7.74788 2.14381 0
M  V30 1920 H 172.426 -0.658343 -0.153492 0
M  V30 1921 H 174.98 -2.04532 0.188584 0
M  V30 1922 H 173.21 -3.28032 -2.04773 0
M  V30 1923 H 174.899 -3.62974 -1.81673 0
M  V30 1924 H 175.665 -4.8371 0.353457 0
M  V30 1925 H 171.544 -4.53381 -0.834656 0
M  V30 1926 H 175.088 -6.73259 1.82669 0
M  V30 1927 H 170.985 -6.42406 0.631208 0
M  V30 1928 H 171.753 -7.91837 2.07209 0
M  V30 1929 N 174.416 0.165178 -1.56732 0
M  V30 1930 C 175.644 0.896218 -1.86482 0
M  V30 1931 C 176.059 1.75555 -0.694675 0
M  V30 1932 O 175.416 1.79379 0.33607 0
M  V30 1933 C 175.467 1.76792 -3.1532 0
M  V30 1934 O 175.188 0.943239 -4.27825 0
M  V30 1935 C 176.689 2.6081 -3.58459 0
M  V30 1936 H 173.909 0.260064 -0.618553 0
M  V30 1937 H 176.453 0.163428 -2.03846 0
M  V30 1938 H 174.608 2.45398 -2.99764 0
M  V30 1939 H 175.022 1.53998 -5.01383 0
M  V30 1940 H 176.496 3.17579 -4.51495 0
M  V30 1941 H 176.973 3.35977 -2.82872 0
M  V30 1942 H 177.579 1.97526 -3.76648 0
M  V30 1943 N 175.894 1.51508 0.433938 0
M  V30 1944 C 177.142 1.6402 1.18075 0
M  V30 1945 C 177.463 0.360328 1.91642 0
M  V30 1946 O 176.733 -0.623945 1.85698 0
M  V30 1947 H 175.313 0.6045 0.43885 0
M  V30 1948 H 177.975 1.88452 0.497178 0
M  V30 1949 H 177.071 2.46949 1.90847 0
M  V30 1950 N 177.372 -0.689602 1.41712 0
M  V30 1951 C 178.621 -1.44534 1.40686 0
M  V30 1952 C 178.934 -1.95588 0.0213352 0
M  V30 1953 O 180.14 -2.71271 -0.111534 0
M  V30 1954 C 178.596 -2.61387 2.47396 0
M  V30 1955 C 178.204 -2.17094 3.91885 0
M  V30 1956 C 179.948 -3.38986 2.55517 0
M  V30 1957 C 177.855 -3.3094 4.90135 0
M  V30 1958 H 176.785 -0.542925 0.52321 0
M  V30 1959 H 179.436 -0.748054 1.6756 0
M  V30 1960 H 177.818 -3.33412 2.13664 0
M  V30 1961 H 178.992 -1.52318 4.34897 0
M  V30 1962 H 177.307 -1.52473 3.8748 0
M  V30 1963 H 179.904 -4.23747 3.26102 0
M  V30 1964 H 180.247 -3.84578 1.59391 0
M  V30 1965 H 180.78 -2.74021 2.8837 0
M  V30 1966 H 177.519 -2.90355 5.87685 0
M  V30 1967 H 177.039 -3.94546 4.51767 0
M  V30 1968 H 178.718 -3.9663 5.11169 0
M  V30 1969 N 178.85 -1.27639 -0.924453 0
M  V30 1970 C 180.075 -1.17101 -1.71179 0
M  V30 1971 C 180.5 0.268134 -1.86179 0
M  V30 1972 O 179.858 1.19415 -1.36418 0
M  V30 1973 C 179.906 -1.86313 -3.08739 0
M  V30 1974 O 179.01 -1.16331 -3.95652 0
M  V30 1975 H 178.351 -0.407091 -0.524569 0
M  V30 1976 H 180.881 -1.68767 -1.15666 0
M  V30 1977 H 180.891 -1.938 -3.59034 0
M  V30 1978 H 179.566 -2.91001 -2.97138 0
M  V30 1979 H 178.143 -1.16935 -3.54091 0
M  V30 1980 N 180.328 1.1314 -1.09713 0
M  V30 1981 C 181.558 1.88048 -0.855656 0
M  V30 1982 C 181.966 1.79537 0.596919 0
M  V30 1983 O 181.309 1.16196 1.42282 0
M  V30 1984 C 181.371 3.38314 -1.21589 0
M  V30 1985 C 181.035 3.70605 -2.67397 0
M  V30 1986 C 182.032 3.69596 -3.65643 0
M  V30 1987 C 179.717 4.0017 -3.03593 0
M  V30 1988 C 181.711 3.977 -4.9811 0
M  V30 1989 C 179.398 4.27935 -4.36251 0
M  V30 1990 C 180.396 4.26685 -5.33318 0
M  V30 1991 O 180.084 4.53767 -6.63589 0
M  V30 1992 H 179.816 0.60208 -0.307368 0
M  V30 1993 H 182.37 1.44128 -1.46343 0
M  V30 1994 H 180.6 3.82752 -0.551177 0
M  V30 1995 H 182.289 3.94552 -0.953083 0
M  V30 1996 H 183.055 3.46826 -3.39023 0
M  V30 1997 H 178.934 4.00289 -2.2867 0
M  V30 1998 H 182.478 3.9664 -5.73866 0
M  V30 1999 H 178.375 4.50178 -4.62613 0
M  V30 2000 H 179.143 4.71422 -6.69107 0
M  V30 2001 N 181.806 0.884767 1.30421 0
M  V30 2002 C 183.031 0.517288 2.00845 0
M  V30 2003 C 183.456 -0.886779 1.65885 0
M  V30 2004 O 182.814 -1.58768 0.875354 0
M  V30 2005 C 182.862 0.698994 3.5376 0
M  V30 2006 O 181.966 -0.255208 4.1161 0
M  V30 2007 H 181.307 0.203872 0.631927 0
M  V30 2008 H 183.837 1.19225 1.66272 0
M  V30 2009 H 183.847 0.597912 4.03595 0
M  V30 2010 H 182.522 1.72271 3.78544 0
M  V30 2011 H 181.099 -0.10784 3.72744 0
M  V30 2012 N 183.284 -1.43765 0.645699 0
M  V30 2013 C 184.695 -1.85193 0.236719 0
M  V30 2014 C 185.046 -1.54045 -1.21509 0
M  V30 2015 O 184.171 -0.985694 -1.92647 0
M  V30 2016 C 184.766 -3.36151 0.422845 0
M  V30 2017 C 183.325 -3.76338 0.0682492 0
M  V30 2018 C 182.472 -2.67538 0.729306 0
M  V30 2019 H 185.423 -1.34025 0.849883 0
M  V30 2020 H 185.444 -3.79032 -0.333904 0
M  V30 2021 H 184.956 -3.5879 1.47958 0
M  V30 2022 H 183.057 -3.59312 -0.986179 0
M  V30 2023 H 183.17 -4.76603 0.488469 0
M  V30 2024 H 181.534 -2.54176 0.163235 0
M  V30 2025 H 182.317 -2.93006 1.78892 0
M  V30 2026 N 184.763 -0.387143 -1.52771 0
M  V30 2027 C 186.009 0.196025 -2.0185 0
M  V30 2028 C 186.342 1.46641 -1.27319 0
M  V30 2029 O 185.617 1.90889 -0.373032 0
M  V30 2030 C 185.9 0.466136 -3.5707 0
M  V30 2031 C 185.753 -0.819385 -4.42274 0
M  V30 2032 C 187.072 1.25768 -4.21747 0
M  V30 2033 H 184.191 0.0697708 -0.73369 0
M  V30 2034 H 186.833 -0.516286 -1.82851 0
M  V30 2035 H 184.983 1.07293 -3.7339 0
M  V30 2036 H 186.655 -1.4563 -4.37709 0
M  V30 2037 H 184.898 -1.43517 -4.09372 0
M  V30 2038 H 185.569 -0.585065 -5.48891 0
M  V30 2039 H 188.045 0.744167 -4.09391 0
M  V30 2040 H 186.921 1.41541 -5.30337 0
M  V30 2041 H 187.182 2.27228 -3.79236 0
M  V30 2042 N 186.241 1.57166 -0.116904 0
M  V30 2043 C 187.487 1.96206 0.536166 0
M  V30 2044 C 187.842 0.99915 1.64422 0
M  V30 2045 O 187.135 0.0288195 1.91578 0
M  V30 2046 C 187.329 3.39508 1.11664 0
M  V30 2047 C 187.158 4.49651 0.0663474 0
M  V30 2048 C 185.928 5.03982 -0.36474 0
M  V30 2049 C 188.126 5.09322 -0.713829 0
M  V30 2050 N 186.108 5.97699 -1.40102 0
M  V30 2051 C 187.479 5.98963 -1.60136 0
M  V30 2052 C 189.534 4.91989 -0.764948 0
M  V30 2053 C 188.237 6.73128 -2.53556 0
M  V30 2054 C 190.263 5.66833 -1.68685 0
M  V30 2055 C 189.625 6.56158 -2.56196 0
M  V30 2056 H 185.724 0.764203 0.165886 0
M  V30 2057 H 188.308 1.93623 -0.204535 0
M  V30 2058 H 186.479 3.42743 1.82707 0
M  V30 2059 H 188.211 3.65677 1.73386 0
M  V30 2060 H 184.966 4.73592 0.027252 0
M  V30 2061 H 185.39 6.49262 -1.91802 0
M  V30 2062 H 190.032 4.22676 -0.102501 0
M  V30 2063 H 187.75 7.41689 -3.20816 0
M  V30 2064 H 191.336 5.55427 -1.73181 0
M  V30 2065 H 190.216 7.13057 -3.26372 0
M  V30 2066 N 187.719 -0.156864 1.56817 0
M  V30 2067 C 188.667 -1.21319 1.98455 0
M  V30 2068 C 189.661 -1.45025 0.875444 0
M  V30 2069 O 190.867 -1.45435 1.0606 0
M  V30 2070 H 187.242 -0.408142 0.631605 0
M  V30 2071 H 189.213 -0.835244 2.86472 0
M  V30 2072 C 187.962 -2.54148 2.37285 0
M  V30 2073 H 187.285 -2.36733 3.22176 0
M  V30 2074 H 188.725 -3.26712 2.70251 0
M  V30 2075 C 187.184 -3.13967 1.22173 0
M  V30 2076 O 187.714 -3.98357 0.517149 0
M  V30 2077 N 185.92 -2.7327 0.988536 0
M  V30 2078 H 185.467 -2.04744 1.56326 0
M  V30 2079 H 185.425 -3.13628 0.220209 0
M  V30 2080 N 189.197 -1.51736 -0.425897 0
M  V30 2081 C 190.443 -1.66174 -1.17294 0
M  V30 2082 C 190.798 -0.37876 -1.88635 0
M  V30 2083 O 190.091 0.626021 -1.81084 0
M  V30 2084 C 190.285 -2.81103 -2.20717 0
M  V30 2085 C 190.114 -4.20453 -1.59529 0
M  V30 2086 C 188.884 -4.86225 -1.37525 0
M  V30 2087 C 191.082 -5.03146 -1.06528 0
M  V30 2088 N 189.064 -6.09657 -0.720537 0
M  V30 2089 C 190.435 -6.17674 -0.536506 0
M  V30 2090 C 192.49 -4.88594 -0.958127 0
M  V30 2091 C 191.193 -7.19245 0.0888917 0
M  V30 2092 C 193.219 -5.90383 -0.346608 0
M  V30 2093 C 192.581 -7.04191 0.171564 0
M  V30 2094 H 188.68 -0.661871 -0.416475 0
M  V30 2095 H 191.264 -1.88997 -0.467801 0
M  V30 2096 H 189.435 -2.59924 -2.88607 0
M  V30 2097 H 191.167 -2.84662 -2.87663 0
M  V30 2098 H 187.922 -4.44293 -1.64015 0
M  V30 2099 H 188.346 -6.75756 -0.410292 0
M  V30 2100 H 192.988 -4.0085 -1.34459 0
M  V30 2101 H 190.706 -8.06628 0.48746 0
M  V30 2102 H 194.292 -5.81194 -0.265451 0
M  V30 2103 H 193.172 -7.81606 0.637309 0
M  V30 2104 N 190.675 0.682077 -1.42076 0
M  V30 2105 C 191.605 1.80796 -1.47767 0
M  V30 2106 C 192.586 1.6677 -0.334954 0
M  V30 2107 O 193.771 1.863 -0.548264 0
M  V30 2108 C 190.901 3.19038 -1.37229 0
M  V30 2109 C 189.855 3.47789 -2.49453 0
M  V30 2110 C 189.181 4.8553 -2.23975 0
M  V30 2111 C 190.481 3.45411 -3.91776 0
M  V30 2112 H 192.175 1.7629 -2.41997 0
M  V30 2113 H 189.721 0.846721 -1.16476 0
M  V30 2114 H 191.674 3.97528 -1.39821 0
M  V30 2115 H 190.398 3.24204 -0.394907 0
M  V30 2116 H 189.057 2.71657 -2.46166 0
M  V30 2117 H 188.705 4.87337 -1.24547 0
M  V30 2118 H 188.405 5.0573 -2.99184 0
M  V30 2119 H 189.929 5.66312 -2.28304 0
M  V30 2120 H 191.343 4.13882 -3.96705 0
M  V30 2121 H 189.74 3.77145 -4.66778 0
M  V30 2122 H 190.81 2.44122 -4.18966 0
M  V30 2123 N 192.153 1.28127 0.917671 0
M  V30 2124 C 193.401 1.14825 1.66312 0
M  V30 2125 C 193.722 -0.304379 1.9261 0
M  V30 2126 O 192.992 -1.21149 1.53947 0
M  V30 2127 H 191.572 0.421953 0.616413 0
M  V30 2128 H 194.234 1.608 1.10134 0
M  V30 2129 H 193.33 1.68489 2.62712 0
M  V30 2130 N 193.631 -1.12557 1.10312 0
M  V30 2131 C 195.047 -1.36036 0.834649 0
M  V30 2132 C 195.247 -1.93946 -0.546539 0
M  V30 2133 O 194.303 -2.16484 -1.29966 0
M  V30 2134 C 195.616 -2.30312 1.9333 0
M  V30 2135 C 197.164 -2.43906 1.9616 0
M  V30 2136 C 197.639 -3.41496 3.05195 0
M  V30 2137 N 199.13 -3.49053 3.04494 0
M  V30 2138 C 199.865 -4.24471 3.85502 0
M  V30 2139 N 199.361 -5.02966 4.76442 0
M  V30 2140 N 201.154 -4.19864 3.73725 0
M  V30 2141 H 193.305 -0.733246 1.99342 0
M  V30 2142 H 195.568 -0.385234 0.866198 0
M  V30 2143 H 195.274 -1.94933 2.92735 0
M  V30 2144 H 195.148 -3.30421 1.81939 0
M  V30 2145 H 197.535 -2.78567 0.973886 0
M  V30 2146 H 197.616 -1.4369 2.11629 0
M  V30 2147 H 197.26 -3.07565 4.04186 0
M  V30 2148 H 197.19 -4.41539 2.86968 0
M  V30 2149 H 199.681 -2.93053 2.38596 0
M  V30 2150 H 199.994 -5.57846 5.34815 0
M  V30 2151 H 198.339 -5.02167 4.80472 0
M  V30 2152 H 201.53 -3.57623 3.02032 0
M  V30 2153 H 201.703 -4.78386 4.37093 0
M  V30 2154 N 195.109 -0.891671 -1.2995 0
M  V30 2155 C 196.358 -0.509521 -1.95158 0
M  V30 2156 C 196.671 0.947388 -1.71125 0
M  V30 2157 O 197.877 1.43669 -2.30372 0
M  V30 2158 C 196.333 -0.860315 -3.49466 0
M  V30 2159 C 195.941 -2.33545 -3.8231 0
M  V30 2160 C 197.685 -0.547687 -4.20952 0
M  V30 2161 C 195.592 -2.62752 -5.29826 0
M  V30 2162 H 194.522 -0.18682 -0.730489 0
M  V30 2163 H 197.173 -1.08756 -1.47798 0
M  V30 2164 H 195.555 -0.211285 -3.95436 0
M  V30 2165 H 196.729 -3.02936 -3.47227 0
M  V30 2166 H 195.044 -2.61629 -3.23944 0
M  V30 2167 H 197.641 -0.742854 -5.29515 0
M  V30 2168 H 197.984 0.51332 -4.13123 0
M  V30 2169 H 198.517 -1.1542 -3.80688 0
M  V30 2170 H 195.256 -3.6762 -5.42712 0
M  V30 2171 H 194.776 -1.97977 -5.66185 0
M  V30 2172 H 196.455 -2.48601 -5.97333 0
M  V30 2173 N 196.587 1.43421 -0.653314 0
M  V30 2174 C 197.497 2.34568 0.0388565 0
M  V30 2175 C 198.513 1.53888 0.81207 0
M  V30 2176 O 199.689 1.86539 0.759294 0
M  V30 2177 C 196.754 3.32167 0.993269 0
M  V30 2178 C 195.815 4.28751 0.216977 0
M  V30 2179 C 195.048 5.21688 1.12593 0
M  V30 2180 O 195.271 5.19052 2.36519 0
M  V30 2181 O 194.205 5.98919 0.598284 0
M  V30 2182 H 198.031 2.95251 -0.711386 0
M  V30 2183 H 195.616 1.43564 -0.413502 0
M  V30 2184 H 197.498 3.92183 1.54176 0
M  V30 2185 H 196.173 2.73987 1.72374 0
M  V30 2186 H 195.08 3.72215 -0.375101 0
M  V30 2187 H 196.413 4.89913 -0.473924 0
M  V30 2188 N 198.065 0.39524 1.52563 0
M  V30 2189 C 199.481 0.0454682 1.59535 0
M  V30 2190 C 199.681 -1.44056 1.4089 0
M  V30 2191 O 198.737 -2.20579 1.22888 0
M  V30 2192 C 200.05 0.527963 2.96029 0
M  V30 2193 C 201.598 0.484733 3.09224 0
M  V30 2194 C 202.073 0.943512 4.48176 0
M  V30 2195 N 203.564 0.899765 4.54377 0
M  V30 2196 C 204.299 1.22609 5.60138 0
M  V30 2197 N 203.795 1.62319 6.73516 0
M  V30 2198 N 205.588 1.14696 5.50274 0
M  V30 2199 H 197.739 1.36261 1.62931 0
M  V30 2200 H 200.002 0.558887 0.765735 0
M  V30 2201 H 199.708 1.56607 3.14908 0
M  V30 2202 H 199.582 -0.0698056 3.77135 0
M  V30 2203 H 201.969 -0.544298 2.90037 0
M  V30 2204 H 202.05 1.11838 2.30056 0
M  V30 2205 H 201.694 1.9708 4.68104 0
M  V30 2206 H 201.624 0.286817 5.25818 0
M  V30 2207 H 204.115 0.607632 3.72983 0
M  V30 2208 H 204.428 1.85567 7.5019 0
M  V30 2209 H 202.773 1.66211 6.74833 0
M  V30 2210 H 205.964 0.835701 4.6058 0
M  V30 2211 H 206.137 1.40459 6.32594 0
M  V30 2212 N 199.544 -1.57102 0.125237 0
M  V30 2213 C 200.79 -1.95697 -0.532035 0
M  V30 2214 C 201.123 -1.009 -1.6593 0
M  V30 2215 O 200.398 -0.047347 -1.94442 0
M  V30 2216 C 200.681 -3.44181 -1.05884 0
M  V30 2217 C 200.534 -4.49752 0.0654392 0
M  V30 2218 C 201.853 -3.94655 -1.9477 0
M  V30 2219 H 198.972 -0.711571 -0.191925 0
M  V30 2220 H 201.614 -1.88923 0.20206 0
M  V30 2221 H 199.764 -3.50085 -1.68442 0
M  V30 2222 H 201.436 -4.55943 0.700982 0
M  V30 2223 H 199.679 -4.27653 0.727709 0
M  V30 2224 H 200.35 -5.50924 -0.344505 0
M  V30 2225 H 202.826 -3.91094 -1.42074 0
M  V30 2226 H 201.702 -4.99057 -2.28546 0
M  V30 2227 H 201.963 -3.35718 -2.87656 0
M  V30 2228 N 201.022 0.148545 -1.56898 0
M  V30 2229 C 202.299 0.890019 -1.74178 0
M  V30 2230 C 202.679 1.99407 -0.692839 0
M  V30 2231 O 202.027 2.26671 0.288505 0
M  V30 2232 C 202.237 1.43389 -3.18183 0
M  V30 2233 C 203.585 1.89791 -3.79822 0
M  V30 2234 O 204.609 1.53134 -3.21603 0
M  V30 2235 O 203.468 2.57387 -4.82093 0
M  V30 2236 H 200.562 0.420496 -0.712118 0
M  V30 2237 H 203.108 0.134591 -1.69165 0
M  V30 2238 H 201.88 0.640383 -3.86024 0
M  V30 2239 H 201.503 2.25287 -3.27615 0
M  V30 2240 N 202.5 1.5196 0.417844 0
M  V30 2241 C 203.41 1.77554 1.53336 0
M  V30 2242 C 204.426 0.660655 1.6097 0
M  V30 2243 O 205.602 0.945099 1.77848 0
M  V30 2244 C 202.667 1.91291 2.89152 0
M  V30 2245 C 201.728 3.15183 2.91475 0
M  V30 2246 C 200.961 3.28256 4.20813 0
M  V30 2247 O 201.184 2.46798 5.14244 0
M  V30 2248 O 200.118 4.21356 4.29817 0
M  V30 2249 H 203.944 2.7222 1.34647 0
M  V30 2250 H 201.529 1.36698 0.602828 0
M  V30 2251 H 203.411 2.02199 3.69721 0
M  V30 2252 H 202.086 0.998129 3.07927 0
M  V30 2253 H 200.993 3.09739 2.09791 0
M  V30 2254 H 202.326 4.06414 2.77648 0
M  V30 2255 N 203.978 -0.674533 1.42435 0
M  V30 2256 C 205.394 -0.98769 1.25367 0
M  V30 2257 C 205.594 -2.00879 0.158044 0
M  V30 2258 O 204.65 -2.48075 -0.470633 0
M  V30 2259 C 205.963 -1.49224 2.6106 0
M  V30 2260 C 207.511 -1.61 2.68417 0
M  V30 2261 C 207.986 -2.14852 4.04478 0
M  V30 2262 N 209.477 -2.22185 4.06434 0
M  V30 2263 C 210.212 -2.64928 5.08528 0
M  V30 2264 N 209.708 -3.07121 6.21006 0
M  V30 2265 N 211.501 -2.64679 4.95885 0
M  V30 2266 H 203.652 0.00152503 2.124 0
M  V30 2267 H 205.915 -0.0618434 0.945981 0
M  V30 2268 H 205.621 -0.816453 3.42092 0
M  V30 2269 H 205.495 -2.47094 2.84999 0
M  V30 2270 H 207.882 -2.27686 1.87732 0
M  V30 2271 H 207.963 -0.616195 2.48267 0
M  V30 2272 H 207.607 -1.48775 4.85622 0
M  V30 2273 H 207.537 -3.15024 4.2198 0
M  V30 2274 H 210.028 -1.92435 3.25234 0
M  V30 2275 H 210.341 -3.38423 6.94759 0
M  V30 2276 H 208.686 -3.04978 6.24511 0
M  V30 2277 H 211.877 -2.31078 4.07088 0
M  V30 2278 H 212.05 -2.9767 5.75584 0
M  V30 2279 N 205.456 -1.28612 -0.910864 0
M  V30 2280 C 206.684 -1.18792 -1.69399 0
M  V30 2281 C 207.099 0.253039 -1.87097 0
M  V30 2282 O 206.456 1.17071 -1.40003 0
M  V30 2283 C 206.507 -1.88511 -3.08457 0
M  V30 2284 O 206.228 -3.26979 -2.91576 0
M  V30 2285 C 207.729 -1.85029 -4.02839 0
M  V30 2286 H 204.949 -0.412233 -0.529438 0
M  V30 2287 H 207.493 -1.69788 -1.13984 0
M  V30 2288 H 205.648 -1.41379 -3.60681 0
M  V30 2289 H 206.062 -3.61936 -3.79608 0
M  V30 2290 H 207.536 -2.38395 -4.97867 0
M  V30 2291 H 208.013 -0.823303 -4.31414 0
M  V30 2292 H 208.619 -2.31853 -3.56545 0
M  V30 2293 N 206.934 1.1197 -1.10907 0
M  V30 2294 C 207.864 2.19928 -0.784473 0
M  V30 2295 C 208.845 1.6833 0.244726 0
M  V30 2296 O 210.03 1.93892 0.109418 0
M  V30 2297 C 207.16 3.46597 -0.220827 0
M  V30 2298 C 206.114 4.11376 -1.18127 0
M  V30 2299 C 205.44 5.32554 -0.478594 0
M  V30 2300 C 206.74 4.56945 -2.52979 0
M  V30 2301 H 208.434 2.47337 -1.68715 0
M  V30 2302 H 205.98 1.18879 -0.812642 0
M  V30 2303 H 207.933 4.21396 0.0184278 0
M  V30 2304 H 206.657 3.1863 0.717113 0
M  V30 2305 H 205.316 3.38564 -1.40606 0
M  V30 2306 H 204.964 5.00856 0.463976 0
M  V30 2307 H 204.664 5.76844 -1.11912 0
M  V30 2308 H 206.188 6.10096 -0.248 0
M  V30 2309 H 207.602 5.23093 -2.3462 0
M  V30 2310 H 205.999 5.1203 -3.12962 0
M  V30 2311 H 207.069 3.70676 -3.12614 0
M  V30 2312 N 208.412 0.89855 1.29475 0
M  V30 2313 C 209.359 0.373819 2.27753 0
M  V30 2314 C 210.329 -0.543444 1.56958 0
M  V30 2315 O 211.514 -0.468934 1.84948 0
M  V30 2316 C 208.654 -0.393648 3.42848 0
M  V30 2317 C 207.767 0.554379 4.28428 0
M  V30 2318 C 206.902 -0.230026 5.30702 0
M  V30 2319 C 205.941 0.712599 6.07938 0
M  V30 2320 N 205.078 -0.0373283 7.0209 0
M  V30 2321 H 209.918 1.21699 2.72017 0
M  V30 2322 H 207.455 0.611456 1.33789 0
M  V30 2323 H 209.413 -0.85466 4.08352 0
M  V30 2324 H 208.043 -1.20128 2.99615 0
M  V30 2325 H 207.095 1.13391 3.63107 0
M  V30 2326 H 208.407 1.27597 4.82204 0
M  V30 2327 H 207.561 -0.752288 6.02018 0
M  V30 2328 H 206.3 -0.984758 4.77654 0
M  V30 2329 H 205.305 1.24637 5.35486 0
M  V30 2330 H 206.53 1.46664 6.63074 0
M  V30 2331 H 204.476 -0.774348 6.51414 0
M  V30 2332 H 204.393 0.624374 7.53417 0
M  V30 2333 H 205.661 -0.539891 7.77628 0
M  V30 2334 N 209.89 -1.43072 0.660911 0
M  V30 2335 C 211.137 -2.01721 0.177445 0
M  V30 2336 C 211.465 -1.5218 -1.21126 0
M  V30 2337 O 210.72 -0.708659 -1.82419 0
M  V30 2338 C 211.019 -3.57103 0.145563 0
M  V30 2339 C 210.685 -4.26021 1.47705 0
M  V30 2340 C 209.347 -4.44563 1.84165 0
M  V30 2341 C 211.699 -4.64983 2.35458 0
M  V30 2342 C 209.027 -4.99334 3.0803 0
M  V30 2343 C 211.379 -5.21127 3.58622 0
M  V30 2344 C 210.043 -5.37884 3.95268 0
M  V30 2345 H 209.313 -0.73815 0.0649317 0
M  V30 2346 H 211.96 -1.71446 0.853144 0
M  V30 2347 H 210.265 -3.86965 -0.61361 0
M  V30 2348 H 211.962 -4.00248 -0.2455 0
M  V30 2349 H 208.552 -4.11939 1.18339 0
M  V30 2350 H 212.736 -4.50343 2.08579 0
M  V30 2351 H 207.992 -5.10493 3.36462 0
M  V30 2352 H 212.166 -5.50262 4.26831 0
M  V30 2353 H 209.793 -5.80089 4.91325 0
M  V30 2354 N 211.368 -0.403325 -1.52352 0
M  V30 2355 C 212.614 0.174605 -2.02047 0
M  V30 2356 C 212.947 1.45282 -1.28867 0
M  V30 2357 O 212.222 1.90483 -0.393257 0
M  V30 2358 C 212.505 0.428238 -3.57545 0
M  V30 2359 C 212.358 -0.866248 -4.4138 0
M  V30 2360 C 213.677 1.21287 -4.23057 0
M  V30 2361 H 210.796 0.0619851 -0.734389 0
M  V30 2362 H 213.438 -0.53565 -1.82293 0
M  V30 2363 H 211.588 1.03327 -3.74507 0
M  V30 2364 H 213.26 -1.50265 -4.3614 0
M  V30 2365 H 211.503 -1.47851 -4.07827 0
M  V30 2366 H 212.174 -0.643249 -5.48239 0
M  V30 2367 H 214.65 0.700703 -4.10158 0
M  V30 2368 H 213.526 1.35909 -5.31808 0
M  V30 2369 H 213.787 2.23193 -3.81625 0
M  V30 2370 N 212.846 1.57033 -0.133567 0
M  V30 2371 C 214.093 1.95686 0.520877 0
M  V30 2372 C 214.421 1.0177 1.6575 0
M  V30 2373 O 213.676 0.0443195 1.9565 0
M  V30 2374 C 213.975 3.40674 1.08057 0
M  V30 2375 C 213.641 4.50855 0.0637899 0
M  V30 2376 C 212.303 4.80716 -0.215757 0
M  V30 2377 C 214.655 5.17398 -0.62835 0
M  V30 2378 C 211.983 5.74433 -1.19348 0
M  V30 2379 C 214.335 6.12167 -1.5948 0
M  V30 2380 C 212.999 6.40414 -1.88218 0
M  V30 2381 H 212.269 0.716067 0.190602 0
M  V30 2382 H 214.916 1.9026 -0.217556 0
M  V30 2383 H 213.221 3.42865 1.89606 0
M  V30 2384 H 214.918 3.67902 1.59529 0
M  V30 2385 H 211.508 4.27605 0.291855 0
M  V30 2386 H 215.692 4.94472 -0.425562 0
M  V30 2387 H 210.948 5.94616 -1.42272 0
M  V30 2388 H 215.122 6.6281 -2.13671 0
M  V30 2389 H 212.749 7.12838 -2.64133 0
M  V30 2390 N 214.325 -0.140222 1.56975 0
M  V30 2391 C 215.55 -0.870414 1.88251 0
M  V30 2392 C 215.975 -1.73637 0.723312 0
M  V30 2393 O 215.333 -1.78329 -0.32689 0
M  V30 2394 C 215.381 -1.69737 3.18154 0
M  V30 2395 O 214.485 -2.80229 3.02565 0
M  V30 2396 H 213.826 -0.242025 0.61832 0
M  V30 2397 H 216.356 -0.128999 2.04193 0
M  V30 2398 H 216.366 -2.09099 3.50345 0
M  V30 2399 H 215.041 -1.06152 4.02125 0
M  V30 2400 H 213.618 -2.44224 2.81796 0
M  V30 2401 N 215.803 -1.52179 -0.40978 0
M  V30 2402 C 217.08 -1.56769 -1.16974 0
M  V30 2403 C 217.46 -0.348322 -2.08206 0
M  V30 2404 O 216.808 0.664862 -2.18613 0
M  V30 2405 C 217.018 -2.89603 -1.9476 0
M  V30 2406 C 218.366 -3.42579 -2.50849 0
M  V30 2407 O 219.39 -2.91338 -2.04941 0
M  V30 2408 O 218.249 -4.32054 -3.34652 0
M  V30 2409 H 215.343 -0.631439 -0.534054 0
M  V30 2410 H 217.889 -1.64507 -0.416613 0
M  V30 2411 H 216.661 -3.698 -1.27921 0
M  V30 2412 H 216.284 -2.85155 -2.77079 0
M  V30 2413 N 217.281 0.66697 -1.42791 0
M  V30 2414 C 218.692 1.2478 -1.38877 0
M  V30 2415 C 219.043 1.96012 -0.0859426 0
M  V30 2416 O 218.168 2.00463 0.815081 0
M  V30 2417 C 218.763 2.26938 -2.51564 0
M  V30 2418 C 217.322 2.80529 -2.50959 0
M  V30 2419 C 216.469 1.54965 -2.29959 0
M  V30 2420 H 219.42 0.459853 -1.51892 0
M  V30 2421 H 219.441 3.08834 -2.22265 0
M  V30 2422 H 218.953 1.75065 -3.46372 0
M  V30 2423 H 217.054 3.36502 -1.59991 0
M  V30 2424 H 217.167 3.29012 -3.48265 0
M  V30 2425 H 215.531 1.81817 -1.78366 0
M  V30 2426 H 216.314 1.05047 -3.26833 0
M  V30 2427 N 218.759 1.29093 0.90403 0
M  V30 2428 C 220.175 1.07011 1.1841 0
M  V30 2429 C 220.375 -0.181358 2.00682 0
M  V30 2430 O 219.431 -0.880331 2.36657 0
M  V30 2431 C 220.744 2.32311 1.90924 0
M  V30 2432 C 222.292 2.37587 2.03768 0
M  V30 2433 C 222.767 3.62679 2.79693 0
M  V30 2434 N 224.258 3.63376 2.87249 0
M  V30 2435 C 224.993 4.56848 3.46522 0
M  V30 2436 N 224.489 5.60648 4.06996 0
M  V30 2437 N 226.282 4.44426 3.44154 0
M  V30 2438 H 218.433 2.09412 0.354993 0
M  V30 2439 H 220.696 0.922181 0.219742 0
M  V30 2440 H 220.402 3.23536 1.37905 0
M  V30 2441 H 220.276 2.39483 2.91424 0
M  V30 2442 H 222.663 1.46853 2.55965 0
M  V30 2443 H 222.744 2.34403 1.02415 0
M  V30 2444 H 222.388 4.53762 2.28173 0
M  V30 2445 H 222.318 3.63119 3.81381 0
M  V30 2446 H 224.809 2.88321 2.44293 0
M  V30 2447 H 225.122 6.28101 4.50232 0
M  V30 2448 H 223.467 5.64463 4.05471 0
M  V30 2449 H 226.658 3.62529 2.96126 0
M  V30 2450 H 226.831 5.17457 3.90054 0
M  V30 2451 N 220.237 -1.11381 1.11499 0
M  V30 2452 C 221.467 -1.86663 0.885464 0
M  V30 2453 C 221.875 -1.80464 -0.568281 0
M  V30 2454 O 221.218 -1.18445 -1.40415 0
M  V30 2455 C 221.28 -3.36337 1.26956 0
M  V30 2456 C 220.944 -3.66304 2.73259 0
M  V30 2457 C 221.941 -3.63733 3.71476 0
M  V30 2458 C 219.626 -3.9529 3.09921 0
M  V30 2459 C 221.62 -3.89725 5.04374 0
M  V30 2460 C 219.307 -4.20941 4.43004 0
M  V30 2461 C 220.305 -4.18147 5.40039 0
M  V30 2462 O 219.993 -4.43153 6.70724 0
M  V30 2463 H 219.725 -0.597114 0.316908 0
M  V30 2464 H 222.279 -1.41782 1.48617 0
M  V30 2465 H 220.509 -3.81826 0.611999 0
M  V30 2466 H 222.198 -3.92986 1.01573 0
M  V30 2467 H 222.964 -3.41389 3.44498 0
M  V30 2468 H 218.843 -3.966 2.35009 0
M  V30 2469 H 222.387 -3.8746 5.80104 0
M  V30 2470 H 218.284 -4.42761 4.69716 0
M  V30 2471 H 219.052 -4.60717 6.76522 0
M  V30 2472 N 221.715 -0.905404 -1.28997 0
M  V30 2473 C 222.647 -0.344748 -2.26592 0
M  V30 2474 C 223.66 0.512135 -1.54535 0
M  V30 2475 O 224.849 0.328368 -1.75454 0
M  V30 2476 C 221.949 0.526587 -3.34784 0
M  V30 2477 C 221.122 -0.305871 -4.36329 0
M  V30 2478 C 220.181 0.499209 -5.23827 0
M  V30 2479 O 219.207 -0.0853004 -5.69136 0
M  V30 2480 N 220.409 1.80408 -5.51755 0
M  V30 2481 H 223.174 -1.18359 -2.75338 0
M  V30 2482 H 220.735 -0.770481 -1.42391 0
M  V30 2483 H 222.727 1.07171 -3.90252 0
M  V30 2484 H 221.297 1.26613 -2.85811 0
M  V30 2485 H 220.517 -1.0324 -3.80441 0
M  V30 2486 H 221.805 -0.875773 -5.01206 0
M  V30 2487 H 221.203 2.3016 -5.16762 0
M  V30 2488 H 219.76 2.29621 -6.10014 0
M  V30 2489 N 223.193 1.4272 -0.668489 0
M  V30 2490 C 224.103 2.34596 0.0139753 0
M  V30 2491 C 225.119 1.5474 0.795703 0
M  V30 2492 O 226.295 1.87334 0.739466 0
M  V30 2493 C 223.36 3.33202 0.957982 0
M  V30 2494 C 222.421 4.28957 0.17149 0
M  V30 2495 C 221.654 5.22853 1.07053 0
M  V30 2496 O 221.877 5.21531 2.31001 0
M  V30 2497 O 220.811 5.9952 0.534727 0
M  V30 2498 H 224.637 2.9448 -0.742661 0
M  V30 2499 H 222.222 1.43117 -0.428705 0
M  V30 2500 H 224.104 3.93796 1.50008 0
M  V30 2501 H 222.779 2.758 1.69458 0
M  V30 2502 H 221.686 3.71796 -0.414558 0
M  V30 2503 H 223.019 4.89383 -0.52586 0
M  V30 2504 N 224.671 0.411399 1.52136 0
M  V30 2505 C 225.917 -0.156262 2.02799 0
M  V30 2506 C 226.272 -1.42613 1.29149 0
M  V30 2507 O 225.565 -1.87592 0.389839 0
M  V30 2508 C 225.759 -0.455872 3.54481 0
M  V30 2509 C 225.588 0.783404 4.42824 0
M  V30 2510 C 224.358 1.30928 4.88043 0
M  V30 2511 C 226.556 1.66217 4.86699 0
M  V30 2512 N 224.538 2.5038 5.6052 0
M  V30 2513 C 225.909 2.70292 5.5798 0
M  V30 2514 C 227.964 1.67966 4.68713 0
M  V30 2515 C 226.667 3.7603 6.13184 0
M  V30 2516 C 228.693 2.72624 5.24815 0
M  V30 2517 C 228.055 3.7542 5.9602 0
M  V30 2518 H 224.154 -0.0186886 0.781777 0
M  V30 2519 H 226.738 0.566255 1.86284 0
M  V30 2520 H 224.909 -1.14743 3.71064 0
M  V30 2521 H 226.641 -1.01261 3.91827 0
M  V30 2522 H 223.396 0.866977 4.65597 0
M  V30 2523 H 223.82 3.10881 6.014 0
M  V30 2524 H 228.462 0.898312 4.13147 0
M  V30 2525 H 226.18 4.55019 6.6782 0
M  V30 2526 H 229.766 2.74887 5.12765 0
M  V30 2527 H 228.646 4.55073 6.38654 0
M  V30 2528 N 226.149 -1.5696 0.141893 0
M  V30 2529 C 227.096 -2.16501 -0.799737 0
M  V30 2530 C 228.066 -1.09643 -1.24771 0
M  V30 2531 O 229.251 -1.3766 -1.32115 0
M  V30 2532 C 226.391 -2.78679 -2.03549 0
M  V30 2533 C 225.504 -3.99914 -1.6338 0
M  V30 2534 C 224.639 -4.50106 -2.82096 0
M  V30 2535 C 223.678 -5.63819 -2.38275 0
M  V30 2536 N 222.815 -6.08651 -3.49983 0
M  V30 2537 H 227.655 -2.96632 -0.285179 0
M  V30 2538 H 225.192 -1.46533 -0.129053 0
M  V30 2539 H 227.15 -3.1287 -2.75986 0
M  V30 2540 H 225.78 -2.012 -2.52425 0
M  V30 2541 H 224.832 -3.71735 -0.807279 0
M  V30 2542 H 226.144 -4.82311 -1.27192 0
M  V30 2543 H 225.298 -4.86325 -3.62729 0
M  V30 2544 H 224.037 -3.66706 -3.21525 0
M  V30 2545 H 223.042 -5.2718 -1.56081 0
M  V30 2546 H 224.267 -6.49 -1.99938 0
M  V30 2547 H 222.213 -5.28188 -3.89042 0
M  V30 2548 H 222.13 -6.85961 -3.17794 0
M  V30 2549 H 223.398 -6.49515 -4.30988 0
M  V30 2550 N 227.627 0.131896 -1.57047 0
M  V30 2551 C 228.559 1.1878 -1.9602 0
M  V30 2552 C 229.572 1.38363 -0.857875 0
M  V30 2553 O 230.761 1.37666 -1.13623 0
M  V30 2554 C 227.861 2.55008 -2.23213 0
M  V30 2555 C 227.034 2.56201 -3.54513 0
M  V30 2556 C 226.093 3.7408 -3.70069 0
M  V30 2557 O 225.119 3.58258 -4.42312 0
M  V30 2558 N 226.321 4.92137 -3.07866 0
M  V30 2559 H 229.086 0.85639 -2.87204 0
M  V30 2560 H 226.647 0.321309 -1.5868 0
M  V30 2561 H 228.639 3.32404 -2.30846 0
M  V30 2562 H 227.209 2.80382 -1.3822 0
M  V30 2563 H 226.429 1.64613 -3.58185 0
M  V30 2564 H 227.717 2.54043 -4.4084 0
M  V30 2565 H 227.115 5.07895 -2.49116 0
M  V30 2566 H 225.672 5.67254 -3.21039 0
M  V30 2567 N 229.106 1.52395 0.401703 0
M  V30 2568 C 230.039 1.70999 1.51111 0
M  V30 2569 C 231.017 0.55765 1.52738 0
M  V30 2570 O 232.201 0.785912 1.71335 0
M  V30 2571 C 229.328 1.75607 2.8962 0
M  V30 2572 C 228.374 2.97227 3.05873 0
M  V30 2573 S 229.207 4.57439 2.78405 0
M  V30 2574 C 230.363 4.64844 4.19131 0
M  V30 2575 H 230.596 2.6483 1.35102 0
M  V30 2576 H 228.129 1.42527 0.593762 0
M  V30 2577 H 230.087 1.78947 3.69443 0
M  V30 2578 H 228.748 0.828914 3.02965 0
M  V30 2579 H 227.941 2.96955 4.07227 0
M  V30 2580 H 227.543 2.91813 2.33925 0
M  V30 2581 H 229.835 4.42677 5.12877 0
M  V30 2582 H 230.778 5.66807 4.24424 0
M  V30 2583 H 231.186 3.93804 4.04448 0
M  V30 2584 N 230.584 -0.659388 1.43143 0
M  V30 2585 C 231.514 -1.78422 1.50625 0
M  V30 2586 C 232.495 -1.66216 0.361443 0
M  V30 2587 O 233.68 -1.85404 0.577834 0
M  V30 2588 C 230.81 -3.16815 1.42287 0
M  V30 2589 C 229.764 -3.43777 2.54954 0
M  V30 2590 C 229.09 -4.81905 2.31671 0
M  V30 2591 C 230.39 -3.39134 3.97222 0
M  V30 2592 H 232.084 -1.72417 2.44771 0
M  V30 2593 H 229.63 -0.828084 1.17808 0
M  V30 2594 H 231.583 -3.95253 1.46127 0
M  V30 2595 H 230.307 -3.23534 0.446435 0
M  V30 2596 H 228.966 -2.67707 2.50457 0
M  V30 2597 H 228.614 -4.85294 1.32284 0
M  V30 2598 H 228.314 -5.00906 3.07192 0
M  V30 2599 H 229.838 -5.62609 2.37284 0
M  V30 2600 H 231.252 -4.07518 4.03239 0
M  V30 2601 H 229.649 -3.69671 4.72719 0
M  V30 2602 H 230.719 -2.37426 4.22797 0
M  V30 2603 N 232.062 -1.29571 -0.897171 0
M  V30 2604 C 233.311 -1.1706 -1.64256 0
M  V30 2605 C 233.624 0.276476 -1.93636 0
M  V30 2606 O 234.83 0.52294 -2.66416 0
M  V30 2607 C 233.286 -2.0475 -2.95982 0
M  V30 2608 C 232.894 -3.54295 -2.74187 0
M  V30 2609 C 234.638 -2.0097 -3.73914 0
M  V30 2610 C 232.545 -4.34081 -4.01656 0
M  V30 2611 H 231.475 -0.43452 -0.616205 0
M  V30 2612 H 234.126 -1.54229 -0.994268 0
M  V30 2613 H 232.508 -1.60452 -3.62038 0
M  V30 2614 H 233.682 -4.06662 -2.1671 0
M  V30 2615 H 231.997 -3.59773 -2.09648 0
M  V30 2616 H 234.594 -2.57838 -4.68427 0
M  V30 2617 H 234.937 -0.990273 -4.0435 0
M  V30 2618 H 235.47 -2.43325 -3.14703 0
M  V30 2619 H 232.209 -5.36671 -3.76384 0
M  V30 2620 H 231.729 -3.86483 -4.58684 0
M  V30 2621 H 233.408 -4.44877 -4.69781 0
M  V30 2622 N 233.54 1.10788 -1.12088 0
M  V30 2623 C 234.488 2.19111 -0.780587 0
M  V30 2624 C 235.482 1.67818 0.230961 0
M  V30 2625 O 236.688 1.79777 0.0895427 0
M  V30 2626 H 233.063 0.714477 -0.234578 0
M  V30 2627 H 235.034 2.45055 -1.70266 0
M  V30 2628 C 233.783 3.46818 -0.24747 0
M  V30 2629 H 233.106 3.86646 -1.01712 0
M  V30 2630 H 234.546 4.23973 -0.0476291 0
M  V30 2631 C 233.005 3.20968 1.02378 0
M  V30 2632 O 233.535 3.42298 2.10226 0
M  V30 2633 N 231.741 2.74658 0.949271 0
M  V30 2634 H 231.288 2.57501 0.0715173 0
M  V30 2635 H 231.246 2.57739 1.80049 0
M  V30 2636 N 235.018 0.912232 1.28515 0
M  V30 2637 C 236.246 0.560416 1.99166 0
M  V30 2638 C 236.661 -0.857927 1.68182 0
M  V30 2639 O 236.018 -1.56805 0.933733 0
M  V30 2640 C 236.069 0.758142 3.53461 0
M  V30 2641 O 235.79 2.12067 3.83352 0
M  V30 2642 C 237.291 0.412954 4.41372 0
M  V30 2643 H 234.511 0.213805 0.636026 0
M  V30 2644 H 237.055 1.22502 1.63749 0
M  V30 2645 H 235.21 0.140556 3.87145 0
M  V30 2646 H 235.624 2.15923 4.77993 0
M  V30 2647 H 237.098 0.60208 5.48707 0
M  V30 2648 H 237.575 -0.65073 4.34353 0
M  V30 2649 H 238.181 1.00802 4.13182 0
M  V30 2650 N 236.496 -1.42363 0.676048 0
M  V30 2651 C 237.907 -1.84649 0.275948 0
M  V30 2652 C 238.258 -1.56588 -1.18214 0
M  V30 2653 O 237.383 -1.02634 -1.90513 0
M  V30 2654 C 237.978 -3.35178 0.494053 0
M  V30 2655 C 236.537 -3.76109 0.148061 0
M  V30 2656 C 235.684 -2.65931 0.785891 0
M  V30 2657 H 238.635 -1.32192 0.878121 0
M  V30 2658 H 238.656 -3.79655 -0.25343 0
M  V30 2659 H 238.168 -3.55571 1.55535 0
M  V30 2660 H 236.269 -3.61323 -0.909742 0
M  V30 2661 H 236.382 -4.7546 0.589454 0
M  V30 2662 H 234.746 -2.53773 0.217113 0
M  V30 2663 H 235.529 -2.89146 1.85067 0
M  V30 2664 N 237.974 -0.419461 -1.51915 0
M  V30 2665 C 239.223 0.154346 -2.01109 0
M  V30 2666 C 239.536 1.45338 -1.30905 0
M  V30 2667 O 240.742 2.10906 -1.7097 0
M  V30 2668 C 239.198 0.325615 -3.58424 0
M  V30 2669 C 238.806 -0.961934 -4.37551 0
M  V30 2670 C 240.55 0.854155 -4.15818 0
M  V30 2671 C 238.457 -0.757287 -5.86531 0
M  V30 2672 H 237.387 0.0614563 -0.751491 0
M  V30 2673 H 240.038 -0.54649 -1.75173 0
M  V30 2674 H 238.42 1.08903 -3.80731 0
M  V30 2675 H 239.594 -1.7323 -4.26999 0
M  V30 2676 H 237.909 -1.41766 -3.91524 0
M  V30 2677 H 240.506 1.02346 -5.24814 0
M  V30 2678 H 240.849 1.83172 -3.73837 0
M  V30 2679 H 241.382 0.149528 -3.97519 0
M  V30 2680 H 238.121 -1.70671 -6.32892 0
M  V30 2681 H 237.641 -0.0264061 -5.99794 0
M  V30 2682 H 239.32 -0.403482 -6.45741 0
M  V30 2683 N 239.452 1.56882 -0.150215 0
M  V30 2684 C 240.698 1.96518 0.500834 0
M  V30 2685 C 241.031 1.03527 1.64304 0
M  V30 2686 O 240.306 0.0782751 1.94342 0
M  V30 2687 C 240.589 3.45822 1.00395 0
M  V30 2688 C 240.442 4.49591 -0.136983 0
M  V30 2689 C 241.761 3.97704 1.88467 0
M  V30 2690 H 238.88 0.714535 0.18058 0
M  V30 2691 H 241.522 1.88577 -0.232091 0
M  V30 2692 H 239.672 3.5272 1.62851 0
M  V30 2693 H 241.344 4.5477 -0.77343 0
M  V30 2694 H 239.587 4.26441 -0.795652 0
M  V30 2695 H 240.258 5.51402 0.256815 0
M  V30 2696 H 242.734 3.93304 1.35834 0
M  V30 2697 H 241.61 5.0263 2.20578 0
M  V30 2698 H 241.871 3.40252 2.82279 0
M  V30 2699 N 240.93 -0.123565 1.57115 0
M  V30 2700 C 242.341 -0.681198 1.73829 0
M  V30 2701 C 242.692 -1.80535 0.768214 0
M  V30 2702 O 241.817 -2.16317 -0.0599103 0
M  V30 2703 C 242.412 -1.24246 3.15196 0
M  V30 2704 C 240.971 -1.74643 3.33432 0
M  V30 2705 C 240.118 -0.644284 2.69711 0
M  V30 2706 H 243.069 0.102315 1.5837 0
M  V30 2707 H 243.09 -2.11216 3.16493 0
M  V30 2708 H 242.602 -0.424062 3.85776 0
M  V30 2709 H 240.703 -2.58974 2.67886 0
M  V30 2710 H 240.816 -1.85902 4.41562 0
M  V30 2711 H 239.18 -1.07676 2.3082 0
M  V30 2712 H 239.963 0.163058 3.42913 0
M  V30 2713 N 242.408 -1.52605 -0.393616 0
M  V30 2714 C 243.355 -1.77055 -1.48054 0
M  V30 2715 C 244.325 -0.61358 -1.54352 0
M  V30 2716 O 245.51 -0.852806 -1.70681 0
M  V30 2717 C 242.65 -1.94108 -2.85335 0
M  V30 2718 C 241.763 -3.21792 -2.88226 0
M  V30 2719 C 240.898 -3.29188 -4.16904 0
M  V30 2720 C 239.937 -4.51013 -4.13828 0
M  V30 2721 N 239.074 -4.55716 -5.34105 0
M  V30 2722 H 243.914 -2.69815 -1.26506 0
M  V30 2723 H 241.451 -1.33683 -0.61379 0
M  V30 2724 H 243.409 -2.01979 -3.65049 0
M  V30 2725 H 242.039 -1.04713 -3.05344 0
M  V30 2726 H 241.091 -3.23015 -2.00911 0
M  V30 2727 H 242.403 -4.11557 -2.8182 0
M  V30 2728 H 241.557 -3.36216 -5.05018 0
M  V30 2729 H 240.296 -2.37389 -4.26026 0
M  V30 2730 H 239.301 -4.44115 -3.24102 0
M  V30 2731 H 240.526 -5.44123 -4.06333 0
M  V30 2732 H 238.472 -3.66807 -5.43865 0
M  V30 2733 H 238.389 -5.39346 -5.29756 0
M  V30 2734 H 239.657 -4.66993 -6.2413 0
M  V30 2735 N 243.887 0.651787 -1.4349 0
M  V30 2736 C 244.837 1.75783 -1.45205 0
M  V30 2737 C 245.821 1.57679 -0.320328 0
M  V30 2738 O 247.013 1.67767 -0.564211 0
M  V30 2739 C 244.142 3.14377 -1.3792 0
M  V30 2740 C 243.228 3.38023 -2.56127 0
M  V30 2741 N 243.619 3.32135 -3.81471 0
M  V30 2742 C 241.917 3.68747 -2.50882 0
M  V30 2743 C 242.618 3.55902 -4.60118 0
M  V30 2744 N 241.594 3.77783 -3.90872 0
M  V30 2745 H 245.396 1.69657 -2.39987 0
M  V30 2746 H 242.91 0.853508 -1.38163 0
M  V30 2747 H 244.907 3.93666 -1.37231 0
M  V30 2748 H 243.567 3.21683 -0.441596 0
M  V30 2749 H 244.578 3.11515 -4.13738 0
M  V30 2750 H 241.255 3.8316 -1.65816 0
M  V30 2751 H 242.645 3.57116 -5.69138 0
M  V30 2752 N 245.365 1.30045 0.890287 0
M  V30 2753 C 246.614 1.17929 1.63633 0
M  V30 2754 C 246.927 -0.266204 1.9378 0
M  V30 2755 O 248.133 -0.508804 2.6669 0
M  V30 2756 C 246.589 2.06317 2.94892 0
M  V30 2757 C 246.197 3.55745 2.72305 0
M  V30 2758 C 247.941 2.0295 3.72843 0
M  V30 2759 C 245.848 4.36205 3.99348 0
M  V30 2760 H 244.778 0.437782 0.613892 0
M  V30 2761 H 247.429 1.54754 0.986075 0
M  V30 2762 H 245.811 1.6237 3.61182 0
M  V30 2763 H 246.985 4.07805 2.1455 0
M  V30 2764 H 245.3 3.6088 2.07737 0
M  V30 2765 H 247.897 2.60319 4.67053 0
M  V30 2766 H 248.24 1.0117 4.0382 0
M  V30 2767 H 248.773 2.4499 3.13408 0
M  V30 2768 H 245.512 5.38659 3.73533 0
M  V30 2769 H 245.032 3.8891 4.56628 0
M  V30 2770 H 246.711 4.47362 4.67415 0
M  V30 2771 N 246.843 -1.10192 1.12674 0
M  V30 2772 C 248.089 -1.82658 0.894847 0
M  V30 2773 C 248.444 -1.83666 -0.573107 0
M  V30 2774 O 247.737 -1.28816 -1.41835 0
M  V30 2775 C 247.931 -3.28552 1.4067 0
M  V30 2776 C 247.76 -3.41756 2.92289 0
M  V30 2777 C 246.53 -3.54021 3.60551 0
M  V30 2778 C 248.728 -3.34949 3.90274 0
M  V30 2779 N 246.71 -3.55827 5.0026 0
M  V30 2780 C 248.081 -3.43531 5.16127 0
M  V30 2781 C 250.136 -3.18565 3.8265 0
M  V30 2782 C 248.839 -3.37416 6.3525 0
M  V30 2783 C 250.865 -3.13772 5.01299 0
M  V30 2784 C 250.227 -3.22938 6.26012 0
M  V30 2785 H 246.326 -0.683044 0.380756 0
M  V30 2786 H 248.91 -1.31752 1.43351 0
M  V30 2787 H 247.081 -3.77946 0.895055 0
M  V30 2788 H 248.813 -3.88991 1.11661 0
M  V30 2789 H 245.568 -3.57135 3.1105 0
M  V30 2790 H 245.992 -3.60335 5.73138 0
M  V30 2791 H 250.634 -3.10354 2.87124 0
M  V30 2792 H 248.352 -3.44391 7.3104 0
M  V30 2793 H 251.938 -3.02242 4.97133 0
M  V30 2794 H 250.818 -3.19235 7.16281 0
M  V30 2795 N 248.321 -0.919034 -1.28029 0
M  V30 2796 C 249.231 -0.416756 -2.30869 0
M  V30 2797 C 250.247 0.498235 -1.66714 0
M  V30 2798 O 251.423 0.383144 -1.97722 0
M  V30 2799 C 248.488 0.330274 -3.45123 0
M  V30 2800 C 247.549 -0.618578 -4.2482 0
M  V30 2801 C 246.782 0.0928959 -5.33619 0
M  V30 2802 O 247.005 1.31375 -5.55065 0
M  V30 2803 O 245.939 -0.574499 -5.99152 0
M  V30 2804 H 249.765 -1.27043 -2.75851 0
M  V30 2805 H 247.35 -0.684052 -1.3282 0
M  V30 2806 H 249.232 0.751972 -4.14636 0
M  V30 2807 H 247.907 1.1597 -3.02213 0
M  V30 2808 H 246.814 -1.08978 -3.57875 0
M  V30 2809 H 248.147 -1.41497 -4.71423 0
M  V30 2810 N 249.799 1.42003 -0.683588 0
M  V30 2811 C 250.747 2.326 0.000815408 0
M  V30 2812 C 251.741 1.50308 0.781278 0
M  V30 2813 O 252.947 1.66322 0.688251 0
M  V30 2814 H 249.322 0.751758 0.0190616 0
M  V30 2815 H 251.293 2.88011 -0.780528 0
M  V30 2816 C 250.042 3.34978 0.93195 0
M  V30 2817 H 249.365 3.98345 0.340817 0
M  V30 2818 H 250.805 4.00936 1.37936 0
M  V30 2819 C 249.264 2.67925 2.04249 0
M  V30 2820 O 249.794 2.51788 3.12995 0
M  V30 2821 N 248 2.2681 1.81675 0
M  V30 2822 H 247.547 2.40135 0.932363 0
M  V30 2823 H 247.505 1.8228 2.56167 0
M  V30 2824 N 251.277 0.427512 1.51691 0
M  V30 2825 C 252.224 -0.388867 2.275 0
M  V30 2826 C 253.194 -1.02532 1.30677 0
M  V30 2827 O 254.379 -1.0461 1.59566 0
M  V30 2828 C 251.519 -1.48954 3.11298 0
M  V30 2829 C 250.632 -0.872194 4.23104 0
M  V30 2830 C 249.767 -1.94709 4.94228 0
M  V30 2831 C 248.806 -1.30766 5.97969 0
M  V30 2832 N 247.943 -2.32349 6.62539 0
M  V30 2833 H 252.783 0.263997 2.96828 0
M  V30 2834 H 250.32 0.142033 1.46413 0
M  V30 2835 H 252.278 -2.13887 3.58201 0
M  V30 2836 H 250.908 -2.11217 2.44105 0
M  V30 2837 H 249.96 -0.111419 3.80237 0
M  V30 2838 H 251.272 -0.365264 4.97461 0
M  V30 2839 H 250.426 -2.67327 5.44629 0
M  V30 2840 H 249.165 -2.48773 4.1948 0
M  V30 2841 H 248.17 -0.566902 5.4687 0
M  V30 2842 H 249.395 -0.774483 6.74669 0
M  V30 2843 H 247.341 -2.85511 5.90609 0
M  V30 2844 H 247.258 -1.8652 7.3263 0
M  V30 2845 H 248.526 -3.04481 7.17574 0
M  V30 2846 N 252.755 -1.56801 0.158532 0
M  V30 2847 C 253.983 -2.00859 -0.496303 0
M  V30 2848 C 254.398 -1.03871 -1.57659 0
M  V30 2849 O 253.755 -0.0375165 -1.82461 0
M  V30 2850 C 253.806 -3.4479 -1.08638 0
M  V30 2851 O 253.527 -4.38072 -0.0492322 0
M  V30 2852 C 255.028 -4.04185 -1.8207 0
M  V30 2853 H 252.248 -0.65864 -0.128199 0
M  V30 2854 H 254.792 -2.02885 0.256506 0
M  V30 2855 H 252.947 -3.43579 -1.78975 0
M  V30 2856 H 253.361 -5.2227 -0.483102 0
M  V30 2857 H 254.835 -5.06857 -2.18633 0
M  V30 2858 H 255.312 -3.45549 -2.71095 0
M  V30 2859 H 255.918 -4.0906 -1.16405 0
M  V30 2860 N 254.233 0.115231 -1.57178 0
M  V30 2861 C 255.143 1.15994 -2.03918 0
M  V30 2862 C 256.159 1.45103 -0.960268 0
M  V30 2863 O 257.335 1.56144 -1.27204 0
M  V30 2864 C 254.4 2.46568 -2.43732 0
M  V30 2865 C 253.461 2.24822 -3.65723 0
M  V30 2866 C 252.694 3.4917 -4.03629 0
M  V30 2867 O 252.917 4.56623 -3.41835 0
M  V30 2868 O 251.851 3.39949 -4.96708 0
M  V30 2869 H 255.677 0.793019 -2.93164 0
M  V30 2870 H 253.262 0.3263 -1.45793 0
M  V30 2871 H 255.144 3.23492 -2.70057 0
M  V30 2872 H 253.819 2.82726 -1.57631 0
M  V30 2873 H 252.726 1.45744 -3.44542 0
M  V30 2874 H 254.059 1.93566 -4.52541 0
M  V30 2875 N 255.711 1.52812 0.385517 0
M  V30 2876 C 256.621 1.80766 1.49535 0
M  V30 2877 C 257.637 0.694651 1.59532 0
M  V30 2878 O 258.813 0.982611 1.75803 0
M  V30 2879 C 255.878 1.97381 2.85029 0
M  V30 2880 C 254.939 3.21295 2.84724 0
M  V30 2881 C 254.172 3.37108 4.13756 0
M  V30 2882 O 254.395 2.5765 5.08893 0
M  V30 2883 O 253.329 4.30378 4.20783 0
M  V30 2884 H 257.155 2.75015 1.28842 0
M  V30 2885 H 254.74 1.37946 0.573697 0
M  V30 2886 H 256.622 2.09996 3.65349 0
M  V30 2887 H 255.297 1.06322 3.05741 0
M  V30 2888 H 254.204 3.1412 2.03174 0
M  V30 2889 H 255.537 4.12212 2.68965 0
M  V30 2890 N 257.189 -0.644168 1.43834 0
M  V30 2891 C 258.099 -1.78563 1.52159 0
M  V30 2892 C 259.115 -1.69147 0.408069 0
M  V30 2893 O 260.291 -1.90156 0.663524 0
M  V30 2894 C 257.356 -3.14888 1.45073 0
M  V30 2895 C 256.417 -3.36034 2.6717 0
M  V30 2896 C 255.65 -4.65855 2.60413 0
M  V30 2897 O 255.873 -5.45805 1.65689 0
M  V30 2898 O 254.807 -4.88918 3.5106 0
M  V30 2899 H 258.633 -1.74494 2.48567 0
M  V30 2900 H 256.218 -0.80378 1.25935 0
M  V30 2901 H 258.1 -3.96179 1.43597 0
M  V30 2902 H 256.775 -3.19528 0.518037 0
M  V30 2903 H 255.682 -2.54472 2.74217 0
M  V30 2904 H 257.015 -3.36247 3.59442 0
M  V30 2905 N 258.668 -1.30515 -0.883378 0
M  V30 2906 C 259.914 -1.19607 -1.63774 0
M  V30 2907 C 260.247 0.248314 -1.92606 0
M  V30 2908 O 259.522 1.17742 -1.54813 0
M  V30 2909 C 259.805 -2.02669 -2.97653 0
M  V30 2910 C 259.658 -3.55335 -2.75784 0
M  V30 2911 C 260.977 -1.86573 -3.98596 0
M  V30 2912 H 258.096 -0.435856 -0.594305 0
M  V30 2913 H 260.738 -1.60165 -1.02212 0
M  V30 2914 H 258.888 -1.68208 -3.50197 0
M  V30 2915 H 260.56 -3.99863 -2.30016 0
M  V30 2916 H 258.803 -3.79438 -2.1026 0
M  V30 2917 H 259.474 -4.08745 -3.70988 0
M  V30 2918 H 261.95 -2.16703 -3.55217 0
M  V30 2919 H 260.826 -2.47014 -4.90179 0
M  V30 2920 H 261.087 -0.825321 -4.34328 0
M  V30 2921 N 260.146 1.09593 -1.13257 0
M  V30 2922 C 261.076 2.18214 -0.830946 0
M  V30 2923 C 262.057 1.68812 0.208966 0
M  V30 2924 O 263.242 1.9408 0.0682666 0
M  V30 2925 C 260.372 3.46051 -0.294296 0
M  V30 2926 C 259.326 4.08778 -1.26826 0
M  V30 2927 C 258.652 5.31419 -0.591449 0
M  V30 2928 C 259.952 4.51476 -2.62615 0
M  V30 2929 H 261.646 2.43703 -1.73923 0
M  V30 2930 H 259.192 1.17128 -0.837675 0
M  V30 2931 H 261.145 4.2134 -0.0709606 0
M  V30 2932 H 259.869 3.20079 0.649366 0
M  V30 2933 H 258.528 3.35505 -1.47756 0
M  V30 2934 H 258.176 5.01727 0.357633 0
M  V30 2935 H 257.876 5.74341 -1.24123 0
M  V30 2936 H 259.4 6.09433 -0.377355 0
M  V30 2937 H 260.814 5.17999 -2.45663 0
M  V30 2938 H 259.211 5.05277 -3.23752 0
M  V30 2939 H 260.281 3.63962 -3.20406 0
M  V30 2940 N 261.624 0.925811 1.2754 0
M  V30 2941 C 262.556 0.380753 2.26015 0
M  V30 2942 C 263.569 -0.487485 1.5533 0
M  V30 2943 O 264.758 -0.300413 1.75954 0
M  V30 2944 C 261.858 -0.473259 3.35579 0
M  V30 2945 C 261.031 0.375249 4.35787 0
M  V30 2946 C 260.09 -0.415809 5.24555 0
M  V30 2947 O 259.116 0.175834 5.68928 0
M  V30 2948 N 260.318 -1.71607 5.54555 0
M  V30 2949 H 263.083 1.22725 2.73421 0
M  V30 2950 H 260.644 0.793037 1.41147 0
M  V30 2951 H 262.636 -1.00949 3.91907 0
M  V30 2952 H 261.206 -1.2205 2.87789 0
M  V30 2953 H 260.426 1.09279 3.7875 0
M  V30 2954 H 261.714 0.955399 4.99749 0
M  V30 2955 H 261.112 -2.2191 5.20358 0
M  V30 2956 H 259.669 -2.19887 6.1359 0
M  V30 2957 N 263.102 -1.41638 0.69111 0
M  V30 2958 C 264.065 -2.29178 0.0319786 0
M  V30 2959 C 265.065 -1.44153 -0.712496 0
M  V30 2960 O 266.255 -1.65354 -0.548053 0
M  V30 2961 C 263.387 -3.26952 -0.965161 0
M  V30 2962 H 264.58 -2.88959 0.802681 0
M  V30 2963 H 262.133 -1.4955 0.454356 0
M  V30 2964 H 262.868 -2.72142 -1.76378 0
M  V30 2965 H 262.653 -3.89685 -0.434522 0
M  V30 2966 H 264.143 -3.92561 -1.42428 0
M  V30 2967 N 264.58 -0.43555 -1.51462 0
M  V30 2968 C 265.543 0.365137 -2.26273 0
M  V30 2969 C 266.543 0.951227 -1.29647 0
M  V30 2970 O 267.733 0.825958 -1.53374 0
M  V30 2971 C 264.865 1.51645 -3.05314 0
M  V30 2972 H 266.058 -0.290474 -2.9849 0
M  V30 2973 H 263.611 -0.188676 -1.55157 0
M  V30 2974 H 264.346 2.20816 -2.3751 0
M  V30 2975 H 264.131 1.10238 -3.76284 0
M  V30 2976 H 265.621 2.08218 -3.61987 0
M  V30 2977 N 266.058 1.56714 -0.166846 0
M  V30 2978 C 267.006 2.19056 0.782123 0
M  V30 2979 C 268 1.15328 1.24079 0
M  V30 2980 O 269.206 1.33537 1.20697 0
M  V30 2981 H 265.581 0.70167 0.270486 0
M  V30 2982 H 267.552 2.97494 0.232322 0
M  V30 2983 C 266.301 2.84206 2.00306 0
M  V30 2984 H 265.624 3.63748 1.65914 0
M  V30 2985 H 267.064 3.31302 2.64604 0
M  V30 2986 C 265.523 1.83744 2.82382 0
M  V30 2987 O 266.053 1.32014 3.79388 0
M  V30 2988 N 264.259 1.52601 2.47308 0
M  V30 2989 H 263.806 1.9486 1.68485 0
M  V30 2990 H 263.764 0.856351 3.02513 0
M  V30 2991 N 267.536 -0.106894 1.57237 0
M  V30 2992 C 268.446 -1.14911 2.0453 0
M  V30 2993 C 269.462 -1.44592 0.96795 0
M  V30 2994 O 270.638 -1.55468 1.2803 0
M  V30 2995 C 267.703 -2.45272 2.45036 0
M  V30 2996 C 266.764 -2.22879 3.66911 0
M  V30 2997 C 265.997 -3.47024 4.05475 0
M  V30 2998 O 266.22 -4.54804 3.44252 0
M  V30 2999 O 265.154 -3.3731 4.98504 0
M  V30 3000 H 268.98 -0.777461 2.9358 0
M  V30 3001 H 266.565 -0.318563 1.45964 0
M  V30 3002 H 268.447 -3.22055 2.71769 0
M  V30 3003 H 267.122 -2.81886 1.59129 0
M  V30 3004 H 266.029 -1.43915 3.45311 0
M  V30 3005 H 267.362 -1.91163 4.53561 0
M  V30 3006 N 269.014 -1.53014 -0.377408 0
M  V30 3007 C 269.962 -1.7927 -1.48206 0
M  V30 3008 C 270.956 -0.661195 -1.55963 0
M  V30 3009 O 272.162 -0.843908 -1.58991 0
M  V30 3010 H 268.537 -0.567425 -0.493491 0
M  V30 3011 H 270.508 -2.71753 -1.2326 0
M  V30 3012 C 269.257 -1.98894 -2.85196 0
M  V30 3013 H 268.58 -2.85395 -2.79981 0
M  V30 3014 H 270.02 -2.21249 -3.61698 0
M  V30 3015 C 268.479 -0.764691 -3.28107 0
M  V30 3016 O 269.009 0.0523226 -4.01666 0
M  V30 3017 N 267.215 -0.591493 -2.84517 0
M  V30 3018 H 266.762 -1.25749 -2.24822 0
M  V30 3019 H 266.72 0.226253 -3.13585 0
M  V30 3020 N 270.492 0.636531 -1.44174 0
M  V30 3021 C 271.903 1.21806 -1.41493 0
M  V30 3022 C 272.254 1.95785 -0.1275 0
M  V30 3023 O 271.379 2.02147 0.772376 0
M  V30 3024 C 271.974 2.21551 -2.56321 0
M  V30 3025 C 270.533 2.75143 -2.56853 0
M  V30 3026 C 269.68 1.50052 -2.33195 0
M  V30 3027 H 272.631 0.427531 -1.52833 0
M  V30 3028 H 272.652 3.0405 -2.28765 0
M  V30 3029 H 272.164 1.67679 -3.50008 0
M  V30 3030 H 270.265 3.33033 -1.67093 0
M  V30 3031 H 270.378 3.2155 -3.55165 0
M  V30 3032 H 268.742 1.77993 -1.82183 0
M  V30 3033 H 269.525 0.980903 -3.28988 0
M  V30 3034 N 271.97 1.30982 0.876444 0
M  V30 3035 C 273.216 1.20474 1.63138 0
M  V30 3036 C 273.549 -0.238096 1.92735 0
M  V30 3037 O 272.824 -1.1692 1.55435 0
M  V30 3038 C 273.107 2.04244 2.96574 0
M  V30 3039 C 272.96 3.56793 2.73896 0
M  V30 3040 C 274.279 1.88684 3.97601 0
M  V30 3041 H 271.398 0.439001 0.591985 0
M  V30 3042 H 274.04 1.60704 1.01361 0
M  V30 3043 H 272.19 1.70063 3.493 0
M  V30 3044 H 273.862 4.01077 2.27892 0
M  V30 3045 H 272.105 3.80548 2.08245 0
M  V30 3046 H 272.776 4.10706 3.68815 0
M  V30 3047 H 275.252 2.18584 3.54062 0
M  V30 3048 H 274.128 2.4961 4.88862 0
M  V30 3049 H 274.389 0.848343 4.33884 0
M  V30 3050 N 273.449 -1.08991 1.13837 0
M  V30 3051 C 274.697 -1.80899 0.901098 0
M  V30 3052 C 275.018 -1.86356 -0.574134 0
M  V30 3053 O 274.288 -1.35235 -1.41733 0
M  V30 3054 H 272.868 -0.669966 0.330386 0
M  V30 3055 H 275.53 -1.318 1.43578 0
M  V30 3056 H 274.626 -2.83929 1.29578 0
M  V30 3057 N 274.927 -0.932562 -1.27047 0
M  V30 3058 C 276.152 -0.591474 -1.98787 0
M  V30 3059 C 276.577 0.824601 -1.69062 0
M  V30 3060 O 275.935 1.5541 -0.933677 0
M  V30 3061 C 275.983 -0.829808 -3.50922 0
M  V30 3062 O 275.087 0.102266 -4.12273 0
M  V30 3063 H 274.428 -0.227185 -0.623926 0
M  V30 3064 H 276.958 -1.25314 -1.61733 0
M  V30 3065 H 276.968 -0.747292 -4.01098 0
M  V30 3066 H 275.643 -1.86201 -3.7189 0
M  V30 3067 H 274.22 -0.0305761 -3.72887 0
M  V30 3068 N 276.405 1.4127 -0.698611 0
M  V30 3069 C 277.653 2.00782 -0.230409 0
M  V30 3070 C 277.974 1.5562 1.17505 0
M  V30 3071 O 277.244 0.78815 1.79346 0
M  V30 3072 H 275.824 0.742464 -0.0821944 0
M  V30 3073 H 278.486 1.72852 -0.90045 0
M  V30 3074 H 277.582 3.11095 -0.25021 0
M  V30 3075 N 277.883 0.443576 1.51229 0
M  V30 3076 C 279.294 -0.0180867 1.86691 0
M  V30 3077 C 279.645 -1.41384 1.36033 0
M  V30 3078 O 278.77 -2.04291 0.713722 0
M  V30 3079 C 279.365 -0.039597 3.38777 0
M  V30 3080 C 277.924 -0.445692 3.73752 0
M  V30 3081 C 277.071 0.357584 2.74985 0
M  V30 3082 H 280.022 0.659138 1.44364 0
M  V30 3083 H 280.043 -0.847761 3.70936 0
M  V30 3084 H 279.555 0.976382 3.75617 0
M  V30 3085 H 277.656 -1.46704 3.42503 0
M  V30 3086 H 277.769 -0.166155 4.78812 0
M  V30 3087 H 276.133 -0.184973 2.54027 0
M  V30 3088 H 276.916 1.37256 3.14668 0
M  V30 3089 N 279.361 -1.56624 0.175154 0
M  V30 3090 C 280.591 -2.01082 -0.474283 0
M  V30 3091 C 280.999 -1.05447 -1.57091 0
M  V30 3092 O 280.342 -0.0480595 -1.83637 0
M  V30 3093 C 280.404 -3.41963 -1.10911 0
M  V30 3094 C 280.068 -4.56742 -0.153666 0
M  V30 3095 C 281.065 -5.16076 0.629448 0
M  V30 3096 C 278.75 -5.02277 -0.0483776 0
M  V30 3097 C 280.744 -6.19377 1.50501 0
M  V30 3098 C 278.431 -6.05427 0.830768 0
M  V30 3099 C 279.429 -6.63849 1.60605 0
M  V30 3100 O 279.117 -7.64998 2.47049 0
M  V30 3101 H 278.849 -0.664261 -0.125432 0
M  V30 3102 H 281.403 -2.03549 0.275163 0
M  V30 3103 H 279.633 -3.36422 -1.90676 0
M  V30 3104 H 281.322 -3.70352 -1.66114 0
M  V30 3105 H 282.088 -4.81776 0.558297 0
M  V30 3106 H 277.967 -4.56513 -0.641611 0
M  V30 3107 H 281.511 -6.64906 2.1106 0
M  V30 3108 H 277.408 -6.39151 0.903107 0
M  V30 3109 H 278.176 -7.82336 2.40607 0
M  V30 3110 N 280.839 0.0985539 -1.57292 0
M  V30 3111 C 282.069 0.815135 -1.8984 0
M  V30 3112 C 282.477 1.7297 -0.766679 0
M  V30 3113 O 281.82 1.81698 0.270483 0
M  V30 3114 C 281.882 1.6842 -3.17608 0
M  V30 3115 C 281.546 0.94182 -4.4719 0
M  V30 3116 C 282.543 0.273212 -5.19182 0
M  V30 3117 C 280.228 0.916927 -4.9386 0
M  V30 3118 C 282.222 -0.410361 -6.36078 0
M  V30 3119 C 279.909 0.229567 -6.10669 0
M  V30 3120 C 280.907 -0.432902 -6.81627 0
M  V30 3121 O 280.595 -1.10925 -7.9621 0
M  V30 3122 H 280.327 0.238501 -0.632529 0
M  V30 3123 H 282.881 0.0812659 -2.05239 0
M  V30 3124 H 281.111 2.46022 -2.98345 0
M  V30 3125 H 282.8 2.27704 -3.36015 0
M  V30 3126 H 283.566 0.283927 -4.84168 0
M  V30 3127 H 279.445 1.42201 -4.3852 0
M  V30 3128 H 282.989 -0.928013 -6.914 0
M  V30 3129 H 278.886 0.216686 -6.45136 0
M  V30 3130 H 279.654 -1.01579 -8.12172 0
M  V30 3131 N 282.317 1.53212 0.369288 0
M  V30 3132 C 283.563 1.69466 1.11397 0
M  V30 3133 C 283.896 0.443257 1.89074 0
M  V30 3134 O 283.171 -0.559386 1.86282 0
M  V30 3135 C 283.454 2.9422 2.07621 0
M  V30 3136 C 283.307 4.29508 1.33577 0
M  V30 3137 C 284.626 3.14565 3.07794 0
M  V30 3138 H 281.745 0.616667 0.403597 0
M  V30 3139 H 284.387 1.85845 0.395179 0
M  V30 3140 H 282.537 2.80387 2.68916 0
M  V30 3141 H 284.209 4.55147 0.750955 0
M  V30 3142 H 282.452 4.29088 0.637618 0
M  V30 3143 H 283.123 5.12926 2.03989 0
M  V30 3144 H 285.599 3.2756 2.56601 0
M  V30 3145 H 284.475 4.03297 3.72348 0
M  V30 3146 H 284.736 2.29675 3.77759 0
M  V30 3147 N 283.795 -0.628877 1.44509 0
M  V30 3148 C 284.705 -1.7694 1.54044 0
M  V30 3149 C 285.721 -1.68705 0.425987 0
M  V30 3150 O 286.897 -1.89442 0.683656 0
M  V30 3151 C 283.962 -3.13332 1.48405 0
M  V30 3152 C 283.023 -3.33181 2.70719 0
M  V30 3153 C 282.256 -4.63067 2.6534 0
M  V30 3154 O 282.479 -5.44017 1.71469 0
M  V30 3155 O 281.413 -4.85167 3.56226 0
M  V30 3156 H 285.239 -1.71848 2.50403 0
M  V30 3157 H 282.824 -0.790378 1.26781 0
M  V30 3158 H 284.706 -3.94634 1.47791 0
M  V30 3159 H 283.381 -3.1896 0.551898 0
M  V30 3160 H 282.288 -2.51549 2.769 0
M  V30 3161 H 283.621 -3.32416 3.62988 0
M  V30 3162 N 285.273 -1.31445 -0.869486 0
M  V30 3163 C 286.498 -1.24256 -1.66058 0
M  V30 3164 C 286.923 0.188928 -1.87149 0
M  V30 3165 O 286.281 1.13522 -1.4136 0
M  V30 3166 C 286.329 -1.9924 -3.00559 0
M  V30 3167 O 285.433 -1.33007 -3.90362 0
M  V30 3168 H 284.774 -0.428973 -0.506831 0
M  V30 3169 H 287.304 -1.73521 -1.08404 0
M  V30 3170 H 287.314 -2.08854 -3.50491 0
M  V30 3171 H 285.989 -3.03342 -2.84528 0
M  V30 3172 H 284.566 -1.31848 -3.48813 0
M  V30 3173 N 286.751 1.08385 -1.14413 0
M  V30 3174 C 287.997 1.81212 -0.923793 0
M  V30 3175 C 288.352 1.84555 0.543814 0
M  V30 3176 O 287.645 1.31056 1.39767 0
M  V30 3177 C 287.839 3.26273 -1.45879 0
M  V30 3178 C 287.668 3.37063 -2.97689 0
M  V30 3179 C 286.438 3.4824 -3.66138 0
M  V30 3180 C 288.636 3.28698 -3.95553 0
M  V30 3181 N 286.618 3.47824 -5.05858 0
M  V30 3182 C 287.989 3.35276 -5.21527 0
M  V30 3183 C 290.044 3.12437 -3.8767 0
M  V30 3184 C 288.747 3.27267 -6.40538 0
M  V30 3185 C 290.773 3.05757 -5.06228 0
M  V30 3186 C 290.135 3.12938 -6.3107 0
M  V30 3187 H 286.234 0.6769 -0.391574 0
M  V30 3188 H 288.818 1.29455 -1.45429 0
M  V30 3189 H 286.989 3.76474 -0.95507 0
M  V30 3190 H 288.721 3.87165 -1.17835 0
M  V30 3191 H 285.476 3.52141 -3.16692 0
M  V30 3192 H 285.9 3.51171 -5.78798 0
M  V30 3193 H 290.542 3.05747 -2.92025 0
M  V30 3194 H 288.26 3.32718 -7.36427 0
M  V30 3195 H 291.846 2.94295 -5.01878 0
M  V30 3196 H 290.726 3.078 -7.21269 0
M  V30 3197 N 288.23 0.939286 1.26551 0
M  V30 3198 C 289.193 0.451987 2.24699 0
M  V30 3199 C 290.193 -0.435869 1.5478 0
M  V30 3200 O 291.383 -0.235314 1.72603 0
M  V30 3201 C 288.515 -0.348801 3.39111 0
M  V30 3202 H 289.708 1.3193 2.69322 0
M  V30 3203 H 287.261 0.721072 1.38673 0
M  V30 3204 H 287.996 -1.23444 2.99887 0
M  V30 3205 H 287.781 0.287945 3.91041 0
M  V30 3206 H 289.271 -0.679726 4.12031 0
M  V30 3207 N 289.708 -1.40897 0.706093 0
M  V30 3208 C 290.985 -1.94868 0.169099 0
M  V30 3209 C 291.365 -1.64485 -1.32318 0
M  V30 3210 O 290.713 -0.95744 -2.07474 0
M  V30 3211 C 290.923 -3.45798 0.471654 0
M  V30 3212 C 292.271 -4.22663 0.405127 0
M  V30 3213 O 293.295 -3.53865 0.407168 0
M  V30 3214 O 292.154 -5.45216 0.374383 0
M  V30 3215 H 289.248 -0.82673 0.0211352 0
M  V30 3216 H 291.794 -1.50558 0.782976 0
M  V30 3217 H 290.566 -3.61235 1.50416 0
M  V30 3218 H 290.189 -3.97225 -0.172666 0
M  V30 3219 N 291.186 -0.45159 -1.50991 0
M  V30 3220 C 292.463 0.170707 -1.94854 0
M  V30 3221 C 292.843 1.58788 -1.39103 0
M  V30 3222 O 292.191 2.20913 -0.583921 0
M  V30 3223 C 292.401 0.133929 -3.48743 0
M  V30 3224 C 293.749 0.33248 -4.23296 0
M  V30 3225 O 294.773 0.211403 -3.55572 0
M  V30 3226 O 293.632 0.57486 -5.43468 0
M  V30 3227 H 290.726 0.122264 -0.817912 0
M  V30 3228 H 293.272 -0.510594 -1.61836 0
M  V30 3229 H 292.044 -0.856283 -3.81816 0
M  V30 3230 H 291.667 0.857529 -3.88242 0
M  V30 3231 N 292.664 1.56529 -0.183458 0
M  V30 3232 C 294.08 1.58664 0.172554 0
M  V30 3233 C 294.28 1.19925 1.61926 0
M  V30 3234 O 293.336 0.916534 2.35278 0
M  V30 3235 C 294.649 3.00463 -0.119262 0
M  V30 3236 C 296.197 3.12945 -0.0584396 0
M  V30 3237 C 296.672 4.56857 -0.323408 0
M  V30 3238 N 298.163 4.62403 -0.271612 0
M  V30 3239 C 298.898 5.71626 -0.450639 0
M  V30 3240 N 298.394 6.89362 -0.689384 0
M  V30 3241 N 300.187 5.60775 -0.385701 0
M  V30 3242 H 292.338 1.79994 -1.12765 0
M  V30 3243 H 294.601 0.834808 -0.449222 0
M  V30 3244 H 294.307 3.33326 -1.12192 0
M  V30 3245 H 294.181 3.72659 0.583544 0
M  V30 3246 H 296.568 2.79902 0.934805 0
M  V30 3247 H 296.649 2.4316 -0.794144 0
M  V30 3248 H 296.293 4.9061 -1.31392 0
M  V30 3249 H 296.223 5.24816 0.43305 0
M  V30 3250 H 298.714 3.77785 -0.0932256 0
M  V30 3251 H 299.027 7.68489 -0.815113 0
M  V30 3252 H 297.372 6.91196 -0.726142 0
M  V30 3253 H 300.563 4.67674 -0.199687 0
M  V30 3254 H 300.736 6.4584 -0.528646 0
M  V30 3255 N 294.142 -0.090211 1.57342 0
M  V30 3256 C 295.382 -0.798365 1.88163 0
M  V30 3257 C 295.746 -1.75662 0.775046 0
M  V30 3258 O 296.947 -2.50849 0.965816 0
M  V30 3259 C 295.218 -1.50376 3.24225 0
M  V30 3260 S 296.777 -2.24952 3.76752 0
M  V30 3261 H 293.595 -0.265883 0.659414 0
M  V30 3262 H 296.197 -0.055264 1.95422 0
M  V30 3263 H 294.901 -0.792286 4.0268 0
M  V30 3264 H 294.432 -2.28666 3.20118 0
M  V30 3265 H 296.447 -3.51173 3.5056 0
M  V30 3266 N 295.62 -1.53406 -0.361157 0
M  V30 3267 C 296.866 -1.70054 -1.10496 0
M  V30 3268 C 297.199 -0.453278 -1.88836 0
M  V30 3269 O 296.474 0.5495 -1.86576 0
M  V30 3270 C 296.757 -2.95317 -2.06058 0
M  V30 3271 C 296.61 -4.3021 -1.31298 0
M  V30 3272 C 297.929 -3.16193 -3.06121 0
M  V30 3273 H 295.048 -0.618799 -0.400321 0
M  V30 3274 H 297.69 -1.86052 -0.385318 0
M  V30 3275 H 295.84 -2.81809 -2.67425 0
M  V30 3276 H 297.512 -4.55538 -0.726807 0
M  V30 3277 H 295.755 -4.29421 -0.614853 0
M  V30 3278 H 296.426 -5.14 -2.01265 0
M  V30 3279 H 298.902 -3.28916 -2.5486 0
M  V30 3280 H 297.778 -4.05266 -3.70204 0
M  V30 3281 H 298.039 -2.31676 -3.76535 0
M  V30 3282 N 297.098 0.621204 -1.44841 0
M  V30 3283 C 298.345 1.38055 -1.48145 0
M  V30 3284 C 298.673 1.94143 -0.117867 0
M  V30 3285 O 297.928 1.74713 0.881694 0
M  V30 3286 C 298.227 2.55675 -2.4973 0
M  V30 3287 C 297.893 2.17817 -3.94799 0
M  V30 3288 C 296.555 2.07205 -4.34303 0
M  V30 3289 C 298.907 1.88065 -4.86087 0
M  V30 3290 C 296.235 1.65045 -5.63007 0
M  V30 3291 C 298.587 1.47394 -6.15189 0
M  V30 3292 C 297.251 1.35331 -6.53637 0
M  V30 3293 H 296.521 0.505181 -0.542101 0
M  V30 3294 H 299.168 0.703477 -1.78111 0
M  V30 3295 H 297.473 3.2866 -2.13284 0
M  V30 3296 H 299.17 3.13904 -2.4953 0
M  V30 3297 H 295.76 2.26998 -3.63552 0
M  V30 3298 H 299.944 1.95168 -4.56315 0
M  V30 3299 H 295.2 1.54317 -5.91605 0
M  V30 3300 H 299.374 1.23415 -6.85377 0
M  V30 3301 H 297.001 1.02435 -7.53267 0
M  V30 3302 N 298.576 1.31904 0.862503 0
M  V30 3303 C 299.523 1.20182 1.9704 0
M  V30 3304 C 300.493 0.0858247 1.65878 0
M  V30 3305 O 301.678 0.26 1.8902 0
M  V30 3306 C 298.818 0.922797 3.32533 0
M  V30 3307 C 297.931 2.12284 3.76244 0
M  V30 3308 C 297.066 1.77996 5.00491 0
M  V30 3309 C 296.105 2.94366 5.36671 0
M  V30 3310 N 295.242 2.60223 6.52095 0
M  V30 3311 H 300.082 2.14951 2.06398 0
M  V30 3312 H 297.619 1.06917 1.01031 0
M  V30 3313 H 299.577 0.741548 4.10557 0
M  V30 3314 H 298.207 0.0119227 3.22798 0
M  V30 3315 H 297.259 2.41461 2.9394 0
M  V30 3316 H 298.571 2.99357 3.98982 0
M  V30 3317 H 297.725 1.56377 5.862 0
M  V30 3318 H 296.464 0.881252 4.79672 0
M  V30 3319 H 295.469 3.16625 4.49476 0
M  V30 3320 H 296.694 3.84957 5.59451 0
M  V30 3321 H 294.64 1.72884 6.32809 0
M  V30 3322 H 294.557 3.40827 6.74814 0
M  V30 3323 H 295.825 2.42016 7.40978 0
M  V30 3324 N 300.054 -1.07777 1.14986 0
M  V30 3325 C 301.001 -2.14867 0.842672 0
M  V30 3326 C 301.971 -1.6486 -0.202552 0
M  V30 3327 O 303.156 -1.90668 -0.0710568 0
M  V30 3328 C 300.296 -3.43486 0.333363 0
M  V30 3329 C 299.409 -4.07306 1.43965 0
M  V30 3330 C 298.544 -5.23744 0.886914 0
M  V30 3331 C 297.583 -5.79517 1.97043 0
M  V30 3332 N 296.72 -6.87291 1.4344 0
M  V30 3333 H 301.56 -2.40485 1.75986 0
M  V30 3334 H 299.097 -1.1801 0.878179 0
M  V30 3335 H 301.055 -4.17195 0.0198163 0
M  V30 3336 H 299.685 -3.18133 -0.546916 0
M  V30 3337 H 298.737 -3.31293 1.86946 0
M  V30 3338 H 300.049 -4.44771 2.25788 0
M  V30 3339 H 299.203 -6.04419 0.525651 0
M  V30 3340 H 297.942 -4.87685 0.0377957 0
M  V30 3341 H 296.947 -4.97491 2.34057 0
M  V30 3342 H 298.172 -6.17632 2.82325 0
M  V30 3343 H 296.118 -6.5318 0.607567 0
M  V30 3344 H 296.035 -7.23617 2.18895 0
M  V30 3345 H 297.303 -7.71682 1.10124 0
M  V30 3346 N 301.532 -0.945985 -1.26051 0
M  V30 3347 C 302.48 -0.450259 -2.282 0
M  V30 3348 C 303.474 0.47497 -1.62605 0
M  V30 3349 O 304.68 0.352653 -1.76512 0
M  V30 3350 H 301.055 -0.127081 -0.741184 0
M  V30 3351 H 303.026 -1.32422 -2.67408 0
M  V30 3352 C 301.775 0.26467 -3.46691 0
M  V30 3353 H 301.098 -0.438123 -3.97392 0
M  V30 3354 H 302.538 0.575678 -4.20074 0
M  V30 3355 C 300.997 1.48416 -3.02447 0
M  V30 3356 O 301.527 2.58227 -3.07704 0
M  V30 3357 N 299.733 1.34243 -2.57735 0
M  V30 3358 H 299.28 0.448994 -2.53657 0
M  V30 3359 H 299.238 2.15957 -2.28495 0
M  V30 3360 N 303.011 1.40521 -0.713556 0
M  V30 3361 C 304.259 2.00527 -0.251692 0
M  V30 3362 C 304.58 1.56857 1.15848 0
M  V30 3363 O 303.85 0.807127 1.785 0
M  V30 3364 H 302.43 0.741551 -0.0900646 0
M  V30 3365 H 305.092 1.71887 -0.918733 0
M  V30 3366 H 304.188 3.10813 -0.283192 0
M  V30 3367 N 304.489 0.459591 1.5075 0
M  V30 3368 C 305.437 -0.354678 2.2988 0
M  V30 3369 C 306.431 -1.00086 1.36672 0
M  V30 3370 O 307.637 -0.933277 1.53915 0
M  V30 3371 H 304.012 -0.13321 0.740107 0
M  V30 3372 H 305.983 0.333269 2.96533 0
M  V30 3373 C 304.732 -1.43073 3.169 0
M  V30 3374 H 304.055 -0.942882 3.88523 0
M  V30 3375 H 305.495 -1.97328 3.75284 0
M  V30 3376 C 303.954 -2.42633 2.33732 0
M  V30 3377 O 304.484 -3.47658 2.01238 0
M  V30 3378 N 302.69 -2.14066 1.9653 0
M  V30 3379 H 302.237 -1.28685 2.23155 0
M  V30 3380 H 302.195 -2.80917 1.41185 0
M  V30 3381 N 305.967 -1.56429 0.191757 0
M  V30 3382 C 307.213 -1.98541 -0.441943 0
M  V30 3383 C 307.568 -1.07646 -1.59468 0
M  V30 3384 O 306.861 -0.120191 -1.91223 0
M  V30 3385 C 307.055 -3.44449 -0.953384 0
M  V30 3386 C 306.884 -4.49456 0.148262 0
M  V30 3387 C 305.654 -5.01668 0.604781 0
M  V30 3388 C 307.852 -5.05336 0.95602 0
M  V30 3389 N 305.834 -5.90334 1.6846 0
M  V30 3390 C 307.205 -5.9064 1.88531 0
M  V30 3391 C 309.26 -4.87779 0.998811 0
M  V30 3392 C 307.963 -6.60264 2.85383 0
M  V30 3393 C 309.989 -5.58139 1.95537 0
M  V30 3394 C 309.351 -6.43187 2.8721 0
M  V30 3395 H 305.45 -0.771247 -0.129236 0
M  V30 3396 H 308.034 -1.92426 0.296682 0
M  V30 3397 H 306.205 -3.5107 -1.66146 0
M  V30 3398 H 307.937 -3.73533 -1.55741 0
M  V30 3399 H 304.692 -4.73183 0.198736 0
M  V30 3400 H 305.116 -6.39371 2.22561 0
M  V30 3401 H 309.758 -4.21705 0.304048 0
M  V30 3402 H 307.476 -7.25538 3.55837 0
M  V30 3403 H 311.062 -5.46532 1.99484 0
M  V30 3404 H 309.942 -6.96674 3.60022 0
M  V30 3405 N 307.445 0.0818655 -1.57387 0
M  V30 3406 C 308.691 0.778884 -1.87896 0
M  V30 3407 C 309.046 1.75692 -0.784229 0
M  V30 3408 O 308.339 1.90417 0.212567 0
M  V30 3409 C 308.533 1.53513 -3.22752 0
M  V30 3410 C 308.362 0.631838 -4.45239 0
M  V30 3411 C 307.132 0.272571 -5.04564 0
M  V30 3412 C 309.33 -0.0670191 -5.14256 0
M  V30 3413 N 307.312 -0.637498 -6.10581 0
M  V30 3414 C 308.683 -0.834653 -6.14356 0
M  V30 3415 C 310.738 -0.139551 -4.97704 0
M  V30 3416 C 309.441 -1.66806 -6.99691 0
M  V30 3417 C 311.467 -0.959903 -5.83558 0
M  V30 3418 C 310.829 -1.71561 -6.83188 0
M  V30 3419 H 306.928 0.260764 -0.737242 0
M  V30 3420 H 309.512 0.0408227 -1.94657 0
M  V30 3421 H 307.683 2.24398 -3.17018 0
M  V30 3422 H 309.415 2.18038 -3.40942 0
M  V30 3423 H 306.17 0.62319 -4.69482 0
M  V30 3424 H 306.594 -1.08548 -6.68241 0
M  V30 3425 H 311.236 0.430376 -4.20604 0
M  V30 3426 H 308.954 -2.249 -7.76174 0
M  V30 3427 H 312.54 -1.01887 -5.72809 0
M  V30 3428 H 311.42 -2.34017 -7.48469 0
M  V30 3429 N 308.923 1.53595 0.353017 0
M  V30 3430 C 310.171 1.70049 1.09215 0
M  V30 3431 C 310.492 0.461406 1.89463 0
M  V30 3432 O 309.762 -0.524633 1.88744 0
M  V30 3433 H 308.342 0.626912 0.40619 0
M  V30 3434 H 311.004 1.90822 0.396585 0
M  V30 3435 H 310.1 2.56718 1.77488 0
M  V30 3436 N 310.401 -0.613514 1.45168 0
M  V30 3437 C 311.65 -1.36874 1.4815 0
M  V30 3438 C 311.963 -1.952 0.124982 0
M  V30 3439 O 313.169 -2.71481 0.0324176 0
M  V30 3440 C 311.625 -2.47905 2.60904 0
M  V30 3441 C 311.233 -1.96016 4.02842 0
M  V30 3442 C 312.977 -3.24965 2.73126 0
M  V30 3443 C 310.884 -3.04494 5.06988 0
M  V30 3444 H 309.814 -0.514428 0.551253 0
M  V30 3445 H 312.465 -0.658182 1.7129 0
M  V30 3446 H 310.847 -3.21618 2.31037 0
M  V30 3447 H 312.021 -1.29051 4.4236 0
M  V30 3448 H 310.336 -1.31719 3.95018 0
M  V30 3449 H 312.933 -4.05865 3.48106 0
M  V30 3450 H 313.276 -3.75588 1.79553 0
M  V30 3451 H 313.809 -2.5835 3.0249 0
M  V30 3452 H 310.548 -2.58795 6.0225 0
M  V30 3453 H 310.068 -3.70044 4.72046 0
M  V30 3454 H 311.747 -3.68976 5.31475 0
M  V30 3455 N 311.879 -1.3236 -0.855495 0
M  V30 3456 C 313.295 -1.11332 -1.14356 0
M  V30 3457 C 313.495 0.106751 -2.01217 0
M  V30 3458 O 312.551 0.791891 -2.39761 0
M  V30 3459 C 313.864 -2.39237 -1.82171 0
M  V30 3460 C 315.412 -2.44986 -1.9481 0
M  V30 3461 C 315.887 -3.7281 -2.66039 0
M  V30 3462 N 317.378 -3.73787 -2.73565 0
M  V30 3463 C 318.113 -4.69394 -3.29327 0
M  V30 3464 N 317.609 -5.75367 -3.85907 0
M  V30 3465 N 319.402 -4.56893 -3.27423 0
M  V30 3466 H 311.553 -2.10586 -0.277027 0
M  V30 3467 H 313.816 -0.929701 -0.185364 0
M  V30 3468 H 313.522 -3.28431 -1.25802 0
M  V30 3469 H 313.396 -2.50134 -2.82335 0
M  V30 3470 H 315.783 -1.56252 -2.50338 0
M  V30 3471 H 315.864 -2.38043 -0.936448 0
M  V30 3472 H 315.508 -4.61918 -2.11174 0
M  V30 3473 H 315.438 -3.77024 -3.67642 0
M  V30 3474 H 317.929 -2.97189 -2.33424 0
M  V30 3475 H 318.242 -6.44378 -4.26611 0
M  V30 3476 H 316.587 -5.79123 -3.84242 0
M  V30 3477 H 319.778 -3.73269 -2.82467 0
M  V30 3478 H 319.951 -5.31577 -3.7058 0
M  V30 3479 N 313.357 1.07166 -1.15556 0
M  V30 3480 C 314.267 2.17947 -0.868116 0
M  V30 3481 C 315.283 1.73297 0.156297 0
M  V30 3482 O 316.459 2.01392 -0.0182327 0
M  V30 3483 C 313.524 3.44789 -0.36355 0
M  V30 3484 C 312.585 4.03996 -1.45209 0
M  V30 3485 C 311.818 5.24783 -0.971508 0
M  V30 3486 O 312.041 5.70109 0.182194 0
M  V30 3487 O 310.975 5.75715 -1.75603 0
M  V30 3488 H 314.801 2.4503 -1.79427 0
M  V30 3489 H 312.386 1.16539 -0.934824 0
M  V30 3490 H 314.268 4.21307 -0.0887113 0
M  V30 3491 H 312.943 3.19253 0.534708 0
M  V30 3492 H 311.85 3.29009 -1.78056 0
M  V30 3493 H 313.183 4.33808 -2.32533 0
M  V30 3494 N 314.835 0.952656 1.25548 0
M  V30 3495 C 315.765 0.489287 2.28316 0
M  V30 3496 C 316.746 -0.463359 1.63667 0
M  V30 3497 O 317.931 -0.36274 1.90782 0
M  V30 3498 C 315.061 -0.235603 3.465 0
M  V30 3499 C 314.015 0.631593 4.23314 0
M  V30 3500 C 313.341 -0.223923 5.34231 0
M  V30 3501 C 314.641 1.90871 4.86174 0
M  V30 3502 H 316.335 1.34822 2.67326 0
M  V30 3503 H 313.881 0.649728 1.28509 0
M  V30 3504 H 315.834 -0.570882 4.17515 0
M  V30 3505 H 314.558 -1.12877 3.06474 0
M  V30 3506 H 313.217 0.949929 3.54079 0
M  V30 3507 H 312.865 -1.11678 4.90446 0
M  V30 3508 H 312.565 0.35299 5.86539 0
M  V30 3509 H 314.089 -0.554214 6.0808 0
M  V30 3510 H 315.503 1.63997 5.49343 0
M  V30 3511 H 313.9 2.43112 5.4865 0
M  V30 3512 H 314.97 2.61304 4.08471 0
M  V30 3513 N 316.313 -1.40141 0.720998 0
M  V30 3514 C 317.561 -2.0039 0.262323 0
M  V30 3515 C 317.882 -1.57469 -1.15015 0
M  V30 3516 O 317.152 -0.816582 -1.78069 0
M  V30 3517 H 315.732 -0.741063 0.093996 0
M  V30 3518 H 318.394 -1.71398 0.927835 0
M  V30 3519 H 317.49 -3.10658 0.299671 0
M  V30 3520 N 317.792 -0.46758 -1.50504 0
M  V30 3521 C 319.022 0.086288 -2.0642 0
M  V30 3522 C 319.43 1.34369 -1.33197 0
M  V30 3523 O 318.773 1.79431 -0.393747 0
M  V30 3524 C 318.835 0.443846 -3.5675 0
M  V30 3525 C 318.499 -0.711035 -4.51435 0
M  V30 3526 C 319.496 -1.59205 -4.94924 0
M  V30 3527 C 317.181 -0.900363 -4.94165 0
M  V30 3528 C 319.175 -2.64683 -5.79846 0
M  V30 3529 C 316.862 -1.95837 -5.7887 0
M  V30 3530 C 317.86 -2.82997 -6.21612 0
M  V30 3531 O 317.548 -3.86977 -7.0463 0
M  V30 3532 H 317.28 -0.00217814 -0.675996 0
M  V30 3533 H 319.834 -0.654346 -1.94698 0
M  V30 3534 H 318.064 1.23762 -3.6636 0
M  V30 3535 H 319.753 0.932386 -3.95046 0
M  V30 3536 H 320.519 -1.45745 -4.62583 0
M  V30 3537 H 316.398 -0.231427 -4.60419 0
M  V30 3538 H 319.942 -3.32745 -6.13128 0
M  V30 3539 H 315.839 -2.09305 -6.10624 0
M  V30 3540 H 316.607 -3.83923 -7.22873 0
M  V30 3541 N 319.27 1.56325 -0.20005 0
M  V30 3542 C 320.547 1.89484 0.48529 0
M  V30 3543 C 320.927 1.1143 1.79294 0
M  V30 3544 O 320.275 0.216919 2.27468 0
M  V30 3545 C 320.485 3.41923 0.699243 0
M  V30 3546 C 321.833 4.12256 1.01638 0
M  V30 3547 O 322.857 3.47402 0.786792 0
M  V30 3548 O 321.716 5.26887 1.45095 0
M  V30 3549 H 318.81 0.787144 0.253639 0
M  V30 3550 H 321.356 1.67985 -0.240633 0
M  V30 3551 H 320.128 3.90658 -0.224008 0
M  V30 3552 H 319.751 3.69131 1.47744 0
M  V30 3553 N 320.748 -0.0735177 1.57428 0
M  V30 3554 C 322.159 -0.625551 1.75908 0
M  V30 3555 C 322.51 -1.78 0.825261 0
M  V30 3556 O 321.635 -2.16398 0.00893964 0
M  V30 3557 C 322.23 -1.14155 3.18989 0
M  V30 3558 C 320.789 -1.63946 3.38819 0
M  V30 3559 C 319.936 -0.558151 2.71625 0
M  V30 3560 H 322.887 0.152647 1.57964 0
M  V30 3561 H 322.908 -2.0104 3.23053 0
M  V30 3562 H 322.42 -0.301116 3.8693 0
M  V30 3563 H 320.521 -2.50321 2.7599 0
M  V30 3564 H 320.634 -1.71759 4.47253 0
M  V30 3565 H 318.998 -1.00278 2.34129 0
M  V30 3566 H 319.781 0.272071 3.4222 0
M  V30 3567 N 322.226 -1.5378 -0.344866 0
M  V30 3568 C 323.173 -1.81676 -1.42346 0
M  V30 3569 C 324.143 -0.662376 -1.52321 0
M  V30 3570 O 325.328 -0.906675 -1.67881 0
M  V30 3571 C 322.468 -2.03087 -2.79015 0
M  V30 3572 C 321.581 -3.30799 -2.77842 0
M  V30 3573 C 320.716 -3.42285 -4.0622 0
M  V30 3574 C 319.755 -4.6395 -3.9927 0
M  V30 3575 N 318.892 -4.72477 -5.19336 0
M  V30 3576 H 323.732 -2.73703 -1.17858 0
M  V30 3577 H 321.269 -1.35568 -0.570949 0
M  V30 3578 H 323.227 -2.1349 -3.58438 0
M  V30 3579 H 321.857 -1.14375 -3.01858 0
M  V30 3580 H 320.909 -3.29244 -1.90533 0
M  V30 3581 H 322.221 -4.20314 -2.68584 0
M  V30 3582 H 321.375 -3.52113 -4.94066 0
M  V30 3583 H 320.114 -2.50823 -4.18258 0
M  V30 3584 H 319.119 -4.54201 -3.09809 0
M  V30 3585 H 320.344 -5.56775 -3.88817 0
M  V30 3586 H 318.29 -3.83924 -5.3192 0
M  V30 3587 H 318.207 -5.55927 -5.12329 0
M  V30 3588 H 319.475 -4.86613 -6.08957 0
M  V30 3589 N 323.704 0.605807 -1.45491 0
M  V30 3590 C 325.115 1.18777 -1.44045 0
M  V30 3591 C 325.466 1.95471 -0.169001 0
M  V30 3592 O 324.591 2.0374 0.729324 0
M  V30 3593 C 325.186 2.16064 -2.60963 0
M  V30 3594 C 323.745 2.69633 -2.62631 0
M  V30 3595 C 322.892 1.45072 -2.36325 0
M  V30 3596 H 325.843 0.395017 -1.53705 0
M  V30 3597 H 325.864 2.9913 -2.35163 0
M  V30 3598 H 325.376 1.60217 -3.53486 0
M  V30 3599 H 323.477 3.29414 -1.74119 0
M  V30 3600 H 323.59 3.13944 -3.61906 0
M  V30 3601 H 321.954 1.74089 -1.85917 0
M  V30 3602 H 322.737 0.910899 -3.30995 0
M  V30 3603 N 325.182 1.32811 0.848464 0
M  V30 3604 C 326.092 1.24278 1.98978 0
M  V30 3605 C 327.108 0.155176 1.73307 0
M  V30 3606 O 328.284 0.376999 1.9784 0
M  V30 3607 C 325.349 0.972444 3.32783 0
M  V30 3608 C 324.41 2.14911 3.71634 0
M  V30 3609 C 323.643 1.89157 4.99054 0
M  V30 3610 O 323.866 0.837165 5.64223 0
M  V30 3611 O 322.8 2.75433 5.35183 0
M  V30 3612 H 326.626 2.20238 2.09115 0
M  V30 3613 H 324.211 1.12762 0.980052 0
M  V30 3614 H 326.093 0.838432 4.12975 0
M  V30 3615 H 324.768 0.043051 3.23671 0
M  V30 3616 H 323.675 2.33862 2.91992 0
M  V30 3617 H 325.008 3.06151 3.85399 0
M  V30 3618 N 326.66 -1.06551 1.16123 0
M  V30 3619 C 328.076 -1.3142 0.905585 0
M  V30 3620 C 328.276 -1.96571 -0.442964 0
M  V30 3621 O 327.332 -2.23068 -1.18308 0
M  V30 3622 C 328.645 -2.19741 2.05267 0
M  V30 3623 C 330.193 -2.33165 2.08813 0
M  V30 3624 C 330.668 -3.24838 3.22868 0
M  V30 3625 N 332.159 -3.32421 3.22568 0
M  V30 3626 C 332.894 -4.0344 4.0746 0
M  V30 3627 N 332.39 -4.77003 5.02434 0
M  V30 3628 N 334.183 -3.99464 3.95456 0
M  V30 3629 H 326.334 -0.626548 2.02949 0
M  V30 3630 H 328.597 -0.338777 0.8854 0
M  V30 3631 H 328.303 -1.79142 3.02657 0
M  V30 3632 H 328.177 -3.20313 1.99198 0
M  V30 3633 H 330.564 -2.73013 1.12018 0
M  V30 3634 H 330.645 -1.3227 2.18948 0
M  V30 3635 H 330.289 -2.85708 4.19921 0
M  V30 3636 H 330.219 -4.25707 3.0997 0
M  V30 3637 H 332.71 -2.79994 2.53795 0
M  V30 3638 H 333.023 -5.28712 5.63634 0
M  V30 3639 H 331.368 -4.75992 5.06415 0
M  V30 3640 H 334.559 -3.4111 3.20564 0
M  V30 3641 H 334.732 -4.54544 4.61837 0
M  V30 3642 N 328.138 -0.959301 -1.25041 0
M  V30 3643 C 329.387 -0.612254 -1.92183 0
M  V30 3644 C 329.7 0.855347 -1.75907 0
M  V30 3645 O 330.906 1.31256 -2.37664 0
M  V30 3646 C 329.362 -1.04435 -3.44414 0
M  V30 3647 C 328.97 -2.53482 -3.69393 0
M  V30 3648 C 330.714 -0.770055 -4.17457 0
M  V30 3649 C 328.621 -2.90468 -5.15153 0
M  V30 3650 H 327.551 -0.225279 -0.719559 0
M  V30 3651 H 330.202 -1.16438 -1.41825 0
M  V30 3652 H 328.584 -0.4206 -3.9376 0
M  V30 3653 H 329.758 -3.20916 -3.30681 0
M  V30 3654 H 328.073 -2.78432 -3.0962 0
M  V30 3655 H 330.67 -1.02249 -5.24832 0
M  V30 3656 H 331.013 0.293611 -4.15263 0
M  V30 3657 H 331.546 -1.35437 -3.74034 0
M  V30 3658 H 328.285 -3.95871 -5.22462 0
M  V30 3659 H 327.805 -2.27711 -5.54894 0
M  V30 3660 H 329.484 -2.79914 -5.83315 0
M  V30 3661 N 329.616 1.39756 -0.72842 0
M  V30 3662 C 330.862 2.00942 -0.273892 0
M  V30 3663 C 331.195 1.57656 1.13394 0
M  V30 3664 O 330.47 0.802434 1.77176 0
M  V30 3665 C 330.753 3.58211 -0.368346 0
M  V30 3666 C 330.606 4.11534 -1.81548 0
M  V30 3667 C 331.925 4.39372 0.253054 0
M  V30 3668 H 329.044 0.730047 -0.100996 0
M  V30 3669 H 331.686 1.66056 -0.923337 0
M  V30 3670 H 329.836 3.88061 0.184588 0
M  V30 3671 H 331.508 3.92431 -2.42478 0
M  V30 3672 H 329.751 3.65341 -2.33898 0
M  V30 3673 H 330.422 5.20682 -1.83288 0
M  V30 3674 H 332.898 4.15527 -0.218224 0
M  V30 3675 H 331.774 5.48677 0.156585 0
M  V30 3676 H 332.035 4.21358 1.33826 0
M  V30 3677 N 331.094 0.475555 1.50254 0
M  V30 3678 C 332.004 -0.321501 2.32387 0
M  V30 3679 C 333.02 -0.991755 1.42969 0
M  V30 3680 O 334.196 -0.978747 1.76018 0
M  V30 3681 C 331.261 -1.38667 3.17762 0
M  V30 3682 C 330.322 -0.732538 4.23004 0
M  V30 3683 C 329.555 -1.74695 5.04299 0
M  V30 3684 O 329.778 -2.97399 4.86734 0
M  V30 3685 O 328.712 -1.31631 5.8733 0
M  V30 3686 H 332.538 0.350071 3.01676 0
M  V30 3687 H 330.123 0.237321 1.47503 0
M  V30 3688 H 332.005 -2.00354 3.70724 0
M  V30 3689 H 330.68 -2.04163 2.51196 0
M  V30 3690 H 329.587 -0.0765902 3.74022 0
M  V30 3691 H 330.92 -0.120452 4.92053 0
M  V30 3692 N 332.573 -1.56217 0.208337 0
M  V30 3693 C 333.503 -2.22694 -0.702116 0
M  V30 3694 C 334.484 -1.19432 -1.2112 0
M  V30 3695 O 335.669 -1.47978 -1.25762 0
M  V30 3696 C 332.799 -2.8966 -1.9161 0
M  V30 3697 C 331.753 -3.9928 -1.5414 0
M  V30 3698 C 331.079 -4.53476 -2.83308 0
M  V30 3699 C 332.379 -5.17012 -0.741339 0
M  V30 3700 H 334.073 -2.99034 -0.147898 0
M  V30 3701 H 331.619 -1.43831 -0.0696951 0
M  V30 3702 H 333.572 -3.34852 -2.55836 0
M  V30 3703 H 332.296 -2.10746 -2.49507 0
M  V30 3704 H 330.955 -3.54799 -0.922668 0
M  V30 3705 H 330.603 -3.71308 -3.39322 0
M  V30 3706 H 330.303 -5.27451 -2.58976 0
M  V30 3707 H 331.827 -5.01378 -3.485 0
M  V30 3708 H 333.241 -5.58667 -1.28699 0
M  V30 3709 H 331.638 -5.97137 -0.595627 0
M  V30 3710 H 332.708 -4.8423 0.254851 0
M  V30 3711 N 334.051 0.0651679 -1.57465 0
M  V30 3712 C 335.467 0.420105 -1.53972 0
M  V30 3713 C 335.667 1.78782 -0.929474 0
M  V30 3714 O 334.723 2.46771 -0.534839 0
M  V30 3715 C 336.036 0.355084 -2.98596 0
M  V30 3716 C 337.584 0.434792 -3.09965 0
M  V30 3717 C 338.059 0.399609 -4.56253 0
M  V30 3718 N 339.55 0.459488 -4.60915 0
M  V30 3719 C 340.285 0.454584 -5.71595 0
M  V30 3720 N 339.781 0.404102 -6.9162 0
M  V30 3721 N 341.574 0.501635 -5.59857 0
M  V30 3722 H 333.725 -0.830328 -1.95498 0
M  V30 3723 H 335.988 -0.312244 -0.895102 0
M  V30 3724 H 335.694 -0.583357 -3.46828 0
M  V30 3725 H 335.568 1.16275 -3.58831 0
M  V30 3726 H 337.955 1.36366 -2.61703 0
M  V30 3727 H 338.036 -0.40157 -2.52628 0
M  V30 3728 H 337.68 -0.525436 -5.05175 0
M  V30 3729 H 337.61 1.25359 -5.11461 0
M  V30 3730 H 340.101 0.502482 -3.74544 0
M  V30 3731 H 340.414 0.404468 -7.71741 0
M  V30 3732 H 338.759 0.37069 -6.94011 0
M  V30 3733 H 341.95 0.538812 -4.64989 0
M  V30 3734 H 342.123 0.494345 -6.46112 0
M  V30 3735 N 335.529 1.53961 0.336706 0
M  V30 3736 C 336.775 1.7179 1.07777 0
M  V30 3737 C 337.108 0.483263 1.88091 0
M  V30 3738 O 336.383 -0.519747 1.87427 0
M  V30 3739 C 336.666 2.98558 2.01334 0
M  V30 3740 C 336.519 4.32245 1.24437 0
M  V30 3741 C 337.838 3.21023 3.01052 0
M  V30 3742 H 334.957 0.625089 0.390426 0
M  V30 3743 H 337.599 1.86641 0.35567 0
M  V30 3744 H 335.749 2.86028 2.62908 0
M  V30 3745 H 337.421 4.56637 0.654243 0
M  V30 3746 H 335.664 4.30344 0.546458 0
M  V30 3747 H 336.335 5.17137 1.93063 0
M  V30 3748 H 338.811 3.32929 2.49595 0
M  V30 3749 H 337.687 4.11104 3.6371 0
M  V30 3750 H 337.948 2.37637 3.72802 0
M  V30 3751 N 337.007 -0.598083 1.45811 0
M  V30 3752 C 337.937 -1.71873 1.58057 0
M  V30 3753 C 338.918 -1.64533 0.431615 0
M  V30 3754 O 340.103 -1.82787 0.65595 0
M  V30 3755 C 337.233 -3.10495 1.55597 0
M  V30 3756 C 336.187 -3.32654 2.69305 0
M  V30 3757 C 335.513 -4.71646 2.51902 0
M  V30 3758 C 336.813 -3.21981 4.11248 0
M  V30 3759 H 338.507 -1.61881 2.51863 0
M  V30 3760 H 336.053 -0.777372 1.21214 0
M  V30 3761 H 338.006 -3.88699 1.6276 0
M  V30 3762 H 336.73 -3.2135 0.583255 0
M  V30 3763 H 335.389 -2.56843 2.61586 0
M  V30 3764 H 335.037 -4.79246 1.52748 0
M  V30 3765 H 334.737 -4.87426 3.2816 0
M  V30 3766 H 336.261 -5.52038 2.60933 0
M  V30 3767 H 337.675 -3.90049 4.20161 0
M  V30 3768 H 336.072 -3.49289 4.87972 0
M  V30 3769 H 337.142 -2.1928 4.32486 0
M  V30 3770 N 338.485 -1.33259 -0.841409 0
M  V30 3771 C 339.71 -1.2775 -1.63385 0
M  V30 3772 C 340.135 0.149188 -1.87507 0
M  V30 3773 O 339.493 1.10498 -1.43736 0
M  V30 3774 C 339.541 -2.05571 -2.96265 0
M  V30 3775 O 338.645 -1.41257 -3.87453 0
M  V30 3776 H 337.986 -0.439627 -0.497618 0
M  V30 3777 H 340.516 -1.75782 -1.04699 0
M  V30 3778 H 340.526 -2.16241 -3.45982 0
M  V30 3779 H 339.201 -3.09309 -2.7803 0
M  V30 3780 H 337.778 -1.39217 -3.45938 0
M  V30 3781 N 339.963 1.05934 -1.16686 0
M  V30 3782 C 340.911 2.15603 -0.872817 0
M  V30 3783 C 341.905 1.68647 0.159576 0
M  V30 3784 O 343.111 1.79995 0.0132125 0
M  V30 3785 H 339.486 0.703885 -0.264671 0
M  V30 3786 H 341.457 2.37613 -1.80507 0
M  V30 3787 C 340.206 3.45457 -0.394344 0
M  V30 3788 H 339.529 3.81984 -1.18019 0
M  V30 3789 H 340.969 4.2339 -0.227408 0
M  V30 3790 C 339.428 3.25021 0.88673 0
M  V30 3791 O 339.958 3.50906 1.95519 0
M  V30 3792 N 338.164 2.78437 0.831925 0
M  V30 3793 H 337.711 2.57572 -0.0377619 0
M  V30 3794 H 337.669 2.65144 1.68956 0
M  V30 3795 N 341.441 0.965919 1.2453 0
M  V30 3796 C 342.389 0.486506 2.27455 0
M  V30 3797 C 343.383 -0.449041 1.6334 0
M  V30 3798 O 344.589 -0.324527 1.7705 0
M  V30 3799 H 340.964 0.138857 0.739069 0
M  V30 3800 H 342.935 1.3666 2.65267 0
M  V30 3801 C 341.684 -0.209481 3.47068 0
M  V30 3802 H 341.007 0.50129 3.96645 0
M  V30 3803 H 342.447 -0.508775 4.20936 0
M  V30 3804 C 340.906 -1.43586 3.0477 0
M  V30 3805 O 341.436 -2.53299 3.11773 0
M  V30 3806 N 339.642 -1.30126 2.59838 0
M  V30 3807 H 339.189 -0.408583 2.54339 0
M  V30 3808 H 339.147 -2.12294 2.31902 0
M  V30 3809 N 342.919 -1.39368 0.735821 0
M  V30 3810 C 344.165 -2.00794 0.284544 0
M  V30 3811 C 344.498 -1.58255 -1.12557 0
M  V30 3812 O 343.773 -0.811819 -1.76748 0
M  V30 3813 C 344.056 -3.58011 0.387337 0
M  V30 3814 C 343.909 -4.10566 1.83728 0
M  V30 3815 C 345.228 -4.395 -0.22975 0
M  V30 3816 H 342.347 -0.729501 0.104866 0
M  V30 3817 H 344.989 -1.65564 0.93213 0
M  V30 3818 H 343.139 -3.88154 -0.164006 0
M  V30 3819 H 344.811 -3.91139 2.44556 0
M  V30 3820 H 343.054 -3.64095 2.35833 0
M  V30 3821 H 343.725 -5.19702 1.86047 0
M  V30 3822 H 346.201 -4.15406 0.240257 0
M  V30 3823 H 345.077 -5.48752 -0.127485 0
M  V30 3824 H 345.338 -4.22062 -1.3159 0
M  V30 3825 N 344.397 -0.483516 -1.5 0
M  V30 3826 C 345.36 0.292965 -2.2732 0
M  V30 3827 C 346.36 0.909499 -1.32608 0
M  V30 3828 O 347.55 0.776745 -1.55924 0
M  V30 3829 C 344.682 1.41854 -3.09984 0
M  V30 3830 H 345.875 -0.385289 -2.97415 0
M  V30 3831 H 343.428 -0.237942 -1.54478 0
M  V30 3832 H 344.163 2.13148 -2.44414 0
M  V30 3833 H 343.948 0.982114 -3.79601 0
M  V30 3834 H 345.438 1.96597 -3.68429 0
M  V30 3835 N 345.875 1.56104 -0.216619 0
M  V30 3836 C 347.121 1.98466 0.417033 0
M  V30 3837 C 347.454 1.10403 1.59765 0
M  V30 3838 O 346.729 0.160632 1.93836 0
M  V30 3839 C 347.012 3.49769 0.85637 0
M  V30 3840 C 346.865 4.48606 -0.327546 0
M  V30 3841 C 348.184 4.05339 1.7143 0
M  V30 3842 H 345.303 0.721551 0.150112 0
M  V30 3843 H 347.945 1.87423 -0.311864 0
M  V30 3844 H 346.095 3.5931 1.47745 0
M  V30 3845 H 347.767 4.5108 -0.965618 0
M  V30 3846 H 346.01 4.22682 -0.975805 0
M  V30 3847 H 346.681 5.51995 0.0227149 0
M  V30 3848 H 349.157 3.98712 1.19031 0
M  V30 3849 H 348.033 5.11533 1.99061 0
M  V30 3850 H 348.294 3.51918 2.67593 0
M  V30 3851 N 347.353 -0.0568162 1.57498 0
M  V30 3852 C 348.601 -0.751617 1.87604 0
M  V30 3853 C 348.922 -1.77351 0.81066 0
M  V30 3854 O 348.192 -1.95254 -0.159018 0
M  V30 3855 H 346.772 -0.280583 0.692302 0
M  V30 3856 H 349.434 -0.0293483 1.94878 0
M  V30 3857 H 348.53 -1.25852 2.856 0
M  V30 3858 N 348.832 -1.54138 -0.328536 0
M  V30 3859 C 349.765 -1.78014 -1.4278 0
M  V30 3860 C 350.743 -0.629889 -1.49904 0
M  V30 3861 O 351.927 -0.866763 -1.6739 0
M  V30 3862 C 349.054 -1.89225 -2.80912 0
M  V30 3863 C 348.1 -3.11483 -2.91343 0
M  V30 3864 S 348.933 -4.70201 -2.56263 0
M  V30 3865 C 350.089 -4.84312 -3.96476 0
M  V30 3866 H 350.322 -2.70974 -1.22313 0
M  V30 3867 H 347.855 -1.45197 -0.525084 0
M  V30 3868 H 349.813 -1.9637 -3.60485 0
M  V30 3869 H 348.474 -0.972518 -2.98665 0
M  V30 3870 H 347.667 -3.16046 -3.92595 0
M  V30 3871 H 347.269 -3.02642 -2.19736 0
M  V30 3872 H 349.561 -4.66643 -4.91173 0
M  V30 3873 H 350.504 -5.86411 -3.96898 0
M  V30 3874 H 350.912 -4.12652 -3.85199 0
M  V30 3875 N 350.31 0.590341 -1.46126 0
M  V30 3876 C 351.24 1.71032 -1.58966 0
M  V30 3877 C 352.221 1.64302 -0.440335 0
M  V30 3878 O 353.406 1.82436 -0.665634 0
M  V30 3879 C 350.536 3.09665 -1.57241 0
M  V30 3880 C 349.49 3.31221 -2.71066 0
M  V30 3881 C 348.816 4.70303 -2.54399 0
M  V30 3882 C 350.116 3.19796 -4.1295 0
M  V30 3883 H 351.81 1.60543 -2.52718 0
M  V30 3884 H 349.356 0.770933 -1.21625 0
M  V30 3885 H 351.309 3.87831 -1.64819 0
M  V30 3886 H 350.033 3.21036 -0.600289 0
M  V30 3887 H 348.692 2.55452 -2.62944 0
M  V30 3888 H 348.34 4.78429 -1.55288 0
M  V30 3889 H 348.04 4.85679 -3.30741 0
M  V30 3890 H 349.564 5.50647 -2.63857 0
M  V30 3891 H 350.978 3.87815 -4.22223 0
M  V30 3892 H 349.375 3.46696 -4.89818 0
M  V30 3893 H 350.445 2.16983 -4.33643 0
M  V30 3894 N 351.788 1.33704 0.83433 0
M  V30 3895 C 352.721 1.18675 1.94914 0
M  V30 3896 C 353.699 0.0811145 1.62398 0
M  V30 3897 O 354.883 0.244186 1.86912 0
M  V30 3898 C 352.01 0.821231 3.28593 0
M  V30 3899 C 351.056 1.93501 3.80079 0
M  V30 3900 S 351.889 3.54671 4.01209 0
M  V30 3901 C 353.045 3.20136 5.37833 0
M  V30 3902 H 353.278 2.13043 2.07364 0
M  V30 3903 H 350.811 1.18598 0.988624 0
M  V30 3904 H 352.769 0.617123 4.05835 0
M  V30 3905 H 351.43 -0.103927 3.13928 0
M  V30 3906 H 350.623 1.63273 4.76821 0
M  V30 3907 H 350.225 2.09601 3.09747 0
M  V30 3908 H 352.517 2.71242 6.20833 0
M  V30 3909 H 353.46 4.15975 5.73036 0
M  V30 3910 H 353.868 2.56613 5.02802 0
M  V30 3911 N 353.266 -1.05314 1.17247 0
M  V30 3912 C 354.213 -2.13031 0.888058 0
M  V30 3913 C 355.183 -1.65253 -0.167537 0
M  V30 3914 O 356.368 -1.90775 -0.0305974 0
M  V30 3915 C 353.508 -3.42702 0.406147 0
M  V30 3916 C 352.621 -4.04161 1.52572 0
M  V30 3917 C 351.756 -5.21744 0.997808 0
M  V30 3918 C 350.795 -5.75207 2.09291 0
M  V30 3919 N 349.932 -6.84094 1.57986 0
M  V30 3920 H 354.772 -2.36698 1.81048 0
M  V30 3921 H 352.309 -1.16121 0.903013 0
M  V30 3922 H 354.267 -4.17059 0.108305 0
M  V30 3923 H 352.897 -3.19222 -0.479313 0
M  V30 3924 H 351.949 -3.27253 1.93931 0
M  V30 3925 H 353.261 -4.39881 2.35172 0
M  V30 3926 H 352.415 -6.03168 0.653739 0
M  V30 3927 H 351.154 -4.87495 0.141232 0
M  V30 3928 H 350.159 -4.92414 2.44557 0
M  V30 3929 H 351.384 -6.11505 2.95362 0
M  V30 3930 H 349.33 -6.51745 0.74598 0
M  V30 3931 H 349.247 -7.18811 2.34195 0
M  V30 3932 H 350.515 -7.69172 1.26468 0
M  V30 3933 N 354.744 -0.972509 -1.24016 0
M  V30 3934 C 355.992 -0.635776 -1.91839 0
M  V30 3935 C 356.313 0.832312 -1.76345 0
M  V30 3936 O 355.583 1.5946 -1.13795 0
M  V30 3937 H 354.163 -0.232157 -0.710009 0
M  V30 3938 H 356.825 -1.23462 -1.50809 0
M  V30 3939 H 355.921 -0.880545 -2.99421 0
M  V30 3940 N 356.222 1.38976 -0.743202 0
M  V30 3941 C 357.132 2.3434 -0.110399 0
M  V30 3942 C 358.148 1.58741 0.712559 0
M  V30 3943 O 359.324 1.9099 0.639125 0
M  V30 3944 C 356.389 3.37812 0.780012 0
M  V30 3945 C 355.45 4.29263 -0.0561319 0
M  V30 3946 C 354.683 5.27793 0.791875 0
M  V30 3947 O 354.906 5.33043 2.03031 0
M  V30 3948 O 353.84 6.01512 0.216183 0
M  V30 3949 H 357.666 2.90129 -0.897714 0
M  V30 3950 H 355.251 1.40643 -0.503966 0
M  V30 3951 H 357.133 4.01194 1.28923 0
M  V30 3952 H 355.808 2.84395 1.546 0
M  V30 3953 H 354.715 3.69076 -0.611056 0
M  V30 3954 H 356.048 4.85907 -0.784531 0
M  V30 3955 N 357.7 0.491464 1.49741 0
M  V30 3956 C 358.63 -0.28154 2.31796 0
M  V30 3957 C 359.611 -0.971473 1.3963 0
M  V30 3958 O 360.796 -0.964719 1.68543 0
M  V30 3959 C 357.926 -1.35203 3.19902 0
M  V30 3960 C 356.88 -0.782529 4.20786 0
M  V30 3961 C 356.206 -1.95283 4.97764 0
M  V30 3962 C 357.506 0.21999 5.21837 0
M  V30 3963 H 359.2 0.403355 2.96671 0
M  V30 3964 H 356.746 0.195425 1.42668 0
M  V30 3965 H 358.699 -1.90045 3.76113 0
M  V30 3966 H 357.423 -2.06598 2.52953 0
M  V30 3967 H 356.082 -0.255928 3.65706 0
M  V30 3968 H 355.73 -2.65423 4.2727 0
M  V30 3969 H 355.43 -1.57789 5.66018 0
M  V30 3970 H 356.954 -2.50577 5.56816 0
M  V30 3971 H 358.368 -0.23996 5.72798 0
M  V30 3972 H 356.765 0.51026 5.97927 0
M  V30 3973 H 357.835 1.13911 4.7133 0
M  V30 3974 N 359.178 -1.55987 0.224894 0
M  V30 3975 C 360.455 -1.90232 -0.455083 0
M  V30 3976 C 360.835 -1.14269 -1.77499 0
M  V30 3977 O 360.183 -0.253079 -2.27094 0
M  V30 3978 C 360.393 -3.42993 -0.644758 0
M  V30 3979 C 361.741 -4.13821 -0.950669 0
M  V30 3980 O 362.765 -3.4861 -0.731423 0
M  V30 3981 O 361.624 -5.29128 -1.36695 0
M  V30 3982 H 358.718 -0.79108 -0.241084 0
M  V30 3983 H 361.264 -1.67581 0.267327 0
M  V30 3984 H 360.036 -3.90252 0.28613 0
M  V30 3985 H 359.659 -3.71434 -1.41853 0
M  V30 3986 N 360.656 0.0484629 -1.57525 0
M  V30 3987 C 361.902 0.738854 -1.89506 0
M  V30 3988 C 362.257 1.73989 -0.821319 0
M  V30 3989 O 361.55 1.90825 0.172129 0
M  V30 3990 C 361.744 1.46632 -3.25935 0
M  V30 3991 C 361.573 0.537254 -4.46479 0
M  V30 3992 C 360.343 0.165484 -5.05029 0
M  V30 3993 C 362.541 -0.176085 -5.13998 0
M  V30 3994 N 360.523 -0.766868 -6.09091 0
M  V30 3995 C 361.894 -0.96478 -6.12448 0
M  V30 3996 C 363.949 -0.24509 -4.97296 0
M  V30 3997 C 362.652 -1.8161 -6.95996 0
M  V30 3998 C 364.678 -1.08347 -5.81391 0
M  V30 3999 C 364.04 -1.86014 -6.79395 0
M  V30 4000 H 360.139 0.245067 -0.742608 0
M  V30 4001 H 362.723 -0.000476161 -1.947 0
M  V30 4002 H 360.894 2.17623 -3.21706 0
M  V30 4003 H 362.626 2.10757 -3.45491 0
M  V30 4004 H 359.381 0.523466 -4.70698 0
M  V30 4005 H 359.805 -1.22698 -6.65788 0
M  V30 4006 H 364.447 0.341063 -4.21422 0
M  V30 4007 H 362.165 -2.41313 -7.71229 0
M  V30 4008 H 365.751 -1.14014 -5.70519 0
M  V30 4009 H 364.631 -2.4984 -7.43337 0
M  V30 4010 N 362.134 1.5431 0.320358 0
M  V30 4011 C 363.359 1.76954 1.08175 0
M  V30 4012 C 363.784 0.518193 1.80821 0
M  V30 4013 O 363.142 -0.530411 1.73368 0
M  V30 4014 C 363.19 2.96451 2.05303 0
M  V30 4015 O 362.294 2.68221 3.13259 0
M  V30 4016 H 361.635 0.586275 0.311733 0
M  V30 4017 H 364.165 2.01342 0.363676 0
M  V30 4018 H 364.175 3.23887 2.48116 0
M  V30 4019 H 362.85 3.87196 1.51829 0
M  V30 4020 H 361.427 2.51744 2.75099 0
M  V30 4021 N 363.613 -0.582584 1.46437 0
M  V30 4022 C 364.561 -1.71272 1.5738 0
M  V30 4023 C 365.555 -1.63524 0.44229 0
M  V30 4024 O 366.761 -1.69016 0.619166 0
M  V30 4025 H 363.136 -0.566273 0.494813 0
M  V30 4026 H 365.107 -1.59174 2.52401 0
M  V30 4027 C 363.856 -3.09658 1.58136 0
M  V30 4028 H 363.179 -3.16291 2.44541 0
M  V30 4029 H 364.619 -3.88494 1.69847 0
M  V30 4030 C 363.078 -3.3547 0.310026 0
M  V30 4031 O 363.608 -3.97199 -0.599683 0
M  V30 4032 N 361.814 -2.89925 0.197901 0
M  V30 4033 H 361.361 -2.39873 0.93909 0
M  V30 4034 H 361.319 -3.07568 -0.65185 0
M  V30 4035 N 365.091 -1.34144 -0.827227 0
M  V30 4036 C 366.338 -1.26258 -1.58319 0
M  V30 4037 C 366.666 0.168595 -1.93768 0
M  V30 4038 O 365.921 1.12877 -1.59866 0
M  V30 4039 C 366.22 -2.09464 -2.89585 0
M  V30 4040 C 365.886 -3.58521 -2.73448 0
M  V30 4041 C 364.548 -3.99155 -2.68754 0
M  V30 4042 C 366.9 -4.53189 -2.57428 0
M  V30 4043 C 364.228 -5.32656 -2.45957 0
M  V30 4044 C 366.58 -5.86864 -2.36163 0
M  V30 4045 C 365.244 -6.26667 -2.29879 0
M  V30 4046 H 364.514 -0.462013 -0.579332 0
M  V30 4047 H 367.161 -1.65845 -0.95748 0
M  V30 4048 H 365.466 -1.62692 -3.56425 0
M  V30 4049 H 367.163 -2.00712 -3.47154 0
M  V30 4050 H 363.753 -3.26264 -2.77939 0
M  V30 4051 H 367.937 -4.22696 -2.60081 0
M  V30 4052 H 363.193 -5.62519 -2.39546 0
M  V30 4053 H 367.367 -6.59813 -2.22754 0
M  V30 4054 H 364.994 -7.30049 -2.11975 0
M  V30 4055 N 366.569 1.04691 -1.17803 0
M  V30 4056 C 367.816 1.77782 -0.969532 0
M  V30 4057 C 368.144 1.87926 0.501401 0
M  V30 4058 O 367.399 1.37918 1.38842 0
M  V30 4059 C 367.698 3.21467 -1.56186 0
M  V30 4060 C 367.364 3.3137 -3.05786 0
M  V30 4061 C 366.026 3.3378 -3.46619 0
M  V30 4062 C 368.378 3.31976 -4.01797 0
M  V30 4063 C 365.706 3.34431 -4.82051 0
M  V30 4064 C 368.058 3.34167 -5.37136 0
M  V30 4065 C 366.722 3.34866 -5.77426 0
M  V30 4066 H 365.992 0.650549 -0.354777 0
M  V30 4067 H 368.639 1.23006 -1.46772 0
M  V30 4068 H 366.944 3.79203 -0.985515 0
M  V30 4069 H 368.641 3.76652 -1.37602 0
M  V30 4070 H 365.231 3.3021 -2.73238 0
M  V30 4071 H 369.415 3.29311 -3.71306 0
M  V30 4072 H 364.671 3.33285 -5.12573 0
M  V30 4073 H 368.845 3.33585 -6.11305 0
M  V30 4074 H 366.472 3.35124 -6.82346 0
M  V30 4075 N 368.047 0.979072 1.23499 0
M  V30 4076 C 368.977 0.537606 2.27227 0
M  V30 4077 C 369.958 -0.428539 1.64613 0
M  V30 4078 O 371.143 -0.322191 1.91509 0
M  V30 4079 C 368.273 -0.162052 3.46922 0
M  V30 4080 C 367.227 0.721242 4.21879 0
M  V30 4081 C 366.553 -0.110555 5.34586 0
M  V30 4082 C 367.853 2.01141 4.82016 0
M  V30 4083 H 369.547 1.40462 2.64406 0
M  V30 4084 H 367.093 0.67684 1.27102 0
M  V30 4085 H 369.046 -0.482192 4.18632 0
M  V30 4086 H 367.77 -1.06351 3.08799 0
M  V30 4087 H 366.429 1.02482 3.51984 0
M  V30 4088 H 366.077 -1.0125 4.92704 0
M  V30 4089 H 365.777 0.477325 5.85658 0
M  V30 4090 H 367.301 -0.425107 6.09118 0
M  V30 4091 H 368.715 1.75612 5.45741 0
M  V30 4092 H 367.112 2.54695 5.43369 0
M  V30 4093 H 368.182 2.69909 4.02836 0
M  V30 4094 N 369.525 -1.3858 0.750561 0
M  V30 4095 C 370.936 -1.82927 0.373438 0
M  V30 4096 C 371.287 -1.62634 -1.09748 0
M  V30 4097 O 370.412 -1.12588 -1.84805 0
M  V30 4098 C 371.007 -3.32088 0.671029 0
M  V30 4099 C 369.566 -3.74795 0.34722 0
M  V30 4100 C 368.713 -2.61391 0.92575 0
M  V30 4101 H 371.664 -1.27351 0.946958 0
M  V30 4102 H 371.685 -3.80465 -0.0518269 0
M  V30 4103 H 371.197 -3.46826 1.74164 0
M  V30 4104 H 369.298 -3.65638 -0.716933 0
M  V30 4105 H 369.411 -4.71667 0.840656 0
M  V30 4106 H 367.775 -2.52265 0.351327 0
M  V30 4107 H 368.558 -2.78929 2.00133 0
M  V30 4108 N 371.003 -0.499398 -1.49478 0
M  V30 4109 C 372.251 0.0455996 -2.02049 0
M  V30 4110 C 372.572 1.37633 -1.38138 0
M  V30 4111 O 371.842 1.8842 -0.536166 0
M  V30 4112 H 370.422 0.0198416 -0.746736 0
M  V30 4113 H 373.084 -0.656274 -1.83519 0
M  V30 4114 H 372.18 0.176445 -3.11601 0
M  V30 4115 N 372.481 1.55866 -0.233164 0
M  V30 4116 C 373.727 1.98897 0.395959 0
M  V30 4117 C 374.06 1.12091 1.58585 0
M  V30 4118 O 373.335 0.181182 1.93654 0
M  V30 4119 C 373.618 3.50658 0.819224 0
M  V30 4120 C 373.471 4.48233 -0.375109 0
M  V30 4121 C 374.79 4.07135 1.67121 0
M  V30 4122 H 371.909 0.723102 0.142451 0
M  V30 4123 H 374.551 1.87082 -0.331725 0
M  V30 4124 H 372.701 3.60857 1.43925 0
M  V30 4125 H 374.373 4.50031 -1.01341 0
M  V30 4126 H 372.616 4.21624 -1.02058 0
M  V30 4127 H 373.287 5.51988 -0.0358328 0
M  V30 4128 H 375.763 3.99952 1.14795 0
M  V30 4129 H 374.639 5.13615 1.93625 0
M  V30 4130 H 374.9 3.54736 2.63846 0
M  V30 4131 N 373.959 -0.0401083 1.57549 0
M  V30 4132 C 375.37 -0.588097 1.77196 0
M  V30 4133 C 375.721 -1.76209 0.862832 0
M  V30 4134 O 374.846 -2.16331 0.0548389 0
M  V30 4135 C 375.441 -1.07363 3.21339 0
M  V30 4136 C 374 -1.56723 3.42221 0
M  V30 4137 C 373.147 -0.50041 2.72747 0
M  V30 4138 H 376.098 0.186119 1.57605 0
M  V30 4139 H 376.119 -1.94143 3.27244 0
M  V30 4140 H 375.631 -0.218975 3.87482 0
M  V30 4141 H 373.732 -2.4441 2.81237 0
M  V30 4142 H 373.845 -1.62234 4.50796 0
M  V30 4143 H 372.209 -0.952894 2.36203 0
M  V30 4144 H 372.992 0.344599 3.41566 0
M  V30 4145 N 375.437 -1.54477 -0.31217 0
M  V30 4146 C 376.683 -1.73483 -1.0503 0
M  V30 4147 C 377.016 -0.513125 -1.87298 0
M  V30 4148 O 376.291 0.489864 -1.8823 0
M  V30 4149 C 376.574 -3.01723 -1.96558 0
M  V30 4150 C 376.427 -4.3417 -1.17545 0
M  V30 4151 C 377.746 -3.25772 -2.95907 0
M  V30 4152 H 374.865 -0.631222 -0.380432 0
M  V30 4153 H 377.507 -1.87184 -0.325932 0
M  V30 4154 H 375.657 -2.90174 -2.58324 0
M  V30 4155 H 377.329 -4.5762 -0.581513 0
M  V30 4156 H 375.572 -4.31159 -0.477925 0
M  V30 4157 H 376.243 -5.20143 -1.84811 0
M  V30 4158 H 378.719 -3.36857 -2.44267 0
M  V30 4159 H 377.595 -4.16838 -3.57123 0
M  V30 4160 H 377.856 -2.43537 -3.68974 0
M  V30 4161 N 376.915 0.57481 -1.46744 0
M  V30 4162 C 377.845 1.69337 -1.60771 0
M  V30 4163 C 378.826 1.63825 -0.457736 0
M  V30 4164 O 380.011 1.8172 -0.684947 0
M  V30 4165 C 377.141 3.0798 -1.60517 0
M  V30 4166 C 376.095 3.28327 -2.74564 0
M  V30 4167 C 375.421 4.67578 -2.59373 0
M  V30 4168 C 376.721 3.15398 -4.16319 0
M  V30 4169 H 378.415 1.57853 -2.54407 0
M  V30 4170 H 375.961 0.75799 -1.22436 0
M  V30 4171 H 377.914 3.86061 -1.68923 0
M  V30 4172 H 376.638 3.20381 -0.634305 0
M  V30 4173 H 375.297 2.52649 -2.65639 0
M  V30 4174 H 374.945 4.76755 -1.60353 0
M  V30 4175 H 374.645 4.82144 -3.35873 0
M  V30 4176 H 376.169 5.47817 -2.69682 0
M  V30 4177 H 377.583 3.83315 -4.26313 0
M  V30 4178 H 375.98 3.41482 -4.93468 0
M  V30 4179 H 377.05 2.12372 -4.3592 0
M  V30 4180 N 378.394 1.34581 0.820102 0
M  V30 4181 C 379.341 1.2639 1.93117 0
M  V30 4182 C 380.311 0.138554 1.65521 0
M  V30 4183 O 381.496 0.320004 1.88097 0
M  V30 4184 C 378.636 1.02812 3.29429 0
M  V30 4185 C 377.749 2.24146 3.693 0
M  V30 4186 C 376.884 1.93829 4.94574 0
M  V30 4187 C 375.923 3.1129 5.27034 0
M  V30 4188 N 375.06 2.80838 6.43486 0
M  V30 4189 H 379.9 2.21408 1.99455 0
M  V30 4190 H 377.437 1.10077 0.975784 0
M  V30 4191 H 379.395 0.871788 4.0799 0
M  V30 4192 H 378.025 0.114612 3.22596 0
M  V30 4193 H 377.077 2.50691 2.86109 0
M  V30 4194 H 378.389 3.11899 3.89257 0
M  V30 4195 H 377.543 1.74948 5.80929 0
M  V30 4196 H 376.282 1.03341 4.76626 0
M  V30 4197 H 375.287 3.30764 4.39175 0
M  V30 4198 H 376.512 4.02561 5.4692 0
M  V30 4199 H 374.458 1.92929 6.26988 0
M  V30 4200 H 374.375 3.62123 6.63629 0
M  V30 4201 H 375.643 2.65467 7.32903 0
M  V30 4202 N 379.872 -1.04064 1.18357 0
M  V30 4203 C 380.819 -2.12077 0.910603 0
M  V30 4204 C 381.789 -1.65421 -0.15 0
M  V30 4205 O 382.974 -1.90797 -0.0103614 0
M  V30 4206 C 380.114 -3.42252 0.442472 0
M  V30 4207 C 379.227 -4.0252 1.5685 0
M  V30 4208 C 378.362 -5.20657 1.05309 0
M  V30 4209 C 377.401 -5.72955 2.1538 0
M  V30 4210 N 376.538 -6.8238 1.65233 0
M  V30 4211 H 381.378 -2.34764 1.83548 0
M  V30 4212 H 378.915 -1.15157 0.915279 0
M  V30 4213 H 380.873 -4.16921 0.152534 0
M  V30 4214 H 379.503 -3.19712 -0.445428 0
M  V30 4215 H 378.555 -3.25178 1.97391 0
M  V30 4216 H 379.867 -4.37362 2.39824 0
M  V30 4217 H 379.021 -6.0244 0.717677 0
M  V30 4218 H 377.76 -4.87318 0.19293 0
M  V30 4219 H 376.765 -4.89793 2.49766 0
M  V30 4220 H 377.99 -6.08337 3.01832 0
M  V30 4221 H 375.936 -6.50917 0.815064 0
M  V30 4222 H 375.853 -7.16286 2.41805 0
M  V30 4223 H 377.121 -7.67788 1.34619 0
M  V30 4224 N 381.35 -0.985608 -1.22978 0
M  V30 4225 C 382.313 -0.535071 -2.22867 0
M  V30 4226 C 383.313 0.378123 -1.56291 0
M  V30 4227 O 384.503 0.171092 -1.73358 0
M  V30 4228 C 381.635 0.222702 -3.40172 0
M  V30 4229 H 382.828 -1.41835 -2.6424 0
M  V30 4230 H 380.381 -0.772042 -1.35901 0
M  V30 4231 H 381.116 1.12229 -3.04262 0
M  V30 4232 H 380.901 -0.43288 -3.89703 0
M  V30 4233 H 382.391 0.526335 -4.1427 0
M  V30 4234 N 382.828 1.3818 -0.7579 0
M  V30 4235 C 384.058 2.04004 -0.326463 0
M  V30 4236 C 384.466 1.57286 1.05156 0
M  V30 4237 O 383.809 0.743144 1.67997 0
M  V30 4238 C 383.871 3.58444 -0.275402 0
M  V30 4239 C 383.535 4.28237 -1.59569 0
M  V30 4240 C 384.532 4.53312 -2.54566 0
M  V30 4241 C 382.217 4.66341 -1.86631 0
M  V30 4242 C 384.211 5.15531 -3.74842 0
M  V30 4243 C 381.898 5.28283 -3.0718 0
M  V30 4244 C 382.896 5.52814 -4.01106 0
M  V30 4245 O 382.584 6.13465 -5.19534 0
M  V30 4246 H 382.316 0.662026 -0.136739 0
M  V30 4247 H 384.87 1.7777 -1.02893 0
M  V30 4248 H 383.1 3.83667 0.483337 0
M  V30 4249 H 384.789 4.05701 0.127099 0
M  V30 4250 H 385.555 4.24299 -2.34936 0
M  V30 4251 H 381.434 4.46591 -1.14358 0
M  V30 4252 H 384.978 5.34594 -4.48168 0
M  V30 4253 H 380.875 5.56719 -3.26702 0
M  V30 4254 H 381.643 6.31951 -5.20173 0
M  V30 4255 N 384.306 0.507319 1.49211 0
M  V30 4256 C 385.554 -0.0348839 2.0207 0
M  V30 4257 C 385.875 -1.36898 1.38866 0
M  V30 4258 O 385.145 -1.88133 0.546151 0
M  V30 4259 H 383.725 -0.0158812 0.746831 0
M  V30 4260 H 386.387 0.665998 1.83168 0
M  V30 4261 H 385.483 -0.159917 3.1169 0
M  V30 4262 N 385.784 -1.5574 0.241426 0
M  V30 4263 C 387.033 -1.97986 -0.385295 0
M  V30 4264 C 387.346 -1.13267 -1.59468 0
M  V30 4265 O 388.552 -1.45501 -2.2922 0
M  V30 4266 C 387.008 -3.52275 -0.736884 0
M  V30 4267 C 386.616 -4.45726 0.450796 0
M  V30 4268 C 388.36 -4.03189 -1.3281 0
M  V30 4269 C 386.267 -5.91352 0.0756662 0
M  V30 4270 H 385.197 -0.739386 -0.147731 0
M  V30 4271 H 387.848 -1.80308 0.340779 0
M  V30 4272 H 386.23 -3.65628 -1.52094 0
M  V30 4273 H 387.404 -4.44131 1.22819 0
M  V30 4274 H 385.719 -4.05264 0.956573 0
M  V30 4275 H 388.316 -5.09505 -1.62201 0
M  V30 4276 H 388.659 -3.50212 -2.25071 0
M  V30 4277 H 389.192 -3.93141 -0.607069 0
M  V30 4278 H 385.931 -6.48354 0.965272 0
M  V30 4279 H 385.451 -5.96095 -0.665635 0
M  V30 4280 H 387.13 -6.46084 -0.344075 0
M  V30 4281 N 387.262 0.0317525 -1.57568 0
M  V30 4282 C 388.508 0.724175 -1.8943 0
M  V30 4283 C 388.841 1.75149 -0.838836 0
M  V30 4284 O 388.116 1.93948 0.146422 0
M  V30 4285 C 388.399 1.39615 -3.31933 0
M  V30 4286 C 388.252 0.382537 -4.4817 0
M  V30 4287 C 389.571 2.33084 -3.73309 0
M  V30 4288 H 386.69 0.261797 -0.688935 0
M  V30 4289 H 389.332 -0.013017 -1.89996 0
M  V30 4290 H 387.482 2.02451 -3.31581 0
M  V30 4291 H 389.154 -0.243689 -4.60656 0
M  V30 4292 H 387.397 -0.29844 -4.32772 0
M  V30 4293 H 388.068 0.891145 -5.44759 0
M  V30 4294 H 390.544 1.80295 -3.7501 0
M  V30 4295 H 389.42 2.77084 -4.73831 0
M  V30 4296 H 389.681 3.19643 -3.05419 0
M  V30 4297 N 388.74 1.54641 0.303973 0
M  V30 4298 C 389.968 1.77768 1.05858 0
M  V30 4299 C 390.383 0.535722 1.8104 0
M  V30 4300 O 389.74 -0.494337 1.75677 0
M  V30 4301 C 389.791 2.9834 2.04146 0
M  V30 4302 O 389.512 4.17736 1.32015 0
M  V30 4303 C 391.013 3.33832 2.91669 0
M  V30 4304 H 388.233 0.592961 0.314067 0
M  V30 4305 H 390.777 2.01583 0.344149 0
M  V30 4306 H 388.932 2.76742 2.71096 0
M  V30 4307 H 389.346 4.85693 1.97998 0
M  V30 4308 H 390.82 4.21448 3.56491 0
M  V30 4309 H 391.297 2.51857 3.59812 0
M  V30 4310 H 391.903 3.57579 2.30254 0
M  V30 4311 N 390.218 -0.567019 1.47046 0
M  V30 4312 C 391.464 -1.32434 1.54379 0
M  V30 4313 C 391.819 -1.91365 0.199276 0
M  V30 4314 O 391.112 -1.74378 -0.793915 0
M  V30 4315 C 391.306 -2.4623 2.59047 0
M  V30 4316 C 391.135 -1.98448 4.03545 0
M  V30 4317 C 389.905 -1.82741 4.71098 0
M  V30 4318 C 392.103 -1.53477 4.90866 0
M  V30 4319 N 390.085 -1.29196 6.00151 0
M  V30 4320 C 391.456 -1.1163 6.09868 0
M  V30 4321 C 393.511 -1.41438 4.77388 0
M  V30 4322 C 392.214 -0.589425 7.16881 0
M  V30 4323 C 394.24 -0.901528 5.84488 0
M  V30 4324 C 393.602 -0.492932 7.02673 0
M  V30 4325 H 389.701 -0.477005 0.61967 0
M  V30 4326 H 392.285 -0.643856 1.83746 0
M  V30 4327 H 390.456 -3.11821 2.31564 0
M  V30 4328 H 392.188 -3.13213 2.56281 0
M  V30 4329 H 388.943 -2.05162 4.26855 0
M  V30 4330 H 389.367 -1.0454 6.6888 0
M  V30 4331 H 394.009 -1.71643 3.86392 0
M  V30 4332 H 391.727 -0.274994 8.07632 0
M  V30 4333 H 395.313 -0.812071 5.76105 0
M  V30 4334 H 394.193 -0.102227 7.84133 0
M  V30 4335 N 391.696 -1.35014 -0.812953 0
M  V30 4336 C 392.926 -1.30841 -1.59888 0
M  V30 4337 C 393.334 0.117576 -1.88834 0
M  V30 4338 O 392.677 1.07807 -1.48739 0
M  V30 4339 C 392.739 -2.0412 -2.95931 0
M  V30 4340 C 392.403 -3.53336 -2.89832 0
M  V30 4341 C 393.4 -4.48052 -2.63714 0
M  V30 4342 C 391.085 -3.95894 -3.0915 0
M  V30 4343 C 393.079 -5.833 -2.56982 0
M  V30 4344 C 390.766 -5.31239 -3.0204 0
M  V30 4345 C 391.764 -6.24754 -2.75991 0
M  V30 4346 O 391.452 -7.57617 -2.68833 0
M  V30 4347 H 391.184 -0.451215 -0.50337 0
M  V30 4348 H 393.738 -1.78354 -1.01877 0
M  V30 4349 H 391.968 -1.51235 -3.559 0
M  V30 4350 H 393.657 -1.93107 -3.57022 0
M  V30 4351 H 394.423 -4.16492 -2.48515 0
M  V30 4352 H 390.302 -3.23495 -3.28438 0
M  V30 4353 H 393.846 -6.56263 -2.36569 0
M  V30 4354 H 389.743 -5.62415 -3.16796 0
M  V30 4355 H 390.511 -7.67469 -2.84487 0
M  V30 4356 N 393.175 1.03435 -1.18907 0
M  V30 4357 C 394.085 2.15075 -0.937015 0
M  V30 4358 C 395.101 1.73706 0.101085 0
M  V30 4359 O 396.277 2.01232 -0.0822948 0
M  V30 4360 C 393.342 3.43458 -0.473057 0
M  V30 4361 C 392.403 3.99172 -1.57989 0
M  V30 4362 C 391.636 5.21427 -1.13797 0
M  V30 4363 O 391.859 5.704 0.000725941 0
M  V30 4364 O 390.793 5.69837 -1.9383 0
M  V30 4365 H 394.619 2.39198 -1.87131 0
M  V30 4366 H 392.204 1.13506 -0.971427 0
M  V30 4367 H 394.086 4.20811 -0.222702 0
M  V30 4368 H 392.761 3.20793 0.432869 0
M  V30 4369 H 391.668 3.23178 -1.88433 0
M  V30 4370 H 393.001 4.2619 -2.46217 0
M  V30 4371 N 394.653 0.992116 1.22453 0
M  V30 4372 C 395.601 0.534644 2.26372 0
M  V30 4373 C 396.595 -0.414293 1.64256 0
M  V30 4374 O 397.801 -0.286899 1.77699 0
M  V30 4375 H 394.176 0.154502 0.735957 0
M  V30 4376 H 396.147 1.42256 2.62309 0
M  V30 4377 C 394.896 -0.135815 3.47435 0
M  V30 4378 H 394.219 0.585311 3.95492 0
M  V30 4379 H 395.659 -0.419374 4.21921 0
M  V30 4380 C 394.118 -1.37089 3.07747 0
M  V30 4381 O 394.648 -2.46629 3.17076 0
M  V30 4382 N 392.854 -1.24585 2.62539 0
M  V30 4383 H 392.401 -0.354542 2.55149 0
M  V30 4384 H 392.359 -2.07327 2.36353 0
M  V30 4385 N 396.131 -1.37776 0.765217 0
M  V30 4386 C 397.094 -2.28686 0.153416 0
M  V30 4387 C 398.094 -1.47727 -0.635081 0
M  V30 4388 O 399.284 -1.68027 -0.459632 0
M  V30 4389 C 396.416 -3.31608 -0.790495 0
M  V30 4390 H 397.609 -2.84297 0.954723 0
M  V30 4391 H 395.162 -1.46932 0.53299 0
M  V30 4392 H 395.897 -2.81109 -1.61705 0
M  V30 4393 H 395.682 -3.9144 -0.227348 0
M  V30 4394 H 397.172 -3.99559 -1.21419 0
M  V30 4395 N 397.609 -0.515225 -1.4894 0
M  V30 4396 C 399.02 -0.0710067 -1.86565 0
M  V30 4397 C 399.371 1.34733 -1.42623 0
M  V30 4398 O 398.496 2.00653 -0.810379 0
M  V30 4399 C 399.091 -0.122083 -3.3858 0
M  V30 4400 C 397.65 0.266863 -3.75453 0
M  V30 4401 C 396.797 -0.488376 -2.72966 0
M  V30 4402 H 399.748 -0.727266 -1.41055 0
M  V30 4403 H 399.769 0.669818 -3.74558 0
M  V30 4404 H 399.281 -1.15448 -3.70531 0
M  V30 4405 H 397.382 1.30196 -3.49113 0
M  V30 4406 H 397.495 -0.0624811 -4.79059 0
M  V30 4407 H 395.859 0.0635622 -2.54621 0
M  V30 4408 H 396.642 -1.52113 -3.07761 0
M  V30 4409 N 399.087 1.5561 -0.249682 0
M  V30 4410 C 400.317 2.03116 0.377803 0
M  V30 4411 C 400.725 1.12822 1.51881 0
M  V30 4412 O 400.068 0.13562 1.83199 0
M  V30 4413 C 400.13 3.46866 0.944693 0
M  V30 4414 C 399.794 4.56955 -0.0644259 0
M  V30 4415 C 400.791 5.12485 -0.874957 0
M  V30 4416 C 398.476 5.01936 -0.19132 0
M  V30 4417 C 400.47 6.11491 -1.79881 0
M  V30 4418 C 398.157 6.00773 -1.11868 0
M  V30 4419 C 399.155 6.5543 -1.92095 0
M  V30 4420 O 398.843 7.5234 -2.83267 0
M  V30 4421 H 398.575 0.669489 0.0935961 0
M  V30 4422 H 401.129 2.02004 -0.371966 0
M  V30 4423 H 399.359 3.45136 1.74407 0
M  V30 4424 H 401.048 3.77856 1.48255 0
M  V30 4425 H 401.814 4.78564 -0.787523 0
M  V30 4426 H 397.693 4.59055 0.423072 0
M  V30 4427 H 401.237 6.54078 -2.42543 0
M  V30 4428 H 397.134 6.34114 -1.20703 0
M  V30 4429 H 397.902 7.69966 -2.7766 0
M  V30 4430 N 400.565 -0.0233959 1.57583 0
M  V30 4431 C 401.498 -1.05549 2.02323 0
M  V30 4432 C 402.476 -1.34843 0.908626 0
M  V30 4433 O 403.66 -1.47404 1.17491 0
M  V30 4434 C 400.787 -2.38885 2.40108 0
M  V30 4435 C 399.833 -2.2541 3.62067 0
M  V30 4436 S 400.666 -1.60217 5.1097 0
M  V30 4437 C 401.822 -2.95032 5.52003 0
M  V30 4438 H 402.055 -0.674435 2.89549 0
M  V30 4439 H 399.588 -0.23355 1.52623 0
M  V30 4440 H 401.546 -3.15562 2.62547 0
M  V30 4441 H 400.207 -2.74137 1.53323 0
M  V30 4442 H 399.4 -3.23854 3.86179 0
M  V30 4443 H 399.002 -1.56876 3.39508 0
M  V30 4444 H 401.294 -3.91357 5.53033 0
M  V30 4445 H 402.237 -2.75646 6.52246 0
M  V30 4446 H 402.645 -2.97865 4.79517 0
M  V30 4447 N 402.043 -1.548 -0.295768 0
M  V30 4448 C 402.973 -1.89115 -1.36959 0
M  V30 4449 C 403.954 -0.75059 -1.52644 0
M  V30 4450 O 405.139 -1.00678 -1.66065 0
M  V30 4451 C 402.269 -2.14307 -2.73295 0
M  V30 4452 C 401.223 -3.30151 -2.72368 0
M  V30 4453 C 400.549 -3.40772 -4.12042 0
M  V30 4454 C 401.849 -4.67126 -2.33646 0
M  V30 4455 H 403.543 -2.79053 -1.08488 0
M  V30 4456 H 401.089 -1.34266 -0.520443 0
M  V30 4457 H 403.042 -2.36898 -3.48507 0
M  V30 4458 H 401.766 -1.21145 -3.03301 0
M  V30 4459 H 400.425 -3.0749 -1.99613 0
M  V30 4460 H 400.073 -2.45117 -4.39234 0
M  V30 4461 H 399.773 -4.18645 -4.12322 0
M  V30 4462 H 401.297 -3.6563 -4.89027 0
M  V30 4463 H 402.711 -4.89414 -2.98575 0
M  V30 4464 H 401.108 -5.47751 -2.45129 0
M  V30 4465 H 402.178 -4.67489 -1.28772 0
M  V30 4466 N 403.521 0.559213 -1.47345 0
M  V30 4467 C 404.932 1.14134 -1.47751 0
M  V30 4468 C 405.283 1.94834 -0.231103 0
M  V30 4469 O 404.408 2.05957 0.664137 0
M  V30 4470 C 405.003 2.07653 -2.67705 0
M  V30 4471 C 403.562 2.61141 -2.71076 0
M  V30 4472 C 402.709 1.3748 -2.40821 0
M  V30 4473 H 405.66 0.345917 -1.54884 0
M  V30 4474 H 405.681 2.91497 -2.44561 0
M  V30 4475 H 405.193 1.4889 -3.58404 0
M  V30 4476 H 403.294 3.23707 -1.84511 0
M  V30 4477 H 403.407 3.02272 -3.7171 0
M  V30 4478 H 401.771 1.68086 -1.91362 0
M  V30 4479 H 402.554 0.805135 -3.33725 0
M  V30 4480 N 404.999 1.35443 0.805782 0
M  V30 4481 C 405.962 1.28301 1.89925 0
M  V30 4482 C 406.962 0.194285 1.59622 0
M  V30 4483 O 408.152 0.448036 1.6834 0
M  V30 4484 C 405.284 0.984997 3.2636 0
M  V30 4485 H 406.477 2.2553 1.97677 0
M  V30 4486 H 404.03 1.19979 1.00173 0
M  V30 4487 H 404.765 0.016603 3.24296 0
M  V30 4488 H 404.55 1.77269 3.4974 0
M  V30 4489 H 406.04 0.960651 4.064 0
M  V30 4490 N 406.477 -1.02803 1.19454 0
M  V30 4491 C 407.425 -2.13213 0.929673 0
M  V30 4492 C 408.419 -1.69011 -0.114806 0
M  V30 4493 O 409.625 -1.79967 0.0345147 0
M  V30 4494 H 406 -0.69662 0.28324 0
M  V30 4495 H 407.971 -2.32744 1.86743 0
M  V30 4496 C 406.72 -3.4429 0.485797 0
M  V30 4497 H 406.043 -3.7872 1.28105 0
M  V30 4498 H 407.483 -4.22638 0.339582 0
M  V30 4499 C 405.942 -3.27258 -0.800244 0
M  V30 4500 O 406.472 -3.55967 -1.86146 0
M  V30 4501 N 404.678 -2.80545 -0.75781 0
M  V30 4502 H 404.225 -2.57382 0.106039 0
M  V30 4503 H 404.183 -2.6953 -1.61867 0
M  V30 4504 N 407.956 -0.998596 -1.21925 0
M  V30 4505 C 409.184 -0.696286 -1.94832 0
M  V30 4506 C 409.599 0.740032 -1.73692 0
M  V30 4507 O 408.956 1.5 -1.03953 0
M  V30 4508 C 409.007 -0.999833 -3.47398 0
M  V30 4509 O 408.728 -2.37972 -3.67833 0
M  V30 4510 C 410.229 -0.716025 -4.37479 0
M  V30 4511 H 407.449 -0.257111 -0.619786 0
M  V30 4512 H 409.993 -1.33491 -1.54921 0
M  V30 4513 H 408.148 -0.406918 -3.85257 0
M  V30 4514 H 408.562 -2.48338 -4.61983 0
M  V30 4515 H 410.036 -0.978642 -5.43256 0
M  V30 4516 H 410.513 0.349968 -4.37803 0
M  V30 4517 H 411.119 -1.29025 -4.05256 0
M  V30 4518 N 409.434 1.37368 -0.772513 0
M  V30 4519 C 410.397 2.28601 -0.165541 0
M  V30 4520 C 411.397 1.48062 0.627238 0
M  V30 4521 O 412.587 1.68268 0.450715 0
M  V30 4522 C 409.719 3.32023 0.772897 0
M  V30 4523 H 410.912 2.83787 -0.969787 0
M  V30 4524 H 408.465 1.46647 -0.540775 0
M  V30 4525 H 409.2 2.81962 1.60212 0
M  V30 4526 H 408.985 3.91555 0.206585 0
M  V30 4527 H 410.475 4.00197 1.19298 0
M  V30 4528 N 410.912 0.523116 1.48665 0
M  V30 4529 C 412.16 -0.0134497 2.02096 0
M  V30 4530 C 412.481 -1.35418 1.40311 0
M  V30 4531 O 411.751 -1.87543 0.566074 0
M  V30 4532 H 410.331 -0.00795915 0.746958 0
M  V30 4533 H 412.993 0.685388 1.82451 0
M  V30 4534 H 412.089 -0.126849 3.11842 0
M  V30 4535 N 412.39 -1.55475 0.257931 0
M  V30 4536 C 413.639 -1.98383 -0.364275 0
M  V30 4537 C 413.952 -1.14952 -1.58258 0
M  V30 4538 O 415.158 -1.47924 -2.27664 0
M  V30 4539 C 413.614 -3.53037 -0.699479 0
M  V30 4540 C 413.222 -4.45223 0.498046 0
M  V30 4541 C 414.966 -4.04575 -1.28526 0
M  V30 4542 C 412.873 -5.91238 0.138383 0
M  V30 4543 H 411.803 -0.740911 -0.13988 0
M  V30 4544 H 414.454 -1.79936 0.359883 0
M  V30 4545 H 412.836 -3.6722 -1.48207 0
M  V30 4546 H 414.01 -4.42803 1.27522 0
M  V30 4547 H 412.325 -4.04226 0.999503 0
M  V30 4548 H 414.922 -5.11196 -1.56788 0
M  V30 4549 H 415.265 -3.5258 -2.21344 0
M  V30 4550 H 415.798 -3.93762 -0.565337 0
M  V30 4551 H 412.537 -6.47294 1.03398 0
M  V30 4552 H 412.057 -5.96768 -0.602374 0
M  V30 4553 H 413.736 -6.46413 -0.27553 0
M  V30 4554 N 413.868 0.0150385 -1.57593 0
M  V30 4555 C 415.098 0.713359 -1.93894 0
M  V30 4556 C 415.506 1.68663 -0.857289 0
M  V30 4557 O 414.849 1.82876 0.173788 0
M  V30 4558 C 414.911 1.51348 -3.26089 0
M  V30 4559 C 414.575 0.703451 -4.51554 0
M  V30 4560 C 415.572 -0.00237924 -5.199 0
M  V30 4561 C 413.257 0.653854 -4.98026 0
M  V30 4562 C 415.251 -0.746955 -6.33008 0
M  V30 4563 C 412.938 -0.0944578 -6.11027 0
M  V30 4564 C 413.936 -0.793609 -6.78374 0
M  V30 4565 O 413.624 -1.52974 -7.89211 0
M  V30 4566 H 413.356 0.204637 -0.644282 0
M  V30 4567 H 415.91 -0.0276411 -2.05381 0
M  V30 4568 H 414.14 2.29862 -3.10967 0
M  V30 4569 H 415.829 2.09572 -3.47612 0
M  V30 4570 H 416.595 0.0268803 -4.84993 0
M  V30 4571 H 412.474 1.18756 -4.45441 0
M  V30 4572 H 416.018 -1.2932 -6.85509 0
M  V30 4573 H 411.915 -0.125591 -6.45378 0
M  V30 4574 H 412.683 -1.44488 -8.05646 0
M  V30 4575 N 415.346 1.54954 0.287554 0
M  V30 4576 C 416.595 1.74081 1.01877 0
M  V30 4577 C 416.908 0.541135 1.87966 0
M  V30 4578 O 418.114 0.614491 2.64455 0
M  V30 4579 C 416.57 3.08042 1.86113 0
M  V30 4580 C 416.178 4.35531 1.04961 0
M  V30 4581 C 417.922 3.36523 2.58752 0
M  V30 4582 C 415.829 5.60538 1.88551 0
M  V30 4583 H 414.759 0.64884 0.384087 0
M  V30 4584 H 417.41 1.81426 0.275101 0
M  V30 4585 H 415.792 2.94696 2.64519 0
M  V30 4586 H 416.966 4.59751 0.31074 0
M  V30 4587 H 415.281 4.14085 0.43843 0
M  V30 4588 H 417.878 4.27122 3.21668 0
M  V30 4589 H 418.221 2.56 3.28283 0
M  V30 4590 H 418.754 3.50901 1.87386 0
M  V30 4591 H 415.493 6.43767 1.23466 0
M  V30 4592 H 415.013 5.40483 2.60074 0
M  V30 4593 H 416.692 5.98297 2.46273 0
M  V30 4594 N 416.824 -0.551391 1.4764 0
M  V30 4595 C 417.772 -1.67896 1.60978 0
M  V30 4596 C 418.766 -1.62549 0.476877 0
M  V30 4597 O 419.972 -1.67664 0.654878 0
M  V30 4598 H 416.347 -0.555649 0.506713 0
M  V30 4599 H 418.318 -1.53784 2.55721 0
M  V30 4600 C 417.067 -3.06234 1.64669 0
M  V30 4601 H 416.39 -3.11033 2.51194 0
M  V30 4602 H 417.83 -3.84804 1.7805 0
M  V30 4603 C 416.289 -3.34737 0.381115 0
M  V30 4604 O 416.819 -3.98381 -0.515297 0
M  V30 4605 N 415.025 -2.8944 0.259354 0
M  V30 4606 H 414.572 -2.37827 0.98976 0
M  V30 4607 H 414.53 -3.08882 -0.586464 0
M  V30 4608 N 418.302 -1.35869 -0.798587 0
M  V30 4609 C 419.548 -1.2978 -1.55836 0
M  V30 4610 C 419.881 0.125322 -1.93795 0
M  V30 4611 O 419.156 1.07658 -1.61987 0
M  V30 4612 C 419.439 -2.21188 -2.84162 0
M  V30 4613 C 419.292 -3.72155 -2.52628 0
M  V30 4614 C 420.611 -2.11545 -3.85923 0
M  V30 4615 H 417.73 -0.472769 -0.565383 0
M  V30 4616 H 420.372 -1.66341 -0.918192 0
M  V30 4617 H 418.522 -1.90139 -3.38791 0
M  V30 4618 H 420.194 -4.13682 -2.04121 0
M  V30 4619 H 418.437 -3.92042 -1.85704 0
M  V30 4620 H 419.108 -4.31511 -3.44242 0
M  V30 4621 H 421.584 -2.38855 -3.40716 0
M  V30 4622 H 420.46 -2.77688 -4.73477 0
M  V30 4623 H 420.721 -1.09987 -4.282 0
M  V30 4624 N 419.78 1.02168 -1.19998 0
M  V30 4625 C 420.728 2.12717 -0.940967 0
M  V30 4626 C 421.722 1.69069 0.105841 0
M  V30 4627 O 422.928 1.79946 -0.0440583 0
M  V30 4628 H 419.303 0.695108 -0.28693 0
M  V30 4629 H 421.274 2.3175 -1.87975 0
M  V30 4630 C 420.023 3.44027 -0.504049 0
M  V30 4631 H 419.346 3.78036 -1.30112 0
M  V30 4632 H 420.786 4.22452 -0.361991 0
M  V30 4633 C 419.245 3.27678 0.782878 0
M  V30 4634 O 419.775 3.56949 1.84256 0
M  V30 4635 N 417.981 2.80943 0.742921 0
M  V30 4636 H 417.528 2.57322 -0.119687 0
M  V30 4637 H 417.486 2.70385 1.60435 0
M  V30 4638 N 421.258 1.00505 1.21394 0
M  V30 4639 C 422.205 0.565496 2.23765 0
M  V30 4640 C 423.175 -0.408466 1.60999 0
M  V30 4641 O 424.36 -0.310503 1.88257 0
M  V30 4642 C 421.5 -0.101667 3.4495 0
M  V30 4643 C 420.613 0.915479 4.22188 0
M  V30 4644 C 419.748 0.220574 5.30742 0
M  V30 4645 C 418.787 1.22527 5.99711 0
M  V30 4646 N 417.924 0.557831 6.9988 0
M  V30 4647 H 422.764 1.44314 2.60725 0
M  V30 4648 H 420.301 0.722643 1.28126 0
M  V30 4649 H 422.259 -0.505504 4.14126 0
M  V30 4650 H 420.889 -0.94303 3.08718 0
M  V30 4651 H 419.941 1.43756 3.52191 0
M  V30 4652 H 421.253 1.68005 4.69655 0
M  V30 4653 H 420.407 -0.239368 6.06228 0
M  V30 4654 H 419.146 -0.576401 4.84282 0
M  V30 4655 H 418.151 1.69571 5.22997 0
M  V30 4656 H 419.376 2.02332 6.48258 0
M  V30 4657 H 417.322 -0.219486 6.55633 0
M  V30 4658 H 417.239 1.26065 7.45415 0
M  V30 4659 H 418.507 0.121095 7.79406 0
M  V30 4660 N 422.737 -1.36956 0.779787 0
M  V30 4661 C 423.967 -2.03459 0.358877 0
M  V30 4662 C 424.375 -1.58939 -1.02641 0
M  V30 4663 O 423.718 -0.769777 -1.66794 0
M  V30 4664 C 423.78 -3.5796 0.332393 0
M  V30 4665 C 423.444 -4.25644 1.66362 0
M  V30 4666 C 424.441 -4.49205 2.61746 0
M  V30 4667 C 422.126 -4.63313 1.94027 0
M  V30 4668 C 424.12 -5.09503 3.82996 0
M  V30 4669 C 421.807 -5.2333 3.15546 0
M  V30 4670 C 422.805 -5.46363 4.0985 0
M  V30 4671 O 422.493 -6.05122 5.29228 0
M  V30 4672 H 422.225 -0.659767 0.147254 0
M  V30 4673 H 424.779 -1.76111 1.05708 0
M  V30 4674 H 423.009 -3.84388 -0.422237 0
M  V30 4675 H 424.698 -4.05852 -0.0625389 0
M  V30 4676 H 425.464 -4.20508 2.41657 0
M  V30 4677 H 421.343 -4.44715 1.21448 0
M  V30 4678 H 424.887 -5.27397 4.56617 0
M  V30 4679 H 420.784 -5.51451 3.35517 0
M  V30 4680 H 421.552 -6.23595 5.30161 0
M  V30 4681 N 424.215 -0.530993 -1.48385 0
M  V30 4682 C 425.626 -0.0907905 -1.86479 0
M  V30 4683 C 425.977 1.33213 -1.44044 0
M  V30 4684 O 425.102 1.99783 -0.831615 0
M  V30 4685 C 425.697 -0.157987 -3.38431 0
M  V30 4686 C 424.256 0.227026 -3.75715 0
M  V30 4687 C 423.403 -0.5173 -2.72432 0
M  V30 4688 H 426.354 -0.742186 -1.40276 0
M  V30 4689 H 426.375 0.630053 -3.75247 0
M  V30 4690 H 425.887 -1.19372 -3.69286 0
M  V30 4691 H 423.988 1.26486 -3.50474 0
M  V30 4692 H 424.101 -0.113288 -4.78966 0
M  V30 4693 H 422.465 0.0365527 -2.54674 0
M  V30 4694 H 423.248 -1.55368 -3.0613 0
M  V30 4695 N 425.693 1.55336 -0.266172 0
M  V30 4696 C 426.623 2.25146 0.618981 0
M  V30 4697 C 427.604 1.23845 1.16604 0
M  V30 4698 O 428.789 1.52544 1.20183 0
M  V30 4699 C 425.919 2.96572 1.80728 0
M  V30 4700 C 424.873 4.04726 1.39215 0
M  V30 4701 C 424.199 4.63678 2.66283 0
M  V30 4702 C 425.499 5.19407 0.548942 0
M  V30 4703 H 427.193 2.99377 0.0368116 0
M  V30 4704 H 424.739 1.43991 0.0162651 0
M  V30 4705 H 426.692 3.44116 2.43232 0
M  V30 4706 H 425.416 2.19861 2.41514 0
M  V30 4707 H 424.075 3.57979 0.790351 0
M  V30 4708 H 423.723 3.83646 3.25308 0
M  V30 4709 H 423.423 5.367 2.39222 0
M  V30 4710 H 424.947 5.13967 3.29651 0
M  V30 4711 H 426.361 5.63059 1.07876 0
M  V30 4712 H 424.758 5.98936 0.373593 0
M  V30 4713 H 425.828 4.8295 -0.434394 0
M  V30 4714 N 427.171 -0.0066808 1.57599 0
M  V30 4715 C 428.396 -0.707738 1.94951 0
M  V30 4716 C 428.821 -1.66882 0.867868 0
M  V30 4717 O 428.179 -1.80457 -0.17458 0
M  V30 4718 C 428.227 -1.42162 3.31394 0
M  V30 4719 O 427.331 -2.53578 3.25226 0
M  V30 4720 H 426.672 -0.188752 0.636607 0
M  V30 4721 H 429.202 0.0445193 2.04552 0
M  V30 4722 H 429.212 -1.78655 3.66806 0
M  V30 4723 H 427.887 -0.716903 4.09675 0
M  V30 4724 H 426.464 -2.19463 3.01481 0
M  V30 4725 N 428.649 -1.55105 -0.279332 0
M  V30 4726 C 429.898 -1.74618 -1.00952 0
M  V30 4727 C 430.211 -0.551096 -1.87676 0
M  V30 4728 O 431.417 -0.628507 -2.64125 0
M  V30 4729 C 429.873 -3.09025 -1.84476 0
M  V30 4730 C 429.481 -4.36081 -1.0265 0
M  V30 4731 C 431.225 -3.37891 -2.56963 0
M  V30 4732 C 429.132 -5.6153 -1.85576 0
M  V30 4733 H 428.062 -0.650868 -0.38064 0
M  V30 4734 H 430.713 -1.81569 -0.265475 0
M  V30 4735 H 429.095 -2.96095 -2.62952 0
M  V30 4736 H 430.269 -4.59909 -0.286354 0
M  V30 4737 H 428.584 -4.14312 -0.416464 0
M  V30 4738 H 431.181 -4.28822 -3.19399 0
M  V30 4739 H 431.524 -2.57737 -3.26921 0
M  V30 4740 H 432.057 -3.5189 -1.85522 0
M  V30 4741 H 428.796 -6.44413 -1.2005 0
M  V30 4742 H 428.316 -5.41854 -2.57204 0
M  V30 4743 H 429.995 -5.99594 -2.43096 0
M  V30 4744 N 430.127 0.543554 -1.4793 0
M  V30 4745 C 431.538 1.12561 -1.48953 0
M  V30 4746 C 431.889 1.94578 -0.251754 0
M  V30 4747 O 431.014 2.0665 0.642255 0
M  V30 4748 C 431.609 2.04801 -2.69892 0
M  V30 4749 C 430.168 2.58251 -2.73831 0
M  V30 4750 C 429.315 1.34918 -2.42265 0
M  V30 4751 H 432.266 0.32947 -1.55242 0
M  V30 4752 H 432.287 2.88886 -2.47639 0
M  V30 4753 H 431.799 1.4508 -3.59963 0
M  V30 4754 H 429.9 3.21732 -1.87934 0
M  V30 4755 H 430.013 2.98312 -3.74895 0
M  V30 4756 H 428.377 1.66046 -1.93134 0
M  V30 4757 H 429.16 0.769693 -3.3456 0
M  V30 4758 N 431.605 1.3629 0.791371 0
M  V30 4759 C 432.515 1.32606 1.93527 0
M  V30 4760 C 433.531 0.228541 1.72493 0
M  V30 4761 O 434.707 0.460571 1.96063 0
M  V30 4762 C 431.772 1.11271 3.28359 0
M  V30 4763 C 430.833 2.3048 3.62185 0
M  V30 4764 C 430.066 2.10154 4.90583 0
M  V30 4765 O 430.289 1.07572 5.60165 0
M  V30 4766 O 429.223 2.97884 5.23019 0
M  V30 4767 H 433.049 2.28909 1.99585 0
M  V30 4768 H 430.634 1.16818 0.931344 0
M  V30 4769 H 432.516 1.01283 4.09047 0
M  V30 4770 H 431.191 0.180292 3.23198 0
M  V30 4771 H 430.098 2.46036 2.81811 0
M  V30 4772 H 431.431 3.22221 3.72068 0
M  V30 4773 N 433.083 -1.0153 1.20538 0
M  V30 4774 C 434.33 -1.75149 1.01633 0
M  V30 4775 C 434.658 -1.89189 -0.451399 0
M  V30 4776 O 433.913 -1.41551 -1.35136 0
M  V30 4777 C 434.212 -3.17213 1.64654 0
M  V30 4778 C 433.878 -3.23146 3.14464 0
M  V30 4779 C 432.54 -3.24472 3.55347 0
M  V30 4780 C 434.892 -3.21207 4.10458 0
M  V30 4781 C 432.22 -3.21532 4.90748 0
M  V30 4782 C 434.572 -3.19808 5.45807 0
M  V30 4783 C 433.236 -3.19439 5.86102 0
M  V30 4784 H 432.506 -0.640914 0.3719 0
M  V30 4785 H 435.153 -1.19071 1.49981 0
M  V30 4786 H 433.458 -3.76457 1.08571 0
M  V30 4787 H 435.155 -3.72871 1.4754 0
M  V30 4788 H 431.745 -3.2285 2.81897 0
M  V30 4789 H 435.929 -3.19351 3.79906 0
M  V30 4790 H 431.185 -3.19578 5.21229 0
M  V30 4791 H 435.359 -3.1726 6.19935 0
M  V30 4792 H 432.986 -3.16915 6.90991 0
M  V30 4793 N 434.561 -1.01147 -1.20859 0
M  V30 4794 C 435.977 -0.725422 -1.42161 0
M  V30 4795 C 436.177 0.696919 -1.89064 0
M  V30 4796 O 435.233 1.46539 -2.05627 0
M  V30 4797 C 436.546 -1.74678 -2.44761 0
M  V30 4798 C 438.094 -1.76433 -2.58535 0
M  V30 4799 C 438.569 -2.77481 -3.64374 0
M  V30 4800 N 440.06 -2.76189 -3.71852 0
M  V30 4801 C 440.795 -3.51035 -4.53389 0
M  V30 4802 N 440.291 -4.35541 -5.38773 0
M  V30 4803 N 442.084 -3.39655 -4.47873 0
M  V30 4804 H 434.235 -1.92979 -0.887282 0
M  V30 4805 H 436.498 -0.833327 -0.451962 0
M  V30 4806 H 436.204 -2.76551 -2.17285 0
M  V30 4807 H 436.078 -1.55472 -3.43669 0
M  V30 4808 H 438.465 -0.75248 -2.85345 0
M  V30 4809 H 438.546 -1.99712 -1.5984 0
M  V30 4810 H 438.19 -3.78827 -3.38308 0
M  V30 4811 H 438.12 -2.51466 -4.6268 0
M  V30 4812 H 440.611 -2.14885 -3.10858 0
M  V30 4813 H 440.924 -4.89432 -5.98061 0
M  V30 4814 H 439.269 -4.39621 -5.38292 0
M  V30 4815 H 442.46 -2.73063 -3.80203 0
M  V30 4816 H 442.633 -3.9824 -5.11184 0
M  V30 4817 N 436.039 1.36541 -0.78704 0
M  V30 4818 C 437.455 1.52571 -0.46844 0
M  V30 4819 C 437.655 1.7415 1.01361 0
M  V30 4820 O 436.711 1.77163 1.79915 0
M  V30 4821 C 438.024 2.71299 -1.29682 0
M  V30 4822 C 439.572 2.85169 -1.29027 0
M  V30 4823 C 440.047 4.06898 -2.10233 0
M  V30 4824 N 441.538 4.1404 -2.07666 0
M  V30 4825 C 442.273 5.07301 -2.67271 0
M  V30 4826 N 441.769 6.06021 -3.35724 0
M  V30 4827 N 443.562 4.99898 -2.57018 0
M  V30 4828 H 435.713 1.20788 -1.74711 0
M  V30 4829 H 437.976 0.589364 -0.742532 0
M  V30 4830 H 437.682 2.61868 -2.34773 0
M  V30 4831 H 437.556 3.6539 -0.936479 0
M  V30 4832 H 439.943 2.94062 -0.247284 0
M  V30 4833 H 440.024 1.91992 -1.69035 0
M  V30 4834 H 439.668 3.98766 -3.1456 0
M  V30 4835 H 439.598 4.99218 -1.67597 0
M  V30 4836 H 442.089 3.43357 -1.57843 0
M  V30 4837 H 442.402 6.73741 -3.78541 0
M  V30 4838 H 440.747 6.06253 -3.39826 0
M  V30 4839 H 443.938 4.21724 -2.03142 0
M  V30 4840 H 444.111 5.72392 -3.03761 0
M  V30 4841 N 437.518 0.538854 1.48102 0
M  V30 4842 C 438.481 -0.208395 2.28251 0
M  V30 4843 C 439.481 -0.859656 1.35892 0
M  V30 4844 O 440.671 -0.71834 1.58699 0
M  V30 4845 C 437.803 -1.30252 3.15035 0
M  V30 4846 H 438.996 0.495407 2.9578 0
M  V30 4847 H 436.549 0.295112 1.53489 0
M  V30 4848 H 437.284 -2.0393 2.52157 0
M  V30 4849 H 437.069 -0.840551 3.82985 0
M  V30 4850 H 438.559 -1.82787 3.75471 0
M  V30 4851 N 438.996 -1.55193 0.274407 0
M  V30 4852 C 439.929 -2.18606 -0.654712 0
M  V30 4853 C 440.907 -1.14677 -1.15273 0
M  V30 4854 O 442.091 -1.43198 -1.22583 0
M  V30 4855 C 439.218 -2.80875 -1.89281 0
M  V30 4856 C 438.264 -3.981 -1.53032 0
M  V30 4857 S 439.097 -5.32025 -0.609107 0
M  V30 4858 C 440.253 -5.97761 -1.85559 0
M  V30 4859 H 440.486 -2.97074 -0.115894 0
M  V30 4860 H 438.019 -1.54288 0.05867 0
M  V30 4861 H 439.977 -3.17381 -2.60345 0
M  V30 4862 H 438.638 -2.02302 -2.40277 0
M  V30 4863 H 437.831 -4.40356 -2.45158 0
M  V30 4864 H 437.433 -3.63013 -0.899874 0
M  V30 4865 H 439.725 -6.16951 -2.7996 0
M  V30 4866 H 440.668 -6.92545 -1.47605 0
M  V30 4867 H 441.076 -5.27113 -2.02021 0
M  V30 4868 N 440.474 -0.00167713 -1.576 0
M  V30 4869 C 441.437 0.974046 -2.07473 0
M  V30 4870 C 442.437 1.27143 -0.984444 0
M  V30 4871 O 443.627 1.21633 -1.24703 0
M  V30 4872 C 440.759 2.29849 -2.51759 0
M  V30 4873 H 441.952 0.54262 -2.9495 0
M  V30 4874 H 439.505 0.245829 -1.54355 0
M  V30 4875 H 440.24 2.77677 -1.67529 0
M  V30 4876 H 440.025 2.09584 -3.31386 0
M  V30 4877 H 441.515 2.9984 -2.90664 0
M  V30 4878 N 441.952 1.55251 0.271103 0
M  V30 4879 C 443.182 1.79713 1.01916 0
M  V30 4880 C 443.59 0.571613 1.80359 0
M  V30 4881 O 442.933 -0.468853 1.77616 0
M  V30 4882 C 442.995 2.97138 2.02359 0
M  V30 4883 C 442.659 4.34104 1.42837 0
M  V30 4884 C 443.656 5.13019 0.843071 0
M  V30 4885 C 441.341 4.80765 1.455 0
M  V30 4886 C 443.335 6.36729 0.292333 0
M  V30 4887 C 441.022 6.0443 0.900402 0
M  V30 4888 C 442.02 6.8225 0.32007 0
M  V30 4889 O 441.708 8.03582 -0.226031 0
M  V30 4890 H 441.44 0.602431 0.306681 0
M  V30 4891 H 443.994 2.03097 0.306701 0
M  V30 4892 H 442.224 2.6945 2.77369 0
M  V30 4893 H 443.913 3.08907 2.63309 0
M  V30 4894 H 444.679 4.781 0.815178 0
M  V30 4895 H 440.558 4.20202 1.89609 0
M  V30 4896 H 444.102 6.97414 -0.161274 0
M  V30 4897 H 439.999 6.3883 0.925541 0
M  V30 4898 H 440.767 8.18418 -0.115572 0
M  V30 4899 N 443.43 -0.535701 1.48216 0
M  V30 4900 C 444.393 -1.623 1.61838 0
M  V30 4901 C 445.393 -1.53087 0.492024 0
M  V30 4902 O 446.583 -1.5686 0.757668 0
M  V30 4903 C 443.715 -3.01907 1.58319 0
M  V30 4904 H 444.908 -1.51564 2.58783 0
M  V30 4905 H 442.461 -0.757317 1.36727 0
M  V30 4906 H 443.196 -3.18155 0.628299 0
M  V30 4907 H 442.981 -3.10003 2.40085 0
M  V30 4908 H 444.471 -3.80969 1.71033 0
M  V30 4909 N 444.908 -1.36708 -0.784132 0
M  V30 4910 C 446.157 -1.30559 -1.53744 0
M  V30 4911 C 446.47 0.111374 -1.95283 0
M  V30 4912 O 447.676 0.29527 -2.6989 0
M  V30 4913 C 446.132 -2.29098 -2.77565 0
M  V30 4914 C 445.74 -3.76258 -2.43174 0
M  V30 4915 C 447.484 -2.31936 -3.55536 0
M  V30 4916 C 445.391 -4.6656 -3.63422 0
M  V30 4917 H 444.321 -0.48518 -0.577162 0
M  V30 4918 H 446.972 -1.62101 -0.859981 0
M  V30 4919 H 445.354 -1.90557 -3.47137 0
M  V30 4920 H 446.528 -4.23565 -1.81465 0
M  V30 4921 H 444.843 -3.76246 -1.78403 0
M  V30 4922 H 447.44 -2.9661 -4.44889 0
M  V30 4923 H 447.783 -1.3294 -3.94503 0
M  V30 4924 H 448.316 -2.6912 -2.92949 0
M  V30 4925 H 445.055 -5.66638 -3.29547 0
M  V30 4926 H 444.575 -4.23966 -4.24279 0
M  V30 4927 H 446.254 -4.8309 -4.30387 0
M  V30 4928 N 446.386 1.0089 -1.21074 0
M  V30 4929 C 447.334 2.11707 -0.963476 0
M  V30 4930 C 448.328 1.69172 0.0879032 0
M  V30 4931 O 449.534 1.79889 -0.0631415 0
M  V30 4932 H 445.909 0.692026 -0.294287 0
M  V30 4933 H 447.88 2.29743 -1.90422 0
M  V30 4934 C 446.629 3.43473 -0.540509 0
M  V30 4935 H 445.952 3.76634 -1.34114 0
M  V30 4936 H 447.392 4.22044 -0.406777 0
M  V30 4937 C 445.851 3.2849 0.748079 0
M  V30 4938 O 446.381 3.58883 1.8046 0
M  V30 4939 N 444.587 2.81715 0.713081 0
M  V30 4940 H 444.134 2.5718 -0.146973 0
M  V30 4941 H 444.092 2.72071 1.57558 0
M  V30 4942 N 447.864 1.01787 1.20321 0
M  V30 4943 C 449.275 0.739307 1.71438 0
M  V30 4944 C 449.626 -0.742041 1.81627 0
M  V30 4945 O 448.751 -1.57903 1.47971 0
M  V30 4946 C 449.346 1.33538 3.11373 0
M  V30 4947 C 447.905 1.10566 3.59795 0
M  V30 4948 C 447.052 1.44028 2.36962 0
M  V30 4949 H 450.003 1.18718 1.05317 0
M  V30 4950 H 450.024 0.726611 3.73498 0
M  V30 4951 H 449.536 2.41352 3.03926 0
M  V30 4952 H 447.637 0.0452405 3.72573 0
M  V30 4953 H 447.75 1.78661 4.44542 0
M  V30 4954 H 446.114 0.85933 2.39766 0
M  V30 4955 H 446.897 2.52901 2.32155 0
M  V30 4956 N 449.342 -1.36122 0.79427 0
M  V30 4957 C 450.252 -2.33769 0.197296 0
M  V30 4958 C 451.268 -1.61276 -0.653153 0
M  V30 4959 O 452.444 -1.9323 -0.5678 0
M  V30 4960 C 449.509 -3.40474 -0.654098 0
M  V30 4961 C 448.57 -4.28759 0.215411 0
M  V30 4962 C 447.803 -5.30368 -0.595443 0
M  V30 4963 O 448.026 -5.40211 -1.83107 0
M  V30 4964 O 446.96 -6.019 0.00721351 0
M  V30 4965 H 450.786 -2.86597 1.00478 0
M  V30 4966 H 448.371 -1.38676 0.555818 0
M  V30 4967 H 450.253 -4.05703 -1.13944 0
M  V30 4968 H 448.928 -2.89937 -1.43938 0
M  V30 4969 H 447.835 -3.66554 0.747615 0
M  V30 4970 H 449.168 -4.82661 0.964332 0
M  V30 4971 N 450.82 -0.546701 -1.47814 0
M  V30 4972 C 451.767 0.206854 -2.29871 0
M  V30 4973 C 452.737 0.918235 -1.38411 0
M  V30 4974 O 453.922 0.915991 -1.67375 0
M  V30 4975 C 451.062 1.23746 -3.22151 0
M  V30 4976 C 450.175 0.533216 -4.28697 0
M  V30 4977 C 449.31 1.5482 -5.08138 0
M  V30 4978 C 448.349 0.828347 -6.06469 0
M  V30 4979 N 447.486 1.78966 -6.78908 0
M  V30 4980 H 452.326 -0.499037 -2.93792 0
M  V30 4981 H 449.863 -0.25793 -1.44821 0
M  V30 4982 H 451.821 1.84746 -3.74065 0
M  V30 4983 H 450.451 1.91151 -2.60117 0
M  V30 4984 H 449.503 -0.191089 -3.7992 0
M  V30 4985 H 450.815 -0.0311987 -4.9879 0
M  V30 4986 H 449.969 2.23202 -5.6415 0
M  V30 4987 H 448.708 2.14652 -4.37922 0
M  V30 4988 H 447.713 0.130539 -5.49645 0
M  V30 4989 H 448.938 0.235907 -6.7869 0
M  V30 4990 H 446.884 2.37675 -6.1143 0
M  V30 4991 H 446.801 1.27712 -7.45135 0
M  V30 4992 H 448.069 2.46496 -7.395 0
M  V30 4993 N 452.299 1.55045 -0.282633 0
M  V30 4994 C 453.548 1.98938 0.332667 0
M  V30 4995 C 453.861 1.17455 1.56409 0
M  V30 4996 O 455.067 1.51527 2.25282 0
M  V30 4997 C 453.523 3.54105 0.643226 0
M  V30 4998 C 453.131 4.44374 -0.568814 0
M  V30 4999 C 454.875 4.06569 1.22074 0
M  V30 5000 C 452.782 5.90943 -0.232426 0
M  V30 5001 H 451.712 0.743043 0.128075 0
M  V30 5002 H 454.363 1.79341 -0.388464 0
M  V30 5003 H 452.745 3.69532 1.42346 0
M  V30 5004 H 453.919 4.40718 -1.34551 0
M  V30 5005 H 452.234 4.02585 -1.06369 0
M  V30 5006 H 454.831 5.13626 1.48635 0
M  V30 5007 H 455.174 3.56057 2.15707 0
M  V30 5008 H 455.707 3.94612 0.502621 0
M  V30 5009 H 452.446 6.45567 -1.13683 0
M  V30 5010 H 451.966 5.9765 0.507357 0
M  V30 5011 H 453.645 6.4677 0.172657 0
M  V30 5012 N 453.777 0.010035 1.57597 0
M  V30 5013 C 455.023 -0.673697 1.91283 0
M  V30 5014 C 455.356 -1.72863 0.884979 0
M  V30 5015 O 454.631 -1.94268 -0.0949487 0
M  V30 5016 C 454.914 -1.30766 3.35518 0
M  V30 5017 C 454.767 -0.263578 4.49027 0
M  V30 5018 C 456.086 -2.23105 3.79358 0
M  V30 5019 H 453.205 -0.243439 0.695634 0
M  V30 5020 H 455.847 0.0633864 1.89894 0
M  V30 5021 H 453.997 -1.93588 3.36832 0
M  V30 5022 H 455.669 0.365738 4.59848 0
M  V30 5023 H 453.912 0.413077 4.31829 0
M  V30 5024 H 454.583 -0.746398 5.4693 0
M  V30 5025 H 457.059 -1.70289 3.79659 0
M  V30 5026 H 455.935 -2.64424 4.81011 0
M  V30 5027 H 456.196 -3.11433 3.13787 0
M  V30 5028 N 455.255 -1.55392 -0.262866 0
M  V30 5029 C 456.483 -1.80513 -1.01108 0
M  V30 5030 C 456.898 -0.583533 -1.79556 0
M  V30 5031 O 456.255 0.447585 -1.76926 0
M  V30 5032 C 456.306 -3.03648 -1.96164 0
M  V30 5033 O 456.027 -4.2109 -1.20893 0
M  V30 5034 C 457.528 -3.41448 -2.82715 0
M  V30 5035 H 454.748 -0.601079 -0.298236 0
M  V30 5036 H 457.292 -2.02425 -0.290582 0
M  V30 5037 H 455.447 -2.83832 -2.63663 0
M  V30 5038 H 455.861 -4.90771 -1.85051 0
M  V30 5039 H 457.335 -4.30751 -3.45192 0
M  V30 5040 H 457.812 -2.61308 -3.53008 0
M  V30 5041 H 458.418 -3.63559 -2.20693 0
M  V30 5042 N 456.733 0.527833 -1.48498 0
M  V30 5043 C 458.149 0.856571 -1.34666 0
M  V30 5044 C 458.349 1.98271 -0.35931 0
M  V30 5045 O 457.405 2.51551 0.218703 0
M  V30 5046 C 458.718 1.22207 -2.74747 0
M  V30 5047 C 460.266 1.33183 -2.83251 0
M  V30 5048 C 460.741 1.73075 -4.24039 0
M  V30 5049 N 462.232 1.80174 -4.26722 0
M  V30 5050 C 462.967 2.1243 -5.32598 0
M  V30 5051 N 462.463 2.43096 -6.4875 0
M  V30 5052 N 464.256 2.13454 -5.19994 0
M  V30 5053 H 456.407 -0.215174 -2.11307 0
M  V30 5054 H 458.67 -0.0336281 -0.947403 0
M  V30 5055 H 458.376 0.468195 -3.4857 0
M  V30 5056 H 458.25 2.17173 -3.08409 0
M  V30 5057 H 460.637 2.07647 -2.09683 0
M  V30 5058 H 460.718 0.363333 -2.53206 0
M  V30 5059 H 460.362 0.991712 -4.98124 0
M  V30 5060 H 460.292 2.70979 -4.51529 0
M  V30 5061 H 462.783 1.58744 -3.42942 0
M  V30 5062 H 463.096 2.6682 -7.25277 0
M  V30 5063 H 461.441 2.40611 -6.52021 0
M  V30 5064 H 464.632 1.88956 -4.28268 0
M  V30 5065 H 464.805 2.38261 -6.02608 0
M  V30 5066 N 458.211 1.37122 0.776871 0
M  V30 5067 C 459.174 1.32301 1.8716 0
M  V30 5068 C 460.174 0.228099 1.59174 0
M  V30 5069 O 461.364 0.483642 1.67352 0
M  V30 5070 C 458.496 1.054 3.24197 0
M  V30 5071 H 459.689 2.29673 1.92848 0
M  V30 5072 H 457.242 1.22077 0.97606 0
M  V30 5073 H 457.977 0.0853872 3.24188 0
M  V30 5074 H 457.762 1.84648 3.45901 0
M  V30 5075 H 459.252 1.04664 4.04271 0
M  V30 5076 N 459.689 -1.00246 1.21608 0
M  V30 5077 C 460.919 -1.77373 1.05935 0
M  V30 5078 C 461.327 -1.85059 -0.393686 0
M  V30 5079 O 460.67 -1.31289 -1.28487 0
M  V30 5080 C 460.732 -3.22705 1.58435 0
M  V30 5081 C 460.396 -3.38591 3.06929 0
M  V30 5082 C 461.393 -3.2667 4.04454 0
M  V30 5083 C 459.078 -3.6395 3.46187 0
M  V30 5084 C 461.072 -3.39877 5.39224 0
M  V30 5085 C 458.759 -3.768 4.81108 0
M  V30 5086 C 459.757 -3.6477 5.77436 0
M  V30 5087 O 459.445 -3.77206 7.09909 0
M  V30 5088 H 459.177 -0.56419 0.372378 0
M  V30 5089 H 461.731 -1.26971 1.61454 0
M  V30 5090 H 459.961 -3.74255 0.973147 0
M  V30 5091 H 461.65 -3.81515 1.38568 0
M  V30 5092 H 462.416 -3.06999 3.75468 0
M  V30 5093 H 458.295 -3.72395 2.71741 0
M  V30 5094 H 461.839 -3.30404 6.14393 0
M  V30 5095 H 457.736 -3.95975 5.09779 0
M  V30 5096 H 458.504 -3.94138 7.17355 0
M  V30 5097 N 461.167 -1.02423 -1.1978 0
M  V30 5098 C 462.077 -0.610919 -2.26506 0
M  V30 5099 C 463.093 0.355152 -1.70337 0
M  V30 5100 O 464.269 0.214195 -2.00258 0
M  V30 5101 C 461.334 0.0365921 -3.46681 0
M  V30 5102 C 460.395 -0.976389 -4.18049 0
M  V30 5103 C 459.628 -0.359683 -5.32487 0
M  V30 5104 O 459.851 0.838601 -5.64202 0
M  V30 5105 O 458.785 -1.08022 -5.92127 0
M  V30 5106 H 462.611 -1.49965 -2.64091 0
M  V30 5107 H 460.196 -0.794156 -1.26545 0
M  V30 5108 H 462.078 0.39786 -4.19518 0
M  V30 5109 H 460.753 0.899398 -3.10954 0
M  V30 5110 H 459.66 -1.38916 -3.47352 0
M  V30 5111 H 460.993 -1.80941 -4.57735 0
M  V30 5112 N 462.645 1.35699 -0.801477 0
M  V30 5113 C 463.593 2.3177 -0.196317 0
M  V30 5114 C 464.587 1.56388 0.651081 0
M  V30 5115 O 465.793 1.71557 0.544815 0
M  V30 5116 H 462.168 0.750669 -0.0447189 0
M  V30 5117 H 464.139 2.8036 -1.02181 0
M  V30 5118 C 462.888 3.41671 0.644702 0
M  V30 5119 H 462.211 3.998 0.0019921 0
M  V30 5120 H 463.651 4.11184 1.0346 0
M  V30 5121 C 462.11 2.84271 1.80808 0
M  V30 5122 O 462.64 2.77408 2.9053 0
M  V30 5123 N 460.846 2.41391 1.61799 0
M  V30 5124 H 460.393 2.47173 0.725493 0
M  V30 5125 H 460.351 2.03334 2.39797 0
M  V30 5126 N 464.123 0.554532 1.47522 0
M  V30 5127 C 465.056 -0.242442 2.26908 0
M  V30 5128 C 466.034 -0.922722 1.33883 0
M  V30 5129 O 467.218 -0.942244 1.63261 0
M  V30 5130 C 464.345 -1.34525 3.10839 0
M  V30 5131 C 463.391 -0.773805 4.19422 0
M  V30 5132 S 464.224 0.377525 5.34168 0
M  V30 5133 C 465.38 -0.727164 6.21662 0
M  V30 5134 H 465.613 0.431218 2.94156 0
M  V30 5135 H 463.146 0.3408 1.50592 0
M  V30 5136 H 465.104 -1.97683 3.59766 0
M  V30 5137 H 463.765 -1.99073 2.42958 0
M  V30 5138 H 462.958 -1.60187 4.77866 0
M  V30 5139 H 462.56 -0.218448 3.73361 0
M  V30 5140 H 464.852 -1.61992 6.57849 0
M  V30 5141 H 465.795 -0.180135 7.07871 0
M  V30 5142 H 466.203 -1.01863 5.55233 0
M  V30 5143 N 465.601 -1.54893 0.290851 0
M  V30 5144 C 466.847 -2.0023 -0.321867 0
M  V30 5145 C 467.18 -1.179 -1.54316 0
M  V30 5146 O 466.455 -0.25293 -1.92848 0
M  V30 5147 C 466.738 -3.53456 -0.688515 0
M  V30 5148 C 466.591 -4.46532 0.541209 0
M  V30 5149 C 467.91 -4.13057 -1.51895 0
M  V30 5150 H 465.029 -0.727891 -0.115515 0
M  V30 5151 H 467.671 -1.85722 0.400931 0
M  V30 5152 H 465.821 -3.6595 -1.30433 0
M  V30 5153 H 467.493 -4.4596 1.17973 0
M  V30 5154 H 465.736 -4.17545 1.17636 0
M  V30 5155 H 466.407 -5.51475 0.240675 0
M  V30 5156 H 468.883 -4.03937 -0.99872 0
M  V30 5157 H 467.759 -5.20448 -1.74429 0
M  V30 5158 H 468.02 -3.64284 -2.50498 0
M  V30 5159 N 467.08 -0.0183926 -1.57589 0
M  V30 5160 C 468.308 0.673046 -1.95647 0
M  V30 5161 C 468.723 1.66275 -0.894312 0
M  V30 5162 O 468.08 1.82072 0.124975 0
M  V30 5163 C 468.131 1.38884 -3.33756 0
M  V30 5164 O 467.852 0.438806 -4.35897 0
M  V30 5165 C 469.353 2.1731 -3.86383 0
M  V30 5166 H 466.573 0.186292 -0.644621 0
M  V30 5167 H 469.117 -0.0749748 -2.04363 0
M  V30 5168 H 467.272 2.08835 -3.26293 0
M  V30 5169 H 467.686 0.945869 -5.15901 0
M  V30 5170 H 469.16 2.62863 -4.85394 0
M  V30 5171 H 469.637 3.00764 -3.20059 0
M  V30 5172 H 470.243 1.52339 -3.97081 0
M  V30 5173 N 468.558 1.5553 0.254621 0
M  V30 5174 C 469.521 1.88872 1.29846 0
M  V30 5175 C 470.521 0.764591 1.41459 0
M  V30 5176 O 471.711 1.03265 1.40293 0
M  V30 5177 C 468.843 2.11032 2.67728 0
M  V30 5178 H 470.036 2.82201 1.01502 0
M  V30 5179 H 467.589 1.48303 0.493556 0
M  V30 5180 H 468.324 1.20146 3.01223 0
M  V30 5181 H 468.109 2.92895 2.60682 0
M  V30 5182 H 469.599 2.38038 3.43115 0
M  V30 5183 N 470.036 -0.519951 1.48776 0
M  V30 5184 C 470.999 -1.60574 1.6355 0
M  V30 5185 C 471.999 -1.52557 0.508234 0
M  V30 5186 O 473.189 -1.56047 0.774262 0
M  V30 5187 C 470.321 -3.00211 1.61512 0
M  V30 5188 H 471.514 -1.4881 2.60376 0
M  V30 5189 H 469.067 -0.742772 1.37523 0
M  V30 5190 H 469.802 -3.17471 0.662009 0
M  V30 5191 H 469.587 -3.07439 2.43359 0
M  V30 5192 H 471.077 -3.79134 1.75064 0
M  V30 5193 N 471.514 -1.37532 -0.769588 0
M  V30 5194 C 472.462 -1.33561 -1.90432 0
M  V30 5195 C 473.456 -0.224027 -1.67912 0
M  V30 5196 O 474.662 -0.392174 -1.75676 0
M  V30 5197 H 471.037 -0.416279 -0.626271 0
M  V30 5198 H 473.008 -2.29348 -1.90899 0
M  V30 5199 C 471.757 -1.16162 -3.27722 0
M  V30 5200 H 471.08 -2.00951 -3.45628 0
M  V30 5201 H 472.52 -1.17434 -4.07413 0
M  V30 5202 C 470.979 0.132583 -3.36639 0
M  V30 5203 O 471.509 1.11539 -3.85904 0
M  V30 5204 N 469.715 0.184013 -2.90017 0
M  V30 5205 H 469.262 -0.616415 -2.50116 0
M  V30 5206 H 469.22 1.04956 -2.96364 0
M  V30 5207 N 472.992 0.995999 -1.22138 0
M  V30 5208 C 474.403 1.54961 -1.04135 0
M  V30 5209 C 474.754 1.92159 0.396147 0
M  V30 5210 O 473.879 1.74435 1.28069 0
M  V30 5211 C 474.474 2.81581 -1.88408 0
M  V30 5212 C 473.033 3.33396 -1.74712 0
M  V30 5213 C 472.18 2.06509 -1.85066 0
M  V30 5214 H 475.131 0.817436 -1.36028 0
M  V30 5215 H 475.152 3.53822 -1.39966 0
M  V30 5216 H 474.664 2.54476 -2.93025 0
M  V30 5217 H 472.765 3.65416 -0.728159 0
M  V30 5218 H 472.878 4.04208 -2.57202 0
M  V30 5219 H 471.242 2.19925 -1.28472 0
M  V30 5220 H 472.025 1.81804 -2.91208 0
M  V30 5221 N 474.47 1.03057 1.19235 0
M  V30 5222 C 475.433 0.617418 2.20727 0
M  V30 5223 C 476.433 -0.319856 1.57587 0
M  V30 5224 O 477.623 -0.106633 1.73873 0
M  V30 5225 C 474.755 -0.096296 3.40764 0
M  V30 5226 H 475.948 1.51544 2.58794 0
M  V30 5227 H 473.501 0.821949 1.32942 0
M  V30 5228 H 474.236 -1.00859 3.08217 0
M  V30 5229 H 474.021 0.577217 3.87828 0
M  V30 5230 H 475.511 -0.372219 4.15938 0
M  V30 5231 N 475.948 -1.35272 0.808662 0
M  V30 5232 C 477.196 -1.98316 0.389233 0
M  V30 5233 C 477.517 -1.64465 -1.04767 0
M  V30 5234 O 476.787 -0.928175 -1.72516 0
M  V30 5235 H 475.367 -0.733585 0.140935 0
M  V30 5236 H 478.029 -1.6515 1.03496 0
M  V30 5237 H 477.125 -3.08123 0.496631 0
M  V30 5238 N 477.426 -0.562348 -1.47226 0
M  V30 5239 C 478.675 -0.038041 -2.01664 0
M  V30 5240 C 478.988 1.32199 -1.44162 0
M  V30 5241 O 480.194 1.9365 -1.90294 0
M  V30 5242 C 478.65 -0.0174958 -3.59896 0
M  V30 5243 C 478.258 -1.3746 -4.2639 0
M  V30 5244 C 480.002 0.453934 -4.22066 0
M  V30 5245 C 477.909 -1.31289 -5.76643 0
M  V30 5246 H 476.839 -0.0104511 -0.753928 0
M  V30 5247 H 479.49 -0.710966 -1.69167 0
M  V30 5248 H 477.872 0.721182 -3.89378 0
M  V30 5249 H 479.046 -2.1314 -4.08544 0
M  V30 5250 H 477.361 -1.78438 -3.7623 0
M  V30 5251 H 479.958 0.518584 -5.32179 0
M  V30 5252 H 480.301 1.46706 -3.89594 0
M  V30 5253 H 480.834 -0.230044 -3.97134 0
M  V30 5254 H 477.573 -2.30217 -6.13743 0
M  V30 5255 H 477.093 -0.597973 -5.96812 0
M  V30 5256 H 478.772 -1.01713 -6.38955 0
M  V30 5257 N 478.904 1.54736 -0.299062 0
M  V30 5258 C 479.834 2.26409 0.571085 0
M  V30 5259 C 480.815 1.2629 1.13951 0
M  V30 5260 O 482 1.55059 1.16921 0
M  V30 5261 C 479.13 3.00338 1.74396 0
M  V30 5262 C 478.084 4.07588 1.30599 0
M  V30 5263 C 477.41 4.69222 2.56387 0
M  V30 5264 C 478.71 5.20455 0.438645 0
M  V30 5265 H 480.404 2.99388 -0.0266991 0
M  V30 5266 H 477.95 1.43993 -0.0142812 0
M  V30 5267 H 479.903 3.49198 2.35878 0
M  V30 5268 H 478.627 2.24934 2.36796 0
M  V30 5269 H 477.286 3.59575 0.71424 0
M  V30 5270 H 476.934 3.9046 3.17097 0
M  V30 5271 H 476.634 5.41653 2.27784 0
M  V30 5272 H 478.158 5.20844 3.18675 0
M  V30 5273 H 479.572 5.65221 0.959085 0
M  V30 5274 H 477.969 5.99594 0.246466 0
M  V30 5275 H 479.039 4.8192 -0.536738 0
M  V30 5276 N 480.382 0.0267497 1.57577 0
M  V30 5277 C 481.793 -0.512413 1.79531 0
M  V30 5278 C 482.144 -1.72391 0.936791 0
M  V30 5279 O 481.269 -2.15903 0.146543 0
M  V30 5280 C 481.864 -0.936378 3.25603 0
M  V30 5281 C 480.423 -1.42067 3.4856 0
M  V30 5282 C 479.57 -0.384278 2.74624 0
M  V30 5283 H 482.521 0.252797 1.56674 0
M  V30 5284 H 482.542 -1.80088 3.35184 0
M  V30 5285 H 482.054 -0.0544332 3.88062 0
M  V30 5286 H 480.155 -2.32262 2.9135 0
M  V30 5287 H 480.268 -1.42968 4.57271 0
M  V30 5288 H 478.632 -0.851855 2.40032 0
M  V30 5289 H 479.415 0.489159 3.39797 0
M  V30 5290 N 481.861 -1.55662 -0.24637 0
M  V30 5291 C 482.791 -1.93377 -1.30873 0
M  V30 5292 C 483.772 -0.798773 -1.50179 0
M  V30 5293 O 484.957 -1.0591 -1.62778 0
M  V30 5294 C 482.087 -2.22893 -2.66338 0
M  V30 5295 C 481.041 -3.38649 -2.61727 0
M  V30 5296 C 480.367 -3.53708 -4.00992 0
M  V30 5297 C 481.667 -4.74323 -2.18666 0
M  V30 5298 H 483.361 -2.82363 -0.995552 0
M  V30 5299 H 480.907 -1.35854 -0.477464 0
M  V30 5300 H 482.86 -2.47866 -3.40794 0
M  V30 5301 H 481.584 -1.30733 -2.99293 0
M  V30 5302 H 480.243 -3.13685 -1.89729 0
M  V30 5303 H 479.891 -2.58967 -4.31214 0
M  V30 5304 H 479.591 -4.31551 -3.98795 0
M  V30 5305 H 481.115 -3.81003 -4.77147 0
M  V30 5306 H 482.529 -4.98665 -2.82854 0
M  V30 5307 H 480.926 -5.55273 -2.27579 0
M  V30 5308 H 481.996 -4.71349 -1.13834 0
M  V30 5309 N 483.339 0.512053 -1.4905 0
M  V30 5310 C 484.75 1.09376 -1.51307 0
M  V30 5311 C 485.101 1.94 -0.292971 0
M  V30 5312 O 484.226 2.07965 0.598277 0
M  V30 5313 C 484.821 1.99031 -2.74176 0
M  V30 5314 C 483.38 2.52385 -2.79247 0
M  V30 5315 C 482.527 1.29749 -2.45073 0
M  V30 5316 H 485.478 0.296467 -1.55906 0
M  V30 5317 H 485.499 2.83569 -2.53711 0
M  V30 5318 H 485.011 1.37412 -3.62959 0
M  V30 5319 H 483.112 3.17673 -1.94716 0
M  V30 5320 H 483.225 2.90293 -3.81139 0
M  V30 5321 H 481.589 1.61912 -1.96612 0
M  V30 5322 H 482.372 0.698555 -3.36118 0
M  V30 5323 N 484.817 1.37938 0.762283 0
M  V30 5324 C 486.065 1.33404 1.51815 0
M  V30 5325 C 486.386 -0.0780975 1.94844 0
M  V30 5326 O 485.656 -1.02405 1.67003 0
M  V30 5327 H 484.236 0.490839 0.563104 0
M  V30 5328 H 486.898 1.72527 0.906669 0
M  V30 5329 H 485.994 1.97926 2.41313 0
M  V30 5330 N 486.295 -0.989507 1.22664 0
M  V30 5331 C 487.525 -1.7624 1.0781 0
M  V30 5332 C 487.933 -1.85466 -0.374036 0
M  V30 5333 O 487.276 -1.32645 -1.27087 0
M  V30 5334 C 487.338 -3.21007 1.61849 0
M  V30 5335 C 487.002 -3.35316 3.10503 0
M  V30 5336 C 487.999 -3.22362 4.07896 0
M  V30 5337 C 485.684 -3.60258 3.50028 0
M  V30 5338 C 487.678 -3.34139 5.42798 0
M  V30 5339 C 485.365 -3.71676 4.85078 0
M  V30 5340 C 486.363 -3.58625 5.81272 0
M  V30 5341 O 486.051 -3.69655 7.1387 0
M  V30 5342 H 485.783 -0.560209 0.378341 0
M  V30 5343 H 488.337 -1.25252 1.62792 0
M  V30 5344 H 486.567 -3.73202 1.01279 0
M  V30 5345 H 488.256 -3.80024 1.42606 0
M  V30 5346 H 489.022 -3.03 3.78703 0
M  V30 5347 H 484.901 -3.69492 2.75675 0
M  V30 5348 H 488.445 -3.23869 6.17863 0
M  V30 5349 H 484.342 -3.90545 5.1395 0
M  V30 5350 H 485.11 -3.86507 7.21495 0
M  V30 5351 N 487.773 -1.03688 -1.18687 0
M  V30 5352 C 488.706 -0.569112 -2.2099 0
M  V30 5353 C 489.684 0.394315 -1.57746 0
M  V30 5354 O 490.868 0.309519 -1.85941 0
M  V30 5355 C 487.995 0.169104 -3.38278 0
M  V30 5356 C 487.041 -0.746989 -4.19908 0
M  V30 5357 S 487.874 -2.22773 -4.86963 0
M  V30 5358 C 489.03 -1.50025 -6.07654 0
M  V30 5359 H 489.263 -1.43589 -2.60326 0
M  V30 5360 H 486.796 -0.847507 -1.29061 0
M  V30 5361 H 488.754 0.588868 -4.06254 0
M  V30 5362 H 487.415 1.01172 -2.9736 0
M  V30 5363 H 486.608 -0.176626 -5.0369 0
M  V30 5364 H 486.21 -1.10543 -3.5729 0
M  V30 5365 H 488.502 -0.791217 -6.72864 0
M  V30 5366 H 489.445 -2.31498 -6.69189 0
M  V30 5367 H 489.853 -0.994245 -5.55675 0
M  V30 5368 N 489.251 1.34841 -0.815825 0
M  V30 5369 C 490.198 2.29644 -0.230664 0
M  V30 5370 C 491.168 1.53253 0.640533 0
M  V30 5371 O 492.353 1.81653 0.583672 0
M  V30 5372 C 489.493 3.39715 0.607275 0
M  V30 5373 C 488.606 4.31056 -0.28538 0
M  V30 5374 C 487.741 5.28225 0.561446 0
M  V30 5375 C 486.78 6.11204 -0.331035 0
M  V30 5376 N 485.917 7.00483 0.476302 0
M  V30 5377 H 490.757 2.79095 -1.0445 0
M  V30 5378 H 488.294 1.37351 -0.526595 0
M  V30 5379 H 490.252 4.02208 1.10835 0
M  V30 5380 H 488.882 2.91517 1.38629 0
M  V30 5381 H 487.934 3.69487 -0.904621 0
M  V30 5382 H 489.246 4.89239 -0.97193 0
M  V30 5383 H 488.4 5.96135 1.12728 0
M  V30 5384 H 487.139 4.70562 1.28153 0
M  V30 5385 H 486.144 5.42232 -0.909069 0
M  V30 5386 H 487.369 6.70947 -1.04912 0
M  V30 5387 H 485.315 6.45296 1.18019 0
M  V30 5388 H 485.232 7.55847 -0.152008 0
M  V30 5389 H 486.5 7.7273 1.02512 0
M  V30 5390 N 490.729 0.570148 1.46925 0
M  V30 5391 C 491.959 0.0561151 2.06524 0
M  V30 5392 C 492.367 -1.24874 1.42137 0
M  V30 5393 O 491.71 -1.76292 0.516417 0
M  V30 5394 C 491.772 -0.197035 3.5896 0
M  V30 5395 C 491.436 1.02033 4.45464 0
M  V30 5396 C 492.433 1.92921 4.82781 0
M  V30 5397 C 490.118 1.23864 4.86788 0
M  V30 5398 C 492.112 3.03999 5.60235 0
M  V30 5399 C 489.799 2.35249 5.64004 0
M  V30 5400 C 490.797 3.25146 6.0064 0
M  V30 5401 O 490.485 4.34598 6.76299 0
M  V30 5402 H 490.217 0.0487409 0.674241 0
M  V30 5403 H 492.771 0.786915 1.89728 0
M  V30 5404 H 491.001 -0.982299 3.74016 0
M  V30 5405 H 492.69 -0.658032 4.00531 0
M  V30 5406 H 493.456 1.77265 4.51444 0
M  V30 5407 H 489.335 0.54805 4.57731 0
M  V30 5408 H 492.879 3.74192 5.8875 0
M  V30 5409 H 488.776 2.50873 5.94755 0
M  V30 5410 H 489.544 4.32808 6.94708 0
M  V30 5411 N 492.207 -1.54576 0.307264 0
M  V30 5412 C 493.437 -2.04378 -0.302158 0
M  V30 5413 C 493.845 -1.18381 -1.47589 0
M  V30 5414 O 493.188 -0.20352 -1.82569 0
M  V30 5415 C 493.25 -3.50133 -0.815305 0
M  V30 5416 C 492.914 -4.56401 0.233977 0
M  V30 5417 C 493.911 -5.08884 1.06456 0
M  V30 5418 C 491.596 -5.0088 0.377478 0
M  V30 5419 C 493.59 -6.04394 2.02452 0
M  V30 5420 C 491.277 -5.96208 1.34088 0
M  V30 5421 C 492.275 -6.47849 2.16288 0
M  V30 5422 O 491.963 -7.41308 3.10994 0
M  V30 5423 H 491.695 -0.672502 -0.0686839 0
M  V30 5424 H 494.249 -2.00484 0.446682 0
M  V30 5425 H 492.479 -3.51371 -1.61478 0
M  V30 5426 H 494.168 -3.83098 -1.34129 0
M  V30 5427 H 494.934 -4.75311 0.964596 0
M  V30 5428 H 490.813 -4.60309 -0.252405 0
M  V30 5429 H 494.357 -6.44626 2.66652 0
M  V30 5430 H 490.254 -6.29198 1.44154 0
M  V30 5431 H 491.022 -7.5913 3.06045 0
M  V30 5432 N 493.685 -0.035106 -1.57561 0
M  V30 5433 C 495.096 0.502885 -1.798 0
M  V30 5434 C 495.447 1.71892 -0.945921 0
M  V30 5435 O 494.572 2.15822 -0.157991 0
M  V30 5436 C 495.167 0.919097 -3.26095 0
M  V30 5437 C 493.726 1.40216 -3.49308 0
M  V30 5438 C 492.873 0.369709 -2.74824 0
M  V30 5439 H 495.824 -0.261102 -1.56537 0
M  V30 5440 H 495.845 1.78308 -3.36135 0
M  V30 5441 H 495.357 0.0338526 -3.88085 0
M  V30 5442 H 493.458 2.30714 -2.92578 0
M  V30 5443 H 493.571 1.40541 -4.58023 0
M  V30 5444 H 491.935 0.839113 -2.40481 0
M  V30 5445 H 492.718 -0.507173 -3.39533 0
M  V30 5446 N 495.163 1.55791 0.238111 0
M  V30 5447 C 496.11 1.9105 1.29493 0
M  V30 5448 C 497.08 0.765733 1.47397 0
M  V30 5449 O 498.265 1.02017 1.61236 0
M  V30 5450 C 495.405 2.21826 2.64362 0
M  V30 5451 C 494.518 3.49153 2.54394 0
M  V30 5452 C 493.653 3.69455 3.81676 0
M  V30 5453 C 492.692 4.90353 3.66361 0
M  V30 5454 N 491.829 5.07131 4.85554 0
M  V30 5455 H 496.669 2.81172 0.987233 0
M  V30 5456 H 494.206 1.39179 0.476203 0
M  V30 5457 H 496.164 2.37675 3.4288 0
M  V30 5458 H 494.794 1.34897 2.93262 0
M  V30 5459 H 493.846 3.41587 1.67399 0
M  V30 5460 H 495.158 4.37818 2.38991 0
M  V30 5461 H 494.312 3.85311 4.68636 0
M  V30 5462 H 493.051 2.7904 3.99985 0
M  V30 5463 H 492.056 4.74464 2.77784 0
M  V30 5464 H 493.281 5.82237 3.49538 0
M  V30 5465 H 491.227 4.19654 5.04209 0
M  V30 5466 H 491.144 5.89899 4.72816 0
M  V30 5467 H 492.412 5.27407 5.73988 0
M  V30 5468 N 496.642 -0.504142 1.49319 0
M  V30 5469 C 497.552 -1.63248 1.68486 0
M  V30 5470 C 498.568 -1.64488 0.567432 0
M  V30 5471 O 499.744 -1.82966 0.841749 0
M  V30 5472 C 496.809 -2.99627 1.74426 0
M  V30 5473 C 495.87 -3.09039 2.97982 0
M  V30 5474 C 495.103 -4.38913 3.0363 0
M  V30 5475 O 495.326 -5.27528 2.16958 0
M  V30 5476 O 494.26 -4.53231 3.96062 0
M  V30 5477 H 498.086 -1.50008 2.64067 0
M  V30 5478 H 495.671 -0.680086 1.33023 0
M  V30 5479 H 497.553 -3.80689 1.80705 0
M  V30 5480 H 496.228 -3.13136 0.820233 0
M  V30 5481 H 495.135 -2.27177 2.97223 0
M  V30 5482 H 496.468 -3.00456 3.89855 0
M  V30 5483 N 498.12 -1.38341 -0.754957 0
M  V30 5484 C 499.366 -1.34672 -1.51628 0
M  V30 5485 C 499.699 0.0636036 -1.94096 0
M  V30 5486 O 498.974 1.0245 -1.6533 0
M  V30 5487 C 499.257 -2.30116 -2.76981 0
M  V30 5488 C 499.11 -3.80003 -2.4066 0
M  V30 5489 C 500.429 -2.23715 -3.78998 0
M  V30 5490 H 497.548 -0.490517 -0.550056 0
M  V30 5491 H 500.19 -1.69178 -0.864807 0
M  V30 5492 H 498.34 -2.00821 -3.3257 0
M  V30 5493 H 500.012 -4.19966 -1.90856 0
M  V30 5494 H 498.255 -3.97751 -1.73137 0
M  V30 5495 H 498.926 -4.42244 -3.30339 0
M  V30 5496 H 501.402 -2.49574 -3.32945 0
M  V30 5497 H 500.278 -2.9261 -4.64403 0
M  V30 5498 H 500.539 -1.23554 -4.24484 0
M  V30 5499 N 499.598 0.982988 -1.23187 0
M  V30 5500 C 500.844 1.72648 -1.06398 0
M  V30 5501 C 501.177 1.90066 0.398561 0
M  V30 5502 O 500.452 1.45105 1.29518 0
M  V30 5503 C 500.735 3.12627 -1.78707 0
M  V30 5504 C 500.588 3.02795 -3.32618 0
M  V30 5505 C 501.907 4.11997 -1.54747 0
M  V30 5506 H 499.026 0.626649 -0.387918 0
M  V30 5507 H 501.668 1.14455 -1.51658 0
M  V30 5508 H 499.818 3.62308 -1.40234 0
M  V30 5509 H 501.49 2.60659 -3.80598 0
M  V30 5510 H 499.733 2.39362 -3.61785 0
M  V30 5511 H 500.404 4.01893 -3.78399 0
M  V30 5512 H 502.88 3.71114 -1.88186 0
M  V30 5513 H 501.756 5.08037 -2.07821 0
M  V30 5514 H 502.017 4.39462 -0.482249 0
M  V30 5515 N 501.076 1.04316 1.18135 0
M  V30 5516 C 502.353 0.662166 1.84051 0
M  V30 5517 C 502.733 -0.858169 1.9287 0
M  V30 5518 O 502.081 -1.76062 1.45652 0
M  V30 5519 C 502.291 1.3409 3.22212 0
M  V30 5520 C 503.639 1.4733 3.9822 0
M  V30 5521 O 504.663 1.29921 3.31661 0
M  V30 5522 O 503.522 1.75722 5.17479 0
M  V30 5523 H 500.616 0.232005 0.79379 0
M  V30 5524 H 503.162 1.1422 1.25506 0
M  V30 5525 H 501.934 2.37853 3.10711 0
M  V30 5526 H 501.557 0.849649 3.88416 0
M  V30 5527 N 502.554 -1.34406 0.822964 0
M  V30 5528 C 503.501 -2.29519 0.24284 0
M  V30 5529 C 504.471 -1.5359 -0.632397 0
M  V30 5530 O 505.656 -1.8196 -0.57403 0
M  V30 5531 C 502.796 -3.40032 -0.58925 0
M  V30 5532 C 501.909 -4.30899 0.308236 0
M  V30 5533 C 501.044 -5.28515 -0.533425 0
M  V30 5534 C 500.083 -6.1102 0.363444 0
M  V30 5535 N 499.22 -7.00725 -0.439147 0
M  V30 5536 H 504.06 -2.78537 1.05929 0
M  V30 5537 H 501.597 -1.3707 0.533872 0
M  V30 5538 H 503.555 -4.0279 -1.087 0
M  V30 5539 H 502.185 -2.92248 -1.37081 0
M  V30 5540 H 501.237 -3.69002 0.924203 0
M  V30 5541 H 502.549 -4.88717 0.997862 0
M  V30 5542 H 501.703 -5.96725 -1.09565 0
M  V30 5543 H 500.442 -4.71235 -1.25656 0
M  V30 5544 H 499.447 -5.41743 0.937812 0
M  V30 5545 H 500.672 -6.70381 1.08469 0
M  V30 5546 H 498.618 -6.45913 -1.14595 0
M  V30 5547 H 498.535 -7.55756 0.19209 0
M  V30 5548 H 499.803 -7.73263 -0.984124 0
M  V30 5549 N 504.032 -0.577932 -1.46621 0
M  V30 5550 C 505.262 -0.0670668 -2.06491 0
M  V30 5551 C 505.67 1.24119 -1.42798 0
M  V30 5552 O 505.013 1.76016 -0.525759 0
M  V30 5553 C 505.075 0.177995 -3.59059 0
M  V30 5554 C 504.739 -1.04394 -4.44917 0
M  V30 5555 C 505.736 -1.95479 -4.81751 0
M  V30 5556 C 503.421 -1.26444 -4.86125 0
M  V30 5557 C 505.415 -3.06965 -5.58615 0
M  V30 5558 C 503.102 -2.38237 -5.62749 0
M  V30 5559 C 504.1 -3.28327 -5.98908 0
M  V30 5560 O 503.788 -4.38179 -6.73984 0
M  V30 5561 H 503.52 -0.0523159 -0.673973 0
M  V30 5562 H 506.074 -0.796966 -1.89308 0
M  V30 5563 H 504.304 0.962451 -3.74531 0
M  V30 5564 H 505.993 0.636782 -4.00874 0
M  V30 5565 H 506.759 -1.79657 -4.50498 0
M  V30 5566 H 502.638 -0.572316 -4.57434 0
M  V30 5567 H 506.182 -3.77309 -5.86757 0
M  V30 5568 H 502.079 -2.54023 -5.93416 0
M  V30 5569 H 502.847 -4.36486 -6.92403 0
M  V30 5570 N 505.51 1.54411 -0.315457 0
M  V30 5571 C 506.758 2.00023 0.288971 0
M  V30 5572 C 507.079 1.20529 1.5329 0
M  V30 5573 O 506.349 0.304986 1.93511 0
M  V30 5574 H 504.929 0.738891 0.109766 0
M  V30 5575 H 507.591 1.90094 -0.430129 0
M  V30 5576 H 506.687 3.07198 0.550999 0
M  V30 5577 N 506.988 0.0434614 1.5754 0
M  V30 5578 C 508.235 -0.632035 1.92384 0
M  V30 5579 C 508.563 -1.71304 0.921157 0
M  V30 5580 O 507.818 -1.95583 -0.067744 0
M  V30 5581 C 508.117 -1.2738 3.3393 0
M  V30 5582 C 507.783 -0.321757 4.49751 0
M  V30 5583 C 506.445 -0.0597611 4.81163 0
M  V30 5584 C 508.797 0.331158 5.20147 0
M  V30 5585 C 506.125 0.862715 5.80322 0
M  V30 5586 C 508.477 1.24178 6.20292 0
M  V30 5587 C 507.141 1.51252 6.50138 0
M  V30 5588 H 506.411 -0.231278 0.703983 0
M  V30 5589 H 509.058 0.108294 1.91194 0
M  V30 5590 H 507.363 -2.08921 3.3145 0
M  V30 5591 H 509.06 -1.80326 3.58167 0
M  V30 5592 H 505.65 -0.53614 4.25233 0
M  V30 5593 H 509.834 0.141826 4.96097 0
M  V30 5594 H 505.09 1.08003 6.01785 0
M  V30 5595 H 509.264 1.75381 6.73954 0
M  V30 5596 H 506.891 2.22897 7.26788 0
M  V30 5597 N 508.466 -1.55915 -0.229846 0
M  V30 5598 C 509.413 -1.91734 -1.28478 0
M  V30 5599 C 510.383 -0.773539 -1.46988 0
M  V30 5600 O 511.568 -1.02871 -1.60693 0
M  V30 5601 C 508.708 -2.23224 -2.63182 0
M  V30 5602 C 507.821 -3.50497 -2.52539 0
M  V30 5603 C 506.956 -3.71474 -3.79711 0
M  V30 5604 C 505.995 -4.92289 -3.63755 0
M  V30 5605 N 505.132 -5.09698 -4.82858 0
M  V30 5606 H 509.972 -2.81692 -0.972308 0
M  V30 5607 H 507.509 -1.39429 -0.468815 0
M  V30 5608 H 509.467 -2.3949 -3.41614 0
M  V30 5609 H 508.097 -1.36451 -2.92542 0
M  V30 5610 H 507.149 -3.4247 -1.65585 0
M  V30 5611 H 508.461 -4.39079 -2.36666 0
M  V30 5612 H 507.615 -3.87791 -4.66586 0
M  V30 5613 H 506.354 -2.81157 -3.985 0
M  V30 5614 H 505.359 -4.7593 -2.75264 0
M  V30 5615 H 506.584 -5.84083 -3.46445 0
M  V30 5616 H 504.53 -4.22322 -5.01976 0
M  V30 5617 H 504.447 -5.92399 -4.69681 0
M  V30 5618 H 505.715 -5.30443 -5.71183 0
M  V30 5619 N 509.944 0.496216 -1.49584 0
M  V30 5620 C 511.174 1.27209 -1.62793 0
M  V30 5621 C 511.582 1.86799 -0.300476 0
M  V30 5622 O 510.925 1.68802 0.724674 0
M  V30 5623 C 510.987 2.43812 -2.64189 0
M  V30 5624 C 510.651 2.05055 -4.08414 0
M  V30 5625 C 511.648 1.58752 -4.9507 0
M  V30 5626 C 509.333 2.14543 -4.54177 0
M  V30 5627 C 511.327 1.22448 -6.25528 0
M  V30 5628 C 509.014 1.77851 -5.84647 0
M  V30 5629 C 510.012 1.31878 -6.70147 0
M  V30 5630 O 509.7 0.956834 -7.98185 0
M  V30 5631 H 509.432 0.391848 -0.550846 0
M  V30 5632 H 511.986 0.601712 -1.96389 0
M  V30 5633 H 510.216 3.13941 -2.25783 0
M  V30 5634 H 511.905 3.05829 -2.66877 0
M  V30 5635 H 512.671 1.50863 -4.60939 0
M  V30 5636 H 508.55 2.49277 -3.87791 0
M  V30 5637 H 512.094 0.864933 -6.92217 0
M  V30 5638 H 507.991 1.8539 -6.18305 0
M  V30 5639 H 508.759 1.08789 -8.11238 0
M  V30 5640 N 511.423 1.38739 0.74761 0
M  V30 5641 C 512.7 1.25791 1.49786 0
M  V30 5642 C 513.08 -0.138075 2.10648 0
M  V30 5643 O 512.428 -1.14815 1.9756 0
M  V30 5644 C 512.638 2.37265 2.55942 0
M  V30 5645 C 513.986 2.75978 3.22679 0
M  V30 5646 O 515.01 2.36621 2.6625 0
M  V30 5647 O 513.869 3.43867 4.24756 0
M  V30 5648 H 510.963 0.492251 0.664543 0
M  V30 5649 H 513.509 1.50582 0.782511 0
M  V30 5650 H 512.281 3.30644 2.0926 0
M  V30 5651 H 511.904 2.14071 3.35051 0
M  V30 5652 N 512.901 -0.976442 1.23707 0
M  V30 5653 C 514.312 -1.53284 1.06587 0
M  V30 5654 C 514.663 -1.92765 -0.365526 0
M  V30 5655 O 513.788 -1.7645 -1.25277 0
M  V30 5656 C 514.383 -2.78548 1.92864 0
M  V30 5657 C 512.942 -3.30574 1.79994 0
M  V30 5658 C 512.089 -2.03538 1.88328 0
M  V30 5659 H 515.04 -0.795692 1.37311 0
M  V30 5660 H 515.061 -3.5155 1.45577 0
M  V30 5661 H 514.573 -2.49782 2.97037 0
M  V30 5662 H 512.674 -3.64211 0.786202 0
M  V30 5663 H 512.787 -4.00065 2.636 0
M  V30 5664 H 511.151 -2.17853 1.31954 0
M  V30 5665 H 511.934 -1.77149 2.94063 0
M  V30 5666 N 514.379 -1.04941 -1.1758 0
M  V30 5667 C 515.289 -0.658826 -2.25159 0
M  V30 5668 C 516.305 0.318941 -1.71052 0
M  V30 5669 O 517.481 0.171669 -2.00667 0
M  V30 5670 C 514.546 -0.0369522 -3.4668 0
M  V30 5671 C 513.607 -1.06484 -4.15884 0
M  V30 5672 C 512.84 -0.472551 -5.31604 0
M  V30 5673 O 513.063 0.718736 -5.65854 0
M  V30 5674 O 511.997 -1.20557 -5.89703 0
M  V30 5675 H 515.823 -1.55533 -2.60851 0
M  V30 5676 H 513.408 -0.820819 -1.24832 0
M  V30 5677 H 515.29 0.308784 -4.20267 0
M  V30 5678 H 513.965 0.833238 -3.12792 0
M  V30 5679 H 512.872 -1.46253 -3.44327 0
M  V30 5680 H 514.205 -1.9061 -4.53794 0
M  V30 5681 N 515.857 1.33968 -0.830081 0
M  V30 5682 C 516.79 2.27303 -0.202182 0
M  V30 5683 C 517.768 1.49235 0.645581 0
M  V30 5684 O 518.952 1.78433 0.607762 0
M  V30 5685 C 516.079 3.31025 0.716932 0
M  V30 5686 C 515.125 4.26466 -0.0542271 0
M  V30 5687 S 515.958 5.16707 -1.40622 0
M  V30 5688 C 517.114 6.23962 -0.492167 0
M  V30 5689 H 517.347 2.8021 -0.99346 0
M  V30 5690 H 514.88 1.41124 -0.626359 0
M  V30 5691 H 516.838 3.91271 1.24165 0
M  V30 5692 H 515.499 2.76951 1.4818 0
M  V30 5693 H 514.692 4.99858 0.644785 0
M  V30 5694 H 514.294 3.7051 -0.509722 0
M  V30 5695 H 516.586 6.76774 0.31347 0
M  V30 5696 H 517.529 6.97927 -1.19599 0
M  V30 5697 H 517.937 5.64447 -0.0774176 0
M  V30 5698 N 517.335 0.585699 1.46312 0
M  V30 5699 C 518.298 -0.135673 2.28798 0
M  V30 5700 C 519.298 -0.815988 1.38558 0
M  V30 5701 O 520.488 -0.667487 1.60904 0
M  V30 5702 C 517.62 -1.20163 3.1902 0
M  V30 5703 H 518.813 0.589257 2.94054 0
M  V30 5704 H 516.366 0.343794 1.52472 0
M  V30 5705 H 517.101 -1.95804 2.58517 0
M  V30 5706 H 516.886 -0.718282 3.85465 0
M  V30 5707 H 518.376 -1.70749 3.81096 0
M  V30 5708 N 518.813 -1.54241 0.323641 0
M  V30 5709 C 519.76 -2.24339 -0.542277 0
M  V30 5710 C 520.73 -1.23421 -1.11159 0
M  V30 5711 O 521.915 -1.52104 -1.15192 0
M  V30 5712 C 519.055 -3.00479 -1.69725 0
M  V30 5713 C 518.168 -4.16214 -1.15716 0
M  V30 5714 C 517.303 -4.79884 -2.27783 0
M  V30 5715 C 516.342 -5.87722 -1.71023 0
M  V30 5716 N 515.479 -6.45254 -2.76752 0
M  V30 5717 H 520.319 -2.97935 0.0620613 0
M  V30 5718 H 517.856 -1.47039 0.0423993 0
M  V30 5719 H 519.814 -3.42869 -2.3769 0
M  V30 5720 H 518.444 -2.29217 -2.27288 0
M  V30 5721 H 517.496 -3.78605 -0.369063 0
M  V30 5722 H 518.808 -4.93838 -0.701832 0
M  V30 5723 H 517.962 -5.25243 -3.03651 0
M  V30 5724 H 516.701 -4.01641 -2.76652 0
M  V30 5725 H 515.706 -5.41765 -0.936518 0
M  V30 5726 H 516.931 -6.67863 -1.2303 0
M  V30 5727 H 514.877 -5.69884 -3.24912 0
M  V30 5728 H 514.794 -7.18292 -2.35782 0
M  V30 5729 H 516.062 -6.95269 -3.5245 0
M  V30 5730 N 520.291 -0.0518155 -1.57515 0
M  V30 5731 C 521.238 0.922352 -2.11569 0
M  V30 5732 C 522.208 1.30842 -1.02321 0
M  V30 5733 O 523.393 1.39778 -1.29872 0
M  V30 5734 C 520.533 2.19167 -2.6657 0
M  V30 5735 C 519.646 1.86003 -3.89906 0
M  V30 5736 C 518.781 3.07398 -4.33221 0
M  V30 5737 C 517.82 2.70158 -5.49255 0
M  V30 5738 N 516.957 3.84248 -5.8762 0
M  V30 5739 H 521.797 0.454506 -2.94514 0
M  V30 5740 H 519.334 0.212718 -1.45554 0
M  V30 5741 H 521.292 2.93443 -2.96559 0
M  V30 5742 H 519.922 2.63528 -1.86421 0
M  V30 5743 H 518.974 1.01874 -3.66505 0
M  V30 5744 H 520.286 1.54592 -4.74239 0
M  V30 5745 H 519.44 3.89972 -4.64765 0
M  V30 5746 H 518.179 3.41988 -3.477 0
M  V30 5747 H 517.184 1.86001 -5.17382 0
M  V30 5748 H 518.409 2.36759 -6.36492 0
M  V30 5749 H 516.355 4.18638 -5.05053 0
M  V30 5750 H 516.272 3.56538 -6.66646 0
M  V30 5751 H 517.54 4.6746 -6.2378 0
M  V30 5752 N 521.769 1.56035 0.221574 0
M  V30 5753 C 523.018 1.78245 0.944016 0
M  V30 5754 C 523.331 0.620371 1.85501 0
M  V30 5755 O 524.537 0.726103 2.6161 0
M  V30 5756 C 522.993 3.15659 1.7288 0
M  V30 5757 C 522.601 4.39591 0.863942 0
M  V30 5758 C 524.345 3.47195 2.44246 0
M  V30 5759 C 522.252 5.6803 1.64607 0
M  V30 5760 H 521.182 0.664547 0.356222 0
M  V30 5761 H 523.833 1.8243 0.197904 0
M  V30 5762 H 522.215 3.0565 2.51781 0
M  V30 5763 H 523.389 4.60655 0.115464 0
M  V30 5764 H 521.704 4.15572 0.262407 0
M  V30 5765 H 524.301 4.40381 3.03263 0
M  V30 5766 H 524.644 2.69693 3.1713 0
M  V30 5767 H 525.177 3.58533 1.72334 0
M  V30 5768 H 521.916 6.48425 0.960507 0
M  V30 5769 H 521.436 5.51027 2.36917 0
M  V30 5770 H 523.115 6.08203 2.20675 0
M  V30 5771 N 523.247 -0.488276 1.49845 0
M  V30 5772 C 524.177 -1.59675 1.70371 0
M  V30 5773 C 525.158 -1.60878 0.552473 0
M  V30 5774 O 526.343 -1.77417 0.78973 0
M  V30 5775 C 523.473 -2.98098 1.782 0
M  V30 5776 C 522.427 -3.11761 2.93239 0
M  V30 5777 C 521.753 -4.51661 2.86193 0
M  V30 5778 C 523.053 -2.90589 4.33999 0
M  V30 5779 H 524.747 -1.42752 2.63177 0
M  V30 5780 H 522.293 -0.685317 1.26647 0
M  V30 5781 H 524.246 -3.75555 1.91144 0
M  V30 5782 H 522.97 -3.16138 0.820018 0
M  V30 5783 H 521.629 -2.36732 2.79917 0
M  V30 5784 H 521.277 -4.66595 1.87877 0
M  V30 5785 H 520.977 -4.61742 3.63412 0
M  V30 5786 H 522.501 -5.31162 3.01163 0
M  V30 5787 H 523.915 -3.57807 4.47936 0
M  V30 5788 H 522.312 -3.1213 5.12538 0
M  V30 5789 H 523.382 -1.86595 4.4756 0
M  V30 5790 N 524.725 -1.39134 -0.740242 0
M  V30 5791 C 526.002 -1.26584 -1.49117 0
M  V30 5792 C 526.382 0.126902 -2.10718 0
M  V30 5793 O 525.73 1.13765 -1.98166 0
M  V30 5794 C 525.94 -2.38619 -2.54681 0
M  V30 5795 C 527.288 -2.77685 -3.21211 0
M  V30 5796 O 528.312 -2.38029 -2.64991 0
M  V30 5797 O 527.171 -3.46115 -4.22926 0
M  V30 5798 H 524.265 -0.495769 -0.661923 0
M  V30 5799 H 526.811 -1.50995 -0.774514 0
M  V30 5800 H 525.583 -3.3175 -2.07504 0
M  V30 5801 H 525.206 -2.15845 -3.33911 0
M  V30 5802 N 526.204 0.969867 -1.24223 0
M  V30 5803 C 527.114 2.09806 -1.0497 0
M  V30 5804 C 528.13 1.73998 0.00886455 0
M  V30 5805 O 529.306 2.00513 -0.188848 0
M  V30 5806 C 526.371 3.40467 -0.654452 0
M  V30 5807 C 525.432 3.90236 -1.78926 0
M  V30 5808 C 524.665 5.14662 -1.41277 0
M  V30 5809 O 524.888 5.69602 -0.301632 0
M  V30 5810 O 523.822 5.58761 -2.23763 0
M  V30 5811 H 527.648 2.28942 -1.99548 0
M  V30 5812 H 525.233 1.08197 -1.03023 0
M  V30 5813 H 527.115 4.19039 -0.445452 0
M  V30 5814 H 525.79 3.22636 0.262216 0
M  V30 5815 H 524.697 3.12735 -2.05299 0
M  V30 5816 H 526.03 4.1254 -2.68462 0
M  V30 5817 N 527.682 1.05563 1.17022 0
M  V30 5818 C 528.612 0.681026 2.23348 0
M  V30 5819 C 529.593 -0.322983 1.67005 0
M  V30 5820 O 530.778 -0.199746 1.9317 0
M  V30 5821 C 527.908 0.0589053 3.4725 0
M  V30 5822 C 526.862 0.988082 4.16438 0
M  V30 5823 C 526.188 0.229646 5.34207 0
M  V30 5824 C 527.488 2.31388 4.68249 0
M  V30 5825 H 529.182 1.56993 2.54938 0
M  V30 5826 H 526.728 0.756302 1.2254 0
M  V30 5827 H 528.681 -0.214982 4.20851 0
M  V30 5828 H 527.405 -0.864968 3.14938 0
M  V30 5829 H 526.064 1.24659 3.44754 0
M  V30 5830 H 525.712 -0.697111 4.98146 0
M  V30 5831 H 525.412 0.848815 5.81437 0
M  V30 5832 H 526.936 -0.0368694 6.10589 0
M  V30 5833 H 528.35 2.09964 5.33468 0
M  V30 5834 H 526.747 2.88736 5.26072 0
M  V30 5835 H 527.817 2.94982 3.84855 0
M  V30 5836 N 529.16 -1.33526 0.837174 0
M  V30 5837 C 530.408 -1.97446 0.431211 0
M  V30 5838 C 530.729 -1.6665 -1.01255 0
M  V30 5839 O 529.999 -0.964559 -1.70508 0
M  V30 5840 H 528.579 -0.73043 0.156463 0
M  V30 5841 H 531.241 -1.62918 1.06976 0
M  V30 5842 H 530.337 -3.07001 0.561877 0
M  V30 5843 N 530.638 -0.59345 -1.46 0
M  V30 5844 C 531.885 -0.0831523 -2.02329 0
M  V30 5845 C 532.213 1.28093 -1.46364 0
M  V30 5846 O 531.468 1.85526 -0.622793 0
M  V30 5847 C 531.767 0.021178 -3.57394 0
M  V30 5848 C 531.433 -1.27671 -4.32448 0
M  V30 5849 C 530.095 -1.63227 -4.5267 0
M  V30 5850 C 532.447 -2.13511 -4.7546 0
M  V30 5851 C 529.775 -2.84401 -5.1316 0
M  V30 5852 C 532.127 -3.33922 -5.37289 0
M  V30 5853 C 530.791 -3.69747 -5.55737 0
M  V30 5854 H 530.061 -0.0304276 -0.740375 0
M  V30 5855 H 532.708 -0.772239 -1.75239 0
M  V30 5856 H 531.013 0.793454 -3.83682 0
M  V30 5857 H 532.71 0.431942 -3.98667 0
M  V30 5858 H 529.3 -0.989937 -4.17011 0
M  V30 5859 H 533.484 -1.87344 -4.59582 0
M  V30 5860 H 528.74 -3.12282 -5.25633 0
M  V30 5861 H 532.914 -4.00698 -5.69574 0
M  V30 5862 H 530.541 -4.6373 -6.02377 0
M  V30 5863 N 532.116 1.54067 -0.331816 0
M  V30 5864 C 533.063 2.24623 0.530372 0
M  V30 5865 C 534.033 1.24009 1.10503 0
M  V30 5866 O 535.218 1.52712 1.14384 0
M  V30 5867 C 532.358 3.01374 1.68129 0
M  V30 5868 C 531.471 4.16821 1.13507 0
M  V30 5869 C 530.606 4.81085 2.25234 0
M  V30 5870 C 529.645 5.88621 1.67903 0
M  V30 5871 N 528.782 6.46713 2.73326 0
M  V30 5872 H 533.622 2.97898 -0.0778607 0
M  V30 5873 H 531.159 1.47014 -0.0501965 0
M  V30 5874 H 533.117 3.44125 2.35868 0
M  V30 5875 H 531.747 2.30419 2.26069 0
M  V30 5876 H 530.799 3.78796 0.348979 0
M  V30 5877 H 532.111 4.94203 0.675633 0
M  V30 5878 H 531.265 5.26846 3.00862 0
M  V30 5879 H 530.004 4.03102 2.74518 0
M  V30 5880 H 529.009 5.42254 0.907773 0
M  V30 5881 H 530.234 6.68506 1.19487 0
M  V30 5882 H 528.18 5.71599 3.21886 0
M  V30 5883 H 528.097 7.19532 2.3197 0
M  V30 5884 H 529.365 6.97129 3.48758 0
M  V30 5885 N 533.594 0.0601682 1.57485 0
M  V30 5886 C 534.871 -0.651956 1.84415 0
M  V30 5887 C 535.251 -1.88498 0.950361 0
M  V30 5888 O 534.599 -2.28496 0.0136719 0
M  V30 5889 C 534.809 -1.00069 3.34346 0
M  V30 5890 C 536.157 -1.37915 4.01578 0
M  V30 5891 O 537.181 -1.09277 3.39024 0
M  V30 5892 O 536.04 -1.91399 5.11887 0
M  V30 5893 H 533.134 -0.322668 0.761455 0
M  V30 5894 H 535.68 0.0902159 1.6946 0
M  V30 5895 H 534.452 -0.124463 3.91102 0
M  V30 5896 H 534.075 -1.80001 3.54521 0
M  V30 5897 N 535.072 -1.5615 -0.213296 0
M  V30 5898 C 536.318 -1.79812 -0.937849 0
M  V30 5899 C 536.651 -0.631201 -1.83656 0
M  V30 5900 O 535.926 0.369165 -1.90964 0
M  V30 5901 C 536.209 -3.13613 -1.76972 0
M  V30 5902 C 536.062 -4.40766 -0.89695 0
M  V30 5903 C 537.381 -3.43931 -2.7459 0
M  V30 5904 H 534.5 -0.654138 -0.339518 0
M  V30 5905 H 537.142 -1.88877 -0.20623 0
M  V30 5906 H 535.292 -3.06015 -2.39347 0
M  V30 5907 H 536.964 -4.60392 -0.289306 0
M  V30 5908 H 535.207 -4.33326 -0.202756 0
M  V30 5909 H 535.878 -5.30843 -1.51358 0
M  V30 5910 H 538.354 -3.5171 -2.22349 0
M  V30 5911 H 537.23 -4.38706 -3.29891 0
M  V30 5912 H 537.491 -2.6651 -3.52739 0
M  V30 5913 N 536.55 0.480323 -1.50102 0
M  V30 5914 C 537.498 1.60024 -1.68805 0
M  V30 5915 C 538.492 1.60089 -0.553888 0
M  V30 5916 O 539.698 1.64349 -0.734127 0
M  V30 5917 H 536.073 0.530841 -0.532646 0
M  V30 5918 H 538.044 1.41408 -2.62767 0
M  V30 5919 C 536.793 2.98029 -1.79092 0
M  V30 5920 H 536.116 2.98694 -2.65748 0
M  V30 5921 H 537.556 3.75871 -1.96206 0
M  V30 5922 C 536.015 3.32538 -0.540388 0
M  V30 5923 O 536.545 4.00386 0.324637 0
M  V30 5924 N 534.751 2.87873 -0.397154 0
M  V30 5925 H 534.298 2.32834 -1.1021 0
M  V30 5926 H 534.256 3.11328 0.438425 0
M  V30 5927 N 538.028 1.39524 0.732853 0
M  V30 5928 C 538.975 1.38416 1.84688 0
M  V30 5929 C 539.945 0.243539 1.64305 0
M  V30 5930 O 541.13 0.438979 1.85681 0
M  V30 5931 C 538.27 1.23555 3.22224 0
M  V30 5932 C 537.383 2.47179 3.54298 0
M  V30 5933 C 536.518 2.2489 4.81246 0
M  V30 5934 C 535.557 3.44178 5.0617 0
M  V30 5935 N 534.694 3.21192 6.24323 0
M  V30 5936 H 539.534 2.33645 1.84971 0
M  V30 5937 H 537.071 1.16059 0.903804 0
M  V30 5938 H 539.029 1.12949 4.0162 0
M  V30 5939 H 537.659 0.31954 3.21215 0
M  V30 5940 H 536.711 2.68379 2.69587 0
M  V30 5941 H 538.023 3.36022 3.68633 0
M  V30 5942 H 537.177 2.11538 5.68627 0
M  V30 5943 H 535.916 1.33443 4.69089 0
M  V30 5944 H 534.921 3.58025 4.17251 0
M  V30 5945 H 536.146 4.36528 5.20212 0
M  V30 5946 H 534.092 2.32413 6.1345 0
M  V30 5947 H 534.009 4.03594 6.39256 0
M  V30 5948 H 535.277 3.1154 7.14537 0
M  V30 5949 N 539.506 -0.963266 1.24736 0
M  V30 5950 C 540.783 -1.68248 0.9976 0
M  V30 5951 C 541.163 -2.05599 -0.478776 0
M  V30 5952 O 540.511 -1.7626 -1.45412 0
M  V30 5953 C 540.721 -2.91118 1.92487 0
M  V30 5954 C 542.069 -3.63261 2.19833 0
M  V30 5955 O 543.093 -3.01184 1.90176 0
M  V30 5956 O 541.952 -4.75019 2.7022 0
M  V30 5957 H 539.046 -0.735744 0.377637 0
M  V30 5958 H 541.592 -1.01696 1.35853 0
M  V30 5959 H 540.364 -2.60242 2.92215 0
M  V30 5960 H 539.987 -3.65402 1.56738 0
M  V30 5961 N 540.985 -1.06182 -1.16461 0
M  V30 5962 C 542.233 -0.776326 -1.86595 0
M  V30 5963 C 542.554 0.69921 -1.82033 0
M  V30 5964 O 541.824 1.50579 -1.2531 0
M  V30 5965 H 540.404 -0.284184 -0.690832 0
M  V30 5966 H 543.066 -1.34308 -1.41235 0
M  V30 5967 H 542.162 -1.10022 -2.92064 0
M  V30 5968 N 542.463 1.3308 -0.844243 0
M  V30 5969 C 543.71 1.97605 -0.44255 0
M  V30 5970 C 544.038 1.66856 0.999458 0
M  V30 5971 O 543.293 0.943586 1.7145 0
M  V30 5972 C 543.592 3.52045 -0.616354 0
M  V30 5973 C 543.258 4.02757 -2.02726 0
M  V30 5974 C 541.92 4.16316 -2.41317 0
M  V30 5975 C 544.272 4.29776 -2.9486 0
M  V30 5976 C 541.6 4.54232 -3.71335 0
M  V30 5977 C 543.952 4.69146 -4.24364 0
M  V30 5978 C 542.616 4.80911 -4.62904 0
M  V30 5979 H 541.886 0.723088 -0.161941 0
M  V30 5980 H 544.533 1.58663 -1.0723 0
M  V30 5981 H 542.838 3.91681 0.0966812 0
M  V30 5982 H 544.535 3.99981 -0.285756 0
M  V30 5983 H 541.125 3.9268 -1.71756 0
M  V30 5984 H 545.309 4.18818 -2.6628 0
M  V30 5985 H 540.565 4.61535 -4.00993 0
M  V30 5986 H 544.739 4.89008 -4.95827 0
M  V30 5987 H 542.366 5.10048 -5.63698 0
M  V30 5988 N 543.941 0.601185 1.45683 0
M  V30 5989 C 545.357 0.264315 1.57396 0
M  V30 5990 C 545.557 -1.23324 1.59353 0
M  V30 5991 O 544.613 -2.01594 1.52039 0
M  V30 5992 C 545.926 0.929839 2.85962 0
M  V30 5993 C 547.474 0.905156 2.99626 0
M  V30 5994 C 547.949 1.55057 4.30954 0
M  V30 5995 N 549.44 1.51576 4.37697 0
M  V30 5996 C 550.175 1.98436 5.37969 0
M  V30 5997 N 549.671 2.53352 6.44813 0
M  V30 5998 N 551.464 1.89242 5.29286 0
M  V30 5999 H 543.615 1.57363 1.42656 0
M  V30 6000 H 545.878 0.658831 0.681649 0
M  V30 6001 H 545.584 1.98404 2.90394 0
M  V30 6002 H 545.458 0.449224 3.74515 0
M  V30 6003 H 547.845 -0.14048 2.94765 0
M  V30 6004 H 547.926 1.42397 2.12501 0
M  V30 6005 H 547.57 2.5955 4.36573 0
M  V30 6006 H 547.5 1.00682 5.16886 0
M  V30 6007 H 549.991 1.11452 3.61091 0
M  V30 6008 H 550.304 2.86918 7.17564 0
M  V30 6009 H 548.649 2.57388 6.45582 0
M  V30 6010 H 551.84 1.46083 4.44722 0
M  V30 6011 H 552.013 2.26075 6.07284 0
M  V30 6012 N 545.419 -1.53889 0.339982 0
M  V30 6013 C 546.329 -2.28604 -0.526988 0
M  V30 6014 C 547.345 -1.33578 -1.11503 0
M  V30 6015 O 548.521 -1.66612 -1.13148 0
M  V30 6016 C 545.586 -3.04164 -1.66389 0
M  V30 6017 C 544.647 -4.14809 -1.10599 0
M  V30 6018 C 543.88 -4.86756 -2.18871 0
M  V30 6019 O 544.103 -4.58343 -3.39526 0
M  V30 6020 O 543.037 -5.73289 -1.83366 0
M  V30 6021 H 546.863 -3.03594 0.0802707 0
M  V30 6022 H 544.448 -1.4903 0.105141 0
M  V30 6023 H 546.33 -3.51427 -2.32544 0
M  V30 6024 H 545.005 -2.32035 -2.25703 0
M  V30 6025 H 543.912 -3.71857 -0.409067 0
M  V30 6026 H 545.245 -4.89029 -0.557771 0
M  V30 6027 N 546.897 -0.0685191 -1.57451 0
M  V30 6028 C 548.174 0.642167 -1.84758 0
M  V30 6029 C 548.554 1.87991 -0.960344 0
M  V30 6030 O 547.902 2.28485 -0.0257894 0
M  V30 6031 C 548.112 0.982946 -3.34872 0
M  V30 6032 C 549.46 1.35784 -4.02303 0
M  V30 6033 O 550.484 1.07477 -3.39598 0
M  V30 6034 O 549.343 1.88681 -5.12895 0
M  V30 6035 H 546.437 0.318625 -0.763156 0
M  V30 6036 H 548.983 -0.0992015 -1.6941 0
M  V30 6037 H 547.755 0.10372 -3.91163 0
M  V30 6038 H 547.378 1.78119 -3.55471 0
M  V30 6039 N 548.375 1.56261 0.205012 0
M  V30 6040 C 549.786 1.70056 0.770574 0
M  V30 6041 C 550.137 0.673398 1.84282 0
M  V30 6042 O 549.262 -0.172196 2.15714 0
M  V30 6043 C 549.857 3.08316 1.40451 0
M  V30 6044 C 548.416 3.2391 1.91727 0
M  V30 6045 C 547.563 2.66001 0.783516 0
M  V30 6046 H 550.514 1.58688 -0.019911 0
M  V30 6047 H 550.535 3.05094 2.27371 0
M  V30 6048 H 550.047 3.83053 0.623882 0
M  V30 6049 H 548.148 2.54072 2.7254 0
M  V30 6050 H 548.261 4.3131 2.08588 0
M  V30 6051 H 546.625 2.24915 1.19521 0
M  V30 6052 H 547.408 3.43297 0.0152883 0
M  V30 6053 N 549.853 -0.472356 1.50355 0
M  V30 6054 C 550.801 -1.59126 1.69651 0
M  V30 6055 C 551.795 -1.59793 0.56237 0
M  V30 6056 O 553.001 -1.63957 0.742832 0
M  V30 6057 H 549.376 -0.528008 0.535454 0
M  V30 6058 H 551.347 -1.40013 2.63513 0
M  V30 6059 C 550.096 -2.97075 1.8067 0
M  V30 6060 H 549.419 -2.9728 2.67329 0
M  V30 6061 H 550.859 -3.74825 1.98197 0
M  V30 6062 C 549.318 -3.32247 0.558016 0
M  V30 6063 O 549.848 -4.00553 -0.303399 0
M  V30 6064 N 548.054 -2.87659 0.412415 0
M  V30 6065 H 547.601 -2.32246 1.11443 0
M  V30 6066 H 547.559 -3.11556 -0.421908 0
M  V30 6067 N 551.331 -1.39911 -0.725443 0
M  V30 6068 C 552.579 -1.37382 -1.48224 0
M  V30 6069 C 552.9 0.0264107 -1.94982 0
M  V30 6070 O 552.17 0.979408 -1.6966 0
M  V30 6071 H 550.75 -0.505596 -0.549892 0
M  V30 6072 H 553.412 -1.7487 -0.860608 0
M  V30 6073 H 552.508 -2.04254 -2.3598 0
M  V30 6074 N 552.809 0.956637 -1.25245 0
M  V30 6075 C 553.756 2.053 -1.05454 0
M  V30 6076 C 554.726 1.66062 0.0356889 0
M  V30 6077 O 555.911 1.90415 -0.121099 0
M  V30 6078 C 553.051 3.38391 -0.677191 0
M  V30 6079 C 552.164 3.90758 -1.84206 0
M  V30 6080 C 551.299 5.12165 -1.40926 0
M  V30 6081 C 550.338 5.56757 -2.54338 0
M  V30 6082 N 549.475 6.69376 -2.11848 0
M  V30 6083 H 554.315 2.21562 -1.99284 0
M  V30 6084 H 551.852 1.08578 -0.992434 0
M  V30 6085 H 553.81 4.1488 -0.43938 0
M  V30 6086 H 552.44 3.22021 0.224127 0
M  V30 6087 H 551.492 3.10808 -2.19323 0
M  V30 6088 H 552.804 4.19802 -2.69383 0
M  V30 6089 H 551.958 5.96065 -1.13098 0
M  V30 6090 H 550.697 4.84832 -0.528175 0
M  V30 6091 H 549.702 4.71423 -2.82913 0
M  V30 6092 H 550.927 5.861 -3.43022 0
M  V30 6093 H 548.873 6.43756 -1.26153 0
M  V30 6094 H 548.79 6.97927 -2.90574 0
M  V30 6095 H 550.058 7.5669 -1.87191 0
M  V30 6096 N 554.287 1.06798 1.15896 0
M  V30 6097 C 555.698 0.811355 1.68149 0
M  V30 6098 C 556.049 -0.664339 1.8461 0
M  V30 6099 O 555.174 -1.51485 1.54535 0
M  V30 6100 C 555.769 1.46624 3.05429 0
M  V30 6101 C 554.328 1.25726 3.54781 0
M  V30 6102 C 553.475 1.53949 2.3064 0
M  V30 6103 H 556.426 1.23078 1.00187 0
M  V30 6104 H 556.447 0.88437 3.7008 0
M  V30 6105 H 555.959 2.54025 2.93416 0
M  V30 6106 H 554.06 0.20322 3.72045 0
M  V30 6107 H 554.173 1.97354 4.36564 0
M  V30 6108 H 552.537 0.96025 2.35905 0
M  V30 6109 H 553.32 2.6252 2.2122 0
M  V30 6110 N 555.766 -1.3263 0.851289 0
M  V30 6111 C 557.013 -1.97368 0.453023 0
M  V30 6112 C 557.341 -1.67384 -0.990596 0
M  V30 6113 O 556.596 -0.952665 -1.70947 0
M  V30 6114 C 556.895 -3.51713 0.635015 0
M  V30 6115 C 556.561 -4.01676 2.04859 0
M  V30 6116 C 555.223 -4.15031 2.43522 0
M  V30 6117 C 557.575 -4.28206 2.97135 0
M  V30 6118 C 554.903 -4.52257 3.73739 0
M  V30 6119 C 557.255 -4.66889 4.26846 0
M  V30 6120 C 555.919 -4.7845 4.65448 0
M  V30 6121 H 555.189 -0.722219 0.165773 0
M  V30 6122 H 557.836 -1.58092 1.0807 0
M  V30 6123 H 556.141 -3.91726 -0.0759081 0
M  V30 6124 H 557.838 -3.99823 0.306964 0
M  V30 6125 H 554.428 -3.91764 1.73836 0
M  V30 6126 H 558.612 -4.174 2.68498 0
M  V30 6127 H 553.868 -4.59402 4.03435 0
M  V30 6128 H 558.042 -4.86372 4.98413 0
M  V30 6129 H 555.669 -5.07052 5.66395 0
M  V30 6130 N 557.244 -0.608902 -1.45362 0
M  V30 6131 C 558.191 0.109172 -2.30542 0
M  V30 6132 C 559.161 0.858704 -1.42181 0
M  V30 6133 O 560.346 0.844178 -1.71109 0
M  V30 6134 C 557.486 1.09971 -3.27109 0
M  V30 6135 C 556.599 0.350911 -4.30572 0
M  V30 6136 C 555.734 1.33129 -5.14247 0
M  V30 6137 C 554.773 0.570377 -6.09437 0
M  V30 6138 N 553.91 1.5001 -6.85887 0
M  V30 6139 H 558.75 -0.623195 -2.91411 0
M  V30 6140 H 556.287 -0.319122 -1.43597 0
M  V30 6141 H 558.245 1.68714 -3.81564 0
M  V30 6142 H 556.875 1.79947 -2.67991 0
M  V30 6143 H 555.927 -0.352054 -3.78767 0
M  V30 6144 H 557.239 -0.242725 -4.98209 0
M  V30 6145 H 556.393 1.99074 -5.73109 0
M  V30 6146 H 555.132 1.95885 -4.46632 0
M  V30 6147 H 554.137 -0.102702 -5.49704 0
M  V30 6148 H 555.362 -0.0521607 -6.7908 0
M  V30 6149 H 553.308 2.11529 -6.2096 0
M  V30 6150 H 553.225 0.959934 -7.49881 0
M  V30 6151 H 554.493 2.14909 -7.49289 0
M  V30 6152 N 558.722 1.53707 -0.348139 0
M  V30 6153 C 559.652 2.28111 0.498766 0
M  V30 6154 C 560.633 1.29851 1.09876 0
M  V30 6155 O 561.818 1.587 1.11928 0
M  V30 6156 C 558.948 3.05735 1.64753 0
M  V30 6157 C 557.902 4.11537 1.17565 0
M  V30 6158 C 557.228 4.77142 2.4133 0
M  V30 6159 C 558.528 5.21587 0.272844 0
M  V30 6160 H 560.222 2.99152 -0.121934 0
M  V30 6161 H 557.768 1.43875 -0.0600842 0
M  V30 6162 H 559.721 3.56526 2.24649 0
M  V30 6163 H 558.445 2.32354 2.2952 0
M  V30 6164 H 557.104 3.61665 0.599483 0
M  V30 6165 H 556.752 4.0035 3.04514 0
M  V30 6166 H 556.452 5.48626 2.10436 0
M  V30 6167 H 557.976 5.30719 3.01943 0
M  V30 6168 H 559.39 5.67986 0.778779 0
M  V30 6169 H 557.787 6.00074 0.0555849 0
M  V30 6170 H 558.857 4.79969 -0.689785 0
M  V30 6171 N 560.2 0.0768682 1.57412 0
M  V30 6172 C 561.428 -0.59997 1.9801 0
M  V30 6173 C 561.843 -1.62842 0.955408 0
M  V30 6174 O 561.2 -1.8241 -0.057314 0
M  V30 6175 C 561.251 -1.26401 3.38681 0
M  V30 6176 O 560.972 -0.276723 4.37225 0
M  V30 6177 C 562.473 -2.0282 3.94182 0
M  V30 6178 H 559.693 -0.162239 0.651091 0
M  V30 6179 H 562.237 0.150771 2.03943 0
M  V30 6180 H 560.392 -1.96581 3.33819 0
M  V30 6181 H 560.806 -0.753744 5.19056 0
M  V30 6182 H 562.28 -2.44667 4.94815 0
M  V30 6183 H 562.757 -2.88678 3.31001 0
M  V30 6184 H 563.363 -1.37496 4.02461 0
M  V30 6185 N 561.678 -1.56367 -0.196722 0
M  V30 6186 C 562.927 -1.79724 -0.915539 0
M  V30 6187 C 563.24 -0.649804 -1.84491 0
M  V30 6188 O 564.446 -0.767631 -2.60422 0
M  V30 6189 C 562.902 -3.18369 -1.67836 0
M  V30 6190 C 562.51 -4.4091 -0.793897 0
M  V30 6191 C 564.254 -3.51037 -2.38691 0
M  V30 6192 C 562.161 -5.70577 -1.55549 0
M  V30 6193 H 561.091 -0.67013 -0.345604 0
M  V30 6194 H 563.742 -1.82721 -0.168856 0
M  V30 6195 H 562.124 -3.09617 -2.46887 0
M  V30 6196 H 563.298 -4.60781 -0.042163 0
M  V30 6197 H 561.613 -4.15937 -0.19626 0
M  V30 6198 H 564.21 -4.4515 -2.96219 0
M  V30 6199 H 564.553 -2.74704 -3.12799 0
M  V30 6200 H 565.086 -3.61229 -1.66608 0
M  V30 6201 H 561.825 -6.49871 -0.857226 0
M  V30 6202 H 561.345 -5.54726 -2.2812 0
M  V30 6203 H 563.024 -6.11637 -2.10971 0
M  V30 6204 N 563.156 0.464375 -1.50603 0
M  V30 6205 C 564.066 1.58723 -1.72754 0
M  V30 6206 C 565.082 1.62925 -0.610844 0
M  V30 6207 O 566.258 1.8067 -0.889963 0
M  V30 6208 C 563.323 2.94897 -1.82309 0
M  V30 6209 C 562.384 3.0103 -3.06071 0
M  V30 6210 C 561.617 4.30708 -3.1516 0
M  V30 6211 O 561.84 5.2159 -2.30868 0
M  V30 6212 O 560.774 4.42571 -4.0794 0
M  V30 6213 H 564.6 1.42954 -2.67951 0
M  V30 6214 H 562.185 0.644579 -1.3478 0
M  V30 6215 H 564.067 3.75764 -1.90735 0
M  V30 6216 H 562.742 3.10851 -0.902967 0
M  V30 6217 H 561.649 2.19217 -3.03142 0
M  V30 6218 H 562.982 2.90014 -3.97684 0
M  V30 6219 N 564.634 1.40294 0.718013 0
M  V30 6220 C 565.874 1.39888 1.49032 0
M  V30 6221 C 566.238 -0.000462935 1.92 0
M  V30 6222 O 567.439 -0.129622 2.68487 0
M  V30 6223 C 565.71 2.35868 2.68516 0
M  V30 6224 S 567.269 2.53799 3.57954 0
M  V30 6225 H 564.087 0.495849 0.509563 0
M  V30 6226 H 566.689 1.76541 0.839846 0
M  V30 6227 H 565.393 3.36375 2.35117 0
M  V30 6228 H 564.924 2.0049 3.38478 0
M  V30 6229 H 566.939 1.78859 4.62843 0
M  V30 6230 N 566.112 -0.949982 1.2575 0
M  V30 6231 C 567.523 -1.50989 1.09815 0
M  V30 6232 C 567.874 -1.93497 -0.324556 0
M  V30 6233 O 566.999 -1.79068 -1.21506 0
M  V30 6234 C 567.594 -2.74394 1.98729 0
M  V30 6235 C 566.153 -3.26682 1.86965 0
M  V30 6236 C 565.3 -1.99498 1.92603 0
M  V30 6237 H 568.251 -0.766387 1.38968 0
M  V30 6238 H 568.272 -3.48383 1.53001 0
M  V30 6239 H 567.784 -2.43425 3.02268 0
M  V30 6240 H 565.885 -3.62461 0.863279 0
M  V30 6241 H 565.998 -3.94383 2.72027 0
M  V30 6242 H 564.362 -2.15005 1.36546 0
M  V30 6243 H 565.145 -1.70871 2.97755 0
M  V30 6244 N 567.59 -1.07411 -1.15328 0
M  V30 6245 C 568.82 -0.817595 -1.89734 0
M  V30 6246 C 569.228 0.63297 -1.78298 0
M  V30 6247 O 568.571 1.44594 -1.13306 0
M  V30 6248 C 568.633 -1.14748 -3.40695 0
M  V30 6249 C 568.297 -2.59876 -3.75917 0
M  V30 6250 C 569.294 -3.58122 -3.76888 0
M  V30 6251 C 566.979 -2.95469 -4.06206 0
M  V30 6252 C 568.973 -4.89996 -4.07655 0
M  V30 6253 C 566.66 -4.2754 -4.36638 0
M  V30 6254 C 567.658 -5.24614 -4.37344 0
M  V30 6255 O 567.346 -6.54312 -4.67045 0
M  V30 6256 H 567.078 -0.295175 -0.608151 0
M  V30 6257 H 569.632 -1.43409 -1.47048 0
M  V30 6258 H 567.862 -0.47395 -3.83785 0
M  V30 6259 H 569.551 -0.873397 -3.96392 0
M  V30 6260 H 570.317 -3.31966 -3.53587 0
M  V30 6261 H 566.196 -2.20558 -4.04815 0
M  V30 6262 H 569.74 -5.65759 -4.08121 0
M  V30 6263 H 565.637 -4.53449 -4.59407 0
M  V30 6264 H 566.405 -6.59473 -4.84807 0
M  V30 6265 N 569.068 1.32177 -0.85831 0
M  V30 6266 C 570.316 1.96735 -0.462568 0
M  V30 6267 C 570.637 1.6824 0.985911 0
M  V30 6268 O 569.907 0.991564 1.68952 0
M  V30 6269 H 568.487 0.727849 -0.168064 0
M  V30 6270 H 571.149 1.61195 -1.09554 0
M  V30 6271 H 570.245 3.06068 -0.610647 0
M  V30 6272 N 570.547 0.616602 1.45037 0
M  V30 6273 C 571.793 0.123965 2.03022 0
M  V30 6274 C 572.148 -1.23508 1.47525 0
M  V30 6275 O 571.441 -1.80453 0.643981 0
M  V30 6276 C 571.635 0.0356829 3.57382 0
M  V30 6277 C 571.464 1.38462 4.27853 0
M  V30 6278 C 570.234 1.96766 4.65415 0
M  V30 6279 C 572.432 2.31536 4.59234 0
M  V30 6280 N 570.414 3.25046 5.20786 0
M  V30 6281 C 571.785 3.4442 5.15533 0
M  V30 6282 C 573.84 2.30796 4.41178 0
M  V30 6283 C 572.543 4.56742 5.55679 0
M  V30 6284 C 574.569 3.42171 4.82362 0
M  V30 6285 C 573.931 4.53778 5.38762 0
M  V30 6286 H 570.03 0.0889428 0.776925 0
M  V30 6287 H 572.614 0.816925 1.76733 0
M  V30 6288 H 570.785 -0.62652 3.83314 0
M  V30 6289 H 572.517 -0.464443 4.02026 0
M  V30 6290 H 569.272 1.4987 4.49261 0
M  V30 6291 H 569.696 3.90592 5.52962 0
M  V30 6292 H 574.338 1.45765 3.96878 0
M  V30 6293 H 572.056 5.42491 5.9894 0
M  V30 6294 H 575.642 3.42757 4.70116 0
M  V30 6295 H 574.522 5.38536 5.70043 0
M  V30 6296 N 572.025 -1.5352 0.356285 0
M  V30 6297 C 573.253 -2.05534 -0.237328 0
M  V30 6298 C 573.668 -1.23043 -1.43199 0
M  V30 6299 O 573.025 -0.268821 -1.80509 0
M  V30 6300 C 573.076 -3.55791 -0.639933 0
M  V30 6301 O 572.797 -4.35154 0.507233 0
M  V30 6302 C 574.298 -4.24027 -1.29292 0
M  V30 6303 H 571.518 -0.669585 -0.0435572 0
M  V30 6304 H 574.062 -1.97988 0.511963 0
M  V30 6305 H 572.217 -3.63518 -1.33915 0
M  V30 6306 H 572.631 -5.24178 0.18375 0
M  V30 6307 H 574.105 -5.30509 -1.52527 0
M  V30 6308 H 574.582 -3.77166 -2.25039 0
M  V30 6309 H 575.188 -4.20527 -0.63539 0
M  V30 6310 N 573.503 -0.0852151 -1.57369 0
M  V30 6311 C 574.78 0.622534 -1.85429 0
M  V30 6312 C 575.16 1.86962 -0.980229 0
M  V30 6313 O 574.508 2.28445 -0.0500219 0
M  V30 6314 C 574.718 0.947374 -3.35896 0
M  V30 6315 C 576.066 1.31509 -4.03721 0
M  V30 6316 O 577.09 1.03869 -3.40719 0
M  V30 6317 O 575.949 1.83231 -5.14868 0
M  V30 6318 H 573.043 0.310513 -0.766492 0
M  V30 6319 H 575.589 -0.117164 -1.69295 0
M  V30 6320 H 574.361 0.0622264 -3.91251 0
M  V30 6321 H 573.984 1.74338 -3.5734 0
M  V30 6322 N 574.981 1.5647 0.188427 0
M  V30 6323 C 576.227 1.82181 0.904534 0
M  V30 6324 C 576.582 0.663258 1.80606 0
M  V30 6325 O 575.875 -0.341231 1.88537 0
M  V30 6326 C 576.069 3.11596 1.7505 0
M  V30 6327 C 575.898 4.39928 0.932372 0
M  V30 6328 C 574.668 5.01554 0.61417 0
M  V30 6329 C 576.866 5.13527 0.281936 0
M  V30 6330 N 574.848 6.13499 -0.221896 0
M  V30 6331 C 576.219 6.18603 -0.416037 0
M  V30 6332 C 578.274 4.97505 0.198345 0
M  V30 6333 C 576.977 7.09394 -1.18965 0
M  V30 6334 C 579.003 5.88725 -0.561887 0
M  V30 6335 C 578.365 6.93251 -1.24828 0
M  V30 6336 H 574.464 0.717858 0.310168 0
M  V30 6337 H 577.048 1.93932 0.172757 0
M  V30 6338 H 575.219 3.01068 2.45383 0
M  V30 6339 H 576.951 3.25369 2.4066 0
M  V30 6340 H 573.706 4.64174 0.940187 0
M  V30 6341 H 574.13 6.74065 -0.629735 0
M  V30 6342 H 578.772 4.16716 0.714665 0
M  V30 6343 H 576.49 7.8964 -1.71737 0
M  V30 6344 H 580.076 5.78401 -0.628009 0
M  V30 6345 H 578.956 7.62618 -1.82712 0
M  V30 6346 N 576.459 -0.456382 1.50847 0
M  V30 6347 C 577.392 -1.57177 1.65441 0
M  V30 6348 C 578.37 -1.54649 0.502224 0
M  V30 6349 O 579.554 -1.74057 0.723633 0
M  V30 6350 C 576.681 -2.95763 1.65052 0
M  V30 6351 C 575.727 -3.16389 2.86007 0
M  V30 6352 S 576.56 -2.94716 4.47105 0
M  V30 6353 C 577.716 -4.35617 4.49432 0
M  V30 6354 H 577.949 -1.44561 2.59787 0
M  V30 6355 H 575.482 -0.644758 1.40293 0
M  V30 6356 H 577.44 -3.75654 1.65512 0
M  V30 6357 H 576.101 -3.05756 0.719153 0
M  V30 6358 H 575.294 -4.17667 2.82081 0
M  V30 6359 H 574.896 -2.44293 2.8319 0
M  V30 6360 H 577.188 -5.28503 4.239 0
M  V30 6361 H 578.131 -4.44582 5.51137 0
M  V30 6362 H 578.539 -4.18382 3.78967 0
M  V30 6363 N 577.937 -1.40673 -0.710563 0
M  V30 6364 C 579.183 -1.39428 -1.47267 0
M  V30 6365 C 579.516 0.00182129 -1.942 0
M  V30 6366 O 578.791 0.971387 -1.68506 0
M  V30 6367 C 579.074 -2.38812 -2.6952 0
M  V30 6368 C 578.927 -3.87467 -2.28449 0
M  V30 6369 C 580.246 -2.3566 -3.71689 0
M  V30 6370 H 577.365 -0.507768 -0.534173 0
M  V30 6371 H 580.007 -1.71843 -0.810547 0
M  V30 6372 H 578.157 -2.113 -3.26013 0
M  V30 6373 H 579.829 -4.25825 -1.77399 0
M  V30 6374 H 578.072 -4.03058 -1.60395 0
M  V30 6375 H 578.743 -4.5253 -3.16103 0
M  V30 6376 H 581.219 -2.6004 -3.24836 0
M  V30 6377 H 580.095 -3.07237 -4.54859 0
M  V30 6378 H 580.356 -1.36996 -4.20339 0
M  V30 6379 N 579.415 0.9433 -1.26252 0
M  V30 6380 C 580.64 1.72898 -1.14547 0
M  V30 6381 C 581.065 1.85761 0.295743 0
M  V30 6382 O 580.423 1.3463 1.21427 0
M  V30 6383 C 580.471 3.11471 -1.8171 0
M  V30 6384 O 579.575 3.97336 -1.10445 0
M  V30 6385 H 578.916 0.530555 -0.399259 0
M  V30 6386 H 581.446 1.18159 -1.67032 0
M  V30 6387 H 581.456 3.61872 -1.88449 0
M  V30 6388 H 580.131 3.01425 -2.86558 0
M  V30 6389 H 578.708 3.55788 -1.11666 0
M  V30 6390 N 580.893 1.08022 1.14757 0
M  V30 6391 C 582.142 0.802468 1.8505 0
M  V30 6392 C 582.455 -0.674061 1.83619 0
M  V30 6393 O 583.661 -1.06683 2.49662 0
M  V30 6394 C 582.117 1.38551 3.32162 0
M  V30 6395 C 581.725 2.89354 3.42021 0
M  V30 6396 C 583.469 1.18608 4.07594 0
M  V30 6397 C 581.376 3.40815 4.83321 0
M  V30 6398 H 580.306 0.296518 0.693248 0
M  V30 6399 H 582.957 1.30114 1.29393 0
M  V30 6400 H 581.339 0.814556 3.87532 0
M  V30 6401 H 582.513 3.52552 2.96722 0
M  V30 6402 H 580.828 3.08165 2.80041 0
M  V30 6403 H 583.425 1.54525 5.11885 0
M  V30 6404 H 583.768 0.125599 4.1611 0
M  V30 6405 H 584.301 1.72375 3.58513 0
M  V30 6406 H 581.04 4.46418 4.79991 0
M  V30 6407 H 580.56 2.82374 5.29174 0
M  V30 6408 H 582.239 3.37171 5.522 0
M  V30 6409 N 582.371 -1.3172 0.865308 0
M  V30 6410 C 583.303 -2.27545 0.274906 0
M  V30 6411 C 584.316 -1.52887 -0.559413 0
M  V30 6412 O 585.505 -1.74361 -0.382166 0
M  V30 6413 C 582.605 -3.33006 -0.629286 0
M  V30 6414 C 581.778 -4.37063 0.171553 0
M  V30 6415 C 580.837 -5.22044 -0.660052 0
M  V30 6416 O 579.863 -5.69129 -0.0897527 0
M  V30 6417 N 581.065 -5.45946 -1.97289 0
M  V30 6418 H 583.83 -2.78848 1.09836 0
M  V30 6419 H 581.391 -1.44693 0.726331 0
M  V30 6420 H 583.383 -3.86772 -1.19121 0
M  V30 6421 H 581.953 -2.81782 -1.35342 0
M  V30 6422 H 581.173 -3.83436 0.914919 0
M  V30 6423 H 582.461 -5.03662 0.721235 0
M  V30 6424 H 581.859 -5.0944 -2.45942 0
M  V30 6425 H 580.416 -6.02665 -2.4827 0
M  V30 6426 N 583.85 -0.624285 -1.44708 0
M  V30 6427 C 585.075 -0.131171 -2.06985 0
M  V30 6428 C 585.5 1.18234 -1.46295 0
M  V30 6429 O 584.858 1.72375 -0.561842 0
M  V30 6430 C 584.906 -0.0226724 -3.60593 0
M  V30 6431 O 584.01 1.02314 -3.99507 0
M  V30 6432 H 583.351 -0.0816556 -0.65896 0
M  V30 6433 H 585.88 -0.859027 -1.85693 0
M  V30 6434 H 585.891 0.170138 -4.07645 0
M  V30 6435 H 584.566 -0.981685 -4.04148 0
M  V30 6436 H 583.143 0.805452 -3.64097 0
M  V30 6437 N 585.328 1.53329 -0.364422 0
M  V30 6438 C 586.577 2.00421 0.226747 0
M  V30 6439 C 586.89 1.25581 1.49963 0
M  V30 6440 O 588.096 1.63256 2.16933 0
M  V30 6441 C 586.552 3.57017 0.454618 0
M  V30 6442 C 586.16 4.40734 -0.803568 0
M  V30 6443 C 587.904 4.12468 1.00351 0
M  V30 6444 C 585.811 5.8888 -0.545345 0
M  V30 6445 H 584.741 0.748787 0.0885082 0
M  V30 6446 H 587.392 1.7703 -0.482983 0
M  V30 6447 H 585.774 3.76558 1.22558 0
M  V30 6448 H 586.948 4.32967 -1.57723 0
M  V30 6449 H 585.263 3.96381 -1.27559 0
M  V30 6450 H 587.86 5.20783 1.212 0
M  V30 6451 H 588.203 3.6699 1.9653 0
M  V30 6452 H 588.736 3.96721 0.29274 0
M  V30 6453 H 585.475 6.38633 -1.47743 0
M  V30 6454 H 584.995 5.99499 0.189842 0
M  V30 6455 H 586.674 6.46776 -0.170425 0
M  V30 6456 N 586.806 0.0935595 1.57322 0
M  V30 6457 C 587.769 -0.851426 2.12799 0
M  V30 6458 C 588.769 -1.21187 1.0569 0
M  V30 6459 O 589.959 -1.14156 1.31583 0
M  V30 6460 C 587.091 -2.14779 2.64731 0
M  V30 6461 H 588.284 -0.369733 2.97612 0
M  V30 6462 H 585.837 -0.155417 1.55525 0
M  V30 6463 H 586.572 -2.67437 1.83434 0
M  V30 6464 H 586.357 -1.89907 3.43042 0
M  V30 6465 H 587.847 -2.82383 3.07651 0
M  V30 6466 N 588.284 -1.56567 -0.180126 0
M  V30 6467 C 589.194 -1.98947 -1.24327 0
M  V30 6468 C 590.21 -0.899446 -1.4895 0
M  V30 6469 O 591.386 -1.20639 -1.61271 0
M  V30 6470 C 588.451 -2.33328 -2.56435 0
M  V30 6471 C 587.512 -3.56114 -2.39752 0
M  V30 6472 C 586.745 -3.88845 -3.65561 0
M  V30 6473 O 586.968 -3.22662 -4.70368 0
M  V30 6474 O 585.902 -4.82226 -3.60197 0
M  V30 6475 H 589.728 -2.89634 -0.913565 0
M  V30 6476 H 587.313 -1.44319 -0.386306 0
M  V30 6477 H 589.195 -2.5645 -3.34382 0
M  V30 6478 H 587.87 -1.45806 -2.89002 0
M  V30 6479 H 586.777 -3.38221 -1.59866 0
M  V30 6480 H 588.11 -4.4415 -2.12113 0
M  V30 6481 N 589.762 0.448376 -1.51087 0
M  V30 6482 C 591.039 1.20926 -1.53741 0
M  V30 6483 C 591.419 2.09025 -0.295222 0
M  V30 6484 O 590.767 2.16851 0.720283 0
M  V30 6485 C 590.977 2.02067 -2.84552 0
M  V30 6486 C 592.325 2.59486 -3.36084 0
M  V30 6487 O 593.349 2.12289 -2.86028 0
M  V30 6488 O 592.208 3.45539 -4.23397 0
M  V30 6489 H 589.302 0.549951 -0.617643 0
M  V30 6490 H 591.848 0.458344 -1.63393 0
M  V30 6491 H 590.62 1.37291 -3.66425 0
M  V30 6492 H 590.243 2.84246 -2.78011 0
M  V30 6493 N 591.24 1.41047 0.703093 0
M  V30 6494 C 592.17 1.45067 1.82969 0
M  V30 6495 C 593.151 0.31016 1.67248 0
M  V30 6496 O 594.336 0.520548 1.87093 0
M  V30 6497 C 591.466 1.32478 3.2104 0
M  V30 6498 C 590.42 2.44262 3.51454 0
M  V30 6499 C 589.746 2.16742 4.88801 0
M  V30 6500 C 591.046 3.86606 3.51189 0
M  V30 6501 H 592.74 2.39353 1.79863 0
M  V30 6502 H 590.286 1.15206 0.863919 0
M  V30 6503 H 592.239 1.33904 3.99559 0
M  V30 6504 H 590.963 0.346735 3.24754 0
M  V30 6505 H 589.622 2.42107 2.75282 0
M  V30 6506 H 589.27 1.17299 4.89132 0
M  V30 6507 H 588.97 2.91643 5.10116 0
M  V30 6508 H 590.494 2.19872 5.69639 0
M  V30 6509 H 591.908 3.90517 4.19725 0
M  V30 6510 H 590.305 4.61128 3.84033 0
M  V30 6511 H 591.375 4.15296 2.50315 0
M  V30 6512 N 592.718 -0.936591 1.26751 0
M  V30 6513 C 593.964 -1.6858 1.12733 0
M  V30 6514 C 594.297 -1.91414 -0.327745 0
M  V30 6515 O 593.572 -1.49812 -1.24043 0
M  V30 6516 C 593.855 -3.05779 1.90187 0
M  V30 6517 C 593.708 -2.90242 3.43627 0
M  V30 6518 C 595.027 -4.0597 1.69931 0
M  V30 6519 H 592.146 -0.61182 0.410908 0
M  V30 6520 H 594.788 -1.08747 1.55801 0
M  V30 6521 H 592.938 -3.56853 1.53584 0
M  V30 6522 H 594.61 -2.46354 3.9001 0
M  V30 6523 H 592.853 -2.2577 3.70419 0
M  V30 6524 H 593.524 -3.87572 3.93055 0
M  V30 6525 H 596 -3.63874 2.0183 0
M  V30 6526 H 594.876 -4.99974 2.26534 0
M  V30 6527 H 595.137 -4.37369 0.64502 0
M  V30 6528 N 594.196 -1.08629 -1.14182 0
M  V30 6529 C 595.143 -0.718299 -2.19338 0
M  V30 6530 C 596.113 0.296587 -1.63431 0
M  V30 6531 O 597.298 0.180079 -1.89948 0
M  V30 6532 C 594.438 -0.136203 -3.44831 0
M  V30 6533 C 593.551 -1.20414 -4.14879 0
M  V30 6534 C 592.686 -0.585666 -5.27962 0
M  V30 6535 C 591.725 -1.63548 -5.89846 0
M  V30 6536 N 590.862 -1.03864 -6.94375 0
M  V30 6537 H 595.702 -1.61932 -2.50164 0
M  V30 6538 H 593.239 -0.80919 -1.22844 0
M  V30 6539 H 595.197 0.219021 -4.16625 0
M  V30 6540 H 593.827 0.728121 -3.14481 0
M  V30 6541 H 592.879 -1.67676 -3.41451 0
M  V30 6542 H 594.191 -1.99959 -4.56966 0
M  V30 6543 H 593.345 -0.178818 -6.06436 0
M  V30 6544 H 592.084 0.24142 -4.87102 0
M  V30 6545 H 591.089 -2.05197 -5.10073 0
M  V30 6546 H 592.314 -2.46509 -6.3278 0
M  V30 6547 H 590.26 -0.232687 -6.55587 0
M  V30 6548 H 590.177 -1.77116 -7.3496 0
M  V30 6549 H 591.445 -0.657724 -7.7672 0
M  V30 6550 N 595.674 1.31259 -0.872281 0
M  V30 6551 C 596.92 1.96913 -0.485083 0
M  V30 6552 C 597.253 1.68774 0.960667 0
M  V30 6553 O 596.528 0.985495 1.67685 0
M  V30 6554 C 596.811 3.52299 -0.745502 0
M  V30 6555 C 596.664 3.90002 -2.24095 0
M  V30 6556 C 597.983 4.39582 -0.213516 0
M  V30 6557 H 595.102 0.715252 -0.177716 0
M  V30 6558 H 597.744 1.55347 -1.09395 0
M  V30 6559 H 595.894 3.87835 -0.227276 0
M  V30 6560 H 597.566 3.64555 -2.82661 0
M  V30 6561 H 595.809 3.38526 -2.71261 0
M  V30 6562 H 596.48 4.98352 -2.37381 0
M  V30 6563 H 598.956 4.10882 -0.656902 0
M  V30 6564 H 597.832 5.47251 -0.42516 0
M  V30 6565 H 598.093 4.33158 0.884666 0
M  V30 6566 N 597.152 0.631951 1.44375 0
M  V30 6567 C 598.4 0.136497 2.01639 0
M  V30 6568 C 598.721 -1.24637 1.49969 0
M  V30 6569 O 597.991 -1.82827 0.70363 0
M  V30 6570 H 596.571 0.0474703 0.74549 0
M  V30 6571 H 599.233 0.818837 1.76865 0
M  V30 6572 H 598.329 0.104817 3.11924 0
M  V30 6573 N 598.631 -1.53133 0.372548 0
M  V30 6574 C 599.88 -2.00539 -0.216115 0
M  V30 6575 C 600.193 -1.26374 -1.49295 0
M  V30 6576 O 601.399 -1.64404 -2.16064 0
M  V30 6577 C 599.855 -3.57253 -0.435678 0
M  V30 6578 C 599.463 -4.40302 0.82693 0
M  V30 6579 C 601.207 -4.12995 -0.981618 0
M  V30 6580 C 599.114 -5.88583 0.576567 0
M  V30 6581 H 598.044 -0.749246 -0.084536 0
M  V30 6582 H 600.695 -1.76771 0.492364 0
M  V30 6583 H 599.077 -3.77202 -1.20559 0
M  V30 6584 H 600.251 -4.32124 1.60017 0
M  V30 6585 H 598.566 -3.95699 1.29659 0
M  V30 6586 H 601.163 -5.21418 -1.18436 0
M  V30 6587 H 601.506 -3.68027 -1.94581 0
M  V30 6588 H 602.039 -3.96871 -0.271696 0
M  V30 6589 H 598.778 -6.37841 1.51128 0
M  V30 6590 H 598.298 -5.99592 -0.158047 0
M  V30 6591 H 599.977 -6.46676 0.204722 0
M  V30 6592 N 600.109 -0.101901 -1.5727 0
M  V30 6593 C 601.057 0.872034 -2.15635 0
M  V30 6594 C 602.051 1.28742 -1.10099 0
M  V30 6595 O 603.257 1.26116 -1.28432 0
M  V30 6596 H 599.632 0.299269 -0.689886 0
M  V30 6597 H 601.603 0.355137 -2.96279 0
M  V30 6598 C 600.352 2.11886 -2.7568 0
M  V30 6599 H 599.675 1.80813 -3.56576 0
M  V30 6600 H 601.115 2.78077 -3.20077 0
M  V30 6601 C 599.574 2.89739 -1.7191 0
M  V30 6602 O 600.104 3.84522 -1.16213 0
M  V30 6603 N 598.31 2.53407 -1.42245 0
M  V30 6604 H 597.857 1.76398 -1.87727 0
M  V30 6605 H 597.815 3.05795 -0.730529 0
M  V30 6606 N 601.587 1.56661 0.17182 0
M  V30 6607 C 602.833 1.82235 0.889845 0
M  V30 6608 C 603.166 0.679673 1.81918 0
M  V30 6609 O 602.441 -0.318404 1.91876 0
M  V30 6610 C 602.724 3.18195 1.68595 0
M  V30 6611 C 602.577 4.42989 0.779773 0
M  V30 6612 C 603.896 3.5109 2.65375 0
M  V30 6613 H 601.015 0.66291 0.322056 0
M  V30 6614 H 603.657 1.89358 0.15608 0
M  V30 6615 H 601.807 3.12253 2.3115 0
M  V30 6616 H 603.479 4.60997 0.16714 0
M  V30 6617 H 601.722 4.33711 0.0877964 0
M  V30 6618 H 602.393 5.3467 1.3723 0
M  V30 6619 H 604.869 3.57482 2.12946 0
M  V30 6620 H 603.745 4.47298 3.18144 0
M  V30 6621 H 604.006 2.75768 3.45549 0
M  V30 6622 N 603.065 -0.440357 1.51323 0
M  V30 6623 C 603.975 -1.55955 1.75258 0
M  V30 6624 C 604.991 -1.61933 0.636687 0
M  V30 6625 O 606.167 -1.79231 0.918593 0
M  V30 6626 C 603.232 -2.9196 1.86977 0
M  V30 6627 C 602.293 -2.96122 3.10822 0
M  V30 6628 C 601.526 -4.2564 3.21973 0
M  V30 6629 O 601.749 -5.17851 2.39137 0
M  V30 6630 O 600.683 -4.36025 4.14929 0
M  V30 6631 H 604.509 -1.38673 2.70191 0
M  V30 6632 H 602.094 -0.623055 1.35788 0
M  V30 6633 H 603.976 -3.72682 1.96688 0
M  V30 6634 H 602.651 -3.09375 0.952307 0
M  V30 6635 H 601.558 -2.14366 3.06591 0
M  V30 6636 H 602.891 -2.83651 4.02247 0
M  V30 6637 N 604.543 -1.41418 -0.695603 0
M  V30 6638 C 605.954 -1.36335 -1.27552 0
M  V30 6639 C 606.305 -0.0464336 -1.96145 0
M  V30 6640 O 605.43 0.855304 -1.9878 0
M  V30 6641 C 606.025 -2.46941 -2.3196 0
M  V30 6642 C 604.584 -2.45256 -2.85529 0
M  V30 6643 C 603.731 -2.2679 -1.59566 0
M  V30 6644 H 606.682 -1.50934 -0.490362 0
M  V30 6645 H 606.703 -2.15997 -3.1325 0
M  V30 6646 H 606.215 -3.42775 -1.82008 0
M  V30 6647 H 604.316 -1.53179 -3.39657 0
M  V30 6648 H 604.429 -3.41565 -3.35961 0
M  V30 6649 H 602.793 -1.74667 -1.85374 0
M  V30 6650 H 603.576 -3.24651 -1.1161 0
M  V30 6651 N 606.021 0.929856 -1.27246 0
M  V30 6652 C 606.968 2.03017 -1.09785 0
M  V30 6653 C 607.938 1.661 0.000456744 0
M  V30 6654 O 609.123 1.90116 -0.161462 0
M  V30 6655 C 606.263 3.36878 -0.748816 0
M  V30 6656 C 605.376 3.86763 -1.92453 0
M  V30 6657 C 604.511 5.09061 -1.51758 0
M  V30 6658 C 603.55 5.51237 -2.66091 0
M  V30 6659 N 602.687 6.64732 -2.25999 0
M  V30 6660 H 607.527 2.17285 -2.03939 0
M  V30 6661 H 605.064 1.06448 -1.01524 0
M  V30 6662 H 607.022 4.13855 -0.527283 0
M  V30 6663 H 605.652 3.22424 0.155771 0
M  V30 6664 H 604.704 3.06086 -2.25867 0
M  V30 6665 H 606.016 4.13994 -2.78227 0
M  V30 6666 H 605.17 5.93532 -1.25716 0
M  V30 6667 H 603.909 4.83602 -0.630896 0
M  V30 6668 H 602.914 4.65316 -2.92849 0
M  V30 6669 H 604.139 5.78692 -3.55377 0
M  V30 6670 H 602.085 6.40935 -1.3978 0
M  V30 6671 H 602.002 6.91607 -3.05313 0
M  V30 6672 H 603.27 7.52549 -2.03199 0
M  V30 6673 N 607.499 1.09233 1.13605 0
M  V30 6674 C 608.729 0.847677 1.88409 0
M  V30 6675 C 609.137 -0.604524 1.79282 0
M  V30 6676 O 608.48 -1.42773 1.15592 0
M  V30 6677 C 608.542 1.20153 3.38827 0
M  V30 6678 C 608.206 2.65824 3.71735 0
M  V30 6679 C 609.203 3.64072 3.71143 0
M  V30 6680 C 606.888 3.01894 4.01454 0
M  V30 6681 C 608.882 4.96419 3.99808 0
M  V30 6682 C 606.569 4.34433 4.29781 0
M  V30 6683 C 607.567 5.31505 4.28942 0
M  V30 6684 O 607.255 6.61659 4.56576 0
M  V30 6685 H 606.987 0.304813 0.603378 0
M  V30 6686 H 609.541 1.4573 1.44748 0
M  V30 6687 H 607.771 0.534946 3.82982 0
M  V30 6688 H 609.46 0.936349 3.94952 0
M  V30 6689 H 610.226 3.37549 3.4826 0
M  V30 6690 H 606.105 2.26971 4.01255 0
M  V30 6691 H 609.649 5.7218 3.99069 0
M  V30 6692 H 605.546 4.607 4.52135 0
M  V30 6693 H 606.314 6.67102 4.74254 0
M  V30 6694 N 608.977 -1.30795 0.87923 0
M  V30 6695 C 610.388 -1.78535 0.546093 0
M  V30 6696 C 610.739 -1.72354 -0.937467 0
M  V30 6697 O 609.864 -1.2969 -1.73233 0
M  V30 6698 C 610.459 -3.24181 0.9845 0
M  V30 6699 C 609.018 -3.69779 0.702871 0
M  V30 6700 C 608.165 -2.51377 1.17068 0
M  V30 6701 H 611.116 -1.17746 1.06403 0
M  V30 6702 H 611.137 -3.79227 0.311045 0
M  V30 6703 H 610.649 -3.28647 2.06429 0
M  V30 6704 H 608.75 -3.70806 -0.365166 0
M  V30 6705 H 608.863 -4.61507 1.28639 0
M  V30 6706 H 607.227 -2.47768 0.590172 0
M  V30 6707 H 608.01 -2.58584 2.25808 0
M  V30 6708 N 610.455 -0.639598 -1.44038 0
M  V30 6709 C 611.732 -0.078012 -1.95444 0
M  V30 6710 C 612.112 1.39847 -1.58133 0
M  V30 6711 O 611.46 2.11714 -0.859614 0
M  V30 6712 C 611.67 -0.309832 -3.47622 0
M  V30 6713 C 613.018 -0.207521 -4.24093 0
M  V30 6714 O 614.042 -0.241653 -3.55379 0
M  V30 6715 O 612.901 -0.119641 -5.46369 0
M  V30 6716 H 609.995 0.0174534 -0.826816 0
M  V30 6717 H 612.541 -0.711891 -1.54046 0
M  V30 6718 H 611.313 -1.33401 -3.67858 0
M  V30 6719 H 610.936 0.357777 -3.95987 0
M  V30 6720 N 611.933 1.52934 -0.380664 0
M  V30 6721 C 613.163 2.05587 0.204302 0
M  V30 6722 C 613.571 1.25288 1.41773 0
M  V30 6723 O 612.914 0.290394 1.8139 0
M  V30 6724 C 612.976 3.53624 0.647324 0
M  V30 6725 C 612.64 4.54765 -0.451465 0
M  V30 6726 C 613.637 5.03226 -1.30614 0
M  V30 6727 C 611.322 4.98508 -0.616025 0
M  V30 6728 C 613.316 5.94046 -2.31058 0
M  V30 6729 C 611.003 5.89131 -1.62381 0
M  V30 6730 C 612.001 6.36792 -2.46952 0
M  V30 6731 O 611.689 7.25626 -3.46009 0
M  V30 6732 H 611.421 0.675013 0.0365198 0
M  V30 6733 H 613.975 1.98125 -0.541827 0
M  V30 6734 H 612.205 3.58676 1.44529 0
M  V30 6735 H 613.894 3.89061 1.15698 0
M  V30 6736 H 614.66 4.70167 -1.19027 0
M  V30 6737 H 610.539 4.60989 0.0324987 0
M  V30 6738 H 614.083 6.3117 -2.97104 0
M  V30 6739 H 609.98 6.21603 -1.7401 0
M  V30 6740 H 610.748 7.43664 -3.41916 0
M  V30 6741 N 613.412 0.11024 1.57214 0
M  V30 6742 C 614.637 -0.561179 1.99664 0
M  V30 6743 C 615.062 -1.59985 0.989266 0
M  V30 6744 O 614.42 -1.81255 -0.0402399 0
M  V30 6745 C 614.468 -1.17189 3.41027 0
M  V30 6746 O 613.572 -2.28755 3.4314 0
M  V30 6747 H 612.913 -0.14101 0.648855 0
M  V30 6748 H 615.443 0.196128 2.03658 0
M  V30 6749 H 615.453 -1.50954 3.79047 0
M  V30 6750 H 614.128 -0.411041 4.13864 0
M  V30 6751 H 612.705 -1.96495 3.16929 0
M  V30 6752 N 614.89 -1.56749 -0.16351 0
M  V30 6753 C 615.837 -1.97011 -1.2023 0
M  V30 6754 C 616.807 -0.835186 -1.43575 0
M  V30 6755 O 617.992 -1.09594 -1.56185 0
M  V30 6756 C 615.132 -2.34186 -2.53478 0
M  V30 6757 C 614.245 -3.60893 -2.37446 0
M  V30 6758 C 613.38 -3.87245 -3.63614 0
M  V30 6759 C 612.419 -5.07274 -3.42548 0
M  V30 6760 N 611.556 -5.29719 -4.60806 0
M  V30 6761 H 616.396 -2.85562 -0.851958 0
M  V30 6762 H 613.933 -1.41292 -0.409257 0
M  V30 6763 H 615.891 -2.53764 -3.31149 0
M  V30 6764 H 614.521 -1.48736 -2.86492 0
M  V30 6765 H 613.573 -3.49185 -1.50911 0
M  V30 6766 H 614.885 -4.48722 -2.1783 0
M  V30 6767 H 614.039 -4.07232 -4.49719 0
M  V30 6768 H 612.778 -2.97806 -3.86216 0
M  V30 6769 H 611.783 -4.87177 -2.5483 0
M  V30 6770 H 613.008 -5.98251 -3.2136 0
M  V30 6771 H 610.954 -4.43233 -4.83612 0
M  V30 6772 H 610.871 -6.11786 -4.44132 0
M  V30 6773 H 612.139 -5.54192 -5.48171 0
M  V30 6774 N 616.368 0.432326 -1.51554 0
M  V30 6775 C 617.598 1.2019 -1.68042 0
M  V30 6776 C 618.006 1.85356 -0.379434 0
M  V30 6777 O 617.349 1.71724 0.652427 0
M  V30 6778 C 617.411 2.32387 -2.74292 0
M  V30 6779 C 617.075 1.87548 -4.16743 0
M  V30 6780 C 618.072 1.37611 -5.01357 0
M  V30 6781 C 615.757 1.95087 -4.62868 0
M  V30 6782 C 617.751 0.958069 -6.30159 0
M  V30 6783 C 615.438 1.52894 -5.91664 0
M  V30 6784 C 616.436 1.03336 -6.75137 0
M  V30 6785 O 616.124 0.617435 -8.01525 0
M  V30 6786 H 615.856 0.368132 -0.56697 0
M  V30 6787 H 618.41 0.517875 -1.98764 0
M  V30 6788 H 616.64 3.04082 -2.38895 0
M  V30 6789 H 618.329 2.94235 -2.79608 0
M  V30 6790 H 619.095 1.31178 -4.66923 0
M  V30 6791 H 614.974 2.32606 -3.98015 0
M  V30 6792 H 618.518 0.570562 -6.95263 0
M  V30 6793 H 614.415 1.58999 -6.25611 0
M  V30 6794 H 615.183 0.742835 -8.15122 0
M  V30 6795 N 617.846 1.41785 0.688094 0
M  V30 6796 C 618.809 1.43936 1.78368 0
M  V30 6797 C 619.809 0.328866 1.57401 0
M  V30 6798 O 620.999 0.589093 1.63937 0
M  V30 6799 C 618.131 1.25804 3.16838 0
M  V30 6800 H 619.324 2.41472 1.77852 0
M  V30 6801 H 616.877 1.28037 0.896448 0
M  V30 6802 H 617.612 0.291386 3.22988 0
M  V30 6803 H 617.397 2.06272 3.33458 0
M  V30 6804 H 618.887 1.30162 3.96797 0
M  V30 6805 N 619.324 -0.923095 1.27737 0
M  V30 6806 C 620.601 -1.64989 1.05062 0
M  V30 6807 C 620.981 -2.07018 -0.413124 0
M  V30 6808 O 620.329 -1.80797 -1.39731 0
M  V30 6809 C 620.539 -2.84847 2.01652 0
M  V30 6810 C 621.887 -3.56083 2.31279 0
M  V30 6811 O 622.911 -2.94981 1.99662 0
M  V30 6812 O 621.77 -4.66182 2.85196 0
M  V30 6813 H 618.864 -0.723357 0.400853 0
M  V30 6814 H 621.41 -0.973224 1.3902 0
M  V30 6815 H 620.182 -2.50814 3.00347 0
M  V30 6816 H 619.805 -3.60231 1.68284 0
M  V30 6817 N 620.802 -1.09834 -1.13024 0
M  V30 6818 C 622.079 -0.749225 -1.80682 0
M  V30 6819 C 622.459 0.765171 -1.96744 0
M  V30 6820 O 621.807 1.68912 -1.53886 0
M  V30 6821 C 622.017 -1.49311 -3.15448 0
M  V30 6822 C 623.365 -1.66162 -3.90737 0
M  V30 6823 O 624.389 -1.45597 -3.25085 0
M  V30 6824 O 623.248 -2.00211 -5.08505 0
M  V30 6825 H 620.342 -0.269614 -0.781817 0
M  V30 6826 H 622.888 -1.20078 -1.19914 0
M  V30 6827 H 621.66 -2.52407 -2.99009 0
M  V30 6828 H 621.283 -1.034 -3.8392 0
M  V30 6829 N 622.28 1.30327 -0.886154 0
M  V30 6830 C 623.21 2.30549 -0.370028 0
M  V30 6831 C 624.191 1.61039 0.547751 0
M  V30 6832 O 625.376 1.8864 0.461353 0
M  V30 6833 C 622.506 3.44808 0.415275 0
M  V30 6834 C 621.46 4.26024 -0.41085 0
M  V30 6835 C 620.786 5.32347 0.501128 0
M  V30 6836 C 622.086 4.95433 -1.65359 0
M  V30 6837 H 623.78 2.73969 -1.20754 0
M  V30 6838 H 621.326 1.3171 -0.582097 0
M  V30 6839 H 623.279 4.13986 0.78699 0
M  V30 6840 H 622.003 3.00197 1.28644 0
M  V30 6841 H 620.662 3.58535 -0.764719 0
M  V30 6842 H 620.31 4.83982 1.37004 0
M  V30 6843 H 620.01 5.87581 -0.0478356 0
M  V30 6844 H 621.534 6.0438 0.869333 0
M  V30 6845 H 622.948 5.5712 -1.35239 0
M  V30 6846 H 621.345 5.60537 -2.14284 0
M  V30 6847 H 622.415 4.21493 -2.39733 0
M  V30 6848 N 623.758 0.647228 1.43697 0
M  V30 6849 C 624.988 0.16551 2.05936 0
M  V30 6850 C 625.396 -1.17164 1.48557 0
M  V30 6851 O 624.739 -1.73307 0.60914 0
M  V30 6852 C 624.801 -0.00648082 3.59499 0
M  V30 6853 C 624.465 1.25503 4.39429 0
M  V30 6854 C 625.462 2.18241 4.71876 0
M  V30 6855 C 623.147 1.49494 4.79538 0
M  V30 6856 C 625.141 3.33268 5.43333 0
M  V30 6857 C 622.828 2.64815 5.50742 0
M  V30 6858 C 623.826 3.56528 5.82561 0
M  V30 6859 O 623.514 4.69836 6.52311 0
M  V30 6860 H 623.246 0.0844124 0.670709 0
M  V30 6861 H 625.8 0.88638 1.8529 0
M  V30 6862 H 624.03 -0.782661 3.78697 0
M  V30 6863 H 625.719 -0.444794 4.03456 0
M  V30 6864 H 626.485 2.00946 4.41413 0
M  V30 6865 H 622.364 0.789912 4.54182 0
M  V30 6866 H 625.908 4.04874 5.68087 0
M  V30 6867 H 621.805 2.82047 5.8062 0
M  V30 6868 H 622.573 4.69024 6.70789 0
M  V30 6869 N 625.236 -1.5273 0.388769 0
M  V30 6870 C 626.484 -2.01174 -0.193208 0
M  V30 6871 C 626.805 -1.27705 -1.47365 0
M  V30 6872 O 626.075 -0.396966 -1.91836 0
M  V30 6873 H 624.655 -0.743287 -0.0743871 0
M  V30 6874 H 627.317 -1.87826 0.520336 0
M  V30 6875 H 626.413 -3.09477 -0.403803 0
M  V30 6876 N 626.714 -0.118576 -1.57153 0
M  V30 6877 C 627.962 0.538461 -1.94795 0
M  V30 6878 C 628.283 1.67243 -1.00274 0
M  V30 6879 O 627.553 1.95811 -0.0589692 0
M  V30 6880 H 626.133 0.201904 -0.719197 0
M  V30 6881 H 628.795 -0.187418 -1.93997 0
M  V30 6882 H 627.891 0.933315 -2.97818 0
M  V30 6883 N 628.193 1.56834 0.155195 0
M  V30 6884 C 629.14 1.97646 1.19184 0
M  V30 6885 C 630.11 0.842788 1.4313 0
M  V30 6886 O 631.295 1.1042 1.55602 0
M  V30 6887 C 628.435 2.35527 2.52232 0
M  V30 6888 C 627.548 3.62147 2.35529 0
M  V30 6889 C 626.683 3.89167 3.61555 0
M  V30 6890 C 625.722 5.09084 3.39853 0
M  V30 6891 N 624.859 5.32156 4.5799 0
M  V30 6892 H 629.699 2.8601 0.836802 0
M  V30 6893 H 627.236 1.41507 0.401758 0
M  V30 6894 H 629.194 2.55516 3.29799 0
M  V30 6895 H 627.824 1.50253 2.85699 0
M  V30 6896 H 626.876 3.4998 1.49057 0
M  V30 6897 H 628.188 4.49871 2.15448 0
M  V30 6898 H 627.342 4.09611 4.47553 0
M  V30 6899 H 626.081 2.9985 3.84632 0
M  V30 6900 H 625.086 4.88522 2.52243 0
M  V30 6901 H 626.311 5.99947 3.18183 0
M  V30 6902 H 624.257 4.45791 4.81255 0
M  V30 6903 H 624.174 6.14133 4.40882 0
M  V30 6904 H 625.442 5.57091 5.45225 0
M  V30 6905 N 629.671 -0.424282 1.51781 0
M  V30 6906 C 630.918 -1.1726 1.65095 0
M  V30 6907 C 631.246 -1.90881 0.373477 0
M  V30 6908 O 630.501 -1.84835 -0.642997 0
M  V30 6909 C 630.8 -2.20418 2.81337 0
M  V30 6910 C 630.466 -1.63715 4.20129 0
M  V30 6911 C 629.128 -1.47975 4.57883 0
M  V30 6912 C 631.48 -1.22157 5.06682 0
M  V30 6913 C 628.808 -0.891703 5.79884 0
M  V30 6914 C 631.16 -0.647767 6.29275 0
M  V30 6915 C 629.824 -0.477371 6.65791 0
M  V30 6916 H 629.094 -0.429085 0.604125 0
M  V30 6917 H 631.741 -0.461852 1.85847 0
M  V30 6918 H 630.046 -2.97581 2.54859 0
M  V30 6919 H 631.743 -2.78163 2.88836 0
M  V30 6920 H 628.333 -1.76946 3.90369 0
M  V30 6921 H 632.517 -1.33133 4.7811 0
M  V30 6922 H 627.773 -0.747563 6.06813 0
M  V30 6923 H 631.947 -0.317291 6.95677 0
M  V30 6924 H 629.574 -0.0195936 7.60197 0
M  V30 6925 N 631.149 -1.42148 -0.680565 0
M  V30 6926 C 632.426 -1.32795 -1.43614 0
M  V30 6927 C 632.806 0.037415 -2.11067 0
M  V30 6928 O 632.154 1.05258 -2.02813 0
M  V30 6929 C 632.364 -2.49206 -2.44331 0
M  V30 6930 C 633.712 -2.91059 -3.09144 0
M  V30 6931 O 634.736 -2.49054 -2.54657 0
M  V30 6932 O 633.595 -3.63741 -4.07866 0
M  V30 6933 H 630.689 -0.523397 -0.640301 0
M  V30 6934 H 633.235 -1.54144 -0.709775 0
M  V30 6935 H 632.007 -3.40252 -1.93247 0
M  V30 6936 H 631.63 -2.29813 -3.24456 0
M  V30 6937 N 632.627 0.916307 -1.28225 0
M  V30 6938 C 633.557 2.0352 -1.14464 0
M  V30 6939 C 634.538 1.70045 -0.0430844 0
M  V30 6940 O 635.723 1.92954 -0.219619 0
M  V30 6941 C 632.853 3.37889 -0.803027 0
M  V30 6942 C 631.807 3.85516 -1.85908 0
M  V30 6943 C 631.133 5.1682 -1.37116 0
M  V30 6944 C 632.433 4.07655 -3.26519 0
M  V30 6945 H 634.127 2.1529 -2.08064 0
M  V30 6946 H 631.673 1.03446 -1.00174 0
M  V30 6947 H 633.626 4.15654 -0.693537 0
M  V30 6948 H 632.35 3.26164 0.168674 0
M  V30 6949 H 631.009 3.09953 -1.95767 0
M  V30 6950 H 630.657 5.01497 -0.38859 0
M  V30 6951 H 630.357 5.49657 -2.07728 0
M  V30 6952 H 631.881 5.97143 -1.27484 0
M  V30 6953 H 633.295 4.75953 -3.19596 0
M  V30 6954 H 631.692 4.51818 -3.94943 0
M  V30 6955 H 632.762 3.12553 -3.70727 0
M  V30 6956 N 634.105 1.10431 1.1244 0
M  V30 6957 C 635.354 0.841539 1.83306 0
M  V30 6958 C 635.667 -0.634961 1.85007 0
M  V30 6959 O 636.873 -1.01363 2.51869 0
M  V30 6960 C 635.329 1.45565 3.29149 0
M  V30 6961 C 634.937 2.96544 3.35806 0
M  V30 6962 C 636.681 1.27227 4.04986 0
M  V30 6963 C 634.588 3.5099 4.75983 0
M  V30 6964 H 633.518 0.311156 0.686803 0
M  V30 6965 H 636.169 1.32829 1.26604 0
M  V30 6966 H 634.551 0.896574 3.85717 0
M  V30 6967 H 635.725 3.58766 2.89177 0
M  V30 6968 H 634.04 3.14036 2.73442 0
M  V30 6969 H 636.637 1.65348 5.08492 0
M  V30 6970 H 636.98 0.213834 4.1575 0
M  V30 6971 H 637.513 1.79941 3.54776 0
M  V30 6972 H 634.252 4.56499 4.70413 0
M  V30 6973 H 633.772 2.93535 5.23065 0
M  V30 6974 H 635.451 3.48808 5.44924 0
M  V30 6975 N 635.583 -1.29855 0.893053 0
M  V30 6976 C 636.513 -2.3035 0.382249 0
M  V30 6977 C 637.494 -1.61328 -0.539203 0
M  V30 6978 O 638.679 -1.88882 -0.451342 0
M  V30 6979 C 635.809 -3.45024 -0.396983 0
M  V30 6980 C 634.763 -4.258 0.433437 0
M  V30 6981 C 634.089 -5.32605 -0.472889 0
M  V30 6982 C 635.389 -4.94549 1.67984 0
M  V30 6983 H 637.083 -2.73325 1.22205 0
M  V30 6984 H 634.629 -1.314 0.589073 0
M  V30 6985 H 636.582 -4.14398 -0.765024 0
M  V30 6986 H 635.306 -3.00875 -1.2705 0
M  V30 6987 H 633.965 -3.58125 0.783723 0
M  V30 6988 H 633.613 -4.84702 -1.34435 0
M  V30 6989 H 633.313 -5.87547 0.0789958 0
M  V30 6990 H 634.837 -6.04832 -0.837269 0
M  V30 6991 H 636.251 -5.56395 1.38192 0
M  V30 6992 H 634.648 -5.59393 2.17254 0
M  V30 6993 H 635.718 -4.20215 2.41965 0
M  V30 6994 N 637.061 -0.65484 -1.43351 0
M  V30 6995 C 638.009 0.0476784 -2.32551 0
M  V30 6996 C 639.003 0.811403 -1.48703 0
M  V30 6997 O 640.209 0.721621 -1.64902 0
M  V30 6998 H 636.584 0.0342038 -0.751222 0
M  V30 6999 H 638.555 -0.722342 -2.89525 0
M  V30 7000 C 637.304 0.999251 -3.33032 0
M  V30 7001 H 636.627 0.421005 -3.97577 0
M  V30 7002 H 638.067 1.45986 -3.98076 0
M  V30 7003 C 636.526 2.09606 -2.63756 0
M  V30 7004 O 637.056 3.18004 -2.4543 0
M  V30 7005 N 635.262 1.86207 -2.23103 0
M  V30 7006 H 634.809 0.980555 -2.38208 0
M  V30 7007 H 634.767 2.59787 -1.77081 0
M  V30 7008 N 638.539 1.52521 -0.396863 0
M  V30 7009 C 639.487 2.28217 0.44943 0
M  V30 7010 C 640.481 1.32416 1.05652 0
M  V30 7011 O 641.687 1.49925 0.996124 0
M  V30 7012 H 638.062 0.733966 0.1637 0
M  V30 7013 H 640.033 2.97658 -0.210367 0
M  V30 7014 C 638.782 3.10713 1.56054 0
M  V30 7015 H 638.105 3.84291 1.10273 0
M  V30 7016 H 639.545 3.66803 2.12677 0
M  V30 7017 C 638.004 2.23499 2.52091 0
M  V30 7018 O 638.534 1.8669 3.55682 0
M  V30 7019 N 636.74 1.8751 2.2201 0
M  V30 7020 H 636.287 2.17643 1.37802 0
M  V30 7021 H 636.245 1.29448 2.86514 0
M  V30 7022 N 640.017 0.126909 1.57088 0
M  V30 7023 C 641.264 -0.529168 1.95464 0
M  V30 7024 C 641.592 -1.6618 1.01067 0
M  V30 7025 O 640.847 -1.95667 0.0360254 0
M  V30 7026 C 641.146 -1.095 3.40212 0
M  V30 7027 C 640.812 -0.0829015 4.50824 0
M  V30 7028 C 639.474 0.195377 4.80803 0
M  V30 7029 C 641.826 0.606411 5.1766 0
M  V30 7030 C 639.154 1.16912 5.74933 0
M  V30 7031 C 641.506 1.56884 6.12838 0
M  V30 7032 C 640.17 1.85502 6.41206 0
M  V30 7033 H 639.44 -0.193636 0.715252 0
M  V30 7034 H 642.087 0.209489 1.90351 0
M  V30 7035 H 640.392 -1.91058 3.42059 0
M  V30 7036 H 642.089 -1.61087 3.67222 0
M  V30 7037 H 638.679 -0.309979 4.27478 0
M  V30 7038 H 642.863 0.404597 4.94648 0
M  V30 7039 H 638.119 1.3975 5.95214 0
M  V30 7040 H 642.293 2.10859 6.6371 0
M  V30 7041 H 639.92 2.61109 7.13951 0
M  V30 7042 N 641.495 -1.56914 -0.146875 0
M  V30 7043 C 642.723 -1.87515 -0.874394 0
M  V30 7044 C 643.138 -0.715116 -1.74733 0
M  V30 7045 O 642.495 0.315113 -1.79759 0
M  V30 7046 C 642.546 -3.17362 -1.731 0
M  V30 7047 O 642.267 -4.28897 -0.893245 0
M  V30 7048 C 643.768 -3.61479 -2.56609 0
M  V30 7049 H 640.988 -0.621546 -0.252827 0
M  V30 7050 H 643.532 -2.04023 -0.139627 0
M  V30 7051 H 641.687 -3.02608 -2.41883 0
M  V30 7052 H 642.101 -5.03146 -1.48137 0
M  V30 7053 H 643.575 -4.5517 -3.12289 0
M  V30 7054 H 644.052 -2.86773 -3.32653 0
M  V30 7055 H 644.658 -3.78927 -1.93117 0
M  V30 7056 N 642.974 0.416227 -1.52004 0
M  V30 7057 C 644.202 1.18573 -1.69553 0
M  V30 7058 C 644.617 1.84472 -0.401919 0
M  V30 7059 O 643.974 1.71593 0.621463 0
M  V30 7060 C 644.025 2.25413 -2.82615 0
M  V30 7061 O 643.746 1.62205 -4.06966 0
M  V30 7062 C 645.247 3.15297 -3.11613 0
M  V30 7063 H 642.467 0.356582 -0.56841 0
M  V30 7064 H 645.011 0.490618 -1.98528 0
M  V30 7065 H 643.166 2.90604 -2.56179 0
M  V30 7066 H 643.58 2.3298 -4.69916 0
M  V30 7067 H 645.054 3.86351 -3.94255 0
M  V30 7068 H 645.531 3.77264 -2.24874 0
M  V30 7069 H 646.137 2.55783 -3.39787 0
M  V30 7070 N 644.452 1.42507 0.673017 0
M  V30 7071 C 645.7 1.42789 1.43023 0
M  V30 7072 C 646.021 0.0459738 1.94946 0
M  V30 7073 O 645.291 -0.915765 1.73178 0
M  V30 7074 H 643.871 0.525657 0.530748 0
M  V30 7075 H 646.533 1.77944 0.795113 0
M  V30 7076 H 645.629 2.12872 2.28237 0
M  V30 7077 N 645.93 -0.909495 1.28709 0
M  V30 7078 C 647.176 -1.66151 1.16283 0
M  V30 7079 C 647.509 -1.92067 -0.287069 0
M  V30 7080 O 646.784 -1.52409 -1.20837 0
M  V30 7081 C 647.067 -3.01676 1.9663 0
M  V30 7082 C 646.92 -2.82888 3.49707 0
M  V30 7083 C 648.239 -4.02274 1.78504 0
M  V30 7084 H 645.358 -0.602966 0.423793 0
M  V30 7085 H 648 -1.05418 1.58073 0
M  V30 7086 H 646.15 -3.53515 1.61119 0
M  V30 7087 H 647.822 -2.38026 3.95147 0
M  V30 7088 H 646.065 -2.17862 3.75125 0
M  V30 7089 H 646.736 -3.79147 4.01187 0
M  V30 7090 H 649.212 -3.59511 2.09503 0
M  V30 7091 H 648.088 -4.95056 2.37088 0
M  V30 7092 H 648.349 -4.35903 0.737647 0
M  V30 7093 N 647.408 -1.11026 -1.11852 0
M  V30 7094 C 648.633 -0.879064 -1.87849 0
M  V30 7095 C 649.058 0.565406 -1.79401 0
M  V30 7096 O 648.416 1.39886 -1.15333 0
M  V30 7097 C 648.464 -1.33985 -3.34784 0
M  V30 7098 O 647.568 -0.508803 -4.09249 0
M  V30 7099 H 646.909 -0.316992 -0.583448 0
M  V30 7100 H 649.439 -1.47863 -1.41413 0
M  V30 7101 H 649.449 -1.33248 -3.85628 0
M  V30 7102 H 648.124 -2.39172 -3.40249 0
M  V30 7103 H 646.701 -0.581913 -3.68332 0
M  V30 7104 N 648.886 1.2938 -0.899927 0
M  V30 7105 C 649.849 2.25983 -0.382677 0
M  V30 7106 C 650.849 1.53366 0.483259 0
M  V30 7107 O 652.039 1.71798 0.28828 0
M  V30 7108 C 649.171 3.37878 0.452915 0
M  V30 7109 H 650.364 2.73252 -1.23586 0
M  V30 7110 H 647.917 1.40825 -0.678088 0
M  V30 7111 H 648.652 2.95949 1.32608 0
M  V30 7112 H 648.437 3.91742 -0.167562 0
M  V30 7113 H 649.927 4.09746 0.806107 0
M  V30 7114 N 650.364 0.662433 1.43002 0
M  V30 7115 C 651.592 0.187615 2.06048 0
M  V30 7116 C 652.007 -1.15039 1.49705 0
M  V30 7117 O 651.364 -1.71209 0.631956 0
M  V30 7118 C 651.415 0.100498 3.6136 0
M  V30 7119 O 651.136 1.38562 4.15611 0
M  V30 7120 C 652.637 -0.399298 4.41498 0
M  V30 7121 H 649.857 0.0941675 0.664359 0
M  V30 7122 H 652.401 0.905681 1.83351 0
M  V30 7123 H 650.556 -0.568181 3.83211 0
M  V30 7124 H 650.97 1.25084 5.09366 0
M  V30 7125 H 652.444 -0.409187 5.50481 0
M  V30 7126 H 652.921 -1.43232 4.15188 0
M  V30 7127 H 653.527 0.23721 4.24638 0
M  V30 7128 N 651.842 -1.52309 0.404946 0
M  V30 7129 C 653.091 -2.00952 -0.173529 0
M  V30 7130 C 653.404 -1.29512 -1.46581 0
M  V30 7131 O 654.61 -1.6895 -2.12528 0
M  V30 7132 C 653.066 -3.58097 -0.359801 0
M  V30 7133 C 652.674 -4.38449 0.920138 0
M  V30 7134 C 654.418 -4.14984 -0.893794 0
M  V30 7135 C 652.325 -5.87227 0.701285 0
M  V30 7136 H 651.255 -0.750871 -0.0686244 0
M  V30 7137 H 653.906 -1.75687 0.529749 0
M  V30 7138 H 652.288 -3.79675 -1.12531 0
M  V30 7139 H 653.462 -4.28633 1.69147 0
M  V30 7140 H 651.777 -3.92859 1.38024 0
M  V30 7141 H 654.374 -5.23813 -1.0735 0
M  V30 7142 H 654.717 -3.72072 -1.8673 0
M  V30 7143 H 655.25 -3.97358 -0.187453 0
M  V30 7144 H 651.989 -6.34491 1.64624 0
M  V30 7145 H 651.509 -5.99792 -0.0308288 0
M  V30 7146 H 653.188 -6.46096 0.341846 0
M  V30 7147 N 653.32 -0.135238 -1.57019 0
M  V30 7148 C 654.566 0.513232 -1.96818 0
M  V30 7149 C 654.921 1.63245 -1.01827 0
M  V30 7150 O 654.214 1.91532 -0.0511756 0
M  V30 7151 C 654.408 1.07694 -3.40788 0
M  V30 7152 C 654.237 0.0138667 -4.49698 0
M  V30 7153 C 653.007 -0.423532 -5.03522 0
M  V30 7154 C 655.205 -0.77322 -5.08454 0
M  V30 7155 N 653.187 -1.47068 -5.96024 0
M  V30 7156 C 654.558 -1.67115 -5.97053 0
M  V30 7157 C 656.613 -0.822313 -4.91063 0
M  V30 7158 C 655.316 -2.61395 -6.70123 0
M  V30 7159 C 657.342 -1.75288 -5.64826 0
M  V30 7160 C 656.704 -2.63836 -6.53123 0
M  V30 7161 H 652.803 0.156956 -0.766087 0
M  V30 7162 H 655.387 -0.227118 -1.93371 0
M  V30 7163 H 653.558 1.78694 -3.44852 0
M  V30 7164 H 655.29 1.69106 -3.67675 0
M  V30 7165 H 652.045 -0.0280202 -4.73592 0
M  V30 7166 H 652.469 -1.99366 -6.46979 0
M  V30 7167 H 657.111 -0.151822 -4.22527 0
M  V30 7168 H 654.829 -3.2945 -7.37895 0
M  V30 7169 H 658.415 -1.79652 -5.53368 0
M  V30 7170 H 657.295 -3.34672 -7.092 0
M  V30 7171 N 654.798 1.5699 0.138552 0
M  V30 7172 C 656.023 1.88344 0.86841 0
M  V30 7173 C 656.448 0.725159 1.7356 0
M  V30 7174 O 655.806 -0.324992 1.78363 0
M  V30 7175 C 655.854 3.18334 1.69398 0
M  V30 7176 O 654.958 3.02863 2.79907 0
M  V30 7177 H 654.299 0.618577 0.241367 0
M  V30 7178 H 656.829 2.04207 0.126826 0
M  V30 7179 H 656.839 3.50567 2.08726 0
M  V30 7180 H 655.514 4.02238 1.05725 0
M  V30 7181 H 654.091 2.82056 2.43924 0
M  V30 7182 N 656.276 -0.40816 1.52223 0
M  V30 7183 C 657.506 -1.17501 1.69932 0
M  V30 7184 C 657.914 -1.84729 0.408874 0
M  V30 7185 O 657.257 -1.7274 -0.625025 0
M  V30 7186 C 657.319 -2.27994 2.77955 0
M  V30 7187 C 656.983 -1.80894 4.19674 0
M  V30 7188 C 657.98 -1.29618 5.03483 0
M  V30 7189 C 655.665 -1.87698 4.65913 0
M  V30 7190 C 657.659 -0.857695 6.31603 0
M  V30 7191 C 655.346 -1.43461 5.94022 0
M  V30 7192 C 656.344 -0.925822 6.76696 0
M  V30 7193 O 656.032 -0.489841 8.02406 0
M  V30 7194 H 655.764 -0.359065 0.572755 0
M  V30 7195 H 658.318 -0.486188 1.99563 0
M  V30 7196 H 656.548 -3.00243 2.43703 0
M  V30 7197 H 658.237 -2.89749 2.84254 0
M  V30 7198 H 659.003 -1.23733 4.68951 0
M  V30 7199 H 654.882 -2.26244 4.01665 0
M  V30 7200 H 658.426 -0.459879 6.96083 0
M  V30 7201 H 654.323 -1.49026 6.28062 0
M  V30 7202 H 655.091 -0.613062 8.16201 0
M  V30 7203 N 657.755 -1.42862 -0.66545 0
M  V30 7204 C 659.002 -1.4383 -1.42546 0
M  V30 7205 C 659.33 -0.0581114 -1.94413 0
M  V30 7206 O 658.585 0.935002 -1.71919 0
M  V30 7207 C 658.884 -2.4175 -2.63233 0
M  V30 7208 C 658.55 -3.87915 -2.29854 0
M  V30 7209 C 657.212 -4.27726 -2.20463 0
M  V30 7210 C 659.564 -4.80074 -2.02924 0
M  V30 7211 C 656.892 -5.57666 -1.82279 0
M  V30 7212 C 659.244 -6.10366 -1.66242 0
M  V30 7213 C 657.908 -6.49167 -1.55367 0
M  V30 7214 H 657.178 -0.52631 -0.521612 0
M  V30 7215 H 659.825 -1.75863 -0.757914 0
M  V30 7216 H 658.13 -2.03077 -3.35063 0
M  V30 7217 H 659.827 -2.39759 -3.21429 0
M  V30 7218 H 656.417 -3.564 -2.3807 0
M  V30 7219 H 660.601 -4.50097 -2.09108 0
M  V30 7220 H 655.857 -5.8658 -1.72436 0
M  V30 7221 H 660.031 -6.81258 -1.44432 0
M  V30 7222 H 657.658 -7.49761 -1.2555 0
M  V30 7223 N 659.233 0.902656 -1.29189 0
M  V30 7224 C 660.181 2.0278 -1.13943 0
M  V30 7225 C 661.175 1.69308 -0.055787 0
M  V30 7226 O 662.381 1.78707 -0.215371 0
M  V30 7227 H 658.756 0.664595 -0.351877 0
M  V30 7228 H 660.727 2.12778 -2.09208 0
M  V30 7229 C 659.476 3.37657 -0.82966 0
M  V30 7230 H 658.799 3.63913 -1.65551 0
M  V30 7231 H 660.239 4.17078 -0.762998 0
M  V30 7232 C 658.698 3.33648 0.466991 0
M  V30 7233 O 659.228 3.72886 1.49395 0
M  V30 7234 N 657.434 2.86745 0.471761 0
M  V30 7235 H 656.981 2.55009 -0.364406 0
M  V30 7236 H 656.939 2.84446 1.33933 0
M  V30 7237 N 660.711 1.11618 1.11262 0
M  V30 7238 C 661.959 0.864469 1.82678 0
M  V30 7239 C 662.28 -0.611564 1.85162 0
M  V30 7240 O 661.55 -1.44429 1.32352 0
M  V30 7241 H 660.13 0.316821 0.676486 0
M  V30 7242 H 662.792 1.40894 1.34666 0
M  V30 7243 H 661.888 1.23832 2.86482 0
M  V30 7244 N 662.189 -1.289 0.906776 0
M  V30 7245 C 663.435 -1.95558 0.53712 0
M  V30 7246 C 663.768 -1.71262 -0.915582 0
M  V30 7247 O 663.043 -1.02961 -1.65013 0
M  V30 7248 C 663.326 -3.50198 0.838645 0
M  V30 7249 C 663.179 -3.83923 2.34357 0
M  V30 7250 C 664.498 -4.38861 0.329988 0
M  V30 7251 H 661.617 -0.710289 0.196617 0
M  V30 7252 H 664.259 -1.52392 1.13475 0
M  V30 7253 H 662.409 -3.87096 0.330024 0
M  V30 7254 H 664.081 -3.56933 2.92227 0
M  V30 7255 H 662.324 -3.31215 2.80141 0
M  V30 7256 H 662.995 -4.91883 2.5051 0
M  V30 7257 H 665.471 -4.08996 0.765609 0
M  V30 7258 H 664.347 -5.45931 0.570105 0
M  V30 7259 H 664.608 -4.35352 -0.769511 0
M  V30 7260 N 663.667 -0.670007 -1.42649 0
M  V30 7261 C 664.914 -0.190286 -2.01604 0
M  V30 7262 C 665.242 1.20155 -1.52948 0
M  V30 7263 O 664.497 1.81964 -0.72026 0
M  V30 7264 C 664.796 -0.168298 -3.57004 0
M  V30 7265 C 664.462 -1.50415 -4.25072 0
M  V30 7266 C 663.124 -1.86992 -4.43382 0
M  V30 7267 C 665.476 -2.38414 -4.63474 0
M  V30 7268 C 662.804 -3.11203 -4.97363 0
M  V30 7269 C 665.156 -3.61933 -5.18833 0
M  V30 7270 C 663.82 -3.98685 -5.35356 0
M  V30 7271 H 663.09 -0.0696305 -0.737721 0
M  V30 7272 H 665.737 -0.864044 -1.70899 0
M  V30 7273 H 664.042 0.588958 -3.87348 0
M  V30 7274 H 665.739 0.22001 -4.00396 0
M  V30 7275 H 662.329 -1.20959 -4.11177 0
M  V30 7276 H 666.513 -2.11442 -4.49006 0
M  V30 7277 H 661.769 -3.39705 -5.08341 0
M  V30 7278 H 665.943 -4.30326 -5.47533 0
M  V30 7279 H 663.57 -4.95009 -5.76949 0
M  V30 7280 N 665.145 1.52092 -0.413018 0
M  V30 7281 C 666.375 2.05974 0.160648 0
M  V30 7282 C 666.783 1.28267 1.39084 0
M  V30 7283 O 666.126 0.328805 1.80733 0
M  V30 7284 C 666.188 3.54918 0.572169 0
M  V30 7285 C 665.852 4.53705 -0.547826 0
M  V30 7286 C 666.849 5.00342 -1.41259 0
M  V30 7287 C 664.534 4.97089 -0.721627 0
M  V30 7288 C 666.528 5.89011 -2.43607 0
M  V30 7289 C 664.215 5.85554 -1.74841 0
M  V30 7290 C 665.213 6.3141 -2.60403 0
M  V30 7291 O 664.901 7.18123 -3.61323 0
M  V30 7292 H 664.633 0.675636 0.0221936 0
M  V30 7293 H 667.187 1.96931 -0.58373 0
M  V30 7294 H 665.417 3.61661 1.36889 0
M  V30 7295 H 667.106 3.91428 1.0742 0
M  V30 7296 H 667.872 4.67537 -1.28974 0
M  V30 7297 H 663.751 4.60954 -0.0652911 0
M  V30 7298 H 667.295 6.24725 -3.10425 0
M  V30 7299 H 663.192 6.17773 -1.87156 0
M  V30 7300 H 663.96 7.36244 -3.57613 0
M  V30 7301 N 666.623 0.143563 1.56945 0
M  V30 7302 C 668.034 -0.37783 1.82837 0
M  V30 7303 C 668.385 -1.64967 1.06209 0
M  V30 7304 O 667.51 -2.14221 0.306291 0
M  V30 7305 C 668.105 -0.692274 3.31652 0
M  V30 7306 C 666.664 -1.1582 3.58138 0
M  V30 7307 C 665.811 -0.17951 2.76718 0
M  V30 7308 H 668.762 0.368317 1.54367 0
M  V30 7309 H 668.783 -1.54729 3.47619 0
M  V30 7310 H 668.295 0.233572 3.87397 0
M  V30 7311 H 666.396 -2.10011 3.07776 0
M  V30 7312 H 666.509 -1.08655 4.66616 0
M  V30 7313 H 664.873 -0.671458 2.4569 0
M  V30 7314 H 665.656 0.739865 3.35233 0
M  V30 7315 N 668.101 -1.57061 -0.130224 0
M  V30 7316 C 669.378 -1.75205 -0.869631 0
M  V30 7317 C 669.758 -0.716063 -1.98584 0
M  V30 7318 O 669.106 0.262032 -2.26993 0
M  V30 7319 C 669.316 -3.19835 -1.39666 0
M  V30 7320 C 670.664 -3.82011 -1.85345 0
M  V30 7321 O 671.688 -3.23368 -1.49371 0
M  V30 7322 O 670.547 -4.85064 -2.51744 0
M  V30 7323 H 667.641 -0.716977 -0.412157 0
M  V30 7324 H 670.187 -1.69311 -0.11484 0
M  V30 7325 H 668.959 -3.86745 -0.595288 0
M  V30 7326 H 668.582 -3.30222 -2.21448 0
M  V30 7327 N 669.579 0.400081 -1.52437 0
M  V30 7328 C 670.542 1.4707 -1.75793 0
M  V30 7329 C 671.542 1.48036 -0.627856 0
M  V30 7330 O 672.732 1.49401 -0.895817 0
M  V30 7331 C 669.864 2.86427 -1.84858 0
M  V30 7332 H 671.057 1.27649 -2.71377 0
M  V30 7333 H 668.61 0.631141 -1.42991 0
M  V30 7334 H 669.345 3.11207 -0.912194 0
M  V30 7335 H 669.13 2.87128 -2.6702 0
M  V30 7336 H 670.62 3.64023 -2.04638 0
M  V30 7337 N 671.057 1.43213 0.657864 0
M  V30 7338 C 672.303 1.44798 1.41991 0
M  V30 7339 C 672.636 0.070256 1.94073 0
M  V30 7340 O 671.911 -0.908177 1.71995 0
M  V30 7341 C 672.194 2.4865 2.60471 0
M  V30 7342 C 672.047 3.95679 2.13911 0
M  V30 7343 C 673.366 2.49292 3.62686 0
M  V30 7344 H 670.485 0.527244 0.514959 0
M  V30 7345 H 673.127 1.74733 0.74621 0
M  V30 7346 H 671.277 2.23254 3.17946 0
M  V30 7347 H 672.949 4.32116 1.61472 0
M  V30 7348 H 671.192 4.08733 1.45325 0
M  V30 7349 H 671.863 4.6395 2.99089 0
M  V30 7350 H 674.339 2.71917 3.14961 0
M  V30 7351 H 673.215 3.23907 4.43143 0
M  V30 7352 H 673.476 1.52502 4.14964 0
M  V30 7353 N 672.536 -0.895792 1.29666 0
M  V30 7354 C 673.446 -2.03329 1.17024 0
M  V30 7355 C 674.462 -1.73753 0.0925962 0
M  V30 7356 O 675.638 -1.99071 0.305431 0
M  V30 7357 C 672.703 -3.36072 0.851841 0
M  V30 7358 C 671.764 -3.7914 2.01373 0
M  V30 7359 C 670.997 -5.05549 1.71043 0
M  V30 7360 O 671.22 -5.66874 0.633213 0
M  V30 7361 O 670.154 -5.44764 2.5596 0
M  V30 7362 H 673.98 -2.16918 2.12556 0
M  V30 7363 H 671.565 -1.02007 1.09156 0
M  V30 7364 H 673.447 -4.15729 0.689006 0
M  V30 7365 H 672.122 -3.23616 -0.0736634 0
M  V30 7366 H 671.029 -3.00233 2.23183 0
M  V30 7367 H 672.362 -3.96186 2.92058 0
M  V30 7368 N 674.014 -1.12206 -1.10668 0
M  V30 7369 C 675.239 -0.898938 -1.86906 0
M  V30 7370 C 675.664 0.546346 -1.79991 0
M  V30 7371 O 675.022 1.38655 -1.1681 0
M  V30 7372 C 675.07 -1.37529 -3.33344 0
M  V30 7373 O 674.174 -0.55218 -4.08687 0
M  V30 7374 H 673.515 -0.323163 -0.580053 0
M  V30 7375 H 676.045 -1.49355 -1.39837 0
M  V30 7376 H 676.055 -1.3733 -3.84193 0
M  V30 7377 H 674.73 -2.42767 -3.37693 0
M  V30 7378 H 673.307 -0.620947 -3.67694 0
M  V30 7379 N 675.492 1.28418 -0.913599 0
M  V30 7380 C 676.402 2.31043 -0.406965 0
M  V30 7381 C 677.418 1.66501 0.505298 0
M  V30 7382 O 678.594 1.97558 0.391522 0
M  V30 7383 C 675.659 3.4498 0.344901 0
M  V30 7384 C 674.72 4.25078 -0.600563 0
M  V30 7385 C 673.953 5.33575 0.115516 0
M  V30 7386 O 674.176 5.54503 1.33727 0
M  V30 7387 O 673.11 5.9939 -0.549095 0
M  V30 7388 H 676.936 2.76387 -1.25873 0
M  V30 7389 H 674.521 1.33109 -0.678415 0
M  V30 7390 H 676.403 4.14314 0.769542 0
M  V30 7391 H 675.078 3.01719 1.1725 0
M  V30 7392 H 673.985 3.58334 -1.0746 0
M  V30 7393 H 675.318 4.72018 -1.39497 0
M  V30 7394 N 676.97 0.677563 1.42291 0
M  V30 7395 C 678.2 0.209155 2.05539 0
M  V30 7396 C 678.608 -1.13987 1.51009 0
M  V30 7397 O 677.951 -1.71976 0.645764 0
M  V30 7398 C 678.013 0.0697758 3.59432 0
M  V30 7399 C 677.677 1.34795 4.36668 0
M  V30 7400 C 678.674 2.28201 4.67141 0
M  V30 7401 C 676.359 1.59632 4.76259 0
M  V30 7402 C 678.353 3.44718 5.36142 0
M  V30 7403 C 676.04 2.76437 5.45 0
M  V30 7404 C 677.038 3.68805 5.74867 0
M  V30 7405 O 676.726 4.83567 6.42198 0
M  V30 7406 H 676.458 0.0986202 0.668768 0
M  V30 7407 H 679.012 0.925483 1.83368 0
M  V30 7408 H 677.242 -0.702157 3.80272 0
M  V30 7409 H 678.931 -0.359115 4.04308 0
M  V30 7410 H 679.697 2.10264 4.37052 0
M  V30 7411 H 675.576 0.886073 4.52404 0
M  V30 7412 H 679.12 4.16833 5.59371 0
M  V30 7413 H 675.017 2.94299 5.74507 0
M  V30 7414 H 675.785 4.83147 6.6069 0
M  V30 7415 N 678.448 -1.51871 0.421078 0
M  V30 7416 C 679.673 -2.0684 -0.152371 0
M  V30 7417 C 680.098 -1.28802 -1.37083 0
M  V30 7418 O 679.456 -0.321482 -1.78427 0
M  V30 7419 C 679.504 -3.57532 -0.469368 0
M  V30 7420 O 678.608 -3.81818 -1.55848 0
M  V30 7421 H 677.949 -0.663939 -0.00898586 0
M  V30 7422 H 680.479 -1.95674 0.597724 0
M  V30 7423 H 680.489 -4.01515 -0.724553 0
M  V30 7424 H 679.164 -4.13761 0.421276 0
M  V30 7425 H 677.741 -3.49709 -1.29453 0
M  V30 7426 N 679.926 -0.151884 -1.56866 0
M  V30 7427 C 681.156 0.504081 -2.00356 0
M  V30 7428 C 681.564 1.58639 -1.03103 0
M  V30 7429 O 680.907 1.83688 -0.0207931 0
M  V30 7430 C 680.969 1.15975 -3.40279 0
M  V30 7431 C 680.633 0.221453 -4.56463 0
M  V30 7432 C 681.63 -0.552766 -5.16953 0
M  V30 7433 C 679.315 0.122936 -5.0215 0
M  V30 7434 C 681.309 -1.4129 -6.21543 0
M  V30 7435 C 678.996 -0.740801 -6.06593 0
M  V30 7436 C 679.994 -1.50732 -6.6616 0
M  V30 7437 O 679.682 -2.35666 -7.68581 0
M  V30 7438 H 679.414 0.135279 -0.662326 0
M  V30 7439 H 681.968 -0.244916 -2.03935 0
M  V30 7440 H 680.198 1.95649 -3.33554 0
M  V30 7441 H 681.887 1.71594 -3.67846 0
M  V30 7442 H 682.653 -0.486716 -4.82552 0
M  V30 7443 H 678.532 0.70931 -4.5551 0
M  V30 7444 H 682.076 -2.01166 -6.67966 0
M  V30 7445 H 677.973 -0.808125 -6.40421 0
M  V30 7446 H 678.741 -2.28967 -7.85822 0
M  V30 7447 N 681.404 1.57128 0.121893 0
M  V30 7448 C 682.629 1.89254 0.848385 0
M  V30 7449 C 683.054 0.743527 1.72781 0
M  V30 7450 O 682.412 -0.306056 1.78698 0
M  V30 7451 C 682.46 3.20113 1.66012 0
M  V30 7452 O 681.564 3.05815 2.76679 0
M  V30 7453 H 680.905 0.621103 0.234793 0
M  V30 7454 H 683.435 2.0433 0.10516 0
M  V30 7455 H 683.445 3.52761 2.04996 0
M  V30 7456 H 682.12 4.03336 1.01452 0
M  V30 7457 H 680.697 2.84627 2.40918 0
M  V30 7458 N 682.882 -0.391992 1.52647 0
M  V30 7459 C 684.13 -1.13507 1.67214 0
M  V30 7460 C 684.451 -1.90575 0.41304 0
M  V30 7461 O 683.721 -1.87348 -0.572498 0
M  V30 7462 H 682.301 -0.422013 0.616372 0
M  V30 7463 H 684.963 -0.44502 1.89751 0
M  V30 7464 H 684.059 -1.83964 2.52118 0
M  V30 7465 N 684.36 -1.4356 -0.65026 0
M  V30 7466 C 685.308 -1.49219 -1.78427 0
M  V30 7467 C 686.302 -0.365528 -1.65409 0
M  V30 7468 O 687.508 -0.539649 -1.7172 0
M  V30 7469 H 683.883 -0.467858 -0.588738 0
M  V30 7470 H 685.854 -2.44701 -1.70774 0
M  V30 7471 C 684.603 -1.43519 -3.16698 0
M  V30 7472 H 683.926 -2.2952 -3.27354 0
M  V30 7473 H 685.366 -1.5154 -3.95995 0
M  V30 7474 C 683.825 -0.153197 -3.36552 0
M  V30 7475 O 684.355 0.784317 -3.93969 0
M  V30 7476 N 682.561 -0.0624402 -2.90533 0
M  V30 7477 H 682.108 -0.826172 -2.43992 0
M  V30 7478 H 682.066 0.794616 -3.04193 0
M  V30 7479 N 685.838 0.888903 -1.30139 0
M  V30 7480 C 687.085 1.64037 -1.18736 0
M  V30 7481 C 687.413 1.92771 0.258801 0
M  V30 7482 O 686.668 1.54427 1.20212 0
M  V30 7483 C 686.967 2.99041 -1.95728 0
M  V30 7484 C 686.633 2.89874 -3.45375 0
M  V30 7485 C 685.295 2.87082 -3.86183 0
M  V30 7486 C 687.647 2.78289 -4.40687 0
M  V30 7487 C 684.975 2.70536 -5.20603 0
M  V30 7488 C 687.327 2.63282 -5.75209 0
M  V30 7489 C 685.991 2.58861 -6.15262 0
M  V30 7490 H 685.261 0.600253 -0.434485 0
M  V30 7491 H 687.908 1.0338 -1.61198 0
M  V30 7492 H 686.213 3.63626 -1.45888 0
M  V30 7493 H 687.91 3.56139 -1.843 0
M  V30 7494 H 684.5 2.92856 -3.12943 0
M  V30 7495 H 688.684 2.79516 -4.10103 0
M  V30 7496 H 683.94 2.65526 -5.50732 0
M  V30 7497 H 688.114 2.5329 -6.48704 0
M  V30 7498 H 685.741 2.45799 -7.19366 0
M  V30 7499 N 687.317 1.12792 1.10072 0
M  V30 7500 C 688.565 0.883796 1.81751 0
M  V30 7501 C 688.886 -0.591891 1.858 0
M  V30 7502 O 688.156 -1.43017 1.33876 0
M  V30 7503 H 686.736 0.323978 0.673088 0
M  V30 7504 H 689.398 1.42314 1.33164 0
M  V30 7505 H 688.494 1.26863 2.85153 0
M  V30 7506 N 688.795 -1.27931 0.920396 0
M  V30 7507 C 689.742 -2.27085 0.412422 0
M  V30 7508 C 690.712 -1.57858 -0.516725 0
M  V30 7509 O 691.897 -1.85717 -0.437475 0
M  V30 7510 C 689.037 -3.43466 -0.335399 0
M  V30 7511 C 688.15 -4.27425 0.627017 0
M  V30 7512 C 687.285 -5.31016 -0.139916 0
M  V30 7513 C 686.324 -6.06641 0.815683 0
M  V30 7514 N 685.461 -7.02052 0.0818439 0
M  V30 7515 H 690.301 -2.69913 1.26298 0
M  V30 7516 H 687.838 -1.32732 0.634076 0
M  V30 7517 H 689.796 -4.09744 -0.785226 0
M  V30 7518 H 688.426 -3.01611 -1.15025 0
M  V30 7519 H 687.478 -3.6113 1.19537 0
M  V30 7520 H 688.79 -4.79969 1.35763 0
M  V30 7521 H 687.944 -6.03208 -0.649998 0
M  V30 7522 H 686.683 -4.79257 -0.903543 0
M  V30 7523 H 685.688 -5.33294 1.33708 0
M  V30 7524 H 686.913 -6.60489 1.57897 0
M  V30 7525 H 684.859 -6.52634 -0.663671 0
M  V30 7526 H 684.776 -7.52249 0.752163 0
M  V30 7527 H 686.044 -7.78432 -0.407825 0
M  V30 7528 N 690.273 -0.685099 -1.4193 0
M  V30 7529 C 691.503 -0.220052 -2.05425 0
M  V30 7530 C 691.911 1.13185 -1.51611 0
M  V30 7531 O 691.254 1.71631 -0.654875 0
M  V30 7532 C 691.316 -0.0888364 -3.5939 0
M  V30 7533 C 690.98 -1.37109 -4.35947 0
M  V30 7534 C 691.977 -2.30675 -4.65924 0
M  V30 7535 C 689.662 -1.62155 -4.75406 0
M  V30 7536 C 691.656 -3.47556 -5.34306 0
M  V30 7537 C 689.343 -2.79324 -5.43527 0
M  V30 7538 C 690.341 -3.71848 -5.72903 0
M  V30 7539 O 690.029 -4.86966 -6.39624 0
M  V30 7540 H 689.761 -0.102165 -0.668235 0
M  V30 7541 H 692.315 -0.935194 -1.82875 0
M  V30 7542 H 690.545 0.681981 -3.80639 0
M  V30 7543 H 692.234 0.337669 -4.04493 0
M  V30 7544 H 693 -2.12579 -4.3593 0
M  V30 7545 H 688.879 -0.910053 -4.51928 0
M  V30 7546 H 692.423 -4.19794 -5.57153 0
M  V30 7547 H 688.32 -2.97342 -5.72938 0
M  V30 7548 H 689.088 -4.86644 -6.58118 0
M  V30 7549 N 691.751 1.51645 -0.429126 0
M  V30 7550 C 692.714 2.26116 0.374726 0
M  V30 7551 C 693.714 1.29242 0.956714 0
M  V30 7552 O 694.904 1.53022 0.832452 0
M  V30 7553 C 692.036 3.04669 1.52937 0
M  V30 7554 H 693.229 2.9861 -0.277818 0
M  V30 7555 H 690.782 1.55236 -0.182097 0
M  V30 7556 H 691.517 2.36571 2.21821 0
M  V30 7557 H 691.302 3.75814 1.11833 0
M  V30 7558 H 692.792 3.61102 2.09751 0
M  V30 7559 N 693.229 0.160201 1.56784 0
M  V30 7560 C 694.177 -0.791402 2.18723 0
M  V30 7561 C 695.171 -1.24567 1.14801 0
M  V30 7562 O 696.377 -1.21262 1.33025 0
M  V30 7563 H 692.752 -0.273458 0.700517 0
M  V30 7564 H 694.723 -0.244931 2.97393 0
M  V30 7565 C 693.472 -2.01509 2.83354 0
M  V30 7566 H 692.795 -1.67454 3.63041 0
M  V30 7567 H 694.235 -2.66006 3.30177 0
M  V30 7568 C 692.694 -2.83159 1.82545 0
M  V30 7569 O 693.224 -3.79944 1.30405 0
M  V30 7570 N 691.43 -2.47953 1.51552 0
M  V30 7571 H 690.977 -1.69309 1.94144 0
M  V30 7572 H 690.935 -3.02873 0.843519 0
M  V30 7573 N 694.707 -1.5719 -0.113559 0
M  V30 7574 C 696.118 -1.74259 -0.670116 0
M  V30 7575 C 696.469 -0.779694 -1.80042 0
M  V30 7576 O 695.594 0.0461353 -2.16351 0
M  V30 7577 C 696.189 -3.15981 -1.22236 0
M  V30 7578 C 694.748 -3.34537 -1.72516 0
M  V30 7579 C 693.895 -2.70116 -0.627098 0
M  V30 7580 H 696.846 -1.58301 0.112396 0
M  V30 7581 H 696.867 -3.17832 -2.09197 0
M  V30 7582 H 696.379 -3.86038 -0.39949 0
M  V30 7583 H 694.48 -2.6953 -2.57263 0
M  V30 7584 H 694.593 -4.42737 -1.83086 0
M  V30 7585 H 692.957 -2.31501 -1.06204 0
M  V30 7586 H 693.74 -3.42802 0.184889 0
M  V30 7587 N 696.185 0.383891 -1.52853 0
M  V30 7588 C 697.095 1.49343 -1.80925 0
M  V30 7589 C 698.111 1.59458 -0.696348 0
M  V30 7590 O 699.287 1.75698 -0.984481 0
M  V30 7591 C 696.352 2.84819 -1.97684 0
M  V30 7592 C 695.413 2.84382 -3.21598 0
M  V30 7593 C 694.646 4.13397 -3.37548 0
M  V30 7594 O 694.869 5.08619 -2.58192 0
M  V30 7595 O 693.803 4.20325 -4.30826 0
M  V30 7596 H 697.629 1.2855 -2.75152 0
M  V30 7597 H 695.214 0.572229 -1.38007 0
M  V30 7598 H 697.096 3.65125 -2.10385 0
M  V30 7599 H 695.771 3.05627 -1.06647 0
M  V30 7600 H 694.678 2.0284 -3.14336 0
M  V30 7601 H 696.011 2.68526 -4.12498 0
M  V30 7602 N 697.663 1.43903 0.642637 0
M  V30 7603 C 698.909 1.46296 1.40447 0
M  V30 7604 C 699.242 0.0908361 1.93987 0
M  V30 7605 O 698.517 -0.889884 1.72949 0
M  V30 7606 C 698.8 2.51399 2.57819 0
M  V30 7607 C 698.653 3.97926 2.09702 0
M  V30 7608 C 699.972 2.53125 3.60022 0
M  V30 7609 H 697.091 0.532676 0.509338 0
M  V30 7610 H 699.733 1.75515 0.727635 0
M  V30 7611 H 697.883 2.26614 3.1556 0
M  V30 7612 H 699.555 4.33804 1.5688 0
M  V30 7613 H 697.798 4.10252 1.40982 0
M  V30 7614 H 698.469 4.67096 2.94152 0
M  V30 7615 H 700.945 2.75242 3.12059 0
M  V30 7616 H 699.821 3.28589 4.39682 0
M  V30 7617 H 700.082 1.56895 4.13324 0
M  V30 7618 N 699.141 -0.881989 1.30609 0
M  V30 7619 C 700.051 -2.02076 1.19174 0
M  V30 7620 C 701.067 -1.73645 0.11102 0
M  V30 7621 O 702.243 -1.98735 0.326528 0
M  V30 7622 C 699.308 -3.3515 0.887438 0
M  V30 7623 C 698.369 -3.76983 2.05383 0
M  V30 7624 C 697.602 -5.03707 1.76395 0
M  V30 7625 O 697.825 -5.66171 0.693302 0
M  V30 7626 O 696.759 -5.42019 2.61723 0
M  V30 7627 H 700.585 -2.14652 2.14845 0
M  V30 7628 H 698.17 -1.00843 1.10232 0
M  V30 7629 H 700.052 -4.14975 0.73306 0
M  V30 7630 H 698.727 -3.23676 -0.0393354 0
M  V30 7631 H 697.634 -2.97849 2.26355 0
M  V30 7632 H 698.967 -3.93066 2.96243 0
M  V30 7633 N 700.619 -1.13374 -1.09472 0
M  V30 7634 C 701.847 -0.918351 -1.85402 0
M  V30 7635 C 702.262 0.53281 -1.81126 0
M  V30 7636 O 701.619 1.36879 -1.20708 0
M  V30 7637 C 701.67 -1.39743 -3.33398 0
M  V30 7638 O 701.391 -2.79172 -3.37631 0
M  V30 7639 C 702.892 -1.22042 -4.2617 0
M  V30 7640 H 700.112 -0.327511 -0.585643 0
M  V30 7641 H 702.656 -1.50617 -1.38328 0
M  V30 7642 H 700.811 -0.852619 -3.77901 0
M  V30 7643 H 701.225 -3.00428 -4.29934 0
M  V30 7644 H 702.699 -1.60438 -5.2817 0
M  V30 7645 H 703.176 -0.162047 -4.38901 0
M  V30 7646 H 703.782 -1.75323 -3.87482 0
M  V30 7647 N 702.098 1.27442 -0.927168 0
M  V30 7648 C 703.028 2.29256 -0.443188 0
M  V30 7649 C 704.009 1.62701 0.49624 0
M  V30 7650 O 705.194 1.90013 0.401105 0
M  V30 7651 C 702.324 3.45955 0.305366 0
M  V30 7652 C 701.278 4.24501 -0.546178 0
M  V30 7653 C 700.604 5.33671 0.331512 0
M  V30 7654 C 701.904 4.89921 -1.81037 0
M  V30 7655 H 703.598 2.69988 -1.29409 0
M  V30 7656 H 701.144 1.29792 -0.623705 0
M  V30 7657 H 703.097 4.1628 0.654885 0
M  V30 7658 H 701.821 3.04138 1.19029 0
M  V30 7659 H 700.48 3.55921 -0.878398 0
M  V30 7660 H 700.128 4.88096 1.21537 0
M  V30 7661 H 699.828 5.87131 -0.234746 0
M  V30 7662 H 701.352 6.0684 0.676614 0
M  V30 7663 H 702.766 5.52536 -1.52895 0
M  V30 7664 H 701.163 5.53436 -2.32009 0
M  V30 7665 H 702.233 4.13652 -2.53021 0
M  V30 7666 N 703.576 0.692616 1.41565 0
M  V30 7667 C 704.506 0.0397325 2.33466 0
M  V30 7668 C 705.487 -0.770334 1.51657 0
M  V30 7669 O 706.672 -0.723903 1.80203 0
M  V30 7670 C 703.802 -0.899495 3.3545 0
M  V30 7671 C 702.756 -0.196738 4.27548 0
M  V30 7672 C 702.082 -1.25012 5.19881 0
M  V30 7673 C 703.382 0.935158 5.1386 0
M  V30 7674 H 705.076 0.807296 2.88311 0
M  V30 7675 H 702.622 0.389665 1.38628 0
M  V30 7676 H 704.575 -1.36545 3.98665 0
M  V30 7677 H 703.299 -1.69869 2.78948 0
M  V30 7678 H 701.958 0.249158 3.65752 0
M  V30 7679 H 701.606 -2.04177 4.59696 0
M  V30 7680 H 701.306 -0.784931 5.82334 0
M  V30 7681 H 702.83 -1.71665 5.85972 0
M  V30 7682 H 704.244 0.549619 5.70659 0
M  V30 7683 H 702.641 1.32726 5.85238 0
M  V30 7684 H 703.711 1.77613 4.512 0
M  V30 7685 N 705.054 -1.51416 0.437162 0
M  V30 7686 C 706.331 -1.94682 -0.189292 0
M  V30 7687 C 706.711 -1.37581 -1.60108 0
M  V30 7688 O 706.059 -0.562815 -2.2146 0
M  V30 7689 C 706.269 -3.48599 -0.167201 0
M  V30 7690 C 707.617 -4.2296 -0.372856 0
M  V30 7691 O 708.641 -3.55354 -0.245323 0
M  V30 7692 O 707.5 -5.42895 -0.626693 0
M  V30 7693 H 704.594 -0.816708 -0.130063 0
M  V30 7694 H 707.14 -1.62316 0.495128 0
M  V30 7695 H 705.912 -3.82616 0.81981 0
M  V30 7696 H 705.535 -3.87406 -0.894537 0
M  V30 7697 N 706.532 -0.168513 -1.56696 0
M  V30 7698 C 707.442 0.775435 -2.21414 0
M  V30 7699 C 708.458 1.25529 -1.20492 0
M  V30 7700 O 709.634 1.30801 -1.53144 0
M  V30 7701 C 706.699 1.9886 -2.83999 0
M  V30 7702 C 705.76 1.5559 -4.00113 0
M  V30 7703 C 704.993 2.71124 -4.59704 0
M  V30 7704 O 705.216 3.87917 -4.18182 0
M  V30 7705 O 704.15 2.4536 -5.4962 0
M  V30 7706 H 707.976 0.254416 -3.02632 0
M  V30 7707 H 705.561 0.0595507 -1.49281 0
M  V30 7708 H 707.443 2.69816 -3.23693 0
M  V30 7709 H 706.118 2.49874 -2.05779 0
M  V30 7710 H 705.025 0.815924 -3.65094 0
M  V30 7711 H 706.358 1.09271 -4.79917 0
M  V30 7712 N 708.01 1.57248 0.105221 0
M  V30 7713 C 708.94 2.04374 1.12931 0
M  V30 7714 C 709.921 0.93074 1.42377 0
M  V30 7715 O 711.106 1.20136 1.52581 0
M  V30 7716 C 708.236 2.45967 2.45189 0
M  V30 7717 C 707.19 3.60838 2.30174 0
M  V30 7718 C 706.516 3.88374 3.67518 0
M  V30 7719 C 707.816 4.92084 1.75073 0
M  V30 7720 H 709.51 2.9018 0.737287 0
M  V30 7721 H 707.056 1.39601 0.353211 0
M  V30 7722 H 709.009 2.77542 3.17094 0
M  V30 7723 H 707.733 1.57148 2.86308 0
M  V30 7724 H 706.392 3.29493 1.60716 0
M  V30 7725 H 706.04 2.96739 4.06147 0
M  V30 7726 H 705.74 4.65703 3.58321 0
M  V30 7727 H 707.264 4.22415 4.40906 0
M  V30 7728 H 708.678 5.22106 2.36809 0
M  V30 7729 H 707.075 5.73507 1.76662 0
M  V30 7730 H 708.145 4.79684 0.709347 0
M  V30 7731 N 709.488 -0.375779 1.53054 0
M  V30 7732 C 710.436 -1.48015 1.79428 0
M  V30 7733 C 711.43 -1.55893 0.662854 0
M  V30 7734 O 712.636 -1.58901 0.845599 0
M  V30 7735 H 709.011 -0.492887 0.56795 0
M  V30 7736 H 710.982 -1.22971 2.71884 0
M  V30 7737 C 709.731 -2.84984 1.99197 0
M  V30 7738 H 709.054 -2.79677 2.85693 0
M  V30 7739 H 710.494 -3.61462 2.21633 0
M  V30 7740 C 708.953 -3.28025 0.768183 0
M  V30 7741 O 709.483 -4.01671 -0.0480482 0
M  V30 7742 N 707.689 -2.84454 0.594521 0
M  V30 7743 H 707.236 -2.24688 1.25988 0
M  V30 7744 H 707.194 -3.13609 -0.222916 0
M  V30 7745 N 710.966 -1.44241 -0.634997 0
M  V30 7746 C 712.382 -1.28043 -0.952742 0
M  V30 7747 C 712.582 -0.21338 -2.00367 0
M  V30 7748 O 711.638 0.402042 -2.49279 0
M  V30 7749 C 712.951 -2.65076 -1.41968 0
M  V30 7750 C 714.499 -2.72755 -1.53537 0
M  V30 7751 C 714.974 -4.10249 -2.03616 0
M  V30 7752 N 716.465 -4.12406 -2.10892 0
M  V30 7753 C 717.2 -5.15641 -2.50803 0
M  V30 7754 N 716.696 -6.29239 -2.89879 0
M  V30 7755 N 718.489 -5.02995 -2.50903 0
M  V30 7756 H 710.64 -2.12315 0.060098 0
M  V30 7757 H 712.903 -0.947326 -0.0357325 0
M  V30 7758 H 712.609 -3.44213 -0.721804 0
M  V30 7759 H 712.483 -2.91704 -2.39141 0
M  V30 7760 H 714.87 -1.93939 -2.22422 0
M  V30 7761 H 714.951 -2.49872 -0.547496 0
M  V30 7762 H 714.595 -4.8954 -1.35327 0
M  V30 7763 H 714.525 -4.30507 -3.03268 0
M  V30 7764 H 717.016 -3.30417 -1.83393 0
M  V30 7765 H 717.329 -7.03827 -3.19135 0
M  V30 7766 H 715.674 -6.32683 -2.8764 0
M  V30 7767 H 718.865 -4.13306 -2.19763 0
M  V30 7768 H 719.038 -5.83574 -2.81683 0
M  V30 7769 N 712.444 0.87505 -1.31075 0
M  V30 7770 C 713.669 1.66583 -1.23551 0
M  V30 7771 C 714.094 1.87067 0.19686 0
M  V30 7772 O 713.452 1.40877 1.1412 0
M  V30 7773 C 713.5 3.01401 -1.97965 0
M  V30 7774 O 712.604 3.90923 -1.31351 0
M  V30 7775 H 711.945 0.508645 -0.426821 0
M  V30 7776 H 714.475 1.09139 -1.7306 0
M  V30 7777 H 714.485 3.51374 -2.07366 0
M  V30 7778 H 713.16 2.85812 -3.02133 0
M  V30 7779 H 711.737 3.49369 -1.30368 0
M  V30 7780 N 713.922 1.13953 1.08869 0
M  V30 7781 C 714.87 0.817664 2.17754 0
M  V30 7782 C 715.864 -0.202444 1.68186 0
M  V30 7783 O 717.07 -0.0590159 1.79903 0
M  V30 7784 H 713.445 0.246671 0.710392 0
M  V30 7785 H 715.416 1.74401 2.4213 0
M  V30 7786 C 714.165 0.3063 3.46348 0
M  V30 7787 H 713.488 1.08259 3.84864 0
M  V30 7788 H 714.928 0.119584 4.23831 0
M  V30 7789 C 713.387 -0.969158 3.22659 0
M  V30 7790 O 713.917 -2.04386 3.45817 0
M  V30 7791 N 712.123 -0.902516 2.7623 0
M  V30 7792 H 711.67 -0.027801 2.57585 0
M  V30 7793 H 711.628 -1.75649 2.60758 0
M  V30 7794 N 715.4 -1.26948 0.933913 0
M  V30 7795 C 716.677 -1.89212 0.495784 0
M  V30 7796 C 717.057 -1.84469 -1.02637 0
M  V30 7797 O 716.405 -1.29409 -1.88323 0
M  V30 7798 C 716.615 -3.32865 1.0489 0
M  V30 7799 C 717.963 -4.09749 1.11315 0
M  V30 7800 O 718.987 -3.41905 0.998966 0
M  V30 7801 O 717.846 -5.31061 1.28983 0
M  V30 7802 H 714.94 -0.811284 0.160459 0
M  V30 7803 H 717.486 -1.35171 1.02601 0
M  V30 7804 H 716.258 -3.30642 2.09265 0
M  V30 7805 H 715.881 -3.94435 0.500692 0
M  V30 7806 N 716.879 -0.700114 -1.41195 0
M  V30 7807 C 718.156 -0.160836 -1.94938 0
M  V30 7808 C 718.536 1.33014 -1.63922 0
M  V30 7809 O 717.884 2.07878 -0.948636 0
M  V30 7810 C 718.094 -0.456991 -3.45995 0
M  V30 7811 C 719.442 -0.387207 -4.22831 0
M  V30 7812 O 720.466 -0.392164 -3.54035 0
M  V30 7813 O 719.325 -0.351267 -5.4537 0
M  V30 7814 H 716.419 -0.0176304 -0.826812 0
M  V30 7815 H 718.965 -0.776586 -1.50888 0
M  V30 7816 H 717.737 -1.48884 -3.61869 0
M  V30 7817 H 717.36 0.189503 -3.97148 0
M  V30 7818 N 718.357 1.51182 -0.445186 0
M  V30 7819 C 719.32 2.26501 0.350722 0
M  V30 7820 C 720.32 1.3025 0.942952 0
M  V30 7821 O 721.51 1.53897 0.816175 0
M  V30 7822 C 718.642 3.06274 1.49697 0
M  V30 7823 H 719.835 2.98299 -0.309474 0
M  V30 7824 H 717.388 1.55034 -0.198551 0
M  V30 7825 H 718.123 2.38911 2.19299 0
M  V30 7826 H 717.908 3.76979 1.0784 0
M  V30 7827 H 719.398 3.63306 2.05909 0
M  V30 7828 N 719.835 0.176821 1.56605 0
M  V30 7829 C 720.782 -0.751312 2.18229 0
M  V30 7830 C 721.752 -1.22297 1.12395 0
M  V30 7831 O 722.937 -1.29015 1.40569 0
M  V30 7832 C 720.077 -1.97291 2.83143 0
M  V30 7833 C 719.19 -1.54431 4.03454 0
M  V30 7834 C 718.325 -2.72 4.56278 0
M  V30 7835 C 717.364 -2.25657 5.68986 0
M  V30 7836 N 716.501 -3.36338 6.16296 0
M  V30 7837 H 721.341 -0.219033 2.97194 0
M  V30 7838 H 718.878 -0.0963803 1.46784 0
M  V30 7839 H 720.836 -2.68949 3.1894 0
M  V30 7840 H 719.466 -2.4788 2.06773 0
M  V30 7841 H 718.518 -0.724273 3.73441 0
M  V30 7842 H 719.83 -1.16417 4.85024 0
M  V30 7843 H 718.984 -3.51806 4.94285 0
M  V30 7844 H 717.723 -3.13277 3.73777 0
M  V30 7845 H 716.728 -1.44299 5.30526 0
M  V30 7846 H 717.953 -1.85432 6.53293 0
M  V30 7847 H 715.899 -3.7718 5.36723 0
M  V30 7848 H 715.816 -3.02435 6.9287 0
M  V30 7849 H 717.084 -4.16413 6.58954 0
M  V30 7850 N 721.313 -1.57302 -0.09688 0
M  V30 7851 C 722.562 -1.85183 -0.799388 0
M  V30 7852 C 722.875 -0.765818 -1.79985 0
M  V30 7853 O 724.081 -0.931696 -2.55013 0
M  V30 7854 C 722.537 -3.28399 -1.47249 0
M  V30 7855 C 722.145 -4.45066 -0.511888 0
M  V30 7856 C 723.889 -3.65506 -2.15883 0
M  V30 7857 C 721.796 -5.79315 -1.18948 0
M  V30 7858 H 720.726 -0.690752 -0.302287 0
M  V30 7859 H 723.377 -1.83425 -0.0523104 0
M  V30 7860 H 721.759 -3.24692 -2.26697 0
M  V30 7861 H 722.933 -4.60116 0.250962 0
M  V30 7862 H 721.248 -4.16343 0.0686576 0
M  V30 7863 H 723.845 -4.63087 -2.67309 0
M  V30 7864 H 724.188 -2.94041 -2.94696 0
M  V30 7865 H 724.721 -3.71094 -1.43298 0
M  V30 7866 H 721.46 -6.54007 -0.442198 0
M  V30 7867 H 720.98 -5.68111 -1.9238 0
M  V30 7868 H 722.659 -6.23816 -1.71646 0
M  V30 7869 N 722.791 0.367657 -1.53252 0
M  V30 7870 C 723.738 1.45028 -1.79543 0
M  V30 7871 C 724.708 1.53288 -0.63969 0
M  V30 7872 O 725.893 1.69209 -0.881653 0
M  V30 7873 C 723.033 2.82 -1.98923 0
M  V30 7874 C 722.146 2.82722 -3.26638 0
M  V30 7875 C 721.281 4.11257 -3.36216 0
M  V30 7876 C 720.32 4.06113 -4.57972 0
M  V30 7877 N 719.457 5.26293 -4.64715 0
M  V30 7878 H 724.297 1.21908 -2.71923 0
M  V30 7879 H 721.834 0.591011 -1.34705 0
M  V30 7880 H 723.792 3.61568 -2.08146 0
M  V30 7881 H 722.422 3.03523 -1.09881 0
M  V30 7882 H 721.474 1.95399 -3.26379 0
M  V30 7883 H 722.786 2.74794 -4.16281 0
M  V30 7884 H 721.94 4.99239 -3.44739 0
M  V30 7885 H 720.679 4.21935 -2.44586 0
M  V30 7886 H 719.684 3.16517 -4.49552 0
M  V30 7887 H 720.909 3.97039 -5.50942 0
M  V30 7888 H 718.855 5.37561 -3.75985 0
M  V30 7889 H 718.772 5.20526 -5.4826 0
M  V30 7890 H 720.04 6.16113 -4.77519 0
M  V30 7891 N 724.269 1.44576 0.627338 0
M  V30 7892 C 725.179 1.54232 1.76776 0
M  V30 7893 C 726.195 0.427782 1.6866 0
M  V30 7894 O 727.371 0.685671 1.89369 0
M  V30 7895 C 724.436 1.48738 3.13174 0
M  V30 7896 C 723.497 2.71074 3.32893 0
M  V30 7897 C 722.73 2.65832 4.62784 0
M  V30 7898 O 722.953 1.72048 5.43834 0
M  V30 7899 O 721.887 3.56742 4.84787 0
M  V30 7900 H 725.713 2.50586 1.71582 0
M  V30 7901 H 723.298 1.26865 0.789028 0
M  V30 7902 H 725.18 1.48211 3.94476 0
M  V30 7903 H 723.855 0.555292 3.18902 0
M  V30 7904 H 722.762 2.77168 2.51254 0
M  V30 7905 H 724.095 3.63342 3.32029 0
M  V30 7906 N 725.747 -0.868086 1.31537 0
M  V30 7907 C 726.993 -1.62367 1.2151 0
M  V30 7908 C 727.326 -1.92883 -0.225819 0
M  V30 7909 O 726.601 -1.56176 -1.15927 0
M  V30 7910 C 726.884 -2.95268 2.06129 0
M  V30 7911 C 726.737 -2.71619 3.58529 0
M  V30 7912 C 728.056 -3.96391 1.91212 0
M  V30 7913 H 725.175 -0.589178 0.442762 0
M  V30 7914 H 727.817 -1.00336 1.61347 0
M  V30 7915 H 725.967 -3.4821 1.72284 0
M  V30 7916 H 727.639 -2.25334 4.0252 0
M  V30 7917 H 725.882 -2.05817 3.81866 0
M  V30 7918 H 726.553 -3.66192 4.13047 0
M  V30 7919 H 729.029 -3.52663 2.20834 0
M  V30 7920 H 727.905 -4.87263 2.52718 0
M  V30 7921 H 728.166 -4.33335 0.875953 0
M  V30 7922 N 727.225 -1.14528 -1.08264 0
M  V30 7923 C 728.471 -0.91576 -1.80947 0
M  V30 7924 C 728.804 0.55623 -1.86064 0
M  V30 7925 O 728.079 1.41207 -1.33756 0
M  V30 7926 C 728.362 -1.51917 -3.26486 0
M  V30 7927 C 728.215 -3.06111 -3.2957 0
M  V30 7928 C 729.534 -1.19724 -4.23502 0
M  V30 7929 H 726.653 -0.334113 -0.656915 0
M  V30 7930 H 729.295 -1.41547 -1.26746 0
M  V30 7931 H 727.445 -1.0942 -3.72773 0
M  V30 7932 H 729.117 -3.57448 -2.91597 0
M  V30 7933 H 727.36 -3.40483 -2.688 0
M  V30 7934 H 728.031 -3.43438 -4.32151 0
M  V30 7935 H 730.507 -1.56467 -3.85561 0
M  V30 7936 H 729.383 -1.64575 -5.23647 0
M  V30 7937 H 729.644 -0.112771 -4.41956 0
M  V30 7938 N 728.703 1.26451 -0.940633 0
M  V30 7939 C 729.666 2.24651 -0.454378 0
M  V30 7940 C 730.666 1.54826 0.434222 0
M  V30 7941 O 731.856 1.72628 0.233477 0
M  V30 7942 C 728.988 3.39148 0.345192 0
M  V30 7943 H 730.181 2.69182 -1.32217 0
M  V30 7944 H 727.734 1.38596 -0.722547 0
M  V30 7945 H 728.469 3.00018 1.23125 0
M  V30 7946 H 728.254 3.9101 -0.292107 0
M  V30 7947 H 729.744 4.12103 0.675341 0
M  V30 7948 N 730.181 0.707592 1.40822 0
M  V30 7949 C 731.128 0.0499029 2.30746 0
M  V30 7950 C 732.098 -0.758718 1.47759 0
M  V30 7951 O 733.283 -0.724299 1.76518 0
M  V30 7952 C 730.423 -0.871756 3.33908 0
M  V30 7953 C 729.536 -0.0534655 4.31967 0
M  V30 7954 C 728.671 -0.973869 5.22197 0
M  V30 7955 C 727.71 -0.149194 6.11918 0
M  V30 7956 N 726.847 -1.02404 6.94592 0
M  V30 7957 H 731.687 0.822461 2.86426 0
M  V30 7958 H 729.224 0.417285 1.41057 0
M  V30 7959 H 731.182 -1.42028 3.9228 0
M  V30 7960 H 729.812 -1.61058 2.7975 0
M  V30 7961 H 728.864 0.612142 3.75442 0
M  V30 7962 H 730.176 0.585354 4.95353 0
M  V30 7963 H 729.33 -1.59121 5.85462 0
M  V30 7964 H 728.069 -1.64652 4.59065 0
M  V30 7965 H 727.074 0.481137 5.47691 0
M  V30 7966 H 728.299 0.519841 6.77107 0
M  V30 7967 H 726.245 -1.6825 6.34057 0
M  V30 7968 H 726.162 -0.441076 7.54712 0
M  V30 7969 H 727.43 -1.62782 7.62314 0
M  V30 7970 N 731.66 -1.50943 0.453197 0
M  V30 7971 C 732.59 -2.31005 -0.34044 0
M  V30 7972 C 733.571 -1.37112 -1.00669 0
M  V30 7973 O 734.756 -1.66033 -1.0073 0
M  V30 7974 C 731.886 -3.16358 -1.433 0
M  V30 7975 C 730.84 -4.18658 -0.889363 0
M  V30 7976 C 730.166 -4.92633 -2.07887 0
M  V30 7977 C 731.466 -5.22227 0.0871142 0
M  V30 7978 H 733.16 -2.97601 0.327723 0
M  V30 7979 H 730.706 -1.43119 0.159054 0
M  V30 7980 H 732.659 -3.71155 -1.99555 0
M  V30 7981 H 731.383 -2.47613 -2.12968 0
M  V30 7982 H 730.042 -3.64936 -0.348915 0
M  V30 7983 H 729.69 -4.20376 -2.76211 0
M  V30 7984 H 729.39 -5.61819 -1.72143 0
M  V30 7985 H 730.914 -5.50258 -2.64666 0
M  V30 7986 H 732.328 -5.72001 -0.385656 0
M  V30 7987 H 730.725 -5.99032 0.357926 0
M  V30 7988 H 731.795 -4.74077 1.01879 0
M  V30 7989 N 733.138 -0.185124 -1.56509 0
M  V30 7990 C 734.363 0.465278 -2.02114 0
M  V30 7991 C 734.788 1.55083 -1.06447 0
M  V30 7992 O 734.146 1.81241 -0.0462852 0
M  V30 7993 C 734.194 1.00784 -3.46229 0
M  V30 7994 O 733.298 2.12123 -3.53663 0
M  V30 7995 H 732.639 0.109891 -0.654843 0
M  V30 7996 H 735.169 -0.293072 -2.0249 0
M  V30 7997 H 735.179 1.32697 -3.85818 0
M  V30 7998 H 733.854 0.213113 -4.15354 0
M  V30 7999 H 732.431 1.8115 -3.25943 0
M  V30 8000 N 734.616 1.57351 0.0885366 0
M  V30 8001 C 735.526 2.05858 1.12516 0
M  V30 8002 C 736.542 0.984758 1.43452 0
M  V30 8003 O 737.718 1.29836 1.53963 0
M  V30 8004 C 734.783 2.47882 2.42395 0
M  V30 8005 C 733.844 3.69487 2.18582 0
M  V30 8006 C 733.077 4.09497 3.42268 0
M  V30 8007 O 733.3 3.49536 4.50755 0
M  V30 8008 O 732.234 5.02406 3.31469 0
M  V30 8009 H 736.06 2.94467 0.743146 0
M  V30 8010 H 733.645 1.46326 0.301507 0
M  V30 8011 H 735.527 2.75509 3.18862 0
M  V30 8012 H 734.202 1.62408 2.8001 0
M  V30 8013 H 733.109 3.46967 1.39875 0
M  V30 8014 H 734.442 4.55761 1.85857 0
M  V30 8015 N 736.094 -0.359525 1.53444 0
M  V30 8016 C 737.343 -1.09886 1.69139 0
M  V30 8017 C 737.656 -1.90285 0.452863 0
M  V30 8018 O 738.862 -2.67033 0.490459 0
M  V30 8019 C 737.318 -2.0028 2.99025 0
M  V30 8020 C 736.926 -1.25164 4.30161 0
M  V30 8021 C 738.67 -2.74168 3.24086 0
M  V30 8022 C 736.577 -2.14494 5.51132 0
M  V30 8023 H 735.507 -0.413936 0.630217 0
M  V30 8024 H 738.158 -0.359434 1.79945 0
M  V30 8025 H 736.54 -2.77978 2.82036 0
M  V30 8026 H 737.714 -0.524867 4.57801 0
M  V30 8027 H 736.029 -0.631116 4.11589 0
M  V30 8028 H 738.626 -3.41243 4.11652 0
M  V30 8029 H 738.969 -3.39868 2.40407 0
M  V30 8030 H 739.502 -2.0355 3.41778 0
M  V30 8031 H 736.241 -1.53362 6.37307 0
M  V30 8032 H 735.761 -2.85004 5.27762 0
M  V30 8033 H 737.44 -2.73914 5.86157 0
M  V30 8034 N 737.572 -1.44907 -0.619662 0
M  V30 8035 C 738.502 -1.55488 -1.742 0
M  V30 8036 C 739.483 -0.407143 -1.65156 0
M  V30 8037 O 740.668 -0.628743 -1.8374 0
M  V30 8038 C 737.798 -1.5097 -3.1277 0
M  V30 8039 C 736.752 -2.64337 -3.36615 0
M  V30 8040 C 736.078 -2.44872 -4.75333 0
M  V30 8041 C 737.378 -4.06423 -3.28051 0
M  V30 8042 H 739.072 -2.49432 -1.65602 0
M  V30 8043 H 736.618 -1.20047 -0.795281 0
M  V30 8044 H 738.571 -1.56971 -3.91073 0
M  V30 8045 H 737.295 -0.535486 -3.2218 0
M  V30 8046 H 735.954 -2.57744 -2.60698 0
M  V30 8047 H 735.602 -1.45617 -4.81461 0
M  V30 8048 H 735.302 -3.20888 -4.92244 0
M  V30 8049 H 736.826 -2.52709 -5.55851 0
M  V30 8050 H 738.24 -4.14324 -3.96243 0
M  V30 8051 H 736.637 -4.82733 -3.56495 0
M  V30 8052 H 737.707 -4.29183 -2.25676 0
M  V30 8053 N 739.05 0.861098 -1.31996 0
M  V30 8054 C 739.98 1.98482 -1.22993 0
M  V30 8055 C 740.961 1.6971 -0.115168 0
M  V30 8056 O 742.146 1.91849 -0.30126 0
M  V30 8057 C 739.276 3.34179 -0.945615 0
M  V30 8058 C 738.23 3.77284 -2.02091 0
M  V30 8059 C 737.556 5.1054 -1.58912 0
M  V30 8060 C 738.856 3.93439 -3.43515 0
M  V30 8061 H 740.55 2.06271 -2.17008 0
M  V30 8062 H 738.096 0.991043 -1.04472 0
M  V30 8063 H 740.049 4.12338 -0.869206 0
M  V30 8064 H 738.773 3.26586 0.0301849 0
M  V30 8065 H 737.432 3.01371 -2.08737 0
M  V30 8066 H 737.08 4.99397 -0.600942 0
M  V30 8067 H 736.78 5.40352 -2.30854 0
M  V30 8068 H 738.304 5.91199 -1.52696 0
M  V30 8069 H 739.718 4.6197 -3.39495 0
M  V30 8070 H 738.115 4.34661 -4.13751 0
M  V30 8071 H 739.185 2.96548 -3.8365 0
M  V30 8072 N 740.528 1.15101 1.07655 0
M  V30 8073 C 741.475 0.844958 2.14777 0
M  V30 8074 C 742.445 -0.200798 1.64882 0
M  V30 8075 O 743.63 -0.0690278 1.90675 0
M  V30 8076 C 740.77 0.337018 3.4345 0
M  V30 8077 C 739.883 1.44398 4.07153 0
M  V30 8078 C 739.018 0.892487 5.23649 0
M  V30 8079 C 738.057 1.9766 5.79307 0
M  V30 8080 N 737.194 1.44171 6.87138 0
M  V30 8081 H 742.034 1.76242 2.40297 0
M  V30 8082 H 739.571 0.879435 1.17917 0
M  V30 8083 H 741.529 0.024256 4.17193 0
M  V30 8084 H 740.159 -0.543531 3.18191 0
M  V30 8085 H 739.211 1.87299 3.31094 0
M  V30 8086 H 740.523 2.26262 4.4453 0
M  V30 8087 H 739.677 0.532083 6.04362 0
M  V30 8088 H 738.416 0.0429854 4.87681 0
M  V30 8089 H 737.421 2.34586 4.97242 0
M  V30 8090 H 738.646 2.82982 6.17331 0
M  V30 8091 H 736.592 0.614518 6.53115 0
M  V30 8092 H 736.509 2.19665 7.23383 0
M  V30 8093 H 737.777 1.10945 7.71564 0
M  V30 8094 N 742.006 -1.2595 0.947325 0
M  V30 8095 C 743.283 -1.88676 0.515824 0
M  V30 8096 C 743.663 -1.85547 -1.00675 0
M  V30 8097 O 743.011 -1.31399 -1.8694 0
M  V30 8098 C 743.221 -3.31734 1.08415 0
M  V30 8099 C 744.569 -4.08545 1.15654 0
M  V30 8100 O 745.593 -3.40826 1.03517 0
M  V30 8101 O 744.452 -5.29663 1.34608 0
M  V30 8102 H 741.546 -0.809537 0.169055 0
M  V30 8103 H 744.092 -1.34075 1.04029 0
M  V30 8104 H 742.864 -3.28404 2.1276 0
M  V30 8105 H 742.487 -3.93882 0.542499 0
M  V30 8106 N 743.484 -0.715051 -1.40445 0
M  V30 8107 C 744.414 -0.0768699 -2.33373 0
M  V30 8108 C 745.395 0.746109 -1.52863 0
M  V30 8109 O 746.58 0.695142 -1.81332 0
M  V30 8110 C 743.71 0.846014 -3.36838 0
M  V30 8111 C 742.664 0.128694 -4.27806 0
M  V30 8112 C 741.99 1.16726 -5.21804 0
M  V30 8113 C 743.29 -1.01679 -5.12307 0
M  V30 8114 H 744.984 -0.853061 -2.8699 0
M  V30 8115 H 742.53 -0.41167 -1.3799 0
M  V30 8116 H 744.483 1.30185 -4.00786 0
M  V30 8117 H 743.207 1.6541 -2.81615 0
M  V30 8118 H 741.866 -0.307314 -3.6531 0
M  V30 8119 H 741.514 1.96838 -4.62887 0
M  V30 8120 H 741.214 0.692188 -5.83509 0
M  V30 8121 H 742.738 1.62321 -5.88629 0
M  V30 8122 H 744.152 -0.640337 -5.69713 0
M  V30 8123 H 742.549 -1.4202 -5.83053 0
M  V30 8124 H 743.619 -1.84769 -4.48317 0
M  V30 8125 N 744.962 1.50701 -0.461195 0
M  V30 8126 C 746.373 1.867 -0.00370227 0
M  V30 8127 C 746.724 1.37673 1.39787 0
M  V30 8128 O 745.849 0.737515 2.03445 0
M  V30 8129 C 746.444 3.388 5.75786e-05 0
M  V30 8130 C 745.003 3.74247 0.402044 0
M  V30 8131 C 744.15 2.74549 -0.389652 0
M  V30 8132 H 747.101 1.43585 -0.675942 0
M  V30 8133 H 747.122 3.719 0.804414 0
M  V30 8134 H 746.634 3.74452 -1.02015 0
M  V30 8135 H 744.735 3.44192 1.42697 0
M  V30 8136 H 744.848 4.78973 0.110265 0
M  V30 8137 H 743.212 2.54226 0.155314 0
M  V30 8138 H 743.995 3.13044 -1.40919 0
M  V30 8139 N 746.441 0.193421 1.56409 0
M  V30 8140 C 747.688 -0.445789 1.97532 0
M  V30 8141 C 748.016 -1.61744 1.08024 0
M  V30 8142 O 747.271 -1.95338 0.118982 0
M  V30 8143 C 747.57 -0.949718 3.44551 0
M  V30 8144 C 747.236 0.108383 4.5077 0
M  V30 8145 C 745.898 0.399126 4.79542 0
M  V30 8146 C 748.25 0.825423 5.14622 0
M  V30 8147 C 745.578 1.41192 5.69457 0
M  V30 8148 C 747.93 1.82735 6.05632 0
M  V30 8149 C 746.594 2.12531 6.32761 0
M  V30 8150 H 745.864 -0.163126 0.722822 0
M  V30 8151 H 748.511 0.290035 1.89291 0
M  V30 8152 H 746.816 -1.76378 3.49854 0
M  V30 8153 H 748.513 -1.45367 3.73724 0
M  V30 8154 H 745.103 -0.128392 4.28408 0
M  V30 8155 H 749.287 0.61403 4.92487 0
M  V30 8156 H 744.543 1.6487 5.88751 0
M  V30 8157 H 748.717 2.3882 6.5417 0
M  V30 8158 H 746.344 2.91155 7.02234 0
M  V30 8159 N 747.919 -1.57396 -0.0801906 0
M  V30 8160 C 749.168 -1.8602 -0.779702 0
M  V30 8161 C 749.481 -0.784864 -1.79163 0
M  V30 8162 O 750.687 -0.958691 -2.54011 0
M  V30 8163 C 749.143 -3.29942 -1.43758 0
M  V30 8164 C 748.751 -4.45584 -0.464654 0
M  V30 8165 C 750.495 -3.67775 -2.11995 0
M  V30 8166 C 748.402 -5.80544 -1.12797 0
M  V30 8167 H 747.332 -0.69392 -0.294943 0
M  V30 8168 H 749.983 -1.83471 -0.0328527 0
M  V30 8169 H 748.365 -3.27078 -2.2324 0
M  V30 8170 H 749.539 -4.59824 0.299749 0
M  V30 8171 H 747.854 -4.16247 0.112813 0
M  V30 8172 H 750.451 -4.65896 -2.62383 0
M  V30 8173 H 750.794 -2.9715 -2.91561 0
M  V30 8174 H 751.327 -3.72593 -1.39354 0
M  V30 8175 H 748.066 -6.54439 -0.372807 0
M  V30 8176 H 747.586 -5.70119 -1.86344 0
M  V30 8177 H 749.265 -6.25602 -1.6502 0
M  V30 8178 N 749.397 0.351382 -1.53633 0
M  V30 8179 C 750.808 0.927429 -1.62036 0
M  V30 8180 C 751.159 1.89809 -0.496706 0
M  V30 8181 O 750.284 2.1313 0.374749 0
M  V30 8182 C 750.879 1.68886 -2.93706 0
M  V30 8183 C 749.438 2.21404 -3.04397 0
M  V30 8184 C 748.585 1.03075 -2.57431 0
M  V30 8185 H 751.536 0.129748 -1.58169 0
M  V30 8186 H 751.557 2.55116 -2.82305 0
M  V30 8187 H 751.069 0.982149 -3.75467 0
M  V30 8188 H 749.17 2.95274 -2.27253 0
M  V30 8189 H 749.283 2.48312 -4.09729 0
M  V30 8190 H 747.647 1.40188 -2.12649 0
M  V30 8191 H 748.43 0.338793 -3.41624 0
M  V30 8192 N 750.875 1.45233 0.611969 0
M  V30 8193 C 751.805 1.5641 1.73373 0
M  V30 8194 C 752.786 0.415896 1.64937 0
M  V30 8195 O 753.971 0.638478 1.83404 0
M  V30 8196 C 751.101 1.52627 3.11965 0
M  V30 8197 C 750.055 2.66119 3.35208 0
M  V30 8198 C 749.381 2.4739 4.74028 0
M  V30 8199 C 750.681 4.08157 3.25891 0
M  V30 8200 H 752.375 2.50307 1.64277 0
M  V30 8201 H 749.921 1.20467 0.788904 0
M  V30 8202 H 751.874 1.59043 3.90235 0
M  V30 8203 H 750.598 0.552564 3.21892 0
M  V30 8204 H 749.257 2.59123 2.59327 0
M  V30 8205 H 748.905 1.48168 4.80682 0
M  V30 8206 H 748.605 3.23494 4.90536 0
M  V30 8207 H 750.129 2.55653 5.54503 0
M  V30 8208 H 751.543 4.1642 3.9404 0
M  V30 8209 H 749.94 4.84617 3.5393 0
M  V30 8210 H 751.01 4.30374 2.23397 0
M  V30 8211 N 752.353 -0.854086 1.3245 0
M  V30 8212 C 753.599 -1.6105 1.24235 0
M  V30 8213 C 753.954 -1.91421 -0.193877 0
M  V30 8214 O 753.247 -1.54599 -1.1318 0
M  V30 8215 C 753.441 -2.93746 2.03587 0
M  V30 8216 C 753.27 -2.76335 3.54781 0
M  V30 8217 C 752.04 -2.74687 4.24117 0
M  V30 8218 C 754.238 -2.50052 4.4942 0
M  V30 8219 N 752.22 -2.48493 5.6136 0
M  V30 8220 C 753.591 -2.33269 5.74444 0
M  V30 8221 C 755.646 -2.35525 4.38671 0
M  V30 8222 C 754.349 -2.03434 6.89933 0
M  V30 8223 C 756.375 -2.07081 5.5396 0
M  V30 8224 C 755.737 -1.91098 6.77983 0
M  V30 8225 H 751.836 -0.593008 0.50977 0
M  V30 8226 H 754.42 -1.00392 1.66822 0
M  V30 8227 H 752.591 -3.52382 1.63345 0
M  V30 8228 H 754.323 -3.58768 1.87263 0
M  V30 8229 H 751.078 -2.87647 3.7624 0
M  V30 8230 H 751.502 -2.38322 6.33665 0
M  V30 8231 H 756.144 -2.46602 3.43435 0
M  V30 8232 H 753.862 -1.91095 7.85181 0
M  V30 8233 H 757.448 -1.96618 5.4757 0
M  V30 8234 H 756.328 -1.69402 7.65684 0
M  V30 8235 N 753.831 -1.1567 -1.07043 0
M  V30 8236 C 755.061 -0.956083 -1.83146 0
M  V30 8237 C 755.469 0.498969 -1.82502 0
M  V30 8238 O 754.812 1.35791 -1.23719 0
M  V30 8239 C 754.874 -1.39704 -3.31245 0
M  V30 8240 C 754.538 -2.87045 -3.55604 0
M  V30 8241 C 755.535 -3.85092 -3.49285 0
M  V30 8242 C 753.22 -3.24787 -3.8317 0
M  V30 8243 C 755.214 -5.18885 -3.70185 0
M  V30 8244 C 752.901 -4.58751 -4.03721 0
M  V30 8245 C 753.899 -5.55609 -3.97224 0
M  V30 8246 O 753.587 -6.87154 -4.17223 0
M  V30 8247 H 753.319 -0.339473 -0.58458 0
M  V30 8248 H 755.873 -1.53922 -1.36005 0
M  V30 8249 H 754.103 -0.757326 -3.79212 0
M  V30 8250 H 755.792 -1.16503 -3.88821 0
M  V30 8251 H 756.558 -3.5728 -3.27988 0
M  V30 8252 H 752.437 -2.49979 -3.87339 0
M  V30 8253 H 755.981 -5.94473 -3.6503 0
M  V30 8254 H 751.878 -4.86277 -4.24505 0
M  V30 8255 H 752.646 -6.93618 -4.34553 0
M  V30 8256 N 755.309 1.25446 -0.953992 0
M  V30 8257 C 756.257 2.27909 -0.46478 0
M  V30 8258 C 757.251 1.62904 0.464607 0
M  V30 8259 O 758.457 1.76733 0.341407 0
M  V30 8260 H 754.832 0.74036 -0.131798 0
M  V30 8261 H 756.803 2.66559 -1.34122 0
M  V30 8262 C 755.552 3.46853 0.242589 0
M  V30 8263 H 754.875 3.97105 -0.463418 0
M  V30 8264 H 756.315 4.20432 0.548919 0
M  V30 8265 C 754.774 3.03386 1.46487 0
M  V30 8266 O 755.304 3.09342 2.56262 0
M  V30 8267 N 753.51 2.58584 1.32599 0
M  V30 8268 H 753.057 2.53938 0.432834 0
M  V30 8269 H 753.015 2.29866 2.14497 0
M  V30 8270 N 756.787 0.722489 1.40064 0
M  V30 8271 C 758.035 0.264455 2.00362 0
M  V30 8272 C 758.356 -1.14847 1.57592 0
M  V30 8273 O 757.626 -1.77982 0.818477 0
M  V30 8274 H 756.206 0.0947846 0.740962 0
M  V30 8275 H 758.868 0.929659 1.71299 0
M  V30 8276 H 757.964 0.302977 3.10626 0
M  V30 8277 N 758.265 -1.50454 0.469181 0
M  V30 8278 C 759.228 -2.2703 -0.314643 0
M  V30 8279 C 760.228 -1.31734 -0.922111 0
M  V30 8280 O 761.418 -1.55176 -0.791588 0
M  V30 8281 C 758.55 -3.08616 -1.44806 0
M  V30 8282 H 759.743 -2.97769 0.356892 0
M  V30 8283 H 757.296 -1.54698 0.223191 0
M  V30 8284 H 758.031 -2.42369 -2.1547 0
M  V30 8285 H 757.816 -3.78647 -1.01829 0
M  V30 8286 H 759.306 -3.66536 -2.00103 0
M  V30 8287 N 759.743 -0.201713 -1.56304 0
M  V30 8288 C 760.989 0.429292 -1.98818 0
M  V30 8289 C 761.344 1.58779 -1.08659 0
M  V30 8290 O 760.637 1.91142 -0.132365 0
M  V30 8291 C 760.831 0.931432 -3.45049 0
M  V30 8292 C 760.66 -0.176878 -4.49352 0
M  V30 8293 C 759.43 -0.636712 -5.01272 0
M  V30 8294 C 761.628 -0.988177 -5.04717 0
M  V30 8295 N 759.61 -1.72215 -5.8925 0
M  V30 8296 C 760.981 -1.92288 -5.89428 0
M  V30 8297 C 763.036 -1.02985 -4.87133 0
M  V30 8298 C 761.739 -2.89582 -6.58434 0
M  V30 8299 C 763.765 -1.99087 -5.56883 0
M  V30 8300 C 763.127 -2.913 -6.41345 0
M  V30 8301 H 759.226 0.124322 -0.772054 0
M  V30 8302 H 761.81 -0.308929 -1.92234 0
M  V30 8303 H 759.981 1.63907 -3.52121 0
M  V30 8304 H 761.713 1.5336 -3.74517 0
M  V30 8305 H 758.468 -0.228861 -4.73047 0
M  V30 8306 H 758.892 -2.26627 -6.37941 0
M  V30 8307 H 763.534 -0.330894 -4.21503 0
M  V30 8308 H 761.252 -3.6045 -7.23258 0
M  V30 8309 H 764.838 -2.0296 -5.45251 0
M  V30 8310 H 763.718 -3.6445 -6.94367 0
M  V30 8311 N 761.222 1.57436 0.0718424 0
M  V30 8312 C 762.469 1.87248 0.771007 0
M  V30 8313 C 762.797 0.793441 1.7758 0
M  V30 8314 O 762.052 -0.210565 1.94564 0
M  V30 8315 C 762.351 3.23723 1.51455 0
M  V30 8316 C 762.017 4.46194 0.649736 0
M  V30 8317 C 760.679 4.79438 0.411409 0
M  V30 8318 C 763.031 5.21176 0.05004 0
M  V30 8319 C 760.359 5.85077 -0.436096 0
M  V30 8320 C 762.711 6.27712 -0.784919 0
M  V30 8321 C 761.375 6.59457 -1.03312 0
M  V30 8322 H 760.645 0.685188 0.282132 0
M  V30 8323 H 763.292 1.91474 0.0317896 0
M  V30 8324 H 761.597 3.15287 2.32597 0
M  V30 8325 H 763.294 3.44023 2.06031 0
M  V30 8326 H 759.884 4.20175 0.84562 0
M  V30 8327 H 764.068 4.95806 0.221282 0
M  V30 8328 H 759.324 6.08071 -0.637136 0
M  V30 8329 H 763.498 6.84974 -1.25635 0
M  V30 8330 H 761.125 7.4114 -1.6916 0
M  V30 8331 N 762.7 -0.34323 1.53817 0
M  V30 8332 C 763.632 -1.44216 1.78141 0
M  V30 8333 C 764.645 -1.48701 0.662721 0
M  V30 8334 O 765.834 -1.51778 0.939458 0
M  V30 8335 C 762.934 -2.82872 1.86646 0
M  V30 8336 C 762.107 -3.01824 3.16577 0
M  V30 8337 C 761.166 -4.20723 3.16036 0
M  V30 8338 O 760.192 -4.14824 3.89756 0
M  V30 8339 N 761.394 -5.29276 2.38427 0
M  V30 8340 H 764.159 -1.23721 2.72971 0
M  V30 8341 H 761.72 -0.53311 1.52871 0
M  V30 8342 H 763.712 -3.60588 1.83735 0
M  V30 8343 H 762.282 -2.96509 0.990014 0
M  V30 8344 H 761.502 -2.11575 3.3261 0
M  V30 8345 H 762.79 -3.11369 4.02402 0
M  V30 8346 H 762.188 -5.36938 1.78085 0
M  V30 8347 H 760.745 -6.05484 2.41313 0
M  V30 8348 N 764.178 -1.45556 -0.604258 0
M  V30 8349 C 765.141 -1.54091 -1.69672 0
M  V30 8350 C 766.141 -0.420076 -1.55216 0
M  V30 8351 O 767.331 -0.683671 -1.60224 0
M  V30 8352 C 764.463 -1.44063 -3.08964 0
M  V30 8353 H 765.656 -2.51431 -1.6347 0
M  V30 8354 H 763.209 -1.33046 -0.820273 0
M  V30 8355 H 763.944 -0.479201 -3.2074 0
M  V30 8356 H 763.729 -2.25362 -3.20865 0
M  V30 8357 H 765.219 -1.53075 -3.88533 0
M  V30 8358 N 765.656 0.84705 -1.32902 0
M  V30 8359 C 766.881 1.63925 -1.27056 0
M  V30 8360 C 767.306 1.87443 0.157136 0
M  V30 8361 O 766.664 1.43266 1.11106 0
M  V30 8362 C 766.712 2.97134 -2.04313 0
M  V30 8363 O 765.816 3.88049 -1.39614 0
M  V30 8364 H 765.157 0.499477 -0.437514 0
M  V30 8365 H 767.687 1.05443 -1.75336 0
M  V30 8366 H 767.697 3.46896 -2.14772 0
M  V30 8367 H 766.372 2.79339 -3.08128 0
M  V30 8368 H 764.949 3.46525 -1.3775 0
M  V30 8369 N 767.134 1.16236 1.06428 0
M  V30 8370 C 768.044 0.881976 2.1739 0
M  V30 8371 C 769.06 -0.145259 1.73393 0
M  V30 8372 O 770.236 0.0310558 2.01376 0
M  V30 8373 C 767.301 0.385496 3.4455 0
M  V30 8374 C 766.362 1.47779 4.03063 0
M  V30 8375 C 765.595 1.0049 5.24154 0
M  V30 8376 O 765.818 -0.145889 5.70213 0
M  V30 8377 O 764.752 1.79265 5.74585 0
M  V30 8378 H 768.578 1.80983 2.43883 0
M  V30 8379 H 766.163 0.942226 1.15942 0
M  V30 8380 H 768.045 0.115536 4.21242 0
M  V30 8381 H 766.72 -0.514369 3.19587 0
M  V30 8382 H 765.627 1.80147 3.27869 0
M  V30 8383 H 766.96 2.35291 4.32318 0
M  V30 8384 N 768.612 -1.24939 0.960631 0
M  V30 8385 C 769.575 -2.239 0.49006 0
M  V30 8386 C 770.575 -1.55497 -0.409535 0
M  V30 8387 O 771.765 -1.72978 -0.205984 0
M  V30 8388 C 768.897 -3.39654 -0.291193 0
M  V30 8389 H 770.09 -2.67044 1.36482 0
M  V30 8390 H 767.643 -1.37429 0.744505 0
M  V30 8391 H 768.378 -3.01939 -1.18336 0
M  V30 8392 H 768.163 -3.90496 0.354276 0
M  V30 8393 H 769.653 -4.13125 -0.609693 0
M  V30 8394 N 770.09 -0.729906 -1.39679 0
M  V30 8395 C 771.336 -0.27603 -2.00913 0
M  V30 8396 C 771.669 1.13227 -1.57776 0
M  V30 8397 O 770.944 1.7709 -0.804319 0
M  V30 8398 C 771.227 -0.372157 -3.58172 0
M  V30 8399 C 771.08 -1.81986 -4.11341 0
M  V30 8400 C 772.399 0.248378 -4.39399 0
M  V30 8401 H 769.518 -0.101773 -0.729939 0
M  V30 8402 H 772.16 -0.925104 -1.65957 0
M  V30 8403 H 770.31 0.180459 -3.88081 0
M  V30 8404 H 771.982 -2.42896 -3.92172 0
M  V30 8405 H 770.225 -2.34287 -3.65092 0
M  V30 8406 H 770.896 -1.83842 -5.20486 0
M  V30 8407 H 773.372 -0.222645 -4.15504 0
M  V30 8408 H 772.248 0.150746 -5.48693 0
M  V30 8409 H 772.509 1.33378 -4.21501 0
M  V30 8410 N 771.568 1.50203 -0.477153 0
M  V30 8411 C 772.814 2.03286 0.0679442 0
M  V30 8412 C 773.169 1.35227 1.36863 0
M  V30 8413 O 772.462 0.471029 1.8572 0
M  V30 8414 C 772.656 3.56127 0.301325 0
M  V30 8415 C 772.485 4.38999 -0.975188 0
M  V30 8416 C 771.255 4.81889 -1.52022 0
M  V30 8417 C 773.453 4.79013 -1.8722 0
M  V30 8418 N 771.435 5.49105 -2.74513 0
M  V30 8419 C 772.806 5.45701 -2.94296 0
M  V30 8420 C 774.861 4.60967 -1.88185 0
M  V30 8421 C 773.564 5.96255 -4.02333 0
M  V30 8422 C 775.59 5.12466 -2.95183 0
M  V30 8423 C 774.952 5.79134 -4.00977 0
M  V30 8424 H 771.051 0.78185 -0.015318 0
M  V30 8425 H 773.635 1.83646 -0.64671 0
M  V30 8426 H 771.806 3.75702 0.985021 0
M  V30 8427 H 773.538 3.95859 0.841304 0
M  V30 8428 H 770.293 4.61387 -1.06858 0
M  V30 8429 H 770.717 5.87315 -3.36734 0
M  V30 8430 H 775.359 4.0885 -1.07708 0
M  V30 8431 H 773.077 6.47406 -4.83623 0
M  V30 8432 H 776.663 5.00329 -2.96921 0
M  V30 8433 H 775.543 6.18265 -4.82409 0
M  V30 8434 N 773.046 0.209999 1.56195 0
M  V30 8435 C 774.274 -0.429996 2.02382 0
M  V30 8436 C 774.689 -1.54159 1.08998 0
M  V30 8437 O 774.046 -1.82239 0.0974856 0
M  V30 8438 C 774.097 -0.972433 3.48175 0
M  V30 8439 O 773.818 0.0948231 4.37997 0
M  V30 8440 C 775.319 -1.68683 4.09952 0
M  V30 8441 H 772.539 -0.106475 0.662498 0
M  V30 8442 H 775.083 0.323072 2.01932 0
M  V30 8443 H 773.238 -1.67582 3.49278 0
M  V30 8444 H 773.652 -0.31113 5.23576 0
M  V30 8445 H 775.126 -2.01851 5.13771 0
M  V30 8446 H 775.603 -2.59587 3.54276 0
M  V30 8447 H 776.209 -1.02893 4.12666 0
M  V30 8448 N 774.524 -1.57472 -0.0634922 0
M  V30 8449 C 775.472 -2.05307 -1.09323 0
M  V30 8450 C 776.466 -0.959995 -1.39572 0
M  V30 8451 O 777.672 -1.14507 -1.38882 0
M  V30 8452 H 774.047 -0.65472 -0.369927 0
M  V30 8453 H 776.018 -2.90925 -0.663707 0
M  V30 8454 C 774.767 -2.51954 -2.39613 0
M  V30 8455 H 774.09 -3.35662 -2.1719 0
M  V30 8456 H 775.53 -2.89169 -3.10092 0
M  V30 8457 C 773.989 -1.40596 -3.06161 0
M  V30 8458 O 774.519 -0.752722 -3.94585 0
M  V30 8459 N 772.725 -1.14902 -2.66919 0
M  V30 8460 H 772.272 -1.68205 -1.95102 0
M  V30 8461 H 772.23 -0.406006 -3.11767 0
M  V30 8462 N 776.003 0.335068 -1.53997 0
M  V30 8463 C 777.249 1.07222 -1.72844 0
M  V30 8464 C 777.604 1.86054 -0.490075 0
M  V30 8465 O 776.897 1.84481 0.517416 0
M  V30 8466 C 777.091 2.0364 -2.9371 0
M  V30 8467 C 776.92 1.34287 -4.29182 0
M  V30 8468 C 775.69 1.08417 -4.93532 0
M  V30 8469 C 777.888 0.764703 -5.08583 0
M  V30 8470 N 775.87 0.357342 -6.12859 0
M  V30 8471 C 777.241 0.168876 -6.1977 0
M  V30 8472 C 779.296 0.666383 -4.9342 0
M  V30 8473 C 777.999 -0.515716 -7.17449 0
M  V30 8474 C 780.025 -0.0044859 -5.914 0
M  V30 8475 C 779.387 -0.589305 -7.01931 0
M  V30 8476 H 775.486 0.376448 -0.685427 0
M  V30 8477 H 778.07 0.354778 -1.9144 0
M  V30 8478 H 776.241 2.72668 -2.76599 0
M  V30 8479 H 777.973 2.70256 -3.01237 0
M  V30 8480 H 774.728 1.37351 -4.53246 0
M  V30 8481 H 775.152 0.00840481 -6.76999 0
M  V30 8482 H 779.794 1.10426 -4.08125 0
M  V30 8483 H 777.512 -0.965457 -8.02312 0
M  V30 8484 H 781.098 -0.0800446 -5.81745 0
M  V30 8485 H 779.978 -1.10019 -7.76444 0
M  V30 8486 N 777.481 1.45874 0.596531 0
M  V30 8487 C 778.892 1.44798 1.17857 0
M  V30 8488 C 779.243 0.181443 1.95359 0
M  V30 8489 O 778.368 -0.716336 2.042 0
M  V30 8490 C 778.963 2.62333 2.14398 0
M  V30 8491 C 777.522 2.64342 2.67955 0
M  V30 8492 C 776.669 2.37244 1.43564 0
M  V30 8493 H 779.62 1.53954 0.385222 0
M  V30 8494 H 779.641 2.37063 2.97626 0
M  V30 8495 H 779.153 3.54499 1.57963 0
M  V30 8496 H 777.254 1.76213 3.28298 0
M  V30 8497 H 777.367 3.63897 3.11634 0
M  V30 8498 H 775.731 1.87022 1.72901 0
M  V30 8499 H 776.514 3.31568 0.889805 0
M  V30 8500 N 778.959 -0.83999 1.33349 0
M  V30 8501 C 780.187 -1.62728 1.27778 0
M  V30 8502 C 780.602 -1.88191 -0.151505 0
M  V30 8503 O 779.959 -1.46128 -1.09329 0
M  V30 8504 C 780.01 -2.97813 2.04913 0
M  V30 8505 O 779.731 -2.73469 3.42266 0
M  V30 8506 C 781.232 -3.92245 2.0654 0
M  V30 8507 H 778.452 -0.506374 0.440257 0
M  V30 8508 H 780.996 -1.04637 1.75703 0
M  V30 8509 H 779.151 -3.52509 1.60674 0
M  V30 8510 H 779.565 -3.59483 3.81932 0
M  V30 8511 H 781.039 -4.84249 2.64966 0
M  V30 8512 H 781.516 -4.26332 1.05537 0
M  V30 8513 H 782.122 -3.43487 2.50793 0
M  V30 8514 N 780.437 -1.16799 -1.0581 0
M  V30 8515 C 781.347 -0.893492 -2.16919 0
M  V30 8516 C 782.363 0.136061 -1.73467 0
M  V30 8517 O 783.539 -0.0417348 -2.01357 0
M  V30 8518 C 780.604 -0.403763 -3.44341 0
M  V30 8519 C 779.665 -1.49914 -4.02274 0
M  V30 8520 C 778.898 -1.03269 -5.23614 0
M  V30 8521 O 779.121 0.115647 -5.70283 0
M  V30 8522 O 778.055 -1.8231 -5.73626 0
M  V30 8523 H 781.881 -1.82274 -2.42919 0
M  V30 8524 H 779.466 -0.948361 -1.1544 0
M  V30 8525 H 781.348 -0.137874 -4.21174 0
M  V30 8526 H 780.023 0.497413 -3.19855 0
M  V30 8527 H 778.93 -1.81883 -3.26909 0
M  V30 8528 H 780.263 -2.3758 -4.31064 0
M  V30 8529 N 781.915 1.24427 -0.967243 0
M  V30 8530 C 782.862 2.25398 -0.496419 0
M  V30 8531 C 783.832 1.59667 0.457781 0
M  V30 8532 O 785.017 1.87213 0.368246 0
M  V30 8533 C 782.157 3.44474 0.207693 0
M  V30 8534 C 781.27 4.24804 -0.785221 0
M  V30 8535 C 780.405 5.31169 -0.0572631 0
M  V30 8536 C 779.444 6.03195 -1.04027 0
M  V30 8537 N 778.581 7.01265 -0.34235 0
M  V30 8538 H 783.421 2.65039 -1.36229 0
M  V30 8539 H 780.958 1.30288 -0.682902 0
M  V30 8540 H 782.916 4.12376 0.632612 0
M  V30 8541 H 781.546 3.05672 1.03752 0
M  V30 8542 H 780.598 3.56445 -1.32858 0
M  V30 8543 H 781.91 4.74599 -1.53483 0
M  V30 8544 H 781.064 6.05205 0.425674 0
M  V30 8545 H 779.803 4.8228 0.725047 0
M  V30 8546 H 778.808 5.27964 -1.53409 0
M  V30 8547 H 780.033 6.54173 -1.82302 0
M  V30 8548 H 777.979 6.54648 0.420993 0
M  V30 8549 H 777.896 7.48939 -1.03084 0
M  V30 8550 H 779.164 7.7941 0.118634 0
M  V30 8551 N 783.393 0.737304 1.3929 0
M  V30 8552 C 784.341 0.0879867 2.32434 0
M  V30 8553 C 785.335 -0.723324 1.53181 0
M  V30 8554 O 786.541 -0.624251 1.68829 0
M  V30 8555 H 782.916 0.00965277 0.751938 0
M  V30 8556 H 784.887 0.889915 2.84821 0
M  V30 8557 C 783.636 -0.803384 3.38291 0
M  V30 8558 H 782.959 -0.18849 3.99355 0
M  V30 8559 H 784.399 -1.22528 4.0591 0
M  V30 8560 C 782.858 -1.93872 2.75527 0
M  V30 8561 O 783.388 -3.03154 2.63553 0
M  V30 8562 N 781.594 -1.72883 2.3358 0
M  V30 8563 H 781.141 -0.840005 2.43519 0
M  V30 8564 H 781.099 -2.49021 1.91927 0
M  V30 8565 N 784.871 -1.49948 0.485112 0
M  V30 8566 C 786.282 -1.8667 0.0334041 0
M  V30 8567 C 786.633 -1.3988 -1.37579 0
M  V30 8568 O 785.758 -0.769788 -2.02245 0
M  V30 8569 C 786.353 -3.38757 0.0538426 0
M  V30 8570 C 784.912 -3.74839 -0.342453 0
M  V30 8571 C 784.059 -2.73894 0.433281 0
M  V30 8572 H 787.01 -1.42492 0.698699 0
M  V30 8573 H 787.031 -3.73132 -0.745146 0
M  V30 8574 H 786.543 -3.72782 1.07959 0
M  V30 8575 H 784.644 -3.46419 -1.37203 0
M  V30 8576 H 784.757 -4.79088 -0.0340503 0
M  V30 8577 H 783.121 -2.54441 -0.114849 0
M  V30 8578 H 783.904 -3.10763 1.45881 0
M  V30 8579 N 786.349 -0.21828 -1.56081 0
M  V30 8580 C 787.579 0.41865 -2.02314 0
M  V30 8581 C 787.987 1.54124 -1.09739 0
M  V30 8582 O 787.33 1.83435 -0.0986829 0
M  V30 8583 C 787.392 1.01439 -3.44892 0
M  V30 8584 C 787.056 0.0276523 -4.56992 0
M  V30 8585 C 788.053 -0.771526 -5.14143 0
M  V30 8586 C 785.738 -0.0901537 -5.02219 0
M  V30 8587 C 787.732 -1.67525 -6.14991 0
M  V30 8588 C 785.419 -0.997411 -6.02905 0
M  V30 8589 C 786.417 -1.78851 -6.59167 0
M  V30 8590 O 786.105 -2.68052 -7.57894 0
M  V30 8591 H 785.837 0.107066 -0.667468 0
M  V30 8592 H 788.391 -0.331191 -2.02712 0
M  V30 8593 H 786.621 1.81326 -3.41552 0
M  V30 8594 H 788.31 1.55838 -3.74792 0
M  V30 8595 H 789.076 -0.690945 -4.80053 0
M  V30 8596 H 784.955 0.515474 -4.58109 0
M  V30 8597 H 788.499 -2.29316 -6.58832 0
M  V30 8598 H 784.396 -1.07902 -6.36418 0
M  V30 8599 H 785.164 -2.6209 -7.75404 0
M  V30 8600 N 787.827 1.57504 0.0551401 0
M  V30 8601 C 788.79 2.03826 1.04821 0
M  V30 8602 C 789.79 0.937968 1.30609 0
M  V30 8603 O 790.98 1.20237 1.2605 0
M  V30 8604 C 788.112 2.43309 2.38775 0
M  V30 8605 H 789.305 2.92802 0.6486 0
M  V30 8606 H 786.858 1.53368 0.301315 0
M  V30 8607 H 787.593 1.5741 2.83536 0
M  V30 8608 H 787.378 3.23615 2.21395 0
M  V30 8609 H 788.868 2.79666 3.10124 0
M  V30 8610 N 789.305 -0.326896 1.54172 0
M  V30 8611 C 790.551 -1.06681 1.72473 0
M  V30 8612 C 790.884 -1.87779 0.49523 0
M  V30 8613 O 790.159 -1.87754 -0.507803 0
M  V30 8614 C 790.442 -1.99429 2.99834 0
M  V30 8615 C 790.295 -1.21682 4.33028 0
M  V30 8616 C 791.614 -2.99002 3.22933 0
M  V30 8617 H 788.733 -0.386438 0.627563 0
M  V30 8618 H 791.375 -0.343779 1.86864 0
M  V30 8619 H 789.525 -2.61081 2.87696 0
M  V30 8620 H 791.197 -0.625153 4.57044 0
M  V30 8621 H 789.44 -0.519045 4.30684 0
M  V30 8622 H 790.111 -1.89766 5.18356 0
M  V30 8623 H 792.587 -2.4747 3.34511 0
M  V30 8624 H 791.463 -3.61085 4.13412 0
M  V30 8625 H 791.724 -3.71281 2.40006 0
M  V30 8626 N 790.784 -1.46188 -0.588786 0
M  V30 8627 C 792.195 -1.45421 -1.17088 0
M  V30 8628 C 792.546 -0.191801 -1.9526 0
M  V30 8629 O 791.671 0.705497 -2.04577 0
M  V30 8630 C 792.266 -2.63467 -2.13004 0
M  V30 8631 C 790.825 -2.6576 -2.6655 0
M  V30 8632 C 789.972 -2.38002 -1.42304 0
M  V30 8633 H 792.923 -1.54156 -0.377052 0
M  V30 8634 H 792.944 -2.38638 -2.96365 0
M  V30 8635 H 792.456 -3.55331 -1.56081 0
M  V30 8636 H 790.557 -1.77952 -3.27359 0
M  V30 8637 H 790.67 -3.65545 -3.09699 0
M  V30 8638 H 789.034 -1.87936 -1.71907 0
M  V30 8639 H 789.817 -3.32035 -0.872209 0
M  V30 8640 N 792.262 0.832906 -1.33792 0
M  V30 8641 C 793.511 1.58351 -1.24932 0
M  V30 8642 C 793.824 1.94754 0.181703 0
M  V30 8643 O 795.03 2.6865 0.392375 0
M  V30 8644 C 793.486 2.85643 -2.18943 0
M  V30 8645 C 793.094 2.56581 -3.67247 0
M  V30 8646 C 794.838 3.63667 -2.18968 0
M  V30 8647 C 792.745 3.80006 -4.53155 0
M  V30 8648 H 791.675 0.594278 -0.464058 0
M  V30 8649 H 794.326 0.91786 -1.58895 0
M  V30 8650 H 792.708 3.53781 -1.77919 0
M  V30 8651 H 793.882 1.96617 -4.16747 0
M  V30 8652 H 792.197 1.91851 -3.6957 0
M  V30 8653 H 794.794 4.55293 -2.80379 0
M  V30 8654 H 795.137 3.99039 -1.18631 0
M  V30 8655 H 795.67 3.0246 -2.58384 0
M  V30 8656 H 792.409 3.4976 -5.5439 0
M  V30 8657 H 791.929 4.39288 -4.08395 0
M  V30 8658 H 793.608 4.47523 -4.6726 0
M  V30 8659 N 793.74 1.17359 1.05189 0
M  V30 8660 C 794.988 0.960087 1.77839 0
M  V30 8661 C 795.309 -0.512554 1.88143 0
M  V30 8662 O 794.579 -1.3721 1.39822 0
M  V30 8663 H 793.159 0.352234 0.658741 0
M  V30 8664 H 795.821 1.47834 1.27008 0
M  V30 8665 H 794.917 1.38843 2.79516 0
M  V30 8666 N 795.218 -1.23913 0.973828 0
M  V30 8667 C 796.464 -1.92747 0.649635 0
M  V30 8668 C 796.819 -1.7465 -0.807157 0
M  V30 8669 O 796.112 -1.09271 -1.57386 0
M  V30 8670 C 796.306 -3.4406 0.967356 0
M  V30 8671 C 796.135 -3.76874 2.45348 0
M  V30 8672 C 794.905 -3.97915 3.11435 0
M  V30 8673 C 797.103 -3.82871 3.43386 0
M  V30 8674 N 795.085 -4.1788 4.49722 0
M  V30 8675 C 796.456 -4.07751 4.67053 0
M  V30 8676 C 798.511 -3.65634 3.37958 0
M  V30 8677 C 797.214 -4.17185 5.8596 0
M  V30 8678 C 799.24 -3.76317 4.56223 0
M  V30 8679 C 798.602 -4.01628 5.78683 0
M  V30 8680 H 794.701 -0.72677 0.288667 0
M  V30 8681 H 797.285 -1.4928 1.24994 0
M  V30 8682 H 795.456 -3.86378 0.395804 0
M  V30 8683 H 797.188 -4.00211 0.601108 0
M  V30 8684 H 793.943 -3.94562 2.61949 0
M  V30 8685 H 794.367 -4.31829 5.21395 0
M  V30 8686 H 799.009 -3.45067 2.44312 0
M  V30 8687 H 796.727 -4.36562 6.80029 0
M  V30 8688 H 800.313 -3.64343 4.53592 0
M  V30 8689 H 799.193 -4.09699 6.68667 0
M  V30 8690 N 796.696 -0.74468 -1.38897 0
M  V30 8691 C 797.644 -0.100312 -2.32384 0
M  V30 8692 C 798.638 0.715191 -1.53562 0
M  V30 8693 O 799.844 0.615288 -1.69157 0
M  V30 8694 H 796.219 -0.0136403 -0.751876 0
M  V30 8695 H 798.19 -0.905007 -2.84345 0
M  V30 8696 C 796.939 0.785432 -3.38713 0
M  V30 8697 H 796.262 0.167308 -3.9945 0
M  V30 8698 H 797.702 1.20374 -4.06554 0
M  V30 8699 C 796.161 1.92408 -2.76552 0
M  V30 8700 O 796.691 3.01752 -2.65157 0
M  V30 8701 N 794.897 1.71642 -2.34494 0
M  V30 8702 H 794.444 0.827079 -2.43961 0
M  V30 8703 H 794.402 2.48 -1.93244 0
M  V30 8704 N 798.174 1.49689 -0.493057 0
M  V30 8705 C 799.422 2.02027 0.0541642 0
M  V30 8706 C 799.743 1.37554 1.38217 0
M  V30 8707 O 799.013 0.528174 1.88646 0
M  V30 8708 H 797.593 0.746646 0.0230069 0
M  V30 8709 H 800.255 1.83795 -0.648489 0
M  V30 8710 H 799.351 3.11523 0.189652 0
M  V30 8711 N 799.652 0.226554 1.55963 0
M  V30 8712 C 800.898 -0.397608 1.99476 0
M  V30 8713 C 801.253 -1.57031 1.11172 0
M  V30 8714 O 800.546 -1.90907 0.162757 0
M  V30 8715 C 800.74 -0.87642 3.46488 0
M  V30 8716 C 800.569 0.248344 4.49014 0
M  V30 8717 C 799.339 0.71638 5.00196 0
M  V30 8718 C 801.537 1.06835 5.03081 0
M  V30 8719 N 799.519 1.81568 5.86435 0
M  V30 8720 C 800.89 2.01641 5.86294 0
M  V30 8721 C 802.945 1.10722 4.85433 0
M  V30 8722 C 801.648 3.0002 6.53743 0
M  V30 8723 C 803.674 2.07921 5.53645 0
M  V30 8724 C 803.036 3.01466 6.3663 0
M  V30 8725 H 799.135 -0.112024 0.773935 0
M  V30 8726 H 801.719 0.339472 1.91718 0
M  V30 8727 H 799.89 -1.58285 3.54684 0
M  V30 8728 H 801.622 -1.47382 3.76909 0
M  V30 8729 H 798.377 0.30409 4.72623 0
M  V30 8730 H 798.801 2.36748 6.34255 0
M  V30 8731 H 803.443 0.397909 4.20923 0
M  V30 8732 H 801.161 3.71911 7.17432 0
M  V30 8733 H 804.747 2.11609 5.41953 0
M  V30 8734 H 803.627 3.75451 6.88481 0
M  V30 8735 N 801.13 -1.57531 -0.0467866 0
M  V30 8736 C 802.376 -1.89584 -0.736837 0
M  V30 8737 C 802.731 -0.82317 -1.73901 0
M  V30 8738 O 802.024 0.170098 -1.90843 0
M  V30 8739 C 802.218 -3.26091 -1.46285 0
M  V30 8740 C 802.047 -4.46536 -0.532502 0
M  V30 8741 C 800.817 -5.05046 -0.160109 0
M  V30 8742 C 803.015 -5.13979 0.181555 0
M  V30 8743 N 800.997 -6.09009 0.773349 0
M  V30 8744 C 802.368 -6.12345 0.971297 0
M  V30 8745 C 804.423 -4.9727 0.250382 0
M  V30 8746 C 803.126 -6.95802 1.82351 0
M  V30 8747 C 805.152 -5.81275 1.08965 0
M  V30 8748 C 804.514 -6.79197 1.86737 0
M  V30 8749 H 800.613 -0.742868 -0.244277 0
M  V30 8750 H 803.197 -1.947 0.0025481 0
M  V30 8751 H 801.368 -3.21938 -2.1728 0
M  V30 8752 H 803.1 -3.45715 -2.10389 0
M  V30 8753 H 799.855 -4.70754 -0.518457 0
M  V30 8754 H 800.279 -6.65658 1.23406 0
M  V30 8755 H 804.921 -4.21458 -0.336578 0
M  V30 8756 H 802.639 -7.70971 2.42134 0
M  V30 8757 H 806.225 -5.70397 1.14621 0
M  V30 8758 H 805.105 -7.4307 2.50631 0
M  V30 8759 N 802.608 0.318715 -1.54344 0
M  V30 8760 C 803.54 1.41364 -1.80413 0
M  V30 8761 C 804.553 1.47627 -0.686294 0
M  V30 8762 O 805.742 1.50264 -0.963486 0
M  V30 8763 C 802.842 2.79867 -1.91123 0
M  V30 8764 C 802.015 2.96749 -3.21339 0
M  V30 8765 C 801.074 4.15642 -3.22689 0
M  V30 8766 O 800.1 4.08571 -3.96306 0
M  V30 8767 N 801.302 5.25416 -2.46817 0
M  V30 8768 H 804.067 1.19363 -2.74905 0
M  V30 8769 H 801.628 0.508722 -1.537 0
M  V30 8770 H 803.62 3.57619 -1.89448 0
M  V30 8771 H 802.19 2.94896 -1.03706 0
M  V30 8772 H 801.41 2.06257 -3.35934 0
M  V30 8773 H 802.698 3.04927 -4.07304 0
M  V30 8774 H 802.096 5.34037 -1.86605 0
M  V30 8775 H 800.653 6.01569 -2.50915 0
M  V30 8776 N 804.086 1.46499 0.581025 0
M  V30 8777 C 805.016 1.60052 1.70017 0
M  V30 8778 C 805.997 0.450788 1.64018 0
M  V30 8779 O 807.182 0.677237 1.82009 0
M  V30 8780 C 804.312 1.5921 3.08658 0
M  V30 8781 C 803.266 2.73169 3.29488 0
M  V30 8782 C 802.592 2.57389 4.68674 0
M  V30 8783 C 803.892 4.14978 3.1716 0
M  V30 8784 H 805.586 2.53735 1.5893 0
M  V30 8785 H 803.132 1.22113 0.763173 0
M  V30 8786 H 805.085 1.67285 3.86773 0
M  V30 8787 H 803.809 0.620718 3.20647 0
M  V30 8788 H 802.468 2.64566 2.53773 0
M  V30 8789 H 802.116 1.58331 4.77431 0
M  V30 8790 H 801.816 3.33826 4.83564 0
M  V30 8791 H 803.34 2.67358 5.48956 0
M  V30 8792 H 804.754 4.24684 3.85119 0
M  V30 8793 H 803.151 4.92016 3.4357 0
M  V30 8794 H 804.221 4.35016 2.14218 0
M  V30 8795 N 805.565 -0.825799 1.34232 0
M  V30 8796 C 806.793 -1.61363 1.29497 0
M  V30 8797 C 807.208 -1.88341 -0.131536 0
M  V30 8798 O 806.565 -1.47279 -1.07773 0
M  V30 8799 C 806.616 -2.95623 2.08061 0
M  V30 8800 O 806.337 -2.69824 3.45147 0
M  V30 8801 C 807.838 -3.90032 2.10688 0
M  V30 8802 H 805.058 -0.501676 0.445603 0
M  V30 8803 H 807.602 -1.02767 1.76803 0
M  V30 8804 H 805.757 -3.50785 1.64404 0
M  V30 8805 H 806.171 -3.55412 3.85723 0
M  V30 8806 H 807.645 -4.81411 2.70087 0
M  V30 8807 H 808.122 -4.25188 1.10052 0
M  V30 8808 H 808.728 -3.40807 2.54422 0
M  V30 8809 N 807.043 -1.17915 -1.04565 0
M  V30 8810 C 808.291 -0.969505 -1.77327 0
M  V30 8811 C 808.612 0.502569 -1.88412 0
M  V30 8812 O 807.882 1.36467 -1.40547 0
M  V30 8813 H 806.462 -0.355723 -0.656864 0
M  V30 8814 H 809.124 -1.48506 -1.26223 0
M  V30 8815 H 808.22 -1.40324 -2.78775 0
M  V30 8816 N 808.521 1.23394 -0.980386 0
M  V30 8817 C 809.77 1.91116 -0.644785 0
M  V30 8818 C 810.083 1.77333 0.825367 0
M  V30 8819 O 811.289 2.39858 1.27203 0
M  V30 8820 C 809.745 3.42592 -1.10266 0
M  V30 8821 C 809.353 3.65037 -2.59715 0
M  V30 8822 C 811.097 4.1609 -0.8408 0
M  V30 8823 C 809.004 5.10148 -2.9917 0
M  V30 8824 H 807.934 0.715632 -0.23746 0
M  V30 8825 H 810.585 1.39829 -1.18828 0
M  V30 8826 H 808.967 3.92989 -0.487372 0
M  V30 8827 H 810.141 3.25186 -3.26482 0
M  V30 8828 H 808.456 3.04849 -2.83647 0
M  V30 8829 H 811.053 5.23021 -1.11143 0
M  V30 8830 H 811.396 4.15702 0.223085 0
M  V30 8831 H 811.929 3.71681 -1.41767 0
M  V30 8832 H 808.668 5.15668 -4.04682 0
M  V30 8833 H 808.188 5.50949 -2.37097 0
M  V30 8834 H 809.867 5.7848 -2.89775 0
M  V30 8835 N 809.999 0.752036 1.385 0
M  V30 8836 C 810.946 0.123288 2.3047 0
M  V30 8837 C 811.916 -0.711326 1.50098 0
M  V30 8838 O 813.101 -0.667775 1.78733 0
M  V30 8839 C 810.241 -0.765085 3.36512 0
M  V30 8840 C 809.354 0.0839885 4.31918 0
M  V30 8841 C 808.489 -0.807243 5.25031 0
M  V30 8842 C 807.528 0.0455583 6.12083 0
M  V30 8843 N 806.665 -0.802547 6.97498 0
M  V30 8844 H 811.505 0.913169 2.83664 0
M  V30 8845 H 809.042 0.46195 1.39658 0
M  V30 8846 H 811 -1.29476 3.966 0
M  V30 8847 H 809.63 -1.52077 2.84732 0
M  V30 8848 H 808.682 0.731276 3.73305 0
M  V30 8849 H 809.994 0.74265 4.9324 0
M  V30 8850 H 809.148 -1.40414 5.90228 0
M  V30 8851 H 807.887 -1.49964 4.64071 0
M  V30 8852 H 806.892 0.655137 5.45883 0
M  V30 8853 H 808.117 0.734994 6.75111 0
M  V30 8854 H 806.063 -1.47992 6.39089 0
M  V30 8855 H 805.98 -0.200747 7.55733 0
M  V30 8856 H 807.248 -1.38447 7.67107 0
M  V30 8857 N 811.477 -1.49425 0.500989 0
M  V30 8858 C 812.705 -2.06861 -0.0403443 0
M  V30 8859 C 813.12 -1.36132 -1.30819 0
M  V30 8860 O 812.477 -0.439647 -1.77125 0
M  V30 8861 C 812.528 -3.6027 -0.297902 0
M  V30 8862 O 812.249 -4.28338 0.919686 0
M  V30 8863 C 813.75 -4.34419 -0.882876 0
M  V30 8864 H 810.97 -0.670688 0.0204619 0
M  V30 8865 H 813.514 -1.92207 0.698342 0
M  V30 8866 H 811.669 -3.74627 -0.98657 0
M  V30 8867 H 812.083 -5.2004 0.682528 0
M  V30 8868 H 813.557 -5.42631 -1.01268 0
M  V30 8869 H 814.034 -3.96898 -1.88066 0
M  V30 8870 H 814.64 -4.24669 -0.231677 0
M  V30 8871 N 812.955 -0.234822 -1.55841 0
M  V30 8872 C 813.885 0.664217 -2.23854 0
M  V30 8873 C 814.866 1.19076 -1.2147 0
M  V30 8874 O 816.051 1.23232 -1.50091 0
M  V30 8875 C 813.181 1.86666 -2.9287 0
M  V30 8876 C 812.135 1.47341 -4.01839 0
M  V30 8877 C 811.461 2.75571 -4.58219 0
M  V30 8878 C 812.761 0.653479 -5.18196 0
M  V30 8879 H 814.455 0.0971213 -2.99242 0
M  V30 8880 H 812.001 0.0452724 -1.43929 0
M  V30 8881 H 813.954 2.50116 -3.39146 0
M  V30 8882 H 812.678 2.45894 -2.1495 0
M  V30 8883 H 811.337 0.862314 -3.56314 0
M  V30 8884 H 810.985 3.32971 -3.77014 0
M  V30 8885 H 810.685 2.49987 -5.31771 0
M  V30 8886 H 812.209 3.39939 -5.07221 0
M  V30 8887 H 813.623 1.19198 -5.60771 0
M  V30 8888 H 812.02 0.494188 -5.98062 0
M  V30 8889 H 813.09 -0.337004 -4.83728 0
M  V30 8890 N 814.433 1.57553 0.0384317 0
M  V30 8891 C 815.68 1.88841 0.731116 0
M  V30 8892 C 816.008 0.83093 1.75857 0
M  V30 8893 O 815.263 -0.169248 1.94967 0
M  V30 8894 C 815.562 3.26862 1.44554 0
M  V30 8895 C 815.228 4.47472 0.554946 0
M  V30 8896 C 813.89 4.80203 0.309621 0
M  V30 8897 C 816.242 5.21165 -0.0605204 0
M  V30 8898 C 813.57 5.8402 -0.560101 0
M  V30 8899 C 815.922 6.25905 -0.91789 0
M  V30 8900 C 814.586 6.57117 -1.17277 0
M  V30 8901 H 813.856 0.691018 0.267534 0
M  V30 8902 H 816.503 1.91498 -0.00883195 0
M  V30 8903 H 814.808 3.2015 2.25856 0
M  V30 8904 H 816.505 3.48316 1.98688 0
M  V30 8905 H 813.095 4.21874 0.756304 0
M  V30 8906 H 817.279 4.96164 0.116064 0
M  V30 8907 H 812.535 6.06583 -0.765974 0
M  V30 8908 H 816.709 6.82155 -1.40136 0
M  V30 8909 H 814.336 7.37385 -1.84843 0
M  V30 8910 N 815.911 -0.310526 1.54511 0
M  V30 8911 C 817.159 -1.04484 1.72996 0
M  V30 8912 C 817.48 -1.88118 0.513479 0
M  V30 8913 O 816.75 -1.90119 -0.472384 0
M  V30 8914 H 815.33 -0.388747 0.637875 0
M  V30 8915 H 817.992 -0.343811 1.91844 0
M  V30 8916 H 817.088 -1.70341 2.61515 0
M  V30 8917 N 817.389 -1.46805 -0.573248 0
M  V30 8918 C 818.638 -1.51868 -1.32736 0
M  V30 8919 C 818.951 -0.178765 -1.94781 0
M  V30 8920 O 820.157 -0.107272 -2.71288 0
M  V30 8921 C 818.613 -2.67641 -2.40616 0
M  V30 8922 C 818.221 -4.08094 -1.84832 0
M  V30 8923 C 819.965 -2.81984 -3.17309 0
M  V30 8924 C 817.872 -5.15193 -2.90397 0
M  V30 8925 H 816.802 -0.56523 -0.49903 0
M  V30 8926 H 819.453 -1.7304 -0.610695 0
M  V30 8927 H 817.835 -2.39818 -3.15124 0
M  V30 8928 H 819.009 -4.45751 -1.16803 0
M  V30 8929 H 817.324 -3.985 -1.20775 0
M  V30 8930 H 819.921 -3.59166 -3.96111 0
M  V30 8931 H 820.264 -1.89842 -3.70494 0
M  V30 8932 H 820.797 -3.095 -2.4991 0
M  V30 8933 H 817.536 -6.09158 -2.42088 0
M  V30 8934 H 817.056 -4.82071 -3.56886 0
M  V30 8935 H 818.735 -5.41448 -3.54179 0
M  V30 8936 N 818.867 0.818669 -1.34668 0
M  V30 8937 C 819.777 1.9616 -1.2868 0
M  V30 8938 C 820.793 1.72918 -0.193742 0
M  V30 8939 O 821.969 1.96951 -0.420975 0
M  V30 8940 C 819.034 3.30534 -1.04633 0
M  V30 8941 C 818.095 3.66755 -2.23136 0
M  V30 8942 C 817.328 4.94717 -2.00227 0
M  V30 8943 O 817.551 5.62218 -0.96264 0
M  V30 8944 O 816.485 5.28915 -2.87286 0
M  V30 8945 H 820.311 2.04157 -2.24842 0
M  V30 8946 H 817.896 0.954691 -1.14917 0
M  V30 8947 H 819.778 4.11005 -0.930216 0
M  V30 8948 H 818.453 3.23495 -0.115139 0
M  V30 8949 H 817.36 2.8671 -2.40308 0
M  V30 8950 H 818.693 3.78484 -3.1466 0
M  V30 8951 N 820.346 1.18468 1.03938 0
M  V30 8952 C 821.309 0.914944 2.10146 0
M  V30 8953 C 822.309 -0.10022 1.60487 0
M  V30 8954 O 823.499 0.133365 1.73689 0
M  V30 8955 C 820.631 0.372993 3.38853 0
M  V30 8956 H 821.824 1.85677 2.35508 0
M  V30 8957 H 819.377 0.996876 1.20383 0
M  V30 8958 H 820.112 -0.57538 3.19155 0
M  V30 8959 H 819.897 1.1048 3.76213 0
M  V30 8960 H 821.387 0.203014 4.17106 0
M  V30 8961 N 821.824 -1.22873 0.986916 0
M  V30 8962 C 822.771 -2.2458 0.532215 0
M  V30 8963 C 823.741 -1.60375 -0.432322 0
M  V30 8964 O 824.926 -1.87775 -0.338416 0
M  V30 8965 C 822.066 -3.44761 -0.152864 0
M  V30 8966 C 821.179 -4.23501 0.852704 0
M  V30 8967 C 820.314 -5.31011 0.14176 0
M  V30 8968 C 819.353 -6.01464 1.1361 0
M  V30 8969 N 818.49 -7.00631 0.453871 0
M  V30 8970 H 823.33 -2.62838 1.40428 0
M  V30 8971 H 820.867 -1.29185 0.703543 0
M  V30 8972 H 822.825 -4.1333 -0.566926 0
M  V30 8973 H 821.455 -3.07284 -0.988756 0
M  V30 8974 H 820.507 -3.54286 1.38512 0
M  V30 8975 H 821.819 -4.72097 1.61014 0
M  V30 8976 H 820.973 -6.05805 -0.329337 0
M  V30 8977 H 819.712 -4.83373 -0.648229 0
M  V30 8978 H 818.717 -5.25456 1.61789 0
M  V30 8979 H 819.942 -6.5119 1.92686 0
M  V30 8980 H 817.888 -6.55235 -0.316791 0
M  V30 8981 H 817.805 -7.47204 1.14986 0
M  V30 8982 H 819.073 -7.795 0.00537823 0
M  V30 8983 O 823.341 -0.896491 -1.34333 0
M  V30 8984 H 824.032 -0.506358 -1.86964 0
M  V30 END ATOM
M  V30 BEGIN BOND
M  V30 END BOND
M  V30 END CTAB
M  END
$$$$
