drugbank_target|O95977 Sphingosine 1-phosphate receptor 4 (DB08868)
 OpenBabel12092121223D

  0  0  0     0  0            999 V3000
M  V30 BEGIN CTAB
M  V30 COUNTS 5954 6014 0 0 0
M  V30 BEGIN ATOM
M  V30 1 H -0.908 1.98254 -0.117106 0
M  V30 2 N 0 1.576 0 0
M  V30 3 C 0.933 2.03868 1.02534 0
M  V30 4 C 1.911 0.928543 1.3348 0
M  V30 5 O 3.095 1.19667 1.45644 0
M  V30 6 C 0.222 2.43627 2.35294 0
M  V30 7 C -0.732 3.65373 2.2001 0
M  V30 8 S 0.101 5.13292 1.52614 0
M  V30 9 C 1.257 5.56322 2.86805 0
M  V30 10 H 1.49 2.90518 0.631377 0
M  V30 11 H -0.977 1.52953 0.210867 0
M  V30 12 H 0.981 2.67203 3.11629 0
M  V30 13 H -0.358 1.57376 2.7183 0
M  V30 14 H -1.165 3.90944 3.18086 0
M  V30 15 H -1.563 3.418 1.51819 0
M  V30 16 H 0.729 5.58782 3.83104 0
M  V30 17 H 1.672 6.56266 2.65933 0
M  V30 18 H 2.08 4.83886 2.90714 0
M  V30 19 N 1.4781 -0.272755 1.55222 0
M  V30 20 C 2.4261 -1.35705 1.88909 0
M  V30 21 C 3.4201 -1.5112 0.765456 0
M  V30 22 O 4.6261 -1.52901 0.949802 0
M  V30 23 H 1.0011 -0.453868 0.59959 0
M  V30 24 H 2.9721 -1.04544 2.79487 0
M  V30 25 C 1.7211 -2.71049 2.17779 0
M  V30 26 H 1.0441 -2.59979 3.03728 0
M  V30 27 H 2.4841 -3.45858 2.45272 0
M  V30 28 C 0.9431 -3.22165 0.985473 0
M  V30 29 O 1.4731 -4.01096 0.220233 0
M  V30 30 N -0.3209 -2.7985 0.783108 0
M  V30 31 H -0.7739 -2.15775 1.40708 0
M  V30 32 H -0.8159 -3.14397 -0.0130392 0
M  V30 33 N 2.9562 -1.48159 -0.537278 0
M  V30 34 C 3.9192 -1.61665 -1.62472 0
M  V30 35 C 4.9192 -0.490395 -1.5314 0
M  V30 36 O 6.1092 -0.755998 -1.5694 0
M  V30 37 C 3.2412 -1.57997 -3.02076 0
M  V30 38 H 4.4342 -2.58621 -1.51839 0
M  V30 39 H 1.9872 -1.36647 -0.758771 0
M  V30 40 H 2.7222 -0.624913 -3.18222 0
M  V30 41 H 2.5072 -2.39755 -3.10258 0
M  V30 42 H 3.9972 -1.70627 -3.81151 0
M  V30 43 N 4.4343 0.785586 -1.36625 0
M  V30 44 C 5.6623 1.57448 -1.3423 0
M  V30 45 C 6.0773 1.88649 0.0755653 0
M  V30 46 O 5.4343 1.50414 1.03354 0
M  V30 47 C 5.4853 2.89316 -2.16745 0
M  V30 48 O 5.2063 2.59459 -3.53005 0
M  V30 49 C 6.7073 3.83606 -2.22174 0
M  V30 50 H 3.9273 0.488226 -0.4603 0
M  V30 51 H 6.4713 0.974733 -1.79775 0
M  V30 52 H 4.6263 3.4575 -1.74745 0
M  V30 53 H 5.0403 3.43804 -3.96105 0
M  V30 54 H 6.5143 4.73181 -2.8426 0
M  V30 55 H 6.9913 4.21734 -1.22627 0
M  V30 56 H 7.5973 3.33104 -2.64427 0
M  V30 57 N 5.9124 1.20967 1.01018 0
M  V30 58 C 7.1604 1.02172 1.74371 0
M  V30 59 C 7.4814 -0.446414 1.89821 0
M  V30 60 O 6.7514 -1.32234 1.44537 0
M  V30 61 H 5.3314 0.375066 0.646014 0
M  V30 62 H 7.9934 1.52187 1.21758 0
M  V30 63 H 7.0894 1.48538 2.74487 0
M  V30 64 N 7.3905 -1.2043 1.01659 0
M  V30 65 C 8.6185 -1.93777 0.725132 0
M  V30 66 C 9.0335 -1.74772 -0.714166 0
M  V30 67 O 8.3905 -1.06169 -1.4844 0
M  V30 68 C 8.4415 -3.45876 1.05129 0
M  V30 69 O 8.1625 -3.6426 2.43406 0
M  V30 70 C 9.6635 -4.36368 0.780891 0
M  V30 71 H 6.8835 -0.615901 0.266284 0
M  V30 72 H 9.4275 -1.52922 1.35776 0
M  V30 73 H 7.5825 -3.8461 0.464065 0
M  V30 74 H 7.9965 -4.58246 2.55169 0
M  V30 75 H 9.4705 -5.41743 1.05918 0
M  V30 76 H 9.9475 -4.38275 -0.284937 0
M  V30 77 H 10.5535 -4.03296 1.35027 0
M  V30 78 N 8.8686 -0.792821 -1.36206 0
M  V30 79 C 10.2796 -0.429513 -1.81692 0
M  V30 80 C 10.6306 1.04695 -1.65932 0
M  V30 81 O 9.7556 1.81256 -1.18218 0
M  V30 82 C 10.3506 -0.772831 -3.29868 0
M  V30 83 C 8.9096 -0.462307 -3.7355 0
M  V30 84 C 8.0566 -1.00569 -2.5842 0
M  V30 85 H 11.0076 -0.985672 -1.24379 0
M  V30 86 H 11.0286 -0.0651928 -3.80444 0
M  V30 87 H 10.5406 -1.84747 -3.41307 0
M  V30 88 H 8.6416 0.604158 -3.67669 0
M  V30 89 H 8.7546 -0.985299 -4.68859 0
M  V30 90 H 7.1186 -0.428734 -2.51066 0
M  V30 91 H 7.9016 -2.08616 -2.72643 0
M  V30 92 N 10.3467 1.47872 -0.545128 0
M  V30 93 C 11.5927 2.02793 -0.0166104 0
M  V30 94 C 11.9257 1.41987 1.32489 0
M  V30 95 O 11.2007 0.571045 1.85928 0
M  V30 96 C 11.4837 3.59989 0.0893294 0
M  V30 97 C 11.3367 4.3125 -1.27841 0
M  V30 98 C 12.6557 4.32606 0.808724 0
M  V30 99 H 9.7747 0.736962 -0.00751035 0
M  V30 100 H 12.4167 1.76433 -0.705085 0
M  V30 101 H 10.5667 3.82579 0.675681 0
M  V30 102 H 12.2387 4.20035 -1.90704 0
M  V30 103 H 10.4817 3.92076 -1.85632 0
M  V30 104 H 11.1527 5.39736 -1.15713 0
M  V30 105 H 13.6287 4.14936 0.310992 0
M  V30 106 H 12.5047 5.42251 0.851782 0
M  V30 107 H 12.7657 4.00963 1.86229 0
M  V30 108 N 11.8248 0.280983 1.55075 0
M  V30 109 C 12.7878 -0.590896 2.21452 0
M  V30 110 C 13.7878 -1.07682 1.19421 0
M  V30 111 O 14.9778 -0.97605 1.44288 0
M  V30 112 C 12.1098 -1.81587 2.88511 0
M  V30 113 H 13.3028 -0.0112554 2.99898 0
M  V30 114 H 10.8558 0.0316438 1.56268 0
M  V30 115 H 11.5908 -2.43587 2.14093 0
M  V30 116 H 11.3758 -1.4753 3.63287 0
M  V30 117 H 12.8658 -2.43575 3.39206 0
M  V30 118 N 13.3029 -1.57598 0.00835791 0
M  V30 119 C 14.7139 -1.7892 -0.53333 0
M  V30 120 C 15.0649 -0.916609 -1.73473 0
M  V30 121 O 14.1899 -0.121336 -2.1606 0
M  V30 122 C 14.7849 -3.24488 -0.974313 0
M  V30 123 C 13.3439 -3.46878 -1.46125 0
M  V30 124 C 12.4909 -2.74157 -0.416302 0
M  V30 125 H 15.4419 -1.56958 0.234495 0
M  V30 126 H 15.4629 -3.3306 -1.83988 0
M  V30 127 H 14.9749 -3.87972 -0.099718 0
M  V30 128 H 13.0759 -2.8862 -2.35646 0
M  V30 129 H 13.1889 -4.55572 -1.48295 0
M  V30 130 H 11.5529 -2.39022 -0.87981 0
M  V30 131 H 12.3359 -3.40345 0.44947 0
M  V30 132 N 14.781 0.264519 -1.55364 0
M  V30 133 C 15.691 1.34902 -1.91934 0
M  V30 134 C 16.707 1.53595 -0.817593 0
M  V30 135 O 17.883 1.67558 -1.11742 0
M  V30 136 C 14.948 2.68676 -2.19121 0
M  V30 137 C 14.009 2.58657 -3.4263 0
M  V30 138 C 13.242 3.86051 -3.68511 0
M  V30 139 O 13.465 4.87126 -2.96757 0
M  V30 140 O 12.399 3.85744 -4.62045 0
M  V30 141 H 16.225 1.06883 -2.8427 0
M  V30 142 H 13.81 0.463775 -1.42019 0
M  V30 143 H 15.692 3.47759 -2.37995 0
M  V30 144 H 14.367 2.96463 -1.29966 0
M  V30 145 H 13.274 1.7792 -3.29082 0
M  V30 146 H 14.607 2.35818 -4.32031 0
M  V30 147 N 16.2591 1.48442 0.529413 0
M  V30 148 C 17.4841 1.60406 1.31471 0
M  V30 149 C 17.9091 0.264738 1.86228 0
M  V30 150 O 17.2671 -0.763668 1.64432 0
M  V30 151 C 17.3151 2.65419 2.44101 0
M  V30 152 O 16.4191 2.22618 3.47153 0
M  V30 153 H 15.7601 0.537863 0.389357 0
M  V30 154 H 18.2901 1.94432 0.636965 0
M  V30 155 H 18.3001 2.86709 2.90279 0
M  V30 156 H 16.9751 3.62652 2.03608 0
M  V30 157 H 15.5521 2.11543 3.0709 0
M  V30 158 N 17.7372 -0.778329 1.37039 0
M  V30 159 C 18.9772 -1.54973 1.33276 0
M  V30 160 C 19.3412 -1.91816 -0.0839376 0
M  V30 161 O 20.5422 -2.6767 -0.246228 0
M  V30 162 C 18.8132 -2.78517 2.23971 0
M  V30 163 S 20.3722 -3.6865 2.37997 0
M  V30 164 H 17.1902 -0.530639 0.473226 0
M  V30 165 H 19.7922 -0.915806 1.72723 0
M  V30 166 H 18.4962 -2.4952 3.25835 0
M  V30 167 H 18.0272 -3.46875 1.85584 0
M  V30 168 H 20.0422 -4.70182 1.58567 0
M  V30 169 N 19.2153 -1.21501 -1.00376 0
M  V30 170 C 20.1473 -0.933174 -2.09343 0
M  V30 171 C 21.1603 0.0840896 -1.62583 0
M  V30 172 O 22.3493 -0.148563 -1.77881 0
M  V30 173 C 19.4493 -0.379869 -3.36764 0
M  V30 174 C 18.6223 -1.45176 -4.12605 0
M  V30 175 C 17.6813 -0.907476 -5.18316 0
M  V30 176 O 16.7073 -1.5912 -5.46507 0
M  V30 177 N 17.9093 0.276649 -5.7984 0
M  V30 178 H 20.6743 -1.87124 -2.34104 0
M  V30 179 H 18.2353 -1.12043 -1.16867 0
M  V30 180 H 20.2273 -0.00131488 -4.047 0
M  V30 181 H 18.7973 0.463048 -3.09151 0
M  V30 182 H 18.0173 -2.00411 -3.39454 0
M  V30 183 H 19.3053 -2.17328 -4.6005 0
M  V30 184 H 18.7033 0.849147 -5.59291 0
M  V30 185 H 17.2603 0.596702 -6.49063 0
M  V30 186 N 20.6934 1.19889 -1.02296 0
M  V30 187 C 21.6254 2.22334 -0.556787 0
M  V30 188 C 22.6384 1.58674 0.364199 0
M  V30 189 O 23.8274 1.77768 0.161533 0
M  V30 190 C 20.9274 3.38257 0.208694 0
M  V30 191 C 20.1004 4.31504 -0.71577 0
M  V30 192 C 19.1594 5.262 0.00325597 0
M  V30 193 O 18.1854 5.65798 -0.621357 0
M  V30 194 N 19.3874 5.66303 1.27599 0
M  V30 195 H 22.1524 2.62957 -1.43784 0
M  V30 196 H 19.7134 1.34495 -0.901261 0
M  V30 197 H 21.7054 3.98616 0.699111 0
M  V30 198 H 20.2754 2.96472 0.991102 0
M  V30 199 H 19.4954 3.69016 -1.38638 0
M  V30 200 H 20.7834 4.9072 -1.34428 0
M  V30 201 H 20.1814 5.36155 1.80429 0
M  V30 202 H 18.7384 6.28942 1.71102 0
M  V30 203 N 22.1715 0.800033 1.35784 0
M  V30 204 C 23.1015 0.220184 2.3246 0
M  V30 205 C 24.0825 -0.65073 1.57161 0
M  V30 206 O 25.2675 -0.582359 1.85263 0
M  V30 207 C 22.3975 -0.637353 3.41402 0
M  V30 208 C 21.3515 0.134531 4.27789 0
M  V30 209 C 20.6775 -0.844285 5.27992 0
M  V30 210 C 21.9775 1.32979 5.05088 0
M  V30 211 H 23.6715 1.02787 2.81203 0
M  V30 212 H 21.2175 0.495717 1.35199 0
M  V30 213 H 23.1705 -1.05302 4.08031 0
M  V30 214 H 21.8945 -1.47785 2.91251 0
M  V30 215 H 20.5535 0.531296 3.6273 0
M  V30 216 H 20.2015 -1.68011 4.74111 0
M  V30 217 H 19.9015 -0.332184 5.8666 0
M  V30 218 H 21.4255 -1.2583 5.97494 0
M  V30 219 H 22.8395 0.98934 5.64699 0
M  V30 220 H 21.2365 1.77593 5.7322 0
M  V30 221 H 22.3065 2.11978 4.36111 0
M  V30 222 N 23.6496 -1.47581 0.552962 0
M  V30 223 C 24.6126 -2.28439 -0.186605 0
M  V30 224 C 25.6126 -1.36706 -0.84665 0
M  V30 225 O 26.8026 -1.59378 -0.703164 0
M  V30 226 C 23.9346 -3.16264 -1.2724 0
M  V30 227 H 25.1276 -2.95294 0.523609 0
M  V30 228 H 22.6806 -1.532 0.309745 0
M  V30 229 H 23.4156 -2.54091 -2.01514 0
M  V30 230 H 23.2006 -3.83769 -0.803968 0
M  V30 231 H 24.6906 -3.77198 -1.79196 0
M  V30 232 N 25.1277 -0.289203 -1.54924 0
M  V30 233 C 26.0907 0.579144 -2.21762 0
M  V30 234 C 27.0907 1.07047 -1.1999 0
M  V30 235 O 28.2807 0.968384 -1.44803 0
M  V30 236 C 25.4127 1.80055 -2.8947 0
M  V30 237 H 26.6057 -0.00464908 -2.999 0
M  V30 238 H 24.1587 -0.0399306 -1.56249 0
M  V30 239 H 24.8937 2.42449 -2.15381 0
M  V30 240 H 24.6787 1.45602 -3.64064 0
M  V30 241 H 26.1687 2.41773 -3.40493 0
M  V30 242 N 26.6058 1.57591 -0.0167156 0
M  V30 243 C 27.8538 1.90906 0.663285 0
M  V30 244 C 28.1748 0.892509 1.73376 0
M  V30 245 O 27.4448 -0.0677623 1.95783 0
M  V30 246 H 26.0248 0.704637 0.247983 0
M  V30 247 H 28.6868 1.94803 -0.0615909 0
M  V30 248 H 27.7828 2.9116 1.12393 0
M  V30 249 N 28.0839 -0.256276 1.55502 0
M  V30 250 C 29.3319 -0.983672 1.76545 0
M  V30 251 C 29.6529 -1.86206 0.578982 0
M  V30 252 O 28.9229 -1.91656 -0.405577 0
M  V30 253 H 27.5029 -0.366191 0.651086 0
M  V30 254 H 30.1649 -0.276479 1.92929 0
M  V30 255 H 29.2609 -1.61087 2.67315 0
M  V30 256 N 29.562 -1.4872 -0.521534 0
M  V30 257 C 30.512 -1.60269 -1.62166 0
M  V30 258 C 31.496 -0.45935 -1.54204 0
M  V30 259 O 32.688 -0.711241 -1.62081 0
M  V30 260 C 29.817 -1.65344 -3.00859 0
M  V30 261 C 28.903 -2.85187 -3.13894 0
M  V30 262 N 29.294 -4.09509 -2.96877 0
M  V30 263 C 27.592 -2.82695 -3.44963 0
M  V30 264 C 28.293 -4.89959 -3.13552 0
M  V30 265 N 27.269 -4.22934 -3.41508 0
M  V30 266 H 31.071 -2.5413 -1.47632 0
M  V30 267 H 28.585 -1.45209 -0.727194 0
M  V30 268 H 30.582 -1.71713 -3.79895 0
M  V30 269 H 29.242 -0.726058 -3.16478 0
M  V30 270 H 30.253 -4.39814 -2.73467 0
M  V30 271 H 26.93 -1.99249 -3.66887 0
M  V30 272 H 28.32 -5.98654 -3.05061 0
M  V30 273 N 31.0401 0.771051 -1.3745 0
M  V30 274 C 32.2651 1.56529 -1.36065 0
M  V30 275 C 32.6901 1.88029 0.0515859 0
M  V30 276 O 32.0481 1.49282 1.02882 0
M  V30 277 C 32.0961 2.85187 -2.20683 0
M  V30 278 O 31.2001 3.79593 -1.61193 0
M  V30 279 H 30.5411 0.47411 -0.464883 0
M  V30 280 H 33.0711 0.954269 -1.80983 0
M  V30 281 H 33.0811 3.34283 -2.33921 0
M  V30 282 H 31.7561 2.61588 -3.23334 0
M  V30 283 H 30.3331 3.38239 -1.56999 0
M  V30 284 N 32.5182 1.22032 0.997298 0
M  V30 285 C 33.9342 0.979326 1.26021 0
M  V30 286 C 34.1342 -0.32972 1.98784 0
M  V30 287 O 33.1902 -1.05345 2.29475 0
M  V30 288 C 34.5032 2.17509 2.07631 0
M  V30 289 C 36.0512 2.21817 2.2083 0
M  V30 290 C 36.5262 3.40933 3.05825 0
M  V30 291 N 38.0172 3.41067 3.13412 0
M  V30 292 C 38.7522 4.29885 3.79455 0
M  V30 293 N 38.2482 5.28914 4.47462 0
M  V30 294 N 40.0412 4.17673 3.76173 0
M  V30 295 H 32.1922 2.06202 0.509352 0
M  V30 296 H 34.4552 0.90334 0.287541 0
M  V30 297 H 34.1612 3.12415 1.61524 0
M  V30 298 H 34.0352 2.17206 3.08385 0
M  V30 299 H 36.4222 1.27462 2.66153 0
M  V30 300 H 36.5032 2.2616 1.1952 0
M  V30 301 H 36.1472 4.35586 2.61203 0
M  V30 302 H 36.0772 3.33829 4.07266 0
M  V30 303 H 38.5682 2.69406 2.65007 0
M  V30 304 H 38.8812 5.92973 4.95583 0
M  V30 305 H 37.2262 5.32831 4.46224 0
M  V30 306 H 40.4172 3.39564 3.22202 0
M  V30 307 H 40.5902 4.87098 4.27363 0
M  V30 308 N 33.9963 -1.19345 1.0293 0
M  V30 309 C 34.9263 -2.2481 0.631105 0
M  V30 310 C 35.9073 -1.66245 -0.360104 0
M  V30 311 O 37.0923 -1.92677 -0.242726 0
M  V30 312 C 34.2223 -3.47295 -0.0184607 0
M  V30 313 C 33.1763 -4.18536 0.895073 0
M  V30 314 C 32.5023 -5.34586 0.110592 0
M  V30 315 C 33.8023 -4.73287 2.209 0
M  V30 316 H 35.4963 -2.58372 1.51275 0
M  V30 317 H 33.0423 -1.24194 0.728818 0
M  V30 318 H 34.9953 -4.20268 -0.308675 0
M  V30 319 H 33.7193 -3.12933 -0.934907 0
M  V30 320 H 32.3783 -3.47446 1.16949 0
M  V30 321 H 32.0263 -4.96469 -0.807902 0
M  V30 322 H 31.7263 -5.83183 0.719087 0
M  V30 323 H 33.2503 -6.10355 -0.172871 0
M  V30 324 H 34.6643 -5.38013 1.98028 0
M  V30 325 H 33.0613 -5.32373 2.76946 0
M  V30 326 H 34.1313 -3.91331 2.86336 0
M  V30 327 N 35.4744 -0.807222 -1.35358 0
M  V30 328 C 36.7234 -0.384376 -1.98004 0
M  V30 329 C 37.0364 1.0543 -1.64754 0
M  V30 330 O 38.2424 1.58029 -2.20769 0
M  V30 331 C 36.6984 -0.636326 -3.5423 0
M  V30 332 C 36.3064 -2.08759 -3.96388 0
M  V30 333 C 38.0504 -0.278869 -4.23583 0
M  V30 334 C 35.9574 -2.28525 -5.45463 0
M  V30 335 H 34.8874 -0.139986 -0.740891 0
M  V30 336 H 37.5384 -0.991369 -1.54415 0
M  V30 337 H 35.9204 0.0406256 -3.95979 0
M  V30 338 H 37.0944 -2.8024 -3.6579 0
M  V30 339 H 35.4094 -2.40497 -3.39926 0
M  V30 340 H 38.0064 -0.404599 -5.33167 0
M  V30 341 H 38.3494 0.775012 -4.09022 0
M  V30 342 H 38.8824 -0.909764 -3.87257 0
M  V30 343 H 35.6214 -3.32361 -5.64992 0
M  V30 344 H 35.1414 -1.61569 -5.77629 0
M  V30 345 H 36.8204 -2.10109 -6.11934 0
M  V30 346 N 36.9525 1.47285 -0.560781 0
M  V30 347 C 38.1985 2.02764 -0.0381184 0
M  V30 348 C 38.5315 1.43384 1.30976 0
M  V30 349 O 37.8065 0.590733 1.85312 0
M  V30 350 C 38.0895 3.60064 0.0511427 0
M  V30 351 C 37.9425 4.2987 -1.32408 0
M  V30 352 C 39.2615 4.33439 0.762795 0
M  V30 353 H 36.3805 0.736841 -0.0153264 0
M  V30 354 H 39.0225 1.75675 -0.723759 0
M  V30 355 H 37.1725 3.83274 0.635065 0
M  V30 356 H 38.8445 4.17989 -1.95148 0
M  V30 357 H 37.0875 3.90085 -1.8978 0
M  V30 358 H 37.7585 5.38478 -1.21431 0
M  V30 359 H 40.2345 4.15243 0.266965 0
M  V30 360 H 39.1105 5.43124 0.794221 0
M  V30 361 H 39.3715 4.02915 1.81966 0
M  V30 362 N 38.4306 0.297415 1.54768 0
M  V30 363 C 39.3606 -0.573494 2.26348 0
M  V30 364 C 40.3416 -1.14085 1.26169 0
M  V30 365 O 41.5266 -1.17086 1.54934 0
M  V30 366 C 38.6566 -1.74716 3.00153 0
M  V30 367 C 37.6106 -1.31032 4.07449 0
M  V30 368 C 36.9366 -2.56887 4.68949 0
M  V30 369 C 38.2366 -0.444183 5.20408 0
M  V30 370 H 39.9306 0.0235131 2.99391 0
M  V30 371 H 37.4766 0.0127488 1.43994 0
M  V30 372 H 39.4296 -2.3625 3.48947 0
M  V30 373 H 38.1536 -2.37035 2.24682 0
M  V30 374 H 36.8126 -0.718066 3.59499 0
M  V30 375 H 36.4606 -3.17512 3.90122 0
M  V30 376 H 36.1606 -2.2836 5.41411 0
M  V30 377 H 37.6846 -3.19229 5.20505 0
M  V30 378 H 39.0986 -0.9651 5.65118 0
M  V30 379 H 37.4956 -0.252846 5.99567 0
M  V30 380 H 38.5656 0.531609 4.81977 0
M  V30 381 N 39.9087 -1.5758 0.0250728 0
M  V30 382 C 40.8587 -2.06468 -0.967201 0
M  V30 383 C 41.8427 -0.964376 -1.28797 0
M  V30 384 O 43.0347 -1.22797 -1.27475 0
M  V30 385 C 40.1637 -2.59203 -2.25097 0
M  V30 386 C 39.2497 -3.76157 -1.95874 0
M  V30 387 N 39.6407 -4.86919 -1.36905 0
M  V30 388 C 37.9387 -3.84566 -2.25887 0
M  V30 389 C 38.6397 -5.68172 -1.24724 0
M  V30 390 N 37.6157 -5.14953 -1.74138 0
M  V30 391 H 41.4177 -2.89508 -0.506176 0
M  V30 392 H 38.9317 -1.61399 -0.18004 0
M  V30 393 H 40.9287 -2.92517 -2.97052 0
M  V30 394 H 39.5887 -1.77592 -2.71829 0
M  V30 395 H 40.5997 -5.07256 -1.04459 0
M  V30 396 H 37.2767 -3.13854 -2.75321 0
M  V30 397 H 38.6667 -6.67221 -0.791605 0
M  V30 398 N 41.3868 0.248026 -1.55636 0
M  V30 399 C 42.6168 0.992367 -1.81206 0
M  V30 400 C 43.0248 1.7949 -0.598324 0
M  V30 401 O 42.3678 1.78292 0.442434 0
M  V30 402 C 42.4298 1.97926 -3.00109 0
M  V30 403 C 42.0938 1.36377 -4.36177 0
M  V30 404 C 43.0908 0.76682 -5.14214 0
M  V30 405 C 40.7758 1.38347 -4.82872 0
M  V30 406 C 42.7698 0.197778 -6.37093 0
M  V30 407 C 40.4568 0.810574 -6.057 0
M  V30 408 C 41.4548 0.218754 -6.8265 0
M  V30 409 O 41.1428 -0.345298 -8.03158 0
M  V30 410 H 40.8748 0.297704 -0.606917 0
M  V30 411 H 43.4288 0.276517 -2.0353 0
M  V30 412 H 41.6588 2.73339 -2.73538 0
M  V30 413 H 43.3478 2.58694 -3.12781 0
M  V30 414 H 44.1138 0.744114 -4.79258 0
M  V30 415 H 39.9928 1.8335 -4.2297 0
M  V30 416 H 43.5368 -0.264788 -6.97097 0
M  V30 417 H 39.4338 0.830604 -6.40134 0
M  V30 418 H 40.2018 -0.237055 -8.18157 0
M  V30 419 N 42.8649 1.48995 0.513639 0
M  V30 420 C 43.8129 1.65199 1.63744 0
M  V30 421 C 44.8069 0.51809 1.61283 0
M  V30 422 O 46.0129 0.697335 1.65943 0
M  V30 423 H 42.3879 0.52069 0.542574 0
M  V30 424 H 44.3589 2.59552 1.47226 0
M  V30 425 C 43.1079 1.72409 3.01945 0
M  V30 426 H 42.4309 2.59029 3.04539 0
M  V30 427 H 43.8709 1.87785 3.80148 0
M  V30 428 C 42.3299 0.46618 3.33659 0
M  V30 429 O 42.8599 -0.413744 3.99564 0
M  V30 430 N 41.0659 0.332931 2.88687 0
M  V30 431 H 40.6129 1.04996 2.35231 0
M  V30 432 H 40.5709 -0.507665 3.10274 0
M  V30 433 N 44.343 -0.763751 1.37857 0
M  V30 434 C 45.293 -1.86765 1.30777 0
M  V30 435 C 46.277 -1.59726 0.194015 0
M  V30 436 O 47.469 -1.7172 0.42911 0
M  V30 437 C 44.598 -3.24343 1.12502 0
M  V30 438 C 43.684 -3.57307 2.28456 0
M  V30 439 N 44.075 -3.61398 3.53871 0
M  V30 440 C 42.373 -3.87517 2.20786 0
M  V30 441 C 43.074 -3.91339 4.30382 0
M  V30 442 N 42.05 -4.07649 3.59615 0
M  V30 443 H 45.852 -1.88191 2.25746 0
M  V30 444 H 43.366 -0.9606 1.30944 0
M  V30 445 H 45.363 -4.03327 1.05514 0
M  V30 446 H 44.023 -3.24175 0.184574 0
M  V30 447 H 45.034 -3.43407 3.87675 0
M  V30 448 H 41.711 -3.95125 1.34844 0
M  V30 449 H 43.101 -4.01213 5.3896 0
M  V30 450 N 45.8211 -1.22559 -0.990812 0
M  V30 451 C 47.0461 -1.07862 -1.77145 0
M  V30 452 C 47.4711 0.366447 -1.84496 0
M  V30 453 O 46.8291 1.26478 -1.29896 0
M  V30 454 C 46.8771 -1.69686 -3.18181 0
M  V30 455 O 45.9811 -0.951946 -4.01263 0
M  V30 456 H 45.3221 -0.378712 -0.545411 0
M  V30 457 H 47.8521 -1.62399 -1.2445 0
M  V30 458 H 47.8621 -1.74496 -3.68802 0
M  V30 459 H 46.5371 -2.74841 -3.12146 0
M  V30 460 H 45.1141 -0.980011 -3.59792 0
M  V30 461 N 47.2992 1.18797 -1.03562 0
M  V30 462 C 48.5472 1.88278 -0.734569 0
M  V30 463 C 48.8682 1.8043 0.739586 0
M  V30 464 O 48.1382 1.21925 1.53333 0
M  V30 465 H 46.7182 0.696991 -0.268725 0
M  V30 466 H 49.3802 1.44192 -1.31129 0
M  V30 467 H 48.4762 2.94443 -1.03489 0
M  V30 468 N 48.7773 0.814389 1.34928 0
M  V30 469 C 50.1933 0.499084 1.51596 0
M  V30 470 C 50.3933 -0.978319 1.76157 0
M  V30 471 O 49.4493 -1.76309 1.80752 0
M  V30 472 C 50.7623 1.35121 2.68631 0
M  V30 473 C 52.3103 1.34746 2.82511 0
M  V30 474 C 52.7853 2.18388 4.0258 0
M  V30 475 N 54.2763 2.15966 4.09772 0
M  V30 476 C 55.0113 2.77437 5.01813 0
M  V30 477 N 54.5073 3.47866 5.99134 0
M  V30 478 N 56.3003 2.67037 4.94619 0
M  V30 479 H 48.4513 1.7711 1.17243 0
M  V30 480 H 50.7143 0.754256 0.574284 0
M  V30 481 H 50.4203 2.40001 2.57085 0
M  V30 482 H 50.2943 1.00991 3.63429 0
M  V30 483 H 52.6813 0.30648 2.93504 0
M  V30 484 H 52.7623 1.72869 1.88547 0
M  V30 485 H 52.4063 3.2253 3.92347 0
M  V30 486 H 52.3363 1.77621 4.9574 0
M  V30 487 H 54.8273 1.64729 3.40107 0
M  V30 488 H 55.1403 3.92038 6.65977 0
M  V30 489 H 53.4853 3.51972 5.99284 0
M  V30 490 H 56.6763 2.11597 4.17546 0
M  V30 491 H 56.8493 3.15232 5.66156 0
M  V30 492 N 50.2554 -1.46986 0.568584 0
M  V30 493 C 51.1854 -2.32946 -0.160753 0
M  V30 494 C 52.1664 -1.44487 -0.897631 0
M  V30 495 O 53.3514 -1.73327 -0.875867 0
M  V30 496 C 50.4814 -3.26494 -1.18403 0
M  V30 497 C 49.4354 -4.24282 -0.562895 0
M  V30 498 C 48.7614 -5.07236 -1.69163 0
M  V30 499 C 50.0614 -5.19989 0.490761 0
M  V30 500 H 51.7554 -2.94175 0.556916 0
M  V30 501 H 49.3014 -1.4146 0.26927 0
M  V30 502 H 51.2544 -3.85477 -1.70251 0
M  V30 503 H 49.9784 -2.63343 -1.93179 0
M  V30 504 H 48.6374 -3.66541 -0.0656164 0
M  V30 505 H 48.2854 -4.4048 -2.42871 0
M  V30 506 H 47.9854 -5.7345 -1.28174 0
M  V30 507 H 49.5094 -5.6908 -2.21314 0
M  V30 508 H 50.9234 -5.73271 0.0579047 0
M  V30 509 H 49.3204 -5.94469 0.820165 0
M  V30 510 H 50.3904 -4.64777 1.3824 0
M  V30 511 N 51.7335 -0.305618 -1.54608 0
M  V30 512 C 52.6965 0.555591 -2.22364 0
M  V30 513 C 53.6965 1.05768 -1.21119 0
M  V30 514 O 54.8865 0.952972 -1.45822 0
M  V30 515 C 52.0185 1.76974 -2.91364 0
M  V30 516 H 53.2115 -0.0364572 -2.99878 0
M  V30 517 H 50.7645 -0.0565007 -1.56198 0
M  V30 518 H 51.4995 2.40151 -2.17941 0
M  V30 519 H 51.2845 1.41732 -3.65588 0
M  V30 520 H 52.7745 2.38148 -3.43038 0
M  V30 521 N 53.2116 1.57565 -0.0334293 0
M  V30 522 C 54.4596 1.91598 0.642999 0
M  V30 523 C 54.7806 0.910847 1.7242 0
M  V30 524 O 54.0506 -0.0469931 1.95844 0
M  V30 525 H 52.6306 0.707228 0.240496 0
M  V30 526 H 55.2926 1.94726 -0.0822488 0
M  V30 527 H 54.3886 2.92336 1.09298 0
M  V30 528 N 54.6897 -0.239769 1.55765 0
M  V30 529 C 56.1057 -0.588624 1.48349 0
M  V30 530 C 56.3057 -1.88005 0.72502 0
M  V30 531 O 55.3617 -2.51186 0.257269 0
M  V30 532 C 56.6747 -0.68474 2.928 0
M  V30 533 C 58.2227 -0.77659 3.03213 0
M  V30 534 C 58.6977 -0.904207 4.48986 0
M  V30 535 N 60.1887 -0.968896 4.52953 0
M  V30 536 C 60.9237 -1.08703 5.63002 0
M  V30 537 N 60.4197 -1.17026 6.82845 0
M  V30 538 N 62.2127 -1.12074 5.50814 0
M  V30 539 H 54.3637 0.607911 2.03515 0
M  V30 540 H 56.6267 0.21083 0.924259 0
M  V30 541 H 56.3327 0.194284 3.51163 0
M  V30 542 H 56.2067 -1.55435 3.43686 0
M  V30 543 H 58.5937 -1.64606 2.44926 0
M  V30 544 H 58.6747 0.118315 2.55526 0
M  V30 545 H 58.3187 -0.0392633 5.07885 0
M  V30 546 H 58.2487 -1.81426 4.9436 0
M  V30 547 H 60.7397 -0.915633 3.6664 0
M  V30 548 H 61.0527 -1.25966 7.62465 0
M  V30 549 H 59.3977 -1.13971 6.85591 0
M  V30 550 H 62.5887 -1.05226 4.5612 0
M  V30 551 H 62.7617 -1.20936 6.36615 0
M  V30 552 N 56.1678 -1.49265 -0.50573 0
M  V30 553 C 57.4158 -1.582 -1.25766 0
M  V30 554 C 57.7368 -0.268482 -1.93143 0
M  V30 555 O 57.0068 0.711833 -1.8251 0
M  V30 556 H 55.5868 -0.582873 -0.467191 0
M  V30 557 H 58.2488 -1.85865 -0.586525 0
M  V30 558 H 57.3448 -2.37563 -2.02412 0
M  V30 559 N 57.6459 0.756429 -1.3826 0
M  V30 560 C 58.8939 1.51248 -1.34047 0
M  V30 561 C 59.2149 1.94875 0.0698372 0
M  V30 562 O 58.4849 1.67436 1.01696 0
M  V30 563 H 57.0649 0.561018 -0.493222 0
M  V30 564 H 59.7269 0.899347 -1.7291 0
M  V30 565 H 58.8229 2.40472 -1.98947 0
M  V30 566 N 59.124 1.23083 0.984299 0
M  V30 567 C 60.535 1.05609 1.5396 0
M  V30 568 C 60.886 -0.377793 1.92528 0
M  V30 569 O 60.011 -1.26398 1.75649 0
M  V30 570 C 60.606 1.91087 2.7977 0
M  V30 571 C 59.165 1.77885 3.31713 0
M  V30 572 C 58.312 1.87028 2.04733 0
M  V30 573 H 61.263 1.36802 0.804419 0
M  V30 574 H 61.284 1.43336 3.5247 0
M  V30 575 H 60.796 2.9544 2.51668 0
M  V30 576 H 58.897 0.762995 3.64704 0
M  V30 577 H 59.01 2.61047 4.01735 0
M  V30 578 H 57.374 1.30565 2.18689 0
M  V30 579 H 58.157 2.92929 1.79017 0
M  V30 580 N 60.6021 -1.18246 1.0419 0
M  V30 581 C 61.5121 -2.25574 0.644476 0
M  V30 582 C 62.5281 -1.70845 -0.329826 0
M  V30 583 O 63.7041 -2.00554 -0.184443 0
M  V30 584 C 60.7691 -3.46697 0.014877 0
M  V30 585 C 59.8301 -4.16554 1.03834 0
M  V30 586 C 59.0631 -5.31894 0.438692 0
M  V30 587 O 59.2861 -5.65385 -0.754752 0
M  V30 588 O 58.2201 -5.90459 1.168 0
M  V30 589 H 62.0461 -2.61836 1.53869 0
M  V30 590 H 59.6311 -1.25352 0.812854 0
M  V30 591 H 61.5131 -4.20062 -0.335538 0
M  V30 592 H 60.1881 -3.12255 -0.853138 0
M  V30 593 H 59.0951 -3.45251 1.44057 0
M  V30 594 H 60.4281 -4.54998 1.87716 0
M  V30 595 N 62.0802 -0.821533 -1.34494 0
M  V30 596 C 63.3572 -0.33159 -1.92769 0
M  V30 597 C 63.7372 1.18088 -1.74981 0
M  V30 598 O 63.0852 1.98733 -1.12772 0
M  V30 599 C 63.2952 -0.759398 -3.40638 0
M  V30 600 C 64.6432 -0.757433 -4.1779 0
M  V30 601 O 65.6672 -0.70189 -3.49216 0
M  V30 602 O 64.5262 -0.829361 -5.4017 0
M  V30 603 H 61.6202 -0.0902502 -0.822061 0
M  V30 604 H 64.1662 -0.906231 -1.43477 0
M  V30 605 H 62.9382 -1.8012 -3.47379 0
M  V30 606 H 62.5612 -0.160378 -3.97276 0
M  V30 607 N 63.5583 1.46682 -0.576371 0
M  V30 608 C 64.8063 2.02013 -0.0594163 0
M  V30 609 C 65.1273 1.45101 1.30271 0
M  V30 610 O 64.3973 0.633317 1.8538 0
M  V30 611 H 62.9773 0.746759 -0.0189745 0
M  V30 612 H 65.6393 1.79862 -0.750717 0
M  V30 613 H 64.7353 3.12097 0.014345 0
M  V30 614 N 65.0364 0.313813 1.54444 0
M  V30 615 C 66.2844 -0.291099 1.99993 0
M  V30 616 C 66.6054 -1.53418 1.20366 0
M  V30 617 O 65.8754 -1.93544 0.302927 0
M  V30 618 H 64.4554 -0.110552 0.738774 0
M  V30 619 H 67.1174 0.428106 1.9014 0
M  V30 620 H 66.2134 -0.554268 3.07139 0
M  V30 621 N 66.5145 -1.57545 0.0417849 0
M  V30 622 C 67.4445 -2.14009 -0.933929 0
M  V30 623 C 68.4255 -1.05938 -1.33083 0
M  V30 624 O 69.6105 -1.33833 -1.40721 0
M  V30 625 C 66.7405 -2.67747 -2.21199 0
M  V30 626 C 65.6945 -3.80718 -1.95544 0
M  V30 627 C 65.0205 -4.20935 -3.29724 0
M  V30 628 C 66.3205 -5.06258 -1.28452 0
M  V30 629 H 68.0145 -2.95788 -0.463645 0
M  V30 630 H 65.5605 -1.42285 -0.221573 0
M  V30 631 H 67.5135 -3.05886 -2.89848 0
M  V30 632 H 66.2375 -1.83147 -2.70416 0
M  V30 633 H 64.8965 -3.43037 -1.2931 0
M  V30 634 H 64.5445 -3.33298 -3.76724 0
M  V30 635 H 64.2445 -4.9707 -3.13361 0
M  V30 636 H 65.7685 -4.61666 -3.9962 0
M  V30 637 H 67.1825 -5.41903 -1.8712 0
M  V30 638 H 65.5795 -5.87475 -1.22445 0
M  V30 639 H 66.6495 -4.84207 -0.259219 0
M  V30 640 N 67.9926 0.231505 -1.5589 0
M  V30 641 C 69.2406 0.955461 -1.78088 0
M  V30 642 C 69.5616 1.85262 -0.608533 0
M  V30 643 O 68.8316 1.92277 0.375035 0
M  V30 644 H 67.4116 0.355787 -0.656829 0
M  V30 645 H 70.0736 0.245751 -1.93344 0
M  V30 646 H 69.1696 1.56814 -2.69844 0
M  V30 647 N 69.4707 1.49531 0.497807 0
M  V30 648 C 70.4337 1.65916 1.58128 0
M  V30 649 C 71.4337 0.530825 1.51786 0
M  V30 650 O 72.6237 0.797342 1.54881 0
M  V30 651 C 69.7557 1.65951 2.9778 0
M  V30 652 H 70.9487 2.62556 1.44929 0
M  V30 653 H 68.5017 1.38611 0.722275 0
M  V30 654 H 69.2367 0.709065 3.16453 0
M  V30 655 H 69.0217 2.47897 3.03792 0
M  V30 656 H 70.5117 1.80673 3.76493 0
M  V30 657 N 70.9488 -0.749086 1.3866 0
M  V30 658 C 71.8788 -1.8764 1.38973 0
M  V30 659 C 72.8598 -1.68178 0.255004 0
M  V30 660 O 74.0448 -1.88704 0.458754 0
M  V30 661 C 71.1748 -3.25222 1.21851 0
M  V30 662 C 70.1288 -3.59295 2.32575 0
M  V30 663 C 69.4548 -4.95663 2.00555 0
M  V30 664 C 70.7548 -3.63709 3.7485 0
M  V30 665 H 72.4488 -1.87635 2.3331 0
M  V30 666 H 69.9948 -0.901329 1.12303 0
M  V30 667 H 71.9478 -4.03746 1.20695 0
M  V30 668 H 70.6718 -3.25719 0.239775 0
M  V30 669 H 69.3308 -2.83093 2.32925 0
M  V30 670 H 68.9788 -4.92724 1.01154 0
M  V30 671 H 68.6788 -5.19429 2.74714 0
M  V30 672 H 70.2028 -5.7656 2.01024 0
M  V30 673 H 71.6168 -4.32338 3.76506 0
M  V30 674 H 70.0138 -3.98986 4.48252 0
M  V30 675 H 71.0838 -2.63834 4.06841 0
M  V30 676 N 72.4269 -1.23603 -0.977757 0
M  V30 677 C 73.8429 -0.999251 -1.24447 0
M  V30 678 C 74.0429 0.298053 -1.99283 0
M  V30 679 O 73.0989 1.01681 -2.31122 0
M  V30 680 C 74.4119 -2.20784 -2.04144 0
M  V30 681 C 75.9599 -2.25303 -2.17273 0
M  V30 682 C 76.4349 -3.45755 -3.00362 0
M  V30 683 N 77.9259 -3.4601 -3.07947 0
M  V30 684 C 78.6609 -4.35868 -3.72568 0
M  V30 685 N 78.1569 -5.35966 -4.38991 0
M  V30 686 N 79.9499 -4.23605 -3.6948 0
M  V30 687 H 72.1009 -2.06986 -0.476483 0
M  V30 688 H 74.3639 -0.907801 -0.273134 0
M  V30 689 H 74.0699 -3.14945 -1.56533 0
M  V30 690 H 73.9439 -2.22085 -3.04891 0
M  V30 691 H 76.3309 -1.3168 -2.64092 0
M  V30 692 H 76.4119 -2.28033 -1.15907 0
M  V30 693 H 76.0559 -4.39687 -2.5424 0
M  V30 694 H 75.9859 -3.40266 -4.01904 0
M  V30 695 H 78.4769 -2.73588 -2.60688 0
M  V30 696 H 78.7899 -6.00783 -4.86086 0
M  V30 697 H 77.1349 -5.39863 -4.37691 0
M  V30 698 H 80.3259 -3.44647 -3.16759 0
M  V30 699 H 80.4989 -4.93836 -4.1956 0
M  V30 700 N 73.905 1.17692 -1.04816 0
M  V30 701 C 75.153 1.87488 -0.754497 0
M  V30 702 C 75.474 1.81205 0.720407 0
M  V30 703 O 74.744 1.23544 1.52032 0
M  V30 704 H 73.324 0.694101 -0.276102 0
M  V30 705 H 75.986 1.42793 -1.32651 0
M  V30 706 H 75.082 2.93328 -1.06606 0
M  V30 707 N 75.3831 0.828654 1.34056 0
M  V30 708 C 76.3131 0.269443 2.3194 0
M  V30 709 C 77.2941 -0.617247 1.58506 0
M  V30 710 O 78.4791 -0.542931 1.86456 0
M  V30 711 C 75.6091 -0.564793 3.42677 0
M  V30 712 C 74.5631 0.225241 4.27407 0
M  V30 713 C 73.8891 -0.7321 5.29664 0
M  V30 714 C 75.1891 1.43663 5.02154 0
M  V30 715 H 76.8831 1.08728 2.7896 0
M  V30 716 H 74.4291 0.524283 1.34117 0
M  V30 717 H 76.3821 -0.966233 4.10173 0
M  V30 718 H 75.1061 -1.41574 2.9432 0
M  V30 719 H 73.7651 0.608117 3.61521 0
M  V30 720 H 73.4131 -1.57916 4.77568 0
M  V30 721 H 73.1131 -0.20767 5.87233 0
M  V30 722 H 74.6371 -1.13128 6.00029 0
M  V30 723 H 76.0511 1.1089 5.62473 0
M  V30 724 H 74.4481 1.89711 5.69324 0
M  V30 725 H 75.5181 2.21181 4.31517 0
M  V30 726 N 76.8612 -1.46375 0.584142 0
M  V30 727 C 78.0862 -2.07268 0.0740405 0
M  V30 728 C 78.5112 -1.42979 -1.22223 0
M  V30 729 O 77.8692 -0.514092 -1.73859 0
M  V30 730 C 77.9172 -3.60518 -0.0767769 0
M  V30 731 O 77.0212 -3.96533 -1.13292 0
M  V30 732 H 76.3622 -0.660961 0.0634524 0
M  V30 733 H 78.8922 -1.87991 0.807492 0
M  V30 734 H 78.9022 -4.07021 -0.282489 0
M  V30 735 H 77.5772 -4.06702 0.86986 0
M  V30 736 H 76.1542 -3.61738 -0.905553 0
M  V30 737 N 78.3393 -0.321999 -1.54275 0
M  V30 738 C 79.5853 0.281461 -2.00837 0
M  V30 739 C 79.9183 1.51909 -1.20985 0
M  V30 740 O 79.1933 1.923 -0.291733 0
M  V30 741 C 79.4763 0.617162 -3.54772 0
M  V30 742 C 79.3293 -0.631064 -4.45351 0
M  V30 743 C 80.6483 1.43542 -4.16033 0
M  V30 744 H 77.7673 0.100826 -0.730071 0
M  V30 745 H 80.4093 -0.438268 -1.84876 0
M  V30 746 H 78.5593 1.23034 -3.68504 0
M  V30 747 H 80.2313 -1.26934 -4.43492 0
M  V30 748 H 78.4743 -1.26025 -4.15091 0
M  V30 749 H 79.1453 -0.351735 -5.50878 0
M  V30 750 H 81.6213 0.917134 -4.05867 0
M  V30 751 H 80.4973 1.63907 -5.23856 0
M  V30 752 H 80.7583 2.43108 -3.69257 0
M  V30 753 N 79.8174 1.5752 -0.0501392 0
M  V30 754 C 80.7804 2.1037 0.909786 0
M  V30 755 C 81.7804 1.02308 1.24056 0
M  V30 756 O 82.9704 1.28385 1.17741 0
M  V30 757 C 80.1024 2.58708 2.21998 0
M  V30 758 H 81.2954 2.96479 0.451665 0
M  V30 759 H 78.8484 1.55038 0.198248 0
M  V30 760 H 79.5834 1.75989 2.72394 0
M  V30 761 H 79.3684 3.37675 1.99295 0
M  V30 762 H 80.8584 2.99747 2.9076 0
M  V30 763 N 81.2955 -0.223234 1.56011 0
M  V30 764 C 82.2585 -1.26014 1.9145 0
M  V30 765 C 83.2585 -1.3989 0.792937 0
M  V30 766 O 84.4485 -1.38184 1.0607 0
M  V30 767 C 81.5805 -2.63422 2.16383 0
M  V30 768 H 82.7735 -0.95796 2.84189 0
M  V30 769 H 80.3265 -0.463576 1.49267 0
M  V30 770 H 81.0615 -2.98741 1.2619 0
M  V30 771 H 80.8465 -2.54728 2.98088 0
M  V30 772 H 82.3365 -3.38249 2.44903 0
M  V30 773 N 82.7736 -1.49793 -0.48987 0
M  V30 774 C 83.9986 -1.63836 -1.27172 0
M  V30 775 C 84.4236 -0.31402 -1.8546 0
M  V30 776 O 83.7816 0.719803 -1.66399 0
M  V30 777 C 83.8296 -2.71797 -2.36978 0
M  V30 778 O 82.9336 -2.31744 -3.41128 0
M  V30 779 H 82.2746 -0.547997 -0.37496 0
M  V30 780 H 84.8046 -1.96053 -0.585191 0
M  V30 781 H 84.8146 -2.94305 -2.82575 0
M  V30 782 H 83.4896 -3.67923 -1.93921 0
M  V30 783 H 82.0666 -2.1961 -3.01373 0
M  V30 784 N 84.2517 0.741722 -1.39055 0
M  V30 785 C 85.4917 1.51385 -1.37338 0
M  V30 786 C 85.8557 1.91972 0.0330513 0
M  V30 787 O 87.0567 2.68229 0.175174 0
M  V30 788 C 85.3277 2.72481 -2.31276 0
M  V30 789 S 86.8867 3.62211 -2.47687 0
M  V30 790 H 83.7047 0.517906 -0.487129 0
M  V30 791 H 86.3067 0.86969 -1.7509 0
M  V30 792 H 85.0107 2.40793 -3.32336 0
M  V30 793 H 84.5417 3.41832 -1.94716 0
M  V30 794 H 86.5567 4.65812 -1.70978 0
M  V30 795 N 85.7298 1.2412 0.971189 0
M  V30 796 C 86.6598 1.05508 2.08304 0
M  V30 797 C 87.6408 -0.0308864 1.70072 0
M  V30 798 O 88.8258 0.135521 1.93727 0
M  V30 799 C 85.9558 0.655365 3.4106 0
M  V30 800 C 84.9098 1.68971 3.93234 0
M  V30 801 C 84.2358 1.14516 5.22293 0
M  V30 802 C 85.5358 3.08487 4.21465 0
M  V30 803 H 87.2298 1.98507 2.24132 0
M  V30 804 H 84.7758 0.955821 1.07704 0
M  V30 805 H 86.7288 0.51217 4.18276 0
M  V30 806 H 85.4528 -0.31032 3.25122 0
M  V30 807 H 84.1118 1.82106 3.18171 0
M  V30 808 H 83.7598 0.170189 5.02712 0
M  V30 809 H 83.4598 1.83635 5.58168 0
M  V30 810 H 84.9838 1.01401 6.02121 0
M  V30 811 H 86.3978 2.98601 4.89398 0
M  V30 812 H 84.7948 3.74926 4.68562 0
M  V30 813 H 85.8648 3.56787 3.28376 0
M  V30 814 N 87.2079 -1.17134 1.05439 0
M  V30 815 C 88.4539 -1.87733 0.767077 0
M  V30 816 C 88.7869 -1.8098 -0.704253 0
M  V30 817 O 88.0619 -1.21951 -1.5152 0
M  V30 818 C 88.3449 -3.37659 1.25133 0
M  V30 819 C 88.1979 -3.53149 2.78578 0
M  V30 820 C 89.5169 -4.31768 0.852324 0
M  V30 821 H 86.6359 -0.681687 0.280129 0
M  V30 822 H 89.2779 -1.37732 1.30881 0
M  V30 823 H 87.4279 -3.80373 0.790469 0
M  V30 824 H 89.0999 -3.19434 3.32806 0
M  V30 825 H 87.3429 -2.95345 3.17732 0
M  V30 826 H 88.0139 -4.58403 3.07523 0
M  V30 827 H 90.4899 -3.96909 1.24911 0
M  V30 828 H 89.3659 -5.35199 1.21873 0
M  V30 829 H 89.6269 -4.41429 -0.243485 0
M  V30 830 N 88.686 -0.835752 -1.33615 0
M  V30 831 C 89.932 -0.430596 -1.98176 0
M  V30 832 C 90.265 1.00684 -1.66061 0
M  V30 833 O 89.54 1.70339 -0.938877 0
M  V30 834 C 89.823 -0.648065 -3.5422 0
M  V30 835 C 89.676 -2.13255 -3.96033 0
M  V30 836 C 90.995 -0.0922113 -4.40003 0
M  V30 837 H 88.114 -0.157924 -0.719881 0
M  V30 838 H 90.756 -1.05069 -1.58305 0
M  V30 839 H 88.906 -0.120237 -3.88314 0
M  V30 840 H 90.578 -2.725 -3.72211 0
M  V30 841 H 88.821 -2.61823 -3.45878 0
M  V30 842 H 89.492 -2.23547 -5.04708 0
M  V30 843 H 91.968 -0.543343 -4.12537 0
M  V30 844 H 90.844 -0.274083 -5.48215 0
M  V30 845 H 91.105 1.00378 -4.30554 0
M  V30 846 N 90.1641 1.46063 -0.591896 0
M  V30 847 C 91.0941 2.33172 0.123673 0
M  V30 848 C 92.0751 1.45897 0.87453 0
M  V30 849 O 93.2601 1.74698 0.848181 0
M  V30 850 C 90.3901 3.28336 1.13194 0
M  V30 851 C 89.3441 4.25124 0.495324 0
M  V30 852 C 88.6701 5.09863 1.61071 0
M  V30 853 C 89.9701 5.19143 -0.573425 0
M  V30 854 H 91.6641 2.93252 -0.603646 0
M  V30 855 H 89.2101 1.41014 -0.291741 0
M  V30 856 H 91.1631 3.88137 1.64097 0
M  V30 857 H 89.8871 2.66383 1.88965 0
M  V30 858 H 88.5461 3.66599 0.00729452 0
M  V30 859 H 88.1941 4.44288 2.35832 0
M  V30 860 H 87.8941 5.75417 1.19035 0
M  V30 861 H 89.4181 5.72529 2.12233 0
M  V30 862 H 90.8321 5.73106 -0.1491 0
M  V30 863 H 89.2291 5.93089 -0.914636 0
M  V30 864 H 90.2991 4.62519 -1.45617 0
M  V30 865 N 91.6422 0.330177 1.54103 0
M  V30 866 C 92.5522 -0.541534 2.28264 0
M  V30 867 C 93.5682 -1.12351 1.32866 0
M  V30 868 O 94.7442 -1.14206 1.65888 0
M  V30 869 C 91.8092 -1.68322 3.03098 0
M  V30 870 C 90.8702 -1.13238 4.14096 0
M  V30 871 C 90.1032 -2.21966 4.85352 0
M  V30 872 O 90.3262 -3.42437 4.56172 0
M  V30 873 O 89.2602 -1.87013 5.7211 0
M  V30 874 H 93.0862 0.060938 3.03639 0
M  V30 875 H 90.6712 0.09565 1.49093 0
M  V30 876 H 92.5532 -2.34777 3.49939 0
M  V30 877 H 91.2282 -2.27176 2.30593 0
M  V30 878 H 90.1352 -0.432736 3.71589 0
M  V30 879 H 91.4682 -0.588898 4.88664 0
M  V30 880 N 93.1203 -1.57491 0.0584922 0
M  V30 881 C 94.0683 -2.13148 -0.931168 0
M  V30 882 C 95.0623 -1.06507 -1.31729 0
M  V30 883 O 96.2683 -1.24906 -1.29609 0
M  V30 884 H 92.6433 -0.68137 -0.31818 0
M  V30 885 H 94.6143 -2.95187 -0.436707 0
M  V30 886 C 93.3633 -2.69732 -2.19408 0
M  V30 887 H 92.6863 -3.51454 -1.90578 0
M  V30 888 H 94.1263 -3.12287 -2.86798 0
M  V30 889 C 92.5853 -1.63855 -2.94369 0
M  V30 890 O 93.1153 -1.05565 -3.87581 0
M  V30 891 N 91.3213 -1.35202 -2.57233 0
M  V30 892 H 90.8683 -1.82791 -1.81508 0
M  V30 893 H 90.8263 -0.645922 -3.07693 0
M  V30 894 N 94.5984 0.214957 -1.56127 0
M  V30 895 C 95.5284 1.2695 -1.95974 0
M  V30 896 C 96.5094 1.48539 -0.828868 0
M  V30 897 O 97.6944 1.60611 -1.09168 0
M  V30 898 C 94.8244 2.61794 -2.28214 0
M  V30 899 C 93.7784 2.54851 -3.43853 0
M  V30 900 C 93.1044 3.93785 -3.61715 0
M  V30 901 C 94.4044 2.09065 -4.78632 0
M  V30 902 H 96.0984 0.93846 -2.84312 0
M  V30 903 H 93.6444 0.449996 -1.36788 0
M  V30 904 H 95.5974 3.35731 -2.54682 0
M  V30 905 H 94.3214 2.96599 -1.36736 0
M  V30 906 H 92.9804 1.8337 -3.17444 0
M  V30 907 H 92.6284 4.25908 -2.67602 0
M  V30 908 H 92.3284 3.90019 -4.39498 0
M  V30 909 H 93.8524 4.69374 -3.90539 0
M  V30 910 H 95.2664 2.7275 -5.04262 0
M  V30 911 H 93.6634 2.16346 -5.59745 0
M  V30 912 H 94.7334 1.04315 -4.73547 0
M  V30 913 N 96.0765 1.50051 0.48192 0
M  V30 914 C 97.0065 1.71046 1.58951 0
M  V30 915 C 97.9875 0.559288 1.60642 0
M  V30 916 O 99.1725 0.797243 1.77081 0
M  V30 917 C 96.3025 1.79462 2.97339 0
M  V30 918 C 95.2565 2.94558 3.10515 0
M  V30 919 C 94.5825 2.88105 4.50444 0
M  V30 920 C 95.8825 4.35227 2.88747 0
M  V30 921 H 97.5765 2.6378 1.41635 0
M  V30 922 H 95.1225 1.26936 0.679942 0
M  V30 923 H 97.0755 1.92734 3.74742 0
M  V30 924 H 95.7995 0.833412 3.15788 0
M  V30 925 H 94.4585 2.80918 2.35543 0
M  V30 926 H 94.1065 1.89853 4.65795 0
M  V30 927 H 93.8065 3.65366 4.60197 0
M  V30 928 H 95.3305 3.03412 5.29881 0
M  V30 929 H 96.7445 4.49449 3.55905 0
M  V30 930 H 95.1415 5.13856 3.09955 0
M  V30 931 H 96.2115 4.48347 1.84696 0
M  V30 932 N 97.5546 -0.734337 1.39446 0
M  V30 933 C 98.8006 -1.49613 1.36908 0
M  V30 934 C 99.1336 -1.94169 -0.0347829 0
M  V30 935 O 98.4086 -1.66833 -0.999847 0
M  V30 936 C 98.6916 -2.73534 2.34203 0
M  V30 937 C 98.5446 -2.34993 3.83534 0
M  V30 938 C 99.8636 -3.75635 2.29317 0
M  V30 939 H 96.9826 -0.542714 0.498629 0
M  V30 940 H 99.6246 -0.839597 1.70443 0
M  V30 941 H 97.7746 -3.29553 2.05736 0
M  V30 942 H 99.4466 -1.84601 4.22753 0
M  V30 943 H 97.6896 -1.67213 4.00278 0
M  V30 944 H 98.3606 -3.23738 4.47099 0
M  V30 945 H 100.837 -3.29203 2.54489 0
M  V30 946 H 99.7126 -4.60008 2.99472 0
M  V30 947 H 99.9736 -4.22603 1.29842 0
M  V30 948 N 99.0327 -1.24633 -0.964593 0
M  V30 949 C 99.9627 -1.06611 -2.07741 0
M  V30 950 C 100.944 0.0218666 -1.70086 0
M  V30 951 O 102.129 -0.145793 -1.93652 0
M  V30 952 C 99.2587 -0.673444 -3.40708 0
M  V30 953 C 98.2127 -1.71054 -3.92332 0
M  V30 954 C 97.5387 -1.17285 -5.21678 0
M  V30 955 C 98.8387 -3.10718 -4.19824 0
M  V30 956 H 100.533 -1.99693 -2.23076 0
M  V30 957 H 98.0787 -0.96152 -1.07195 0
M  V30 958 H 100.032 -0.534345 -4.17998 0
M  V30 959 H 98.7557 0.293073 -3.25282 0
M  V30 960 H 97.4147 -1.83791 -3.17201 0
M  V30 961 H 97.0627 -0.196847 -5.02615 0
M  V30 962 H 96.7627 -1.86592 -5.57187 0
M  V30 963 H 98.2867 -1.04593 -6.01575 0
M  V30 964 H 99.7007 -3.01192 -4.87808 0
M  V30 965 H 98.0977 -3.77406 -4.66567 0
M  V30 966 H 99.1677 -3.58524 -3.26479 0
M  V30 967 N 100.511 1.16574 -1.06058 0
M  V30 968 C 101.474 2.19085 -0.673392 0
M  V30 969 C 102.474 1.5835 0.279648 0
M  V30 970 O 103.664 1.74088 0.0623488 0
M  V30 971 C 100.796 3.40899 0.00954234 0
M  V30 972 H 101.989 2.54853 -1.58081 0
M  V30 973 H 99.5418 1.30808 -0.855516 0
M  V30 974 H 100.277 3.10684 0.929826 0
M  V30 975 H 100.062 3.86233 -0.67573 0
M  V30 976 H 101.552 4.1675 0.266245 0
M  V30 977 N 101.989 0.842826 1.3317 0
M  V30 978 C 102.952 0.284065 2.27433 0
M  V30 979 C 103.952 -0.54948 1.5112 0
M  V30 980 O 105.142 -0.362699 1.70382 0
M  V30 981 C 102.274 -0.599384 3.35589 0
M  V30 982 H 103.467 1.11589 2.78366 0
M  V30 983 H 101.02 0.616221 1.4364 0
M  V30 984 H 101.755 -1.45349 2.89904 0
M  V30 985 H 101.54 -0.00291266 3.921 0
M  V30 986 H 103.03 -0.983488 4.05854 0
M  V30 987 N 103.467 -1.45747 0.599634 0
M  V30 988 C 104.716 -2.01502 0.0893511 0
M  V30 989 C 105.029 -1.4748 -1.28488 0
M  V30 990 O 106.235 -1.95161 -1.88745 0
M  V30 991 C 104.691 -3.59735 0.109082 0
M  V30 992 C 104.299 -4.22754 1.48267 0
M  V30 993 C 106.043 -4.23085 -0.346374 0
M  V30 994 C 103.95 -5.73115 1.45921 0
M  V30 995 H 102.88 -0.753417 0.0296347 0
M  V30 996 H 105.531 -1.67303 0.753788 0
M  V30 997 H 103.913 -3.91087 -0.621854 0
M  V30 998 H 105.087 -4.02987 2.23468 0
M  V30 999 H 103.402 -3.71567 1.87955 0
M  V30 1000 H 105.999 -5.33327 -0.38298 0
M  V30 1001 H 106.342 -3.93201 -1.36743 0
M  V30 1002 H 106.875 -3.9642 0.331038 0
M  V30 1003 H 103.614 -6.07685 2.45762 0
M  V30 1004 H 103.134 -5.95097 0.749665 0
M  V30 1005 H 104.813 -6.3616 1.17941 0
M  V30 1006 N 104.945 -0.338344 -1.53925 0
M  V30 1007 C 106.173 0.261298 -2.05243 0
M  V30 1008 C 106.588 1.44625 -1.21363 0
M  V30 1009 O 105.945 1.80811 -0.247736 0
M  V30 1010 C 105.996 0.681412 -3.5502 0
M  V30 1011 O 105.717 -0.456414 -4.35716 0
M  V30 1012 C 107.218 1.34232 -4.22489 0
M  V30 1013 H 104.438 0.0513685 -0.669031 0
M  V30 1014 H 106.982 -0.488822 -1.98572 0
M  V30 1015 H 105.137 1.38148 -3.61931 0
M  V30 1016 H 105.551 -0.122564 -5.24357 0
M  V30 1017 H 107.025 1.58708 -5.28693 0
M  V30 1018 H 107.502 2.29426 -3.74514 0
M  V30 1019 H 108.108 0.684424 -4.19757 0
M  V30 1020 N 106.423 1.57458 -0.0668435 0
M  V30 1021 C 107.648 1.9804 0.616027 0
M  V30 1022 C 108.073 0.944771 1.62652 0
M  V30 1023 O 107.431 -0.0902094 1.81075 0
M  V30 1024 C 107.479 3.37665 1.26549 0
M  V30 1025 O 106.583 3.36701 2.38131 0
M  V30 1026 H 105.924 0.644719 0.158849 0
M  V30 1027 H 108.454 2.04121 -0.139891 0
M  V30 1028 H 108.464 3.7474 1.6135 0
M  V30 1029 H 107.139 4.12573 0.525016 0
M  V30 1030 H 105.716 3.1139 2.0516 0
M  V30 1031 N 107.901 -0.206675 1.56239 0
M  V30 1032 C 108.851 -1.26 1.90021 0
M  V30 1033 C 109.835 -1.41566 0.764721 0
M  V30 1034 O 111.027 -1.44131 1.02739 0
M  V30 1035 C 108.156 -2.6073 2.23326 0
M  V30 1036 C 107.242 -2.49005 3.43304 0
M  V30 1037 N 107.633 -2.06946 4.61527 0
M  V30 1038 C 105.931 -2.79927 3.47213 0
M  V30 1039 C 106.632 -2.06832 5.43687 0
M  V30 1040 N 105.608 -2.47892 4.83788 0
M  V30 1041 H 109.41 -0.925955 2.78932 0
M  V30 1042 H 106.924 -0.415172 1.57003 0
M  V30 1043 H 108.921 -3.36798 2.45708 0
M  V30 1044 H 107.581 -2.94968 1.35735 0
M  V30 1045 H 108.592 -1.77839 4.86409 0
M  V30 1046 H 105.269 -3.18438 2.70006 0
M  V30 1047 H 106.659 -1.76312 6.48354 0
M  V30 1048 N 109.379 -1.50304 -0.473955 0
M  V30 1049 C 110.312 -1.63595 -1.59097 0
M  V30 1050 C 111.29 -0.484142 -1.55225 0
M  V30 1051 O 112.474 -0.703271 -1.7489 0
M  V30 1052 C 109.601 -1.61589 -2.97669 0
M  V30 1053 C 108.647 -2.82295 -3.19705 0
M  V30 1054 S 109.48 -4.43635 -2.99913 0
M  V30 1055 C 110.636 -4.44317 -4.40832 0
M  V30 1056 H 110.869 -2.58082 -1.47583 0
M  V30 1057 H 108.402 -1.39531 -0.661087 0
M  V30 1058 H 110.36 -1.61116 -3.7756 0
M  V30 1059 H 109.021 -0.683421 -3.06575 0
M  V30 1060 H 108.214 -2.77188 -4.20931 0
M  V30 1061 H 107.816 -2.8032 -2.47582 0
M  V30 1062 H 110.108 -4.17703 -5.33414 0
M  V30 1063 H 111.051 -5.45911 -4.50984 0
M  V30 1064 H 111.459 -3.74059 -4.22777 0
M  V30 1065 N 110.857 0.726932 -1.39834 0
M  V30 1066 C 112.273 1.03354 -1.21615 0
M  V30 1067 C 112.473 2.01327 -0.08338 0
M  V30 1068 O 111.529 2.46158 0.56238 0
M  V30 1069 C 112.842 1.58811 -2.55342 0
M  V30 1070 C 114.39 1.70851 -2.62257 0
M  V30 1071 C 114.865 2.29716 -3.96225 0
M  V30 1072 N 116.356 2.37116 -3.97907 0
M  V30 1073 C 117.091 2.83619 -4.98345 0
M  V30 1074 N 116.587 3.29958 -6.09179 0
M  V30 1075 N 118.38 2.82901 -4.8572 0
M  V30 1076 H 110.531 0.0773069 -2.12259 0
M  V30 1077 H 112.794 0.0969102 -0.943034 0
M  V30 1078 H 112.5 0.942855 -3.38826 0
M  V30 1079 H 112.374 2.57502 -2.75632 0
M  V30 1080 H 114.761 2.34497 -1.79152 0
M  V30 1081 H 114.842 0.707913 -2.45809 0
M  V30 1082 H 114.486 1.66696 -4.79765 0
M  V30 1083 H 114.416 3.30469 -4.09997 0
M  V30 1084 H 116.907 2.04374 -3.17868 0
M  V30 1085 H 117.22 3.63976 -6.8172 0
M  V30 1086 H 115.565 3.27946 -6.12761 0
M  V30 1087 H 118.756 2.46027 -3.98231 0
M  V30 1088 H 118.929 3.18827 -5.6414 0
M  V30 1089 N 112.336 1.25143 0.95797 0
M  V30 1090 C 113.561 1.12521 1.74223 0
M  V30 1091 C 113.986 -0.317402 1.85403 0
M  V30 1092 O 113.344 -1.2299 1.33204 0
M  V30 1093 C 113.392 1.78062 3.1357 0
M  V30 1094 O 112.496 1.058 3.98598 0
M  V30 1095 H 111.837 0.39304 0.535178 0
M  V30 1096 H 114.367 1.65641 1.201 0
M  V30 1097 H 114.377 1.84213 3.64046 0
M  V30 1098 H 113.052 2.83021 3.04749 0
M  V30 1099 H 111.629 1.07506 3.57067 0
M  V30 1100 N 113.814 -1.1601 1.06675 0
M  V30 1101 C 115.23 -1.38622 0.790948 0
M  V30 1102 C 115.43 -1.92109 -0.607965 0
M  V30 1103 O 114.486 -2.12239 -1.36787 0
M  V30 1104 C 115.799 -2.36347 1.85905 0
M  V30 1105 C 117.347 -2.50023 1.88301 0
M  V30 1106 C 117.822 -3.51033 2.94176 0
M  V30 1107 N 119.313 -3.58563 2.93235 0
M  V30 1108 C 120.048 -4.36521 3.71803 0
M  V30 1109 N 119.544 -5.17869 4.602 0
M  V30 1110 N 121.337 -4.31541 3.60178 0
M  V30 1111 H 113.488 -0.796294 1.96908 0
M  V30 1112 H 115.751 -0.412597 0.853503 0
M  V30 1113 H 115.457 -2.04147 2.86386 0
M  V30 1114 H 115.331 -3.36042 1.71334 0
M  V30 1115 H 117.718 -2.81524 0.884769 0
M  V30 1116 H 117.799 -1.5035 2.06951 0
M  V30 1117 H 117.443 -3.20268 3.94196 0
M  V30 1118 H 117.373 -4.50445 2.72776 0
M  V30 1119 H 119.864 -3.00496 2.29152 0
M  V30 1120 H 120.177 -5.74578 5.16797 0
M  V30 1121 H 118.522 -5.17199 4.64253 0
M  V30 1122 H 121.713 -3.67051 2.90502 0
M  V30 1123 H 121.886 -4.9205 4.21653 0
M  V30 1124 N 115.292 -0.849877 -1.32721 0
M  V30 1125 C 116.708 -0.539102 -1.50219 0
M  V30 1126 C 116.908 0.931271 -1.78689 0
M  V30 1127 O 115.964 1.71455 -1.85363 0
M  V30 1128 C 117.277 -1.42196 -2.64954 0
M  V30 1129 C 118.825 -1.42189 -2.78839 0
M  V30 1130 C 119.3 -2.28985 -3.96648 0
M  V30 1131 N 120.791 -2.26754 -4.03902 0
M  V30 1132 C 121.526 -2.90644 -4.94281 0
M  V30 1133 N 121.022 -3.63629 -5.897 0
M  V30 1134 N 122.815 -2.80057 -4.87365 0
M  V30 1135 H 114.966 -1.80156 -1.12506 0
M  V30 1136 H 117.229 -0.769217 -0.554085 0
M  V30 1137 H 116.935 -2.46733 -2.50631 0
M  V30 1138 H 116.809 -1.10591 -3.60624 0
M  V30 1139 H 119.196 -0.38419 -2.92588 0
M  V30 1140 H 119.277 -1.77807 -1.83898 0
M  V30 1141 H 118.921 -3.32819 -3.83658 0
M  V30 1142 H 118.851 -1.90702 -4.90857 0
M  V30 1143 H 121.342 -1.73688 -3.3562 0
M  V30 1144 H 121.655 -4.09558 -6.55349 0
M  V30 1145 H 120 -3.67737 -5.89741 0
M  V30 1146 H 123.191 -2.22593 -4.11789 0
M  V30 1147 H 123.364 -3.30132 -5.57599 0
M  V30 1148 N 116.77 1.45427 -0.607355 0
M  V30 1149 C 118.016 2.03097 -0.111035 0
M  V30 1150 C 118.371 1.46735 1.24445 0
M  V30 1151 O 117.664 0.632478 1.8086 0
M  V30 1152 C 117.858 3.57398 -0.0129263 0
M  V30 1153 C 117.687 4.28726 -1.35735 0
M  V30 1154 C 116.457 4.66659 -1.93798 0
M  V30 1155 C 118.655 4.60699 -2.28607 0
M  V30 1156 N 116.637 5.22845 -3.21723 0
M  V30 1157 C 118.008 5.17716 -3.41131 0
M  V30 1158 C 120.063 4.42638 -2.27982 0
M  V30 1159 C 118.766 5.58576 -4.53194 0
M  V30 1160 C 120.792 4.84531 -3.39093 0
M  V30 1161 C 120.154 5.4164 -4.50339 0
M  V30 1162 H 116.253 0.777476 -0.083994 0
M  V30 1163 H 118.837 1.77249 -0.805655 0
M  V30 1164 H 117.008 3.82907 0.650914 0
M  V30 1165 H 118.74 4.01722 0.490033 0
M  V30 1166 H 115.495 4.50207 -1.47007 0
M  V30 1167 H 115.919 5.55438 -3.87063 0
M  V30 1168 H 120.561 3.97798 -1.43235 0
M  V30 1169 H 118.279 6.02382 -5.38667 0
M  V30 1170 H 121.865 4.72289 -3.39757 0
M  V30 1171 H 120.745 5.73461 -5.34895 0
M  V30 1172 N 118.248 0.346503 1.53744 0
M  V30 1173 C 119.494 -0.249473 2.0126 0
M  V30 1174 C 119.827 -1.49965 1.23386 0
M  V30 1175 O 119.102 -1.91811 0.32229 0
M  V30 1176 C 119.385 -0.560643 3.55709 0
M  V30 1177 C 119.238 0.701836 4.44291 0
M  V30 1178 C 120.557 -1.36905 4.18264 0
M  V30 1179 H 117.676 -0.0891987 0.731582 0
M  V30 1180 H 120.318 0.467624 1.84156 0
M  V30 1181 H 118.468 -1.17156 3.70414 0
M  V30 1182 H 120.14 1.33974 4.41417 0
M  V30 1183 H 118.383 1.32612 4.13033 0
M  V30 1184 H 119.054 0.43933 5.50249 0
M  V30 1185 H 121.53 -0.852448 4.07275 0
M  V30 1186 H 120.406 -1.55553 5.26398 0
M  V30 1187 H 120.667 -2.37203 3.73078 0
M  V30 1188 N 119.726 -1.57421 0.075193 0
M  V30 1189 C 120.956 -1.97659 -0.601203 0
M  V30 1190 C 121.364 -0.952427 -1.63479 0
M  V30 1191 O 120.707 0.0688241 -1.83571 0
M  V30 1192 C 120.769 -3.34218 -1.32434 0
M  V30 1193 C 120.433 -4.5484 -0.443826 0
M  V30 1194 C 121.43 -5.19034 0.299969 0
M  V30 1195 C 119.115 -5.00952 -0.367709 0
M  V30 1196 C 121.109 -6.27695 1.10807 0
M  V30 1197 C 118.796 -6.09484 0.444058 0
M  V30 1198 C 119.794 -6.72719 1.18061 0
M  V30 1199 O 119.482 -7.79161 1.97898 0
M  V30 1200 H 119.214 -0.65494 -0.167422 0
M  V30 1201 H 121.768 -2.04886 0.145157 0
M  V30 1202 H 119.998 -3.23615 -2.11685 0
M  V30 1203 H 121.687 -3.59038 -1.89331 0
M  V30 1204 H 122.453 -4.84351 0.250776 0
M  V30 1205 H 118.332 -4.51509 -0.930638 0
M  V30 1206 H 121.876 -6.76982 1.68347 0
M  V30 1207 H 117.773 -6.43601 0.494803 0
M  V30 1208 H 118.541 -7.96055 1.90367 0
M  V30 1209 N 121.204 0.198386 -1.56346 0
M  V30 1210 C 122.434 0.934215 -1.84271 0
M  V30 1211 C 122.842 1.77496 -0.655125 0
M  V30 1212 O 122.185 1.7961 0.385488 0
M  V30 1213 C 122.247 1.88278 -3.06254 0
M  V30 1214 C 121.911 1.22431 -4.40295 0
M  V30 1215 C 122.908 0.602839 -5.16393 0
M  V30 1216 C 120.593 1.22915 -4.87029 0
M  V30 1217 C 122.587 -0.0050083 -6.374 0
M  V30 1218 C 120.274 0.617465 -6.07973 0
M  V30 1219 C 121.272 0.00146341 -6.83 0
M  V30 1220 O 120.96 -0.600642 -8.01653 0
M  V30 1221 H 120.692 0.278245 -0.616081 0
M  V30 1222 H 123.246 0.211626 -2.04307 0
M  V30 1223 H 121.476 2.64498 -2.82095 0
M  V30 1224 H 123.165 2.48612 -3.20853 0
M  V30 1225 H 123.931 0.591265 -4.81382 0
M  V30 1226 H 119.81 1.69801 -4.28589 0
M  V30 1227 H 123.354 -0.48643 -6.95902 0
M  V30 1228 H 119.251 0.62653 -6.42452 0
M  V30 1229 H 120.019 -0.497225 -8.16988 0
M  V30 1230 N 122.682 1.50554 0.465978 0
M  V30 1231 C 123.922 1.63439 1.22747 0
M  V30 1232 C 124.286 0.329822 1.89146 0
M  V30 1233 O 125.487 0.334161 2.66715 0
M  V30 1234 C 123.758 2.78542 2.2394 0
M  V30 1235 S 125.317 3.11591 3.0896 0
M  V30 1236 H 122.135 0.576113 0.416672 0
M  V30 1237 H 124.737 1.88357 0.523641 0
M  V30 1238 H 123.441 3.71805 1.7375 0
M  V30 1239 H 122.972 2.55726 2.98944 0
M  V30 1240 H 124.987 2.55811 4.25176 0
M  V30 1241 N 124.16 -0.719506 1.40217 0
M  V30 1242 C 125.09 -1.8465 1.42922 0
M  V30 1243 C 126.071 -1.67599 0.29062 0
M  V30 1244 O 127.256 -1.87688 0.498677 0
M  V30 1245 C 124.386 -3.22565 1.28722 0
M  V30 1246 C 123.34 -3.54281 2.40144 0
M  V30 1247 C 122.666 -4.91298 2.11023 0
M  V30 1248 C 123.966 -3.55676 3.82481 0
M  V30 1249 H 125.66 -1.82644 2.37237 0
M  V30 1250 H 123.206 -0.877305 1.1419 0
M  V30 1251 H 125.159 -4.01095 1.29232 0
M  V30 1252 H 123.883 -3.25137 0.308811 0
M  V30 1253 H 122.542 -2.78088 2.38877 0
M  V30 1254 H 122.19 -4.90468 1.11582 0
M  V30 1255 H 121.89 -5.13485 2.8567 0
M  V30 1256 H 123.414 -5.72166 2.13209 0
M  V30 1257 H 124.828 -4.24254 3.85592 0
M  V30 1258 H 123.225 -3.89388 4.56614 0
M  V30 1259 H 124.295 -2.55144 4.12346 0
M  V30 1260 N 125.638 -1.25649 -0.95132 0
M  V30 1261 C 126.884 -1.10757 -1.69884 0
M  V30 1262 C 127.217 0.350061 -1.91019 0
M  V30 1263 O 126.492 1.25783 -1.48354 0
M  V30 1264 C 126.775 -1.86606 -3.07978 0
M  V30 1265 C 126.628 -3.40217 -2.94232 0
M  V30 1266 C 127.947 -1.65182 -4.07925 0
M  V30 1267 H 125.066 -0.40374 -0.616574 0
M  V30 1268 H 127.708 -1.54521 -1.10558 0
M  V30 1269 H 125.858 -1.49409 -3.58621 0
M  V30 1270 H 127.53 -3.87108 -2.50889 0
M  V30 1271 H 125.773 -3.67759 -2.30078 0
M  V30 1272 H 126.444 -3.88505 -3.92133 0
M  V30 1273 H 128.92 -1.9757 -3.66204 0
M  V30 1274 H 127.796 -2.20683 -5.02583 0
M  V30 1275 H 128.057 -0.593933 -4.38092 0
M  V30 1276 N 127.117 1.15442 -1.07289 0
M  V30 1277 C 128.065 2.22225 -0.686952 0
M  V30 1278 C 129.059 1.66688 0.30193 0
M  V30 1279 O 130.265 1.79236 0.165712 0
M  V30 1280 H 126.64 0.723783 -0.204064 0
M  V30 1281 H 128.611 2.52056 -1.5972 0
M  V30 1282 C 127.36 3.47556 -0.100149 0
M  V30 1283 H 126.683 3.90612 -0.852211 0
M  V30 1284 H 128.123 4.23794 0.132235 0
M  V30 1285 C 126.582 3.16337 1.159 0
M  V30 1286 O 127.112 3.33074 2.24555 0
M  V30 1287 N 125.318 2.70385 1.06491 0
M  V30 1288 H 124.865 2.56966 0.180668 0
M  V30 1289 H 124.823 2.49871 1.90819 0
M  V30 1290 N 128.595 0.856903 1.32268 0
M  V30 1291 C 129.844 0.457599 1.96441 0
M  V30 1292 C 130.157 -0.992426 1.68553 0
M  V30 1293 O 131.363 -1.49727 2.26482 0
M  V30 1294 C 129.819 0.767358 3.51624 0
M  V30 1295 C 129.427 2.23326 3.88367 0
M  V30 1296 C 131.171 0.435887 4.22256 0
M  V30 1297 C 129.078 2.48613 5.36606 0
M  V30 1298 H 128.008 0.167387 0.735185 0
M  V30 1299 H 130.659 1.048 1.5063 0
M  V30 1300 H 129.041 0.106367 3.95857 0
M  V30 1301 H 130.215 2.93623 3.55137 0
M  V30 1302 H 128.53 2.52948 3.30766 0
M  V30 1303 H 131.127 0.602202 5.31298 0
M  V30 1304 H 131.47 -0.622672 4.11617 0
M  V30 1305 H 132.003 1.05286 3.83614 0
M  V30 1306 H 128.742 3.53101 5.52268 0
M  V30 1307 H 128.262 1.82896 5.71235 0
M  V30 1308 H 129.941 2.32676 6.03714 0
M  V30 1309 N 130.073 -1.45103 0.615059 0
M  V30 1310 C 131.301 -2.06553 0.11977 0
M  V30 1311 C 131.716 -1.45842 -1.19898 0
M  V30 1312 O 131.073 -0.575325 -1.73194 0
M  V30 1313 C 131.124 -3.61495 -0.018364 0
M  V30 1314 O 130.845 -4.19942 1.24822 0
M  V30 1315 C 132.346 -4.39947 -0.544237 0
M  V30 1316 H 129.566 -0.667096 0.0722739 0
M  V30 1317 H 132.11 -1.8623 0.84491 0
M  V30 1318 H 130.265 -3.81135 -0.693865 0
M  V30 1319 H 130.679 -5.13204 1.0827 0
M  V30 1320 H 132.153 -5.48838 -0.589953 0
M  V30 1321 H 132.63 -4.10255 -1.56805 0
M  V30 1322 H 133.236 -4.25188 0.0974703 0
M  V30 1323 N 131.551 -0.354651 -1.53558 0
M  V30 1324 C 132.481 0.489091 -2.2832 0
M  V30 1325 C 133.462 1.09324 -1.30316 0
M  V30 1326 O 134.647 1.11255 -1.59173 0
M  V30 1327 C 131.777 1.63456 -3.0643 0
M  V30 1328 C 130.731 1.1582 -4.12031 0
M  V30 1329 C 130.057 2.39305 -4.7816 0
M  V30 1330 C 131.357 0.250731 -5.21698 0
M  V30 1331 H 133.051 -0.134614 -2.99097 0
M  V30 1332 H 130.597 -0.0661826 -1.43848 0
M  V30 1333 H 132.55 2.23136 -3.57475 0
M  V30 1334 H 131.274 2.28533 -2.33325 0
M  V30 1335 H 129.933 0.584146 -3.61916 0
M  V30 1336 H 129.581 3.02814 -4.01637 0
M  V30 1337 H 129.281 2.08109 -5.49513 0
M  V30 1338 H 130.805 2.99691 -5.31994 0
M  V30 1339 H 132.219 0.754695 -5.68311 0
M  V30 1340 H 130.616 0.0301468 -6.00092 0
M  V30 1341 H 131.686 -0.710125 -4.79672 0
M  V30 1342 N 133.029 1.57378 -0.0835403 0
M  V30 1343 C 134.254 1.98682 0.594987 0
M  V30 1344 C 134.679 0.961969 1.61641 0
M  V30 1345 O 134.037 -0.0709989 1.81161 0
M  V30 1346 C 134.085 3.38988 1.2296 0
M  V30 1347 O 133.189 3.39208 2.34546 0
M  V30 1348 H 132.53 0.646368 0.152002 0
M  V30 1349 H 135.06 2.03961 -0.161533 0
M  V30 1350 H 135.07 3.76431 1.57366 0
M  V30 1351 H 133.745 4.13107 0.481228 0
M  V30 1352 H 132.322 3.13548 2.01846 0
M  V30 1353 N 134.507 -0.190092 1.56449 0
M  V30 1354 C 135.784 -0.935886 1.71757 0
M  V30 1355 C 136.164 -2.01173 0.639726 0
M  V30 1356 O 135.512 -2.25827 -0.348502 0
M  V30 1357 C 135.722 -1.51775 3.1427 0
M  V30 1358 C 137.07 -1.99794 3.74656 0
M  V30 1359 O 138.094 -1.61607 3.1743 0
M  V30 1360 O 136.953 -2.70079 4.751 0
M  V30 1361 H 134.047 -0.439229 0.700719 0
M  V30 1362 H 136.593 -0.179395 1.68749 0
M  V30 1363 H 135.365 -0.742505 3.84191 0
M  V30 1364 H 134.988 -2.33894 3.21527 0
M  V30 1365 N 135.985 -1.50799 -0.457987 0
M  V30 1366 C 136.915 -1.73553 -1.5621 0
M  V30 1367 C 137.896 -0.584774 -1.59732 0
M  V30 1368 O 139.081 -0.825314 -1.7579 0
M  V30 1369 C 136.211 -1.84169 -2.94447 0
M  V30 1370 C 135.165 -2.99461 -3.0579 0
M  V30 1371 C 134.491 -2.95235 -4.45803 0
M  V30 1372 C 135.791 -4.39766 -2.81786 0
M  V30 1373 H 137.485 -2.66 -1.37421 0
M  V30 1374 H 135.031 -1.28002 -0.659662 0
M  V30 1375 H 136.984 -1.98672 -3.71628 0
M  V30 1376 H 135.708 -0.883545 -3.14422 0
M  V30 1377 H 134.367 -2.8463 -2.31044 0
M  V30 1378 H 134.015 -1.97239 -4.62715 0
M  V30 1379 H 133.715 -3.72642 -4.54326 0
M  V30 1380 H 135.239 -3.11803 -5.24987 0
M  V30 1381 H 136.653 -4.55054 -3.4871 0
M  V30 1382 H 135.05 -5.18722 -3.0174 0
M  V30 1383 H 136.12 -4.51229 -1.7754 0
M  V30 1384 N 137.463 0.71206 -1.40597 0
M  V30 1385 C 138.393 1.83889 -1.43899 0
M  V30 1386 C 139.374 1.67442 -0.299504 0
M  V30 1387 O 140.559 1.87421 -0.508624 0
M  V30 1388 C 137.689 3.21877 -1.30431 0
M  V30 1389 C 136.643 3.53002 -2.42019 0
M  V30 1390 C 135.969 4.90172 -2.13626 0
M  V30 1391 C 137.269 3.53643 -3.84362 0
M  V30 1392 H 138.963 1.81383 -2.38203 0
M  V30 1393 H 136.509 0.871237 -1.14654 0
M  V30 1394 H 138.462 4.00404 -1.31357 0
M  V30 1395 H 137.186 3.24968 -0.326049 0
M  V30 1396 H 135.845 2.76818 -2.40349 0
M  V30 1397 H 135.493 4.89869 -1.14182 0
M  V30 1398 H 135.193 5.11962 -2.88389 0
M  V30 1399 H 136.717 5.71028 -2.1624 0
M  V30 1400 H 138.131 4.22203 -3.87837 0
M  V30 1401 H 136.528 3.86961 -4.58673 0
M  V30 1402 H 137.598 2.52954 -4.13693 0
M  V30 1403 N 138.941 1.26152 0.944643 0
M  V30 1404 C 140.169 1.14259 1.72489 0
M  V30 1405 C 140.584 -0.302555 1.8636 0
M  V30 1406 O 139.941 -1.20741 1.36849 0
M  V30 1407 C 139.992 1.80266 3.13347 0
M  V30 1408 O 139.713 3.19133 3.00143 0
M  V30 1409 C 141.214 1.74283 4.07603 0
M  V30 1410 H 138.434 0.398051 0.540181 0
M  V30 1411 H 140.978 1.66706 1.18446 0
M  V30 1412 H 139.133 1.31766 3.64303 0
M  V30 1413 H 139.547 3.51744 3.89071 0
M  V30 1414 H 141.021 2.25111 5.04013 0
M  V30 1415 H 141.498 0.708631 4.33446 0
M  V30 1416 H 142.104 2.22319 3.62567 0
M  V30 1417 N 140.419 -1.14872 1.07899 0
M  V30 1418 C 141.667 -1.85422 0.803941 0
M  V30 1419 C 141.988 -1.83051 -0.67211 0
M  V30 1420 O 141.258 -1.27532 -1.48703 0
M  V30 1421 H 139.838 -0.686537 0.294408 0
M  V30 1422 H 142.5 -1.39226 1.3639 0
M  V30 1423 H 141.596 -2.90399 1.14346 0
M  V30 1424 N 141.898 -0.863906 -1.31812 0
M  V30 1425 C 142.861 -0.320212 -2.26952 0
M  V30 1426 C 143.861 0.525369 -1.51975 0
M  V30 1427 O 145.051 0.335547 -1.70938 0
M  V30 1428 C 142.183 0.545919 -3.365 0
M  V30 1429 H 143.376 -1.16004 -2.76556 0
M  V30 1430 H 140.929 -0.638995 -1.42641 0
M  V30 1431 H 141.664 1.40718 -2.92179 0
M  V30 1432 H 141.449 -0.0594674 -3.92055 0
M  V30 1433 H 142.939 0.918796 -4.07367 0
M  V30 1434 N 143.376 1.44774 -0.622745 0
M  V30 1435 C 144.339 2.29069 0.0774015 0
M  V30 1436 C 145.339 1.4059 0.780461 0
M  V30 1437 O 146.529 1.62551 0.626322 0
M  V30 1438 C 143.661 3.21974 1.12006 0
M  V30 1439 H 144.854 2.92459 -0.663901 0
M  V30 1440 H 142.407 1.51548 -0.382486 0
M  V30 1441 H 143.142 2.63417 1.89162 0
M  V30 1442 H 142.927 3.87168 0.619951 0
M  V30 1443 H 144.417 3.85318 1.60995 0
M  V30 1444 N 144.854 0.36279 1.53368 0
M  V30 1445 C 146.084 -0.228281 2.05335 0
M  V30 1446 C 146.492 -1.43226 1.23625 0
M  V30 1447 O 145.835 -1.81717 0.269206 0
M  V30 1448 C 145.897 -0.688549 3.52845 0
M  V30 1449 C 145.561 0.398362 4.5526 0
M  V30 1450 C 146.558 1.24732 5.04716 0
M  V30 1451 C 144.243 0.557805 4.99193 0
M  V30 1452 C 146.237 2.2411 5.96702 0
M  V30 1453 C 143.924 1.55495 5.90986 0
M  V30 1454 C 144.922 2.39503 6.39631 0
M  V30 1455 O 144.61 3.37517 7.29615 0
M  V30 1456 H 144.342 -0.044395 0.674541 0
M  V30 1457 H 146.896 0.518668 1.98744 0
M  V30 1458 H 145.126 -1.48706 3.56964 0
M  V30 1459 H 146.815 -1.20231 3.87685 0
M  V30 1460 H 147.581 1.13532 4.71525 0
M  V30 1461 H 143.46 -0.0862959 4.60919 0
M  V30 1462 H 147.004 2.89718 6.34594 0
M  V30 1463 H 142.901 1.66744 6.23592 0
M  V30 1464 H 143.669 3.33213 7.47604 0
M  V30 1465 N 146.332 -1.57332 0.0918853 0
M  V30 1466 C 147.262 -2.16872 -0.865371 0
M  V30 1467 C 148.243 -1.10118 -1.29646 0
M  V30 1468 O 149.428 -1.38242 -1.36392 0
M  V30 1469 C 146.558 -2.74649 -2.12569 0
M  V30 1470 C 145.512 -3.86747 -1.83333 0
M  V30 1471 C 144.838 -4.31212 -3.16166 0
M  V30 1472 C 146.138 -5.10089 -1.1228 0
M  V30 1473 H 147.832 -2.97114 -0.369307 0
M  V30 1474 H 145.378 -1.42918 -0.176194 0
M  V30 1475 H 147.331 -3.14952 -2.7997 0
M  V30 1476 H 146.055 -1.91657 -2.64452 0
M  V30 1477 H 144.714 -3.46978 -1.18331 0
M  V30 1478 H 144.362 -3.45115 -3.6593 0
M  V30 1479 H 144.062 -5.06788 -2.97388 0
M  V30 1480 H 145.586 -4.74146 -3.84731 0
M  V30 1481 H 147 -5.47582 -1.69785 0
M  V30 1482 H 145.397 -5.91073 -1.03693 0
M  V30 1483 H 146.467 -4.84786 -0.105041 0
M  V30 1484 N 147.81 0.181792 -1.56548 0
M  V30 1485 C 148.773 1.20894 -1.94724 0
M  V30 1486 C 149.773 1.37738 -0.829747 0
M  V30 1487 O 150.963 1.35323 -1.09697 0
M  V30 1488 C 148.095 2.57593 -2.23291 0
M  V30 1489 H 149.288 0.882275 -2.86629 0
M  V30 1490 H 146.841 0.423838 -1.50444 0
M  V30 1491 H 147.576 2.95291 -1.34067 0
M  V30 1492 H 147.361 2.46735 -3.04736 0
M  V30 1493 H 148.851 3.31637 -2.53785 0
M  V30 1494 N 149.288 1.51039 0.449983 0
M  V30 1495 C 150.236 1.71995 1.5659 0
M  V30 1496 C 151.23 0.586029 1.5894 0
M  V30 1497 O 152.436 0.76709 1.62837 0
M  V30 1498 H 148.811 0.543233 0.520001 0
M  V30 1499 H 150.782 2.65562 1.36085 0
M  V30 1500 C 149.531 1.8506 2.9436 0
M  V30 1501 H 148.854 2.71712 2.93279 0
M  V30 1502 H 150.294 2.0374 3.71842 0
M  V30 1503 C 148.753 0.607277 3.31382 0
M  V30 1504 O 149.283 -0.243903 4.00959 0
M  V30 1505 N 147.489 0.455073 2.87015 0
M  V30 1506 H 147.036 1.14879 2.30566 0
M  V30 1507 H 146.994 -0.375611 3.12148 0
M  V30 1508 N 150.766 -0.704594 1.40972 0
M  V30 1509 C 152.012 -1.46675 1.40051 0
M  V30 1510 C 152.345 -1.94199 0.00641102 0
M  V30 1511 O 151.62 -1.68916 -0.964235 0
M  V30 1512 C 151.903 -2.68505 2.39952 0
M  V30 1513 C 151.756 -2.26805 3.88432 0
M  V30 1514 C 153.075 -3.70686 2.37233 0
M  V30 1515 H 150.194 -0.532015 0.510028 0
M  V30 1516 H 152.836 -0.803255 1.72185 0
M  V30 1517 H 150.986 -3.25114 2.1268 0
M  V30 1518 H 152.658 -1.75592 4.26574 0
M  V30 1519 H 150.901 -1.58685 4.03734 0
M  V30 1520 H 151.572 -3.14181 4.53866 0
M  V30 1521 H 154.048 -3.23731 2.61415 0
M  V30 1522 H 152.924 -4.53553 3.09162 0
M  V30 1523 H 153.185 -4.19754 1.38777 0
M  V30 1524 N 152.244 -1.26651 -0.937939 0
M  V30 1525 C 153.174 -1.10993 -2.05433 0
M  V30 1526 C 154.155 -0.0142161 -1.70094 0
M  V30 1527 O 155.34 -0.186837 -1.93299 0
M  V30 1528 C 152.47 -0.745561 -3.39203 0
M  V30 1529 C 151.424 -1.79337 -3.88616 0
M  V30 1530 C 150.75 -1.28324 -5.19073 0
M  V30 1531 C 152.05 -3.19553 -4.13138 0
M  V30 1532 H 153.744 -2.0438 -2.1879 0
M  V30 1533 H 151.29 -0.984041 -1.05131 0
M  V30 1534 H 153.243 -0.622888 -4.16771 0
M  V30 1535 H 151.967 0.22401 -3.25831 0
M  V30 1536 H 150.626 -1.90477 -3.13231 0
M  V30 1537 H 150.274 -0.303414 -5.02084 0
M  V30 1538 H 149.974 -1.98369 -5.53103 0
M  V30 1539 H 151.498 -1.1733 -5.99221 0
M  V30 1540 H 152.912 -3.11471 -4.81309 0
M  V30 1541 H 151.309 -3.87218 -4.58457 0
M  V30 1542 H 152.379 -3.65368 -3.18801 0
M  V30 1543 N 153.722 1.14298 -1.08507 0
M  V30 1544 C 154.652 2.21542 -0.737646 0
M  V30 1545 C 155.633 1.67773 0.280377 0
M  V30 1546 O 156.818 1.93616 0.150521 0
M  V30 1547 C 153.948 3.46988 -0.147259 0
M  V30 1548 C 152.902 4.13789 -1.09374 0
M  V30 1549 C 152.228 5.33449 -0.365524 0
M  V30 1550 C 153.528 4.62208 -2.4323 0
M  V30 1551 H 155.222 2.5086 -1.6343 0
M  V30 1552 H 152.768 1.20576 -0.787243 0
M  V30 1553 H 154.721 4.21262 0.107808 0
M  V30 1554 H 153.445 3.17037 0.784538 0
M  V30 1555 H 152.104 3.4147 -1.33393 0
M  V30 1556 H 151.752 4.99759 0.57011 0
M  V30 1557 H 151.452 5.79088 -0.996512 0
M  V30 1558 H 152.976 6.10485 -0.118534 0
M  V30 1559 H 154.39 5.27952 -2.23472 0
M  V30 1560 H 152.787 5.18553 -3.02031 0
M  V30 1561 H 153.857 3.77224 -3.04681 0
M  V30 1562 N 155.201 0.870884 1.31352 0
M  V30 1563 C 156.426 0.495957 2.01383 0
M  V30 1564 C 156.851 -0.904324 1.64935 0
M  V30 1565 O 156.209 -1.59687 0.858466 0
M  V30 1566 C 156.257 0.661433 3.54482 0
M  V30 1567 O 155.361 -0.298851 4.11316 0
M  V30 1568 H 154.702 0.197158 0.634054 0
M  V30 1569 H 157.232 1.17455 1.67527 0
M  V30 1570 H 157.242 0.555072 4.04207 0
M  V30 1571 H 155.917 1.68246 3.8035 0
M  V30 1572 H 154.494 -0.147368 3.72609 0
M  V30 1573 N 156.679 -1.44442 0.630414 0
M  V30 1574 C 157.927 -2.01653 0.134351 0
M  V30 1575 C 158.248 -1.49836 -1.24796 0
M  V30 1576 O 157.518 -0.701684 -1.82902 0
M  V30 1577 H 156.098 -0.74554 0.0466769 0
M  V30 1578 H 158.76 -1.76952 0.816955 0
M  V30 1579 H 157.856 -3.11935 0.101498 0
M  V30 1580 N 158.157 -0.370918 -1.53173 0
M  V30 1581 C 159.12 0.460778 -2.24521 0
M  V30 1582 C 160.12 1.00536 -1.25496 0
M  V30 1583 O 161.31 0.890266 -1.49733 0
M  V30 1584 C 158.442 1.64457 -2.98608 0
M  V30 1585 H 159.635 -0.163613 -2.99453 0
M  V30 1586 H 157.188 -0.122699 -1.55818 0
M  V30 1587 H 157.923 2.30691 -2.2793 0
M  V30 1588 H 157.708 1.26099 -3.7127 0
M  V30 1589 H 159.198 2.23384 -3.5283 0
M  V30 1590 N 159.635 1.57281 -0.100228 0
M  V30 1591 C 161.051 1.57527 0.256416 0
M  V30 1592 C 161.251 1.11173 1.68056 0
M  V30 1593 O 160.307 0.79053 2.39806 0
M  V30 1594 C 161.62 3.00673 0.0401747 0
M  V30 1595 C 163.168 3.12815 0.107528 0
M  V30 1596 C 163.643 4.57929 -0.0807834 0
M  V30 1597 N 165.134 4.63193 -0.0261207 0
M  V30 1598 C 165.869 5.73212 -0.146999 0
M  V30 1599 N 165.365 6.92047 -0.322999 0
M  V30 1600 N 167.158 5.62031 -0.0879044 0
M  V30 1601 H 159.309 1.85718 -1.03065 0
M  V30 1602 H 161.572 0.857446 -0.404339 0
M  V30 1603 H 161.278 3.38804 -0.943649 0
M  V30 1604 H 161.152 3.69042 0.780262 0
M  V30 1605 H 163.539 2.74554 1.08186 0
M  V30 1606 H 163.62 2.47028 -0.664134 0
M  V30 1607 H 163.264 4.96886 -1.05201 0
M  V30 1608 H 163.194 5.21783 0.710635 0
M  V30 1609 H 165.685 3.77748 0.107161 0
M  V30 1610 H 165.998 7.7173 -0.406608 0
M  V30 1611 H 164.343 6.94074 -0.358733 0
M  V30 1612 H 167.534 4.68075 0.048498 0
M  V30 1613 H 167.707 6.47734 -0.185557 0
M  V30 1614 N 161.113 -0.173488 1.56642 0
M  V30 1615 C 162.341 -0.906095 1.86004 0
M  V30 1616 C 162.756 -1.75921 0.685355 0
M  V30 1617 O 162.113 -1.79198 -0.345578 0
M  V30 1618 C 162.164 -1.78462 3.14378 0
M  V30 1619 O 161.885 -0.965914 4.27319 0
M  V30 1620 C 163.386 -2.62707 3.57071 0
M  V30 1621 H 160.606 -0.263341 0.617165 0
M  V30 1622 H 163.15 -0.174236 2.03756 0
M  V30 1623 H 161.305 -2.46984 2.98459 0
M  V30 1624 H 161.719 -1.56655 5.00559 0
M  V30 1625 H 163.193 -3.19969 4.49804 0
M  V30 1626 H 163.67 -3.37472 2.81086 0
M  V30 1627 H 164.276 -1.99521 3.75595 0
M  V30 1628 N 162.591 -1.51276 -0.441967 0
M  V30 1629 C 163.838 -1.63715 -1.19179 0
M  V30 1630 C 164.166 -0.351175 -1.91303 0
M  V30 1631 O 163.421 0.664524 -1.84072 0
M  V30 1632 C 163.72 -2.78746 -2.23686 0
M  V30 1633 C 163.386 -4.18189 -1.68607 0
M  V30 1634 C 162.048 -4.56125 -1.53308 0
M  V30 1635 C 164.4 -5.05222 -1.28062 0
M  V30 1636 C 161.728 -5.78804 -0.959317 0
M  V30 1637 C 164.08 -6.28476 -0.721162 0
M  V30 1638 C 162.744 -6.65188 -0.55504 0
M  V30 1639 H 162.014 -0.599076 -0.436106 0
M  V30 1640 H 164.661 -1.85296 -0.48351 0
M  V30 1641 H 162.966 -2.51369 -3.00535 0
M  V30 1642 H 164.663 -2.8557 -2.81515 0
M  V30 1643 H 161.253 -3.88277 -1.8149 0
M  V30 1644 H 165.437 -4.76524 -1.38704 0
M  V30 1645 H 160.693 -6.05899 -0.81833 0
M  V30 1646 H 164.867 -6.95259 -0.398458 0
M  V30 1647 H 162.494 -7.60123 -0.108311 0
M  V30 1648 N 164.069 0.697108 -1.41344 0
M  V30 1649 C 165.485 1.00751 -1.2378 0
M  V30 1650 C 165.685 2.01105 -0.126066 0
M  V30 1651 O 164.741 2.47295 0.51004 0
M  V30 1652 C 166.054 1.53359 -2.58653 0
M  V30 1653 C 167.602 1.6525 -2.65822 0
M  V30 1654 C 168.077 2.2126 -4.01009 0
M  V30 1655 N 169.568 2.28622 -4.02847 0
M  V30 1656 C 170.303 2.72984 -5.04249 0
M  V30 1657 N 169.799 3.16962 -6.16041 0
M  V30 1658 N 171.592 2.72534 -4.91611 0
M  V30 1659 H 163.743 0.0322662 -2.12375 0
M  V30 1660 H 166.006 0.0768853 -0.944877 0
M  V30 1661 H 165.712 0.870773 -3.4075 0
M  V30 1662 H 165.586 2.51597 -2.81032 0
M  V30 1663 H 167.973 2.30644 -1.84086 0
M  V30 1664 H 168.054 0.655614 -2.47256 0
M  V30 1665 H 167.698 1.56482 -4.83193 0
M  V30 1666 H 167.628 3.21698 -4.16915 0
M  V30 1667 H 170.119 1.97585 -3.22131 0
M  V30 1668 H 170.432 3.49434 -6.89287 0
M  V30 1669 H 168.777 3.14875 -6.1958 0
M  V30 1670 H 171.968 2.37525 -4.0336 0
M  V30 1671 H 172.141 3.06789 -5.70775 0
M  V30 1672 N 165.547 1.27147 0.931209 0
M  V30 1673 C 166.477 1.12081 2.04842 0
M  V30 1674 C 167.458 0.0232364 1.70084 0
M  V30 1675 O 168.643 0.197085 1.93197 0
M  V30 1676 C 165.773 0.76354 3.38803 0
M  V30 1677 C 164.727 1.81396 3.87659 0
M  V30 1678 C 164.053 1.31075 5.18385 0
M  V30 1679 C 165.353 3.21739 4.11438 0
M  V30 1680 H 167.047 2.05537 2.17703 0
M  V30 1681 H 164.593 0.989603 1.04608 0
M  V30 1682 H 166.546 0.644982 4.16435 0
M  V30 1683 H 165.27 -0.206727 3.25945 0
M  V30 1684 H 163.929 1.92136 3.12217 0
M  V30 1685 H 163.577 0.330037 5.01916 0
M  V30 1686 H 163.277 2.013 5.52044 0
M  V30 1687 H 164.801 1.20506 5.98591 0
M  V30 1688 H 166.215 3.14019 4.79651 0
M  V30 1689 H 164.612 3.89644 4.56397 0
M  V30 1690 H 165.682 3.67054 3.16859 0
M  V30 1691 N 167.025 -1.13721 1.09112 0
M  V30 1692 C 167.988 -2.17222 0.731241 0
M  V30 1693 C 168.988 -1.59035 -0.237566 0
M  V30 1694 O 170.178 -1.74192 -0.0161704 0
M  V30 1695 C 167.31 -3.40804 0.0808443 0
M  V30 1696 H 168.503 -2.50573 1.64783 0
M  V30 1697 H 166.056 -1.28493 0.889897 0
M  V30 1698 H 166.791 -3.1304 -0.847127 0
M  V30 1699 H 166.576 -3.84306 0.777896 0
M  V30 1700 H 168.066 -4.1731 -0.155657 0
M  V30 1701 N 168.503 -0.877838 -1.30888 0
M  V30 1702 C 169.914 -0.544193 -1.78593 0
M  V30 1703 C 170.265 0.939301 -1.72254 0
M  V30 1704 O 169.39 1.7337 -1.29505 0
M  V30 1705 C 169.985 -0.98105 -3.24285 0
M  V30 1706 C 168.544 -0.698935 -3.69854 0
M  V30 1707 C 167.691 -1.168 -2.51502 0
M  V30 1708 H 170.642 -1.06278 -1.17859 0
M  V30 1709 H 170.663 -0.307009 -3.79259 0
M  V30 1710 H 170.175 -2.06079 -3.28866 0
M  V30 1711 H 168.276 0.369112 -3.70767 0
M  V30 1712 H 168.389 -1.28148 -4.61644 0
M  V30 1713 H 166.753 -0.587535 -2.47831 0
M  V30 1714 H 167.536 -2.25533 -2.58824 0
M  V30 1715 N 169.982 1.44106 -0.638065 0
M  V30 1716 C 170.945 2.29138 0.0531013 0
M  V30 1717 C 171.945 1.41409 0.765506 0
M  V30 1718 O 173.135 1.63206 0.609046 0
M  V30 1719 C 170.267 3.23144 1.08584 0
M  V30 1720 H 171.46 2.91739 -0.694883 0
M  V30 1721 H 169.013 1.51134 -0.398538 0
M  V30 1722 H 169.748 2.65408 1.86357 0
M  V30 1723 H 169.533 3.87804 0.578852 0
M  V30 1724 H 171.023 3.87004 1.56899 0
M  V30 1725 N 171.46 0.379036 1.52974 0
M  V30 1726 C 172.392 -0.495963 2.2377 0
M  V30 1727 C 173.405 -1.03517 1.25651 0
M  V30 1728 O 174.594 -0.939249 1.51791 0
M  V30 1729 C 171.694 -1.69894 2.93239 0
M  V30 1730 C 170.867 -1.2889 4.17979 0
M  V30 1731 C 169.926 -2.35543 4.70538 0
M  V30 1732 O 168.952 -1.97375 5.33883 0
M  V30 1733 N 170.154 -3.67318 4.49508 0
M  V30 1734 H 172.919 0.110523 2.99496 0
M  V30 1735 H 170.48 0.204878 1.60598 0
M  V30 1736 H 172.472 -2.40747 3.25304 0
M  V30 1737 H 171.042 -2.212 2.20883 0
M  V30 1738 H 170.262 -0.409676 3.92065 0
M  V30 1739 H 171.55 -0.991443 4.99047 0
M  V30 1740 H 170.948 -4.01095 3.98923 0
M  V30 1741 H 169.505 -4.34235 4.8609 0
M  V30 1742 N 172.938 -1.57226 0.108567 0
M  V30 1743 C 174.184 -1.95919 -0.546564 0
M  V30 1744 C 174.539 -0.990417 -1.6495 0
M  V30 1745 O 173.832 -0.0186593 -1.91591 0
M  V30 1746 C 174.026 -3.38911 -1.13463 0
M  V30 1747 C 173.855 -4.4961 -0.0901926 0
M  V30 1748 C 172.625 -5.04168 0.338008 0
M  V30 1749 C 174.823 -5.09693 0.686808 0
M  V30 1750 N 172.805 -5.98434 1.36931 0
M  V30 1751 C 174.176 -5.99804 1.56958 0
M  V30 1752 C 176.231 -4.92388 0.738846 0
M  V30 1753 C 174.934 -6.74463 2.49983 0
M  V30 1754 C 176.96 -5.67719 1.65676 0
M  V30 1755 C 176.322 -6.57507 2.52713 0
M  V30 1756 H 172.421 -0.763312 -0.169936 0
M  V30 1757 H 175.005 -1.93728 0.194264 0
M  V30 1758 H 173.176 -3.41769 -1.84522 0
M  V30 1759 H 174.908 -3.64752 -1.75322 0
M  V30 1760 H 171.663 -4.73571 -0.0523673 0
M  V30 1761 H 172.087 -6.5027 1.88356 0
M  V30 1762 H 176.729 -4.22724 0.080084 0
M  V30 1763 H 174.447 -7.4338 3.16878 0
M  V30 1764 H 178.033 -5.56338 1.70233 0
M  V30 1765 H 176.913 -7.14778 3.22586 0
M  V30 1766 N 174.416 0.165178 -1.56732 0
M  V30 1767 C 175.663 0.880807 -1.8234 0
M  V30 1768 C 175.991 1.81977 -0.686621 0
M  V30 1769 O 175.246 1.92971 0.325697 0
M  V30 1770 C 175.545 1.70405 -3.1416 0
M  V30 1771 C 175.211 0.913475 -4.4155 0
M  V30 1772 C 173.873 0.695303 -4.7615 0
M  V30 1773 C 176.225 0.359349 -5.1996 0
M  V30 1774 C 173.553 -0.0879947 -5.86634 0
M  V30 1775 C 175.905 -0.410893 -6.31264 0
M  V30 1776 C 174.569 -0.639808 -6.64427 0
M  V30 1777 H 173.839 0.32231 -0.667231 0
M  V30 1778 H 176.486 0.145402 -1.90947 0
M  V30 1779 H 174.791 2.50903 -3.00923 0
M  V30 1780 H 176.488 2.26091 -3.31186 0
M  V30 1781 H 173.078 1.09357 -4.14414 0
M  V30 1782 H 177.262 0.515228 -4.93618 0
M  V30 1783 H 172.518 -0.27503 -6.10781 0
M  V30 1784 H 176.692 -0.847494 -6.91224 0
M  V30 1785 H 174.319 -1.24864 -7.49875 0
M  V30 1786 N 175.894 1.51508 0.433938 0
M  V30 1787 C 176.824 1.76016 1.53429 0
M  V30 1788 C 177.805 0.610112 1.58782 0
M  V30 1789 O 178.99 0.853177 1.74455 0
M  V30 1790 C 176.12 1.88831 2.9148 0
M  V30 1791 C 175.074 3.04288 3.00987 0
M  V30 1792 C 174.4 3.0229 4.4105 0
M  V30 1793 C 175.7 4.44193 2.74754 0
M  V30 1794 H 177.394 2.68152 1.33171 0
M  V30 1795 H 174.94 1.29035 0.639214 0
M  V30 1796 H 176.893 2.04559 3.6842 0
M  V30 1797 H 175.617 0.933455 3.12976 0
M  V30 1798 H 174.276 2.8827 2.26486 0
M  V30 1799 H 173.924 2.04576 4.59519 0
M  V30 1800 H 173.624 3.79822 4.4834 0
M  V30 1801 H 175.148 3.20116 5.1996 0
M  V30 1802 H 176.562 4.60544 3.41426 0
M  V30 1803 H 174.959 5.23457 2.9345 0
M  V30 1804 H 176.029 4.53996 1.70339 0
M  V30 1805 N 177.372 -0.689602 1.41712 0
M  V30 1806 C 178.788 -1.00093 1.24312 0
M  V30 1807 C 178.988 -2.01036 0.136729 0
M  V30 1808 O 178.044 -2.47562 -0.496918 0
M  V30 1809 C 179.357 -1.51985 2.59463 0
M  V30 1810 C 180.905 -1.63838 2.66695 0
M  V30 1811 C 181.38 -2.1913 4.02177 0
M  V30 1812 N 182.871 -2.26483 4.04054 0
M  V30 1813 C 183.606 -2.70306 5.0569 0
M  V30 1814 N 183.102 -3.13691 6.17713 0
M  V30 1815 N 184.895 -2.69923 4.9305 0
M  V30 1816 H 177.046 -0.0210029 2.1239 0
M  V30 1817 H 179.309 -0.0718733 0.945272 0
M  V30 1818 H 179.015 -0.85269 3.41207 0
M  V30 1819 H 178.889 -2.50103 2.82362 0
M  V30 1820 H 181.276 -2.29664 1.85306 0
M  V30 1821 H 181.357 -0.642492 2.476 0
M  V30 1822 H 181.001 -1.53918 4.84016 0
M  V30 1823 H 180.931 -3.19482 4.18615 0
M  V30 1824 H 183.422 -1.95874 3.23174 0
M  V30 1825 H 183.735 -3.45773 6.9113 0
M  V30 1826 H 182.08 -3.11585 6.21241 0
M  V30 1827 H 185.271 -2.35382 4.04614 0
M  V30 1828 H 185.444 -3.03758 5.72394 0
M  V30 1829 N 178.85 -1.27639 -0.924453 0
M  V30 1830 C 179.76 -1.12466 -2.05885 0
M  V30 1831 C 180.776 -0.053869 -1.73917 0
M  V30 1832 O 181.952 -0.261012 -1.99702 0
M  V30 1833 C 179.017 -0.776768 -3.37886 0
M  V30 1834 C 178.078 -1.92878 -3.83532 0
M  V30 1835 C 177.311 -1.59739 -5.09234 0
M  V30 1836 O 177.534 -0.506782 -5.68144 0
M  V30 1837 O 176.468 -2.43761 -5.50331 0
M  V30 1838 H 180.294 -2.07671 -2.21599 0
M  V30 1839 H 177.879 -1.06857 -1.04413 0
M  V30 1840 H 179.761 -0.596229 -4.17161 0
M  V30 1841 H 178.436 0.145732 -3.23372 0
M  V30 1842 H 177.343 -2.1644 -3.0513 0
M  V30 1843 H 178.676 -2.8316 -4.02593 0
M  V30 1844 N 180.328 1.1314 -1.09713 0
M  V30 1845 C 181.576 1.84119 -0.833338 0
M  V30 1846 C 181.897 1.84097 0.642904 0
M  V30 1847 O 181.167 1.29881 1.46655 0
M  V30 1848 H 179.747 0.681766 -0.305293 0
M  V30 1849 H 182.409 1.37038 -1.38588 0
M  V30 1850 H 181.505 2.88543 -1.18951 0
M  V30 1851 N 181.806 0.884767 1.30421 0
M  V30 1852 C 182.736 0.367574 2.30589 0
M  V30 1853 C 183.717 -0.549464 1.60981 0
M  V30 1854 O 184.902 -0.46336 1.88591 0
M  V30 1855 C 182.032 -0.418944 3.44764 0
M  V30 1856 C 180.986 0.406316 4.26067 0
M  V30 1857 C 180.312 -0.506793 5.32293 0
M  V30 1858 C 181.612 1.64832 4.95608 0
M  V30 1859 H 183.306 1.20462 2.74097 0
M  V30 1860 H 180.852 0.580695 1.31772 0
M  V30 1861 H 182.805 -0.791395 4.13902 0
M  V30 1862 H 181.529 -1.28964 3.0006 0
M  V30 1863 H 180.188 0.760903 3.58617 0
M  V30 1864 H 179.836 -1.37519 4.83836 0
M  V30 1865 H 179.536 0.0415828 5.87585 0
M  V30 1866 H 181.06 -0.875764 6.04287 0
M  V30 1867 H 182.474 1.34646 5.57264 0
M  V30 1868 H 180.871 2.13688 5.60765 0
M  V30 1869 H 181.941 2.39284 4.21748 0
M  V30 1870 N 183.284 -1.43765 0.645699 0
M  V30 1871 C 184.214 -2.33471 -0.0370477 0
M  V30 1872 C 185.195 -1.49042 -0.819779 0
M  V30 1873 O 186.38 -1.77726 -0.782758 0
M  V30 1874 C 183.51 -3.32311 -1.0093 0
M  V30 1875 C 182.464 -4.2667 -0.337201 0
M  V30 1876 C 181.79 -5.1549 -1.42037 0
M  V30 1877 C 183.09 -5.16657 0.765706 0
M  V30 1878 H 184.784 -2.90809 0.712069 0
M  V30 1879 H 182.33 -1.39834 0.343876 0
M  V30 1880 H 184.283 -3.9396 -1.49578 0
M  V30 1881 H 183.007 -2.73213 -1.78948 0
M  V30 1882 H 181.666 -3.66374 0.128771 0
M  V30 1883 H 181.314 -4.52735 -2.1918 0
M  V30 1884 H 181.014 -5.79438 -0.975966 0
M  V30 1885 H 182.538 -5.80012 -1.90838 0
M  V30 1886 H 183.952 -5.72158 0.361702 0
M  V30 1887 H 182.349 -5.89286 1.13413 0
M  V30 1888 H 183.419 -4.56796 1.62683 0
M  V30 1889 N 184.763 -0.387143 -1.52771 0
M  V30 1890 C 186.01 0.195735 -2.01552 0
M  V30 1891 C 186.338 1.46995 -1.27369 0
M  V30 1892 O 185.593 1.92325 -0.361879 0
M  V30 1893 C 185.892 0.512209 -3.53711 0
M  V30 1894 C 185.558 -0.670202 -4.45891 0
M  V30 1895 C 184.22 -0.994586 -4.70809 0
M  V30 1896 C 186.572 -1.46134 -5.00294 0
M  V30 1897 C 183.9 -2.11169 -5.4738 0
M  V30 1898 C 186.252 -2.56903 -5.78086 0
M  V30 1899 C 184.916 -2.89852 -6.01284 0
M  V30 1900 H 184.186 0.0716246 -0.73753 0
M  V30 1901 H 186.833 -0.524046 -1.8419 0
M  V30 1902 H 185.138 1.31329 -3.69134 0
M  V30 1903 H 186.835 0.975804 -3.88946 0
M  V30 1904 H 183.425 -0.407366 -4.2666 0
M  V30 1905 H 187.609 -1.22397 -4.80971 0
M  V30 1906 H 182.865 -2.3707 -5.63567 0
M  V30 1907 H 187.039 -3.18608 -6.19243 0
M  V30 1908 H 184.666 -3.76533 -6.60399 0
M  V30 1909 N 186.241 1.57166 -0.116904 0
M  V30 1910 C 187.469 1.99473 0.549383 0
M  V30 1911 C 187.884 0.996541 1.60357 0
M  V30 1912 O 187.241 -0.0108731 1.82497 0
M  V30 1913 C 187.292 3.41788 1.17741 0
M  V30 1914 O 187.013 4.37788 0.165362 0
M  V30 1915 C 188.514 3.99216 1.92722 0
M  V30 1916 H 185.734 0.655009 0.145616 0
M  V30 1917 H 188.278 2.03494 -0.202625 0
M  V30 1918 H 186.433 3.38713 1.88021 0
M  V30 1919 H 186.847 5.20806 0.621403 0
M  V30 1920 H 188.321 5.00882 2.31995 0
M  V30 1921 H 188.798 3.3824 2.80161 0
M  V30 1922 H 189.404 4.0583 1.27209 0
M  V30 1923 N 187.719 -0.156864 1.56817 0
M  V30 1924 C 188.682 -1.17781 1.96622 0
M  V30 1925 C 189.682 -1.36401 0.851555 0
M  V30 1926 O 190.872 -1.33561 1.11836 0
M  V30 1927 C 188.004 -2.54008 2.27361 0
M  V30 1928 H 189.197 -0.836564 2.87996 0
M  V30 1929 H 186.75 -0.39985 1.51099 0
M  V30 1930 H 187.485 -2.9312 1.38748 0
M  V30 1931 H 187.27 -2.41856 3.08623 0
M  V30 1932 H 188.76 -3.27558 2.59029 0
M  V30 1933 N 189.197 -1.51736 -0.425897 0
M  V30 1934 C 190.127 -1.76827 -1.52494 0
M  V30 1935 C 191.108 -0.618524 -1.58456 0
M  V30 1936 O 192.293 -0.862416 -1.74 0
M  V30 1937 C 189.423 -1.90374 -2.90474 0
M  V30 1938 C 188.377 -3.0588 -2.99369 0
M  V30 1939 C 187.703 -3.04625 -4.3944 0
M  V30 1940 C 189.003 -4.45644 -2.72394 0
M  V30 1941 H 190.697 -2.68855 -1.31748 0
M  V30 1942 H 188.243 -1.29372 -0.632362 0
M  V30 1943 H 190.196 -2.0651 -3.6733 0
M  V30 1944 H 188.92 -0.95004 -3.12477 0
M  V30 1945 H 187.579 -2.89467 -2.24954 0
M  V30 1946 H 187.227 -2.0701 -4.58428 0
M  V30 1947 H 186.927 -3.82195 -4.46319 0
M  V30 1948 H 188.451 -3.22869 -5.18255 0
M  V30 1949 H 189.865 -4.62348 -3.38979 0
M  V30 1950 H 188.262 -5.25006 -2.9067 0
M  V30 1951 H 189.332 -4.54893 -1.67929 0
M  V30 1952 N 190.675 0.682077 -1.42076 0
M  V30 1953 C 191.638 1.77756 -1.44691 0
M  V30 1954 C 192.638 1.5726 -0.335535 0
M  V30 1955 O 193.828 1.63686 -0.596037 0
M  V30 1956 C 190.96 3.16301 -1.27146 0
M  V30 1957 H 192.153 1.76826 -2.42224 0
M  V30 1958 H 189.706 0.891012 -1.28416 0
M  V30 1959 H 190.441 3.22862 -0.305075 0
M  V30 1960 H 190.226 3.32581 -2.07683 0
M  V30 1961 H 191.716 3.96241 -1.31843 0
M  V30 1962 N 192.153 1.28127 0.917671 0
M  V30 1963 C 193.116 1.11744 2.00115 0
M  V30 1964 C 194.116 0.0583052 1.60694 0
M  V30 1965 O 195.306 0.303755 1.71531 0
M  V30 1966 C 192.438 0.704862 3.33533 0
M  V30 1967 H 193.631 2.07966 2.16079 0
M  V30 1968 H 191.184 1.11058 1.09981 0
M  V30 1969 H 191.919 -0.258299 3.2327 0
M  V30 1970 H 191.704 1.4699 3.63505 0
M  V30 1971 H 193.194 0.612768 4.1308 0
M  V30 1972 N 193.631 -1.12557 1.10312 0
M  V30 1973 C 194.856 -1.88405 0.867085 0
M  V30 1974 C 195.281 -1.79038 -0.576817 0
M  V30 1975 O 194.639 -1.14439 -1.40618 0
M  V30 1976 C 194.687 -3.3563 1.31851 0
M  V30 1977 O 193.791 -4.09565 0.482734 0
M  V30 1978 H 193.132 -0.585455 0.313271 0
M  V30 1979 H 195.662 -1.42352 1.4696 0
M  V30 1980 H 195.672 -3.86469 1.3079 0
M  V30 1981 H 194.347 -3.41765 2.37001 0
M  V30 1982 H 192.924 -3.68695 0.558448 0
M  V30 1983 N 195.109 -0.891671 -1.2995 0
M  V30 1984 C 196.337 -0.52866 -2.00032 0
M  V30 1985 C 196.752 0.884574 -1.66795 0
M  V30 1986 O 196.109 1.5827 -0.908669 0
M  V30 1987 C 196.16 -0.701814 -3.54622 0
M  V30 1988 O 195.881 -2.05942 -3.86678 0
M  V30 1989 C 197.382 -0.342683 -4.41973 0
M  V30 1990 H 194.602 -0.203659 -0.639347 0
M  V30 1991 H 197.146 -1.19881 -1.65677 0
M  V30 1992 H 195.301 -0.0789468 -3.8732 0
M  V30 1993 H 195.715 -2.08291 -4.81368 0
M  V30 1994 H 197.189 -0.514709 -5.49595 0
M  V30 1995 H 197.666 0.71975 -4.33262 0
M  V30 1996 H 198.272 -0.942154 -4.14733 0
M  V30 1997 N 196.587 1.43421 -0.653314 0
M  V30 1998 C 197.834 2.01812 -0.166745 0
M  V30 1999 C 198.162 1.51535 1.21931 0
M  V30 2000 O 197.417 0.698975 1.82792 0
M  V30 2001 C 197.716 3.57176 -0.126623 0
M  V30 2002 C 197.382 4.26798 -1.45444 0
M  V30 2003 C 196.044 4.45534 -1.81805 0
M  V30 2004 C 198.396 4.66225 -2.32989 0
M  V30 2005 C 195.724 5.00961 -3.05377 0
M  V30 2006 C 198.076 5.23021 -3.55853 0
M  V30 2007 C 196.74 5.39973 -3.9241 0
M  V30 2008 H 196.01 0.738484 -0.0610162 0
M  V30 2009 H 198.657 1.71896 -0.84404 0
M  V30 2010 H 196.962 3.86634 0.634123 0
M  V30 2011 H 198.659 4.00112 0.266723 0
M  V30 2012 H 195.249 4.12561 -1.16153 0
M  V30 2013 H 199.433 4.51443 -2.06187 0
M  V30 2014 H 194.689 5.12271 -3.3375 0
M  V30 2015 H 198.863 5.52518 -4.23907 0
M  V30 2016 H 196.49 5.82687 -4.88242 0
M  V30 2017 N 198.065 0.39524 1.52563 0
M  V30 2018 C 199.29 -0.187456 2.06551 0
M  V30 2019 C 199.715 -1.39249 1.26457 0
M  V30 2020 O 199.073 -1.78947 0.291151 0
M  V30 2021 C 199.121 -0.529985 3.56684 0
M  V30 2022 O 198.225 -1.62307 3.79118 0
M  V30 2023 H 197.566 -0.0202537 0.663691 0
M  V30 2024 H 200.096 0.564426 1.96661 0
M  V30 2025 H 200.106 -0.792598 4.00227 0
M  V30 2026 H 198.781 0.350987 4.14416 0
M  V30 2027 H 197.358 -1.3537 3.47461 0
M  V30 2028 N 199.544 -1.57102 0.125237 0
M  V30 2029 C 200.474 -2.18659 -0.819174 0
M  V30 2030 C 201.455 -1.12843 -1.27281 0
M  V30 2031 O 202.64 -1.41104 -1.33429 0
M  V30 2032 C 199.77 -2.79096 -2.06695 0
M  V30 2033 C 198.724 -3.90548 -1.75088 0
M  V30 2034 C 198.05 -4.37821 -3.06948 0
M  V30 2035 C 199.35 -5.12356 -1.01435 0
M  V30 2036 H 201.044 -2.9783 -0.306202 0
M  V30 2037 H 198.59 -1.4326 -0.145839 0
M  V30 2038 H 200.543 -3.2082 -2.73226 0
M  V30 2039 H 199.267 -1.97223 -2.60328 0
M  V30 2040 H 197.926 -3.49409 -1.10944 0
M  V30 2041 H 197.574 -3.52799 -3.58527 0
M  V30 2042 H 197.274 -5.12982 -2.86571 0
M  V30 2043 H 198.798 -4.822 -3.74587 0
M  V30 2044 H 200.212 -5.5106 -1.58132 0
M  V30 2045 H 198.609 -5.9314 -0.911319 0
M  V30 2046 H 199.679 -4.849 -0.00218681 0
M  V30 2047 N 201.022 0.148545 -1.56898 0
M  V30 2048 C 201.952 1.18524 -2.01182 0
M  V30 2049 C 202.933 1.4489 -0.891123 0
M  V30 2050 O 204.118 1.55836 -1.15882 0
M  V30 2051 C 201.248 2.51879 -2.39112 0
M  V30 2052 C 200.202 2.40038 -3.54353 0
M  V30 2053 C 199.528 3.78089 -3.78091 0
M  V30 2054 C 200.828 1.88577 -4.87069 0
M  V30 2055 H 202.522 0.817029 -2.88036 0
M  V30 2056 H 200.068 0.391575 -1.38574 0
M  V30 2057 H 202.021 3.24627 -2.68692 0
M  V30 2058 H 200.745 2.90532 -1.49193 0
M  V30 2059 H 199.404 1.69742 -3.24936 0
M  V30 2060 H 199.052 4.14175 -2.85426 0
M  V30 2061 H 198.752 3.71028 -4.55645 0
M  V30 2062 H 200.276 4.52387 -4.10095 0
M  V30 2063 H 201.69 2.51117 -5.15377 0
M  V30 2064 H 200.087 1.9241 -5.68417 0
M  V30 2065 H 201.157 0.84136 -4.77545 0
M  V30 2066 N 202.5 1.5196 0.417844 0
M  V30 2067 C 203.747 1.65591 1.16559 0
M  V30 2068 C 204.075 0.381565 1.90721 0
M  V30 2069 O 203.33 -0.635156 1.85106 0
M  V30 2070 C 203.629 2.82269 2.19223 0
M  V30 2071 C 203.295 4.20819 1.61933 0
M  V30 2072 C 201.957 4.58506 1.46033 0
M  V30 2073 C 204.309 5.07196 1.20008 0
M  V30 2074 C 201.637 5.80257 0.867113 0
M  V30 2075 C 203.989 6.29544 0.621086 0
M  V30 2076 C 202.653 6.65987 0.449144 0
M  V30 2077 H 201.923 0.605939 0.42652 0
M  V30 2078 H 204.57 1.86041 0.45397 0
M  V30 2079 H 202.875 2.56118 2.96498 0
M  V30 2080 H 204.572 2.90012 2.76936 0
M  V30 2081 H 201.162 3.91116 1.7529 0
M  V30 2082 H 205.346 4.7867 1.31105 0
M  V30 2083 H 200.602 6.07124 0.721833 0
M  V30 2084 H 204.776 6.95805 0.287798 0
M  V30 2085 H 202.403 7.60199 -0.012632 0
M  V30 2086 N 203.978 -0.674533 1.42435 0
M  V30 2087 C 205.206 -1.46283 1.46317 0
M  V30 2088 C 205.621 -1.88653 0.0745836 0
M  V30 2089 O 204.978 -1.58151 -0.91074 0
M  V30 2090 C 205.029 -2.71178 2.3905 0
M  V30 2091 O 204.75 -2.30586 3.72507 0
M  V30 2092 C 206.251 -3.64738 2.51955 0
M  V30 2093 H 203.471 -0.450104 0.497642 0
M  V30 2094 H 206.015 -0.828792 1.86953 0
M  V30 2095 H 204.17 -3.3077 2.01667 0
M  V30 2096 H 204.584 -3.11241 4.22172 0
M  V30 2097 H 206.058 -4.49096 3.20962 0
M  V30 2098 H 206.535 -4.10656 1.55752 0
M  V30 2099 H 207.141 -3.11038 2.90061 0
M  V30 2100 N 205.456 -1.28612 -0.910864 0
M  V30 2101 C 206.419 -1.12803 -1.9952 0
M  V30 2102 C 207.419 -0.0668264 -1.60661 0
M  V30 2103 O 208.609 -0.312847 -1.71368 0
M  V30 2104 C 205.741 -0.72254 -3.33155 0
M  V30 2105 H 206.934 -2.09109 -2.14973 0
M  V30 2106 H 204.487 -1.11639 -1.09391 0
M  V30 2107 H 205.222 0.241152 -3.23402 0
M  V30 2108 H 205.007 -1.48916 -3.62721 0
M  V30 2109 H 206.497 -0.634666 -4.12749 0
M  V30 2110 N 206.934 1.1197 -1.10907 0
M  V30 2111 C 208.182 1.83225 -0.852819 0
M  V30 2112 C 208.503 1.84769 0.623341 0
M  V30 2113 O 207.773 1.3143 1.45269 0
M  V30 2114 H 206.353 0.67849 -0.312507 0
M  V30 2115 H 209.015 1.3556 -1.40033 0
M  V30 2116 H 208.111 2.87265 -1.22005 0
M  V30 2117 N 208.412 0.89855 1.29475 0
M  V30 2118 C 209.322 0.379974 2.31502 0
M  V30 2119 C 210.338 -0.524695 1.659 0
M  V30 2120 O 211.514 -0.414551 1.97087 0
M  V30 2121 C 208.579 -0.385138 3.44554 0
M  V30 2122 C 207.64 0.550914 4.2575 0
M  V30 2123 C 206.873 -0.177778 5.33404 0
M  V30 2124 O 207.096 -1.40189 5.52904 0
M  V30 2125 O 206.03 0.479106 5.9999 0
M  V30 2126 H 209.856 1.22639 2.77837 0
M  V30 2127 H 207.441 0.662834 1.33891 0
M  V30 2128 H 209.323 -0.817841 4.13388 0
M  V30 2129 H 207.998 -1.20763 3.0033 0
M  V30 2130 H 206.905 1.03271 3.59564 0
M  V30 2131 H 208.238 1.33979 4.73614 0
M  V30 2132 N 209.89 -1.43072 0.660911 0
M  V30 2133 C 211.306 -1.56169 0.329173 0
M  V30 2134 C 211.506 -1.64317 -1.16629 0
M  V30 2135 O 210.562 -1.60245 -1.95135 0
M  V30 2136 C 211.875 -2.81873 1.04729 0
M  V30 2137 C 213.423 -2.95627 1.02828 0
M  V30 2138 C 213.898 -4.24174 1.72744 0
M  V30 2139 N 215.389 -4.31055 1.69545 0
M  V30 2140 C 216.124 -5.29304 2.20511 0
M  V30 2141 N 215.62 -6.33786 2.79799 0
M  V30 2142 N 217.413 -5.21008 2.10966 0
M  V30 2143 H 209.564 -1.36027 1.63127 0
M  V30 2144 H 211.827 -0.653823 0.686454 0
M  V30 2145 H 211.533 -2.81942 2.10242 0
M  V30 2146 H 211.407 -3.72338 0.603702 0
M  V30 2147 H 213.794 -2.95094 -0.0184742 0
M  V30 2148 H 213.875 -2.06431 1.51063 0
M  V30 2149 H 213.519 -4.25467 2.7738 0
M  V30 2150 H 213.449 -5.1228 1.2197 0
M  V30 2151 H 215.94 -3.56174 1.26288 0
M  V30 2152 H 216.253 -7.05086 3.16344 0
M  V30 2153 H 214.598 -6.34387 2.83863 0
M  V30 2154 H 217.789 -4.38301 1.64347 0
M  V30 2155 H 217.962 -5.97416 2.50993 0
M  V30 2156 N 211.368 -0.403325 -1.52352 0
M  V30 2157 C 212.615 0.174347 -2.01748 0
M  V30 2158 C 212.943 1.45636 -1.2892 0
M  V30 2159 O 212.198 1.9193 -0.382258 0
M  V30 2160 C 212.497 0.474665 -3.54234 0
M  V30 2161 C 212.163 -0.717458 -4.45155 0
M  V30 2162 C 210.825 -1.04447 -4.69728 0
M  V30 2163 C 213.177 -1.51432 -4.98716 0
M  V30 2164 C 210.505 -2.16963 -5.45109 0
M  V30 2165 C 212.857 -2.6302 -5.75329 0
M  V30 2166 C 211.521 -2.96213 -5.98175 0
M  V30 2167 H 210.791 0.0637981 -0.738248 0
M  V30 2168 H 213.438 -0.543553 -1.83624 0
M  V30 2169 H 211.743 1.27406 -3.70506 0
M  V30 2170 H 213.44 0.934496 -3.89959 0
M  V30 2171 H 210.03 -0.452596 -4.26204 0
M  V30 2172 H 214.214 -1.27491 -4.79645 0
M  V30 2173 H 209.47 -2.43034 -5.61021 0
M  V30 2174 H 213.644 -3.25158 -6.15829 0
M  V30 2175 H 211.271 -3.83516 -6.56368 0
M  V30 2176 N 212.846 1.57033 -0.133567 0
M  V30 2177 C 213.809 2.14897 0.796995 0
M  V30 2178 C 214.809 1.0874 1.18458 0
M  V30 2179 O 215.999 1.34446 1.1077 0
M  V30 2180 C 213.131 2.70112 2.07973 0
M  V30 2181 H 214.324 2.98457 0.293873 0
M  V30 2182 H 211.877 1.55871 0.115787 0
M  V30 2183 H 212.612 1.9018 2.62682 0
M  V30 2184 H 212.397 3.47764 1.81115 0
M  V30 2185 H 213.887 3.14738 2.74462 0
M  V30 2186 N 214.325 -0.140222 1.56975 0
M  V30 2187 C 215.553 -0.866437 1.87884 0
M  V30 2188 C 215.968 -1.74428 0.722517 0
M  V30 2189 O 215.325 -1.79891 -0.30749 0
M  V30 2190 C 215.376 -1.71753 3.18093 0
M  V30 2191 O 215.097 -0.875056 4.29272 0
M  V30 2192 C 216.598 -2.55074 3.62563 0
M  V30 2193 H 213.818 -0.25019 0.622612 0
M  V30 2194 H 216.362 -0.130977 2.0408 0
M  V30 2195 H 214.517 -2.40598 3.03631 0
M  V30 2196 H 214.931 -1.46002 5.03769 0
M  V30 2197 H 216.405 -3.10356 4.5649 0
M  V30 2198 H 216.882 -3.31434 2.88181 0
M  V30 2199 H 217.488 -1.91509 3.79743 0
M  V30 2200 N 215.803 -1.52179 -0.40978 0
M  V30 2201 C 216.736 -1.70196 -1.52015 0
M  V30 2202 C 217.714 -0.549542 -1.53032 0
M  V30 2203 O 218.898 -0.776815 -1.71749 0
M  V30 2204 C 216.025 -1.74069 -2.90547 0
M  V30 2205 C 215.071 -2.95601 -3.07445 0
M  V30 2206 S 215.904 -4.55956 -2.80827 0
M  V30 2207 C 217.06 -4.62614 -4.21591 0
M  V30 2208 H 217.293 -2.64109 -1.36504 0
M  V30 2209 H 214.826 -1.4221 -0.601312 0
M  V30 2210 H 216.784 -1.76985 -3.70387 0
M  V30 2211 H 215.445 -0.812835 -3.034 0
M  V30 2212 H 214.638 -2.94791 -4.08796 0
M  V30 2213 H 214.24 -2.90569 -2.35469 0
M  V30 2214 H 216.532 -4.39951 -5.15218 0
M  V30 2215 H 217.475 -5.64548 -4.27424 0
M  V30 2216 H 217.883 -3.91654 -4.06531 0
M  V30 2217 N 217.281 0.66697 -1.42791 0
M  V30 2218 C 218.527 1.4291 -1.43891 0
M  V30 2219 C 218.86 1.94114 -0.0578972 0
M  V30 2220 O 218.135 1.71414 0.91911 0
M  V30 2221 C 218.418 2.62049 -2.46987 0
M  V30 2222 C 218.271 2.16426 -3.94309 0
M  V30 2223 C 219.59 3.64266 -2.46978 0
M  V30 2224 H 216.709 0.518306 -0.523954 0
M  V30 2225 H 219.351 0.757321 -1.74255 0
M  V30 2226 H 217.501 3.19361 -2.21225 0
M  V30 2227 H 219.173 1.64221 -4.31079 0
M  V30 2228 H 217.416 1.47925 -4.078 0
M  V30 2229 H 218.087 3.02038 -4.62036 0
M  V30 2230 H 220.563 3.16686 -2.69906 0
M  V30 2231 H 219.439 4.45196 -3.21079 0
M  V30 2232 H 219.7 4.15927 -1.49857 0
M  V30 2233 N 218.759 1.29093 0.90403 0
M  V30 2234 C 220.175 1.07011 1.1841 0
M  V30 2235 C 220.375 -0.181358 2.00682 0
M  V30 2236 O 219.431 -0.880331 2.36657 0
M  V30 2237 C 220.744 2.32311 1.90924 0
M  V30 2238 C 222.292 2.37587 2.03768 0
M  V30 2239 C 222.767 3.62679 2.79693 0
M  V30 2240 N 224.258 3.63376 2.87249 0
M  V30 2241 C 224.993 4.56848 3.46522 0
M  V30 2242 N 224.489 5.60648 4.06996 0
M  V30 2243 N 226.282 4.44426 3.44154 0
M  V30 2244 H 218.433 2.09412 0.354993 0
M  V30 2245 H 220.696 0.922181 0.219742 0
M  V30 2246 H 220.402 3.23536 1.37905 0
M  V30 2247 H 220.276 2.39483 2.91424 0
M  V30 2248 H 222.663 1.46853 2.55965 0
M  V30 2249 H 222.744 2.34403 1.02415 0
M  V30 2250 H 222.388 4.53762 2.28173 0
M  V30 2251 H 222.318 3.63119 3.81381 0
M  V30 2252 H 224.809 2.88321 2.44293 0
M  V30 2253 H 225.122 6.28101 4.50232 0
M  V30 2254 H 223.467 5.64463 4.05471 0
M  V30 2255 H 226.658 3.62529 2.96126 0
M  V30 2256 H 226.831 5.17457 3.90054 0
M  V30 2257 N 220.237 -1.11381 1.11499 0
M  V30 2258 C 221.648 -1.6465 0.880191 0
M  V30 2259 C 221.999 -1.87199 -0.587434 0
M  V30 2260 O 221.124 -1.60667 -1.44966 0
M  V30 2261 C 221.719 -2.99105 1.59128 0
M  V30 2262 C 220.278 -3.49279 1.40289 0
M  V30 2263 C 219.425 -2.24077 1.63354 0
M  V30 2264 H 222.376 -0.950123 1.27116 0
M  V30 2265 H 222.397 -3.66107 1.03664 0
M  V30 2266 H 221.909 -2.82661 2.65941 0
M  V30 2267 H 220.01 -3.70887 0.356888 0
M  V30 2268 H 220.123 -4.2803 2.15238 0
M  V30 2269 H 218.487 -2.31733 1.05698 0
M  V30 2270 H 219.27 -2.10175 2.71443 0
M  V30 2271 N 221.715 -0.905404 -1.28997 0
M  V30 2272 C 222.961 -0.535039 -1.95615 0
M  V30 2273 C 223.294 0.917404 -1.71165 0
M  V30 2274 O 222.569 1.65123 -1.02785 0
M  V30 2275 C 222.852 -0.834918 -3.50287 0
M  V30 2276 C 222.705 -2.33948 -3.84172 0
M  V30 2277 C 224.024 -0.325318 -4.38896 0
M  V30 2278 H 221.143 -0.195861 -0.710498 0
M  V30 2279 H 223.785 -1.13313 -1.52513 0
M  V30 2280 H 221.935 -0.325904 -3.87131 0
M  V30 2281 H 223.607 -2.91847 -3.57243 0
M  V30 2282 H 221.85 -2.79789 -3.31513 0
M  V30 2283 H 222.521 -2.49987 -4.92149 0
M  V30 2284 H 224.997 -0.761256 -4.09077 0
M  V30 2285 H 223.873 -0.564295 -5.45992 0
M  V30 2286 H 224.134 0.774144 -4.35269 0
M  V30 2287 N 223.193 1.4272 -0.668489 0
M  V30 2288 C 224.156 2.292 0.00448567 0
M  V30 2289 C 225.156 1.43001 0.735339 0
M  V30 2290 O 226.346 1.64461 0.57429 0
M  V30 2291 C 223.478 3.25375 1.01705 0
M  V30 2292 H 224.671 2.90199 -0.756608 0
M  V30 2293 H 222.224 1.50254 -0.430506 0
M  V30 2294 H 222.959 2.69301 1.80686 0
M  V30 2295 H 222.744 3.88944 0.496463 0
M  V30 2296 H 224.234 3.90245 1.48655 0
M  V30 2297 N 224.671 0.411399 1.52136 0
M  V30 2298 C 225.581 -0.419774 2.30814 0
M  V30 2299 C 226.597 -1.0515 1.38634 0
M  V30 2300 O 227.773 -1.05252 1.71709 0
M  V30 2301 C 224.838 -1.52019 3.11594 0
M  V30 2302 C 223.899 -0.91129 4.19516 0
M  V30 2303 C 223.132 -1.95927 4.96436 0
M  V30 2304 O 223.355 -3.17775 4.73683 0
M  V30 2305 O 222.289 -1.56423 5.81219 0
M  V30 2306 H 226.115 0.221805 3.02889 0
M  V30 2307 H 223.7 0.174547 1.48377 0
M  V30 2308 H 225.582 -2.15898 3.61892 0
M  V30 2309 H 224.257 -2.14633 2.42311 0
M  V30 2310 H 223.164 -0.235157 3.7336 0
M  V30 2311 H 224.497 -0.32904 4.91099 0
M  V30 2312 N 226.149 -1.5696 0.141893 0
M  V30 2313 C 227.374 -2.00754 -0.520838 0
M  V30 2314 C 227.799 -1.0213 -1.57959 0
M  V30 2315 O 227.157 0.00371324 -1.813 0
M  V30 2316 C 227.205 -3.43318 -1.10294 0
M  V30 2317 O 226.309 -3.47679 -2.21795 0
M  V30 2318 H 225.65 -0.651564 -0.127908 0
M  V30 2319 H 228.18 -2.03221 0.23712 0
M  V30 2320 H 228.19 -3.82012 -1.43287 0
M  V30 2321 H 226.865 -4.14608 -0.327574 0
M  V30 2322 H 225.442 -3.20824 -1.9007 0
M  V30 2323 N 227.627 0.131896 -1.57047 0
M  V30 2324 C 228.875 0.840269 -1.83804 0
M  V30 2325 C 229.196 1.81017 -0.72512 0
M  V30 2326 O 228.466 1.94272 0.251995 0
M  V30 2327 H 227.046 0.313294 -0.678127 0
M  V30 2328 H 229.708 0.122294 -1.94516 0
M  V30 2329 H 228.804 1.39335 -2.79271 0
M  V30 2330 N 229.106 1.52395 0.401703 0
M  V30 2331 C 230.069 1.75636 1.47257 0
M  V30 2332 C 231.069 0.62628 1.48103 0
M  V30 2333 O 232.259 0.894227 1.49497 0
M  V30 2334 C 229.391 1.84553 2.86624 0
M  V30 2335 H 230.584 2.71241 1.27938 0
M  V30 2336 H 228.137 1.42923 0.632662 0
M  V30 2337 H 228.872 0.908882 3.11303 0
M  V30 2338 H 228.657 2.66715 2.87412 0
M  V30 2339 H 230.147 2.04251 3.64241 0
M  V30 2340 N 230.584 -0.659388 1.43143 0
M  V30 2341 C 231.812 -1.44723 1.47861 0
M  V30 2342 C 232.227 -1.88563 0.0945886 0
M  V30 2343 O 231.584 -1.59108 -0.893915 0
M  V30 2344 C 231.635 -2.68627 2.41913 0
M  V30 2345 O 231.356 -2.26623 3.74932 0
M  V30 2346 C 232.857 -3.62045 2.55809 0
M  V30 2347 H 230.077 -0.444801 0.502387 0
M  V30 2348 H 232.621 -0.808916 1.87821 0
M  V30 2349 H 230.776 -3.28613 2.05164 0
M  V30 2350 H 231.19 -3.06745 4.2545 0
M  V30 2351 H 232.664 -4.45666 3.25708 0
M  V30 2352 H 233.141 -4.08981 1.60099 0
M  V30 2353 H 233.747 -3.07944 2.93344 0
M  V30 2354 N 232.062 -1.29571 -0.897171 0
M  V30 2355 C 233.009 -1.14916 -2.00158 0
M  V30 2356 C 233.979 -0.0418149 -1.66047 0
M  V30 2357 O 235.164 -0.209793 -1.89643 0
M  V30 2358 C 232.304 -0.834307 -3.34863 0
M  V30 2359 C 231.417 -2.02234 -3.8174 0
M  V30 2360 C 230.552 -1.64664 -5.05034 0
M  V30 2361 C 229.591 -2.80033 -5.44286 0
M  V30 2362 N 228.728 -2.42843 -6.58765 0
M  V30 2363 H 233.568 -2.09403 -2.12025 0
M  V30 2364 H 231.105 -1.042 -1.0383 0
M  V30 2365 H 233.063 -0.632436 -4.12379 0
M  V30 2366 H 231.693 0.0736656 -3.22716 0
M  V30 2367 H 230.745 -2.33583 -3.00238 0
M  V30 2368 H 232.057 -2.88673 -4.06779 0
M  V30 2369 H 231.211 -1.4078 -5.9014 0
M  V30 2370 H 229.95 -0.753766 -4.8184 0
M  V30 2371 H 228.955 -3.04596 -4.57713 0
M  V30 2372 H 230.18 -3.69989 -5.6946 0
M  V30 2373 H 228.126 -1.56046 -6.3717 0
M  V30 2374 H 228.043 -3.22815 -6.83613 0
M  V30 2375 H 229.311 -2.22285 -7.47134 0
M  V30 2376 N 233.54 1.10788 -1.12088 0
M  V30 2377 C 234.768 1.86461 -0.896651 0
M  V30 2378 C 235.183 1.80492 0.553912 0
M  V30 2379 O 234.54 1.19102 1.38278 0
M  V30 2380 C 234.591 3.35006 -1.35843 0
M  V30 2381 O 234.312 3.40866 -2.75213 0
M  V30 2382 C 235.813 4.27565 -1.1706 0
M  V30 2383 H 233.033 0.589425 -0.320654 0
M  V30 2384 H 235.577 1.40076 -1.48993 0
M  V30 2385 H 233.732 3.7887 -0.808458 0
M  V30 2386 H 234.146 4.33411 -2.9539 0
M  V30 2387 H 235.62 5.30007 -1.54263 0
M  V30 2388 H 236.097 4.3906 -0.110814 0
M  V30 2389 H 236.703 3.89501 -1.70789 0
M  V30 2390 N 235.018 0.912232 1.28515 0
M  V30 2391 C 236.243 0.559774 1.99703 0
M  V30 2392 C 236.668 -0.851393 1.67729 0
M  V30 2393 O 236.026 -1.56875 0.908834 0
M  V30 2394 C 236.074 0.773874 3.52198 0
M  V30 2395 O 235.178 -0.167842 4.12058 0
M  V30 2396 H 234.519 0.21723 0.627461 0
M  V30 2397 H 237.049 1.22725 1.63706 0
M  V30 2398 H 237.059 0.683386 4.02236 0
M  V30 2399 H 235.734 1.80261 3.74805 0
M  V30 2400 H 234.311 -0.0287509 3.72889 0
M  V30 2401 N 236.496 -1.42363 0.676048 0
M  V30 2402 C 237.912 -1.55811 0.345718 0
M  V30 2403 C 238.112 -1.65544 -1.14879 0
M  V30 2404 O 237.168 -1.62306 -1.93424 0
M  V30 2405 C 238.481 -2.80746 1.07713 0
M  V30 2406 C 240.029 -2.9452 1.05958 0
M  V30 2407 C 240.504 -4.22318 1.77233 0
M  V30 2408 N 241.995 -4.29233 1.74108 0
M  V30 2409 C 242.73 -5.26935 2.26113 0
M  V30 2410 N 242.226 -6.30783 2.86505 0
M  V30 2411 N 244.019 -5.18741 2.1648 0
M  V30 2412 H 236.17 -1.34289 1.6456 0
M  V30 2413 H 238.433 -0.646506 0.69335 0
M  V30 2414 H 238.139 -2.79696 2.13221 0
M  V30 2415 H 238.013 -3.71676 0.64316 0
M  V30 2416 H 240.4 -2.95097 0.0128255 0
M  V30 2417 H 240.481 -2.04817 1.53244 0
M  V30 2418 H 240.125 -4.22502 2.81877 0
M  V30 2419 H 240.055 -5.10958 1.27396 0
M  V30 2420 H 242.546 -3.54814 1.30059 0
M  V30 2421 H 242.859 -7.01691 3.23805 0
M  V30 2422 H 241.204 -6.31341 2.90575 0
M  V30 2423 H 244.395 -4.36533 1.68987 0
M  V30 2424 H 244.568 -5.94721 2.57316 0
M  V30 2425 N 237.974 -0.419461 -1.51915 0
M  V30 2426 C 239.22 0.153166 -2.02221 0
M  V30 2427 C 239.553 1.43907 -1.30401 0
M  V30 2428 O 238.828 1.90055 -0.413438 0
M  V30 2429 C 239.111 0.390291 -3.57979 0
M  V30 2430 C 238.964 -0.913014 -4.40436 0
M  V30 2431 C 240.283 1.16794 -4.2432 0
M  V30 2432 H 237.402 0.0541924 -0.735005 0
M  V30 2433 H 240.044 -0.554955 -1.81715 0
M  V30 2434 H 238.194 0.993491 -3.75582 0
M  V30 2435 H 239.866 -1.54882 -4.34522 0
M  V30 2436 H 238.109 -1.52168 -4.06236 0
M  V30 2437 H 238.78 -0.701361 -5.47526 0
M  V30 2438 H 241.256 0.657161 -4.10878 0
M  V30 2439 H 240.132 1.3026 -5.3322 0
M  V30 2440 H 240.393 2.19132 -3.83971 0
M  V30 2441 N 239.452 1.56882 -0.150215 0
M  V30 2442 C 240.682 2.00302 0.506213 0
M  V30 2443 C 241.09 1.02934 1.58749 0
M  V30 2444 O 240.433 0.0188384 1.8369 0
M  V30 2445 C 240.495 3.40156 1.16337 0
M  V30 2446 C 240.159 4.56439 0.226311 0
M  V30 2447 C 241.156 5.17012 -0.547265 0
M  V30 2448 C 238.841 5.02136 0.128279 0
M  V30 2449 C 240.835 6.21693 -1.40629 0
M  V30 2450 C 238.522 6.06672 -0.734345 0
M  V30 2451 C 239.52 6.6632 -1.50023 0
M  V30 2452 O 239.208 7.68831 -2.34848 0
M  V30 2453 H 238.94 0.662182 0.135984 0
M  V30 2454 H 241.494 2.03961 -0.242746 0
M  V30 2455 H 239.724 3.33346 1.96004 0
M  V30 2456 H 241.413 3.67663 1.71985 0
M  V30 2457 H 242.179 4.82603 -0.48158 0
M  V30 2458 H 238.058 4.55435 0.714157 0
M  V30 2459 H 241.602 6.68179 -2.00455 0
M  V30 2460 H 237.499 6.40507 -0.801309 0
M  V30 2461 H 238.267 7.86065 -2.28131 0
M  V30 2462 N 240.93 -0.123565 1.57115 0
M  V30 2463 C 242.178 -0.83051 1.84247 0
M  V30 2464 C 242.499 -1.80629 0.73471 0
M  V30 2465 O 241.769 -1.94403 -0.241688 0
M  V30 2466 H 240.349 -0.309694 0.679778 0
M  V30 2467 H 243.011 -0.111976 1.94578 0
M  V30 2468 H 242.107 -1.37852 2.80006 0
M  V30 2469 N 242.408 -1.52605 -0.393616 0
M  V30 2470 C 243.655 -1.67424 -1.1391 0
M  V30 2471 C 243.983 -0.411859 -1.90089 0
M  V30 2472 O 243.238 0.605626 -1.86093 0
M  V30 2473 C 243.537 -2.85721 -2.14705 0
M  V30 2474 C 243.203 -4.23342 -1.55218 0
M  V30 2475 C 241.865 -4.60771 -1.3872 0
M  V30 2476 C 244.217 -5.09041 -1.11924 0
M  V30 2477 C 241.545 -5.81563 -0.774689 0
M  V30 2478 C 243.897 -6.30452 -0.520853 0
M  V30 2479 C 242.561 -6.66617 -0.343134 0
M  V30 2480 H 241.831 -0.612648 -0.416826 0
M  V30 2481 H 244.478 -1.8674 -0.424315 0
M  V30 2482 H 242.783 -2.60803 -2.92385 0
M  V30 2483 H 244.48 -2.94382 -2.72288 0
M  V30 2484 H 241.07 -3.93855 -1.69045 0
M  V30 2485 H 245.254 -4.80695 -1.23473 0
M  V30 2486 H 240.51 -6.08196 -0.625154 0
M  V30 2487 H 244.684 -6.96175 -0.177065 0
M  V30 2488 H 242.311 -7.60083 0.133571 0
M  V30 2489 N 243.887 0.651787 -1.4349 0
M  V30 2490 C 245.136 1.40754 -1.44469 0
M  V30 2491 C 245.449 1.95463 -0.0731845 0
M  V30 2492 O 246.655 2.71471 0.0395721 0
M  V30 2493 C 245.111 2.54735 -2.5424 0
M  V30 2494 C 244.719 2.06628 -3.97504 0
M  V30 2495 C 246.463 3.32092 -2.64414 0
M  V30 2496 C 244.37 3.17829 -4.98737 0
M  V30 2497 H 243.3 0.528862 -0.53742 0
M  V30 2498 H 245.951 0.703365 -1.69485 0
M  V30 2499 H 244.333 3.2763 -2.22428 0
M  V30 2500 H 245.507 1.40734 -4.38783 0
M  V30 2501 H 243.822 1.42146 -3.91387 0
M  V30 2502 H 246.419 4.14952 -3.37223 0
M  V30 2503 H 246.762 3.80217 -1.69532 0
M  V30 2504 H 247.295 2.66279 -2.95534 0
M  V30 2505 H 244.034 2.74671 -5.95177 0
M  V30 2506 H 243.554 3.82429 -4.62069 0
M  V30 2507 H 245.233 3.82937 -5.21505 0
M  V30 2508 N 245.365 1.30045 0.890287 0
M  V30 2509 C 246.613 1.18327 1.63839 0
M  V30 2510 C 246.934 -0.263455 1.93212 0
M  V30 2511 O 246.204 -1.17856 1.56482 0
M  V30 2512 H 244.784 0.434933 0.607324 0
M  V30 2513 H 247.446 1.631 1.06698 0
M  V30 2514 H 246.542 1.74024 2.59079 0
M  V30 2515 N 246.843 -1.10192 1.12674 0
M  V30 2516 C 247.773 -2.18652 0.819362 0
M  V30 2517 C 248.754 -1.68698 -0.217915 0
M  V30 2518 O 249.939 -1.94041 -0.0785581 0
M  V30 2519 C 247.069 -3.46202 0.27594 0
M  V30 2520 C 246.023 -4.09444 1.24656 0
M  V30 2521 C 245.349 -5.31725 0.563258 0
M  V30 2522 C 246.649 -4.52863 2.60217 0
M  V30 2523 H 248.343 -2.44622 1.72628 0
M  V30 2524 H 245.889 -1.17571 0.831451 0
M  V30 2525 H 247.842 -4.21372 0.0486149 0
M  V30 2526 H 246.566 -3.1973 -0.666331 0
M  V30 2527 H 245.225 -3.36284 1.45974 0
M  V30 2528 H 244.873 -5.0153 -0.384235 0
M  V30 2529 H 244.573 -5.74991 1.21075 0
M  V30 2530 H 246.097 -6.09624 0.34503 0
M  V30 2531 H 247.511 -5.19294 2.42913 0
M  V30 2532 H 245.908 -5.06986 3.21068 0
M  V30 2533 H 246.978 -3.65656 3.18471 0
M  V30 2534 N 248.321 -0.919034 -1.28029 0
M  V30 2535 C 249.561 -0.562107 -1.96519 0
M  V30 2536 C 249.925 0.878784 -1.70708 0
M  V30 2537 O 251.126 1.34355 -2.32813 0
M  V30 2538 C 249.397 -0.868953 -3.46676 0
M  V30 2539 S 250.956 -0.619237 -4.34409 0
M  V30 2540 H 247.774 -0.2078 -0.679956 0
M  V30 2541 H 250.376 -1.18562 -1.55446 0
M  V30 2542 H 249.08 -1.91547 -3.62957 0
M  V30 2543 H 248.611 -0.234301 -3.92702 0
M  V30 2544 H 250.626 0.526995 -4.93394 0
M  V30 2545 N 249.799 1.42003 -0.683588 0
M  V30 2546 C 251.045 2.02223 -0.218536 0
M  V30 2547 C 251.4 1.53126 1.16492 0
M  V30 2548 O 250.693 0.727459 1.77253 0
M  V30 2549 C 250.887 3.56827 -0.202357 0
M  V30 2550 C 250.716 4.20928 -1.5827 0
M  V30 2551 C 249.486 4.5573 -2.18262 0
M  V30 2552 C 251.684 4.47933 -2.52706 0
M  V30 2553 N 249.666 5.05056 -3.48986 0
M  V30 2554 C 251.037 4.98906 -3.68094 0
M  V30 2555 C 253.092 4.29931 -2.51125 0
M  V30 2556 C 251.795 5.33768 -4.82166 0
M  V30 2557 C 253.821 4.65875 -3.643 0
M  V30 2558 C 253.183 5.17008 -4.78417 0
M  V30 2559 H 249.282 0.771931 -0.125088 0
M  V30 2560 H 251.866 1.72729 -0.898479 0
M  V30 2561 H 250.037 3.85819 0.447029 0
M  V30 2562 H 251.769 4.03755 0.276399 0
M  V30 2563 H 248.524 4.41781 -1.70665 0
M  V30 2564 H 248.948 5.34139 -4.15962 0
M  V30 2565 H 253.59 3.89647 -1.6412 0
M  V30 2566 H 251.308 5.72981 -5.6984 0
M  V30 2567 H 254.894 4.53615 -3.64314 0
M  V30 2568 H 253.774 5.44301 -5.64541 0
M  V30 2569 N 251.277 0.427512 1.51691 0
M  V30 2570 C 252.207 -0.3796 2.30394 0
M  V30 2571 C 253.188 -1.02982 1.35384 0
M  V30 2572 O 254.373 -1.03534 1.643 0
M  V30 2573 C 251.503 -1.48649 3.1388 0
M  V30 2574 C 250.457 -0.960294 4.17088 0
M  V30 2575 C 249.783 -2.16219 4.89033 0
M  V30 2576 C 251.083 -0.00153679 5.223 0
M  V30 2577 H 252.777 0.277164 2.98114 0
M  V30 2578 H 250.323 0.134739 1.43368 0
M  V30 2579 H 252.276 -2.05826 3.67714 0
M  V30 2580 H 251 -2.1714 2.43962 0
M  V30 2581 H 249.659 -0.410806 3.64291 0
M  V30 2582 H 249.307 -2.83307 4.15628 0
M  V30 2583 H 249.007 -1.81654 5.58816 0
M  V30 2584 H 250.531 -2.73968 5.45687 0
M  V30 2585 H 251.945 -0.482687 5.71264 0
M  V30 2586 H 250.342 0.256199 5.99553 0
M  V30 2587 H 251.412 0.938174 4.75738 0
M  V30 2588 N 252.755 -1.56801 0.158532 0
M  V30 2589 C 253.685 -2.20347 -0.772609 0
M  V30 2590 C 254.666 -1.15518 -1.24859 0
M  V30 2591 O 255.851 -1.43902 -1.30406 0
M  V30 2592 C 252.981 -2.83417 -2.00729 0
M  V30 2593 C 251.935 -3.94174 -1.66765 0
M  V30 2594 C 251.261 -4.44233 -2.97592 0
M  V30 2595 C 252.561 -5.14392 -0.905447 0
M  V30 2596 H 254.255 -2.98413 -0.242959 0
M  V30 2597 H 251.801 -1.43537 -0.115419 0
M  V30 2598 H 253.754 -3.26543 -2.6636 0
M  V30 2599 H 252.478 -2.02701 -2.56086 0
M  V30 2600 H 251.137 -3.51684 -1.03508 0
M  V30 2601 H 250.785 -3.60325 -3.50963 0
M  V30 2602 H 250.485 -5.18945 -2.75626 0
M  V30 2603 H 252.009 -4.90037 -3.64274 0
M  V30 2604 H 253.423 -5.5429 -1.46408 0
M  V30 2605 H 251.82 -5.9494 -0.7853 0
M  V30 2606 H 252.89 -4.84795 0.100668 0
M  V30 2607 N 254.233 0.115231 -1.57178 0
M  V30 2608 C 255.196 1.12526 -1.99676 0
M  V30 2609 C 256.196 1.34095 -0.88742 0
M  V30 2610 O 257.386 1.30548 -1.15337 0
M  V30 2611 C 254.518 2.4789 -2.34015 0
M  V30 2612 H 255.711 0.759912 -2.90113 0
M  V30 2613 H 253.264 0.359648 -1.52106 0
M  V30 2614 H 253.999 2.89339 -1.4647 0
M  V30 2615 H 253.784 2.33588 -3.14927 0
M  V30 2616 H 255.274 3.20575 -2.67622 0
M  V30 2617 N 255.711 1.52812 0.385517 0
M  V30 2618 C 256.674 1.77188 1.45386 0
M  V30 2619 C 257.674 0.641953 1.4743 0
M  V30 2620 O 258.864 0.910033 1.4854 0
M  V30 2621 C 255.996 1.87582 2.8465 0
M  V30 2622 H 257.189 2.72583 1.25054 0
M  V30 2623 H 254.742 1.43586 0.617467 0
M  V30 2624 H 255.477 0.941849 3.10322 0
M  V30 2625 H 255.262 2.69748 2.84567 0
M  V30 2626 H 256.752 2.08102 3.62054 0
M  V30 2627 N 257.189 -0.644168 1.43834 0
M  V30 2628 C 258.119 -1.76814 1.52509 0
M  V30 2629 C 259.1 -1.65823 0.379052 0
M  V30 2630 O 260.285 -1.84781 0.597466 0
M  V30 2631 C 257.415 -3.15288 1.4564 0
M  V30 2632 C 256.369 -3.41053 2.58586 0
M  V30 2633 C 255.695 -4.79421 2.36769 0
M  V30 2634 C 256.995 -3.34902 4.00797 0
M  V30 2635 H 258.689 -1.69812 2.46586 0
M  V30 2636 H 256.235 -0.815542 1.1868 0
M  V30 2637 H 258.188 -3.93681 1.50311 0
M  V30 2638 H 256.912 -3.23043 0.480725 0
M  V30 2639 H 255.571 -2.65035 2.53282 0
M  V30 2640 H 255.219 -4.83863 1.37424 0
M  V30 2641 H 254.919 -4.9762 3.12487 0
M  V30 2642 H 256.443 -5.6006 2.43238 0
M  V30 2643 H 257.857 -4.03218 4.07539 0
M  V30 2644 H 256.254 -3.64637 4.76613 0
M  V30 2645 H 257.324 -2.32928 4.25291 0
M  V30 2646 N 258.668 -1.30515 -0.883378 0
M  V30 2647 C 259.598 -1.19607 -2.00541 0
M  V30 2648 C 260.579 -0.086346 -1.69881 0
M  V30 2649 O 261.764 -0.268654 -1.92333 0
M  V30 2650 C 258.894 -0.888758 -3.35736 0
M  V30 2651 C 257.848 -1.95659 -3.8066 0
M  V30 2652 C 257.174 -1.50224 -5.13164 0
M  V30 2653 C 258.474 -3.36788 -3.99213 0
M  V30 2654 H 260.168 -2.13476 -2.09925 0
M  V30 2655 H 257.714 -1.02775 -1.00863 0
M  V30 2656 H 259.667 -0.799094 -4.13754 0
M  V30 2657 H 258.391 0.0856125 -3.26488 0
M  V30 2658 H 257.05 -2.03591 -3.04871 0
M  V30 2659 H 256.698 -0.516092 -5.00345 0
M  V30 2660 H 256.398 -2.2165 -5.44192 0
M  V30 2661 H 257.922 -1.42639 -5.93706 0
M  V30 2662 H 259.336 -3.31605 -4.67665 0
M  V30 2663 H 257.733 -4.06314 -4.41621 0
M  V30 2664 H 258.803 -3.78561 -3.03017 0
M  V30 2665 N 260.146 1.09593 -1.13257 0
M  V30 2666 C 261.394 1.81375 -0.891492 0
M  V30 2667 C 261.715 1.86049 0.584009 0
M  V30 2668 O 260.985 1.34481 1.42449 0
M  V30 2669 H 259.565 0.671708 -0.326828 0
M  V30 2670 H 262.227 1.3256 -1.42877 0
M  V30 2671 H 261.323 2.84612 -1.28071 0
M  V30 2672 N 261.624 0.925811 1.2754 0
M  V30 2673 C 262.557 0.367836 2.25216 0
M  V30 2674 C 263.535 -0.534738 1.53556 0
M  V30 2675 O 264.719 -0.475672 1.824 0
M  V30 2676 C 261.846 -0.47298 3.35381 0
M  V30 2677 C 260.892 0.365898 4.24928 0
M  V30 2678 S 261.725 1.78025 5.05042 0
M  V30 2679 C 262.881 0.947068 6.18693 0
M  V30 2680 H 263.114 1.19568 2.72196 0
M  V30 2681 H 260.647 0.727867 1.36167 0
M  V30 2682 H 262.605 -0.952242 3.99303 0
M  V30 2683 H 261.266 -1.27533 2.87044 0
M  V30 2684 H 260.459 -0.277582 5.03235 0
M  V30 2685 H 260.061 0.779261 3.65792 0
M  V30 2686 H 262.353 0.182201 6.77255 0
M  V30 2687 H 263.296 1.70309 6.87314 0
M  V30 2688 H 263.704 0.489913 5.6237 0
M  V30 2689 N 263.102 -1.41638 0.69111 0
M  V30 2690 C 264.032 -2.3347 0.037248 0
M  V30 2691 C 265.013 -1.51575 -0.771947 0
M  V30 2692 O 266.198 -1.80126 -0.72582 0
M  V30 2693 C 263.328 -3.35354 -0.903064 0
M  V30 2694 C 262.282 -4.27526 -0.201288 0
M  V30 2695 C 261.608 -5.19747 -1.25565 0
M  V30 2696 C 262.908 -5.13959 0.929689 0
M  V30 2697 H 264.602 -2.88397 0.804227 0
M  V30 2698 H 262.148 -1.38669 0.388189 0
M  V30 2699 H 264.101 -3.98519 -1.36969 0
M  V30 2700 H 262.825 -2.78767 -1.70166 0
M  V30 2701 H 261.484 -3.65779 0.245265 0
M  V30 2702 H 261.132 -4.59479 -2.04666 0
M  V30 2703 H 260.832 -5.8225 -0.791128 0
M  V30 2704 H 262.356 -5.85789 -1.72288 0
M  V30 2705 H 263.77 -5.70718 0.543546 0
M  V30 2706 H 262.167 -5.85379 1.32103 0
M  V30 2707 H 263.237 -4.51389 1.77133 0
M  V30 2708 N 264.58 -0.43555 -1.51462 0
M  V30 2709 C 265.991 0.0279871 -1.86679 0
M  V30 2710 C 266.342 1.42104 -1.35281 0
M  V30 2711 O 265.467 2.04667 -0.702878 0
M  V30 2712 C 266.062 0.0575626 -3.38751 0
M  V30 2713 C 264.621 0.465507 -3.7351 0
M  V30 2714 C 263.768 -0.342996 -2.75171 0
M  V30 2715 H 266.719 -0.651473 -1.44712 0
M  V30 2716 H 266.74 0.867421 -3.70481 0
M  V30 2717 H 266.252 -0.956448 -3.7613 0
M  V30 2718 H 264.353 1.48519 -3.41721 0
M  V30 2719 H 264.466 0.191546 -4.78717 0
M  V30 2720 H 262.83 0.198442 -2.53926 0
M  V30 2721 H 263.613 -1.35585 -3.15391 0
M  V30 2722 N 266.058 1.56714 -0.166846 0
M  V30 2723 C 266.988 2.20754 0.760913 0
M  V30 2724 C 267.969 1.16178 1.24244 0
M  V30 2725 O 269.154 1.44592 1.29641 0
M  V30 2726 C 266.284 2.84478 1.99223 0
M  V30 2727 C 265.238 3.95053 1.64672 0
M  V30 2728 C 264.564 4.45805 2.95232 0
M  V30 2729 C 265.864 5.14865 0.878155 0
M  V30 2730 H 267.558 2.98537 0.22713 0
M  V30 2731 H 265.104 1.43596 0.107805 0
M  V30 2732 H 267.057 3.27951 2.64624 0
M  V30 2733 H 265.781 2.04056 2.55007 0
M  V30 2734 H 264.44 3.52228 1.01641 0
M  V30 2735 H 264.088 3.62181 3.49047 0
M  V30 2736 H 263.788 5.204 2.7287 0
M  V30 2737 H 265.312 4.91962 3.6167 0
M  V30 2738 H 266.726 5.55059 1.43466 0
M  V30 2739 H 265.123 5.95348 0.753738 0
M  V30 2740 H 266.193 4.84735 -0.126377 0
M  V30 2741 N 267.536 -0.106894 1.57237 0
M  V30 2742 C 268.466 -1.13148 2.04254 0
M  V30 2743 C 269.447 -1.42476 0.929224 0
M  V30 2744 O 270.632 -1.52709 1.19973 0
M  V30 2745 C 267.762 -2.4545 2.45706 0
M  V30 2746 C 266.716 -2.30558 3.60592 0
M  V30 2747 C 266.042 -3.67931 3.87983 0
M  V30 2748 C 267.342 -1.75597 4.91897 0
M  V30 2749 H 269.036 -0.740374 2.90101 0
M  V30 2750 H 266.582 -0.354696 1.39563 0
M  V30 2751 H 268.535 -3.17389 2.77205 0
M  V30 2752 H 267.259 -2.86475 1.56843 0
M  V30 2753 H 265.918 -1.61067 3.29322 0
M  V30 2754 H 265.566 -4.06462 2.96306 0
M  V30 2755 H 265.266 -3.58817 4.65322 0
M  V30 2756 H 266.79 -4.41356 4.21945 0
M  V30 2757 H 268.204 -2.37364 5.21854 0
M  V30 2758 H 266.601 -1.77272 5.73319 0
M  V30 2759 H 267.671 -0.714451 4.79608 0
M  V30 2760 N 269.014 -1.53014 -0.377408 0
M  V30 2761 C 270.262 -1.6829 -1.11906 0
M  V30 2762 C 270.583 -0.431206 -1.90173 0
M  V30 2763 O 269.853 0.554595 -1.87886 0
M  V30 2764 H 268.433 -0.620371 -0.416112 0
M  V30 2765 H 271.095 -1.90167 -0.426893 0
M  V30 2766 H 270.191 -2.53862 -1.8155 0
M  V30 2767 N 270.492 0.636531 -1.44174 0
M  V30 2768 C 271.738 1.39649 -1.47884 0
M  V30 2769 C 272.093 1.92098 -0.107747 0
M  V30 2770 O 271.386 1.70391 0.876208 0
M  V30 2771 C 271.58 2.58309 -2.47005 0
M  V30 2772 C 271.409 2.17476 -3.93617 0
M  V30 2773 C 270.179 2.0501 -4.61843 0
M  V30 2774 C 272.377 1.76722 -4.82984 0
M  V30 2775 N 270.359 1.57683 -5.93304 0
M  V30 2776 C 271.73 1.40601 -6.03847 0
M  V30 2777 C 273.785 1.64054 -4.70096 0
M  V30 2778 C 272.488 0.930787 -7.13252 0
M  V30 2779 C 274.514 1.17937 -5.79521 0
M  V30 2780 C 273.876 0.827625 -6.99521 0
M  V30 2781 H 269.975 0.506027 -0.596205 0
M  V30 2782 H 272.559 0.730791 -1.80465 0
M  V30 2783 H 270.73 3.22514 -2.16423 0
M  V30 2784 H 272.462 3.25083 -2.41045 0
M  V30 2785 H 269.217 2.25294 -4.16581 0
M  V30 2786 H 269.641 1.36334 -6.63131 0
M  V30 2787 H 274.283 1.89882 -3.77762 0
M  V30 2788 H 272.001 0.660012 -8.054 0
M  V30 2789 H 275.587 1.08601 -5.71574 0
M  V30 2790 H 274.467 0.476231 -7.82753 0
M  V30 2791 N 271.97 1.30982 0.876444 0
M  V30 2792 C 272.918 1.18006 2.00443 0
M  V30 2793 C 273.912 0.0898871 1.69161 0
M  V30 2794 O 275.118 0.251333 1.78237 0
M  V30 2795 H 271.493 0.365196 0.65737 0
M  V30 2796 H 273.464 2.13453 2.0852 0
M  V30 2797 C 272.213 0.897521 3.35916 0
M  V30 2798 H 271.536 1.7285 3.60504 0
M  V30 2799 H 272.976 0.846874 4.15456 0
M  V30 2800 C 271.435 -0.399674 3.34521 0
M  V30 2801 O 271.965 -1.41852 3.7582 0
M  V30 2802 N 270.171 -0.413893 2.87637 0
M  V30 2803 H 269.718 0.41571 2.54224 0
M  V30 2804 H 269.676 -1.28175 2.87086 0
M  V30 2805 N 273.449 -1.08991 1.13837 0
M  V30 2806 C 274.689 -1.82867 0.913183 0
M  V30 2807 C 275.053 -1.83936 -0.550604 0
M  V30 2808 O 276.254 -2.53515 -0.893515 0
M  V30 2809 C 274.525 -3.24843 1.49036 0
M  V30 2810 S 276.084 -4.15669 1.40588 0
M  V30 2811 H 272.902 -0.630278 0.329046 0
M  V30 2812 H 275.504 -1.31049 1.45073 0
M  V30 2813 H 274.208 -3.21644 2.54899 0
M  V30 2814 H 273.739 -3.81734 0.950947 0
M  V30 2815 H 275.754 -4.94686 0.387353 0
M  V30 2816 N 274.927 -0.932562 -1.27047 0
M  V30 2817 C 275.857 -0.452902 -2.29066 0
M  V30 2818 C 276.838 0.489338 -1.62909 0
M  V30 2819 O 278.023 0.393046 -1.90181 0
M  V30 2820 C 275.153 0.290698 -3.46081 0
M  V30 2821 C 274.107 -0.564168 -4.24265 0
M  V30 2822 C 273.433 0.308886 -5.33807 0
M  V30 2823 C 274.733 -1.83112 -4.89149 0
M  V30 2824 H 276.427 -1.30552 -2.69437 0
M  V30 2825 H 273.973 -0.629201 -1.29526 0
M  V30 2826 H 275.926 0.637233 -4.16554 0
M  V30 2827 H 274.65 1.17738 -3.0464 0
M  V30 2828 H 273.309 -0.893477 -3.55545 0
M  V30 2829 H 272.957 1.19467 -4.88607 0
M  V30 2830 H 272.657 -0.259633 -5.87026 0
M  V30 2831 H 274.181 0.650884 -6.07121 0
M  V30 2832 H 275.595 -1.55236 -5.51883 0
M  V30 2833 H 273.992 -2.34353 -5.52448 0
M  V30 2834 H 275.062 -2.54772 -4.12576 0
M  V30 2835 N 276.405 1.4127 -0.698611 0
M  V30 2836 C 277.645 2.03044 -0.235062 0
M  V30 2837 C 278.009 1.54146 1.14468 0
M  V30 2838 O 279.21 2.07867 1.70425 0
M  V30 2839 C 277.481 3.56192 -0.293651 0
M  V30 2840 S 279.04 4.38696 0.0954053 0
M  V30 2841 H 275.858 0.704697 -0.0944648 0
M  V30 2842 H 278.46 1.72656 -0.917064 0
M  V30 2843 H 277.164 3.89274 -1.29977 0
M  V30 2844 H 276.695 3.91285 0.407397 0
M  V30 2845 H 278.71 4.78257 1.3223 0
M  V30 2846 N 277.883 0.443576 1.51229 0
M  V30 2847 C 278.846 -0.353132 2.26463 0
M  V30 2848 C 279.846 -0.944338 1.3015 0
M  V30 2849 O 281.036 -0.817813 1.5381 0
M  V30 2850 C 278.168 -1.50023 3.06114 0
M  V30 2851 H 279.361 0.3063 2.98332 0
M  V30 2852 H 276.914 0.196902 1.55055 0
M  V30 2853 H 277.649 -2.19553 2.38677 0
M  V30 2854 H 277.434 -1.08241 3.76864 0
M  V30 2855 H 278.924 -2.06296 3.63087 0
M  V30 2856 N 279.361 -1.56624 0.175154 0
M  V30 2857 C 280.608 -1.96999 -0.468811 0
M  V30 2858 C 280.936 -1.06129 -1.62994 0
M  V30 2859 O 280.191 -0.0961771 -1.95464 0
M  V30 2860 C 280.49 -3.43419 -0.989864 0
M  V30 2861 C 280.156 -4.50866 0.0557687 0
M  V30 2862 C 278.818 -4.79975 0.343134 0
M  V30 2863 C 281.17 -5.15551 0.765308 0
M  V30 2864 C 278.498 -5.71066 1.34536 0
M  V30 2865 C 280.85 -6.07724 1.75654 0
M  V30 2866 C 279.514 -6.35199 2.05132 0
M  V30 2867 H 278.784 -0.720869 -0.17155 0
M  V30 2868 H 281.431 -1.89616 0.267924 0
M  V30 2869 H 279.736 -3.47772 -1.80449 0
M  V30 2870 H 281.433 -3.72002 -1.49719 0
M  V30 2871 H 278.023 -4.28229 -0.178381 0
M  V30 2872 H 282.207 -4.9317 0.556513 0
M  V30 2873 H 277.463 -5.90635 1.57988 0
M  V30 2874 H 281.637 -6.56912 2.31169 0
M  V30 2875 H 279.264 -7.05584 2.8294 0
M  V30 2876 N 280.839 0.0985539 -1.57292 0
M  V30 2877 C 282.116 0.834155 -1.76921 0
M  V30 2878 C 282.496 1.97101 -0.755928 0
M  V30 2879 O 281.844 2.27474 0.216245 0
M  V30 2880 C 282.054 1.33194 -3.22584 0
M  V30 2881 C 283.402 1.77611 -3.85668 0
M  V30 2882 O 284.426 1.42825 -3.26312 0
M  V30 2883 O 283.285 2.4192 -4.90038 0
M  V30 2884 H 280.379 0.397628 -0.725135 0
M  V30 2885 H 282.925 0.0807044 -1.69508 0
M  V30 2886 H 281.697 0.517248 -3.87866 0
M  V30 2887 H 281.32 2.1475 -3.34616 0
M  V30 2888 N 282.317 1.53212 0.369288 0
M  V30 2889 C 283.733 1.42902 0.710712 0
M  V30 2890 C 283.933 0.565135 1.93413 0
M  V30 2891 O 282.989 0.0461484 2.52458 0
M  V30 2892 C 284.302 2.86042 0.927382 0
M  V30 2893 C 285.85 2.9565 1.02762 0
M  V30 2894 C 286.325 4.39843 1.27679 0
M  V30 2895 N 287.816 4.43256 1.34457 0
M  V30 2896 C 288.551 5.51929 1.55439 0
M  V30 2897 N 288.047 6.70655 1.73762 0
M  V30 2898 N 289.84 5.39502 1.57779 0
M  V30 2899 H 281.991 2.07888 -0.435457 0
M  V30 2900 H 284.254 0.938661 -0.132739 0
M  V30 2901 H 283.96 3.51557 0.100287 0
M  V30 2902 H 283.834 3.29472 1.83653 0
M  V30 2903 H 286.221 2.30291 1.84527 0
M  V30 2904 H 286.302 2.5562 0.0959504 0
M  V30 2905 H 285.946 5.05774 0.464175 0
M  V30 2906 H 285.876 4.77443 2.22162 0
M  V30 2907 H 288.367 3.5769 1.21926 0
M  V30 2908 H 288.68 7.49248 1.89335 0
M  V30 2909 H 287.025 6.73648 1.70948 0
M  V30 2910 H 290.216 4.45713 1.43029 0
M  V30 2911 H 290.389 6.2426 1.7379 0
M  V30 2912 N 283.795 -0.628877 1.44509 0
M  V30 2913 C 285.035 -1.39993 1.48934 0
M  V30 2914 C 285.399 -1.91627 0.119604 0
M  V30 2915 O 286.6 -2.68772 0.0385283 0
M  V30 2916 C 284.871 -2.53241 2.52198 0
M  V30 2917 S 286.43 -3.41383 2.75687 0
M  V30 2918 H 283.248 -0.477558 0.526744 0
M  V30 2919 H 285.85 -0.727804 1.81448 0
M  V30 2920 H 284.554 -2.13622 3.50419 0
M  V30 2921 H 284.085 -3.25278 2.21264 0
M  V30 2922 H 286.1 -4.50752 2.07453 0
M  V30 2923 N 285.273 -1.31445 -0.869486 0
M  V30 2924 C 286.498 -1.24256 -1.66058 0
M  V30 2925 C 286.923 0.188928 -1.87149 0
M  V30 2926 O 286.281 1.13522 -1.4136 0
M  V30 2927 C 286.329 -1.9924 -3.00559 0
M  V30 2928 O 285.433 -1.33007 -3.90362 0
M  V30 2929 H 284.774 -0.428973 -0.506831 0
M  V30 2930 H 287.304 -1.73521 -1.08404 0
M  V30 2931 H 287.314 -2.08854 -3.50491 0
M  V30 2932 H 285.989 -3.03342 -2.84528 0
M  V30 2933 H 284.566 -1.31848 -3.48813 0
M  V30 2934 N 286.751 1.08385 -1.14413 0
M  V30 2935 C 287.976 1.85057 -0.936413 0
M  V30 2936 C 288.401 1.81055 0.509971 0
M  V30 2937 O 287.759 1.1958 1.36273 0
M  V30 2938 C 287.807 3.30505 -1.44217 0
M  V30 2939 O 286.911 4.07491 -0.634409 0
M  V30 2940 H 286.252 0.573425 -0.334784 0
M  V30 2941 H 288.782 1.36799 -1.52142 0
M  V30 2942 H 288.792 3.81348 -1.45043 0
M  V30 2943 H 287.467 3.32734 -2.49522 0
M  V30 2944 H 286.044 3.66368 -0.694902 0
M  V30 2945 N 288.23 0.939286 1.26551 0
M  V30 2946 C 289.16 0.465044 2.28822 0
M  V30 2947 C 290.141 -0.480692 1.63167 0
M  V30 2948 O 291.326 -0.382955 1.90387 0
M  V30 2949 C 288.456 -0.27234 3.46231 0
M  V30 2950 C 287.41 0.58666 4.2396 0
M  V30 2951 C 286.736 -0.280573 5.33963 0
M  V30 2952 C 288.036 1.85704 4.88171 0
M  V30 2953 H 289.73 1.31979 2.68741 0
M  V30 2954 H 287.276 0.636061 1.29191 0
M  V30 2955 H 289.229 -0.615133 4.16886 0
M  V30 2956 H 287.953 -1.16121 3.0526 0
M  V30 2957 H 286.612 0.91232 3.55067 0
M  V30 2958 H 286.26 -1.16874 4.89234 0
M  V30 2959 H 285.96 0.29076 5.8688 0
M  V30 2960 H 287.484 -0.618678 6.07458 0
M  V30 2961 H 288.898 1.58161 5.51052 0
M  V30 2962 H 287.295 2.37279 5.51197 0
M  V30 2963 H 288.365 2.56957 4.11219 0
M  V30 2964 N 289.708 -1.40897 0.706093 0
M  V30 2965 C 290.638 -2.33418 0.0620085 0
M  V30 2966 C 291.619 -1.52385 -0.755827 0
M  V30 2967 O 292.804 -1.80886 -0.706674 0
M  V30 2968 C 289.934 -3.36293 -0.867445 0
M  V30 2969 C 288.888 -4.27716 -0.155932 0
M  V30 2970 C 288.214 -5.2105 -1.20046 0
M  V30 2971 C 289.514 -5.12944 0.984149 0
M  V30 2972 H 291.208 -2.87527 0.83477 0
M  V30 2973 H 288.754 -1.38249 0.402875 0
M  V30 2974 H 290.707 -3.99949 -1.32735 0
M  V30 2975 H 289.431 -2.80556 -1.67199 0
M  V30 2976 H 288.09 -3.65498 0.284047 0
M  V30 2977 H 287.738 -4.61624 -1.99781 0
M  V30 2978 H 287.438 -5.83056 -0.729328 0
M  V30 2979 H 288.962 -5.87584 -1.66066 0
M  V30 2980 H 290.376 -5.70109 0.604048 0
M  V30 2981 H 288.773 -5.83945 1.38304 0
M  V30 2982 H 289.843 -4.49485 1.81911 0
M  V30 2983 N 291.186 -0.45159 -1.50991 0
M  V30 2984 C 292.597 0.00818571 -1.86698 0
M  V30 2985 C 292.948 1.40661 -1.3678 0
M  V30 2986 O 292.073 2.0391 -0.724546 0
M  V30 2987 C 292.668 0.0216303 -3.38793 0
M  V30 2988 C 291.227 0.425865 -3.73983 0
M  V30 2989 C 290.374 -0.372163 -2.74791 0
M  V30 2990 H 293.325 -0.666785 -1.44013 0
M  V30 2991 H 293.346 0.828078 -3.7138 0
M  V30 2992 H 292.858 -0.996288 -3.75094 0
M  V30 2993 H 290.959 1.44886 -3.43277 0
M  V30 2994 H 291.072 0.140761 -4.78893 0
M  V30 2995 H 289.436 0.171498 -2.54122 0
M  V30 2996 H 290.219 -1.38922 -3.13935 0
M  V30 2997 N 292.664 1.56529 -0.183458 0
M  V30 2998 C 293.594 2.21549 0.737456 0
M  V30 2999 C 294.575 1.17489 1.23005 0
M  V30 3000 O 295.76 1.45959 1.281 0
M  V30 3001 C 292.89 2.86575 1.96194 0
M  V30 3002 C 291.844 3.96778 1.60473 0
M  V30 3003 C 291.17 4.48911 2.90487 0
M  V30 3004 C 292.47 5.15767 0.823497 0
M  V30 3005 H 294.164 2.98761 0.195453 0
M  V30 3006 H 291.71 1.43702 0.0925686 0
M  V30 3007 H 293.663 3.30739 2.61131 0
M  V30 3008 H 292.387 2.06749 2.52828 0
M  V30 3009 H 291.046 3.53286 0.978997 0
M  V30 3010 H 290.694 3.65862 3.45186 0
M  V30 3011 H 290.394 5.23265 2.67335 0
M  V30 3012 H 291.918 4.95771 3.56432 0
M  V30 3013 H 293.332 5.56549 1.37571 0
M  V30 3014 H 291.729 5.96114 0.690551 0
M  V30 3015 H 292.799 4.84574 -0.177782 0
M  V30 3016 N 294.142 -0.090211 1.57342 0
M  V30 3017 C 295.372 -0.805055 1.90269 0
M  V30 3018 C 295.78 -1.72561 0.775842 0
M  V30 3019 O 295.123 -1.81839 -0.260843 0
M  V30 3020 C 295.185 -1.66734 3.18497 0
M  V30 3021 C 294.849 -0.918092 4.47683 0
M  V30 3022 C 295.846 -0.245674 5.19319 0
M  V30 3023 C 293.531 -0.890724 4.94339 0
M  V30 3024 C 295.525 0.444088 6.35851 0
M  V30 3025 C 293.212 -0.197179 6.10782 0
M  V30 3026 C 294.21 0.469044 6.81388 0
M  V30 3027 O 293.898 1.15146 7.95611 0
M  V30 3028 H 293.63 -0.235143 0.633785 0
M  V30 3029 H 296.184 -0.0703805 2.05279 0
M  V30 3030 H 294.414 -2.44437 2.99646 0
M  V30 3031 H 296.103 -2.25919 3.37217 0
M  V30 3032 H 296.869 -0.258246 4.84312 0
M  V30 3033 H 292.748 -1.39873 4.39268 0
M  V30 3034 H 296.292 0.964667 6.90898 0
M  V30 3035 H 292.189 -0.18247 6.45242 0
M  V30 3036 H 292.957 1.05885 8.11622 0
M  V30 3037 N 295.62 -1.53406 -0.361157 0
M  V30 3038 C 296.845 -1.74024 -1.12829 0
M  V30 3039 C 297.27 -0.470069 -1.82132 0
M  V30 3040 O 296.628 0.57619 -1.719 0
M  V30 3041 C 296.676 -2.90903 -2.13091 0
M  V30 3042 O 295.78 -2.59821 -3.20261 0
M  V30 3043 H 295.121 -0.577804 -0.327168 0
M  V30 3044 H 297.651 -2.00307 -0.41693 0
M  V30 3045 H 297.661 -3.17194 -2.56616 0
M  V30 3046 H 296.336 -3.83034 -1.62042 0
M  V30 3047 H 294.913 -2.44362 -2.81677 0
M  V30 3048 N 297.098 0.621204 -1.44841 0
M  V30 3049 C 298.045 1.73267 -1.5247 0
M  V30 3050 C 299.015 1.6189 -0.371611 0
M  V30 3051 O 300.2 1.81668 -0.58321 0
M  V30 3052 C 297.34 3.11545 -1.48438 0
M  V30 3053 C 296.453 3.33827 -2.74196 0
M  V30 3054 C 295.588 4.62133 -2.61929 0
M  V30 3055 C 294.627 4.77627 -3.82804 0
M  V30 3056 N 293.764 5.97219 -3.69153 0
M  V30 3057 H 298.604 1.66082 -2.47428 0
M  V30 3058 H 296.141 0.810026 -1.22788 0
M  V30 3059 H 298.099 3.91528 -1.4409 0
M  V30 3060 H 296.729 3.1772 -0.570402 0
M  V30 3061 H 295.781 2.47715 -2.88689 0
M  V30 3062 H 297.093 3.41153 -3.6389 0
M  V30 3063 H 296.247 5.50291 -2.5547 0
M  V30 3064 H 294.986 4.57182 -1.69811 0
M  V30 3065 H 293.991 3.87896 -3.89637 0
M  V30 3066 H 295.216 4.84385 -4.75971 0
M  V30 3067 H 293.162 5.93339 -2.79794 0
M  V30 3068 H 293.079 6.05644 -4.52472 0
M  V30 3069 H 294.347 6.87912 -3.66603 0
M  V30 3070 N 298.576 1.31904 0.862503 0
M  V30 3071 C 299.992 1.10724 1.14945 0
M  V30 3072 C 300.192 -0.117421 2.01158 0
M  V30 3073 O 299.248 -0.804595 2.39338 0
M  V30 3074 C 300.561 2.38267 1.83437 0
M  V30 3075 C 302.109 2.43949 1.96106 0
M  V30 3076 C 302.584 3.71394 2.68013 0
M  V30 3077 N 304.075 3.72331 2.75543 0
M  V30 3078 C 304.81 4.67641 3.31812 0
M  V30 3079 N 304.306 5.73313 3.88953 0
M  V30 3080 N 306.099 4.5515 3.29841 0
M  V30 3081 H 298.25 2.10436 0.288191 0
M  V30 3082 H 300.513 0.928705 0.190292 0
M  V30 3083 H 300.219 3.27759 1.27542 0
M  V30 3084 H 300.093 2.48633 2.83657 0
M  V30 3085 H 302.48 1.54922 2.51164 0
M  V30 3086 H 302.561 2.37543 0.949059 0
M  V30 3087 H 302.205 4.60791 2.13621 0
M  V30 3088 H 302.135 3.75069 3.69636 0
M  V30 3089 H 304.626 2.95947 2.34997 0
M  V30 3090 H 304.939 6.42107 4.30022 0
M  V30 3091 H 303.284 5.77077 3.87308 0
M  V30 3092 H 306.475 3.71766 2.84443 0
M  V30 3093 H 306.648 5.29604 3.73394 0
M  V30 3094 N 300.054 -1.07777 1.14986 0
M  V30 3095 C 301.284 -1.83752 0.944402 0
M  V30 3096 C 301.692 -1.8218 -0.51058 0
M  V30 3097 O 301.035 -1.22852 -1.36576 0
M  V30 3098 C 301.097 -3.32128 1.37592 0
M  V30 3099 C 300.761 -3.57425 2.84775 0
M  V30 3100 C 301.758 -3.5173 3.8286 0
M  V30 3101 C 299.443 -3.8523 3.2234 0
M  V30 3102 C 301.437 -3.73482 5.16517 0
M  V30 3103 C 299.124 -4.06634 4.56171 0
M  V30 3104 C 300.122 -4.00754 5.53069 0
M  V30 3105 O 299.81 -4.2159 6.84483 0
M  V30 3106 H 299.542 -0.58673 0.335744 0
M  V30 3107 H 302.096 -1.36982 1.53052 0
M  V30 3108 H 300.326 -3.79686 0.733165 0
M  V30 3109 H 302.015 -3.89555 1.14024 0
M  V30 3110 H 302.781 -3.30256 3.55184 0
M  V30 3111 H 298.66 -3.88923 2.47508 0
M  V30 3112 H 302.204 -3.68808 5.92137 0
M  V30 3113 H 298.101 -4.27593 4.83564 0
M  V30 3114 H 298.869 -4.38961 6.90837 0
M  V30 3115 N 301.532 -0.945985 -1.26051 0
M  V30 3116 C 302.781 -0.591836 -1.92822 0
M  V30 3117 C 303.094 0.873956 -1.7499 0
M  V30 3118 O 304.3 1.33769 -2.36259 0
M  V30 3119 C 302.756 -1.00776 -3.45503 0
M  V30 3120 C 302.364 -2.4955 -3.7206 0
M  V30 3121 C 304.108 -0.725735 -4.1825 0
M  V30 3122 C 302.015 -2.84988 -5.18205 0
M  V30 3123 H 300.945 -0.217635 -0.721908 0
M  V30 3124 H 303.596 -1.14927 -1.43052 0
M  V30 3125 H 301.978 -0.378812 -3.94184 0
M  V30 3126 H 303.152 -3.1739 -3.34066 0
M  V30 3127 H 301.467 -2.75133 -3.12555 0
M  V30 3128 H 304.064 -0.966771 -5.25887 0
M  V30 3129 H 304.407 0.337639 -4.14929 0
M  V30 3130 H 304.94 -1.31463 -3.7545 0
M  V30 3131 H 301.679 -3.90307 -5.26631 0
M  V30 3132 H 301.199 -2.21813 -5.57278 0
M  V30 3133 H 302.878 -2.73712 -5.86252 0
M  V30 3134 N 303.011 1.40521 -0.713556 0
M  V30 3135 C 303.941 2.33381 -0.0743864 0
M  V30 3136 C 304.922 1.52784 0.747735 0
M  V30 3137 O 306.107 1.81258 0.697071 0
M  V30 3138 C 303.237 3.36748 0.849598 0
M  V30 3139 C 302.191 4.27793 0.133247 0
M  V30 3140 C 301.517 5.21679 1.17281 0
M  V30 3141 C 302.817 5.12415 -1.01134 0
M  V30 3142 H 304.511 2.87081 -0.850007 0
M  V30 3143 H 302.057 1.38034 -0.410201 0
M  V30 3144 H 304.01 4.00648 1.30612 0
M  V30 3145 H 302.734 2.81439 1.65709 0
M  V30 3146 H 301.393 3.65342 -0.303426 0
M  V30 3147 H 301.041 4.62677 1.9733 0
M  V30 3148 H 300.741 5.83435 0.698397 0
M  V30 3149 H 302.265 5.88456 1.62947 0
M  V30 3150 H 303.679 5.69781 -0.634274 0
M  V30 3151 H 302.076 5.83203 -1.41399 0
M  V30 3152 H 303.146 4.48514 -1.84292 0
M  V30 3153 N 304.489 0.459591 1.5075 0
M  V30 3154 C 305.736 -0.0993495 2.02256 0
M  V30 3155 C 306.064 -1.40751 1.34237 0
M  V30 3156 O 305.319 -1.90379 0.453228 0
M  V30 3157 C 305.618 -0.342866 3.55752 0
M  V30 3158 C 305.284 0.88218 4.42186 0
M  V30 3159 C 303.946 1.21808 4.65528 0
M  V30 3160 C 306.298 1.69837 4.92752 0
M  V30 3161 C 303.626 2.37045 5.36681 0
M  V30 3162 C 305.978 2.84192 5.65171 0
M  V30 3163 C 304.642 3.1821 5.8677 0
M  V30 3164 H 303.912 -0.0363545 0.740108 0
M  V30 3165 H 306.559 0.611329 1.8148 0
M  V30 3166 H 304.864 -1.13567 3.7498 0
M  V30 3167 H 306.561 -0.789121 3.93159 0
M  V30 3168 H 303.151 0.610467 4.2423 0
M  V30 3169 H 307.335 1.45205 4.74583 0
M  V30 3170 H 302.591 2.63689 5.51614 0
M  V30 3171 H 306.765 3.4779 6.03337 0
M  V30 3172 H 304.392 4.07613 6.41682 0
M  V30 3173 N 305.967 -1.56429 0.191757 0
M  V30 3174 C 307.207 -1.99383 -0.450099 0
M  V30 3175 C 307.571 -1.07581 -1.59029 0
M  V30 3176 O 308.772 -1.39758 -2.29611 0
M  V30 3177 C 307.043 -3.45841 -0.901611 0
M  V30 3178 S 308.602 -4.10822 -1.54177 0
M  V30 3179 H 305.42 -0.696253 -0.144057 0
M  V30 3180 H 308.022 -1.93276 0.294036 0
M  V30 3181 H 306.726 -4.10354 -0.0616596 0
M  V30 3182 H 306.257 -3.55757 -1.67929 0
M  V30 3183 H 308.272 -4.07553 -2.83046 0
M  V30 3184 N 307.445 0.0818655 -1.57387 0
M  V30 3185 C 308.375 1.09885 -2.06028 0
M  V30 3186 C 309.356 1.4098 -0.951774 0
M  V30 3187 O 310.541 1.50781 -1.22387 0
M  V30 3188 C 307.671 2.4151 -2.4958 0
M  V30 3189 C 306.625 2.24792 -3.64215 0
M  V30 3190 C 305.951 3.61712 -3.93787 0
M  V30 3191 C 307.251 1.67749 -4.94629 0
M  V30 3192 H 308.945 0.694128 -2.91243 0
M  V30 3193 H 306.491 0.332448 -1.4011 0
M  V30 3194 H 308.444 3.12939 -2.82219 0
M  V30 3195 H 307.168 2.83943 -1.61381 0
M  V30 3196 H 305.827 1.55807 -3.31843 0
M  V30 3197 H 305.475 4.01697 -3.02735 0
M  V30 3198 H 305.175 3.51368 -4.70971 0
M  V30 3199 H 306.699 4.34587 -4.28913 0
M  V30 3200 H 308.113 2.29032 -5.25564 0
M  V30 3201 H 306.51 1.68128 -5.76067 0
M  V30 3202 H 307.58 0.638059 -4.80684 0
M  V30 3203 N 308.923 1.53595 0.353017 0
M  V30 3204 C 310.169 1.70638 1.09593 0
M  V30 3205 C 310.502 0.463286 1.88593 0
M  V30 3206 O 309.777 -0.539597 1.86865 0
M  V30 3207 C 310.06 2.96406 2.04489 0
M  V30 3208 C 309.913 4.30901 1.29014 0
M  V30 3209 C 311.232 3.17812 3.0444 0
M  V30 3210 H 308.351 0.620913 0.397034 0
M  V30 3211 H 310.993 1.86254 0.375446 0
M  V30 3212 H 309.143 2.83223 2.65927 0
M  V30 3213 H 310.815 4.55917 0.702638 0
M  V30 3214 H 309.058 4.29741 0.592071 0
M  V30 3215 H 309.729 5.1506 1.98537 0
M  V30 3216 H 312.205 3.30263 2.53112 0
M  V30 3217 H 311.081 4.07223 3.6805 0
M  V30 3218 H 311.342 2.33669 3.75301 0
M  V30 3219 N 310.401 -0.613514 1.45168 0
M  V30 3220 C 311.65 -1.36874 1.4815 0
M  V30 3221 C 311.963 -1.952 0.124982 0
M  V30 3222 O 313.169 -2.71481 0.0324176 0
M  V30 3223 C 311.625 -2.47905 2.60904 0
M  V30 3224 C 311.233 -1.96016 4.02842 0
M  V30 3225 C 312.977 -3.24965 2.73126 0
M  V30 3226 C 310.884 -3.04494 5.06988 0
M  V30 3227 H 309.814 -0.514428 0.551253 0
M  V30 3228 H 312.465 -0.658182 1.7129 0
M  V30 3229 H 310.847 -3.21618 2.31037 0
M  V30 3230 H 312.021 -1.29051 4.4236 0
M  V30 3231 H 310.336 -1.31719 3.95018 0
M  V30 3232 H 312.933 -4.05865 3.48106 0
M  V30 3233 H 313.276 -3.75588 1.79553 0
M  V30 3234 H 313.809 -2.5835 3.0249 0
M  V30 3235 H 310.548 -2.58795 6.0225 0
M  V30 3236 H 310.068 -3.70044 4.72046 0
M  V30 3237 H 311.747 -3.68976 5.31475 0
M  V30 3238 N 311.879 -1.3236 -0.855495 0
M  V30 3239 C 313.126 -1.22872 -1.60962 0
M  V30 3240 C 313.454 0.209658 -1.93367 0
M  V30 3241 O 312.709 1.16243 -1.57436 0
M  V30 3242 C 313.008 -2.03275 -2.93963 0
M  V30 3243 C 312.674 -3.5264 -2.80991 0
M  V30 3244 C 311.336 -3.93364 -2.7716 0
M  V30 3245 C 313.688 -4.47626 -2.66983 0
M  V30 3246 C 311.016 -5.27319 -2.572 0
M  V30 3247 C 313.368 -5.81723 -2.48558 0
M  V30 3248 C 312.032 -6.2165 -2.4312 0
M  V30 3249 H 311.302 -0.44962 -0.589001 0
M  V30 3250 H 313.949 -1.63777 -0.992442 0
M  V30 3251 H 312.254 -1.55095 -3.59795 0
M  V30 3252 H 313.951 -1.93303 -3.51333 0
M  V30 3253 H 310.541 -3.20295 -2.84797 0
M  V30 3254 H 314.725 -4.17084 -2.68988 0
M  V30 3255 H 309.981 -5.57311 -2.51424 0
M  V30 3256 H 314.155 -6.5494 -2.36699 0
M  V30 3257 H 311.782 -7.25388 -2.27412 0
M  V30 3258 N 313.357 1.07166 -1.15556 0
M  V30 3259 C 314.32 2.12589 -0.856644 0
M  V30 3260 C 315.32 1.6015 0.14444 0
M  V30 3261 O 316.51 1.7399 -0.0854163 0
M  V30 3262 C 313.642 3.39753 -0.279405 0
M  V30 3263 H 314.835 2.40539 -1.79112 0
M  V30 3264 H 312.388 1.23086 -0.963298 0
M  V30 3265 H 313.123 3.17447 0.663174 0
M  V30 3266 H 312.908 3.79117 -1.00063 0
M  V30 3267 H 314.398 4.17507 -0.0879113 0
M  V30 3268 N 314.835 0.952656 1.25548 0
M  V30 3269 C 316.083 0.605176 1.92826 0
M  V30 3270 C 316.404 -0.860261 1.74999 0
M  V30 3271 O 315.674 -1.6125 1.11244 0
M  V30 3272 H 314.254 0.220832 0.713612 0
M  V30 3273 H 316.916 1.21047 1.52754 0
M  V30 3274 H 316.012 0.832798 3.00784 0
M  V30 3275 N 316.313 -1.40141 0.720998 0
M  V30 3276 C 317.559 -2.01084 0.263231 0
M  V30 3277 C 317.892 -1.57052 -1.14229 0
M  V30 3278 O 317.167 -0.793027 -1.77599 0
M  V30 3279 C 317.45 -3.58401 0.349344 0
M  V30 3280 C 317.303 -4.12491 1.79363 0
M  V30 3281 C 318.622 -4.39231 -0.276351 0
M  V30 3282 H 315.741 -0.730572 0.0971228 0
M  V30 3283 H 318.383 -1.66543 0.914518 0
M  V30 3284 H 316.533 -3.87958 -0.205165 0
M  V30 3285 H 318.205 -3.93711 2.40394 0
M  V30 3286 H 316.448 -3.66576 2.31958 0
M  V30 3287 H 317.119 -5.21646 1.80524 0
M  V30 3288 H 319.595 -4.15637 0.196184 0
M  V30 3289 H 318.471 -5.48586 -0.185681 0
M  V30 3290 H 318.732 -4.20643 -1.36059 0
M  V30 3291 N 317.792 -0.46758 -1.50504 0
M  V30 3292 C 318.722 0.318381 -2.31319 0
M  V30 3293 C 319.703 0.993564 -1.38066 0
M  V30 3294 O 320.888 0.991411 -1.66987 0
M  V30 3295 C 318.018 1.40275 -3.17711 0
M  V30 3296 C 316.972 0.849373 -4.19487 0
M  V30 3297 C 316.298 2.03177 -4.94594 0
M  V30 3298 C 317.598 -0.136942 -5.2212 0
M  V30 3299 H 319.292 -0.356106 -2.97275 0
M  V30 3300 H 316.838 -0.172703 -1.42961 0
M  V30 3301 H 318.791 1.96004 -3.73042 0
M  V30 3302 H 317.515 2.10596 -2.49634 0
M  V30 3303 H 316.174 0.314076 -3.65252 0
M  V30 3304 H 315.822 2.72187 -4.22993 0
M  V30 3305 H 315.522 1.66774 -5.63436 0
M  V30 3306 H 317.046 2.59403 -5.52759 0
M  V30 3307 H 318.46 0.331056 -5.72343 0
M  V30 3308 H 316.857 -0.41507 -5.98663 0
M  V30 3309 H 317.927 -1.06398 -4.73083 0
M  V30 3310 N 319.27 1.56325 -0.20005 0
M  V30 3311 C 320.233 2.18084 0.705132 0
M  V30 3312 C 321.233 1.13666 1.1374 0
M  V30 3313 O 322.423 1.39023 1.04968 0
M  V30 3314 C 319.555 2.78689 1.96329 0
M  V30 3315 H 320.748 2.99435 0.167023 0
M  V30 3316 H 318.301 1.56221 0.0495725 0
M  V30 3317 H 319.036 2.0115 2.5438 0
M  V30 3318 H 318.821 3.55133 1.66202 0
M  V30 3319 H 320.311 3.26096 2.60866 0
M  V30 3320 N 320.748 -0.0735177 1.57428 0
M  V30 3321 C 321.976 -0.785969 1.9139 0
M  V30 3322 C 322.391 -1.71207 0.795847 0
M  V30 3323 O 321.748 -1.81033 -0.230915 0
M  V30 3324 C 321.799 -1.58107 3.25091 0
M  V30 3325 O 321.52 -0.6922 4.32597 0
M  V30 3326 C 323.021 -2.39467 3.73055 0
M  V30 3327 H 320.241 -0.223558 0.632663 0
M  V30 3328 H 322.785 -0.044302 2.04452 0
M  V30 3329 H 320.94 -2.27503 3.13562 0
M  V30 3330 H 321.354 -1.24504 5.09508 0
M  V30 3331 H 322.828 -2.90716 4.69242 0
M  V30 3332 H 323.305 -3.18913 3.01979 0
M  V30 3333 H 323.911 -1.7523 3.87523 0
M  V30 3334 N 322.226 -1.5378 -0.344866 0
M  V30 3335 C 323.475 -1.7018 -1.08267 0
M  V30 3336 C 323.788 -0.471 -1.89845 0
M  V30 3337 O 324.994 -0.515917 -2.66553 0
M  V30 3338 C 323.45 -3.00923 -1.97417 0
M  V30 3339 C 323.058 -4.31335 -1.21053 0
M  V30 3340 C 324.802 -3.26688 -2.71063 0
M  V30 3341 C 322.709 -5.53153 -2.09225 0
M  V30 3342 H 321.639 -0.634138 -0.407903 0
M  V30 3343 H 324.29 -1.8028 -0.342246 0
M  V30 3344 H 322.672 -2.84676 -2.75274 0
M  V30 3345 H 323.846 -4.58281 -0.481159 0
M  V30 3346 H 322.161 -4.12173 -0.591813 0
M  V30 3347 H 324.758 -4.1489 -3.37299 0
M  V30 3348 H 325.101 -2.43639 -3.37558 0
M  V30 3349 H 325.634 -3.43705 -2.0028 0
M  V30 3350 H 322.373 -6.38741 -1.47274 0
M  V30 3351 H 321.893 -5.30458 -2.79955 0
M  V30 3352 H 323.572 -5.88744 -2.68308 0
M  V30 3353 N 323.704 0.605807 -1.45491 0
M  V30 3354 C 324.637 1.73022 -1.48791 0
M  V30 3355 C 325.615 1.58917 -0.344112 0
M  V30 3356 O 326.799 1.80453 -0.544876 0
M  V30 3357 C 323.926 3.10865 -1.34463 0
M  V30 3358 C 322.972 3.43554 -2.5273 0
M  V30 3359 S 323.805 3.38196 -4.15191 0
M  V30 3360 C 324.961 4.78616 -4.03333 0
M  V30 3361 H 325.194 1.69961 -2.43928 0
M  V30 3362 H 322.727 0.782611 -1.33096 0
M  V30 3363 H 324.685 3.90398 -1.26884 0
M  V30 3364 H 323.346 3.1144 -0.40794 0
M  V30 3365 H 322.539 4.43924 -2.38637 0
M  V30 3366 H 322.141 2.71541 -2.5718 0
M  V30 3367 H 324.433 5.68463 -3.68587 0
M  V30 3368 H 325.376 4.97767 -5.03621 0
M  V30 3369 H 325.784 4.54381 -3.34959 0
M  V30 3370 N 325.182 1.32811 0.848464 0
M  V30 3371 C 326.43 1.23479 1.59991 0
M  V30 3372 C 326.751 -0.201853 1.93952 0
M  V30 3373 O 326.021 -1.12818 1.60153 0
M  V30 3374 H 324.601 0.454034 0.593179 0
M  V30 3375 H 327.263 1.66412 1.01455 0
M  V30 3376 H 326.359 1.82178 2.53412 0
M  V30 3377 N 326.66 -1.06551 1.16123 0
M  V30 3378 C 327.59 -2.15935 0.88851 0
M  V30 3379 C 328.571 -1.69306 -0.164135 0
M  V30 3380 O 329.756 -1.94193 -0.0167857 0
M  V30 3381 C 326.886 -3.45149 0.385942 0
M  V30 3382 C 325.84 -4.05271 1.3762 0
M  V30 3383 C 325.166 -5.29664 0.732137 0
M  V30 3384 C 326.466 -4.44355 2.74493 0
M  V30 3385 H 328.16 -2.39006 1.80323 0
M  V30 3386 H 325.706 -1.14866 0.868435 0
M  V30 3387 H 327.659 -4.21004 0.182647 0
M  V30 3388 H 326.383 -3.21689 -0.564274 0
M  V30 3389 H 325.042 -3.3147 1.56599 0
M  V30 3390 H 324.69 -5.02499 -0.224483 0
M  V30 3391 H 324.39 -5.70848 1.39307 0
M  V30 3392 H 325.914 -6.08218 0.538802 0
M  V30 3393 H 327.328 -5.11303 2.59311 0
M  V30 3394 H 325.725 -4.96515 3.37035 0
M  V30 3395 H 326.795 -3.55339 3.29943 0
M  V30 3396 N 328.138 -0.959301 -1.25041 0
M  V30 3397 C 329.368 -0.63303 -1.96663 0
M  V30 3398 C 329.776 0.800031 -1.71453 0
M  V30 3399 O 329.119 1.54736 -0.99008 0
M  V30 3400 C 329.181 -0.817523 -3.50081 0
M  V30 3401 C 328.845 -2.22863 -3.98975 0
M  V30 3402 C 329.842 -3.20569 -4.09306 0
M  V30 3403 C 327.527 -2.55407 -4.32519 0
M  V30 3404 C 329.521 -4.4891 -4.52503 0
M  V30 3405 C 327.208 -3.83976 -4.754 0
M  V30 3406 C 328.206 -4.8054 -4.85356 0
M  V30 3407 O 327.894 -6.06817 -5.27284 0
M  V30 3408 H 327.626 -0.235866 -0.633516 0
M  V30 3409 H 330.18 -1.2874 -1.60047 0
M  V30 3410 H 328.41 -0.105992 -3.86555 0
M  V30 3411 H 330.099 -0.491604 -4.02912 0
M  V30 3412 H 330.865 -2.96753 -3.83618 0
M  V30 3413 H 326.744 -1.8097 -4.23994 0
M  V30 3414 H 330.288 -5.24283 -4.60188 0
M  V30 3415 H 326.185 -4.07596 -5.00535 0
M  V30 3416 H 326.953 -6.10262 -5.45457 0
M  V30 3417 N 329.616 1.39756 -0.72842 0
M  V30 3418 C 330.864 2.00248 -0.272946 0
M  V30 3419 C 331.185 1.58077 1.14178 0
M  V30 3420 O 330.455 0.826014 1.77634 0
M  V30 3421 H 329.035 0.740554 -0.0979247 0
M  V30 3422 H 331.697 1.70903 -0.936912 0
M  V30 3423 H 330.793 3.10495 -0.316142 0
M  V30 3424 N 331.094 0.475555 1.50254 0
M  V30 3425 C 332.057 -0.305016 2.27161 0
M  V30 3426 C 333.057 -0.916519 1.32123 0
M  V30 3427 O 334.247 -0.785003 1.5551 0
M  V30 3428 C 331.379 -1.43496 3.09227 0
M  V30 3429 H 332.572 0.369511 2.97615 0
M  V30 3430 H 330.125 0.229747 1.54602 0
M  V30 3431 H 330.86 -2.14441 2.43281 0
M  V30 3432 H 330.645 -1.00223 3.79075 0
M  V30 3433 H 332.135 -1.98548 3.67381 0
M  V30 3434 N 332.573 -1.56217 0.208337 0
M  V30 3435 C 333.822 -1.97124 -0.427204 0
M  V30 3436 C 334.135 -1.09859 -1.61835 0
M  V30 3437 O 335.341 -1.40606 -2.32255 0
M  V30 3438 C 333.797 -3.50633 -0.811442 0
M  V30 3439 C 333.405 -4.46582 0.35615 0
M  V30 3440 C 335.149 -4.00282 -1.41332 0
M  V30 3441 C 333.056 -5.91379 -0.0497852 0
M  V30 3442 H 331.986 -0.736086 -0.163381 0
M  V30 3443 H 334.637 -1.8099 0.302456 0
M  V30 3444 H 333.019 -3.62319 -1.59815 0
M  V30 3445 H 334.193 -4.46636 1.1337 0
M  V30 3446 H 332.508 -4.07202 0.870396 0
M  V30 3447 H 335.105 -5.0595 -1.72972 0
M  V30 3448 H 335.448 -3.45359 -2.32449 0
M  V30 3449 H 335.981 -3.91764 -0.690323 0
M  V30 3450 H 332.72 -6.50255 0.827529 0
M  V30 3451 H 332.24 -5.94549 -0.791926 0
M  V30 3452 H 333.919 -6.45209 -0.481042 0
M  V30 3453 N 334.051 0.0651679 -1.57465 0
M  V30 3454 C 335.298 0.763063 -1.87573 0
M  V30 3455 C 335.626 1.77242 -0.800961 0
M  V30 3456 O 334.881 1.94651 0.202316 0
M  V30 3457 C 335.18 1.50081 -3.24362 0
M  V30 3458 C 334.846 0.630816 -4.46466 0
M  V30 3459 C 333.508 0.391082 -4.79608 0
M  V30 3460 C 335.86 0.0279465 -5.21193 0
M  V30 3461 C 333.188 -0.460894 -5.84887 0
M  V30 3462 C 335.54 -0.811522 -6.27373 0
M  V30 3463 C 334.204 -1.06106 -6.59013 0
M  V30 3464 H 333.474 0.279224 -0.686378 0
M  V30 3465 H 336.121 0.0236726 -1.91485 0
M  V30 3466 H 334.426 2.31258 -3.16271 0
M  V30 3467 H 336.123 2.04571 -3.44894 0
M  V30 3468 H 332.713 0.8278 -4.2053 0
M  V30 3469 H 336.897 0.200262 -4.95896 0
M  V30 3470 H 332.153 -0.662907 -6.07796 0
M  V30 3471 H 336.327 -1.28537 -6.84435 0
M  V30 3472 H 333.954 -1.723 -7.40417 0
M  V30 3473 N 335.529 1.53961 0.336706 0
M  V30 3474 C 336.945 1.44378 0.680241 0
M  V30 3475 C 337.145 0.606034 1.9217 0
M  V30 3476 O 336.201 0.099688 2.52303 0
M  V30 3477 C 337.514 2.87945 0.8665 0
M  V30 3478 C 339.062 2.97763 0.964682 0
M  V30 3479 C 339.537 4.42453 1.18321 0
M  V30 3480 N 341.028 4.46008 1.25025 0
M  V30 3481 C 341.763 5.55102 1.43697 0
M  V30 3482 N 341.259 6.7419 1.59498 0
M  V30 3483 N 343.052 5.42727 1.463 0
M  V30 3484 H 335.203 2.06918 -0.479455 0
M  V30 3485 H 337.466 0.935634 -0.152619 0
M  V30 3486 H 337.172 3.51691 0.0256937 0
M  V30 3487 H 337.046 3.33293 1.76623 0
M  V30 3488 H 339.433 2.34153 1.796 0
M  V30 3489 H 339.514 2.55766 0.041708 0
M  V30 3490 H 339.158 5.06645 0.356788 0
M  V30 3491 H 339.088 4.82048 2.11985 0
M  V30 3492 H 341.579 3.60196 1.14312 0
M  V30 3493 H 341.892 7.53095 1.734 0
M  V30 3494 H 340.237 6.77123 1.56621 0
M  V30 3495 H 343.428 4.48647 1.33543 0
M  V30 3496 H 343.601 6.27806 1.6051 0
M  V30 3497 N 337.007 -0.598083 1.45811 0
M  V30 3498 C 337.937 -1.71873 1.58057 0
M  V30 3499 C 338.918 -1.64533 0.431615 0
M  V30 3500 O 340.103 -1.82787 0.65595 0
M  V30 3501 C 337.233 -3.10495 1.55597 0
M  V30 3502 C 336.187 -3.32654 2.69305 0
M  V30 3503 C 335.513 -4.71646 2.51902 0
M  V30 3504 C 336.813 -3.21981 4.11248 0
M  V30 3505 H 338.507 -1.61881 2.51863 0
M  V30 3506 H 336.053 -0.777372 1.21214 0
M  V30 3507 H 338.006 -3.88699 1.6276 0
M  V30 3508 H 336.73 -3.2135 0.583255 0
M  V30 3509 H 335.389 -2.56843 2.61586 0
M  V30 3510 H 335.037 -4.79246 1.52748 0
M  V30 3511 H 334.737 -4.87426 3.2816 0
M  V30 3512 H 336.261 -5.52038 2.60933 0
M  V30 3513 H 337.675 -3.90049 4.20161 0
M  V30 3514 H 336.072 -3.49289 4.87972 0
M  V30 3515 H 337.142 -2.1928 4.32486 0
M  V30 3516 N 338.485 -1.33259 -0.841409 0
M  V30 3517 C 339.731 -1.24757 -1.59886 0
M  V30 3518 C 340.064 0.186913 -1.93298 0
M  V30 3519 O 339.339 1.12757 -1.5848 0
M  V30 3520 C 339.622 -2.12036 -2.91055 0
M  V30 3521 C 339.475 -3.63929 -2.6434 0
M  V30 3522 C 340.794 -1.9916 -3.92458 0
M  V30 3523 H 337.913 -0.454542 -0.580138 0
M  V30 3524 H 340.555 -1.63335 -0.970647 0
M  V30 3525 H 338.705 -1.79265 -3.44669 0
M  V30 3526 H 340.377 -4.06978 -2.17178 0
M  V30 3527 H 338.62 -3.85935 -1.98082 0
M  V30 3528 H 339.291 -4.20341 -3.57796 0
M  V30 3529 H 341.767 -2.27895 -3.48143 0
M  V30 3530 H 340.643 -2.62484 -4.82072 0
M  V30 3531 H 340.904 -0.963082 -4.31482 0
M  V30 3532 N 339.963 1.05934 -1.16686 0
M  V30 3533 C 340.895 2.13468 -0.834503 0
M  V30 3534 C 341.908 1.62013 0.15984 0
M  V30 3535 O 343.097 1.7838 -0.0654228 0
M  V30 3536 C 340.197 3.3817 -0.222361 0
M  V30 3537 C 339.37 4.18928 -1.25771 0
M  V30 3538 C 338.429 5.21985 -0.664703 0
M  V30 3539 O 337.455 5.53334 -1.33453 0
M  V30 3540 N 338.657 5.77919 0.546834 0
M  V30 3541 H 341.422 2.42578 -1.75999 0
M  V30 3542 H 338.983 1.21967 -1.06469 0
M  V30 3543 H 340.975 4.04266 0.187472 0
M  V30 3544 H 339.545 3.06655 0.606758 0
M  V30 3545 H 338.765 3.48433 -1.84358 0
M  V30 3546 H 340.053 4.69687 -1.95631 0
M  V30 3547 H 339.451 5.54721 1.10912 0
M  V30 3548 H 338.008 6.45573 0.898829 0
M  V30 3549 N 341.441 0.965919 1.2453 0
M  V30 3550 C 342.404 0.499547 2.2369 0
M  V30 3551 C 343.404 -0.40294 1.5567 0
M  V30 3552 O 344.594 -0.19865 1.73064 0
M  V30 3553 C 341.726 -0.276792 3.39774 0
M  V30 3554 H 342.919 1.37613 2.66463 0
M  V30 3555 H 340.472 0.750324 1.37112 0
M  V30 3556 H 341.207 -1.17055 3.02438 0
M  V30 3557 H 340.992 0.370826 3.90343 0
M  V30 3558 H 342.482 -0.592175 4.1338 0
M  V30 3559 N 342.919 -1.39368 0.735821 0
M  V30 3560 C 344.144 -2.05319 0.293052 0
M  V30 3561 C 344.569 -1.55115 -1.064 0
M  V30 3562 O 343.927 -0.695261 -1.67439 0
M  V30 3563 C 343.975 -3.59305 0.305323 0
M  V30 3564 O 343.079 -4.06299 -0.706761 0
M  V30 3565 H 342.42 -0.650529 0.13307 0
M  V30 3566 H 344.95 -1.78386 1.00197 0
M  V30 3567 H 344.96 -4.07724 0.149997 0
M  V30 3568 H 343.635 -3.95207 1.29553 0
M  V30 3569 H 342.212 -3.69292 -0.517504 0
M  V30 3570 N 344.397 -0.483516 -1.5 0
M  V30 3571 C 345.645 0.067027 -2.01989 0
M  V30 3572 C 345.966 1.3909 -1.36671 0
M  V30 3573 O 345.236 1.88978 -0.516152 0
M  V30 3574 H 343.816 0.0277606 -0.746484 0
M  V30 3575 H 346.478 -0.636773 -1.84204 0
M  V30 3576 H 345.574 0.209484 -3.11396 0
M  V30 3577 N 345.875 1.56104 -0.216619 0
M  V30 3578 C 346.807 2.17339 0.72776 0
M  V30 3579 C 347.82 1.14109 1.16116 0
M  V30 3580 O 349.009 1.4111 1.09317 0
M  V30 3581 C 346.109 2.73818 1.99693 0
M  V30 3582 C 345.282 4.02168 1.71988 0
M  V30 3583 C 344.341 4.43259 2.83562 0
M  V30 3584 O 343.367 5.10257 2.52244 0
M  V30 3585 N 344.569 4.08535 4.12407 0
M  V30 3586 H 347.334 2.99005 0.203983 0
M  V30 3587 H 344.895 1.61861 -0.0354289 0
M  V30 3588 H 346.887 2.9828 2.73516 0
M  V30 3589 H 345.457 1.96483 2.43132 0
M  V30 3590 H 344.677 3.85612 0.818337 0
M  V30 3591 H 345.965 4.85907 1.50903 0
M  V30 3592 H 345.363 3.54687 4.40696 0
M  V30 3593 H 343.92 4.37901 4.8279 0
M  V30 3594 N 347.353 -0.0568162 1.57498 0
M  V30 3595 C 348.3 -1.06591 2.04712 0
M  V30 3596 C 349.27 -1.3758 0.930644 0
M  V30 3597 O 350.455 -1.48392 1.19935 0
M  V30 3598 C 347.595 -2.3701 2.50839 0
M  V30 3599 C 346.708 -2.12421 3.76167 0
M  V30 3600 C 345.843 -3.36511 4.11015 0
M  V30 3601 C 344.882 -3.07353 5.2934 0
M  V30 3602 N 344.019 -4.23816 5.59754 0
M  V30 3603 H 348.859 -0.65631 2.90683 0
M  V30 3604 H 346.396 -0.312481 1.43743 0
M  V30 3605 H 348.354 -3.13175 2.7564 0
M  V30 3606 H 346.984 -2.75744 1.67825 0
M  V30 3607 H 346.036 -1.2688 3.58616 0
M  V30 3608 H 347.348 -1.86894 4.62463 0
M  V30 3609 H 346.502 -4.21062 4.36797 0
M  V30 3610 H 345.241 -3.65128 3.23315 0
M  V30 3611 H 344.246 -2.212 5.03339 0
M  V30 3612 H 345.471 -2.80043 6.1867 0
M  V30 3613 H 343.417 -4.52436 4.75014 0
M  V30 3614 H 343.334 -4.01614 6.40501 0
M  V30 3615 H 344.602 -5.0932 5.90096 0
M  V30 3616 N 348.832 -1.54138 -0.328536 0
M  V30 3617 C 349.795 -1.82462 -1.38709 0
M  V30 3618 C 350.795 -0.696229 -1.44946 0
M  V30 3619 O 351.985 -0.964535 -1.4506 0
M  V30 3620 C 349.117 -1.98018 -2.77492 0
M  V30 3621 H 350.31 -2.77037 -1.14851 0
M  V30 3622 H 347.863 -1.45779 -0.563751 0
M  V30 3623 H 348.598 -1.05637 -3.06613 0
M  V30 3624 H 348.383 -2.80124 -2.74359 0
M  V30 3625 H 349.873 -2.21396 -3.54081 0
M  V30 3626 N 350.31 0.590341 -1.46126 0
M  V30 3627 C 351.721 1.17243 -1.45296 0
M  V30 3628 C 352.072 1.95281 -0.189723 0
M  V30 3629 O 351.197 2.04502 0.707674 0
M  V30 3630 C 351.792 2.13284 -2.6324 0
M  V30 3631 C 350.351 2.66832 -2.65476 0
M  V30 3632 C 349.498 1.42557 -2.3785 0
M  V30 3633 H 352.449 0.378692 -1.54116 0
M  V30 3634 H 352.47 2.96619 -2.38323 0
M  V30 3635 H 351.982 1.56459 -3.55165 0
M  V30 3636 H 350.083 3.27548 -1.77603 0
M  V30 3637 H 350.196 3.10088 -3.65215 0
M  V30 3638 H 348.56 1.72107 -1.87753 0
M  V30 3639 H 349.343 0.875741 -3.31942 0
M  V30 3640 N 351.788 1.33704 0.83433 0
M  V30 3641 C 353.204 1.13137 1.12571 0
M  V30 3642 C 353.404 -0.0747261 2.01361 0
M  V30 3643 O 352.46 -0.753647 2.4099 0
M  V30 3644 C 353.773 2.42105 1.78342 0
M  V30 3645 C 355.321 2.48054 1.90888 0
M  V30 3646 C 355.796 3.76995 2.60075 0
M  V30 3647 N 357.287 3.78092 2.67584 0
M  V30 3648 C 358.022 4.74574 3.21818 0
M  V30 3649 N 357.518 5.81434 3.76705 0
M  V30 3650 N 359.311 4.62044 3.20112 0
M  V30 3651 H 351.462 2.11 0.243489 0
M  V30 3652 H 353.725 0.932532 0.17055 0
M  V30 3653 H 353.431 3.30391 1.20561 0
M  V30 3654 H 353.305 2.54594 2.7832 0
M  V30 3655 H 355.692 1.60215 2.47821 0
M  V30 3656 H 355.773 2.39502 0.898459 0
M  V30 3657 H 355.417 4.65219 2.03799 0
M  V30 3658 H 355.347 3.82825 3.61597 0
M  V30 3659 H 357.838 3.00865 2.28667 0
M  V30 3660 H 358.151 6.51084 4.16305 0
M  V30 3661 H 356.496 5.85163 3.7498 0
M  V30 3662 H 359.687 3.77716 2.76493 0
M  V30 3663 H 359.86 5.37406 3.62076 0
M  V30 3664 N 353.266 -1.05314 1.17247 0
M  V30 3665 C 354.677 -1.59753 0.96623 0
M  V30 3666 C 355.028 -1.9005 -0.487378 0
M  V30 3667 O 354.153 -1.68126 -1.36245 0
M  V30 3668 C 354.748 -2.90249 1.74759 0
M  V30 3669 C 353.307 -3.41352 1.58606 0
M  V30 3670 C 352.454 -2.15103 1.75002 0
M  V30 3671 H 355.405 -0.881406 1.31973 0
M  V30 3672 H 355.426 -3.60097 1.22925 0
M  V30 3673 H 354.938 -2.68166 2.8055 0
M  V30 3674 H 353.039 -3.68474 0.552985 0
M  V30 3675 H 353.152 -4.16019 2.37624 0
M  V30 3676 H 351.516 -2.25804 1.17833 0
M  V30 3677 H 352.299 -1.95491 2.82202 0
M  V30 3678 N 354.744 -0.972509 -1.24016 0
M  V30 3679 C 355.707 -0.511403 -2.23422 0
M  V30 3680 C 356.707 0.394679 -1.55881 0
M  V30 3681 O 357.897 0.189469 -1.73167 0
M  V30 3682 C 355.029 0.258769 -3.39916 0
M  V30 3683 H 356.222 -1.39024 -2.6573 0
M  V30 3684 H 353.775 -0.757585 -1.36713 0
M  V30 3685 H 354.51 1.1545 -3.03054 0
M  V30 3686 H 354.295 -0.391522 -3.9014 0
M  V30 3687 H 355.785 0.570244 -4.13688 0
M  V30 3688 N 356.222 1.38976 -0.743202 0
M  V30 3689 C 357.185 2.28901 -0.117014 0
M  V30 3690 C 358.185 1.46698 0.658503 0
M  V30 3691 O 359.375 1.67274 0.486305 0
M  V30 3692 C 356.507 3.30309 0.84315 0
M  V30 3693 H 357.7 2.8578 -0.909373 0
M  V30 3694 H 355.253 1.47761 -0.509547 0
M  V30 3695 H 355.988 2.785 1.66157 0
M  V30 3696 H 355.773 3.91029 0.289594 0
M  V30 3697 H 357.263 3.97577 1.2776 0
M  V30 3698 N 357.7 0.491464 1.49741 0
M  V30 3699 C 359.116 0.146835 1.58923 0
M  V30 3700 C 359.316 -1.34804 1.49767 0
M  V30 3701 O 358.372 -2.12317 1.36667 0
M  V30 3702 C 359.685 0.715157 2.92072 0
M  V30 3703 C 361.233 0.680407 3.05515 0
M  V30 3704 C 361.708 1.22663 4.41269 0
M  V30 3705 N 363.199 1.18691 4.47735 0
M  V30 3706 C 363.934 1.57984 5.51207 0
M  V30 3707 N 363.43 2.04824 6.6183 0
M  V30 3708 N 365.223 1.49459 5.41866 0
M  V30 3709 H 357.374 1.46347 1.53936 0
M  V30 3710 H 359.637 0.606453 0.728642 0
M  V30 3711 H 359.343 1.76317 3.04311 0
M  V30 3712 H 359.217 0.17018 3.76816 0
M  V30 3713 H 361.604 -0.358743 2.92911 0
M  V30 3714 H 361.685 1.26242 2.22478 0
M  V30 3715 H 361.329 2.26451 4.54623 0
M  V30 3716 H 361.259 0.620637 5.2293 0
M  V30 3717 H 363.75 0.843605 3.68364 0
M  V30 3718 H 364.063 2.32901 7.3687 0
M  V30 3719 H 362.408 2.08791 6.62896 0
M  V30 3720 H 365.599 1.12692 4.54333 0
M  V30 3721 H 365.772 1.80406 6.22381 0
M  V30 3722 N 359.178 -1.55987 0.224894 0
M  V30 3723 C 360.594 -1.59066 -0.130426 0
M  V30 3724 C 360.794 -1.24176 -1.5869 0
M  V30 3725 O 359.85 -0.978592 -2.32766 0
M  V30 3726 C 361.163 -3.00042 0.198883 0
M  V30 3727 C 362.711 -3.1268 0.141391 0
M  V30 3728 C 363.186 -4.55839 0.444422 0
M  V30 3729 N 364.677 -4.6152 0.394115 0
M  V30 3730 C 365.412 -5.70231 0.602038 0
M  V30 3731 N 364.908 -6.87291 0.871914 0
M  V30 3732 N 366.701 -5.59555 0.534245 0
M  V30 3733 H 358.852 -1.76941 1.17497 0
M  V30 3734 H 361.115 -0.822604 0.471197 0
M  V30 3735 H 360.821 -3.30234 1.2099 0
M  V30 3736 H 360.695 -3.74075 -0.484535 0
M  V30 3737 H 363.082 -2.82283 -0.860265 0
M  V30 3738 H 363.163 -2.40969 0.858335 0
M  V30 3739 H 362.807 -4.86954 1.44353 0
M  V30 3740 H 362.737 -5.2578 -0.293752 0
M  V30 3741 H 365.228 -3.77405 0.193356 0
M  V30 3742 H 365.541 -7.66058 1.01858 0
M  V30 3743 H 363.886 -6.89028 0.909145 0
M  V30 3744 H 367.077 -4.6698 0.323612 0
M  V30 3745 H 367.25 -6.44211 0.699693 0
M  V30 3746 N 360.656 0.0484629 -1.57525 0
M  V30 3747 C 361.603 1.05504 -2.05275 0
M  V30 3748 C 362.573 1.37084 -0.937927 0
M  V30 3749 O 363.758 1.47754 -1.2072 0
M  V30 3750 C 360.898 2.35676 -2.52093 0
M  V30 3751 C 360.011 2.10423 -3.77288 0
M  V30 3752 C 359.146 3.34327 -4.12794 0
M  V30 3753 C 358.185 3.04542 -5.30962 0
M  V30 3754 N 357.322 4.20841 -5.61994 0
M  V30 3755 H 362.162 0.640885 -2.91027 0
M  V30 3756 H 359.699 0.304854 -1.43906 0
M  V30 3757 H 361.657 3.11709 -2.77297 0
M  V30 3758 H 360.287 2.7485 -1.69285 0
M  V30 3759 H 359.339 1.24976 -3.59284 0
M  V30 3760 H 360.651 1.84438 -4.63448 0
M  V30 3761 H 359.805 4.1874 -4.39024 0
M  V30 3762 H 358.544 3.63408 -3.25247 0
M  V30 3763 H 357.549 2.18528 -5.04505 0
M  V30 3764 H 358.774 2.76758 -6.20146 0
M  V30 3765 H 356.72 4.4991 -4.77406 0
M  V30 3766 H 356.637 3.98212 -6.42622 0
M  V30 3767 H 357.905 5.06184 -5.92789 0
M  V30 3768 N 362.134 1.5431 0.320358 0
M  V30 3769 C 363.097 1.83195 1.3774 0
M  V30 3770 C 364.097 0.703906 1.44575 0
M  V30 3771 O 365.287 0.972214 1.44546 0
M  V30 3772 C 362.419 1.99487 2.76438 0
M  V30 3773 H 363.612 2.77642 1.1338 0
M  V30 3774 H 361.165 1.46076 0.556012 0
M  V30 3775 H 361.9 1.07262 3.06048 0
M  V30 3776 H 361.685 2.81575 2.7287 0
M  V30 3777 H 363.175 2.23271 3.52902 0
M  V30 3778 N 363.613 -0.582584 1.46437 0
M  V30 3779 C 365.029 -0.905962 1.31394 0
M  V30 3780 C 365.229 -1.99468 0.285476 0
M  V30 3781 O 364.285 -2.50566 -0.311914 0
M  V30 3782 C 365.598 -1.3232 2.70022 0
M  V30 3783 C 367.146 -1.43604 2.78113 0
M  V30 3784 C 367.621 -1.88694 4.17323 0
M  V30 3785 N 369.112 -1.95887 4.19741 0
M  V30 3786 C 369.847 -2.32051 5.24347 0
M  V30 3787 N 369.343 -2.67006 6.39281 0
M  V30 3788 N 371.136 -2.32606 5.11713 0
M  V30 3789 H 363.287 0.1366 2.1196 0
M  V30 3790 H 365.55 -0.00155736 0.947999 0
M  V30 3791 H 365.256 -0.597242 3.46592 0
M  V30 3792 H 365.13 -2.28469 3.00136 0
M  V30 3793 H 367.517 -2.15286 2.01832 0
M  V30 3794 H 367.598 -0.457059 2.51684 0
M  V30 3795 H 367.242 -1.1759 4.941 0
M  V30 3796 H 367.172 -2.8755 4.4116 0
M  V30 3797 H 369.663 -1.71362 3.36814 0
M  V30 3798 H 369.976 -2.93554 7.14875 0
M  V30 3799 H 368.321 -2.64644 6.42642 0
M  V30 3800 H 371.512 -2.04721 4.2096 0
M  V30 3801 H 371.685 -2.60462 5.93349 0
M  V30 3802 N 365.091 -1.34144 -0.827227 0
M  V30 3803 C 366.507 -1.13732 -1.11969 0
M  V30 3804 C 366.707 0.0640463 -2.01398 0
M  V30 3805 O 365.763 0.740856 -2.41387 0
M  V30 3806 C 367.076 -2.43047 -1.77055 0
M  V30 3807 C 368.624 -2.49063 -1.89569 0
M  V30 3808 C 369.099 -3.78369 -2.58072 0
M  V30 3809 N 370.59 -3.79505 -2.65575 0
M  V30 3810 C 371.325 -4.76274 -3.19297 0
M  V30 3811 N 370.821 -5.83424 -3.73616 0
M  V30 3812 N 372.614 -4.63735 -3.17658 0
M  V30 3813 H 364.765 -2.11126 -0.232296 0
M  V30 3814 H 367.028 -0.933424 -0.165602 0
M  V30 3815 H 366.734 -3.31025 -1.18807 0
M  V30 3816 H 366.608 -2.56066 -2.76966 0
M  V30 3817 H 368.995 -1.61527 -2.46968 0
M  V30 3818 H 369.076 -2.39975 -0.885745 0
M  V30 3819 H 368.72 -4.66293 -2.01329 0
M  V30 3820 H 368.65 -3.84737 -3.59562 0
M  V30 3821 H 371.141 -3.02074 -2.27068 0
M  V30 3822 H 371.454 -6.53282 -4.12846 0
M  V30 3823 H 369.799 -5.87143 -3.71871 0
M  V30 3824 H 372.99 -3.79177 -2.74486 0
M  V30 3825 H 373.163 -5.39318 -3.59221 0
M  V30 3826 N 366.569 1.04691 -1.17803 0
M  V30 3827 C 367.499 2.14494 -0.92275 0
M  V30 3828 C 368.48 1.69546 0.137179 0
M  V30 3829 O 369.665 1.94195 -0.0141108 0
M  V30 3830 C 366.795 3.44491 -0.440803 0
M  V30 3831 C 365.749 4.03031 -1.4405 0
M  V30 3832 C 365.075 5.28432 -0.81631 0
M  V30 3833 C 366.375 4.39932 -2.81527 0
M  V30 3834 H 368.069 2.36107 -1.84103 0
M  V30 3835 H 365.615 1.1347 -0.886599 0
M  V30 3836 H 367.568 4.2066 -0.249602 0
M  V30 3837 H 366.292 3.22546 0.513025 0
M  V30 3838 H 364.951 3.28937 -1.61853 0
M  V30 3839 H 364.599 5.02792 0.144511 0
M  V30 3840 H 364.299 5.68559 -1.48371 0
M  V30 3841 H 365.823 6.07284 -0.635496 0
M  V30 3842 H 367.237 5.07113 -2.67412 0
M  V30 3843 H 365.634 4.9109 -3.44892 0
M  V30 3844 H 366.704 3.50045 -3.35554 0
M  V30 3845 N 368.047 0.979072 1.23499 0
M  V30 3846 C 368.977 0.537606 2.27227 0
M  V30 3847 C 369.958 -0.428539 1.64613 0
M  V30 3848 O 371.143 -0.322191 1.91509 0
M  V30 3849 C 368.273 -0.162052 3.46922 0
M  V30 3850 C 367.227 0.721242 4.21879 0
M  V30 3851 C 366.553 -0.110555 5.34586 0
M  V30 3852 C 367.853 2.01141 4.82016 0
M  V30 3853 H 369.547 1.40462 2.64406 0
M  V30 3854 H 367.093 0.67684 1.27102 0
M  V30 3855 H 369.046 -0.482192 4.18632 0
M  V30 3856 H 367.77 -1.06351 3.08799 0
M  V30 3857 H 366.429 1.02482 3.51984 0
M  V30 3858 H 366.077 -1.0125 4.92704 0
M  V30 3859 H 365.777 0.477325 5.85658 0
M  V30 3860 H 367.301 -0.425107 6.09118 0
M  V30 3861 H 368.715 1.75612 5.45741 0
M  V30 3862 H 367.112 2.54695 5.43369 0
M  V30 3863 H 368.182 2.69909 4.02836 0
M  V30 3864 N 369.525 -1.3858 0.750561 0
M  V30 3865 C 370.472 -2.30483 0.120835 0
M  V30 3866 C 371.442 -1.50022 -0.712923 0
M  V30 3867 O 372.627 -1.78662 -0.669676 0
M  V30 3868 C 369.767 -3.36431 -0.768666 0
M  V30 3869 C 368.88 -4.31927 0.0793922 0
M  V30 3870 C 368.015 -5.24944 -0.81283 0
M  V30 3871 C 367.054 -6.12088 0.0390447 0
M  V30 3872 N 366.191 -6.97412 -0.809969 0
M  V30 3873 H 371.031 -2.83761 0.91015 0
M  V30 3874 H 368.568 -1.39707 0.460463 0
M  V30 3875 H 370.526 -3.96462 -1.29898 0
M  V30 3876 H 369.156 -2.8457 -1.5238 0
M  V30 3877 H 368.208 -3.73382 0.727303 0
M  V30 3878 H 369.52 -4.93319 0.737401 0
M  V30 3879 H 368.674 -5.90078 -1.41042 0
M  V30 3880 H 367.413 -4.63911 -1.50458 0
M  V30 3881 H 366.418 -5.45952 0.649328 0
M  V30 3882 H 367.643 -6.75189 0.727809 0
M  V30 3883 H 365.589 -6.38931 -1.48672 0
M  V30 3884 H 365.506 -7.55712 -0.208789 0
M  V30 3885 H 366.774 -7.66959 -1.39263 0
M  V30 3886 N 371.003 -0.499398 -1.49478 0
M  V30 3887 C 372.231 0.0425456 -2.06856 0
M  V30 3888 C 372.646 1.30964 -1.35992 0
M  V30 3889 O 372.003 1.77172 -0.437762 0
M  V30 3890 C 372.054 0.301735 -3.60239 0
M  V30 3891 O 371.775 -0.915127 -4.28436 0
M  V30 3892 C 373.276 0.887499 -4.34325 0
M  V30 3893 H 370.496 -0.0197482 -0.670709 0
M  V30 3894 H 373.04 -0.696297 -1.92281 0
M  V30 3895 H 371.195 0.990556 -3.74522 0
M  V30 3896 H 371.609 -0.676993 -5.20113 0
M  V30 3897 H 373.083 1.01845 -5.42523 0
M  V30 3898 H 373.56 1.88488 -3.96698 0
M  V30 3899 H 374.166 0.236196 -4.24644 0
M  V30 3900 N 372.481 1.55866 -0.233164 0
M  V30 3901 C 373.727 1.98897 0.395959 0
M  V30 3902 C 374.06 1.12091 1.58585 0
M  V30 3903 O 373.335 0.181182 1.93654 0
M  V30 3904 C 373.618 3.50658 0.819224 0
M  V30 3905 C 373.471 4.48233 -0.375109 0
M  V30 3906 C 374.79 4.07135 1.67121 0
M  V30 3907 H 371.909 0.723102 0.142451 0
M  V30 3908 H 374.551 1.87082 -0.331725 0
M  V30 3909 H 372.701 3.60857 1.43925 0
M  V30 3910 H 374.373 4.50031 -1.01341 0
M  V30 3911 H 372.616 4.21624 -1.02058 0
M  V30 3912 H 373.287 5.51988 -0.0358328 0
M  V30 3913 H 375.763 3.99952 1.14795 0
M  V30 3914 H 374.639 5.13615 1.93625 0
M  V30 3915 H 374.9 3.54736 2.63846 0
M  V30 3916 N 373.959 -0.0401083 1.57549 0
M  V30 3917 C 374.889 -1.04384 2.08869 0
M  V30 3918 C 375.87 -1.38407 0.988817 0
M  V30 3919 O 377.055 -1.47483 1.26342 0
M  V30 3920 C 374.185 -2.34808 2.55895 0
M  V30 3921 C 373.139 -2.15057 3.70047 0
M  V30 3922 C 372.465 -3.51145 4.03239 0
M  V30 3923 C 373.765 -1.54576 4.98902 0
M  V30 3924 H 375.459 -0.616666 2.92981 0
M  V30 3925 H 373.005 -0.295184 1.40942 0
M  V30 3926 H 374.958 -3.05346 2.90417 0
M  V30 3927 H 373.682 -2.79565 1.68853 0
M  V30 3928 H 372.341 -1.46954 3.35857 0
M  V30 3929 H 371.989 -3.93529 3.13279 0
M  V30 3930 H 371.689 -3.38758 4.80122 0
M  V30 3931 H 373.213 -4.23062 4.40285 0
M  V30 3932 H 374.627 -2.15017 5.31451 0
M  V30 3933 H 373.024 -1.52796 5.80322 0
M  V30 3934 H 374.094 -0.51039 4.82206 0
M  V30 3935 N 375.437 -1.54477 -0.31217 0
M  V30 3936 C 376.37 -1.79519 -1.40884 0
M  V30 3937 C 377.348 -0.645753 -1.49227 0
M  V30 3938 O 378.532 -0.884468 -1.66461 0
M  V30 3939 C 375.659 -1.92194 -2.78889 0
M  V30 3940 C 374.705 -3.14555 -2.88023 0
M  V30 3941 S 375.538 -4.72893 -2.51262 0
M  V30 3942 C 376.694 -4.8849 -3.91317 0
M  V30 3943 H 376.927 -2.72256 -1.19432 0
M  V30 3944 H 374.46 -1.45746 -0.509654 0
M  V30 3945 H 376.418 -2.00182 -3.58382 0
M  V30 3946 H 375.079 -1.00414 -2.97617 0
M  V30 3947 H 374.272 -3.20193 -3.89221 0
M  V30 3948 H 373.874 -3.04955 -2.16514 0
M  V30 3949 H 376.166 -4.71826 -4.86196 0
M  V30 3950 H 377.109 -5.90588 -3.90656 0
M  V30 3951 H 377.517 -4.16715 -3.80801 0
M  V30 3952 N 376.915 0.57481 -1.46744 0
M  V30 3953 C 378.164 1.32898 -1.51727 0
M  V30 3954 C 378.477 1.948 -0.176692 0
M  V30 3955 O 379.683 2.71299 -0.104385 0
M  V30 3956 C 378.139 2.40901 -2.67385 0
M  V30 3957 C 377.747 1.85266 -4.07898 0
M  V30 3958 C 379.491 3.17609 -2.81646 0
M  V30 3959 C 377.398 2.90945 -5.14883 0
M  V30 3960 H 376.328 0.499631 -0.564699 0
M  V30 3961 H 378.979 0.612536 -1.72975 0
M  V30 3962 H 377.361 3.15379 -2.39483 0
M  V30 3963 H 378.535 1.17278 -4.45626 0
M  V30 3964 H 376.85 1.21199 -3.98371 0
M  V30 3965 H 379.447 3.96493 -3.58744 0
M  V30 3966 H 379.79 3.70696 -1.89448 0
M  V30 3967 H 380.323 2.50239 -3.09233 0
M  V30 3968 H 377.062 2.42736 -6.089 0
M  V30 3969 H 376.582 3.57398 -4.81691 0
M  V30 3970 H 378.261 3.54755 -5.41071 0
M  V30 3971 N 378.394 1.34581 0.820102 0
M  V30 3972 C 379.324 1.29038 1.94606 0
M  V30 3973 C 380.305 0.1673 1.69275 0
M  V30 3974 O 381.49 0.360112 1.90832 0
M  V30 3975 C 378.62 1.04793 3.31113 0
M  V30 3976 C 377.574 2.13597 3.70891 0
M  V30 3977 C 376.9 1.74537 5.05412 0
M  V30 3978 C 378.2 3.55451 3.8269 0
M  V30 3979 H 379.894 2.23248 1.99501 0
M  V30 3980 H 377.44 1.0747 0.958449 0
M  V30 3981 H 379.393 0.995592 4.0947 0
M  V30 3982 H 378.117 0.0702565 3.26524 0
M  V30 3983 H 376.776 2.17905 2.9481 0
M  V30 3984 H 376.424 0.754226 4.97313 0
M  V30 3985 H 376.124 2.47361 5.32997 0
M  V30 3986 H 377.648 1.70803 5.86224 0
M  V30 3987 H 379.062 3.5354 4.51312 0
M  V30 3988 H 377.459 4.26922 4.21732 0
M  V30 3989 H 378.529 3.92587 2.84611 0
M  V30 3990 N 379.872 -1.04064 1.18357 0
M  V30 3991 C 380.802 -2.14001 0.934113 0
M  V30 3992 C 381.783 -1.69616 -0.128186 0
M  V30 3993 O 382.968 -1.94185 0.0244093 0
M  V30 3994 C 380.098 -3.44253 0.459066 0
M  V30 3995 C 379.052 -4.02261 1.46185 0
M  V30 3996 C 378.378 -5.27992 0.844322 0
M  V30 3997 C 379.678 -4.38432 2.83856 0
M  V30 3998 H 381.372 -2.35127 1.85352 0
M  V30 3999 H 378.918 -1.12998 0.892604 0
M  V30 4000 H 380.871 -4.20522 0.271907 0
M  V30 4001 H 379.595 -3.22813 -0.495912 0
M  V30 4002 H 378.254 -3.28074 1.63595 0
M  V30 4003 H 377.902 -5.02862 -0.117845 0
M  V30 4004 H 377.602 -5.67765 1.51384 0
M  V30 4005 H 379.126 -6.06938 0.667693 0
M  V30 4006 H 380.54 -5.05688 2.70098 0
M  V30 4007 H 378.937 -4.89254 3.47491 0
M  V30 4008 H 380.007 -3.4826 3.37406 0
M  V30 4009 N 381.35 -0.985608 -1.22978 0
M  V30 4010 C 382.313 -0.535071 -2.22867 0
M  V30 4011 C 383.313 0.378123 -1.56291 0
M  V30 4012 O 384.503 0.171092 -1.73358 0
M  V30 4013 C 381.635 0.222702 -3.40172 0
M  V30 4014 H 382.828 -1.41835 -2.6424 0
M  V30 4015 H 380.381 -0.772042 -1.35901 0
M  V30 4016 H 381.116 1.12229 -3.04262 0
M  V30 4017 H 380.901 -0.43288 -3.89703 0
M  V30 4018 H 382.391 0.526335 -4.1427 0
M  V30 4019 N 382.828 1.3818 -0.7579 0
M  V30 4020 C 384.075 2.00019 -0.315985 0
M  V30 4021 C 384.403 1.60163 1.10355 0
M  V30 4022 O 383.658 0.83264 1.77103 0
M  V30 4023 C 383.957 3.55252 -0.391218 0
M  V30 4024 C 383.623 4.14834 -1.76702 0
M  V30 4025 C 382.285 4.30821 -2.14353 0
M  V30 4026 C 384.637 4.47658 -2.66931 0
M  V30 4027 C 381.965 4.76928 -3.41696 0
M  V30 4028 C 384.317 4.95184 -3.93669 0
M  V30 4029 C 382.981 5.09377 -4.31383 0
M  V30 4030 H 382.251 0.731923 -0.115627 0
M  V30 4031 H 384.898 1.65161 -0.969223 0
M  V30 4032 H 383.203 3.90273 0.34558 0
M  V30 4033 H 384.9 4.00988 -0.030805 0
M  V30 4034 H 381.49 4.02808 -1.46435 0
M  V30 4035 H 385.674 4.34904 -2.39106 0
M  V30 4036 H 380.93 4.86103 -3.70829 0
M  V30 4037 H 385.104 5.19551 -4.63724 0
M  V30 4038 H 382.731 5.44865 -5.30119 0
M  V30 4039 N 384.306 0.507319 1.49211 0
M  V30 4040 C 385.236 -0.256939 2.32082 0
M  V30 4041 C 386.217 -0.956609 1.40652 0
M  V30 4042 O 387.402 -0.946788 1.69557 0
M  V30 4043 C 384.532 -1.31802 3.21318 0
M  V30 4044 C 383.486 -0.737855 4.21592 0
M  V30 4045 C 382.812 -1.89992 4.99807 0
M  V30 4046 C 384.112 0.275325 5.21574 0
M  V30 4047 H 385.806 0.434798 2.96226 0
M  V30 4048 H 383.352 0.210546 1.42452 0
M  V30 4049 H 385.305 -1.86045 3.78107 0
M  V30 4050 H 384.029 -2.03903 2.5513 0
M  V30 4051 H 382.688 -0.217126 3.65956 0
M  V30 4052 H 382.336 -2.60877 4.30061 0
M  V30 4053 H 382.036 -1.51777 5.6766 0
M  V30 4054 H 383.56 -2.44657 5.59442 0
M  V30 4055 H 384.974 -0.179193 5.7302 0
M  V30 4056 H 383.371 0.573649 5.97352 0
M  V30 4057 H 384.441 1.18903 4.70096 0
M  V30 4058 N 385.784 -1.5574 0.241426 0
M  V30 4059 C 387.03 -1.99104 -0.385406 0
M  V30 4060 C 387.363 -1.1293 -1.57988 0
M  V30 4061 O 386.638 -0.191449 -1.93555 0
M  V30 4062 C 386.921 -3.51087 -0.800616 0
M  V30 4063 C 386.774 -4.48028 0.398874 0
M  V30 4064 C 388.093 -4.08015 -1.64959 0
M  V30 4065 H 385.212 -0.723848 -0.138614 0
M  V30 4066 H 387.854 -1.86903 0.341642 0
M  V30 4067 H 386.004 -3.61615 -1.4201 0
M  V30 4068 H 387.676 -4.49487 1.03726 0
M  V30 4069 H 385.919 -4.21077 1.04293 0
M  V30 4070 H 386.59 -5.51962 0.0651056 0
M  V30 4071 H 389.066 -4.00555 -1.12672 0
M  V30 4072 H 387.942 -5.14635 -1.90898 0
M  V30 4073 H 388.203 -3.56131 -2.61961 0
M  V30 4074 N 387.262 0.0317525 -1.57568 0
M  V30 4075 C 388.502 0.727979 -1.90997 0
M  V30 4076 C 388.866 1.72664 -0.839708 0
M  V30 4077 O 390.067 2.47092 -1.05825 0
M  V30 4078 C 388.338 1.38239 -3.29583 0
M  V30 4079 S 389.897 2.10814 -3.84841 0
M  V30 4080 H 386.715 0.241226 -0.668828 0
M  V30 4081 H 389.317 -0.0173037 -1.95492 0
M  V30 4082 H 388.021 0.642288 -4.05343 0
M  V30 4083 H 387.552 2.16628 -3.28384 0
M  V30 4084 H 389.567 3.3792 -3.63352 0
M  V30 4085 N 388.74 1.54641 0.303973 0
M  V30 4086 C 389.986 1.74969 1.03718 0
M  V30 4087 C 390.341 0.527461 1.85029 0
M  V30 4088 O 389.634 -0.480143 1.85486 0
M  V30 4089 C 389.828 2.97753 1.97681 0
M  V30 4090 C 389.657 4.318 1.25613 0
M  V30 4091 C 388.427 4.95616 0.984518 0
M  V30 4092 C 390.625 5.10021 0.662081 0
M  V30 4093 N 388.607 6.13455 0.233794 0
M  V30 4094 C 389.978 6.19984 0.0439736 0
M  V30 4095 C 392.033 4.94663 0.566835 0
M  V30 4096 C 390.736 7.16264 -0.66016 0
M  V30 4097 C 392.762 5.91271 -0.123637 0
M  V30 4098 C 392.124 7.00601 -0.730608 0
M  V30 4099 H 388.223 0.692873 0.362562 0
M  V30 4100 H 390.807 1.92116 0.316135 0
M  V30 4101 H 388.978 2.82036 2.6704 0
M  V30 4102 H 390.71 3.06621 2.64132 0
M  V30 4103 H 387.465 4.55921 1.28191 0
M  V30 4104 H 387.889 6.76879 -0.127996 0
M  V30 4105 H 392.531 4.10267 1.02181 0
M  V30 4106 H 390.249 8.00204 -1.12691 0
M  V30 4107 H 393.835 5.81466 -0.197236 0
M  V30 4108 H 392.715 7.7407 -1.2564 0
M  V30 4109 N 390.218 -0.567019 1.47046 0
M  V30 4110 C 391.466 -1.322 1.52864 0
M  V30 4111 C 391.787 -1.94088 0.188388 0
M  V30 4112 O 391.057 -1.7941 -0.786693 0
M  V30 4113 H 389.637 -0.490894 0.563056 0
M  V30 4114 H 392.299 -0.662879 1.83281 0
M  V30 4115 H 391.395 -2.12062 2.2899 0
M  V30 4116 N 391.696 -1.35014 -0.812953 0
M  V30 4117 C 393.107 -1.25035 -1.38648 0
M  V30 4118 C 393.458 0.119967 -1.95833 0
M  V30 4119 O 392.583 1.02069 -1.90816 0
M  V30 4120 C 393.178 -2.26394 -2.52054 0
M  V30 4121 C 391.737 -2.20175 -3.05287 0
M  V30 4122 C 390.884 -2.12451 -1.78213 0
M  V30 4123 H 393.835 -1.46235 -0.616516 0
M  V30 4124 H 393.856 -1.88672 -3.30429 0
M  V30 4125 H 393.368 -3.26116 -2.10404 0
M  V30 4126 H 391.469 -1.23841 -3.51417 0
M  V30 4127 H 391.582 -3.11863 -3.63701 0
M  V30 4128 H 389.946 -1.58328 -1.9951 0
M  V30 4129 H 390.729 -3.14024 -1.38723 0
M  V30 4130 N 393.175 1.03435 -1.18907 0
M  V30 4131 C 394.105 2.13503 -0.945448 0
M  V30 4132 C 395.086 1.69682 0.119189 0
M  V30 4133 O 396.271 1.94169 -0.034707 0
M  V30 4134 C 393.401 3.44004 -0.477316 0
M  V30 4135 C 392.355 4.0148 -1.48316 0
M  V30 4136 C 391.681 5.27537 -0.872311 0
M  V30 4137 C 392.981 4.36921 -2.86177 0
M  V30 4138 H 394.675 2.34141 -1.86597 0
M  V30 4139 H 392.221 1.12523 -0.898584 0
M  V30 4140 H 394.174 4.20372 -0.294204 0
M  V30 4141 H 392.898 3.23072 0.478786 0
M  V30 4142 H 391.557 3.27201 -1.65332 0
M  V30 4143 H 391.205 5.02917 0.0911752 0
M  V30 4144 H 390.905 5.66954 -1.54393 0
M  V30 4145 H 392.429 6.06576 -0.699871 0
M  V30 4146 H 393.843 5.04248 -2.72776 0
M  V30 4147 H 392.24 4.87405 -3.50081 0
M  V30 4148 H 393.31 3.46466 -3.39248 0
M  V30 4149 N 394.653 0.992116 1.22453 0
M  V30 4150 C 395.9 0.667534 1.91181 0
M  V30 4151 C 396.228 -0.800317 1.77271 0
M  V30 4152 O 395.483 -1.59421 1.13505 0
M  V30 4153 C 395.782 1.01832 3.42586 0
M  V30 4154 C 395.448 2.47831 3.76684 0
M  V30 4155 C 394.11 2.87729 3.85701 0
M  V30 4156 C 396.462 3.42466 3.92895 0
M  V30 4157 C 393.79 4.21252 4.08367 0
M  V30 4158 C 396.142 4.75648 4.17064 0
M  V30 4159 C 394.806 5.15288 4.24305 0
M  V30 4160 H 394.076 0.244268 0.699581 0
M  V30 4161 H 396.723 1.24816 1.45235 0
M  V30 4162 H 395.028 0.355769 3.90181 0
M  V30 4163 H 396.725 0.745228 3.94014 0
M  V30 4164 H 393.315 2.15905 3.70247 0
M  V30 4165 H 397.499 3.12814 3.85307 0
M  V30 4166 H 392.755 4.51554 4.122 0
M  V30 4167 H 396.929 5.48924 4.2855 0
M  V30 4168 H 394.556 6.18769 4.41621 0
M  V30 4169 N 396.131 -1.37776 0.765217 0
M  V30 4170 C 397.379 -1.99454 0.325943 0
M  V30 4171 C 397.7 -1.61049 -1.09947 0
M  V30 4172 O 396.97 -0.872821 -1.75381 0
M  V30 4173 H 395.55 -0.737697 0.117525 0
M  V30 4174 H 398.212 -1.68359 0.981895 0
M  V30 4175 H 397.308 -3.09547 0.398353 0
M  V30 4176 N 397.609 -0.515225 -1.4894 0
M  V30 4177 C 398.539 0.244628 -2.32215 0
M  V30 4178 C 399.52 0.949136 -1.41157 0
M  V30 4179 O 400.705 0.937783 -1.70057 0
M  V30 4180 C 397.835 1.30096 -3.22013 0
M  V30 4181 C 396.789 0.715486 -4.21977 0
M  V30 4182 C 396.115 1.87339 -5.00808 0
M  V30 4183 C 397.415 -0.302982 -5.2142 0
M  V30 4184 H 399.109 -0.450501 -2.95991 0
M  V30 4185 H 396.655 -0.218098 -1.42339 0
M  V30 4186 H 398.608 1.84037 -3.79089 0
M  V30 4187 H 397.332 2.02547 -2.56207 0
M  V30 4188 H 395.991 0.197715 -3.66066 0
M  V30 4189 H 395.639 2.58592 -4.31438 0
M  V30 4190 H 395.339 1.48764 -5.68457 0
M  V30 4191 H 396.863 2.41686 -5.60732 0
M  V30 4192 H 398.277 0.148802 -5.73107 0
M  V30 4193 H 396.674 -0.60532 -5.97039 0
M  V30 4194 H 397.744 -1.21395 -4.69459 0
M  V30 4195 N 399.087 1.5561 -0.249682 0
M  V30 4196 C 400.017 2.24477 0.642826 0
M  V30 4197 C 400.998 1.22601 1.17911 0
M  V30 4198 O 402.183 1.5126 1.21795 0
M  V30 4199 C 399.313 2.94638 1.83863 0
M  V30 4200 C 398.267 4.03227 1.435 0
M  V30 4201 C 397.593 4.60828 2.71186 0
M  V30 4202 C 398.893 5.18796 0.604002 0
M  V30 4203 H 400.587 2.99321 0.0685625 0
M  V30 4204 H 398.133 1.43965 0.0315363 0
M  V30 4205 H 400.086 3.41517 2.46868 0
M  V30 4206 H 398.81 2.17287 2.43832 0
M  V30 4207 H 397.469 3.57121 0.828275 0
M  V30 4208 H 397.117 3.80174 3.29358 0
M  V30 4209 H 396.817 5.34132 2.44901 0
M  V30 4210 H 398.341 5.10442 3.35084 0
M  V30 4211 H 399.755 5.61883 1.13842 0
M  V30 4212 H 398.152 5.98506 0.437097 0
M  V30 4213 H 399.222 4.83384 -0.383147 0
M  V30 4214 N 400.565 -0.0233959 1.57583 0
M  V30 4215 C 401.495 -1.02162 2.09965 0
M  V30 4216 C 402.476 -1.3735 1.00344 0
M  V30 4217 O 403.661 -1.46135 1.27899 0
M  V30 4218 C 400.791 -2.32081 2.58371 0
M  V30 4219 C 399.745 -2.1112 3.72307 0
M  V30 4220 C 399.071 -3.46848 4.06941 0
M  V30 4221 C 400.371 -1.49276 5.00514 0
M  V30 4222 H 402.065 -0.585557 2.93618 0
M  V30 4223 H 399.611 -0.280218 1.41247 0
M  V30 4224 H 401.564 -3.02249 2.93639 0
M  V30 4225 H 400.288 -2.77758 1.71808 0
M  V30 4226 H 398.947 -1.43384 3.37397 0
M  V30 4227 H 398.595 -3.90184 3.17436 0
M  V30 4228 H 398.295 -3.33646 4.83688 0
M  V30 4229 H 399.819 -4.18369 4.44747 0
M  V30 4230 H 401.233 -2.09368 5.33702 0
M  V30 4231 H 399.63 -1.46632 5.8191 0
M  V30 4232 H 400.7 -0.459217 4.82721 0
M  V30 4233 N 402.043 -1.548 -0.295768 0
M  V30 4234 C 403.006 -1.85363 -1.34808 0
M  V30 4235 C 404.006 -0.726817 -1.43436 0
M  V30 4236 O 405.196 -0.995088 -1.42981 0
M  V30 4237 C 402.328 -2.03859 -2.73229 0
M  V30 4238 H 403.521 -2.7941 -1.08949 0
M  V30 4239 H 401.074 -1.46942 -0.532702 0
M  V30 4240 H 401.809 -1.12117 -3.04303 0
M  V30 4241 H 401.594 -2.8588 -2.68356 0
M  V30 4242 H 403.084 -2.28857 -3.49305 0
M  V30 4243 N 403.521 0.559213 -1.47345 0
M  V30 4244 C 404.798 1.31997 -1.44348 0
M  V30 4245 C 405.178 2.1064 -0.139358 0
M  V30 4246 O 404.526 2.1091 0.879153 0
M  V30 4247 C 404.736 2.22618 -2.68779 0
M  V30 4248 C 406.084 2.83701 -3.1591 0
M  V30 4249 O 407.108 2.32921 -2.69493 0
M  V30 4250 O 405.967 3.75993 -3.966 0
M  V30 4251 H 403.061 0.594251 -0.575147 0
M  V30 4252 H 405.607 0.578282 -1.59543 0
M  V30 4253 H 404.379 1.64093 -3.55231 0
M  V30 4254 H 404.002 3.04085 -2.5616 0
M  V30 4255 N 404.999 1.35443 0.805782 0
M  V30 4256 C 406.245 1.28952 1.56522 0
M  V30 4257 C 406.578 -0.135597 1.93726 0
M  V30 4258 O 405.853 -1.08516 1.61414 0
M  V30 4259 C 406.136 2.19678 2.85331 0
M  V30 4260 C 405.989 3.7081 2.54598 0
M  V30 4261 C 407.308 2.09495 3.8704 0
M  V30 4262 H 404.427 0.469764 0.567883 0
M  V30 4263 H 407.069 1.65851 0.927001 0
M  V30 4264 H 405.219 1.8834 3.39795 0
M  V30 4265 H 406.891 4.12593 2.06312 0
M  V30 4266 H 405.134 3.91051 1.8778 0
M  V30 4267 H 405.805 4.29679 3.46525 0
M  V30 4268 H 408.281 2.37045 3.41978 0
M  V30 4269 H 407.157 2.75173 4.74943 0
M  V30 4270 H 407.418 1.07714 4.28777 0
M  V30 4271 N 406.477 -1.02803 1.19454 0
M  V30 4272 C 407.724 -1.76217 0.997693 0
M  V30 4273 C 408.052 -1.887 -0.47144 0
M  V30 4274 O 407.307 -1.4011 -1.3663 0
M  V30 4275 C 407.606 -3.18941 1.6128 0
M  V30 4276 C 407.272 -3.26463 3.11019 0
M  V30 4277 C 405.934 -3.28223 3.51885 0
M  V30 4278 C 408.286 -3.25542 4.07028 0
M  V30 4279 C 405.614 -3.26719 4.8731 0
M  V30 4280 C 407.966 -3.25579 5.42385 0
M  V30 4281 C 406.63 -3.25637 5.82681 0
M  V30 4282 H 405.9 -0.644823 0.365082 0
M  V30 4283 H 408.547 -1.20655 1.4871 0
M  V30 4284 H 406.852 -3.77587 1.04572 0
M  V30 4285 H 408.549 -3.74415 1.43577 0
M  V30 4286 H 405.139 -3.25822 2.78457 0
M  V30 4287 H 409.323 -3.23362 3.76498 0
M  V30 4288 H 404.579 -3.25089 5.1781 0
M  V30 4289 H 408.753 -3.23817 6.16535 0
M  V30 4290 H 406.38 -3.24226 6.87591 0
M  V30 4291 N 407.956 -0.998596 -1.21925 0
M  V30 4292 C 409.204 -0.676325 -1.90448 0
M  V30 4293 C 409.525 0.794719 -1.78071 0
M  V30 4294 O 408.795 1.5701 -1.17152 0
M  V30 4295 H 407.375 -0.247165 -0.704925 0
M  V30 4296 H 410.037 -1.26633 -1.48156 0
M  V30 4297 H 409.133 -0.943858 -2.97486 0
M  V30 4298 N 409.434 1.37368 -0.772513 0
M  V30 4299 C 410.659 2.0447 -0.347386 0
M  V30 4300 C 411.084 1.57882 1.0225 0
M  V30 4301 O 410.442 0.73941 1.65537 0
M  V30 4302 C 410.49 3.58369 -0.400479 0
M  V30 4303 O 409.594 4.0803 0.598789 0
M  V30 4304 H 408.935 0.646773 -0.15027 0
M  V30 4305 H 411.465 1.75667 -1.04892 0
M  V30 4306 H 411.475 4.07183 -0.258045 0
M  V30 4307 H 410.15 3.91633 -1.39986 0
M  V30 4308 H 408.727 3.70534 0.419411 0
M  V30 4309 N 410.912 0.523116 1.48665 0
M  V30 4310 C 411.86 -0.256859 2.31177 0
M  V30 4311 C 412.854 -0.94199 1.40794 0
M  V30 4312 O 414.06 -0.867157 1.57735 0
M  V30 4313 H 410.435 -0.1017 0.745091 0
M  V30 4314 H 412.406 0.458739 2.94853 0
M  V30 4315 C 411.155 -1.29503 3.22683 0
M  V30 4316 H 410.478 -0.777248 3.92172 0
M  V30 4317 H 411.918 -1.81233 3.83315 0
M  V30 4318 C 410.377 -2.32501 2.43813 0
M  V30 4319 O 410.907 -3.3881 2.15803 0
M  V30 4320 N 409.113 -2.05538 2.05432 0
M  V30 4321 H 408.66 -1.19104 2.28412 0
M  V30 4322 H 408.618 -2.74676 1.52973 0
M  V30 4323 N 412.39 -1.55475 0.257931 0
M  V30 4324 C 413.32 -2.24815 -0.630912 0
M  V30 4325 C 414.301 -1.23224 -1.17259 0
M  V30 4326 O 415.486 -1.51904 -1.20991 0
M  V30 4327 C 412.616 -2.95609 -1.82298 0
M  V30 4328 C 411.57 -4.03982 -1.41359 0
M  V30 4329 C 410.896 -4.6226 -2.68738 0
M  V30 4330 C 412.196 -5.19109 -0.57648 0
M  V30 4331 H 413.89 -2.99354 -0.0526878 0
M  V30 4332 H 411.436 -1.4398 -0.023901 0
M  V30 4333 H 413.389 -3.42822 -2.45054 0
M  V30 4334 H 412.113 -2.18577 -2.42676 0
M  V30 4335 H 410.772 -3.57555 -0.809324 0
M  V30 4336 H 410.42 -3.81915 -3.27338 0
M  V30 4337 H 410.12 -5.35424 -2.42065 0
M  V30 4338 H 411.644 -5.12212 -3.32372 0
M  V30 4339 H 413.058 -5.62479 -1.10861 0
M  V30 4340 H 411.455 -5.98729 -0.405351 0
M  V30 4341 H 412.525 -4.83174 0.408776 0
M  V30 4342 N 413.868 0.0150385 -1.57593 0
M  V30 4343 C 415.114 0.69849 -1.91031 0
M  V30 4344 C 415.469 1.72208 -0.85804 0
M  V30 4345 O 414.762 1.91147 0.131614 0
M  V30 4346 C 414.956 1.39686 -3.28972 0
M  V30 4347 C 414.785 0.442428 -4.47518 0
M  V30 4348 C 413.555 0.0583223 -5.05266 0
M  V30 4349 C 415.753 -0.285072 -5.13509 0
M  V30 4350 N 413.735 -0.895893 -6.07328 0
M  V30 4351 C 415.106 -1.09447 -6.10263 0
M  V30 4352 C 417.161 -0.350518 -4.96665 0
M  V30 4353 C 415.864 -1.96333 -6.91987 0
M  V30 4354 C 417.89 -1.20655 -5.78962 0
M  V30 4355 C 417.252 -2.00383 -6.75297 0
M  V30 4356 H 413.351 0.22926 -0.747639 0
M  V30 4357 H 415.935 -0.0417748 -1.94655 0
M  V30 4358 H 414.106 2.1075 -3.2625 0
M  V30 4359 H 415.838 2.03381 -3.49883 0
M  V30 4360 H 412.593 0.423506 -4.71703 0
M  V30 4361 H 413.017 -1.36792 -6.63036 0
M  V30 4362 H 417.659 0.251596 -4.22051 0
M  V30 4363 H 415.377 -2.57618 -7.65936 0
M  V30 4364 H 418.963 -1.2609 -5.67972 0
M  V30 4365 H 417.843 -2.65552 -7.3787 0
M  V30 4366 N 415.346 1.54954 0.287554 0
M  V30 4367 C 416.309 1.86076 1.33823 0
M  V30 4368 C 417.309 0.734414 1.43049 0
M  V30 4369 O 418.499 1.00266 1.42452 0
M  V30 4370 C 415.631 2.05305 2.72144 0
M  V30 4371 H 416.824 2.79984 1.07465 0
M  V30 4372 H 414.377 1.47223 0.524902 0
M  V30 4373 H 415.112 1.1373 3.03704 0
M  V30 4374 H 414.897 2.873 2.66836 0
M  V30 4375 H 416.387 2.30706 3.48087 0
M  V30 4376 N 416.824 -0.551391 1.4764 0
M  V30 4377 C 417.756 -1.67333 1.56628 0
M  V30 4378 C 418.769 -1.56398 0.452045 0
M  V30 4379 O 419.958 -1.6325 0.721926 0
M  V30 4380 C 417.058 -3.05841 1.45994 0
M  V30 4381 C 416.231 -3.42472 2.72088 0
M  V30 4382 C 415.29 -4.60168 2.55209 0
M  V30 4383 O 414.316 -4.64458 3.2904 0
M  V30 4384 N 415.518 -5.57024 1.63416 0
M  V30 4385 H 418.283 -1.60066 2.53375 0
M  V30 4386 H 415.844 -0.738169 1.44093 0
M  V30 4387 H 417.836 -3.8242 1.32428 0
M  V30 4388 H 416.406 -3.07302 0.573071 0
M  V30 4389 H 415.626 -2.55284 3.00373 0
M  V30 4390 H 416.914 -3.63723 3.55785 0
M  V30 4391 H 416.312 -5.56319 1.02594 0
M  V30 4392 H 414.869 -6.32906 1.558 0
M  V30 4393 N 418.302 -1.35869 -0.798587 0
M  V30 4394 C 419.212 -1.31578 -1.94228 0
M  V30 4395 C 420.228 -0.21939 -1.72611 0
M  V30 4396 O 421.404 -0.450167 -1.96305 0
M  V30 4397 C 418.469 -1.09528 -3.28944 0
M  V30 4398 C 417.53 -2.28556 -3.63402 0
M  V30 4399 C 416.763 -2.07549 -4.9169 0
M  V30 4400 O 416.986 -1.046 -5.60727 0
M  V30 4401 O 415.92 -2.95106 -5.24591 0
M  V30 4402 H 419.746 -2.27847 -2.00796 0
M  V30 4403 H 417.331 -1.16322 -0.937526 0
M  V30 4404 H 419.213 -0.991127 -4.09579 0
M  V30 4405 H 417.888 -0.16315 -3.23289 0
M  V30 4406 H 416.795 -2.44538 -2.83112 0
M  V30 4407 H 418.128 -3.20244 -3.73771 0
M  V30 4408 N 419.78 1.02168 -1.19998 0
M  V30 4409 C 421.01 1.79036 -1.031 0
M  V30 4410 C 421.418 1.84409 0.423078 0
M  V30 4411 O 420.761 1.29228 1.30559 0
M  V30 4412 C 420.823 3.25185 -1.53281 0
M  V30 4413 C 420.487 3.43431 -3.01503 0
M  V30 4414 C 421.484 3.33063 -3.99206 0
M  V30 4415 C 419.169 3.69412 -3.40353 0
M  V30 4416 C 421.163 3.48413 -5.33748 0
M  V30 4417 C 418.85 3.84406 -4.75053 0
M  V30 4418 C 419.848 3.7391 -5.71559 0
M  V30 4419 O 419.536 3.88452 -7.03818 0
M  V30 4420 H 419.268 0.570043 -0.363355 0
M  V30 4421 H 421.822 1.29524 -1.59414 0
M  V30 4422 H 420.052 3.75756 -0.913483 0
M  V30 4423 H 421.741 3.83671 -1.32481 0
M  V30 4424 H 422.507 3.12934 -3.70537 0
M  V30 4425 H 418.386 3.76671 -2.65782 0
M  V30 4426 H 421.93 3.40137 -6.09059 0
M  V30 4427 H 417.827 4.04035 -5.03415 0
M  V30 4428 H 418.595 4.055 -7.10993 0
M  V30 4429 N 421.258 1.00505 1.21394 0
M  V30 4430 C 422.188 0.585684 2.26035 0
M  V30 4431 C 423.169 -0.393525 1.65485 0
M  V30 4432 O 424.354 -0.281497 1.92149 0
M  V30 4433 C 421.484 -0.0884283 3.47187 0
M  V30 4434 C 420.438 0.810567 4.20254 0
M  V30 4435 C 419.764 0.00286382 5.347 0
M  V30 4436 C 421.064 2.1132 4.77641 0
M  V30 4437 H 422.758 1.46039 2.61368 0
M  V30 4438 H 420.304 0.703648 1.25638 0
M  V30 4439 H 422.257 -0.393286 4.19561 0
M  V30 4440 H 420.981 -0.997766 3.10986 0
M  V30 4441 H 419.64 1.09925 3.49731 0
M  V30 4442 H 419.288 -0.907765 4.94741 0
M  V30 4443 H 418.988 0.601444 5.84514 0
M  V30 4444 H 420.512 -0.295808 6.09883 0
M  V30 4445 H 421.926 1.87148 5.41893 0
M  V30 4446 H 420.323 2.66164 5.37845 0
M  V30 4447 H 421.393 2.78393 3.9702 0
M  V30 4448 N 422.737 -1.36956 0.779787 0
M  V30 4449 C 424.153 -1.52817 0.460342 0
M  V30 4450 C 424.353 -1.7361 -1.02283 0
M  V30 4451 O 423.409 -1.76207 -1.80852 0
M  V30 4452 C 424.722 -2.71983 1.28241 0
M  V30 4453 C 426.27 -2.85849 1.27512 0
M  V30 4454 C 426.745 -4.08008 2.08072 0
M  V30 4455 N 428.236 -4.15135 2.05467 0
M  V30 4456 C 428.971 -5.08711 2.64577 0
M  V30 4457 N 428.467 -6.07792 3.32506 0
M  V30 4458 N 430.26 -5.01254 2.54363 0
M  V30 4459 H 422.411 -1.21713 1.74068 0
M  V30 4460 H 424.674 -0.593294 0.739396 0
M  V30 4461 H 424.38 -2.63109 2.33381 0
M  V30 4462 H 424.254 -3.65882 0.917088 0
M  V30 4463 H 426.641 -2.94189 0.231686 0
M  V30 4464 H 426.722 -1.92886 1.68014 0
M  V30 4465 H 426.366 -4.00429 3.12441 0
M  V30 4466 H 426.296 -5.001 1.64947 0
M  V30 4467 H 428.787 -3.44189 1.5602 0
M  V30 4468 H 429.1 -6.75739 3.74963 0
M  V30 4469 H 427.445 -6.08047 3.36606 0
M  V30 4470 H 430.636 -4.22795 2.00902 0
M  V30 4471 H 430.809 -5.73995 3.00722 0
M  V30 4472 N 424.215 -0.530993 -1.48385 0
M  V30 4473 C 425.463 0.00273189 -2.021 0
M  V30 4474 C 425.784 1.34672 -1.41027 0
M  V30 4475 O 425.054 1.8724 -0.576012 0
M  V30 4476 H 423.634 0.00399774 -0.746989 0
M  V30 4477 H 426.296 -0.695054 -1.82085 0
M  V30 4478 H 425.392 0.11031 -3.11905 0
M  V30 4479 N 425.693 1.55336 -0.266172 0
M  V30 4480 C 426.626 2.18256 0.666296 0
M  V30 4481 C 427.604 1.14064 1.1588 0
M  V30 4482 O 428.788 1.42546 1.23341 0
M  V30 4483 C 425.915 2.79867 1.90768 0
M  V30 4484 C 424.961 3.97283 1.55141 0
M  V30 4485 S 425.794 5.31694 0.637313 0
M  V30 4486 C 426.95 5.96769 1.88727 0
M  V30 4487 H 427.183 2.97008 0.131647 0
M  V30 4488 H 424.716 1.54317 -0.0504869 0
M  V30 4489 H 426.674 3.15996 2.62025 0
M  V30 4490 H 425.335 2.01025 2.41346 0
M  V30 4491 H 424.528 4.3905 2.4749 0
M  V30 4492 H 424.13 3.6253 0.919113 0
M  V30 4493 H 426.422 6.15458 2.83227 0
M  V30 4494 H 427.365 6.91752 1.51276 0
M  V30 4495 H 427.773 5.26034 2.04814 0
M  V30 4496 N 427.171 -0.0066808 1.57599 0
M  V30 4497 C 428.448 -0.729586 1.81484 0
M  V30 4498 C 428.828 -1.92359 0.869558 0
M  V30 4499 O 428.176 -2.28348 -0.0832533 0
M  V30 4500 C 428.386 -1.1416 3.29801 0
M  V30 4501 C 429.734 -1.54823 3.95367 0
M  V30 4502 O 430.758 -1.23558 3.34084 0
M  V30 4503 O 429.617 -2.12937 5.03309 0
M  V30 4504 H 426.711 -0.354674 0.747085 0
M  V30 4505 H 429.257 0.0182609 1.6969 0
M  V30 4506 H 428.029 -0.290231 3.90222 0
M  V30 4507 H 427.652 -1.94876 3.46568 0
M  V30 4508 N 428.649 -1.55105 -0.279332 0
M  V30 4509 C 429.895 -1.76597 -1.00921 0
M  V30 4510 C 430.25 -0.556831 -1.84166 0
M  V30 4511 O 429.543 0.450573 -1.86227 0
M  V30 4512 C 429.737 -3.0086 -1.92919 0
M  V30 4513 C 429.566 -4.33744 -1.18728 0
M  V30 4514 C 428.336 -4.9712 -0.905545 0
M  V30 4515 C 430.534 -5.11009 -0.580857 0
M  V30 4516 N 428.516 -6.13749 -0.136169 0
M  V30 4517 C 429.887 -6.19976 0.0546661 0
M  V30 4518 C 431.942 -4.95502 -0.488067 0
M  V30 4519 C 430.645 -7.15123 0.774028 0
M  V30 4520 C 432.671 -5.90999 0.217688 0
M  V30 4521 C 432.033 -6.9935 0.841975 0
M  V30 4522 H 428.132 -0.698553 -0.351493 0
M  V30 4523 H 430.716 -1.92595 -0.285531 0
M  V30 4524 H 428.887 -2.86249 -2.62519 0
M  V30 4525 H 430.619 -3.10784 -2.59221 0
M  V30 4526 H 427.374 -4.57903 -1.20921 0
M  V30 4527 H 427.798 -6.7659 0.235665 0
M  V30 4528 H 432.44 -4.11841 -0.956406 0
M  V30 4529 H 430.158 -7.9831 1.25407 0
M  V30 4530 H 433.744 -5.81078 0.289717 0
M  V30 4531 H 432.624 -7.71973 1.37939 0
M  V30 4532 N 430.127 0.543554 -1.4793 0
M  V30 4533 C 431.376 1.29649 -1.54512 0
M  V30 4534 C 431.689 1.94382 -0.217973 0
M  V30 4535 O 432.895 2.71017 -0.161908 0
M  V30 4536 C 431.351 2.35175 -2.72435 0
M  V30 4537 C 430.959 1.76572 -4.11736 0
M  V30 4538 C 432.703 3.11564 -2.8832 0
M  V30 4539 C 430.61 2.79958 -5.20939 0
M  V30 4540 H 429.54 0.487541 -0.57517 0
M  V30 4541 H 432.191 0.575708 -1.74235 0
M  V30 4542 H 430.573 3.10229 -2.46118 0
M  V30 4543 H 431.747 1.07799 -4.48013 0
M  V30 4544 H 430.062 1.12722 -4.00852 0
M  V30 4545 H 432.659 3.88794 -3.67074 0
M  V30 4546 H 433.002 3.66594 -1.97268 0
M  V30 4547 H 433.535 2.43623 -3.14472 0
M  V30 4548 H 430.274 2.29766 -6.13912 0
M  V30 4549 H 429.794 3.47101 -4.89164 0
M  V30 4550 H 431.473 3.43198 -5.48474 0
M  V30 4551 N 431.605 1.3629 0.791371 0
M  V30 4552 C 432.535 1.33137 1.91825 0
M  V30 4553 C 433.516 0.203168 1.68882 0
M  V30 4554 O 434.701 0.400509 1.90025 0
M  V30 4555 C 431.831 1.11793 3.28816 0
M  V30 4556 C 430.785 2.21417 3.66277 0
M  V30 4557 C 430.111 1.85218 5.01596 0
M  V30 4558 C 431.411 3.63489 3.75064 0
M  V30 4559 H 433.105 2.2743 1.9472 0
M  V30 4560 H 430.651 1.09479 0.935437 0
M  V30 4561 H 432.604 1.08222 4.07266 0
M  V30 4562 H 431.328 0.139501 3.26302 0
M  V30 4563 H 429.987 2.2411 2.90121 0
M  V30 4564 H 429.635 0.859544 4.95602 0
M  V30 4565 H 429.335 2.58611 5.27631 0
M  V30 4566 H 430.859 1.832 5.82469 0
M  V30 4567 H 432.273 3.63034 4.43711 0
M  V30 4568 H 430.67 4.35771 4.12582 0
M  V30 4569 H 431.74 3.98536 2.76219 0
M  V30 4570 N 433.083 -1.0153 1.20538 0
M  V30 4571 C 434.046 -2.0826 0.957098 0
M  V30 4572 C 435.046 -1.60657 -0.0678655 0
M  V30 4573 O 436.236 -1.73385 0.168332 0
M  V30 4574 C 433.368 -3.38033 0.441188 0
M  V30 4575 H 434.561 -2.31719 1.90384 0
M  V30 4576 H 432.114 -1.1835 1.02093 0
M  V30 4577 H 432.849 -3.20249 -0.510961 0
M  V30 4578 H 432.634 -3.73911 1.18038 0
M  V30 4579 H 434.124 -4.16613 0.287009 0
M  V30 4580 N 434.561 -1.01147 -1.20859 0
M  V30 4581 C 435.491 -0.597663 -2.25722 0
M  V30 4582 C 436.472 0.384744 -1.65692 0
M  V30 4583 O 437.657 0.271303 -1.92296 0
M  V30 4584 C 434.787 0.0700149 -3.47229 0
M  V30 4585 C 433.741 -0.832843 -4.19819 0
M  V30 4586 C 433.067 -0.0312202 -5.34691 0
M  V30 4587 C 434.367 -2.1385 -4.76514 0
M  V30 4588 H 436.061 -1.47423 -2.60589 0
M  V30 4589 H 433.607 -0.710301 -1.25263 0
M  V30 4590 H 435.56 0.37103 -4.19763 0
M  V30 4591 H 434.284 0.981259 -3.11511 0
M  V30 4592 H 432.943 -1.11778 -3.49144 0
M  V30 4593 H 432.591 0.881515 -4.95215 0
M  V30 4594 H 432.291 -0.632434 -5.84187 0
M  V30 4595 H 433.815 0.26346 -6.10031 0
M  V30 4596 H 435.229 -1.9002 -5.40893 0
M  V30 4597 H 433.626 -2.69012 -5.36426 0
M  V30 4598 H 434.696 -2.80495 -3.95538 0
M  V30 4599 N 436.039 1.36541 -0.78704 0
M  V30 4600 C 437.002 2.28413 -0.189778 0
M  V30 4601 C 438.002 1.48719 0.611499 0
M  V30 4602 O 439.192 1.68737 0.432842 0
M  V30 4603 C 436.324 3.32824 0.737638 0
M  V30 4604 H 437.517 2.82743 -0.999831 0
M  V30 4605 H 435.07 1.46065 -0.556298 0
M  V30 4606 H 435.805 2.83646 1.57212 0
M  V30 4607 H 435.59 3.91752 0.165044 0
M  V30 4608 H 437.08 4.0144 1.15047 0
M  V30 4609 N 437.518 0.538854 1.48102 0
M  V30 4610 C 438.764 0.00801365 2.02798 0
M  V30 4611 C 439.097 -1.3309 1.41424 0
M  V30 4612 O 438.372 -1.86169 0.563158 0
M  V30 4613 C 438.655 -0.104589 3.59948 0
M  V30 4614 C 438.508 1.26012 4.31788 0
M  V30 4615 C 439.827 -0.827055 4.32259 0
M  V30 4616 H 436.946 0.00438624 0.736987 0
M  V30 4617 H 439.588 0.6976 1.7673 0
M  V30 4618 H 437.738 -0.691893 3.82289 0
M  V30 4619 H 439.41 1.88922 4.2084 0
M  V30 4620 H 437.653 1.83968 3.92859 0
M  V30 4621 H 438.324 1.13424 5.40221 0
M  V30 4622 H 440.8 -0.328578 4.14801 0
M  V30 4623 H 439.676 -0.87476 5.41885 0
M  V30 4624 H 439.937 -1.87927 4.0017 0
M  V30 4625 N 438.996 -1.55193 0.274407 0
M  V30 4626 C 439.926 -2.25471 -0.607032 0
M  V30 4627 C 440.907 -1.24461 -1.15946 0
M  V30 4628 O 442.092 -1.53179 -1.19373 0
M  V30 4629 C 439.222 -2.97526 -1.79153 0
M  V30 4630 C 438.176 -4.05459 -1.37067 0
M  V30 4631 C 437.502 -4.65084 -2.6382 0
M  V30 4632 C 438.802 -5.19691 -0.521389 0
M  V30 4633 H 440.496 -2.99393 -0.0209343 0
M  V30 4634 H 438.042 -1.43997 -0.00862866 0
M  V30 4635 H 439.995 -3.45402 -2.41404 0
M  V30 4636 H 438.719 -2.21138 -2.40344 0
M  V30 4637 H 437.378 -3.58393 -0.771355 0
M  V30 4638 H 437.026 -3.85365 -3.23268 0
M  V30 4639 H 436.726 -5.37961 -2.36372 0
M  V30 4640 H 438.25 -5.15708 -3.26921 0
M  V30 4641 H 439.664 -5.63623 -1.04889 0
M  V30 4642 H 438.061 -5.99126 -0.341825 0
M  V30 4643 H 439.131 -4.82713 0.46 0
M  V30 4644 N 440.474 -0.00167713 -1.576 0
M  V30 4645 C 441.422 1.0074 -2.09652 0
M  V30 4646 C 442.416 1.35483 -1.01689 0
M  V30 4647 O 443.622 1.34028 -1.20152 0
M  V30 4648 H 439.997 0.342537 -0.669457 0
M  V30 4649 H 441.968 0.542841 -2.93421 0
M  V30 4650 C 440.717 2.2899 -2.61647 0
M  V30 4651 H 440.04 2.03124 -3.44355 0
M  V30 4652 H 441.48 2.9787 -3.01744 0
M  V30 4653 C 439.939 3.00085 -1.53136 0
M  V30 4654 O 440.469 3.91135 -0.91524 0
M  V30 4655 N 438.675 2.6194 -1.25841 0
M  V30 4656 H 438.222 1.8798 -1.76129 0
M  V30 4657 H 438.18 3.09822 -0.534576 0
M  V30 4658 N 441.952 1.55251 0.271103 0
M  V30 4659 C 443.177 1.80306 1.02491 0
M  V30 4660 C 443.602 0.575457 1.79081 0
M  V30 4661 O 442.96 -0.474987 1.74967 0
M  V30 4662 C 443.008 3.02832 1.95768 0
M  V30 4663 O 442.112 2.78051 3.04568 0
M  V30 4664 H 441.453 0.595896 0.292923 0
M  V30 4665 H 443.983 2.02397 0.299436 0
M  V30 4666 H 443.993 3.31616 2.37686 0
M  V30 4667 H 442.668 3.9183 1.39434 0
M  V30 4668 H 441.245 2.60369 2.66951 0
M  V30 4669 N 443.43 -0.535701 1.48216 0
M  V30 4670 C 444.393 -1.623 1.61838 0
M  V30 4671 C 445.393 -1.53087 0.492024 0
M  V30 4672 O 446.583 -1.5686 0.757668 0
M  V30 4673 C 443.715 -3.01907 1.58319 0
M  V30 4674 H 444.908 -1.51564 2.58783 0
M  V30 4675 H 442.461 -0.757317 1.36727 0
M  V30 4676 H 443.196 -3.18155 0.628299 0
M  V30 4677 H 442.981 -3.10003 2.40085 0
M  V30 4678 H 444.471 -3.80969 1.71033 0
M  V30 4679 N 444.908 -1.36708 -0.784132 0
M  V30 4680 C 446.154 -1.31426 -1.54451 0
M  V30 4681 C 446.487 0.10476 -1.93917 0
M  V30 4682 O 445.762 1.05934 -1.6312 0
M  V30 4683 C 446.045 -2.24189 -2.818 0
M  V30 4684 C 445.898 -3.74813 -2.48667 0
M  V30 4685 C 447.217 -2.15626 -3.83658 0
M  V30 4686 H 444.336 -0.478739 -0.560337 0
M  V30 4687 H 446.978 -1.67305 -0.900498 0
M  V30 4688 H 445.128 -1.93722 -3.36755 0
M  V30 4689 H 446.8 -4.15823 -1.99722 0
M  V30 4690 H 445.043 -3.93989 -1.81535 0
M  V30 4691 H 445.714 -4.35138 -3.39646 0
M  V30 4692 H 448.19 -2.42456 -3.38163 0
M  V30 4693 H 447.066 -2.82694 -4.70506 0
M  V30 4694 H 447.327 -1.14522 -4.27009 0
M  V30 4695 N 446.386 1.0089 -1.21074 0
M  V30 4696 C 447.334 2.11707 -0.963476 0
M  V30 4697 C 448.328 1.69172 0.0879032 0
M  V30 4698 O 449.534 1.79889 -0.0631415 0
M  V30 4699 H 445.909 0.692026 -0.294287 0
M  V30 4700 H 447.88 2.29743 -1.90422 0
M  V30 4701 C 446.629 3.43473 -0.540509 0
M  V30 4702 H 445.952 3.76634 -1.34114 0
M  V30 4703 H 447.392 4.22044 -0.406777 0
M  V30 4704 C 445.851 3.2849 0.748079 0
M  V30 4705 O 446.381 3.58883 1.8046 0
M  V30 4706 N 444.587 2.81715 0.713081 0
M  V30 4707 H 444.134 2.5718 -0.146973 0
M  V30 4708 H 444.092 2.72071 1.57558 0
M  V30 4709 N 447.864 1.01787 1.20321 0
M  V30 4710 C 449.275 0.739307 1.71438 0
M  V30 4711 C 449.626 -0.742041 1.81627 0
M  V30 4712 O 448.751 -1.57903 1.47971 0
M  V30 4713 C 449.346 1.33538 3.11373 0
M  V30 4714 C 447.905 1.10566 3.59795 0
M  V30 4715 C 447.052 1.44028 2.36962 0
M  V30 4716 H 450.003 1.18718 1.05317 0
M  V30 4717 H 450.024 0.726611 3.73498 0
M  V30 4718 H 449.536 2.41352 3.03926 0
M  V30 4719 H 447.637 0.0452405 3.72573 0
M  V30 4720 H 447.75 1.78661 4.44542 0
M  V30 4721 H 446.114 0.85933 2.39766 0
M  V30 4722 H 446.897 2.52901 2.32155 0
M  V30 4723 N 449.342 -1.36122 0.79427 0
M  V30 4724 C 450.591 -1.98361 0.365464 0
M  V30 4725 C 450.904 -1.6374 -1.06997 0
M  V30 4726 O 452.11 -2.19251 -1.60129 0
M  V30 4727 C 450.566 -3.54821 0.602496 0
M  V30 4728 C 450.174 -3.98362 2.04967 0
M  V30 4729 C 451.918 -4.2383 0.238437 0
M  V30 4730 C 449.825 -5.47619 2.2331 0
M  V30 4731 H 448.755 -0.742193 0.13291 0
M  V30 4732 H 451.406 -1.55354 0.976589 0
M  V30 4733 H 449.788 -3.95922 -0.078409 0
M  V30 4734 H 450.962 -3.68447 2.76737 0
M  V30 4735 H 449.277 -3.42206 2.37243 0
M  V30 4736 H 451.874 -5.33529 0.353705 0
M  V30 4737 H 452.217 -4.08264 -0.814006 0
M  V30 4738 H 452.75 -3.88108 0.872769 0
M  V30 4739 H 449.489 -5.68138 3.26955 0
M  V30 4740 H 449.009 -5.79145 1.5605 0
M  V30 4741 H 450.688 -6.13911 2.0426 0
M  V30 4742 N 450.82 -0.546701 -1.47814 0
M  V30 4743 C 452.069 -0.0166497 -2.01693 0
M  V30 4744 C 452.382 1.33721 -1.42752 0
M  V30 4745 O 453.588 1.95658 -1.8823 0
M  V30 4746 C 452.044 0.0206769 -3.59894 0
M  V30 4747 C 451.652 -1.3293 -4.27824 0
M  V30 4748 C 453.396 0.498674 -4.21561 0
M  V30 4749 C 451.303 -1.25165 -5.78003 0
M  V30 4750 H 450.233 -0.0024541 -0.753996 0
M  V30 4751 H 452.884 -0.692984 -1.69912 0
M  V30 4752 H 451.266 0.76244 -3.88591 0
M  V30 4753 H 452.44 -2.08795 -4.10781 0
M  V30 4754 H 450.755 -1.74438 -3.78101 0
M  V30 4755 H 453.352 0.575 -5.31599 0
M  V30 4756 H 453.695 1.5083 -3.88016 0
M  V30 4757 H 454.228 -0.18791 -3.97356 0
M  V30 4758 H 450.967 -2.23695 -6.1615 0
M  V30 4759 H 450.487 -0.53464 -5.97412 0
M  V30 4760 H 452.166 -0.949299 -6.39998 0
M  V30 4761 N 452.299 1.55045 -0.282633 0
M  V30 4762 C 453.529 2.03872 0.334635 0
M  V30 4763 C 453.937 1.16018 1.49454 0
M  V30 4764 O 453.28 0.174449 1.8287 0
M  V30 4765 C 453.342 3.48791 0.870905 0
M  V30 4766 C 453.006 4.56715 -0.161338 0
M  V30 4767 C 454.003 5.10513 -0.983466 0
M  V30 4768 C 451.688 5.01417 -0.297745 0
M  V30 4769 C 453.682 6.07538 -1.92811 0
M  V30 4770 C 451.369 5.98265 -1.24586 0
M  V30 4771 C 452.367 6.51208 -2.05954 0
M  V30 4772 O 452.055 7.46162 -2.99162 0
M  V30 4773 H 451.787 0.671324 0.0793742 0
M  V30 4774 H 454.341 2.01169 -0.41473 0
M  V30 4775 H 452.571 3.48758 1.67047 0
M  V30 4776 H 454.26 3.80916 1.40207 0
M  V30 4777 H 455.026 4.76785 -0.888856 0
M  V30 4778 H 450.905 4.59849 0.325604 0
M  V30 4779 H 454.449 6.48787 -2.56363 0
M  V30 4780 H 450.346 6.31412 -1.34126 0
M  V30 4781 H 451.114 7.63903 -2.93929 0
M  V30 4782 N 453.777 0.010035 1.57597 0
M  V30 4783 C 455.002 -0.687021 1.95691 0
M  V30 4784 C 455.427 -1.65952 0.885519 0
M  V30 4785 O 454.785 -1.80633 -0.15543 0
M  V30 4786 C 454.833 -1.3864 3.32884 0
M  V30 4787 O 453.937 -2.50115 3.27897 0
M  V30 4788 H 453.278 -0.181989 0.638573 0
M  V30 4789 H 455.808 0.0662122 2.04493 0
M  V30 4790 H 455.818 -1.74754 3.6868 0
M  V30 4791 H 454.493 -0.673411 4.10412 0
M  V30 4792 H 453.07 -2.16253 3.03791 0
M  V30 4793 N 455.255 -1.55392 -0.262866 0
M  V30 4794 C 456.502 -1.76476 -0.993109 0
M  V30 4795 C 456.83 -0.571479 -1.85915 0
M  V30 4796 O 456.085 0.445733 -1.90556 0
M  V30 4797 C 456.384 -3.02889 -1.89718 0
M  V30 4798 C 456.05 -4.34974 -1.18781 0
M  V30 4799 C 454.712 -4.7087 -0.991699 0
M  V30 4800 C 457.064 -5.16695 -0.683798 0
M  V30 4801 C 454.392 -5.86036 -0.279024 0
M  V30 4802 C 456.744 -6.32598 0.0153327 0
M  V30 4803 C 455.408 -6.67127 0.223062 0
M  V30 4804 H 454.678 -0.64577 -0.363404 0
M  V30 4805 H 457.325 -1.89664 -0.264525 0
M  V30 4806 H 455.63 -2.84644 -2.6923 0
M  V30 4807 H 457.327 -3.16399 -2.46359 0
M  V30 4808 H 453.917 -4.06765 -1.35058 0
M  V30 4809 H 458.101 -4.8943 -0.8229 0
M  V30 4810 H 453.357 -6.11306 -0.107456 0
M  V30 4811 H 457.531 -6.95171 0.413584 0
M  V30 4812 H 455.158 -7.56216 0.777265 0
M  V30 4813 N 456.733 0.527833 -1.48498 0
M  V30 4814 C 458.149 0.856571 -1.34666 0
M  V30 4815 C 458.349 1.98271 -0.35931 0
M  V30 4816 O 457.405 2.51551 0.218703 0
M  V30 4817 C 458.718 1.22207 -2.74747 0
M  V30 4818 C 460.266 1.33183 -2.83251 0
M  V30 4819 C 460.741 1.73075 -4.24039 0
M  V30 4820 N 462.232 1.80174 -4.26722 0
M  V30 4821 C 462.967 2.1243 -5.32598 0
M  V30 4822 N 462.463 2.43096 -6.4875 0
M  V30 4823 N 464.256 2.13454 -5.19994 0
M  V30 4824 H 456.407 -0.215174 -2.11307 0
M  V30 4825 H 458.67 -0.0336281 -0.947403 0
M  V30 4826 H 458.376 0.468195 -3.4857 0
M  V30 4827 H 458.25 2.17173 -3.08409 0
M  V30 4828 H 460.637 2.07647 -2.09683 0
M  V30 4829 H 460.718 0.363333 -2.53206 0
M  V30 4830 H 460.362 0.991712 -4.98124 0
M  V30 4831 H 460.292 2.70979 -4.51529 0
M  V30 4832 H 462.783 1.58744 -3.42942 0
M  V30 4833 H 463.096 2.6682 -7.25277 0
M  V30 4834 H 461.441 2.40611 -6.52021 0
M  V30 4835 H 464.632 1.88956 -4.28268 0
M  V30 4836 H 464.805 2.38261 -6.02608 0
M  V30 4837 N 458.211 1.37122 0.776871 0
M  V30 4838 C 459.436 1.354 1.57104 0
M  V30 4839 C 459.861 -0.0595562 1.88006 0
M  V30 4840 O 459.219 -1.03514 1.48844 0
M  V30 4841 C 459.267 2.19472 2.8612 0
M  V30 4842 O 458.371 1.59582 3.80273 0
M  V30 4843 H 457.712 0.462869 0.476076 0
M  V30 4844 H 460.242 1.80577 0.961932 0
M  V30 4845 H 460.252 2.32502 3.35271 0
M  V30 4846 H 458.927 3.22222 2.62956 0
M  V30 4847 H 457.504 1.55564 3.38902 0
M  V30 4848 N 459.689 -1.00246 1.21608 0
M  V30 4849 C 461.105 -1.26435 0.973975 0
M  V30 4850 C 461.305 -1.98642 -0.338143 0
M  V30 4851 O 460.361 -2.29026 -1.06317 0
M  V30 4852 C 461.674 -2.08551 2.16626 0
M  V30 4853 C 463.222 -2.21769 2.20879 0
M  V30 4854 C 463.697 -3.07267 3.39633 0
M  V30 4855 N 465.188 -3.14855 3.39736 0
M  V30 4856 C 465.923 -3.81274 4.28273 0
M  V30 4857 N 465.419 -4.497 5.27012 0
M  V30 4858 N 467.212 -3.7794 4.16074 0
M  V30 4859 H 459.363 -0.518089 2.05984 0
M  V30 4860 H 461.626 -0.291368 0.902113 0
M  V30 4861 H 461.332 -1.62847 3.11727 0
M  V30 4862 H 461.206 -3.09303 2.15897 0
M  V30 4863 H 463.593 -2.66691 1.26332 0
M  V30 4864 H 463.674 -1.20478 2.25652 0
M  V30 4865 H 463.318 -2.63047 4.34475 0
M  V30 4866 H 463.248 -4.08678 3.321 0
M  V30 4867 H 465.739 -2.66147 2.6828 0
M  V30 4868 H 466.052 -4.98092 5.90867 0
M  V30 4869 H 464.397 -4.48479 5.30935 0
M  V30 4870 H 467.588 -3.23638 3.38195 0
M  V30 4871 H 467.761 -4.29424 4.85282 0
M  V30 4872 N 461.167 -1.02423 -1.1978 0
M  V30 4873 C 462.077 -0.610919 -2.26506 0
M  V30 4874 C 463.093 0.355152 -1.70337 0
M  V30 4875 O 464.269 0.214195 -2.00258 0
M  V30 4876 C 461.334 0.0365921 -3.46681 0
M  V30 4877 C 460.395 -0.976389 -4.18049 0
M  V30 4878 C 459.628 -0.359683 -5.32487 0
M  V30 4879 O 459.851 0.838601 -5.64202 0
M  V30 4880 O 458.785 -1.08022 -5.92127 0
M  V30 4881 H 462.611 -1.49965 -2.64091 0
M  V30 4882 H 460.196 -0.794156 -1.26545 0
M  V30 4883 H 462.078 0.39786 -4.19518 0
M  V30 4884 H 460.753 0.899398 -3.10954 0
M  V30 4885 H 459.66 -1.38916 -3.47352 0
M  V30 4886 H 460.993 -1.80941 -4.57735 0
M  V30 4887 N 462.645 1.35699 -0.801477 0
M  V30 4888 C 463.891 1.99208 -0.380022 0
M  V30 4889 C 464.224 1.63445 1.04878 0
M  V30 4890 O 463.499 0.895223 1.72673 0
M  V30 4891 C 463.782 3.55755 -0.557708 0
M  V30 4892 C 463.635 4.01332 -2.03107 0
M  V30 4893 C 464.954 4.40096 0.0197968 0
M  V30 4894 H 462.073 0.723667 -0.139552 0
M  V30 4895 H 464.715 1.60928 -1.01006 0
M  V30 4896 H 462.865 3.88494 -0.0213741 0
M  V30 4897 H 464.537 3.79026 -2.62939 0
M  V30 4898 H 462.78 3.52429 -2.52936 0
M  V30 4899 H 463.451 5.10234 -2.1063 0
M  V30 4900 H 465.927 4.13786 -0.438179 0
M  V30 4901 H 464.803 5.48735 -0.134477 0
M  V30 4902 H 465.064 4.2786 1.11303 0
M  V30 4903 N 464.123 0.554532 1.47522 0
M  V30 4904 C 465.363 0.0317994 2.04375 0
M  V30 4905 C 465.727 -1.29242 1.41988 0
M  V30 4906 O 466.928 -1.90269 1.89872 0
M  V30 4907 C 465.199 -0.0623344 3.57346 0
M  V30 4908 S 466.758 -0.531578 4.35568 0
M  V30 4909 H 463.576 0.0238553 0.7106 0
M  V30 4910 H 466.178 0.74066 1.80927 0
M  V30 4911 H 464.882 0.905857 4.00278 0
M  V30 4912 H 464.413 -0.794831 3.85287 0
M  V30 4913 H 466.428 -1.79175 4.62721 0
M  V30 4914 N 465.601 -1.54893 0.290851 0
M  V30 4915 C 467.017 -1.59476 -0.0628432 0
M  V30 4916 C 467.217 -1.30795 -1.5328 0
M  V30 4917 O 466.273 -1.07644 -2.28406 0
M  V30 4918 C 467.586 -2.98928 0.325962 0
M  V30 4919 C 469.134 -3.11799 0.273882 0
M  V30 4920 C 469.609 -4.53544 0.637359 0
M  V30 4921 N 471.1 -4.59433 0.589507 0
M  V30 4922 C 471.835 -5.67164 0.84335 0
M  V30 4923 N 471.331 -6.82975 1.16263 0
M  V30 4924 N 473.124 -5.56786 0.771091 0
M  V30 4925 H 465.275 -1.71798 1.24896 0
M  V30 4926 H 467.538 -0.801879 0.505663 0
M  V30 4927 H 467.244 -3.24805 1.34887 0
M  V30 4928 H 467.118 -3.75793 -0.325441 0
M  V30 4929 H 469.505 -2.85677 -0.739765 0
M  V30 4930 H 469.586 -2.37112 0.959766 0
M  V30 4931 H 469.23 -4.80394 1.64877 0
M  V30 4932 H 469.16 -5.26553 -0.0704866 0
M  V30 4933 H 471.651 -3.76245 0.353252 0
M  V30 4934 H 471.964 -7.61048 1.34257 0
M  V30 4935 H 470.309 -6.84552 1.20057 0
M  V30 4936 H 473.5 -4.65187 0.521383 0
M  V30 4937 H 473.673 -6.40664 0.972295 0
M  V30 4938 N 467.08 -0.0183926 -1.57589 0
M  V30 4939 C 468.043 0.951986 -2.08494 0
M  V30 4940 C 469.043 1.26092 -0.997874 0
M  V30 4941 O 470.233 1.20304 -1.25987 0
M  V30 4942 C 467.365 2.27165 -2.54182 0
M  V30 4943 H 468.558 0.511307 -2.95509 0
M  V30 4944 H 466.111 0.229444 -1.54607 0
M  V30 4945 H 466.846 2.75884 -1.70465 0
M  V30 4946 H 466.631 2.06057 -3.33591 0
M  V30 4947 H 468.121 2.9674 -2.93828 0
M  V30 4948 N 468.558 1.5553 0.254621 0
M  V30 4949 C 469.804 1.77262 0.985193 0
M  V30 4950 C 470.137 0.582286 1.85265 0
M  V30 4951 O 469.412 -0.419666 1.89919 0
M  V30 4952 C 469.695 3.0881 1.85225 0
M  V30 4953 C 469.548 4.38233 1.0135 0
M  V30 4954 C 470.867 3.3653 2.83612 0
M  V30 4955 H 467.986 0.644906 0.356742 0
M  V30 4956 H 470.628 1.88264 0.256236 0
M  V30 4957 H 468.778 2.99562 2.47376 0
M  V30 4958 H 470.45 4.59463 0.411269 0
M  V30 4959 H 468.693 4.32636 0.317574 0
M  V30 4960 H 469.364 5.26644 1.65379 0
M  V30 4961 H 471.84 3.45691 2.31596 0
M  V30 4962 H 470.716 4.29805 3.41407 0
M  V30 4963 H 470.977 2.57064 3.59681 0
M  V30 4964 N 470.036 -0.519951 1.48776 0
M  V30 4965 C 470.966 -1.63253 1.66945 0
M  V30 4966 C 471.947 -1.62014 0.518224 0
M  V30 4967 O 473.132 -1.79053 0.751919 0
M  V30 4968 C 470.262 -3.0181 1.71836 0
M  V30 4969 C 469.216 -3.17911 2.8656 0
M  V30 4970 C 468.542 -4.5763 2.76548 0
M  V30 4971 C 469.842 -2.99729 4.27738 0
M  V30 4972 H 471.536 -1.48302 2.6009 0
M  V30 4973 H 469.082 -0.712026 1.25165 0
M  V30 4974 H 471.035 -3.79525 1.83135 0
M  V30 4975 H 469.759 -3.17806 0.752775 0
M  V30 4976 H 468.418 -2.42616 2.74833 0
M  V30 4977 H 468.066 -4.70476 1.77937 0
M  V30 4978 H 467.766 -4.69346 3.53536 0
M  V30 4979 H 469.29 -5.37431 2.89828 0
M  V30 4980 H 470.704 -3.67228 4.40246 0
M  V30 4981 H 469.101 -3.22932 5.05801 0
M  V30 4982 H 470.171 -1.96047 4.43502 0
M  V30 4983 N 471.514 -1.37532 -0.769588 0
M  V30 4984 C 472.739 -1.36231 -1.56384 0
M  V30 4985 C 473.164 0.0495849 -1.88035 0
M  V30 4986 O 472.522 1.02723 -1.49391 0
M  V30 4987 C 472.57 -2.20986 -2.84952 0
M  V30 4988 O 471.674 -1.61597 -3.79421 0
M  V30 4989 H 471.015 -0.465387 -0.473615 0
M  V30 4990 H 473.545 -1.81085 -0.952342 0
M  V30 4991 H 473.555 -2.34277 -3.34034 0
M  V30 4992 H 472.23 -3.23612 -2.61243 0
M  V30 4993 H 470.807 -1.57359 -3.38072 0
M  V30 4994 N 472.992 0.995999 -1.22138 0
M  V30 4995 C 474.239 1.7351 -1.04406 0
M  V30 4996 C 474.567 1.89884 0.421244 0
M  V30 4997 O 473.822 1.43683 1.32867 0
M  V30 4998 C 474.121 3.14553 -1.6968 0
M  V30 4999 C 473.787 3.18102 -3.19565 0
M  V30 5000 C 472.449 3.18778 -3.60464 0
M  V30 5001 C 474.801 3.14636 -4.15516 0
M  V30 5002 C 472.129 3.13684 -4.95801 0
M  V30 5003 C 474.481 3.11084 -5.50826 0
M  V30 5004 C 473.145 3.10074 -5.91109 0
M  V30 5005 H 472.415 0.634916 -0.38205 0
M  V30 5006 H 475.062 1.1667 -1.51857 0
M  V30 5007 H 473.367 3.74682 -1.14546 0
M  V30 5008 H 475.064 3.70477 -1.53454 0
M  V30 5009 H 471.654 3.18324 -2.86998 0
M  V30 5010 H 475.838 3.13266 -3.84939 0
M  V30 5011 H 471.094 3.11245 -5.26247 0
M  V30 5012 H 475.268 3.07357 -6.24904 0
M  V30 5013 H 472.895 3.05882 -6.95946 0
M  V30 5014 N 474.47 1.03057 1.19235 0
M  V30 5015 C 475.4 0.633497 2.24742 0
M  V30 5016 C 476.381 -0.358335 1.66283 0
M  V30 5017 O 477.566 -0.240676 1.92703 0
M  V30 5018 C 474.696 -0.0147648 3.47297 0
M  V30 5019 C 473.65 0.899527 4.18441 0
M  V30 5020 C 472.976 0.116281 5.34574 0
M  V30 5021 C 474.276 2.21404 4.73051 0
M  V30 5022 H 475.97 1.5155 2.58211 0
M  V30 5023 H 473.516 0.73014 1.24117 0
M  V30 5024 H 475.469 -0.304202 4.20301 0
M  V30 5025 H 474.193 -0.931577 3.13032 0
M  V30 5026 H 472.852 1.17319 3.47321 0
M  V30 5027 H 472.5 -0.802619 4.96555 0
M  V30 5028 H 472.2 0.725293 5.83107 0
M  V30 5029 H 473.724 -0.166376 6.10373 0
M  V30 5030 H 475.138 1.98601 5.37802 0
M  V30 5031 H 473.535 2.77512 5.32078 0
M  V30 5032 H 474.605 2.86752 3.91026 0
M  V30 5033 N 475.948 -1.35272 0.808662 0
M  V30 5034 C 477.188 -2.00534 0.395668 0
M  V30 5035 C 477.552 -1.62755 -1.01857 0
M  V30 5036 O 478.753 -2.20752 -1.53368 0
M  V30 5037 C 477.024 -3.52732 0.575771 0
M  V30 5038 S 478.583 -4.38067 0.253507 0
M  V30 5039 H 475.401 -0.694962 0.150165 0
M  V30 5040 H 478.003 -1.64823 1.05137 0
M  V30 5041 H 476.707 -3.77714 1.60499 0
M  V30 5042 H 476.238 -3.93285 -0.0951739 0
M  V30 5043 H 478.253 -4.87252 -0.938068 0
M  V30 5044 N 477.426 -0.562348 -1.47226 0
M  V30 5045 C 478.666 -0.0426374 -2.04356 0
M  V30 5046 C 479.03 1.28487 -1.42671 0
M  V30 5047 O 480.231 1.89259 -1.90878 0
M  V30 5048 C 478.502 0.0433826 -3.57374 0
M  V30 5049 S 480.061 0.508472 -4.35844 0
M  V30 5050 H 476.879 -0.0276234 -0.710463 0
M  V30 5051 H 479.481 -0.750245 -1.80531 0
M  V30 5052 H 478.185 -0.927072 -3.99792 0
M  V30 5053 H 477.716 0.774387 -3.85703 0
M  V30 5054 H 479.731 1.76719 -4.63665 0
M  V30 5055 N 478.904 1.54736 -0.299062 0
M  V30 5056 C 480.152 1.99706 0.31017 0
M  V30 5057 C 480.473 1.18896 1.54559 0
M  V30 5058 O 479.743 0.284445 1.93824 0
M  V30 5059 H 478.323 0.737686 0.117596 0
M  V30 5060 H 480.985 1.9054 -0.409943 0
M  V30 5061 H 480.081 3.06596 0.58355 0
M  V30 5062 N 480.382 0.0267497 1.57577 0
M  V30 5063 C 481.622 -0.65659 1.93567 0
M  V30 5064 C 481.986 -1.69429 0.903213 0
M  V30 5065 O 483.187 -2.42994 1.14923 0
M  V30 5066 C 481.458 -1.25912 3.34486 0
M  V30 5067 S 483.017 -1.96386 3.924 0
M  V30 5068 H 479.835 -0.216237 0.67732 0
M  V30 5069 H 482.437 0.0898475 1.95293 0
M  V30 5070 H 481.141 -0.491405 4.07447 0
M  V30 5071 H 480.672 -2.04291 3.36198 0
M  V30 5072 H 482.687 -3.24202 3.75643 0
M  V30 5073 N 481.861 -1.55662 -0.24637 0
M  V30 5074 C 482.791 -1.93377 -1.30873 0
M  V30 5075 C 483.772 -0.798773 -1.50179 0
M  V30 5076 O 484.957 -1.0591 -1.62778 0
M  V30 5077 C 482.087 -2.22893 -2.66338 0
M  V30 5078 C 481.041 -3.38649 -2.61727 0
M  V30 5079 C 480.367 -3.53708 -4.00992 0
M  V30 5080 C 481.667 -4.74323 -2.18666 0
M  V30 5081 H 483.361 -2.82363 -0.995552 0
M  V30 5082 H 480.907 -1.35854 -0.477464 0
M  V30 5083 H 482.86 -2.47866 -3.40794 0
M  V30 5084 H 481.584 -1.30733 -2.99293 0
M  V30 5085 H 480.243 -3.13685 -1.89729 0
M  V30 5086 H 479.891 -2.58967 -4.31214 0
M  V30 5087 H 479.591 -4.31551 -3.98795 0
M  V30 5088 H 481.115 -3.81003 -4.77147 0
M  V30 5089 H 482.529 -4.98665 -2.82854 0
M  V30 5090 H 480.926 -5.55273 -2.27579 0
M  V30 5091 H 481.996 -4.71349 -1.13834 0
M  V30 5092 N 483.339 0.512053 -1.4905 0
M  V30 5093 C 484.755 0.84224 -1.35567 0
M  V30 5094 C 484.955 1.97878 -0.380319 0
M  V30 5095 O 484.011 2.51769 0.19201 0
M  V30 5096 C 485.324 1.19286 -2.76028 0
M  V30 5097 C 486.872 1.30171 -2.84648 0
M  V30 5098 C 487.347 1.68568 -4.25851 0
M  V30 5099 N 488.838 1.75638 -4.28609 0
M  V30 5100 C 489.573 2.06769 -5.34821 0
M  V30 5101 N 489.069 2.36201 -6.51292 0
M  V30 5102 N 490.862 2.07927 -5.22229 0
M  V30 5103 H 483.013 -0.237574 -2.11067 0
M  V30 5104 H 485.276 -0.0436747 -0.946993 0
M  V30 5105 H 484.982 0.431199 -3.49047 0
M  V30 5106 H 484.856 2.13889 -3.10695 0
M  V30 5107 H 487.243 2.05411 -2.11873 0
M  V30 5108 H 487.324 0.336457 -2.53578 0
M  V30 5109 H 486.968 0.938824 -4.99148 0
M  V30 5110 H 486.898 2.66174 -4.54377 0
M  V30 5111 H 489.389 1.55097 -3.44606 0
M  V30 5112 H 489.702 2.59112 -7.28066 0
M  V30 5113 H 488.047 2.33681 -6.54536 0
M  V30 5114 H 491.238 1.84403 -4.30248 0
M  V30 5115 H 491.411 2.31856 -6.05101 0
M  V30 5116 N 484.817 1.37938 0.762283 0
M  V30 5117 C 485.747 1.37176 1.88958 0
M  V30 5118 C 486.728 0.238945 1.68413 0
M  V30 5119 O 487.913 0.440726 1.89133 0
M  V30 5120 C 485.043 1.18742 3.2637 0
M  V30 5121 C 483.997 2.29136 3.61498 0
M  V30 5122 C 483.323 1.95816 4.97554 0
M  V30 5123 C 484.623 3.71363 3.6727 0
M  V30 5124 H 486.317 2.31509 1.89853 0
M  V30 5125 H 483.863 1.11438 0.912005 0
M  V30 5126 H 485.816 1.16837 4.04879 0
M  V30 5127 H 484.54 0.208683 3.25933 0
M  V30 5128 H 483.199 2.30213 2.85303 0
M  V30 5129 H 482.847 0.964475 4.93667 0
M  V30 5130 H 482.547 2.69745 5.22026 0
M  V30 5131 H 484.071 1.95513 5.78452 0
M  V30 5132 H 485.485 3.72364 4.35911 0
M  V30 5133 H 483.882 4.44425 4.03245 0
M  V30 5134 H 484.952 4.04305 2.67704 0
M  V30 5135 N 486.295 -0.989507 1.22664 0
M  V30 5136 C 487.543 -1.72612 1.05117 0
M  V30 5137 C 487.864 -1.90552 -0.414131 0
M  V30 5138 O 487.134 -1.4676 -1.29762 0
M  V30 5139 H 485.714 -0.639555 0.385977 0
M  V30 5140 H 488.376 -1.19158 1.54232 0
M  V30 5141 H 487.472 -2.71926 1.53175 0
M  V30 5142 N 487.773 -1.03688 -1.18687 0
M  V30 5143 C 488.706 -0.569112 -2.2099 0
M  V30 5144 C 489.684 0.394315 -1.57746 0
M  V30 5145 O 490.868 0.309519 -1.85941 0
M  V30 5146 C 487.995 0.169104 -3.38278 0
M  V30 5147 C 487.041 -0.746989 -4.19908 0
M  V30 5148 S 487.874 -2.22773 -4.86963 0
M  V30 5149 C 489.03 -1.50025 -6.07654 0
M  V30 5150 H 489.263 -1.43589 -2.60326 0
M  V30 5151 H 486.796 -0.847507 -1.29061 0
M  V30 5152 H 488.754 0.588868 -4.06254 0
M  V30 5153 H 487.415 1.01172 -2.9736 0
M  V30 5154 H 486.608 -0.176626 -5.0369 0
M  V30 5155 H 486.21 -1.10543 -3.5729 0
M  V30 5156 H 488.502 -0.791217 -6.72864 0
M  V30 5157 H 489.445 -2.31498 -6.69189 0
M  V30 5158 H 489.853 -0.994245 -5.55675 0
M  V30 5159 N 489.251 1.34841 -0.815825 0
M  V30 5160 C 490.667 1.51543 -0.500697 0
M  V30 5161 C 490.867 1.76261 0.976444 0
M  V30 5162 O 489.923 1.8094 1.76117 0
M  V30 5163 C 491.236 2.68487 -1.35407 0
M  V30 5164 C 492.784 2.82368 -1.35046 0
M  V30 5165 C 493.259 4.02347 -2.18816 0
M  V30 5166 N 494.75 4.09542 -2.16402 0
M  V30 5167 C 495.485 5.01517 -2.77971 0
M  V30 5168 N 494.981 5.98763 -3.48503 0
M  V30 5169 N 496.774 4.94334 -2.67563 0
M  V30 5170 H 488.925 1.17055 -1.77234 0
M  V30 5171 H 491.188 0.573481 -0.754866 0
M  V30 5172 H 490.894 2.56829 -2.40274 0
M  V30 5173 H 490.768 3.63321 -1.01377 0
M  V30 5174 H 493.155 2.93471 -0.309604 0
M  V30 5175 H 493.236 1.88363 -1.73069 0
M  V30 5176 H 492.88 3.92004 -3.22948 0
M  V30 5177 H 492.81 4.95551 -1.78148 0
M  V30 5178 H 495.301 3.39932 -1.65091 0
M  V30 5179 H 495.614 6.6556 -3.92747 0
M  V30 5180 H 493.959 5.98909 -3.52609 0
M  V30 5181 H 497.15 4.1732 -2.12041 0
M  V30 5182 H 497.323 5.6582 -3.15834 0
M  V30 5183 N 490.729 0.570148 1.46925 0
M  V30 5184 C 491.977 0.0508523 2.02036 0
M  V30 5185 C 492.298 -1.30885 1.44548 0
M  V30 5186 O 491.568 -1.85647 0.625453 0
M  V30 5187 H 490.148 0.0158088 0.746833 0
M  V30 5188 H 492.81 0.743086 1.80178 0
M  V30 5189 H 491.906 -0.027575 3.12088 0
M  V30 5190 N 492.207 -1.54576 0.307264 0
M  V30 5191 C 493.618 -1.8579 -0.184121 0
M  V30 5192 C 493.969 -1.22914 -1.52927 0
M  V30 5193 O 493.094 -0.529126 -2.09831 0
M  V30 5194 C 493.689 -3.37081 -0.340862 0
M  V30 5195 C 492.248 -3.68304 -0.776465 0
M  V30 5196 C 491.395 -2.77076 0.111503 0
M  V30 5197 H 494.346 -1.49656 0.528078 0
M  V30 5198 H 494.367 -3.61922 -1.17443 0
M  V30 5199 H 493.879 -3.82815 0.638309 0
M  V30 5200 H 491.98 -3.28092 -1.76596 0
M  V30 5201 H 492.093 -4.75434 -0.591512 0
M  V30 5202 H 490.457 -2.51374 -0.410256 0
M  V30 5203 H 491.24 -3.25632 1.08714 0
M  V30 5204 N 493.685 -0.035106 -1.57561 0
M  V30 5205 C 494.933 0.64096 -1.91667 0
M  V30 5206 C 495.254 1.72323 -0.912681 0
M  V30 5207 O 494.524 1.95849 0.0449089 0
M  V30 5208 H 493.104 0.239743 -0.707483 0
M  V30 5209 H 495.766 -0.084321 -1.94718 0
M  V30 5210 H 494.862 1.08987 -2.92452 0
M  V30 5211 N 495.163 1.55791 0.238111 0
M  V30 5212 C 496.44 1.68798 0.98826 0
M  V30 5213 C 496.82 0.577562 2.03045 0
M  V30 5214 O 496.168 -0.41778 2.24648 0
M  V30 5215 C 496.378 3.09454 1.61367 0
M  V30 5216 C 497.726 3.68335 2.11221 0
M  V30 5217 O 498.75 3.1231 1.71292 0
M  V30 5218 O 497.609 4.6657 2.84561 0
M  V30 5219 H 494.703 0.686881 0.460568 0
M  V30 5220 H 497.249 1.68118 0.231202 0
M  V30 5221 H 496.021 3.81726 0.860295 0
M  V30 5222 H 495.644 3.14182 2.4367 0
M  V30 5223 N 496.642 -0.504142 1.49319 0
M  V30 5224 C 497.882 -1.26867 1.60263 0
M  V30 5225 C 498.246 -1.89924 0.281578 0
M  V30 5226 O 499.447 -2.67479 0.266176 0
M  V30 5227 C 497.718 -2.30956 2.72753 0
M  V30 5228 S 499.277 -3.1679 3.03628 0
M  V30 5229 H 496.095 -0.431198 0.565322 0
M  V30 5230 H 498.697 -0.571407 1.86963 0
M  V30 5231 H 497.401 -1.83156 3.67263 0
M  V30 5232 H 496.932 -3.05356 2.48035 0
M  V30 5233 H 498.947 -4.31549 2.44908 0
M  V30 5234 N 498.12 -1.38341 -0.754957 0
M  V30 5235 C 499.05 -1.38176 -1.88227 0
M  V30 5236 C 500.031 -0.247873 -1.68284 0
M  V30 5237 O 501.216 -0.45075 -1.88896 0
M  V30 5238 C 498.346 -1.20471 -3.25736 0
M  V30 5239 C 497.3 -2.3105 -3.60278 0
M  V30 5240 C 496.626 -1.98452 -4.96509 0
M  V30 5241 C 497.926 -3.73305 -3.65295 0
M  V30 5242 H 499.62 -2.32512 -1.88622 0
M  V30 5243 H 497.166 -1.1192 -0.906082 0
M  V30 5244 H 499.119 -1.18982 -4.04254 0
M  V30 5245 H 497.843 -0.225965 -3.25817 0
M  V30 5246 H 496.502 -2.31723 -2.84078 0
M  V30 5247 H 496.15 -0.990641 -4.93148 0
M  V30 5248 H 495.85 -2.7251 -5.20588 0
M  V30 5249 H 497.374 -1.98578 -5.77407 0
M  V30 5250 H 498.788 -3.7467 -4.3393 0
M  V30 5251 H 497.185 -4.46557 -4.00883 0
M  V30 5252 H 498.255 -4.05719 -2.65556 0
M  V30 5253 N 499.598 0.982988 -1.23187 0
M  V30 5254 C 500.561 2.05649 -1.01198 0
M  V30 5255 C 501.561 1.6078 0.0252464 0
M  V30 5256 O 502.751 1.72878 -0.214243 0
M  V30 5257 C 499.883 3.36744 -0.530656 0
M  V30 5258 H 501.076 2.2659 -1.96461 0
M  V30 5259 H 498.629 1.15602 -1.05195 0
M  V30 5260 H 499.364 3.21492 0.425873 0
M  V30 5261 H 499.149 3.7065 -1.2791 0
M  V30 5262 H 500.639 4.15705 -0.397366 0
M  V30 5263 N 501.076 1.04316 1.18135 0
M  V30 5264 C 502.492 0.762858 1.40188 0
M  V30 5265 C 502.692 -0.646547 1.90846 0
M  V30 5266 O 501.748 -1.41036 2.0944 0
M  V30 5267 C 503.061 1.81106 2.40044 0
M  V30 5268 C 504.609 1.83226 2.53766 0
M  V30 5269 C 505.084 2.87044 3.56889 0
M  V30 5270 N 506.575 2.85951 3.64398 0
M  V30 5271 C 507.31 3.62932 4.43923 0
M  V30 5272 N 506.806 4.49672 5.27036 0
M  V30 5273 N 508.599 3.51411 4.38711 0
M  V30 5274 H 500.75 1.95264 0.835805 0
M  V30 5275 H 503.013 0.845017 0.429709 0
M  V30 5276 H 502.719 2.82214 2.09876 0
M  V30 5277 H 502.593 1.64529 3.39426 0
M  V30 5278 H 504.98 0.827869 2.8325 0
M  V30 5279 H 505.061 2.03879 1.54489 0
M  V30 5280 H 504.705 3.87663 3.28145 0
M  V30 5281 H 504.635 2.63645 4.5585 0
M  V30 5282 H 507.126 2.23051 3.05052 0
M  V30 5283 H 507.439 5.05116 5.84874 0
M  V30 5284 H 505.784 4.53738 5.26447 0
M  V30 5285 H 508.975 2.83047 3.72829 0
M  V30 5286 H 509.148 4.11654 5.00445 0
M  V30 5287 N 502.554 -1.34406 0.822964 0
M  V30 5288 C 503.517 -2.2783 0.250271 0
M  V30 5289 C 504.517 -1.50288 -0.571854 0
M  V30 5290 O 505.707 -1.69825 -0.387952 0
M  V30 5291 C 502.839 -3.34663 -0.649137 0
M  V30 5292 H 504.032 -2.79992 1.07444 0
M  V30 5293 H 501.585 -1.44539 0.594829 0
M  V30 5294 H 502.32 -2.87714 -1.49637 0
M  V30 5295 H 502.105 -3.92052 -0.0611199 0
M  V30 5296 H 503.595 -4.04349 -1.04363 0
M  V30 5297 N 504.032 -0.577932 -1.46621 0
M  V30 5298 C 505.278 -0.0617793 -2.02706 0
M  V30 5299 C 505.611 1.29294 -1.44903 0
M  V30 5300 O 504.886 1.8461 -0.61232 0
M  V30 5301 C 505.169 0.00911824 -3.60099 0
M  V30 5302 C 505.022 -1.37416 -4.28295 0
M  V30 5303 C 506.341 0.712159 -4.343 0
M  V30 5304 H 503.46 -0.0239246 -0.736612 0
M  V30 5305 H 506.102 -0.744211 -1.74818 0
M  V30 5306 H 504.252 0.590292 -3.83989 0
M  V30 5307 H 505.924 -2.00013 -4.15683 0
M  V30 5308 H 504.167 -1.94319 -3.87843 0
M  V30 5309 H 504.838 -1.27707 -5.37024 0
M  V30 5310 H 507.314 0.218486 -4.15526 0
M  V30 5311 H 506.19 0.730782 -5.44014 0
M  V30 5312 H 506.451 1.77251 -4.05012 0
M  V30 5313 N 505.51 1.54411 -0.315457 0
M  V30 5314 C 506.42 2.27737 0.56329 0
M  V30 5315 C 507.436 1.31787 1.13614 0
M  V30 5316 O 508.612 1.64791 1.15784 0
M  V30 5317 C 505.677 3.01478 1.71207 0
M  V30 5318 C 504.738 4.12997 1.17185 0
M  V30 5319 C 503.971 4.83212 2.26588 0
M  V30 5320 O 504.194 4.52884 3.46775 0
M  V30 5321 O 503.128 5.70299 1.92463 0
M  V30 5322 H 506.954 3.03683 -0.0319614 0
M  V30 5323 H 504.539 1.49178 -0.0814188 0
M  V30 5324 H 506.421 3.47683 2.38106 0
M  V30 5325 H 505.096 2.28414 2.29366 0
M  V30 5326 H 504.003 3.71159 0.468174 0
M  V30 5327 H 505.336 4.8808 0.635501 0
M  V30 5328 N 506.988 0.0434614 1.5754 0
M  V30 5329 C 507.951 -0.918696 2.09982 0
M  V30 5330 C 508.951 -1.24488 1.01781 0
M  V30 5331 O 510.141 -1.18284 1.27885 0
M  V30 5332 C 507.273 -2.23093 2.57764 0
M  V30 5333 H 508.466 -0.464229 2.96285 0
M  V30 5334 H 506.019 -0.204818 1.54952 0
M  V30 5335 H 506.754 -2.73137 1.74832 0
M  V30 5336 H 506.539 -2.00724 3.36827 0
M  V30 5337 H 508.029 -2.92028 2.98512 0
M  V30 5338 N 508.466 -1.55915 -0.229846 0
M  V30 5339 C 509.416 -1.8813 -1.28807 0
M  V30 5340 C 510.4 -0.743621 -1.42685 0
M  V30 5341 O 511.592 -1.00588 -1.4564 0
M  V30 5342 C 508.721 -2.19431 -2.64017 0
M  V30 5343 C 507.807 -3.39569 -2.54074 0
M  V30 5344 N 508.198 -4.58404 -2.13774 0
M  V30 5345 C 506.496 -3.43019 -2.85051 0
M  V30 5346 C 507.197 -5.40557 -2.1488 0
M  V30 5347 N 506.173 -4.80054 -2.55047 0
M  V30 5348 H 509.975 -2.77527 -0.967261 0
M  V30 5349 H 507.489 -1.5637 -0.438433 0
M  V30 5350 H 509.486 -2.40681 -3.40409 0
M  V30 5351 H 508.146 -1.31341 -2.9695 0
M  V30 5352 H 509.157 -4.83716 -1.8504 0
M  V30 5353 H 505.834 -2.65249 -3.22411 0
M  V30 5354 H 507.224 -6.45666 -1.85918 0
M  V30 5355 N 509.944 0.496216 -1.49584 0
M  V30 5356 C 511.169 1.27865 -1.63295 0
M  V30 5357 C 511.594 1.85592 -0.306156 0
M  V30 5358 O 510.952 1.66092 0.726851 0
M  V30 5359 C 511 2.38128 -2.7079 0
M  V30 5360 O 510.104 3.42108 -2.30296 0
M  V30 5361 H 509.445 0.377279 -0.546403 0
M  V30 5362 H 511.975 0.593497 -1.95803 0
M  V30 5363 H 511.985 2.8382 -2.93104 0
M  V30 5364 H 510.66 1.95479 -3.67098 0
M  V30 5365 H 509.237 3.02301 -2.18331 0
M  V30 5366 N 511.423 1.38739 0.74761 0
M  V30 5367 C 512.671 1.35007 1.50391 0
M  V30 5368 C 512.992 -0.0574274 1.94915 0
M  V30 5369 O 512.262 -1.00628 1.6808 0
M  V30 5370 H 510.842 0.496784 0.557866 0
M  V30 5371 H 513.504 1.73479 0.888319 0
M  V30 5372 H 512.6 2.00474 2.392 0
M  V30 5373 N 512.901 -0.976442 1.23707 0
M  V30 5374 C 513.864 -2.0511 1.02287 0
M  V30 5375 C 514.864 -1.60791 -0.0167195 0
M  V30 5376 O 516.054 -1.72761 0.223408 0
M  V30 5377 C 513.186 -3.36458 0.548507 0
M  V30 5378 H 514.379 -2.25545 1.9766 0
M  V30 5379 H 511.932 -1.15042 1.05806 0
M  V30 5380 H 512.667 -3.21713 -0.408818 0
M  V30 5381 H 512.452 -3.69967 1.29874 0
M  V30 5382 H 513.942 -4.15489 0.419406 0
M  V30 5383 N 514.379 -1.04941 -1.1758 0
M  V30 5384 C 515.604 -0.778253 -1.92245 0
M  V30 5385 C 516.029 0.659707 -1.76152 0
M  V30 5386 O 515.387 1.45803 -1.07755 0
M  V30 5387 C 515.435 -1.16051 -3.41416 0
M  V30 5388 O 514.539 -0.291153 -4.11371 0
M  V30 5389 H 513.88 -0.285619 -0.599431 0
M  V30 5390 H 516.41 -1.40159 -1.49052 0
M  V30 5391 H 516.42 -1.12619 -3.92149 0
M  V30 5392 H 515.095 -2.208 -3.52449 0
M  V30 5393 H 513.672 -0.385851 -3.70898 0
M  V30 5394 N 515.857 1.33968 -0.830081 0
M  V30 5395 C 517.085 2.0228 -0.434773 0
M  V30 5396 C 517.5 1.62487 0.961419 0
M  V30 5397 O 516.857 0.833849 1.62337 0
M  V30 5398 C 516.908 3.5751 -0.535625 0
M  V30 5399 O 516.629 3.95864 -1.87679 0
M  V30 5400 C 518.13 4.43091 -0.136137 0
M  V30 5401 H 515.35 0.648151 -0.173613 0
M  V30 5402 H 517.894 1.71089 -1.12022 0
M  V30 5403 H 516.049 3.87266 0.101817 0
M  V30 5404 H 516.463 4.9056 -1.85609 0
M  V30 5405 H 517.937 5.51398 -0.257772 0
M  V30 5406 H 518.414 4.29433 0.921076 0
M  V30 5407 H 519.02 4.18677 -0.747662 0
M  V30 5408 N 517.335 0.585699 1.46312 0
M  V30 5409 C 518.563 0.0781299 2.06752 0
M  V30 5410 C 518.978 -1.22812 1.43396 0
M  V30 5411 O 518.335 -1.74318 0.540314 0
M  V30 5412 C 518.386 -0.0911927 3.61385 0
M  V30 5413 O 518.107 1.16336 4.22371 0
M  V30 5414 C 519.608 -0.632765 4.38761 0
M  V30 5415 H 516.828 0.0588188 0.668417 0
M  V30 5416 H 519.372 0.807218 1.87894 0
M  V30 5417 H 517.527 -0.770514 3.7966 0
M  V30 5418 H 517.941 0.979082 5.15281 0
M  V30 5419 H 519.415 -0.70041 5.47538 0
M  V30 5420 H 519.892 -1.65039 4.07012 0
M  V30 5421 H 520.498 0.0117856 4.25298 0
M  V30 5422 N 518.813 -1.54241 0.323641 0
M  V30 5423 C 520.09 -1.92741 -0.333181 0
M  V30 5424 C 520.47 -1.25326 -1.69872 0
M  V30 5425 O 519.818 -0.396991 -2.25025 0
M  V30 5426 C 520.028 -3.46399 -0.425322 0
M  V30 5427 C 521.376 -4.19029 -0.68557 0
M  V30 5428 O 522.4 -3.52555 -0.50824 0
M  V30 5429 O 521.259 -5.36751 -1.02767 0
M  V30 5430 H 518.353 -0.804811 -0.190286 0
M  V30 5431 H 520.899 -1.65542 0.373361 0
M  V30 5432 H 519.671 -3.87643 0.533737 0
M  V30 5433 H 519.294 -3.79704 -1.17944 0
M  V30 5434 N 520.291 -0.0518155 -1.57515 0
M  V30 5435 C 521.516 0.634896 -1.97443 0
M  V30 5436 C 521.941 1.63546 -0.929207 0
M  V30 5437 O 521.299 1.80981 0.107484 0
M  V30 5438 C 521.347 1.29765 -3.36442 0
M  V30 5439 O 520.451 2.41333 -3.34413 0
M  V30 5440 H 519.792 0.164994 -0.643174 0
M  V30 5441 H 522.322 -0.120407 -2.04245 0
M  V30 5442 H 522.332 1.64918 -3.73184 0
M  V30 5443 H 521.007 0.564361 -4.12053 0
M  V30 5444 H 519.584 2.08122 -3.09418 0
M  V30 5445 N 521.769 1.56035 0.221574 0
M  V30 5446 C 522.994 1.83476 0.967026 0
M  V30 5447 C 523.419 0.632139 1.7716 0
M  V30 5448 O 522.777 -0.419082 1.7639 0
M  V30 5449 C 522.825 3.08907 1.86034 0
M  V30 5450 O 521.929 2.876 2.95567 0
M  V30 5451 H 521.27 0.604913 0.273817 0
M  V30 5452 H 523.8 2.03247 0.234893 0
M  V30 5453 H 523.81 3.3901 2.27016 0
M  V30 5454 H 522.485 3.96068 1.26898 0
M  V30 5455 H 521.062 2.6873 2.58532 0
M  V30 5456 N 523.247 -0.488276 1.49845 0
M  V30 5457 C 524.177 -1.59675 1.70371 0
M  V30 5458 C 525.158 -1.60878 0.552473 0
M  V30 5459 O 526.343 -1.77417 0.78973 0
M  V30 5460 C 523.473 -2.98098 1.782 0
M  V30 5461 C 522.427 -3.11761 2.93239 0
M  V30 5462 C 521.753 -4.51661 2.86193 0
M  V30 5463 C 523.053 -2.90589 4.33999 0
M  V30 5464 H 524.747 -1.42752 2.63177 0
M  V30 5465 H 522.293 -0.685317 1.26647 0
M  V30 5466 H 524.246 -3.75555 1.91144 0
M  V30 5467 H 522.97 -3.16138 0.820018 0
M  V30 5468 H 521.629 -2.36732 2.79917 0
M  V30 5469 H 521.277 -4.66595 1.87877 0
M  V30 5470 H 520.977 -4.61742 3.63412 0
M  V30 5471 H 522.501 -5.31162 3.01163 0
M  V30 5472 H 523.915 -3.57807 4.47936 0
M  V30 5473 H 522.312 -3.1213 5.12538 0
M  V30 5474 H 523.382 -1.86595 4.4756 0
M  V30 5475 N 524.725 -1.39134 -0.740242 0
M  V30 5476 C 526.141 -1.20623 -1.0451 0
M  V30 5477 C 526.341 -0.0641651 -2.01398 0
M  V30 5478 O 525.397 0.585843 -2.4561 0
M  V30 5479 C 526.71 -2.53815 -1.6124 0
M  V30 5480 C 528.258 -2.60615 -1.73346 0
M  V30 5481 C 528.733 -3.94015 -2.33486 0
M  V30 5482 N 530.224 -3.95627 -2.40902 0
M  V30 5483 C 530.959 -4.95616 -2.88361 0
M  V30 5484 N 530.455 -6.06003 -3.35756 0
M  V30 5485 N 532.248 -4.82998 -2.87523 0
M  V30 5486 H 524.399 -2.12176 -0.0975576 0
M  V30 5487 H 526.662 -0.942066 -0.105904 0
M  V30 5488 H 526.368 -3.37911 -0.975144 0
M  V30 5489 H 526.242 -2.73162 -2.6012 0
M  V30 5490 H 528.629 -1.76906 -2.36195 0
M  V30 5491 H 528.71 -2.45123 -0.731336 0
M  V30 5492 H 528.354 -4.78153 -1.71267 0
M  V30 5493 H 528.284 -4.06825 -3.34366 0
M  V30 5494 H 530.775 -3.15903 -2.07398 0
M  V30 5495 H 531.088 -6.78215 -3.70464 0
M  V30 5496 H 529.433 -6.09604 -3.33778 0
M  V30 5497 H 532.624 -3.95866 -2.49816 0
M  V30 5498 H 532.797 -5.61072 -3.24196 0
M  V30 5499 N 526.204 0.969867 -1.24223 0
M  V30 5500 C 527.615 1.52717 -1.07399 0
M  V30 5501 C 527.966 1.92956 0.355298 0
M  V30 5502 O 527.091 1.77112 1.2434 0
M  V30 5503 C 527.686 2.77521 -1.94339 0
M  V30 5504 C 526.245 3.29615 -1.81744 0
M  V30 5505 C 525.392 2.02537 -1.89405 0
M  V30 5506 H 528.343 0.788399 -1.37732 0
M  V30 5507 H 528.364 3.50773 -1.47439 0
M  V30 5508 H 527.876 2.48203 -2.98357 0
M  V30 5509 H 525.977 3.63789 -0.805505 0
M  V30 5510 H 526.09 3.98661 -2.65718 0
M  V30 5511 H 524.454 2.17151 -1.33108 0
M  V30 5512 H 525.237 1.75587 -2.94999 0
M  V30 5513 N 527.682 1.05563 1.17022 0
M  V30 5514 C 529.098 0.777684 1.39371 0
M  V30 5515 C 529.298 -0.626269 1.91521 0
M  V30 5516 O 528.354 -1.38806 2.10924 0
M  V30 5517 C 529.667 1.83642 2.3811 0
M  V30 5518 C 531.215 1.85907 2.51809 0
M  V30 5519 C 531.69 2.90813 3.53824 0
M  V30 5520 N 533.181 2.898 3.61345 0
M  V30 5521 C 533.916 3.6762 4.40049 0
M  V30 5522 N 533.412 4.55237 5.22237 0
M  V30 5523 N 535.205 3.56044 4.34959 0
M  V30 5524 H 527.356 1.9614 0.815047 0
M  V30 5525 H 529.619 0.849527 0.420722 0
M  V30 5526 H 529.325 2.84425 2.06871 0
M  V30 5527 H 529.199 1.6812 3.37662 0
M  V30 5528 H 531.586 0.857865 2.82356 0
M  V30 5529 H 531.667 2.05506 1.52318 0
M  V30 5530 H 531.311 3.91122 3.24015 0
M  V30 5531 H 531.241 2.68465 4.53028 0
M  V30 5532 H 533.732 2.26274 3.02669 0
M  V30 5533 H 534.045 5.11291 5.79484 0
M  V30 5534 H 532.39 4.59296 5.21605 0
M  V30 5535 H 535.581 2.86986 3.69806 0
M  V30 5536 H 535.754 4.16938 4.96051 0
M  V30 5537 N 529.16 -1.33526 0.837174 0
M  V30 5538 C 530.437 -1.92369 0.354065 0
M  V30 5539 C 530.817 -1.76348 -1.16038 0
M  V30 5540 O 530.165 -1.15083 -1.97403 0
M  V30 5541 C 530.375 -3.39728 0.799101 0
M  V30 5542 C 531.723 -4.16877 0.806139 0
M  V30 5543 O 532.747 -3.48373 0.742597 0
M  V30 5544 O 531.606 -5.39166 0.892345 0
M  V30 5545 H 528.7 -0.820952 0.0998378 0
M  V30 5546 H 531.246 -1.42409 0.922913 0
M  V30 5547 H 530.018 -3.45254 1.84162 0
M  V30 5548 H 529.641 -3.97062 0.206731 0
M  V30 5549 N 530.638 -0.59345 -1.46 0
M  V30 5550 C 531.863 -0.0872365 -2.07216 0
M  V30 5551 C 532.288 1.2131 -1.43755 0
M  V30 5552 O 531.646 1.73528 -0.525152 0
M  V30 5553 C 531.694 0.0538197 -3.6056 0
M  V30 5554 O 530.798 1.10765 -3.97247 0
M  V30 5555 H 530.139 -0.0676598 -0.660544 0
M  V30 5556 H 532.669 -0.819445 -1.87473 0
M  V30 5557 H 532.679 0.256567 -4.07193 0
M  V30 5558 H 531.354 -0.895739 -4.0614 0
M  V30 5559 H 529.931 0.882501 -3.62307 0
M  V30 5560 N 532.116 1.54067 -0.331816 0
M  V30 5561 C 533.363 2.00715 0.268269 0
M  V30 5562 C 533.691 1.21986 1.51491 0
M  V30 5563 O 532.946 0.292309 1.93505 0
M  V30 5564 C 533.245 3.51634 0.639392 0
M  V30 5565 C 532.911 4.48018 -0.509019 0
M  V30 5566 C 531.573 4.74089 -0.824209 0
M  V30 5567 C 533.925 5.05237 -1.28003 0
M  V30 5568 C 531.253 5.54637 -1.91298 0
M  V30 5569 C 533.605 5.86972 -2.35895 0
M  V30 5570 C 532.269 6.11342 -2.67987 0
M  V30 5571 H 531.539 0.734469 0.0981667 0
M  V30 5572 H 534.186 1.8596 -0.457304 0
M  V30 5573 H 532.491 3.6416 1.44551 0
M  V30 5574 H 534.188 3.85175 1.11539 0
M  V30 5575 H 530.778 4.27851 -0.253287 0
M  V30 5576 H 534.962 4.8507 -1.04978 0
M  V30 5577 H 530.218 5.71747 -2.16599 0
M  V30 5578 H 534.392 6.30327 -2.96076 0
M  V30 5579 H 532.019 6.73544 -3.5248 0
M  V30 5580 N 533.594 0.0601682 1.57485 0
M  V30 5581 C 535.01 -0.296422 1.56823 0
M  V30 5582 C 535.21 -1.70831 1.0686 0
M  V30 5583 O 534.266 -2.4174 0.729245 0
M  V30 5584 C 535.579 -0.116681 3.00474 0
M  V30 5585 C 537.127 -0.187103 3.1244 0
M  V30 5586 C 537.602 -0.035783 4.57986 0
M  V30 5587 N 539.093 -0.0917676 4.63109 0
M  V30 5588 C 539.828 0.00107251 5.734 0
M  V30 5589 N 539.324 0.146773 6.92645 0
M  V30 5590 N 541.117 -0.0551577 5.62073 0
M  V30 5591 H 533.268 0.983055 1.88281 0
M  V30 5592 H 535.531 0.382386 0.867459 0
M  V30 5593 H 535.237 0.85712 3.41096 0
M  V30 5594 H 535.111 -0.873929 3.66936 0
M  V30 5595 H 537.498 -1.15138 2.71712 0
M  V30 5596 H 537.579 0.601052 2.48638 0
M  V30 5597 H 537.223 0.925212 4.99402 0
M  V30 5598 H 537.153 -0.843196 5.19806 0
M  V30 5599 H 539.644 -0.203261 3.77353 0
M  V30 5600 H 539.957 0.210076 7.72514 0
M  V30 5601 H 538.302 0.181979 6.94762 0
M  V30 5602 H 541.493 -0.167605 4.678 0
M  V30 5603 H 541.666 0.020652 6.47997 0
M  V30 5604 N 535.072 -1.5615 -0.213296 0
M  V30 5605 C 536.32 -1.79191 -0.934612 0
M  V30 5606 C 536.641 -0.630112 -1.84539 0
M  V30 5607 O 535.911 0.35257 -1.92701 0
M  V30 5608 H 534.491 -0.660937 -0.348097 0
M  V30 5609 H 537.153 -1.93618 -0.22317 0
M  V30 5610 H 536.249 -2.71656 -1.53654 0
M  V30 5611 N 536.55 0.480323 -1.50102 0
M  V30 5612 C 537.775 1.26126 -1.64642 0
M  V30 5613 C 538.2 1.85257 -0.325823 0
M  V30 5614 O 537.558 1.66854 0.709194 0
M  V30 5615 C 537.606 2.35243 -2.73301 0
M  V30 5616 O 536.71 3.39646 -2.33911 0
M  V30 5617 H 536.051 0.371463 -0.550374 0
M  V30 5618 H 538.581 0.572696 -1.96421 0
M  V30 5619 H 538.591 2.80695 -2.96098 0
M  V30 5620 H 537.266 1.91574 -3.6915 0
M  V30 5621 H 535.843 2.99969 -2.21525 0
M  V30 5622 N 538.028 1.39524 0.732853 0
M  V30 5623 C 539.444 1.21176 1.03868 0
M  V30 5624 C 539.644 0.0748448 2.01361 0
M  V30 5625 O 538.7 -0.57281 2.45917 0
M  V30 5626 C 540.013 2.54667 1.59892 0
M  V30 5627 C 541.561 2.6153 1.71962 0
M  V30 5628 C 542.036 3.95248 2.31394 0
M  V30 5629 N 543.527 3.96899 2.38801 0
M  V30 5630 C 544.262 4.97138 2.85729 0
M  V30 5631 N 543.758 6.07775 3.32537 0
M  V30 5632 N 545.551 4.84516 2.84957 0
M  V30 5633 H 537.702 2.12225 0.086304 0
M  V30 5634 H 539.965 0.942614 0.100907 0
M  V30 5635 H 539.671 3.38423 0.95721 0
M  V30 5636 H 539.545 2.74538 2.58668 0
M  V30 5637 H 541.932 1.78156 2.35254 0
M  V30 5638 H 542.013 2.45507 0.718327 0
M  V30 5639 H 541.657 4.79054 1.68729 0
M  V30 5640 H 541.587 4.08593 3.32204 0
M  V30 5641 H 544.078 3.16998 2.05719 0
M  V30 5642 H 544.391 6.8017 3.66862 0
M  V30 5643 H 542.736 6.11366 3.30541 0
M  V30 5644 H 545.927 3.97185 2.47713 0
M  V30 5645 H 546.1 5.62783 3.21215 0
M  V30 5646 N 539.506 -0.963266 1.24736 0
M  V30 5647 C 540.731 -1.74699 1.11781 0
M  V30 5648 C 541.156 -1.85267 -0.325258 0
M  V30 5649 O 540.514 -1.32681 -1.23553 0
M  V30 5650 C 540.562 -3.14322 1.76731 0
M  V30 5651 O 539.666 -3.99043 1.04109 0
M  V30 5652 H 539.007 -0.53684 0.390767 0
M  V30 5653 H 541.537 -1.20801 1.65131 0
M  V30 5654 H 541.547 -3.64824 1.82668 0
M  V30 5655 H 540.222 -3.05946 2.81726 0
M  V30 5656 H 538.799 -3.5752 1.05991 0
M  V30 5657 N 540.985 -1.06182 -1.16461 0
M  V30 5658 C 541.915 -0.692861 -2.22984 0
M  V30 5659 C 542.896 0.314122 -1.67174 0
M  V30 5660 O 544.081 0.189499 -1.93273 0
M  V30 5661 C 541.211 -0.07732 -3.47214 0
M  V30 5662 C 540.165 -1.01015 -4.15909 0
M  V30 5663 C 539.491 -0.257973 -5.34077 0
M  V30 5664 C 540.791 -2.33868 -4.67015 0
M  V30 5665 H 542.485 -1.58343 -2.54102 0
M  V30 5666 H 540.031 -0.76279 -1.22137 0
M  V30 5667 H 541.984 0.19266 -4.20959 0
M  V30 5668 H 540.708 0.848254 -3.15392 0
M  V30 5669 H 539.367 -1.26486 -3.44088 0
M  V30 5670 H 539.015 0.670684 -4.98509 0
M  V30 5671 H 538.715 -0.879638 -5.80979 0
M  V30 5672 H 540.239 0.00448788 -6.106 0
M  V30 5673 H 541.653 -2.1279 -5.32347 0
M  V30 5674 H 540.05 -2.91522 -5.24533 0
M  V30 5675 H 541.12 -2.97019 -3.83286 0
M  V30 5676 N 542.463 1.3308 -0.844243 0
M  V30 5677 C 543.688 2.02341 -0.455282 0
M  V30 5678 C 544.113 1.6308 0.93737 0
M  V30 5679 O 543.471 0.826118 1.61385 0
M  V30 5680 C 543.519 3.55743 -0.58988 0
M  V30 5681 O 542.623 4.1063 0.38166 0
M  V30 5682 H 541.964 0.637898 -0.184343 0
M  V30 5683 H 544.494 1.6986 -1.14056 0
M  V30 5684 H 544.504 4.05243 -0.473522 0
M  V30 5685 H 543.179 3.83662 -1.60549 0
M  V30 5686 H 541.756 3.72236 0.22241 0
M  V30 5687 N 543.941 0.601185 1.45683 0
M  V30 5688 C 545.188 0.0938811 2.02282 0
M  V30 5689 C 545.516 -1.27315 1.47041 0
M  V30 5690 O 544.771 -1.85193 0.632623 0
M  V30 5691 C 545.07 -0.00222425 3.574 0
M  V30 5692 C 544.736 1.29963 4.31764 0
M  V30 5693 C 543.398 1.65625 4.51798 0
M  V30 5694 C 545.75 2.1603 4.74321 0
M  V30 5695 C 543.078 2.87119 5.11644 0
M  V30 5696 C 545.43 3.36766 5.3551 0
M  V30 5697 C 544.094 3.72689 5.53768 0
M  V30 5698 H 543.364 0.0343535 0.740203 0
M  V30 5699 H 546.011 0.781522 1.74827 0
M  V30 5700 H 544.316 -0.773096 3.84097 0
M  V30 5701 H 546.013 -0.410794 3.9889 0
M  V30 5702 H 542.603 1.01204 4.1648 0
M  V30 5703 H 546.787 1.89778 4.58582 0
M  V30 5704 H 542.043 3.15065 5.2397 0
M  V30 5705 H 546.217 4.03713 5.67441 0
M  V30 5706 H 543.844 4.66918 5.99909 0
M  V30 5707 N 545.419 -1.53889 0.339982 0
M  V30 5708 C 546.835 -1.59595 -0.0120752 0
M  V30 5709 C 547.035 -1.35605 -1.49042 0
M  V30 5710 O 546.091 -1.14856 -2.24865 0
M  V30 5711 C 547.404 -2.9774 0.420898 0
M  V30 5712 C 548.952 -3.1077 0.37294 0
M  V30 5713 C 549.427 -4.51286 0.781327 0
M  V30 5714 N 550.918 -4.57325 0.735374 0
M  V30 5715 C 551.653 -5.64194 1.02336 0
M  V30 5716 N 551.149 -6.7893 1.37933 0
M  V30 5717 N 552.942 -5.54051 0.947838 0
M  V30 5718 H 545.093 -1.67738 1.30299 0
M  V30 5719 H 547.356 -0.785385 0.530918 0
M  V30 5720 H 547.062 -3.20349 1.45152 0
M  V30 5721 H 546.936 -3.76639 -0.205721 0
M  V30 5722 H 549.323 -2.87886 -0.648505 0
M  V30 5723 H 549.404 -2.33939 1.03472 0
M  V30 5724 H 549.048 -4.74905 1.80077 0
M  V30 5725 H 548.978 -5.26511 0.0970679 0
M  V30 5726 H 551.469 -3.74931 0.472773 0
M  V30 5727 H 551.782 -7.56392 1.58402 0
M  V30 5728 H 550.127 -6.80386 1.41774 0
M  V30 5729 H 553.318 -4.63293 0.669115 0
M  V30 5730 H 553.491 -6.37246 1.17563 0
M  V30 5731 N 546.897 -0.0685191 -1.57451 0
M  V30 5732 C 547.83 0.935736 -2.08133 0
M  V30 5733 C 548.808 1.29317 -0.985698 0
M  V30 5734 O 549.992 1.40304 -1.25886 0
M  V30 5735 C 547.119 2.2448 -2.53627 0
M  V30 5736 C 546.165 2.03917 -3.74593 0
M  V30 5737 S 546.998 1.30154 -5.19442 0
M  V30 5738 C 548.154 2.62346 -5.68265 0
M  V30 5739 H 548.387 0.504473 -2.92989 0
M  V30 5740 H 545.92 0.144169 -1.53725 0
M  V30 5741 H 547.878 2.99718 -2.80499 0
M  V30 5742 H 546.539 2.64731 -1.69045 0
M  V30 5743 H 545.732 3.00788 -4.04404 0
M  V30 5744 H 545.334 1.36815 -3.48077 0
M  V30 5745 H 547.626 3.58448 -5.7491 0
M  V30 5746 H 548.569 2.3715 -6.67207 0
M  V30 5747 H 548.977 2.69401 -4.96068 0
M  V30 5748 N 548.375 1.56261 0.205012 0
M  V30 5749 C 549.791 1.49623 0.555433 0
M  V30 5750 C 549.991 0.766719 1.86343 0
M  V30 5751 O 549.047 0.313158 2.50551 0
M  V30 5752 C 550.36 2.94253 0.619347 0
M  V30 5753 C 551.908 3.04868 0.708855 0
M  V30 5754 C 552.383 4.50888 0.803969 0
M  V30 5755 N 553.874 4.54999 0.867758 0
M  V30 5756 C 554.609 5.65284 0.96135 0
M  V30 5757 N 554.105 6.85282 1.01786 0
M  V30 5758 N 555.898 5.53174 0.997771 0
M  V30 5759 H 548.049 2.0211 -0.653094 0
M  V30 5760 H 550.312 0.919333 -0.231366 0
M  V30 5761 H 550.018 3.50643 -0.272458 0
M  V30 5762 H 549.892 3.47063 1.47741 0
M  V30 5763 H 552.279 2.48532 1.5911 0
M  V30 5764 H 552.36 2.55199 -0.175205 0
M  V30 5765 H 552.004 5.07846 -0.0738798 0
M  V30 5766 H 551.934 4.98279 1.70369 0
M  V30 5767 H 554.425 3.68588 0.833735 0
M  V30 5768 H 554.738 7.65081 1.08951 0
M  V30 5769 H 553.083 6.8796 0.986706 0
M  V30 5770 H 556.274 4.5835 0.950392 0
M  V30 5771 H 556.447 6.39151 1.06725 0
M  V30 5772 N 549.853 -0.472356 1.50355 0
M  V30 5773 C 550.763 -1.59637 1.7191 0
M  V30 5774 C 551.779 -1.63247 0.602195 0
M  V30 5775 O 552.955 -1.81139 0.880369 0
M  V30 5776 C 550.02 -2.9586 1.80742 0
M  V30 5777 C 549.081 -3.02649 3.04471 0
M  V30 5778 C 548.314 -4.32374 3.12872 0
M  V30 5779 O 548.537 -5.22807 2.28099 0
M  V30 5780 O 547.471 -4.44728 4.05587 0
M  V30 5781 H 551.297 -1.44373 2.67189 0
M  V30 5782 H 548.882 -0.651717 1.34436 0
M  V30 5783 H 550.764 -3.7677 1.88739 0
M  V30 5784 H 549.439 -3.11325 0.88647 0
M  V30 5785 H 548.346 -2.20821 3.01975 0
M  V30 5786 H 549.679 -2.92119 3.9614 0
M  V30 5787 N 551.331 -1.39911 -0.725443 0
M  V30 5788 C 552.742 -1.33599 -1.30415 0
M  V30 5789 C 553.093 -0.00481792 -1.96199 0
M  V30 5790 O 552.218 0.897275 -1.96921 0
M  V30 5791 C 552.813 -2.41965 -2.37146 0
M  V30 5792 C 551.372 -2.39144 -2.90667 0
M  V30 5793 C 550.519 -2.23355 -1.64341 0
M  V30 5794 H 553.47 -1.4986 -0.522267 0
M  V30 5795 H 553.491 -2.09304 -3.17761 0
M  V30 5796 H 553.003 -3.38837 -1.89238 0
M  V30 5797 H 551.104 -1.4594 -3.4283 0
M  V30 5798 H 551.217 -3.34362 -3.43131 0
M  V30 5799 H 549.581 -1.70696 -1.89037 0
M  V30 5800 H 550.364 -3.2221 -1.18471 0
M  V30 5801 N 552.809 0.956637 -1.25245 0
M  V30 5802 C 553.739 2.07058 -1.07931 0
M  V30 5803 C 554.72 1.70096 0.0110361 0
M  V30 5804 O 555.905 1.93555 -0.158121 0
M  V30 5805 C 553.035 3.40272 -0.695124 0
M  V30 5806 C 551.989 3.91235 -1.73549 0
M  V30 5807 C 551.315 5.20921 -1.20604 0
M  V30 5808 C 552.615 4.17837 -3.13385 0
M  V30 5809 H 554.309 2.218 -2.01109 0
M  V30 5810 H 551.855 1.06581 -0.968326 0
M  V30 5811 H 553.808 4.1765 -0.560949 0
M  V30 5812 H 552.532 3.25462 0.272355 0
M  V30 5813 H 551.191 3.16025 -1.85807 0
M  V30 5814 H 550.839 5.02479 -0.228846 0
M  V30 5815 H 550.539 5.55987 -1.90136 0
M  V30 5816 H 552.063 6.00897 -1.08421 0
M  V30 5817 H 553.477 4.8588 -3.04292 0
M  V30 5818 H 551.874 4.64154 -3.80369 0
M  V30 5819 H 552.944 3.2419 -3.60595 0
M  V30 5820 N 554.287 1.06798 1.15896 0
M  V30 5821 C 555.512 0.808739 1.90982 0
M  V30 5822 C 555.937 -0.6316 1.77179 0
M  V30 5823 O 555.295 -1.4407 1.10061 0
M  V30 5824 C 555.343 1.21468 3.39526 0
M  V30 5825 O 554.447 0.356562 4.10856 0
M  V30 5826 H 553.788 0.29512 0.594811 0
M  V30 5827 H 556.318 1.42513 1.46804 0
M  V30 5828 H 556.328 1.18844 3.90308 0
M  V30 5829 H 555.003 2.26379 3.48891 0
M  V30 5830 H 553.58 0.444808 3.70238 0
M  V30 5831 N 555.766 -1.3263 0.851289 0
M  V30 5832 C 556.991 -2.02097 0.466006 0
M  V30 5833 C 557.416 -1.63574 -0.928709 0
M  V30 5834 O 556.774 -0.834665 -1.60944 0
M  V30 5835 C 556.822 -3.55425 0.608737 0
M  V30 5836 O 555.926 -4.10827 -0.359878 0
M  V30 5837 H 555.267 -0.636911 0.187724 0
M  V30 5838 H 557.797 -1.69253 1.14955 0
M  V30 5839 H 557.807 -4.04986 0.495006 0
M  V30 5840 H 556.482 -3.82806 1.62581 0
M  V30 5841 H 555.059 -3.72349 -0.202666 0
M  V30 5842 N 557.244 -0.608902 -1.45362 0
M  V30 5843 C 558.493 -0.10218 -2.01441 0
M  V30 5844 C 558.806 1.27546 -1.48295 0
M  V30 5845 O 560.012 1.87498 -1.96359 0
M  V30 5846 C 558.468 -0.131985 -3.59658 0
M  V30 5847 C 558.076 -1.50956 -4.21801 0
M  V30 5848 C 559.82 0.319427 -4.23296 0
M  V30 5849 C 557.727 -1.49568 -5.72174 0
M  V30 5850 H 556.657 -0.0344314 -0.753213 0
M  V30 5851 H 559.308 -0.764426 -1.6682 0
M  V30 5852 H 557.69 0.596939 -3.91475 0
M  V30 5853 H 558.864 -2.26029 -4.01556 0
M  V30 5854 H 557.179 -1.90318 -3.70362 0
M  V30 5855 H 559.776 0.349013 -5.3356 0
M  V30 5856 H 560.119 1.34237 -3.94064 0
M  V30 5857 H 560.652 -0.356273 -3.96201 0
M  V30 5858 H 557.391 -2.49626 -6.06108 0
M  V30 5859 H 556.911 -0.787542 -5.94607 0
M  V30 5860 H 558.59 -1.21989 -6.35396 0
M  V30 5861 N 558.722 1.53707 -0.348139 0
M  V30 5862 C 559.947 2.05877 0.250883 0
M  V30 5863 C 560.372 1.22115 1.43072 0
M  V30 5864 O 559.73 0.235986 1.79758 0
M  V30 5865 C 559.778 3.54886 0.639416 0
M  V30 5866 O 558.882 3.73948 1.73888 0
M  V30 5867 H 558.223 0.662754 0.040653 0
M  V30 5868 H 560.753 1.98303 -0.503685 0
M  V30 5869 H 560.763 3.97601 0.915295 0
M  V30 5870 H 559.438 4.153 -0.223386 0
M  V30 5871 H 558.015 3.43134 1.45991 0
M  V30 5872 N 560.2 0.0768682 1.57412 0
M  V30 5873 C 561.425 -0.603404 1.98428 0
M  V30 5874 C 561.85 -1.62047 0.955108 0
M  V30 5875 O 561.208 -1.81129 -0.0786778 0
M  V30 5876 C 561.256 -1.24396 3.38464 0
M  V30 5877 O 560.36 -2.35982 3.3821 0
M  V30 5878 H 559.701 -0.154741 0.645718 0
M  V30 5879 H 562.231 0.152885 2.04028 0
M  V30 5880 H 562.241 -1.5896 3.7576 0
M  V30 5881 H 560.916 -0.498735 4.12899 0
M  V30 5882 H 559.493 -2.03173 3.1269 0
M  V30 5883 N 561.678 -1.56367 -0.196722 0
M  V30 5884 C 562.924 -1.80796 -0.918725 0
M  V30 5885 C 563.257 -0.650645 -1.82976 0
M  V30 5886 O 562.532 0.348889 -1.91345 0
M  V30 5887 C 562.815 -3.15472 -1.73636 0
M  V30 5888 C 562.668 -4.41693 -0.85015 0
M  V30 5889 C 563.987 -3.46824 -2.70927 0
M  V30 5890 H 561.106 -0.657702 -0.332561 0
M  V30 5891 H 563.748 -1.89086 -0.186186 0
M  V30 5892 H 561.898 -3.08536 -2.36088 0
M  V30 5893 H 563.57 -4.60673 -0.240459 0
M  V30 5894 H 561.813 -4.33517 -0.156785 0
M  V30 5895 H 562.484 -5.32419 -1.45719 0
M  V30 5896 H 564.96 -3.54049 -2.18607 0
M  V30 5897 H 563.836 -4.4218 -3.25219 0
M  V30 5898 H 564.097 -2.70236 -3.49893 0
M  V30 5899 N 563.156 0.464375 -1.50603 0
M  V30 5900 C 564.572 0.798684 -1.38178 0
M  V30 5901 C 564.772 1.96568 -0.44308 0
M  V30 5902 O 563.828 2.52252 0.111814 0
M  V30 5903 C 565.141 1.10444 -2.79683 0
M  V30 5904 C 566.689 1.2105 -2.88645 0
M  V30 5905 C 567.164 1.54934 -4.30998 0
M  V30 5906 N 568.655 1.61913 -4.3398 0
M  V30 5907 C 569.39 1.8965 -5.41129 0
M  V30 5908 N 568.886 2.15361 -6.58477 0
M  V30 5909 N 570.679 1.91207 -5.28579 0
M  V30 5910 H 562.83 -0.304603 -2.10204 0
M  V30 5911 H 565.093 -0.0737804 -0.945125 0
M  V30 5912 H 564.799 0.319934 -3.50242 0
M  V30 5913 H 564.673 2.03896 -3.17342 0
M  V30 5914 H 567.06 1.98567 -2.18301 0
M  V30 5915 H 567.141 0.255613 -2.5452 0
M  V30 5916 H 566.785 0.779549 -5.01882 0
M  V30 5917 H 566.715 2.51584 -4.62615 0
M  V30 5918 H 569.206 1.44055 -3.49366 0
M  V30 5919 H 569.519 2.35818 -7.35941 0
M  V30 5920 H 567.864 2.1274 -6.6164 0
M  V30 5921 H 571.055 1.70622 -4.35897 0
M  V30 5922 H 571.228 2.12488 -6.12171 0
M  V30 5923 N 564.634 1.40294 0.718013 0
M  V30 5924 C 565.859 1.41941 1.5122 0
M  V30 5925 C 566.284 0.0202371 1.88089 0
M  V30 5926 O 565.642 -0.971078 1.53101 0
M  V30 5927 C 565.69 2.3141 2.76554 0
M  V30 5928 O 564.794 1.75567 3.73162 0
M  V30 5929 H 564.135 0.482644 0.456016 0
M  V30 5930 H 566.665 1.84494 0.884478 0
M  V30 5931 H 566.675 2.46513 3.25108 0
M  V30 5932 H 565.35 3.33085 2.49053 0
M  V30 5933 H 563.927 1.69798 3.31999 0
M  V30 5934 N 566.112 -0.949982 1.2575 0
M  V30 5935 C 567.361 -1.68956 1.10168 0
M  V30 5936 C 567.674 -1.92327 -0.356309 0
M  V30 5937 O 568.88 -2.64026 -0.632657 0
M  V30 5938 C 567.336 -3.04196 1.92336 0
M  V30 5939 C 566.944 -2.88603 3.42655 0
M  V30 5940 C 568.688 -3.81904 1.85336 0
M  V30 5941 C 566.595 -4.19262 4.17101 0
M  V30 5942 H 565.525 -0.633645 0.408668 0
M  V30 5943 H 568.176 -1.05719 1.49986 0
M  V30 5944 H 566.558 -3.68363 1.45344 0
M  V30 5945 H 567.732 -2.3334 3.97353 0
M  V30 5946 H 566.047 -2.24345 3.50796 0
M  V30 5947 H 568.644 -4.78688 2.38248 0
M  V30 5948 H 568.987 -4.08099 0.822226 0
M  V30 5949 H 569.52 -3.24495 2.30104 0
M  V30 5950 H 566.259 -3.98254 5.20648 0
M  V30 5951 H 565.779 -4.74273 3.67186 0
M  V30 5952 H 567.458 -4.87775 4.25071 0
M  V30 5953 O 567.629 -1.19786 -1.08322 0
M  V30 5954 H 568.32 -0.948322 -1.68898 0
M  V30 END ATOM
M  V30 BEGIN BOND
M  V30 END BOND
M  V30 END CTAB
M  END
$$$$
