drugbank_target|Q96KS0 Egl nine homolog 2 (DB00126; DB04847)
 OpenBabel12092120073D

  0  0  0     0  0            999 V3000
M  V30 BEGIN CTAB
M  V30 COUNTS 6070 6147 0 0 0
M  V30 BEGIN ATOM
M  V30 1 H -0.908 1.98254 -0.117106 0
M  V30 2 N 0 1.576 0 0
M  V30 3 C 0.933 2.03868 1.02534 0
M  V30 4 C 1.911 0.928543 1.3348 0
M  V30 5 O 3.095 1.19667 1.45644 0
M  V30 6 C 0.222 2.43627 2.35294 0
M  V30 7 C -0.732 3.65373 2.2001 0
M  V30 8 S 0.101 5.13292 1.52614 0
M  V30 9 C 1.257 5.56322 2.86805 0
M  V30 10 H 1.49 2.90518 0.631377 0
M  V30 11 H -0.977 1.52953 0.210867 0
M  V30 12 H 0.981 2.67203 3.11629 0
M  V30 13 H -0.358 1.57376 2.7183 0
M  V30 14 H -1.165 3.90944 3.18086 0
M  V30 15 H -1.563 3.418 1.51819 0
M  V30 16 H 0.729 5.58782 3.83104 0
M  V30 17 H 1.672 6.56266 2.65933 0
M  V30 18 H 2.08 4.83886 2.90714 0
M  V30 19 N 1.4781 -0.272755 1.55222 0
M  V30 20 C 2.7551 -1.02562 1.66555 0
M  V30 21 C 3.1351 -2.04282 0.532189 0
M  V30 22 O 2.4831 -2.23662 -0.467717 0
M  V30 23 C 2.6931 -1.6822 3.05782 0
M  V30 24 C 4.0411 -2.19373 3.63539 0
M  V30 25 O 5.0651 -1.78206 3.08417 0
M  V30 26 O 3.9241 -2.94883 4.60115 0
M  V30 27 H 1.0181 -0.475755 0.676451 0
M  V30 28 H 3.5641 -0.268593 1.67561 0
M  V30 29 H 2.3361 -0.945112 3.79715 0
M  V30 30 H 1.9591 -2.50609 3.08676 0
M  V30 31 N 2.9562 -1.48159 -0.537278 0
M  V30 32 C 4.1812 -1.59707 -1.32319 0
M  V30 33 C 4.6062 -0.254859 -1.86365 0
M  V30 34 O 3.9642 0.772378 -1.64024 0
M  V30 35 C 4.0122 -2.6412 -2.45505 0
M  V30 36 O 3.1162 -2.20774 -3.48328 0
M  V30 37 H 2.4572 -0.535791 -0.392204 0
M  V30 38 H 4.9872 -1.94092 -0.647268 0
M  V30 39 H 4.9972 -2.85166 -2.91795 0
M  V30 40 H 3.6722 -3.61567 -2.05528 0
M  V30 41 H 2.2492 -2.09911 -3.08207 0
M  V30 42 N 4.4343 0.785586 -1.36625 0
M  V30 43 C 5.8453 1.36101 -1.27803 0
M  V30 44 C 6.1963 1.96035 0.0804875 0
M  V30 45 O 5.3213 1.92834 0.982042 0
M  V30 46 C 5.9163 2.47442 -2.31426 0
M  V30 47 C 4.4753 3.00789 -2.26281 0
M  V30 48 C 3.6223 1.73896 -2.15999 0
M  V30 49 H 6.5733 0.586928 -1.47448 0
M  V30 50 H 6.5943 3.2656 -1.95291 0
M  V30 51 H 6.1063 2.03791 -3.30289 0
M  V30 52 H 4.2073 3.48851 -1.30896 0
M  V30 53 H 4.3203 3.57343 -3.19128 0
M  V30 54 H 2.6843 1.9628 -1.62316 0
M  V30 55 H 3.4673 1.32368 -3.16755 0
M  V30 56 N 5.9124 1.20967 1.01018 0
M  V30 57 C 7.1524 1.03511 1.76252 0
M  V30 58 C 7.5164 -0.42458 1.87247 0
M  V30 59 O 8.7174 -0.719508 2.58991 0
M  V30 60 C 6.9884 1.70726 3.13986 0
M  V30 61 S 8.5474 1.68458 4.05176 0
M  V30 62 H 5.3654 0.371037 0.606508 0
M  V30 63 H 7.9674 1.53628 1.20908 0
M  V30 64 H 6.6714 2.76128 3.03614 0
M  V30 65 H 6.2024 1.20767 3.74405 0
M  V30 66 H 8.2174 0.721987 4.90919 0
M  V30 67 N 7.3905 -1.2043 1.01659 0
M  V30 68 C 8.3225 -2.22626 0.544988 0
M  V30 69 C 9.3355 -1.58479 -0.372609 0
M  V30 70 O 10.5245 -1.77679 -0.170958 0
M  V30 71 C 7.6245 -3.38141 -0.22663 0
M  V30 72 C 6.7975 -4.31877 0.692876 0
M  V30 73 C 5.8565 -5.26191 -0.0311616 0
M  V30 74 O 4.8825 -5.6612 0.591343 0
M  V30 75 N 6.0845 -5.65618 -1.30601 0
M  V30 76 H 8.8495 -2.63716 1.42388 0
M  V30 77 H 6.4105 -1.34971 0.894116 0
M  V30 78 H 8.4025 -3.98239 -0.72024 0
M  V30 79 H 6.9725 -2.95943 -1.00681 0
M  V30 80 H 6.1925 -3.69746 1.36679 0
M  V30 81 H 7.4805 -4.91426 1.31824 0
M  V30 82 H 6.8785 -5.3519 -1.83269 0
M  V30 83 H 5.4355 -6.28025 -1.74435 0
M  V30 84 N 8.8686 -0.792821 -1.36206 0
M  V30 85 C 10.2796 -0.429513 -1.81692 0
M  V30 86 C 10.6306 1.04695 -1.65932 0
M  V30 87 O 9.7556 1.81256 -1.18218 0
M  V30 88 C 10.3506 -0.772831 -3.29868 0
M  V30 89 C 8.9096 -0.462307 -3.7355 0
M  V30 90 C 8.0566 -1.00569 -2.5842 0
M  V30 91 H 11.0076 -0.985672 -1.24379 0
M  V30 92 H 11.0286 -0.0651928 -3.80444 0
M  V30 93 H 10.5406 -1.84747 -3.41307 0
M  V30 94 H 8.6416 0.604158 -3.67669 0
M  V30 95 H 8.7546 -0.985299 -4.68859 0
M  V30 96 H 7.1186 -0.428734 -2.51066 0
M  V30 97 H 7.9016 -2.08616 -2.72643 0
M  V30 98 N 10.3467 1.47872 -0.545128 0
M  V30 99 C 11.2787 2.27869 0.246621 0
M  V30 100 C 12.2917 1.36282 0.890561 0
M  V30 101 O 13.4807 1.61207 0.766449 0
M  V30 102 C 10.5807 3.10159 1.36582 0
M  V30 103 C 9.7537 4.29627 0.820954 0
M  V30 104 C 8.8127 4.93607 1.82314 0
M  V30 105 O 7.8387 5.52366 1.37406 0
M  V30 106 N 9.0407 4.87211 3.15603 0
M  V30 107 H 11.8057 2.96459 -0.439539 0
M  V30 108 H 9.3667 1.57367 -0.380421 0
M  V30 109 H 11.3587 3.49829 2.03474 0
M  V30 110 H 9.9287 2.43891 1.9554 0
M  V30 111 H 9.1487 3.94192 -0.0244032 0
M  V30 112 H 10.4367 5.06928 0.436063 0
M  V30 113 H 9.8347 4.40651 3.54744 0
M  V30 114 H 8.3917 5.30937 3.78087 0
M  V30 115 N 11.8248 0.280983 1.55075 0
M  V30 116 C 13.2358 -0.215629 1.85451 0
M  V30 117 C 13.5868 -1.54991 1.203 0
M  V30 118 O 12.7118 -2.10699 0.493435 0
M  V30 119 C 13.3068 -0.398026 3.36454 0
M  V30 120 C 11.8658 -0.838866 3.66933 0
M  V30 121 C 11.0128 0.064458 2.77225 0
M  V30 122 H 13.9638 0.502601 1.50531 0
M  V30 123 H 13.9848 -1.23569 3.59876 0
M  V30 124 H 13.4968 0.573241 3.83843 0
M  V30 125 H 11.5978 -1.8214 3.25048 0
M  V30 126 H 11.7108 -0.672123 4.74362 0
M  V30 127 H 10.0748 -0.452863 2.50642 0
M  V30 128 H 10.8578 1.03172 3.2743 0
M  V30 129 N 13.3029 -1.57598 0.00835791 0
M  V30 130 C 14.2329 -2.1198 -0.979113 0
M  V30 131 C 15.2139 -1.03091 -1.35301 0
M  V30 132 O 16.3989 -1.30818 -1.43528 0
M  V30 133 C 13.5289 -2.62995 -2.26828 0
M  V30 134 C 12.4829 -3.76485 -2.03576 0
M  V30 135 C 11.8089 -4.13846 -3.38579 0
M  V30 136 C 13.1089 -5.0342 -1.39161 0
M  V30 137 H 14.8029 -2.94738 -0.526281 0
M  V30 138 H 12.3489 -1.41783 -0.251704 0
M  V30 139 H 14.3019 -2.99669 -2.96271 0
M  V30 140 H 13.0259 -1.7737 -2.7424 0
M  V30 141 H 11.6849 -3.40217 -1.36557 0
M  V30 142 H 11.3329 -3.25232 -3.83709 0
M  V30 143 H 11.0329 -4.90312 -3.23834 0
M  V30 144 H 12.5569 -4.53086 -4.09323 0
M  V30 145 H 13.9709 -5.37812 -1.98573 0
M  V30 146 H 12.3679 -5.84746 -1.34878 0
M  V30 147 H 13.4379 -4.83548 -0.361868 0
M  V30 148 N 14.781 0.264519 -1.55364 0
M  V30 149 C 16.006 1.01726 -1.80739 0
M  V30 150 C 16.431 1.78836 -0.583044 0
M  V30 151 O 15.789 1.75167 0.467566 0
M  V30 152 C 15.837 1.94482 -3.03659 0
M  V30 153 O 14.941 3.03386 -2.7934 0
M  V30 154 H 14.282 0.290395 -0.597132 0
M  V30 155 H 16.812 0.290854 -2.02522 0
M  V30 156 H 16.822 2.36278 -3.32621 0
M  V30 157 H 15.497 1.37772 -3.92418 0
M  V30 158 H 14.074 2.65844 -2.61498 0
M  V30 159 N 16.2591 1.48442 0.529413 0
M  V30 160 C 17.1911 1.59095 1.64989 0
M  V30 161 C 18.2041 0.475212 1.5571 0
M  V30 162 O 19.3931 0.746081 1.6216 0
M  V30 163 C 16.4931 1.50518 3.0364 0
M  V30 164 C 15.6661 2.77142 3.38395 0
M  V30 165 C 14.7251 2.62012 4.56329 0
M  V30 166 O 13.7511 3.35898 4.59522 0
M  V30 167 N 14.9531 1.71667 5.54536 0
M  V30 168 H 17.7181 2.55723 1.56287 0
M  V30 169 H 15.2791 1.45173 0.716697 0
M  V30 170 H 17.2711 1.38091 3.80412 0
M  V30 171 H 15.8411 0.618627 3.06418 0
M  V30 172 H 15.0611 3.0413 2.50796 0
M  V30 173 H 16.3491 3.61146 3.58401 0
M  V30 174 H 15.7471 1.10841 5.54735 0
M  V30 175 H 14.3041 1.65178 6.30523 0
M  V30 176 N 17.7372 -0.778329 1.37039 0
M  V30 177 C 18.7002 -1.87301 1.32102 0
M  V30 178 C 19.7002 -1.59198 0.226405 0
M  V30 179 O 20.8902 -1.67403 0.481861 0
M  V30 180 C 18.0222 -3.24309 1.05055 0
M  V30 181 H 19.2152 -1.93093 2.29467 0
M  V30 182 H 16.7682 -0.977358 1.21973 0
M  V30 183 H 17.5032 -3.24196 0.0819373 0
M  V30 184 H 17.2882 -3.46098 1.84279 0
M  V30 185 H 18.7782 -4.04382 1.04234 0
M  V30 186 N 19.2153 -1.21501 -1.00376 0
M  V30 187 C 20.1453 -0.999478 -2.11028 0
M  V30 188 C 21.1263 0.0759671 -1.6993 0
M  V30 189 O 22.3113 -0.0841106 -1.94018 0
M  V30 190 C 19.4413 -0.564709 -3.42678 0
M  V30 191 C 18.3953 -1.58486 -3.97576 0
M  V30 192 C 17.7213 -1.00628 -5.25146 0
M  V30 193 C 19.0213 -2.97204 -4.29496 0
M  V30 194 H 20.7153 -1.92495 -2.29317 0
M  V30 195 H 18.2613 -0.92693 -1.102 0
M  V30 196 H 20.2143 -0.401091 -4.19487 0
M  V30 197 H 18.9383 0.396411 -3.24185 0
M  V30 198 H 17.5973 -1.73606 -3.22888 0
M  V30 199 H 17.2453 -0.0368439 -5.02987 0
M  V30 200 H 16.9453 -1.68771 -5.62841 0
M  V30 201 H 18.4693 -0.854015 -6.04598 0
M  V30 202 H 19.8833 -2.8552 -4.97143 0
M  V30 203 H 18.2803 -3.62372 -4.78338 0
M  V30 204 H 19.3503 -3.47956 -3.3772 0
M  V30 205 N 20.6934 1.19889 -1.02296 0
M  V30 206 C 22.1044 1.71124 -0.746568 0
M  V30 207 C 22.4554 1.81939 0.734335 0
M  V30 208 O 21.5804 1.48639 1.57275 0
M  V30 209 C 22.1754 3.10804 -1.34857 0
M  V30 210 C 20.7344 3.59323 -1.1209 0
M  V30 211 C 19.8814 2.3635 -1.45031 0
M  V30 212 H 22.8324 1.04813 -1.19163 0
M  V30 213 H 22.8534 3.73186 -0.742437 0
M  V30 214 H 22.3654 3.029 -2.42638 0
M  V30 215 H 20.4664 3.7255 -0.0610337 0
M  V30 216 H 20.5794 4.4378 -1.80544 0
M  V30 217 H 18.9434 2.39399 -0.869487 0
M  V30 218 H 19.7264 2.31081 -2.53883 0
M  V30 219 N 22.1715 0.800033 1.35784 0
M  V30 220 C 23.1035 0.163596 2.28615 0
M  V30 221 C 24.1165 -0.633317 1.49976 0
M  V30 222 O 25.3055 -0.466754 1.72289 0
M  V30 223 C 22.4055 -0.790958 3.29541 0
M  V30 224 C 21.5785 -0.0418255 4.3738 0
M  V30 225 C 20.6375 -0.91389 5.18203 0
M  V30 226 O 19.6635 -0.367234 5.68014 0
M  V30 227 N 20.8655 -2.23682 5.35674 0
M  V30 228 H 23.6305 0.96105 2.83873 0
M  V30 229 H 21.1915 0.654894 1.48063 0
M  V30 230 H 23.1835 -1.37844 3.80501 0
M  V30 231 H 21.7535 -1.48925 2.74846 0
M  V30 232 H 20.9735 0.726813 3.87442 0
M  V30 233 H 22.2615 0.474719 5.06581 0
M  V30 234 H 21.6595 -2.70497 4.96838 0
M  V30 235 H 20.2165 -2.77369 5.89839 0
M  V30 236 N 23.6496 -1.47581 0.552962 0
M  V30 237 C 24.5796 -2.32762 -0.185451 0
M  V30 238 C 25.5606 -1.43527 -0.912905 0
M  V30 239 O 26.7456 -1.72388 -0.894201 0
M  V30 240 C 23.8756 -3.25219 -1.21859 0
M  V30 241 C 22.8296 -4.23661 -0.607864 0
M  V30 242 C 22.1556 -5.05413 -1.74533 0
M  V30 243 C 23.4556 -5.20481 0.435582 0
M  V30 244 H 25.1496 -2.94749 0.525684 0
M  V30 245 H 22.6956 -1.41738 0.254251 0
M  V30 246 H 24.6486 -3.8365 -1.7433 0
M  V30 247 H 23.3726 -2.61279 -1.95961 0
M  V30 248 H 22.0316 -3.66451 -0.104489 0
M  V30 249 H 21.6796 -4.3788 -2.47529 0
M  V30 250 H 21.3796 -5.72059 -1.34249 0
M  V30 251 H 22.9036 -5.66701 -2.27338 0
M  V30 252 H 24.3176 -5.733 -0.00290157 0
M  V30 253 H 22.7146 -5.95305 0.757067 0
M  V30 254 H 23.7846 -4.66217 1.33303 0
M  V30 255 N 25.1277 -0.289203 -1.54924 0
M  V30 256 C 26.5387 0.205791 -1.85562 0
M  V30 257 C 26.8897 1.54351 -1.2112 0
M  V30 258 O 26.0147 2.10435 -0.504601 0
M  V30 259 C 26.6097 0.380177 -3.3666 0
M  V30 260 C 25.1687 0.819395 -3.67373 0
M  V30 261 C 24.3157 -0.079159 -2.77187 0
M  V30 262 H 27.2667 -0.510577 -1.50262 0
M  V30 263 H 27.2877 1.21659 -3.60526 0
M  V30 264 H 26.7997 -0.593589 -3.83534 0
M  V30 265 H 24.9007 1.80413 -3.26009 0
M  V30 266 H 25.0137 0.646957 -4.74712 0
M  V30 267 H 23.3777 0.439565 -2.50878 0
M  V30 268 H 24.1607 -1.04906 -3.26878 0
M  V30 269 N 26.6058 1.57591 -0.0167156 0
M  V30 270 C 27.8538 1.90906 0.663285 0
M  V30 271 C 28.1748 0.892509 1.73376 0
M  V30 272 O 27.4448 -0.0677623 1.95783 0
M  V30 273 H 26.0248 0.704637 0.247983 0
M  V30 274 H 28.6868 1.94803 -0.0615909 0
M  V30 275 H 27.7828 2.9116 1.12393 0
M  V30 276 N 28.0839 -0.256276 1.55502 0
M  V30 277 C 29.3089 -1.00766 1.81276 0
M  V30 278 C 29.7339 -1.78524 0.59252 0
M  V30 279 O 29.0919 -1.75413 -0.45827 0
M  V30 280 C 29.1399 -1.92869 3.04687 0
M  V30 281 O 28.2439 -3.019 2.80945 0
M  V30 282 H 27.5849 -0.287224 0.598664 0
M  V30 283 H 30.1149 -0.280109 2.02674 0
M  V30 284 H 30.1249 -2.34511 3.33869 0
M  V30 285 H 28.7999 -1.35689 3.93143 0
M  V30 286 H 27.3769 -2.64454 2.62904 0
M  V30 287 N 29.562 -1.4872 -0.521534 0
M  V30 288 C 30.787 -1.61101 -1.30618 0
M  V30 289 C 31.212 -0.274611 -1.86085 0
M  V30 290 O 30.57 0.754937 -1.64834 0
M  V30 291 C 30.618 -2.66709 -2.4269 0
M  V30 292 O 29.722 -2.24456 -3.45967 0
M  V30 293 H 29.063 -0.539921 -0.386499 0
M  V30 294 H 31.593 -1.94767 -0.626645 0
M  V30 295 H 31.603 -2.88245 -2.88754 0
M  V30 296 H 30.278 -3.63727 -2.01682 0
M  V30 297 H 28.855 -2.13168 -3.05964 0
M  V30 298 N 31.0401 0.771051 -1.3745 0
M  V30 299 C 32.2651 1.56529 -1.36065 0
M  V30 300 C 32.6901 1.88029 0.0515859 0
M  V30 301 O 32.0481 1.49282 1.02882 0
M  V30 302 C 32.0961 2.85187 -2.20683 0
M  V30 303 O 31.2001 3.79593 -1.61193 0
M  V30 304 H 30.5411 0.47411 -0.464883 0
M  V30 305 H 33.0711 0.954269 -1.80983 0
M  V30 306 H 33.0811 3.34283 -2.33921 0
M  V30 307 H 31.7561 2.61588 -3.23334 0
M  V30 308 H 30.3331 3.38239 -1.56999 0
M  V30 309 N 32.5182 1.22032 0.997298 0
M  V30 310 C 33.4282 1.00271 2.12092 0
M  V30 311 C 34.4442 -0.047621 1.73935 0
M  V30 312 O 35.6202 0.144136 2.00884 0
M  V30 313 C 32.6852 0.578449 3.4184 0
M  V30 314 C 31.7462 1.70189 3.94125 0
M  V30 315 C 30.9792 1.29778 5.17681 0
M  V30 316 O 31.2022 0.174676 5.70132 0
M  V30 317 O 30.1362 2.11261 5.63607 0
M  V30 318 H 33.9622 1.94398 2.3333 0
M  V30 319 H 31.5472 1.00587 1.10465 0
M  V30 320 H 33.4292 0.351998 4.19927 0
M  V30 321 H 32.1042 -0.334019 3.21972 0
M  V30 322 H 31.0112 1.98282 3.1723 0
M  V30 323 H 32.3442 2.59206 4.18417 0
M  V30 324 N 33.9963 -1.19345 1.0293 0
M  V30 325 C 35.4073 -1.70725 0.755633 0
M  V30 326 C 35.7583 -1.82326 -0.724676 0
M  V30 327 O 34.8833 -1.49471 -1.56484 0
M  V30 328 C 35.4783 -3.10084 1.36503 0
M  V30 329 C 34.0373 -3.58723 1.13994 0
M  V30 330 C 33.1843 -2.35577 1.46283 0
M  V30 331 H 36.1353 -1.0418 1.19718 0
M  V30 332 H 36.1563 -3.72787 0.762217 0
M  V30 333 H 35.6683 -3.01609 2.44241 0
M  V30 334 H 33.7693 -3.72512 0.0807901 0
M  V30 335 H 33.8823 -4.42816 1.82894 0
M  V30 336 H 32.2463 -2.38935 0.88217 0
M  V30 337 H 33.0293 -2.29731 2.55105 0
M  V30 338 N 35.4744 -0.807222 -1.35358 0
M  V30 339 C 36.4044 -0.232509 -2.3234 0
M  V30 340 C 37.3854 0.642386 -1.57504 0
M  V30 341 O 38.5704 0.572526 -1.85569 0
M  V30 342 C 35.7004 0.619238 -3.41735 0
M  V30 343 C 34.6544 -0.157215 -4.27711 0
M  V30 344 C 33.9804 0.816273 -5.28433 0
M  V30 345 C 35.2804 -1.35656 -5.04376 0
M  V30 346 H 36.9744 -1.04276 -2.80654 0
M  V30 347 H 34.5204 -0.50288 -1.34934 0
M  V30 348 H 36.4734 1.03137 -4.08584 0
M  V30 349 H 35.1974 1.46239 -2.92031 0
M  V30 350 H 33.8564 -0.550525 -3.62443 0
M  V30 351 H 33.5044 1.65494 -4.74996 0
M  V30 352 H 33.2044 0.301067 -5.86828 0
M  V30 353 H 34.7284 1.22659 -5.98153 0
M  V30 354 H 36.1424 -1.01927 -5.64166 0
M  V30 355 H 34.5394 -1.8063 -5.7227 0
M  V30 356 H 35.6094 -2.14288 -4.34981 0
M  V30 357 N 36.9525 1.47285 -0.560781 0
M  V30 358 C 37.8625 2.33846 0.187954 0
M  V30 359 C 38.8785 1.48412 0.908293 0
M  V30 360 O 40.0545 1.81332 0.876388 0
M  V30 361 C 37.1195 3.25178 1.2025 0
M  V30 362 C 36.1805 4.26504 0.489208 0
M  V30 363 C 35.4135 5.13472 1.45542 0
M  V30 364 O 35.6365 5.02959 2.6905 0
M  V30 365 O 34.5705 5.93902 0.977963 0
M  V30 366 H 38.3965 2.99177 -0.522177 0
M  V30 367 H 35.9815 1.45903 -0.321364 0
M  V30 368 H 37.8635 3.81584 1.78805 0
M  V30 369 H 36.5385 2.6247 1.89449 0
M  V30 370 H 35.4455 3.73847 -0.137627 0
M  V30 371 H 36.7785 4.91935 -0.161399 0
M  V30 372 N 38.4306 0.297415 1.54768 0
M  V30 373 C 39.8416 -0.195947 1.85669 0
M  V30 374 C 40.1926 -1.53707 1.21937 0
M  V30 375 O 39.3176 -2.10164 0.515754 0
M  V30 376 C 39.9126 -0.362318 3.36857 0
M  V30 377 C 38.4716 -0.799901 3.67802 0
M  V30 378 C 37.6186 0.0938578 2.77141 0
M  V30 379 H 40.5696 0.518538 1.4999 0
M  V30 380 H 40.5906 -1.19745 3.61167 0
M  V30 381 H 40.1026 0.613921 3.83214 0
M  V30 382 H 38.2036 -1.78682 3.26961 0
M  V30 383 H 38.3166 -0.621773 4.75048 0
M  V30 384 H 36.6806 -0.426254 2.51108 0
M  V30 385 H 37.4636 1.06639 3.26318 0
M  V30 386 N 39.9087 -1.5758 0.0250728 0
M  V30 387 C 40.8187 -2.1343 -0.973905 0
M  V30 388 C 41.8347 -1.08556 -1.35984 0
M  V30 389 O 43.0107 -1.40592 -1.44207 0
M  V30 390 C 40.0757 -2.64703 -2.23904 0
M  V30 391 C 39.1367 -3.84276 -1.91391 0
M  V30 392 C 38.3697 -4.33095 -3.11873 0
M  V30 393 O 38.5927 -3.81107 -4.24398 0
M  V30 394 O 37.5267 -5.24984 -2.94406 0
M  V30 395 H 41.3527 -2.99057 -0.529036 0
M  V30 396 H 38.9377 -1.48118 -0.195288 0
M  V30 397 H 40.8197 -2.97769 -2.98181 0
M  V30 398 H 39.4947 -1.82161 -2.6758 0
M  V30 399 H 38.4017 -3.56143 -1.14511 0
M  V30 400 H 39.7347 -4.67968 -1.52534 0
M  V30 401 N 41.3868 0.248026 -1.55636 0
M  V30 402 C 42.7978 0.817177 -1.67866 0
M  V30 403 C 43.1488 1.86069 -0.622322 0
M  V30 404 O 42.2738 2.15157 0.231618 0
M  V30 405 C 42.8688 1.489 -3.04326 0
M  V30 406 C 41.4278 2.00587 -3.185 0
M  V30 407 C 40.5748 0.856573 -2.63739 0
M  V30 408 H 43.5258 0.0238579 -1.58682 0
M  V30 409 H 43.5468 2.35698 -2.98708 0
M  V30 410 H 43.0588 0.729279 -3.81186 0
M  V30 411 H 41.1598 2.79443 -2.4646 0
M  V30 412 H 41.2728 2.20402 -4.25393 0
M  V30 413 H 39.6368 1.25678 -2.21534 0
M  V30 414 H 40.4198 0.109953 -3.43124 0
M  V30 415 N 42.8649 1.48995 0.513639 0
M  V30 416 C 44.1129 1.57531 1.26604 0
M  V30 417 C 44.4339 0.258236 1.93283 0
M  V30 418 O 43.7039 -0.721502 1.8213 0
M  V30 419 H 42.2839 0.580387 0.470276 0
M  V30 420 H 44.9459 1.85552 0.596373 0
M  V30 421 H 44.0419 2.36486 2.03669 0
M  V30 422 N 44.343 -0.763751 1.37857 0
M  V30 423 C 45.759 -1.06542 1.18832 0
M  V30 424 C 45.959 -2.01478 0.0299722 0
M  V30 425 O 45.015 -2.4458 -0.627447 0
M  V30 426 C 46.328 -1.65525 2.51042 0
M  V30 427 C 47.876 -1.77745 2.57635 0
M  V30 428 C 48.351 -2.4014 3.89996 0
M  V30 429 N 49.842 -2.47582 3.91481 0
M  V30 430 C 50.577 -2.96732 4.9065 0
M  V30 431 N 50.073 -3.45993 6.00217 0
M  V30 432 N 51.866 -2.95679 4.78048 0
M  V30 433 H 44.017 -0.133556 2.1198 0
M  V30 434 H 46.28 -0.121879 0.940133 0
M  V30 435 H 45.986 -1.03236 3.36207 0
M  V30 436 H 45.86 -2.64719 2.68707 0
M  V30 437 H 48.247 -2.39164 1.72872 0
M  V30 438 H 48.328 -0.772836 2.43846 0
M  V30 439 H 47.972 -1.79358 4.75177 0
M  V30 440 H 47.902 -3.41223 4.01092 0
M  V30 441 H 50.393 -2.1273 3.12337 0
M  V30 442 H 50.706 -3.81922 6.7183 0
M  V30 443 H 49.051 -3.44077 6.03851 0
M  V30 444 H 52.242 -2.56499 3.91568 0
M  V30 445 H 52.415 -3.33672 5.55488 0
M  V30 446 N 45.8211 -1.22559 -0.990812 0
M  V30 447 C 46.7841 -0.998863 -2.0629 0
M  V30 448 C 47.7841 0.0354834 -1.60761 0
M  V30 449 O 48.9741 -0.203231 -1.7301 0
M  V30 450 C 46.1061 -0.509203 -3.37076 0
M  V30 451 H 47.2991 -1.95014 -2.27837 0
M  V30 452 H 44.8521 -1.04456 -1.16269 0
M  V30 453 H 45.5871 0.446335 -3.21214 0
M  V30 454 H 45.3721 -1.25547 -3.71457 0
M  V30 455 H 46.8621 -0.370888 -4.1595 0
M  V30 456 N 47.2992 1.18797 -1.03562 0
M  V30 457 C 48.7152 1.40671 -0.753917 0
M  V30 458 C 48.9152 1.9043 0.658686 0
M  V30 459 O 47.9712 2.08538 1.42366 0
M  V30 460 C 49.2842 2.41192 -1.79574 0
M  V30 461 C 50.8322 2.54928 -1.81606 0
M  V30 462 C 51.3072 3.58709 -2.84766 0
M  V30 463 N 52.7982 3.66212 -2.83625 0
M  V30 464 C 53.5332 4.46225 -3.60098 0
M  V30 465 N 53.0292 5.29888 -4.46308 0
M  V30 466 N 54.8222 4.40939 -3.4861 0
M  V30 467 H 46.9732 0.848221 -1.94728 0
M  V30 468 H 49.2362 0.435081 -0.842264 0
M  V30 469 H 48.9422 2.11669 -2.80872 0
M  V30 470 H 48.8162 3.40467 -1.62365 0
M  V30 471 H 51.2032 2.83771 -0.809817 0
M  V30 472 H 51.2842 1.55784 -2.02891 0
M  V30 473 H 50.9282 3.30607 -3.85566 0
M  V30 474 H 50.8582 4.57519 -2.60737 0
M  V30 475 H 53.3492 3.06466 -2.21105 0
M  V30 476 H 53.6622 5.88078 -5.01382 0
M  V30 477 H 52.0072 5.29326 -4.50377 0
M  V30 478 H 55.1982 3.74624 -2.80668 0
M  V30 479 H 55.3712 5.03056 -4.08459 0
M  V30 480 N 48.7773 0.814389 1.34928 0
M  V30 481 C 49.7103 0.175641 2.27523 0
M  V30 482 C 50.6883 -0.662953 1.48471 0
M  V30 483 O 51.8723 -0.628545 1.77712 0
M  V30 484 C 48.9993 -0.755516 3.30166 0
M  V30 485 C 48.0453 0.00445305 4.265 0
M  V30 486 S 48.8783 1.34582 5.18313 0
M  V30 487 C 50.0343 0.419315 6.24494 0
M  V30 488 H 50.2673 0.960691 2.8135 0
M  V30 489 H 47.8003 0.609846 1.41846 0
M  V30 490 H 49.7583 -1.28723 3.89796 0
M  V30 491 H 48.4193 -1.51402 2.75202 0
M  V30 492 H 47.6123 -0.703077 4.99072 0
M  V30 493 H 47.2143 0.466447 3.7108 0
M  V30 494 H 49.5063 -0.392432 6.76362 0
M  V30 495 H 50.4493 1.11446 6.99275 0
M  V30 496 H 50.8573 0.0115389 5.64499 0
M  V30 497 N 50.2554 -1.46986 0.568584 0
M  V30 498 C 51.5034 -2.02041 0.0487022 0
M  V30 499 C 51.8244 -1.44408 -1.31039 0
M  V30 500 O 51.0944 -0.623477 -1.85714 0
M  V30 501 H 49.6744 -0.746849 0.015014 0
M  V30 502 H 52.3364 -1.80257 0.741168 0
M  V30 503 H 51.4324 -3.12085 -0.0308961 0
M  V30 504 N 51.7335 -0.305618 -1.54608 0
M  V30 505 C 52.9795 0.302746 -2.00528 0
M  V30 506 C 53.3125 1.53184 -1.19367 0
M  V30 507 O 52.5875 1.92598 -0.271321 0
M  V30 508 C 52.8705 0.654756 -3.54097 0
M  V30 509 C 52.7235 -0.583793 -4.45995 0
M  V30 510 C 54.0425 1.47947 -4.14487 0
M  V30 511 H 51.1615 0.108564 -0.72896 0
M  V30 512 H 53.8035 -0.418634 -1.85331 0
M  V30 513 H 51.9535 1.26935 -3.67178 0
M  V30 514 H 53.6255 -1.22224 -4.44814 0
M  V30 515 H 51.8685 -1.21615 -4.16404 0
M  V30 516 H 52.5395 -0.293287 -5.5122 0
M  V30 517 H 55.0155 0.96013 -4.04871 0
M  V30 518 H 53.8915 1.69454 -5.22088 0
M  V30 519 H 54.1525 2.47011 -3.66658 0
M  V30 520 N 53.2116 1.57565 -0.0334293 0
M  V30 521 C 54.1216 2.13943 0.962572 0
M  V30 522 C 55.1376 1.09276 1.35406 0
M  V30 523 O 56.3136 1.41355 1.4346 0
M  V30 524 C 53.3786 2.65887 2.22497 0
M  V30 525 C 52.4396 3.85286 1.8935 0
M  V30 526 C 51.6726 4.34743 3.09571 0
M  V30 527 O 51.8956 3.83352 4.22371 0
M  V30 528 O 50.8296 5.26538 2.91618 0
M  V30 529 H 54.6556 2.99333 0.513169 0
M  V30 530 H 52.2406 1.4822 0.18743 0
M  V30 531 H 54.1226 2.99346 2.96598 0
M  V30 532 H 52.7976 1.83578 2.6661 0
M  V30 533 H 51.7046 3.56746 1.1262 0
M  V30 534 H 53.0376 4.68771 1.5005 0
M  V30 535 N 54.6897 -0.239769 1.55765 0
M  V30 536 C 55.9147 -0.988373 1.82335 0
M  V30 537 C 56.3397 -1.77886 0.611421 0
M  V30 538 O 55.6977 -1.75889 -0.439639 0
M  V30 539 C 55.7457 -1.89627 3.06715 0
M  V30 540 O 54.8497 -2.98904 2.84131 0
M  V30 541 H 54.1907 -0.280858 0.601677 0
M  V30 542 H 56.7207 -0.258597 2.02959 0
M  V30 543 H 56.7307 -2.30957 3.36338 0
M  V30 544 H 55.4057 -1.31511 3.9456 0
M  V30 545 H 53.9827 -2.61651 2.65694 0
M  V30 546 N 56.1678 -1.49265 -0.50573 0
M  V30 547 C 57.3978 -1.61979 -1.28243 0
M  V30 548 C 57.8058 -0.288576 -1.86986 0
M  V30 549 O 57.1488 0.735408 -1.68337 0
M  V30 550 C 57.2108 -2.62632 -2.45489 0
M  V30 551 C 56.8748 -4.071 -2.07651 0
M  V30 552 C 57.8718 -4.94049 -1.61901 0
M  V30 553 C 55.5568 -4.52801 -2.17431 0
M  V30 554 C 57.5508 -6.24736 -1.26428 0
M  V30 555 C 55.2378 -5.83503 -1.8157 0
M  V30 556 C 56.2358 -6.69294 -1.36142 0
M  V30 557 O 55.9238 -7.9756 -1.00764 0
M  V30 558 H 55.6558 -0.54834 -0.395347 0
M  V30 559 H 58.2098 -1.96002 -0.614204 0
M  V30 560 H 56.4398 -2.2378 -3.15372 0
M  V30 561 H 58.1288 -2.64925 -3.07522 0
M  V30 562 H 58.8948 -4.5997 -1.53795 0
M  V30 563 H 54.7738 -3.86196 -2.51742 0
M  V30 564 H 58.3178 -6.91652 -0.908992 0
M  V30 565 H 54.2148 -6.17112 -1.89324 0
M  V30 566 H 54.9828 -8.10529 -1.13952 0
M  V30 567 N 57.6459 0.756429 -1.3826 0
M  V30 568 C 58.5759 1.88374 -1.37976 0
M  V30 569 C 59.5569 1.68311 -0.246082 0
M  V30 570 O 60.7419 1.88944 -0.44874 0
M  V30 571 C 57.8719 3.25864 -1.20125 0
M  V30 572 C 56.8259 3.60523 -2.30666 0
M  V30 573 C 56.1519 4.9672 -1.97923 0
M  V30 574 C 57.4519 3.65692 -3.72916 0
M  V30 575 H 59.1459 1.88869 -2.32312 0
M  V30 576 H 56.6919 0.907272 -1.11824 0
M  V30 577 H 58.6449 4.0438 -1.18552 0
M  V30 578 H 57.3689 3.25841 -0.222498 0
M  V30 579 H 56.0279 2.84324 -2.3142 0
M  V30 580 H 55.6759 4.93253 -0.985393 0
M  V30 581 H 55.3759 5.20878 -2.71955 0
M  V30 582 H 56.8999 5.77618 -1.97964 0
M  V30 583 H 58.3139 4.34328 -3.74208 0
M  V30 584 H 56.7109 4.01358 -4.4613 0
M  V30 585 H 57.7809 2.65987 -4.05436 0
M  V30 586 N 59.124 1.23083 0.984299 0
M  V30 587 C 60.535 1.05609 1.5396 0
M  V30 588 C 60.886 -0.377793 1.92528 0
M  V30 589 O 60.011 -1.26398 1.75649 0
M  V30 590 C 60.606 1.91087 2.7977 0
M  V30 591 C 59.165 1.77885 3.31713 0
M  V30 592 C 58.312 1.87028 2.04733 0
M  V30 593 H 61.263 1.36802 0.804419 0
M  V30 594 H 61.284 1.43336 3.5247 0
M  V30 595 H 60.796 2.9544 2.51668 0
M  V30 596 H 58.897 0.762995 3.64704 0
M  V30 597 H 59.01 2.61047 4.01735 0
M  V30 598 H 57.374 1.30565 2.18689 0
M  V30 599 H 58.157 2.92929 1.79017 0
M  V30 600 N 60.6021 -1.18246 1.0419 0
M  V30 601 C 61.8421 -1.89948 0.754916 0
M  V30 602 C 62.2061 -1.78608 -0.70451 0
M  V30 603 O 63.4071 -2.4503 -1.10516 0
M  V30 604 C 61.6781 -3.36305 1.20969 0
M  V30 605 S 63.2371 -4.26088 1.04854 0
M  V30 606 H 60.0551 -0.655897 0.274446 0
M  V30 607 H 62.6571 -1.42873 1.33445 0
M  V30 608 H 61.3611 -3.42089 2.26722 0
M  V30 609 H 60.8921 -3.8842 0.624004 0
M  V30 610 H 62.9071 -4.96189 -0.0332896 0
M  V30 611 N 62.0802 -0.821533 -1.34494 0
M  V30 612 C 63.4912 -0.467956 -1.8074 0
M  V30 613 C 63.8422 1.01151 -1.68116 0
M  V30 614 O 62.9672 1.78707 -1.22036 0
M  V30 615 C 63.5622 -0.842627 -3.28154 0
M  V30 616 C 62.1212 -0.541439 -3.72485 0
M  V30 617 C 61.2682 -1.06028 -2.56229 0
M  V30 618 H 64.2192 -1.01183 -1.22261 0
M  V30 619 H 64.2402 -0.145876 -3.8022 0
M  V30 620 H 63.7522 -1.91945 -3.37311 0
M  V30 621 H 61.8532 0.526034 -3.68868 0
M  V30 622 H 61.9662 -1.08453 -4.66663 0
M  V30 623 H 60.3302 -0.481892 -2.501 0
M  V30 624 H 61.1132 -2.14352 -2.68157 0
M  V30 625 N 63.5583 1.46682 -0.576371 0
M  V30 626 C 64.4883 2.33028 0.148397 0
M  V30 627 C 65.4693 1.44961 0.889956 0
M  V30 628 O 66.6543 1.73789 0.866662 0
M  V30 629 C 63.7843 3.27117 1.1667 0
M  V30 630 C 62.7383 4.24575 0.540386 0
M  V30 631 C 62.0643 5.08126 1.6647 0
M  V30 632 C 63.3643 5.19722 -0.518331 0
M  V30 633 H 65.0583 2.93875 -0.572509 0
M  V30 634 H 62.6043 1.41315 -0.276768 0
M  V30 635 H 64.5573 3.86374 1.68204 0
M  V30 636 H 63.2813 2.64364 1.9178 0
M  V30 637 H 61.9403 3.66571 0.0461769 0
M  V30 638 H 61.5883 4.41762 2.40531 0
M  V30 639 H 61.2883 5.74122 1.25131 0
M  V30 640 H 62.8123 5.70246 2.18293 0
M  V30 641 H 64.2263 5.73232 -0.0883058 0
M  V30 642 H 62.6233 5.94026 -0.851679 0
M  V30 643 H 63.6933 4.64037 -1.40703 0
M  V30 644 N 65.0364 0.313813 1.54444 0
M  V30 645 C 65.9664 -0.549454 2.26943 0
M  V30 646 C 66.9474 -1.12741 1.27372 0
M  V30 647 O 68.1324 -1.15436 1.56167 0
M  V30 648 C 65.2624 -1.71523 3.01989 0
M  V30 649 C 64.2164 -1.26703 4.08816 0
M  V30 650 C 63.5424 -2.51898 4.71647 0
M  V30 651 C 64.8424 -0.388962 5.2085 0
M  V30 652 H 66.5364 0.0552661 2.99349 0
M  V30 653 H 64.0824 0.0280207 1.43973 0
M  V30 654 H 66.0354 -2.32535 3.51433 0
M  V30 655 H 64.7594 -2.34639 2.27183 0
M  V30 656 H 63.4184 -0.679896 3.6024 0
M  V30 657 H 63.0664 -3.13356 3.93468 0
M  V30 658 H 62.7664 -2.22605 5.43802 0
M  V30 659 H 64.2904 -3.1369 5.23861 0
M  V30 660 H 65.7044 -0.905107 5.6611 0
M  V30 661 H 64.1014 -0.18924 5.99802 0
M  V30 662 H 65.1714 0.582699 4.81386 0
M  V30 663 N 66.5145 -1.57545 0.0417849 0
M  V30 664 C 67.9255 -1.80011 -0.495259 0
M  V30 665 C 68.2765 -0.953199 -1.71489 0
M  V30 666 O 67.4015 -0.167138 -2.15754 0
M  V30 667 C 67.9965 -3.26482 -0.905265 0
M  V30 668 C 66.5555 -3.499 -1.38734 0
M  V30 669 C 65.7025 -2.74979 -0.358056 0
M  V30 670 H 68.6535 -1.56425 0.267736 0
M  V30 671 H 68.6745 -3.36887 -1.76882 0
M  V30 672 H 68.1865 -3.88096 -0.017401 0
M  V30 673 H 66.2875 -2.93553 -2.29471 0
M  V30 674 H 66.4005 -4.58615 -1.38598 0
M  V30 675 H 64.7645 -2.40834 -0.828912 0
M  V30 676 H 65.5475 -3.39315 0.521561 0
M  V30 677 N 67.9926 0.231505 -1.5589 0
M  V30 678 C 69.2176 0.978689 -1.82856 0
M  V30 679 C 69.6426 1.77559 -0.620846 0
M  V30 680 O 69.0006 1.76119 0.430305 0
M  V30 681 C 69.0486 1.87997 -3.07716 0
M  V30 682 O 68.1526 2.97393 -2.85712 0
M  V30 683 H 67.4936 0.277663 -0.603158 0
M  V30 684 H 70.0236 0.24783 -2.03093 0
M  V30 685 H 70.0336 2.2917 -3.37558 0
M  V30 686 H 68.7086 1.29417 -3.95252 0
M  V30 687 H 67.2856 2.60238 -2.67078 0
M  V30 688 N 69.4707 1.49531 0.497807 0
M  V30 689 C 70.7007 1.62657 1.27382 0
M  V30 690 C 71.1087 0.298488 1.86831 0
M  V30 691 O 70.4517 -0.72647 1.68725 0
M  V30 692 C 70.5137 2.6393 2.44093 0
M  V30 693 C 70.1777 4.08195 2.05489 0
M  V30 694 C 71.1747 4.949 1.59279 0
M  V30 695 C 68.8597 4.53948 2.15026 0
M  V30 696 C 70.8537 6.25397 1.23113 0
M  V30 697 C 68.5407 5.84458 1.78473 0
M  V30 698 C 69.5387 6.70006 1.32591 0
M  V30 699 O 69.2267 7.98083 0.965327 0
M  V30 700 H 68.9587 0.550429 0.392434 0
M  V30 701 H 71.5127 1.96325 0.603801 0
M  V30 702 H 69.7427 2.25449 3.14181 0
M  V30 703 H 71.4317 2.66552 3.06113 0
M  V30 704 H 72.1977 4.60779 1.51354 0
M  V30 705 H 68.0767 3.87525 2.4969 0
M  V30 706 H 71.6207 6.92125 0.872299 0
M  V30 707 H 67.5177 6.18107 1.86048 0
M  V30 708 H 68.2857 8.11122 1.09652 0
M  V30 709 N 70.9488 -0.749086 1.3866 0
M  V30 710 C 71.8988 -1.85368 1.32751 0
M  V30 711 C 72.8828 -1.59511 0.210945 0
M  V30 712 O 74.0748 -1.71255 0.447299 0
M  V30 713 C 71.2038 -3.23131 1.15935 0
M  V30 714 C 70.2898 -3.54864 2.32233 0
M  V30 715 N 70.6808 -3.57625 3.57684 0
M  V30 716 C 68.9788 -3.85154 2.24883 0
M  V30 717 C 69.6798 -3.86753 4.34508 0
M  V30 718 N 68.6558 -4.03812 3.63918 0
M  V30 719 H 72.4578 -1.85787 2.27729 0
M  V30 720 H 69.9718 -0.946658 1.31955 0
M  V30 721 H 71.9688 -4.02185 1.09786 0
M  V30 722 H 70.6288 -3.23961 0.218947 0
M  V30 723 H 71.6398 -3.39276 3.91295 0
M  V30 724 H 68.3168 -3.93672 1.39027 0
M  V30 725 H 69.7068 -3.95474 5.43185 0
M  V30 726 N 72.4269 -1.23603 -0.977757 0
M  V30 727 C 73.6669 -1.08148 -1.73446 0
M  V30 728 C 74.0309 0.374785 -1.88307 0
M  V30 729 O 75.2319 0.650588 -2.60808 0
M  V30 730 C 73.5029 -1.78991 -3.0935 0
M  V30 731 S 75.0619 -1.79141 -4.00567 0
M  V30 732 H 71.8799 -0.386987 -0.596458 0
M  V30 733 H 74.4819 -1.5678 -1.16792 0
M  V30 734 H 73.1859 -2.8408 -2.96187 0
M  V30 735 H 72.7169 -1.30651 -3.71071 0
M  V30 736 H 74.7319 -0.851892 -4.88833 0
M  V30 737 N 73.905 1.17692 -1.04816 0
M  V30 738 C 75.316 1.69501 -0.782698 0
M  V30 739 C 75.667 1.83456 0.695577 0
M  V30 740 O 74.792 1.51942 1.54086 0
M  V30 741 C 75.387 3.07874 -1.41419 0
M  V30 742 C 73.946 3.56864 -1.19686 0
M  V30 743 C 73.093 2.3322 -1.50012 0
M  V30 744 H 76.044 1.02262 -1.2136 0
M  V30 745 H 76.065 3.71528 -0.821428 0
M  V30 746 H 75.577 2.97685 -2.49009 0
M  V30 747 H 73.678 3.72337 -0.140043 0
M  V30 748 H 73.791 4.39851 -1.89916 0
M  V30 749 H 72.155 2.37501 -0.920071 0
M  V30 750 H 72.938 2.25644 -2.58727 0
M  V30 751 N 75.3831 0.828654 1.34056 0
M  V30 752 C 76.6311 0.41863 1.97717 0
M  V30 753 C 76.9521 -1.02314 1.66002 0
M  V30 754 O 76.2221 -1.71119 0.953683 0
M  V30 755 H 74.8021 0.151809 0.731412 0
M  V30 756 H 77.4641 1.05936 1.63596 0
M  V30 757 H 76.5601 0.542318 3.07352 0
M  V30 758 N 76.8612 -1.46375 0.584142 0
M  V30 759 C 78.1072 -2.02678 0.0703716 0
M  V30 760 C 78.4402 -1.4545 -1.28678 0
M  V30 761 O 77.7152 -0.62014 -1.84349 0
M  V30 762 C 77.9982 -3.60099 0.00614674 0
M  V30 763 C 77.8512 -4.27709 1.3923 0
M  V30 764 C 79.1702 -4.34598 -0.693742 0
M  V30 765 H 76.2892 -0.736504 0.027047 0
M  V30 766 H 78.9312 -1.74501 0.751615 0
M  V30 767 H 77.0812 -3.84236 -0.574009 0
M  V30 768 H 78.7532 -4.14832 2.01773 0
M  V30 769 H 76.9962 -3.87016 1.95962 0
M  V30 770 H 77.6672 -5.36478 1.29982 0
M  V30 771 H 80.1432 -4.15615 -0.200869 0
M  V30 772 H 79.0192 -5.44318 -0.707714 0
M  V30 773 H 79.2802 -4.05759 -1.75533 0
M  V30 774 N 78.3393 -0.321999 -1.54275 0
M  V30 775 C 79.7503 0.166384 -1.85957 0
M  V30 776 C 80.1013 1.51747 -1.24367 0
M  V30 777 O 79.2263 2.09317 -0.549124 0
M  V30 778 C 79.8213 0.308681 -3.37391 0
M  V30 779 C 78.3803 0.741286 -3.69028 0
M  V30 780 C 77.5273 -0.137937 -2.76957 0
M  V30 781 H 80.4783 -0.542335 -1.49146 0
M  V30 782 H 80.4993 1.13984 -3.63026 0
M  V30 783 H 80.0113 -0.674809 -3.82188 0
M  V30 784 H 78.1123 1.73458 -3.29762 0
M  V30 785 H 78.2253 0.546118 -4.75977 0
M  V30 786 H 76.5893 0.386251 -2.51754 0
M  V30 787 H 77.3723 -1.11816 -3.2458 0
M  V30 788 N 79.8174 1.5752 -0.0501392 0
M  V30 789 C 81.0424 1.97376 0.636997 0
M  V30 790 C 81.4674 0.927466 1.63645 0
M  V30 791 O 80.8254 -0.10941 1.8097 0
M  V30 792 C 80.8734 3.36304 1.30123 0
M  V30 793 O 79.9774 3.34156 2.41689 0
M  V30 794 H 79.3184 0.642998 0.165679 0
M  V30 795 H 81.8484 2.04258 -0.118233 0
M  V30 796 H 81.8584 3.73008 1.65315 0
M  V30 797 H 80.5334 4.11993 0.568746 0
M  V30 798 H 79.1104 3.09196 2.08451 0
M  V30 799 N 81.2955 -0.223234 1.56011 0
M  V30 800 C 82.2055 -1.29766 1.95443 0
M  V30 801 C 83.2215 -1.51373 0.858028 0
M  V30 802 O 84.3975 -1.64536 1.16146 0
M  V30 803 C 81.4625 -2.62772 2.26167 0
M  V30 804 C 80.5235 -2.49482 3.49367 0
M  V30 805 C 79.7565 -3.76145 3.78616 0
M  V30 806 O 79.9795 -4.79087 3.09568 0
M  V30 807 O 78.9135 -3.73358 4.72109 0
M  V30 808 H 82.7395 -0.99309 2.87004 0
M  V30 809 H 80.3245 -0.425958 1.43199 0
M  V30 810 H 82.2065 -3.41327 2.47131 0
M  V30 811 H 80.8815 -2.92913 1.37781 0
M  V30 812 H 79.7885 -1.69133 3.33684 0
M  V30 813 H 81.1215 -2.2428 4.38131 0
M  V30 814 N 82.7736 -1.49793 -0.48987 0
M  V30 815 C 83.7366 -1.66752 -1.57246 0
M  V30 816 C 84.7366 -0.538867 -1.51502 0
M  V30 817 O 85.9266 -0.805545 -1.54456 0
M  V30 818 C 83.0586 -1.67528 -2.96896 0
M  V30 819 H 84.2516 -2.63321 -1.43534 0
M  V30 820 H 81.8046 -1.38992 -0.714914 0
M  V30 821 H 82.5396 -0.725837 -3.16073 0
M  V30 822 H 82.3246 -2.49504 -3.02473 0
M  V30 823 H 83.8146 -1.82667 -3.7553 0
M  V30 824 N 84.2517 0.741722 -1.39055 0
M  V30 825 C 85.4767 1.53607 -1.39354 0
M  V30 826 C 85.9017 1.88096 0.0116905 0
M  V30 827 O 85.2597 1.5143 0.996924 0
M  V30 828 C 85.3077 2.80441 -2.26682 0
M  V30 829 O 84.4117 3.76088 -1.69208 0
M  V30 830 H 83.7527 0.464142 -0.474835 0
M  V30 831 H 86.2827 0.915665 -1.82967 0
M  V30 832 H 86.2927 3.29246 -2.40959 0
M  V30 833 H 84.9677 2.5467 -3.2881 0
M  V30 834 H 83.5447 3.34833 -1.64138 0
M  V30 835 N 85.7298 1.2412 0.971189 0
M  V30 836 C 86.6928 1.03156 2.04674 0
M  V30 837 C 87.6928 -0.00990322 1.60797 0
M  V30 838 O 88.8828 0.230729 1.72665 0
M  V30 839 C 86.0148 0.562765 3.36223 0
M  V30 840 H 87.2078 1.98614 2.24705 0
M  V30 841 H 84.7608 1.06293 1.14593 0
M  V30 842 H 85.4958 -0.395176 3.21883 0
M  V30 843 H 85.2808 1.31441 3.69413 0
M  V30 844 H 86.7708 0.437015 4.15307 0
M  V30 845 N 87.2079 -1.17134 1.05439 0
M  V30 846 C 88.4559 -1.87085 0.764429 0
M  V30 847 C 88.7769 -1.81584 -0.710787 0
M  V30 848 O 88.0469 -1.24349 -1.51374 0
M  V30 849 H 86.6269 -0.692627 0.279779 0
M  V30 850 H 89.2889 -1.42087 1.33406 0
M  V30 851 H 88.3849 -2.92759 1.0816 0
M  V30 852 N 88.686 -0.835752 -1.33615 0
M  V30 853 C 89.911 -0.442389 -2.02627 0
M  V30 854 C 90.336 0.947735 -1.62479 0
M  V30 855 O 89.694 1.61907 -0.815826 0
M  V30 856 C 89.742 -0.567216 -3.56111 0
M  V30 857 O 88.846 0.407799 -4.10379 0
M  V30 858 H 88.187 -0.180278 -0.639059 0
M  V30 859 H 90.717 -1.12972 -1.70583 0
M  V30 860 H 90.727 -0.447708 -4.05536 0
M  V30 861 H 89.402 -1.58103 -3.84677 0
M  V30 862 H 87.979 0.246107 -3.72087 0
M  V30 863 N 90.1641 1.46063 -0.591896 0
M  V30 864 C 91.4121 2.01938 -0.0808391 0
M  V30 865 C 91.7331 1.46475 1.28725 0
M  V30 866 O 91.0031 0.652944 1.84698 0
M  V30 867 H 89.5831 0.746516 -0.0268938 0
M  V30 868 H 92.2451 1.79055 -0.769752 0
M  V30 869 H 91.3411 3.12094 -0.0187578 0
M  V30 870 N 91.6422 0.330177 1.54103 0
M  V30 871 C 92.8702 -0.272179 2.05102 0
M  V30 872 C 93.2852 -1.45267 1.20595 0
M  V30 873 O 92.6422 -1.8094 0.238144 0
M  V30 874 C 92.6932 -0.70023 3.54653 0
M  V30 875 O 92.4142 0.433301 4.35952 0
M  V30 876 C 93.9152 -1.3647 4.21771 0
M  V30 877 H 91.1352 -0.0549159 0.668749 0
M  V30 878 H 93.6792 0.478285 1.98828 0
M  V30 879 H 91.8342 -1.40066 3.61193 0
M  V30 880 H 92.2482 0.0947539 5.24414 0
M  V30 881 H 93.7222 -1.61509 5.27843 0
M  V30 882 H 94.1992 -2.31409 3.73292 0
M  V30 883 H 94.8052 -0.706675 4.19388 0
M  V30 884 N 93.1203 -1.57491 0.0584922 0
M  V30 885 C 94.5313 -1.80526 -0.476138 0
M  V30 886 C 94.8823 -0.971334 -1.70469 0
M  V30 887 O 94.0073 -0.190012 -2.15564 0
M  V30 888 C 94.6023 -3.27424 -0.870587 0
M  V30 889 C 93.1613 -3.51351 -1.35015 0
M  V30 890 C 92.3083 -2.75343 -0.32887 0
M  V30 891 H 95.2593 -1.56133 0.284312 0
M  V30 892 H 95.2803 -3.38745 -1.73299 0
M  V30 893 H 94.7923 -3.88093 0.0237627 0
M  V30 894 H 92.8933 -2.95971 -2.26345 0
M  V30 895 H 93.0063 -4.60059 -1.33726 0
M  V30 896 H 91.3703 -2.417 -0.803321 0
M  V30 897 H 92.1533 -3.38743 0.557521 0
M  V30 898 N 94.5984 0.214957 -1.56127 0
M  V30 899 C 96.0144 0.564948 -1.49267 0
M  V30 900 C 96.2144 1.86827 -0.754838 0
M  V30 901 O 95.2704 2.50745 -0.297198 0
M  V30 902 C 96.5834 0.638071 -2.93852 0
M  V30 903 C 98.1314 0.728253 -3.0441 0
M  V30 904 C 98.6064 0.832663 -4.50367 0
M  V30 905 N 100.097 0.896712 -4.54437 0
M  V30 906 C 100.832 0.997324 -5.6466 0
M  V30 907 N 100.328 1.06147 -6.8462 0
M  V30 908 N 102.121 1.03297 -5.52527 0
M  V30 909 H 94.2724 -0.640211 -2.02522 0
M  V30 910 H 96.5354 -0.225507 -0.920788 0
M  V30 911 H 96.2414 -0.250126 -3.50809 0
M  V30 912 H 96.1154 1.49947 -3.46115 0
M  V30 913 H 98.5024 1.60689 -2.47514 0
M  V30 914 H 98.5834 -0.158952 -2.55306 0
M  V30 915 H 98.2274 -0.0415417 -5.07883 0
M  V30 916 H 98.1574 1.73538 -4.97184 0
M  V30 917 H 100.648 0.857188 -3.6805 0
M  V30 918 H 100.961 1.1382 -7.64372 0
M  V30 919 H 99.3064 1.03049 -6.87318 0
M  V30 920 H 102.497 0.979558 -4.57736 0
M  V30 921 H 102.67 1.10793 -6.38458 0
M  V30 922 N 96.0765 1.50051 0.48192 0
M  V30 923 C 97.0395 1.67584 1.5636 0
M  V30 924 C 98.0395 0.546894 1.51214 0
M  V30 925 O 99.2295 0.813725 1.54026 0
M  V30 926 C 96.3615 1.691 2.96003 0
M  V30 927 H 97.5545 2.64078 1.42136 0
M  V30 928 H 95.1075 1.39369 0.707533 0
M  V30 929 H 95.8425 0.742589 3.15684 0
M  V30 930 H 95.6275 2.51105 3.01146 0
M  V30 931 H 97.1175 1.84656 3.74556 0
M  V30 932 N 97.5546 -0.734337 1.39446 0
M  V30 933 C 98.7826 -1.52358 1.39981 0
M  V30 934 C 99.1976 -1.88799 -0.0054975 0
M  V30 935 O 98.5546 -1.54146 -0.976998 0
M  V30 936 C 98.6056 -2.81072 2.27333 0
M  V30 937 O 98.3266 -2.46178 3.62392 0
M  V30 938 C 99.8276 -3.75096 2.36259 0
M  V30 939 H 97.0476 -0.470806 0.478103 0
M  V30 940 H 99.5916 -0.907339 1.83269 0
M  V30 941 H 97.7466 -3.39026 1.87457 0
M  V30 942 H 98.1606 -3.28866 4.08592 0
M  V30 943 H 99.6346 -4.62305 3.01626 0
M  V30 944 H 100.112 -4.16892 1.38194 0
M  V30 945 H 100.718 -3.23061 2.76608 0
M  V30 946 N 99.0327 -1.24633 -0.964593 0
M  V30 947 C 99.9957 -1.0424 -2.04124 0
M  V30 948 C 100.996 0.00137563 -1.608 0
M  V30 949 O 102.186 -0.239883 -1.7254 0
M  V30 950 C 99.3177 -0.580588 -3.3592 0
M  V30 951 H 100.511 -1.99803 -2.23649 0
M  V30 952 H 98.0637 -1.06899 -1.14027 0
M  V30 953 H 98.7987 0.3781 -3.22088 0
M  V30 954 H 98.5837 -1.33398 -3.6871 0
M  V30 955 H 100.074 -0.459034 -4.15069 0
M  V30 956 N 100.511 1.16574 -1.06058 0
M  V30 957 C 101.739 1.90952 -0.796552 0
M  V30 958 C 102.154 1.77302 0.648808 0
M  V30 959 O 101.511 1.11605 1.44397 0
M  V30 960 C 101.562 3.41736 -1.17894 0
M  V30 961 O 101.283 3.54975 -2.56758 0
M  V30 962 C 102.784 4.33169 -0.942308 0
M  V30 963 H 100.004 0.605594 -0.288959 0
M  V30 964 H 102.548 1.47777 -1.41358 0
M  V30 965 H 100.703 3.82623 -0.606491 0
M  V30 966 H 101.117 4.4846 -2.72 0
M  V30 967 H 102.591 5.37439 -1.25952 0
M  V30 968 H 103.068 4.3903 0.122078 0
M  V30 969 H 103.674 3.98007 -1.49902 0
M  V30 970 N 101.989 0.842826 1.3317 0
M  V30 971 C 103.214 0.453129 2.02389 0
M  V30 972 C 103.639 -0.939105 1.6298 0
M  V30 973 O 102.997 -1.61472 0.8244 0
M  V30 974 C 103.045 0.586094 3.55805 0
M  V30 975 O 102.149 -0.386029 4.10589 0
M  V30 976 H 101.49 0.183664 0.638094 0
M  V30 977 H 104.02 1.13875 1.69981 0
M  V30 978 H 104.03 0.469209 4.05293 0
M  V30 979 H 102.705 1.6014 3.83833 0
M  V30 980 H 101.282 -0.226371 3.72212 0
M  V30 981 N 103.467 -1.45747 0.599634 0
M  V30 982 C 104.695 -2.06668 0.0978551 0
M  V30 983 C 105.11 -1.44562 -1.21439 0
M  V30 984 O 104.467 -0.556923 -1.73795 0
M  V30 985 C 104.518 -3.61456 -0.0567044 0
M  V30 986 O 104.239 -4.21242 1.20361 0
M  V30 987 C 105.74 -4.39345 -0.590869 0
M  V30 988 H 102.96 -0.667825 0.0651943 0
M  V30 989 H 105.504 -1.87115 0.82511 0
M  V30 990 H 103.659 -3.80378 -0.734251 0
M  V30 991 H 104.073 -5.14323 1.02821 0
M  V30 992 H 105.547 -5.48182 -0.648131 0
M  V30 993 H 106.024 -4.08568 -1.61147 0
M  V30 994 H 106.63 -4.25268 0.0523679 0
M  V30 995 N 104.945 -0.338344 -1.53925 0
M  V30 996 C 106.173 0.261298 -2.05243 0
M  V30 997 C 106.588 1.44625 -1.21363 0
M  V30 998 O 105.945 1.80811 -0.247736 0
M  V30 999 C 105.996 0.681412 -3.5502 0
M  V30 1000 O 105.717 -0.456414 -4.35716 0
M  V30 1001 C 107.218 1.34232 -4.22489 0
M  V30 1002 H 104.438 0.0513685 -0.669031 0
M  V30 1003 H 106.982 -0.488822 -1.98572 0
M  V30 1004 H 105.137 1.38148 -3.61931 0
M  V30 1005 H 105.551 -0.122564 -5.24357 0
M  V30 1006 H 107.025 1.58708 -5.28693 0
M  V30 1007 H 107.502 2.29426 -3.74514 0
M  V30 1008 H 108.108 0.684424 -4.19757 0
M  V30 1009 N 106.423 1.57458 -0.0668435 0
M  V30 1010 C 107.386 2.11323 0.887422 0
M  V30 1011 C 108.386 1.03618 1.22964 0
M  V30 1012 O 109.576 1.29626 1.16373 0
M  V30 1013 C 106.708 2.61048 2.19242 0
M  V30 1014 H 107.901 2.96942 0.420194 0
M  V30 1015 H 105.454 1.55239 0.181793 0
M  V30 1016 H 106.189 1.78868 2.70512 0
M  V30 1017 H 105.974 3.39769 1.95702 0
M  V30 1018 H 107.464 3.02814 2.87565 0
M  V30 1019 N 107.901 -0.206675 1.56239 0
M  V30 1020 C 109.126 -0.949474 1.8439 0
M  V30 1021 C 109.551 -1.76549 0.649016 0
M  V30 1022 O 108.909 -1.76782 -0.402231 0
M  V30 1023 C 108.957 -1.83078 3.10668 0
M  V30 1024 O 108.061 -2.9281 2.90407 0
M  V30 1025 H 107.402 -0.268033 0.607499 0
M  V30 1026 H 109.932 -0.215488 2.03462 0
M  V30 1027 H 109.942 -2.2377 3.41161 0
M  V30 1028 H 108.617 -1.23112 3.97261 0
M  V30 1029 H 107.194 -2.55956 2.71184 0
M  V30 1030 N 109.379 -1.50304 -0.473955 0
M  V30 1031 C 110.79 -1.54042 -1.0549 0
M  V30 1032 C 111.141 -0.342248 -1.93192 0
M  V30 1033 O 110.266 0.545157 -2.09421 0
M  V30 1034 C 110.861 -2.79152 -1.91989 0
M  V30 1035 C 109.42 -2.8558 -2.45196 0
M  V30 1036 C 108.567 -2.48295 -1.2347 0
M  V30 1037 H 111.518 -1.5661 -0.256693 0
M  V30 1038 H 111.539 -2.60845 -2.7702 0
M  V30 1039 H 111.051 -3.66339 -1.28131 0
M  V30 1040 H 109.152 -2.02738 -3.12615 0
M  V30 1041 H 109.265 -3.88403 -2.80499 0
M  V30 1042 H 107.629 -2.00669 -1.56856 0
M  V30 1043 H 108.412 -3.37787 -0.612789 0
M  V30 1044 N 110.857 0.726932 -1.39834 0
M  V30 1045 C 111.787 1.85405 -1.41941 0
M  V30 1046 C 112.768 1.67751 -0.281728 0
M  V30 1047 O 113.953 1.8795 -0.488717 0
M  V30 1048 C 111.083 3.23243 -1.2701 0
M  V30 1049 C 110.037 3.55549 -2.38262 0
M  V30 1050 C 109.363 4.9241 -2.08415 0
M  V30 1051 C 110.663 3.577 -3.80589 0
M  V30 1052 H 112.357 1.83899 -2.36266 0
M  V30 1053 H 109.903 0.883349 -1.13723 0
M  V30 1054 H 111.856 4.01775 -1.27103 0
M  V30 1055 H 110.58 3.25296 -0.291564 0
M  V30 1056 H 109.239 2.79351 -2.37399 0
M  V30 1057 H 108.887 4.91052 -1.0898 0
M  V30 1058 H 108.587 5.14992 -2.82943 0
M  V30 1059 H 110.111 5.73289 -2.10171 0
M  V30 1060 H 111.525 4.26293 -3.83337 0
M  V30 1061 H 109.922 3.91804 -4.54543 0
M  V30 1062 H 110.992 2.57328 -4.10987 0
M  V30 1063 N 112.336 1.25143 0.95797 0
M  V30 1064 C 113.752 1.01892 1.22842 0
M  V30 1065 C 113.952 -0.266311 1.99732 0
M  V30 1066 O 113.008 -0.979913 2.3271 0
M  V30 1067 C 114.321 2.24004 2.00606 0
M  V30 1068 C 115.869 2.28731 2.13662 0
M  V30 1069 C 116.344 3.5049 2.94823 0
M  V30 1070 N 117.835 3.50866 3.02403 0
M  V30 1071 C 118.57 4.4174 3.65586 0
M  V30 1072 N 118.066 5.42882 4.30408 0
M  V30 1073 N 119.859 4.29429 3.62694 0
M  V30 1074 H 112.01 2.07718 0.443493 0
M  V30 1075 H 114.273 0.912031 0.258657 0
M  V30 1076 H 113.979 3.17395 1.51503 0
M  V30 1077 H 113.853 2.26907 3.01319 0
M  V30 1078 H 116.24 1.35865 2.61963 0
M  V30 1079 H 116.321 2.29848 1.12265 0
M  V30 1080 H 115.965 4.43676 2.47213 0
M  V30 1081 H 115.895 3.46617 3.96439 0
M  V30 1082 H 118.386 2.777 2.56302 0
M  V30 1083 H 118.699 6.0844 4.76467 0
M  V30 1084 H 117.044 5.46758 4.29047 0
M  V30 1085 H 120.235 3.49643 3.11236 0
M  V30 1086 H 120.408 5.00448 4.1165 0
M  V30 1087 N 113.814 -1.1601 1.06675 0
M  V30 1088 C 115.091 -1.82679 0.699114 0
M  V30 1089 C 115.471 -1.94559 -0.819137 0
M  V30 1090 O 114.819 -1.49169 -1.73092 0
M  V30 1091 C 115.029 -3.19445 1.40555 0
M  V30 1092 C 116.377 -3.95171 1.55323 0
M  V30 1093 O 117.401 -3.28976 1.36577 0
M  V30 1094 O 116.26 -5.13833 1.86112 0
M  V30 1095 H 113.354 -0.788954 0.247951 0
M  V30 1096 H 115.9 -1.23179 1.16726 0
M  V30 1097 H 114.672 -3.05856 2.44065 0
M  V30 1098 H 114.295 -3.86625 0.927733 0
M  V30 1099 N 115.292 -0.849877 -1.32721 0
M  V30 1100 C 116.54 -0.450032 -1.97026 0
M  V30 1101 C 116.861 0.996604 -1.67609 0
M  V30 1102 O 116.131 1.6958 -0.980786 0
M  V30 1103 H 114.711 -0.163426 -0.728904 0
M  V30 1104 H 117.373 -1.08526 -1.6189 0
M  V30 1105 H 116.469 -0.591146 -3.0645 0
M  V30 1106 N 116.77 1.45427 -0.607355 0
M  V30 1107 C 118.017 2.02241 -0.102455 0
M  V30 1108 C 118.345 1.4758 1.26691 0
M  V30 1109 O 117.6 0.640468 1.84923 0
M  V30 1110 C 117.899 3.57398 -0.0129263 0
M  V30 1111 C 117.565 4.3121 -1.31792 0
M  V30 1112 C 116.227 4.51092 -1.67539 0
M  V30 1113 C 118.579 4.73401 -2.18039 0
M  V30 1114 C 115.907 5.10422 -2.89285 0
M  V30 1115 C 118.259 5.34078 -3.39034 0
M  V30 1116 C 116.923 5.52184 -3.75033 0
M  V30 1117 H 116.193 0.740051 -0.037491 0
M  V30 1118 H 118.84 1.74494 -0.788926 0
M  V30 1119 H 117.145 3.84421 0.756806 0
M  V30 1120 H 118.842 3.99061 0.393881 0
M  V30 1121 H 115.432 4.16047 -1.02968 0
M  V30 1122 H 119.616 4.57774 -1.91721 0
M  V30 1123 H 114.872 5.22629 -3.17283 0
M  V30 1124 H 119.046 5.65724 -4.06115 0
M  V30 1125 H 116.673 5.97925 -4.69457 0
M  V30 1126 N 118.248 0.346503 1.53744 0
M  V30 1127 C 119.496 -0.248612 2.00565 0
M  V30 1128 C 119.817 -1.5083 1.23593 0
M  V30 1129 O 119.087 -1.92858 0.343912 0
M  V30 1130 H 117.667 -0.0948564 0.740953 0
M  V30 1131 H 120.329 0.468341 1.89189 0
M  V30 1132 H 119.425 -0.488994 3.08245 0
M  V30 1133 N 119.726 -1.57421 0.075193 0
M  V30 1134 C 120.974 -1.93236 -0.591974 0
M  V30 1135 C 121.295 -0.956241 -1.69944 0
M  V30 1136 O 120.565 -0.00494792 -1.95899 0
M  V30 1137 H 119.145 -0.713355 -0.22166 0
M  V30 1138 H 121.807 -1.9444 0.133848 0
M  V30 1139 H 120.903 -2.95131 -1.01509 0
M  V30 1140 N 121.204 0.198386 -1.56346 0
M  V30 1141 C 122.136 1.26987 -1.90806 0
M  V30 1142 C 123.149 1.41877 -0.798419 0
M  V30 1143 O 124.338 1.42362 -1.07682 0
M  V30 1144 C 121.438 2.64246 -2.12196 0
M  V30 1145 C 120.611 2.71007 -3.43328 0
M  V30 1146 C 119.67 3.89439 -3.5387 0
M  V30 1147 O 118.696 3.76695 -4.26719 0
M  V30 1148 N 119.898 5.04752 -2.86715 0
M  V30 1149 H 122.663 0.977433 -2.83313 0
M  V30 1150 H 120.224 0.388322 -1.57174 0
M  V30 1151 H 122.216 3.41896 -2.1654 0
M  V30 1152 H 120.786 2.85992 -1.26204 0
M  V30 1153 H 120.006 1.79657 -3.50881 0
M  V30 1154 H 121.294 2.72512 -4.29668 0
M  V30 1155 H 120.692 5.18004 -2.2735 0
M  V30 1156 H 119.249 5.8036 -2.96691 0
M  V30 1157 N 122.682 1.50554 0.465978 0
M  V30 1158 C 123.959 1.5232 1.22712 0
M  V30 1159 C 124.339 0.270807 2.09356 0
M  V30 1160 O 123.687 -0.745541 2.15995 0
M  V30 1161 C 123.897 2.82175 2.05374 0
M  V30 1162 C 125.245 3.33033 2.6339 0
M  V30 1163 O 126.269 2.83531 2.15612 0
M  V30 1164 O 125.128 4.19336 3.50456 0
M  V30 1165 H 122.222 0.611183 0.557122 0
M  V30 1166 H 124.768 1.62847 0.477381 0
M  V30 1167 H 123.54 3.64797 1.41558 0
M  V30 1168 H 123.163 2.74675 2.87471 0
M  V30 1169 N 124.16 -0.719506 1.40217 0
M  V30 1170 C 125.408 -1.47641 1.3801 0
M  V30 1171 C 125.729 -1.94992 -0.018145 0
M  V30 1172 O 124.999 -1.70073 -0.972207 0
M  V30 1173 H 123.579 -0.547744 0.507923 0
M  V30 1174 H 126.241 -0.853187 1.75233 0
M  V30 1175 H 125.337 -2.35112 2.05253 0
M  V30 1176 N 125.638 -1.25649 -0.95132 0
M  V30 1177 C 126.886 -1.10375 -1.69298 0
M  V30 1178 C 127.207 0.355339 -1.91735 0
M  V30 1179 O 126.477 1.25188 -1.50681 0
M  V30 1180 H 125.057 -0.405461 -0.627384 0
M  V30 1181 H 127.719 -1.57823 -1.14358 0
M  V30 1182 H 126.815 -1.61465 -2.67087 0
M  V30 1183 N 127.117 1.15442 -1.07289 0
M  V30 1184 C 128.027 2.23786 -0.704057 0
M  V30 1185 C 129.043 1.7166 0.284413 0
M  V30 1186 O 130.219 2.00972 0.131205 0
M  V30 1187 C 127.284 3.46535 -0.106792 0
M  V30 1188 C 126.345 4.13654 -1.14842 0
M  V30 1189 C 125.578 5.30544 -0.57956 0
M  V30 1190 O 125.801 5.67187 0.604585 0
M  V30 1191 O 124.735 5.87154 -1.32414 0
M  V30 1192 H 128.561 2.57664 -1.60757 0
M  V30 1193 H 126.146 1.23152 -0.845803 0
M  V30 1194 H 128.028 4.20804 0.224048 0
M  V30 1195 H 126.703 3.14407 0.770049 0
M  V30 1196 H 125.61 3.4131 -1.5316 0
M  V30 1197 H 126.943 4.49861 -1.99714 0
M  V30 1198 N 128.595 0.856903 1.32268 0
M  V30 1199 C 129.525 0.31858 2.31316 0
M  V30 1200 C 130.506 -0.583487 1.59779 0
M  V30 1201 O 131.691 -0.503259 1.87566 0
M  V30 1202 C 128.821 -0.491979 3.43798 0
M  V30 1203 C 127.775 0.315849 4.26833 0
M  V30 1204 C 127.101 -0.619586 5.31098 0
M  V30 1205 C 128.401 1.54282 4.98993 0
M  V30 1206 H 130.095 1.14621 2.76591 0
M  V30 1207 H 127.641 0.552613 1.32974 0
M  V30 1208 H 129.594 -0.879012 4.1213 0
M  V30 1209 H 128.318 -1.35299 2.97257 0
M  V30 1210 H 126.977 0.684664 3.6015 0
M  V30 1211 H 126.625 -1.47751 4.8081 0
M  V30 1212 H 126.325 -0.0830621 5.87541 0
M  V30 1213 H 127.849 -1.00375 6.02293 0
M  V30 1214 H 129.263 1.22796 5.59995 0
M  V30 1215 H 127.66 2.01745 5.65172 0
M  V30 1216 H 128.73 2.30285 4.26728 0
M  V30 1217 N 130.073 -1.45103 0.615059 0
M  V30 1218 C 131.489 -1.57137 0.279322 0
M  V30 1219 C 131.689 -1.60523 -1.21797 0
M  V30 1220 O 130.745 -1.53956 -2.00134 0
M  V30 1221 C 132.058 -2.85062 0.957083 0
M  V30 1222 C 133.606 -2.98749 0.933706 0
M  V30 1223 C 134.081 -4.29455 1.59162 0
M  V30 1224 N 135.572 -4.36231 1.55746 0
M  V30 1225 C 136.307 -5.36051 2.0356 0
M  V30 1226 N 135.803 -6.42367 2.59494 0
M  V30 1227 N 137.596 -5.27456 1.94284 0
M  V30 1228 H 129.747 -1.41148 1.58717 0
M  V30 1229 H 132.01 -0.675331 0.665306 0
M  V30 1230 H 131.716 -2.88488 2.01166 0
M  V30 1231 H 131.59 -3.7407 0.48494 0
M  V30 1232 H 133.977 -2.94886 -0.112347 0
M  V30 1233 H 134.058 -2.11132 1.44419 0
M  V30 1234 H 133.702 -4.34077 2.63704 0
M  V30 1235 H 133.632 -5.15901 1.0561 0
M  V30 1236 H 136.123 -3.60011 1.14893 0
M  V30 1237 H 136.436 -7.14793 2.93752 0
M  V30 1238 H 134.781 -6.43097 2.63537 0
M  V30 1239 H 137.972 -4.43308 1.5032 0
M  V30 1240 H 138.145 -6.05099 2.3186 0
M  V30 1241 N 131.551 -0.354651 -1.53558 0
M  V30 1242 C 132.962 0.126902 -1.86268 0
M  V30 1243 C 133.313 1.49075 -1.27558 0
M  V30 1244 O 132.438 2.08105 -0.5934 0
M  V30 1245 C 133.033 0.237046 -3.3797 0
M  V30 1246 C 131.592 0.662842 -3.70518 0
M  V30 1247 C 130.739 -0.196652 -2.76602 0
M  V30 1248 H 133.69 -0.573849 -1.47962 0
M  V30 1249 H 133.711 1.06259 -3.65362 0
M  V30 1250 H 133.223 -0.755725 -3.80671 0
M  V30 1251 H 131.324 1.66424 -3.33367 0
M  V30 1252 H 131.437 0.445034 -4.77029 0
M  V30 1253 H 129.801 0.332763 -2.52517 0
M  V30 1254 H 130.584 -1.18676 -3.22135 0
M  V30 1255 N 133.029 1.57378 -0.0835403 0
M  V30 1256 C 133.959 2.1641 0.87686 0
M  V30 1257 C 134.94 1.09429 1.30228 0
M  V30 1258 O 136.125 1.37516 1.37124 0
M  V30 1259 C 133.255 2.73517 2.14022 0
M  V30 1260 C 132.209 3.85769 1.85381 0
M  V30 1261 C 131.535 4.29529 3.18448 0
M  V30 1262 C 132.835 5.09486 1.14984 0
M  V30 1263 H 134.529 2.96914 0.385059 0
M  V30 1264 H 132.075 1.42823 0.18377 0
M  V30 1265 H 134.028 3.13463 2.81636 0
M  V30 1266 H 132.752 1.90252 2.65465 0
M  V30 1267 H 131.411 3.46345 1.20169 0
M  V30 1268 H 131.059 3.43169 3.67755 0
M  V30 1269 H 130.759 5.05204 3.00071 0
M  V30 1270 H 132.283 4.72099 3.8724 0
M  V30 1271 H 133.697 5.46674 1.72687 0
M  V30 1272 H 132.094 5.90515 1.06826 0
M  V30 1273 H 133.164 4.84724 0.130749 0
M  V30 1274 N 134.507 -0.190092 1.56449 0
M  V30 1275 C 135.439 -1.25973 1.91477 0
M  V30 1276 C 136.452 -1.41452 0.805931 0
M  V30 1277 O 137.641 -1.41789 1.08435 0
M  V30 1278 C 134.741 -2.63117 2.13594 0
M  V30 1279 C 133.914 -2.69182 3.4476 0
M  V30 1280 C 132.973 -3.87557 3.5593 0
M  V30 1281 O 131.999 -3.74427 4.28711 0
M  V30 1282 N 133.201 -5.03224 2.89388 0
M  V30 1283 H 135.966 -0.962394 2.83828 0
M  V30 1284 H 133.527 -0.379981 1.57378 0
M  V30 1285 H 135.519 -3.40742 2.1835 0
M  V30 1286 H 134.089 -2.85319 1.27719 0
M  V30 1287 H 133.309 -1.77793 3.51828 0
M  V30 1288 H 134.597 -2.70229 4.31107 0
M  V30 1289 H 133.995 -5.16791 2.30094 0
M  V30 1290 H 132.552 -5.78778 2.99764 0
M  V30 1291 N 135.985 -1.50799 -0.457987 0
M  V30 1292 C 137.21 -1.66496 -1.23668 0
M  V30 1293 C 137.635 -0.353288 -1.84752 0
M  V30 1294 O 136.993 0.684346 -1.67888 0
M  V30 1295 C 137.041 -2.76763 -2.3116 0
M  V30 1296 O 136.145 -2.38928 -3.36136 0
M  V30 1297 H 135.486 -0.555828 -0.363252 0
M  V30 1298 H 138.016 -1.9725 -0.543474 0
M  V30 1299 H 138.026 -3.00232 -2.76269 0
M  V30 1300 H 136.701 -3.71954 -1.86073 0
M  V30 1301 H 135.278 -2.25953 -2.96647 0
M  V30 1302 N 137.463 0.71206 -1.40597 0
M  V30 1303 C 138.373 1.8562 -1.43466 0
M  V30 1304 C 139.389 1.70902 -0.326902 0
M  V30 1305 O 140.565 1.93105 -0.572043 0
M  V30 1306 C 137.63 3.21451 -1.29884 0
M  V30 1307 C 136.691 3.48398 -2.50833 0
M  V30 1308 C 135.924 4.77749 -2.3789 0
M  V30 1309 O 136.147 5.53089 -1.39459 0
M  V30 1310 O 135.081 5.05111 -3.27333 0
M  V30 1311 H 138.907 1.86155 -2.39958 0
M  V30 1312 H 136.492 0.86295 -1.21957 0
M  V30 1313 H 138.374 4.02579 -1.24531 0
M  V30 1314 H 137.049 3.21636 -0.364997 0
M  V30 1315 H 135.956 2.67265 -2.61763 0
M  V30 1316 H 137.289 3.53014 -3.4299 0
M  V30 1317 N 138.941 1.26152 0.944643 0
M  V30 1318 C 140.189 1.11271 1.6871 0
M  V30 1319 C 140.51 -0.345166 1.91921 0
M  V30 1320 O 139.78 -1.24387 1.51343 0
M  V30 1321 H 138.36 0.408783 0.625224 0
M  V30 1322 H 141.022 1.58427 1.1352 0
M  V30 1323 H 140.118 1.62879 2.66227 0
M  V30 1324 N 140.419 -1.14872 1.07899 0
M  V30 1325 C 141.382 -2.17986 0.708161 0
M  V30 1326 C 142.382 -1.58775 -0.25442 0
M  V30 1327 O 143.572 -1.74166 -0.034645 0
M  V30 1328 C 140.704 -3.40871 0.0446929 0
M  V30 1329 H 141.897 -2.52306 1.62116 0
M  V30 1330 H 139.45 -1.2943 0.876218 0
M  V30 1331 H 140.185 -3.12124 -0.880281 0
M  V30 1332 H 139.97 -3.8511 0.737091 0
M  V30 1333 H 141.46 -4.17121 -0.19991 0
M  V30 1334 N 141.898 -0.863906 -1.31812 0
M  V30 1335 C 142.861 -0.320212 -2.26952 0
M  V30 1336 C 143.861 0.525369 -1.51975 0
M  V30 1337 O 145.051 0.335547 -1.70938 0
M  V30 1338 C 142.183 0.545919 -3.365 0
M  V30 1339 H 143.376 -1.16004 -2.76556 0
M  V30 1340 H 140.929 -0.638995 -1.42641 0
M  V30 1341 H 141.664 1.40718 -2.92179 0
M  V30 1342 H 141.449 -0.0594674 -3.92055 0
M  V30 1343 H 142.939 0.918796 -4.07367 0
M  V30 1344 N 143.376 1.44774 -0.622745 0
M  V30 1345 C 144.339 2.29069 0.0774015 0
M  V30 1346 C 145.339 1.4059 0.780461 0
M  V30 1347 O 146.529 1.62551 0.626322 0
M  V30 1348 C 143.661 3.21974 1.12006 0
M  V30 1349 H 144.854 2.92459 -0.663901 0
M  V30 1350 H 142.407 1.51548 -0.382486 0
M  V30 1351 H 143.142 2.63417 1.89162 0
M  V30 1352 H 142.927 3.87168 0.619951 0
M  V30 1353 H 144.417 3.85318 1.60995 0
M  V30 1354 N 144.854 0.36279 1.53368 0
M  V30 1355 C 145.784 -0.476976 2.28576 0
M  V30 1356 C 146.765 -1.08631 1.30894 0
M  V30 1357 O 147.95 -1.10409 1.59761 0
M  V30 1358 C 145.08 -1.61828 3.07293 0
M  V30 1359 C 144.034 -1.13633 4.1264 0
M  V30 1360 C 143.36 -2.36766 4.79423 0
M  V30 1361 C 144.66 -0.223061 5.21823 0
M  V30 1362 H 146.354 0.150474 2.99022 0
M  V30 1363 H 143.9 0.0738103 1.43811 0
M  V30 1364 H 145.853 -2.21237 3.58653 0
M  V30 1365 H 144.577 -2.27292 2.34533 0
M  V30 1366 H 143.236 -0.564945 3.62221 0
M  V30 1367 H 142.884 -3.0068 4.03238 0
M  V30 1368 H 142.584 -2.05192 5.50609 0
M  V30 1369 H 144.108 -2.96865 5.33576 0
M  V30 1370 H 145.522 -0.724545 5.68703 0
M  V30 1371 H 143.919 0.001678 6.001 0
M  V30 1372 H 144.989 0.735553 4.79289 0
M  V30 1373 N 146.332 -1.57332 0.0918853 0
M  V30 1374 C 147.578 -1.94524 -0.573425 0
M  V30 1375 C 147.911 -0.973578 -1.68033 0
M  V30 1376 O 147.186 -0.00609226 -1.94499 0
M  V30 1377 C 147.469 -3.41858 -1.13161 0
M  V30 1378 C 147.322 -4.4979 -0.0299747 0
M  V30 1379 C 148.641 -3.90435 -2.03098 0
M  V30 1380 H 145.76 -0.70734 -0.206975 0
M  V30 1381 H 148.402 -1.89309 0.161942 0
M  V30 1382 H 146.552 -3.46433 -1.7583 0
M  V30 1383 H 148.224 -4.57327 0.604112 0
M  V30 1384 H 146.467 -4.291 0.636833 0
M  V30 1385 H 147.138 -5.50069 -0.461287 0
M  V30 1386 H 149.614 -3.87992 -1.50338 0
M  V30 1387 H 148.49 -4.94097 -2.39081 0
M  V30 1388 H 148.751 -3.29541 -2.94712 0
M  V30 1389 N 147.81 0.181792 -1.56548 0
M  V30 1390 C 149.038 0.915947 -1.85521 0
M  V30 1391 C 149.453 1.76282 -0.676016 0
M  V30 1392 O 148.81 1.79012 0.355077 0
M  V30 1393 C 148.861 1.80126 -3.13427 0
M  V30 1394 O 148.582 0.988562 -4.26801 0
M  V30 1395 C 150.083 2.64597 -3.55673 0
M  V30 1396 H 147.303 0.26661 -0.61576 0
M  V30 1397 H 149.847 0.185039 -2.03661 0
M  V30 1398 H 148.002 2.48563 -2.97145 0
M  V30 1399 H 148.416 1.59308 -4.99721 0
M  V30 1400 H 149.89 3.2235 -4.48101 0
M  V30 1401 H 150.367 3.38958 -2.79292 0
M  V30 1402 H 150.973 2.0151 -3.74532 0
M  V30 1403 N 149.288 1.51039 0.449983 0
M  V30 1404 C 150.235 1.71439 1.54523 0
M  V30 1405 C 151.205 0.555871 1.56522 0
M  V30 1406 O 152.39 0.788871 1.73728 0
M  V30 1407 C 149.53 1.83384 2.92343 0
M  V30 1408 C 148.643 3.10873 2.9997 0
M  V30 1409 C 147.778 3.13488 4.28834 0
M  V30 1410 C 146.817 4.35343 4.30282 0
M  V30 1411 N 145.954 4.35579 5.5065 0
M  V30 1412 H 150.794 2.64934 1.36433 0
M  V30 1413 H 148.331 1.31312 0.662982 0
M  V30 1414 H 150.289 1.88291 3.72293 0
M  V30 1415 H 148.919 0.933086 3.0902 0
M  V30 1416 H 147.971 3.15336 2.12761 0
M  V30 1417 H 149.283 4.00814 2.96901 0
M  V30 1418 H 148.437 3.17241 5.17149 0
M  V30 1419 H 147.176 2.21414 4.34543 0
M  V30 1420 H 146.181 4.3178 3.40362 0
M  V30 1421 H 147.406 5.28668 4.26248 0
M  V30 1422 H 145.352 3.46369 5.57104 0
M  V30 1423 H 145.269 5.19313 5.49409 0
M  V30 1424 H 146.537 4.43507 6.41032 0
M  V30 1425 N 150.766 -0.704594 1.40972 0
M  V30 1426 C 152.014 -1.46169 1.39568 0
M  V30 1427 C 152.335 -1.95 0.00253745 0
M  V30 1428 O 151.605 -1.71095 -0.954114 0
M  V30 1429 H 150.185 -0.542326 0.513704 0
M  V30 1430 H 152.847 -0.834553 1.76128 0
M  V30 1431 H 151.943 -2.32922 2.07735 0
M  V30 1432 N 152.244 -1.26651 -0.937939 0
M  V30 1433 C 153.484 -1.13611 -1.69917 0
M  V30 1434 C 153.848 0.314687 -1.89404 0
M  V30 1435 O 155.049 0.567285 -2.62746 0
M  V30 1436 C 153.32 -1.88742 -3.03498 0
M  V30 1437 S 154.879 -1.91794 -3.94665 0
M  V30 1438 H 151.697 -0.405767 -0.583844 0
M  V30 1439 H 154.299 -1.60416 -1.11745 0
M  V30 1440 H 153.003 -2.9336 -2.86999 0
M  V30 1441 H 152.534 -1.42391 -3.66727 0
M  V30 1442 H 154.549 -1.00698 -4.85875 0
M  V30 1443 N 153.722 1.14298 -1.08507 0
M  V30 1444 C 154.654 2.1907 -0.673859 0
M  V30 1445 C 155.667 1.60381 0.279577 0
M  V30 1446 O 156.856 1.78374 0.0670754 0
M  V30 1447 C 153.956 3.38888 0.0290979 0
M  V30 1448 C 153.129 4.27103 -0.943494 0
M  V30 1449 C 152.188 5.25477 -0.275676 0
M  V30 1450 O 151.214 5.61709 -0.920401 0
M  V30 1451 N 152.416 5.7227 0.974013 0
M  V30 1452 H 155.181 2.54965 -1.57521 0
M  V30 1453 H 152.742 1.29528 -0.971287 0
M  V30 1454 H 154.734 4.01761 0.48683 0
M  V30 1455 H 153.304 3.01309 0.832555 0
M  V30 1456 H 152.524 3.61149 -1.58004 0
M  V30 1457 H 153.812 4.82905 -1.60251 0
M  V30 1458 H 153.21 5.44965 1.51755 0
M  V30 1459 H 151.767 6.37127 1.37522 0
M  V30 1460 N 155.201 0.870884 1.31352 0
M  V30 1461 C 156.617 0.562932 1.49343 0
M  V30 1462 C 156.817 -0.902725 1.80148 0
M  V30 1463 O 155.873 -1.68484 1.88067 0
M  V30 1464 C 157.186 1.46393 2.62659 0
M  V30 1465 C 158.734 1.46607 2.76542 0
M  V30 1466 C 159.209 2.35266 3.92955 0
M  V30 1467 N 160.7 2.33151 4.00243 0
M  V30 1468 C 161.435 2.98471 4.89594 0
M  V30 1469 N 160.931 3.72964 5.8384 0
M  V30 1470 N 162.724 2.87775 4.82848 0
M  V30 1471 H 154.875 1.81923 1.09626 0
M  V30 1472 H 157.138 0.777934 0.541777 0
M  V30 1473 H 156.844 2.50689 2.46674 0
M  V30 1474 H 156.718 1.16314 3.58819 0
M  V30 1475 H 159.105 0.43069 2.9194 0
M  V30 1476 H 159.186 1.8071 1.81046 0
M  V30 1477 H 158.83 3.38881 3.78315 0
M  V30 1478 H 158.76 1.98487 4.87761 0
M  V30 1479 H 161.251 1.79006 3.32814 0
M  V30 1480 H 161.564 4.19932 6.4875 0
M  V30 1481 H 159.909 3.77073 5.83816 0
M  V30 1482 H 163.1 2.29116 4.08195 0
M  V30 1483 H 163.273 3.38961 5.52277 0
M  V30 1484 N 156.679 -1.44442 0.630414 0
M  V30 1485 C 157.609 -2.33418 -0.0618083 0
M  V30 1486 C 158.59 -1.48165 -0.835541 0
M  V30 1487 O 159.775 -1.76886 -0.801564 0
M  V30 1488 C 156.905 -3.31222 -1.04449 0
M  V30 1489 C 155.859 -4.26288 -0.382436 0
M  V30 1490 C 155.185 -5.13954 -1.47497 0
M  V30 1491 C 156.485 -5.1744 0.710865 0
M  V30 1492 H 158.179 -2.91548 0.681184 0
M  V30 1493 H 155.725 -1.40191 0.329026 0
M  V30 1494 H 157.678 -3.92351 -1.53748 0
M  V30 1495 H 156.402 -2.71299 -1.81836 0
M  V30 1496 H 155.061 -3.6649 0.0899054 0
M  V30 1497 H 154.709 -4.50385 -2.2397 0
M  V30 1498 H 154.409 -5.7837 -1.03737 0
M  V30 1499 H 155.933 -5.77955 -1.96979 0
M  V30 1500 H 157.347 -5.72509 0.300996 0
M  V30 1501 H 155.744 -5.90455 1.07156 0
M  V30 1502 H 156.814 -4.58496 1.57829 0
M  V30 1503 N 158.157 -0.370918 -1.53173 0
M  V30 1504 C 159.12 0.460778 -2.24521 0
M  V30 1505 C 160.12 1.00536 -1.25496 0
M  V30 1506 O 161.31 0.890266 -1.49733 0
M  V30 1507 C 158.442 1.64457 -2.98608 0
M  V30 1508 H 159.635 -0.163613 -2.99453 0
M  V30 1509 H 157.188 -0.122699 -1.55818 0
M  V30 1510 H 157.923 2.30691 -2.2793 0
M  V30 1511 H 157.708 1.26099 -3.7127 0
M  V30 1512 H 159.198 2.23384 -3.5283 0
M  V30 1513 N 159.635 1.57281 -0.100228 0
M  V30 1514 C 160.598 2.13158 0.842398 0
M  V30 1515 C 161.598 1.06202 1.20738 0
M  V30 1516 O 162.788 1.32066 1.13597 0
M  V30 1517 C 159.92 2.65639 2.13655 0
M  V30 1518 H 161.113 2.97766 0.357114 0
M  V30 1519 H 158.666 1.5559 0.148823 0
M  V30 1520 H 159.401 1.84566 2.66657 0
M  V30 1521 H 159.186 3.43844 1.88451 0
M  V30 1522 H 160.676 3.08846 2.81077 0
M  V30 1523 N 161.113 -0.173488 1.56642 0
M  V30 1524 C 162.045 -1.23935 1.92802 0
M  V30 1525 C 163.058 -1.40589 0.820889 0
M  V30 1526 O 164.247 -1.40631 1.09933 0
M  V30 1527 C 161.347 -2.60837 2.16373 0
M  V30 1528 C 160.52 -2.6551 3.47596 0
M  V30 1529 C 159.579 -3.8376 3.60021 0
M  V30 1530 O 158.605 -3.69859 4.32658 0
M  V30 1531 N 159.807 -5.00127 2.94709 0
M  V30 1532 H 162.572 -0.932236 2.84832 0
M  V30 1533 H 160.133 -0.363268 1.57772 0
M  V30 1534 H 162.125 -3.38407 2.21952 0
M  V30 1535 H 160.695 -2.83948 1.30738 0
M  V30 1536 H 159.915 -1.74052 3.53694 0
M  V30 1537 H 161.203 -2.65641 4.33949 0
M  V30 1538 H 160.601 -5.14322 2.35563 0
M  V30 1539 H 159.158 -5.75567 3.05886 0
M  V30 1540 N 162.591 -1.51276 -0.441967 0
M  V30 1541 C 163.839 -1.63392 -1.18943 0
M  V30 1542 C 164.16 -0.350159 -1.9183 0
M  V30 1543 O 163.43 0.633784 -1.85364 0
M  V30 1544 H 162.01 -0.602164 -0.442049 0
M  V30 1545 H 164.672 -1.88186 -0.507165 0
M  V30 1546 H 163.768 -2.45934 -1.92154 0
M  V30 1547 N 164.069 0.697108 -1.41344 0
M  V30 1548 C 165.032 1.79281 -1.42797 0
M  V30 1549 C 166.032 1.57607 -0.318837 0
M  V30 1550 O 167.222 1.64309 -0.578642 0
M  V30 1551 C 164.354 3.17632 -1.23785 0
M  V30 1552 H 165.547 1.79385 -2.40335 0
M  V30 1553 H 163.1 0.904582 -1.27464 0
M  V30 1554 H 163.835 3.23167 -0.270814 0
M  V30 1555 H 163.62 3.34765 -2.04144 0
M  V30 1556 H 165.11 3.97617 -1.27633 0
M  V30 1557 N 165.547 1.27147 0.931209 0
M  V30 1558 C 166.963 1.04475 1.20653 0
M  V30 1559 C 167.163 -0.223885 2.00252 0
M  V30 1560 O 166.219 -0.930332 2.34736 0
M  V30 1561 C 167.532 2.28209 1.95809 0
M  V30 1562 C 169.08 2.33211 2.08762 0
M  V30 1563 C 169.555 3.56665 2.87323 0
M  V30 1564 N 171.046 3.57201 2.94892 0
M  V30 1565 C 171.781 4.49395 3.56134 0
M  V30 1566 N 171.277 5.51889 4.18796 0
M  V30 1567 N 173.07 4.37026 3.53504 0
M  V30 1568 H 165.221 2.08612 0.399333 0
M  V30 1569 H 167.484 0.917312 0.239253 0
M  V30 1570 H 167.19 3.20538 1.44736 0
M  V30 1571 H 167.064 2.33247 2.96438 0
M  V30 1572 H 169.451 1.41391 2.59023 0
M  V30 1573 H 169.532 2.32178 1.07364 0
M  V30 1574 H 169.176 4.4882 2.37746 0
M  V30 1575 H 169.106 3.54948 3.88998 0
M  V30 1576 H 171.597 2.83074 2.50354 0
M  V30 1577 H 171.91 6.18409 4.63454 0
M  V30 1578 H 170.255 5.55735 4.17353 0
M  V30 1579 H 173.446 3.56166 3.03749 0
M  V30 1580 H 173.619 5.09067 4.00942 0
M  V30 1581 N 167.025 -1.13721 1.09112 0
M  V30 1582 C 168.436 -1.6648 0.845068 0
M  V30 1583 C 168.787 -1.85911 -0.62701 0
M  V30 1584 O 167.912 -1.57556 -1.48341 0
M  V30 1585 C 168.507 -3.02413 1.52748 0
M  V30 1586 C 167.066 -3.52176 1.32849 0
M  V30 1587 C 166.213 -2.27492 1.58564 0
M  V30 1588 H 169.164 -0.976872 1.25072 0
M  V30 1589 H 169.185 -3.68223 0.958752 0
M  V30 1590 H 168.697 -2.88238 2.59885 0
M  V30 1591 H 166.798 -3.7156 0.278137 0
M  V30 1592 H 166.911 -4.32499 2.0611 0
M  V30 1593 H 165.275 -2.33923 1.00758 0
M  V30 1594 H 166.058 -2.15886 2.66924 0
M  V30 1595 N 168.503 -0.877838 -1.30888 0
M  V30 1596 C 169.413 -0.343096 -2.32078 0
M  V30 1597 C 170.429 0.551022 -1.65045 0
M  V30 1598 O 171.605 0.445854 -1.96403 0
M  V30 1599 C 168.67 0.439905 -3.43898 0
M  V30 1600 C 167.731 -0.483111 -4.26573 0
M  V30 1601 C 166.964 0.262616 -5.33053 0
M  V30 1602 O 167.187 1.48967 -5.50604 0
M  V30 1603 O 166.121 -0.383593 -6.00676 0
M  V30 1604 H 169.947 -1.18203 -2.79753 0
M  V30 1605 H 167.532 -0.64145 -1.34929 0
M  V30 1606 H 169.414 0.883504 -4.12034 0
M  V30 1607 H 168.089 1.25526 -2.98371 0
M  V30 1608 H 166.996 -0.975374 -3.61161 0
M  V30 1609 H 168.329 -1.26427 -4.75686 0
M  V30 1610 N 169.982 1.44106 -0.638065 0
M  V30 1611 C 170.945 2.29138 0.0531013 0
M  V30 1612 C 171.945 1.41409 0.765506 0
M  V30 1613 O 173.135 1.63206 0.609046 0
M  V30 1614 C 170.267 3.23144 1.08584 0
M  V30 1615 H 171.46 2.91739 -0.694883 0
M  V30 1616 H 169.013 1.51134 -0.398538 0
M  V30 1617 H 169.748 2.65408 1.86357 0
M  V30 1618 H 169.533 3.87804 0.578852 0
M  V30 1619 H 171.023 3.87004 1.56899 0
M  V30 1620 N 171.46 0.379036 1.52974 0
M  V30 1621 C 172.871 -0.0972525 1.86447 0
M  V30 1622 C 173.222 -1.47027 1.29914 0
M  V30 1623 O 172.347 -2.07135 0.626433 0
M  V30 1624 C 172.942 -0.183248 3.38304 0
M  V30 1625 C 171.501 -0.603812 3.71525 0
M  V30 1626 C 170.648 0.240632 2.76254 0
M  V30 1627 H 173.599 0.597316 1.4703 0
M  V30 1628 H 173.62 -1.00432 3.67006 0
M  V30 1629 H 173.132 0.816191 3.79421 0
M  V30 1630 H 171.233 -1.61099 3.35973 0
M  V30 1631 H 171.346 -0.369086 4.77676 0
M  V30 1632 H 169.71 -0.292548 2.53014 0
M  V30 1633 H 170.493 1.23786 3.20206 0
M  V30 1634 N 172.938 -1.57226 0.108567 0
M  V30 1635 C 173.885 -2.14756 -0.845481 0
M  V30 1636 C 174.855 -1.06971 -1.27068 0
M  V30 1637 O 176.04 -1.34827 -1.35005 0
M  V30 1638 C 173.18 -2.74298 -2.09415 0
M  V30 1639 C 172.293 -3.96358 -1.71826 0
M  V30 1640 C 171.428 -4.44021 -2.9158 0
M  V30 1641 C 170.467 -5.58637 -2.50181 0
M  V30 1642 N 169.604 -6.01091 -3.62814 0
M  V30 1643 H 174.444 -2.95961 -0.348035 0
M  V30 1644 H 171.981 -1.46226 -0.160106 0
M  V30 1645 H 173.939 -3.06945 -2.82561 0
M  V30 1646 H 172.569 -1.95801 -2.56636 0
M  V30 1647 H 171.621 -3.69939 -0.885947 0
M  V30 1648 H 172.933 -4.79504 -1.37394 0
M  V30 1649 H 172.087 -4.78522 -3.72963 0
M  V30 1650 H 170.826 -3.59803 -3.29231 0
M  V30 1651 H 169.831 -5.23751 -1.67228 0
M  V30 1652 H 171.056 -6.44613 -2.13659 0
M  V30 1653 H 169.002 -5.19817 -4.00158 0
M  V30 1654 H 168.919 -6.79066 -3.32273 0
M  V30 1655 H 170.187 -6.40227 -4.44668 0
M  V30 1656 N 174.416 0.165178 -1.56732 0
M  V30 1657 C 175.832 0.517174 -1.50988 0
M  V30 1658 C 176.032 1.84331 -0.813894 0
M  V30 1659 O 175.088 2.49672 -0.37682 0
M  V30 1660 C 176.401 0.544261 -2.95733 0
M  V30 1661 C 177.949 0.631039 -3.06573 0
M  V30 1662 C 178.424 0.68896 -4.52788 0
M  V30 1663 N 179.915 0.751683 -4.5706 0
M  V30 1664 C 180.65 0.817177 -5.67547 0
M  V30 1665 N 180.146 0.843129 -6.8765 0
M  V30 1666 N 181.939 0.856668 -5.55534 0
M  V30 1667 H 174.09 -0.704318 -2.00382 0
M  V30 1668 H 176.353 -0.254687 -0.913148 0
M  V30 1669 H 176.059 -0.361607 -3.49836 0
M  V30 1670 H 175.933 1.3886 -3.5071 0
M  V30 1671 H 178.32 1.52733 -2.52501 0
M  V30 1672 H 178.401 -0.240095 -2.54671 0
M  V30 1673 H 178.045 -0.2031 -5.07494 0
M  V30 1674 H 177.975 1.57633 -5.02454 0
M  V30 1675 H 180.466 0.739661 -3.70591 0
M  V30 1676 H 180.779 0.894448 -7.67606 0
M  V30 1677 H 179.124 0.811304 -6.90248 0
M  V30 1678 H 182.315 0.833437 -4.60621 0
M  V30 1679 H 182.488 0.904247 -6.4166 0
M  V30 1680 N 175.894 1.51508 0.433938 0
M  V30 1681 C 176.841 1.73068 1.52696 0
M  V30 1682 C 177.811 0.572441 1.55924 0
M  V30 1683 O 178.996 0.807253 1.72882 0
M  V30 1684 C 176.136 1.86474 2.90381 0
M  V30 1685 C 175.249 3.14037 2.96656 0
M  V30 1686 C 174.384 3.18019 4.25485 0
M  V30 1687 C 173.423 4.39882 4.2564 0
M  V30 1688 N 172.56 4.41394 5.45999 0
M  V30 1689 H 177.4 2.66366 1.33615 0
M  V30 1690 H 174.937 1.32008 0.649018 0
M  V30 1691 H 176.895 1.92229 3.70275 0
M  V30 1692 H 175.525 0.965809 3.08013 0
M  V30 1693 H 174.577 3.17575 2.09404 0
M  V30 1694 H 175.889 4.0394 2.92633 0
M  V30 1695 H 175.043 3.22708 5.13755 0
M  V30 1696 H 173.782 2.2601 4.3217 0
M  V30 1697 H 172.787 4.35366 3.35763 0
M  V30 1698 H 174.012 5.33159 4.20617 0
M  V30 1699 H 171.958 3.52258 5.53399 0
M  V30 1700 H 171.875 5.25111 5.4387 0
M  V30 1701 H 173.143 4.50281 6.36292 0
M  V30 1702 N 177.372 -0.689602 1.41712 0
M  V30 1703 C 178.618 -1.45041 1.42599 0
M  V30 1704 C 178.973 -1.92366 0.0363764 0
M  V30 1705 O 178.266 -1.67022 -0.938844 0
M  V30 1706 C 178.46 -2.67298 2.37247 0
M  V30 1707 C 178.289 -2.31935 3.85274 0
M  V30 1708 C 177.059 -2.2201 4.53916 0
M  V30 1709 C 179.257 -1.94526 4.76093 0
M  V30 1710 N 177.239 -1.79594 5.87043 0
M  V30 1711 C 178.61 -1.62915 5.98213 0
M  V30 1712 C 180.665 -1.81388 4.63684 0
M  V30 1713 C 179.368 -1.19486 7.09306 0
M  V30 1714 C 181.394 -1.39364 5.74745 0
M  V30 1715 C 180.756 -1.08668 6.95967 0
M  V30 1716 H 176.855 -0.527806 0.577014 0
M  V30 1717 H 179.439 -0.797266 1.77628 0
M  V30 1718 H 177.61 -3.30325 2.04304 0
M  V30 1719 H 179.342 -3.33806 2.28814 0
M  V30 1720 H 176.097 -2.406 4.07932 0
M  V30 1721 H 176.521 -1.60851 6.57614 0
M  V30 1722 H 181.163 -2.03772 3.70455 0
M  V30 1723 H 178.881 -0.958477 8.02396 0
M  V30 1724 H 182.467 -1.2974 5.6715 0
M  V30 1725 H 181.347 -0.766417 7.80446 0
M  V30 1726 N 178.85 -1.27639 -0.924453 0
M  V30 1727 C 179.813 -1.10681 -2.00705 0
M  V30 1728 C 180.813 -0.0497823 -1.60723 0
M  V30 1729 O 182.003 -0.294654 -1.7169 0
M  V30 1730 C 179.135 -0.687164 -3.33902 0
M  V30 1731 H 180.328 -2.06817 -2.17179 0
M  V30 1732 H 177.881 -1.10473 -1.10569 0
M  V30 1733 H 178.616 0.275439 -3.23128 0
M  V30 1734 H 178.401 -1.45061 -3.6428 0
M  V30 1735 H 179.891 -0.590853 -4.13399 0
M  V30 1736 N 180.328 1.1314 -1.09713 0
M  V30 1737 C 181.238 2.22242 -0.751367 0
M  V30 1738 C 182.254 1.72224 0.247938 0
M  V30 1739 O 183.43 2.01205 0.0885463 0
M  V30 1740 C 180.495 3.46231 -0.180274 0
M  V30 1741 C 179.556 4.11125 -1.2359 0
M  V30 1742 C 178.789 5.29195 -0.691966 0
M  V30 1743 O 179.012 5.68342 0.48414 0
M  V30 1744 O 177.946 5.84214 -1.44838 0
M  V30 1745 H 181.772 2.54197 -1.66186 0
M  V30 1746 H 179.357 1.21331 -0.871735 0
M  V30 1747 H 181.239 4.21185 0.134739 0
M  V30 1748 H 179.914 3.1597 0.703185 0
M  V30 1749 H 178.821 3.37985 -1.60366 0
M  V30 1750 H 180.154 4.45524 -2.09211 0
M  V30 1751 N 181.806 0.884767 1.30421 0
M  V30 1752 C 183.083 0.423185 1.90967 0
M  V30 1753 C 183.463 -1.09605 1.80416 0
M  V30 1754 O 182.811 -1.93126 1.22125 0
M  V30 1755 C 183.021 0.921056 3.36627 0
M  V30 1756 C 184.369 0.955903 4.137 0
M  V30 1757 O 185.393 0.867706 3.4547 0
M  V30 1758 O 184.252 1.08614 5.35598 0
M  V30 1759 H 181.346 0.129369 0.816819 0
M  V30 1760 H 183.892 0.973653 1.3899 0
M  V30 1761 H 182.664 1.96489 3.3839 0
M  V30 1762 H 182.287 0.349741 3.96059 0
M  V30 1763 N 183.284 -1.43765 0.645699 0
M  V30 1764 C 184.532 -2.01499 0.155731 0
M  V30 1765 C 184.853 -1.51151 -1.232 0
M  V30 1766 O 184.123 -0.721044 -1.82148 0
M  V30 1767 H 182.703 -0.745003 0.0545817 0
M  V30 1768 H 185.365 -1.76075 0.835677 0
M  V30 1769 H 184.461 -3.1181 0.134577 0
M  V30 1770 N 184.763 -0.387143 -1.52771 0
M  V30 1771 C 186.011 0.195349 -2.01154 0
M  V30 1772 C 186.332 1.475 -1.27549 0
M  V30 1773 O 185.602 1.91878 -0.394924 0
M  V30 1774 H 184.182 0.075178 -0.743207 0
M  V30 1775 H 186.844 -0.518337 -1.87881 0
M  V30 1776 H 185.94 0.407096 -3.09434 0
M  V30 1777 N 186.241 1.57166 -0.116904 0
M  V30 1778 C 187.518 1.86645 0.585049 0
M  V30 1779 C 187.898 1.0177 1.84949 0
M  V30 1780 O 187.246 0.0960379 2.28298 0
M  V30 1781 C 187.456 3.37736 0.879507 0
M  V30 1782 C 188.804 4.06289 1.23348 0
M  V30 1783 O 189.828 3.42743 0.969836 0
M  V30 1784 O 188.687 5.18455 1.7282 0
M  V30 1785 H 185.781 0.772593 0.295007 0
M  V30 1786 H 188.327 1.69025 -0.151249 0
M  V30 1787 H 187.099 3.91296 -0.0166136 0
M  V30 1788 H 186.722 3.6078 1.67103 0
M  V30 1789 N 187.719 -0.156864 1.56817 0
M  V30 1790 C 188.682 -1.17781 1.96622 0
M  V30 1791 C 189.682 -1.36401 0.851555 0
M  V30 1792 O 190.872 -1.33561 1.11836 0
M  V30 1793 C 188.004 -2.54008 2.27361 0
M  V30 1794 H 189.197 -0.836564 2.87996 0
M  V30 1795 H 186.75 -0.39985 1.51099 0
M  V30 1796 H 187.485 -2.9312 1.38748 0
M  V30 1797 H 187.27 -2.41856 3.08623 0
M  V30 1798 H 188.76 -3.27558 2.59029 0
M  V30 1799 N 189.197 -1.51736 -0.425897 0
M  V30 1800 C 190.608 -1.5732 -1.00536 0
M  V30 1801 C 190.959 -0.403537 -1.92005 0
M  V30 1802 O 190.084 0.478256 -2.11049 0
M  V30 1803 C 190.679 -2.85119 -1.8301 0
M  V30 1804 C 189.238 -2.93236 -2.35987 0
M  V30 1805 C 188.385 -2.52098 -1.15508 0
M  V30 1806 H 191.336 -1.57348 -0.206739 0
M  V30 1807 H 191.357 -2.69526 -2.68581 0
M  V30 1808 H 190.869 -3.7023 -1.16411 0
M  V30 1809 H 188.97 -2.12581 -3.06007 0
M  V30 1810 H 189.083 -3.9713 -2.68001 0
M  V30 1811 H 187.447 -2.05558 -1.50393 0
M  V30 1812 H 188.23 -3.39565 -0.505014 0
M  V30 1813 N 190.675 0.682077 -1.42076 0
M  V30 1814 C 191.9 1.47558 -1.45744 0
M  V30 1815 C 192.325 1.87977 -0.0680981 0
M  V30 1816 O 191.683 1.55522 0.9318 0
M  V30 1817 C 191.731 2.70575 -2.38373 0
M  V30 1818 O 190.835 3.68573 -1.85007 0
M  V30 1819 H 190.176 0.443585 -0.494093 0
M  V30 1820 H 192.706 0.837238 -1.86686 0
M  V30 1821 H 192.716 3.18729 -2.54707 0
M  V30 1822 H 191.391 2.40495 -3.39315 0
M  V30 1823 H 189.968 3.2757 -1.78192 0
M  V30 1824 N 192.153 1.28127 0.917671 0
M  V30 1825 C 193.564 1.13622 1.48145 0
M  V30 1826 C 193.915 -0.275207 1.9426 0
M  V30 1827 O 193.04 -1.1691 1.82102 0
M  V30 1828 C 193.635 2.05648 2.69248 0
M  V30 1829 C 192.194 1.95219 3.21818 0
M  V30 1830 C 191.341 1.97618 1.94532 0
M  V30 1831 H 194.292 1.40874 0.730772 0
M  V30 1832 H 194.313 1.61818 3.44377 0
M  V30 1833 H 193.825 3.08365 2.35653 0
M  V30 1834 H 191.926 0.955244 3.60147 0
M  V30 1835 H 192.039 2.81976 3.87333 0
M  V30 1836 H 190.403 1.41973 2.11461 0
M  V30 1837 H 191.186 3.02007 1.63238 0
M  V30 1838 N 193.631 -1.12557 1.10312 0
M  V30 1839 C 194.856 -1.88405 0.867085 0
M  V30 1840 C 195.281 -1.79038 -0.576817 0
M  V30 1841 O 194.639 -1.14439 -1.40618 0
M  V30 1842 C 194.687 -3.3563 1.31851 0
M  V30 1843 O 193.791 -4.09565 0.482734 0
M  V30 1844 H 193.132 -0.585455 0.313271 0
M  V30 1845 H 195.662 -1.42352 1.4696 0
M  V30 1846 H 195.672 -3.86469 1.3079 0
M  V30 1847 H 194.347 -3.41765 2.37001 0
M  V30 1848 H 192.924 -3.68695 0.558448 0
M  V30 1849 N 195.109 -0.891671 -1.2995 0
M  V30 1850 C 196.056 -0.361736 -2.27948 0
M  V30 1851 C 197.026 0.551761 -1.56668 0
M  V30 1852 O 198.211 0.478736 -1.84696 0
M  V30 1853 C 195.351 0.411825 -3.42634 0
M  V30 1854 C 194.464 -0.531651 -4.28716 0
M  V30 1855 C 193.599 0.258167 -5.30572 0
M  V30 1856 C 192.638 -0.680349 -6.08307 0
M  V30 1857 N 191.775 0.0745613 -7.0206 0
M  V30 1858 H 196.615 -1.20254 -2.72659 0
M  V30 1859 H 194.152 -0.604352 -1.34112 0
M  V30 1860 H 196.11 0.876304 -4.07893 0
M  V30 1861 H 194.74 1.21715 -2.98974 0
M  V30 1862 H 193.792 -1.11463 -3.63703 0
M  V30 1863 H 195.104 -1.25038 -4.82874 0
M  V30 1864 H 194.258 0.784204 -6.0161 0
M  V30 1865 H 192.997 1.01008 -4.77126 0
M  V30 1866 H 192.002 -1.21796 -5.3614 0
M  V30 1867 H 193.227 -1.43145 -6.63842 0
M  V30 1868 H 191.173 0.808883 -6.50994 0
M  V30 1869 H 191.09 -0.584409 -7.53738 0
M  V30 1870 H 192.358 0.581123 -7.77331 0
M  V30 1871 N 196.587 1.43421 -0.653314 0
M  V30 1872 C 198.003 1.56341 -0.320886 0
M  V30 1873 C 198.203 1.63696 1.17499 0
M  V30 1874 O 197.259 1.59208 1.95982 0
M  V30 1875 C 198.572 2.82424 -1.03233 0
M  V30 1876 C 200.12 2.96168 -1.01259 0
M  V30 1877 C 200.595 4.25084 -1.70492 0
M  V30 1878 N 202.086 4.31948 -1.67257 0
M  V30 1879 C 202.821 5.30466 -2.17701 0
M  V30 1880 N 202.317 6.35261 -2.76434 0
M  V30 1881 N 204.11 5.2212 -2.082 0
M  V30 1882 H 196.261 1.3689 -1.62403 0
M  V30 1883 H 198.524 0.657455 -0.682977 0
M  V30 1884 H 198.23 2.83053 -2.08744 0
M  V30 1885 H 198.104 3.72653 -0.583948 0
M  V30 1886 H 200.491 2.9508 0.0341235 0
M  V30 1887 H 200.572 2.07229 -1.49966 0
M  V30 1888 H 200.216 4.26932 -2.7512 0
M  V30 1889 H 200.146 5.1292 -1.19251 0
M  V30 1890 H 202.637 3.56838 -1.24398 0
M  V30 1891 H 202.95 7.06754 -3.12601 0
M  V30 1892 H 201.295 6.35884 -2.80495 0
M  V30 1893 H 204.486 4.39166 -1.62021 0
M  V30 1894 H 204.659 5.98739 -2.47822 0
M  V30 1895 N 198.065 0.39524 1.52563 0
M  V30 1896 C 199.476 -0.0774719 1.86539 0
M  V30 1897 C 199.827 -1.45641 1.31466 0
M  V30 1898 O 198.952 -2.06459 0.648367 0
M  V30 1899 C 199.547 -0.147356 3.38479 0
M  V30 1900 C 198.106 -0.564373 3.72145 0
M  V30 1901 C 197.253 0.269919 2.75983 0
M  V30 1902 H 200.204 0.612876 1.46388 0
M  V30 1903 H 200.225 -0.965343 3.68051 0
M  V30 1904 H 199.737 0.856387 3.78534 0
M  V30 1905 H 197.838 -1.57527 3.37663 0
M  V30 1906 H 197.951 -0.318402 4.78041 0
M  V30 1907 H 196.315 -0.265696 2.5331 0
M  V30 1908 H 197.098 1.27175 3.18875 0
M  V30 1909 N 199.544 -1.57102 0.125237 0
M  V30 1910 C 200.79 -1.96488 -0.525753 0
M  V30 1911 C 201.145 -1.00786 -1.6389 0
M  V30 1912 O 200.438 -0.038979 -1.9156 0
M  V30 1913 C 200.632 -3.40096 -1.09862 0
M  V30 1914 C 200.461 -4.4968 -0.0425004 0
M  V30 1915 C 199.231 -5.03781 0.391463 0
M  V30 1916 C 201.429 -5.08936 0.740829 0
M  V30 1917 N 199.411 -5.96948 1.4327 0
M  V30 1918 C 200.782 -5.98105 1.6331 0
M  V30 1919 C 202.837 -4.91576 0.791029 0
M  V30 1920 C 201.54 -6.71774 2.57122 0
M  V30 1921 C 203.566 -5.6593 1.71688 0
M  V30 1922 C 202.928 -6.5479 2.59672 0
M  V30 1923 H 199.027 -0.765072 -0.161831 0
M  V30 1924 H 201.611 -1.93511 0.214801 0
M  V30 1925 H 199.782 -3.43707 -1.80887 0
M  V30 1926 H 201.514 -3.66591 -1.71444 0
M  V30 1927 H 198.269 -4.736 -0.00213584 0
M  V30 1928 H 198.693 -6.48236 1.95243 0
M  V30 1929 H 203.335 -4.22615 0.124915 0
M  V30 1930 H 201.053 -7.39977 3.24744 0
M  V30 1931 H 204.639 -5.54501 1.76125 0
M  V30 1932 H 203.519 -7.11316 3.30149 0
M  V30 1933 N 201.022 0.148545 -1.56898 0
M  V30 1934 C 201.985 1.16736 -1.97244 0
M  V30 1935 C 202.985 1.35947 -0.858777 0
M  V30 1936 O 204.175 1.32966 -1.12542 0
M  V30 1937 C 201.307 2.52798 -2.28705 0
M  V30 1938 H 202.5 0.821279 -2.88435 0
M  V30 1939 H 200.053 0.391831 -1.51309 0
M  V30 1940 H 200.788 2.92381 -1.403 0
M  V30 1941 H 200.573 2.40216 -3.09901 0
M  V30 1942 H 202.063 3.26179 -2.60762 0
M  V30 1943 N 202.5 1.5196 0.417844 0
M  V30 1944 C 203.916 1.40569 0.755816 0
M  V30 1945 C 204.116 0.503316 1.95113 0
M  V30 1946 O 203.172 -0.0341925 2.52477 0
M  V30 1947 C 204.485 2.82947 1.01791 0
M  V30 1948 C 206.033 2.92231 1.12116 0
M  V30 1949 C 206.508 4.35559 1.41608 0
M  V30 1950 N 207.999 4.38753 1.48491 0
M  V30 1951 C 208.734 5.46705 1.7292 0
M  V30 1952 N 208.23 6.64788 1.95011 0
M  V30 1953 N 210.023 5.34209 1.74863 0
M  V30 1954 H 202.174 2.09168 -0.369098 0
M  V30 1955 H 204.437 0.942409 -0.102809 0
M  V30 1956 H 204.143 3.5106 0.212081 0
M  V30 1957 H 204.017 3.23462 1.94042 0
M  V30 1958 H 206.404 2.24304 1.9176 0
M  V30 1959 H 206.485 2.55185 0.177225 0
M  V30 1960 H 206.129 5.04042 0.624848 0
M  V30 1961 H 206.059 4.70133 2.37239 0
M  V30 1962 H 208.55 3.5363 1.33244 0
M  V30 1963 H 208.863 7.42845 2.13076 0
M  V30 1964 H 207.208 6.67869 1.92293 0
M  V30 1965 H 210.399 4.40937 1.57137 0
M  V30 1966 H 210.572 6.18415 1.93563 0
M  V30 1967 N 203.978 -0.674533 1.42435 0
M  V30 1968 C 204.91 -1.80005 1.41883 0
M  V30 1969 C 205.923 -1.59667 0.31787 0
M  V30 1970 O 207.112 -1.68781 0.580973 0
M  V30 1971 C 204.212 -3.17114 1.19549 0
M  V30 1972 C 203.385 -3.64299 2.42084 0
M  V30 1973 C 202.444 -4.80142 2.15291 0
M  V30 1974 O 201.47 -4.90673 2.88493 0
M  V30 1975 N 202.672 -5.68869 1.1562 0
M  V30 1976 H 205.437 -1.80964 2.38898 0
M  V30 1977 H 202.998 -0.857633 1.37318 0
M  V30 1978 H 204.99 -3.92267 0.995417 0
M  V30 1979 H 203.56 -3.11053 0.310569 0
M  V30 1980 H 202.78 -2.79822 2.77657 0
M  V30 1981 H 204.068 -3.92567 3.23679 0
M  V30 1982 H 203.466 -5.63012 0.550765 0
M  V30 1983 H 202.023 -6.43833 1.016 0
M  V30 1984 N 205.456 -1.28612 -0.910864 0
M  V30 1985 C 206.366 -1.14643 -2.0468 0
M  V30 1986 C 207.382 -0.0723121 -1.7385 0
M  V30 1987 O 208.558 -0.282178 -1.99413 0
M  V30 1988 C 205.623 -0.812561 -3.37044 0
M  V30 1989 C 204.684 -1.96935 -3.81465 0
M  V30 1990 C 203.917 -1.65131 -5.07511 0
M  V30 1991 O 204.14 -0.567013 -5.67575 0
M  V30 1992 O 203.074 -2.49585 -5.47714 0
M  V30 1993 H 206.9 -2.1001 -2.19384 0
M  V30 1994 H 204.485 -1.07958 -1.03274 0
M  V30 1995 H 206.367 -0.640441 -4.16505 0
M  V30 1996 H 205.042 0.111426 -3.23508 0
M  V30 1997 H 203.949 -2.19664 -3.02818 0
M  V30 1998 H 205.282 -2.87414 -3.99567 0
M  V30 1999 N 206.934 1.1197 -1.10907 0
M  V30 2000 C 207.882 2.19927 -0.757303 0
M  V30 2001 C 208.876 1.67564 0.248747 0
M  V30 2002 O 210.082 1.79672 0.108605 0
M  V30 2003 H 206.457 0.716925 -0.226987 0
M  V30 2004 H 208.428 2.46847 -1.67658 0
M  V30 2005 C 207.177 3.47061 -0.210671 0
M  V30 2006 H 206.5 3.87703 -0.976049 0
M  V30 2007 H 207.94 4.24 -0.0026584 0
M  V30 2008 C 206.399 3.19864 1.05777 0
M  V30 2009 O 206.929 3.40049 2.13845 0
M  V30 2010 N 205.135 2.73636 0.978349 0
M  V30 2011 H 204.682 2.5741 0.0988246 0
M  V30 2012 H 204.64 2.55815 1.82773 0
M  V30 2013 N 208.412 0.89855 1.29475 0
M  V30 2014 C 209.344 0.332726 2.26772 0
M  V30 2015 C 210.357 -0.520323 1.54261 0
M  V30 2016 O 211.546 -0.337668 1.75277 0
M  V30 2017 C 208.646 -0.544334 3.345 0
M  V30 2018 C 207.819 0.282728 4.36485 0
M  V30 2019 C 206.878 -0.526982 5.23555 0
M  V30 2020 O 205.904 0.0551165 5.69173 0
M  V30 2021 N 207.106 -1.83331 5.5079 0
M  V30 2022 H 209.871 1.16897 2.75962 0
M  V30 2023 H 207.432 0.762919 1.42798 0
M  V30 2024 H 209.424 -1.09239 3.89678 0
M  V30 2025 H 207.994 -1.28127 2.85136 0
M  V30 2026 H 207.214 1.01221 3.80983 0
M  V30 2027 H 208.502 0.84918 5.01664 0
M  V30 2028 H 207.9 -2.32898 5.15534 0
M  V30 2029 H 206.457 -2.32852 6.08788 0
M  V30 2030 N 209.89 -1.43072 0.660911 0
M  V30 2031 C 210.8 -2.34585 -0.0264163 0
M  V30 2032 C 211.816 -1.54316 -0.803898 0
M  V30 2033 O 212.992 -1.86939 -0.749391 0
M  V30 2034 C 210.057 -3.32689 -0.975639 0
M  V30 2035 C 209.118 -4.2886 -0.194236 0
M  V30 2036 C 208.351 -5.22278 -1.09825 0
M  V30 2037 O 208.574 -5.20299 -2.33763 0
M  V30 2038 O 207.508 -5.99228 -0.566513 0
M  V30 2039 H 211.334 -2.94869 0.727034 0
M  V30 2040 H 208.919 -1.43342 0.42111 0
M  V30 2041 H 210.801 -3.92995 -1.52094 0
M  V30 2042 H 209.476 -2.74898 -1.70918 0
M  V30 2043 H 208.383 -3.72011 0.394835 0
M  V30 2044 H 209.716 -4.89655 0.499899 0
M  V30 2045 N 211.368 -0.403325 -1.52352 0
M  V30 2046 C 212.331 0.413051 -2.25447 0
M  V30 2047 C 213.331 0.978513 -1.276 0
M  V30 2048 O 214.521 0.858305 -1.51587 0
M  V30 2049 C 211.653 1.58087 -3.02029 0
M  V30 2050 H 212.846 -0.227094 -2.99039 0
M  V30 2051 H 210.399 -0.155722 -1.55522 0
M  V30 2052 H 211.134 2.25804 -2.32772 0
M  V30 2053 H 210.919 1.18195 -3.73861 0
M  V30 2054 H 212.409 2.1585 -3.57489 0
M  V30 2055 N 212.846 1.57033 -0.133567 0
M  V30 2056 C 213.756 2.19632 0.824564 0
M  V30 2057 C 214.772 1.17666 1.28182 0
M  V30 2058 O 215.948 1.50193 1.3418 0
M  V30 2059 C 213.013 2.79499 2.05137 0
M  V30 2060 C 212.074 3.96548 1.64464 0
M  V30 2061 C 211.307 4.5355 2.81297 0
M  V30 2062 O 211.53 4.09438 3.97136 0
M  V30 2063 O 210.464 5.44018 2.57542 0
M  V30 2064 H 214.29 3.01991 0.321766 0
M  V30 2065 H 211.875 1.49112 0.0927889 0
M  V30 2066 H 213.757 3.17602 2.7696 0
M  V30 2067 H 212.432 2.00162 2.54395 0
M  V30 2068 H 211.339 3.63186 0.897048 0
M  V30 2069 H 212.672 4.77364 1.19934 0
M  V30 2070 N 214.325 -0.140222 1.56975 0
M  V30 2071 C 215.741 -0.493088 1.51792 0
M  V30 2072 C 215.941 -1.83013 0.843116 0
M  V30 2073 O 214.997 -2.49041 0.416493 0
M  V30 2074 C 216.31 -0.497144 2.96562 0
M  V30 2075 C 217.858 -0.582186 3.07538 0
M  V30 2076 C 218.333 -0.616838 4.53827 0
M  V30 2077 N 219.824 -0.678873 4.58198 0
M  V30 2078 C 220.559 -0.726782 5.68775 0
M  V30 2079 N 220.055 -0.733623 6.88905 0
M  V30 2080 N 221.848 -0.768179 5.56826 0
M  V30 2081 H 213.999 0.736108 1.99237 0
M  V30 2082 H 216.262 0.269182 0.90898 0
M  V30 2083 H 215.968 0.417217 3.49217 0
M  V30 2084 H 215.842 -1.33263 3.52875 0
M  V30 2085 H 218.229 -1.48697 2.54899 0
M  V30 2086 H 218.31 0.280581 2.54257 0
M  V30 2087 H 217.954 0.283812 5.07106 0
M  V30 2088 H 217.884 -1.49619 5.04898 0
M  V30 2089 H 220.375 -0.68061 3.7172 0
M  V30 2090 H 220.688 -0.772215 7.68932 0
M  V30 2091 H 219.033 -0.701389 6.91452 0
M  V30 2092 H 222.224 -0.760051 4.61888 0
M  V30 2093 H 222.397 -0.80205 6.43017 0
M  V30 2094 N 215.803 -1.52179 -0.40978 0
M  V30 2095 C 216.713 -1.78364 -1.52392 0
M  V30 2096 C 217.729 -0.669183 -1.60617 0
M  V30 2097 O 218.905 -0.954518 -1.77344 0
M  V30 2098 C 215.97 -1.92822 -2.88133 0
M  V30 2099 C 215.031 -3.16725 -2.898 0
M  V30 2100 C 214.264 -3.30483 -4.19067 0
M  V30 2101 O 214.487 -2.49522 -5.12928 0
M  V30 2102 O 213.421 -4.2363 -4.27576 0
M  V30 2103 H 217.247 -2.72931 -1.33201 0
M  V30 2104 H 214.832 -1.37016 -0.59557 0
M  V30 2105 H 216.714 -2.04157 -3.68643 0
M  V30 2106 H 215.389 -1.01444 -3.07393 0
M  V30 2107 H 214.296 -3.10848 -2.08146 0
M  V30 2108 H 215.629 -4.07881 -2.75489 0
M  V30 2109 N 217.281 0.66697 -1.42791 0
M  V30 2110 C 218.529 1.42417 -1.43394 0
M  V30 2111 C 218.85 1.94925 -0.0542373 0
M  V30 2112 O 218.12 1.73564 0.908415 0
M  V30 2113 H 216.7 0.528515 -0.527902 0
M  V30 2114 H 219.362 0.787562 -1.78279 0
M  V30 2115 H 218.458 2.27333 -2.13837 0
M  V30 2116 N 218.759 1.29093 0.90403 0
M  V30 2117 C 220.007 1.16583 1.65085 0
M  V30 2118 C 220.328 -0.283933 1.92922 0
M  V30 2119 O 219.598 -1.19509 1.55224 0
M  V30 2120 H 218.178 0.428467 0.611903 0
M  V30 2121 H 220.84 1.61959 1.08422 0
M  V30 2122 H 219.936 1.71266 2.6091 0
M  V30 2123 N 220.237 -1.11381 1.11499 0
M  V30 2124 C 221.17 -2.16621 0.71769 0
M  V30 2125 C 222.148 -1.60058 -0.286413 0
M  V30 2126 O 223.332 -1.87613 -0.182689 0
M  V30 2127 C 220.459 -3.38646 0.0607265 0
M  V30 2128 C 219.505 -4.13874 1.03008 0
M  V30 2129 S 220.338 -4.70731 2.55289 0
M  V30 2130 C 221.494 -5.96079 1.90895 0
M  V30 2131 H 221.727 -2.49987 1.60915 0
M  V30 2132 H 219.26 -1.23015 0.933092 0
M  V30 2133 H 221.218 -4.09313 -0.311965 0
M  V30 2134 H 219.879 -3.03537 -0.807702 0
M  V30 2135 H 219.072 -5.01333 0.517853 0
M  V30 2136 H 218.674 -3.4897 1.34522 0
M  V30 2137 H 220.966 -6.65948 1.24577 0
M  V30 2138 H 221.909 -6.51946 2.76354 0
M  V30 2139 H 222.317 -5.47652 1.36885 0
M  V30 2140 N 221.715 -0.905404 -1.28997 0
M  V30 2141 C 222.94 -0.549175 -1.99997 0
M  V30 2142 C 223.365 0.860276 -1.67275 0
M  V30 2143 O 222.723 1.57355 -0.900502 0
M  V30 2144 C 222.771 -0.755185 -3.52604 0
M  V30 2145 O 221.875 0.189692 -4.11964 0
M  V30 2146 H 221.216 -0.213899 -0.628604 0
M  V30 2147 H 223.746 -1.21856 -1.64354 0
M  V30 2148 H 223.756 -0.662045 -4.02593 0
M  V30 2149 H 222.431 -1.78271 -3.75755 0
M  V30 2150 H 221.008 0.0485257 -3.72868 0
M  V30 2151 N 223.193 1.4272 -0.668489 0
M  V30 2152 C 224.433 2.03497 -0.19194 0
M  V30 2153 C 224.797 1.51684 1.17712 0
M  V30 2154 O 225.998 2.04205 1.74796 0
M  V30 2155 C 224.269 3.56734 -0.218032 0
M  V30 2156 S 225.828 4.38395 0.188438 0
M  V30 2157 H 222.646 0.706542 -0.0794959 0
M  V30 2158 H 225.248 1.74563 -0.880235 0
M  V30 2159 H 223.952 3.91943 -1.2169 0
M  V30 2160 H 223.483 3.90333 0.490303 0
M  V30 2161 H 225.498 4.75345 1.42345 0
M  V30 2162 N 224.671 0.411399 1.52136 0
M  V30 2163 C 225.896 -0.165538 2.06738 0
M  V30 2164 C 226.321 -1.379 1.27926 0
M  V30 2165 O 225.679 -1.78628 0.310114 0
M  V30 2166 C 225.727 -0.492124 3.57226 0
M  V30 2167 O 224.831 -1.58276 3.80818 0
M  V30 2168 H 224.172 -0.0132132 0.663869 0
M  V30 2169 H 226.702 0.585253 1.96051 0
M  V30 2170 H 226.712 -0.750104 4.01045 0
M  V30 2171 H 225.387 0.394922 4.14021 0
M  V30 2172 H 223.964 -1.31677 3.48877 0
M  V30 2173 N 226.149 -1.5696 0.141893 0
M  V30 2174 C 227.389 -1.9785 -0.513304 0
M  V30 2175 C 227.753 -1.02467 -1.62371 0
M  V30 2176 O 228.954 -1.32382 -2.33941 0
M  V30 2177 C 227.225 -3.42797 -1.01118 0
M  V30 2178 S 228.784 -4.05709 -1.67169 0
M  V30 2179 H 225.602 -0.691318 -0.166135 0
M  V30 2180 H 228.204 -1.94114 0.232398 0
M  V30 2181 H 226.908 -4.0995 -0.192179 0
M  V30 2182 H 226.439 -3.50235 -1.79162 0
M  V30 2183 H 228.454 -3.98342 -2.95868 0
M  V30 2184 N 227.627 0.131896 -1.57047 0
M  V30 2185 C 228.852 0.860418 -1.8871 0
M  V30 2186 C 229.277 1.73251 -0.73251 0
M  V30 2187 O 228.635 1.785 0.317429 0
M  V30 2188 C 228.683 1.68047 -3.19049 0
M  V30 2189 O 227.787 2.7862 -3.04047 0
M  V30 2190 H 227.128 0.238743 -0.619595 0
M  V30 2191 H 229.658 0.118169 -2.04258 0
M  V30 2192 H 229.668 2.07238 -3.51449 0
M  V30 2193 H 228.343 1.04018 -4.02682 0
M  V30 2194 H 226.92 2.42726 -2.83088 0
M  V30 2195 N 229.106 1.52395 0.401703 0
M  V30 2196 C 230.331 1.70972 1.17403 0
M  V30 2197 C 230.756 0.421615 1.83314 0
M  V30 2198 O 230.114 -0.621564 1.70312 0
M  V30 2199 C 230.162 2.85151 2.20728 0
M  V30 2200 O 229.266 2.51238 3.27037 0
M  V30 2201 H 228.607 0.568927 0.342372 0
M  V30 2202 H 231.137 1.99131 0.469891 0
M  V30 2203 H 231.147 3.10279 2.64936 0
M  V30 2204 H 229.822 3.78603 1.7214 0
M  V30 2205 H 228.399 2.36808 2.88057 0
M  V30 2206 N 230.584 -0.659388 1.43143 0
M  V30 2207 C 231.832 -1.41654 1.44147 0
M  V30 2208 C 232.153 -1.94893 0.0645739 0
M  V30 2209 O 231.423 -1.74044 -0.899198 0
M  V30 2210 H 230.003 -0.525708 0.530697 0
M  V30 2211 H 232.665 -0.778097 1.78694 0
M  V30 2212 H 231.761 -2.26195 2.1504 0
M  V30 2213 N 232.062 -1.29571 -0.897171 0
M  V30 2214 C 233.287 -1.20705 -1.68656 0
M  V30 2215 C 233.712 0.228582 -1.86706 0
M  V30 2216 O 233.07 1.16494 -1.3892 0
M  V30 2217 C 233.118 -1.9282 -3.04717 0
M  V30 2218 O 232.222 -1.24697 -3.93096 0
M  V30 2219 H 231.563 -0.418126 -0.515816 0
M  V30 2220 H 234.093 -1.71183 -1.12061 0
M  V30 2221 H 234.103 -2.01372 -3.54843 0
M  V30 2222 H 232.778 -2.97239 -2.90899 0
M  V30 2223 H 231.355 -1.2442 -3.51531 0
M  V30 2224 N 233.54 1.10788 -1.12088 0
M  V30 2225 C 234.788 1.8231 -0.872205 0
M  V30 2226 C 235.109 1.85419 0.603709 0
M  V30 2227 O 234.379 1.32963 1.43867 0
M  V30 2228 H 232.959 0.675137 -0.319686 0
M  V30 2229 H 235.621 1.34068 -1.41463 0
M  V30 2230 H 234.717 2.85955 -1.25045 0
M  V30 2231 N 235.018 0.912232 1.28515 0
M  V30 2232 C 235.928 0.404506 2.31086 0
M  V30 2233 C 236.944 -0.50707 1.66448 0
M  V30 2234 O 238.12 -0.393624 1.97516 0
M  V30 2235 C 235.185 -0.348572 3.44943 0
M  V30 2236 C 234.246 0.59604 4.25142 0
M  V30 2237 C 233.479 -0.121194 5.33562 0
M  V30 2238 O 233.702 -1.34317 5.5436 0
M  V30 2239 O 232.636 0.542716 5.99448 0
M  V30 2240 H 236.462 1.25579 2.76521 0
M  V30 2241 H 234.047 0.676998 1.33181 0
M  V30 2242 H 235.929 -0.77395 4.14232 0
M  V30 2243 H 234.604 -1.17571 3.01594 0
M  V30 2244 H 233.511 1.07079 3.58448 0
M  V30 2245 H 234.844 1.38995 4.72167 0
M  V30 2246 N 236.496 -1.42363 0.676048 0
M  V30 2247 C 237.459 -2.29199 0.00766941 0
M  V30 2248 C 238.459 -1.43389 -0.727745 0
M  V30 2249 O 239.649 -1.64764 -0.56556 0
M  V30 2250 C 236.781 -3.2591 -0.999785 0
M  V30 2251 H 237.974 -2.89794 0.771988 0
M  V30 2252 H 235.527 -1.50024 0.438468 0
M  V30 2253 H 236.262 -2.70256 -1.79255 0
M  V30 2254 H 236.047 -3.89202 -0.475829 0
M  V30 2255 H 237.537 -3.91028 -1.46583 0
M  V30 2256 N 237.974 -0.419461 -1.51915 0
M  V30 2257 C 239.199 0.154572 -2.06823 0
M  V30 2258 C 239.624 1.3722 -1.28656 0
M  V30 2259 O 238.982 1.78461 -0.319583 0
M  V30 2260 C 239.03 0.473172 -3.57482 0
M  V30 2261 O 238.134 1.56255 -3.81652 0
M  V30 2262 H 237.475 0.0096924 -0.663929 0
M  V30 2263 H 240.005 -0.595642 -1.95738 0
M  V30 2264 H 240.015 0.728825 -4.01438 0
M  V30 2265 H 238.69 -0.416873 -4.13805 0
M  V30 2266 H 237.267 1.29825 -3.49571 0
M  V30 2267 N 239.452 1.56882 -0.150215 0
M  V30 2268 C 240.415 2.1573 0.774157 0
M  V30 2269 C 241.415 1.0999 1.17298 0
M  V30 2270 O 242.605 1.35613 1.09338 0
M  V30 2271 C 239.737 2.72302 2.05096 0
M  V30 2272 H 240.93 2.98752 0.262201 0
M  V30 2273 H 238.483 1.55985 0.099248 0
M  V30 2274 H 239.218 1.92956 2.6065 0
M  V30 2275 H 239.003 3.49665 1.77416 0
M  V30 2276 H 240.493 3.17632 2.71109 0
M  V30 2277 N 240.93 -0.123565 1.57115 0
M  V30 2278 C 242.178 -0.83051 1.84247 0
M  V30 2279 C 242.499 -1.80629 0.73471 0
M  V30 2280 O 241.769 -1.94403 -0.241688 0
M  V30 2281 H 240.349 -0.309694 0.679778 0
M  V30 2282 H 243.011 -0.111976 1.94578 0
M  V30 2283 H 242.107 -1.37852 2.80006 0
M  V30 2284 N 242.408 -1.52605 -0.393616 0
M  V30 2285 C 243.338 -1.80022 -1.48709 0
M  V30 2286 C 244.319 -0.651995 -1.57108 0
M  V30 2287 O 245.504 -0.89913 -1.72132 0
M  V30 2288 C 242.634 -1.96492 -2.86371 0
M  V30 2289 C 241.588 -3.12161 -2.92813 0
M  V30 2290 C 240.914 -3.13877 -4.3288 0
M  V30 2291 C 242.214 -4.51322 -2.6288 0
M  V30 2292 H 243.908 -2.71589 -1.26015 0
M  V30 2293 H 241.454 -1.30684 -0.604778 0
M  V30 2294 H 243.407 -2.14255 -3.62867 0
M  V30 2295 H 242.131 -1.01611 -3.10391 0
M  V30 2296 H 240.79 -2.94173 -2.18764 0
M  V30 2297 H 240.438 -2.16687 -4.53933 0
M  V30 2298 H 240.138 -3.91576 -4.38112 0
M  V30 2299 H 241.662 -3.33789 -5.1129 0
M  V30 2300 H 243.076 -4.69435 -3.29096 0
M  V30 2301 H 241.473 -5.31053 -2.79468 0
M  V30 2302 H 242.543 -4.58353 -1.58242 0
M  V30 2303 N 243.887 0.651787 -1.4349 0
M  V30 2304 C 244.82 1.77668 -1.43211 0
M  V30 2305 C 245.798 1.59931 -0.29338 0
M  V30 2306 O 246.982 1.82095 -0.487191 0
M  V30 2307 C 244.109 3.14986 -1.24505 0
M  V30 2308 C 243.155 3.51421 -2.41673 0
M  V30 2309 S 243.988 3.51234 -4.04222 0
M  V30 2310 C 245.144 4.91206 -3.87902 0
M  V30 2311 H 245.377 1.77635 -2.38397 0
M  V30 2312 H 242.91 0.824558 -1.30539 0
M  V30 2313 H 244.868 3.94237 -1.144 0
M  V30 2314 H 243.529 3.1258 -0.308651 0
M  V30 2315 H 242.722 4.51291 -2.24393 0
M  V30 2316 H 242.324 2.79585 -2.48411 0
M  V30 2317 H 244.616 5.79902 -3.50315 0
M  V30 2318 H 245.559 5.13537 -4.8753 0
M  V30 2319 H 245.967 4.64808 -3.20334 0
M  V30 2320 N 245.365 1.30045 0.890287 0
M  V30 2321 C 246.275 1.17885 2.02831 0
M  V30 2322 C 247.291 0.0999609 1.73713 0
M  V30 2323 O 248.467 0.313867 1.98939 0
M  V30 2324 C 245.532 0.866079 3.35708 0
M  V30 2325 C 244.593 2.02979 3.78283 0
M  V30 2326 C 243.826 1.73184 5.0482 0
M  V30 2327 O 244.049 0.657237 5.66601 0
M  V30 2328 O 242.983 2.58267 5.43674 0
M  V30 2329 H 246.809 2.13474 2.16015 0
M  V30 2330 H 244.394 1.09587 1.01543 0
M  V30 2331 H 246.276 0.706623 4.15433 0
M  V30 2332 H 244.951 -0.0599443 3.23644 0
M  V30 2333 H 243.858 2.24454 2.99285 0
M  V30 2334 H 245.191 2.93734 3.94944 0
M  V30 2335 N 246.843 -1.10192 1.12674 0
M  V30 2336 C 247.753 -2.20172 0.810026 0
M  V30 2337 C 248.769 -1.72821 -0.202188 0
M  V30 2338 O 249.945 -2.01369 -0.0351691 0
M  V30 2339 C 247.01 -3.45631 0.272007 0
M  V30 2340 C 246.071 -4.07704 1.34447 0
M  V30 2341 C 245.304 -5.27175 0.832029 0
M  V30 2342 O 245.527 -5.69425 -0.333284 0
M  V30 2343 O 244.461 -5.80168 1.60277 0
M  V30 2344 H 248.287 -2.49701 1.72867 0
M  V30 2345 H 245.872 -1.18977 0.903597 0
M  V30 2346 H 247.754 -4.21394 -0.0230219 0
M  V30 2347 H 246.429 -3.17723 -0.619164 0
M  V30 2348 H 245.336 -3.33614 1.6927 0
M  V30 2349 H 246.669 -4.3982 2.2095 0
M  V30 2350 N 248.321 -0.919034 -1.28029 0
M  V30 2351 C 249.284 -0.416182 -2.2539 0
M  V30 2352 C 250.284 0.460438 -1.54067 0
M  V30 2353 O 251.474 0.262744 -1.72207 0
M  V30 2354 C 248.606 0.402707 -3.38513 0
M  V30 2355 H 249.799 -1.27629 -2.71387 0
M  V30 2356 H 247.352 -0.698919 -1.39803 0
M  V30 2357 H 248.087 1.282 -2.97885 0
M  V30 2358 H 247.872 -0.225698 -3.9145 0
M  V30 2359 H 249.362 0.745191 -4.10897 0
M  V30 2360 N 249.799 1.42003 -0.683588 0
M  V30 2361 C 250.729 2.33487 -0.024866 0
M  V30 2362 C 251.71 1.51163 0.779975 0
M  V30 2363 O 252.895 1.79739 0.735362 0
M  V30 2364 C 250.025 3.3487 0.920836 0
M  V30 2365 C 248.979 4.27414 0.223958 0
M  V30 2366 C 248.305 5.19074 1.2832 0
M  V30 2367 C 249.605 5.14445 -0.90242 0
M  V30 2368 H 251.299 2.88819 -0.788921 0
M  V30 2369 H 248.845 1.38873 -0.38083 0
M  V30 2370 H 250.798 3.97787 1.39081 0
M  V30 2371 H 249.522 2.77861 1.71642 0
M  V30 2372 H 248.181 3.65904 -0.225864 0
M  V30 2373 H 247.829 4.58387 2.071 0
M  V30 2374 H 247.529 5.81822 0.821995 0
M  V30 2375 H 249.053 5.84867 1.75392 0
M  V30 2376 H 250.467 5.70998 -0.513272 0
M  V30 2377 H 248.864 5.86072 -1.28997 0
M  V30 2378 H 249.934 4.52322 -1.74737 0
M  V30 2379 N 251.277 0.427512 1.51691 0
M  V30 2380 C 252.688 -0.0378867 1.86662 0
M  V30 2381 C 253.039 -1.42819 1.34525 0
M  V30 2382 O 252.164 -2.05037 0.692014 0
M  V30 2383 C 252.759 -0.0755266 3.38716 0
M  V30 2384 C 251.318 -0.485309 3.73258 0
M  V30 2385 C 250.465 0.328399 2.75349 0
M  V30 2386 H 253.416 0.64379 1.45055 0
M  V30 2387 H 253.437 -0.887056 3.70016 0
M  V30 2388 H 252.949 0.936487 3.76632 0
M  V30 2389 H 251.05 -1.50329 3.40928 0
M  V30 2390 H 251.163 -0.21693 4.78609 0
M  V30 2391 H 249.527 -0.211905 2.53817 0
M  V30 2392 H 250.31 1.3391 3.16106 0
M  V30 2393 N 252.755 -1.56801 0.158532 0
M  V30 2394 C 253.98 -2.01295 -0.499516 0
M  V30 2395 C 254.405 -1.03799 -1.56867 0
M  V30 2396 O 253.763 -0.0155162 -1.81293 0
M  V30 2397 C 253.811 -3.44469 -1.06647 0
M  V30 2398 O 252.915 -3.50012 -2.18095 0
M  V30 2399 H 252.256 -0.652884 -0.12099 0
M  V30 2400 H 254.786 -2.02958 0.258661 0
M  V30 2401 H 254.796 -3.8351 -1.39227 0
M  V30 2402 H 253.471 -4.14932 -0.283581 0
M  V30 2403 H 252.048 -3.22822 -1.86656 0
M  V30 2404 N 254.233 0.115231 -1.57178 0
M  V30 2405 C 255.196 1.12526 -1.99676 0
M  V30 2406 C 256.196 1.34095 -0.88742 0
M  V30 2407 O 257.386 1.30548 -1.15337 0
M  V30 2408 C 254.518 2.4789 -2.34015 0
M  V30 2409 H 255.711 0.759912 -2.90113 0
M  V30 2410 H 253.264 0.359648 -1.52106 0
M  V30 2411 H 253.999 2.89339 -1.4647 0
M  V30 2412 H 253.784 2.33588 -3.14927 0
M  V30 2413 H 255.274 3.20575 -2.67622 0
M  V30 2414 N 255.711 1.52812 0.385517 0
M  V30 2415 C 257.122 1.5993 0.963293 0
M  V30 2416 C 257.473 0.454302 1.90868 0
M  V30 2417 O 256.598 -0.422132 2.12243 0
M  V30 2418 C 257.193 2.89871 1.75387 0
M  V30 2419 C 255.752 2.99389 2.28129 0
M  V30 2420 C 254.899 2.55071 1.08783 0
M  V30 2421 H 257.85 1.5784 0.164948 0
M  V30 2422 H 257.871 2.76553 2.61341 0
M  V30 2423 H 257.383 3.73186 1.06554 0
M  V30 2424 H 255.484 2.20619 3.00263 0
M  V30 2425 H 255.597 4.04096 2.57377 0
M  V30 2426 H 253.961 2.09473 1.4489 0
M  V30 2427 H 254.744 3.40785 0.414807 0
M  V30 2428 N 257.189 -0.644168 1.43834 0
M  V30 2429 C 258.099 -1.78563 1.52159 0
M  V30 2430 C 259.115 -1.69147 0.408069 0
M  V30 2431 O 260.291 -1.90156 0.663524 0
M  V30 2432 C 257.356 -3.14888 1.45073 0
M  V30 2433 C 256.417 -3.36034 2.6717 0
M  V30 2434 C 255.65 -4.65855 2.60413 0
M  V30 2435 O 255.873 -5.45805 1.65689 0
M  V30 2436 O 254.807 -4.88918 3.5106 0
M  V30 2437 H 258.633 -1.74494 2.48567 0
M  V30 2438 H 256.218 -0.80378 1.25935 0
M  V30 2439 H 258.1 -3.96179 1.43597 0
M  V30 2440 H 256.775 -3.19528 0.518037 0
M  V30 2441 H 255.682 -2.54472 2.74217 0
M  V30 2442 H 257.015 -3.36247 3.59442 0
M  V30 2443 N 258.668 -1.30515 -0.883378 0
M  V30 2444 C 260.084 -1.08881 -1.16692 0
M  V30 2445 C 260.284 0.149409 -2.00945 0
M  V30 2446 O 259.34 0.84257 -2.38027 0
M  V30 2447 C 260.653 -2.35319 -1.87204 0
M  V30 2448 C 262.201 -2.40799 -1.99962 0
M  V30 2449 C 262.676 -3.67083 -2.73887 0
M  V30 2450 N 264.167 -3.679 -2.81432 0
M  V30 2451 C 264.902 -4.62303 -3.3921 0
M  V30 2452 N 264.398 -5.67052 -3.98025 0
M  V30 2453 N 266.191 -4.49845 -3.3704 0
M  V30 2454 H 258.342 -2.09951 -0.321633 0
M  V30 2455 H 260.605 -0.92556 -0.205043 0
M  V30 2456 H 260.311 -3.25689 -1.3274 0
M  V30 2457 H 260.185 -2.44089 -2.87577 0
M  V30 2458 H 262.572 -1.50907 -2.53597 0
M  V30 2459 H 262.653 -2.36003 -0.98673 0
M  V30 2460 H 262.297 -4.57334 -2.20925 0
M  V30 2461 H 262.227 -3.69141 -3.75556 0
M  V30 2462 H 264.718 -2.92171 -2.39676 0
M  V30 2463 H 265.031 -6.35184 -4.40183 0
M  V30 2464 H 263.376 -5.70842 -3.96439 0
M  V30 2465 H 266.567 -3.67194 -2.90321 0
M  V30 2466 H 266.74 -5.23597 -3.81772 0
M  V30 2467 N 260.146 1.09593 -1.13257 0
M  V30 2468 C 261.076 2.18214 -0.830946 0
M  V30 2469 C 262.057 1.68812 0.208966 0
M  V30 2470 O 263.242 1.9408 0.0682666 0
M  V30 2471 C 260.372 3.46051 -0.294296 0
M  V30 2472 C 259.326 4.08778 -1.26826 0
M  V30 2473 C 258.652 5.31419 -0.591449 0
M  V30 2474 C 259.952 4.51476 -2.62615 0
M  V30 2475 H 261.646 2.43703 -1.73923 0
M  V30 2476 H 259.192 1.17128 -0.837675 0
M  V30 2477 H 261.145 4.2134 -0.0709606 0
M  V30 2478 H 259.869 3.20079 0.649366 0
M  V30 2479 H 258.528 3.35505 -1.47756 0
M  V30 2480 H 258.176 5.01727 0.357633 0
M  V30 2481 H 257.876 5.74341 -1.24123 0
M  V30 2482 H 259.4 6.09433 -0.377355 0
M  V30 2483 H 260.814 5.17999 -2.45663 0
M  V30 2484 H 259.211 5.05277 -3.23752 0
M  V30 2485 H 260.281 3.63962 -3.20406 0
M  V30 2486 N 261.624 0.925811 1.2754 0
M  V30 2487 C 262.587 0.428129 2.25166 0
M  V30 2488 C 263.587 -0.452261 1.54309 0
M  V30 2489 O 264.777 -0.253608 1.72344 0
M  V30 2490 C 261.909 -0.384749 3.38722 0
M  V30 2491 H 263.102 1.29066 2.70706 0
M  V30 2492 H 260.655 0.706323 1.3943 0
M  V30 2493 H 261.39 -1.26618 2.98561 0
M  V30 2494 H 261.175 0.246454 3.91325 0
M  V30 2495 H 262.665 -0.723389 4.11287 0
M  V30 2496 N 263.102 -1.41638 0.69111 0
M  V30 2497 C 264.032 -2.3347 0.037248 0
M  V30 2498 C 265.013 -1.51575 -0.771947 0
M  V30 2499 O 266.198 -1.80126 -0.72582 0
M  V30 2500 C 263.328 -3.35354 -0.903064 0
M  V30 2501 C 262.282 -4.27526 -0.201288 0
M  V30 2502 C 261.608 -5.19747 -1.25565 0
M  V30 2503 C 262.908 -5.13959 0.929689 0
M  V30 2504 H 264.602 -2.88397 0.804227 0
M  V30 2505 H 262.148 -1.38669 0.388189 0
M  V30 2506 H 264.101 -3.98519 -1.36969 0
M  V30 2507 H 262.825 -2.78767 -1.70166 0
M  V30 2508 H 261.484 -3.65779 0.245265 0
M  V30 2509 H 261.132 -4.59479 -2.04666 0
M  V30 2510 H 260.832 -5.8225 -0.791128 0
M  V30 2511 H 262.356 -5.85789 -1.72288 0
M  V30 2512 H 263.77 -5.70718 0.543546 0
M  V30 2513 H 262.167 -5.85379 1.32103 0
M  V30 2514 H 263.237 -4.51389 1.77133 0
M  V30 2515 N 264.58 -0.43555 -1.51462 0
M  V30 2516 C 265.857 0.191364 -1.94662 0
M  V30 2517 C 266.237 1.60254 -1.37411 0
M  V30 2518 O 265.585 2.2152 -0.560458 0
M  V30 2519 C 265.795 0.17091 -3.48581 0
M  V30 2520 C 267.143 0.377357 -4.2292 0
M  V30 2521 O 268.167 0.249104 -3.55328 0
M  V30 2522 O 267.026 0.63247 -5.42828 0
M  V30 2523 H 264.12 0.130932 -0.816569 0
M  V30 2524 H 266.666 -0.4934 -1.62369 0
M  V30 2525 H 265.438 -0.815738 -3.82703 0
M  V30 2526 H 265.061 0.898659 -3.87311 0
M  V30 2527 N 266.058 1.56714 -0.166846 0
M  V30 2528 C 267.288 2.00828 0.48494 0
M  V30 2529 C 267.696 1.04612 1.57648 0
M  V30 2530 O 267.039 0.0383201 1.8366 0
M  V30 2531 C 267.101 3.4137 1.12723 0
M  V30 2532 C 266.765 4.56654 0.177886 0
M  V30 2533 C 267.762 5.16402 -0.60207 0
M  V30 2534 C 265.447 5.02244 0.0750139 0
M  V30 2535 C 267.441 6.20167 -1.47215 0
M  V30 2536 C 265.128 6.05859 -0.798649 0
M  V30 2537 C 266.126 6.64691 -1.57082 0
M  V30 2538 O 265.814 7.66297 -2.42989 0
M  V30 2539 H 265.546 0.663587 0.128953 0
M  V30 2540 H 268.1 2.03692 -0.264365 0
M  V30 2541 H 266.33 3.35406 1.92457 0
M  V30 2542 H 268.019 3.69466 1.68076 0
M  V30 2543 H 268.785 4.82065 -0.53274 0
M  V30 2544 H 264.664 4.56167 0.665812 0
M  V30 2545 H 268.208 6.66016 -2.07531 0
M  V30 2546 H 264.105 6.39621 -0.869199 0
M  V30 2547 H 264.873 7.83601 -2.36455 0
M  V30 2548 N 267.536 -0.106894 1.57237 0
M  V30 2549 C 268.785 -0.811163 1.8467 0
M  V30 2550 C 269.098 -1.80469 0.754342 0
M  V30 2551 O 270.304 -2.55601 0.915439 0
M  V30 2552 C 268.76 -1.49337 3.27454 0
M  V30 2553 C 268.368 -0.540217 4.44731 0
M  V30 2554 C 270.112 -2.18206 3.64124 0
M  V30 2555 C 268.019 -1.22634 5.78545 0
M  V30 2556 H 266.949 -0.306679 0.688813 0
M  V30 2557 H 269.6 -0.0639887 1.83388 0
M  V30 2558 H 267.982 -2.2876 3.23241 0
M  V30 2559 H 269.156 0.221659 4.60267 0
M  V30 2560 H 267.471 0.042146 4.16379 0
M  V30 2561 H 270.068 -2.70253 4.61376 0
M  V30 2562 H 270.411 -2.96562 2.92158 0
M  V30 2563 H 270.944 -1.45658 3.70174 0
M  V30 2564 H 267.683 -0.483832 6.53712 0
M  V30 2565 H 267.203 -1.95993 5.66874 0
M  V30 2566 H 268.882 -1.75615 6.2271 0
M  V30 2567 N 269.014 -1.53014 -0.377408 0
M  V30 2568 C 270.26 -1.68872 -1.12294 0
M  V30 2569 C 270.593 -0.433224 -1.89306 0
M  V30 2570 O 269.868 0.569258 -1.85983 0
M  V30 2571 C 270.151 -2.93115 -2.09179 0
M  V30 2572 C 270.004 -4.28794 -1.35853 0
M  V30 2573 C 271.323 -3.12928 -3.09458 0
M  V30 2574 H 268.442 -0.614518 -0.406862 0
M  V30 2575 H 271.084 -1.85633 -0.40503 0
M  V30 2576 H 269.234 -2.78956 -2.70399 0
M  V30 2577 H 270.906 -4.54742 -0.775082 0
M  V30 2578 H 269.149 -4.28744 -0.660364 0
M  V30 2579 H 269.82 -5.11837 -2.06706 0
M  V30 2580 H 272.296 -3.26194 -2.58334 0
M  V30 2581 H 271.172 -4.01316 -3.74482 0
M  V30 2582 H 271.433 -2.27669 -3.78971 0
M  V30 2583 N 270.492 0.636531 -1.44174 0
M  V30 2584 C 271.903 1.21806 -1.41493 0
M  V30 2585 C 272.254 1.95785 -0.1275 0
M  V30 2586 O 271.379 2.02147 0.772376 0
M  V30 2587 C 271.974 2.21551 -2.56321 0
M  V30 2588 C 270.533 2.75143 -2.56853 0
M  V30 2589 C 269.68 1.50052 -2.33195 0
M  V30 2590 H 272.631 0.427531 -1.52833 0
M  V30 2591 H 272.652 3.0405 -2.28765 0
M  V30 2592 H 272.164 1.67679 -3.50008 0
M  V30 2593 H 270.265 3.33033 -1.67093 0
M  V30 2594 H 270.378 3.2155 -3.55165 0
M  V30 2595 H 268.742 1.77993 -1.82183 0
M  V30 2596 H 269.525 0.980903 -3.28988 0
M  V30 2597 N 271.97 1.30982 0.876444 0
M  V30 2598 C 273.21 1.21589 1.64303 0
M  V30 2599 C 273.574 -0.223962 1.90689 0
M  V30 2600 O 274.775 -0.44128 2.65153 0
M  V30 2601 C 273.046 2.03007 2.94148 0
M  V30 2602 S 274.605 2.10405 3.85065 0
M  V30 2603 H 271.423 0.433161 0.563819 0
M  V30 2604 H 274.025 1.65565 1.03964 0
M  V30 2605 H 272.729 3.06719 2.72675 0
M  V30 2606 H 272.26 1.59725 3.59515 0
M  V30 2607 H 274.275 1.23765 4.80517 0
M  V30 2608 N 273.449 -1.08991 1.13837 0
M  V30 2609 C 274.382 -2.15049 0.763477 0
M  V30 2610 C 275.36 -1.60629 -0.252398 0
M  V30 2611 O 276.544 -1.87958 -0.142853 0
M  V30 2612 C 273.671 -3.38441 0.132545 0
M  V30 2613 C 272.717 -4.11596 1.11763 0
M  V30 2614 S 273.55 -4.6521 2.65216 0
M  V30 2615 C 274.706 -5.91896 2.03495 0
M  V30 2616 H 274.939 -2.46518 1.66182 0
M  V30 2617 H 272.472 -1.21008 0.958976 0
M  V30 2618 H 274.43 -4.09883 -0.225074 0
M  V30 2619 H 273.091 -3.05182 -0.743135 0
M  V30 2620 H 272.284 -5.00121 0.624076 0
M  V30 2621 H 271.886 -3.46038 1.41894 0
M  V30 2622 H 274.178 -6.63156 1.38675 0
M  V30 2623 H 275.121 -6.45938 2.9012 0
M  V30 2624 H 275.529 -5.44625 1.48471 0
M  V30 2625 N 274.927 -0.932562 -1.27047 0
M  V30 2626 C 276.343 -0.633544 -1.46487 0
M  V30 2627 C 276.543 0.815746 -1.84249 0
M  V30 2628 O 275.599 1.59319 -1.95892 0
M  V30 2629 C 276.912 -1.58758 -2.55375 0
M  V30 2630 C 278.46 -1.59634 -2.69232 0
M  V30 2631 C 278.935 -2.53747 -3.81283 0
M  V30 2632 N 280.426 -2.51982 -3.88664 0
M  V30 2633 C 281.161 -3.21491 -4.74796 0
M  V30 2634 N 280.657 -4.00395 -5.65381 0
M  V30 2635 N 282.45 -3.10485 -4.68568 0
M  V30 2636 H 274.601 -1.86946 -1.00821 0
M  V30 2637 H 276.864 -0.802897 -0.504044 0
M  V30 2638 H 276.57 -2.62172 -2.34432 0
M  V30 2639 H 276.444 -1.33301 -3.52861 0
M  V30 2640 H 278.831 -0.569488 -2.89553 0
M  V30 2641 H 278.912 -1.89142 -1.72218 0
M  V30 2642 H 278.556 -3.56545 -3.61715 0
M  V30 2643 H 278.486 -2.21532 -4.77735 0
M  V30 2644 H 280.977 -1.94681 -3.23895 0
M  V30 2645 H 281.29 -4.50406 -6.27976 0
M  V30 2646 H 279.635 -4.04498 -5.65161 0
M  V30 2647 H 282.826 -2.48331 -3.96799 0
M  V30 2648 H 282.999 -3.64925 -5.35475 0
M  V30 2649 N 276.405 1.4127 -0.698611 0
M  V30 2650 C 277.635 2.05205 -0.239644 0
M  V30 2651 C 278.043 1.52684 1.11733 0
M  V30 2652 O 277.386 0.671222 1.70998 0
M  V30 2653 C 277.448 3.59289 -0.123126 0
M  V30 2654 C 277.112 4.34619 -1.41263 0
M  V30 2655 C 278.109 4.63701 -2.35111 0
M  V30 2656 C 275.794 4.73837 -1.66684 0
M  V30 2657 C 277.788 5.30966 -3.52639 0
M  V30 2658 C 275.475 5.40837 -2.84498 0
M  V30 2659 C 276.473 5.69329 -3.77298 0
M  V30 2660 O 276.161 6.34949 -4.93047 0
M  V30 2661 H 275.893 0.66723 -0.108537 0
M  V30 2662 H 278.447 1.81974 -0.952602 0
M  V30 2663 H 276.677 3.81272 0.645628 0
M  V30 2664 H 278.366 4.04797 0.299056 0
M  V30 2665 H 279.132 4.33882 -2.16729 0
M  V30 2666 H 275.011 4.51039 -0.953135 0
M  V30 2667 H 278.555 5.53121 -4.25091 0
M  V30 2668 H 274.452 5.70075 -3.02795 0
M  V30 2669 H 275.22 6.53445 -4.92902 0
M  V30 2670 N 277.883 0.443576 1.51229 0
M  V30 2671 C 279.113 -0.119117 2.06256 0
M  V30 2672 C 279.521 -1.36471 1.31043 0
M  V30 2673 O 278.864 -1.80034 0.365151 0
M  V30 2674 C 278.926 -0.500546 3.55998 0
M  V30 2675 C 278.59 0.639125 4.52509 0
M  V30 2676 C 279.587 1.51311 4.97394 0
M  V30 2677 C 277.272 0.821632 4.95535 0
M  V30 2678 C 279.266 2.55425 5.83984 0
M  V30 2679 C 276.953 1.86603 5.81913 0
M  V30 2680 C 277.951 2.73072 6.26036 0
M  V30 2681 O 277.639 3.75718 7.10698 0
M  V30 2682 H 277.371 -0.00857665 0.675946 0
M  V30 2683 H 279.925 0.623288 1.95715 0
M  V30 2684 H 278.155 -1.29575 3.64345 0
M  V30 2685 H 279.844 -0.995116 3.93513 0
M  V30 2686 H 280.61 1.38367 4.64844 0
M  V30 2687 H 276.489 0.158149 4.60729 0
M  V30 2688 H 280.033 3.22949 6.18344 0
M  V30 2689 H 275.93 1.99564 6.13876 0
M  V30 2690 H 276.698 3.72374 7.2889 0
M  V30 2691 N 279.361 -1.56624 0.175154 0
M  V30 2692 C 280.609 -1.96609 -0.467885 0
M  V30 2693 C 280.93 -1.06238 -1.63519 0
M  V30 2694 O 280.2 -0.129523 -1.95471 0
M  V30 2695 H 278.78 -0.726008 -0.175845 0
M  V30 2696 H 281.442 -1.93195 0.257234 0
M  V30 2697 H 280.538 -3.00989 -0.825342 0
M  V30 2698 N 280.839 0.0985539 -1.57292 0
M  V30 2699 C 282.088 0.801358 -1.85098 0
M  V30 2700 C 282.401 1.80066 -0.763902 0
M  V30 2701 O 283.607 2.55112 -0.928981 0
M  V30 2702 C 282.063 1.47599 -3.28242 0
M  V30 2703 C 281.671 0.516624 -4.45011 0
M  V30 2704 C 283.415 2.16272 -3.65276 0
M  V30 2705 C 281.322 1.19564 -5.79188 0
M  V30 2706 H 280.252 0.303022 -0.69043 0
M  V30 2707 H 282.903 0.0542623 -1.8342 0
M  V30 2708 H 281.285 2.27042 -3.2445 0
M  V30 2709 H 282.459 -0.246065 -4.60143 0
M  V30 2710 H 280.774 -0.064227 -4.1635 0
M  V30 2711 H 283.371 2.67802 -4.62803 0
M  V30 2712 H 283.714 2.95009 -2.93727 0
M  V30 2713 H 284.247 1.43693 -3.70941 0
M  V30 2714 H 280.986 0.449157 -6.53959 0
M  V30 2715 H 280.506 1.92984 -5.67906 0
M  V30 2716 H 282.185 1.7231 -6.23633 0
M  V30 2717 N 282.317 1.53212 0.369288 0
M  V30 2718 C 283.557 1.70915 1.12105 0
M  V30 2719 C 283.921 0.449444 1.86665 0
M  V30 2720 O 285.122 0.503105 2.6405 0
M  V30 2721 C 283.393 2.9222 2.05772 0
M  V30 2722 S 284.952 3.30609 2.88519 0
M  V30 2723 H 281.77 0.601445 0.379189 0
M  V30 2724 H 284.372 1.91306 0.402794 0
M  V30 2725 H 283.076 3.82103 1.49752 0
M  V30 2726 H 282.607 2.7422 2.82076 0
M  V30 2727 H 284.622 2.82333 4.08047 0
M  V30 2728 N 283.795 -0.628877 1.44509 0
M  V30 2729 C 285.041 -1.39045 1.47629 0
M  V30 2730 C 285.374 -1.93892 0.109343 0
M  V30 2731 O 284.649 -1.7379 -0.87334 0
M  V30 2732 C 284.932 -2.55408 2.53848 0
M  V30 2733 C 284.785 -2.05896 3.99909 0
M  V30 2734 C 286.104 -3.5759 2.56549 0
M  V30 2735 H 283.223 -0.504232 0.537512 0
M  V30 2736 H 285.865 -0.710854 1.76201 0
M  V30 2737 H 284.015 -3.13384 2.29615 0
M  V30 2738 H 285.687 -1.52734 4.35282 0
M  V30 2739 H 283.93 -1.37061 4.11578 0
M  V30 2740 H 284.601 -2.89681 4.69882 0
M  V30 2741 H 287.077 -3.09419 2.78207 0
M  V30 2742 H 285.953 -4.36527 3.32769 0
M  V30 2743 H 286.214 -4.11808 1.60832 0
M  V30 2744 N 285.273 -1.31445 -0.869486 0
M  V30 2745 C 286.22 -1.19135 -1.97675 0
M  V30 2746 C 287.19 -0.0770266 -1.65921 0
M  V30 2747 O 288.375 -0.249972 -1.89155 0
M  V30 2748 C 285.515 -0.905149 -3.33018 0
M  V30 2749 C 284.628 -2.10285 -3.77365 0
M  V30 2750 C 283.763 -1.75339 -5.01427 0
M  V30 2751 C 282.802 -2.91515 -5.38224 0
M  V30 2752 N 281.939 -2.56762 -6.53466 0
M  V30 2753 H 286.779 -2.13853 -2.07535 0
M  V30 2754 H 284.316 -1.06379 -1.01597 0
M  V30 2755 H 286.274 -0.719765 -4.10944 0
M  V30 2756 H 284.904 0.00519624 -3.228 0
M  V30 2757 H 283.956 -2.39899 -2.95216 0
M  V30 2758 H 285.268 -2.97237 -4.00564 0
M  V30 2759 H 284.422 -1.53266 -5.87022 0
M  V30 2760 H 283.161 -0.855801 -4.80133 0
M  V30 2761 H 282.166 -3.14237 -4.51149 0
M  V30 2762 H 283.391 -3.81985 -5.61484 0
M  V30 2763 H 281.337 -1.69526 -6.33717 0
M  V30 2764 H 281.254 -3.37243 -6.76612 0
M  V30 2765 H 282.522 -2.38083 -7.42251 0
M  V30 2766 N 286.751 1.08385 -1.14413 0
M  V30 2767 C 288.028 1.77429 -0.823297 0
M  V30 2768 C 288.408 1.9974 0.683163 0
M  V30 2769 O 287.756 1.60739 1.62405 0
M  V30 2770 C 287.966 3.09004 -1.62227 0
M  V30 2771 C 289.314 3.83532 -1.82177 0
M  V30 2772 O 290.338 3.18786 -1.58915 0
M  V30 2773 O 289.197 4.99792 -2.21067 0
M  V30 2774 H 286.291 0.769999 -0.301712 0
M  V30 2775 H 288.837 1.14846 -1.24934 0
M  V30 2776 H 287.609 2.88316 -2.64555 0
M  V30 2777 H 287.232 3.79316 -1.19187 0
M  V30 2778 N 288.23 0.939286 1.26551 0
M  V30 2779 C 289.455 0.602008 1.98471 0
M  V30 2780 C 289.88 -0.815624 1.69497 0
M  V30 2781 O 289.238 -1.54912 0.941905 0
M  V30 2782 C 289.286 0.848407 3.50477 0
M  V30 2783 O 288.39 -0.0804009 4.12322 0
M  V30 2784 H 287.731 0.23049 0.622712 0
M  V30 2785 H 290.261 1.2617 1.61066 0
M  V30 2786 H 290.271 0.768553 4.00696 0
M  V30 2787 H 288.946 1.88171 3.70897 0
M  V30 2788 H 287.523 0.0503508 3.72866 0
M  V30 2789 N 289.708 -1.40897 0.706093 0
M  V30 2790 C 290.955 -2.01054 0.241531 0
M  V30 2791 C 291.283 -1.55956 -1.16223 0
M  V30 2792 O 290.538 -0.766336 -1.80072 0
M  V30 2793 C 290.837 -3.5646 0.259099 0
M  V30 2794 C 290.503 -4.21106 1.61184 0
M  V30 2795 C 289.165 -4.38479 1.98216 0
M  V30 2796 C 291.517 -4.57256 2.50132 0
M  V30 2797 C 288.845 -4.89282 3.2376 0
M  V30 2798 C 291.197 -5.09454 3.7502 0
M  V30 2799 C 289.861 -5.25037 4.12181 0
M  V30 2800 H 289.131 -0.73571 0.0883825 0
M  V30 2801 H 291.778 -1.68645 0.907257 0
M  V30 2802 H 290.083 -3.88721 -0.490189 0
M  V30 2803 H 291.78 -4.00826 -0.11804 0
M  V30 2804 H 288.37 -4.07966 1.31384 0
M  V30 2805 H 292.554 -4.43479 2.228 0
M  V30 2806 H 287.81 -4.99531 3.52532 0
M  V30 2807 H 291.984 -5.36404 4.44121 0
M  V30 2808 H 289.611 -5.64164 5.09532 0
M  V30 2809 N 291.186 -0.45159 -1.50991 0
M  V30 2810 C 292.116 0.342898 -2.30969 0
M  V30 2811 C 293.097 1.00815 -1.37005 0
M  V30 2812 O 294.282 1.00907 -1.65926 0
M  V30 2813 C 291.412 1.43637 -3.16205 0
M  V30 2814 C 290.366 0.893818 -4.18563 0
M  V30 2815 C 289.692 2.08411 -4.92411 0
M  V30 2816 C 290.992 -0.0815568 -5.22236 0
M  V30 2817 H 292.686 -0.324556 -2.97636 0
M  V30 2818 H 290.232 -0.157531 -1.43136 0
M  V30 2819 H 292.185 1.9995 -3.70942 0
M  V30 2820 H 290.909 2.13232 -2.47386 0
M  V30 2821 H 289.568 0.352798 -3.64898 0
M  V30 2822 H 289.216 2.76658 -4.20082 0
M  V30 2823 H 288.916 1.72741 -5.61636 0
M  V30 2824 H 290.44 2.65251 -5.49976 0
M  V30 2825 H 291.854 0.391742 -5.7196 0
M  V30 2826 H 290.251 -0.351551 -5.99069 0
M  V30 2827 H 291.321 -1.01374 -4.74185 0
M  V30 2828 N 292.664 1.56529 -0.183458 0
M  V30 2829 C 293.912 1.96855 0.457452 0
M  V30 2830 C 294.233 1.07104 1.62953 0
M  V30 2831 O 293.503 0.139887 1.954 0
M  V30 2832 H 292.083 0.72693 0.171992 0
M  V30 2833 H 294.745 1.93056 -0.267476 0
M  V30 2834 H 293.841 3.01423 0.809368 0
M  V30 2835 N 294.142 -0.090211 1.57342 0
M  V30 2836 C 295.105 -1.09335 2.01441 0
M  V30 2837 C 296.105 -1.32666 0.908641 0
M  V30 2838 O 297.295 -1.28697 1.174 0
M  V30 2839 C 294.427 -2.44136 2.3793 0
M  V30 2840 H 295.62 -0.713662 2.91285 0
M  V30 2841 H 293.173 -0.335404 1.52659 0
M  V30 2842 H 293.908 -2.86972 1.51055 0
M  V30 2843 H 293.693 -2.28548 3.18603 0
M  V30 2844 H 295.183 -3.16277 2.72688 0
M  V30 2845 N 295.62 -1.53406 -0.361157 0
M  V30 2846 C 296.583 -1.79479 -1.42548 0
M  V30 2847 C 297.583 -0.665327 -1.4639 0
M  V30 2848 O 298.773 -0.933549 -1.47073 0
M  V30 2849 C 295.905 -1.92087 -2.8163 0
M  V30 2850 H 297.098 -2.74538 -1.20701 0
M  V30 2851 H 294.651 -1.4455 -0.594546 0
M  V30 2852 H 295.386 -0.991099 -3.08784 0
M  V30 2853 H 295.171 -2.74241 -2.80239 0
M  V30 2854 H 296.661 -2.13836 -3.58697 0
M  V30 2855 N 297.098 0.621204 -1.44841 0
M  V30 2856 C 298.028 1.74366 -1.55303 0
M  V30 2857 C 299.009 1.65199 -0.405385 0
M  V30 2858 O 300.194 1.83807 -0.626787 0
M  V30 2859 C 297.324 3.12931 -1.50637 0
M  V30 2860 C 296.278 3.36896 -2.63979 0
M  V30 2861 C 295.604 4.75594 -2.44366 0
M  V30 2862 C 296.904 3.28483 -4.06074 0
M  V30 2863 H 298.598 1.65867 -2.49256 0
M  V30 2864 H 296.144 0.796558 -1.19962 0
M  V30 2865 H 298.097 3.9124 -1.56555 0
M  V30 2866 H 296.821 3.22237 -0.532057 0
M  V30 2867 H 295.48 2.60972 -2.57467 0
M  V30 2868 H 295.128 4.81616 -1.45105 0
M  V30 2869 H 294.828 4.92586 -3.20364 0
M  V30 2870 H 296.352 5.5612 -2.52117 0
M  V30 2871 H 297.766 3.96684 -4.13902 0
M  V30 2872 H 296.163 3.57008 -4.82354 0
M  V30 2873 H 297.233 2.26133 -4.28943 0
M  V30 2874 N 298.576 1.31904 0.862503 0
M  V30 2875 C 299.824 1.21776 1.61292 0
M  V30 2876 C 300.145 -0.222413 1.93727 0
M  V30 2877 O 299.415 -1.1451 1.58947 0
M  V30 2878 H 297.995 0.447717 0.597962 0
M  V30 2879 H 300.657 1.65326 1.03215 0
M  V30 2880 H 299.753 1.7948 2.5533 0
M  V30 2881 N 300.054 -1.07777 1.14986 0
M  V30 2882 C 301.302 -1.79934 0.920235 0
M  V30 2883 C 301.623 -1.86955 -0.554336 0
M  V30 2884 O 300.893 -1.36731 -1.40291 0
M  V30 2885 H 299.473 -0.666424 0.337473 0
M  V30 2886 H 302.135 -1.3027 1.44968 0
M  V30 2887 H 301.231 -2.82539 1.32583 0
M  V30 2888 N 301.532 -0.945985 -1.26051 0
M  V30 2889 C 302.948 -0.649045 -1.45807 0
M  V30 2890 C 303.148 0.796158 -1.85104 0
M  V30 2891 O 302.204 1.57233 -1.97571 0
M  V30 2892 C 303.517 -1.61458 -2.53677 0
M  V30 2893 C 305.065 -1.62481 -2.67524 0
M  V30 2894 C 305.54 -2.57776 -3.7857 0
M  V30 2895 N 307.031 -2.5609 -3.85969 0
M  V30 2896 C 307.766 -3.26508 -4.7136 0
M  V30 2897 N 307.262 -4.0637 -5.61102 0
M  V30 2898 N 309.055 -3.15437 -4.65248 0
M  V30 2899 H 301.206 -1.88005 -0.988328 0
M  V30 2900 H 303.469 -0.808198 -0.4955 0
M  V30 2901 H 303.175 -2.64644 -2.31638 0
M  V30 2902 H 303.049 -1.37036 -3.51427 0
M  V30 2903 H 305.436 -0.600167 -2.88933 0
M  V30 2904 H 305.517 -1.90958 -1.70202 0
M  V30 2905 H 305.161 -3.60361 -3.57913 0
M  V30 2906 H 305.091 -2.26587 -4.75359 0
M  V30 2907 H 307.582 -1.98105 -3.21812 0
M  V30 2908 H 307.895 -4.57042 -6.23164 0
M  V30 2909 H 306.24 -4.10469 -5.60839 0
M  V30 2910 H 309.431 -2.52525 -3.94143 0
M  V30 2911 H 309.604 -3.70584 -5.31575 0
M  V30 2912 N 303.011 1.40521 -0.713556 0
M  V30 2913 C 304.257 2.01221 -0.252564 0
M  V30 2914 C 304.59 1.56444 1.1506 0
M  V30 2915 O 303.865 0.783597 1.78017 0
M  V30 2916 C 304.148 3.58582 -0.330332 0
M  V30 2917 C 304.001 4.13437 -1.77173 0
M  V30 2918 C 305.32 4.39079 0.299641 0
M  V30 2919 H 302.439 0.731077 -0.0932471 0
M  V30 2920 H 305.081 1.67026 -0.905673 0
M  V30 2921 H 303.231 3.87844 0.225737 0
M  V30 2922 H 304.903 3.9498 -2.38303 0
M  V30 2923 H 303.146 3.67801 -2.3001 0
M  V30 2924 H 303.817 5.22597 -1.77755 0
M  V30 2925 H 306.293 4.15735 -0.174139 0
M  V30 2926 H 305.169 5.4848 0.214771 0
M  V30 2927 H 305.43 4.19915 1.38288 0
M  V30 2928 N 304.489 0.459591 1.5075 0
M  V30 2929 C 305.419 -0.330644 2.31147 0
M  V30 2930 C 306.4 -1.00087 1.37538 0
M  V30 2931 O 307.585 -1.00025 1.66459 0
M  V30 2932 C 304.715 -1.41958 3.16962 0
M  V30 2933 C 303.669 -0.871608 4.19031 0
M  V30 2934 C 302.995 -2.05797 4.9351 0
M  V30 2935 C 304.295 0.109251 5.22186 0
M  V30 2936 H 305.989 0.340336 2.97459 0
M  V30 2937 H 303.535 0.165119 1.4305 0
M  V30 2938 H 305.488 -1.9798 3.71997 0
M  V30 2939 H 304.212 -2.11917 2.48513 0
M  V30 2940 H 302.871 -0.333442 3.6508 0
M  V30 2941 H 302.519 -2.74427 4.21544 0
M  V30 2942 H 302.219 -1.6976 5.62544 0
M  V30 2943 H 303.743 -2.62331 5.51375 0
M  V30 2944 H 305.157 -0.361405 5.7216 0
M  V30 2945 H 303.554 0.383316 5.98875 0
M  V30 2946 H 304.624 1.03887 4.73641 0
M  V30 2947 N 305.967 -1.56429 0.191757 0
M  V30 2948 C 306.93 -2.17707 -0.716688 0
M  V30 2949 C 307.93 -1.13061 -1.14341 0
M  V30 2950 O 309.12 -1.38464 -1.05704 0
M  V30 2951 C 306.252 -2.77644 -1.97804 0
M  V30 2952 H 307.445 -2.99342 -0.1829 0
M  V30 2953 H 304.998 -1.56193 -0.0578566 0
M  V30 2954 H 305.733 -1.99799 -2.55443 0
M  V30 2955 H 305.518 -3.54246 -1.68083 0
M  V30 2956 H 307.008 -3.24708 -2.62592 0
M  V30 2957 N 307.445 0.0818655 -1.57387 0
M  V30 2958 C 308.355 1.11642 -2.06333 0
M  V30 2959 C 309.371 1.43033 -0.99083 0
M  V30 2960 O 310.547 1.53411 -1.30488 0
M  V30 2961 C 307.612 2.41342 -2.48907 0
M  V30 2962 C 306.673 2.17014 -3.7041 0
M  V30 2963 C 305.906 3.4053 -4.10944 0
M  V30 2964 O 306.129 4.4927 -3.51444 0
M  V30 2965 O 305.063 3.29336 -5.03807 0
M  V30 2966 H 308.889 0.730657 -2.9478 0
M  V30 2967 H 306.474 0.295301 -1.46452 0
M  V30 2968 H 308.356 3.17691 -2.76858 0
M  V30 2969 H 307.031 2.79319 -1.63593 0
M  V30 2970 H 305.938 1.38403 -3.47556 0
M  V30 2971 H 307.271 1.83923 -4.56545 0
M  V30 2972 N 308.923 1.53595 0.353017 0
M  V30 2973 C 310.169 1.70638 1.09593 0
M  V30 2974 C 310.502 0.463286 1.88593 0
M  V30 2975 O 309.777 -0.539597 1.86865 0
M  V30 2976 C 310.06 2.96406 2.04489 0
M  V30 2977 C 309.913 4.30901 1.29014 0
M  V30 2978 C 311.232 3.17812 3.0444 0
M  V30 2979 H 308.351 0.620913 0.397034 0
M  V30 2980 H 310.993 1.86254 0.375446 0
M  V30 2981 H 309.143 2.83223 2.65927 0
M  V30 2982 H 310.815 4.55917 0.702638 0
M  V30 2983 H 309.058 4.29741 0.592071 0
M  V30 2984 H 309.729 5.1506 1.98537 0
M  V30 2985 H 312.205 3.30263 2.53112 0
M  V30 2986 H 311.081 4.07223 3.6805 0
M  V30 2987 H 311.342 2.33669 3.75301 0
M  V30 2988 N 310.401 -0.613514 1.45168 0
M  V30 2989 C 311.311 -1.75296 1.55912 0
M  V30 2990 C 312.327 -1.68244 0.443856 0
M  V30 2991 O 313.503 -1.88706 0.70371 0
M  V30 2992 C 310.568 -3.1174 1.5172 0
M  V30 2993 C 309.629 -3.30291 2.74238 0
M  V30 2994 C 308.862 -4.60226 2.70236 0
M  V30 2995 O 309.085 -5.42168 1.77229 0
M  V30 2996 O 308.019 -4.81361 3.61352 0
M  V30 2997 H 311.845 -1.69183 2.52212 0
M  V30 2998 H 309.43 -0.776886 1.27612 0
M  V30 2999 H 311.312 -3.93044 1.51968 0
M  V30 3000 H 309.987 -3.18357 0.585697 0
M  V30 3001 H 308.894 -2.48598 2.79553 0
M  V30 3002 H 310.227 -3.28547 3.66494 0
M  V30 3003 N 311.879 -1.3236 -0.855495 0
M  V30 3004 C 312.842 -1.21164 -1.94556 0
M  V30 3005 C 313.842 -0.134908 -1.60233 0
M  V30 3006 O 315.032 -0.385249 -1.69887 0
M  V30 3007 C 312.164 -0.863192 -3.29791 0
M  V30 3008 H 313.357 -2.18038 -2.05911 0
M  V30 3009 H 310.91 -1.16179 -1.04557 0
M  V30 3010 H 311.645 0.103769 -3.24134 0
M  V30 3011 H 311.43 -1.64166 -3.56078 0
M  V30 3012 H 312.92 -0.809156 -4.09686 0
M  V30 3013 N 313.357 1.07166 -1.15556 0
M  V30 3014 C 314.287 2.16403 -0.877046 0
M  V30 3015 C 315.268 1.69217 0.173111 0
M  V30 3016 O 316.453 1.94181 0.027084 0
M  V30 3017 C 313.583 3.45349 -0.367632 0
M  V30 3018 C 312.537 4.05995 -1.35468 0
M  V30 3019 C 311.863 5.30045 -0.704038 0
M  V30 3020 C 313.163 4.45804 -2.72132 0
M  V30 3021 H 314.857 2.39959 -1.79053 0
M  V30 3022 H 312.403 1.15325 -0.862331 0
M  V30 3023 H 314.356 4.21095 -0.160317 0
M  V30 3024 H 313.08 3.21385 0.581326 0
M  V30 3025 H 311.739 3.32296 -1.54839 0
M  V30 3026 H 311.387 5.02373 0.251128 0
M  V30 3027 H 311.087 5.71579 -1.36277 0
M  V30 3028 H 312.611 6.08495 -0.50654 0
M  V30 3029 H 314.025 5.12671 -2.56595 0
M  V30 3030 H 312.422 4.98296 -3.34397 0
M  V30 3031 H 313.492 3.57083 -3.28054 0
M  V30 3032 N 314.835 0.952656 1.25548 0
M  V30 3033 C 315.782 0.47008 2.25962 0
M  V30 3034 C 316.752 -0.476384 1.59122 0
M  V30 3035 O 317.937 -0.39007 1.8677 0
M  V30 3036 C 315.077 -0.247881 3.44209 0
M  V30 3037 C 314.19 0.735591 4.25691 0
M  V30 3038 C 313.325 -0.0047306 5.312 0
M  V30 3039 C 312.364 0.969805 6.04368 0
M  V30 3040 N 311.501 0.260486 7.01617 0
M  V30 3041 H 316.341 1.33126 2.66611 0
M  V30 3042 H 313.878 0.66765 1.31076 0
M  V30 3043 H 315.836 -0.680695 4.1161 0
M  V30 3044 H 314.466 -1.07312 3.0444 0
M  V30 3045 H 313.518 1.28689 3.57971 0
M  V30 3046 H 314.83 1.47934 4.76358 0
M  V30 3047 H 313.984 -0.496275 6.04667 0
M  V30 3048 H 312.723 -0.781282 4.81401 0
M  V30 3049 H 311.728 1.47237 5.29718 0
M  V30 3050 H 312.953 1.74655 6.56256 0
M  V30 3051 H 310.899 -0.497364 6.54112 0
M  V30 3052 H 310.816 0.943362 7.50091 0
M  V30 3053 H 312.084 -0.209587 7.79218 0
M  V30 3054 N 316.313 -1.40141 0.720998 0
M  V30 3055 C 317.729 -1.54632 0.395113 0
M  V30 3056 C 317.929 -1.69115 -1.09555 0
M  V30 3057 O 316.985 -1.68377 -1.88163 0
M  V30 3058 C 318.298 -2.77177 1.1659 0
M  V30 3059 C 319.846 -2.91 1.15274 0
M  V30 3060 C 320.321 -4.16465 1.90579 0
M  V30 3061 N 321.812 -4.23476 1.87675 0
M  V30 3062 C 322.547 -5.19475 2.42762 0
M  V30 3063 N 322.043 -6.21348 3.06428 0
M  V30 3064 N 323.836 -5.11592 2.32874 0
M  V30 3065 H 315.987 -1.28986 1.68749 0
M  V30 3066 H 318.25 -0.62412 0.713567 0
M  V30 3067 H 317.956 -2.72771 2.22011 0
M  V30 3068 H 317.83 -3.69442 0.76108 0
M  V30 3069 H 320.217 -2.94907 0.106702 0
M  V30 3070 H 320.298 -1.99838 1.59682 0
M  V30 3071 H 319.942 -4.1332 2.95176 0
M  V30 3072 H 319.872 -5.06646 1.43587 0
M  V30 3073 H 322.363 -3.50497 1.41281 0
M  V30 3074 H 322.676 -6.91034 3.45965 0
M  V30 3075 H 321.021 -6.21777 3.10514 0
M  V30 3076 H 324.212 -4.30936 1.82789 0
M  V30 3077 H 324.385 -5.86233 2.76106 0
M  V30 3078 N 317.792 -0.46758 -1.50504 0
M  V30 3079 C 319.04 0.0884469 -2.01906 0
M  V30 3080 C 319.361 1.40532 -1.35188 0
M  V30 3081 O 318.631 1.89515 -0.496079 0
M  V30 3082 H 317.211 0.0356765 -0.746148 0
M  V30 3083 H 319.873 -0.6172 -1.84869 0
M  V30 3084 H 318.969 0.2425 -3.11156 0
M  V30 3085 N 319.27 1.56325 -0.20005 0
M  V30 3086 C 320.518 1.97329 0.436547 0
M  V30 3087 C 320.839 1.08826 1.61808 0
M  V30 3088 O 320.109 0.160604 1.95241 0
M  V30 3089 H 318.689 0.728714 0.164272 0
M  V30 3090 H 321.351 1.92761 -0.287937 0
M  V30 3091 H 320.447 3.02264 0.777353 0
M  V30 3092 N 320.748 -0.0735177 1.57428 0
M  V30 3093 C 322.164 -0.428264 1.53747 0
M  V30 3094 C 322.364 -1.79272 0.91998 0
M  V30 3095 O 321.42 -2.47051 0.521745 0
M  V30 3096 C 322.733 -0.370914 2.98404 0
M  V30 3097 C 324.281 -0.451224 3.0973 0
M  V30 3098 C 324.756 -0.4238 4.56035 0
M  V30 3099 N 326.247 -0.483925 4.60665 0
M  V30 3100 C 326.982 -0.484891 5.71346 0
M  V30 3101 N 326.478 -0.440775 6.91396 0
M  V30 3102 N 328.271 -0.531319 5.59583 0
M  V30 3103 H 320.422 0.819949 1.95935 0
M  V30 3104 H 322.685 0.307493 0.896745 0
M  V30 3105 H 322.391 0.564956 3.47133 0
M  V30 3106 H 322.265 -1.18176 3.5821 0
M  V30 3107 H 324.652 -1.37752 2.60976 0
M  V30 3108 H 324.733 0.388167 2.52838 0
M  V30 3109 H 324.377 0.498638 5.05446 0
M  V30 3110 H 324.307 -1.2807 5.10789 0
M  V30 3111 H 326.798 -0.522338 3.74273 0
M  V30 3112 H 327.111 -0.44539 7.71515 0
M  V30 3113 H 325.456 -0.40749 6.93804 0
M  V30 3114 H 328.647 -0.563464 4.64696 0
M  V30 3115 H 328.82 -0.528603 6.4584 0
M  V30 3116 N 322.226 -1.5378 -0.344866 0
M  V30 3117 C 323.156 -1.84662 -1.42906 0
M  V30 3118 C 324.137 -0.701648 -1.54955 0
M  V30 3119 O 325.322 -0.953438 -1.69184 0
M  V30 3120 C 322.452 -2.05503 -2.79974 0
M  V30 3121 C 321.406 -3.21318 -2.82734 0
M  V30 3122 C 320.732 -3.2749 -4.22675 0
M  V30 3123 C 322.032 -4.59456 -2.48389 0
M  V30 3124 H 323.726 -2.75461 -1.17311 0
M  V30 3125 H 321.272 -1.32542 -0.562896 0
M  V30 3126 H 323.225 -2.25691 -3.55867 0
M  V30 3127 H 321.949 -1.11434 -3.07002 0
M  V30 3128 H 320.608 -3.00984 -2.09294 0
M  V30 3129 H 320.256 -2.31019 -4.4681 0
M  V30 3130 H 319.956 -4.05316 -4.25433 0
M  V30 3131 H 321.48 -3.49887 -5.00412 0
M  V30 3132 H 322.894 -4.79667 -3.13995 0
M  V30 3133 H 321.291 -5.39675 -2.62432 0
M  V30 3134 H 322.361 -4.63155 -1.4358 0
M  V30 3135 N 323.704 0.605807 -1.45491 0
M  V30 3136 C 325.12 0.926751 -1.29936 0
M  V30 3137 C 325.32 1.99896 -0.253706 0
M  V30 3138 O 324.376 2.50038 0.351737 0
M  V30 3139 C 325.689 1.36599 -2.67883 0
M  V30 3140 C 327.237 1.4801 -2.75793 0
M  V30 3141 C 327.712 1.95309 -4.14268 0
M  V30 3142 N 329.203 2.0254 -4.16571 0
M  V30 3143 C 329.938 2.40363 -5.20589 0
M  V30 3144 N 329.434 2.77143 -6.34952 0
M  V30 3145 N 331.227 2.40718 -5.07948 0
M  V30 3146 H 323.378 -0.102862 -2.12151 0
M  V30 3147 H 325.641 0.016639 -0.947854 0
M  V30 3148 H 325.347 0.652306 -3.45598 0
M  V30 3149 H 325.221 2.33215 -2.96463 0
M  V30 3150 H 327.608 2.1847 -1.98381 0
M  V30 3151 H 327.689 0.497041 -2.50925 0
M  V30 3152 H 327.333 1.25436 -4.92167 0
M  V30 3153 H 327.263 2.94532 -4.3653 0
M  V30 3154 H 329.754 1.76699 -3.34045 0
M  V30 3155 H 330.067 3.0489 -7.10114 0
M  V30 3156 H 328.412 2.74834 -6.3835 0
M  V30 3157 H 331.603 2.11392 -4.1765 0
M  V30 3158 H 331.776 2.69869 -5.89131 0
M  V30 3159 N 325.182 1.32811 0.848464 0
M  V30 3160 C 326.459 1.14334 1.58704 0
M  V30 3161 C 326.839 -0.293948 2.09043 0
M  V30 3162 O 326.187 -1.29153 1.88499 0
M  V30 3163 C 326.397 2.17626 2.72837 0
M  V30 3164 C 327.745 2.51282 3.42261 0
M  V30 3165 O 328.769 2.16219 2.83068 0
M  V30 3166 O 327.628 3.11413 4.49093 0
M  V30 3167 H 324.722 0.441601 0.699226 0
M  V30 3168 H 327.268 1.44362 0.892053 0
M  V30 3169 H 326.04 3.14211 2.3321 0
M  V30 3170 H 325.663 1.88628 3.50008 0
M  V30 3171 N 326.66 -1.06551 1.16123 0
M  V30 3172 C 327.908 -1.78947 0.939267 0
M  V30 3173 C 328.229 -1.87532 -0.534476 0
M  V30 3174 O 327.499 -1.38211 -1.38833 0
M  V30 3175 H 326.079 -0.662807 0.344523 0
M  V30 3176 H 328.741 -1.28725 1.46342 0
M  V30 3177 H 327.837 -2.81117 1.35572 0
M  V30 3178 N 328.138 -0.959301 -1.25041 0
M  V30 3179 C 329.07 -0.440543 -2.24926 0
M  V30 3180 C 330.083 0.446131 -1.56568 0
M  V30 3181 O 331.272 0.253657 -1.76689 0
M  V30 3182 C 328.372 0.38412 -3.36716 0
M  V30 3183 C 327.545 -0.490658 -4.34639 0
M  V30 3184 C 326.604 0.276587 -5.25473 0
M  V30 3185 O 325.63 -0.326614 -5.68262 0
M  V30 3186 N 326.832 1.56844 -5.5891 0
M  V30 3187 H 329.597 -1.29931 -2.70071 0
M  V30 3188 H 327.158 -0.830181 -1.38995 0
M  V30 3189 H 329.15 0.905228 -3.94446 0
M  V30 3190 H 327.72 1.14377 -2.90924 0
M  V30 3191 H 326.94 -1.19282 -3.7572 0
M  V30 3192 H 328.228 -1.08756 -4.97041 0
M  V30 3193 H 327.626 2.08036 -5.26059 0
M  V30 3194 H 326.183 2.03541 -6.19205 0
M  V30 3195 N 329.616 1.39756 -0.72842 0
M  V30 3196 C 330.546 2.33289 -0.0991354 0
M  V30 3197 C 331.527 1.53568 0.731489 0
M  V30 3198 O 332.712 1.81987 0.677807 0
M  V30 3199 C 329.842 3.3763 0.813834 0
M  V30 3200 C 328.796 4.2791 0.0878663 0
M  V30 3201 C 328.122 5.22894 1.11741 0
M  V30 3202 C 329.422 5.11314 -1.06563 0
M  V30 3203 H 331.116 2.86163 -0.880408 0
M  V30 3204 H 328.662 1.37591 -0.424819 0
M  V30 3205 H 330.615 4.0201 1.26355 0
M  V30 3206 H 329.339 2.83181 1.62715 0
M  V30 3207 H 327.998 3.65 -0.342159 0
M  V30 3208 H 327.646 4.64744 1.92412 0
M  V30 3209 H 327.346 5.84143 0.636477 0
M  V30 3210 H 328.87 5.90151 1.56697 0
M  V30 3211 H 330.284 5.69076 -0.694671 0
M  V30 3212 H 328.681 5.81671 -1.47577 0
M  V30 3213 H 329.751 4.46534 -1.89038 0
M  V30 3214 N 331.094 0.475555 1.50254 0
M  V30 3215 C 332.34 -0.0780073 2.0265 0
M  V30 3216 C 332.673 -1.38968 1.35652 0
M  V30 3217 O 331.948 -1.8839 0.483691 0
M  V30 3218 C 332.231 -0.257161 3.59181 0
M  V30 3219 C 332.084 1.07585 4.36744 0
M  V30 3220 C 333.403 -1.00965 4.28362 0
M  V30 3221 H 330.522 -0.0268758 0.73651 0
M  V30 3222 H 333.164 0.622015 1.7953 0
M  V30 3223 H 331.314 -0.853412 3.79011 0
M  V30 3224 H 332.986 1.70902 4.28474 0
M  V30 3225 H 331.229 1.6714 4.00308 0
M  V30 3226 H 331.9 0.904088 5.44546 0
M  V30 3227 H 334.376 -0.504214 4.13034 0
M  V30 3228 H 333.252 -1.10381 5.37687 0
M  V30 3229 H 333.513 -2.04731 3.91839 0
M  V30 3230 N 332.573 -1.56217 0.208337 0
M  V30 3231 C 333.798 -2.02782 -0.435222 0
M  V30 3232 C 334.223 -1.08738 -1.53485 0
M  V30 3233 O 333.581 -0.0731855 -1.81152 0
M  V30 3234 C 333.629 -3.47687 -0.956335 0
M  V30 3235 O 332.733 -3.56773 -2.06849 0
M  V30 3236 H 332.074 -0.656403 -0.100158 0
M  V30 3237 H 334.604 -2.02033 0.3231 0
M  V30 3238 H 334.614 -3.87745 -1.26955 0
M  V30 3239 H 333.289 -4.15624 -0.15143 0
M  V30 3240 H 331.866 -3.28597 -1.76292 0
M  V30 3241 N 334.051 0.0651679 -1.57465 0
M  V30 3242 C 334.983 1.10359 -2.00882 0
M  V30 3243 C 335.996 1.346 -0.915788 0
M  V30 3244 O 337.185 1.32723 -1.1936 0
M  V30 3245 C 334.285 2.45312 -2.33828 0
M  V30 3246 C 333.458 2.40934 -3.65061 0
M  V30 3247 C 332.517 3.58047 -3.85602 0
M  V30 3248 O 331.543 3.39175 -4.57109 0
M  V30 3249 N 332.745 4.78637 -3.28462 0
M  V30 3250 H 335.51 0.733807 -2.90578 0
M  V30 3251 H 333.071 0.253719 -1.599 0
M  V30 3252 H 335.063 3.22314 -2.44737 0
M  V30 3253 H 333.633 2.74267 -1.49988 0
M  V30 3254 H 332.853 1.49273 -3.64844 0
M  V30 3255 H 334.141 2.35117 -4.51218 0
M  V30 3256 H 333.539 4.96872 -2.70433 0
M  V30 3257 H 332.096 5.53127 -3.44809 0
M  V30 3258 N 335.529 1.53961 0.336706 0
M  V30 3259 C 336.945 1.44378 0.680241 0
M  V30 3260 C 337.145 0.606034 1.9217 0
M  V30 3261 O 336.201 0.099688 2.52303 0
M  V30 3262 C 337.514 2.87945 0.8665 0
M  V30 3263 C 339.062 2.97763 0.964682 0
M  V30 3264 C 339.537 4.42453 1.18321 0
M  V30 3265 N 341.028 4.46008 1.25025 0
M  V30 3266 C 341.763 5.55102 1.43697 0
M  V30 3267 N 341.259 6.7419 1.59498 0
M  V30 3268 N 343.052 5.42727 1.463 0
M  V30 3269 H 335.203 2.06918 -0.479455 0
M  V30 3270 H 337.466 0.935634 -0.152619 0
M  V30 3271 H 337.172 3.51691 0.0256937 0
M  V30 3272 H 337.046 3.33293 1.76623 0
M  V30 3273 H 339.433 2.34153 1.796 0
M  V30 3274 H 339.514 2.55766 0.041708 0
M  V30 3275 H 339.158 5.06645 0.356788 0
M  V30 3276 H 339.088 4.82048 2.11985 0
M  V30 3277 H 341.579 3.60196 1.14312 0
M  V30 3278 H 341.892 7.53095 1.734 0
M  V30 3279 H 340.237 6.77123 1.56621 0
M  V30 3280 H 343.428 4.48647 1.33543 0
M  V30 3281 H 343.601 6.27806 1.6051 0
M  V30 3282 N 337.007 -0.598083 1.45811 0
M  V30 3283 C 337.97 -1.69018 1.54808 0
M  V30 3284 C 338.97 -1.55037 0.426652 0
M  V30 3285 O 340.16 -1.59932 0.690456 0
M  V30 3286 C 337.292 -3.0835 1.45371 0
M  V30 3287 H 338.485 -1.62403 2.52121 0
M  V30 3288 H 336.038 -0.814626 1.33392 0
M  V30 3289 H 336.773 -3.20534 0.492793 0
M  V30 3290 H 336.558 -3.19907 2.26721 0
M  V30 3291 H 338.048 -3.8788 1.54721 0
M  V30 3292 N 338.485 -1.33259 -0.841409 0
M  V30 3293 C 339.734 -1.23921 -1.59143 0
M  V30 3294 C 340.047 0.1941 -1.94635 0
M  V30 3295 O 341.253 0.409474 -2.68394 0
M  V30 3296 C 339.709 -2.17119 -2.87032 0
M  V30 3297 C 339.317 -3.65606 -2.58914 0
M  V30 3298 C 341.061 -2.16648 -3.65053 0
M  V30 3299 C 338.968 -4.50726 -3.82884 0
M  V30 3300 H 337.898 -0.460264 -0.597221 0
M  V30 3301 H 340.549 -1.58307 -0.927959 0
M  V30 3302 H 338.931 -1.75663 -3.54906 0
M  V30 3303 H 340.105 -4.15487 -1.99267 0
M  V30 3304 H 338.42 -3.68341 -1.942 0
M  V30 3305 H 341.017 -2.77474 -4.57069 0
M  V30 3306 H 341.36 -1.16088 -3.99787 0
M  V30 3307 H 341.893 -2.56453 -3.041 0
M  V30 3308 H 338.632 -5.52151 -3.53283 0
M  V30 3309 H 338.152 -4.0559 -4.41879 0
M  V30 3310 H 339.831 -4.64401 -4.50489 0
M  V30 3311 N 339.963 1.05934 -1.16686 0
M  V30 3312 C 341.374 1.60263 -0.957745 0
M  V30 3313 C 341.725 1.89789 0.49745 0
M  V30 3314 O 340.85 1.67401 1.37135 0
M  V30 3315 C 341.445 2.91172 -1.73218 0
M  V30 3316 C 340.004 3.42188 -1.56794 0
M  V30 3317 C 339.151 2.16028 -1.73859 0
M  V30 3318 H 342.102 0.888392 -1.31504 0
M  V30 3319 H 342.123 3.60744 -1.21014 0
M  V30 3320 H 341.635 2.6965 -2.79124 0
M  V30 3321 H 339.736 3.68762 -0.533437 0
M  V30 3322 H 339.849 4.17273 -2.35414 0
M  V30 3323 H 338.213 2.26426 -1.16633 0
M  V30 3324 H 338.996 1.96985 -2.81161 0
M  V30 3325 N 341.441 0.965919 1.2453 0
M  V30 3326 C 342.852 0.665929 1.7442 0
M  V30 3327 C 343.203 -0.818407 1.78316 0
M  V30 3328 O 342.328 -1.64037 1.41141 0
M  V30 3329 C 342.923 1.20211 3.16757 0
M  V30 3330 C 341.482 0.952059 3.6416 0
M  V30 3331 C 340.629 1.33848 2.42858 0
M  V30 3332 H 343.58 1.14144 1.10258 0
M  V30 3333 H 343.601 0.567544 3.76244 0
M  V30 3334 H 343.113 2.28244 3.13889 0
M  V30 3335 H 341.214 -0.112821 3.72429 0
M  V30 3336 H 341.327 1.59645 4.51719 0
M  V30 3337 H 339.691 0.756864 2.43195 0
M  V30 3338 H 340.474 2.42827 2.42673 0
M  V30 3339 N 342.919 -1.39368 0.735821 0
M  V30 3340 C 344.335 -1.54204 0.411492 0
M  V30 3341 C 344.535 -1.70268 -1.07755 0
M  V30 3342 O 343.591 -1.70364 -1.86366 0
M  V30 3343 C 344.904 -2.75925 1.19523 0
M  V30 3344 C 346.452 -2.89761 1.18354 0
M  V30 3345 C 346.927 -4.14421 1.94986 0
M  V30 3346 N 348.418 -4.21462 1.92156 0
M  V30 3347 C 349.153 -5.16871 2.48258 0
M  V30 3348 N 348.649 -6.18063 3.13001 0
M  V30 3349 N 350.442 -5.09093 2.38287 0
M  V30 3350 H 342.593 -1.27189 1.70108 0
M  V30 3351 H 344.856 -0.616517 0.720147 0
M  V30 3352 H 344.562 -2.70401 2.24892 0
M  V30 3353 H 344.436 -3.68614 0.800222 0
M  V30 3354 H 346.823 -2.94777 0.137975 0
M  V30 3355 H 346.904 -1.98133 1.61793 0
M  V30 3356 H 346.548 -4.10166 2.99543 0
M  V30 3357 H 346.478 -5.05095 1.48953 0
M  V30 3358 H 348.969 -3.48979 1.44991 0
M  V30 3359 H 349.282 -6.87326 3.53275 0
M  V30 3360 H 347.627 -6.18448 3.17091 0
M  V30 3361 H 350.818 -4.28973 1.8735 0
M  V30 3362 H 350.991 -5.83272 2.82308 0
M  V30 3363 N 344.397 -0.483516 -1.5 0
M  V30 3364 C 345.622 0.0667119 -2.07293 0
M  V30 3365 C 346.047 1.3164 -1.3436 0
M  V30 3366 O 345.405 1.76945 -0.394987 0
M  V30 3367 C 345.453 0.321126 -3.59167 0
M  V30 3368 O 344.557 1.39927 -3.87936 0
M  V30 3369 H 343.898 -0.0184758 -0.663743 0
M  V30 3370 H 346.428 -0.678125 -1.93035 0
M  V30 3371 H 346.438 0.557906 -4.04168 0
M  V30 3372 H 345.113 -0.592007 -4.11665 0
M  V30 3373 H 343.69 1.14882 -3.54763 0
M  V30 3374 N 345.875 1.56104 -0.216619 0
M  V30 3375 C 347.124 1.97348 0.416744 0
M  V30 3376 C 347.437 1.10715 1.6125 0
M  V30 3377 O 348.643 1.41836 2.31506 0
M  V30 3378 C 347.099 3.51059 0.792835 0
M  V30 3379 C 346.707 4.46387 -0.379828 0
M  V30 3380 C 348.451 4.01026 1.39208 0
M  V30 3381 C 346.358 5.91397 0.0184223 0
M  V30 3382 H 345.288 0.736942 0.159475 0
M  V30 3383 H 347.939 1.80827 -0.31205 0
M  V30 3384 H 346.321 3.63162 1.57891 0
M  V30 3385 H 347.495 4.46029 -1.15737 0
M  V30 3386 H 345.81 4.06734 -0.891979 0
M  V30 3387 H 348.407 5.0686 1.70286 0
M  V30 3388 H 348.75 3.46587 2.30614 0
M  V30 3389 H 349.283 3.92125 0.669537 0
M  V30 3390 H 346.022 6.49807 -0.862002 0
M  V30 3391 H 345.542 5.94961 0.760384 0
M  V30 3392 H 347.221 6.45455 0.446818 0
M  V30 3393 N 347.353 -0.0568162 1.57498 0
M  V30 3394 C 348.769 -0.411933 1.54192 0
M  V30 3395 C 348.969 -1.78287 0.938942 0
M  V30 3396 O 348.025 -2.46483 0.547919 0
M  V30 3397 C 349.338 -0.339244 2.9878 0
M  V30 3398 C 350.886 -0.418348 3.10192 0
M  V30 3399 C 351.361 -0.375407 4.56459 0
M  V30 3400 N 352.852 -0.435038 4.61153 0
M  V30 3401 C 353.587 -0.424265 5.71828 0
M  V30 3402 N 353.083 -0.367418 6.91825 0
M  V30 3403 N 354.876 -0.471938 5.60115 0
M  V30 3404 H 347.027 0.840684 1.95055 0
M  V30 3405 H 349.29 0.316987 0.893433 0
M  V30 3406 H 348.996 0.601742 3.46514 0
M  V30 3407 H 348.87 -1.14371 3.59443 0
M  V30 3408 H 351.257 -1.34976 2.62422 0
M  V30 3409 H 351.338 0.414962 2.52412 0
M  V30 3410 H 350.982 0.552219 5.04889 0
M  V30 3411 H 350.912 -1.22645 5.12119 0
M  V30 3412 H 353.403 -0.482612 3.74806 0
M  V30 3413 H 353.716 -0.363535 7.71944 0
M  V30 3414 H 352.061 -0.333879 6.94198 0
M  V30 3415 H 355.252 -0.514145 4.65268 0
M  V30 3416 H 355.425 -0.460073 6.46365 0
M  V30 3417 N 348.832 -1.54138 -0.328536 0
M  V30 3418 C 350.08 -1.71765 -1.06496 0
M  V30 3419 C 350.401 -0.49149 -1.88704 0
M  V30 3420 O 349.671 0.494539 -1.89555 0
M  V30 3421 H 348.251 -0.633295 -0.396164 0
M  V30 3422 H 350.913 -1.91429 -0.366176 0
M  V30 3423 H 350.009 -2.5951 -1.73381 0
M  V30 3424 N 350.31 0.590341 -1.46126 0
M  V30 3425 C 351.587 1.35029 -1.41515 0
M  V30 3426 C 351.967 2.10888 -0.0946472 0
M  V30 3427 O 351.315 2.08998 0.923693 0
M  V30 3428 C 351.525 2.28269 -2.63997 0
M  V30 3429 C 352.873 2.90338 -3.09821 0
M  V30 3430 O 353.897 2.38585 -2.64492 0
M  V30 3431 O 352.756 3.84321 -3.88535 0
M  V30 3432 H 349.85 0.606317 -0.562413 0
M  V30 3433 H 352.396 0.611994 -1.58281 0
M  V30 3434 H 351.168 1.71591 -3.51671 0
M  V30 3435 H 350.791 3.0945 -2.49652 0
M  V30 3436 N 351.788 1.33704 0.83433 0
M  V30 3437 C 352.72 1.20172 1.9517 0
M  V30 3438 C 353.733 0.131572 1.62267 0
M  V30 3439 O 354.922 0.382406 1.74356 0
M  V30 3440 C 352.022 0.821716 3.28787 0
M  V30 3441 C 351.195 1.98446 3.89792 0
M  V30 3442 C 350.254 1.58469 5.01771 0
M  V30 3443 O 349.28 2.29968 5.20676 0
M  V30 3444 N 350.482 0.492291 5.78409 0
M  V30 3445 H 353.247 2.16429 2.07313 0
M  V30 3446 H 350.808 1.26509 1.0103 0
M  V30 3447 H 352.8 0.536291 4.01131 0
M  V30 3448 H 351.37 -0.0503058 3.1256 0
M  V30 3449 H 350.59 2.43526 3.09982 0
M  V30 3450 H 351.878 2.76236 4.27283 0
M  V30 3451 H 351.276 -0.102349 5.65607 0
M  V30 3452 H 349.833 0.266555 6.51255 0
M  V30 3453 N 353.266 -1.05314 1.17247 0
M  V30 3454 C 354.515 -1.77685 0.954521 0
M  V30 3455 C 354.828 -1.88616 -0.518025 0
M  V30 3456 O 356.034 -2.57714 -0.854144 0
M  V30 3457 C 354.49 -3.19402 1.65863 0
M  V30 3458 C 354.098 -3.16605 3.16963 0
M  V30 3459 C 355.842 -3.96237 1.52303 0
M  V30 3460 C 353.749 -4.53103 3.80068 0
M  V30 3461 H 352.679 -0.666 0.353496 0
M  V30 3462 H 355.33 -1.1805 1.40486 0
M  V30 3463 H 353.712 -3.79355 1.13602 0
M  V30 3464 H 354.886 -2.66176 3.76148 0
M  V30 3465 H 353.201 -2.53268 3.30521 0
M  V30 3466 H 355.798 -4.97157 1.96822 0
M  V30 3467 H 356.141 -4.136 0.473401 0
M  V30 3468 H 356.674 -3.42829 2.01775 0
M  V30 3469 H 353.413 -4.40946 4.85023 0
M  V30 3470 H 352.933 -5.03686 3.2567 0
M  V30 3471 H 354.612 -5.22045 3.82202 0
M  V30 3472 N 354.744 -0.972509 -1.24016 0
M  V30 3473 C 355.707 -0.511403 -2.23422 0
M  V30 3474 C 356.707 0.394679 -1.55881 0
M  V30 3475 O 357.897 0.189469 -1.73167 0
M  V30 3476 C 355.029 0.258769 -3.39916 0
M  V30 3477 H 356.222 -1.39024 -2.6573 0
M  V30 3478 H 353.775 -0.757585 -1.36713 0
M  V30 3479 H 354.51 1.1545 -3.03054 0
M  V30 3480 H 354.295 -0.391522 -3.9014 0
M  V30 3481 H 355.785 0.570244 -4.13688 0
M  V30 3482 N 356.222 1.38976 -0.743202 0
M  V30 3483 C 357.468 2.01114 -0.304109 0
M  V30 3484 C 357.823 1.57929 1.09892 0
M  V30 3485 O 357.116 0.801983 1.74008 0
M  V30 3486 C 357.31 3.55647 -0.353517 0
M  V30 3487 C 357.139 4.13837 -1.75981 0
M  V30 3488 C 355.909 4.46062 -2.37395 0
M  V30 3489 C 358.107 4.36812 -2.71477 0
M  V30 3490 N 356.089 4.898 -3.70093 0
M  V30 3491 C 357.46 4.82844 -3.88923 0
M  V30 3492 C 359.515 4.18893 -2.69134 0
M  V30 3493 C 358.218 5.12837 -5.04371 0
M  V30 3494 C 360.244 4.50005 -3.83731 0
M  V30 3495 C 359.606 4.96251 -4.99914 0
M  V30 3496 H 355.705 0.765931 -0.157716 0
M  V30 3497 H 358.289 1.68763 -0.970931 0
M  V30 3498 H 356.46 3.87368 0.282987 0
M  V30 3499 H 358.192 4.04564 0.104904 0
M  V30 3500 H 354.947 4.34145 -1.89248 0
M  V30 3501 H 355.371 5.16016 -4.38242 0
M  V30 3502 H 360.013 3.82335 -1.80499 0
M  V30 3503 H 357.731 5.48297 -5.9363 0
M  V30 3504 H 361.317 4.37755 -3.83225 0
M  V30 3505 H 360.197 5.19867 -5.87118 0
M  V30 3506 N 357.7 0.491464 1.49741 0
M  V30 3507 C 358.946 -0.0565092 2.02721 0
M  V30 3508 C 359.279 -1.37522 1.37118 0
M  V30 3509 O 358.554 -1.87866 0.503645 0
M  V30 3510 C 358.837 -0.219051 3.59433 0
M  V30 3511 C 358.69 1.12211 4.35579 0
M  V30 3512 C 360.009 -0.964157 4.29409 0
M  V30 3513 H 357.128 -0.0190627 0.736753 0
M  V30 3514 H 359.77 0.641021 1.7886 0
M  V30 3515 H 357.92 -0.813165 3.79895 0
M  V30 3516 H 359.592 1.75437 4.26637 0
M  V30 3517 H 357.835 1.71377 3.98513 0
M  V30 3518 H 358.506 0.961794 5.43556 0
M  V30 3519 H 360.982 -0.460378 4.13545 0
M  V30 3520 H 359.858 -1.04671 5.38828 0
M  V30 3521 H 360.119 -2.00563 3.93988 0
M  V30 3522 N 359.178 -1.55987 0.224894 0
M  V30 3523 C 360.088 -2.24066 -0.69511 0
M  V30 3524 C 361.104 -1.24939 -1.21104 0
M  V30 3525 O 362.28 -1.5776 -1.25195 0
M  V30 3526 C 359.345 -2.90983 -1.88493 0
M  V30 3527 C 358.406 -4.05462 -1.41064 0
M  V30 3528 C 357.639 -4.69179 -2.54375 0
M  V30 3529 O 357.862 -4.31895 -3.72589 0
M  V30 3530 O 356.796 -5.58108 -2.25386 0
M  V30 3531 H 360.622 -3.03353 -0.145149 0
M  V30 3532 H 358.207 -1.49399 -0.00569476 0
M  V30 3533 H 360.089 -3.33209 -2.57972 0
M  V30 3534 H 358.764 -2.14653 -2.42293 0
M  V30 3535 H 357.671 -3.67798 -0.683774 0
M  V30 3536 H 359.004 -4.83545 -0.918985 0
M  V30 3537 N 360.656 0.0484629 -1.57525 0
M  V30 3538 C 361.904 0.741657 -1.88 0
M  V30 3539 C 362.225 1.76918 -0.820054 0
M  V30 3540 O 361.495 1.95335 0.148661 0
M  V30 3541 H 360.075 0.276908 -0.69378 0
M  V30 3542 H 362.737 0.019013 -1.94891 0
M  V30 3543 H 361.833 1.24336 -2.86264 0
M  V30 3544 N 362.134 1.5431 0.320358 0
M  V30 3545 C 363.084 1.803 1.39556 0
M  V30 3546 C 364.068 0.659166 1.46778 0
M  V30 3547 O 365.26 0.91926 1.51257 0
M  V30 3548 C 362.389 2.03665 2.76361 0
M  V30 3549 C 361.475 3.24178 2.73439 0
M  V30 3550 N 361.866 4.4516 2.40137 0
M  V30 3551 C 360.164 3.25816 3.04565 0
M  V30 3552 C 360.865 5.27109 2.4603 0
M  V30 3553 N 359.841 4.64368 2.82601 0
M  V30 3554 H 363.643 2.71416 1.12742 0
M  V30 3555 H 361.157 1.53548 0.528856 0
M  V30 3556 H 363.154 2.20425 3.53862 0
M  V30 3557 H 361.814 1.13805 3.04103 0
M  V30 3558 H 362.825 4.72104 2.12927 0
M  V30 3559 H 359.502 2.46001 3.37328 0
M  V30 3560 H 360.892 6.33728 2.23246 0
M  V30 3561 N 363.613 -0.582584 1.46437 0
M  V30 3562 C 364.523 -1.71949 1.59595 0
M  V30 3563 C 365.539 -1.67264 0.479443 0
M  V30 3564 O 366.715 -1.87171 0.743579 0
M  V30 3565 C 363.78 -3.08452 1.58298 0
M  V30 3566 C 362.841 -3.244 2.81182 0
M  V30 3567 C 362.074 -4.54391 2.79937 0
M  V30 3568 O 362.297 -5.38287 1.8869 0
M  V30 3569 O 361.231 -4.73588 3.71481 0
M  V30 3570 H 365.057 -1.63795 2.55744 0
M  V30 3571 H 362.642 -0.749643 1.29231 0
M  V30 3572 H 364.524 -3.89732 1.60271 0
M  V30 3573 H 363.199 -3.17043 0.653094 0
M  V30 3574 H 362.106 -2.42613 2.84763 0
M  V30 3575 H 363.439 -3.20699 3.7338 0
M  V30 3576 N 365.091 -1.34144 -0.827227 0
M  V30 3577 C 366.502 -1.23557 -1.39966 0
M  V30 3578 C 366.853 0.140731 -1.95695 0
M  V30 3579 O 365.978 1.04087 -1.89723 0
M  V30 3580 C 366.573 -2.23708 -2.54441 0
M  V30 3581 C 365.132 -2.16924 -3.07605 0
M  V30 3582 C 364.279 -2.10549 -1.80456 0
M  V30 3583 H 367.23 -1.45573 -0.631991 0
M  V30 3584 H 367.251 -1.85157 -3.32411 0
M  V30 3585 H 366.763 -3.23866 -2.13851 0
M  V30 3586 H 364.864 -1.20107 -3.52711 0
M  V30 3587 H 364.977 -3.07988 -3.66988 0
M  V30 3588 H 363.341 -1.56203 -2.01178 0
M  V30 3589 H 364.124 -3.12535 -1.42046 0
M  V30 3590 N 366.569 1.04691 -1.17803 0
M  V30 3591 C 367.817 1.7743 -0.967617 0
M  V30 3592 C 368.138 1.88359 0.504574 0
M  V30 3593 O 367.408 1.40402 1.36617 0
M  V30 3594 H 365.988 0.657242 -0.355024 0
M  V30 3595 H 368.65 1.2638 -1.48371 0
M  V30 3596 H 367.746 2.78924 -1.40027 0
M  V30 3597 N 368.047 0.979072 1.23499 0
M  V30 3598 C 369.287 0.655228 1.93613 0
M  V30 3599 C 369.651 -0.796336 1.74707 0
M  V30 3600 O 370.852 -1.23094 2.38959 0
M  V30 3601 C 369.123 1.03337 3.42135 0
M  V30 3602 S 370.682 0.825793 4.3096 0
M  V30 3603 H 367.5 0.240004 0.669267 0
M  V30 3604 H 370.102 1.25843 1.49612 0
M  V30 3605 H 368.806 2.08646 3.53405 0
M  V30 3606 H 368.337 0.421397 3.91137 0
M  V30 3607 H 370.352 -0.290991 4.95346 0
M  V30 3608 N 369.525 -1.3858 0.750561 0
M  V30 3609 C 370.941 -1.53759 0.427824 0
M  V30 3610 C 371.141 -1.71401 -1.05943 0
M  V30 3611 O 370.197 -1.72331 -1.84549 0
M  V30 3612 C 371.51 -2.74642 1.22443 0
M  V30 3613 C 373.058 -2.88489 1.2142 0
M  V30 3614 C 373.533 -4.12329 1.9937 0
M  V30 3615 N 375.024 -4.194 1.96616 0
M  V30 3616 C 375.759 -5.14209 2.53727 0
M  V30 3617 N 375.255 -6.14709 3.19539 0
M  V30 3618 N 377.048 -5.06537 2.43673 0
M  V30 3619 H 369.199 -1.25377 1.71447 0
M  V30 3620 H 371.462 -0.608844 0.726645 0
M  V30 3621 H 371.168 -2.68 2.27747 0
M  V30 3622 H 371.042 -3.67745 0.839273 0
M  V30 3623 H 373.429 -2.94614 0.169232 0
M  V30 3624 H 373.51 -1.96406 1.63885 0
M  V30 3625 H 373.154 -4.06966 3.03877 0
M  V30 3626 H 373.084 -5.03486 1.54302 0
M  V30 3627 H 375.575 -3.47421 1.48684 0
M  V30 3628 H 375.888 -6.8354 3.60545 0
M  V30 3629 H 374.233 -6.1505 3.23633 0
M  V30 3630 H 377.424 -4.26962 1.91889 0
M  V30 3631 H 377.597 -5.80245 2.88479 0
M  V30 3632 N 371.003 -0.499398 -1.49478 0
M  V30 3633 C 372.228 0.044722 -2.07352 0
M  V30 3634 C 372.653 1.30207 -1.35749 0
M  V30 3635 O 372.011 1.76516 -0.413732 0
M  V30 3636 C 372.059 0.283013 -3.59488 0
M  V30 3637 O 371.163 1.35804 -3.89398 0
M  V30 3638 H 370.504 -0.0255147 -0.66351 0
M  V30 3639 H 373.034 -0.698561 -1.92305 0
M  V30 3640 H 373.044 0.515007 -4.04737 0
M  V30 3641 H 371.719 -0.635636 -4.11014 0
M  V30 3642 H 370.296 1.11113 -3.55961 0
M  V30 3643 N 372.481 1.55866 -0.233164 0
M  V30 3644 C 373.73 1.97779 0.39579 0
M  V30 3645 C 374.043 1.12419 1.60066 0
M  V30 3646 O 375.249 1.44283 2.29988 0
M  V30 3647 C 373.705 3.5188 0.755556 0
M  V30 3648 C 373.313 4.45959 -0.427152 0
M  V30 3649 C 375.057 4.02479 1.34946 0
M  V30 3650 C 372.964 5.91383 -0.0443043 0
M  V30 3651 H 371.894 0.738592 0.15165 0
M  V30 3652 H 374.545 1.80486 -0.331212 0
M  V30 3653 H 372.927 3.64816 1.5403 0
M  V30 3654 H 374.101 4.44776 -1.20462 0
M  V30 3655 H 372.416 4.05765 -0.935068 0
M  V30 3656 H 375.013 5.08637 1.649 0
M  V30 3657 H 375.356 3.49014 2.26925 0
M  V30 3658 H 375.889 3.92813 0.62791 0
M  V30 3659 H 372.628 6.48857 -0.930874 0
M  V30 3660 H 372.148 5.95734 0.697238 0
M  V30 3661 H 373.827 6.45893 0.378334 0
M  V30 3662 N 373.959 -0.0401083 1.57549 0
M  V30 3663 C 375.207 -0.731677 1.8839 0
M  V30 3664 C 375.528 -1.76481 0.829425 0
M  V30 3665 O 374.798 -1.95411 -0.1383 0
M  V30 3666 H 373.378 -0.273225 0.695239 0
M  V30 3667 H 376.04 -0.00867725 1.94898 0
M  V30 3668 H 375.136 -1.22816 2.86919 0
M  V30 3669 N 375.437 -1.54477 -0.31217 0
M  V30 3670 C 376.4 -1.83923 -1.36766 0
M  V30 3671 C 377.4 -0.711563 -1.44199 0
M  V30 3672 O 378.59 -0.979866 -1.44029 0
M  V30 3673 C 375.722 -2.0095 -2.75376 0
M  V30 3674 H 376.915 -2.78239 -1.11906 0
M  V30 3675 H 374.468 -1.46369 -0.548257 0
M  V30 3676 H 375.203 -1.08883 -3.05475 0
M  V30 3677 H 374.988 -2.83018 -2.71373 0
M  V30 3678 H 376.478 -2.2514 -3.51713 0
M  V30 3679 N 376.915 0.57481 -1.46744 0
M  V30 3680 C 377.845 1.69337 -1.60771 0
M  V30 3681 C 378.826 1.63825 -0.457736 0
M  V30 3682 O 380.011 1.8172 -0.684947 0
M  V30 3683 C 377.141 3.0798 -1.60517 0
M  V30 3684 C 376.095 3.28327 -2.74564 0
M  V30 3685 C 375.421 4.67578 -2.59373 0
M  V30 3686 C 376.721 3.15398 -4.16319 0
M  V30 3687 H 378.415 1.57853 -2.54407 0
M  V30 3688 H 375.961 0.75799 -1.22436 0
M  V30 3689 H 377.914 3.86061 -1.68923 0
M  V30 3690 H 376.638 3.20381 -0.634305 0
M  V30 3691 H 375.297 2.52649 -2.65639 0
M  V30 3692 H 374.945 4.76755 -1.60353 0
M  V30 3693 H 374.645 4.82144 -3.35873 0
M  V30 3694 H 376.169 5.47817 -2.69682 0
M  V30 3695 H 377.583 3.83315 -4.26313 0
M  V30 3696 H 375.98 3.41482 -4.93468 0
M  V30 3697 H 377.05 2.12372 -4.3592 0
M  V30 3698 N 378.394 1.34581 0.820102 0
M  V30 3699 C 379.327 1.20735 1.93644 0
M  V30 3700 C 380.305 0.0983343 1.62302 0
M  V30 3701 O 381.489 0.263997 1.86642 0
M  V30 3702 C 378.616 0.856037 3.27704 0
M  V30 3703 C 377.662 1.97521 3.78005 0
M  V30 3704 S 378.495 3.58906 3.97425 0
M  V30 3705 C 379.651 3.25822 5.34407 0
M  V30 3706 H 379.884 2.15231 2.05093 0
M  V30 3707 H 377.417 1.1964 0.97599 0
M  V30 3708 H 379.375 0.660133 4.05157 0
M  V30 3709 H 378.036 -0.0706253 3.14021 0
M  V30 3710 H 377.229 1.68321 4.75062 0
M  V30 3711 H 376.831 2.12875 3.07507 0
M  V30 3712 H 379.123 2.77812 6.17922 0
M  V30 3713 H 380.066 4.22029 5.68592 0
M  V30 3714 H 380.474 2.61932 5.00052 0
M  V30 3715 N 379.872 -1.04064 1.18357 0
M  V30 3716 C 380.835 -2.10243 0.912707 0
M  V30 3717 C 381.835 -1.60477 -0.101928 0
M  V30 3718 O 383.025 -1.73703 0.131517 0
M  V30 3719 C 380.157 -3.38893 0.369387 0
M  V30 3720 H 381.35 -2.35706 1.85426 0
M  V30 3721 H 378.903 -1.20489 0.995594 0
M  V30 3722 H 379.638 -3.19094 -0.578776 0
M  V30 3723 H 379.423 -3.76331 1.1008 0
M  V30 3724 H 380.913 -4.17128 0.198575 0
M  V30 3725 N 381.35 -0.985608 -1.22978 0
M  V30 3726 C 382.3 -0.50118 -2.22423 0
M  V30 3727 C 383.284 0.426649 -1.5514 0
M  V30 3728 O 384.476 0.254656 -1.75159 0
M  V30 3729 C 381.605 0.190003 -3.42774 0
M  V30 3730 C 380.691 -0.757703 -4.17276 0
M  V30 3731 N 381.082 -1.90251 -4.68656 0
M  V30 3732 C 379.38 -0.57209 -4.42316 0
M  V30 3733 C 380.081 -2.49676 -5.25392 0
M  V30 3734 N 379.057 -1.78013 -5.13627 0
M  V30 3735 H 382.859 -1.37441 -2.59783 0
M  V30 3736 H 380.373 -0.846941 -1.38567 0
M  V30 3737 H 382.37 0.55439 -4.13197 0
M  V30 3738 H 381.03 1.05946 -3.06929 0
M  V30 3739 H 382.041 -2.28354 -4.64839 0
M  V30 3740 H 378.718 0.251909 -4.16739 0
M  V30 3741 H 380.108 -3.46384 -5.75732 0
M  V30 3742 N 382.828 1.3818 -0.7579 0
M  V30 3743 C 384.074 2.00316 -0.316453 0
M  V30 3744 C 384.407 1.60026 1.10025 0
M  V30 3745 O 383.682 0.839835 1.75434 0
M  V30 3746 C 383.965 3.57349 -0.444245 0
M  V30 3747 C 383.818 4.07591 -1.90236 0
M  V30 3748 C 385.137 4.3981 0.1598 0
M  V30 3749 H 382.256 0.727741 -0.116459 0
M  V30 3750 H 384.898 1.6406 -0.958352 0
M  V30 3751 H 383.048 3.88365 0.102233 0
M  V30 3752 H 384.72 3.87199 -2.50748 0
M  V30 3753 H 382.963 3.60297 -2.41595 0
M  V30 3754 H 383.634 5.16677 -1.94291 0
M  V30 3755 H 386.11 4.14971 -0.306314 0
M  V30 3756 H 384.986 5.48885 0.0401675 0
M  V30 3757 H 385.247 4.24102 1.24859 0
M  V30 3758 N 384.306 0.507319 1.49211 0
M  V30 3759 C 385.583 -0.0982702 1.95353 0
M  V30 3760 C 385.963 -1.53516 1.449 0
M  V30 3761 O 385.311 -2.18594 0.66551 0
M  V30 3762 C 385.521 -0.00440283 3.49 0
M  V30 3763 C 386.869 -0.175147 4.24239 0
M  V30 3764 O 387.893 -0.0792891 3.56112 0
M  V30 3765 O 386.752 -0.37276 5.45227 0
M  V30 3766 H 383.846 -0.0918236 0.821887 0
M  V30 3767 H 386.392 0.570307 1.5983 0
M  V30 3768 H 385.164 0.997402 3.78375 0
M  V30 3769 H 384.787 -0.712845 3.91158 0
M  V30 3770 N 385.784 -1.5574 0.241426 0
M  V30 3771 C 386.747 -2.19877 -0.647063 0
M  V30 3772 C 387.747 -1.16642 -1.10686 0
M  V30 3773 O 388.937 -1.41757 -1.01245 0
M  V30 3774 C 386.069 -2.83797 -1.88871 0
M  V30 3775 H 387.262 -2.99772 -0.087574 0
M  V30 3776 H 384.815 -1.56298 -0.00813574 0
M  V30 3777 H 385.55 -2.07824 -2.48957 0
M  V30 3778 H 385.335 -3.59414 -1.56728 0
M  V30 3779 H 386.825 -3.32898 -2.52129 0
M  V30 3780 N 387.262 0.0317525 -1.57568 0
M  V30 3781 C 388.508 0.724175 -1.8943 0
M  V30 3782 C 388.841 1.75149 -0.838836 0
M  V30 3783 O 388.116 1.93948 0.146422 0
M  V30 3784 C 388.399 1.39615 -3.31933 0
M  V30 3785 C 388.252 0.382537 -4.4817 0
M  V30 3786 C 389.571 2.33084 -3.73309 0
M  V30 3787 H 386.69 0.261797 -0.688935 0
M  V30 3788 H 389.332 -0.013017 -1.89996 0
M  V30 3789 H 387.482 2.02451 -3.31581 0
M  V30 3790 H 389.154 -0.243689 -4.60656 0
M  V30 3791 H 387.397 -0.29844 -4.32772 0
M  V30 3792 H 388.068 0.891145 -5.44759 0
M  V30 3793 H 390.544 1.80295 -3.7501 0
M  V30 3794 H 389.42 2.77084 -4.73831 0
M  V30 3795 H 389.681 3.19643 -3.05419 0
M  V30 3796 N 388.74 1.54641 0.303973 0
M  V30 3797 C 389.989 1.7299 1.03717 0
M  V30 3798 C 390.302 0.521168 1.88529 0
M  V30 3799 O 391.508 0.586408 2.65092 0
M  V30 3800 C 389.964 3.06051 1.89369 0
M  V30 3801 C 389.572 4.34393 1.09574 0
M  V30 3802 C 391.316 3.3376 2.62306 0
M  V30 3803 C 389.223 5.58506 1.94486 0
M  V30 3804 H 388.153 0.64473 0.390947 0
M  V30 3805 H 390.804 1.81124 0.294328 0
M  V30 3806 H 389.186 2.91874 2.67629 0
M  V30 3807 H 390.36 4.59396 0.359485 0
M  V30 3808 H 388.675 4.13597 0.482324 0
M  V30 3809 H 391.272 4.23687 3.26181 0
M  V30 3810 H 391.615 2.52503 3.3098 0
M  V30 3811 H 392.148 3.48894 1.91097 0
M  V30 3812 H 388.887 6.42422 1.30287 0
M  V30 3813 H 388.407 5.37694 2.65792 0
M  V30 3814 H 390.086 5.95651 2.52605 0
M  V30 3815 N 390.218 -0.567019 1.47046 0
M  V30 3816 C 391.634 -0.891975 1.32348 0
M  V30 3817 C 391.834 -1.99154 0.306616 0
M  V30 3818 O 390.89 -2.50883 -0.28532 0
M  V30 3819 C 392.203 -1.29449 2.7141 0
M  V30 3820 C 393.751 -1.40646 2.79621 0
M  V30 3821 C 394.226 -1.84257 4.19301 0
M  V30 3822 N 395.717 -1.91424 4.21795 0
M  V30 3823 C 396.452 -2.26476 5.26779 0
M  V30 3824 N 395.948 -2.60211 6.42077 0
M  V30 3825 N 397.741 -2.27166 5.14152 0
M  V30 3826 H 389.892 0.159074 2.11803 0
M  V30 3827 H 392.155 0.00849752 0.947962 0
M  V30 3828 H 391.861 -0.560448 3.47206 0
M  V30 3829 H 391.735 -2.25273 3.02542 0
M  V30 3830 H 394.122 -2.13133 2.04104 0
M  V30 3831 H 394.203 -0.430339 2.52154 0
M  V30 3832 H 393.847 -1.12343 4.95319 0
M  V30 3833 H 393.777 -2.82855 4.44185 0
M  V30 3834 H 396.268 -1.6778 3.38612 0
M  V30 3835 H 396.581 -2.85956 7.17948 0
M  V30 3836 H 394.926 -2.57813 6.45413 0
M  V30 3837 H 398.117 -2.00244 4.23107 0
M  V30 3838 H 398.29 -2.54154 5.96079 0
M  V30 3839 N 391.696 -1.35014 -0.812953 0
M  V30 3840 C 392.646 -1.23959 -1.91359 0
M  V30 3841 C 393.63 -0.136306 -1.60322 0
M  V30 3842 O 394.822 -0.366925 -1.73155 0
M  V30 3843 C 391.951 -1.00736 -3.28188 0
M  V30 3844 C 391.037 -2.15426 -3.65311 0
M  V30 3845 N 391.428 -3.40612 -3.73921 0
M  V30 3846 C 389.726 -2.06672 -3.95225 0
M  V30 3847 C 390.427 -4.15994 -4.06601 0
M  V30 3848 N 389.403 -3.44685 -4.20349 0
M  V30 3849 H 393.205 -2.18815 -1.96208 0
M  V30 3850 H 390.719 -1.27395 -1.00718 0
M  V30 3851 H 392.716 -0.909052 -4.06868 0
M  V30 3852 H 391.376 -0.067586 -3.2463 0
M  V30 3853 H 392.387 -3.75043 -3.5716 0
M  V30 3854 H 389.064 -1.20511 -3.99729 0
M  V30 3855 H 390.454 -5.24145 -4.20382 0
M  V30 3856 N 393.175 1.03435 -1.18907 0
M  V30 3857 C 394.415 1.78302 -0.999391 0
M  V30 3858 C 394.779 1.86353 0.462219 0
M  V30 3859 O 395.98 2.57489 0.771543 0
M  V30 3860 C 394.251 3.17362 -1.64365 0
M  V30 3861 S 395.81 4.08488 -1.6026 0
M  V30 3862 H 392.628 0.613861 -0.358742 0
M  V30 3863 H 395.23 1.23979 -1.51161 0
M  V30 3864 H 393.934 3.09116 -2.69955 0
M  V30 3865 H 393.465 3.76762 -1.13199 0
M  V30 3866 H 395.48 4.92274 -0.622932 0
M  V30 3867 N 394.653 0.992116 1.22453 0
M  V30 3868 C 395.616 0.546883 2.2258 0
M  V30 3869 C 396.616 -0.369829 1.56489 0
M  V30 3870 O 397.806 -0.161896 1.73446 0
M  V30 3871 C 394.938 -0.204659 3.40285 0
M  V30 3872 H 396.131 1.43234 2.63484 0
M  V30 3873 H 393.684 0.779239 1.3549 0
M  V30 3874 H 394.419 -1.10614 3.04853 0
M  V30 3875 H 394.204 0.45354 3.89468 0
M  V30 3876 H 395.694 -0.504358 4.14543 0
M  V30 3877 N 396.131 -1.37776 0.765217 0
M  V30 3878 C 397.379 -1.99454 0.325943 0
M  V30 3879 C 397.7 -1.61049 -1.09947 0
M  V30 3880 O 396.97 -0.872821 -1.75381 0
M  V30 3881 H 395.55 -0.737697 0.117525 0
M  V30 3882 H 398.212 -1.68359 0.981895 0
M  V30 3883 H 397.308 -3.09547 0.398353 0
M  V30 3884 N 397.609 -0.515225 -1.4894 0
M  V30 3885 C 399.025 -0.172099 -1.58669 0
M  V30 3886 C 399.225 1.32405 -1.51892 0
M  V30 3887 O 398.281 2.10116 -1.40027 0
M  V30 3888 C 399.594 -0.761533 -2.90897 0
M  V30 3889 C 401.142 -0.728926 -3.04394 0
M  V30 3890 C 401.617 -1.29667 -4.39261 0
M  V30 3891 N 403.108 -1.25799 -4.4579 0
M  V30 3892 C 403.843 -1.66733 -5.48623 0
M  V30 3893 N 403.339 -2.15327 -6.58488 0
M  V30 3894 N 405.132 -1.58061 -5.39419 0
M  V30 3895 H 397.283 -1.48778 -1.51588 0
M  V30 3896 H 399.546 -0.617968 -0.718901 0
M  V30 3897 H 399.252 -1.81136 -3.01468 0
M  V30 3898 H 399.126 -0.230106 -3.76497 0
M  V30 3899 H 401.513 0.312098 -2.93445 0
M  V30 3900 H 401.594 -1.29766 -2.20442 0
M  V30 3901 H 401.238 -2.33655 -4.50963 0
M  V30 3902 H 401.168 -0.703752 -5.21876 0
M  V30 3903 H 403.659 -0.902102 -3.66975 0
M  V30 3904 H 403.972 -2.44594 -7.33071 0
M  V30 3905 H 402.317 -2.19311 -6.59491 0
M  V30 3906 H 405.508 -1.19906 -4.52482 0
M  V30 3907 H 405.681 -1.90284 -6.19432 0
M  V30 3908 N 399.087 1.5561 -0.249682 0
M  V30 3909 C 400.017 2.24477 0.642826 0
M  V30 3910 C 400.998 1.22601 1.17911 0
M  V30 3911 O 402.183 1.5126 1.21795 0
M  V30 3912 C 399.313 2.94638 1.83863 0
M  V30 3913 C 398.267 4.03227 1.435 0
M  V30 3914 C 397.593 4.60828 2.71186 0
M  V30 3915 C 398.893 5.18796 0.604002 0
M  V30 3916 H 400.587 2.99321 0.0685625 0
M  V30 3917 H 398.133 1.43965 0.0315363 0
M  V30 3918 H 400.086 3.41517 2.46868 0
M  V30 3919 H 398.81 2.17287 2.43832 0
M  V30 3920 H 397.469 3.57121 0.828275 0
M  V30 3921 H 397.117 3.80174 3.29358 0
M  V30 3922 H 396.817 5.34132 2.44901 0
M  V30 3923 H 398.341 5.10442 3.35084 0
M  V30 3924 H 399.755 5.61883 1.13842 0
M  V30 3925 H 398.152 5.98506 0.437097 0
M  V30 3926 H 399.222 4.83384 -0.383147 0
M  V30 3927 N 400.565 -0.0233959 1.57583 0
M  V30 3928 C 401.813 -0.711654 1.89156 0
M  V30 3929 C 402.134 -1.75591 0.848096 0
M  V30 3930 O 401.404 -1.95547 -0.117566 0
M  V30 3931 H 399.984 -0.265835 0.698098 0
M  V30 3932 H 402.646 0.0119948 1.94896 0
M  V30 3933 H 401.742 -1.19766 2.88206 0
M  V30 3934 N 402.043 -1.548 -0.295768 0
M  V30 3935 C 403.268 -1.78653 -1.05346 0
M  V30 3936 C 403.693 -0.546894 -1.79974 0
M  V30 3937 O 403.051 0.502763 -1.7419 0
M  V30 3938 C 403.099 -2.99679 -2.00561 0
M  V30 3939 O 402.203 -2.7317 -3.08953 0
M  V30 3940 H 401.544 -0.59116 -0.302367 0
M  V30 3941 H 404.074 -2.01895 -0.331598 0
M  V30 3942 H 404.084 -3.27793 -2.42932 0
M  V30 3943 H 402.759 -3.89562 -1.4565 0
M  V30 3944 H 401.336 -2.56089 -2.71059 0
M  V30 3945 N 403.521 0.559213 -1.47345 0
M  V30 3946 C 404.751 1.33999 -1.57251 0
M  V30 3947 C 405.159 1.87905 -0.220978 0
M  V30 3948 O 404.502 1.65577 0.795617 0
M  V30 3949 C 404.564 2.54798 -2.53611 0
M  V30 3950 C 404.228 2.22192 -3.99349 0
M  V30 3951 C 405.225 1.79607 -4.87891 0
M  V30 3952 C 402.91 2.33613 -4.44669 0
M  V30 3953 C 404.904 1.48868 -6.19772 0
M  V30 3954 C 402.591 2.02487 -5.76578 0
M  V30 3955 C 403.589 1.60183 -6.63951 0
M  V30 3956 O 403.277 1.29451 -7.93409 0
M  V30 3957 H 403.009 0.414858 -0.533731 0
M  V30 3958 H 405.563 0.684465 -1.9366 0
M  V30 3959 H 403.793 3.23235 -2.12265 0
M  V30 3960 H 405.482 3.16873 -2.53666 0
M  V30 3961 H 406.248 1.70278 -4.54126 0
M  V30 3962 H 402.127 2.65501 -3.76869 0
M  V30 3963 H 405.671 1.15775 -6.87926 0
M  V30 3964 H 401.568 2.11448 -6.09885 0
M  V30 3965 H 402.336 1.43098 -8.05894 0
M  V30 3966 N 404.999 1.35443 0.805782 0
M  V30 3967 C 406.245 1.28952 1.56522 0
M  V30 3968 C 406.578 -0.135597 1.93726 0
M  V30 3969 O 405.853 -1.08516 1.61414 0
M  V30 3970 C 406.136 2.19678 2.85331 0
M  V30 3971 C 405.989 3.7081 2.54598 0
M  V30 3972 C 407.308 2.09495 3.8704 0
M  V30 3973 H 404.427 0.469764 0.567883 0
M  V30 3974 H 407.069 1.65851 0.927001 0
M  V30 3975 H 405.219 1.8834 3.39795 0
M  V30 3976 H 406.891 4.12593 2.06312 0
M  V30 3977 H 405.134 3.91051 1.8778 0
M  V30 3978 H 405.805 4.29679 3.46525 0
M  V30 3979 H 408.281 2.37045 3.41978 0
M  V30 3980 H 407.157 2.75173 4.74943 0
M  V30 3981 H 407.418 1.07714 4.28777 0
M  V30 3982 N 406.477 -1.02803 1.19454 0
M  V30 3983 C 407.726 -1.7562 0.991996 0
M  V30 3984 C 408.039 -1.89672 -0.477901 0
M  V30 3985 O 409.245 -2.59468 -0.799287 0
M  V30 3986 C 407.701 -3.15812 1.72601 0
M  V30 3987 C 407.309 -3.0981 3.23607 0
M  V30 3988 C 409.053 -3.92918 1.60674 0
M  V30 3989 C 406.96 -4.44939 3.89594 0
M  V30 3990 H 405.89 -0.658352 0.367543 0
M  V30 3991 H 408.541 -1.15044 1.42959 0
M  V30 3992 H 406.923 -3.7686 1.21624 0
M  V30 3993 H 408.097 -2.58138 3.81709 0
M  V30 3994 H 406.412 -2.46201 3.35819 0
M  V30 3995 H 409.009 -4.9287 2.07323 0
M  V30 3996 H 409.352 -4.12502 0.561025 0
M  V30 3997 H 409.885 -3.38472 2.09001 0
M  V30 3998 H 406.624 -4.30559 4.94267 0
M  V30 3999 H 406.144 -4.96664 3.36281 0
M  V30 4000 H 407.823 -5.1382 3.93189 0
M  V30 4001 N 407.956 -0.998596 -1.21925 0
M  V30 4002 C 408.904 -0.546641 -2.26085 0
M  V30 4003 C 409.898 0.405576 -1.64473 0
M  V30 4004 O 411.104 0.277471 -1.77849 0
M  V30 4005 H 407.479 -0.158403 -0.735127 0
M  V30 4006 H 409.45 -1.43645 -2.61551 0
M  V30 4007 C 408.199 0.117388 -3.47502 0
M  V30 4008 H 407.522 -0.606277 -3.95176 0
M  V30 4009 H 408.962 0.396993 -4.22137 0
M  V30 4010 C 407.421 1.35455 -3.0847 0
M  V30 4011 O 407.951 2.44944 -3.18379 0
M  V30 4012 N 406.157 1.23191 -2.63196 0
M  V30 4013 H 405.704 0.341006 -2.55333 0
M  V30 4014 H 405.662 2.06071 -2.37449 0
M  V30 4015 N 409.434 1.37368 -0.772513 0
M  V30 4016 C 410.682 1.99279 -0.336516 0
M  V30 4017 C 411.003 1.6163 1.09091 0
M  V30 4018 O 410.273 0.882109 1.74916 0
M  V30 4019 H 408.853 0.737063 -0.121435 0
M  V30 4020 H 411.515 1.67836 -0.990809 0
M  V30 4021 H 410.611 3.09332 -0.414763 0
M  V30 4022 N 410.912 0.523116 1.48665 0
M  V30 4023 C 412.328 0.180511 1.58576 0
M  V30 4024 C 412.528 -1.31597 1.52592 0
M  V30 4025 O 411.584 -2.0937 1.4114 0
M  V30 4026 C 412.897 0.776949 2.90489 0
M  V30 4027 C 414.445 0.745058 3.04003 0
M  V30 4028 C 414.92 1.31995 4.38567 0
M  V30 4029 N 416.411 1.28162 4.45117 0
M  V30 4030 C 417.146 1.6964 5.47731 0
M  V30 4031 N 416.642 2.18816 6.57337 0
M  V30 4032 N 418.435 1.6092 5.38573 0
M  V30 4033 H 410.586 1.4958 1.50797 0
M  V30 4034 H 412.849 0.621772 0.715614 0
M  V30 4035 H 412.555 1.82732 3.00503 0
M  V30 4036 H 412.429 0.25007 3.7637 0
M  V30 4037 H 414.816 -0.296532 2.93606 0
M  V30 4038 H 414.897 1.30933 2.1975 0
M  V30 4039 H 414.541 2.36043 4.49718 0
M  V30 4040 H 414.471 0.731418 5.21496 0
M  V30 4041 H 416.962 0.92155 3.66491 0
M  V30 4042 H 417.275 2.48478 7.31764 0
M  V30 4043 H 415.62 2.22805 6.58318 0
M  V30 4044 H 418.811 1.22304 4.5184 0
M  V30 4045 H 418.984 1.93567 6.18414 0
M  V30 4046 N 412.39 -1.55475 0.257931 0
M  V30 4047 C 413.618 -2.03609 -0.367559 0
M  V30 4048 C 414.033 -1.13687 -1.50734 0
M  V30 4049 O 413.39 -0.153479 -1.81853 0
M  V30 4050 C 413.441 -3.51001 -0.864908 0
M  V30 4051 O 413.162 -4.37499 0.229465 0
M  V30 4052 C 414.663 -4.14946 -1.55997 0
M  V30 4053 H 411.883 -0.665459 -0.0860521 0
M  V30 4054 H 414.427 -2.00843 0.385014 0
M  V30 4055 H 412.582 -3.54266 -1.56762 0
M  V30 4056 H 412.996 -5.24286 -0.14998 0
M  V30 4057 H 414.47 -5.19735 -1.85956 0
M  V30 4058 H 414.947 -3.6209 -2.4857 0
M  V30 4059 H 415.553 -4.15635 -0.901543 0
M  V30 4060 N 413.868 0.0150385 -1.57593 0
M  V30 4061 C 414.815 1.01126 -2.07466 0
M  V30 4062 C 415.785 1.35064 -0.966794 0
M  V30 4063 O 416.97 1.4516 -1.23827 0
M  V30 4064 C 414.11 2.30276 -2.57035 0
M  V30 4065 C 413.223 2.02373 -3.81666 0
M  V30 4066 C 412.358 3.25496 -4.19793 0
M  V30 4067 C 411.397 2.93211 -5.37303 0
M  V30 4068 N 410.534 4.08826 -5.70794 0
M  V30 4069 H 415.374 0.57901 -2.92321 0
M  V30 4070 H 412.911 0.27426 -1.44521 0
M  V30 4071 H 414.869 3.05757 -2.83846 0
M  V30 4072 H 413.499 2.71197 -1.75077 0
M  V30 4073 H 412.551 1.17327 -3.61854 0
M  V30 4074 H 413.863 1.74567 -4.67256 0
M  V30 4075 H 413.017 4.09333 -4.47807 0
M  V30 4076 H 411.756 3.56428 -3.32882 0
M  V30 4077 H 410.761 2.07777 -5.09027 0
M  V30 4078 H 411.986 2.63542 -6.25877 0
M  V30 4079 H 409.932 4.39682 -4.86842 0
M  V30 4080 H 409.849 3.84491 -6.50924 0
M  V30 4081 H 411.117 4.93496 -6.03392 0
M  V30 4082 N 415.346 1.54954 0.287554 0
M  V30 4083 C 416.309 1.86076 1.33823 0
M  V30 4084 C 417.309 0.734414 1.43049 0
M  V30 4085 O 418.499 1.00266 1.42452 0
M  V30 4086 C 415.631 2.05305 2.72144 0
M  V30 4087 H 416.824 2.79984 1.07465 0
M  V30 4088 H 414.377 1.47223 0.524902 0
M  V30 4089 H 415.112 1.1373 3.03704 0
M  V30 4090 H 414.897 2.873 2.66836 0
M  V30 4091 H 416.387 2.30706 3.48087 0
M  V30 4092 N 416.824 -0.551391 1.4764 0
M  V30 4093 C 417.757 -1.6738 1.5511 0
M  V30 4094 C 418.735 -1.5753 0.402856 0
M  V30 4095 O 419.919 -1.78307 0.611475 0
M  V30 4096 C 417.046 -3.05661 1.45908 0
M  V30 4097 C 416.092 -3.33938 2.65307 0
M  V30 4098 S 416.925 -3.22553 4.27457 0
M  V30 4099 C 418.081 -4.63317 4.20818 0
M  V30 4100 H 418.314 -1.6079 2.50068 0
M  V30 4101 H 415.847 -0.732674 1.35909 0
M  V30 4102 H 417.805 -3.8542 1.41286 0
M  V30 4103 H 416.466 -3.09711 0.523248 0
M  V30 4104 H 415.659 -4.34761 2.54948 0
M  V30 4105 H 415.261 -2.61809 2.67081 0
M  V30 4106 H 417.553 -5.54391 3.89431 0
M  V30 4107 H 418.496 -4.78732 5.21748 0
M  V30 4108 H 418.904 -4.41636 3.51593 0
M  V30 4109 N 418.302 -1.35869 -0.798587 0
M  V30 4110 C 419.548 -1.2978 -1.55836 0
M  V30 4111 C 419.881 0.125322 -1.93795 0
M  V30 4112 O 419.156 1.07658 -1.61987 0
M  V30 4113 C 419.439 -2.21188 -2.84162 0
M  V30 4114 C 419.292 -3.72155 -2.52628 0
M  V30 4115 C 420.611 -2.11545 -3.85923 0
M  V30 4116 H 417.73 -0.472769 -0.565383 0
M  V30 4117 H 420.372 -1.66341 -0.918192 0
M  V30 4118 H 418.522 -1.90139 -3.38791 0
M  V30 4119 H 420.194 -4.13682 -2.04121 0
M  V30 4120 H 418.437 -3.92042 -1.85704 0
M  V30 4121 H 419.108 -4.31511 -3.44242 0
M  V30 4122 H 421.584 -2.38855 -3.40716 0
M  V30 4123 H 420.46 -2.77688 -4.73477 0
M  V30 4124 H 420.721 -1.09987 -4.282 0
M  V30 4125 N 419.78 1.02168 -1.19998 0
M  V30 4126 C 420.743 2.08765 -0.94604 0
M  V30 4127 C 421.743 1.60618 0.0763846 0
M  V30 4128 O 422.933 1.73472 -0.159135 0
M  V30 4129 C 420.065 3.38262 -0.423255 0
M  V30 4130 H 421.258 2.32726 -1.89153 0
M  V30 4131 H 418.811 1.1889 -1.01464 0
M  V30 4132 H 419.546 3.19974 0.527938 0
M  V30 4133 H 419.331 3.74532 -1.16053 0
M  V30 4134 H 420.821 4.16759 -0.264911 0
M  V30 4135 N 421.258 1.00505 1.21394 0
M  V30 4136 C 422.498 0.696149 1.9218 0
M  V30 4137 C 422.862 -0.759099 1.76357 0
M  V30 4138 O 424.063 -1.17998 2.41516 0
M  V30 4139 C 422.334 1.10571 3.39866 0
M  V30 4140 S 423.893 0.91702 4.29111 0
M  V30 4141 H 420.711 0.254147 0.664026 0
M  V30 4142 H 423.313 1.28988 1.46909 0
M  V30 4143 H 422.017 2.16096 3.489 0
M  V30 4144 H 421.548 0.504268 3.90155 0
M  V30 4145 H 423.563 -0.185855 4.95852 0
M  V30 4146 N 422.737 -1.36956 0.779787 0
M  V30 4147 C 423.967 -2.03459 0.358877 0
M  V30 4148 C 424.375 -1.58939 -1.02641 0
M  V30 4149 O 423.718 -0.769777 -1.66794 0
M  V30 4150 C 423.78 -3.5796 0.332393 0
M  V30 4151 C 423.444 -4.25644 1.66362 0
M  V30 4152 C 424.441 -4.49205 2.61746 0
M  V30 4153 C 422.126 -4.63313 1.94027 0
M  V30 4154 C 424.12 -5.09503 3.82996 0
M  V30 4155 C 421.807 -5.2333 3.15546 0
M  V30 4156 C 422.805 -5.46363 4.0985 0
M  V30 4157 O 422.493 -6.05122 5.29228 0
M  V30 4158 H 422.225 -0.659767 0.147254 0
M  V30 4159 H 424.779 -1.76111 1.05708 0
M  V30 4160 H 423.009 -3.84388 -0.422237 0
M  V30 4161 H 424.698 -4.05852 -0.0625389 0
M  V30 4162 H 425.464 -4.20508 2.41657 0
M  V30 4163 H 421.343 -4.44715 1.21448 0
M  V30 4164 H 424.887 -5.27397 4.56617 0
M  V30 4165 H 420.784 -5.51451 3.35517 0
M  V30 4166 H 421.552 -6.23595 5.30161 0
M  V30 4167 N 424.215 -0.530993 -1.48385 0
M  V30 4168 C 425.626 -0.0907905 -1.86479 0
M  V30 4169 C 425.977 1.33213 -1.44044 0
M  V30 4170 O 425.102 1.99783 -0.831615 0
M  V30 4171 C 425.697 -0.157987 -3.38431 0
M  V30 4172 C 424.256 0.227026 -3.75715 0
M  V30 4173 C 423.403 -0.5173 -2.72432 0
M  V30 4174 H 426.354 -0.742186 -1.40276 0
M  V30 4175 H 426.375 0.630053 -3.75247 0
M  V30 4176 H 425.887 -1.19372 -3.69286 0
M  V30 4177 H 423.988 1.26486 -3.50474 0
M  V30 4178 H 424.101 -0.113288 -4.78966 0
M  V30 4179 H 422.465 0.0365527 -2.54674 0
M  V30 4180 H 423.248 -1.55368 -3.0613 0
M  V30 4181 N 425.693 1.55336 -0.266172 0
M  V30 4182 C 426.941 1.99003 0.35246 0
M  V30 4183 C 427.262 1.15591 1.57047 0
M  V30 4184 O 426.532 0.243268 1.94384 0
M  V30 4185 H 425.112 0.735025 0.133217 0
M  V30 4186 H 427.774 1.91367 -0.369434 0
M  V30 4187 H 426.87 3.05289 0.648453 0
M  V30 4188 N 427.171 -0.0066808 1.57599 0
M  V30 4189 C 428.119 -1.01851 2.09115 0
M  V30 4190 C 429.113 -1.36021 1.00969 0
M  V30 4191 O 430.319 -1.34663 1.19439 0
M  V30 4192 H 426.694 -0.346083 0.667631 0
M  V30 4193 H 428.665 -0.558394 2.93129 0
M  V30 4194 C 427.414 -2.30374 2.60429 0
M  V30 4195 H 426.737 -2.04947 3.43273 0
M  V30 4196 H 428.177 -2.99466 3.00161 0
M  V30 4197 C 426.636 -3.00893 1.51542 0
M  V30 4198 O 427.166 -3.91614 0.894484 0
M  V30 4199 N 425.372 -2.62603 1.2445 0
M  V30 4200 H 424.919 -1.88911 1.75129 0
M  V30 4201 H 424.877 -3.10101 0.518137 0
M  V30 4202 N 428.649 -1.55105 -0.279332 0
M  V30 4203 C 429.897 -1.75066 -1.00977 0
M  V30 4204 C 430.218 -0.551276 -1.87045 0
M  V30 4205 O 429.488 0.433984 -1.91032 0
M  V30 4206 H 428.068 -0.645578 -0.375816 0
M  V30 4207 H 430.73 -1.92497 -0.305089 0
M  V30 4208 H 429.826 -2.64894 -1.65038 0
M  V30 4209 N 430.127 0.543554 -1.4793 0
M  V30 4210 C 431.057 1.65888 -1.64327 0
M  V30 4211 C 432.038 1.62818 -0.492383 0
M  V30 4212 O 433.223 1.80226 -0.723338 0
M  V30 4213 C 430.353 3.04506 -1.67013 0
M  V30 4214 C 429.307 3.2243 -2.81466 0
M  V30 4215 C 428.633 4.61972 -2.69233 0
M  V30 4216 C 429.933 3.06496 -4.22915 0
M  V30 4217 H 431.627 1.52421 -2.57698 0
M  V30 4218 H 429.173 0.731849 -1.24016 0
M  V30 4219 H 431.126 3.82391 -1.77074 0
M  V30 4220 H 429.85 3.18964 -0.70212 0
M  V30 4221 H 428.509 2.46957 -2.70938 0
M  V30 4222 H 428.157 4.73247 -1.7043 0
M  V30 4223 H 427.857 4.74911 -3.46025 0
M  V30 4224 H 429.381 5.41974 -2.81242 0
M  V30 4225 H 430.795 3.74186 -4.34348 0
M  V30 4226 H 429.192 3.30938 -5.006 0
M  V30 4227 H 430.262 2.03077 -4.40327 0
M  V30 4228 N 431.605 1.3629 0.791371 0
M  V30 4229 C 432.853 1.30154 1.5461 0
M  V30 4230 C 433.174 -0.119409 1.94634 0
M  V30 4231 O 432.444 -1.05924 1.64794 0
M  V30 4232 H 431.024 0.478784 0.573389 0
M  V30 4233 H 433.686 1.70565 0.94306 0
M  V30 4234 H 432.782 1.92762 2.45457 0
M  V30 4235 N 433.083 -1.0153 1.20538 0
M  V30 4236 C 434.313 -1.78487 1.04048 0
M  V30 4237 C 434.721 -1.84631 -0.413292 0
M  V30 4238 O 434.064 -1.29919 -1.29872 0
M  V30 4239 C 434.126 -3.24367 1.55003 0
M  V30 4240 C 433.79 -3.41827 3.0332 0
M  V30 4241 C 434.787 -3.30941 4.00966 0
M  V30 4242 C 432.472 -3.67602 3.42307 0
M  V30 4243 C 434.466 -3.45577 5.35589 0
M  V30 4244 C 432.153 -3.81881 4.77085 0
M  V30 4245 C 433.151 -3.70874 5.73534 0
M  V30 4246 O 432.839 -3.84714 7.05868 0
M  V30 4247 H 432.571 -0.568108 0.366373 0
M  V30 4248 H 435.125 -1.28677 1.60098 0
M  V30 4249 H 433.355 -3.75266 0.933397 0
M  V30 4250 H 435.044 -3.82963 1.34514 0
M  V30 4251 H 435.81 -3.10964 3.72191 0
M  V30 4252 H 431.689 -3.75256 2.67776 0
M  V30 4253 H 435.233 -3.36902 6.10854 0
M  V30 4254 H 431.13 -4.01359 5.0555 0
M  V30 4255 H 431.898 -4.01724 7.13134 0
M  V30 4256 N 434.561 -1.01147 -1.20859 0
M  V30 4257 C 435.807 -0.698899 -1.90377 0
M  V30 4258 C 436.14 0.76904 -1.78324 0
M  V30 4259 O 435.415 1.55817 -1.16409 0
M  V30 4260 C 435.698 -1.12878 -3.41951 0
M  V30 4261 C 435.551 -2.65665 -3.62963 0
M  V30 4262 C 436.87 -0.696114 -4.3456 0
M  V30 4263 H 433.989 -0.255372 -0.691342 0
M  V30 4264 H 436.631 -1.25831 -1.42361 0
M  V30 4265 H 434.781 -0.652827 -3.82976 0
M  V30 4266 H 436.453 -3.21074 -3.31224 0
M  V30 4267 H 434.696 -3.06878 -3.06608 0
M  V30 4268 H 435.367 -2.90797 -4.69192 0
M  V30 4269 H 437.843 -1.10521 -4.01154 0
M  V30 4270 H 436.719 -1.025 -5.39245 0
M  V30 4271 H 436.98 0.402465 -4.40264 0
M  V30 4272 N 436.039 1.36541 -0.78704 0
M  V30 4273 C 437.455 1.52571 -0.46844 0
M  V30 4274 C 437.655 1.7415 1.01361 0
M  V30 4275 O 436.711 1.77163 1.79915 0
M  V30 4276 C 438.024 2.71299 -1.29682 0
M  V30 4277 C 439.572 2.85169 -1.29027 0
M  V30 4278 C 440.047 4.06898 -2.10233 0
M  V30 4279 N 441.538 4.1404 -2.07666 0
M  V30 4280 C 442.273 5.07301 -2.67271 0
M  V30 4281 N 441.769 6.06021 -3.35724 0
M  V30 4282 N 443.562 4.99898 -2.57018 0
M  V30 4283 H 435.713 1.20788 -1.74711 0
M  V30 4284 H 437.976 0.589364 -0.742532 0
M  V30 4285 H 437.682 2.61868 -2.34773 0
M  V30 4286 H 437.556 3.6539 -0.936479 0
M  V30 4287 H 439.943 2.94062 -0.247284 0
M  V30 4288 H 440.024 1.91992 -1.69035 0
M  V30 4289 H 439.668 3.98766 -3.1456 0
M  V30 4290 H 439.598 4.99218 -1.67597 0
M  V30 4291 H 442.089 3.43357 -1.57843 0
M  V30 4292 H 442.402 6.73741 -3.78541 0
M  V30 4293 H 440.747 6.06253 -3.39826 0
M  V30 4294 H 443.938 4.21724 -2.03142 0
M  V30 4295 H 444.111 5.72392 -3.03761 0
M  V30 4296 N 437.518 0.538854 1.48102 0
M  V30 4297 C 438.468 -0.23907 2.26743 0
M  V30 4298 C 439.452 -0.901923 1.33245 0
M  V30 4299 O 440.644 -0.803263 1.57723 0
M  V30 4300 C 437.773 -1.2799 3.18549 0
M  V30 4301 C 436.859 -0.621388 4.19523 0
M  V30 4302 N 437.25 0.298004 5.04921 0
M  V30 4303 C 435.548 -0.877533 4.37282 0
M  V30 4304 C 436.249 0.678757 5.77726 0
M  V30 4305 N 435.225 0.0377881 5.43587 0
M  V30 4306 H 439.027 0.468096 2.90148 0
M  V30 4307 H 436.541 0.357497 1.58416 0
M  V30 4308 H 438.538 -1.851 3.73555 0
M  V30 4309 H 437.198 -1.98835 2.567 0
M  V30 4310 H 438.209 0.671126 5.13533 0
M  V30 4311 H 434.886 -1.57588 3.86616 0
M  V30 4312 H 436.276 1.43316 6.56437 0
M  V30 4313 N 438.996 -1.55193 0.274407 0
M  V30 4314 C 440.242 -1.99877 -0.343086 0
M  V30 4315 C 440.575 -1.16256 -1.55558 0
M  V30 4316 O 439.85 -0.232462 -1.93106 0
M  V30 4317 C 440.133 -3.52706 -0.725965 0
M  V30 4318 C 439.986 -4.47081 0.493818 0
M  V30 4319 C 441.305 -4.11422 -1.56268 0
M  V30 4320 H 438.424 -0.726625 -0.123229 0
M  V30 4321 H 441.066 -1.86136 0.38121 0
M  V30 4322 H 439.216 -3.64546 -1.34307 0
M  V30 4323 H 440.888 -4.47186 1.13237 0
M  V30 4324 H 439.131 -4.1877 1.13201 0
M  V30 4325 H 439.802 -5.51699 0.18217 0
M  V30 4326 H 442.278 -4.02855 -1.04151 0
M  V30 4327 H 441.154 -5.18568 -1.79939 0
M  V30 4328 H 441.415 -3.61607 -2.54348 0
M  V30 4329 N 440.474 -0.00167713 -1.576 0
M  V30 4330 C 441.751 0.719951 -1.81868 0
M  V30 4331 C 442.131 1.91895 -0.879747 0
M  V30 4332 O 441.479 2.28389 0.0711423 0
M  V30 4333 C 441.689 1.12409 -3.30402 0
M  V30 4334 C 443.037 1.52724 -3.96182 0
M  V30 4335 O 444.061 1.21784 -3.34734 0
M  V30 4336 O 442.92 2.10265 -5.04431 0
M  V30 4337 H 440.014 0.350707 -0.748955 0
M  V30 4338 H 442.56 -0.0272597 -1.69678 0
M  V30 4339 H 441.332 0.269532 -3.90371 0
M  V30 4340 H 440.955 1.93035 -3.47596 0
M  V30 4341 N 441.952 1.55251 0.271103 0
M  V30 4342 C 442.9 1.89054 1.35504 0
M  V30 4343 C 443.894 0.767064 1.51038 0
M  V30 4344 O 445.1 0.951429 1.528 0
M  V30 4345 H 441.475 0.600072 0.45323 0
M  V30 4346 H 443.446 2.79598 1.04247 0
M  V30 4347 C 442.195 2.18068 2.70817 0
M  V30 4348 H 441.518 3.04005 2.59656 0
M  V30 4349 H 442.958 2.4564 3.45597 0
M  V30 4350 C 441.417 0.988901 3.2206 0
M  V30 4351 O 441.947 0.224501 4.01072 0
M  V30 4352 N 440.153 0.786085 2.79766 0
M  V30 4353 H 439.7 1.40937 2.15626 0
M  V30 4354 H 439.658 -0.00969349 3.14399 0
M  V30 4355 N 443.43 -0.535701 1.48216 0
M  V30 4356 C 444.841 -1.11769 1.49548 0
M  V30 4357 C 445.192 -1.94442 0.26207 0
M  V30 4358 O 444.317 -2.06987 -0.631287 0
M  V30 4359 C 444.912 -2.03367 2.70975 0
M  V30 4360 C 443.471 -2.56795 2.75196 0
M  V30 4361 C 442.618 -1.33631 2.42977 0
M  V30 4362 H 445.569 -0.321232 1.55415 0
M  V30 4363 H 445.59 -2.87569 2.49167 0
M  V30 4364 H 445.102 -1.43169 3.60727 0
M  V30 4365 H 443.203 -3.20731 1.89638 0
M  V30 4366 H 443.316 -2.9632 3.76472 0
M  V30 4367 H 441.68 -1.6502 1.94012 0
M  V30 4368 H 442.463 -0.75194 3.34964 0
M  V30 4369 N 444.908 -1.36708 -0.784132 0
M  V30 4370 C 445.858 -1.2799 -1.88686 0
M  V30 4371 C 446.842 -0.170282 -1.59996 0
M  V30 4372 O 448.034 -0.403571 -1.72338 0
M  V30 4373 C 445.163 -1.07674 -3.25977 0
M  V30 4374 C 444.249 -2.23127 -3.60659 0
M  V30 4375 N 444.64 -3.48467 -3.66612 0
M  V30 4376 C 442.938 -2.15009 -3.90752 0
M  V30 4377 C 443.639 -4.24525 -3.97685 0
M  V30 4378 N 442.615 -3.53524 -4.12943 0
M  V30 4379 H 446.417 -2.22927 -1.91522 0
M  V30 4380 H 443.931 -1.29503 -0.979933 0
M  V30 4381 H 445.928 -0.995151 -4.04849 0
M  V30 4382 H 444.588 -0.13643 -3.24413 0
M  V30 4383 H 445.599 -3.82534 -3.49125 0
M  V30 4384 H 442.276 -1.28963 -3.97083 0
M  V30 4385 H 443.666 -5.32944 -4.0917 0
M  V30 4386 N 446.386 1.0089 -1.21074 0
M  V30 4387 C 447.634 1.74262 -1.02358 0
M  V30 4388 C 447.955 1.89869 0.444393 0
M  V30 4389 O 447.225 1.44677 1.32081 0
M  V30 4390 H 445.805 0.645615 -0.375754 0
M  V30 4391 H 448.467 1.21596 -1.52317 0
M  V30 4392 H 447.563 2.74328 -1.4883 0
M  V30 4393 N 447.864 1.01787 1.20321 0
M  V30 4394 C 449.141 0.622978 1.85414 0
M  V30 4395 C 449.521 -0.898887 1.91006 0
M  V30 4396 O 448.869 -1.79112 1.41884 0
M  V30 4397 C 449.079 1.27226 3.24984 0
M  V30 4398 C 450.427 1.3885 4.01255 0
M  V30 4399 O 451.451 1.22857 3.34342 0
M  V30 4400 O 450.31 1.64705 5.2109 0
M  V30 4401 H 447.404 0.215116 0.798533 0
M  V30 4402 H 449.95 1.11533 1.27901 0
M  V30 4403 H 448.722 2.31209 3.15687 0
M  V30 4404 H 448.345 0.767069 3.90131 0
M  V30 4405 N 449.342 -1.36122 0.79427 0
M  V30 4406 C 450.59 -1.98718 0.368177 0
M  V30 4407 C 450.911 -1.63345 -1.06506 0
M  V30 4408 O 450.181 -0.909825 -1.73491 0
M  V30 4409 H 448.761 -0.735038 0.133146 0
M  V30 4410 H 451.423 -1.66239 1.01739 0
M  V30 4411 H 450.519 -3.08633 0.463923 0
M  V30 4412 N 450.82 -0.546701 -1.47814 0
M  V30 4413 C 452.236 -0.205717 -1.58269 0
M  V30 4414 C 452.436 1.29153 -1.54667 0
M  V30 4415 O 451.492 2.07098 -1.44453 0
M  V30 4416 C 452.805 -0.823065 -2.89216 0
M  V30 4417 C 454.353 -0.793328 -3.02779 0
M  V30 4418 C 454.828 -1.38955 -4.36412 0
M  V30 4419 N 456.319 -1.35227 -4.43021 0
M  V30 4420 C 457.054 -1.78333 -5.44963 0
M  V30 4421 N 456.55 -2.29246 -6.53772 0
M  V30 4422 N 458.343 -1.69467 -5.35945 0
M  V30 4423 H 450.494 -1.5196 -1.48398 0
M  V30 4424 H 452.757 -0.633078 -0.705632 0
M  V30 4425 H 452.463 -1.8749 -2.97558 0
M  V30 4426 H 452.337 -0.309915 -3.75925 0
M  V30 4427 H 454.724 0.249784 -2.94041 0
M  V30 4428 H 454.805 -1.34412 -2.17639 0
M  V30 4429 H 454.449 -2.43168 -4.45906 0
M  V30 4430 H 454.379 -0.814291 -5.20266 0
M  V30 4431 H 456.87 -0.979739 -3.64979 0
M  V30 4432 H 457.183 -2.60089 -7.27718 0
M  V30 4433 H 455.528 -2.3325 -6.5469 0
M  V30 4434 H 458.719 -1.29477 -4.49837 0
M  V30 4435 H 458.892 -2.03381 -6.15256 0
M  V30 4436 N 452.299 1.55045 -0.282633 0
M  V30 4437 C 453.539 2.01668 0.333088 0
M  V30 4438 C 453.903 1.1667 1.52486 0
M  V30 4439 O 455.104 1.52907 2.21072 0
M  V30 4440 C 453.375 3.50509 0.698442 0
M  V30 4441 S 454.934 4.19112 1.29963 0
M  V30 4442 H 451.752 0.703468 0.103219 0
M  V30 4443 H 454.354 1.91233 -0.406222 0
M  V30 4444 H 453.058 4.10015 -0.177693 0
M  V30 4445 H 452.589 3.64943 1.46902 0
M  V30 4446 H 454.604 4.23362 2.58803 0
M  V30 4447 N 453.777 0.010035 1.57597 0
M  V30 4448 C 455.026 -0.671945 1.90178 0
M  V30 4449 C 455.339 -1.74376 0.886131 0
M  V30 4450 O 456.545 -2.48107 1.10252 0
M  V30 4451 C 455.001 -1.24636 3.3763 0
M  V30 4452 C 454.609 -0.208838 4.47513 0
M  V30 4453 C 456.353 -1.90595 3.79307 0
M  V30 4454 C 454.26 -0.793814 5.86048 0
M  V30 4455 H 453.19 -0.25474 0.709665 0
M  V30 4456 H 455.841 0.0722206 1.83358 0
M  V30 4457 H 454.223 -2.04152 3.3932 0
M  V30 4458 H 455.397 0.562463 4.57354 0
M  V30 4459 H 453.712 0.350889 4.14919 0
M  V30 4460 H 456.309 -2.35284 4.80151 0
M  V30 4461 H 456.652 -2.74074 3.13352 0
M  V30 4462 H 457.185 -1.17798 3.79958 0
M  V30 4463 H 453.924 0.00240855 6.555 0
M  V30 4464 H 453.444 -1.53404 5.79851 0
M  V30 4465 H 455.123 -1.2894 6.34022 0
M  V30 4466 N 455.255 -1.55392 -0.262866 0
M  V30 4467 C 456.483 -1.80513 -1.01108 0
M  V30 4468 C 456.898 -0.583533 -1.79556 0
M  V30 4469 O 456.255 0.447585 -1.76926 0
M  V30 4470 C 456.306 -3.03648 -1.96164 0
M  V30 4471 O 456.027 -4.2109 -1.20893 0
M  V30 4472 C 457.528 -3.41448 -2.82715 0
M  V30 4473 H 454.748 -0.601079 -0.298236 0
M  V30 4474 H 457.292 -2.02425 -0.290582 0
M  V30 4475 H 455.447 -2.83832 -2.63663 0
M  V30 4476 H 455.861 -4.90771 -1.85051 0
M  V30 4477 H 457.335 -4.30751 -3.45192 0
M  V30 4478 H 457.812 -2.61308 -3.53008 0
M  V30 4479 H 458.418 -3.63559 -2.20693 0
M  V30 4480 N 456.733 0.527833 -1.48498 0
M  V30 4481 C 457.973 1.29401 -1.58224 0
M  V30 4482 C 458.337 1.90348 -0.251327 0
M  V30 4483 O 459.538 2.67868 -0.223588 0
M  V30 4484 C 457.809 2.35266 -2.69044 0
M  V30 4485 S 459.368 3.2158 -2.98549 0
M  V30 4486 H 456.186 0.440138 -0.558391 0
M  V30 4487 H 458.788 0.601079 -1.8603 0
M  V30 4488 H 457.492 1.88975 -3.64303 0
M  V30 4489 H 457.023 3.09263 -2.43146 0
M  V30 4490 H 459.038 4.35391 -2.38011 0
M  V30 4491 N 458.211 1.37122 0.776871 0
M  V30 4492 C 459.46 1.31373 1.53049 0
M  V30 4493 C 459.773 -0.101016 1.95339 0
M  V30 4494 O 460.979 -0.280953 2.70042 0
M  V30 4495 C 459.435 2.30567 2.76346 0
M  V30 4496 C 459.043 3.77543 2.41175 0
M  V30 4497 C 460.787 2.33818 3.54301 0
M  V30 4498 C 458.694 4.68481 3.60943 0
M  V30 4499 H 457.624 0.488234 0.574581 0
M  V30 4500 H 460.275 1.62554 0.851372 0
M  V30 4501 H 458.657 1.92396 3.46121 0
M  V30 4502 H 459.831 4.24521 1.79216 0
M  V30 4503 H 458.146 3.77187 1.76405 0
M  V30 4504 H 460.743 2.98965 4.4331 0
M  V30 4505 H 461.086 1.3503 3.93793 0
M  V30 4506 H 461.619 2.7067 2.91518 0
M  V30 4507 H 458.358 5.68378 3.26537 0
M  V30 4508 H 457.878 4.2621 4.22025 0
M  V30 4509 H 459.557 4.85366 4.27819 0
M  V30 4510 N 459.689 -1.00246 1.21608 0
M  V30 4511 C 460.919 -1.77373 1.05935 0
M  V30 4512 C 461.327 -1.85059 -0.393686 0
M  V30 4513 O 460.67 -1.31289 -1.28487 0
M  V30 4514 C 460.732 -3.22705 1.58435 0
M  V30 4515 C 460.396 -3.38591 3.06929 0
M  V30 4516 C 461.393 -3.2667 4.04454 0
M  V30 4517 C 459.078 -3.6395 3.46187 0
M  V30 4518 C 461.072 -3.39877 5.39224 0
M  V30 4519 C 458.759 -3.768 4.81108 0
M  V30 4520 C 459.757 -3.6477 5.77436 0
M  V30 4521 O 459.445 -3.77206 7.09909 0
M  V30 4522 H 459.177 -0.56419 0.372378 0
M  V30 4523 H 461.731 -1.26971 1.61454 0
M  V30 4524 H 459.961 -3.74255 0.973147 0
M  V30 4525 H 461.65 -3.81515 1.38568 0
M  V30 4526 H 462.416 -3.06999 3.75468 0
M  V30 4527 H 458.295 -3.72395 2.71741 0
M  V30 4528 H 461.839 -3.30404 6.14393 0
M  V30 4529 H 457.736 -3.95975 5.09779 0
M  V30 4530 H 458.504 -3.94138 7.17355 0
M  V30 4531 N 461.167 -1.02423 -1.1978 0
M  V30 4532 C 462.397 -0.736387 -1.93031 0
M  V30 4533 C 462.805 0.708023 -1.75453 0
M  V30 4534 O 462.148 1.4927 -1.07071 0
M  V30 4535 C 462.21 -1.00194 -3.45255 0
M  V30 4536 C 461.874 -2.43698 -3.86601 0
M  V30 4537 C 462.871 -3.41814 -3.91738 0
M  V30 4538 C 460.556 -2.77975 -4.18372 0
M  V30 4539 C 462.55 -4.72265 -4.28071 0
M  V30 4540 C 460.237 -4.08636 -4.54378 0
M  V30 4541 C 461.235 -5.05592 -4.59201 0
M  V30 4542 O 460.923 -6.33914 -4.94376 0
M  V30 4543 H 460.655 -0.269116 -0.620123 0
M  V30 4544 H 463.209 -1.37043 -1.52998 0
M  V30 4545 H 461.439 -0.310747 -3.85449 0
M  V30 4546 H 463.128 -0.704488 -3.9974 0
M  V30 4547 H 463.894 -3.16671 -3.67348 0
M  V30 4548 H 459.773 -2.0319 -4.13805 0
M  V30 4549 H 463.317 -5.4794 -4.3175 0
M  V30 4550 H 459.214 -4.33556 -4.78226 0
M  V30 4551 H 459.982 -6.38317 -5.12341 0
M  V30 4552 N 462.645 1.35699 -0.801477 0
M  V30 4553 C 463.575 2.32436 -0.222658 0
M  V30 4554 C 464.556 1.5723 0.649057 0
M  V30 4555 O 465.741 1.85324 0.580387 0
M  V30 4556 C 462.871 3.41469 0.633719 0
M  V30 4557 C 461.825 4.27774 -0.139083 0
M  V30 4558 C 461.151 5.28082 0.838666 0
M  V30 4559 C 462.451 5.04946 -1.33517 0
M  V30 4560 H 464.145 2.81094 -1.03086 0
M  V30 4561 H 461.691 1.35146 -0.497155 0
M  V30 4562 H 463.644 4.08143 1.04868 0
M  V30 4563 H 462.368 2.91408 1.47475 0
M  V30 4564 H 461.027 3.62673 -0.535156 0
M  V30 4565 H 460.675 4.7429 1.67506 0
M  V30 4566 H 460.375 5.86695 0.32594 0
M  V30 4567 H 461.899 5.97628 1.25194 0
M  V30 4568 H 463.313 5.64593 -0.995349 0
M  V30 4569 H 461.71 5.7303 -1.78202 0
M  V30 4570 H 462.78 4.35886 -2.12442 0
M  V30 4571 N 464.123 0.554532 1.47522 0
M  V30 4572 C 465.071 -0.207765 2.3167 0
M  V30 4573 C 466.065 -0.911914 1.4276 0
M  V30 4574 O 467.271 -0.833504 1.59539 0
M  V30 4575 H 463.646 -0.0858726 0.747081 0
M  V30 4576 H 465.617 0.521178 2.93813 0
M  V30 4577 C 464.366 -1.2263 3.25357 0
M  V30 4578 H 463.689 -0.693887 3.93732 0
M  V30 4579 H 465.129 -1.73062 3.87073 0
M  V30 4580 C 463.588 -2.27278 2.4869 0
M  V30 4581 O 464.118 -3.34156 2.22941 0
M  V30 4582 N 462.324 -2.01134 2.09746 0
M  V30 4583 H 461.871 -1.14232 2.30887 0
M  V30 4584 H 461.829 -2.71369 1.58765 0
M  V30 4585 N 465.601 -1.54893 0.290851 0
M  V30 4586 C 466.533 -2.20564 -0.623236 0
M  V30 4587 C 467.546 -1.19519 -1.1054 0
M  V30 4588 O 468.735 -1.46165 -1.02459 0
M  V30 4589 C 465.835 -2.83033 -1.86401 0
M  V30 4590 C 465.008 -4.09916 -1.52604 0
M  V30 4591 C 464.067 -4.56284 -2.62091 0
M  V30 4592 O 463.093 -5.2171 -2.27612 0
M  V30 4593 N 464.295 -4.27746 -3.92446 0
M  V30 4594 H 467.06 -2.99638 -0.0610915 0
M  V30 4595 H 464.621 -1.61508 0.112615 0
M  V30 4596 H 466.613 -3.1099 -2.58973 0
M  V30 4597 H 465.183 -2.0786 -2.33481 0
M  V30 4598 H 464.403 -3.89078 -0.633424 0
M  V30 4599 H 465.691 -4.92554 -1.27547 0
M  V30 4600 H 465.089 -3.7531 -4.23272 0
M  V30 4601 H 463.646 -4.60437 -4.61347 0
M  V30 4602 N 467.08 -0.0183926 -1.57589 0
M  V30 4603 C 468.028 0.985111 -2.10709 0
M  V30 4604 C 469.022 1.34397 -1.0312 0
M  V30 4605 O 470.228 1.32746 -1.21567 0
M  V30 4606 H 466.603 0.335418 -0.673052 0
M  V30 4607 H 468.574 0.511689 -2.9398 0
M  V30 4608 C 467.323 2.26202 -2.64061 0
M  V30 4609 H 466.646 1.9946 -3.4649 0
M  V30 4610 H 468.086 2.94652 -3.04887 0
M  V30 4611 C 466.545 2.98444 -1.5631 0
M  V30 4612 O 467.075 3.90142 -0.956674 0
M  V30 4613 N 465.281 2.6059 -1.28612 0
M  V30 4614 H 464.828 1.86101 -1.78112 0
M  V30 4615 H 464.786 3.09238 -0.567406 0
M  V30 4616 N 468.558 1.5553 0.254621 0
M  V30 4617 C 469.804 1.7818 0.980989 0
M  V30 4618 C 470.159 0.586059 1.83257 0
M  V30 4619 O 469.452 -0.420889 1.8692 0
M  V30 4620 C 469.646 3.03891 1.88109 0
M  V30 4621 C 469.475 4.35578 1.11812 0
M  V30 4622 C 468.245 4.98497 0.826343 0
M  V30 4623 C 470.443 5.11869 0.499486 0
M  V30 4624 N 468.425 6.13888 0.0385095 0
M  V30 4625 C 469.796 6.1981 -0.153292 0
M  V30 4626 C 471.851 4.96216 0.409175 0
M  V30 4627 C 470.554 7.13801 -0.8877 0
M  V30 4628 C 472.58 5.90578 -0.311683 0
M  V30 4629 C 471.942 6.97922 -0.953129 0
M  V30 4630 H 468.041 0.704057 0.340335 0
M  V30 4631 H 470.625 1.93025 0.254855 0
M  V30 4632 H 468.796 2.90389 2.57932 0
M  V30 4633 H 470.528 3.14869 2.54244 0
M  V30 4634 H 467.283 4.59769 1.13621 0
M  V30 4635 H 467.707 6.76129 -0.343275 0
M  V30 4636 H 472.349 4.1331 0.890765 0
M  V30 4637 H 470.067 7.96214 -1.38092 0
M  V30 4638 H 473.653 5.80544 -0.382125 0
M  V30 4639 H 472.533 7.69681 -1.50203 0
M  V30 4640 N 470.036 -0.519951 1.48776 0
M  V30 4641 C 471.313 -1.28123 1.47797 0
M  V30 4642 C 471.693 -2.10196 0.195157 0
M  V30 4643 O 471.041 -2.13167 -0.822925 0
M  V30 4644 C 471.251 -2.15413 2.74587 0
M  V30 4645 C 472.599 -2.75225 3.23321 0
M  V30 4646 O 473.623 -2.25694 2.75574 0
M  V30 4647 O 472.482 -3.65346 4.06429 0
M  V30 4648 H 469.576 -0.578793 0.590701 0
M  V30 4649 H 472.122 -0.535779 1.6102 0
M  V30 4650 H 470.894 -1.54617 3.59457 0
M  V30 4651 H 470.517 -2.97186 2.64132 0
M  V30 4652 N 471.514 -1.37532 -0.769588 0
M  V30 4653 C 472.76 -1.33057 -1.53048 0
M  V30 4654 C 473.093 0.0841865 -1.94017 0
M  V30 4655 O 472.368 1.04198 -1.64235 0
M  V30 4656 C 472.651 -2.27166 -2.79406 0
M  V30 4657 C 472.504 -3.77429 -2.44677 0
M  V30 4658 C 473.823 -2.19683 -3.81349 0
M  V30 4659 H 470.942 -0.484655 -0.555228 0
M  V30 4660 H 473.584 -1.68251 -0.882702 0
M  V30 4661 H 471.734 -1.97283 -3.34682 0
M  V30 4662 H 473.406 -4.17918 -1.953 0
M  V30 4663 H 471.649 -3.95892 -1.77346 0
M  V30 4664 H 472.32 -4.38716 -3.35011 0
M  V30 4665 H 474.796 -2.46029 -3.35573 0
M  V30 4666 H 473.672 -2.87668 -4.67481 0
M  V30 4667 H 473.933 -1.19045 -4.25771 0
M  V30 4668 N 472.992 0.995999 -1.22138 0
M  V30 4669 C 473.939 2.08551 -0.988687 0
M  V30 4670 C 474.909 1.65864 0.0885021 0
M  V30 4671 O 476.094 1.90704 -0.0604589 0
M  V30 4672 C 473.234 3.40374 -0.569191 0
M  V30 4673 C 472.347 3.96421 -1.71681 0
M  V30 4674 C 471.482 5.1639 -1.2456 0
M  V30 4675 C 470.521 5.64567 -2.36497 0
M  V30 4676 N 469.658 6.75777 -1.90445 0
M  V30 4677 H 474.498 2.2779 -1.92135 0
M  V30 4678 H 472.035 1.1168 -0.957388 0
M  V30 4679 H 473.993 4.16068 -0.307166 0
M  V30 4680 H 472.623 3.21145 0.326462 0
M  V30 4681 H 471.675 3.17628 -2.09324 0
M  V30 4682 H 472.987 4.2816 -2.55891 0
M  V30 4683 H 472.141 5.99362 -0.940774 0
M  V30 4684 H 470.88 4.86266 -0.373662 0
M  V30 4685 H 469.885 4.80185 -2.67772 0
M  V30 4686 H 471.11 5.96716 -3.24202 0
M  V30 4687 H 469.056 6.47443 -1.05609 0
M  V30 4688 H 468.973 7.06818 -2.68223 0
M  V30 4689 H 470.241 7.62262 -1.63022 0
M  V30 4690 N 474.47 1.03057 1.19235 0
M  V30 4691 C 475.716 0.729098 1.89241 0
M  V30 4692 C 476.049 -0.740573 1.79525 0
M  V30 4693 O 475.324 -1.53946 1.18874 0
M  V30 4694 C 475.607 1.18304 3.40112 0
M  V30 4695 C 475.46 2.71406 3.5869 0
M  V30 4696 C 476.779 0.765161 4.33397 0
M  V30 4697 H 473.898 0.266338 0.687192 0
M  V30 4698 H 476.54 1.28079 1.40341 0
M  V30 4699 H 474.69 0.713672 3.81889 0
M  V30 4700 H 476.362 3.26303 3.26074 0
M  V30 4701 H 474.605 3.11717 3.01687 0
M  V30 4702 H 475.276 2.98225 4.64506 0
M  V30 4703 H 477.752 1.16889 3.99345 0
M  V30 4704 H 476.628 1.11065 5.37546 0
M  V30 4705 H 476.889 -0.332372 4.40849 0
M  V30 4706 N 475.948 -1.35272 0.808662 0
M  V30 4707 C 476.898 -2.27181 0.193124 0
M  V30 4708 C 477.882 -1.47871 -0.634265 0
M  V30 4709 O 479.074 -1.70048 -0.491182 0
M  V30 4710 C 476.203 -3.36979 -0.655751 0
M  V30 4711 C 475.289 -4.23712 0.181481 0
M  V30 4712 N 475.68 -4.90225 1.24551 0
M  V30 4713 C 473.978 -4.45985 -0.0365493 0
M  V30 4714 C 474.679 -5.54537 1.75682 0
M  V30 4715 N 473.655 -5.33107 1.06294 0
M  V30 4716 H 477.457 -2.76101 1.00724 0
M  V30 4717 H 474.971 -1.48823 0.650029 0
M  V30 4718 H 476.968 -4.01774 -1.11279 0
M  V30 4719 H 475.628 -2.89611 -1.46819 0
M  V30 4720 H 476.639 -4.91641 1.62818 0
M  V30 4721 H 473.316 -4.09409 -0.817964 0
M  V30 4722 H 474.706 -6.17597 2.64621 0
M  V30 4723 N 477.426 -0.562348 -1.47226 0
M  V30 4724 C 478.674 -0.0401371 -2.0206 0
M  V30 4725 C 478.995 1.3165 -1.43852 0
M  V30 4726 O 478.265 1.85976 -0.615599 0
M  V30 4727 H 476.845 -0.0118479 -0.746906 0
M  V30 4728 H 479.507 -0.73352 -1.8057 0
M  V30 4729 H 478.603 0.0441254 -3.12069 0
M  V30 4730 N 478.904 1.54736 -0.299062 0
M  V30 4731 C 480.152 1.99706 0.31017 0
M  V30 4732 C 480.473 1.18896 1.54559 0
M  V30 4733 O 479.743 0.284445 1.93824 0
M  V30 4734 H 478.323 0.737686 0.117596 0
M  V30 4735 H 480.985 1.9054 -0.409943 0
M  V30 4736 H 480.081 3.06596 0.58355 0
M  V30 4737 N 480.382 0.0267497 1.57577 0
M  V30 4738 C 481.312 -0.954308 2.13108 0
M  V30 4739 C 482.293 -1.34088 1.04663 0
M  V30 4740 O 483.478 -1.41992 1.32484 0
M  V30 4741 C 480.608 -2.23744 2.65624 0
M  V30 4742 C 479.562 -1.99168 3.78835 0
M  V30 4743 C 478.888 -3.33726 4.17769 0
M  V30 4744 C 480.188 -1.33277 5.0501 0
M  V30 4745 H 481.882 -0.491848 2.95332 0
M  V30 4746 H 479.428 -0.23514 1.42067 0
M  V30 4747 H 481.381 -2.92754 3.03106 0
M  V30 4748 H 480.105 -2.72151 1.80558 0
M  V30 4749 H 478.764 -1.32577 3.41788 0
M  V30 4750 H 478.412 -3.79888 3.29688 0
M  V30 4751 H 478.112 -3.18089 4.94058 0
M  V30 4752 H 479.636 -4.04008 4.57832 0
M  V30 4753 H 481.05 -1.92283 5.40093 0
M  V30 4754 H 479.447 -1.28045 5.8628 0
M  V30 4755 H 480.517 -0.305411 4.83937 0
M  V30 4756 N 481.861 -1.55662 -0.24637 0
M  V30 4757 C 482.791 -1.93377 -1.30873 0
M  V30 4758 C 483.772 -0.798773 -1.50179 0
M  V30 4759 O 484.957 -1.0591 -1.62778 0
M  V30 4760 C 482.087 -2.22893 -2.66338 0
M  V30 4761 C 481.041 -3.38649 -2.61727 0
M  V30 4762 C 480.367 -3.53708 -4.00992 0
M  V30 4763 C 481.667 -4.74323 -2.18666 0
M  V30 4764 H 483.361 -2.82363 -0.995552 0
M  V30 4765 H 480.907 -1.35854 -0.477464 0
M  V30 4766 H 482.86 -2.47866 -3.40794 0
M  V30 4767 H 481.584 -1.30733 -2.99293 0
M  V30 4768 H 480.243 -3.13685 -1.89729 0
M  V30 4769 H 479.891 -2.58967 -4.31214 0
M  V30 4770 H 479.591 -4.31551 -3.98795 0
M  V30 4771 H 481.115 -3.81003 -4.77147 0
M  V30 4772 H 482.529 -4.98665 -2.82854 0
M  V30 4773 H 480.926 -5.55273 -2.27579 0
M  V30 4774 H 481.996 -4.71349 -1.13834 0
M  V30 4775 N 483.339 0.512053 -1.4905 0
M  V30 4776 C 484.271 1.63121 -1.6101 0
M  V30 4777 C 485.284 1.55145 -0.493352 0
M  V30 4778 O 486.473 1.61278 -0.764955 0
M  V30 4779 C 483.573 3.01863 -1.54052 0
M  V30 4780 C 482.746 3.35138 -2.81072 0
M  V30 4781 C 481.805 4.5324 -2.67319 0
M  V30 4782 O 480.831 4.55571 -3.41238 0
M  V30 4783 N 482.033 5.52495 -1.78127 0
M  V30 4784 H 484.798 1.53292 -2.5753 0
M  V30 4785 H 482.359 0.699706 -1.45999 0
M  V30 4786 H 484.351 3.78774 -1.42521 0
M  V30 4787 H 482.921 3.05675 -0.654345 0
M  V30 4788 H 482.141 2.4723 -3.07036 0
M  V30 4789 H 483.429 3.54162 -3.65304 0
M  V30 4790 H 482.827 5.53403 -1.17308 0
M  V30 4791 H 481.384 6.28553 -1.72525 0
M  V30 4792 N 484.817 1.37938 0.762283 0
M  V30 4793 C 486.066 1.32989 1.51647 0
M  V30 4794 C 486.379 -0.0802922 1.95435 0
M  V30 4795 O 487.585 -0.252295 2.70325 0
M  V30 4796 C 486.041 2.33485 2.73885 0
M  V30 4797 C 485.649 3.80079 2.37157 0
M  V30 4798 C 487.393 2.37563 3.51801 0
M  V30 4799 C 485.3 4.72283 3.55954 0
M  V30 4800 H 484.23 0.494301 0.56937 0
M  V30 4801 H 486.881 1.63448 0.834083 0
M  V30 4802 H 485.263 1.96056 3.44061 0
M  V30 4803 H 486.437 4.26398 1.74704 0
M  V30 4804 H 484.752 3.79037 1.72395 0
M  V30 4805 H 487.349 3.0365 4.40114 0
M  V30 4806 H 487.692 1.39199 3.92338 0
M  V30 4807 H 488.225 2.73747 2.8863 0
M  V30 4808 H 484.964 5.7181 3.2049 0
M  V30 4809 H 484.484 4.30663 4.1748 0
M  V30 4810 H 486.163 4.89876 4.22647 0
M  V30 4811 N 486.295 -0.989507 1.22664 0
M  V30 4812 C 487.542 -1.72953 1.05325 0
M  V30 4813 C 487.87 -1.90104 -0.411168 0
M  V30 4814 O 487.125 -1.44386 -1.32103 0
M  V30 4815 C 487.424 -3.13649 1.71345 0
M  V30 4816 C 487.09 -3.16403 3.21248 0
M  V30 4817 C 485.752 -3.16862 3.62149 0
M  V30 4818 C 488.104 -3.12428 4.17179 0
M  V30 4819 C 485.432 -3.11051 4.97458 0
M  V30 4820 C 487.784 -3.08159 5.52468 0
M  V30 4821 C 486.448 -3.06935 5.92746 0
M  V30 4822 H 485.718 -0.632881 0.385412 0
M  V30 4823 H 488.365 -1.15863 1.52473 0
M  V30 4824 H 486.67 -3.74069 1.16532 0
M  V30 4825 H 488.367 -3.69658 1.55416 0
M  V30 4826 H 484.957 -3.16798 2.88682 0
M  V30 4827 H 489.141 -3.11221 3.86595 0
M  V30 4828 H 484.397 -3.0845 5.27891 0
M  V30 4829 H 488.571 -3.04039 6.26525 0
M  V30 4830 H 486.198 -3.02186 6.97558 0
M  V30 4831 N 487.773 -1.03688 -1.18687 0
M  V30 4832 C 489.184 -0.766488 -1.70241 0
M  V30 4833 C 489.535 0.713052 -1.82784 0
M  V30 4834 O 488.66 1.55529 -1.50465 0
M  V30 4835 C 489.255 -1.38475 -3.09209 0
M  V30 4836 C 487.814 -1.16276 -3.5799 0
M  V30 4837 C 486.961 -1.4778 -2.34641 0
M  V30 4838 H 489.912 -1.20378 -1.03415 0
M  V30 4839 H 489.933 -0.785939 -3.72295 0
M  V30 4840 H 489.445 -2.46157 -3.00048 0
M  V30 4841 H 487.546 -0.104508 -3.72453 0
M  V30 4842 H 487.659 -1.8571 -4.41643 0
M  V30 4843 H 486.023 -0.897366 -2.38368 0
M  V30 4844 H 486.806 -2.56562 -2.28102 0
M  V30 4845 N 489.251 1.34841 -0.815825 0
M  V30 4846 C 490.161 2.33425 -0.234462 0
M  V30 4847 C 491.177 1.62295 0.627413 0
M  V30 4848 O 492.353 1.94109 0.536987 0
M  V30 4849 C 489.418 3.41471 0.599849 0
M  V30 4850 C 488.479 4.28362 -0.283596 0
M  V30 4851 C 487.712 5.31248 0.51099 0
M  V30 4852 O 487.935 5.43056 1.7449 0
M  V30 4853 O 486.869 6.01812 -0.10297 0
M  V30 4854 H 490.695 2.84962 -1.05024 0
M  V30 4855 H 488.28 1.37774 -0.577809 0
M  V30 4856 H 490.162 4.07464 1.07475 0
M  V30 4857 H 488.837 2.9219 1.39308 0
M  V30 4858 H 487.744 3.65318 -0.805836 0
M  V30 4859 H 489.077 4.81066 -1.041 0
M  V30 4860 N 490.729 0.570148 1.46925 0
M  V30 4861 C 491.977 0.0508523 2.02036 0
M  V30 4862 C 492.298 -1.30885 1.44548 0
M  V30 4863 O 491.568 -1.85647 0.625453 0
M  V30 4864 H 490.148 0.0158088 0.746833 0
M  V30 4865 H 492.81 0.743086 1.80178 0
M  V30 4866 H 491.906 -0.027575 3.12088 0
M  V30 4867 N 492.207 -1.54576 0.307264 0
M  V30 4868 C 493.623 -1.59534 -0.0459251 0
M  V30 4869 C 493.823 -1.32414 -1.51884 0
M  V30 4870 O 492.879 -1.1006 -2.27251 0
M  V30 4871 C 494.192 -2.98566 0.357649 0
M  V30 4872 C 495.74 -3.11491 0.306937 0
M  V30 4873 C 496.215 -4.52842 0.685427 0
M  V30 4874 N 497.706 -4.58782 0.638203 0
M  V30 4875 C 498.441 -5.66238 0.903458 0
M  V30 4876 N 497.937 -6.81703 1.23501 0
M  V30 4877 N 499.73 -5.55937 0.830102 0
M  V30 4878 H 491.881 -1.70464 1.26712 0
M  V30 4879 H 494.144 -0.79647 0.514139 0
M  V30 4880 H 493.85 -3.23356 1.38325 0
M  V30 4881 H 493.724 -3.76117 -0.285565 0
M  V30 4882 H 496.111 -2.86446 -0.709424 0
M  V30 4883 H 496.192 -2.36081 0.984861 0
M  V30 4884 H 495.836 -4.78618 1.69963 0
M  V30 4885 H 495.766 -5.26598 -0.0146346 0
M  V30 4886 H 498.257 -3.75849 0.393138 0
M  V30 4887 H 498.57 -7.59582 1.42322 0
M  V30 4888 H 496.915 -6.8324 1.27311 0
M  V30 4889 H 500.106 -4.64608 0.570693 0
M  V30 4890 H 500.279 -6.39597 1.04019 0
M  V30 4891 N 493.685 -0.035106 -1.57561 0
M  V30 4892 C 495.096 0.502885 -1.798 0
M  V30 4893 C 495.447 1.71892 -0.945921 0
M  V30 4894 O 494.572 2.15822 -0.157991 0
M  V30 4895 C 495.167 0.919097 -3.26095 0
M  V30 4896 C 493.726 1.40216 -3.49308 0
M  V30 4897 C 492.873 0.369709 -2.74824 0
M  V30 4898 H 495.824 -0.261102 -1.56537 0
M  V30 4899 H 495.845 1.78308 -3.36135 0
M  V30 4900 H 495.357 0.0338526 -3.88085 0
M  V30 4901 H 493.458 2.30714 -2.92578 0
M  V30 4902 H 493.571 1.40541 -4.58023 0
M  V30 4903 H 491.935 0.839113 -2.40481 0
M  V30 4904 H 492.718 -0.507173 -3.39533 0
M  V30 4905 N 495.163 1.55791 0.238111 0
M  V30 4906 C 496.409 1.78297 0.966337 0
M  V30 4907 C 496.742 0.601903 1.84637 0
M  V30 4908 O 496.017 -0.399499 1.90353 0
M  V30 4909 C 496.3 3.10758 1.81939 0
M  V30 4910 C 496.153 4.39283 0.966958 0
M  V30 4911 C 497.472 3.39519 2.80027 0
M  V30 4912 H 494.591 0.648654 0.349882 0
M  V30 4913 H 497.233 1.88525 0.236253 0
M  V30 4914 H 495.383 3.02168 2.44185 0
M  V30 4915 H 497.055 4.59873 0.362514 0
M  V30 4916 H 495.298 4.32948 0.271669 0
M  V30 4917 H 495.969 5.28368 1.59784 0
M  V30 4918 H 498.445 3.48128 2.27917 0
M  V30 4919 H 497.321 4.33402 3.36829 0
M  V30 4920 H 497.582 2.60864 3.56934 0
M  V30 4921 N 496.642 -0.504142 1.49319 0
M  V30 4922 C 497.888 -1.26033 1.58882 0
M  V30 4923 C 498.221 -1.92268 0.273274 0
M  V30 4924 O 497.496 -1.80567 -0.72291 0
M  V30 4925 C 497.779 -2.32976 2.7458 0
M  V30 4926 C 497.632 -1.71263 4.1592 0
M  V30 4927 C 498.951 -3.34561 2.85932 0
M  V30 4928 H 496.07 -0.456863 0.578312 0
M  V30 4929 H 498.712 -0.558965 1.81592 0
M  V30 4930 H 496.862 -2.92796 2.55348 0
M  V30 4931 H 498.534 -1.15294 4.4666 0
M  V30 4932 H 496.777 -1.01686 4.21714 0
M  V30 4933 H 497.448 -2.48816 4.92742 0
M  V30 4934 H 499.924 -2.84727 3.0343 0
M  V30 4935 H 498.8 -4.06754 3.68568 0
M  V30 4936 H 499.061 -3.96695 1.95154 0
M  V30 4937 N 498.12 -1.38341 -0.754957 0
M  V30 4938 C 499.083 -1.35262 -1.85032 0
M  V30 4939 C 500.083 -0.253393 -1.58791 0
M  V30 4940 O 501.273 -0.510205 -1.66561 0
M  V30 4941 C 498.405 -1.10544 -3.22479 0
M  V30 4942 H 499.598 -2.32712 -1.8917 0
M  V30 4943 H 497.151 -1.23614 -0.956515 0
M  V30 4944 H 497.886 -0.136952 -3.24011 0
M  V30 4945 H 497.671 -1.90127 -3.4292 0
M  V30 4946 H 499.161 -1.11082 -4.02555 0
M  V30 4947 N 499.598 0.982988 -1.23187 0
M  V30 4948 C 500.546 2.09616 -1.00817 0
M  V30 4949 C 501.54 1.6932 0.0519995 0
M  V30 4950 O 502.746 1.79715 -0.101284 0
M  V30 4951 H 499.121 0.685628 -0.308899 0
M  V30 4952 H 501.092 2.25652 -1.95253 0
M  V30 4953 C 499.841 3.42249 -0.613243 0
M  V30 4954 H 499.164 3.73705 -1.42073 0
M  V30 4955 H 500.604 4.21086 -0.496208 0
M  V30 4956 C 499.063 3.30002 0.678233 0
M  V30 4957 O 499.593 3.6263 1.72807 0
M  V30 4958 N 497.799 2.83164 0.653165 0
M  V30 4959 H 497.346 2.56811 -0.201492 0
M  V30 4960 H 497.304 2.75352 1.51752 0
M  V30 4961 N 501.076 1.04316 1.18135 0
M  V30 4962 C 502.325 0.74319 1.87509 0
M  V30 4963 C 502.638 -0.732136 1.81381 0
M  V30 4964 O 503.844 -1.14572 2.46141 0
M  V30 4965 C 502.3 1.27913 3.36402 0
M  V30 4966 C 501.908 2.78326 3.51053 0
M  V30 4967 C 503.652 1.0558 4.11161 0
M  V30 4968 C 501.559 3.25266 4.93919 0
M  V30 4969 H 500.489 0.274313 0.702331 0
M  V30 4970 H 503.14 1.25931 1.33467 0
M  V30 4971 H 501.522 0.690853 3.89927 0
M  V30 4972 H 502.696 3.42933 3.07788 0
M  V30 4973 H 501.011 2.991 2.89704 0
M  V30 4974 H 503.608 1.38161 5.16542 0
M  V30 4975 H 503.951 -0.00684729 4.16299 0
M  V30 4976 H 504.484 1.60882 3.63816 0
M  V30 4977 H 501.223 4.30922 4.9395 0
M  V30 4978 H 500.743 2.65396 5.3789 0
M  V30 4979 H 502.422 3.19433 5.62647 0
M  V30 4980 N 502.554 -1.34406 0.822964 0
M  V30 4981 C 503.464 -2.33298 0.246838 0
M  V30 4982 C 504.48 -1.62625 -0.618797 0
M  V30 4983 O 505.656 -1.94391 -0.526685 0
M  V30 4984 C 502.721 -3.41785 -0.581731 0
M  V30 4985 C 501.782 -4.28206 0.306309 0
M  V30 4986 C 501.015 -5.31512 -0.48281 0
M  V30 4987 O 501.238 -5.43973 -1.71607 0
M  V30 4988 O 500.172 -6.01749 0.134884 0
M  V30 4989 H 503.998 -2.84401 1.06534 0
M  V30 4990 H 501.583 -1.37466 0.585108 0
M  V30 4991 H 503.465 -4.08028 -1.05313 0
M  V30 4992 H 502.14 -2.92925 -1.37756 0
M  V30 4993 H 501.047 -3.64885 0.825199 0
M  V30 4994 H 502.38 -4.80507 1.06649 0
M  V30 4995 N 504.032 -0.577932 -1.46621 0
M  V30 4996 C 505.443 -0.150071 -1.86096 0
M  V30 4997 C 505.794 1.28563 -1.48209 0
M  V30 4998 O 504.919 1.97036 -0.894754 0
M  V30 4999 C 505.514 -0.265576 -3.37758 0
M  V30 5000 C 504.073 0.10738 -3.76247 0
M  V30 5001 C 503.22 -0.603711 -2.70649 0
M  V30 5002 H 506.171 -0.786438 -1.37844 0
M  V30 5003 H 506.192 0.510352 -3.77062 0
M  V30 5004 H 505.704 -1.3106 -3.65301 0
M  V30 5005 H 503.805 1.15272 -3.54321 0
M  V30 5006 H 503.918 -0.26561 -4.78363 0
M  V30 5007 H 502.282 -0.0444884 -2.54661 0
M  V30 5008 H 503.065 -1.65029 -3.01032 0
M  V30 5009 N 505.51 1.54411 -0.315457 0
M  V30 5010 C 506.44 2.27002 0.547039 0
M  V30 5011 C 507.421 1.27492 1.12605 0
M  V30 5012 O 508.606 1.5629 1.15269 0
M  V30 5013 C 505.736 3.02171 1.71201 0
M  V30 5014 C 504.69 4.0895 1.26268 0
M  V30 5015 C 504.016 4.71915 2.51396 0
M  V30 5016 C 505.316 5.20891 0.383419 0
M  V30 5017 H 507.01 2.99343 -0.0584517 0
M  V30 5018 H 504.556 1.4397 -0.0295527 0
M  V30 5019 H 506.509 3.51681 2.32161 0
M  V30 5020 H 505.233 2.27433 2.34397 0
M  V30 5021 H 503.892 3.60312 0.676062 0
M  V30 5022 H 503.54 3.93801 3.12937 0
M  V30 5023 H 503.24 5.44039 2.22026 0
M  V30 5024 H 504.764 5.24195 3.13133 0
M  V30 5025 H 506.178 5.66206 0.899082 0
M  V30 5026 H 504.575 5.99821 0.182857 0
M  V30 5027 H 505.645 4.81324 -0.587821 0
M  V30 5028 N 506.988 0.0434614 1.5754 0
M  V30 5029 C 508.235 -0.632035 1.92384 0
M  V30 5030 C 508.563 -1.71304 0.921157 0
M  V30 5031 O 507.818 -1.95583 -0.067744 0
M  V30 5032 C 508.117 -1.2738 3.3393 0
M  V30 5033 C 507.783 -0.321757 4.49751 0
M  V30 5034 C 506.445 -0.0597611 4.81163 0
M  V30 5035 C 508.797 0.331158 5.20147 0
M  V30 5036 C 506.125 0.862715 5.80322 0
M  V30 5037 C 508.477 1.24178 6.20292 0
M  V30 5038 C 507.141 1.51252 6.50138 0
M  V30 5039 H 506.411 -0.231278 0.703983 0
M  V30 5040 H 509.058 0.108294 1.91194 0
M  V30 5041 H 507.363 -2.08921 3.3145 0
M  V30 5042 H 509.06 -1.80326 3.58167 0
M  V30 5043 H 505.65 -0.53614 4.25233 0
M  V30 5044 H 509.834 0.141826 4.96097 0
M  V30 5045 H 505.09 1.08003 6.01785 0
M  V30 5046 H 509.264 1.75381 6.73954 0
M  V30 5047 H 506.891 2.22897 7.26788 0
M  V30 5048 N 508.466 -1.55915 -0.229846 0
M  V30 5049 C 509.743 -1.6932 -0.979295 0
M  V30 5050 C 510.123 -0.588321 -2.02736 0
M  V30 5051 O 509.471 0.40586 -2.24867 0
M  V30 5052 C 509.681 -3.10305 -1.59724 0
M  V30 5053 C 511.029 -3.6945 -2.09264 0
M  V30 5054 O 512.053 -3.13214 -1.69633 0
M  V30 5055 O 510.912 -4.68072 -2.82082 0
M  V30 5056 H 508.006 -0.689314 -0.456919 0
M  V30 5057 H 510.552 -1.68238 -0.222283 0
M  V30 5058 H 509.324 -3.82177 -0.840039 0
M  V30 5059 H 508.947 -3.1547 -2.42001 0
M  V30 5060 N 509.944 0.496216 -1.49584 0
M  V30 5061 C 511.36 0.827814 -1.36453 0
M  V30 5062 C 511.56 1.97464 -0.401285 0
M  V30 5063 O 510.616 2.51958 0.165296 0
M  V30 5064 C 511.929 1.16352 -2.77277 0
M  V30 5065 C 513.477 1.27145 -2.86013 0
M  V30 5066 C 513.952 1.64042 -4.27615 0
M  V30 5067 N 515.443 1.71082 -4.30448 0
M  V30 5068 C 516.178 2.01085 -5.36984 0
M  V30 5069 N 515.674 2.2928 -6.5376 0
M  V30 5070 N 517.467 2.02376 -5.24405 0
M  V30 5071 H 509.618 -0.259947 -2.10803 0
M  V30 5072 H 511.881 -0.0537163 -0.946477 0
M  V30 5073 H 511.587 0.394153 -3.49484 0
M  V30 5074 H 511.461 2.10582 -3.12946 0
M  V30 5075 H 513.848 2.03152 -2.1404 0
M  V30 5076 H 513.929 0.309542 -2.5392 0
M  V30 5077 H 513.573 0.88583 -5.00115 0
M  V30 5078 H 513.503 2.6134 -4.57175 0
M  V30 5079 H 515.994 1.51434 -3.46232 0
M  V30 5080 H 516.307 2.51376 -7.30774 0
M  V30 5081 H 514.652 2.26726 -6.56978 0
M  V30 5082 H 517.843 1.79829 -4.32179 0
M  V30 5083 H 518.016 2.25425 -6.07526 0
M  V30 5084 N 511.423 1.38739 0.74761 0
M  V30 5085 C 512.353 1.39173 1.87492 0
M  V30 5086 C 513.334 0.256794 1.6815 0
M  V30 5087 O 514.519 0.460762 1.88655 0
M  V30 5088 C 511.649 1.22197 3.25093 0
M  V30 5089 C 510.603 2.32957 3.59047 0
M  V30 5090 C 509.929 2.01082 4.95449 0
M  V30 5091 C 511.229 3.75237 3.6331 0
M  V30 5092 H 512.923 2.3351 1.87386 0
M  V30 5093 H 510.469 1.12399 0.900134 0
M  V30 5094 H 512.422 1.21124 4.03617 0
M  V30 5095 H 511.146 0.243241 3.25693 0
M  V30 5096 H 509.805 2.33226 2.82845 0
M  V30 5097 H 509.453 1.01678 4.92616 0
M  V30 5098 H 509.153 2.75267 5.19136 0
M  V30 5099 H 510.677 2.01638 5.76346 0
M  V30 5100 H 512.091 3.76966 4.31937 0
M  V30 5101 H 510.488 4.48677 3.98509 0
M  V30 5102 H 511.558 4.07122 2.634 0
M  V30 5103 N 512.901 -0.976442 1.23707 0
M  V30 5104 C 513.831 -2.08749 1.04624 0
M  V30 5105 C 514.812 -1.70057 -0.0380956 0
M  V30 5106 O 515.997 -1.93782 0.127308 0
M  V30 5107 C 513.127 -3.41335 0.640902 0
M  V30 5108 C 512.081 -3.93947 1.67302 0
M  V30 5109 C 511.407 -5.22774 1.12301 0
M  V30 5110 C 512.707 -4.22769 3.06697 0
M  V30 5111 H 514.401 -2.24972 1.97555 0
M  V30 5112 H 511.947 -1.08108 0.951247 0
M  V30 5113 H 513.9 -4.18489 0.494434 0
M  V30 5114 H 512.624 -3.24988 -0.324099 0
M  V30 5115 H 511.283 -3.18941 1.80755 0
M  V30 5116 H 510.931 -5.0278 0.148877 0
M  V30 5117 H 510.631 -5.58942 1.81267 0
M  V30 5118 H 512.155 -6.02546 0.988479 0
M  V30 5119 H 513.569 -4.90659 2.96524 0
M  V30 5120 H 511.966 -4.70147 3.72937 0
M  V30 5121 H 513.036 -3.29885 3.55392 0
M  V30 5122 N 514.379 -1.04941 -1.1758 0
M  V30 5123 C 515.628 -0.753124 -1.87112 0
M  V30 5124 C 515.941 0.722507 -1.81767 0
M  V30 5125 O 517.147 1.13265 -2.46746 0
M  V30 5126 C 515.603 -1.29695 -3.35719 0
M  V30 5127 C 515.211 -2.80184 -3.49572 0
M  V30 5128 C 516.955 -1.07759 -4.10595 0
M  V30 5129 C 514.862 -3.2788 -4.92187 0
M  V30 5130 H 513.792 -0.278034 -0.700866 0
M  V30 5131 H 516.443 -1.26637 -1.32798 0
M  V30 5132 H 514.825 -0.711522 -3.89555 0
M  V30 5133 H 515.999 -3.44561 -3.05965 0
M  V30 5134 H 514.314 -3.00632 -2.88113 0
M  V30 5135 H 516.911 -1.40899 -5.15802 0
M  V30 5136 H 517.254 -0.0152302 -4.16297 0
M  V30 5137 H 517.787 -1.62809 -3.62957 0
M  V30 5138 H 514.526 -4.33535 -4.91658 0
M  V30 5139 H 514.046 -2.68245 -5.36475 0
M  V30 5140 H 515.725 -3.22412 -5.60945 0
M  V30 5141 N 515.857 1.33968 -0.830081 0
M  V30 5142 C 517.104 1.98063 -0.421566 0
M  V30 5143 C 517.432 1.65787 1.0171 0
M  V30 5144 O 516.687 0.925348 1.72441 0
M  V30 5145 C 516.986 3.52679 -0.57898 0
M  V30 5146 C 516.652 4.04884 -1.98443 0
M  V30 5147 C 515.314 4.18852 -2.36888 0
M  V30 5148 C 517.666 4.32879 -2.90285 0
M  V30 5149 C 514.994 4.58145 -3.66497 0
M  V30 5150 C 517.346 4.7362 -4.19364 0
M  V30 5151 C 516.01 4.85794 -4.57778 0
M  V30 5152 H 515.28 0.724765 -0.154262 0
M  V30 5153 H 517.927 1.59792 -1.05541 0
M  V30 5154 H 516.232 3.91556 0.138219 0
M  V30 5155 H 517.929 4.00261 -0.243317 0
M  V30 5156 H 514.519 3.9448 -1.67581 0
M  V30 5157 H 518.703 4.21619 -2.61823 0
M  V30 5158 H 513.959 4.65762 -3.96075 0
M  V30 5159 H 518.133 4.9424 -4.90612 0
M  V30 5160 H 515.76 5.15998 -5.58256 0
M  V30 5161 N 517.335 0.585699 1.46312 0
M  V30 5162 C 518.581 0.0808731 2.03239 0
M  V30 5163 C 518.936 -1.26609 1.44872 0
M  V30 5164 O 518.229 -1.81779 0.60556 0
M  V30 5165 C 518.423 -0.0401312 3.57377 0
M  V30 5166 C 518.252 1.29356 4.30694 0
M  V30 5167 C 517.022 1.86849 4.69484 0
M  V30 5168 C 519.22 2.21742 4.64042 0
M  V30 5169 N 517.202 3.13926 5.27564 0
M  V30 5170 C 518.573 3.33408 5.22723 0
M  V30 5171 C 520.628 2.21386 4.45974 0
M  V30 5172 C 519.331 4.44852 5.65242 0
M  V30 5173 C 521.357 3.31862 4.89511 0
M  V30 5174 C 520.719 4.42248 5.48266 0
M  V30 5175 H 516.818 0.072443 0.778637 0
M  V30 5176 H 519.402 0.779254 1.78426 0
M  V30 5177 H 517.573 -0.707686 3.81898 0
M  V30 5178 H 519.305 -0.549615 4.00951 0
M  V30 5179 H 516.06 1.40307 4.52339 0
M  V30 5180 H 516.484 3.78775 5.61122 0
M  V30 5181 H 521.126 1.37314 3.99881 0
M  V30 5182 H 518.844 5.29665 6.10312 0
M  V30 5183 H 522.43 3.32708 4.7728 0
M  V30 5184 H 521.31 5.26323 5.81338 0
M  V30 5185 N 518.813 -1.54241 0.323641 0
M  V30 5186 C 520.038 -2.05452 -0.283605 0
M  V30 5187 C 520.463 -1.19823 -1.44997 0
M  V30 5188 O 519.821 -0.207358 -1.8011 0
M  V30 5189 C 519.869 -3.53823 -0.695795 0
M  V30 5190 O 518.973 -3.71134 -1.79815 0
M  V30 5191 H 518.314 -0.662024 -0.0511917 0
M  V30 5192 H 520.844 -1.99079 0.472073 0
M  V30 5193 H 520.854 -3.96094 -0.978434 0
M  V30 5194 H 519.529 -4.15602 0.157287 0
M  V30 5195 H 518.106 -3.40768 -1.51431 0
M  V30 5196 N 520.291 -0.0518155 -1.57515 0
M  V30 5197 C 521.568 0.661727 -1.84067 0
M  V30 5198 C 521.948 1.88999 -0.940351 0
M  V30 5199 O 521.296 2.285 -0.00155404 0
M  V30 5200 C 521.506 1.01841 -3.3381 0
M  V30 5201 C 522.854 1.40043 -4.00841 0
M  V30 5202 O 523.878 1.11073 -3.38439 0
M  V30 5203 O 522.737 1.94111 -5.10865 0
M  V30 5204 H 519.831 0.326702 -0.759733 0
M  V30 5205 H 522.377 -0.0812277 -1.69505 0
M  V30 5206 H 521.149 0.145202 -3.91031 0
M  V30 5207 H 520.772 1.81879 -3.53562 0
M  V30 5208 N 521.769 1.56035 0.221574 0
M  V30 5209 C 523.185 1.49026 0.571271 0
M  V30 5210 C 523.385 0.746912 1.87146 0
M  V30 5211 O 522.441 0.286566 2.50869 0
M  V30 5212 C 523.754 2.93579 0.650522 0
M  V30 5213 C 525.302 3.04099 0.741151 0
M  V30 5214 C 525.777 4.5001 0.851747 0
M  V30 5215 N 527.268 4.54053 0.915968 0
M  V30 5216 C 528.003 5.64232 1.02125 0
M  V30 5217 N 527.499 6.84164 1.09049 0
M  V30 5218 N 529.292 5.52084 1.05639 0
M  V30 5219 H 521.443 2.02791 -0.63162 0
M  V30 5220 H 523.706 0.921736 -0.221602 0
M  V30 5221 H 523.412 3.50912 -0.235253 0
M  V30 5222 H 523.286 3.45476 1.51413 0
M  V30 5223 H 525.673 2.4683 1.61737 0
M  V30 5224 H 525.754 2.55371 -0.148128 0
M  V30 5225 H 525.398 5.07896 -0.0200117 0
M  V30 5226 H 525.328 4.96444 1.75644 0
M  V30 5227 H 527.819 3.67683 0.872782 0
M  V30 5228 H 528.132 7.63883 1.1706 0
M  V30 5229 H 526.477 6.86875 1.05962 0
M  V30 5230 H 529.668 4.57317 0.998953 0
M  V30 5231 H 529.841 6.37983 1.13498 0
M  V30 5232 N 523.247 -0.488276 1.49845 0
M  V30 5233 C 524.663 -0.820566 1.3689 0
M  V30 5234 C 524.863 -1.97248 0.411752 0
M  V30 5235 O 523.919 -2.52042 -0.151931 0
M  V30 5236 C 525.232 -1.1488 2.77891 0
M  V30 5237 C 526.78 -1.25626 2.86683 0
M  V30 5238 C 527.255 -1.61772 4.28479 0
M  V30 5239 N 528.746 -1.68797 4.31349 0
M  V30 5240 C 529.481 -1.98235 5.38043 0
M  V30 5241 N 528.977 -2.2581 6.54967 0
M  V30 5242 N 530.77 -1.99593 5.2547 0
M  V30 5243 H 522.921 0.271123 2.10662 0
M  V30 5244 H 525.184 0.058735 0.946179 0
M  V30 5245 H 524.89 -0.375614 3.49688 0
M  V30 5246 H 524.764 -2.08919 3.14058 0
M  V30 5247 H 527.151 -2.02014 2.15114 0
M  V30 5248 H 527.232 -0.296072 2.54081 0
M  V30 5249 H 526.876 -0.859295 5.00578 0
M  V30 5250 H 526.806 -2.58912 4.58554 0
M  V30 5251 H 529.297 -1.49595 3.4703 0
M  V30 5252 H 529.61 -2.47497 7.32096 0
M  V30 5253 H 527.955 -2.23239 6.58171 0
M  V30 5254 H 531.146 -1.77535 4.33127 0
M  V30 5255 H 531.319 -2.222 6.08713 0
M  V30 5256 N 524.725 -1.39134 -0.740242 0
M  V30 5257 C 525.673 -1.3757 -1.87556 0
M  V30 5258 C 526.667 -0.259593 -1.67399 0
M  V30 5259 O 527.873 -0.429349 -1.74804 0
M  V30 5260 H 524.248 -0.42947 -0.6173 0
M  V30 5261 H 526.219 -2.33345 -1.85991 0
M  V30 5262 C 524.968 -1.23087 -3.25184 0
M  V30 5263 H 524.291 -2.08237 -3.41288 0
M  V30 5264 H 525.731 -1.26049 -4.0483 0
M  V30 5265 C 524.19 0.0611471 -3.36845 0
M  V30 5266 O 524.72 1.03328 -3.88183 0
M  V30 5267 N 522.926 0.122454 -2.90342 0
M  V30 5268 H 522.473 -0.669329 -2.48752 0
M  V30 5269 H 522.431 0.986463 -2.98523 0
M  V30 5270 N 526.204 0.969867 -1.24223 0
M  V30 5271 C 527.615 1.52717 -1.07399 0
M  V30 5272 C 527.966 1.92956 0.355298 0
M  V30 5273 O 527.091 1.77112 1.2434 0
M  V30 5274 C 527.686 2.77521 -1.94339 0
M  V30 5275 C 526.245 3.29615 -1.81744 0
M  V30 5276 C 525.392 2.02537 -1.89405 0
M  V30 5277 H 528.343 0.788399 -1.37732 0
M  V30 5278 H 528.364 3.50773 -1.47439 0
M  V30 5279 H 527.876 2.48203 -2.98357 0
M  V30 5280 H 525.977 3.63789 -0.805505 0
M  V30 5281 H 526.09 3.98661 -2.65718 0
M  V30 5282 H 524.454 2.17151 -1.33108 0
M  V30 5283 H 525.237 1.75587 -2.94999 0
M  V30 5284 N 527.682 1.05563 1.17022 0
M  V30 5285 C 528.632 0.630007 2.19123 0
M  V30 5286 C 529.616 -0.335472 1.57364 0
M  V30 5287 O 530.808 -0.1521 1.76345 0
M  V30 5288 C 527.937 0.0101676 3.43298 0
M  V30 5289 C 527.023 0.999698 4.12149 0
M  V30 5290 N 527.414 2.17251 4.56766 0
M  V30 5291 C 525.712 0.829 4.38228 0
M  V30 5292 C 526.413 2.79883 5.09942 0
M  V30 5293 N 525.389 2.07656 5.02374 0
M  V30 5294 H 529.191 1.52353 2.51328 0
M  V30 5295 H 526.705 0.926288 1.33393 0
M  V30 5296 H 528.702 -0.312541 4.15727 0
M  V30 5297 H 527.362 -0.878707 3.12584 0
M  V30 5298 H 528.373 2.55067 4.50734 0
M  V30 5299 H 525.05 -0.00850974 4.17499 0
M  V30 5300 H 526.44 3.79362 5.54558 0
M  V30 5301 N 529.16 -1.33526 0.837174 0
M  V30 5302 C 530.07 -2.33023 0.271568 0
M  V30 5303 C 531.086 -1.63272 -0.601514 0
M  V30 5304 O 532.262 -1.94939 -0.506038 0
M  V30 5305 C 529.327 -3.42382 -0.545448 0
M  V30 5306 C 528.388 -4.27857 0.351709 0
M  V30 5307 C 527.621 -5.31994 -0.426409 0
M  V30 5308 O 527.844 -5.45763 -1.65828 0
M  V30 5309 O 526.778 -6.01572 0.1987 0
M  V30 5310 H 530.604 -2.83256 1.09545 0
M  V30 5311 H 528.189 -1.36837 0.599655 0
M  V30 5312 H 530.071 -4.09122 -1.00979 0
M  V30 5313 H 528.746 -2.94369 -1.34641 0
M  V30 5314 H 527.653 -3.6399 0.863853 0
M  V30 5315 H 528.986 -4.79349 1.1174 0
M  V30 5316 N 530.638 -0.59345 -1.46 0
M  V30 5317 C 531.884 -0.0832754 -2.02629 0
M  V30 5318 C 532.217 1.27749 -1.46266 0
M  V30 5319 O 531.492 1.8395 -0.631866 0
M  V30 5320 C 531.775 -0.0290756 -3.60088 0
M  V30 5321 C 531.628 -1.41951 -4.26814 0
M  V30 5322 C 532.947 0.666055 -4.35031 0
M  V30 5323 H 530.066 -0.031736 -0.736316 0
M  V30 5324 H 532.708 -0.762711 -1.74019 0
M  V30 5325 H 530.858 0.549532 -3.84594 0
M  V30 5326 H 532.53 -2.04411 -4.13538 0
M  V30 5327 H 530.773 -1.98422 -3.8576 0
M  V30 5328 H 531.444 -1.33395 -5.3564 0
M  V30 5329 H 533.92 0.174401 -4.15734 0
M  V30 5330 H 532.796 0.673041 -5.44758 0
M  V30 5331 H 533.057 1.72946 -4.06869 0
M  V30 5332 N 532.116 1.54067 -0.331816 0
M  V30 5333 C 533.063 2.24623 0.530372 0
M  V30 5334 C 534.033 1.24009 1.10503 0
M  V30 5335 O 535.218 1.52712 1.14384 0
M  V30 5336 C 532.358 3.01374 1.68129 0
M  V30 5337 C 531.471 4.16821 1.13507 0
M  V30 5338 C 530.606 4.81085 2.25234 0
M  V30 5339 C 529.645 5.88621 1.67903 0
M  V30 5340 N 528.782 6.46713 2.73326 0
M  V30 5341 H 533.622 2.97898 -0.0778607 0
M  V30 5342 H 531.159 1.47014 -0.0501965 0
M  V30 5343 H 533.117 3.44125 2.35868 0
M  V30 5344 H 531.747 2.30419 2.26069 0
M  V30 5345 H 530.799 3.78796 0.348979 0
M  V30 5346 H 532.111 4.94203 0.675633 0
M  V30 5347 H 531.265 5.26846 3.00862 0
M  V30 5348 H 530.004 4.03102 2.74518 0
M  V30 5349 H 529.009 5.42254 0.907773 0
M  V30 5350 H 530.234 6.68506 1.19487 0
M  V30 5351 H 528.18 5.71599 3.21886 0
M  V30 5352 H 528.097 7.19532 2.3197 0
M  V30 5353 H 529.365 6.97129 3.48758 0
M  V30 5354 N 533.594 0.0601682 1.57485 0
M  V30 5355 C 535.005 -0.474217 1.80577 0
M  V30 5356 C 535.356 -1.70365 0.973147 0
M  V30 5357 O 534.481 -2.15544 0.192306 0
M  V30 5358 C 535.076 -0.867102 3.27516 0
M  V30 5359 C 533.635 -1.34642 3.51495 0
M  V30 5360 C 532.782 -0.32594 2.75378 0
M  V30 5361 H 535.733 0.285973 1.56102 0
M  V30 5362 H 535.754 -1.72938 3.38929 0
M  V30 5363 H 535.266 0.0278927 3.8809 0
M  V30 5364 H 533.367 -2.2603 2.96212 0
M  V30 5365 H 533.48 -1.33237 4.60201 0
M  V30 5366 H 531.844 -0.800749 2.41785 0
M  V30 5367 H 532.627 0.561125 3.38683 0
M  V30 5368 N 535.072 -1.5615 -0.213296 0
M  V30 5369 C 536.035 -1.92249 -1.24792 0
M  V30 5370 C 537.035 -0.801828 -1.39382 0
M  V30 5371 O 538.225 -1.06948 -1.37506 0
M  V30 5372 C 535.357 -2.18056 -2.62039 0
M  V30 5373 H 536.55 -2.84793 -0.939845 0
M  V30 5374 H 534.103 -1.49559 -0.454062 0
M  V30 5375 H 534.838 -1.2809 -2.97932 0
M  V30 5376 H 534.623 -2.99703 -2.52825 0
M  V30 5377 H 536.113 -2.47051 -3.36683 0
M  V30 5378 N 536.55 0.480323 -1.50102 0
M  V30 5379 C 537.78 1.25475 -1.64133 0
M  V30 5380 C 538.188 1.8647 -0.320272 0
M  V30 5381 O 537.531 1.69561 0.70673 0
M  V30 5382 C 537.593 2.40996 -2.6676 0
M  V30 5383 C 537.257 2.00711 -4.10565 0
M  V30 5384 C 538.254 1.53492 -4.96725 0
M  V30 5385 C 535.939 2.09714 -4.56427 0
M  V30 5386 C 537.933 1.15806 -6.26792 0
M  V30 5387 C 535.62 1.7164 -5.86501 0
M  V30 5388 C 536.618 1.24763 -6.71508 0
M  V30 5389 O 536.306 0.872122 -7.99155 0
M  V30 5390 H 536.038 0.385983 -0.554971 0
M  V30 5391 H 538.592 0.580848 -1.97016 0
M  V30 5392 H 536.822 3.11528 -2.291 0
M  V30 5393 H 538.511 3.02981 -2.70106 0
M  V30 5394 H 539.277 1.45966 -4.62514 0
M  V30 5395 H 535.156 2.4515 -3.90413 0
M  V30 5396 H 538.7 0.791465 -6.93096 0
M  V30 5397 H 534.597 1.78822 -6.20236 0
M  V30 5398 H 535.365 1.00178 -8.12346 0
M  V30 5399 N 538.028 1.39524 0.732853 0
M  V30 5400 C 538.991 1.38189 1.82857 0
M  V30 5401 C 539.991 0.278624 1.58368 0
M  V30 5402 O 541.181 0.536639 1.65728 0
M  V30 5403 C 538.313 1.15661 3.2068 0
M  V30 5404 H 539.506 2.35692 1.85444 0
M  V30 5405 H 537.059 1.2512 0.936728 0
M  V30 5406 H 537.794 0.188482 3.23752 0
M  V30 5407 H 537.579 1.95559 3.39852 0
M  V30 5408 H 539.069 1.17472 4.00737 0
M  V30 5409 N 539.506 -0.963266 1.24736 0
M  V30 5410 C 540.734 -1.74166 1.11686 0
M  V30 5411 C 541.149 -1.8589 -0.330187 0
M  V30 5412 O 540.506 -1.35042 -1.2276 0
M  V30 5413 C 540.557 -3.15989 1.75595 0
M  V30 5414 O 540.278 -3.04847 3.14642 0
M  V30 5415 C 541.779 -4.10145 1.68213 0
M  V30 5416 H 538.999 -0.546031 0.389989 0
M  V30 5417 H 541.543 -1.20907 1.64929 0
M  V30 5418 H 539.698 -3.66219 1.26343 0
M  V30 5419 H 540.112 -3.9425 3.4593 0
M  V30 5420 H 541.586 -5.07299 2.17604 0
M  V30 5421 H 542.063 -4.3445 0.644208 0
M  V30 5422 H 542.669 -3.65827 2.16912 0
M  V30 5423 N 540.985 -1.06182 -1.16461 0
M  V30 5424 C 542.401 -0.785065 -1.38956 0
M  V30 5425 C 542.601 0.616103 -1.9185 0
M  V30 5426 O 541.657 1.37686 -2.11657 0
M  V30 5427 C 542.97 -1.84902 -2.37132 0
M  V30 5428 C 544.518 -1.8724 -2.50819 0
M  V30 5429 C 544.993 -2.92686 -3.52277 0
M  V30 5430 N 546.484 -2.91712 -3.59803 0
M  V30 5431 C 547.219 -3.69949 -4.38093 0
M  V30 5432 N 546.715 -4.58 -5.19815 0
M  V30 5433 N 548.508 -3.58346 -4.33064 0
M  V30 5434 H 540.659 -1.96569 -0.804634 0
M  V30 5435 H 542.922 -0.851747 -0.416211 0
M  V30 5436 H 542.628 -2.85518 -2.0536 0
M  V30 5437 H 542.502 -1.69908 -3.36766 0
M  V30 5438 H 544.889 -0.872827 -2.81897 0
M  V30 5439 H 544.97 -2.06311 -1.51226 0
M  V30 5440 H 544.614 -3.92835 -3.21937 0
M  V30 5441 H 544.544 -2.70864 -4.51598 0
M  V30 5442 H 547.035 -2.27876 -3.01464 0
M  V30 5443 H 547.348 -5.14357 -5.76764 0
M  V30 5444 H 545.693 -4.62056 -5.19162 0
M  V30 5445 H 548.884 -2.88943 -3.68279 0
M  V30 5446 H 549.057 -4.19563 -4.93833 0
M  V30 5447 N 542.463 1.3308 -0.844243 0
M  V30 5448 C 543.693 2.01515 -0.455541 0
M  V30 5449 C 544.101 1.63655 0.949406 0
M  V30 5450 O 543.444 0.84848 1.62931 0
M  V30 5451 C 543.506 3.55967 -0.502801 0
M  V30 5452 C 543.17 4.17222 -1.86481 0
M  V30 5453 C 544.167 4.36205 -2.8288 0
M  V30 5454 C 541.852 4.53528 -2.15911 0
M  V30 5455 C 543.846 4.90649 -4.06869 0
M  V30 5456 C 541.533 5.07679 -3.40155 0
M  V30 5457 C 542.531 5.26186 -4.35451 0
M  V30 5458 O 542.219 5.79183 -5.57496 0
M  V30 5459 H 541.951 0.65199 -0.178565 0
M  V30 5460 H 544.505 1.70867 -1.1399 0
M  V30 5461 H 542.735 3.85965 0.23836 0
M  V30 5462 H 544.424 4.05688 -0.131169 0
M  V30 5463 H 545.19 4.085 -2.61444 0
M  V30 5464 H 541.069 4.38414 -1.42528 0
M  V30 5465 H 544.613 5.0501 -4.81259 0
M  V30 5466 H 540.51 5.34815 -3.61446 0
M  V30 5467 H 541.278 5.97591 -5.5931 0
M  V30 5468 N 543.941 0.601185 1.45683 0
M  V30 5469 C 544.904 -0.111398 2.28929 0
M  V30 5470 C 545.904 -0.801246 1.39416 0
M  V30 5471 O 547.094 -0.650383 1.61603 0
M  V30 5472 C 544.226 -1.16773 3.20276 0
M  V30 5473 H 545.419 0.620412 2.93413 0
M  V30 5474 H 542.972 0.359946 1.52099 0
M  V30 5475 H 543.707 -1.93051 2.60579 0
M  V30 5476 H 543.492 -0.677358 3.86205 0
M  V30 5477 H 544.982 -1.66698 3.82886 0
M  V30 5478 N 545.419 -1.53889 0.339982 0
M  V30 5479 C 546.668 -2.00035 -0.258604 0
M  V30 5480 C 546.981 -1.23179 -1.51942 0
M  V30 5481 O 548.187 -1.59784 -2.19503 0
M  V30 5482 C 546.643 -3.56249 -0.511359 0
M  V30 5483 C 546.251 -4.41957 0.733349 0
M  V30 5484 C 547.995 -4.1082 -1.069 0
M  V30 5485 C 545.902 -5.89673 0.451591 0
M  V30 5486 H 544.832 -0.747284 -0.10041 0
M  V30 5487 H 547.483 -1.77776 0.454758 0
M  V30 5488 H 545.865 -3.7456 -1.28533 0
M  V30 5489 H 547.039 -4.35421 1.50815 0
M  V30 5490 H 545.354 -3.9836 1.21237 0
M  V30 5491 H 547.951 -5.18789 -1.2947 0
M  V30 5492 H 548.294 -3.63817 -2.02343 0
M  V30 5493 H 548.827 -3.96205 -0.355817 0
M  V30 5494 H 545.566 -6.40903 1.37565 0
M  V30 5495 H 545.086 -5.99122 -0.285193 0
M  V30 5496 H 546.765 -6.46965 0.0675067 0
M  V30 5497 N 546.897 -0.0685191 -1.57451 0
M  V30 5498 C 548.125 0.610462 -1.97689 0
M  V30 5499 C 548.54 1.63346 -0.946758 0
M  V30 5500 O 547.897 1.82377 0.0669868 0
M  V30 5501 C 547.948 1.28196 -3.38006 0
M  V30 5502 O 547.669 0.299906 -4.37072 0
M  V30 5503 C 549.17 2.04907 -3.931 0
M  V30 5504 H 546.39 0.165689 -0.650222 0
M  V30 5505 H 548.934 -0.139953 -2.04021 0
M  V30 5506 H 547.089 1.98348 -3.32771 0
M  V30 5507 H 547.503 0.78126 -5.18649 0
M  V30 5508 H 548.977 2.47287 -4.93511 0
M  V30 5509 H 549.454 2.9043 -3.29465 0
M  V30 5510 H 550.06 1.39629 -4.01726 0
M  V30 5511 N 548.375 1.56261 0.205012 0
M  V30 5512 C 549.621 1.80306 0.9283 0
M  V30 5513 C 549.954 0.640932 1.83319 0
M  V30 5514 O 549.229 -0.359032 1.91158 0
M  V30 5515 C 549.512 3.14547 1.75306 0
M  V30 5516 C 549.365 4.41236 0.873562 0
M  V30 5517 C 550.684 3.45382 2.72762 0
M  V30 5518 H 547.803 0.655929 0.336044 0
M  V30 5519 H 550.445 1.88984 0.196211 0
M  V30 5520 H 548.595 3.0728 2.37721 0
M  V30 5521 H 550.267 4.60539 0.264887 0
M  V30 5522 H 548.51 4.33427 0.179773 0
M  V30 5523 H 549.181 5.31639 1.48541 0
M  V30 5524 H 551.657 3.52884 2.20481 0
M  V30 5525 H 550.533 4.40449 3.2756 0
M  V30 5526 H 550.794 2.68377 3.51321 0
M  V30 5527 N 549.853 -0.472356 1.50355 0
M  V30 5528 C 551.099 -1.22348 1.62488 0
M  V30 5529 C 551.454 -1.89711 0.320574 0
M  V30 5530 O 550.747 -1.79074 -0.68141 0
M  V30 5531 C 550.941 -2.29257 2.74182 0
M  V30 5532 C 550.77 -1.72383 4.15348 0
M  V30 5533 C 549.54 -1.52411 4.81766 0
M  V30 5534 C 551.738 -1.21949 4.99633 0
M  V30 5535 N 549.72 -0.907669 6.07153 0
M  V30 5536 C 551.091 -0.726191 6.15732 0
M  V30 5537 C 553.146 -1.10792 4.85417 0
M  V30 5538 C 551.849 -0.132322 7.19178 0
M  V30 5539 C 553.875 -0.52799 5.89038 0
M  V30 5540 C 553.237 -0.0450604 7.04386 0
M  V30 5541 H 549.336 -0.436631 0.648751 0
M  V30 5542 H 551.92 -0.525698 1.87469 0
M  V30 5543 H 550.091 -2.96464 2.50926 0
M  V30 5544 H 551.823 -2.9628 2.75681 0
M  V30 5545 H 548.578 -1.776 4.39039 0
M  V30 5546 H 549.002 -0.617897 6.74174 0
M  V30 5547 H 553.644 -1.46722 3.96525 0
M  V30 5548 H 551.362 0.239187 8.07746 0
M  V30 5549 H 554.948 -0.444046 5.80103 0
M  V30 5550 H 553.828 0.396659 7.83196 0
M  V30 5551 N 551.331 -1.39911 -0.725443 0
M  V30 5552 C 552.561 -1.40744 -1.51244 0
M  V30 5553 C 552.969 -0.00275403 -1.892 0
M  V30 5554 O 552.312 0.981299 -1.55294 0
M  V30 5555 C 552.374 -2.22527 -2.82351 0
M  V30 5556 C 552.038 -3.71053 -2.66774 0
M  V30 5557 C 553.035 -4.63916 -2.34686 0
M  V30 5558 C 550.72 -4.14753 -2.83347 0
M  V30 5559 C 552.714 -5.98463 -2.19366 0
M  V30 5560 C 550.401 -5.49372 -2.67644 0
M  V30 5561 C 551.399 -6.41042 -2.357 0
M  V30 5562 O 551.087 -7.73181 -2.20107 0
M  V30 5563 H 550.819 -0.482314 -0.473655 0
M  V30 5564 H 553.373 -1.84472 -0.903284 0
M  V30 5565 H 551.603 -1.73563 -3.45562 0
M  V30 5566 H 553.292 -2.15421 -3.44018 0
M  V30 5567 H 554.058 -4.31453 -2.21525 0
M  V30 5568 H 549.937 -3.43728 -3.072 0
M  V30 5569 H 553.481 -6.69979 -1.94354 0
M  V30 5570 H 549.378 -5.81424 -2.80387 0
M  V30 5571 H 550.146 -7.84008 -2.35103 0
M  V30 5572 N 552.809 0.956637 -1.25245 0
M  V30 5573 C 554.056 1.701 -1.09874 0
M  V30 5574 C 554.384 1.91128 0.36062 0
M  V30 5575 O 553.639 1.47837 1.28229 0
M  V30 5576 C 553.938 3.08996 -1.79601 0
M  V30 5577 C 553.604 3.07774 -3.29523 0
M  V30 5578 C 552.266 3.07149 -3.70423 0
M  V30 5579 C 554.618 3.01257 -4.25316 0
M  V30 5580 C 551.946 2.97752 -5.0553 0
M  V30 5581 C 554.298 2.93403 -5.60444 0
M  V30 5582 C 552.962 2.91111 -6.00675 0
M  V30 5583 H 552.232 0.62244 -0.402056 0
M  V30 5584 H 554.879 1.1178 -1.55491 0
M  V30 5585 H 553.184 3.70848 -1.26408 0
M  V30 5586 H 554.881 3.65407 -1.65162 0
M  V30 5587 H 551.471 3.09032 -2.9698 0
M  V30 5588 H 555.655 3.00861 -3.9471 0
M  V30 5589 H 550.911 2.94346 -5.35883 0
M  V30 5590 H 555.085 2.87321 -6.34366 0
M  V30 5591 H 552.712 2.83586 -7.05325 0
M  V30 5592 N 554.287 1.06798 1.15896 0
M  V30 5593 C 555.564 0.701057 1.82605 0
M  V30 5594 C 555.944 -0.817066 1.94646 0
M  V30 5595 O 555.292 -1.72933 1.49353 0
M  V30 5596 C 555.502 1.40895 3.19296 0
M  V30 5597 C 556.85 1.55744 3.95005 0
M  V30 5598 O 557.874 1.36927 3.28831 0
M  V30 5599 O 556.733 1.86658 5.13635 0
M  V30 5600 H 553.827 0.248791 0.78869 0
M  V30 5601 H 556.373 1.16857 1.23055 0
M  V30 5602 H 555.145 2.4439 3.05596 0
M  V30 5603 H 554.768 0.931847 3.86526 0
M  V30 5604 N 555.766 -1.3263 0.851289 0
M  V30 5605 C 556.729 -2.27247 0.298541 0
M  V30 5606 C 557.729 -1.51467 -0.539847 0
M  V30 5607 O 558.919 -1.7061 -0.351843 0
M  V30 5608 C 556.051 -3.35964 -0.578004 0
M  V30 5609 H 557.244 -2.7765 1.13359 0
M  V30 5610 H 554.797 -1.43245 0.625354 0
M  V30 5611 H 555.532 -2.90823 -1.435 0
M  V30 5612 H 555.317 -3.92094 0.0220539 0
M  V30 5613 H 556.807 -4.06472 -0.957626 0
M  V30 5614 N 557.244 -0.608902 -1.45362 0
M  V30 5615 C 558.191 0.109172 -2.30542 0
M  V30 5616 C 559.161 0.858704 -1.42181 0
M  V30 5617 O 560.346 0.844178 -1.71109 0
M  V30 5618 C 557.486 1.09971 -3.27109 0
M  V30 5619 C 556.599 0.350911 -4.30572 0
M  V30 5620 C 555.734 1.33129 -5.14247 0
M  V30 5621 C 554.773 0.570377 -6.09437 0
M  V30 5622 N 553.91 1.5001 -6.85887 0
M  V30 5623 H 558.75 -0.623195 -2.91411 0
M  V30 5624 H 556.287 -0.319122 -1.43597 0
M  V30 5625 H 558.245 1.68714 -3.81564 0
M  V30 5626 H 556.875 1.79947 -2.67991 0
M  V30 5627 H 555.927 -0.352054 -3.78767 0
M  V30 5628 H 557.239 -0.242725 -4.98209 0
M  V30 5629 H 556.393 1.99074 -5.73109 0
M  V30 5630 H 555.132 1.95885 -4.46632 0
M  V30 5631 H 554.137 -0.102702 -5.49704 0
M  V30 5632 H 555.362 -0.0521607 -6.7908 0
M  V30 5633 H 553.308 2.11529 -6.2096 0
M  V30 5634 H 553.225 0.959934 -7.49881 0
M  V30 5635 H 554.493 2.14909 -7.49289 0
M  V30 5636 N 558.722 1.53707 -0.348139 0
M  V30 5637 C 559.632 2.28881 0.514857 0
M  V30 5638 C 560.648 1.34168 1.10793 0
M  V30 5639 O 561.824 1.6721 1.12262 0
M  V30 5640 C 558.889 3.05042 1.64774 0
M  V30 5641 C 557.95 4.15389 1.08398 0
M  V30 5642 C 557.183 4.87909 2.16287 0
M  V30 5643 O 557.406 4.60137 3.3709 0
M  V30 5644 O 556.34 5.74254 1.80323 0
M  V30 5645 H 560.166 3.03547 -0.0963699 0
M  V30 5646 H 557.751 1.48972 -0.113043 0
M  V30 5647 H 559.633 3.52656 2.30677 0
M  V30 5648 H 558.308 2.33228 2.24469 0
M  V30 5649 H 557.215 3.72068 0.389341 0
M  V30 5650 H 558.548 4.89318 0.531829 0
M  V30 5651 N 560.2 0.0768682 1.57412 0
M  V30 5652 C 561.616 -0.279772 1.57129 0
M  V30 5653 C 561.816 -1.69688 1.08666 0
M  V30 5654 O 560.872 -2.40953 0.754843 0
M  V30 5655 C 562.185 -0.0848055 3.0058 0
M  V30 5656 C 563.733 -0.153954 3.12621 0
M  V30 5657 C 564.208 0.0127946 4.57998 0
M  V30 5658 N 565.699 -0.0426435 4.6318 0
M  V30 5659 C 566.434 0.0618892 5.73367 0
M  V30 5660 N 565.93 0.220229 6.9245 0
M  V30 5661 N 567.723 0.00446072 5.621 0
M  V30 5662 H 559.874 1.00297 1.87228 0
M  V30 5663 H 562.137 0.391565 0.863354 0
M  V30 5664 H 561.843 0.89325 3.40168 0
M  V30 5665 H 561.717 -0.834961 3.67843 0
M  V30 5666 H 564.104 -1.1225 2.72917 0
M  V30 5667 H 564.185 0.627389 2.47987 0
M  V30 5668 H 563.829 0.978128 4.98392 0
M  V30 5669 H 563.759 -0.788016 5.20671 0
M  V30 5670 H 566.25 -0.163226 3.77547 0
M  V30 5671 H 566.563 0.291999 7.72248 0
M  V30 5672 H 564.908 0.255658 6.9453 0
M  V30 5673 H 568.099 -0.117979 4.67951 0
M  V30 5674 H 568.272 0.0893796 6.47938 0
M  V30 5675 N 561.678 -1.56367 -0.196722 0
M  V30 5676 C 562.641 -1.93561 -1.22746 0
M  V30 5677 C 563.641 -0.816566 -1.38524 0
M  V30 5678 O 564.831 -1.084 -1.36363 0
M  V30 5679 C 561.963 -2.20823 -2.59712 0
M  V30 5680 H 563.156 -2.85774 -0.909586 0
M  V30 5681 H 560.709 -1.50032 -0.438174 0
M  V30 5682 H 561.444 -1.31243 -2.96557 0
M  V30 5683 H 561.229 -3.02368 -2.49632 0
M  V30 5684 H 562.719 -2.50608 -3.34044 0
M  V30 5685 N 563.156 0.464375 -1.50603 0
M  V30 5686 C 564.119 1.54393 -1.69397 0
M  V30 5687 C 565.119 1.50566 -0.564504 0
M  V30 5688 O 566.309 1.53066 -0.831645 0
M  V30 5689 C 563.441 2.9401 -1.72543 0
M  V30 5690 H 564.634 1.39044 -2.65719 0
M  V30 5691 H 562.187 0.69122 -1.40185 0
M  V30 5692 H 562.922 3.14795 -0.77938 0
M  V30 5693 H 562.707 2.98195 -2.54602 0
M  V30 5694 H 564.197 3.72375 -1.89015 0
M  V30 5695 N 564.634 1.40294 0.718013 0
M  V30 5696 C 565.597 1.4012 1.81381 0
M  V30 5697 C 566.597 0.295405 1.58063 0
M  V30 5698 O 567.787 0.554187 1.6515 0
M  V30 5699 C 564.919 1.19056 3.19435 0
M  V30 5700 H 566.112 2.37645 1.82933 0
M  V30 5701 H 563.665 1.26107 0.923405 0
M  V30 5702 H 564.4 0.222809 3.23534 0
M  V30 5703 H 564.185 1.99152 3.37758 0
M  V30 5704 H 565.675 1.21716 3.99468 0
M  V30 5705 N 566.112 -0.949982 1.2575 0
M  V30 5706 C 567.059 -2.04738 1.06541 0
M  V30 5707 C 568.029 -1.66078 -0.0268818 0
M  V30 5708 O 569.214 -1.90348 0.131196 0
M  V30 5709 C 566.354 -3.38027 0.695127 0
M  V30 5710 C 565.467 -3.89776 1.86276 0
M  V30 5711 C 564.602 -5.11411 1.4364 0
M  V30 5712 C 563.641 -5.554 2.57287 0
M  V30 5713 N 562.778 -6.68244 2.15395 0
M  V30 5714 H 567.618 -2.20502 2.00457 0
M  V30 5715 H 565.155 -1.0805 0.998178 0
M  V30 5716 H 567.113 -4.14641 0.461375 0
M  V30 5717 H 565.743 -3.22135 -0.207046 0
M  V30 5718 H 564.795 -3.0964 2.20969 0
M  V30 5719 H 566.107 -4.18368 2.71606 0
M  V30 5720 H 565.261 -5.95457 1.16257 0
M  V30 5721 H 564 -4.84545 0.553879 0
M  V30 5722 H 563.005 -4.69916 2.85409 0
M  V30 5723 H 564.23 -5.84272 3.46125 0
M  V30 5724 H 562.176 -6.43078 1.29565 0
M  V30 5725 H 562.093 -6.96377 2.94272 0
M  V30 5726 H 563.361 -7.55687 1.91201 0
M  V30 5727 N 567.59 -1.07411 -1.15328 0
M  V30 5728 C 568.867 -0.710732 -1.82231 0
M  V30 5729 C 569.247 0.806732 -1.95077 0
M  V30 5730 O 568.595 1.72139 -1.50268 0
M  V30 5731 C 568.805 -1.42586 -3.18544 0
M  V30 5732 C 570.153 -1.57836 -3.94174 0
M  V30 5733 O 571.177 -1.38669 -3.281 0
M  V30 5734 O 570.036 -1.8938 -5.12638 0
M  V30 5735 H 567.13 -0.25297 -0.78736 0
M  V30 5736 H 569.676 -1.17508 -1.22434 0
M  V30 5737 H 568.448 -2.46008 -3.04296 0
M  V30 5738 H 568.071 -0.952332 -3.86026 0
M  V30 5739 N 569.068 1.32177 -0.85831 0
M  V30 5740 C 570.015 2.28794 -0.303607 0
M  V30 5741 C 570.985 1.55213 0.591453 0
M  V30 5742 O 572.17 1.83418 0.525585 0
M  V30 5743 C 569.31 3.41475 0.49889 0
M  V30 5744 C 568.423 4.2993 -0.422373 0
M  V30 5745 C 567.558 5.29743 0.393111 0
M  V30 5746 C 566.597 6.09842 -0.525317 0
M  V30 5747 N 565.734 7.01643 0.253208 0
M  V30 5748 H 570.574 2.75631 -1.13276 0
M  V30 5749 H 568.111 1.35606 -0.570026 0
M  V30 5750 H 570.069 4.05531 0.979826 0
M  V30 5751 H 568.699 2.95779 1.29284 0
M  V30 5752 H 567.751 3.66422 -1.02171 0
M  V30 5753 H 569.063 4.85899 -1.12709 0
M  V30 5754 H 568.217 5.9942 0.937056 0
M  V30 5755 H 566.956 4.744 1.13117 0
M  V30 5756 H 565.961 5.39066 -1.08112 0
M  V30 5757 H 567.186 6.6727 -1.26205 0
M  V30 5758 H 565.132 6.48725 0.974295 0
M  V30 5759 H 565.049 7.54981 -0.392398 0
M  V30 5760 H 566.317 7.756 0.778761 0
M  V30 5761 N 570.547 0.616602 1.45037 0
M  V30 5762 C 571.777 0.121791 2.06241 0
M  V30 5763 C 572.185 -1.20289 1.46038 0
M  V30 5764 O 571.528 -1.7456 0.572242 0
M  V30 5765 C 571.59 -0.0827345 3.59405 0
M  V30 5766 C 571.254 1.16153 4.41993 0
M  V30 5767 C 572.251 2.08183 4.76399 0
M  V30 5768 C 569.936 1.39288 4.82601 0
M  V30 5769 C 571.93 3.21668 5.5028 0
M  V30 5770 C 569.617 2.53073 5.56235 0
M  V30 5771 C 570.615 3.44091 5.89992 0
M  V30 5772 O 570.303 4.55894 6.6213 0
M  V30 5773 H 570.035 0.0701667 0.672349 0
M  V30 5774 H 572.589 0.846877 1.87129 0
M  V30 5775 H 570.819 -0.862812 3.76952 0
M  V30 5776 H 572.508 -0.530273 4.02421 0
M  V30 5777 H 573.274 1.91538 4.45576 0
M  V30 5778 H 569.153 0.693396 4.55755 0
M  V30 5779 H 572.697 3.92733 5.76547 0
M  V30 5780 H 568.594 2.69667 5.86472 0
M  V30 5781 H 569.362 4.5469 6.80587 0
M  V30 5782 N 572.025 -1.5352 0.356285 0
M  V30 5783 C 572.957 -2.23009 -0.529127 0
M  V30 5784 C 573.97 -1.241 -1.05371 0
M  V30 5785 O 575.159 -1.50379 -0.961679 0
M  V30 5786 C 572.259 -2.90685 -1.74229 0
M  V30 5787 C 571.432 -4.16019 -1.35081 0
M  V30 5788 C 570.491 -4.66989 -2.42502 0
M  V30 5789 O 569.517 -5.30895 -2.05279 0
M  V30 5790 N 570.719 -4.44006 -3.7395 0
M  V30 5791 H 573.484 -2.99627 0.0660501 0
M  V30 5792 H 571.045 -1.60885 0.181014 0
M  V30 5793 H 573.037 -3.21695 -2.4555 0
M  V30 5794 H 571.607 -2.17575 -2.24454 0
M  V30 5795 H 570.827 -3.91414 -0.467833 0
M  V30 5796 H 572.115 -4.9752 -1.06542 0
M  V30 5797 H 571.513 -3.92924 -4.06973 0
M  V30 5798 H 570.07 -4.7959 -4.41403 0
M  V30 5799 N 573.503 -0.0852151 -1.57369 0
M  V30 5800 C 574.433 0.874556 -2.16503 0
M  V30 5801 C 575.414 1.30111 -1.09568 0
M  V30 5802 O 576.599 1.36977 -1.37662 0
M  V30 5803 C 573.729 2.13731 -2.73745 0
M  V30 5804 C 572.683 1.84971 -3.85966 0
M  V30 5805 C 572.009 3.17991 -4.29867 0
M  V30 5806 C 573.309 1.14442 -5.09608 0
M  V30 5807 H 575.003 0.381899 -2.96954 0
M  V30 5808 H 572.549 0.18225 -1.42842 0
M  V30 5809 H 574.502 2.81302 -3.13763 0
M  V30 5810 H 573.226 2.65263 -1.90534 0
M  V30 5811 H 571.885 1.19801 -3.46473 0
M  V30 5812 H 571.533 3.6739 -3.4356 0
M  V30 5813 H 571.233 2.99534 -5.05523 0
M  V30 5814 H 572.757 3.86737 -4.72511 0
M  V30 5815 H 574.171 1.72105 -5.46857 0
M  V30 5816 H 572.568 1.06197 -5.90629 0
M  V30 5817 H 573.638 0.12559 -4.84737 0
M  V30 5818 N 574.981 1.5647 0.188427 0
M  V30 5819 C 575.944 1.9421 1.21718 0
M  V30 5820 C 576.944 0.823901 1.38089 0
M  V30 5821 O 578.134 1.09122 1.35787 0
M  V30 5822 C 575.266 2.22197 2.58537 0
M  V30 5823 H 576.459 2.86252 0.894418 0
M  V30 5824 H 574.012 1.50263 0.430211 0
M  V30 5825 H 574.747 1.32814 2.95856 0
M  V30 5826 H 574.532 3.03688 2.48025 0
M  V30 5827 H 576.022 2.52376 3.3271 0
M  V30 5828 N 576.459 -0.456382 1.50847 0
M  V30 5829 C 577.684 -1.2349 1.66628 0
M  V30 5830 C 578.109 -1.84715 0.355254 0
M  V30 5831 O 577.467 -1.67961 -0.682559 0
M  V30 5832 C 577.515 -2.30865 2.77009 0
M  V30 5833 O 576.619 -3.35882 2.39285 0
M  V30 5834 H 575.96 -0.36266 0.556214 0
M  V30 5835 H 578.49 -0.541374 1.97308 0
M  V30 5836 H 578.5 -2.75949 3.00526 0
M  V30 5837 H 577.175 -1.85677 3.72152 0
M  V30 5838 H 575.752 -2.96406 2.26269 0
M  V30 5839 N 577.937 -1.40673 -0.710563 0
M  V30 5840 C 579.185 -1.38947 -1.46759 0
M  V30 5841 C 579.506 0.00572879 -1.94999 0
M  V30 5842 O 578.776 0.961358 -1.70689 0
M  V30 5843 H 577.356 -0.5114 -0.544499 0
M  V30 5844 H 580.018 -1.75773 -0.842012 0
M  V30 5845 H 579.114 -2.06745 -2.33801 0
M  V30 5846 N 579.415 0.9433 -1.26252 0
M  V30 5847 C 580.347 2.04542 -1.03417 0
M  V30 5848 C 581.36 1.62799 0.0046911 0
M  V30 5849 O 582.549 1.76944 -0.235146 0
M  V30 5850 C 579.649 3.34511 -0.543671 0
M  V30 5851 C 578.822 4.05033 -1.65128 0
M  V30 5852 C 577.881 5.13273 -1.1592 0
M  V30 5853 O 576.907 5.38095 -1.85586 0
M  V30 5854 N 578.109 5.805 -0.00649279 0
M  V30 5855 H 580.874 2.24699 -1.98319 0
M  V30 5856 H 578.435 1.11264 -1.1761 0
M  V30 5857 H 580.427 4.04212 -0.198703 0
M  V30 5858 H 578.997 3.11042 0.311711 0
M  V30 5859 H 578.217 3.29275 -2.16729 0
M  V30 5860 H 579.505 4.48903 -2.39508 0
M  V30 5861 H 578.903 5.62767 0.575347 0
M  V30 5862 H 577.46 6.51201 0.279416 0
M  V30 5863 N 580.893 1.08022 1.14757 0
M  V30 5864 C 581.84 0.706657 2.19716 0
M  V30 5865 C 582.81 -0.30525 1.63271 0
M  V30 5866 O 583.995 -0.19015 1.8985 0
M  V30 5867 C 581.135 0.117914 3.44898 0
M  V30 5868 C 580.248 1.18212 4.15512 0
M  V30 5869 C 579.383 0.557659 5.28265 0
M  V30 5870 C 578.422 1.60418 5.90705 0
M  V30 5871 N 577.559 1.0018 6.94916 0
M  V30 5872 H 582.399 1.60603 2.51019 0
M  V30 5873 H 579.936 0.802664 1.23271 0
M  V30 5874 H 581.894 -0.241112 4.16503 0
M  V30 5875 H 580.524 -0.744788 3.1409 0
M  V30 5876 H 579.576 1.65863 3.42335 0
M  V30 5877 H 580.888 1.97533 4.5802 0
M  V30 5878 H 580.042 0.146654 6.06523 0
M  V30 5879 H 578.781 -0.267249 4.86967 0
M  V30 5880 H 577.786 2.02489 5.11154 0
M  V30 5881 H 579.011 2.43149 6.34078 0
M  V30 5882 H 576.957 0.197917 6.55701 0
M  V30 5883 H 576.874 1.73216 7.35889 0
M  V30 5884 H 578.142 0.616523 7.77058 0
M  V30 5885 N 582.371 -1.3172 0.865308 0
M  V30 5886 C 583.619 -1.96487 0.472995 0
M  V30 5887 C 583.94 -1.68761 -0.976975 0
M  V30 5888 O 583.21 -1.00051 -1.68424 0
M  V30 5889 H 581.79 -0.726947 0.171922 0
M  V30 5890 H 584.452 -1.60612 1.10407 0
M  V30 5891 H 583.548 -3.0574 0.62687 0
M  V30 5892 N 583.85 -0.624285 -1.44708 0
M  V30 5893 C 585.096 -0.126237 -2.02407 0
M  V30 5894 C 585.428 1.24618 -1.48943 0
M  V30 5895 O 584.704 1.82569 -0.670742 0
M  V30 5896 C 584.986 -0.105449 -3.59946 0
M  V30 5897 C 584.84 -1.50972 -4.23707 0
M  V30 5898 C 586.159 0.573629 -4.36346 0
M  V30 5899 H 583.278 -0.0473472 -0.735478 0
M  V30 5900 H 585.92 -0.799452 -1.72362 0
M  V30 5901 H 584.07 0.46783 -3.85673 0
M  V30 5902 H 585.742 -2.13136 -4.0911 0
M  V30 5903 H 583.985 -2.0656 -3.81465 0
M  V30 5904 H 584.656 -1.44727 -5.32689 0
M  V30 5905 H 587.132 0.0861787 -4.16011 0
M  V30 5906 H 586.008 0.557338 -5.46063 0
M  V30 5907 H 586.269 1.64276 -4.10446 0
M  V30 5908 N 585.328 1.53329 -0.364422 0
M  V30 5909 C 586.26 2.23286 0.517293 0
M  V30 5910 C 587.273 1.24657 1.04711 0
M  V30 5911 O 588.462 1.50887 0.95369 0
M  V30 5912 C 585.562 2.91604 1.72685 0
M  V30 5913 C 584.735 4.1673 1.32873 0
M  V30 5914 C 583.794 4.68269 2.40022 0
M  V30 5915 O 582.82 5.31976 2.02461 0
M  V30 5916 N 584.022 4.45983 3.7159 0
M  V30 5917 H 586.787 2.99588 -0.0819391 0
M  V30 5918 H 584.348 1.60787 -0.189544 0
M  V30 5919 H 586.34 3.22992 2.4384 0
M  V30 5920 H 584.91 2.18763 2.23297 0
M  V30 5921 H 584.13 3.91657 0.447069 0
M  V30 5922 H 585.418 4.98078 1.03902 0
M  V30 5923 H 584.816 3.95077 4.04883 0
M  V30 5924 H 583.373 4.81924 4.38854 0
M  V30 5925 N 586.806 0.0935595 1.57322 0
M  V30 5926 C 588.052 -0.571355 1.94585 0
M  V30 5927 C 588.385 -1.67929 0.975366 0
M  V30 5928 O 587.66 -1.94498 0.00816206 0
M  V30 5929 C 587.943 -1.12797 3.41978 0
M  V30 5930 C 587.796 -0.0251881 4.49793 0
M  V30 5931 C 589.115 -2.02682 3.90651 0
M  V30 5932 H 586.234 -0.206223 0.70756 0
M  V30 5933 H 588.876 0.163956 1.89291 0
M  V30 5934 H 587.026 -1.75461 3.4662 0
M  V30 5935 H 588.698 0.608979 4.57263 0
M  V30 5936 H 586.941 0.641399 4.29032 0
M  V30 5937 H 587.612 -0.455433 5.50118 0
M  V30 5938 H 590.088 -1.49925 3.88152 0
M  V30 5939 H 588.964 -2.38555 4.94351 0
M  V30 5940 H 589.225 -2.94362 3.29854 0
M  V30 5941 N 588.284 -1.56567 -0.180126 0
M  V30 5942 C 589.695 -1.7126 -0.743422 0
M  V30 5943 C 590.046 -0.70263 -1.83187 0
M  V30 5944 O 589.171 0.137856 -2.1596 0
M  V30 5945 C 589.766 -3.10512 -1.35528 0
M  V30 5946 C 588.325 -3.26919 -1.8655 0
M  V30 5947 C 587.472 -2.67213 -0.741099 0
M  V30 5948 H 590.423 -1.58636 0.0451543 0
M  V30 5949 H 590.444 -3.08673 -2.22489 0
M  V30 5950 H 589.956 -3.83997 -0.562862 0
M  V30 5951 H 588.057 -2.58376 -2.68464 0
M  V30 5952 H 588.17 -4.34574 -2.01699 0
M  V30 5953 H 586.534 -2.26788 -1.15927 0
M  V30 5954 H 587.317 -3.43277 0.0393291 0
M  V30 5955 N 589.762 0.448376 -1.51087 0
M  V30 5956 C 591.008 1.20049 -1.6345 0
M  V30 5957 C 591.341 1.91121 -0.344444 0
M  V30 5958 O 590.616 1.83125 0.655396 0
M  V30 5959 C 590.899 2.22624 -2.83038 0
M  V30 5960 C 590.752 1.55708 -4.21989 0
M  V30 5961 C 592.071 3.23718 -2.98152 0
M  V30 5962 H 589.19 0.435085 -0.59487 0
M  V30 5963 H 591.832 0.491183 -1.83541 0
M  V30 5964 H 589.982 2.83117 -2.66039 0
M  V30 5965 H 591.654 0.986367 -4.50631 0
M  V30 5966 H 589.897 0.859647 -4.25197 0
M  V30 5967 H 590.568 2.30357 -5.01637 0
M  V30 5968 H 593.044 2.73269 -3.13788 0
M  V30 5969 H 591.92 3.92795 -3.83411 0
M  V30 5970 H 592.181 3.89179 -2.09743 0
M  V30 5971 N 591.24 1.41047 0.703093 0
M  V30 5972 C 592.465 1.43537 1.49706 0
M  V30 5973 C 592.89 0.0401853 1.88057 0
M  V30 5974 O 592.248 -0.954785 1.54122 0
M  V30 5975 C 592.296 2.3433 2.74084 0
M  V30 5976 O 591.4 1.79515 3.71279 0
M  V30 5977 H 590.741 0.487454 0.450871 0
M  V30 5978 H 593.271 1.85422 0.86486 0
M  V30 5979 H 593.281 2.49947 3.22476 0
M  V30 5980 H 591.956 3.35708 2.45506 0
M  V30 5981 H 590.533 1.7331 3.30179 0
M  V30 5982 N 592.718 -0.936591 1.26751 0
M  V30 5983 C 593.65 -2.03991 1.045 0
M  V30 5984 C 594.663 -1.628 0.00394261 0
M  V30 5985 O 595.852 -1.76817 0.244526 0
M  V30 5986 C 592.952 -3.34218 0.561403 0
M  V30 5987 C 592.125 -4.04151 1.67274 0
M  V30 5988 C 591.184 -5.12651 1.1864 0
M  V30 5989 O 590.21 -5.37104 1.88437 0
M  V30 5990 N 591.412 -5.80488 0.037278 0
M  V30 5991 H 594.177 -2.23644 1.99508 0
M  V30 5992 H 591.738 -1.10638 1.18198 0
M  V30 5993 H 593.73 -4.04101 0.220136 0
M  V30 5994 H 592.3 -3.11203 -0.295211 0
M  V30 5995 H 591.52 -3.28121 2.18472 0
M  V30 5996 H 592.808 -4.47626 2.41885 0
M  V30 5997 H 592.206 -5.63064 -0.545494 0
M  V30 5998 H 590.763 -6.5134 -0.244877 0
M  V30 5999 N 594.196 -1.08629 -1.14182 0
M  V30 6000 C 595.607 -0.838003 -1.66836 0
M  V30 6001 C 595.958 0.634885 -1.85644 0
M  V30 6002 O 595.083 1.49008 -1.56926 0
M  V30 6003 C 595.678 -1.51465 -3.03058 0
M  V30 6004 C 594.237 -1.31355 -3.52736 0
M  V30 6005 C 593.384 -1.57599 -2.28162 0
M  V30 6006 H 596.335 -1.24656 -0.982165 0
M  V30 6007 H 596.356 -0.943134 -3.68626 0
M  V30 6008 H 595.868 -2.58661 -2.89337 0
M  V30 6009 H 593.969 -0.262384 -3.71675 0
M  V30 6010 H 594.082 -2.04275 -4.33369 0
M  V30 6011 H 592.446 -0.997659 -2.34348 0
M  V30 6012 H 593.229 -2.66006 -2.17015 0
M  V30 6013 N 595.674 1.31259 -0.872281 0
M  V30 6014 C 597.085 1.78822 -0.536617 0
M  V30 6015 C 597.436 1.71855 0.946594 0
M  V30 6016 O 596.561 1.28769 1.73918 0
M  V30 6017 C 597.156 3.24698 -0.967294 0
M  V30 6018 C 595.715 3.70147 -0.683251 0
M  V30 6019 C 594.862 2.51994 -1.15733 0
M  V30 6020 H 597.813 1.18308 -1.05777 0
M  V30 6021 H 597.834 3.79386 -0.290929 0
M  V30 6022 H 597.346 3.29737 -2.04683 0
M  V30 6023 H 595.447 3.70607 0.384825 0
M  V30 6024 H 595.56 4.62183 -1.2619 0
M  V30 6025 H 593.924 2.48078 -0.577024 0
M  V30 6026 H 594.707 2.59778 -2.24434 0
M  V30 6027 N 597.152 0.631951 1.44375 0
M  V30 6028 C 598.38 0.143867 2.06399 0
M  V30 6029 C 598.795 -1.18188 1.47231 0
M  V30 6030 O 598.152 -1.72511 0.595498 0
M  V30 6031 C 598.203 0.0238253 3.61492 0
M  V30 6032 O 597.924 1.29715 4.18456 0
M  V30 6033 C 599.425 -0.492856 4.40552 0
M  V30 6034 H 596.645 0.0800542 0.666207 0
M  V30 6035 H 599.189 0.866586 1.85231 0
M  V30 6036 H 597.344 -0.649338 3.81919 0
M  V30 6037 H 597.758 1.14252 5.11905 0
M  V30 6038 H 599.232 -0.525861 5.49489 0
M  V30 6039 H 599.709 -1.52006 4.12057 0
M  V30 6040 H 600.315 0.147085 4.25046 0
M  V30 6041 N 598.631 -1.53133 0.372548 0
M  V30 6042 C 600.042 -1.86404 -0.105155 0
M  V30 6043 C 600.393 -1.29289 -1.47576 0
M  V30 6044 O 599.518 -0.617646 -2.07398 0
M  V30 6045 C 600.113 -3.38223 -0.197588 0
M  V30 6046 C 598.672 -3.71266 -0.619556 0
M  V30 6047 C 597.819 -2.76353 0.228919 0
M  V30 6048 H 600.77 -1.47282 0.591077 0
M  V30 6049 H 600.791 -3.66577 -1.01987 0
M  V30 6050 H 600.303 -3.79763 0.800099 0
M  V30 6051 H 598.404 -3.35287 -1.62522 0
M  V30 6052 H 598.517 -4.77515 -0.389332 0
M  V30 6053 H 596.881 -2.52888 -0.303271 0
M  V30 6054 H 597.664 -3.20728 1.22428 0
M  V30 6055 N 600.109 -0.101901 -1.5727 0
M  V30 6056 C 601.337 0.568392 -1.98939 0
M  V30 6057 C 601.752 1.61301 -0.981194 0
M  V30 6058 O 601.109 1.82478 0.0282869 0
M  V30 6059 C 601.16 1.20997 -3.40649 0
M  V30 6060 O 600.881 0.207129 -4.3761 0
M  V30 6061 C 602.382 1.96523 -3.97358 0
M  V30 6062 H 599.602 0.15186 -0.65359 0
M  V30 6063 H 602.146 -0.183198 -2.03678 0
M  V30 6064 H 600.301 1.91245 -3.36904 0
M  V30 6065 H 600.715 0.671071 -5.20189 0
M  V30 6066 H 602.189 2.36764 -4.98645 0
M  V30 6067 H 602.666 2.83376 -3.35552 0
M  V30 6068 H 603.272 1.31076 -4.04598 0
M  V30 6069 O 601.626 1.61455 0.0379495 0
M  V30 6070 H 602.317 1.82122 0.659643 0
M  V30 END ATOM
M  V30 BEGIN BOND
M  V30 END BOND
M  V30 END CTAB
M  END
$$$$
