drugbank_target|P37700 Endoglucanase G (DB02061; DB02361; DB02379; DB03584; DB03859)
 OpenBabel12092119553D

  0  0  0     0  0            999 V3000
M  V30 BEGIN CTAB
M  V30 COUNTS 11004 11156 0 0 0
M  V30 BEGIN ATOM
M  V30 1 H -0.908 1.98254 -0.117106 0
M  V30 2 N 0 1.576 0 0
M  V30 3 C 0.933 2.03868 1.02534 0
M  V30 4 C 1.911 0.928543 1.3348 0
M  V30 5 O 3.095 1.19667 1.45644 0
M  V30 6 C 0.222 2.43627 2.35294 0
M  V30 7 C -0.732 3.65373 2.2001 0
M  V30 8 S 0.101 5.13292 1.52614 0
M  V30 9 C 1.257 5.56322 2.86805 0
M  V30 10 H 1.49 2.90518 0.631377 0
M  V30 11 H -0.977 1.52953 0.210867 0
M  V30 12 H 0.981 2.67203 3.11629 0
M  V30 13 H -0.358 1.57376 2.7183 0
M  V30 14 H -1.165 3.90944 3.18086 0
M  V30 15 H -1.563 3.418 1.51819 0
M  V30 16 H 0.729 5.58782 3.83104 0
M  V30 17 H 1.672 6.56266 2.65933 0
M  V30 18 H 2.08 4.83886 2.90714 0
M  V30 19 N 1.4781 -0.272755 1.55222 0
M  V30 20 C 2.4081 -1.34136 1.91127 0
M  V30 21 C 3.3891 -1.51513 0.773168 0
M  V30 22 O 4.5741 -1.64552 1.03132 0
M  V30 23 C 1.7041 -2.70083 2.1834 0
M  V30 24 C 0.6581 -2.67437 3.34158 0
M  V30 25 C -0.0159 -4.06938 3.46851 0
M  V30 26 C 1.2841 -2.26686 4.70543 0
M  V30 27 H 2.9781 -1.04333 2.80633 0
M  V30 28 H 0.5241 -0.500454 1.35024 0
M  V30 29 H 2.4771 -3.44952 2.42046 0
M  V30 30 H 1.2011 -3.01469 1.25634 0
M  V30 31 H -0.1399 -1.95026 3.1042 0
M  V30 32 H -0.4919 -4.35547 2.51611 0
M  V30 33 H -0.7919 -4.06062 4.2472 0
M  V30 34 H 0.7321 -4.83545 3.72849 0
M  V30 35 H 2.1461 -2.91277 4.93792 0
M  V30 36 H 0.5431 -2.36971 5.5133 0
M  V30 37 H 1.6131 -1.21818 4.69349 0
M  V30 38 N 2.9562 -1.48159 -0.537278 0
M  V30 39 C 3.9032 -1.62138 -1.64256 0
M  V30 40 C 4.8732 -0.463668 -1.59497 0
M  V30 41 O 6.0582 -0.686241 -1.78032 0
M  V30 42 C 3.1982 -1.66028 -3.02537 0
M  V30 43 C 2.3112 -2.92855 -3.17585 0
M  V30 44 C 1.4462 -2.87952 -4.46382 0
M  V30 45 C 0.4852 -4.09516 -4.54932 0
M  V30 46 N -0.3778 -4.02733 -5.75109 0
M  V30 47 H 4.4622 -2.56529 -1.51647 0
M  V30 48 H 1.9992 -1.27224 -0.738414 0
M  V30 49 H 3.9572 -1.66265 -3.82638 0
M  V30 50 H 2.5872 -0.751331 -3.13934 0
M  V30 51 H 1.6392 -3.02395 -2.30784 0
M  V30 52 H 2.9512 -3.82822 -3.19764 0
M  V30 53 H 2.1052 -2.8655 -5.34765 0
M  V30 54 H 0.8442 -1.95702 -4.46712 0
M  V30 55 H -0.1508 -4.11201 -3.64957 0
M  V30 56 H 1.0742 -5.02917 -4.56346 0
M  V30 57 H -0.9798 -3.13299 -5.76351 0
M  V30 58 H -1.0628 -4.86397 -5.78752 0
M  V30 59 H 0.2052 -4.05379 -6.65799 0
M  V30 60 N 4.4343 0.785586 -1.36625 0
M  V30 61 C 5.6623 1.57448 -1.3423 0
M  V30 62 C 6.0773 1.88649 0.0755653 0
M  V30 63 O 5.4343 1.50414 1.03354 0
M  V30 64 C 5.4853 2.89316 -2.16745 0
M  V30 65 O 5.2063 2.59459 -3.53005 0
M  V30 66 C 6.7073 3.83606 -2.22174 0
M  V30 67 H 3.9273 0.488226 -0.4603 0
M  V30 68 H 6.4713 0.974733 -1.79775 0
M  V30 69 H 4.6263 3.4575 -1.74745 0
M  V30 70 H 5.0403 3.43804 -3.96105 0
M  V30 71 H 6.5143 4.73181 -2.8426 0
M  V30 72 H 6.9913 4.21734 -1.22627 0
M  V30 73 H 7.5973 3.33104 -2.64427 0
M  V30 74 N 5.9124 1.20967 1.01018 0
M  V30 75 C 6.8594 0.964281 2.09691 0
M  V30 76 C 7.8294 -0.107853 1.65749 0
M  V30 77 O 9.0144 0.0381987 1.90762 0
M  V30 78 C 6.1544 0.52943 3.41015 0
M  V30 79 C 5.2674 1.67043 3.98398 0
M  V30 80 C 4.4024 1.18525 5.17808 0
M  V30 81 C 3.4414 2.29892 5.67288 0
M  V30 82 N 2.5784 1.82546 6.77954 0
M  V30 83 H 7.4184 1.89463 2.30017 0
M  V30 84 H 4.9554 0.944289 1.1279 0
M  V30 85 H 6.9134 0.258588 4.16398 0
M  V30 86 H 5.5434 -0.363919 3.20742 0
M  V30 87 H 4.5954 2.05603 3.20049 0
M  V30 88 H 5.9074 2.50877 4.31117 0
M  V30 89 H 5.0614 0.870762 6.00419 0
M  V30 90 H 3.8004 0.316887 4.86669 0
M  V30 91 H 2.8054 2.6215 4.83278 0
M  V30 92 H 4.0304 3.17216 6.00459 0
M  V30 93 H 1.9764 0.980454 6.48632 0
M  V30 94 H 1.8934 2.59956 7.09901 0
M  V30 95 H 3.1614 1.54115 7.64113 0
M  V30 96 N 7.3905 -1.2043 1.01659 0
M  V30 97 C 8.8065 -1.41852 0.731442 0
M  V30 98 C 9.0065 -1.89358 -0.688898 0
M  V30 99 O 8.0625 -2.06247 -1.45666 0
M  V30 100 C 9.3755 -2.44019 1.75714 0
M  V30 101 C 10.9235 -2.57785 1.77527 0
M  V30 102 C 11.3985 -3.63194 2.79023 0
M  V30 103 N 12.8895 -3.70678 2.77763 0
M  V30 104 C 13.6245 -4.51897 3.52954 0
M  V30 105 N 13.1205 -5.36921 4.37821 0
M  V30 106 N 14.9135 -4.4643 3.41551 0
M  V30 107 H 7.0645 -0.879093 1.93354 0
M  V30 108 H 9.3275 -0.448425 0.835236 0
M  V30 109 H 9.0335 -2.1611 2.77469 0
M  V30 110 H 8.9075 -3.43007 1.56927 0
M  V30 111 H 11.2945 -2.85023 0.764569 0
M  V30 112 H 11.3755 -1.58992 2.00387 0
M  V30 113 H 11.0195 -3.36699 3.80258 0
M  V30 114 H 10.9495 -4.61609 2.53425 0
M  V30 115 H 13.4405 -3.09944 2.16201 0
M  V30 116 H 13.7535 -5.95981 4.91962 0
M  V30 117 H 12.0985 -5.36424 4.41899 0
M  V30 118 H 15.2895 -3.79042 2.74672 0
M  V30 119 H 15.4625 -5.09491 4.00404 0
M  V30 120 N 8.8686 -0.792821 -1.36206 0
M  V30 121 C 9.8156 -0.191653 -2.30003 0
M  V30 122 C 10.7856 0.666453 -1.52143 0
M  V30 123 O 11.9706 0.61442 -1.80636 0
M  V30 124 C 9.1106 0.664848 -3.38635 0
M  V30 125 C 8.2236 -0.212175 -4.31479 0
M  V30 126 C 7.3586 0.651022 -5.27196 0
M  V30 127 C 6.3976 -0.227247 -6.11678 0
M  V30 128 N 5.5346 0.595127 -6.99573 0
M  V30 129 H 10.3746 -0.996978 -2.80828 0
M  V30 130 H 7.9116 -0.503206 -1.38225 0
M  V30 131 H 9.8696 1.17645 -4.00269 0
M  V30 132 H 8.4996 1.43557 -2.89122 0
M  V30 133 H 7.5516 -0.841777 -3.70969 0
M  V30 134 H 8.8636 -0.888751 -4.90818 0
M  V30 135 H 8.0176 1.2283 -5.94136 0
M  V30 136 H 6.7566 1.36121 -4.68319 0
M  V30 137 H 5.7616 -0.816904 -5.43697 0
M  V30 138 H 6.9866 -0.93509 -6.72631 0
M  V30 139 H 4.9326 1.28955 -6.432 0
M  V30 140 H 4.8496 -0.0236952 -7.55996 0
M  V30 141 H 6.1176 1.15613 -7.70879 0
M  V30 142 N 10.3467 1.47872 -0.545128 0
M  V30 143 C 11.2767 2.32661 0.197793 0
M  V30 144 C 12.2577 1.43041 0.920504 0
M  V30 145 O 13.4427 1.71912 0.90333 0
M  V30 146 C 10.5727 3.24569 1.23582 0
M  V30 147 C 9.5267 4.23333 0.630323 0
M  V30 148 C 8.8527 5.0448 1.77211 0
M  V30 149 C 10.1527 5.20704 -0.407974 0
M  V30 150 H 11.8467 2.95024 -0.510045 0
M  V30 151 H 9.3927 1.4187 -0.246731 0
M  V30 152 H 11.3457 3.8272 1.76362 0
M  V30 153 H 10.0697 2.60236 1.97344 0
M  V30 154 H 8.7287 3.6639 0.123922 0
M  V30 155 H 8.3767 4.36561 2.49847 0
M  V30 156 H 8.0767 5.71339 1.37281 0
M  V30 157 H 9.6007 5.65487 2.3034 0
M  V30 158 H 11.0147 5.7329 0.033305 0
M  V30 159 H 9.4117 5.95699 -0.725486 0
M  V30 160 H 10.4817 4.66917 -1.30828 0
M  V30 161 N 11.8248 0.280983 1.55075 0
M  V30 162 C 13.0528 -0.337293 2.04132 0
M  V30 163 C 13.4678 -1.4903 1.15912 0
M  V30 164 O 12.8248 -1.81606 0.180459 0
M  V30 165 C 12.8758 -0.812706 3.52246 0
M  V30 166 O 12.5968 0.294387 4.3711 0
M  V30 167 C 14.0978 -1.4982 4.17216 0
M  V30 168 H 11.3178 -0.0761638 0.666663 0
M  V30 169 H 13.8618 0.414787 2.00249 0
M  V30 170 H 12.0168 -1.51486 3.56554 0
M  V30 171 H 12.4308 -0.0721325 5.2445 0
M  V30 172 H 13.9048 -1.7822 5.22438 0
M  V30 173 H 14.3818 -2.43168 3.65741 0
M  V30 174 H 14.9878 -0.839742 4.16927 0
M  V30 175 N 13.3029 -1.57598 0.00835791 0
M  V30 176 C 14.2499 -2.08945 -0.980346 0
M  V30 177 C 15.2199 -0.986738 -1.33614 0
M  V30 178 O 16.4049 -1.25968 -1.43306 0
M  V30 179 C 13.5449 -2.60425 -2.26435 0
M  V30 180 C 12.6579 -3.84628 -1.96685 0
M  V30 181 C 11.7929 -4.24579 -3.19228 0
M  V30 182 C 10.8319 -5.41596 -2.85202 0
M  V30 183 N 9.9689 -5.768 -4.00307 0
M  V30 184 H 14.8089 -2.93148 -0.535551 0
M  V30 185 H 12.3459 -1.44912 -0.252776 0
M  V30 186 H 14.3039 -2.88354 -3.01509 0
M  V30 187 H 12.9339 -1.79083 -2.68568 0
M  V30 188 H 11.9859 -3.63556 -1.11942 0
M  V30 189 H 13.2979 -4.69796 -1.67611 0
M  V30 190 H 12.4519 -4.53834 -4.02641 0
M  V30 191 H 11.1909 -3.38137 -3.51447 0
M  V30 192 H 10.1959 -5.12056 -2.00198 0
M  V30 193 H 11.4209 -6.29721 -2.54222 0
M  V30 194 H 9.3669 -4.93316 -4.32407 0
M  V30 195 H 9.2839 -6.5656 -3.74786 0
M  V30 196 H 10.5519 -6.10652 -4.84484 0
M  V30 197 N 14.781 0.264519 -1.55364 0
M  V30 198 C 15.744 1.31046 -1.88042 0
M  V30 199 C 16.744 1.41943 -0.755569 0
M  V30 200 O 17.934 1.40947 -1.02369 0
M  V30 201 C 15.066 2.69067 -2.09323 0
M  V30 202 H 16.259 1.03297 -2.81549 0
M  V30 203 H 13.812 0.502989 -1.47986 0
M  V30 204 H 14.547 3.01982 -1.18226 0
M  V30 205 H 14.332 2.62542 -2.91229 0
M  V30 206 H 15.822 3.44623 -2.35848 0
M  V30 207 N 16.2591 1.48442 0.529413 0
M  V30 208 C 17.5081 1.55742 1.28169 0
M  V30 209 C 17.8211 0.236511 1.94165 0
M  V30 210 O 19.0271 0.187761 2.7085 0
M  V30 211 C 17.4831 2.74667 2.32564 0
M  V30 212 C 17.0911 4.13402 1.72636 0
M  V30 213 C 18.8351 2.9128 3.08798 0
M  V30 214 C 16.7421 5.23587 2.74975 0
M  V30 215 H 15.6721 0.579796 0.48203 0
M  V30 216 H 18.3231 1.74776 0.559056 0
M  V30 217 H 16.7051 2.49067 3.07866 0
M  V30 218 H 17.8791 4.49022 1.03519 0
M  V30 219 H 16.1941 4.0191 1.08892 0
M  V30 220 H 18.7911 3.70767 3.85274 0
M  V30 221 H 19.1341 2.00757 3.64695 0
M  V30 222 H 19.6671 3.16782 2.40611 0
M  V30 223 H 16.4061 6.16076 2.23897 0
M  V30 224 H 15.9261 4.92454 3.42417 0
M  V30 225 H 17.6051 5.51724 3.37949 0
M  V30 226 N 17.7372 -0.778329 1.37039 0
M  V30 227 C 18.9852 -1.53361 1.31623 0
M  V30 228 C 19.3062 -1.94739 -0.100831 0
M  V30 229 O 18.5762 -1.65797 -1.04347 0
M  V30 230 H 17.1562 -0.568794 0.484234 0
M  V30 231 H 19.8182 -0.926742 1.71457 0
M  V30 232 H 18.9142 -2.43606 1.95096 0
M  V30 233 N 19.2153 -1.21501 -1.00376 0
M  V30 234 C 20.4613 -1.03452 -1.74429 0
M  V30 235 C 20.7943 0.430764 -1.89362 0
M  V30 236 O 20.0693 1.31962 -1.42886 0
M  V30 237 C 20.3523 -1.73375 -3.15615 0
M  V30 238 C 20.2053 -3.27431 -3.08397 0
M  V30 239 C 21.5243 -1.47732 -4.14564 0
M  V30 240 H 18.6433 -0.377226 -0.633143 0
M  V30 241 H 21.2853 -1.49693 -1.17013 0
M  V30 242 H 19.4353 -1.34064 -3.64636 0
M  V30 243 H 21.1073 -3.76119 -2.67081 0
M  V30 244 H 19.3503 -3.5767 -2.45468 0
M  V30 245 H 20.0213 -3.71524 -4.08258 0
M  V30 246 H 22.4973 -1.8186 -3.74254 0
M  V30 247 H 21.3733 -1.99169 -5.11491 0
M  V30 248 H 21.6343 -0.407589 -4.40217 0
M  V30 249 N 20.6934 1.19889 -1.02296 0
M  V30 250 C 21.6564 2.21116 -0.603351 0
M  V30 251 C 22.6564 1.5738 0.329884 0
M  V30 252 O 23.8464 1.73802 0.117702 0
M  V30 253 C 20.9784 3.40696 0.117992 0
M  V30 254 H 22.1714 2.59754 -1.49893 0
M  V30 255 H 19.7244 1.33463 -0.813468 0
M  V30 256 H 20.4594 3.07569 1.0282 0
M  V30 257 H 20.2444 3.88188 -0.552511 0
M  V30 258 H 21.7344 4.15692 0.398696 0
M  V30 259 N 22.1715 0.800033 1.35784 0
M  V30 260 C 23.1015 0.220184 2.3246 0
M  V30 261 C 24.0825 -0.65073 1.57161 0
M  V30 262 O 25.2675 -0.582359 1.85263 0
M  V30 263 C 22.3975 -0.637353 3.41402 0
M  V30 264 C 21.3515 0.134531 4.27789 0
M  V30 265 C 20.6775 -0.844285 5.27992 0
M  V30 266 C 21.9775 1.32979 5.05088 0
M  V30 267 H 23.6715 1.02787 2.81203 0
M  V30 268 H 21.2175 0.495717 1.35199 0
M  V30 269 H 23.1705 -1.05302 4.08031 0
M  V30 270 H 21.8945 -1.47785 2.91251 0
M  V30 271 H 20.5535 0.531296 3.6273 0
M  V30 272 H 20.2015 -1.68011 4.74111 0
M  V30 273 H 19.9015 -0.332184 5.8666 0
M  V30 274 H 21.4255 -1.2583 5.97494 0
M  V30 275 H 22.8395 0.98934 5.64699 0
M  V30 276 H 21.2365 1.77593 5.7322 0
M  V30 277 H 22.3065 2.11978 4.36111 0
M  V30 278 N 23.6496 -1.47581 0.552962 0
M  V30 279 C 24.8746 -2.07378 0.0300593 0
M  V30 280 C 25.2996 -1.40355 -1.25229 0
M  V30 281 O 24.6576 -0.477099 -1.7491 0
M  V30 282 C 24.7056 -3.60274 -0.153231 0
M  V30 283 O 23.8096 -3.94041 -1.21678 0
M  V30 284 H 23.1506 -0.662158 0.0494182 0
M  V30 285 H 25.6806 -1.89662 0.767434 0
M  V30 286 H 25.6906 -4.0633 -0.368761 0
M  V30 287 H 24.3656 -4.08455 0.783397 0
M  V30 288 H 22.9426 -3.59735 -0.982079 0
M  V30 289 N 25.1277 -0.289203 -1.54924 0
M  V30 290 C 26.3767 0.324231 -1.99077 0
M  V30 291 C 26.6897 1.5591 -1.18117 0
M  V30 292 O 27.8957 2.24637 -1.52481 0
M  V30 293 C 26.3517 0.628209 -3.54375 0
M  V30 294 C 25.9597 -0.587647 -4.44129 0
M  V30 295 C 27.7037 1.20349 -4.07083 0
M  V30 296 C 25.6107 -0.257475 -5.90839 0
M  V30 297 H 24.5407 0.124924 -0.743579 0
M  V30 298 H 27.1917 -0.396063 -1.79175 0
M  V30 299 H 25.5737 1.40778 -3.70132 0
M  V30 300 H 26.7477 -1.36418 -4.40144 0
M  V30 301 H 25.0627 -1.08074 -4.0213 0
M  V30 302 H 27.6597 1.46456 -5.14252 0
M  V30 303 H 28.0027 2.14195 -3.56968 0
M  V30 304 H 28.5357 0.485889 -3.94821 0
M  V30 305 H 25.2747 -1.16419 -6.45079 0
M  V30 306 H 24.7947 0.482018 -5.9786 0
M  V30 307 H 26.4737 0.145238 -6.46837 0
M  V30 308 N 26.6058 1.57591 -0.0167156 0
M  V30 309 C 27.8308 1.9598 0.67872 0
M  V30 310 C 28.2558 0.892546 1.65575 0
M  V30 311 O 27.6138 -0.147772 1.80697 0
M  V30 312 C 27.6618 3.33468 1.37227 0
M  V30 313 O 26.7658 3.28954 2.48722 0
M  V30 314 H 26.1068 0.639339 0.17928 0
M  V30 315 H 28.6368 2.04463 -0.0748802 0
M  V30 316 H 28.6468 3.69417 1.7319 0
M  V30 317 H 27.3218 4.10694 0.656007 0
M  V30 318 H 25.8988 3.04705 2.14963 0
M  V30 319 N 28.0839 -0.256276 1.55502 0
M  V30 320 C 29.3329 -0.983486 1.76098 0
M  V30 321 C 29.6459 -1.86837 0.578896 0
M  V30 322 O 30.8519 -2.63163 0.667648 0
M  V30 323 C 29.3079 -1.79868 3.1173 0
M  V30 324 C 28.9159 -0.961648 4.37557 0
M  V30 325 C 30.6599 -2.51919 3.41668 0
M  V30 326 C 28.5669 -1.77219 5.64223 0
M  V30 327 H 27.4969 -0.370936 0.656447 0
M  V30 328 H 30.1479 -0.238492 1.81944 0
M  V30 329 H 28.5299 -2.58527 2.99966 0
M  V30 330 H 29.7039 -0.218048 4.60284 0
M  V30 331 H 28.0189 -0.354913 4.14885 0
M  V30 332 H 30.6159 -3.12998 4.33516 0
M  V30 333 H 30.9589 -3.23059 2.62562 0
M  V30 334 H 31.4919 -1.80278 3.54605 0
M  V30 335 H 28.2309 -1.10471 6.46124 0
M  V30 336 H 27.7509 -2.49132 5.45613 0
M  V30 337 H 29.4299 -2.34169 6.03137 0
M  V30 338 N 29.562 -1.4872 -0.521534 0
M  V30 339 C 30.492 -1.66771 -1.63431 0
M  V30 340 C 31.473 -0.516499 -1.62069 0
M  V30 341 O 32.658 -0.750013 -1.79132 0
M  V30 342 C 29.788 -1.71515 -3.01993 0
M  V30 343 C 28.742 -2.86222 -3.18216 0
M  V30 344 C 28.068 -2.76061 -4.57924 0
M  V30 345 C 29.368 -4.27419 -3.00184 0
M  V30 346 H 31.062 -2.59932 -1.48579 0
M  V30 347 H 28.608 -1.25089 -0.713358 0
M  V30 348 H 30.561 -1.82731 -3.7972 0
M  V30 349 H 29.285 -0.749393 -3.17886 0
M  V30 350 H 27.944 -2.74575 -2.42908 0
M  V30 351 H 27.592 -1.77437 -4.70665 0
M  V30 352 H 27.292 -3.53037 -4.69722 0
M  V30 353 H 28.816 -2.89256 -5.37739 0
M  V30 354 H 30.23 -4.39855 -3.67697 0
M  V30 355 H 28.627 -5.05458 -3.2347 0
M  V30 356 H 29.697 -4.43293 -1.96518 0
M  V30 357 N 31.0401 0.771051 -1.3745 0
M  V30 358 C 32.2651 1.56529 -1.36065 0
M  V30 359 C 32.6901 1.88029 0.0515859 0
M  V30 360 O 32.0481 1.49282 1.02882 0
M  V30 361 C 32.0961 2.85187 -2.20683 0
M  V30 362 O 31.2001 3.79593 -1.61193 0
M  V30 363 H 30.5411 0.47411 -0.464883 0
M  V30 364 H 33.0711 0.954269 -1.80983 0
M  V30 365 H 33.0811 3.34283 -2.33921 0
M  V30 366 H 31.7561 2.61588 -3.23334 0
M  V30 367 H 30.3331 3.38239 -1.56999 0
M  V30 368 N 32.5182 1.22032 0.997298 0
M  V30 369 C 33.7432 1.06921 1.77715 0
M  V30 370 C 34.1682 -0.376226 1.84299 0
M  V30 371 O 33.5262 -1.27165 1.29223 0
M  V30 372 C 33.5742 1.67996 3.19076 0
M  V30 373 O 32.6782 0.930653 4.01762 0
M  V30 374 H 32.0192 0.375814 0.547412 0
M  V30 375 H 34.5492 1.61737 1.25309 0
M  V30 376 H 34.5592 1.72538 3.69723 0
M  V30 377 H 33.2342 2.73182 3.13599 0
M  V30 378 H 31.8112 0.960917 3.60307 0
M  V30 379 N 33.9963 -1.19345 1.0293 0
M  V30 380 C 34.9263 -2.2481 0.631105 0
M  V30 381 C 35.9073 -1.66245 -0.360104 0
M  V30 382 O 37.0923 -1.92677 -0.242726 0
M  V30 383 C 34.2223 -3.47295 -0.0184607 0
M  V30 384 C 33.1763 -4.18536 0.895073 0
M  V30 385 C 32.5023 -5.34586 0.110592 0
M  V30 386 C 33.8023 -4.73287 2.209 0
M  V30 387 H 35.4963 -2.58372 1.51275 0
M  V30 388 H 33.0423 -1.24194 0.728818 0
M  V30 389 H 34.9953 -4.20268 -0.308675 0
M  V30 390 H 33.7193 -3.12933 -0.934907 0
M  V30 391 H 32.3783 -3.47446 1.16949 0
M  V30 392 H 32.0263 -4.96469 -0.807902 0
M  V30 393 H 31.7263 -5.83183 0.719087 0
M  V30 394 H 33.2503 -6.10355 -0.172871 0
M  V30 395 H 34.6643 -5.38013 1.98028 0
M  V30 396 H 33.0613 -5.32373 2.76946 0
M  V30 397 H 34.1313 -3.91331 2.86336 0
M  V30 398 N 35.4744 -0.807222 -1.35358 0
M  V30 399 C 36.7204 -0.388463 -1.99045 0
M  V30 400 C 37.0534 1.04184 -1.63888 0
M  V30 401 O 36.3284 1.72292 -0.902535 0
M  V30 402 C 36.6114 -0.572783 -3.55515 0
M  V30 403 C 36.4644 -2.04807 -4.00468 0
M  V30 404 C 37.7834 0.00114064 -4.401 0
M  V30 405 H 34.9024 -0.142619 -0.723069 0
M  V30 406 H 37.5444 -1.01687 -1.60498 0
M  V30 407 H 35.6944 -0.0378425 -3.88482 0
M  V30 408 H 37.3664 -2.64544 -3.77908 0
M  V30 409 H 35.6094 -2.54427 -3.51353 0
M  V30 410 H 36.2804 -2.12792 -5.09337 0
M  V30 411 H 38.7564 -0.455716 -4.13597 0
M  V30 412 H 37.6324 -0.157737 -5.48673 0
M  V30 413 H 37.8934 1.09488 -4.28328 0
M  V30 414 N 36.9525 1.47285 -0.560781 0
M  V30 415 C 38.1775 2.07359 -0.0410566 0
M  V30 416 C 38.6025 1.41017 1.24483 0
M  V30 417 O 37.9605 0.486368 1.74654 0
M  V30 418 C 38.0085 3.6035 0.134123 0
M  V30 419 O 37.1125 3.94681 1.19587 0
M  V30 420 H 36.4535 0.661887 -0.0529291 0
M  V30 421 H 38.9835 1.89252 -0.777482 0
M  V30 422 H 38.9935 4.0652 0.347207 0
M  V30 423 H 37.6685 4.08034 -0.805047 0
M  V30 424 H 36.2455 3.60251 0.962987 0
M  V30 425 N 38.4306 0.297415 1.54768 0
M  V30 426 C 39.6776 -0.312913 2.00068 0
M  V30 427 C 40.0056 -1.54171 1.18582 0
M  V30 428 O 39.2606 -1.94108 0.249133 0
M  V30 429 C 39.5596 -0.717561 3.50123 0
M  V30 430 C 39.2256 0.409095 4.4904 0
M  V30 431 C 37.8876 0.718399 4.75807 0
M  V30 432 C 40.2396 1.16717 5.07963 0
M  V30 433 C 37.5676 1.78896 5.5876 0
M  V30 434 C 39.9196 2.22762 5.92081 0
M  V30 435 C 38.5836 2.54303 6.1716 0
M  V30 436 H 37.8536 -0.114503 0.7321 0
M  V30 437 H 40.5006 0.415767 1.86932 0
M  V30 438 H 38.8056 -1.52627 3.60849 0
M  V30 439 H 40.5026 -1.20091 3.82595 0
M  V30 440 H 37.0926 0.157918 4.28309 0
M  V30 441 H 41.2766 0.941466 4.87289 0
M  V30 442 H 36.5326 2.0381 5.7643 0
M  V30 443 H 40.7066 2.81962 6.36765 0
M  V30 444 H 38.3336 3.3739 6.81229 0
M  V30 445 N 39.9087 -1.5758 0.0250728 0
M  V30 446 C 41.1577 -1.90811 -0.653767 0
M  V30 447 C 41.4707 -0.90273 -1.73523 0
M  V30 448 O 42.6767 -1.12614 -2.47043 0
M  V30 449 C 41.1327 -3.38804 -1.21409 0
M  V30 450 C 40.7407 -4.47692 -0.166126 0
M  V30 451 C 42.4847 -3.81108 -1.86967 0
M  V30 452 C 40.3917 -5.86779 -0.737856 0
M  V30 453 H 39.3217 -0.712063 -0.247956 0
M  V30 454 H 41.9727 -1.83281 0.0897137 0
M  V30 455 H 40.3547 -3.41252 -2.00905 0
M  V30 456 H 41.5287 -4.56797 0.606079 0
M  V30 457 H 39.8437 -4.14565 0.390466 0
M  V30 458 H 42.4407 -4.82375 -2.30692 0
M  V30 459 H 42.7837 -3.15953 -2.71071 0
M  V30 460 H 43.3167 -3.81065 -1.14167 0
M  V30 461 H 40.0557 -6.55468 0.0649577 0
M  V30 462 H 39.5757 -5.81288 -1.47864 0
M  V30 463 H 41.2547 -6.35223 -1.22884 0
M  V30 464 N 41.3868 0.248026 -1.55636 0
M  V30 465 C 42.7978 0.817177 -1.67866 0
M  V30 466 C 43.1488 1.86069 -0.622322 0
M  V30 467 O 42.2738 2.15157 0.231618 0
M  V30 468 C 42.8688 1.489 -3.04326 0
M  V30 469 C 41.4278 2.00587 -3.185 0
M  V30 470 C 40.5748 0.856573 -2.63739 0
M  V30 471 H 43.5258 0.0238579 -1.58682 0
M  V30 472 H 43.5468 2.35698 -2.98708 0
M  V30 473 H 43.0588 0.729279 -3.81186 0
M  V30 474 H 41.1598 2.79443 -2.4646 0
M  V30 475 H 41.2728 2.20402 -4.25393 0
M  V30 476 H 39.6368 1.25678 -2.21534 0
M  V30 477 H 40.4198 0.109953 -3.43124 0
M  V30 478 N 42.8649 1.48995 0.513639 0
M  V30 479 C 43.7969 1.60836 1.63293 0
M  V30 480 C 44.8099 0.491701 1.55197 0
M  V30 481 O 45.9989 0.763238 1.6136 0
M  V30 482 C 43.0989 1.53731 3.02027 0
M  V30 483 C 42.2719 2.80715 3.35437 0
M  V30 484 C 41.3309 2.66837 4.53525 0
M  V30 485 O 40.3569 3.40753 4.55934 0
M  V30 486 N 41.5589 1.77539 5.52684 0
M  V30 487 H 44.3239 2.57366 1.53566 0
M  V30 488 H 41.8849 1.45925 0.701259 0
M  V30 489 H 43.8769 1.42118 3.78926 0
M  V30 490 H 42.4469 0.651092 3.05744 0
M  V30 491 H 41.6669 3.06772 2.47557 0
M  V30 492 H 42.9549 3.64927 3.54551 0
M  V30 493 H 42.3529 1.16719 5.53528 0
M  V30 494 H 40.9099 1.71856 6.28736 0
M  V30 495 N 44.343 -0.763751 1.37857 0
M  V30 496 C 45.571 -1.55293 1.36718 0
M  V30 497 C 45.986 -1.88745 -0.0455434 0
M  V30 498 O 45.343 -1.52039 -1.00947 0
M  V30 499 C 45.394 -2.85831 2.2132 0
M  V30 500 O 45.115 -2.5381 3.57089 0
M  V30 501 C 46.616 -3.80023 2.28249 0
M  V30 502 H 43.836 -0.480841 0.468009 0
M  V30 503 H 46.38 -0.946009 1.81303 0
M  V30 504 H 44.535 -3.42926 1.80223 0
M  V30 505 H 44.949 -3.37459 4.01524 0
M  V30 506 H 46.423 -4.68599 2.91752 0
M  V30 507 H 46.9 -4.1973 1.2932 0
M  V30 508 H 47.506 -3.28855 2.69693 0
M  V30 509 N 45.8211 -1.22559 -0.990812 0
M  V30 510 C 46.7691 -0.994798 -2.10253 0
M  V30 511 C 47.7631 0.0627798 -1.69284 0
M  V30 512 O 48.9691 -0.0898392 -1.79776 0
M  V30 513 H 45.3441 -0.304527 -0.687581 0
M  V30 514 H 47.3151 -1.93812 -2.26891 0
M  V30 515 C 46.0641 -0.591439 -3.42633 0
M  V30 516 H 45.3871 -1.3969 -3.74602 0
M  V30 517 H 46.8271 -0.469385 -4.21394 0
M  V30 518 C 45.2861 0.699232 -3.29564 0
M  V30 519 O 45.8161 1.75112 -3.61523 0
M  V30 520 N 44.0221 0.671182 -2.82743 0
M  V30 521 H 43.5691 -0.185136 -2.56934 0
M  V30 522 H 43.5271 1.53502 -2.7438 0
M  V30 523 N 47.2992 1.18797 -1.03562 0
M  V30 524 C 48.5272 1.92599 -0.755869 0
M  V30 525 C 48.9422 1.75886 0.686271 0
M  V30 526 O 48.2992 1.08517 1.46732 0
M  V30 527 C 48.3502 3.44159 -1.10619 0
M  V30 528 O 48.0712 3.60341 -2.4917 0
M  V30 529 C 49.5722 4.3507 -0.850214 0
M  V30 530 H 46.7922 0.611587 -0.276048 0
M  V30 531 H 49.3362 1.50742 -1.38192 0
M  V30 532 H 47.4912 3.83823 -0.525194 0
M  V30 533 H 47.9052 4.54128 -2.62427 0
M  V30 534 H 49.3792 5.39989 -1.14523 0
M  V30 535 H 49.8562 4.38673 0.215176 0
M  V30 536 H 50.4622 4.01097 -1.41426 0
M  V30 537 N 48.7773 0.814389 1.34928 0
M  V30 538 C 50.0073 0.41054 2.0248 0
M  V30 539 C 50.4153 -0.985625 1.61499 0
M  V30 540 O 49.7583 -1.64781 0.811976 0
M  V30 541 C 49.8203 0.423384 3.56998 0
M  V30 542 C 49.4843 1.77141 4.21272 0
M  V30 543 C 50.4813 2.73093 4.42398 0
M  V30 544 C 48.1663 2.05755 4.58225 0
M  V30 545 C 50.1603 3.95838 4.9959 0
M  V30 546 C 47.8473 3.28762 5.1513 0
M  V30 547 C 48.8453 4.23621 5.35755 0
M  V30 548 O 48.5333 5.44456 5.91458 0
M  V30 549 H 48.2653 0.163997 0.655806 0
M  V30 550 H 50.8193 1.10155 1.73364 0
M  V30 551 H 49.0493 -0.324276 3.85338 0
M  V30 552 H 50.7383 0.0407683 4.0588 0
M  V30 553 H 51.5043 2.5228 4.14222 0
M  V30 554 H 47.3833 1.32727 4.4148 0
M  V30 555 H 50.9273 4.69891 5.15605 0
M  V30 556 H 46.8243 3.49443 5.42734 0
M  V30 557 H 47.5923 5.4586 6.09901 0
M  V30 558 N 50.2554 -1.46986 0.568584 0
M  V30 559 C 51.2184 -2.28624 -0.162366 0
M  V30 560 C 52.2184 -1.37596 -0.832103 0
M  V30 561 O 53.4084 -1.60115 -0.68622 0
M  V30 562 C 50.5404 -3.17596 -1.23878 0
M  V30 563 H 51.7334 -2.94722 0.554899 0
M  V30 564 H 49.2864 -1.52863 0.325976 0
M  V30 565 H 50.0214 -2.56214 -1.98808 0
M  V30 566 H 49.8064 -3.846 -0.763219 0
M  V30 567 H 51.2964 -3.79078 -1.75185 0
M  V30 568 N 51.7335 -0.305618 -1.54608 0
M  V30 569 C 52.6965 0.555591 -2.22364 0
M  V30 570 C 53.6965 1.05768 -1.21119 0
M  V30 571 O 54.8865 0.952972 -1.45822 0
M  V30 572 C 52.0185 1.76974 -2.91364 0
M  V30 573 H 53.2115 -0.0364572 -2.99878 0
M  V30 574 H 50.7645 -0.0565007 -1.56198 0
M  V30 575 H 51.4995 2.40151 -2.17941 0
M  V30 576 H 51.2845 1.41732 -3.65588 0
M  V30 577 H 52.7745 2.38148 -3.43038 0
M  V30 578 N 53.2116 1.57565 -0.0334293 0
M  V30 579 C 54.4596 1.91598 0.642999 0
M  V30 580 C 54.7806 0.910847 1.7242 0
M  V30 581 O 54.0506 -0.0469931 1.95844 0
M  V30 582 H 52.6306 0.707228 0.240496 0
M  V30 583 H 55.2926 1.94726 -0.0822488 0
M  V30 584 H 54.3886 2.92336 1.09298 0
M  V30 585 N 54.6897 -0.239769 1.55765 0
M  V30 586 C 55.9177 -0.98417 1.81994 0
M  V30 587 C 56.3327 -1.7867 0.610124 0
M  V30 588 O 55.6897 -1.77571 -0.421271 0
M  V30 589 C 55.7407 -1.91635 3.06526 0
M  V30 590 O 55.4617 -1.14629 4.22838 0
M  V30 591 C 56.9627 -2.77616 3.45607 0
M  V30 592 H 54.1827 -0.28928 0.605441 0
M  V30 593 H 56.7267 -0.260499 2.02834 0
M  V30 594 H 54.8817 -2.5942 2.87715 0
M  V30 595 H 55.2957 -1.77745 4.93464 0
M  V30 596 H 56.7697 -3.38759 4.35828 0
M  V30 597 H 57.2467 -3.4909 2.6652 0
M  V30 598 H 57.8527 -2.15271 3.66795 0
M  V30 599 N 56.1678 -1.49265 -0.50573 0
M  V30 600 C 57.3978 -1.61979 -1.28243 0
M  V30 601 C 57.8058 -0.288576 -1.86986 0
M  V30 602 O 57.1488 0.735408 -1.68337 0
M  V30 603 C 57.2108 -2.62632 -2.45489 0
M  V30 604 C 56.8748 -4.071 -2.07651 0
M  V30 605 C 57.8718 -4.94049 -1.61901 0
M  V30 606 C 55.5568 -4.52801 -2.17431 0
M  V30 607 C 57.5508 -6.24736 -1.26428 0
M  V30 608 C 55.2378 -5.83503 -1.8157 0
M  V30 609 C 56.2358 -6.69294 -1.36142 0
M  V30 610 O 55.9238 -7.9756 -1.00764 0
M  V30 611 H 55.6558 -0.54834 -0.395347 0
M  V30 612 H 58.2098 -1.96002 -0.614204 0
M  V30 613 H 56.4398 -2.2378 -3.15372 0
M  V30 614 H 58.1288 -2.64925 -3.07522 0
M  V30 615 H 58.8948 -4.5997 -1.53795 0
M  V30 616 H 54.7738 -3.86196 -2.51742 0
M  V30 617 H 58.3178 -6.91652 -0.908992 0
M  V30 618 H 54.2148 -6.17112 -1.89324 0
M  V30 619 H 54.9828 -8.10529 -1.13952 0
M  V30 620 N 57.6459 0.756429 -1.3826 0
M  V30 621 C 58.5939 1.89149 -1.35372 0
M  V30 622 C 59.5879 1.67691 -0.24004 0
M  V30 623 O 60.7939 1.75294 -0.408919 0
M  V30 624 H 57.1689 0.622271 -0.422236 0
M  V30 625 H 59.1399 1.88701 -2.31159 0
M  V30 626 C 57.8889 3.26599 -1.19284 0
M  V30 627 H 57.2119 3.43695 -2.0424 0
M  V30 628 H 58.6519 4.06274 -1.21316 0
M  V30 629 C 57.1109 3.3675 0.100454 0
M  V30 630 O 57.6409 3.86951 1.07851 0
M  V30 631 N 55.8469 2.90179 0.15633 0
M  V30 632 H 55.3939 2.49517 -0.640253 0
M  V30 633 H 55.3519 2.97352 1.02123 0
M  V30 634 N 59.124 1.23083 0.984299 0
M  V30 635 C 60.354 1.08556 1.75781 0
M  V30 636 C 60.762 -0.366171 1.85623 0
M  V30 637 O 60.105 -1.26524 1.33182 0
M  V30 638 C 60.167 1.63208 3.20318 0
M  V30 639 C 59.831 3.11922 3.33997 0
M  V30 640 C 60.828 4.09259 3.2063 0
M  V30 641 C 58.513 3.51552 3.58771 0
M  V30 642 C 60.507 5.4421 3.31835 0
M  V30 643 C 58.194 4.86649 3.69616 0
M  V30 644 C 59.192 5.82787 3.56157 0
M  V30 645 O 58.88 7.15431 3.66626 0
M  V30 646 H 58.612 0.380713 0.5586 0
M  V30 647 H 61.166 1.63321 1.2456 0
M  V30 648 H 59.396 1.0286 3.72769 0
M  V30 649 H 61.085 1.44216 3.79416 0
M  V30 650 H 61.851 3.79984 3.01392 0
M  V30 651 H 57.73 2.77239 3.6832 0
M  V30 652 H 61.274 6.1923 3.21247 0
M  V30 653 H 57.171 5.15601 3.88363 0
M  V30 654 H 57.939 7.23127 3.83445 0
M  V30 655 N 60.6021 -1.18246 1.0419 0
M  V30 656 C 61.8501 -1.87886 0.744543 0
M  V30 657 C 62.1711 -1.8082 -0.730006 0
M  V30 658 O 61.4411 -1.22736 -1.52685 0
M  V30 659 H 60.0211 -0.695556 0.272417 0
M  V30 660 H 62.6831 -1.43494 1.31892 0
M  V30 661 H 61.7791 -2.9389 1.05049 0
M  V30 662 N 62.0802 -0.821533 -1.34494 0
M  V30 663 C 62.9902 -0.244355 -2.33324 0
M  V30 664 C 64.0062 0.620527 -1.62559 0
M  V30 665 O 65.1822 0.528754 -1.94335 0
M  V30 666 C 62.2472 0.585368 -3.41723 0
M  V30 667 C 61.3082 -0.301752 -4.28238 0
M  V30 668 C 60.5412 0.488466 -5.3146 0
M  V30 669 O 60.7642 1.72186 -5.4379 0
M  V30 670 O 59.6982 -0.12848 -6.01763 0
M  V30 671 H 63.5242 -1.06231 -2.84515 0
M  V30 672 H 61.1092 -0.583645 -1.37528 0
M  V30 673 H 62.9912 1.05747 -4.07916 0
M  V30 674 H 61.6662 1.38068 -2.92778 0
M  V30 675 H 60.5732 -0.821315 -3.64973 0
M  V30 676 H 61.9062 -1.06138 -4.8062 0
M  V30 677 N 63.5583 1.46682 -0.576371 0
M  V30 678 C 64.5213 2.28707 0.150239 0
M  V30 679 C 65.5213 1.38035 0.824794 0
M  V30 680 O 66.7113 1.60476 0.677719 0
M  V30 681 C 63.8433 3.18248 1.22192 0
M  V30 682 H 65.0363 2.94423 -0.570521 0
M  V30 683 H 62.5893 1.52688 -0.334078 0
M  V30 684 H 63.3243 2.57265 1.97447 0
M  V30 685 H 63.1093 3.85 0.742812 0
M  V30 686 H 64.5993 3.80001 1.73172 0
M  V30 687 N 65.0364 0.313813 1.54444 0
M  V30 688 C 65.9664 -0.549454 2.26943 0
M  V30 689 C 66.9474 -1.12741 1.27372 0
M  V30 690 O 68.1324 -1.15436 1.56167 0
M  V30 691 C 65.2624 -1.71523 3.01989 0
M  V30 692 C 64.2164 -1.26703 4.08816 0
M  V30 693 C 63.5424 -2.51898 4.71647 0
M  V30 694 C 64.8424 -0.388962 5.2085 0
M  V30 695 H 66.5364 0.0552661 2.99349 0
M  V30 696 H 64.0824 0.0280207 1.43973 0
M  V30 697 H 66.0354 -2.32535 3.51433 0
M  V30 698 H 64.7594 -2.34639 2.27183 0
M  V30 699 H 63.4184 -0.679896 3.6024 0
M  V30 700 H 63.0664 -3.13356 3.93468 0
M  V30 701 H 62.7664 -2.22605 5.43802 0
M  V30 702 H 64.2904 -3.1369 5.23861 0
M  V30 703 H 65.7044 -0.905107 5.6611 0
M  V30 704 H 64.1014 -0.18924 5.99802 0
M  V30 705 H 65.1714 0.582699 4.81386 0
M  V30 706 N 66.5145 -1.57545 0.0417849 0
M  V30 707 C 67.4465 -2.07904 -0.964799 0
M  V30 708 C 68.4595 -1.00497 -1.28079 0
M  V30 709 O 69.6485 -1.28087 -1.24322 0
M  V30 710 C 66.7485 -2.49928 -2.28887 0
M  V30 711 C 65.9215 -3.80562 -2.15619 0
M  V30 712 C 64.9805 -4.08999 -3.31069 0
M  V30 713 O 64.0065 -4.79061 -3.0739 0
M  V30 714 N 65.2085 -3.6017 -4.55256 0
M  V30 715 H 67.9735 -2.94886 -0.535029 0
M  V30 716 H 65.5345 -1.61252 -0.144681 0
M  V30 717 H 67.5265 -2.66034 -3.04972 0
M  V30 718 H 66.0965 -1.68245 -2.63463 0
M  V30 719 H 65.3165 -3.74129 -1.24183 0
M  V30 720 H 66.6045 -4.66126 -2.03971 0
M  V30 721 H 66.0025 -3.03512 -4.77386 0
M  V30 722 H 64.5595 -3.81532 -5.28466 0
M  V30 723 N 67.9926 0.231505 -1.5589 0
M  V30 724 C 68.9396 1.28682 -1.91598 0
M  V30 725 C 69.9096 1.47071 -0.771974 0
M  V30 726 O 71.0946 1.60802 -1.027 0
M  V30 727 C 68.2346 2.6342 -2.22944 0
M  V30 728 C 67.3476 2.52912 -3.50228 0
M  V30 729 C 66.4826 3.80106 -3.7107 0
M  V30 730 C 65.5216 3.64279 -4.91902 0
M  V30 731 N 64.6586 4.834 -5.09184 0
M  V30 732 H 69.4986 0.975305 -2.81588 0
M  V30 733 H 67.0356 0.470299 -1.39379 0
M  V30 734 H 68.9936 3.41869 -2.39126 0
M  V30 735 H 67.6236 2.92687 -1.36139 0
M  V30 736 H 66.6756 1.6595 -3.42294 0
M  V30 737 H 67.9876 2.37133 -4.38827 0
M  V30 738 H 67.1416 4.66999 -3.87295 0
M  V30 739 H 65.8806 3.98799 -2.80733 0
M  V30 740 H 64.8856 2.7577 -4.75637 0
M  V30 741 H 66.1106 3.47067 -5.83714 0
M  V30 742 H 64.0566 5.02425 -4.21788 0
M  V30 743 H 63.9736 4.70311 -5.91898 0
M  V30 744 H 65.2416 5.71747 -5.29835 0
M  V30 745 N 69.4707 1.49531 0.497807 0
M  V30 746 C 70.6957 1.63159 1.28039 0
M  V30 747 C 71.1207 0.30418 1.85624 0
M  V30 748 O 70.4787 -0.728618 1.66015 0
M  V30 749 C 70.5267 2.70537 2.38416 0
M  V30 750 O 69.6307 2.29931 3.42353 0
M  V30 751 H 68.9717 0.546001 0.377861 0
M  V30 752 H 71.5017 1.9574 0.59558 0
M  V30 753 H 71.5117 2.92802 2.84132 0
M  V30 754 H 70.1867 3.6689 1.95869 0
M  V30 755 H 68.7637 2.18009 3.02533 0
M  V30 756 N 70.9488 -0.749086 1.3866 0
M  V30 757 C 72.1978 -1.50371 1.3443 0
M  V30 758 C 72.5108 -1.95503 -0.0616397 0
M  V30 759 O 73.7168 -2.70554 -0.226489 0
M  V30 760 C 72.1728 -2.71644 2.36088 0
M  V30 761 C 71.7808 -2.3352 3.82325 0
M  V30 762 C 73.5248 -3.49518 2.40909 0
M  V30 763 C 71.4318 -3.51431 4.75658 0
M  V30 764 H 70.3618 -0.564628 0.499712 0
M  V30 765 H 73.0128 -0.818449 1.64237 0
M  V30 766 H 71.3948 -3.42175 1.9933 0
M  V30 767 H 72.5688 -1.70627 4.28046 0
M  V30 768 H 70.8838 -1.6877 3.80665 0
M  V30 769 H 73.4808 -4.37197 3.07836 0
M  V30 770 H 73.8238 -3.90992 1.42937 0
M  V30 771 H 74.3568 -2.86005 2.76489 0
M  V30 772 H 71.0958 -3.15019 5.74842 0
M  V30 773 H 70.6158 -4.13352 4.34627 0
M  V30 774 H 72.2948 -4.17953 4.93887 0
M  V30 775 N 72.4269 -1.23603 -0.977757 0
M  V30 776 C 73.3599 -0.962772 -2.06896 0
M  V30 777 C 74.3379 0.0998743 -1.62293 0
M  V30 778 O 75.5219 -0.0349421 -1.88468 0
M  V30 779 C 72.6489 -0.45095 -3.35685 0
M  V30 780 C 71.6949 -1.50061 -3.99229 0
M  V30 781 S 72.5279 -3.07884 -4.38142 0
M  V30 782 C 73.6839 -2.58378 -5.7008 0
M  V30 783 H 73.9169 -1.88677 -2.29757 0
M  V30 784 H 71.4499 -1.06876 -1.11431 0
M  V30 785 H 73.4079 -0.162261 -4.10179 0
M  V30 786 H 72.0689 0.452179 -3.10828 0
M  V30 787 H 71.2619 -1.09269 -4.92013 0
M  V30 788 H 70.8639 -1.73878 -3.31123 0
M  V30 789 H 73.1559 -2.00563 -6.47133 0
M  V30 790 H 74.0989 -3.49711 -6.15717 0
M  V30 791 H 74.5069 -1.99143 -5.28207 0
M  V30 792 N 73.905 1.17692 -1.04816 0
M  V30 793 C 75.152 1.87859 -0.75599 0
M  V30 794 C 75.48 1.80812 0.716752 0
M  V30 795 O 74.735 1.20819 1.53952 0
M  V30 796 C 75.034 3.37462 -1.17703 0
M  V30 797 C 74.7 3.64713 -2.65133 0
M  V30 798 C 73.362 3.71859 -3.05408 0
M  V30 799 C 75.714 3.76492 -3.60421 0
M  V30 800 C 73.042 3.88271 -4.39843 0
M  V30 801 C 75.394 3.94421 -4.94585 0
M  V30 802 C 74.058 3.99806 -5.3452 0
M  V30 803 H 73.328 0.687425 -0.276636 0
M  V30 804 H 75.975 1.39255 -1.31455 0
M  V30 805 H 74.28 3.88097 -0.537395 0
M  V30 806 H 75.977 3.90109 -0.928218 0
M  V30 807 H 72.567 3.59772 -2.32942 0
M  V30 808 H 76.751 3.70295 -3.30447 0
M  V30 809 H 72.007 3.90687 -4.70291 0
M  V30 810 H 76.181 4.02477 -5.68318 0
M  V30 811 H 73.808 4.12276 -6.38696 0
M  V30 812 N 75.3831 0.828654 1.34056 0
M  V30 813 C 76.6131 0.431993 2.02033 0
M  V30 814 C 77.0211 -0.96844 1.62536 0
M  V30 815 O 76.3641 -1.6391 0.829408 0
M  V30 816 C 76.4261 0.461224 3.56529 0
M  V30 817 C 76.0901 1.81599 4.1937 0
M  V30 818 C 77.0871 2.7777 4.39477 0
M  V30 819 C 74.7721 2.10604 4.56017 0
M  V30 820 C 76.7661 4.01115 4.95364 0
M  V30 821 C 74.4531 3.34207 5.11614 0
M  V30 822 C 75.4511 4.2928 5.31232 0
M  V30 823 O 75.1391 5.50699 5.8565 0
M  V30 824 H 74.8711 0.170943 0.654029 0
M  V30 825 H 77.4251 1.11988 1.72185 0
M  V30 826 H 75.6551 -0.283388 3.8566 0
M  V30 827 H 77.3441 0.0838149 4.05813 0
M  V30 828 H 78.1101 2.56659 4.11523 0
M  V30 829 H 73.9891 1.37402 4.40047 0
M  V30 830 H 77.5331 4.75333 5.10592 0
M  V30 831 H 73.4301 3.55179 5.38997 0
M  V30 832 H 74.1981 5.52298 6.04077 0
M  V30 833 N 76.8612 -1.46375 0.584142 0
M  V30 834 C 77.7712 -2.34115 -0.150728 0
M  V30 835 C 78.7872 -1.49838 -0.884567 0
M  V30 836 O 79.9632 -1.82704 -0.847429 0
M  V30 837 C 77.0282 -3.2705 -1.15062 0
M  V30 838 C 76.0892 -4.27228 -0.421293 0
M  V30 839 C 75.3222 -5.15722 -1.37355 0
M  V30 840 O 75.5452 -5.07176 -2.61014 0
M  V30 841 O 74.4792 -5.95383 -0.883355 0
M  V30 842 H 78.3052 -2.98309 0.569708 0
M  V30 843 H 75.8902 -1.45373 0.344535 0
M  V30 844 H 77.7722 -3.84381 -1.72712 0
M  V30 845 H 76.4472 -2.65451 -1.8525 0
M  V30 846 H 75.3542 -3.7358 0.197085 0
M  V30 847 H 76.6872 -4.91616 0.239641 0
M  V30 848 N 78.3393 -0.321999 -1.54275 0
M  V30 849 C 79.5863 0.281044 -2.0054 0
M  V30 850 C 79.9143 1.52265 -1.21019 0
M  V30 851 O 79.1693 1.93687 -0.279982 0
M  V30 852 C 79.4683 0.661769 -3.5122 0
M  V30 853 C 79.1343 -0.480482 -4.48333 0
M  V30 854 C 77.7963 -0.794005 -4.74604 0
M  V30 855 C 80.1483 -1.24783 -5.06042 0
M  V30 856 C 77.4763 -1.87763 -5.55844 0
M  V30 857 C 79.8283 -2.32153 -5.88462 0
M  V30 858 C 78.4923 -2.64089 -6.13036 0
M  V30 859 H 77.7623 0.102841 -0.733829 0
M  V30 860 H 80.4093 -0.445453 -1.86247 0
M  V30 861 H 78.7143 1.46867 -3.63232 0
M  V30 862 H 80.4113 1.13989 -3.84457 0
M  V30 863 H 77.0013 -0.226039 -4.28004 0
M  V30 864 H 81.1853 -1.01887 -4.85729 0
M  V30 865 H 76.4413 -2.12954 -5.73115 0
M  V30 866 H 80.6153 -2.92057 -6.32199 0
M  V30 867 H 78.2423 -3.48185 -6.75775 0
M  V30 868 N 79.8174 1.5752 -0.0501392 0
M  V30 869 C 80.7494 2.08413 0.95376 0
M  V30 870 C 81.7624 1.01175 1.27544 0
M  V30 871 O 82.9514 1.28744 1.23641 0
M  V30 872 C 80.0514 2.51138 2.27559 0
M  V30 873 C 79.2244 3.817 2.13598 0
M  V30 874 C 78.2834 4.10749 3.28895 0
M  V30 875 O 77.3094 4.80685 3.04845 0
M  V30 876 N 78.5114 3.62579 4.5334 0
M  V30 877 H 81.2764 2.95165 0.519383 0
M  V30 878 H 78.8374 1.61327 0.136127 0
M  V30 879 H 80.8294 2.67648 3.03557 0
M  V30 880 H 79.3994 1.6964 2.62567 0
M  V30 881 H 78.6194 3.74782 1.22197 0
M  V30 882 H 79.9074 4.67201 2.01496 0
M  V30 883 H 79.3054 3.06039 4.75769 0
M  V30 884 H 77.8624 3.84329 5.26436 0
M  V30 885 N 81.2955 -0.223234 1.56011 0
M  V30 886 C 82.7115 -0.572856 1.48965 0
M  V30 887 C 82.9115 -1.87225 0.74492 0
M  V30 888 O 81.9675 -2.50899 0.283896 0
M  V30 889 C 83.2805 -0.653646 2.9351 0
M  V30 890 C 84.8285 -0.744386 3.0402 0
M  V30 891 C 85.3035 -0.856535 4.49919 0
M  V30 892 N 86.7945 -0.9208 4.53955 0
M  V30 893 C 87.5295 -1.02726 5.64123 0
M  V30 894 N 87.0255 -1.09777 6.84047 0
M  V30 895 N 88.8185 -1.06226 5.51971 0
M  V30 896 H 80.9695 0.629462 2.02858 0
M  V30 897 H 83.2325 0.220621 0.921971 0
M  V30 898 H 82.9385 0.231518 3.50937 0
M  V30 899 H 82.8125 -1.51781 3.45315 0
M  V30 900 H 85.1995 -1.61999 2.46658 0
M  V30 901 H 85.2805 0.14541 2.55386 0
M  V30 902 H 84.9245 0.0146069 5.07898 0
M  V30 903 H 84.8545 -1.76172 4.96257 0
M  V30 904 H 87.3455 -0.876694 3.6759 0
M  V30 905 H 87.6585 -1.17872 7.63758 0
M  V30 906 H 86.0035 -1.06693 6.86762 0
M  V30 907 H 89.1945 -1.00382 4.5721 0
M  V30 908 H 89.3675 -1.14177 6.37862 0
M  V30 909 N 82.7736 -1.49793 -0.48987 0
M  V30 910 C 83.9986 -1.63836 -1.27172 0
M  V30 911 C 84.4236 -0.31402 -1.8546 0
M  V30 912 O 83.7816 0.719803 -1.66399 0
M  V30 913 C 83.8296 -2.71797 -2.36978 0
M  V30 914 O 82.9336 -2.31744 -3.41128 0
M  V30 915 H 82.2746 -0.547997 -0.37496 0
M  V30 916 H 84.8046 -1.96053 -0.585191 0
M  V30 917 H 84.8146 -2.94305 -2.82575 0
M  V30 918 H 83.4896 -3.67923 -1.93921 0
M  V30 919 H 82.0666 -2.1961 -3.01373 0
M  V30 920 N 84.2517 0.741722 -1.39055 0
M  V30 921 C 85.4997 1.49818 -1.35643 0
M  V30 922 C 85.8207 1.94938 0.0491642 0
M  V30 923 O 85.0907 1.68505 0.999141 0
M  V30 924 H 83.6707 0.555755 -0.499144 0
M  V30 925 H 86.3327 0.880957 -1.73854 0
M  V30 926 H 85.4287 2.38348 -2.01486 0
M  V30 927 N 85.7298 1.2412 0.971189 0
M  V30 928 C 87.0068 0.986867 1.6888 0
M  V30 929 C 87.3868 -0.491857 2.0529 0
M  V30 930 O 86.7348 -1.46531 1.75331 0
M  V30 931 C 86.9448 1.9063 2.92338 0
M  V30 932 C 88.2928 2.17515 3.64654 0
M  V30 933 O 89.3168 1.88254 3.02388 0
M  V30 934 O 88.1758 2.6719 4.7673 0
M  V30 935 H 85.2698 0.372944 0.738134 0
M  V30 936 H 87.8158 1.35203 1.02559 0
M  V30 937 H 86.5878 2.90552 2.62097 0
M  V30 938 H 86.2108 1.54408 3.66393 0
M  V30 939 N 87.2079 -1.17134 1.05439 0
M  V30 940 C 88.1379 -2.2342 0.678649 0
M  V30 941 C 89.1189 -1.66971 -0.32476 0
M  V30 942 O 90.3039 -1.93149 -0.201802 0
M  V30 943 C 87.4339 -3.47256 0.0552099 0
M  V30 944 C 86.3879 -4.16543 0.98365 0
M  V30 945 C 85.7139 -5.34231 0.223961 0
M  V30 946 C 87.0139 -4.68495 2.3089 0
M  V30 947 H 88.7079 -2.55105 1.56722 0
M  V30 948 H 86.2539 -1.2262 0.754998 0
M  V30 949 H 88.2069 -4.20828 -0.21946 0
M  V30 950 H 86.9309 -3.14846 -0.868319 0
M  V30 951 H 85.5899 -3.44887 1.24293 0
M  V30 952 H 85.2379 -4.98071 -0.702412 0
M  V30 953 H 84.9379 -5.81527 0.842627 0
M  V30 954 H 86.4619 -6.10585 -0.0433671 0
M  V30 955 H 87.8759 -5.33691 2.09396 0
M  V30 956 H 86.2729 -5.26379 2.88176 0
M  V30 957 H 87.3429 -3.85169 2.94572 0
M  V30 958 N 88.686 -0.835752 -1.33615 0
M  V30 959 C 90.097 -0.487099 -1.80234 0
M  V30 960 C 90.448 0.993627 -1.69179 0
M  V30 961 O 89.573 1.77403 -1.23924 0
M  V30 962 C 90.168 -0.877385 -3.27242 0
M  V30 963 C 88.727 -0.580915 -3.7189 0
M  V30 964 C 87.874 -1.0874 -2.5509 0
M  V30 965 H 90.825 -1.02474 -1.2118 0
M  V30 966 H 90.846 -0.186195 -3.80044 0
M  V30 967 H 90.358 -1.95512 -3.35256 0
M  V30 968 H 88.459 0.486881 -3.69405 0
M  V30 969 H 88.572 -1.13396 -4.65487 0
M  V30 970 H 86.936 -0.508392 -2.49575 0
M  V30 971 H 87.719 -2.17184 -2.65868 0
M  V30 972 N 90.1641 1.46063 -0.591896 0
M  V30 973 C 91.1271 2.28854 0.125973 0
M  V30 974 C 92.1271 1.38903 0.810107 0
M  V30 975 O 93.3171 1.61186 0.66066 0
M  V30 976 C 90.4491 3.19526 1.1881 0
M  V30 977 H 91.6421 2.93802 -0.601717 0
M  V30 978 H 89.1951 1.52325 -0.350254 0
M  V30 979 H 89.9301 2.59345 1.94707 0
M  V30 980 H 89.7151 3.85766 0.701936 0
M  V30 981 H 91.2051 3.81817 1.69132 0
M  V30 982 N 91.6422 0.330177 1.54103 0
M  V30 983 C 92.9192 -0.325007 1.92881 0
M  V30 984 C 93.2992 -1.6934 1.26045 0
M  V30 985 O 92.6472 -2.24855 0.406526 0
M  V30 986 C 92.8572 -0.410634 3.46576 0
M  V30 987 C 94.2052 -0.667801 4.19316 0
M  V30 988 O 95.2292 -0.49329 3.52768 0
M  V30 989 O 94.0882 -1.00491 5.37181 0
M  V30 990 H 91.1822 -0.186873 0.80561 0
M  V30 991 H 93.7282 0.380376 1.65382 0
M  V30 992 H 92.5002 0.550164 3.87413 0
M  V30 993 H 92.1232 -1.16333 3.802 0
M  V30 994 N 93.1203 -1.57491 0.0584922 0
M  V30 995 C 94.0673 -2.11958 -0.913376 0
M  V30 996 C 95.0373 -1.02875 -1.30407 0
M  V30 997 O 96.2223 -1.30464 -1.39226 0
M  V30 998 C 93.3623 -2.67497 -2.18035 0
M  V30 999 C 92.4753 -3.90691 -1.84349 0
M  V30 1000 C 91.6103 -4.3452 -3.05559 0
M  V30 1001 C 90.6493 -5.50395 -2.67827 0
M  V30 1002 N 89.7863 -5.89244 -3.81754 0
M  V30 1003 H 94.6263 -2.94704 -0.442017 0
M  V30 1004 H 92.1633 -1.45643 -0.206545 0
M  V30 1005 H 94.1213 -2.978 -2.92183 0
M  V30 1006 H 92.7513 -1.87537 -2.62735 0
M  V30 1007 H 91.8033 -3.66934 -1.00319 0
M  V30 1008 H 93.1153 -4.7489 -1.5258 0
M  V30 1009 H 92.2693 -4.66414 -3.87998 0
M  V30 1010 H 91.0083 -3.49147 -3.40511 0
M  V30 1011 H 90.0133 -5.18165 -1.83806 0
M  V30 1012 H 91.2383 -6.3749 -2.34059 0
M  V30 1013 H 89.1843 -5.06823 -4.16493 0
M  V30 1014 H 89.1013 -6.68151 -3.53708 0
M  V30 1015 H 90.3693 -6.25756 -4.64811 0
M  V30 1016 N 94.5984 0.214957 -1.56127 0
M  V30 1017 C 96.0144 0.564948 -1.49267 0
M  V30 1018 C 96.2144 1.86827 -0.754838 0
M  V30 1019 O 95.2704 2.50745 -0.297198 0
M  V30 1020 C 96.5834 0.638071 -2.93852 0
M  V30 1021 C 98.1314 0.728253 -3.0441 0
M  V30 1022 C 98.6064 0.832663 -4.50367 0
M  V30 1023 N 100.097 0.896712 -4.54437 0
M  V30 1024 C 100.832 0.997324 -5.6466 0
M  V30 1025 N 100.328 1.06147 -6.8462 0
M  V30 1026 N 102.121 1.03297 -5.52527 0
M  V30 1027 H 94.2724 -0.640211 -2.02522 0
M  V30 1028 H 96.5354 -0.225507 -0.920788 0
M  V30 1029 H 96.2414 -0.250126 -3.50809 0
M  V30 1030 H 96.1154 1.49947 -3.46115 0
M  V30 1031 H 98.5024 1.60689 -2.47514 0
M  V30 1032 H 98.5834 -0.158952 -2.55306 0
M  V30 1033 H 98.2274 -0.0415417 -5.07883 0
M  V30 1034 H 98.1574 1.73538 -4.97184 0
M  V30 1035 H 100.648 0.857188 -3.6805 0
M  V30 1036 H 100.961 1.1382 -7.64372 0
M  V30 1037 H 99.3064 1.03049 -6.87318 0
M  V30 1038 H 102.497 0.979558 -4.57736 0
M  V30 1039 H 102.67 1.10793 -6.38458 0
M  V30 1040 N 96.0765 1.50051 0.48192 0
M  V30 1041 C 97.3535 1.51009 1.2432 0
M  V30 1042 C 97.7335 0.248587 2.09631 0
M  V30 1043 O 97.0815 -0.768409 2.15192 0
M  V30 1044 C 97.2915 2.79981 2.08355 0
M  V30 1045 C 98.6395 3.3022 2.66908 0
M  V30 1046 O 99.6635 2.81228 2.18607 0
M  V30 1047 O 98.5225 4.15595 3.54884 0
M  V30 1048 H 95.6165 0.605239 0.563573 0
M  V30 1049 H 98.1625 1.62332 0.494627 0
M  V30 1050 H 96.9345 3.63275 1.45419 0
M  V30 1051 H 96.5575 2.7161 2.90368 0
M  V30 1052 N 97.5546 -0.734337 1.39446 0
M  V30 1053 C 98.5026 -1.86971 1.38364 0
M  V30 1054 C 99.4966 -1.67288 0.266687 0
M  V30 1055 O 100.703 -1.74621 0.436755 0
M  V30 1056 H 97.0776 -0.615474 0.432082 0
M  V30 1057 H 99.0486 -1.85 2.34132 0
M  V30 1058 C 97.7976 -3.2466 1.24465 0
M  V30 1059 H 97.1206 -3.40402 2.09682 0
M  V30 1060 H 98.5606 -4.04292 1.27764 0
M  V30 1061 C 97.0196 -3.36867 -0.0468674 0
M  V30 1062 O 97.5496 -3.88618 -1.01681 0
M  V30 1063 N 95.7556 -2.90391 -0.110145 0
M  V30 1064 H 95.3026 -2.48466 0.679868 0
M  V30 1065 H 95.2606 -2.98939 -0.973799 0
M  V30 1066 N 99.0327 -1.24633 -0.964593 0
M  V30 1067 C 100.279 -1.09957 -1.71117 0
M  V30 1068 C 100.634 0.357422 -1.89051 0
M  V30 1069 O 99.9267 1.26029 -1.44317 0
M  V30 1070 C 100.121 -1.7763 -3.10133 0
M  V30 1071 C 99.9497 -3.29759 -3.05759 0
M  V30 1072 C 98.7197 -3.98981 -3.10068 0
M  V30 1073 C 100.918 -4.26305 -2.87695 0
M  V30 1074 N 98.8997 -5.37966 -2.95747 0
M  V30 1075 C 100.271 -5.52308 -2.81702 0
M  V30 1076 C 102.326 -4.16842 -2.72299 0
M  V30 1077 C 101.029 -6.69931 -2.61887 0
M  V30 1078 C 103.055 -5.34147 -2.53853 0
M  V30 1079 C 102.417 -6.59084 -2.48572 0
M  V30 1080 H 98.5157 -0.457003 -0.634564 0
M  V30 1081 H 101.1 -1.57592 -1.14337 0
M  V30 1082 H 99.2707 -1.32504 -3.65099 0
M  V30 1083 H 101.003 -1.55786 -3.73514 0
M  V30 1084 H 97.7577 -3.50169 -3.18871 0
M  V30 1085 H 98.1817 -6.10877 -2.91818 0
M  V30 1086 H 102.824 -3.21007 -2.75163 0
M  V30 1087 H 100.542 -7.65886 -2.57767 0
M  V30 1088 H 104.128 -5.28678 -2.4288 0
M  V30 1089 H 103.008 -7.48324 -2.34481 0
M  V30 1090 N 100.511 1.16574 -1.06058 0
M  V30 1091 C 101.927 1.3904 -0.783585 0
M  V30 1092 C 102.127 1.91784 0.618145 0
M  V30 1093 O 101.183 2.11511 1.37911 0
M  V30 1094 C 102.496 2.37329 -1.84649 0
M  V30 1095 C 104.044 2.51018 -1.86973 0
M  V30 1096 C 104.519 3.52588 -2.92311 0
M  V30 1097 N 106.01 3.60113 -2.91329 0
M  V30 1098 C 106.745 4.38486 -3.69482 0
M  V30 1099 N 106.241 5.20302 -4.57447 0
M  V30 1100 N 108.034 4.33446 -3.57885 0
M  V30 1101 H 100.185 0.806725 -1.96483 0
M  V30 1102 H 102.448 0.417117 -0.851303 0
M  V30 1103 H 102.154 2.05663 -2.85299 0
M  V30 1104 H 102.028 3.36946 -1.6955 0
M  V30 1105 H 104.415 2.81989 -0.869827 0
M  V30 1106 H 104.496 1.51445 -2.0615 0
M  V30 1107 H 104.14 3.22354 -3.92492 0
M  V30 1108 H 104.07 4.51886 -2.70383 0
M  V30 1109 H 106.561 3.01707 -2.27555 0
M  V30 1110 H 106.874 5.77311 -5.13743 0
M  V30 1111 H 105.219 5.19653 -4.61503 0
M  V30 1112 H 108.41 3.68586 -2.88551 0
M  V30 1113 H 108.583 4.94279 -4.19037 0
M  V30 1114 N 101.989 0.842826 1.3317 0
M  V30 1115 C 103.266 0.362216 1.92217 0
M  V30 1116 C 103.646 -1.15289 1.76838 0
M  V30 1117 O 102.994 -1.96914 1.15919 0
M  V30 1118 C 103.204 0.813495 3.39387 0
M  V30 1119 C 104.552 0.823804 4.16532 0
M  V30 1120 O 105.576 0.757358 3.48055 0
M  V30 1121 O 104.435 0.915193 5.38782 0
M  V30 1122 H 101.529 0.103317 0.820521 0
M  V30 1123 H 104.075 0.928942 1.42017 0
M  V30 1124 H 102.847 1.85624 3.4447 0
M  V30 1125 H 102.47 0.223561 3.96971 0
M  V30 1126 N 103.467 -1.45747 0.599634 0
M  V30 1127 C 104.744 -1.95585 0.0240846 0
M  V30 1128 C 105.124 -1.54217 -1.44154 0
M  V30 1129 O 104.472 -0.800903 -2.14004 0
M  V30 1130 C 104.682 -3.48344 0.21385 0
M  V30 1131 C 106.03 -4.24504 0.0904902 0
M  V30 1132 O 107.054 -3.55911 0.143558 0
M  V30 1133 O 105.913 -5.46491 -0.0310766 0
M  V30 1134 H 103.007 -0.82602 -0.0402478 0
M  V30 1135 H 105.553 -1.55951 0.669139 0
M  V30 1136 H 104.325 -3.71397 1.23206 0
M  V30 1137 H 103.948 -3.9485 -0.466842 0
M  V30 1138 N 104.945 -0.338344 -1.53925 0
M  V30 1139 C 106.17 0.263987 -2.05713 0
M  V30 1140 C 106.595 1.43847 -1.21201 0
M  V30 1141 O 105.953 1.79904 -0.224535 0
M  V30 1142 C 106.001 0.662 -3.54471 0
M  V30 1143 O 105.105 1.76265 -3.72833 0
M  V30 1144 H 104.446 0.0448722 -0.662482 0
M  V30 1145 H 106.976 -0.491048 -1.9862 0
M  V30 1146 H 106.986 0.940594 -3.9701 0
M  V30 1147 H 105.661 -0.196937 -4.15433 0
M  V30 1148 H 104.238 1.48173 -3.42198 0
M  V30 1149 N 106.423 1.57458 -0.0668435 0
M  V30 1150 C 107.671 1.92919 0.602214 0
M  V30 1151 C 107.992 0.947215 1.70449 0
M  V30 1152 O 107.262 -0.00544117 1.95899 0
M  V30 1153 H 105.842 0.71217 0.22544 0
M  V30 1154 H 108.504 1.94508 -0.123535 0
M  V30 1155 H 107.6 2.94589 1.03073 0
M  V30 1156 N 107.901 -0.206675 1.56239 0
M  V30 1157 C 108.834 -1.28383 1.88661 0
M  V30 1158 C 109.812 -1.44504 0.745481 0
M  V30 1159 O 110.996 -1.60079 0.995336 0
M  V30 1160 C 108.123 -2.65211 2.10667 0
M  V30 1161 C 107.169 -2.66025 3.33366 0
M  V30 1162 S 108.002 -2.18609 4.88846 0
M  V30 1163 C 109.158 -3.57283 5.13906 0
M  V30 1164 H 109.391 -1.00691 2.7973 0
M  V30 1165 H 106.924 -0.409627 1.48867 0
M  V30 1166 H 108.882 -3.43979 2.24029 0
M  V30 1167 H 107.543 -2.90121 1.20369 0
M  V30 1168 H 106.736 -3.66607 3.45855 0
M  V30 1169 H 106.338 -1.95331 3.18938 0
M  V30 1170 H 108.63 -4.53074 5.03717 0
M  V30 1171 H 109.573 -3.49699 6.15724 0
M  V30 1172 H 109.981 -3.51659 4.41583 0
M  V30 1173 N 109.379 -1.50304 -0.473955 0
M  V30 1174 C 110.326 -1.68959 -1.57231 0
M  V30 1175 C 111.296 -0.530899 -1.57387 0
M  V30 1176 O 112.481 -0.761133 -1.74961 0
M  V30 1177 C 109.621 -1.7871 -2.95223 0
M  V30 1178 C 108.734 -3.06061 -3.04878 0
M  V30 1179 C 107.869 -3.06626 -4.33767 0
M  V30 1180 C 106.908 -4.28443 -4.37154 0
M  V30 1181 N 106.045 -4.26763 -5.5751 0
M  V30 1182 H 110.885 -2.6273 -1.40631 0
M  V30 1183 H 108.422 -1.30241 -0.683789 0
M  V30 1184 H 110.38 -1.82344 -3.75242 0
M  V30 1185 H 109.01 -0.883806 -3.10465 0
M  V30 1186 H 108.062 -3.11911 -2.17751 0
M  V30 1187 H 109.374 -3.96039 -3.0324 0
M  V30 1188 H 108.528 -3.08973 -5.22131 0
M  V30 1189 H 107.267 -2.14473 -4.3801 0
M  V30 1190 H 106.272 -4.2631 -3.47188 0
M  V30 1191 H 107.497 -5.2182 -4.34605 0
M  V30 1192 H 105.443 -3.37462 -5.62544 0
M  V30 1193 H 105.36 -5.10507 -5.57601 0
M  V30 1194 H 106.628 -4.33253 -6.48006 0
M  V30 1195 N 110.857 0.726932 -1.39834 0
M  V30 1196 C 112.134 1.47902 -1.28001 0
M  V30 1197 C 112.514 2.1083 0.106789 0
M  V30 1198 O 111.862 1.99242 1.11869 0
M  V30 1199 C 112.072 2.52392 -2.41038 0
M  V30 1200 C 113.42 3.18546 -2.80737 0
M  V30 1201 O 114.444 2.62708 -2.40547 0
M  V30 1202 O 113.303 4.19604 -3.50135 0
M  V30 1203 H 110.397 0.657163 -0.502062 0
M  V30 1204 H 112.943 0.760071 -1.51727 0
M  V30 1205 H 111.715 2.04329 -3.33715 0
M  V30 1206 H 111.338 3.31837 -2.19021 0
M  V30 1207 N 112.336 1.25143 0.95797 0
M  V30 1208 C 113.584 1.09476 1.69881 0
M  V30 1209 C 113.905 -0.365502 1.91544 0
M  V30 1210 O 113.175 -1.25985 1.50015 0
M  V30 1211 H 111.755 0.402128 0.629525 0
M  V30 1212 H 114.417 1.57214 1.15194 0
M  V30 1213 H 113.513 1.60046 2.6794 0
M  V30 1214 N 113.814 -1.1601 1.06675 0
M  V30 1215 C 115.039 -1.91068 0.806706 0
M  V30 1216 C 115.464 -1.77112 -0.633485 0
M  V30 1217 O 114.822 -1.09908 -1.44187 0
M  V30 1218 C 114.87 -3.39655 1.21106 0
M  V30 1219 O 113.974 -4.10893 0.352189 0
M  V30 1220 H 113.315 -0.595125 0.294486 0
M  V30 1221 H 115.845 -1.46955 1.42356 0
M  V30 1222 H 115.855 -3.90434 1.18428 0
M  V30 1223 H 114.53 -3.49132 2.26008 0
M  V30 1224 H 113.107 -3.70285 0.440868 0
M  V30 1225 N 115.292 -0.849877 -1.32721 0
M  V30 1226 C 116.569 -0.372405 -1.92022 0
M  V30 1227 C 116.949 1.1435 -1.77447 0
M  V30 1228 O 116.297 1.96296 -1.16962 0
M  V30 1229 C 116.507 -0.831482 -3.3895 0
M  V30 1230 C 117.855 -0.845882 -4.16089 0
M  V30 1231 O 118.879 -0.775806 -3.47649 0
M  V30 1232 O 117.738 -0.943753 -5.38289 0
M  V30 1233 H 114.832 -0.107667 -0.819961 0
M  V30 1234 H 117.378 -0.93646 -1.41522 0
M  V30 1235 H 116.15 -1.87448 -3.4348 0
M  V30 1236 H 115.773 -0.24461 -3.96847 0
M  V30 1237 N 116.77 1.45427 -0.607355 0
M  V30 1238 C 118.016 2.0254 -0.102607 0
M  V30 1239 C 118.349 1.47478 1.26348 0
M  V30 1240 O 117.624 0.64939 1.83339 0
M  V30 1241 C 117.907 3.60044 -0.0634347 0
M  V30 1242 C 117.76 4.2544 -1.46017 0
M  V30 1243 C 119.079 4.35646 0.624514 0
M  V30 1244 H 116.198 0.73598 -0.0387607 0
M  V30 1245 H 118.84 1.73284 -0.779282 0
M  V30 1246 H 116.99 3.85101 0.512808 0
M  V30 1247 H 118.662 4.11569 -2.08347 0
M  V30 1248 H 116.905 3.83849 -2.02094 0
M  V30 1249 H 117.576 5.34342 -1.385 0
M  V30 1250 H 120.052 4.15882 0.134723 0
M  V30 1251 H 118.928 5.45376 0.621028 0
M  V30 1252 H 119.189 4.08501 1.69055 0
M  V30 1253 N 118.248 0.346503 1.53744 0
M  V30 1254 C 119.496 -0.248612 2.00565 0
M  V30 1255 C 119.817 -1.5083 1.23593 0
M  V30 1256 O 119.087 -1.92858 0.343912 0
M  V30 1257 H 117.667 -0.0948564 0.740953 0
M  V30 1258 H 120.329 0.468341 1.89189 0
M  V30 1259 H 119.425 -0.488994 3.08245 0
M  V30 1260 N 119.726 -1.57421 0.075193 0
M  V30 1261 C 120.972 -1.93905 -0.594025 0
M  V30 1262 C 121.305 -0.955701 -1.69056 0
M  V30 1263 O 120.58 0.0145373 -1.94495 0
M  V30 1264 C 120.863 -3.40638 -1.1678 0
M  V30 1265 C 120.716 -4.49733 -0.0776792 0
M  V30 1266 C 122.035 -3.88259 -2.07228 0
M  V30 1267 H 119.154 -0.705105 -0.214466 0
M  V30 1268 H 121.796 -1.8947 0.141854 0
M  V30 1269 H 119.946 -3.44549 -1.79494 0
M  V30 1270 H 121.618 -4.57942 0.555573 0
M  V30 1271 H 119.861 -4.29751 0.591286 0
M  V30 1272 H 120.532 -5.49549 -0.519603 0
M  V30 1273 H 123.008 -3.86376 -1.54445 0
M  V30 1274 H 121.884 -4.91533 -2.44308 0
M  V30 1275 H 122.145 -3.26396 -2.98191 0
M  V30 1276 N 121.204 0.198386 -1.56346 0
M  V30 1277 C 122.481 0.944982 -1.71258 0
M  V30 1278 C 122.861 2.0151 -0.629048 0
M  V30 1279 O 122.209 2.25639 0.360473 0
M  V30 1280 C 122.419 1.5344 -3.1346 0
M  V30 1281 C 123.767 2.01778 -3.73591 0
M  V30 1282 O 124.791 1.63288 -3.16568 0
M  V30 1283 O 123.65 2.72594 -4.73661 0
M  V30 1284 H 120.744 0.442939 -0.69838 0
M  V30 1285 H 123.29 0.188342 -1.68652 0
M  V30 1286 H 122.062 0.762869 -3.83792 0
M  V30 1287 H 121.685 2.35596 -3.20282 0
M  V30 1288 N 122.682 1.50554 0.465978 0
M  V30 1289 C 123.612 1.72722 1.57128 0
M  V30 1290 C 124.593 0.576294 1.6004 0
M  V30 1291 O 125.778 0.81598 1.76225 0
M  V30 1292 C 122.908 1.82605 2.95419 0
M  V30 1293 C 121.862 2.97835 3.07373 0
M  V30 1294 C 121.188 2.92867 4.47363 0
M  V30 1295 C 122.488 4.38265 2.84114 0
M  V30 1296 H 124.182 2.65267 1.38829 0
M  V30 1297 H 121.728 1.2765 0.666441 0
M  V30 1298 H 123.681 1.96698 3.72677 0
M  V30 1299 H 122.405 0.866858 3.14886 0
M  V30 1300 H 121.064 2.83401 2.3255 0
M  V30 1301 H 120.712 1.94783 4.63755 0
M  V30 1302 H 120.412 3.70227 4.56296 0
M  V30 1303 H 121.936 3.09015 5.26633 0
M  V30 1304 H 123.35 4.53198 3.51118 0
M  V30 1305 H 121.747 5.17115 3.04487 0
M  V30 1306 H 122.817 4.50281 1.7993 0
M  V30 1307 N 124.16 -0.719506 1.40217 0
M  V30 1308 C 125.388 -1.50864 1.41589 0
M  V30 1309 C 125.803 -1.88794 0.0145275 0
M  V30 1310 O 125.16 -1.55174 -0.960594 0
M  V30 1311 C 125.211 -2.78646 2.30302 0
M  V30 1312 O 124.932 -2.42321 3.64983 0
M  V30 1313 C 126.433 -3.72569 2.40224 0
M  V30 1314 H 123.653 -0.465709 0.48307 0
M  V30 1315 H 126.197 -0.88785 1.84221 0
M  V30 1316 H 124.352 -3.37019 1.91042 0
M  V30 1317 H 124.766 -3.24514 4.12057 0
M  V30 1318 H 126.24 -4.5908 3.06512 0
M  V30 1319 H 126.717 -4.15403 1.42608 0
M  V30 1320 H 127.323 -3.20109 2.80019 0
M  V30 1321 N 125.638 -1.25649 -0.95132 0
M  V30 1322 C 126.886 -1.10375 -1.69298 0
M  V30 1323 C 127.207 0.355339 -1.91735 0
M  V30 1324 O 126.477 1.25188 -1.50681 0
M  V30 1325 H 125.057 -0.405461 -0.627384 0
M  V30 1326 H 127.719 -1.57823 -1.14358 0
M  V30 1327 H 126.815 -1.61465 -2.67087 0
M  V30 1328 N 127.117 1.15442 -1.07289 0
M  V30 1329 C 128.365 1.85845 -0.794096 0
M  V30 1330 C 128.686 1.82692 0.681809 0
M  V30 1331 O 127.956 1.26741 1.49377 0
M  V30 1332 H 126.536 0.688089 -0.290763 0
M  V30 1333 H 129.198 1.39947 -1.3565 0
M  V30 1334 H 128.294 2.91001 -1.12804 0
M  V30 1335 N 128.595 0.856903 1.32268 0
M  V30 1336 C 129.841 0.471355 1.97863 0
M  V30 1337 C 130.196 -0.962896 1.66572 0
M  V30 1338 O 129.489 -1.66686 0.944797 0
M  V30 1339 C 129.683 0.649919 3.51441 0
M  V30 1340 C 129.512 2.09997 3.97657 0
M  V30 1341 C 128.282 2.73893 4.2463 0
M  V30 1342 C 130.48 3.07081 4.1256 0
M  V30 1343 N 128.462 4.09786 4.57109 0
M  V30 1344 C 129.833 4.27968 4.48602 0
M  V30 1345 C 131.888 3.03247 3.949 0
M  V30 1346 C 130.591 5.45521 4.68827 0
M  V30 1347 C 132.617 4.20046 4.16311 0
M  V30 1348 C 131.979 5.39692 4.52672 0
M  V30 1349 H 128.078 0.221263 0.750044 0
M  V30 1350 H 130.662 1.10876 1.60045 0
M  V30 1351 H 128.833 0.0421938 3.88377 0
M  V30 1352 H 130.565 0.234044 4.04023 0
M  V30 1353 H 127.32 2.24918 4.16784 0
M  V30 1354 H 127.744 4.7989 4.7753 0
M  V30 1355 H 132.386 2.11863 3.65888 0
M  V30 1356 H 130.104 6.37434 4.96693 0
M  V30 1357 H 133.69 4.18517 4.04147 0
M  V30 1358 H 132.57 6.28566 4.68907 0
M  V30 1359 N 130.073 -1.45103 0.615059 0
M  V30 1360 C 131.303 -2.06254 0.119596 0
M  V30 1361 C 131.711 -1.4591 -1.20445 0
M  V30 1362 O 131.054 -0.570384 -1.7462 0
M  V30 1363 C 131.116 -3.59396 -0.0865591 0
M  V30 1364 C 130.78 -4.42116 1.15683 0
M  V30 1365 C 131.777 -4.7662 2.07676 0
M  V30 1366 C 129.462 -4.82749 1.38775 0
M  V30 1367 C 131.456 -5.50622 3.21082 0
M  V30 1368 C 129.143 -5.56504 2.52481 0
M  V30 1369 C 130.141 -5.90358 3.43463 0
M  V30 1370 O 129.829 -6.62615 4.55189 0
M  V30 1371 H 129.561 -0.672423 0.0694512 0
M  V30 1372 H 132.115 -1.87219 0.844885 0
M  V30 1373 H 130.345 -3.76859 -0.866823 0
M  V30 1374 H 132.034 -4.02365 -0.534555 0
M  V30 1375 H 132.8 -4.4578 1.91063 0
M  V30 1376 H 128.679 -4.55829 0.688545 0
M  V30 1377 H 132.223 -5.76965 3.92119 0
M  V30 1378 H 128.12 -5.86759 2.69043 0
M  V30 1379 H 128.888 -6.81071 4.53966 0
M  V30 1380 N 131.551 -0.354651 -1.53558 0
M  V30 1381 C 132.828 0.294281 -1.93374 0
M  V30 1382 C 133.208 1.67313 -1.28723 0
M  V30 1383 O 132.556 2.24179 -0.442247 0
M  V30 1384 C 132.766 0.355445 -3.47185 0
M  V30 1385 C 134.114 0.601007 -4.20325 0
M  V30 1386 O 135.138 0.437106 -3.53508 0
M  V30 1387 O 133.997 0.919322 -5.38712 0
M  V30 1388 H 131.091 0.174033 -0.808481 0
M  V30 1389 H 133.637 -0.406638 -1.64756 0
M  V30 1390 H 132.409 -0.611729 -3.86489 0
M  V30 1391 H 132.032 1.1027 -3.82003 0
M  V30 1392 N 133.029 1.57378 -0.0835403 0
M  V30 1393 C 133.992 2.12252 0.864959 0
M  V30 1394 C 134.992 1.04916 1.21858 0
M  V30 1395 O 136.182 1.30853 1.14991 0
M  V30 1396 C 133.314 2.63358 2.16461 0
M  V30 1397 H 134.507 2.97371 0.388676 0
M  V30 1398 H 132.06 1.55423 0.165317 0
M  V30 1399 H 132.795 1.81727 2.686 0
M  V30 1400 H 132.58 3.41826 1.92087 0
M  V30 1401 H 134.07 3.05847 2.84337 0
M  V30 1402 N 134.507 -0.190092 1.56449 0
M  V30 1403 C 135.755 -0.907908 1.80559 0
M  V30 1404 C 136.076 -1.83583 0.657438 0
M  V30 1405 O 135.346 -1.93203 -0.323924 0
M  V30 1406 H 133.926 -0.338247 0.666032 0
M  V30 1407 H 136.588 -0.194403 1.93928 0
M  V30 1408 H 135.684 -1.49604 2.73907 0
M  V30 1409 N 135.985 -1.50799 -0.457987 0
M  V30 1410 C 137.262 -1.52968 -1.21902 0
M  V30 1411 C 137.642 -0.281906 -2.09209 0
M  V30 1412 O 136.99 0.734076 -2.16388 0
M  V30 1413 C 137.2 -2.8326 -2.03875 0
M  V30 1414 C 138.548 -3.34425 -2.6162 0
M  V30 1415 O 139.572 -2.8467 -2.14106 0
M  V30 1416 O 138.431 -4.21188 -3.48228 0
M  V30 1417 H 135.525 -0.614129 -0.553873 0
M  V30 1418 H 138.071 -1.63098 -0.468739 0
M  V30 1419 H 136.843 -3.65543 -1.39621 0
M  V30 1420 H 136.466 -2.76195 -2.8601 0
M  V30 1421 N 137.463 0.71206 -1.40597 0
M  V30 1422 C 138.413 1.81783 -1.37619 0
M  V30 1423 C 139.397 1.58896 -0.253162 0
M  V30 1424 O 140.589 1.70009 -0.492547 0
M  V30 1425 C 137.718 3.19944 -1.24462 0
M  V30 1426 C 136.804 3.48582 -2.4156 0
M  V30 1427 N 137.195 3.48016 -3.67041 0
M  V30 1428 C 135.493 3.79056 -2.35016 0
M  V30 1429 C 136.194 3.75096 -4.44609 0
M  V30 1430 N 135.17 3.94022 -3.74497 0
M  V30 1431 H 138.972 1.79683 -2.32575 0
M  V30 1432 H 136.486 0.91134 -1.34419 0
M  V30 1433 H 138.483 3.99133 -1.20411 0
M  V30 1434 H 137.143 3.23267 -0.304762 0
M  V30 1435 H 138.154 3.28782 -4.00153 0
M  V30 1436 H 134.831 3.89848 -1.49415 0
M  V30 1437 H 136.221 3.80934 -5.53479 0
M  V30 1438 N 138.941 1.26152 0.944643 0
M  V30 1439 C 140.187 1.11657 1.69294 0
M  V30 1440 C 140.52 -0.339926 1.91202 0
M  V30 1441 O 139.795 -1.24994 1.49019 0
M  V30 1442 C 140.078 1.88236 3.06984 0
M  V30 1443 C 139.931 3.41772 2.92424 0
M  V30 1444 C 141.25 1.67343 4.07043 0
M  V30 1445 H 138.369 0.407004 0.614424 0
M  V30 1446 H 141.011 1.55106 1.09737 0
M  V30 1447 H 139.161 1.51308 3.57824 0
M  V30 1448 H 140.833 3.88433 2.48832 0
M  V30 1449 H 139.076 3.68974 2.28124 0
M  V30 1450 H 139.747 3.90579 3.90067 0
M  V30 1451 H 142.223 1.99509 3.65151 0
M  V30 1452 H 141.099 2.23346 5.01406 0
M  V30 1453 H 141.36 0.617158 4.37771 0
M  V30 1454 N 140.419 -1.14872 1.07899 0
M  V30 1455 C 141.366 -2.19791 0.704319 0
M  V30 1456 C 142.336 -1.63238 -0.306987 0
M  V30 1457 O 143.521 -1.8983 -0.192171 0
M  V30 1458 C 140.661 -3.44911 0.114244 0
M  V30 1459 C 139.774 -4.15637 1.1777 0
M  V30 1460 C 138.909 -5.28324 0.552037 0
M  V30 1461 C 137.948 -5.90875 1.59789 0
M  V30 1462 N 137.085 -6.95022 0.994404 0
M  V30 1463 H 141.925 -2.5119 1.60336 0
M  V30 1464 H 139.462 -1.23356 0.801352 0
M  V30 1465 H 141.42 -4.16477 -0.245544 0
M  V30 1466 H 140.05 -3.14011 -0.74813 0
M  V30 1467 H 139.102 -3.42512 1.65499 0
M  V30 1468 H 140.414 -4.5823 1.97046 0
M  V30 1469 H 139.568 -6.06538 0.1402 0
M  V30 1470 H 138.307 -4.86939 -0.272431 0
M  V30 1471 H 137.312 -5.11369 2.01945 0
M  V30 1472 H 138.537 -6.34337 2.42474 0
M  V30 1473 H 136.483 -6.55722 0.190939 0
M  V30 1474 H 136.4 -7.36073 1.72432 0
M  V30 1475 H 137.668 -7.77123 0.608253 0
M  V30 1476 N 141.898 -0.863906 -1.31812 0
M  V30 1477 C 143.145 -0.471836 -1.96926 0
M  V30 1478 C 143.473 0.974578 -1.68322 0
M  V30 1479 O 142.728 1.7003 -0.968933 0
M  V30 1480 C 143.027 -0.668547 -3.51091 0
M  V30 1481 C 142.693 -2.08683 -3.99703 0
M  V30 1482 C 141.355 -2.47471 -4.12688 0
M  V30 1483 C 143.707 -3.01207 -4.25351 0
M  V30 1484 C 141.035 -3.78037 -4.4867 0
M  V30 1485 C 143.387 -4.31282 -4.62794 0
M  V30 1486 C 142.051 -4.69992 -4.73987 0
M  V30 1487 H 141.321 -0.172657 -0.720604 0
M  V30 1488 H 143.968 -1.09573 -1.57054 0
M  V30 1489 H 142.273 0.0385252 -3.91781 0
M  V30 1490 H 143.97 -0.345102 -3.99512 0
M  V30 1491 H 140.56 -1.77566 -3.90087 0
M  V30 1492 H 144.744 -2.72469 -4.14819 0
M  V30 1493 H 140 -4.078 -4.55532 0
M  V30 1494 H 144.174 -5.03031 -4.81594 0
M  V30 1495 H 141.801 -5.71207 -5.01624 0
M  V30 1496 N 143.376 1.44774 -0.622745 0
M  V30 1497 C 144.324 2.32387 0.0994683 0
M  V30 1498 C 145.318 1.46859 0.844326 0
M  V30 1499 O 146.524 1.63254 0.758174 0
M  V30 1500 H 142.899 0.750273 0.0509291 0
M  V30 1501 H 144.87 2.91062 -0.65767 0
M  V30 1502 C 143.619 3.30723 1.07319 0
M  V30 1503 H 142.942 3.96541 0.509462 0
M  V30 1504 H 144.382 3.94725 1.54817 0
M  V30 1505 C 142.841 2.59021 2.15429 0
M  V30 1506 O 143.371 2.38286 3.23393 0
M  V30 1507 N 141.577 2.189 1.91131 0
M  V30 1508 H 141.124 2.35964 1.03337 0
M  V30 1509 H 141.082 1.71251 2.63668 0
M  V30 1510 N 144.854 0.36279 1.53368 0
M  V30 1511 C 145.784 -0.476976 2.28576 0
M  V30 1512 C 146.765 -1.08631 1.30894 0
M  V30 1513 O 147.95 -1.10409 1.59761 0
M  V30 1514 C 145.08 -1.61828 3.07293 0
M  V30 1515 C 144.034 -1.13633 4.1264 0
M  V30 1516 C 143.36 -2.36766 4.79423 0
M  V30 1517 C 144.66 -0.223061 5.21823 0
M  V30 1518 H 146.354 0.150474 2.99022 0
M  V30 1519 H 143.9 0.0738103 1.43811 0
M  V30 1520 H 145.853 -2.21237 3.58653 0
M  V30 1521 H 144.577 -2.27292 2.34533 0
M  V30 1522 H 143.236 -0.564945 3.62221 0
M  V30 1523 H 142.884 -3.0068 4.03238 0
M  V30 1524 H 142.584 -2.05192 5.50609 0
M  V30 1525 H 144.108 -2.96865 5.33576 0
M  V30 1526 H 145.522 -0.724545 5.68703 0
M  V30 1527 H 143.919 0.001678 6.001 0
M  V30 1528 H 144.989 0.735553 4.79289 0
M  V30 1529 N 146.332 -1.57332 0.0918853 0
M  V30 1530 C 147.743 -1.81496 -0.437739 0
M  V30 1531 C 148.094 -1.00727 -1.6837 0
M  V30 1532 O 147.219 -0.235694 -2.15113 0
M  V30 1533 C 147.814 -3.29197 -0.800939 0
M  V30 1534 C 146.373 -3.54136 -1.27532 0
M  V30 1535 C 145.52 -2.75979 -0.270392 0
M  V30 1536 H 148.471 -1.55494 0.317366 0
M  V30 1537 H 148.492 -3.42344 -1.66074 0
M  V30 1538 H 148.004 -3.87955 0.106078 0
M  V30 1539 H 146.105 -3.00705 -2.20016 0
M  V30 1540 H 146.218 -4.62792 -1.23938 0
M  V30 1541 H 144.582 -2.43349 -0.751872 0
M  V30 1542 H 145.365 -3.37484 0.629248 0
M  V30 1543 N 147.81 0.181792 -1.56548 0
M  V30 1544 C 148.743 1.25366 -1.90679 0
M  V30 1545 C 149.721 1.43299 -0.768376 0
M  V30 1546 O 150.905 1.58475 -1.02068 0
M  V30 1547 C 148.032 2.61826 -2.1486 0
M  V30 1548 C 147.078 2.60688 -3.37556 0
M  V30 1549 S 147.911 2.10804 -4.92262 0
M  V30 1550 C 149.067 3.49062 -5.19525 0
M  V30 1551 H 149.3 0.962277 -2.81296 0
M  V30 1552 H 146.833 0.385892 -1.495 0
M  V30 1553 H 148.791 3.40371 -2.29473 0
M  V30 1554 H 147.452 2.88169 -1.24969 0
M  V30 1555 H 146.645 3.61058 -3.51643 0
M  V30 1556 H 146.247 1.90232 -3.22006 0
M  V30 1557 H 148.539 4.45003 -5.10861 0
M  V30 1558 H 149.482 3.39859 -6.2121 0
M  V30 1559 H 149.89 3.4459 -4.47122 0
M  V30 1560 N 149.288 1.51039 0.449983 0
M  V30 1561 C 150.513 1.6715 1.22783 0
M  V30 1562 C 150.938 0.363081 1.84563 0
M  V30 1563 O 150.296 -0.675433 1.68249 0
M  V30 1564 C 150.344 2.77985 2.29689 0
M  V30 1565 O 149.448 2.40707 3.34864 0
M  V30 1566 H 148.789 0.557746 0.360299 0
M  V30 1567 H 151.319 1.97535 0.533005 0
M  V30 1568 H 151.329 3.01693 2.74673 0
M  V30 1569 H 150.004 3.72935 1.84098 0
M  V30 1570 H 148.581 2.27523 2.95445 0
M  V30 1571 N 150.766 -0.704594 1.40972 0
M  V30 1572 C 151.996 -1.49138 1.42974 0
M  V30 1573 C 152.404 -1.89175 0.0308406 0
M  V30 1574 O 151.747 -1.56734 -0.958138 0
M  V30 1575 C 151.809 -2.79016 2.26694 0
M  V30 1576 C 151.473 -2.61236 3.74973 0
M  V30 1577 C 152.47 -2.27773 4.67349 0
M  V30 1578 C 150.155 -2.77158 4.18914 0
M  V30 1579 C 152.149 -2.10457 6.01653 0
M  V30 1580 C 149.836 -2.59459 5.53285 0
M  V30 1581 C 150.834 -2.26158 6.4447 0
M  V30 1582 O 150.522 -2.08605 7.76363 0
M  V30 1583 H 150.254 -0.466443 0.489292 0
M  V30 1584 H 152.808 -0.8758 1.85793 0
M  V30 1585 H 151.038 -3.42947 1.78673 0
M  V30 1586 H 152.727 -3.40782 2.20504 0
M  V30 1587 H 153.493 -2.15095 4.34694 0
M  V30 1588 H 149.372 -3.02064 3.48251 0
M  V30 1589 H 152.916 -1.84387 6.72791 0
M  V30 1590 H 148.813 -2.71725 5.85522 0
M  V30 1591 H 149.581 -2.23439 7.87412 0
M  V30 1592 N 152.244 -1.26651 -0.937939 0
M  V30 1593 C 153.472 -1.15173 -1.7188 0
M  V30 1594 C 153.887 0.292668 -1.86518 0
M  V30 1595 O 153.244 1.20014 -1.37488 0
M  V30 1596 C 153.295 -1.81925 -3.12387 0
M  V30 1597 O 153.016 -3.2072 -2.98446 0
M  V30 1598 C 154.517 -1.76442 -4.06673 0
M  V30 1599 H 151.737 -0.400911 -0.538063 0
M  V30 1600 H 154.281 -1.67332 -1.1756 0
M  V30 1601 H 152.436 -1.33696 -3.63599 0
M  V30 1602 H 152.85 -3.53802 -3.872 0
M  V30 1603 H 154.324 -2.27781 -5.02812 0
M  V30 1604 H 154.801 -0.731608 -4.33064 0
M  V30 1605 H 155.407 -2.24238 -3.61382 0
M  V30 1606 N 153.722 1.14298 -1.08507 0
M  V30 1607 C 154.947 1.8976 -0.837001 0
M  V30 1608 C 155.372 1.78097 0.605228 0
M  V30 1609 O 154.73 1.12188 1.4242 0
M  V30 1610 C 154.778 3.37685 -1.26495 0
M  V30 1611 O 153.882 4.10281 -0.417514 0
M  V30 1612 H 153.223 0.590365 -0.303917 0
M  V30 1613 H 155.753 1.44672 -1.44676 0
M  V30 1614 H 155.763 3.88501 -1.24625 0
M  V30 1615 H 154.438 3.45492 -2.31534 0
M  V30 1616 H 153.015 3.69536 -0.499722 0
M  V30 1617 N 155.201 0.870884 1.31352 0
M  V30 1618 C 156.164 0.332243 2.26779 0
M  V30 1619 C 157.164 -0.517302 1.52252 0
M  V30 1620 O 158.354 -0.326477 1.71113 0
M  V30 1621 C 155.486 -0.528066 3.36785 0
M  V30 1622 H 156.679 1.17469 2.75937 0
M  V30 1623 H 154.232 0.64655 1.423 0
M  V30 1624 H 154.967 -1.39167 2.92922 0
M  V30 1625 H 154.752 0.0802582 3.92018 0
M  V30 1626 H 156.242 -0.897179 4.07849 0
M  V30 1627 N 156.679 -1.44442 0.630414 0
M  V30 1628 C 157.612 -2.27862 -0.124247 0
M  V30 1629 C 158.59 -1.38495 -0.851931 0
M  V30 1630 O 159.774 -1.67935 -0.856166 0
M  V30 1631 C 156.901 -3.17407 -1.18197 0
M  V30 1632 C 155.947 -4.22875 -0.554892 0
M  V30 1633 S 156.78 -5.31485 0.654489 0
M  V30 1634 C 157.936 -6.246 -0.40326 0
M  V30 1635 H 158.169 -2.91519 0.583435 0
M  V30 1636 H 155.702 -1.48618 0.418565 0
M  V30 1637 H 157.66 -3.69549 -1.78728 0
M  V30 1638 H 156.321 -2.52971 -1.86184 0
M  V30 1639 H 155.514 -4.85542 -1.35148 0
M  V30 1640 H 155.116 -3.73992 -0.0242105 0
M  V30 1641 H 157.408 -6.65375 -1.27602 0
M  V30 1642 H 158.351 -7.07851 0.187813 0
M  V30 1643 H 158.759 -5.59775 -0.728837 0
M  V30 1644 N 158.157 -0.370918 -1.53173 0
M  V30 1645 C 159.087 0.464847 -2.28826 0
M  V30 1646 C 160.068 1.07936 -1.31468 0
M  V30 1647 O 161.253 1.0956 -1.60344 0
M  V30 1648 C 158.383 1.60196 -3.08147 0
M  V30 1649 C 157.337 1.11443 -4.13237 0
M  V30 1650 C 156.663 2.3422 -4.80672 0
M  V30 1651 C 157.963 0.195384 -5.21934 0
M  V30 1652 H 159.657 -0.166329 -2.98938 0
M  V30 1653 H 157.203 -0.0814359 -1.4377 0
M  V30 1654 H 159.156 2.19332 -3.59822 0
M  V30 1655 H 157.88 2.26045 -2.35735 0
M  V30 1656 H 156.539 0.545727 -3.62515 0
M  V30 1657 H 156.187 2.98537 -4.04827 0
M  V30 1658 H 155.887 2.02269 -5.51689 0
M  V30 1659 H 157.411 2.94032 -5.35143 0
M  V30 1660 H 158.825 0.694375 -5.69079 0
M  V30 1661 H 157.222 -0.0335027 -6.00091 0
M  V30 1662 H 158.292 -0.760961 -4.78892 0
M  V30 1663 N 159.635 1.57281 -0.100228 0
M  V30 1664 C 160.598 2.13158 0.842398 0
M  V30 1665 C 161.598 1.06202 1.20738 0
M  V30 1666 O 162.788 1.32066 1.13597 0
M  V30 1667 C 159.92 2.65639 2.13655 0
M  V30 1668 H 161.113 2.97766 0.357114 0
M  V30 1669 H 158.666 1.5559 0.148823 0
M  V30 1670 H 159.401 1.84566 2.66657 0
M  V30 1671 H 159.186 3.43844 1.88451 0
M  V30 1672 H 160.676 3.08846 2.81077 0
M  V30 1673 N 161.113 -0.173488 1.56642 0
M  V30 1674 C 162.359 -0.887108 1.83035 0
M  V30 1675 C 162.714 -1.79965 0.680461 0
M  V30 1676 O 162.007 -1.88854 -0.323225 0
M  V30 1677 C 162.201 -1.72069 3.13252 0
M  V30 1678 C 162.03 -0.89035 4.40798 0
M  V30 1679 C 160.8 -0.566282 5.02117 0
M  V30 1680 C 162.998 -0.232921 5.13772 0
M  V30 1681 N 160.98 0.280427 6.13259 0
M  V30 1682 C 162.351 0.475046 6.18177 0
M  V30 1683 C 164.406 -0.150863 4.97671 0
M  V30 1684 C 163.109 1.25729 7.08227 0
M  V30 1685 C 165.135 0.618039 5.88162 0
M  V30 1686 C 164.497 1.31438 6.92029 0
M  V30 1687 H 160.596 -0.303303 0.720785 0
M  V30 1688 H 163.18 -0.154244 1.94088 0
M  V30 1689 H 161.351 -2.42499 3.03395 0
M  V30 1690 H 163.083 -2.37545 3.2765 0
M  V30 1691 H 159.838 -0.895852 4.6505 0
M  V30 1692 H 160.262 0.694027 6.73433 0
M  V30 1693 H 164.904 -0.674868 4.17379 0
M  V30 1694 H 162.622 1.79265 7.87966 0
M  V30 1695 H 166.208 0.683173 5.77775 0
M  V30 1696 H 165.088 1.89981 7.6084 0
M  V30 1697 N 162.591 -1.51276 -0.441967 0
M  V30 1698 C 163.816 -1.67799 -1.21895 0
M  V30 1699 C 164.241 -0.372864 -1.84367 0
M  V30 1700 O 163.599 0.666501 -1.68604 0
M  V30 1701 C 163.647 -2.79199 -2.28211 0
M  V30 1702 O 162.751 -2.42479 -3.33583 0
M  V30 1703 H 162.092 -0.559649 -0.357336 0
M  V30 1704 H 164.622 -1.97815 -0.522522 0
M  V30 1705 H 164.632 -3.03146 -2.73069 0
M  V30 1706 H 163.307 -3.73906 -1.82118 0
M  V30 1707 H 161.884 -2.29087 -2.94234 0
M  V30 1708 N 164.069 0.697108 -1.41344 0
M  V30 1709 C 164.999 1.82353 -1.45841 0
M  V30 1710 C 165.98 1.67115 -0.317247 0
M  V30 1711 O 167.165 1.86871 -0.528474 0
M  V30 1712 C 164.295 3.20476 -1.33838 0
M  V30 1713 C 163.249 3.50415 -2.4575 0
M  V30 1714 C 162.575 4.87878 -2.18813 0
M  V30 1715 C 163.875 3.49546 -3.88091 0
M  V30 1716 H 165.569 1.78846 -2.40113 0
M  V30 1717 H 163.115 0.859028 -1.15571 0
M  V30 1718 H 165.068 3.98988 -1.35596 0
M  V30 1719 H 163.792 3.24604 -0.360498 0
M  V30 1720 H 162.451 2.74253 -2.43271 0
M  V30 1721 H 162.099 4.8863 -1.19371 0
M  V30 1722 H 161.799 5.08875 -2.93803 0
M  V30 1723 H 163.323 5.68702 -2.22284 0
M  V30 1724 H 164.737 4.18066 -3.92293 0
M  V30 1725 H 163.134 3.82075 -4.62751 0
M  V30 1726 H 164.204 2.48552 -4.16353 0
M  V30 1727 N 165.547 1.27147 0.931209 0
M  V30 1728 C 166.777 1.15914 1.71019 0
M  V30 1729 C 167.185 -0.287112 1.87009 0
M  V30 1730 O 166.528 -1.20761 1.38429 0
M  V30 1731 C 166.59 1.76647 3.13107 0
M  V30 1732 C 166.254 3.25807 3.20467 0
M  V30 1733 C 167.251 4.22489 3.02983 0
M  V30 1734 C 164.936 3.66452 3.43538 0
M  V30 1735 C 166.93 5.57794 3.08454 0
M  V30 1736 C 164.617 5.01888 3.48643 0
M  V30 1737 C 165.615 5.97369 3.31119 0
M  V30 1738 O 165.303 7.30337 3.35952 0
M  V30 1739 H 165.035 0.404062 0.54195 0
M  V30 1740 H 167.589 1.68457 1.17521 0
M  V30 1741 H 165.819 1.18578 3.68071 0
M  V30 1742 H 167.508 1.60179 3.72958 0
M  V30 1743 H 168.274 3.92425 2.85004 0
M  V30 1744 H 164.153 2.92611 3.5623 0
M  V30 1745 H 167.697 6.32298 2.94694 0
M  V30 1746 H 163.594 5.31609 3.66145 0
M  V30 1747 H 164.362 7.38739 3.5243 0
M  V30 1748 N 167.025 -1.13721 1.09112 0
M  V30 1749 C 167.935 -2.22638 0.73957 0
M  V30 1750 C 168.951 -1.72091 -0.257068 0
M  V30 1751 O 170.127 -2.01155 -0.0992154 0
M  V30 1752 C 167.192 -3.46322 0.16191 0
M  V30 1753 C 166.253 -4.11775 1.21408 0
M  V30 1754 C 165.486 -5.29555 0.663891 0
M  V30 1755 O 165.709 -5.68077 -0.514274 0
M  V30 1756 O 164.643 -5.84973 1.41738 0
M  V30 1757 H 168.469 -2.55074 1.64836 0
M  V30 1758 H 166.054 -1.21791 0.865289 0
M  V30 1759 H 167.936 -4.21107 -0.157073 0
M  V30 1760 H 166.611 -3.15593 -0.719932 0
M  V30 1761 H 165.518 -3.3883 1.58571 0
M  V30 1762 H 166.851 -4.46627 2.06845 0
M  V30 1763 N 168.503 -0.877838 -1.30888 0
M  V30 1764 C 169.78 -0.413052 -1.91189 0
M  V30 1765 C 170.16 1.1056 -1.79832 0
M  V30 1766 O 169.508 1.93771 -1.21099 0
M  V30 1767 C 169.718 -0.903191 -3.3711 0
M  V30 1768 C 171.066 -0.93395 -4.14201 0
M  V30 1769 O 172.09 -0.849373 -3.45925 0
M  V30 1770 O 170.949 -1.05772 -5.36167 0
M  V30 1771 H 168.043 -0.125035 -0.817493 0
M  V30 1772 H 170.589 -0.966269 -1.39504 0
M  V30 1773 H 169.361 -1.94692 -3.39427 0
M  V30 1774 H 168.984 -0.328732 -3.96239 0
M  V30 1775 N 169.982 1.44106 -0.638065 0
M  V30 1776 C 170.929 2.30715 0.062701 0
M  V30 1777 C 171.899 1.43882 0.829883 0
M  V30 1778 O 173.084 1.72775 0.809532 0
M  V30 1779 C 170.224 3.29258 1.03358 0
M  V30 1780 C 169.337 4.31192 0.26409 0
M  V30 1781 C 168.472 5.16825 1.22741 0
M  V30 1782 C 167.511 6.10462 0.447475 0
M  V30 1783 N 166.648 6.8877 1.36161 0
M  V30 1784 H 171.488 2.90096 -0.681781 0
M  V30 1785 H 169.025 1.42925 -0.347988 0
M  V30 1786 H 170.983 3.84886 1.60992 0
M  V30 1787 H 169.613 2.71562 1.74511 0
M  V30 1788 H 168.665 3.77981 -0.428295 0
M  V30 1789 H 169.977 4.97619 -0.343052 0
M  V30 1790 H 169.131 5.77004 1.87487 0
M  V30 1791 H 167.87 4.50488 1.86847 0
M  V30 1792 H 166.875 5.49386 -0.213433 0
M  V30 1793 H 168.1 6.78837 -0.188968 0
M  V30 1794 H 166.046 6.25096 1.98975 0
M  V30 1795 H 165.963 7.51663 0.808656 0
M  V30 1796 H 167.231 7.53467 1.99769 0
M  V30 1797 N 171.46 0.379036 1.52974 0
M  V30 1798 C 172.737 -0.263479 1.93817 0
M  V30 1799 C 173.117 -1.65244 1.31368 0
M  V30 1800 O 172.465 -2.23448 0.477856 0
M  V30 1801 C 172.675 -0.300166 3.47707 0
M  V30 1802 C 174.023 -0.534061 4.21228 0
M  V30 1803 O 175.047 -0.38081 3.54159 0
M  V30 1804 O 173.906 -0.833501 5.40106 0
M  V30 1805 H 171 -0.161149 0.811147 0
M  V30 1806 H 173.546 0.432798 1.64088 0
M  V30 1807 H 172.318 0.673138 3.85467 0
M  V30 1808 H 171.941 -1.04179 3.83709 0
M  V30 1809 N 172.938 -1.57226 0.108567 0
M  V30 1810 C 173.901 -2.13602 -0.831082 0
M  V30 1811 C 174.901 -1.06841 -1.20173 0
M  V30 1812 O 176.091 -1.32666 -1.12895 0
M  V30 1813 C 173.223 -2.66769 -2.12243 0
M  V30 1814 H 174.416 -2.97951 -0.341317 0
M  V30 1815 H 171.969 -1.55667 -0.14057 0
M  V30 1816 H 172.704 -1.85977 -2.65675 0
M  V30 1817 H 172.489 -3.44839 -1.86625 0
M  V30 1818 H 173.979 -3.10332 -2.79435 0
M  V30 1819 N 174.416 0.165178 -1.56732 0
M  V30 1820 C 175.646 0.894919 -1.86212 0
M  V30 1821 C 176.054 1.76066 -0.692627 0
M  V30 1822 O 175.397 1.80387 0.347303 0
M  V30 1823 C 175.459 1.8174 -3.10179 0
M  V30 1824 C 175.123 1.13064 -4.42793 0
M  V30 1825 C 176.12 0.493169 -5.17556 0
M  V30 1826 C 173.805 1.12556 -4.89527 0
M  V30 1827 C 175.799 -0.140209 -6.37246 0
M  V30 1828 C 173.486 0.488366 -6.09145 0
M  V30 1829 C 174.484 -0.143411 -6.82849 0
M  V30 1830 O 174.172 -0.77055 -8.00199 0
M  V30 1831 H 173.904 0.265114 -0.621844 0
M  V30 1832 H 176.458 0.168242 -2.0471 0
M  V30 1833 H 174.688 2.58455 -2.87642 0
M  V30 1834 H 176.377 2.4175 -3.26055 0
M  V30 1835 H 177.143 0.489023 -4.82528 0
M  V30 1836 H 173.022 1.60672 -4.32094 0
M  V30 1837 H 176.566 -0.633932 -6.94714 0
M  V30 1838 H 172.463 0.490116 -6.43637 0
M  V30 1839 H 173.231 -0.670408 -8.1575 0
M  V30 1840 N 175.894 1.51508 0.433938 0
M  V30 1841 C 177.171 1.54888 1.19453 0
M  V30 1842 C 177.551 0.315154 2.08734 0
M  V30 1843 O 176.899 -0.699558 2.17528 0
M  V30 1844 C 177.109 2.86467 1.99342 0
M  V30 1845 C 178.457 3.38545 2.56267 0
M  V30 1846 O 179.481 2.88041 2.0955 0
M  V30 1847 O 178.34 4.26675 3.41483 0
M  V30 1848 H 175.434 0.622863 0.544032 0
M  V30 1849 H 177.98 1.63823 0.442732 0
M  V30 1850 H 176.752 3.67718 1.33788 0
M  V30 1851 H 176.375 2.8071 2.8158 0
M  V30 1852 N 177.372 -0.689602 1.41712 0
M  V30 1853 C 178.319 -1.80345 1.44029 0
M  V30 1854 C 179.289 -1.63478 0.293948 0
M  V30 1855 O 180.474 -1.84244 0.495869 0
M  V30 1856 C 177.614 -3.18272 1.33405 0
M  V30 1857 C 176.727 -3.46529 2.57956 0
M  V30 1858 C 175.862 -4.74103 2.39582 0
M  V30 1859 C 174.901 -4.95347 3.5958 0
M  V30 1860 N 174.038 -6.14151 3.40239 0
M  V30 1861 H 178.878 -1.77698 2.39222 0
M  V30 1862 H 176.415 -0.867688 1.18784 0
M  V30 1863 H 178.373 -3.97956 1.25246 0
M  V30 1864 H 177.003 -3.2008 0.418164 0
M  V30 1865 H 176.055 -2.61207 2.76542 0
M  V30 1866 H 177.367 -3.58126 3.47199 0
M  V30 1867 H 176.521 -5.61853 2.28924 0
M  V30 1868 H 175.26 -4.64763 1.47805 0
M  V30 1869 H 174.265 -4.06044 3.70686 0
M  V30 1870 H 175.49 -5.06542 4.52318 0
M  V30 1871 H 173.436 -6.06013 2.51167 0
M  V30 1872 H 173.353 -6.26543 4.23061 0
M  V30 1873 H 174.621 -7.04619 3.33365 0
M  V30 1874 N 178.85 -1.27639 -0.924453 0
M  V30 1875 C 180.075 -1.17101 -1.71179 0
M  V30 1876 C 180.5 0.268134 -1.86179 0
M  V30 1877 O 179.858 1.19415 -1.36418 0
M  V30 1878 C 179.906 -1.86313 -3.08739 0
M  V30 1879 O 179.01 -1.16331 -3.95652 0
M  V30 1880 H 178.351 -0.407091 -0.524569 0
M  V30 1881 H 180.881 -1.68767 -1.15666 0
M  V30 1882 H 180.891 -1.938 -3.59034 0
M  V30 1883 H 179.566 -2.91001 -2.97138 0
M  V30 1884 H 178.143 -1.16935 -3.54091 0
M  V30 1885 N 180.328 1.1314 -1.09713 0
M  V30 1886 C 181.576 1.84119 -0.833338 0
M  V30 1887 C 181.897 1.84097 0.642904 0
M  V30 1888 O 181.167 1.29881 1.46655 0
M  V30 1889 H 179.747 0.681766 -0.305293 0
M  V30 1890 H 182.409 1.37038 -1.38588 0
M  V30 1891 H 181.505 2.88543 -1.18951 0
M  V30 1892 N 181.806 0.884767 1.30421 0
M  V30 1893 C 182.738 0.308655 2.27112 0
M  V30 1894 C 183.751 -0.536655 1.53701 0
M  V30 1895 O 184.94 -0.35624 1.74909 0
M  V30 1896 C 182.04 -0.579782 3.33904 0
M  V30 1897 C 181.213 0.236417 4.36761 0
M  V30 1898 C 180.272 -0.582482 5.22966 0
M  V30 1899 O 179.298 -0.00525502 5.692 0
M  V30 1900 N 180.5 -1.89163 5.48815 0
M  V30 1901 H 183.265 1.13964 2.77186 0
M  V30 1902 H 180.826 0.747731 1.43599 0
M  V30 1903 H 182.818 -1.13366 3.88497 0
M  V30 1904 H 181.388 -1.31144 2.83761 0
M  V30 1905 H 180.608 0.97174 3.82035 0
M  V30 1906 H 181.896 0.795924 5.02536 0
M  V30 1907 H 181.294 -2.38352 5.13035 0
M  V30 1908 H 179.851 -2.39296 6.06284 0
M  V30 1909 N 183.284 -1.43765 0.645699 0
M  V30 1910 C 184.512 -2.06253 0.163556 0
M  V30 1911 C 184.927 -1.48352 -1.16778 0
M  V30 1912 O 184.284 -0.611932 -1.71935 0
M  V30 1913 C 184.335 -3.61453 0.0583186 0
M  V30 1914 O 184.056 -4.172 1.33702 0
M  V30 1915 C 185.557 -4.41002 -0.450795 0
M  V30 1916 H 182.777 -0.665413 0.0864077 0
M  V30 1917 H 185.321 -1.84396 0.884222 0
M  V30 1918 H 183.476 -3.82522 -0.612865 0
M  V30 1919 H 183.89 -5.10791 1.19131 0
M  V30 1920 H 185.364 -5.49966 -0.473403 0
M  V30 1921 H 185.841 -4.13488 -1.48068 0
M  V30 1922 H 186.447 -4.24886 0.187637 0
M  V30 1923 N 184.763 -0.387143 -1.52771 0
M  V30 1924 C 185.71 0.449048 -2.26389 0
M  V30 1925 C 186.68 1.05961 -1.27912 0
M  V30 1926 O 187.865 1.08804 -1.56737 0
M  V30 1927 C 185.005 1.57155 -3.0724 0
M  V30 1928 C 184.118 0.984066 -4.20643 0
M  V30 1929 C 183.253 2.07745 -4.88892 0
M  V30 1930 C 182.292 1.46574 -5.94292 0
M  V30 1931 N 181.429 2.49834 -6.56146 0
M  V30 1932 H 186.269 -0.185205 -2.97424 0
M  V30 1933 H 183.806 -0.103164 -1.46738 0
M  V30 1934 H 185.764 2.23309 -3.52405 0
M  V30 1935 H 184.394 2.17615 -2.38419 0
M  V30 1936 H 183.446 0.212193 -3.79808 0
M  V30 1937 H 184.758 0.497029 -4.96318 0
M  V30 1938 H 183.912 2.81673 -5.3735 0
M  V30 1939 H 182.651 2.59807 -4.12737 0
M  V30 1940 H 181.656 0.711696 -5.45174 0
M  V30 1941 H 182.881 0.953088 -6.72379 0
M  V30 1942 H 180.827 3.0107 -5.82832 0
M  V30 1943 H 180.744 2.05879 -7.27427 0
M  V30 1944 H 182.012 3.23399 -7.09249 0
M  V30 1945 N 186.241 1.57166 -0.116904 0
M  V30 1946 C 187.471 1.99184 0.548586 0
M  V30 1947 C 187.879 0.995436 1.60897 0
M  V30 1948 O 187.222 -0.0201293 1.83689 0
M  V30 1949 C 187.284 3.37611 1.23526 0
M  V30 1950 C 186.948 4.55857 0.323077 0
M  V30 1951 C 187.945 5.18056 -0.437476 0
M  V30 1952 C 185.63 5.01751 0.234761 0
M  V30 1953 C 187.624 6.24536 -1.2741 0
M  V30 1954 C 185.311 6.08093 -0.605496 0
M  V30 1955 C 186.309 6.69352 -1.35856 0
M  V30 1956 O 185.997 7.7364 -2.18487 0
M  V30 1957 H 185.729 0.659148 0.149999 0
M  V30 1958 H 188.283 2.0443 -0.199428 0
M  V30 1959 H 186.513 3.29113 2.0303 0
M  V30 1960 H 188.202 3.63932 1.79745 0
M  V30 1961 H 188.968 4.83516 -0.379105 0
M  V30 1962 H 184.847 4.53817 0.810601 0
M  V30 1963 H 188.391 6.72281 -1.86237 0
M  V30 1964 H 184.288 6.42063 -0.665268 0
M  V30 1965 H 185.056 7.90727 -2.11406 0
M  V30 1966 N 187.719 -0.156864 1.56817 0
M  V30 1967 C 188.968 -0.869504 1.81996 0
M  V30 1968 C 189.281 -1.82777 0.696545 0
M  V30 1969 O 190.487 -2.58384 0.833658 0
M  V30 1970 C 188.943 -1.59679 3.22538 0
M  V30 1971 C 188.551 -0.681431 4.42787 0
M  V30 1972 C 190.295 -2.2968 3.56997 0
M  V30 1973 C 188.202 -1.40978 5.74351 0
M  V30 1974 H 187.132 -0.328438 0.678708 0
M  V30 1975 H 189.783 -0.1223 1.83092 0
M  V30 1976 H 188.165 -2.38927 3.158 0
M  V30 1977 H 189.339 0.0751166 4.60739 0
M  V30 1978 H 187.654 -0.0903431 4.16302 0
M  V30 1979 H 190.251 -2.84794 4.52544 0
M  V30 1980 H 190.594 -3.05707 2.82576 0
M  V30 1981 H 191.127 -1.57361 3.65352 0
M  V30 1982 H 187.866 -0.691561 6.51842 0
M  V30 1983 H 187.386 -2.13929 5.60352 0
M  V30 1984 H 189.065 -1.95337 6.16808 0
M  V30 1985 N 189.197 -1.51736 -0.425897 0
M  V30 1986 C 190.13 -1.68574 -1.53812 0
M  V30 1987 C 191.108 -0.53328 -1.53606 0
M  V30 1988 O 192.292 -0.758555 -1.72564 0
M  V30 1989 C 189.419 -1.70977 -2.92377 0
M  V30 1990 C 188.465 -2.92324 -3.10563 0
M  V30 1991 S 189.298 -4.52952 -2.85648 0
M  V30 1992 C 190.454 -4.58117 -4.26474 0
M  V30 1993 H 190.687 -2.62647 -1.39298 0
M  V30 1994 H 188.22 -1.41564 -0.616361 0
M  V30 1995 H 190.178 -1.73047 -3.72243 0
M  V30 1996 H 188.839 -0.78061 -3.04245 0
M  V30 1997 H 188.032 -2.90439 -4.11899 0
M  V30 1998 H 187.634 -2.88055 -2.38538 0
M  V30 1999 H 189.926 -4.34462 -5.19855 0
M  V30 2000 H 190.869 -5.59983 -4.33388 0
M  V30 2001 H 191.277 -3.8732 -4.10662 0
M  V30 2002 N 190.675 0.682077 -1.42076 0
M  V30 2003 C 191.952 1.43755 -1.32642 0
M  V30 2004 C 192.332 2.11063 0.0396611 0
M  V30 2005 O 191.68 2.02701 1.05474 0
M  V30 2006 C 191.89 2.44596 -2.48946 0
M  V30 2007 C 193.238 3.09454 -2.9073 0
M  V30 2008 O 194.262 2.54922 -2.48783 0
M  V30 2009 O 193.121 4.08253 -3.63307 0
M  V30 2010 H 190.215 0.640857 -0.522715 0
M  V30 2011 H 192.761 0.711415 -1.54068 0
M  V30 2012 H 191.533 1.93609 -3.40046 0
M  V30 2013 H 191.156 3.24701 -2.29467 0
M  V30 2014 N 192.153 1.28127 0.917671 0
M  V30 2015 C 193.401 1.14825 1.66312 0
M  V30 2016 C 193.722 -0.304379 1.9261 0
M  V30 2017 O 192.992 -1.21149 1.53947 0
M  V30 2018 H 191.572 0.421953 0.616413 0
M  V30 2019 H 194.234 1.608 1.10134 0
M  V30 2020 H 193.33 1.68489 2.62712 0
M  V30 2021 N 193.631 -1.12557 1.10312 0
M  V30 2022 C 194.88 -1.83395 0.839588 0
M  V30 2023 C 195.193 -1.84939 -0.636929 0
M  V30 2024 O 196.399 -2.51761 -1.01631 0
M  V30 2025 C 194.855 -3.29303 1.45215 0
M  V30 2026 C 194.463 -3.36122 2.96186 0
M  V30 2027 C 196.207 -4.05121 1.26796 0
M  V30 2028 C 194.114 -4.76357 3.50483 0
M  V30 2029 H 193.044 -0.687133 0.310425 0
M  V30 2030 H 195.695 -1.26746 1.32694 0
M  V30 2031 H 194.077 -3.85812 0.892469 0
M  V30 2032 H 195.251 -2.89559 3.58458 0
M  V30 2033 H 193.566 -2.73776 3.13745 0
M  V30 2034 H 196.163 -5.08668 1.64806 0
M  V30 2035 H 196.506 -4.15773 0.209409 0
M  V30 2036 H 197.039 -3.54967 1.79563 0
M  V30 2037 H 193.778 -4.70899 4.55998 0
M  V30 2038 H 193.298 -5.23377 2.92978 0
M  V30 2039 H 194.977 -5.45294 3.48228 0
M  V30 2040 N 195.109 -0.891671 -1.2995 0
M  V30 2041 C 196.056 -0.361736 -2.27948 0
M  V30 2042 C 197.026 0.551761 -1.56668 0
M  V30 2043 O 198.211 0.478736 -1.84696 0
M  V30 2044 C 195.351 0.411825 -3.42634 0
M  V30 2045 C 194.464 -0.531651 -4.28716 0
M  V30 2046 C 193.599 0.258167 -5.30572 0
M  V30 2047 C 192.638 -0.680349 -6.08307 0
M  V30 2048 N 191.775 0.0745613 -7.0206 0
M  V30 2049 H 196.615 -1.20254 -2.72659 0
M  V30 2050 H 194.152 -0.604352 -1.34112 0
M  V30 2051 H 196.11 0.876304 -4.07893 0
M  V30 2052 H 194.74 1.21715 -2.98974 0
M  V30 2053 H 193.792 -1.11463 -3.63703 0
M  V30 2054 H 195.104 -1.25038 -4.82874 0
M  V30 2055 H 194.258 0.784204 -6.0161 0
M  V30 2056 H 192.997 1.01008 -4.77126 0
M  V30 2057 H 192.002 -1.21796 -5.3614 0
M  V30 2058 H 193.227 -1.43145 -6.63842 0
M  V30 2059 H 191.173 0.808883 -6.50994 0
M  V30 2060 H 191.09 -0.584409 -7.53738 0
M  V30 2061 H 192.358 0.581123 -7.77331 0
M  V30 2062 N 196.587 1.43421 -0.653314 0
M  V30 2063 C 197.833 2.02641 -0.175593 0
M  V30 2064 C 198.188 1.5062 1.19713 0
M  V30 2065 O 197.481 0.689697 1.78756 0
M  V30 2066 C 197.675 3.57176 -0.126623 0
M  V30 2067 C 197.504 4.24191 -1.49306 0
M  V30 2068 C 196.274 4.60257 -2.08547 0
M  V30 2069 C 198.472 4.53193 -2.43148 0
M  V30 2070 N 196.454 5.12345 -3.38194 0
M  V30 2071 C 197.825 5.06601 -3.57429 0
M  V30 2072 C 199.88 4.35161 -2.41949 0
M  V30 2073 C 198.583 5.43875 -4.70736 0
M  V30 2074 C 200.609 4.73498 -3.54336 0
M  V30 2075 C 199.971 5.27039 -4.67343 0
M  V30 2076 H 196.07 0.77441 -0.108686 0
M  V30 2077 H 198.654 1.74596 -0.861638 0
M  V30 2078 H 196.825 3.84784 0.528766 0
M  V30 2079 H 198.557 4.03078 0.36198 0
M  V30 2080 H 195.312 4.45302 -1.61255 0
M  V30 2081 H 195.736 5.42842 -4.04538 0
M  V30 2082 H 200.378 3.9304 -1.55818 0
M  V30 2083 H 198.096 5.8494 -5.57558 0
M  V30 2084 H 201.682 4.61241 -3.5461 0
M  V30 2085 H 200.562 5.56153 -5.52868 0
M  V30 2086 N 198.065 0.39524 1.52563 0
M  V30 2087 C 199.028 -0.425001 2.25225 0
M  V30 2088 C 200.028 -0.985266 1.27079 0
M  V30 2089 O 201.218 -0.866332 1.5113 0
M  V30 2090 C 198.35 -1.59686 3.01186 0
M  V30 2091 H 199.543 0.211233 2.99155 0
M  V30 2092 H 197.096 0.147472 1.55603 0
M  V30 2093 H 197.831 -2.27035 2.31572 0
M  V30 2094 H 197.616 -1.20176 3.73229 0
M  V30 2095 H 199.106 -2.17743 3.5634 0
M  V30 2096 N 199.544 -1.57102 0.125237 0
M  V30 2097 C 200.492 -2.16905 -0.839927 0
M  V30 2098 C 201.486 -1.11998 -1.27094 0
M  V30 2099 O 202.692 -1.3029 -1.24195 0
M  V30 2100 H 199.067 -0.694252 -0.288995 0
M  V30 2101 H 201.038 -2.96774 -0.311115 0
M  V30 2102 C 199.787 -2.78795 -2.07771 0
M  V30 2103 H 199.11 -3.59221 -1.755 0
M  V30 2104 H 200.55 -3.2417 -2.73295 0
M  V30 2105 C 199.009 -1.76193 -2.87155 0
M  V30 2106 O 199.539 -1.21909 -3.82755 0
M  V30 2107 N 197.745 -1.45991 -2.51267 0
M  V30 2108 H 197.292 -1.90325 -1.73592 0
M  V30 2109 H 197.25 -0.775844 -3.04677 0
M  V30 2110 N 201.022 0.148545 -1.56898 0
M  V30 2111 C 202.299 0.890019 -1.74178 0
M  V30 2112 C 202.679 1.99407 -0.692839 0
M  V30 2113 O 202.027 2.26671 0.288505 0
M  V30 2114 C 202.237 1.43389 -3.18183 0
M  V30 2115 C 203.585 1.89791 -3.79822 0
M  V30 2116 O 204.609 1.53134 -3.21603 0
M  V30 2117 O 203.468 2.57387 -4.82093 0
M  V30 2118 H 200.562 0.420496 -0.712118 0
M  V30 2119 H 203.108 0.134591 -1.69165 0
M  V30 2120 H 201.88 0.640383 -3.86024 0
M  V30 2121 H 201.503 2.25287 -3.27615 0
M  V30 2122 N 202.5 1.5196 0.417844 0
M  V30 2123 C 203.73 1.69181 1.18581 0
M  V30 2124 C 204.138 0.397104 1.84986 0
M  V30 2125 O 203.481 -0.636011 1.72339 0
M  V30 2126 C 203.543 2.76497 2.29759 0
M  V30 2127 C 203.207 4.18514 1.83563 0
M  V30 2128 C 204.204 5.02648 1.32821 0
M  V30 2129 C 201.889 4.64708 1.90661 0
M  V30 2130 C 203.883 6.31044 0.897894 0
M  V30 2131 C 201.57 5.93096 1.47241 0
M  V30 2132 C 202.568 6.76093 0.968891 0
M  V30 2133 O 202.256 8.02078 0.540924 0
M  V30 2134 H 201.988 0.570457 0.362705 0
M  V30 2135 H 204.542 1.99249 0.498885 0
M  V30 2136 H 202.772 2.41786 3.01789 0
M  V30 2137 H 204.461 2.82403 2.91553 0
M  V30 2138 H 205.227 4.68154 1.26716 0
M  V30 2139 H 201.106 4.00216 2.28797 0
M  V30 2140 H 204.65 6.95776 0.504192 0
M  V30 2141 H 200.547 6.271 1.53022 0
M  V30 2142 H 201.315 8.15794 0.66502 0
M  V30 2143 N 203.978 -0.674533 1.42435 0
M  V30 2144 C 205.225 -1.43459 1.42919 0
M  V30 2145 C 205.553 -1.94446 0.0457312 0
M  V30 2146 O 204.808 -1.7132 -0.94593 0
M  V30 2147 C 205.107 -2.64767 2.40069 0
M  V30 2148 C 204.773 -2.3232 3.86443 0
M  V30 2149 C 203.435 -2.23182 4.26314 0
M  V30 2150 C 205.787 -2.05977 4.78773 0
M  V30 2151 C 203.115 -1.85827 5.56494 0
M  V30 2152 C 205.467 -1.70125 6.09295 0
M  V30 2153 C 204.131 -1.59498 6.48164 0
M  V30 2154 H 203.401 -0.524952 0.522978 0
M  V30 2155 H 206.048 -0.769097 1.75377 0
M  V30 2156 H 204.353 -3.36349 2.00939 0
M  V30 2157 H 206.05 -3.22949 2.37707 0
M  V30 2158 H 202.64 -2.40334 3.54877 0
M  V30 2159 H 206.824 -2.11969 4.48757 0
M  V30 2160 H 202.08 -1.76168 5.8547 0
M  V30 2161 H 206.254 -1.48767 6.80324 0
M  V30 2162 H 203.881 -1.30322 7.48946 0
M  V30 2163 N 205.456 -1.28612 -0.910864 0
M  V30 2164 C 206.705 -1.15311 -1.65488 0
M  V30 2165 C 207.018 0.296999 -1.93332 0
M  V30 2166 O 208.224 0.551168 -2.65847 0
M  V30 2167 C 206.68 -2.01599 -2.98137 0
M  V30 2168 C 206.288 -3.51367 -2.7793 0
M  V30 2169 C 208.032 -1.96993 -3.76024 0
M  V30 2170 C 205.939 -4.29797 -4.06237 0
M  V30 2171 H 204.869 -0.42796 -0.620779 0
M  V30 2172 H 207.52 -1.53166 -1.01057 0
M  V30 2173 H 205.902 -1.56603 -3.63719 0
M  V30 2174 H 207.076 -4.0434 -2.21011 0
M  V30 2175 H 205.391 -3.57529 -2.13452 0
M  V30 2176 H 207.988 -2.52856 -4.71135 0
M  V30 2177 H 208.331 -0.94733 -4.05378 0
M  V30 2178 H 208.864 -2.39973 -3.17266 0
M  V30 2179 H 205.603 -5.32648 -3.82055 0
M  V30 2180 H 205.123 -3.81596 -4.62757 0
M  V30 2181 H 206.802 -4.39869 -4.74473 0
M  V30 2182 N 206.934 1.1197 -1.10907 0
M  V30 2183 C 207.881 2.17846 -0.762345 0
M  V30 2184 C 208.851 1.63995 0.263599 0
M  V30 2185 O 210.036 1.90273 0.141773 0
M  V30 2186 C 207.176 3.44487 -0.205651 0
M  V30 2187 C 206.289 4.12369 -1.28748 0
M  V30 2188 C 205.424 5.26674 -0.691919 0
M  V30 2189 C 204.463 5.86431 -1.75399 0
M  V30 2190 N 203.6 6.92142 -1.17833 0
M  V30 2191 H 208.44 2.46851 -1.6694 0
M  V30 2192 H 205.977 1.21188 -0.833776 0
M  V30 2193 H 207.935 4.16981 0.135037 0
M  V30 2194 H 206.565 3.15884 0.664613 0
M  V30 2195 H 205.617 3.38003 -1.74522 0
M  V30 2196 H 206.929 4.52844 -2.09125 0
M  V30 2197 H 206.083 6.05953 -0.300963 0
M  V30 2198 H 204.822 4.8749 0.143232 0
M  V30 2199 H 203.827 5.05835 -2.15432 0
M  V30 2200 H 205.052 6.27685 -2.59208 0
M  V30 2201 H 202.998 6.54985 -0.364725 0
M  V30 2202 H 202.915 7.31242 -1.91887 0
M  V30 2203 H 204.183 7.75237 -0.81408 0
M  V30 2204 N 208.412 0.89855 1.29475 0
M  V30 2205 C 209.652 0.530771 1.97388 0
M  V30 2206 C 210.016 -0.905832 1.69289 0
M  V30 2207 O 211.217 -1.38042 2.30646 0
M  V30 2208 C 209.488 0.81369 3.48014 0
M  V30 2209 S 211.047 0.550048 4.35339 0
M  V30 2210 H 207.865 0.196956 0.683176 0
M  V30 2211 H 210.467 1.16074 1.57312 0
M  V30 2212 H 209.171 1.85749 3.65958 0
M  V30 2213 H 208.702 0.171795 3.93025 0
M  V30 2214 H 210.717 -0.605423 4.92493 0
M  V30 2215 N 209.89 -1.43072 0.660911 0
M  V30 2216 C 210.838 -2.32569 -0.0378199 0
M  V30 2217 C 211.832 -1.49046 -0.805092 0
M  V30 2218 O 213.038 -1.65206 -0.714624 0
M  V30 2219 H 209.413 -0.75136 -0.031019 0
M  V30 2220 H 211.384 -2.89216 0.734609 0
M  V30 2221 C 210.133 -3.33453 -0.985124 0
M  V30 2222 H 209.456 -3.97752 -0.404147 0
M  V30 2223 H 210.896 -3.98691 -1.44297 0
M  V30 2224 C 209.355 -2.64642 -2.08486 0
M  V30 2225 O 209.885 -2.46776 -3.16961 0
M  V30 2226 N 208.091 -2.23891 -1.8526 0
M  V30 2227 H 207.638 -2.38621 -0.970449 0
M  V30 2228 H 207.596 -1.78181 -2.59034 0
M  V30 2229 N 211.368 -0.403325 -1.52352 0
M  V30 2230 C 212.779 0.0675782 -1.86578 0
M  V30 2231 C 213.13 1.44941 -1.32236 0
M  V30 2232 O 212.255 2.06112 -0.659307 0
M  V30 2233 C 212.85 0.129404 -3.38553 0
M  V30 2234 C 211.409 0.544629 -3.72439 0
M  V30 2235 C 210.556 -0.284551 -2.75836 0
M  V30 2236 H 213.507 -0.620631 -1.46061 0
M  V30 2237 H 213.528 0.94581 -3.68558 0
M  V30 2238 H 213.04 -0.87645 -3.78074 0
M  V30 2239 H 211.141 1.55734 -3.38493 0
M  V30 2240 H 211.254 0.293046 -4.78203 0
M  V30 2241 H 209.618 0.252258 -2.53448 0
M  V30 2242 H 210.401 -1.28865 -3.18196 0
M  V30 2243 N 212.846 1.57033 -0.133567 0
M  V30 2244 C 214.074 2.00044 0.528195 0
M  V30 2245 C 214.489 1.01349 1.59291 0
M  V30 2246 O 213.846 0.00848369 1.82498 0
M  V30 2247 C 213.897 3.43018 1.1411 0
M  V30 2248 O 213.618 4.37939 0.11892 0
M  V30 2249 C 215.119 4.01237 1.88477 0
M  V30 2250 H 212.339 0.656517 0.138661 0
M  V30 2251 H 214.883 2.03267 -0.224196 0
M  V30 2252 H 213.038 3.40688 1.84418 0
M  V30 2253 H 213.452 5.21436 0.56613 0
M  V30 2254 H 214.926 5.03314 2.26669 0
M  V30 2255 H 215.403 3.41193 2.76558 0
M  V30 2256 H 216.009 4.07156 1.22898 0
M  V30 2257 N 214.325 -0.140222 1.56975 0
M  V30 2258 C 215.736 -0.699596 1.73097 0
M  V30 2259 C 216.087 -1.8134 0.749022 0
M  V30 2260 O 215.212 -2.16241 -0.0828503 0
M  V30 2261 C 215.807 -1.27582 3.1386 0
M  V30 2262 C 214.366 -1.78169 3.31561 0
M  V30 2263 C 213.513 -0.672855 2.69013 0
M  V30 2264 H 216.464 0.0855115 1.58469 0
M  V30 2265 H 216.485 -2.14561 3.14235 0
M  V30 2266 H 215.997 -0.464955 3.85305 0
M  V30 2267 H 214.098 -2.61801 2.65124 0
M  V30 2268 H 214.211 -1.90574 4.39566 0
M  V30 2269 H 212.575 -1.10118 2.29665 0
M  V30 2270 H 213.358 0.126679 3.43066 0
M  V30 2271 N 215.803 -1.52179 -0.40978 0
M  V30 2272 C 217.051 -1.65878 -1.15451 0
M  V30 2273 C 217.372 -0.390771 -1.91044 0
M  V30 2274 O 216.642 0.594323 -1.86667 0
M  V30 2275 H 215.222 -0.611405 -0.429177 0
M  V30 2276 H 217.884 -1.89219 -0.467134 0
M  V30 2277 H 216.98 -2.49954 -1.86894 0
M  V30 2278 N 217.281 0.66697 -1.42791 0
M  V30 2279 C 218.527 1.4291 -1.43891 0
M  V30 2280 C 218.86 1.94114 -0.0578972 0
M  V30 2281 O 218.135 1.71414 0.91911 0
M  V30 2282 C 218.418 2.62049 -2.46987 0
M  V30 2283 C 218.271 2.16426 -3.94309 0
M  V30 2284 C 219.59 3.64266 -2.46978 0
M  V30 2285 H 216.709 0.518306 -0.523954 0
M  V30 2286 H 219.351 0.757321 -1.74255 0
M  V30 2287 H 217.501 3.19361 -2.21225 0
M  V30 2288 H 219.173 1.64221 -4.31079 0
M  V30 2289 H 217.416 1.47925 -4.078 0
M  V30 2290 H 218.087 3.02038 -4.62036 0
M  V30 2291 H 220.563 3.16686 -2.69906 0
M  V30 2292 H 219.439 4.45196 -3.21079 0
M  V30 2293 H 219.7 4.15927 -1.49857 0
M  V30 2294 N 218.759 1.29093 0.90403 0
M  V30 2295 C 219.989 1.19516 1.68522 0
M  V30 2296 C 220.397 -0.24738 1.87576 0
M  V30 2297 O 219.74 -1.17798 1.40959 0
M  V30 2298 C 219.802 1.83249 3.0929 0
M  V30 2299 C 219.466 3.32531 3.13484 0
M  V30 2300 C 220.463 4.28821 2.93953 0
M  V30 2301 C 218.148 3.73656 3.35688 0
M  V30 2302 C 220.142 5.64212 2.96553 0
M  V30 2303 C 217.829 5.0917 3.37919 0
M  V30 2304 C 218.827 6.04258 3.18373 0
M  V30 2305 O 218.515 7.37298 3.20385 0
M  V30 2306 H 218.247 0.415467 0.533257 0
M  V30 2307 H 220.801 1.70912 1.13922 0
M  V30 2308 H 219.031 1.26358 3.65473 0
M  V30 2309 H 220.72 1.68054 3.69476 0
M  V30 2310 H 221.486 3.98382 2.76616 0
M  V30 2311 H 217.365 3.00101 3.49943 0
M  V30 2312 H 220.909 6.38407 2.81216 0
M  V30 2313 H 216.806 5.39256 3.54787 0
M  V30 2314 H 217.574 7.46048 3.36681 0
M  V30 2315 N 220.237 -1.11381 1.11499 0
M  V30 2316 C 221.467 -1.86663 0.885464 0
M  V30 2317 C 221.875 -1.80464 -0.568281 0
M  V30 2318 O 221.218 -1.18445 -1.40415 0
M  V30 2319 C 221.28 -3.36337 1.26956 0
M  V30 2320 C 220.944 -3.66304 2.73259 0
M  V30 2321 C 221.941 -3.63733 3.71476 0
M  V30 2322 C 219.626 -3.9529 3.09921 0
M  V30 2323 C 221.62 -3.89725 5.04374 0
M  V30 2324 C 219.307 -4.20941 4.43004 0
M  V30 2325 C 220.305 -4.18147 5.40039 0
M  V30 2326 O 219.993 -4.43153 6.70724 0
M  V30 2327 H 219.725 -0.597114 0.316908 0
M  V30 2328 H 222.279 -1.41782 1.48617 0
M  V30 2329 H 220.509 -3.81826 0.611999 0
M  V30 2330 H 222.198 -3.92986 1.01573 0
M  V30 2331 H 222.964 -3.41389 3.44498 0
M  V30 2332 H 218.843 -3.966 2.35009 0
M  V30 2333 H 222.387 -3.8746 5.80104 0
M  V30 2334 H 218.284 -4.42761 4.69716 0
M  V30 2335 H 219.052 -4.60717 6.76522 0
M  V30 2336 N 221.715 -0.905404 -1.28997 0
M  V30 2337 C 222.945 -0.549049 -1.99171 0
M  V30 2338 C 223.353 0.87203 -1.67906 0
M  V30 2339 O 222.696 1.58796 -0.923561 0
M  V30 2340 C 222.758 -0.668306 -3.53234 0
M  V30 2341 C 222.422 -2.0574 -4.08069 0
M  V30 2342 C 223.419 -3.0292 -4.22534 0
M  V30 2343 C 221.104 -2.36833 -4.42962 0
M  V30 2344 C 223.098 -4.29314 -4.71135 0
M  V30 2345 C 220.785 -3.63467 -4.91258 0
M  V30 2346 C 221.783 -4.59522 -5.053 0
M  V30 2347 O 221.471 -5.83907 -5.52546 0
M  V30 2348 H 221.203 -0.208784 -0.64295 0
M  V30 2349 H 223.757 -1.21836 -1.65363 0
M  V30 2350 H 221.987 0.0580547 -3.86656 0
M  V30 2351 H 223.676 -0.320273 -4.04634 0
M  V30 2352 H 224.442 -2.80216 -3.95859 0
M  V30 2353 H 220.321 -1.62824 -4.31288 0
M  V30 2354 H 223.865 -5.04293 -4.8201 0
M  V30 2355 H 219.762 -3.86 -5.17372 0
M  V30 2356 H 220.53 -5.86578 -5.70849 0
M  V30 2357 N 223.193 1.4272 -0.668489 0
M  V30 2358 C 224.125 2.2914 0.052613 0
M  V30 2359 C 225.138 1.43339 0.771857 0
M  V30 2360 O 226.327 1.67123 0.627067 0
M  V30 2361 C 223.427 3.20618 1.09804 0
M  V30 2362 C 222.6 4.35039 0.45389 0
M  V30 2363 C 221.659 5.07282 1.39825 0
M  V30 2364 O 220.685 5.62024 0.900978 0
M  V30 2365 N 221.887 5.12206 2.73176 0
M  V30 2366 H 224.652 2.91668 -0.689209 0
M  V30 2367 H 222.213 1.53577 -0.512422 0
M  V30 2368 H 224.205 3.65815 1.73094 0
M  V30 2369 H 222.775 2.59585 1.74167 0
M  V30 2370 H 221.995 3.92567 -0.358396 0
M  V30 2371 H 223.283 5.088 0.00486972 0
M  V30 2372 H 222.681 4.6913 3.16122 0
M  V30 2373 H 221.238 5.61069 3.31729 0
M  V30 2374 N 224.671 0.411399 1.52136 0
M  V30 2375 C 225.917 -0.163888 2.02137 0
M  V30 2376 C 226.25 -1.44597 1.29636 0
M  V30 2377 O 225.525 -1.90272 0.403353 0
M  V30 2378 C 225.808 -0.40927 3.57767 0
M  V30 2379 C 225.661 0.889643 4.40914 0
M  V30 2380 C 226.98 -1.19042 4.23694 0
M  V30 2381 H 224.099 -0.0580896 0.734707 0
M  V30 2382 H 226.741 0.54531 1.82007 0
M  V30 2383 H 224.891 -1.0134 3.7505 0
M  V30 2384 H 226.563 1.52575 4.35337 0
M  V30 2385 H 224.806 1.50011 4.07037 0
M  V30 2386 H 225.477 0.672314 5.4789 0
M  V30 2387 H 227.953 -0.678942 4.10524 0
M  V30 2388 H 226.829 -1.33086 5.32522 0
M  V30 2389 H 227.09 -2.21166 3.82803 0
M  V30 2390 N 226.149 -1.5696 0.141893 0
M  V30 2391 C 227.397 -1.95573 -0.509484 0
M  V30 2392 C 227.718 -1.02746 -1.65736 0
M  V30 2393 O 226.988 -0.0880311 -1.95702 0
M  V30 2394 H 225.568 -0.722115 -0.191205 0
M  V30 2395 H 228.23 -1.93697 0.216196 0
M  V30 2396 H 227.326 -2.99171 -0.889 0
M  V30 2397 N 227.627 0.131896 -1.57047 0
M  V30 2398 C 228.904 0.871495 -1.75112 0
M  V30 2399 C 229.284 1.9866 -0.713949 0
M  V30 2400 O 228.632 2.26965 0.264447 0
M  V30 2401 C 228.842 1.40007 -3.19686 0
M  V30 2402 C 230.19 1.85752 -3.81813 0
M  V30 2403 O 231.214 1.49715 -3.23209 0
M  V30 2404 O 230.073 2.5226 -4.84796 0
M  V30 2405 H 227.167 0.412919 -0.716538 0
M  V30 2406 H 229.713 0.116641 -1.69299 0
M  V30 2407 H 228.485 0.599404 -3.86682 0
M  V30 2408 H 228.108 2.218 -3.29986 0
M  V30 2409 N 229.106 1.52395 0.401703 0
M  V30 2410 C 230.354 1.66488 1.14569 0
M  V30 2411 C 230.675 0.400897 1.90835 0
M  V30 2412 O 229.945 -0.584415 1.8698 0
M  V30 2413 H 228.525 0.613672 0.425929 0
M  V30 2414 H 231.187 1.89464 0.457093 0
M  V30 2415 H 230.283 2.50942 1.85566 0
M  V30 2416 N 230.584 -0.659388 1.43143 0
M  V30 2417 C 231.832 -1.41654 1.44147 0
M  V30 2418 C 232.153 -1.94893 0.0645739 0
M  V30 2419 O 231.423 -1.74044 -0.899198 0
M  V30 2420 H 230.003 -0.525708 0.530697 0
M  V30 2421 H 232.665 -0.778097 1.78694 0
M  V30 2422 H 231.761 -2.26195 2.1504 0
M  V30 2423 N 232.062 -1.29571 -0.897171 0
M  V30 2424 C 233.009 -1.14916 -2.00158 0
M  V30 2425 C 233.979 -0.0418149 -1.66047 0
M  V30 2426 O 235.164 -0.209793 -1.89643 0
M  V30 2427 C 232.304 -0.834307 -3.34863 0
M  V30 2428 C 231.417 -2.02234 -3.8174 0
M  V30 2429 C 230.552 -1.64664 -5.05034 0
M  V30 2430 C 229.591 -2.80033 -5.44286 0
M  V30 2431 N 228.728 -2.42843 -6.58765 0
M  V30 2432 H 233.568 -2.09403 -2.12025 0
M  V30 2433 H 231.105 -1.042 -1.0383 0
M  V30 2434 H 233.063 -0.632436 -4.12379 0
M  V30 2435 H 231.693 0.0736656 -3.22716 0
M  V30 2436 H 230.745 -2.33583 -3.00238 0
M  V30 2437 H 232.057 -2.88673 -4.06779 0
M  V30 2438 H 231.211 -1.4078 -5.9014 0
M  V30 2439 H 229.95 -0.753766 -4.8184 0
M  V30 2440 H 228.955 -3.04596 -4.57713 0
M  V30 2441 H 230.18 -3.69989 -5.6946 0
M  V30 2442 H 228.126 -1.56046 -6.3717 0
M  V30 2443 H 228.043 -3.22815 -6.83613 0
M  V30 2444 H 229.311 -2.22285 -7.47134 0
M  V30 2445 N 233.54 1.10788 -1.12088 0
M  V30 2446 C 234.817 1.79136 -0.785476 0
M  V30 2447 C 235.197 1.98246 0.725377 0
M  V30 2448 O 234.545 1.57258 1.65778 0
M  V30 2449 C 234.755 3.12375 -1.55636 0
M  V30 2450 C 236.103 3.8731 -1.74001 0
M  V30 2451 O 237.127 3.22085 -1.52117 0
M  V30 2452 O 235.986 5.04369 -2.10415 0
M  V30 2453 H 233.08 0.776226 -0.285311 0
M  V30 2454 H 235.626 1.1747 -1.2247 0
M  V30 2455 H 234.398 2.93863 -2.5838 0
M  V30 2456 H 234.021 3.81758 -1.11114 0
M  V30 2457 N 235.018 0.912232 1.28515 0
M  V30 2458 C 235.968 0.370649 2.24967 0
M  V30 2459 C 236.952 -0.516375 1.52389 0
M  V30 2460 O 238.144 -0.356345 1.73376 0
M  V30 2461 C 235.273 -0.389526 3.41083 0
M  V30 2462 C 234.359 0.51313 4.20984 0
M  V30 2463 N 234.75 1.62604 4.78951 0
M  V30 2464 C 233.048 0.313235 4.44899 0
M  V30 2465 C 233.749 2.18619 5.39055 0
M  V30 2466 N 232.725 1.47765 5.23132 0
M  V30 2467 H 236.527 1.22061 2.67354 0
M  V30 2468 H 234.041 0.764712 1.43269 0
M  V30 2469 H 236.038 -0.794353 4.09262 0
M  V30 2470 H 234.698 -1.2366 3.0023 0
M  V30 2471 H 235.709 2.00864 4.77362 0
M  V30 2472 H 232.386 -0.494452 4.14562 0
M  V30 2473 H 233.776 3.12228 5.94948 0
M  V30 2474 N 236.496 -1.42363 0.676048 0
M  V30 2475 C 237.721 -2.06377 0.205705 0
M  V30 2476 C 238.146 -1.50463 -1.12883 0
M  V30 2477 O 237.504 -0.623619 -1.70237 0
M  V30 2478 C 237.552 -3.60277 0.152655 0
M  V30 2479 O 236.656 -4.02935 -0.87845 0
M  V30 2480 H 235.997 -0.655588 0.105359 0
M  V30 2481 H 238.527 -1.82475 0.925412 0
M  V30 2482 H 238.537 -4.07993 -0.0230675 0
M  V30 2483 H 237.212 -4.00346 1.12675 0
M  V30 2484 H 235.789 -3.66764 -0.673668 0
M  V30 2485 N 237.974 -0.419461 -1.51915 0
M  V30 2486 C 239.22 0.145505 -2.02879 0
M  V30 2487 C 239.575 1.41926 -1.29903 0
M  V30 2488 O 238.868 1.87383 -0.399782 0
M  V30 2489 C 239.062 0.437067 -3.54717 0
M  V30 2490 C 238.891 -0.806877 -4.42402 0
M  V30 2491 C 237.661 -1.33514 -4.87342 0
M  V30 2492 C 239.859 -1.68796 -4.85811 0
M  V30 2493 N 237.841 -2.53349 -5.59185 0
M  V30 2494 C 239.212 -2.73247 -5.56539 0
M  V30 2495 C 241.267 -1.70449 -4.67816 0
M  V30 2496 C 239.97 -3.79276 -6.11181 0
M  V30 2497 C 241.996 -2.75403 -5.23361 0
M  V30 2498 C 241.358 -3.78575 -5.9402 0
M  V30 2499 H 237.457 0.0145424 -0.781865 0
M  V30 2500 H 240.041 -0.576126 -1.85981 0
M  V30 2501 H 238.212 1.12774 -3.71667 0
M  V30 2502 H 239.944 0.99182 -3.92358 0
M  V30 2503 H 236.699 -0.891657 -4.65131 0
M  V30 2504 H 237.123 -3.14066 -5.99743 0
M  V30 2505 H 241.765 -0.920209 -4.12664 0
M  V30 2506 H 239.483 -4.58554 -6.65397 0
M  V30 2507 H 243.069 -2.77603 -5.113 0
M  V30 2508 H 241.949 -4.58453 -6.36231 0
M  V30 2509 N 239.452 1.56882 -0.150215 0
M  V30 2510 C 240.698 1.97299 0.494427 0
M  V30 2511 C 241.053 1.0338 1.62266 0
M  V30 2512 O 240.346 0.0694497 1.91474 0
M  V30 2513 C 240.54 3.41801 1.04437 0
M  V30 2514 C 240.369 4.49691 -0.0290451 0
M  V30 2515 C 239.139 5.03095 -0.47156 0
M  V30 2516 C 241.337 5.07693 -0.821703 0
M  V30 2517 N 239.319 5.94593 -1.52749 0
M  V30 2518 C 240.69 5.95431 -1.72805 0
M  V30 2519 C 242.745 4.90256 -0.869134 0
M  V30 2520 C 241.448 6.67599 -2.67777 0
M  V30 2521 C 243.474 5.63127 -1.8067 0
M  V30 2522 C 242.836 6.50576 -2.70057 0
M  V30 2523 H 238.935 0.76755 0.149639 0
M  V30 2524 H 241.519 1.93145 -0.24556 0
M  V30 2525 H 239.69 3.46541 1.75396 0
M  V30 2526 H 241.422 3.69272 1.6559 0
M  V30 2527 H 238.177 4.73543 -0.0732101 0
M  V30 2528 H 238.601 6.45047 -2.05531 0
M  V30 2529 H 243.243 4.22363 -0.192134 0
M  V30 2530 H 240.961 7.34717 -3.36476 0
M  V30 2531 H 244.547 5.51629 -1.84924 0
M  V30 2532 H 243.427 7.05974 -3.41424 0
M  V30 2533 N 240.93 -0.123565 1.57115 0
M  V30 2534 C 242.178 -0.83051 1.84247 0
M  V30 2535 C 242.499 -1.80629 0.73471 0
M  V30 2536 O 241.769 -1.94403 -0.241688 0
M  V30 2537 H 240.349 -0.309694 0.679778 0
M  V30 2538 H 243.011 -0.111976 1.94578 0
M  V30 2539 H 242.107 -1.37852 2.80006 0
M  V30 2540 N 242.408 -1.52605 -0.393616 0
M  V30 2541 C 243.819 -1.59417 -0.971761 0
M  V30 2542 C 244.17 -0.444173 -1.91106 0
M  V30 2543 O 243.295 0.433382 -2.12016 0
M  V30 2544 C 243.89 -2.88936 -1.76921 0
M  V30 2545 C 242.449 -2.98175 -2.29714 0
M  V30 2546 C 241.596 -2.54491 -1.10135 0
M  V30 2547 H 244.547 -1.57751 -0.173317 0
M  V30 2548 H 244.568 -2.75163 -2.62804 0
M  V30 2549 H 244.08 -3.72616 -1.08532 0
M  V30 2550 H 242.181 -2.19024 -3.01429 0
M  V30 2551 H 242.294 -4.02726 -2.59517 0
M  V30 2552 H 240.658 -2.08702 -1.45999 0
M  V30 2553 H 241.441 -3.4056 -0.432874 0
M  V30 2554 N 243.887 0.651787 -1.4349 0
M  V30 2555 C 244.85 1.74647 -1.48429 0
M  V30 2556 C 245.85 1.56513 -0.368817 0
M  V30 2557 O 247.04 1.62385 -0.630623 0
M  V30 2558 C 244.172 3.13533 -1.33827 0
M  V30 2559 H 245.365 1.71649 -2.4592 0
M  V30 2560 H 242.918 0.863573 -1.30277 0
M  V30 2561 H 243.653 3.22142 -0.37349 0
M  V30 2562 H 243.438 3.28101 -2.14691 0
M  V30 2563 H 244.928 3.93356 -1.40218 0
M  V30 2564 N 245.365 1.30045 0.890287 0
M  V30 2565 C 246.275 1.17885 2.02831 0
M  V30 2566 C 247.291 0.0999609 1.73713 0
M  V30 2567 O 248.467 0.313867 1.98939 0
M  V30 2568 C 245.532 0.866079 3.35708 0
M  V30 2569 C 244.593 2.02979 3.78283 0
M  V30 2570 C 243.826 1.73184 5.0482 0
M  V30 2571 O 244.049 0.657237 5.66601 0
M  V30 2572 O 242.983 2.58267 5.43674 0
M  V30 2573 H 246.809 2.13474 2.16015 0
M  V30 2574 H 244.394 1.09587 1.01543 0
M  V30 2575 H 246.276 0.706623 4.15433 0
M  V30 2576 H 244.951 -0.0599443 3.23644 0
M  V30 2577 H 243.858 2.24454 2.99285 0
M  V30 2578 H 245.191 2.93734 3.94944 0
M  V30 2579 N 246.843 -1.10192 1.12674 0
M  V30 2580 C 248.089 -1.82475 0.884915 0
M  V30 2581 C 248.422 -1.85093 -0.58773 0
M  V30 2582 O 247.697 -1.3134 -1.43457 0
M  V30 2583 C 247.98 -3.29018 1.46353 0
M  V30 2584 C 247.833 -3.34718 3.00473 0
M  V30 2585 C 249.152 -4.25473 1.12519 0
M  V30 2586 H 246.271 -0.662492 0.322915 0
M  V30 2587 H 248.913 -1.2913 1.39375 0
M  V30 2588 H 247.063 -3.74576 1.03077 0
M  V30 2589 H 248.735 -2.97622 3.52447 0
M  V30 2590 H 246.978 -2.74541 3.35872 0
M  V30 2591 H 247.649 -4.37918 3.36053 0
M  V30 2592 H 250.125 -3.88161 1.499 0
M  V30 2593 H 249.001 -5.26365 1.55663 0
M  V30 2594 H 249.262 -4.42084 0.0377407 0
M  V30 2595 N 248.321 -0.919034 -1.28029 0
M  V30 2596 C 249.254 -0.355887 -2.25408 0
M  V30 2597 C 250.232 0.542874 -1.5327 0
M  V30 2598 O 251.416 0.485338 -1.82145 0
M  V30 2599 C 248.543 0.490759 -3.35126 0
M  V30 2600 C 247.589 -0.343358 -4.25116 0
M  V30 2601 S 248.422 -1.75344 -5.05979 0
M  V30 2602 C 249.578 -0.914244 -6.19187 0
M  V30 2603 H 249.811 -1.18123 -2.72826 0
M  V30 2604 H 247.344 -0.720636 -1.36551 0
M  V30 2605 H 249.302 0.973404 -3.98792 0
M  V30 2606 H 247.963 1.29054 -2.86363 0
M  V30 2607 H 247.156 0.304266 -5.03081 0
M  V30 2608 H 246.758 -0.759851 -3.662 0
M  V30 2609 H 249.05 -0.146282 -6.77342 0
M  V30 2610 H 249.993 -1.66661 -6.88208 0
M  V30 2611 H 250.401 -0.460082 -5.62622 0
M  V30 2612 N 249.799 1.42003 -0.683588 0
M  V30 2613 C 250.731 2.29183 0.0283068 0
M  V30 2614 C 251.744 1.4415 0.756611 0
M  V30 2615 O 252.933 1.67779 0.609306 0
M  V30 2616 C 250.033 3.21765 1.06398 0
M  V30 2617 C 249.206 4.35496 0.407723 0
M  V30 2618 C 248.265 5.08737 1.34437 0
M  V30 2619 O 247.291 5.62948 0.841318 0
M  V30 2620 N 248.493 5.15075 2.67728 0
M  V30 2621 H 251.258 2.9092 -0.720105 0
M  V30 2622 H 248.819 1.53025 -0.528682 0
M  V30 2623 H 250.811 3.6763 1.69204 0
M  V30 2624 H 249.381 2.61418 1.71404 0
M  V30 2625 H 248.601 3.92165 -0.400012 0
M  V30 2626 H 249.889 5.08776 -0.0490956 0
M  V30 2627 H 249.287 4.72457 3.11129 0
M  V30 2628 H 247.844 5.64556 3.2576 0
M  V30 2629 N 251.277 0.427512 1.51691 0
M  V30 2630 C 252.21 -0.433876 2.24037 0
M  V30 2631 C 253.188 -1.03287 1.25581 0
M  V30 2632 O 254.372 -1.07722 1.54688 0
M  V30 2633 C 251.499 -1.60385 2.98319 0
M  V30 2634 C 250.545 -1.12648 4.11355 0
M  V30 2635 S 251.378 -0.076543 5.35445 0
M  V30 2636 C 252.534 -1.25141 6.13262 0
M  V30 2637 H 252.767 0.180367 2.96752 0
M  V30 2638 H 250.3 0.211946 1.52938 0
M  V30 2639 H 252.258 -2.27462 3.41718 0
M  V30 2640 H 250.919 -2.18948 2.25213 0
M  V30 2641 H 250.112 -2.0011 4.62571 0
M  V30 2642 H 249.714 -0.534088 3.70167 0
M  V30 2643 H 252.006 -2.17162 6.41753 0
M  V30 2644 H 252.949 -0.779411 7.03797 0
M  V30 2645 H 253.357 -1.48553 5.44603 0
M  V30 2646 N 252.755 -1.56801 0.158532 0
M  V30 2647 C 253.665 -2.20916 -0.789518 0
M  V30 2648 C 254.681 -1.1969 -1.26294 0
M  V30 2649 O 255.857 -1.52308 -1.31773 0
M  V30 2650 C 252.922 -2.82727 -2.00665 0
M  V30 2651 C 251.983 -3.99114 -1.58134 0
M  V30 2652 C 251.216 -4.57968 -2.74045 0
M  V30 2653 O 251.439 -4.15704 -3.90572 0
M  V30 2654 O 250.373 -5.48047 -2.48855 0
M  V30 2655 H 254.199 -3.02464 -0.273681 0
M  V30 2656 H 251.784 -1.4924 -0.0690548 0
M  V30 2657 H 253.666 -3.21968 -2.71872 0
M  V30 2658 H 252.341 -2.04184 -2.51179 0
M  V30 2659 H 251.248 -3.64567 -0.839155 0
M  V30 2660 H 252.581 -4.79212 -1.12325 0
M  V30 2661 N 254.233 0.115231 -1.57178 0
M  V30 2662 C 255.649 0.468877 -1.52557 0
M  V30 2663 C 255.849 1.81649 -0.872125 0
M  V30 2664 O 254.905 2.48347 -0.45606 0
M  V30 2665 C 256.218 0.4499 -2.97315 0
M  V30 2666 C 257.766 0.533185 -3.08425 0
M  V30 2667 C 258.241 0.54456 -4.54751 0
M  V30 2668 N 259.732 0.605892 -4.5922 0
M  V30 2669 C 260.467 0.636203 -5.6986 0
M  V30 2670 N 259.963 0.623931 -6.89985 0
M  V30 2671 N 261.756 0.679496 -5.57978 0
M  V30 2672 H 253.907 -0.767712 -1.9804 0
M  V30 2673 H 256.17 -0.283609 -0.904583 0
M  V30 2674 H 255.876 -0.472721 -3.48509 0
M  V30 2675 H 255.75 1.27632 -3.5495 0
M  V30 2676 H 258.137 1.44623 -2.57232 0
M  V30 2677 H 258.218 -0.320995 -2.53778 0
M  V30 2678 H 257.862 -0.364452 -5.06591 0
M  V30 2679 H 257.792 1.41568 -5.07214 0
M  V30 2680 H 260.283 0.621386 -3.72756 0
M  V30 2681 H 260.596 0.649787 -7.70063 0
M  V30 2682 H 258.941 0.591296 -6.9248 0
M  V30 2683 H 262.132 0.686472 -4.63039 0
M  V30 2684 H 262.305 0.69965 -6.44212 0
M  V30 2685 N 255.711 1.52812 0.385517 0
M  V30 2686 C 257.122 1.5993 0.963293 0
M  V30 2687 C 257.473 0.454302 1.90868 0
M  V30 2688 O 256.598 -0.422132 2.12243 0
M  V30 2689 C 257.193 2.89871 1.75387 0
M  V30 2690 C 255.752 2.99389 2.28129 0
M  V30 2691 C 254.899 2.55071 1.08783 0
M  V30 2692 H 257.85 1.5784 0.164948 0
M  V30 2693 H 257.871 2.76553 2.61341 0
M  V30 2694 H 257.383 3.73186 1.06554 0
M  V30 2695 H 255.484 2.20619 3.00263 0
M  V30 2696 H 255.597 4.04096 2.57377 0
M  V30 2697 H 253.961 2.09473 1.4489 0
M  V30 2698 H 254.744 3.40785 0.414807 0
M  V30 2699 N 257.189 -0.644168 1.43834 0
M  V30 2700 C 258.414 -1.43642 1.49605 0
M  V30 2701 C 258.839 -1.8773 0.117913 0
M  V30 2702 O 258.197 -1.57938 -0.890239 0
M  V30 2703 C 258.245 -2.6416 2.45463 0
M  V30 2704 O 257.349 -3.63538 1.94714 0
M  V30 2705 H 256.69 -0.430329 0.50568 0
M  V30 2706 H 259.22 -0.787448 1.8884 0
M  V30 2707 H 259.23 -3.11864 2.63068 0
M  V30 2708 H 257.905 -2.31414 3.45572 0
M  V30 2709 H 256.482 -3.2273 1.86814 0
M  V30 2710 N 258.668 -1.30515 -0.883378 0
M  V30 2711 C 259.915 -1.1943 -1.63532 0
M  V30 2712 C 260.243 0.250627 -1.92878 0
M  V30 2713 O 259.498 1.19556 -1.54935 0
M  V30 2714 C 259.797 -1.96994 -2.98209 0
M  V30 2715 C 259.463 -3.466 -2.88408 0
M  V30 2716 C 258.125 -3.87397 -2.85442 0
M  V30 2717 C 260.477 -4.41863 -2.76418 0
M  V30 2718 C 257.805 -5.21745 -2.68327 0
M  V30 2719 C 260.157 -5.7632 -2.60841 0
M  V30 2720 C 258.821 -6.16354 -2.56251 0
M  V30 2721 H 258.091 -0.437025 -0.598406 0
M  V30 2722 H 260.738 -1.61635 -1.02696 0
M  V30 2723 H 259.043 -1.47429 -3.63004 0
M  V30 2724 H 260.74 -1.85808 -3.55354 0
M  V30 2725 H 257.33 -3.14182 -2.91527 0
M  V30 2726 H 261.514 -4.11285 -2.77775 0
M  V30 2727 H 256.77 -5.51853 -2.63189 0
M  V30 2728 H 260.944 -6.49772 -2.50538 0
M  V30 2729 H 258.571 -7.20401 -2.42748 0
M  V30 2730 N 260.146 1.09593 -1.13257 0
M  V30 2731 C 261.093 2.1618 -0.808381 0
M  V30 2732 C 262.063 1.64517 0.228754 0
M  V30 2733 O 263.248 1.9053 0.101381 0
M  V30 2734 C 260.388 3.43973 -0.278675 0
M  V30 2735 C 259.501 4.09545 -1.37466 0
M  V30 2736 C 258.636 5.25088 -0.803479 0
M  V30 2737 C 257.675 5.82579 -1.87799 0
M  V30 2738 N 256.812 6.89486 -1.32488 0
M  V30 2739 H 261.652 2.43254 -1.72138 0
M  V30 2740 H 259.189 1.19392 -0.859294 0
M  V30 2741 H 261.147 4.17174 0.0465583 0
M  V30 2742 H 259.777 3.17223 0.597459 0
M  V30 2743 H 258.829 3.34226 -1.81652 0
M  V30 2744 H 260.141 4.48307 -2.18684 0
M  V30 2745 H 259.295 6.05178 -0.429427 0
M  V30 2746 H 258.034 4.87684 0.0397956 0
M  V30 2747 H 257.039 5.01152 -2.26113 0
M  V30 2748 H 258.264 6.22045 -2.72463 0
M  V30 2749 H 256.21 6.54064 -0.503575 0
M  V30 2750 H 256.127 7.27007 -2.07355 0
M  V30 2751 H 257.395 7.73336 -0.978336 0
M  V30 2752 N 261.624 0.925811 1.2754 0
M  V30 2753 C 262.87 0.566092 1.94739 0
M  V30 2754 C 263.203 -0.890057 1.72603 0
M  V30 2755 O 262.478 -1.63467 1.05399 0
M  V30 2756 C 262.761 0.89054 3.48915 0
M  V30 2757 C 262.614 2.4003 3.80402 0
M  V30 2758 C 263.933 0.395101 4.38323 0
M  V30 2759 H 261.052 0.20714 0.707292 0
M  V30 2760 H 263.694 1.15725 1.50691 0
M  V30 2761 H 261.844 0.387452 3.86563 0
M  V30 2762 H 263.516 2.97494 3.52555 0
M  V30 2763 H 261.759 2.85028 3.2702 0
M  V30 2764 H 262.43 2.57785 4.8811 0
M  V30 2765 H 264.906 0.826241 4.07814 0
M  V30 2766 H 263.782 0.651086 5.45025 0
M  V30 2767 H 264.043 -0.704798 4.36446 0
M  V30 2768 N 263.102 -1.41638 0.69111 0
M  V30 2769 C 264.379 -1.95036 0.148421 0
M  V30 2770 C 264.759 -1.63072 -1.34055 0
M  V30 2771 O 264.107 -0.93538 -2.08478 0
M  V30 2772 C 264.317 -3.46279 0.434951 0
M  V30 2773 C 265.665 -4.23069 0.360275 0
M  V30 2774 O 266.689 -3.54277 0.369613 0
M  V30 2775 O 265.548 -5.45583 0.316534 0
M  V30 2776 H 262.642 -0.826908 0.0123654 0
M  V30 2777 H 265.188 -1.5138 0.766963 0
M  V30 2778 H 263.96 -3.6281 1.46576 0
M  V30 2779 H 263.583 -3.97019 -0.214787 0
M  V30 2780 N 264.58 -0.43555 -1.51462 0
M  V30 2781 C 265.543 0.365137 -2.26273 0
M  V30 2782 C 266.543 0.951227 -1.29647 0
M  V30 2783 O 267.733 0.825958 -1.53374 0
M  V30 2784 C 264.865 1.51645 -3.05314 0
M  V30 2785 H 266.058 -0.290474 -2.9849 0
M  V30 2786 H 263.611 -0.188676 -1.55157 0
M  V30 2787 H 264.346 2.20816 -2.3751 0
M  V30 2788 H 264.131 1.10238 -3.76284 0
M  V30 2789 H 265.621 2.08218 -3.61987 0
M  V30 2790 N 266.058 1.56714 -0.166846 0
M  V30 2791 C 267.283 2.01557 0.488833 0
M  V30 2792 C 267.708 1.0463 1.56314 0
M  V30 2793 O 267.066 0.0251304 1.81283 0
M  V30 2794 C 267.114 3.4503 1.04818 0
M  V30 2795 O 266.218 3.51163 2.16236 0
M  V30 2796 H 265.559 0.653516 0.117526 0
M  V30 2797 H 268.089 2.02818 -0.269421 0
M  V30 2798 H 268.099 3.84243 1.37191 0
M  V30 2799 H 266.774 4.15077 0.261572 0
M  V30 2800 H 265.351 3.23807 1.84942 0
M  V30 2801 N 267.536 -0.106894 1.57237 0
M  V30 2802 C 268.483 -1.13049 2.01217 0
M  V30 2803 C 269.453 -1.40471 0.886403 0
M  V30 2804 O 270.638 -1.52133 1.15153 0
M  V30 2805 C 267.778 -2.4487 2.43172 0
M  V30 2806 C 266.891 -2.24281 3.69218 0
M  V30 2807 C 266.026 -3.49417 4.00101 0
M  V30 2808 C 265.065 -3.24038 5.19294 0
M  V30 2809 N 264.202 -4.41409 5.45988 0
M  V30 2810 H 269.042 -0.748456 2.88448 0
M  V30 2811 H 266.579 -0.358054 1.42676 0
M  V30 2812 H 268.537 -3.21786 2.65537 0
M  V30 2813 H 267.167 -2.80944 1.58967 0
M  V30 2814 H 266.219 -1.38224 3.54398 0
M  V30 2815 H 267.531 -2.01512 4.56283 0
M  V30 2816 H 266.685 -4.34746 4.2318 0
M  V30 2817 H 265.424 -3.75229 3.11535 0
M  V30 2818 H 264.429 -2.37102 4.96047 0
M  V30 2819 H 265.654 -2.99584 6.09447 0
M  V30 2820 H 263.6 -4.67319 4.60379 0
M  V30 2821 H 263.517 -4.21788 6.274 0
M  V30 2822 H 264.785 -5.27836 5.73593 0
M  V30 2823 N 269.014 -1.53014 -0.377408 0
M  V30 2824 C 270.425 -1.60438 -0.954798 0
M  V30 2825 C 270.776 -0.464418 -1.90624 0
M  V30 2826 O 269.901 0.41087 -2.12464 0
M  V30 2827 C 270.496 -2.90797 -1.73847 0
M  V30 2828 C 269.055 -3.00595 -2.26538 0
M  V30 2829 C 268.202 -2.55645 -1.07429 0
M  V30 2830 H 271.153 -1.57926 -0.156575 0
M  V30 2831 H 271.174 -2.77935 -2.5987 0
M  V30 2832 H 270.686 -3.73746 -1.04574 0
M  V30 2833 H 268.787 -2.22208 -2.99089 0
M  V30 2834 H 268.9 -4.05456 -2.5523 0
M  V30 2835 H 267.264 -2.10239 -1.43777 0
M  V30 2836 H 268.047 -3.41 -0.396728 0
M  V30 2837 N 270.492 0.636531 -1.44174 0
M  V30 2838 C 271.74 1.39343 -1.46383 0
M  V30 2839 C 272.061 1.94766 -0.0955715 0
M  V30 2840 O 271.331 1.75452 0.871395 0
M  V30 2841 H 269.911 0.517199 -0.538994 0
M  V30 2842 H 272.573 0.74957 -1.7991 0
M  V30 2843 H 271.669 2.22746 -2.18611 0
M  V30 2844 N 271.97 1.30982 0.876444 0
M  V30 2845 C 273.195 1.23373 1.66715 0
M  V30 2846 C 273.62 -0.19885 1.87046 0
M  V30 2847 O 272.978 -1.1427 1.40756 0
M  V30 2848 C 273.026 1.97644 3.01611 0
M  V30 2849 O 272.13 1.30935 3.91062 0
M  V30 2850 H 271.471 0.426279 0.509099 0
M  V30 2851 H 274.001 1.72944 1.09323 0
M  V30 2852 H 274.011 2.06992 3.51594 0
M  V30 2853 H 272.686 3.01829 2.86133 0
M  V30 2854 H 271.263 1.29996 3.49507 0
M  V30 2855 N 273.449 -1.08991 1.13837 0
M  V30 2856 C 274.412 -2.13925 0.822715 0
M  V30 2857 C 275.412 -1.599 -0.1699 0
M  V30 2858 O 276.602 -1.74104 0.0577251 0
M  V30 2859 C 273.734 -3.40155 0.225318 0
M  V30 2860 H 274.927 -2.43358 1.75262 0
M  V30 2861 H 272.48 -1.24603 0.943594 0
M  V30 2862 H 273.215 -3.16352 -0.713594 0
M  V30 2863 H 273 -3.80661 0.940193 0
M  V30 2864 H 274.49 -4.17594 0.0214784 0
M  V30 2865 N 274.927 -0.932562 -1.27047 0
M  V30 2866 C 276.173 -0.576412 -1.94436 0
M  V30 2867 C 276.506 0.880891 -1.73072 0
M  V30 2868 O 275.781 1.62905 -1.06264 0
M  V30 2869 C 276.064 -0.909031 -3.48437 0
M  V30 2870 C 275.917 -2.42044 -3.79123 0
M  V30 2871 C 277.236 -0.418341 -4.38107 0
M  V30 2872 H 274.355 -0.210888 -0.706184 0
M  V30 2873 H 276.997 -1.16522 -1.50075 0
M  V30 2874 H 275.147 -0.407947 -3.86352 0
M  V30 2875 H 276.819 -2.99359 -3.50973 0
M  V30 2876 H 275.062 -2.86758 -3.25503 0
M  V30 2877 H 275.733 -2.6037 -4.86736 0
M  V30 2878 H 278.209 -0.847856 -4.0737 0
M  V30 2879 H 277.085 -0.679981 -5.44672 0
M  V30 2880 H 277.346 0.681642 -4.36814 0
M  V30 2881 N 276.405 1.4127 -0.698611 0
M  V30 2882 C 277.645 2.03044 -0.235062 0
M  V30 2883 C 278.009 1.54146 1.14468 0
M  V30 2884 O 279.21 2.07867 1.70425 0
M  V30 2885 C 277.481 3.56192 -0.293651 0
M  V30 2886 S 279.04 4.38696 0.0954053 0
M  V30 2887 H 275.858 0.704697 -0.0944648 0
M  V30 2888 H 278.46 1.72656 -0.917064 0
M  V30 2889 H 277.164 3.89274 -1.29977 0
M  V30 2890 H 276.695 3.91285 0.407397 0
M  V30 2891 H 278.71 4.78257 1.3223 0
M  V30 2892 N 277.883 0.443576 1.51229 0
M  V30 2893 C 278.846 -0.353132 2.26463 0
M  V30 2894 C 279.846 -0.944338 1.3015 0
M  V30 2895 O 281.036 -0.817813 1.5381 0
M  V30 2896 C 278.168 -1.50023 3.06114 0
M  V30 2897 H 279.361 0.3063 2.98332 0
M  V30 2898 H 276.914 0.196902 1.55055 0
M  V30 2899 H 277.649 -2.19553 2.38677 0
M  V30 2900 H 277.434 -1.08241 3.76864 0
M  V30 2901 H 278.924 -2.06296 3.63087 0
M  V30 2902 N 279.361 -1.56624 0.175154 0
M  V30 2903 C 280.586 -2.01813 -0.478137 0
M  V30 2904 C 281.011 -1.05457 -1.55757 0
M  V30 2905 O 280.369 -0.0347439 -1.81267 0
M  V30 2906 C 280.417 -3.45581 -1.02987 0
M  V30 2907 O 279.521 -3.52305 -2.14371 0
M  V30 2908 H 278.862 -0.65413 -0.114059 0
M  V30 2909 H 281.392 -2.02673 0.280173 0
M  V30 2910 H 281.402 -3.84965 -1.35151 0
M  V30 2911 H 280.077 -4.1521 -0.239556 0
M  V30 2912 H 278.654 -3.24783 -1.83222 0
M  V30 2913 N 280.839 0.0985539 -1.57292 0
M  V30 2914 C 282.067 0.816318 -1.90115 0
M  V30 2915 C 282.482 1.72451 -0.768509 0
M  V30 2916 O 281.839 1.80643 0.259687 0
M  V30 2917 C 281.89 1.63259 -3.22535 0
M  V30 2918 O 281.611 0.760934 -4.31441 0
M  V30 2919 C 283.112 2.45372 -3.69199 0
M  V30 2920 H 280.332 0.233595 -0.629027 0
M  V30 2921 H 282.876 0.0768229 -2.04356 0
M  V30 2922 H 281.031 2.32463 -3.09903 0
M  V30 2923 H 281.445 1.32595 -5.07463 0
M  V30 2924 H 282.919 2.98144 -4.64558 0
M  V30 2925 H 283.396 3.23677 -2.96867 0
M  V30 2926 H 284.002 1.81373 -3.84687 0
M  V30 2927 N 282.317 1.53212 0.369288 0
M  V30 2928 C 283.28 1.7872 1.43498 0
M  V30 2929 C 284.28 0.657554 1.46741 0
M  V30 2930 O 285.47 0.925736 1.47566 0
M  V30 2931 C 282.602 1.90591 2.82645 0
M  V30 2932 H 283.795 2.73894 1.22156 0
M  V30 2933 H 281.348 1.44233 0.602203 0
M  V30 2934 H 282.083 0.974709 3.09306 0
M  V30 2935 H 281.868 2.72751 2.8169 0
M  V30 2936 H 283.358 2.11931 3.59826 0
M  V30 2937 N 283.795 -0.628877 1.44509 0
M  V30 2938 C 284.758 -1.72263 1.51188 0
M  V30 2939 C 285.758 -1.55907 0.39367 0
M  V30 2940 O 286.948 -1.61361 0.656377 0
M  V30 2941 C 284.08 -3.11365 1.38798 0
M  V30 2942 H 285.273 -1.67714 2.4862 0
M  V30 2943 H 282.826 -0.842737 1.31634 0
M  V30 2944 H 283.561 -3.21507 0.424693 0
M  V30 2945 H 283.346 -3.24644 2.19884 0
M  V30 2946 H 284.836 -3.91075 1.46458 0
M  V30 2947 N 285.273 -1.31445 -0.869486 0
M  V30 2948 C 286.498 -1.24256 -1.66058 0
M  V30 2949 C 286.923 0.188928 -1.87149 0
M  V30 2950 O 286.281 1.13522 -1.4136 0
M  V30 2951 C 286.329 -1.9924 -3.00559 0
M  V30 2952 O 285.433 -1.33007 -3.90362 0
M  V30 2953 H 284.774 -0.428973 -0.506831 0
M  V30 2954 H 287.304 -1.73521 -1.08404 0
M  V30 2955 H 287.314 -2.08854 -3.50491 0
M  V30 2956 H 285.989 -3.03342 -2.84528 0
M  V30 2957 H 284.566 -1.31848 -3.48813 0
M  V30 2958 N 286.751 1.08385 -1.14413 0
M  V30 2959 C 287.681 2.17321 -0.854044 0
M  V30 2960 C 288.662 1.69024 0.191049 0
M  V30 2961 O 289.847 1.94141 0.0476779 0
M  V30 2962 C 286.977 3.45719 -0.330983 0
M  V30 2963 C 285.931 4.07409 -1.31155 0
M  V30 2964 C 285.257 5.30762 -0.64778 0
M  V30 2965 C 286.557 4.48665 -2.67388 0
M  V30 2966 H 288.251 2.41845 -1.76498 0
M  V30 2967 H 285.797 1.16233 -0.850051 0
M  V30 2968 H 287.75 4.21241 -0.115645 0
M  V30 2969 H 286.474 3.2075 0.615381 0
M  V30 2970 H 285.133 3.33919 -1.51306 0
M  V30 2971 H 284.781 5.02078 0.304398 0
M  V30 2972 H 284.481 5.72992 -1.30207 0
M  V30 2973 H 286.005 6.08998 -0.441972 0
M  V30 2974 H 287.419 5.15364 -2.51143 0
M  V30 2975 H 285.816 5.01814 -3.29093 0
M  V30 2976 H 286.886 3.60543 -3.24248 0
M  V30 2977 N 288.23 0.939286 1.26551 0
M  V30 2978 C 289.193 0.451987 2.24699 0
M  V30 2979 C 290.193 -0.435869 1.5478 0
M  V30 2980 O 291.383 -0.235314 1.72603 0
M  V30 2981 C 288.515 -0.348801 3.39111 0
M  V30 2982 H 289.708 1.3193 2.69322 0
M  V30 2983 H 287.261 0.721072 1.38673 0
M  V30 2984 H 287.996 -1.23444 2.99887 0
M  V30 2985 H 287.781 0.287945 3.91041 0
M  V30 2986 H 289.271 -0.679726 4.12031 0
M  V30 2987 N 289.708 -1.40897 0.706093 0
M  V30 2988 C 290.933 -2.05895 0.249435 0
M  V30 2989 C 291.358 -1.52823 -1.09666 0
M  V30 2990 O 290.716 -0.659589 -1.68876 0
M  V30 2991 C 290.764 -3.59872 0.22904 0
M  V30 2992 O 289.868 -4.04708 -0.792784 0
M  V30 2993 H 289.209 -0.653206 0.119241 0
M  V30 2994 H 291.739 -1.80471 0.96391 0
M  V30 2995 H 291.749 -4.07951 0.0634791 0
M  V30 2996 H 290.424 -3.97866 1.21141 0
M  V30 2997 H 289.001 -3.68111 -0.59572 0
M  V30 2998 N 291.186 -0.45159 -1.50991 0
M  V30 2999 C 292.149 0.341117 -2.26647 0
M  V30 3000 C 293.149 0.937422 -1.30649 0
M  V30 3001 O 294.339 0.809644 -1.54241 0
M  V30 3002 C 291.471 1.48398 -3.06905 0
M  V30 3003 H 292.664 -0.322117 -2.98165 0
M  V30 3004 H 290.217 -0.205122 -1.54948 0
M  V30 3005 H 290.952 2.18284 -2.39838 0
M  V30 3006 H 290.737 1.06241 -3.77432 0
M  V30 3007 H 292.227 2.04367 -3.64176 0
M  V30 3008 N 292.664 1.56529 -0.183458 0
M  V30 3009 C 293.627 2.17324 0.728223 0
M  V30 3010 C 294.627 1.12453 1.14939 0
M  V30 3011 O 295.817 1.37902 1.06437 0
M  V30 3012 C 292.949 2.76591 1.99274 0
M  V30 3013 H 294.142 2.99241 0.198772 0
M  V30 3014 H 291.695 1.5616 0.0661391 0
M  V30 3015 H 292.43 1.98441 2.56499 0
M  V30 3016 H 292.215 3.5335 1.69959 0
M  V30 3017 H 293.705 3.23311 2.6431 0
M  V30 3018 N 294.142 -0.090211 1.57342 0
M  V30 3019 C 295.388 -0.793982 1.86611 0
M  V30 3020 C 295.721 -1.78142 0.773252 0
M  V30 3021 O 294.996 -1.93271 -0.218304 0
M  V30 3022 C 295.279 -1.51839 3.26523 0
M  V30 3023 C 295.132 -0.548609 4.46442 0
M  V30 3024 C 296.451 -2.46779 3.64401 0
M  V30 3025 H 293.57 -0.287186 0.678744 0
M  V30 3026 H 296.212 -0.0575076 1.89913 0
M  V30 3027 H 294.362 -2.14617 3.23839 0
M  V30 3028 H 296.034 0.0725513 4.61243 0
M  V30 3029 H 294.277 0.137614 4.33582 0
M  V30 3030 H 294.948 -1.09271 5.41076 0
M  V30 3031 H 297.424 -1.94089 3.68061 0
M  V30 3032 H 296.3 -2.94479 4.63221 0
M  V30 3033 H 296.561 -3.30758 2.93346 0
M  V30 3034 N 295.62 -1.53406 -0.361157 0
M  V30 3035 C 296.866 -1.70054 -1.10496 0
M  V30 3036 C 297.199 -0.453278 -1.88836 0
M  V30 3037 O 296.474 0.5495 -1.86576 0
M  V30 3038 C 296.757 -2.95317 -2.06058 0
M  V30 3039 C 296.61 -4.3021 -1.31298 0
M  V30 3040 C 297.929 -3.16193 -3.06121 0
M  V30 3041 H 295.048 -0.618799 -0.400321 0
M  V30 3042 H 297.69 -1.86052 -0.385318 0
M  V30 3043 H 295.84 -2.81809 -2.67425 0
M  V30 3044 H 297.512 -4.55538 -0.726807 0
M  V30 3045 H 295.755 -4.29421 -0.614853 0
M  V30 3046 H 296.426 -5.14 -2.01265 0
M  V30 3047 H 298.902 -3.28916 -2.5486 0
M  V30 3048 H 297.778 -4.05266 -3.70204 0
M  V30 3049 H 298.039 -2.31676 -3.76535 0
M  V30 3050 N 297.098 0.621204 -1.44841 0
M  V30 3051 C 298.345 1.38055 -1.48145 0
M  V30 3052 C 298.673 1.94143 -0.117867 0
M  V30 3053 O 297.928 1.74713 0.881694 0
M  V30 3054 C 298.227 2.55675 -2.4973 0
M  V30 3055 C 297.893 2.17817 -3.94799 0
M  V30 3056 C 296.555 2.07205 -4.34303 0
M  V30 3057 C 298.907 1.88065 -4.86087 0
M  V30 3058 C 296.235 1.65045 -5.63007 0
M  V30 3059 C 298.587 1.47394 -6.15189 0
M  V30 3060 C 297.251 1.35331 -6.53637 0
M  V30 3061 H 296.521 0.505181 -0.542101 0
M  V30 3062 H 299.168 0.703477 -1.78111 0
M  V30 3063 H 297.473 3.2866 -2.13284 0
M  V30 3064 H 299.17 3.13904 -2.4953 0
M  V30 3065 H 295.76 2.26998 -3.63552 0
M  V30 3066 H 299.944 1.95168 -4.56315 0
M  V30 3067 H 295.2 1.54317 -5.91605 0
M  V30 3068 H 299.374 1.23415 -6.85377 0
M  V30 3069 H 297.001 1.02435 -7.53267 0
M  V30 3070 N 298.576 1.31904 0.862503 0
M  V30 3071 C 299.523 1.20182 1.9704 0
M  V30 3072 C 300.493 0.0858247 1.65878 0
M  V30 3073 O 301.678 0.26 1.8902 0
M  V30 3074 C 298.818 0.922797 3.32533 0
M  V30 3075 C 297.931 2.12284 3.76244 0
M  V30 3076 C 297.066 1.77996 5.00491 0
M  V30 3077 C 296.105 2.94366 5.36671 0
M  V30 3078 N 295.242 2.60223 6.52095 0
M  V30 3079 H 300.082 2.14951 2.06398 0
M  V30 3080 H 297.619 1.06917 1.01031 0
M  V30 3081 H 299.577 0.741548 4.10557 0
M  V30 3082 H 298.207 0.0119227 3.22798 0
M  V30 3083 H 297.259 2.41461 2.9394 0
M  V30 3084 H 298.571 2.99357 3.98982 0
M  V30 3085 H 297.725 1.56377 5.862 0
M  V30 3086 H 296.464 0.881252 4.79672 0
M  V30 3087 H 295.469 3.16625 4.49476 0
M  V30 3088 H 296.694 3.84957 5.59451 0
M  V30 3089 H 294.64 1.72884 6.32809 0
M  V30 3090 H 294.557 3.40827 6.74814 0
M  V30 3091 H 295.825 2.42016 7.40978 0
M  V30 3092 N 300.054 -1.07777 1.14986 0
M  V30 3093 C 301.279 -1.84558 0.946213 0
M  V30 3094 C 301.704 -1.81323 -0.500362 0
M  V30 3095 O 301.062 -1.20301 -1.35637 0
M  V30 3096 C 301.11 -3.29736 1.45968 0
M  V30 3097 O 300.214 -4.07149 0.65601 0
M  V30 3098 H 299.555 -0.571641 0.33782 0
M  V30 3099 H 302.085 -1.35991 1.52865 0
M  V30 3100 H 302.095 -3.80574 1.47063 0
M  V30 3101 H 300.77 -3.31406 2.51283 0
M  V30 3102 H 299.347 -3.65994 0.714322 0
M  V30 3103 N 301.532 -0.945985 -1.26051 0
M  V30 3104 C 302.757 -0.612525 -1.98149 0
M  V30 3105 C 303.182 0.806623 -1.69927 0
M  V30 3106 O 302.54 1.54411 -0.950108 0
M  V30 3107 C 302.588 -0.866981 -3.50023 0
M  V30 3108 O 301.692 0.0585333 -4.12358 0
M  V30 3109 H 301.033 -0.23379 -0.621481 0
M  V30 3110 H 303.563 -1.27023 -1.60395 0
M  V30 3111 H 303.573 -0.789792 -4.00283 0
M  V30 3112 H 302.248 -1.90135 -3.69894 0
M  V30 3113 H 300.825 -0.0701241 -3.72834 0
M  V30 3114 N 303.011 1.40521 -0.713556 0
M  V30 3115 C 304.288 1.94775 -0.17943 0
M  V30 3116 C 304.668 1.65184 1.31444 0
M  V30 3117 O 304.016 0.968429 2.06963 0
M  V30 3118 C 304.226 3.45543 -0.489986 0
M  V30 3119 C 305.574 4.22442 -0.427536 0
M  V30 3120 O 306.598 3.53644 -0.425929 0
M  V30 3121 O 305.457 5.4501 -0.403292 0
M  V30 3122 H 302.551 0.826606 -0.0255192 0
M  V30 3123 H 305.097 1.5014 -0.790949 0
M  V30 3124 H 303.869 3.60432 -1.5233 0
M  V30 3125 H 303.492 3.97311 0.151598 0
M  V30 3126 N 304.489 0.459591 1.5075 0
M  V30 3127 C 305.9 0.00171547 1.867 0
M  V30 3128 C 306.251 -1.39934 1.37525 0
M  V30 3129 O 305.376 -2.03523 0.735349 0
M  V30 3130 C 305.971 -0.00366298 3.388 0
M  V30 3131 C 304.53 -0.406026 3.74204 0
M  V30 3132 C 303.677 0.38673 2.7459 0
M  V30 3133 H 306.628 0.674413 1.43657 0
M  V30 3134 H 306.649 -0.808371 3.71814 0
M  V30 3135 H 306.161 1.01617 3.74561 0
M  V30 3136 H 304.262 -1.43063 3.4404 0
M  V30 3137 H 304.375 -0.115362 4.78961 0
M  V30 3138 H 302.739 -0.158019 2.54209 0
M  V30 3139 H 303.522 1.40585 3.13194 0
M  V30 3140 N 305.967 -1.56429 0.191757 0
M  V30 3141 C 307.195 -2.01867 -0.453586 0
M  V30 3142 C 307.61 -1.07191 -1.5542 0
M  V30 3143 O 306.967 -0.0762108 -1.82341 0
M  V30 3144 C 307.018 -3.47017 -1.013 0
M  V30 3145 O 306.739 -4.38078 0.0437005 0
M  V30 3146 C 308.24 -4.07956 -1.73456 0
M  V30 3147 H 305.46 -0.661211 -0.114199 0
M  V30 3148 H 308.004 -2.02295 0.299483 0
M  V30 3149 H 306.159 -3.47298 -1.71647 0
M  V30 3150 H 306.573 -5.23178 -0.372212 0
M  V30 3151 H 308.047 -5.1138 -2.07833 0
M  V30 3152 H 308.524 -3.51222 -2.63704 0
M  V30 3153 H 309.13 -4.11437 -1.07702 0
M  V30 3154 N 307.445 0.0818655 -1.57387 0
M  V30 3155 C 308.675 0.794954 -1.90694 0
M  V30 3156 C 309.083 1.72147 -0.784982 0
M  V30 3157 O 308.426 1.81974 0.251196 0
M  V30 3158 C 308.488 1.65042 -3.19376 0
M  V30 3159 C 308.152 0.894337 -4.48164 0
M  V30 3160 C 309.149 0.21813 -5.19442 0
M  V30 3161 C 306.834 0.864495 -4.94805 0
M  V30 3162 C 308.828 -0.477802 -6.35607 0
M  V30 3163 C 306.515 0.164785 -6.10878 0
M  V30 3164 C 307.513 -0.505173 -6.81129 0
M  V30 3165 O 307.201 -1.19363 -7.94989 0
M  V30 3166 H 306.933 0.231779 -0.635023 0
M  V30 3167 H 309.487 0.059493 -2.05314 0
M  V30 3168 H 307.717 2.42844 -3.00938 0
M  V30 3169 H 309.406 2.24127 -3.38411 0
M  V30 3170 H 310.172 0.232558 -4.84442 0
M  V30 3171 H 306.051 1.37542 -4.40004 0
M  V30 3172 H 309.595 -1.00129 -6.90377 0
M  V30 3173 H 305.492 0.148249 -6.4533 0
M  V30 3174 H 306.26 -1.10188 -8.11049 0
M  V30 3175 N 308.923 1.53595 0.353017 0
M  V30 3176 C 309.886 1.80232 1.41594 0
M  V30 3177 C 310.886 0.673081 1.46035 0
M  V30 3178 O 312.076 0.941335 1.46576 0
M  V30 3179 C 309.208 1.93578 2.80607 0
M  V30 3180 H 310.401 2.75174 1.19244 0
M  V30 3181 H 307.954 1.44864 0.586872 0
M  V30 3182 H 308.689 1.00746 3.08254 0
M  V30 3183 H 308.474 2.75724 2.78781 0
M  V30 3184 H 309.964 2.15735 3.57558 0
M  V30 3185 N 310.401 -0.613514 1.45168 0
M  V30 3186 C 311.311 -1.75296 1.55912 0
M  V30 3187 C 312.327 -1.68244 0.443856 0
M  V30 3188 O 313.503 -1.88706 0.70371 0
M  V30 3189 C 310.568 -3.1174 1.5172 0
M  V30 3190 C 309.629 -3.30291 2.74238 0
M  V30 3191 C 308.862 -4.60226 2.70236 0
M  V30 3192 O 309.085 -5.42168 1.77229 0
M  V30 3193 O 308.019 -4.81361 3.61352 0
M  V30 3194 H 311.845 -1.69183 2.52212 0
M  V30 3195 H 309.43 -0.776886 1.27612 0
M  V30 3196 H 311.312 -3.93044 1.51968 0
M  V30 3197 H 309.987 -3.18357 0.585697 0
M  V30 3198 H 308.894 -2.48598 2.79553 0
M  V30 3199 H 310.227 -3.28547 3.66494 0
M  V30 3200 N 311.879 -1.3236 -0.855495 0
M  V30 3201 C 312.826 -1.21225 -1.964 0
M  V30 3202 C 313.796 -0.0946204 -1.6583 0
M  V30 3203 O 314.981 -0.27002 -1.8888 0
M  V30 3204 C 312.121 -0.940419 -3.32039 0
M  V30 3205 C 311.234 -2.14276 -3.75113 0
M  V30 3206 C 310.369 -1.80648 -4.9954 0
M  V30 3207 C 309.408 -2.97208 -5.35102 0
M  V30 3208 N 308.545 -2.63678 -6.50706 0
M  V30 3209 H 313.385 -2.16042 -2.05255 0
M  V30 3210 H 310.922 -1.07451 -1.00463 0
M  V30 3211 H 312.88 -0.763311 -4.10158 0
M  V30 3212 H 311.51 -0.0290413 -3.22787 0
M  V30 3213 H 310.562 -2.43017 -2.92655 0
M  V30 3214 H 311.874 -3.01468 -3.97389 0
M  V30 3215 H 311.028 -1.59484 -5.85363 0
M  V30 3216 H 309.767 -0.906678 -4.79198 0
M  V30 3217 H 308.772 -3.19004 -4.47791 0
M  V30 3218 H 309.997 -3.87918 -5.57401 0
M  V30 3219 H 307.943 -1.76238 -6.31883 0
M  V30 3220 H 307.86 -3.444 -6.72997 0
M  V30 3221 H 309.128 -2.45942 -7.39684 0
M  V30 3222 N 313.357 1.07166 -1.15556 0
M  V30 3223 C 314.597 1.81391 -0.94216 0
M  V30 3224 C 314.961 1.84788 0.521272 0
M  V30 3225 O 316.162 2.54904 0.85307 0
M  V30 3226 C 314.433 3.22431 -1.54185 0
M  V30 3227 S 315.992 4.13379 -1.47183 0
M  V30 3228 H 312.81 0.624963 -0.339031 0
M  V30 3229 H 315.412 1.28725 -1.4714 0
M  V30 3230 H 314.116 3.17548 -2.59984 0
M  V30 3231 H 313.647 3.80172 -1.01156 0
M  V30 3232 H 315.662 4.94007 -0.466004 0
M  V30 3233 N 314.835 0.952656 1.25548 0
M  V30 3234 C 316.084 0.602053 1.92505 0
M  V30 3235 C 316.397 -0.864663 1.75451 0
M  V30 3236 O 317.603 -1.32514 2.36965 0
M  V30 3237 C 316.059 1.02607 3.44963 0
M  V30 3238 C 315.667 2.51519 3.70732 0
M  V30 3239 C 317.411 0.747905 4.1786 0
M  V30 3240 C 315.318 2.87732 5.16686 0
M  V30 3241 H 314.248 0.22146 0.720744 0
M  V30 3242 H 316.899 1.15684 1.42441 0
M  V30 3243 H 315.281 0.399712 3.93978 0
M  V30 3244 H 316.455 3.19157 3.32378 0
M  V30 3245 H 314.77 2.76786 3.11092 0
M  V30 3246 H 317.367 0.994647 5.25367 0
M  V30 3247 H 317.71 -0.315629 4.15102 0
M  V30 3248 H 318.243 1.33452 3.74747 0
M  V30 3249 H 314.982 3.93095 5.24554 0
M  V30 3250 H 314.502 2.24765 5.56094 0
M  V30 3251 H 316.181 2.76817 5.84792 0
M  V30 3252 N 316.313 -1.40141 0.720998 0
M  V30 3253 C 317.538 -2.05618 0.271258 0
M  V30 3254 C 317.963 -1.53978 -1.08039 0
M  V30 3255 O 317.321 -0.677463 -1.68167 0
M  V30 3256 C 317.369 -3.59609 0.267197 0
M  V30 3257 O 316.473 -4.05526 -0.749814 0
M  V30 3258 H 315.814 -0.651904 0.126162 0
M  V30 3259 H 318.344 -1.79439 0.982997 0
M  V30 3260 H 318.354 -4.0786 0.106744 0
M  V30 3261 H 317.029 -3.96559 1.25354 0
M  V30 3262 H 315.606 -3.68722 -0.556644 0
M  V30 3263 N 317.792 -0.46758 -1.50504 0
M  V30 3264 C 318.742 0.34698 -2.25344 0
M  V30 3265 C 319.726 0.964469 -1.2879 0
M  V30 3266 O 320.918 0.8776 -1.53711 0
M  V30 3267 C 318.047 1.43042 -3.1208 0
M  V30 3268 C 317.133 0.82084 -4.16081 0
M  V30 3269 N 317.524 -0.0567602 -5.05768 0
M  V30 3270 C 315.822 1.08517 -4.32597 0
M  V30 3271 C 316.523 -0.402343 -5.80307 0
M  V30 3272 N 315.499 0.221607 -5.43148 0
M  V30 3273 H 319.301 -0.329129 -2.92051 0
M  V30 3274 H 316.815 -0.281508 -1.59942 0
M  V30 3275 H 318.812 2.02712 -3.64299 0
M  V30 3276 H 317.472 2.10856 -2.46921 0
M  V30 3277 H 318.483 -0.425349 -5.1615 0
M  V30 3278 H 315.16 1.75855 -3.78657 0
M  V30 3279 H 316.55 -1.11834 -6.62528 0
M  V30 3280 N 319.27 1.56325 -0.20005 0
M  V30 3281 C 320.233 2.18084 0.705132 0
M  V30 3282 C 321.233 1.13666 1.1374 0
M  V30 3283 O 322.423 1.39023 1.04968 0
M  V30 3284 C 319.555 2.78689 1.96329 0
M  V30 3285 H 320.748 2.99435 0.167023 0
M  V30 3286 H 318.301 1.56221 0.0495725 0
M  V30 3287 H 319.036 2.0115 2.5438 0
M  V30 3288 H 318.821 3.55133 1.66202 0
M  V30 3289 H 320.311 3.26096 2.60866 0
M  V30 3290 N 320.748 -0.0735177 1.57428 0
M  V30 3291 C 321.695 -1.08756 2.0357 0
M  V30 3292 C 322.665 -1.38559 0.916 0
M  V30 3293 O 323.85 -1.49656 1.18354 0
M  V30 3294 C 320.99 -2.39657 2.48311 0
M  V30 3295 C 320.103 -2.16399 3.73892 0
M  V30 3296 C 319.238 -3.40852 4.07423 0
M  V30 3297 C 318.277 -3.1295 5.2605 0
M  V30 3298 N 317.414 -4.29729 5.55228 0
M  V30 3299 H 322.254 -0.687104 2.8997 0
M  V30 3300 H 319.791 -0.327709 1.43403 0
M  V30 3301 H 321.749 -3.16081 2.72303 0
M  V30 3302 H 320.379 -2.77508 1.64891 0
M  V30 3303 H 319.431 -1.30676 3.57251 0
M  V30 3304 H 320.743 -1.91788 4.60455 0
M  V30 3305 H 319.897 -4.25671 4.32306 0
M  V30 3306 H 318.636 -3.68537 3.19425 0
M  V30 3307 H 317.641 -2.26526 5.00965 0
M  V30 3308 H 318.866 -2.86589 6.15665 0
M  V30 3309 H 316.812 -4.57448 4.70188 0
M  V30 3310 H 316.729 -4.08385 6.36206 0
M  V30 3311 H 317.997 -5.1555 5.84661 0
M  V30 3312 N 322.226 -1.5378 -0.344866 0
M  V30 3313 C 323.174 -1.82373 -1.4437 0
M  V30 3314 C 324.168 -0.694128 -1.54526 0
M  V30 3315 O 325.374 -0.877442 -1.57165 0
M  V30 3316 H 321.749 -0.577765 -0.481344 0
M  V30 3317 H 323.72 -2.74306 -1.17468 0
M  V30 3318 C 322.469 -2.04898 -2.80913 0
M  V30 3319 H 321.792 -2.9127 -2.73865 0
M  V30 3320 H 323.232 -2.28871 -3.56923 0
M  V30 3321 C 321.691 -0.834116 -3.26411 0
M  V30 3322 O 322.221 -0.0328885 -4.01687 0
M  V30 3323 N 320.427 -0.65171 -2.83198 0
M  V30 3324 H 319.974 -1.30489 -2.22104 0
M  V30 3325 H 319.932 0.159686 -3.13994 0
M  V30 3326 N 323.704 0.605807 -1.45491 0
M  V30 3327 C 324.634 1.72709 -1.57143 0
M  V30 3328 C 325.615 1.6476 -0.422884 0
M  V30 3329 O 326.8 1.83132 -0.646247 0
M  V30 3330 C 323.93 3.11316 -1.53948 0
M  V30 3331 C 322.884 3.34077 -2.67537 0
M  V30 3332 C 322.21 4.72975 -2.49397 0
M  V30 3333 C 323.51 3.24158 -4.09535 0
M  V30 3334 H 325.204 1.63214 -2.51001 0
M  V30 3335 H 322.75 0.78379 -1.208 0
M  V30 3336 H 324.703 3.89557 -1.60696 0
M  V30 3337 H 323.427 3.21655 -0.566205 0
M  V30 3338 H 322.086 2.58227 -2.6022 0
M  V30 3339 H 321.734 4.8005 -1.50205 0
M  V30 3340 H 321.434 4.8916 -3.25571 0
M  V30 3341 H 322.958 5.53414 -2.58002 0
M  V30 3342 H 324.372 3.92271 -4.18086 0
M  V30 3343 H 322.769 3.51872 -4.86113 0
M  V30 3344 H 323.839 2.2157 -4.31317 0
M  V30 3345 N 325.182 1.32811 0.848464 0
M  V30 3346 C 326.429 1.23724 1.60308 0
M  V30 3347 C 326.757 -0.1994 1.93475 0
M  V30 3348 O 326.012 -1.15406 1.5805 0
M  V30 3349 C 326.311 2.04831 2.92881 0
M  V30 3350 C 325.977 3.54125 2.79117 0
M  V30 3351 C 324.639 3.94829 2.7507 0
M  V30 3352 C 326.991 4.49036 2.64606 0
M  V30 3353 C 324.319 5.28675 2.544 0
M  V30 3354 C 326.671 5.83033 2.4547 0
M  V30 3355 C 325.335 6.22931 2.39819 0
M  V30 3356 H 324.605 0.452737 0.586609 0
M  V30 3357 H 327.252 1.64301 0.983743 0
M  V30 3358 H 325.557 1.57001 3.58968 0
M  V30 3359 H 327.254 1.95164 3.50303 0
M  V30 3360 H 323.844 3.21801 2.83094 0
M  V30 3361 H 328.028 4.18505 2.66772 0
M  V30 3362 H 323.284 5.58637 2.48465 0
M  V30 3363 H 327.458 6.56186 2.33222 0
M  V30 3364 H 325.085 7.26584 2.23562 0
M  V30 3365 N 326.66 -1.06551 1.16123 0
M  V30 3366 C 327.937 -1.76097 0.85142 0
M  V30 3367 C 328.317 -2.00802 -0.6513 0
M  V30 3368 O 327.665 -1.63302 -1.59827 0
M  V30 3369 C 327.875 -3.06384 1.67122 0
M  V30 3370 C 329.223 -3.80585 1.88255 0
M  V30 3371 O 330.247 -3.16218 1.63966 0
M  V30 3372 O 329.106 -4.96212 2.2899 0
M  V30 3373 H 326.2 -0.765102 0.313923 0
M  V30 3374 H 328.746 -1.12844 1.26745 0
M  V30 3375 H 327.518 -2.84071 2.69108 0
M  V30 3376 H 327.141 -3.77371 1.25206 0
M  V30 3377 N 328.138 -0.959301 -1.25041 0
M  V30 3378 C 329.071 -0.427418 -2.24161 0
M  V30 3379 C 330.049 0.493837 -1.54919 0
M  V30 3380 O 331.233 0.427144 -1.83597 0
M  V30 3381 C 328.36 0.383893 -3.36517 0
M  V30 3382 C 327.406 -0.478431 -4.23808 0
M  V30 3383 S 328.239 -1.91353 -5.00144 0
M  V30 3384 C 329.395 -1.11077 -6.15965 0
M  V30 3385 H 329.628 -1.26743 -2.6893 0
M  V30 3386 H 327.161 -0.763714 -1.34189 0
M  V30 3387 H 329.119 0.846039 -4.01687 0
M  V30 3388 H 327.78 1.19878 -2.90324 0
M  V30 3389 H 326.973 0.14406 -5.03794 0
M  V30 3390 H 326.575 -0.87597 -3.63597 0
M  V30 3391 H 328.867 -0.361699 -6.76534 0
M  V30 3392 H 329.81 -1.88472 -6.82557 0
M  V30 3393 H 330.218 -0.638843 -5.60873 0
M  V30 3394 N 329.616 1.39756 -0.72842 0
M  V30 3395 C 330.579 2.29012 -0.0927297 0
M  V30 3396 C 331.579 1.45992 0.674025 0
M  V30 3397 O 332.769 1.66749 0.50402 0
M  V30 3398 C 329.901 3.29396 0.878137 0
M  V30 3399 H 331.094 2.86729 -0.879011 0
M  V30 3400 H 328.647 1.48293 -0.493847 0
M  V30 3401 H 329.382 2.76722 1.69101 0
M  V30 3402 H 329.167 3.907 0.331051 0
M  V30 3403 H 330.657 3.96199 1.3197 0
M  V30 3404 N 331.094 0.475555 1.50254 0
M  V30 3405 C 332.371 -0.139685 1.95101 0
M  V30 3406 C 332.751 -1.56555 1.41611 0
M  V30 3407 O 332.099 -2.19956 0.618993 0
M  V30 3408 C 332.309 -0.0784298 3.48912 0
M  V30 3409 C 333.657 -0.265095 4.23772 0
M  V30 3410 O 334.681 -0.154808 3.55863 0
M  V30 3411 O 333.54 -0.488327 5.44314 0
M  V30 3412 H 330.634 -0.109236 0.819754 0
M  V30 3413 H 333.18 0.536276 1.61004 0
M  V30 3414 H 331.952 0.916918 3.80405 0
M  V30 3415 H 331.575 -0.795655 3.89558 0
M  V30 3416 N 332.573 -1.56217 0.208337 0
M  V30 3417 C 333.52 -2.19699 -0.707192 0
M  V30 3418 C 334.49 -1.14836 -1.20008 0
M  V30 3419 O 335.675 -1.4314 -1.26157 0
M  V30 3420 C 332.815 -2.87061 -1.91546 0
M  V30 3421 C 331.928 -4.06483 -1.46271 0
M  V30 3422 C 331.063 -4.61665 -2.62752 0
M  V30 3423 C 330.102 -5.73417 -2.14147 0
M  V30 3424 N 329.239 -6.22948 -3.23853 0
M  V30 3425 H 334.079 -2.97575 -0.159111 0
M  V30 3426 H 331.616 -1.46948 -0.0667874 0
M  V30 3427 H 333.574 -3.24294 -2.62468 0
M  V30 3428 H 332.204 -2.11725 -2.43664 0
M  V30 3429 H 331.256 -3.74825 -0.648886 0
M  V30 3430 H 332.568 -4.87271 -1.06622 0
M  V30 3431 H 331.722 -5.01272 -3.41776 0
M  V30 3432 H 330.461 -3.80013 -3.05682 0
M  V30 3433 H 329.466 -5.33326 -1.33581 0
M  V30 3434 H 330.691 -6.56897 -1.72232 0
M  V30 3435 H 328.637 -5.44213 -3.6629 0
M  V30 3436 H 328.554 -6.98823 -2.88414 0
M  V30 3437 H 329.822 -6.6721 -4.03052 0
M  V30 3438 N 334.051 0.0651679 -1.57465 0
M  V30 3439 C 335.014 1.06117 -2.03155 0
M  V30 3440 C 336.014 1.31204 -0.929632 0
M  V30 3441 O 337.204 1.26813 -1.19432 0
M  V30 3442 C 334.336 2.4032 -2.41783 0
M  V30 3443 H 335.529 0.667231 -2.92383 0
M  V30 3444 H 333.082 0.311075 -1.53173 0
M  V30 3445 H 333.817 2.84532 -1.55601 0
M  V30 3446 H 333.602 2.23451 -3.22199 0
M  V30 3447 H 335.092 3.11898 -2.77685 0
M  V30 3448 N 335.529 1.53961 0.336706 0
M  V30 3449 C 336.476 1.82428 1.41381 0
M  V30 3450 C 337.446 0.670444 1.51968 0
M  V30 3451 O 338.631 0.915565 1.67398 0
M  V30 3452 C 335.771 2.04564 2.77934 0
M  V30 3453 C 334.884 3.32267 2.76084 0
M  V30 3454 C 334.019 3.44434 4.04399 0
M  V30 3455 C 333.058 4.66061 3.96804 0
M  V30 3456 N 332.195 4.75224 5.16823 0
M  V30 3457 H 337.035 2.74324 1.16405 0
M  V30 3458 H 334.572 1.35869 0.563752 0
M  V30 3459 H 336.53 2.15388 3.57301 0
M  V30 3460 H 335.16 1.15974 3.01247 0
M  V30 3461 H 334.212 3.3025 1.88784 0
M  V30 3462 H 335.524 4.21733 2.66351 0
M  V30 3463 H 334.678 3.54728 4.92192 0
M  V30 3464 H 333.417 2.53037 4.16921 0
M  V30 3465 H 332.422 4.55838 3.07396 0
M  V30 3466 H 333.647 5.58829 3.85858 0
M  V30 3467 H 331.593 3.86739 5.29876 0
M  V30 3468 H 331.51 5.58636 5.09374 0
M  V30 3469 H 332.778 4.89835 6.06367 0
M  V30 3470 N 337.007 -0.598083 1.45811 0
M  V30 3471 C 338.232 -1.3881 1.54099 0
M  V30 3472 C 338.657 -1.8726 0.177578 0
M  V30 3473 O 338.015 -1.6069 -0.839541 0
M  V30 3474 C 338.063 -2.56217 2.53743 0
M  V30 3475 O 337.167 -3.5716 2.06182 0
M  V30 3476 H 336.508 -0.414024 0.519115 0
M  V30 3477 H 339.038 -0.726971 1.91249 0
M  V30 3478 H 339.048 -3.03337 2.72856 0
M  V30 3479 H 337.723 -2.20303 3.5276 0
M  V30 3480 H 336.3 -3.16624 1.96987 0
M  V30 3481 N 338.485 -1.33259 -0.841409 0
M  V30 3482 C 339.762 -1.15174 -1.58096 0
M  V30 3483 C 340.142 0.282858 -2.09196 0
M  V30 3484 O 339.49 1.28151 -1.89181 0
M  V30 3485 C 339.7 -2.1907 -2.71679 0
M  V30 3486 C 341.048 -2.53093 -3.40924 0
M  V30 3487 O 342.072 -2.17717 -2.81918 0
M  V30 3488 O 340.931 -3.1379 -4.47435 0
M  V30 3489 H 338.025 -0.445303 -0.696875 0
M  V30 3490 H 340.571 -1.44833 -0.884385 0
M  V30 3491 H 339.343 -3.15443 -2.31541 0
M  V30 3492 H 338.966 -1.90481 -3.49002 0
M  V30 3493 N 339.963 1.05934 -1.16686 0
M  V30 3494 C 340.926 2.11669 -0.879144 0
M  V30 3495 C 341.926 1.60294 0.127445 0
M  V30 3496 O 343.116 1.7389 -0.103865 0
M  V30 3497 C 340.248 3.39438 -0.315425 0
M  V30 3498 H 341.441 2.38626 -1.81653 0
M  V30 3499 H 338.994 1.22058 -0.976299 0
M  V30 3500 H 339.729 3.18132 0.629468 0
M  V30 3501 H 339.514 3.78034 -1.04079 0
M  V30 3502 H 341.004 4.17391 -0.132189 0
M  V30 3503 N 341.441 0.965919 1.2453 0
M  V30 3504 C 342.689 0.625593 1.92174 0
M  V30 3505 C 343.01 -0.841652 1.75901 0
M  V30 3506 O 342.28 -1.60061 1.12948 0
M  V30 3507 H 340.86 0.228388 0.71123 0
M  V30 3508 H 343.522 1.2266 1.51461 0
M  V30 3509 H 342.618 0.864653 2.99884 0
M  V30 3510 N 342.919 -1.39368 0.735821 0
M  V30 3511 C 344.149 -2.04498 0.293967 0
M  V30 3512 C 344.557 -1.55593 -1.07645 0
M  V30 3513 O 343.9 -0.716324 -1.69158 0
M  V30 3514 C 343.962 -3.58836 0.218342 0
M  V30 3515 C 343.626 -4.30721 1.52736 0
M  V30 3516 C 344.623 -4.57305 2.47322 0
M  V30 3517 C 342.308 -4.69251 1.79189 0
M  V30 3518 C 344.302 -5.21429 3.66593 0
M  V30 3519 C 341.989 -5.33104 2.98737 0
M  V30 3520 C 342.987 -5.59125 3.9226 0
M  V30 3521 O 342.675 -6.21653 5.09708 0
M  V30 3522 H 342.407 -0.664118 0.126189 0
M  V30 3523 H 344.961 -1.79385 1.00051 0
M  V30 3524 H 343.191 -3.8285 -0.544314 0
M  V30 3525 H 344.88 -4.05447 -0.191626 0
M  V30 3526 H 345.646 -4.27983 2.28156 0
M  V30 3527 H 341.525 -4.48354 1.07239 0
M  V30 3528 H 345.069 -5.41656 4.39607 0
M  V30 3529 H 340.966 -5.61846 3.17803 0
M  V30 3530 H 341.734 -6.40146 5.10054 0
M  V30 3531 N 344.397 -0.483516 -1.5 0
M  V30 3532 C 345.625 0.0644831 -2.06799 0
M  V30 3533 C 346.04 1.32399 -1.34596 0
M  V30 3534 O 345.397 1.77626 -0.418946 0
M  V30 3535 C 345.448 0.339927 -3.59898 0
M  V30 3536 O 345.169 -0.869635 -4.29382 0
M  V30 3537 C 346.67 0.933515 -4.33359 0
M  V30 3538 H 343.89 -0.0126333 -0.670881 0
M  V30 3539 H 346.434 -0.675864 -1.93009 0
M  V30 3540 H 344.589 1.03022 -3.7345 0
M  V30 3541 H 345.003 -0.62179 -5.20801 0
M  V30 3542 H 346.477 1.07593 -5.41413 0
M  V30 3543 H 346.954 1.92685 -3.94676 0
M  V30 3544 H 347.56 0.281221 -4.24369 0
M  V30 3545 N 345.875 1.56104 -0.216619 0
M  V30 3546 C 346.838 2.18819 0.681962 0
M  V30 3547 C 347.838 1.14866 1.12528 0
M  V30 3548 O 349.028 1.40128 1.03488 0
M  V30 3549 C 346.16 2.80756 1.93362 0
M  V30 3550 H 347.353 2.99595 0.135254 0
M  V30 3551 H 344.906 1.56265 0.0330003 0
M  V30 3552 H 345.641 2.03837 2.52232 0
M  V30 3553 H 345.426 3.56876 1.62426 0
M  V30 3554 H 346.916 3.28844 2.57393 0
M  V30 3555 N 347.353 -0.0568162 1.57498 0
M  V30 3556 C 348.316 -1.05038 2.03715 0
M  V30 3557 C 349.316 -1.30709 0.936577 0
M  V30 3558 O 350.506 -1.26178 1.20103 0
M  V30 3559 C 347.638 -2.39034 2.43055 0
M  V30 3560 H 348.831 -0.651715 2.92733 0
M  V30 3561 H 346.384 -0.302947 1.53336 0
M  V30 3562 H 347.119 -2.83703 1.57108 0
M  V30 3563 H 346.904 -2.21739 3.2338 0
M  V30 3564 H 348.394 -3.10421 2.79336 0
M  V30 3565 N 348.832 -1.54138 -0.328536 0
M  V30 3566 C 350.057 -1.76378 -1.09112 0
M  V30 3567 C 350.482 -0.508596 -1.81094 0
M  V30 3568 O 349.84 0.539598 -1.73084 0
M  V30 3569 C 349.888 -2.95358 -2.06872 0
M  V30 3570 O 348.992 -2.66556 -3.14677 0
M  V30 3571 H 348.333 -0.584614 -0.314838 0
M  V30 3572 H 350.863 -2.01146 -0.374348 0
M  V30 3573 H 350.873 -3.22566 -2.4983 0
M  V30 3574 H 349.548 -3.86385 -1.5388 0
M  V30 3575 H 348.125 -2.50282 -2.7643 0
M  V30 3576 N 350.31 0.590341 -1.46126 0
M  V30 3577 C 351.558 1.34616 -1.50742 0
M  V30 3578 C 351.879 1.94363 -0.157486 0
M  V30 3579 O 351.149 1.78136 0.815136 0
M  V30 3580 H 349.729 0.499789 -0.555175 0
M  V30 3581 H 352.391 0.691953 -1.82203 0
M  V30 3582 H 351.487 2.15678 -2.25587 0
M  V30 3583 N 351.788 1.33704 0.83433 0
M  V30 3584 C 353.018 1.28281 1.6195 0
M  V30 3585 C 353.426 -0.147603 1.88623 0
M  V30 3586 O 352.769 -1.1016 1.47005 0
M  V30 3587 C 352.831 1.99386 2.99141 0
M  V30 3588 C 352.495 3.48681 2.95416 0
M  V30 3589 C 353.492 4.438 2.70809 0
M  V30 3590 C 351.177 3.90925 3.15409 0
M  V30 3591 C 353.171 5.79138 2.66229 0
M  V30 3592 C 350.858 5.26366 3.10454 0
M  V30 3593 C 351.856 6.20284 2.85895 0
M  V30 3594 O 351.544 7.53245 2.80852 0
M  V30 3595 H 351.276 0.44315 0.510484 0
M  V30 3596 H 353.83 1.76711 1.04702 0
M  V30 3597 H 352.06 1.45554 3.58261 0
M  V30 3598 H 353.749 1.87403 3.60049 0
M  V30 3599 H 354.515 4.12485 2.5511 0
M  V30 3600 H 350.394 3.18229 3.33543 0
M  V30 3601 H 353.938 6.52416 2.4698 0
M  V30 3602 H 349.835 5.57304 3.25703 0
M  V30 3603 H 350.603 7.62846 2.96661 0
M  V30 3604 N 353.266 -1.05314 1.17247 0
M  V30 3605 C 354.496 -1.81707 0.983166 0
M  V30 3606 C 354.904 -1.83222 -0.471822 0
M  V30 3607 O 354.247 -1.25721 -1.3394 0
M  V30 3608 C 354.309 -3.29134 1.44606 0
M  V30 3609 C 353.973 -3.51304 2.92292 0
M  V30 3610 C 354.97 -3.4353 3.90235 0
M  V30 3611 C 352.655 -3.78306 3.30439 0
M  V30 3612 C 354.649 -3.62442 5.24323 0
M  V30 3613 C 352.336 -3.96866 4.64694 0
M  V30 3614 C 353.334 -3.88933 5.61445 0
M  V30 3615 O 353.022 -4.06976 6.93272 0
M  V30 3616 H 352.754 -0.579476 0.348114 0
M  V30 3617 H 355.308 -1.33705 1.55924 0
M  V30 3618 H 353.538 -3.78046 0.813537 0
M  V30 3619 H 355.227 -3.87049 1.22262 0
M  V30 3620 H 355.993 -3.22648 3.62109 0
M  V30 3621 H 351.872 -3.83585 2.55702 0
M  V30 3622 H 355.416 -3.56165 5.99827 0
M  V30 3623 H 351.313 -4.1724 4.92525 0
M  V30 3624 H 352.081 -4.24209 6.99992 0
M  V30 3625 N 354.744 -0.972509 -1.24016 0
M  V30 3626 C 355.969 -0.654417 -1.96805 0
M  V30 3627 C 356.394 0.770398 -1.716 0
M  V30 3628 O 355.752 1.52361 -0.982647 0
M  V30 3629 C 355.8 -0.941031 -3.48105 0
M  V30 3630 O 354.904 -0.0289472 -4.1239 0
M  V30 3631 H 354.245 -0.24692 -0.616382 0
M  V30 3632 H 356.775 -1.30396 -1.57664 0
M  V30 3633 H 356.785 -0.87452 -3.98517 0
M  V30 3634 H 355.46 -1.97939 -3.65777 0
M  V30 3635 H 354.037 -0.149192 -3.72601 0
M  V30 3636 N 356.222 1.38976 -0.743202 0
M  V30 3637 C 357.447 2.05161 -0.303936 0
M  V30 3638 C 357.872 1.55677 1.05576 0
M  V30 3639 O 357.23 0.704131 1.67068 0
M  V30 3640 C 357.278 3.59138 -0.324373 0
M  V30 3641 O 356.382 4.06668 0.685204 0
M  V30 3642 H 355.723 0.649815 -0.136518 0
M  V30 3643 H 358.253 1.77852 -1.01142 0
M  V30 3644 H 358.263 4.07639 -0.171618 0
M  V30 3645 H 356.938 3.94515 -1.31647 0
M  V30 3646 H 355.515 3.69561 0.497913 0
M  V30 3647 N 357.7 0.491464 1.49741 0
M  V30 3648 C 358.925 -0.0557177 2.07325 0
M  V30 3649 C 359.35 -1.30925 1.35056 0
M  V30 3650 O 358.708 -1.76733 0.404365 0
M  V30 3651 C 358.756 -0.302074 3.59333 0
M  V30 3652 O 357.86 -1.37868 3.88672 0
M  V30 3653 H 357.201 0.0219956 0.663636 0
M  V30 3654 H 359.731 0.688352 1.92673 0
M  V30 3655 H 359.741 -0.536464 4.04458 0
M  V30 3656 H 358.416 0.61383 4.11345 0
M  V30 3657 H 356.993 -1.12999 3.55367 0
M  V30 3658 N 359.178 -1.55987 0.224894 0
M  V30 3659 C 360.403 -2.03232 -0.41369 0
M  V30 3660 C 360.828 -1.10359 -1.52323 0
M  V30 3661 O 360.186 -0.092395 -1.81064 0
M  V30 3662 C 360.234 -3.48682 -0.919405 0
M  V30 3663 O 359.338 -3.58947 -2.03054 0
M  V30 3664 H 358.679 -0.657428 -0.0931903 0
M  V30 3665 H 361.209 -2.01679 0.34451 0
M  V30 3666 H 361.219 -3.8907 -1.22835 0
M  V30 3667 H 359.894 -4.15761 -0.107339 0
M  V30 3668 H 358.471 -3.30448 -1.72796 0
M  V30 3669 N 360.656 0.0484629 -1.57525 0
M  V30 3670 C 361.903 0.743125 -1.88372 0
M  V30 3671 C 362.231 1.76383 -0.819715 0
M  V30 3672 O 361.486 1.94855 0.181659 0
M  V30 3673 C 361.785 1.46632 -3.25935 0
M  V30 3674 C 361.451 0.583427 -4.4711 0
M  V30 3675 C 360.113 0.340191 -4.79996 0
M  V30 3676 C 362.465 -0.0273345 -5.21193 0
M  V30 3677 C 359.793 -0.522903 -5.84365 0
M  V30 3678 C 362.145 -0.878017 -6.26477 0
M  V30 3679 C 360.809 -1.1309 -6.5785 0
M  V30 3680 H 360.079 0.271929 -0.689301 0
M  V30 3681 H 362.726 0.00336166 -1.915 0
M  V30 3682 H 361.031 2.2789 -3.18706 0
M  V30 3683 H 362.728 2.00902 -3.47044 0
M  V30 3684 H 359.318 0.783151 -4.21384 0
M  V30 3685 H 363.502 0.147654 -4.9608 0
M  V30 3686 H 358.758 -0.727335 -6.07058 0
M  V30 3687 H 362.932 -1.35789 -6.83033 0
M  V30 3688 H 360.559 -1.80144 -7.38547 0
M  V30 3689 N 362.134 1.5431 0.320358 0
M  V30 3690 C 363.364 1.7638 1.07582 0
M  V30 3691 C 363.772 0.513944 1.82086 0
M  V30 3692 O 363.115 -0.525123 1.76035 0
M  V30 3693 C 363.177 2.9055 2.1171 0
M  V30 3694 C 362.841 4.2934 1.56575 0
M  V30 3695 C 363.838 5.10077 1.00586 0
M  V30 3696 C 361.523 4.75893 1.60722 0
M  V30 3697 C 363.517 6.35477 0.494756 0
M  V30 3698 C 361.204 6.0126 1.09224 0
M  V30 3699 C 362.202 6.80886 0.53696 0
M  V30 3700 O 361.89 8.03894 0.0297371 0
M  V30 3701 H 361.622 0.592369 0.325692 0
M  V30 3702 H 364.176 2.02019 0.37116 0
M  V30 3703 H 362.406 2.60489 2.85801 0
M  V30 3704 H 364.095 3.00373 2.73003 0
M  V30 3705 H 364.861 4.75265 0.966869 0
M  V30 3706 H 360.74 4.13957 2.02882 0
M  V30 3707 H 364.284 6.97574 0.0606842 0
M  V30 3708 H 360.181 6.35562 1.12831 0
M  V30 3709 H 360.949 8.18372 0.14486 0
M  V30 3710 N 363.613 -0.582584 1.46437 0
M  V30 3711 C 364.89 -1.34276 1.4223 0
M  V30 3712 C 365.27 -2.10835 0.10583 0
M  V30 3713 O 364.618 -2.09485 -0.912596 0
M  V30 3714 C 364.828 -2.26865 2.65204 0
M  V30 3715 C 366.176 -2.88691 3.11356 0
M  V30 3716 O 367.2 -2.37178 2.65753 0
M  V30 3717 O 366.059 -3.82255 3.90568 0
M  V30 3718 H 363.153 -0.603326 0.565621 0
M  V30 3719 H 365.699 -0.603591 1.58603 0
M  V30 3720 H 364.471 -1.69724 3.52576 0
M  V30 3721 H 364.094 -3.08122 2.5129 0
M  V30 3722 N 365.091 -1.34144 -0.827227 0
M  V30 3723 C 366.368 -1.16844 -1.56865 0
M  V30 3724 C 366.748 0.260654 -2.09485 0
M  V30 3725 O 366.096 1.26138 -1.9053 0
M  V30 3726 C 366.306 -2.21939 -2.6934 0
M  V30 3727 C 367.654 -2.56695 -3.3822 0
M  V30 3728 O 368.678 -2.20695 -2.79593 0
M  V30 3729 O 367.537 -3.18518 -4.44082 0
M  V30 3730 H 364.631 -0.452669 -0.692112 0
M  V30 3731 H 367.177 -1.45763 -0.868973 0
M  V30 3732 H 365.949 -3.17882 -2.28182 0
M  V30 3733 H 365.572 -1.94172 -3.46962 0
M  V30 3734 N 366.569 1.04691 -1.17803 0
M  V30 3735 C 367.499 2.14494 -0.92275 0
M  V30 3736 C 368.48 1.69546 0.137179 0
M  V30 3737 O 369.665 1.94195 -0.0141108 0
M  V30 3738 C 366.795 3.44491 -0.440803 0
M  V30 3739 C 365.749 4.03031 -1.4405 0
M  V30 3740 C 365.075 5.28432 -0.81631 0
M  V30 3741 C 366.375 4.39932 -2.81527 0
M  V30 3742 H 368.069 2.36107 -1.84103 0
M  V30 3743 H 365.615 1.1347 -0.886599 0
M  V30 3744 H 367.568 4.2066 -0.249602 0
M  V30 3745 H 366.292 3.22546 0.513025 0
M  V30 3746 H 364.951 3.28937 -1.61853 0
M  V30 3747 H 364.599 5.02792 0.144511 0
M  V30 3748 H 364.299 5.68559 -1.48371 0
M  V30 3749 H 365.823 6.07284 -0.635496 0
M  V30 3750 H 367.237 5.07113 -2.67412 0
M  V30 3751 H 365.634 4.9109 -3.44892 0
M  V30 3752 H 366.704 3.50045 -3.35554 0
M  V30 3753 N 368.047 0.979072 1.23499 0
M  V30 3754 C 369.272 0.664845 1.96455 0
M  V30 3755 C 369.697 -0.761287 1.72006 0
M  V30 3756 O 369.055 -1.51837 0.990713 0
M  V30 3757 C 369.103 0.959479 3.47601 0
M  V30 3758 O 368.207 0.0508168 4.12369 0
M  V30 3759 H 367.548 0.250185 0.615064 0
M  V30 3760 H 370.078 1.31231 1.5697 0
M  V30 3761 H 370.088 0.895642 3.98048 0
M  V30 3762 H 368.763 1.99876 3.64723 0
M  V30 3763 H 367.34 0.16895 3.72517 0
M  V30 3764 N 369.525 -1.3858 0.750561 0
M  V30 3765 C 370.771 -2.0095 0.31477 0
M  V30 3766 C 371.126 -1.58509 -1.09053 0
M  V30 3767 O 370.419 -0.8112 -1.7358 0
M  V30 3768 C 370.613 -3.55455 0.372373 0
M  V30 3769 C 370.442 -4.12898 1.78173 0
M  V30 3770 C 369.212 -4.44797 2.39757 0
M  V30 3771 C 371.41 -4.35366 2.7379 0
M  V30 3772 N 369.392 -4.87831 3.72685 0
M  V30 3773 C 370.763 -4.80775 3.91478 0
M  V30 3774 C 372.818 -4.1746 2.71351 0
M  V30 3775 C 371.521 -5.10155 5.07084 0
M  V30 3776 C 373.547 -4.47963 3.86113 0
M  V30 3777 C 372.909 -4.93593 5.02539 0
M  V30 3778 H 369.008 -0.765083 0.161776 0
M  V30 3779 H 371.592 -1.68246 0.979867 0
M  V30 3780 H 369.763 -3.87512 -0.26244 0
M  V30 3781 H 371.495 -4.04614 -0.0834479 0
M  V30 3782 H 368.25 -4.33135 1.91548 0
M  V30 3783 H 368.674 -5.13685 4.40972 0
M  V30 3784 H 373.316 -3.81372 1.82524 0
M  V30 3785 H 371.034 -5.45141 5.96529 0
M  V30 3786 H 374.62 -4.35717 3.85542 0
M  V30 3787 H 373.5 -5.16746 5.89867 0
M  V30 3788 N 371.003 -0.499398 -1.49478 0
M  V30 3789 C 371.966 0.268838 -2.27618 0
M  V30 3790 C 372.966 0.895383 -1.33565 0
M  V30 3791 O 374.156 0.760164 -1.56739 0
M  V30 3792 C 371.288 1.38559 -3.11471 0
M  V30 3793 H 372.481 -0.416812 -2.96989 0
M  V30 3794 H 370.034 -0.254313 -1.54217 0
M  V30 3795 H 370.769 2.10544 -2.46661 0
M  V30 3796 H 370.554 0.941797 -3.80621 0
M  V30 3797 H 372.044 1.92678 -3.70493 0
M  V30 3798 N 372.481 1.55866 -0.233164 0
M  V30 3799 C 373.444 2.1953 0.658715 0
M  V30 3800 C 374.444 1.16053 1.11303 0
M  V30 3801 O 375.634 1.41218 1.01996 0
M  V30 3802 C 372.766 2.82791 1.90373 0
M  V30 3803 H 373.959 2.99721 0.10347 0
M  V30 3804 H 371.512 1.56291 0.0164245 0
M  V30 3805 H 372.247 2.06501 2.50056 0
M  V30 3806 H 372.032 3.58578 1.58632 0
M  V30 3807 H 373.522 3.31556 2.53891 0
M  V30 3808 N 373.959 -0.0401083 1.57549 0
M  V30 3809 C 375.205 -0.734211 1.89043 0
M  V30 3810 C 375.538 -1.75591 0.829535 0
M  V30 3811 O 374.813 -1.93868 -0.156706 0
M  V30 3812 C 375.096 -1.41374 3.31188 0
M  V30 3813 C 374.949 -0.406299 4.47961 0
M  V30 3814 C 376.268 -2.35061 3.72068 0
M  V30 3815 H 373.387 -0.265447 0.687537 0
M  V30 3816 H 376.029 0.00294087 1.9 0
M  V30 3817 H 374.179 -2.04206 3.30503 0
M  V30 3818 H 375.851 0.219255 4.60779 0
M  V30 3819 H 374.094 0.275485 4.32924 0
M  V30 3820 H 374.765 -0.920022 5.44279 0
M  V30 3821 H 377.241 -1.82282 3.74049 0
M  V30 3822 H 376.117 -2.79593 4.72355 0
M  V30 3823 H 376.378 -3.21258 3.0372 0
M  V30 3824 N 375.437 -1.54477 -0.31217 0
M  V30 3825 C 376.683 -1.74417 -1.04644 0
M  V30 3826 C 377.038 -0.517641 -1.85306 0
M  V30 3827 O 376.331 0.489973 -1.85229 0
M  V30 3828 C 376.525 -2.967 -1.99258 0
M  V30 3829 C 376.354 -4.31128 -1.27901 0
M  V30 3830 C 375.124 -4.95087 -1.01079 0
M  V30 3831 C 377.322 -5.09662 -0.689119 0
M  V30 3832 N 375.304 -6.13322 -0.266323 0
M  V30 3833 C 376.675 -6.19952 -0.0768523 0
M  V30 3834 C 378.73 -4.94355 -0.593061 0
M  V30 3835 C 377.433 -7.16604 0.622165 0
M  V30 3836 C 379.459 -5.91328 0.0922792 0
M  V30 3837 C 378.821 -7.00978 0.693443 0
M  V30 3838 H 374.92 -0.69094 -0.366231 0
M  V30 3839 H 377.504 -1.91946 -0.326319 0
M  V30 3840 H 375.675 -2.80616 -2.68532 0
M  V30 3841 H 377.407 -3.05216 -2.65755 0
M  V30 3842 H 374.162 -4.55235 -1.30607 0
M  V30 3843 H 374.586 -6.76937 0.0920973 0
M  V30 3844 H 379.228 -4.09719 -1.04355 0
M  V30 3845 H 376.946 -8.0079 1.08445 0
M  V30 3846 H 380.532 -5.81562 0.166396 0
M  V30 3847 H 379.412 -7.74725 1.21533 0
M  V30 3848 N 376.915 0.57481 -1.46744 0
M  V30 3849 C 377.845 1.69337 -1.60771 0
M  V30 3850 C 378.826 1.63825 -0.457736 0
M  V30 3851 O 380.011 1.8172 -0.684947 0
M  V30 3852 C 377.141 3.0798 -1.60517 0
M  V30 3853 C 376.095 3.28327 -2.74564 0
M  V30 3854 C 375.421 4.67578 -2.59373 0
M  V30 3855 C 376.721 3.15398 -4.16319 0
M  V30 3856 H 378.415 1.57853 -2.54407 0
M  V30 3857 H 375.961 0.75799 -1.22436 0
M  V30 3858 H 377.914 3.86061 -1.68923 0
M  V30 3859 H 376.638 3.20381 -0.634305 0
M  V30 3860 H 375.297 2.52649 -2.65639 0
M  V30 3861 H 374.945 4.76755 -1.60353 0
M  V30 3862 H 374.645 4.82144 -3.35873 0
M  V30 3863 H 376.169 5.47817 -2.69682 0
M  V30 3864 H 377.583 3.83315 -4.26313 0
M  V30 3865 H 375.98 3.41482 -4.93468 0
M  V30 3866 H 377.05 2.12372 -4.3592 0
M  V30 3867 N 378.394 1.34581 0.820102 0
M  V30 3868 C 379.624 1.29991 1.6058 0
M  V30 3869 C 380.032 -0.127588 1.88769 0
M  V30 3870 O 379.375 -1.08595 1.48165 0
M  V30 3871 C 379.437 2.02548 2.9701 0
M  V30 3872 C 379.101 3.51794 2.91701 0
M  V30 3873 C 380.098 4.46647 2.66087 0
M  V30 3874 C 377.783 3.94249 3.11245 0
M  V30 3875 C 379.777 5.81929 2.60071 0
M  V30 3876 C 377.464 5.2963 3.04853 0
M  V30 3877 C 378.462 6.23282 2.793 0
M  V30 3878 O 378.15 7.56181 2.72847 0
M  V30 3879 H 377.882 0.448539 0.505756 0
M  V30 3880 H 380.436 1.77811 1.02822 0
M  V30 3881 H 378.666 1.49345 3.56697 0
M  V30 3882 H 380.355 1.91211 3.58041 0
M  V30 3883 H 381.121 4.15168 2.5072 0
M  V30 3884 H 377 3.21749 3.30149 0
M  V30 3885 H 380.544 6.54999 2.40046 0
M  V30 3886 H 376.441 5.60727 3.19774 0
M  V30 3887 H 377.209 7.6595 2.88553 0
M  V30 3888 N 379.872 -1.04064 1.18357 0
M  V30 3889 C 380.802 -2.14001 0.934113 0
M  V30 3890 C 381.783 -1.69616 -0.128186 0
M  V30 3891 O 382.968 -1.94185 0.0244093 0
M  V30 3892 C 380.098 -3.44253 0.459066 0
M  V30 3893 C 379.052 -4.02261 1.46185 0
M  V30 3894 C 378.378 -5.27992 0.844322 0
M  V30 3895 C 379.678 -4.38432 2.83856 0
M  V30 3896 H 381.372 -2.35127 1.85352 0
M  V30 3897 H 378.918 -1.12998 0.892604 0
M  V30 3898 H 380.871 -4.20522 0.271907 0
M  V30 3899 H 379.595 -3.22813 -0.495912 0
M  V30 3900 H 378.254 -3.28074 1.63595 0
M  V30 3901 H 377.902 -5.02862 -0.117845 0
M  V30 3902 H 377.602 -5.67765 1.51384 0
M  V30 3903 H 379.126 -6.06938 0.667693 0
M  V30 3904 H 380.54 -5.05688 2.70098 0
M  V30 3905 H 378.937 -4.89254 3.47491 0
M  V30 3906 H 380.007 -3.4826 3.37406 0
M  V30 3907 N 381.35 -0.985608 -1.22978 0
M  V30 3908 C 382.313 -0.535071 -2.22867 0
M  V30 3909 C 383.313 0.378123 -1.56291 0
M  V30 3910 O 384.503 0.171092 -1.73358 0
M  V30 3911 C 381.635 0.222702 -3.40172 0
M  V30 3912 H 382.828 -1.41835 -2.6424 0
M  V30 3913 H 380.381 -0.772042 -1.35901 0
M  V30 3914 H 381.116 1.12229 -3.04262 0
M  V30 3915 H 380.901 -0.43288 -3.89703 0
M  V30 3916 H 382.391 0.526335 -4.1427 0
M  V30 3917 N 382.828 1.3818 -0.7579 0
M  V30 3918 C 384.056 2.04301 -0.326937 0
M  V30 3919 C 384.471 1.57163 1.0462 0
M  V30 3920 O 383.828 0.746626 1.66529 0
M  V30 3921 C 383.879 3.59846 -0.345363 0
M  V30 3922 O 383.6 4.05256 -1.66432 0
M  V30 3923 C 385.101 4.4319 0.098927 0
M  V30 3924 H 382.321 0.656443 -0.139012 0
M  V30 3925 H 384.865 1.76786 -1.02796 0
M  V30 3926 H 383.02 3.86182 0.306955 0
M  V30 3927 H 383.434 4.99709 -1.59345 0
M  V30 3928 H 384.908 5.51989 0.0348745 0
M  V30 3929 H 385.385 4.23947 1.14741 0
M  V30 3930 H 385.991 4.22051 -0.52468 0
M  V30 3931 N 384.306 0.507319 1.49211 0
M  V30 3932 C 385.254 -0.281364 2.30892 0
M  V30 3933 C 386.248 -0.95687 1.39787 0
M  V30 3934 O 387.454 -0.883838 1.56807 0
M  V30 3935 H 383.829 -0.109597 0.743971 0
M  V30 3936 H 385.8 0.42744 2.95323 0
M  V30 3937 C 384.549 -1.32918 3.21291 0
M  V30 3938 H 383.872 -0.818799 3.91326 0
M  V30 3939 H 385.312 -1.85288 3.81372 0
M  V30 3940 C 383.771 -2.35074 2.41333 0
M  V30 3941 O 384.301 -3.4108 2.12197 0
M  V30 3942 N 382.507 -2.07705 2.03241 0
M  V30 3943 H 382.054 -1.2152 2.27136 0
M  V30 3944 H 382.012 -2.76283 1.50051 0
M  V30 3945 N 385.784 -1.5574 0.241426 0
M  V30 3946 C 387.061 -1.90704 -0.434881 0
M  V30 3947 C 387.441 -1.16145 -1.76277 0
M  V30 3948 O 386.789 -0.277152 -2.26813 0
M  V30 3949 C 386.999 -3.43657 -0.608343 0
M  V30 3950 C 388.347 -4.14806 -0.906725 0
M  V30 3951 O 389.371 -3.49366 -0.694408 0
M  V30 3952 O 388.23 -5.30548 -1.31075 0
M  V30 3953 H 385.324 -0.793592 -0.23268 0
M  V30 3954 H 387.87 -1.67288 0.285086 0
M  V30 3955 H 386.642 -3.89927 0.327505 0
M  V30 3956 H 386.265 -3.72918 -1.37906 0
M  V30 3957 N 387.262 0.0317525 -1.57568 0
M  V30 3958 C 388.487 0.738664 -1.938 0
M  V30 3959 C 388.912 1.68242 -0.841208 0
M  V30 3960 O 388.27 1.80157 0.203267 0
M  V30 3961 C 388.318 1.47417 -3.29091 0
M  V30 3962 O 387.422 2.5872 -3.2115 0
M  V30 3963 H 386.763 0.198856 -0.633524 0
M  V30 3964 H 389.293 -0.0119713 -2.04596 0
M  V30 3965 H 389.303 1.84468 -3.63917 0
M  V30 3966 H 387.978 0.781988 -4.08482 0
M  V30 3967 H 386.555 2.24231 -2.97951 0
M  V30 3968 N 388.74 1.54641 0.303973 0
M  V30 3969 C 389.968 1.77768 1.05858 0
M  V30 3970 C 390.383 0.535722 1.8104 0
M  V30 3971 O 389.74 -0.494337 1.75677 0
M  V30 3972 C 389.791 2.9834 2.04146 0
M  V30 3973 O 389.512 4.17736 1.32015 0
M  V30 3974 C 391.013 3.33832 2.91669 0
M  V30 3975 H 388.233 0.592961 0.314067 0
M  V30 3976 H 390.777 2.01583 0.344149 0
M  V30 3977 H 388.932 2.76742 2.71096 0
M  V30 3978 H 389.346 4.85693 1.97998 0
M  V30 3979 H 390.82 4.21448 3.56491 0
M  V30 3980 H 391.297 2.51857 3.59812 0
M  V30 3981 H 391.903 3.57579 2.30254 0
M  V30 3982 N 390.218 -0.567019 1.47046 0
M  V30 3983 C 391.448 -1.34831 1.56538 0
M  V30 3984 C 391.856 -1.8802 0.21101 0
M  V30 3985 O 391.199 -1.65152 -0.804387 0
M  V30 3986 C 391.261 -2.56139 2.52256 0
M  V30 3987 C 390.925 -2.24307 3.98165 0
M  V30 3988 C 391.922 -1.82192 4.86931 0
M  V30 3989 C 389.607 -2.35968 4.43423 0
M  V30 3990 C 391.601 -1.52153 6.18973 0
M  V30 3991 C 389.288 -2.05542 5.75496 0
M  V30 3992 C 390.286 -1.63701 6.63092 0
M  V30 3993 O 389.974 -1.33657 7.92711 0
M  V30 3994 H 389.706 -0.417683 0.531523 0
M  V30 3995 H 392.26 -0.694726 1.93294 0
M  V30 3996 H 390.49 -3.24356 2.10548 0
M  V30 3997 H 392.179 -3.18214 2.51982 0
M  V30 3998 H 392.945 -1.72684 4.53217 0
M  V30 3999 H 388.824 -2.67495 3.75456 0
M  V30 4000 H 392.368 -1.19421 6.87302 0
M  V30 4001 H 388.265 -2.14679 6.08755 0
M  V30 4002 H 389.033 -1.4737 8.05124 0
M  V30 4003 N 391.696 -1.35014 -0.812953 0
M  V30 4004 C 392.626 -1.30069 -1.93919 0
M  V30 4005 C 393.607 -0.176275 -1.69184 0
M  V30 4006 O 394.792 -0.370227 -1.90638 0
M  V30 4007 C 391.922 -1.06547 -3.30552 0
M  V30 4008 C 390.876 -2.15561 -3.69753 0
M  V30 4009 C 390.202 -1.77214 -5.04479 0
M  V30 4010 C 391.502 -3.57476 -3.808 0
M  V30 4011 H 393.196 -2.24303 -1.98314 0
M  V30 4012 H 390.742 -1.07977 -0.952736 0
M  V30 4013 H 392.695 -1.01729 -4.08937 0
M  V30 4014 H 391.419 -0.0875719 -3.26483 0
M  V30 4015 H 390.078 -2.19466 -2.9365 0
M  V30 4016 H 389.726 -0.780589 -4.96906 0
M  V30 4017 H 389.426 -2.50184 -5.31678 0
M  V30 4018 H 390.95 -1.7391 -5.8531 0
M  V30 4019 H 392.364 -3.55929 -4.4943 0
M  V30 4020 H 390.761 -4.29152 -4.19462 0
M  V30 4021 H 391.831 -3.94091 -2.82525 0
M  V30 4022 N 393.175 1.03435 -1.18907 0
M  V30 4023 C 394.452 1.73778 -0.89781 0
M  V30 4024 C 394.832 2.02458 0.597832 0
M  V30 4025 O 394.18 1.67482 1.55441 0
M  V30 4026 C 394.39 3.01845 -1.75187 0
M  V30 4027 C 395.738 3.7546 -1.9828 0
M  V30 4028 O 396.762 3.11759 -1.72293 0
M  V30 4029 O 395.621 4.89966 -2.42065 0
M  V30 4030 H 392.715 0.75651 -0.334098 0
M  V30 4031 H 395.261 1.09444 -1.29693 0
M  V30 4032 H 394.033 2.76836 -2.76545 0
M  V30 4033 H 393.656 3.73919 -1.35167 0
M  V30 4034 N 394.653 0.992116 1.22453 0
M  V30 4035 C 395.6 0.541731 2.24352 0
M  V30 4036 C 396.57 -0.425519 1.60557 0
M  V30 4037 O 397.755 -0.330453 1.87917 0
M  V30 4038 C 394.895 -0.138248 3.44823 0
M  V30 4039 C 394.008 0.870649 4.23136 0
M  V30 4040 C 393.143 0.164269 5.30946 0
M  V30 4041 C 392.182 1.16159 6.00977 0
M  V30 4042 N 391.319 0.483568 7.00433 0
M  V30 4043 H 396.159 1.41541 2.62241 0
M  V30 4044 H 393.696 0.709013 1.28885 0
M  V30 4045 H 395.654 -0.5494 4.13567 0
M  V30 4046 H 394.284 -0.975721 3.077 0
M  V30 4047 H 393.336 1.40013 3.53696 0
M  V30 4048 H 394.648 1.63014 4.7141 0
M  V30 4049 H 393.802 -0.303653 6.0594 0
M  V30 4050 H 392.541 -0.627733 4.83643 0
M  V30 4051 H 391.546 1.64015 5.24766 0
M  V30 4052 H 392.771 1.95445 6.50368 0
M  V30 4053 H 390.717 -0.289012 6.55363 0
M  V30 4054 H 390.634 1.18152 7.4671 0
M  V30 4055 H 391.902 0.0384219 7.79491 0
M  V30 4056 N 396.131 -1.37776 0.765217 0
M  V30 4057 C 397.094 -2.28686 0.153416 0
M  V30 4058 C 398.094 -1.47727 -0.635081 0
M  V30 4059 O 399.284 -1.68027 -0.459632 0
M  V30 4060 C 396.416 -3.31608 -0.790495 0
M  V30 4061 H 397.609 -2.84297 0.954723 0
M  V30 4062 H 395.162 -1.46932 0.53299 0
M  V30 4063 H 395.897 -2.81109 -1.61705 0
M  V30 4064 H 395.682 -3.9144 -0.227348 0
M  V30 4065 H 397.172 -3.99559 -1.21419 0
M  V30 4066 N 397.609 -0.515225 -1.4894 0
M  V30 4067 C 398.519 0.259774 -2.33157 0
M  V30 4068 C 399.535 0.953501 -1.45548 0
M  V30 4069 O 400.711 0.931735 -1.78552 0
M  V30 4070 C 397.776 1.30193 -3.21326 0
M  V30 4071 C 396.837 0.620129 -4.24797 0
M  V30 4072 C 396.07 1.61263 -5.08753 0
M  V30 4073 O 396.293 2.84389 -4.94448 0
M  V30 4074 O 395.227 1.16013 -5.90614 0
M  V30 4075 H 399.053 -0.429932 -3.00641 0
M  V30 4076 H 396.638 -0.276346 -1.46822 0
M  V30 4077 H 398.52 1.90455 -3.75905 0
M  V30 4078 H 397.195 1.97431 -2.56521 0
M  V30 4079 H 396.102 -0.0226019 -3.74093 0
M  V30 4080 H 397.435 -0.0100493 -4.92199 0
M  V30 4081 N 399.087 1.5561 -0.249682 0
M  V30 4082 C 400.312 2.03865 0.381305 0
M  V30 4083 C 400.737 1.12769 1.50548 0
M  V30 4084 O 400.095 0.121189 1.80895 0
M  V30 4085 C 400.143 3.50101 0.863816 0
M  V30 4086 O 399.247 3.62132 1.97318 0
M  V30 4087 H 398.588 0.658827 0.0827194 0
M  V30 4088 H 401.118 2.01105 -0.376552 0
M  V30 4089 H 401.128 3.90975 1.1663 0
M  V30 4090 H 399.803 4.1588 0.0411816 0
M  V30 4091 H 398.38 3.33155 1.67517 0
M  V30 4092 N 400.565 -0.0233959 1.57583 0
M  V30 4093 C 401.795 -0.723631 1.93513 0
M  V30 4094 C 402.203 -1.69115 0.848333 0
M  V30 4095 O 401.546 -1.82781 -0.183484 0
M  V30 4096 C 401.608 -1.53075 3.25282 0
M  V30 4097 C 401.272 -0.727388 4.51174 0
M  V30 4098 C 402.269 -0.0251924 5.19894 0
M  V30 4099 C 399.954 -0.680256 4.97672 0
M  V30 4100 C 401.948 0.713374 6.33395 0
M  V30 4101 C 399.635 0.0620523 6.11068 0
M  V30 4102 C 400.633 0.757622 6.78785 0
M  V30 4103 O 400.321 1.48787 7.90011 0
M  V30 4104 H 400.053 -0.208051 0.643188 0
M  V30 4105 H 402.607 0.0167489 2.05393 0
M  V30 4106 H 400.837 -2.31508 3.09744 0
M  V30 4107 H 402.526 -2.11413 3.46496 0
M  V30 4108 H 403.292 -0.0526003 4.84971 0
M  V30 4109 H 399.171 -1.21116 4.44805 0
M  V30 4110 H 402.715 1.25683 6.86185 0
M  V30 4111 H 398.612 0.0913634 6.45435 0
M  V30 4112 H 399.38 1.40213 8.06401 0
M  V30 4113 N 402.043 -1.548 -0.295768 0
M  V30 4114 C 403.289 -1.74588 -1.03184 0
M  V30 4115 C 403.622 -0.532962 -1.86744 0
M  V30 4116 O 402.897 0.469872 -1.88739 0
M  V30 4117 C 403.18 -3.03791 -1.93347 0
M  V30 4118 C 403.033 -4.35392 -1.12933 0
M  V30 4119 C 404.352 -3.28892 -2.92435 0
M  V30 4120 H 401.471 -0.635221 -0.373715 0
M  V30 4121 H 404.113 -1.87519 -0.30606 0
M  V30 4122 H 402.263 -2.92898 -2.55232 0
M  V30 4123 H 403.935 -4.58211 -0.532943 0
M  V30 4124 H 402.178 -4.31642 -0.432168 0
M  V30 4125 H 402.849 -5.22074 -1.79284 0
M  V30 4126 H 405.325 -3.39429 -2.4068 0
M  V30 4127 H 404.201 -4.20603 -3.52682 0
M  V30 4128 H 404.462 -2.47437 -3.6637 0
M  V30 4129 N 403.521 0.559213 -1.47345 0
M  V30 4130 C 404.932 1.14134 -1.47751 0
M  V30 4131 C 405.283 1.94834 -0.231103 0
M  V30 4132 O 404.408 2.05957 0.664137 0
M  V30 4133 C 405.003 2.07653 -2.67705 0
M  V30 4134 C 403.562 2.61141 -2.71076 0
M  V30 4135 C 402.709 1.3748 -2.40821 0
M  V30 4136 H 405.66 0.345917 -1.54884 0
M  V30 4137 H 405.681 2.91497 -2.44561 0
M  V30 4138 H 405.193 1.4889 -3.58404 0
M  V30 4139 H 403.294 3.23707 -1.84511 0
M  V30 4140 H 403.407 3.02272 -3.7171 0
M  V30 4141 H 401.771 1.68086 -1.91362 0
M  V30 4142 H 402.554 0.805135 -3.33725 0
M  V30 4143 N 404.999 1.35443 0.805782 0
M  V30 4144 C 405.947 1.28465 1.93906 0
M  V30 4145 C 406.941 0.17943 1.68447 0
M  V30 4146 O 408.147 0.345459 1.76654 0
M  V30 4147 H 404.522 0.399528 0.637088 0
M  V30 4148 H 406.493 2.24206 1.96912 0
M  V30 4149 C 405.242 1.07432 3.30687 0
M  V30 4150 H 404.565 1.91716 3.50835 0
M  V30 4151 H 406.005 1.06591 4.10383 0
M  V30 4152 C 404.464 -0.22179 3.36169 0
M  V30 4153 O 404.994 -1.21731 3.82811 0
M  V30 4154 N 403.2 -0.260841 2.89427 0
M  V30 4155 H 402.747 0.549884 2.51663 0
M  V30 4156 H 402.705 -1.12777 2.93477 0
M  V30 4157 N 406.477 -1.02803 1.19454 0
M  V30 4158 C 407.723 -1.76598 1.0092 0
M  V30 4159 C 408.078 -1.86939 -0.455142 0
M  V30 4160 O 407.371 -1.37575 -1.33355 0
M  V30 4161 C 407.565 -3.18941 1.6128 0
M  V30 4162 C 407.394 -3.22476 3.13431 0
M  V30 4163 C 406.164 -3.30375 3.82336 0
M  V30 4164 C 408.362 -3.09451 4.10785 0
M  V30 4165 N 406.344 -3.23292 5.21877 0
M  V30 4166 C 407.715 -3.10012 5.36929 0
M  V30 4167 C 409.77 -2.93585 4.02135 0
M  V30 4168 C 408.473 -2.96334 6.55423 0
M  V30 4169 C 410.499 -2.81256 5.20239 0
M  V30 4170 C 409.861 -2.82472 6.45282 0
M  V30 4171 H 405.96 -0.657447 0.423424 0
M  V30 4172 H 408.544 -1.22369 1.5144 0
M  V30 4173 H 406.715 -3.71489 1.1336 0
M  V30 4174 H 408.447 -3.81102 1.36173 0
M  V30 4175 H 405.202 -3.3663 3.33132 0
M  V30 4176 H 405.626 -3.23156 5.94894 0
M  V30 4177 H 410.268 -2.91466 3.0628 0
M  V30 4178 H 407.986 -2.97203 7.51463 0
M  V30 4179 H 411.572 -2.70014 5.15348 0
M  V30 4180 H 410.452 -2.73036 7.35133 0
M  V30 4181 N 407.956 -0.998596 -1.21925 0
M  V30 4182 C 409.204 -0.676325 -1.90448 0
M  V30 4183 C 409.525 0.794719 -1.78071 0
M  V30 4184 O 408.795 1.5701 -1.17152 0
M  V30 4185 H 407.375 -0.247165 -0.704925 0
M  V30 4186 H 410.037 -1.26633 -1.48156 0
M  V30 4187 H 409.133 -0.943858 -2.97486 0
M  V30 4188 N 409.434 1.37368 -0.772513 0
M  V30 4189 C 410.381 2.30262 -0.157488 0
M  V30 4190 C 411.351 1.51137 0.688965 0
M  V30 4191 O 412.536 1.79704 0.641168 0
M  V30 4192 C 409.676 3.37611 0.715045 0
M  V30 4193 C 408.789 4.31746 -0.148098 0
M  V30 4194 C 407.924 5.26171 0.729213 0
M  V30 4195 C 406.963 6.11948 -0.136418 0
M  V30 4196 N 406.1 6.98613 0.698914 0
M  V30 4197 H 410.94 2.82277 -0.955179 0
M  V30 4198 H 408.477 1.38957 -0.482631 0
M  V30 4199 H 410.435 3.98479 1.23575 0
M  V30 4200 H 409.065 2.86959 1.47833 0
M  V30 4201 H 408.117 3.72178 -0.786613 0
M  V30 4202 H 409.429 4.92084 -0.81579 0
M  V30 4203 H 408.583 5.92247 1.31637 0
M  V30 4204 H 407.322 4.66246 1.43059 0
M  V30 4205 H 406.327 5.4485 -0.736102 0
M  V30 4206 H 407.552 6.73945 -0.835134 0
M  V30 4207 H 405.498 6.41215 1.38489 0
M  V30 4208 H 405.415 7.55948 0.0885358 0
M  V30 4209 H 406.683 7.69077 1.27044 0
M  V30 4210 N 410.912 0.523116 1.48665 0
M  V30 4211 C 411.822 -0.247406 2.33292 0
M  V30 4212 C 412.838 -0.945769 1.46052 0
M  V30 4213 O 414.014 -0.922253 1.79043 0
M  V30 4214 C 411.079 -1.28487 3.22012 0
M  V30 4215 C 410.14 -0.597592 4.2512 0
M  V30 4216 C 409.373 -1.58563 5.09601 0
M  V30 4217 O 409.596 -2.81763 4.95949 0
M  V30 4218 O 408.53 -1.12879 5.91221 0
M  V30 4219 H 412.356 0.445869 3.00409 0
M  V30 4220 H 409.941 0.284128 1.46673 0
M  V30 4221 H 411.823 -1.88459 3.7691 0
M  V30 4222 H 410.498 -1.96068 2.57564 0
M  V30 4223 H 409.405 0.0424407 3.74076 0
M  V30 4224 H 410.738 0.0361517 4.92187 0
M  V30 4225 N 412.39 -1.55475 0.257931 0
M  V30 4226 C 413.322 -2.19192 -0.669881 0
M  V30 4227 C 414.335 -1.17148 -1.1305 0
M  V30 4228 O 415.524 -1.43959 -1.05537 0
M  V30 4229 C 412.624 -2.79016 -1.92363 0
M  V30 4230 C 411.797 -4.06586 -1.61265 0
M  V30 4231 C 410.856 -4.50622 -2.7171 0
M  V30 4232 O 409.882 -5.16765 -2.38627 0
M  V30 4233 N 411.084 -4.19325 -4.01431 0
M  V30 4234 H 413.849 -2.99441 -0.124635 0
M  V30 4235 H 411.41 -1.6171 0.0783311 0
M  V30 4236 H 413.402 -3.05427 -2.65511 0
M  V30 4237 H 411.972 -2.0286 -2.37837 0
M  V30 4238 H 411.192 -3.87646 -0.715811 0
M  V30 4239 H 412.48 -4.89737 -1.37967 0
M  V30 4240 H 411.878 -3.66247 -4.31138 0
M  V30 4241 H 410.435 -4.50547 -4.7101 0
M  V30 4242 N 413.868 0.0150385 -1.57593 0
M  V30 4243 C 414.8 1.03912 -2.04291 0
M  V30 4244 C 415.813 1.31618 -0.958146 0
M  V30 4245 O 417.002 1.28859 -1.23522 0
M  V30 4246 C 414.102 2.37749 -2.41514 0
M  V30 4247 C 413.275 2.29198 -3.72541 0
M  V30 4248 C 412.334 3.45598 -3.96797 0
M  V30 4249 O 411.36 3.24461 -4.67668 0
M  V30 4250 N 412.562 4.67945 -3.43523 0
M  V30 4251 H 415.327 0.64099 -2.92765 0
M  V30 4252 H 412.888 0.20272 -1.60626 0
M  V30 4253 H 414.88 3.14364 -2.54867 0
M  V30 4254 H 413.45 2.69357 -1.58637 0
M  V30 4255 H 412.67 1.3759 -3.69408 0
M  V30 4256 H 413.958 2.20642 -4.5847 0
M  V30 4257 H 413.356 4.88017 -2.86104 0
M  V30 4258 H 411.913 5.41878 -3.62232 0
M  V30 4259 N 415.346 1.54954 0.287554 0
M  V30 4260 C 416.574 1.78881 1.03967 0
M  V30 4261 C 416.989 0.554894 1.80462 0
M  V30 4262 O 416.346 -0.475676 1.76192 0
M  V30 4263 C 416.397 3.00488 2.0097 0
M  V30 4264 O 416.118 4.19113 1.27577 0
M  V30 4265 C 417.619 3.36907 2.88112 0
M  V30 4266 H 414.839 0.596259 0.307761 0
M  V30 4267 H 417.383 2.01937 0.322749 0
M  V30 4268 H 415.538 2.79601 2.68145 0
M  V30 4269 H 415.952 4.87765 1.92835 0
M  V30 4270 H 417.426 4.25205 3.52001 0
M  V30 4271 H 417.903 2.55659 3.57121 0
M  V30 4272 H 418.509 3.60001 2.26449 0
M  V30 4273 N 416.824 -0.551391 1.4764 0
M  V30 4274 C 418.101 -1.31229 1.45046 0
M  V30 4275 C 418.481 -2.10563 0.150527 0
M  V30 4276 O 417.829 -2.11374 -0.867956 0
M  V30 4277 C 418.039 -2.21189 2.69956 0
M  V30 4278 C 419.387 -2.82021 3.1741 0
M  V30 4279 O 420.411 -2.31488 2.70724 0
M  V30 4280 O 419.27 -3.73885 3.98588 0
M  V30 4281 H 416.364 -0.591193 0.578291 0
M  V30 4282 H 418.91 -0.569813 1.59847 0
M  V30 4283 H 417.682 -1.62207 3.56096 0
M  V30 4284 H 417.305 -3.02722 2.57769 0
M  V30 4285 N 418.302 -1.35869 -0.798587 0
M  V30 4286 C 419.551 -1.28921 -1.5512 0
M  V30 4287 C 419.864 0.13208 -1.95154 0
M  V30 4288 O 421.07 0.323879 -2.69561 0
M  V30 4289 C 419.526 -2.26141 -2.79979 0
M  V30 4290 C 419.134 -3.73658 -2.47151 0
M  V30 4291 C 420.878 -2.28152 -3.57976 0
M  V30 4292 C 418.785 -4.62679 -3.6835 0
M  V30 4293 H 417.715 -0.479031 -0.582276 0
M  V30 4294 H 420.366 -1.61179 -0.877125 0
M  V30 4295 H 418.748 -1.86865 -3.49138 0
M  V30 4296 H 419.922 -4.21616 -1.85947 0
M  V30 4297 H 418.237 -3.74333 -1.82383 0
M  V30 4298 H 420.834 -2.91875 -4.4801 0
M  V30 4299 H 421.177 -1.28748 -3.95891 0
M  V30 4300 H 421.71 -2.65998 -2.95787 0
M  V30 4301 H 418.449 -5.63111 -3.35538 0
M  V30 4302 H 417.969 -4.19442 -4.28752 0
M  V30 4303 H 419.648 -4.78498 -4.35487 0
M  V30 4304 N 419.78 1.02168 -1.19998 0
M  V30 4305 C 421.029 1.75091 -1.0013 0
M  V30 4306 C 421.342 1.89923 0.467835 0
M  V30 4307 O 422.548 2.59888 0.785515 0
M  V30 4308 C 421.004 3.14892 -1.74273 0
M  V30 4309 C 420.612 3.0809 -3.25245 0
M  V30 4310 C 422.356 3.9206 -1.62755 0
M  V30 4311 C 420.263 4.42867 -3.91948 0
M  V30 4312 H 419.193 0.656394 -0.37103 0
M  V30 4313 H 421.844 1.14284 -1.43567 0
M  V30 4314 H 420.226 3.7621 -1.2362 0
M  V30 4315 H 421.4 2.5611 -3.83072 0
M  V30 4316 H 419.715 2.44416 -3.3712 0
M  V30 4317 H 422.312 4.91764 -2.09934 0
M  V30 4318 H 422.655 4.12199 -0.582894 0
M  V30 4319 H 423.188 3.37359 -2.10793 0
M  V30 4320 H 419.927 4.27931 -4.96543 0
M  V30 4321 H 419.447 4.94874 -3.3891 0
M  V30 4322 H 421.126 5.11728 -3.95909 0
M  V30 4323 N 421.258 1.00505 1.21394 0
M  V30 4324 C 422.221 0.570459 2.21987 0
M  V30 4325 C 423.221 -0.353211 1.56873 0
M  V30 4326 O 424.411 -0.14349 1.73608 0
M  V30 4327 C 421.543 -0.168555 3.40483 0
M  V30 4328 H 422.736 1.46021 2.6195 0
M  V30 4329 H 420.289 0.793565 1.34656 0
M  V30 4330 H 421.024 -1.07374 3.06009 0
M  V30 4331 H 420.809 0.494823 3.88965 0
M  V30 4332 H 422.299 -0.460362 4.15055 0
M  V30 4333 N 422.737 -1.36956 0.779787 0
M  V30 4334 C 423.967 -2.03459 0.358877 0
M  V30 4335 C 424.375 -1.58939 -1.02641 0
M  V30 4336 O 423.718 -0.769777 -1.66794 0
M  V30 4337 C 423.78 -3.5796 0.332393 0
M  V30 4338 C 423.444 -4.25644 1.66362 0
M  V30 4339 C 424.441 -4.49205 2.61746 0
M  V30 4340 C 422.126 -4.63313 1.94027 0
M  V30 4341 C 424.12 -5.09503 3.82996 0
M  V30 4342 C 421.807 -5.2333 3.15546 0
M  V30 4343 C 422.805 -5.46363 4.0985 0
M  V30 4344 O 422.493 -6.05122 5.29228 0
M  V30 4345 H 422.225 -0.659767 0.147254 0
M  V30 4346 H 424.779 -1.76111 1.05708 0
M  V30 4347 H 423.009 -3.84388 -0.422237 0
M  V30 4348 H 424.698 -4.05852 -0.0625389 0
M  V30 4349 H 425.464 -4.20508 2.41657 0
M  V30 4350 H 421.343 -4.44715 1.21448 0
M  V30 4351 H 424.887 -5.27397 4.56617 0
M  V30 4352 H 420.784 -5.51451 3.35517 0
M  V30 4353 H 421.552 -6.23595 5.30161 0
M  V30 4354 N 424.215 -0.530993 -1.48385 0
M  V30 4355 C 425.162 0.231223 -2.29639 0
M  V30 4356 C 426.132 0.932864 -1.37429 0
M  V30 4357 O 427.317 0.933692 -1.66394 0
M  V30 4358 C 424.457 1.27155 -3.2082 0
M  V30 4359 C 423.57 0.578655 -4.28107 0
M  V30 4360 C 422.705 1.602 -5.06467 0
M  V30 4361 C 421.744 0.892625 -6.05556 0
M  V30 4362 N 420.881 1.86157 -6.76971 0
M  V30 4363 H 425.721 -0.467848 -2.94305 0
M  V30 4364 H 423.258 -0.242556 -1.45086 0
M  V30 4365 H 425.216 1.88703 -3.72085 0
M  V30 4366 H 423.846 1.939 -2.58075 0
M  V30 4367 H 422.898 -0.150782 -3.80101 0
M  V30 4368 H 424.21 0.0217065 -4.98795 0
M  V30 4369 H 423.364 2.29173 -5.61751 0
M  V30 4370 H 422.103 2.19285 -4.35621 0
M  V30 4371 H 421.108 0.188829 -5.49476 0
M  V30 4372 H 422.333 0.307878 -6.78402 0
M  V30 4373 H 420.279 2.44147 -6.08875 0
M  V30 4374 H 420.196 1.35608 -7.43738 0
M  V30 4375 H 421.464 2.54325 -7.36844 0
M  V30 4376 N 425.693 1.55336 -0.266172 0
M  V30 4377 C 426.939 2.00423 0.346714 0
M  V30 4378 C 427.294 1.15132 1.54151 0
M  V30 4379 O 426.587 0.211289 1.90431 0
M  V30 4380 C 426.781 3.48606 0.787957 0
M  V30 4381 C 426.61 4.48236 -0.362535 0
M  V30 4382 C 425.38 4.98211 -0.843445 0
M  V30 4383 C 427.578 5.00199 -1.19603 0
M  V30 4384 N 425.56 5.81625 -1.96434 0
M  V30 4385 C 426.931 5.80973 -2.16497 0
M  V30 4386 C 428.986 4.82458 -1.2304 0
M  V30 4387 C 427.689 6.45896 -3.1656 0
M  V30 4388 C 429.715 5.48174 -2.21944 0
M  V30 4389 C 429.077 6.28751 -3.17571 0
M  V30 4390 H 425.176 0.776535 0.0922914 0
M  V30 4391 H 427.76 1.90792 -0.388154 0
M  V30 4392 H 425.931 3.58597 1.49207 0
M  V30 4393 H 427.663 3.80538 1.37742 0
M  V30 4394 H 424.418 4.71696 -0.424271 0
M  V30 4395 H 424.842 6.28025 -2.52813 0
M  V30 4396 H 429.484 4.19774 -0.504903 0
M  V30 4397 H 427.202 7.07734 -3.90048 0
M  V30 4398 H 430.788 5.36392 -2.25333 0
M  V30 4399 H 429.668 6.78703 -3.92851 0
M  V30 4400 N 427.171 -0.0066808 1.57599 0
M  V30 4401 C 428.419 -0.691552 1.899 0
M  V30 4402 C 428.74 -1.74682 0.866672 0
M  V30 4403 O 428.01 -1.95661 -0.0968189 0
M  V30 4404 H 426.59 -0.258416 0.700878 0
M  V30 4405 H 429.252 0.0326655 1.94873 0
M  V30 4406 H 428.348 -1.16702 2.8946 0
M  V30 4407 N 428.649 -1.55105 -0.279332 0
M  V30 4408 C 429.581 -1.83952 -1.36727 0
M  V30 4409 C 430.594 -0.723642 -1.45833 0
M  V30 4410 O 431.783 -1.00141 -1.47763 0
M  V30 4411 C 428.883 -1.98183 -2.74912 0
M  V30 4412 C 428.056 -3.28787 -2.88475 0
M  V30 4413 C 427.115 -3.33162 -4.07295 0
M  V30 4414 O 426.141 -4.06576 -3.98353 0
M  V30 4415 N 427.343 -2.60109 -5.18964 0
M  V30 4416 H 430.108 -2.77853 -1.12328 0
M  V30 4417 H 427.669 -1.54945 -0.469442 0
M  V30 4418 H 429.661 -1.98488 -3.52682 0
M  V30 4419 H 428.231 -1.11177 -2.92162 0
M  V30 4420 H 427.451 -3.41075 -1.97641 0
M  V30 4421 H 428.739 -4.14933 -2.94463 0
M  V30 4422 H 428.137 -2.00136 -5.29115 0
M  V30 4423 H 426.694 -2.66143 -5.94988 0
M  V30 4424 N 430.127 0.543554 -1.4793 0
M  V30 4425 C 431.367 1.31072 -1.56843 0
M  V30 4426 C 431.731 1.90604 -0.231124 0
M  V30 4427 O 432.932 2.68091 -0.195165 0
M  V30 4428 C 431.203 2.38106 -2.66533 0
M  V30 4429 S 432.762 3.24729 -2.95122 0
M  V30 4430 H 429.58 0.446035 -0.553691 0
M  V30 4431 H 432.182 0.620777 -1.85382 0
M  V30 4432 H 430.886 1.92828 -3.62278 0
M  V30 4433 H 430.417 3.11824 -2.39852 0
M  V30 4434 H 432.432 4.37891 -2.3338 0
M  V30 4435 N 431.605 1.3629 0.791371 0
M  V30 4436 C 432.851 1.31613 1.5508 0
M  V30 4437 C 433.206 -0.104372 1.92117 0
M  V30 4438 O 432.499 -1.05845 1.5971 0
M  V30 4439 C 432.693 2.17068 2.8393 0
M  V30 4440 C 432.522 3.67285 2.59484 0
M  V30 4441 C 431.292 4.36469 2.54604 0
M  V30 4442 C 433.49 4.60595 2.28816 0
M  V30 4443 N 431.472 5.7234 2.22036 0
M  V30 4444 C 432.843 5.847 2.06218 0
M  V30 4445 C 434.898 4.4918 2.14806 0
M  V30 4446 C 433.601 6.98671 1.71028 0
M  V30 4447 C 435.627 5.63017 1.81014 0
M  V30 4448 C 434.989 6.86159 1.59263 0
M  V30 4449 H 431.088 0.536878 0.568582 0
M  V30 4450 H 433.672 1.71323 0.925007 0
M  V30 4451 H 431.843 1.79605 3.44378 0
M  V30 4452 H 433.575 2.03795 3.49642 0
M  V30 4453 H 430.33 3.89249 2.69782 0
M  V30 4454 H 430.754 6.44093 2.08503 0
M  V30 4455 H 435.396 3.54564 2.30313 0
M  V30 4456 H 433.114 7.9324 1.54259 0
M  V30 4457 H 436.7 5.56146 1.70861 0
M  V30 4458 H 435.58 7.72753 1.335 0
M  V30 4459 N 433.083 -1.0153 1.20538 0
M  V30 4460 C 434.36 -1.72327 0.925343 0
M  V30 4461 C 434.74 -2.03383 -0.565547 0
M  V30 4462 O 434.088 -1.69934 -1.52757 0
M  V30 4463 C 434.298 -2.9902 1.79967 0
M  V30 4464 C 435.646 -3.72258 2.04228 0
M  V30 4465 O 436.67 -3.08979 1.77231 0
M  V30 4466 O 435.529 -4.86053 2.4983 0
M  V30 4467 H 432.623 -0.751099 0.346092 0
M  V30 4468 H 435.169 -1.07366 1.31417 0
M  V30 4469 H 433.941 -2.72402 2.80915 0
M  V30 4470 H 433.564 -3.71721 1.41099 0
M  V30 4471 N 434.561 -1.01147 -1.20859 0
M  V30 4472 C 435.838 -0.613136 -1.85742 0
M  V30 4473 C 436.218 0.909004 -1.90526 0
M  V30 4474 O 435.566 1.79862 -1.40932 0
M  V30 4475 C 435.776 -1.255 -3.25654 0
M  V30 4476 C 437.124 -1.3672 -4.01986 0
M  V30 4477 O 438.148 -1.21082 -3.34989 0
M  V30 4478 O 437.007 -1.6194 -5.21956 0
M  V30 4479 H 434.101 -0.210878 -0.799662 0
M  V30 4480 H 436.647 -1.10853 -1.2849 0
M  V30 4481 H 435.419 -2.29532 -3.16908 0
M  V30 4482 H 435.042 -0.746369 -3.90532 0
M  V30 4483 N 436.039 1.36541 -0.78704 0
M  V30 4484 C 437.285 1.99599 -0.358872 0
M  V30 4485 C 437.618 1.62323 1.06606 0
M  V30 4486 O 436.893 0.876858 1.73613 0
M  V30 4487 C 437.176 3.56327 -0.519944 0
M  V30 4488 C 437.029 4.03464 -1.98839 0
M  V30 4489 C 438.348 4.4005 0.0664737 0
M  V30 4490 H 435.467 0.725107 -0.131869 0
M  V30 4491 H 438.109 1.6199 -0.992936 0
M  V30 4492 H 436.259 3.88495 0.0198321 0
M  V30 4493 H 437.931 3.81793 -2.58905 0
M  V30 4494 H 436.174 3.55092 -2.49183 0
M  V30 4495 H 436.845 5.12439 -2.05207 0
M  V30 4496 H 439.321 4.14228 -0.394267 0
M  V30 4497 H 438.197 5.48847 -0.0762682 0
M  V30 4498 H 438.458 4.26655 1.15835 0
M  V30 4499 N 437.518 0.538854 1.48102 0
M  V30 4500 C 438.468 -0.23907 2.26743 0
M  V30 4501 C 439.452 -0.901923 1.33245 0
M  V30 4502 O 440.644 -0.803263 1.57723 0
M  V30 4503 C 437.773 -1.2799 3.18549 0
M  V30 4504 C 436.859 -0.621388 4.19523 0
M  V30 4505 N 437.25 0.298004 5.04921 0
M  V30 4506 C 435.548 -0.877533 4.37282 0
M  V30 4507 C 436.249 0.678757 5.77726 0
M  V30 4508 N 435.225 0.0377881 5.43587 0
M  V30 4509 H 439.027 0.468096 2.90148 0
M  V30 4510 H 436.541 0.357497 1.58416 0
M  V30 4511 H 438.538 -1.851 3.73555 0
M  V30 4512 H 437.198 -1.98835 2.567 0
M  V30 4513 H 438.209 0.671126 5.13533 0
M  V30 4514 H 434.886 -1.57588 3.86616 0
M  V30 4515 H 436.276 1.43316 6.56437 0
M  V30 4516 N 438.996 -1.55193 0.274407 0
M  V30 4517 C 440.226 -2.03692 -0.345442 0
M  V30 4518 C 440.634 -1.15224 -1.50067 0
M  V30 4519 O 439.977 -0.164749 -1.8296 0
M  V30 4520 C 440.039 -3.48325 -0.88939 0
M  V30 4521 C 439.703 -4.56794 0.137115 0
M  V30 4522 C 440.7 -5.11028 0.956378 0
M  V30 4523 C 438.385 -5.01568 0.27115 0
M  V30 4524 C 440.379 -6.08552 1.89587 0
M  V30 4525 C 438.066 -5.98918 1.21412 0
M  V30 4526 C 439.064 -6.52291 2.02498 0
M  V30 4527 O 438.752 -7.47738 2.952 0
M  V30 4528 H 438.484 -0.670893 -0.0829332 0
M  V30 4529 H 441.038 -2.01387 0.404056 0
M  V30 4530 H 439.268 -3.47867 -1.68895 0
M  V30 4531 H 440.957 -3.80167 -1.42225 0
M  V30 4532 H 441.723 -4.7725 0.863559 0
M  V30 4533 H 437.602 -4.5967 -0.349987 0
M  V30 4534 H 441.146 -6.50137 2.52918 0
M  V30 4535 H 437.043 -6.32114 1.30776 0
M  V30 4536 H 437.811 -7.65451 2.89874 0
M  V30 4537 N 440.474 -0.00167713 -1.576 0
M  V30 4538 C 441.722 0.681471 -1.90264 0
M  V30 4539 C 442.043 1.7422 -0.875924 0
M  V30 4540 O 441.313 1.95709 0.0864412 0
M  V30 4541 H 439.893 0.254696 -0.702239 0
M  V30 4542 H 442.555 -0.0429996 -1.94853 0
M  V30 4543 H 441.651 1.15166 -2.90075 0
M  V30 4544 N 441.952 1.55251 0.271103 0
M  V30 4545 C 442.915 1.87484 1.31842 0
M  V30 4546 C 443.915 0.749545 1.42262 0
M  V30 4547 O 445.105 1.01771 1.4138 0
M  V30 4548 C 442.237 2.0818 2.69951 0
M  V30 4549 H 443.43 2.81108 1.0449 0
M  V30 4550 H 440.983 1.47771 0.509258 0
M  V30 4551 H 441.718 1.16944 3.02481 0
M  V30 4552 H 441.503 2.90114 2.63774 0
M  V30 4553 H 442.993 2.34385 3.4562 0
M  V30 4554 N 443.43 -0.535701 1.48216 0
M  V30 4555 C 444.34 -1.66785 1.64985 0
M  V30 4556 C 445.356 -1.65654 0.532414 0
M  V30 4557 O 446.532 -1.8471 0.80275 0
M  V30 4558 C 443.597 -3.0326 1.68031 0
M  V30 4559 C 442.658 -3.1529 2.9136 0
M  V30 4560 C 441.891 -4.45255 2.94252 0
M  V30 4561 O 442.114 -5.32011 2.05719 0
M  V30 4562 O 441.048 -4.6153 3.86359 0
M  V30 4563 H 444.874 -1.55576 2.60825 0
M  V30 4564 H 442.459 -0.70815 1.31551 0
M  V30 4565 H 444.341 -3.84436 1.72589 0
M  V30 4566 H 443.016 -3.14805 0.753628 0
M  V30 4567 H 441.923 -2.3343 2.92337 0
M  V30 4568 H 443.256 -3.08658 3.83394 0
M  V30 4569 N 444.908 -1.36708 -0.784132 0
M  V30 4570 C 445.838 -1.34153 -1.91116 0
M  V30 4571 C 446.819 -0.212121 -1.68772 0
M  V30 4572 O 448.004 -0.410581 -1.8981 0
M  V30 4573 C 445.134 -1.13535 -3.28218 0
M  V30 4574 C 444.088 -2.23356 -3.65097 0
M  V30 4575 C 443.414 -1.87875 -5.00607 0
M  V30 4576 C 444.714 -3.65473 -3.73131 0
M  V30 4577 H 446.408 -2.28459 -1.93512 0
M  V30 4578 H 443.954 -1.09973 -0.929618 0
M  V30 4579 H 445.907 -1.10381 -4.06687 0
M  V30 4580 H 444.631 -0.156804 -3.26223 0
M  V30 4581 H 443.29 -2.25645 -2.88929 0
M  V30 4582 H 442.938 -0.885814 -4.95139 0
M  V30 4583 H 442.638 -2.61406 -5.26252 0
M  V30 4584 H 444.162 -1.86286 -5.81489 0
M  V30 4585 H 445.576 -3.65382 -4.41779 0
M  V30 4586 H 443.973 -4.37953 -4.10265 0
M  V30 4587 H 445.043 -3.99995 -2.74102 0
M  V30 4588 N 446.386 1.0089 -1.21074 0
M  V30 4589 C 447.316 2.1145 -0.990523 0
M  V30 4590 C 448.297 1.69897 0.0831699 0
M  V30 4591 O 449.482 1.94052 -0.0758853 0
M  V30 4592 C 446.612 3.42914 -0.550177 0
M  V30 4593 C 445.566 3.98244 -1.56799 0
M  V30 4594 C 444.892 5.25568 -0.984013 0
M  V30 4595 C 446.192 4.30752 -2.95381 0
M  V30 4596 H 447.886 2.3013 -1.91521 0
M  V30 4597 H 445.432 1.10592 -0.92225 0
M  V30 4598 H 447.385 4.19653 -0.383305 0
M  V30 4599 H 446.109 3.24014 0.41015 0
M  V30 4600 H 444.768 3.23621 -1.72236 0
M  V30 4601 H 444.416 5.02998 -0.0155216 0
M  V30 4602 H 444.116 5.63551 -1.66384 0
M  V30 4603 H 445.64 6.04955 -0.828378 0
M  V30 4604 H 447.054 4.98349 -2.8341 0
M  V30 4605 H 445.451 4.79869 -3.60341 0
M  V30 4606 H 446.521 3.39192 -3.46521 0
M  V30 4607 N 447.864 1.01787 1.20321 0
M  V30 4608 C 448.794 0.609625 2.25401 0
M  V30 4609 C 449.775 -0.375951 1.65893 0
M  V30 4610 O 450.96 -0.261101 1.92437 0
M  V30 4611 C 448.09 -0.0515995 3.47262 0
M  V30 4612 C 447.044 0.855095 4.19371 0
M  V30 4613 C 446.37 0.0595757 5.34667 0
M  V30 4614 C 447.67 2.16374 4.75373 0
M  V30 4615 H 449.364 1.48803 2.59804 0
M  V30 4616 H 446.91 0.716934 1.24884 0
M  V30 4617 H 448.863 -0.348764 4.19954 0
M  V30 4618 H 447.587 -0.964726 3.12027 0
M  V30 4619 H 446.246 1.13628 3.48546 0
M  V30 4620 H 445.894 -0.85524 4.95676 0
M  V30 4621 H 445.594 0.663406 5.83843 0
M  V30 4622 H 447.118 -0.231105 6.10162 0
M  V30 4623 H 448.532 1.92885 5.39878 0
M  V30 4624 H 446.929 2.71853 5.34991 0
M  V30 4625 H 447.999 2.82589 3.94045 0
M  V30 4626 N 449.342 -1.36122 0.79427 0
M  V30 4627 C 450.305 -2.28309 0.201889 0
M  V30 4628 C 451.305 -1.49041 -0.603603 0
M  V30 4629 O 452.495 -1.68964 -0.423888 0
M  V30 4630 C 449.627 -3.3321 -0.719978 0
M  V30 4631 H 450.82 -2.82208 1.01481 0
M  V30 4632 H 448.373 -1.45768 0.564037 0
M  V30 4633 H 449.108 -2.84475 -1.55706 0
M  V30 4634 H 448.893 -3.91835 -0.144266 0
M  V30 4635 H 450.383 -4.02044 -1.12916 0
M  V30 4636 N 450.82 -0.546701 -1.47814 0
M  V30 4637 C 451.767 0.206854 -2.29871 0
M  V30 4638 C 452.737 0.918235 -1.38411 0
M  V30 4639 O 453.922 0.915991 -1.67375 0
M  V30 4640 C 451.062 1.23746 -3.22151 0
M  V30 4641 C 450.175 0.533216 -4.28697 0
M  V30 4642 C 449.31 1.5482 -5.08138 0
M  V30 4643 C 448.349 0.828347 -6.06469 0
M  V30 4644 N 447.486 1.78966 -6.78908 0
M  V30 4645 H 452.326 -0.499037 -2.93792 0
M  V30 4646 H 449.863 -0.25793 -1.44821 0
M  V30 4647 H 451.821 1.84746 -3.74065 0
M  V30 4648 H 450.451 1.91151 -2.60117 0
M  V30 4649 H 449.503 -0.191089 -3.7992 0
M  V30 4650 H 450.815 -0.0311987 -4.9879 0
M  V30 4651 H 449.969 2.23202 -5.6415 0
M  V30 4652 H 448.708 2.14652 -4.37922 0
M  V30 4653 H 447.713 0.130539 -5.49645 0
M  V30 4654 H 448.938 0.235907 -6.7869 0
M  V30 4655 H 446.884 2.37675 -6.1143 0
M  V30 4656 H 446.801 1.27712 -7.45135 0
M  V30 4657 H 448.069 2.46496 -7.395 0
M  V30 4658 N 452.299 1.55045 -0.282633 0
M  V30 4659 C 453.229 2.2579 0.595066 0
M  V30 4660 C 454.21 1.25074 1.15284 0
M  V30 4661 O 455.395 1.5381 1.18559 0
M  V30 4662 C 452.525 2.98472 1.77572 0
M  V30 4663 C 451.479 4.0618 1.34914 0
M  V30 4664 C 450.805 4.66477 2.6135 0
M  V30 4665 C 452.105 5.1996 0.493821 0
M  V30 4666 H 453.799 2.994 0.00505653 0
M  V30 4667 H 451.345 1.44 0.000992001 0
M  V30 4668 H 453.298 3.46677 2.39568 0
M  V30 4669 H 452.022 2.2241 2.39168 0
M  V30 4670 H 450.681 3.58797 0.752338 0
M  V30 4671 H 450.329 3.87074 3.2122 0
M  V30 4672 H 450.029 5.39207 2.33516 0
M  V30 4673 H 451.553 5.17435 3.24181 0
M  V30 4674 H 452.967 5.64172 1.01898 0
M  V30 4675 H 451.364 5.99299 0.310047 0
M  V30 4676 H 452.434 4.82462 -0.485593 0
M  V30 4677 N 453.777 0.010035 1.57597 0
M  V30 4678 C 455.005 -0.683413 1.95287 0
M  V30 4679 C 455.42 -1.66747 0.885481 0
M  V30 4680 O 454.777 -1.82003 -0.134629 0
M  V30 4681 C 454.828 -1.40652 3.33015 0
M  V30 4682 O 454.549 -0.461916 4.35658 0
M  V30 4683 C 456.05 -2.19356 3.85225 0
M  V30 4684 H 453.27 -0.189708 0.643624 0
M  V30 4685 H 455.814 0.0641359 2.04399 0
M  V30 4686 H 453.969 -2.10562 3.2518 0
M  V30 4687 H 454.383 -0.973215 5.15392 0
M  V30 4688 H 455.857 -2.65433 4.83993 0
M  V30 4689 H 456.334 -3.02457 3.18459 0
M  V30 4690 H 456.94 -1.54442 3.96267 0
M  V30 4691 N 455.255 -1.55392 -0.262866 0
M  V30 4692 C 456.203 -1.8977 -1.345 0
M  V30 4693 C 457.197 -0.775063 -1.50629 0
M  V30 4694 O 458.403 -0.959519 -1.52293 0
M  V30 4695 H 454.778 -0.602467 -0.450041 0
M  V30 4696 H 456.749 -2.80147 -1.02762 0
M  V30 4697 C 455.498 -2.19501 -2.69657 0
M  V30 4698 H 454.821 -3.05378 -2.5804 0
M  V30 4699 H 456.261 -2.47469 -3.44289 0
M  V30 4700 C 454.72 -1.00597 -3.21531 0
M  V30 4701 O 455.25 -0.245768 -4.00947 0
M  V30 4702 N 453.456 -0.800911 -2.79345 0
M  V30 4703 H 453.003 -1.42079 -2.14875 0
M  V30 4704 H 452.961 -0.00697996 -3.14399 0
M  V30 4705 N 456.733 0.527833 -1.48498 0
M  V30 4706 C 457.68 1.6322 -1.6318 0
M  V30 4707 C 458.65 1.59199 -0.473815 0
M  V30 4708 O 459.835 1.77591 -0.697563 0
M  V30 4709 C 456.975 3.01474 -1.67951 0
M  V30 4710 C 456.088 3.15713 -2.94871 0
M  V30 4711 C 455.223 4.44539 -2.90789 0
M  V30 4712 C 454.262 4.52315 -4.12404 0
M  V30 4713 N 453.399 5.72533 -4.06387 0
M  V30 4714 H 458.239 1.50011 -2.57489 0
M  V30 4715 H 455.776 0.730298 -1.27691 0
M  V30 4716 H 457.734 3.81572 -1.68698 0
M  V30 4717 H 456.364 3.1345 -0.771306 0
M  V30 4718 H 455.416 2.28854 -3.03859 0
M  V30 4719 H 456.728 3.1732 -3.8485 0
M  V30 4720 H 455.882 5.3293 -2.89949 0
M  V30 4721 H 454.621 4.45457 -1.98542 0
M  V30 4722 H 453.626 3.62331 -4.13517 0
M  V30 4723 H 454.851 4.53134 -5.05812 0
M  V30 4724 H 452.797 5.74344 -3.16962 0
M  V30 4725 H 452.714 5.75643 -4.90073 0
M  V30 4726 H 453.982 6.63204 -4.0961 0
M  V30 4727 N 458.211 1.37122 0.776871 0
M  V30 4728 C 459.143 1.28342 1.89897 0
M  V30 4729 C 460.156 0.200277 1.61563 0
M  V30 4730 O 461.345 0.456012 1.72577 0
M  V30 4731 C 458.445 0.960427 3.25006 0
M  V30 4732 C 457.618 2.148 3.81025 0
M  V30 4733 C 456.677 1.79608 4.94598 0
M  V30 4734 O 455.703 2.51845 5.10454 0
M  V30 4735 N 456.905 0.737171 5.758 0
M  V30 4736 H 459.67 2.25027 1.97947 0
M  V30 4737 H 457.231 1.3068 0.955739 0
M  V30 4738 H 459.223 0.705942 3.98495 0
M  V30 4739 H 457.793 0.0823066 3.12492 0
M  V30 4740 H 457.013 2.56454 2.99374 0
M  V30 4741 H 458.301 2.9411 4.15183 0
M  V30 4742 H 457.699 0.137637 5.65533 0
M  V30 4743 H 456.256 0.542534 6.49538 0
M  V30 4744 N 459.689 -1.00246 1.21608 0
M  V30 4745 C 460.619 -2.10921 1.00172 0
M  V30 4746 C 461.6 -1.69938 -0.0741587 0
M  V30 4747 O 462.785 -1.94009 0.0861753 0
M  V30 4748 C 459.915 -3.42618 0.568355 0
M  V30 4749 C 458.869 -3.97407 1.58909 0
M  V30 4750 C 458.195 -5.25038 1.01187 0
M  V30 4751 C 459.495 -4.2918 2.97661 0
M  V30 4752 H 461.189 -2.29112 1.92739 0
M  V30 4753 H 458.735 -1.10101 0.928102 0
M  V30 4754 H 460.688 -4.19444 0.405555 0
M  V30 4755 H 459.412 -3.24227 -0.392961 0
M  V30 4756 H 458.071 -3.22703 1.73949 0
M  V30 4757 H 457.719 -5.02982 0.0421965 0
M  V30 4758 H 457.419 -5.62661 1.6937 0
M  V30 4759 H 458.943 -6.04507 0.860448 0
M  V30 4760 H 460.357 -4.96839 2.86049 0
M  V30 4761 H 458.754 -4.77952 3.6288 0
M  V30 4762 H 459.824 -3.3735 3.48315 0
M  V30 4763 N 461.167 -1.02423 -1.1978 0
M  V30 4764 C 462.397 -0.736387 -1.93031 0
M  V30 4765 C 462.805 0.708023 -1.75453 0
M  V30 4766 O 462.148 1.4927 -1.07071 0
M  V30 4767 C 462.21 -1.00194 -3.45255 0
M  V30 4768 C 461.874 -2.43698 -3.86601 0
M  V30 4769 C 462.871 -3.41814 -3.91738 0
M  V30 4770 C 460.556 -2.77975 -4.18372 0
M  V30 4771 C 462.55 -4.72265 -4.28071 0
M  V30 4772 C 460.237 -4.08636 -4.54378 0
M  V30 4773 C 461.235 -5.05592 -4.59201 0
M  V30 4774 O 460.923 -6.33914 -4.94376 0
M  V30 4775 H 460.655 -0.269116 -0.620123 0
M  V30 4776 H 463.209 -1.37043 -1.52998 0
M  V30 4777 H 461.439 -0.310747 -3.85449 0
M  V30 4778 H 463.128 -0.704488 -3.9974 0
M  V30 4779 H 463.894 -3.16671 -3.67348 0
M  V30 4780 H 459.773 -2.0319 -4.13805 0
M  V30 4781 H 463.317 -5.4794 -4.3175 0
M  V30 4782 H 459.214 -4.33556 -4.78226 0
M  V30 4783 H 459.982 -6.38317 -5.12341 0
M  V30 4784 N 462.645 1.35699 -0.801477 0
M  V30 4785 C 463.592 2.29876 -0.206294 0
M  V30 4786 C 464.562 1.52565 0.656752 0
M  V30 4787 O 465.747 1.81024 0.602906 0
M  V30 4788 C 462.887 3.39052 0.643272 0
M  V30 4789 C 462 4.31335 -0.239644 0
M  V30 4790 C 461.135 5.27599 0.61744 0
M  V30 4791 C 460.174 6.11521 -0.26619 0
M  V30 4792 N 459.311 6.99938 0.550571 0
M  V30 4793 H 464.151 2.80187 -1.01484 0
M  V30 4794 H 461.688 1.37902 -0.511997 0
M  V30 4795 H 463.646 4.0101 1.15094 0
M  V30 4796 H 462.276 2.9003 1.41713 0
M  V30 4797 H 461.328 3.70426 -0.865381 0
M  V30 4798 H 462.64 4.90243 -0.919985 0
M  V30 4799 H 461.794 5.94906 1.19045 0
M  V30 4800 H 460.533 4.69176 1.33137 0
M  V30 4801 H 459.538 5.43166 -0.851507 0
M  V30 4802 H 460.763 6.72022 -0.9779 0
M  V30 4803 H 458.709 6.44008 1.24856 0
M  V30 4804 H 458.626 7.55966 -0.071832 0
M  V30 4805 H 459.894 7.71599 1.10702 0
M  V30 4806 N 464.123 0.554532 1.47522 0
M  V30 4807 C 465.4 -0.0360704 1.95567 0
M  V30 4808 C 465.78 -1.48828 1.49711 0
M  V30 4809 O 465.128 -2.16366 0.734717 0
M  V30 4810 C 465.338 0.106631 3.48837 0
M  V30 4811 C 466.686 -0.0400899 4.24581 0
M  V30 4812 O 467.71 0.0340453 3.56184 0
M  V30 4813 O 466.569 -0.199111 5.46137 0
M  V30 4814 H 463.663 -0.0656294 0.824392 0
M  V30 4815 H 466.209 0.620867 1.57935 0
M  V30 4816 H 464.981 1.11727 3.7501 0
M  V30 4817 H 464.604 -0.58804 3.93227 0
M  V30 4818 N 465.601 -1.54893 0.290851 0
M  V30 4819 C 466.826 -2.04804 -0.32712 0
M  V30 4820 C 467.251 -1.16721 -1.47506 0
M  V30 4821 O 466.609 -0.169107 -1.8051 0
M  V30 4822 C 466.657 -3.52268 -0.770689 0
M  V30 4823 O 465.761 -3.67236 -1.87647 0
M  V30 4824 H 465.102 -0.660789 -0.0652227 0
M  V30 4825 H 467.632 -2.00036 0.429739 0
M  V30 4826 H 467.642 -3.9393 -1.06223 0
M  V30 4827 H 466.317 -4.15843 0.069096 0
M  V30 4828 H 464.894 -3.37479 -1.58626 0
M  V30 4829 N 467.08 -0.0183926 -1.57589 0
M  V30 4830 C 468.329 0.66185 -1.90532 0
M  V30 4831 C 468.642 1.73904 -0.895366 0
M  V30 4832 O 469.848 2.47518 -1.11566 0
M  V30 4833 C 468.304 1.22844 -3.38286 0
M  V30 4834 C 467.912 0.185103 -4.47617 0
M  V30 4835 C 469.656 1.88581 -3.80312 0
M  V30 4836 C 467.563 0.762723 -5.86461 0
M  V30 4837 H 466.493 0.250972 -0.711006 0
M  V30 4838 H 469.144 -0.0819435 -1.83317 0
M  V30 4839 H 467.526 2.0235 -3.40398 0
M  V30 4840 H 468.7 -0.58671 -4.5705 0
M  V30 4841 H 467.015 -0.372889 -4.14727 0
M  V30 4842 H 469.612 2.32735 -4.81392 0
M  V30 4843 H 469.955 2.72408 -3.14801 0
M  V30 4844 H 470.488 1.15782 -3.80578 0
M  V30 4845 H 467.227 -0.0371713 -6.55489 0
M  V30 4846 H 466.747 1.50327 -5.80656 0
M  V30 4847 H 468.426 1.25576 -6.34697 0
M  V30 4848 N 468.558 1.5553 0.254621 0
M  V30 4849 C 469.468 1.92789 1.33677 0
M  V30 4850 C 470.484 0.827356 1.53071 0
M  V30 4851 O 471.66 1.12807 1.66843 0
M  V30 4852 C 468.725 2.20827 2.67275 0
M  V30 4853 C 467.786 3.4427 2.5647 0
M  V30 4854 C 467.019 3.70961 3.83697 0
M  V30 4855 O 467.242 2.99852 4.85227 0
M  V30 4856 O 466.176 4.64491 3.82794 0
M  V30 4857 H 470.002 2.84945 1.05071 0
M  V30 4858 H 467.587 1.42312 0.454723 0
M  V30 4859 H 469.469 2.40204 3.46237 0
M  V30 4860 H 468.144 1.31851 2.9563 0
M  V30 4861 H 467.051 3.30209 1.75821 0
M  V30 4862 H 468.384 4.33524 2.33062 0
M  V30 4863 N 470.036 -0.519951 1.48776 0
M  V30 4864 C 470.969 -1.64053 1.58625 0
M  V30 4865 C 471.947 -1.5664 0.43618 0
M  V30 4866 O 473.131 -1.76969 0.649159 0
M  V30 4867 C 470.258 -3.02497 1.52359 0
M  V30 4868 C 469.304 -3.28235 2.72331 0
M  V30 4869 S 470.137 -3.13414 4.34203 0
M  V30 4870 C 471.293 -4.54287 4.30551 0
M  V30 4871 H 471.526 -1.5545 2.53422 0
M  V30 4872 H 469.059 -0.703681 1.37433 0
M  V30 4873 H 471.017 -3.82336 1.4943 0
M  V30 4874 H 469.678 -3.08531 0.588824 0
M  V30 4875 H 468.871 -4.29256 2.64113 0
M  V30 4876 H 468.473 -2.56085 2.72574 0
M  V30 4877 H 470.765 -5.46006 4.01103 0
M  V30 4878 H 471.708 -4.67558 5.31785 0
M  V30 4879 H 472.116 -4.34079 3.60881 0
M  V30 4880 N 471.514 -1.37532 -0.769588 0
M  V30 4881 C 472.462 -1.33561 -1.90432 0
M  V30 4882 C 473.456 -0.224027 -1.67912 0
M  V30 4883 O 474.662 -0.392174 -1.75676 0
M  V30 4884 H 471.037 -0.416279 -0.626271 0
M  V30 4885 H 473.008 -2.29348 -1.90899 0
M  V30 4886 C 471.757 -1.16162 -3.27722 0
M  V30 4887 H 471.08 -2.00951 -3.45628 0
M  V30 4888 H 472.52 -1.17434 -4.07413 0
M  V30 4889 C 470.979 0.132583 -3.36639 0
M  V30 4890 O 471.509 1.11539 -3.85904 0
M  V30 4891 N 469.715 0.184013 -2.90017 0
M  V30 4892 H 469.262 -0.616415 -2.50116 0
M  V30 4893 H 469.22 1.04956 -2.96364 0
M  V30 4894 N 472.992 0.995999 -1.22138 0
M  V30 4895 C 473.922 2.10387 -1.01289 0
M  V30 4896 C 474.903 1.69975 0.0651454 0
M  V30 4897 O 476.088 1.9396 -0.0964628 0
M  V30 4898 C 473.218 3.42312 -0.586517 0
M  V30 4899 C 472.172 3.96558 -1.61014 0
M  V30 4900 C 471.498 5.24494 -1.0397 0
M  V30 4901 C 472.798 4.27595 -2.99933 0
M  V30 4902 H 474.492 2.28086 -1.93951 0
M  V30 4903 H 472.038 1.09607 -0.933928 0
M  V30 4904 H 473.991 4.19223 -0.427793 0
M  V30 4905 H 472.715 3.24431 0.375761 0
M  V30 4906 H 471.374 3.21776 -1.75658 0
M  V30 4907 H 471.022 5.02953 -0.0688703 0
M  V30 4908 H 470.722 5.61755 -1.72352 0
M  V30 4909 H 472.246 6.04042 -0.892494 0
M  V30 4910 H 473.66 4.95315 -2.8868 0
M  V30 4911 H 472.057 4.76021 -3.6541 0
M  V30 4912 H 473.127 3.35498 -3.50099 0
M  V30 4913 N 474.47 1.03057 1.19235 0
M  V30 4914 C 475.747 0.642608 1.84743 0
M  V30 4915 C 476.127 -0.878577 1.91948 0
M  V30 4916 O 475.475 -1.77597 1.43776 0
M  V30 4917 C 475.685 1.30665 3.23616 0
M  V30 4918 C 477.033 1.43098 3.9976 0
M  V30 4919 O 478.057 1.26396 3.3302 0
M  V30 4920 O 476.916 1.70223 5.19313 0
M  V30 4921 H 474.01 0.223573 0.796206 0
M  V30 4922 H 476.556 1.12883 1.26711 0
M  V30 4923 H 475.328 2.34544 3.13217 0
M  V30 4924 H 474.951 0.808405 3.89295 0
M  V30 4925 N 475.948 -1.35272 0.808662 0
M  V30 4926 C 477.195 -1.98709 0.390003 0
M  V30 4927 C 477.523 -1.64148 -1.04335 0
M  V30 4928 O 476.778 -0.897797 -1.73891 0
M  V30 4929 C 477.077 -3.53556 0.522798 0
M  V30 4930 C 476.743 -4.0799 1.91977 0
M  V30 4931 C 475.405 -4.22568 2.30195 0
M  V30 4932 C 477.757 -4.37442 2.83361 0
M  V30 4933 C 475.085 -4.63918 3.59162 0
M  V30 4934 C 477.437 -4.80232 4.11776 0
M  V30 4935 C 476.101 -4.93016 4.49991 0
M  V30 4936 H 475.371 -0.727127 0.142712 0
M  V30 4937 H 478.018 -1.6145 1.02985 0
M  V30 4938 H 476.323 -3.91287 -0.200494 0
M  V30 4939 H 478.02 -4.00598 0.179608 0
M  V30 4940 H 474.61 -3.97096 1.61284 0
M  V30 4941 H 478.794 -4.25731 2.55083 0
M  V30 4942 H 474.05 -4.72005 3.88615 0
M  V30 4943 H 478.224 -5.01982 4.82687 0
M  V30 4944 H 475.851 -5.24814 5.49976 0
M  V30 4945 N 477.426 -0.562348 -1.47226 0
M  V30 4946 C 478.672 -0.0485293 -2.03342 0
M  V30 4947 C 479.027 1.28898 -1.42839 0
M  V30 4948 O 478.32 1.82719 -0.576563 0
M  V30 4949 C 478.514 0.0969817 -3.57268 0
M  V30 4950 C 478.343 -1.22487 -4.32697 0
M  V30 4951 C 477.113 -1.79357 -4.72397 0
M  V30 4952 C 479.311 -2.14332 -4.67511 0
M  V30 4953 N 477.293 -3.05493 -5.32491 0
M  V30 4954 C 478.664 -3.25049 -5.27961 0
M  V30 4955 C 480.719 -2.14263 -4.4944 0
M  V30 4956 C 479.422 -4.35804 -5.72248 0
M  V30 4957 C 481.448 -3.24033 -4.94729 0
M  V30 4958 C 480.81 -4.3347 -5.55233 0
M  V30 4959 H 476.909 -0.0600464 -0.779691 0
M  V30 4960 H 479.493 -0.750769 -1.79643 0
M  V30 4961 H 477.664 0.768353 -3.80724 0
M  V30 4962 H 479.396 0.613333 -4.00025 0
M  V30 4963 H 476.151 -1.33093 -4.54514 0
M  V30 4964 H 476.575 -3.698 -5.67077 0
M  V30 4965 H 481.217 -1.30935 -4.02015 0
M  V30 4966 H 478.935 -5.19888 -6.18661 0
M  V30 4967 H 482.521 -3.25073 -4.82513 0
M  V30 4968 H 481.401 -5.17008 -5.89638 0
M  V30 4969 N 478.904 1.54736 -0.299062 0
M  V30 4970 C 480.132 2.04512 0.313447 0
M  V30 4971 C 480.547 1.17643 1.47667 0
M  V30 4972 O 479.904 0.20164 1.81383 0
M  V30 4973 C 479.955 3.53171 0.771542 0
M  V30 4974 O 479.676 4.36736 -0.345379 0
M  V30 4975 C 481.177 4.18936 1.4494 0
M  V30 4976 H 478.397 0.667507 0.0683784 0
M  V30 4977 H 480.941 1.99752 -0.438129 0
M  V30 4978 H 479.096 3.58298 1.47314 0
M  V30 4979 H 479.51 5.24499 0.0109219 0
M  V30 4980 H 480.984 5.24482 1.72111 0
M  V30 4981 H 481.461 3.68554 2.38883 0
M  V30 4982 H 482.067 4.17879 0.791028 0
M  V30 4983 N 480.382 0.0267497 1.57577 0
M  V30 4984 C 481.61 -0.662661 1.96001 0
M  V30 4985 C 482.025 -1.65799 0.903117 0
M  V30 4986 O 481.382 -1.82135 -0.115317 0
M  V30 4987 C 481.433 -1.37112 3.34488 0
M  V30 4988 O 481.154 -0.415683 4.36123 0
M  V30 4989 C 482.655 -2.15257 3.8753 0
M  V30 4990 H 479.875 -0.18287 0.6456 0
M  V30 4991 H 482.419 0.0858116 2.0432 0
M  V30 4992 H 480.574 -2.07101 3.27395 0
M  V30 4993 H 480.988 -0.918496 5.16395 0
M  V30 4994 H 482.462 -2.60285 4.86781 0
M  V30 4995 H 482.939 -2.99063 3.21649 0
M  V30 4996 H 483.545 -1.50231 3.97883 0
M  V30 4997 N 481.861 -1.55662 -0.24637 0
M  V30 4998 C 483.109 -1.77168 -0.972411 0
M  V30 4999 C 483.43 -0.590827 -1.85834 0
M  V30 5000 O 482.7 0.393365 -1.9191 0
M  V30 5001 H 481.28 -0.653405 -0.362038 0
M  V30 5002 H 483.942 -1.93101 -0.264189 0
M  V30 5003 H 483.038 -2.68335 -1.59382 0
M  V30 5004 N 483.339 0.512053 -1.4905 0
M  V30 5005 C 484.585 1.26874 -1.58212 0
M  V30 5006 C 484.918 1.9241 -0.263073 0
M  V30 5007 O 484.193 1.80181 0.732476 0
M  V30 5008 C 484.476 2.34428 -2.73341 0
M  V30 5009 C 484.329 1.73466 -4.15006 0
M  V30 5010 C 485.648 3.36073 -2.84154 0
M  V30 5011 H 482.767 0.459924 -0.575881 0
M  V30 5012 H 485.409 0.568587 -1.81293 0
M  V30 5013 H 483.559 2.94146 -2.53792 0
M  V30 5014 H 485.231 1.17661 -4.46042 0
M  V30 5015 H 483.474 1.03921 -4.21168 0
M  V30 5016 H 484.145 2.51426 -4.91415 0
M  V30 5017 H 486.621 2.86332 -3.01916 0
M  V30 5018 H 485.497 4.08703 -3.66406 0
M  V30 5019 H 485.758 3.97725 -1.93048 0
M  V30 5020 N 484.817 1.37938 0.762283 0
M  V30 5021 C 485.765 1.34569 1.89721 0
M  V30 5022 C 486.759 0.232929 1.67791 0
M  V30 5023 O 487.965 0.401485 1.75465 0
M  V30 5024 H 484.34 0.419594 0.624055 0
M  V30 5025 H 486.311 2.30357 1.8968 0
M  V30 5026 C 485.06 1.17898 3.27101 0
M  V30 5027 H 484.383 2.02781 3.44558 0
M  V30 5028 H 485.823 1.19593 4.06784 0
M  V30 5029 C 484.282 -0.114728 3.36705 0
M  V30 5030 O 484.812 -1.0949 3.8649 0
M  V30 5031 N 483.018 -0.16863 2.9011 0
M  V30 5032 H 482.565 0.62967 2.49786 0
M  V30 5033 H 482.523 -1.03383 2.96916 0
M  V30 5034 N 486.295 -0.989507 1.22664 0
M  V30 5035 C 487.543 -1.72612 1.05117 0
M  V30 5036 C 487.864 -1.90552 -0.414131 0
M  V30 5037 O 487.134 -1.4676 -1.29762 0
M  V30 5038 H 485.714 -0.639555 0.385977 0
M  V30 5039 H 488.376 -1.19158 1.54232 0
M  V30 5040 H 487.472 -2.71926 1.53175 0
M  V30 5041 N 487.773 -1.03688 -1.18687 0
M  V30 5042 C 489.001 -0.757918 -1.92518 0
M  V30 5043 C 489.416 0.684398 -1.75959 0
M  V30 5044 O 488.773 1.46617 -1.08673 0
M  V30 5045 C 488.824 -1.10985 -3.44042 0
M  V30 5046 O 488.545 -2.49554 -3.60076 0
M  V30 5047 C 490.046 -0.854844 -4.3498 0
M  V30 5048 H 487.266 -0.276699 -0.611293 0
M  V30 5049 H 489.81 -1.38352 -1.50595 0
M  V30 5050 H 487.965 -0.529279 -3.83767 0
M  V30 5051 H 488.379 -2.6291 -4.53849 0
M  V30 5052 H 489.853 -1.15098 -5.39867 0
M  V30 5053 H 490.33 0.210507 -4.38695 0
M  V30 5054 H 490.936 -1.41853 -4.00946 0
M  V30 5055 N 489.251 1.34841 -0.815825 0
M  V30 5056 C 490.667 1.51543 -0.500697 0
M  V30 5057 C 490.867 1.76261 0.976444 0
M  V30 5058 O 489.923 1.8094 1.76117 0
M  V30 5059 C 491.236 2.68487 -1.35407 0
M  V30 5060 C 492.784 2.82368 -1.35046 0
M  V30 5061 C 493.259 4.02347 -2.18816 0
M  V30 5062 N 494.75 4.09542 -2.16402 0
M  V30 5063 C 495.485 5.01517 -2.77971 0
M  V30 5064 N 494.981 5.98763 -3.48503 0
M  V30 5065 N 496.774 4.94334 -2.67563 0
M  V30 5066 H 488.925 1.17055 -1.77234 0
M  V30 5067 H 491.188 0.573481 -0.754866 0
M  V30 5068 H 490.894 2.56829 -2.40274 0
M  V30 5069 H 490.768 3.63321 -1.01377 0
M  V30 5070 H 493.155 2.93471 -0.309604 0
M  V30 5071 H 493.236 1.88363 -1.73069 0
M  V30 5072 H 492.88 3.92004 -3.22948 0
M  V30 5073 H 492.81 4.95551 -1.78148 0
M  V30 5074 H 495.301 3.39932 -1.65091 0
M  V30 5075 H 495.614 6.6556 -3.92747 0
M  V30 5076 H 493.959 5.98909 -3.52609 0
M  V30 5077 H 497.15 4.1732 -2.12041 0
M  V30 5078 H 497.323 5.6582 -3.15834 0
M  V30 5079 N 490.729 0.570148 1.46925 0
M  V30 5080 C 491.975 0.0510284 2.02736 0
M  V30 5081 C 492.308 -1.3006 1.44215 0
M  V30 5082 O 491.583 -1.84932 0.602521 0
M  V30 5083 C 491.866 -0.028215 3.60089 0
M  V30 5084 C 491.719 1.35142 4.29018 0
M  V30 5085 C 493.038 -0.735181 4.33916 0
M  V30 5086 H 490.157 0.0200178 0.736728 0
M  V30 5087 H 492.799 0.73493 1.75211 0
M  V30 5088 H 490.949 -0.610648 3.83671 0
M  V30 5089 H 492.621 1.97806 4.16738 0
M  V30 5090 H 490.864 1.9226 3.88868 0
M  V30 5091 H 491.535 1.24857 5.37694 0
M  V30 5092 H 494.011 -0.240519 4.15404 0
M  V30 5093 H 492.887 -0.759622 5.43618 0
M  V30 5094 H 493.148 -1.79397 4.04066 0
M  V30 5095 N 492.207 -1.54576 0.307264 0
M  V30 5096 C 493.432 -2.05139 -0.305379 0
M  V30 5097 C 493.857 -1.18278 -1.46259 0
M  V30 5098 O 493.215 -0.188243 -1.8032 0
M  V30 5099 C 493.263 -3.53066 -0.733283 0
M  V30 5100 O 492.367 -3.69206 -1.83741 0
M  V30 5101 H 491.708 -0.661444 -0.0582105 0
M  V30 5102 H 494.238 -1.99569 0.450931 0
M  V30 5103 H 494.248 -3.95034 -1.02039 0
M  V30 5104 H 492.923 -4.15746 0.113198 0
M  V30 5105 H 491.5 -3.39143 -1.55037 0
M  V30 5106 N 493.685 -0.035106 -1.57561 0
M  V30 5107 C 494.915 0.651312 -1.96065 0
M  V30 5108 C 495.323 1.6585 -0.910514 0
M  V30 5109 O 494.666 1.83336 0.11552 0
M  V30 5110 C 494.728 1.40897 -3.30739 0
M  V30 5111 C 494.392 0.559436 -4.53563 0
M  V30 5112 C 495.389 -0.16778 -5.19629 0
M  V30 5113 C 493.074 0.495079 -4.99854 0
M  V30 5114 C 495.068 -0.947963 -6.30311 0
M  V30 5115 C 492.755 -0.288804 -6.10417 0
M  V30 5116 C 493.753 -1.00903 -6.75505 0
M  V30 5117 O 493.441 -1.78005 -7.83945 0
M  V30 5118 H 493.173 0.184036 -0.650467 0
M  V30 5119 H 495.727 -0.0929677 -2.05189 0
M  V30 5120 H 493.957 2.19852 -3.18123 0
M  V30 5121 H 495.646 1.98407 -3.54104 0
M  V30 5122 H 496.412 -0.12743 -4.84833 0
M  V30 5123 H 492.291 1.04524 -4.48994 0
M  V30 5124 H 495.835 -1.51064 -6.81047 0
M  V30 5125 H 491.732 -0.33085 -6.44652 0
M  V30 5126 H 492.5 -1.70046 -8.00641 0
M  V30 5127 N 495.163 1.55791 0.238111 0
M  V30 5128 C 496.391 1.82098 0.982233 0
M  V30 5129 C 496.806 0.612025 1.78605 0
M  V30 5130 O 496.163 -0.419381 1.77616 0
M  V30 5131 C 496.214 3.0673 1.91309 0
M  V30 5132 O 495.935 4.2296 1.14179 0
M  V30 5133 C 497.436 3.45903 2.77248 0
M  V30 5134 H 494.656 0.605748 0.288635 0
M  V30 5135 H 497.2 2.02862 0.258341 0
M  V30 5136 H 495.355 2.87991 2.59114 0
M  V30 5137 H 495.769 4.93653 1.7722 0
M  V30 5138 H 497.243 4.36189 3.38295 0
M  V30 5139 H 497.72 2.66891 3.48806 0
M  V30 5140 H 498.326 3.67024 2.14881 0
M  V30 5141 N 496.642 -0.504142 1.49319 0
M  V30 5142 C 498.053 -1.08572 1.51885 0
M  V30 5143 C 498.404 -1.93842 0.303255 0
M  V30 5144 O 497.529 -2.0828 -0.58724 0
M  V30 5145 C 498.124 -1.97574 2.75227 0
M  V30 5146 C 496.683 -2.509 2.80581 0
M  V30 5147 C 495.83 -1.28447 2.45757 0
M  V30 5148 H 498.781 -0.288194 1.56061 0
M  V30 5149 H 498.802 -2.82219 2.55211 0
M  V30 5150 H 498.314 -1.35486 3.63683 0
M  V30 5151 H 496.415 -3.16636 1.96398 0
M  V30 5152 H 496.528 -2.88268 3.82673 0
M  V30 5153 H 494.892 -1.60868 1.97468 0
M  V30 5154 H 495.675 -0.68072 3.36483 0
M  V30 5155 N 498.12 -1.38341 -0.754957 0
M  V30 5156 C 499.067 -1.3546 -1.86867 0
M  V30 5157 C 500.037 -0.217369 -1.64672 0
M  V30 5158 O 501.222 -0.409383 -1.86356 0
M  V30 5159 C 498.362 -1.18413 -3.24149 0
M  V30 5160 C 497.475 -2.41511 -3.58185 0
M  V30 5161 C 496.61 -2.17205 -4.84763 0
M  V30 5162 C 495.649 -3.36081 -5.11582 0
M  V30 5163 N 494.786 -3.11219 -6.29354 0
M  V30 5164 H 499.626 -2.30672 -1.88664 0
M  V30 5165 H 497.163 -1.14607 -0.922154 0
M  V30 5166 H 499.121 -1.06545 -4.03366 0
M  V30 5167 H 497.751 -0.268397 -3.21682 0
M  V30 5168 H 496.803 -2.64056 -2.73822 0
M  V30 5169 H 498.115 -3.30115 -3.73932 0
M  V30 5170 H 497.269 -2.02465 -5.7192 0
M  V30 5171 H 496.008 -1.25964 -4.71152 0
M  V30 5172 H 495.013 -3.51341 -4.22894 0
M  V30 5173 H 496.238 -4.28196 -5.27091 0
M  V30 5174 H 494.184 -2.22624 -6.17069 0
M  V30 5175 H 494.101 -3.93373 -6.45596 0
M  V30 5176 H 495.369 -3.00132 -7.19403 0
M  V30 5177 N 499.598 0.982988 -1.23187 0
M  V30 5178 C 500.846 1.72052 -1.06031 0
M  V30 5179 C 501.167 1.90769 0.404019 0
M  V30 5180 O 500.437 1.47446 1.28982 0
M  V30 5181 H 499.017 0.637499 -0.389363 0
M  V30 5182 H 501.679 1.18338 -1.54862 0
M  V30 5183 H 500.775 2.7111 -1.54615 0
M  V30 5184 N 501.076 1.04316 1.18135 0
M  V30 5185 C 502.006 0.657299 2.24058 0
M  V30 5186 C 502.987 -0.340678 1.66654 0
M  V30 5187 O 504.172 -0.220223 1.92947 0
M  V30 5188 C 501.302 0.0220715 3.47293 0
M  V30 5189 C 500.256 0.943857 4.17463 0
M  V30 5190 C 499.582 0.172973 5.3442 0
M  V30 5191 C 500.882 2.26409 4.70677 0
M  V30 5192 H 502.576 1.5428 2.56589 0
M  V30 5193 H 500.122 0.743263 1.23335 0
M  V30 5194 H 502.075 -0.259607 4.206 0
M  V30 5195 H 500.799 -0.898323 3.14003 0
M  V30 5196 H 499.458 1.20996 3.46057 0
M  V30 5197 H 499.106 -0.749907 4.97379 0
M  V30 5198 H 498.806 0.787098 5.82304 0
M  V30 5199 H 500.33 -0.101628 6.10515 0
M  V30 5200 H 501.744 2.04294 5.35665 0
M  V30 5201 H 500.141 2.8314 5.29105 0
M  V30 5202 H 501.211 2.90883 3.87962 0
M  V30 5203 N 502.554 -1.34406 0.822964 0
M  V30 5204 C 503.517 -2.2783 0.250271 0
M  V30 5205 C 504.517 -1.50288 -0.571854 0
M  V30 5206 O 505.707 -1.69825 -0.387952 0
M  V30 5207 C 502.839 -3.34663 -0.649137 0
M  V30 5208 H 504.032 -2.79992 1.07444 0
M  V30 5209 H 501.585 -1.44539 0.594829 0
M  V30 5210 H 502.32 -2.87714 -1.49637 0
M  V30 5211 H 502.105 -3.92052 -0.0611199 0
M  V30 5212 H 503.595 -4.04349 -1.04363 0
M  V30 5213 N 504.032 -0.577932 -1.46621 0
M  V30 5214 C 505.278 -0.0700937 -2.03279 0
M  V30 5215 C 505.633 1.27376 -1.44198 0
M  V30 5216 O 504.926 1.82097 -0.595911 0
M  V30 5217 C 505.12 0.0590832 -3.57351 0
M  V30 5218 C 504.949 -1.2707 -4.31374 0
M  V30 5219 C 503.719 -1.84357 -4.70469 0
M  V30 5220 C 505.917 -2.19278 -4.65211 0
M  V30 5221 N 503.899 -3.11124 -5.29221 0
M  V30 5222 C 505.27 -3.30631 -5.24484 0
M  V30 5223 C 507.325 -2.19018 -4.47142 0
M  V30 5224 C 506.028 -4.41849 -5.67593 0
M  V30 5225 C 508.054 -3.29262 -4.91264 0
M  V30 5226 C 507.416 -4.39335 -5.50604 0
M  V30 5227 H 503.515 -0.0683127 -0.779011 0
M  V30 5228 H 506.099 -0.76978 -1.78836 0
M  V30 5229 H 504.27 0.727929 -3.81518 0
M  V30 5230 H 506.002 0.57087 -4.00653 0
M  V30 5231 H 502.757 -1.37906 -4.53077 0
M  V30 5232 H 503.181 -3.75794 -5.63123 0
M  V30 5233 H 507.823 -1.35191 -4.00604 0
M  V30 5234 H 505.541 -5.26421 -6.13112 0
M  V30 5235 H 509.127 -3.30172 -4.79038 0
M  V30 5236 H 508.007 -5.23233 -5.84121 0
M  V30 5237 N 505.51 1.54411 -0.315457 0
M  V30 5238 C 506.44 2.27002 0.547039 0
M  V30 5239 C 507.421 1.27492 1.12605 0
M  V30 5240 O 508.606 1.5629 1.15269 0
M  V30 5241 C 505.736 3.02171 1.71201 0
M  V30 5242 C 504.69 4.0895 1.26268 0
M  V30 5243 C 504.016 4.71915 2.51396 0
M  V30 5244 C 505.316 5.20891 0.383419 0
M  V30 5245 H 507.01 2.99343 -0.0584517 0
M  V30 5246 H 504.556 1.4397 -0.0295527 0
M  V30 5247 H 506.509 3.51681 2.32161 0
M  V30 5248 H 505.233 2.27433 2.34397 0
M  V30 5249 H 503.892 3.60312 0.676062 0
M  V30 5250 H 503.54 3.93801 3.12937 0
M  V30 5251 H 503.24 5.44039 2.22026 0
M  V30 5252 H 504.764 5.24195 3.13133 0
M  V30 5253 H 506.178 5.66206 0.899082 0
M  V30 5254 H 504.575 5.99821 0.182857 0
M  V30 5255 H 505.645 4.81324 -0.587821 0
M  V30 5256 N 506.988 0.0434614 1.5754 0
M  V30 5257 C 508.235 -0.632035 1.92384 0
M  V30 5258 C 508.563 -1.71304 0.921157 0
M  V30 5259 O 507.818 -1.95583 -0.067744 0
M  V30 5260 C 508.117 -1.2738 3.3393 0
M  V30 5261 C 507.783 -0.321757 4.49751 0
M  V30 5262 C 506.445 -0.0597611 4.81163 0
M  V30 5263 C 508.797 0.331158 5.20147 0
M  V30 5264 C 506.125 0.862715 5.80322 0
M  V30 5265 C 508.477 1.24178 6.20292 0
M  V30 5266 C 507.141 1.51252 6.50138 0
M  V30 5267 H 506.411 -0.231278 0.703983 0
M  V30 5268 H 509.058 0.108294 1.91194 0
M  V30 5269 H 507.363 -2.08921 3.3145 0
M  V30 5270 H 509.06 -1.80326 3.58167 0
M  V30 5271 H 505.65 -0.53614 4.25233 0
M  V30 5272 H 509.834 0.141826 4.96097 0
M  V30 5273 H 505.09 1.08003 6.01785 0
M  V30 5274 H 509.264 1.75381 6.73954 0
M  V30 5275 H 506.891 2.22897 7.26788 0
M  V30 5276 N 508.466 -1.55915 -0.229846 0
M  V30 5277 C 509.398 -1.88209 -1.30805 0
M  V30 5278 C 510.411 -0.769672 -1.43457 0
M  V30 5279 O 511.6 -1.04792 -1.44502 0
M  V30 5280 C 508.7 -2.06829 -2.68468 0
M  V30 5281 C 507.873 -3.37798 -2.77869 0
M  V30 5282 C 506.932 -3.45952 -3.96489 0
M  V30 5283 O 505.958 -4.19043 -3.85216 0
M  V30 5284 N 507.16 -2.76488 -5.10426 0
M  V30 5285 H 509.925 -2.81286 -1.03431 0
M  V30 5286 H 507.486 -1.5636 -0.41991 0
M  V30 5287 H 509.478 -2.09608 -3.46189 0
M  V30 5288 H 508.048 -1.20416 -2.88477 0
M  V30 5289 H 507.268 -3.4719 -1.86689 0
M  V30 5290 H 508.556 -4.24091 -2.81113 0
M  V30 5291 H 507.954 -2.16868 -5.2248 0
M  V30 5292 H 506.511 -2.84938 -5.8622 0
M  V30 5293 N 509.944 0.496216 -1.49584 0
M  V30 5294 C 511.19 1.24918 -1.60521 0
M  V30 5295 C 511.545 1.90197 -0.290352 0
M  V30 5296 O 510.838 1.77967 0.709813 0
M  V30 5297 C 511.032 2.3359 -2.705 0
M  V30 5298 C 510.861 1.78969 -4.12553 0
M  V30 5299 C 509.631 1.60057 -4.79281 0
M  V30 5300 C 511.829 1.29883 -4.97629 0
M  V30 5301 N 509.811 1.00415 -6.05632 0
M  V30 5302 C 511.182 0.824057 -6.14499 0
M  V30 5303 C 513.237 1.18501 -4.83593 0
M  V30 5304 C 511.94 0.246721 -7.18877 0
M  V30 5305 C 513.966 0.621634 -5.88124 0
M  V30 5306 C 513.328 0.157116 -7.04225 0
M  V30 5307 H 509.427 0.446896 -0.641722 0
M  V30 5308 H 512.011 0.555456 -1.86609 0
M  V30 5309 H 510.182 3.00418 -2.46178 0
M  V30 5310 H 511.914 3.00628 -2.70933 0
M  V30 5311 H 508.669 1.84562 -4.36158 0
M  V30 5312 H 509.093 0.725074 -6.73106 0
M  V30 5313 H 513.735 1.53012 -3.94141 0
M  V30 5314 H 511.453 -0.110651 -8.08024 0
M  V30 5315 H 515.039 0.536279 -5.79323 0
M  V30 5316 H 513.919 -0.272009 -7.83728 0
M  V30 5317 N 511.423 1.38739 0.74761 0
M  V30 5318 C 512.671 1.35007 1.50391 0
M  V30 5319 C 512.992 -0.0574274 1.94915 0
M  V30 5320 O 512.262 -1.00628 1.6808 0
M  V30 5321 H 510.842 0.496784 0.557866 0
M  V30 5322 H 513.504 1.73479 0.888319 0
M  V30 5323 H 512.6 2.00474 2.392 0
M  V30 5324 N 512.901 -0.976442 1.23707 0
M  V30 5325 C 514.126 -1.75875 1.09922 0
M  V30 5326 C 514.551 -1.84911 -0.34489 0
M  V30 5327 O 513.909 -1.31363 -1.24954 0
M  V30 5328 C 513.957 -3.16179 1.73388 0
M  V30 5329 O 513.061 -4.00124 0.99871 0
M  V30 5330 H 512.402 -0.540954 0.385052 0
M  V30 5331 H 514.932 -1.22546 1.6384 0
M  V30 5332 H 514.942 -3.66741 1.78788 0
M  V30 5333 H 513.617 -3.08917 2.78466 0
M  V30 5334 H 512.194 -3.58624 1.02193 0
M  V30 5335 N 514.379 -1.04941 -1.1758 0
M  V30 5336 C 515.309 -0.669172 -2.23706 0
M  V30 5337 C 516.29 0.331835 -1.66832 0
M  V30 5338 O 517.475 0.209988 -1.93061 0
M  V30 5339 C 514.605 -0.0404889 -3.47276 0
M  V30 5340 C 513.559 -0.965983 -4.16957 0
M  V30 5341 C 512.885 -0.201312 -5.34321 0
M  V30 5342 C 514.185 -2.28902 -4.69469 0
M  V30 5343 H 515.879 -1.55639 -2.55767 0
M  V30 5344 H 513.425 -0.749793 -1.22939 0
M  V30 5345 H 515.378 0.237298 -4.20731 0
M  V30 5346 H 514.102 0.881658 -3.14475 0
M  V30 5347 H 512.761 -1.22829 -3.45411 0
M  V30 5348 H 512.409 0.723519 -4.97769 0
M  V30 5349 H 512.109 -0.817968 -5.81879 0
M  V30 5350 H 513.633 0.0692499 -6.10561 0
M  V30 5351 H 515.047 -2.07132 -5.34574 0
M  V30 5352 H 513.444 -2.85942 -5.27596 0
M  V30 5353 H 514.514 -2.92937 -3.86414 0
M  V30 5354 N 515.857 1.33968 -0.830081 0
M  V30 5355 C 517.273 1.51003 -0.516742 0
M  V30 5356 C 517.473 1.77286 0.957694 0
M  V30 5357 O 516.529 1.82797 1.74188 0
M  V30 5358 C 517.842 2.67036 -1.38247 0
M  V30 5359 C 519.39 2.80919 -1.38034 0
M  V30 5360 C 519.865 4.00004 -2.23071 0
M  V30 5361 N 521.356 4.07224 -2.20733 0
M  V30 5362 C 522.091 4.98541 -2.83275 0
M  V30 5363 N 521.587 5.95033 -3.54835 0
M  V30 5364 N 523.38 4.91469 -2.72791 0
M  V30 5365 H 515.531 1.15168 -1.78466 0
M  V30 5366 H 517.794 0.565443 -0.760906 0
M  V30 5367 H 517.5 2.54266 -2.42985 0
M  V30 5368 H 517.374 3.62226 -1.05225 0
M  V30 5369 H 519.761 2.93127 -0.340713 0
M  V30 5370 H 519.842 1.86517 -1.75057 0
M  V30 5371 H 519.486 3.88557 -3.27087 0
M  V30 5372 H 519.416 4.93634 -1.83394 0
M  V30 5373 H 521.907 3.38162 -1.68687 0
M  V30 5374 H 522.22 6.61357 -3.99784 0
M  V30 5375 H 520.565 5.95135 -3.58942 0
M  V30 5376 H 523.756 4.15048 -2.16456 0
M  V30 5377 H 523.929 5.62439 -3.21818 0
M  V30 5378 N 517.335 0.585699 1.46312 0
M  V30 5379 C 518.285 -0.166813 2.27389 0
M  V30 5380 C 519.269 -0.859076 1.36047 0
M  V30 5381 O 520.461 -0.752678 1.60199 0
M  V30 5382 C 517.59 -1.17791 3.2246 0
M  V30 5383 C 516.676 -0.487605 4.21288 0
M  V30 5384 N 517.067 0.45849 5.03718 0
M  V30 5385 C 515.365 -0.737971 4.39852 0
M  V30 5386 C 516.066 0.862213 5.75275 0
M  V30 5387 N 515.042 0.210707 5.43191 0
M  V30 5388 H 518.844 0.560167 2.88512 0
M  V30 5389 H 516.358 0.407715 1.57199 0
M  V30 5390 H 518.355 -1.73122 3.79255 0
M  V30 5391 H 517.015 -1.90568 2.62896 0
M  V30 5392 H 518.026 0.834163 5.11138 0
M  V30 5393 H 514.703 -1.45209 3.91434 0
M  V30 5394 H 516.093 1.64128 6.51546 0
M  V30 5395 N 518.813 -1.54241 0.323641 0
M  V30 5396 C 519.776 -2.22997 -0.529602 0
M  V30 5397 C 520.776 -1.22345 -1.04347 0
M  V30 5398 O 521.966 -1.46924 -0.935889 0
M  V30 5399 C 519.098 -2.93409 -1.73562 0
M  V30 5400 H 520.291 -2.99815 0.0714518 0
M  V30 5401 H 517.844 -1.56121 0.0747258 0
M  V30 5402 H 518.579 -2.20729 -2.37591 0
M  V30 5403 H 518.364 -3.67217 -1.37456 0
M  V30 5404 H 519.854 -3.45794 -2.34128 0
M  V30 5405 N 520.291 -0.0518155 -1.57515 0
M  V30 5406 C 521.519 0.631395 -1.9703 0
M  V30 5407 C 521.934 1.64341 -0.92938 0
M  V30 5408 O 521.291 1.82296 0.0863266 0
M  V30 5409 C 521.342 1.31774 -3.36627 0
M  V30 5410 O 521.063 0.346247 -4.3673 0
M  V30 5411 C 522.564 2.09065 -3.90905 0
M  V30 5412 H 519.784 0.172576 -0.648428 0
M  V30 5413 H 522.328 -0.118306 -2.04158 0
M  V30 5414 H 520.483 2.01867 -3.30649 0
M  V30 5415 H 520.897 0.836226 -5.17791 0
M  V30 5416 H 522.371 2.52508 -4.9086 0
M  V30 5417 H 522.848 2.93908 -3.26366 0
M  V30 5418 H 523.454 1.43882 -4.00223 0
M  V30 5419 N 521.769 1.56035 0.221574 0
M  V30 5420 C 522.997 1.8313 0.962864 0
M  V30 5421 C 523.412 0.630934 1.77946 0
M  V30 5422 O 522.769 -0.400519 1.78051 0
M  V30 5423 C 522.82 3.08742 1.88045 0
M  V30 5424 O 522.541 4.24147 1.09686 0
M  V30 5425 C 524.042 3.48824 2.73563 0
M  V30 5426 H 521.262 0.608775 0.282194 0
M  V30 5427 H 523.806 2.03124 0.23681 0
M  V30 5428 H 521.961 2.90723 2.56045 0
M  V30 5429 H 522.375 4.95505 1.71974 0
M  V30 5430 H 523.849 4.39752 3.3365 0
M  V30 5431 H 524.326 2.70575 3.45956 0
M  V30 5432 H 524.932 3.69282 2.10976 0
M  V30 5433 N 523.247 -0.488276 1.49845 0
M  V30 5434 C 524.179 -1.60539 1.63584 0
M  V30 5435 C 525.192 -1.5434 0.517972 0
M  V30 5436 O 526.381 -1.60041 0.790516 0
M  V30 5437 C 523.481 -2.99374 1.58835 0
M  V30 5438 C 522.654 -3.30624 2.86368 0
M  V30 5439 C 521.713 -4.4893 2.74496 0
M  V30 5440 O 520.739 -4.50085 3.48443 0
M  V30 5441 N 521.941 -5.49591 1.86894 0
M  V30 5442 H 524.706 -1.49176 2.59936 0
M  V30 5443 H 522.267 -0.67639 1.47094 0
M  V30 5444 H 524.259 -3.76459 1.48529 0
M  V30 5445 H 522.829 -3.04595 0.702892 0
M  V30 5446 H 522.049 -2.42314 3.1093 0
M  V30 5447 H 523.337 -3.48305 3.70892 0
M  V30 5448 H 522.735 -5.51467 1.26097 0
M  V30 5449 H 521.292 -6.25728 1.82503 0
M  V30 5450 N 524.725 -1.39134 -0.740242 0
M  V30 5451 C 525.688 -1.37217 -1.83587 0
M  V30 5452 C 526.688 -0.270221 -1.58513 0
M  V30 5453 O 527.878 -0.527843 -1.6601 0
M  V30 5454 C 525.01 -1.13959 -3.21288 0
M  V30 5455 H 526.203 -2.34705 -1.86691 0
M  V30 5456 H 523.756 -1.24622 -0.94335 0
M  V30 5457 H 524.491 -0.17131 -3.23847 0
M  V30 5458 H 524.276 -1.93754 -3.40884 0
M  V30 5459 H 525.766 -1.15346 -4.01354 0
M  V30 5460 N 526.204 0.969867 -1.24223 0
M  V30 5461 C 527.451 1.71256 -1.08063 0
M  V30 5462 C 527.779 1.90734 0.380872 0
M  V30 5463 O 527.034 1.46469 1.29789 0
M  V30 5464 C 527.333 3.10883 -1.76314 0
M  V30 5465 C 526.999 3.11252 -3.26241 0
M  V30 5466 C 525.661 3.1106 -3.67144 0
M  V30 5467 C 528.013 3.05751 -4.22097 0
M  V30 5468 C 525.341 3.03097 -5.02344 0
M  V30 5469 C 527.693 2.9933 -5.57301 0
M  V30 5470 C 526.357 2.97466 -5.97554 0
M  V30 5471 H 525.627 0.62667 -0.395431 0
M  V30 5472 H 528.274 1.13422 -1.54297 0
M  V30 5473 H 526.579 3.72168 -1.22468 0
M  V30 5474 H 528.276 3.67138 -1.61277 0
M  V30 5475 H 524.866 3.12165 -2.93685 0
M  V30 5476 H 529.05 3.05031 -3.91497 0
M  V30 5477 H 524.306 3.00013 -5.32731 0
M  V30 5478 H 528.48 2.94033 -6.31283 0
M  V30 5479 H 526.107 2.91051 -7.02277 0
M  V30 5480 N 527.682 1.05563 1.17022 0
M  V30 5481 C 528.612 0.681026 2.23348 0
M  V30 5482 C 529.593 -0.322983 1.67005 0
M  V30 5483 O 530.778 -0.199746 1.9317 0
M  V30 5484 C 527.908 0.0589053 3.4725 0
M  V30 5485 C 526.862 0.988082 4.16438 0
M  V30 5486 C 526.188 0.229646 5.34207 0
M  V30 5487 C 527.488 2.31388 4.68249 0
M  V30 5488 H 529.182 1.56993 2.54938 0
M  V30 5489 H 526.728 0.756302 1.2254 0
M  V30 5490 H 528.681 -0.214982 4.20851 0
M  V30 5491 H 527.405 -0.864968 3.14938 0
M  V30 5492 H 526.064 1.24659 3.44754 0
M  V30 5493 H 525.712 -0.697111 4.98146 0
M  V30 5494 H 525.412 0.848815 5.81437 0
M  V30 5495 H 526.936 -0.0368694 6.10589 0
M  V30 5496 H 528.35 2.09964 5.33468 0
M  V30 5497 H 526.747 2.88736 5.26072 0
M  V30 5498 H 527.817 2.94982 3.84855 0
M  V30 5499 N 529.16 -1.33526 0.837174 0
M  V30 5500 C 530.123 -2.27551 0.274421 0
M  V30 5501 C 531.123 -1.50886 -0.555881 0
M  V30 5502 O 532.313 -1.70227 -0.369918 0
M  V30 5503 C 529.445 -3.35332 -0.613605 0
M  V30 5504 H 530.638 -2.78837 1.10408 0
M  V30 5505 H 528.191 -1.439 0.610126 0
M  V30 5506 H 528.926 -2.89285 -1.46577 0
M  V30 5507 H 528.711 -3.92095 -0.0195341 0
M  V30 5508 H 530.201 -4.05433 -1.00068 0
M  V30 5509 N 530.638 -0.59345 -1.46 0
M  V30 5510 C 531.886 -0.082988 -2.0193 0
M  V30 5511 C 532.207 1.28569 -1.46612 0
M  V30 5512 O 531.477 1.84629 -0.654909 0
M  V30 5513 H 530.057 -0.0276882 -0.746487 0
M  V30 5514 H 532.719 -0.771657 -1.78973 0
M  V30 5515 H 531.815 -0.022079 -3.12092 0
M  V30 5516 N 532.116 1.54067 -0.331816 0
M  V30 5517 C 533.362 2.01012 0.268667 0
M  V30 5518 C 533.695 1.2195 1.51136 0
M  V30 5519 O 532.97 0.303972 1.9211 0
M  V30 5520 C 533.253 3.55158 0.59456 0
M  V30 5521 C 533.106 4.4494 -0.659409 0
M  V30 5522 C 534.425 4.16939 1.4089 0
M  V30 5523 H 531.544 0.730698 0.0961756 0
M  V30 5524 H 534.186 1.84593 -0.450031 0
M  V30 5525 H 532.336 3.6928 1.20685 0
M  V30 5526 H 534.008 4.42675 -1.29756 0
M  V30 5527 H 532.251 4.1428 -1.28665 0
M  V30 5528 H 532.922 5.50643 -0.386804 0
M  V30 5529 H 535.398 4.06443 0.891272 0
M  V30 5530 H 534.274 5.24889 1.60569 0
M  V30 5531 H 534.535 3.70798 2.40752 0
M  V30 5532 N 533.594 0.0601682 1.57485 0
M  V30 5533 C 534.824 -0.620037 1.97076 0
M  V30 5534 C 535.232 -1.64381 0.936784 0
M  V30 5535 O 534.575 -1.83497 -0.0863377 0
M  V30 5536 C 534.637 -1.35617 3.32939 0
M  V30 5537 C 534.301 -0.487208 4.54396 0
M  V30 5538 C 535.298 0.250428 5.19297 0
M  V30 5539 C 532.983 -0.415494 5.00579 0
M  V30 5540 C 534.977 1.04812 6.28723 0
M  V30 5541 C 532.664 0.385879 6.0988 0
M  V30 5542 C 533.662 1.11637 6.73815 0
M  V30 5543 O 533.35 1.90454 7.81014 0
M  V30 5544 H 533.082 -0.173664 0.653312 0
M  V30 5545 H 535.636 0.1256 2.05016 0
M  V30 5546 H 533.866 -2.14763 3.2158 0
M  V30 5547 H 535.555 -1.92749 3.57215 0
M  V30 5548 H 536.321 0.204546 4.84568 0
M  V30 5549 H 532.2 -0.973679 4.506 0
M  V30 5550 H 535.744 1.6188 6.78558 0
M  V30 5551 H 531.641 0.433366 6.44044 0
M  V30 5552 H 532.409 1.82762 7.97835 0
M  V30 5553 N 535.072 -1.5615 -0.213296 0
M  V30 5554 C 536.035 -1.92249 -1.24792 0
M  V30 5555 C 537.035 -0.801828 -1.39382 0
M  V30 5556 O 538.225 -1.06948 -1.37506 0
M  V30 5557 C 535.357 -2.18056 -2.62039 0
M  V30 5558 H 536.55 -2.84793 -0.939845 0
M  V30 5559 H 534.103 -1.49559 -0.454062 0
M  V30 5560 H 534.838 -1.2809 -2.97932 0
M  V30 5561 H 534.623 -2.99703 -2.52825 0
M  V30 5562 H 536.113 -2.47051 -3.36683 0
M  V30 5563 N 536.55 0.480323 -1.50102 0
M  V30 5564 C 537.46 1.60547 -1.71061 0
M  V30 5565 C 538.476 1.63564 -0.593529 0
M  V30 5566 O 539.652 1.81604 -0.870751 0
M  V30 5567 C 536.717 2.96814 -1.79171 0
M  V30 5568 C 535.778 3.04259 -3.02861 0
M  V30 5569 C 535.011 4.34027 -3.10574 0
M  V30 5570 O 535.234 5.24009 -2.25323 0
M  V30 5571 O 534.168 4.46873 -4.03223 0
M  V30 5572 H 537.994 1.45788 -2.6642 0
M  V30 5573 H 535.579 0.658838 -1.34088 0
M  V30 5574 H 537.461 3.77765 -1.86738 0
M  V30 5575 H 536.136 3.11791 -0.869947 0
M  V30 5576 H 535.043 2.22419 -3.008 0
M  V30 5577 H 536.376 2.94216 -3.94586 0
M  V30 5578 N 538.028 1.39524 0.732853 0
M  V30 5579 C 539.274 1.38072 1.49358 0
M  V30 5580 C 539.629 -0.0227943 1.92386 0
M  V30 5581 O 538.922 -0.98976 1.64056 0
M  V30 5582 C 539.116 2.28916 2.74468 0
M  V30 5583 C 538.945 3.7796 2.43673 0
M  V30 5584 C 537.715 4.46874 2.35863 0
M  V30 5585 C 539.913 4.69886 2.09074 0
M  V30 5586 N 537.895 5.81242 1.97561 0
M  V30 5587 C 539.266 5.9292 1.81234 0
M  V30 5588 C 541.321 4.57887 1.95561 0
M  V30 5589 C 540.024 7.05297 1.41242 0
M  V30 5590 C 542.05 5.70187 1.56972 0
M  V30 5591 C 541.412 6.92297 1.30018 0
M  V30 5592 H 537.511 0.56051 0.5453 0
M  V30 5593 H 540.095 1.75093 0.85151 0
M  V30 5594 H 538.266 1.9405 3.36451 0
M  V30 5595 H 539.998 2.18441 3.40684 0
M  V30 5596 H 536.753 4.00341 2.5303 0
M  V30 5597 H 537.177 6.52356 1.80997 0
M  V30 5598 H 541.819 3.64014 2.15067 0
M  V30 5599 H 539.537 7.99069 1.20476 0
M  V30 5600 H 543.123 5.62892 1.47119 0
M  V30 5601 H 542.003 7.7772 1.00605 0
M  V30 5602 N 539.506 -0.963266 1.24736 0
M  V30 5603 C 540.416 -2.09246 1.06082 0
M  V30 5604 C 541.432 -1.74 0.000363101 0
M  V30 5605 O 542.608 -2.0041 0.199479 0
M  V30 5606 C 539.673 -3.40115 0.672498 0
M  V30 5607 C 538.734 -3.89282 1.80993 0
M  V30 5608 C 537.967 -5.13905 1.44004 0
M  V30 5609 O 538.19 -5.69434 0.331835 0
M  V30 5610 O 537.124 -5.57566 2.26723 0
M  V30 5611 H 540.95 -2.27881 2.00759 0
M  V30 5612 H 538.535 -1.07649 1.03595 0
M  V30 5613 H 540.417 -4.18797 0.467668 0
M  V30 5614 H 539.092 -3.22771 -0.245102 0
M  V30 5615 H 537.999 -3.11642 2.06955 0
M  V30 5616 H 539.332 -4.1111 2.70646 0
M  V30 5617 N 540.985 -1.06182 -1.16461 0
M  V30 5618 C 542.233 -0.776326 -1.86595 0
M  V30 5619 C 542.554 0.69921 -1.82033 0
M  V30 5620 O 541.824 1.50579 -1.2531 0
M  V30 5621 H 540.404 -0.284184 -0.690832 0
M  V30 5622 H 543.066 -1.34308 -1.41235 0
M  V30 5623 H 542.162 -1.10022 -2.92064 0
M  V30 5624 N 542.463 1.3308 -0.844243 0
M  V30 5625 C 543.703 1.99414 -0.448697 0
M  V30 5626 C 544.067 1.65398 0.975058 0
M  V30 5627 O 545.268 2.24741 1.47461 0
M  V30 5628 C 543.539 3.51081 -0.669089 0
M  V30 5629 S 545.098 4.37241 -0.369564 0
M  V30 5630 H 541.916 0.690736 -0.168538 0
M  V30 5631 H 544.518 1.61977 -1.0947 0
M  V30 5632 H 543.222 3.73326 -1.70457 0
M  V30 5633 H 542.753 3.93399 -0.00913211 0
M  V30 5634 H 544.768 4.89568 0.808552 0
M  V30 5635 N 543.941 0.601185 1.45683 0
M  V30 5636 C 545.169 0.100054 2.06658 0
M  V30 5637 C 545.584 -1.21285 1.44691 0
M  V30 5638 O 544.941 -1.73735 0.558772 0
M  V30 5639 C 544.992 -0.0528579 3.61461 0
M  V30 5640 O 544.713 1.20809 4.21114 0
M  V30 5641 C 546.214 -0.586193 4.39407 0
M  V30 5642 H 543.434 0.065905 0.667756 0
M  V30 5643 H 545.978 0.827101 1.87028 0
M  V30 5644 H 544.133 -0.730203 3.80456 0
M  V30 5645 H 544.547 1.03368 5.14213 0
M  V30 5646 H 546.021 -0.642297 5.4825 0
M  V30 5647 H 546.498 -1.60713 4.0874 0
M  V30 5648 H 547.104 0.0568935 4.25262 0
M  V30 5649 N 545.419 -1.53889 0.339982 0
M  V30 5650 C 546.83 -1.86139 -0.144671 0
M  V30 5651 C 547.181 -1.2613 -1.50285 0
M  V30 5652 O 546.306 -0.573515 -2.08662 0
M  V30 5653 C 546.901 -3.37728 -0.269285 0
M  V30 5654 C 545.46 -3.69868 -0.698168 0
M  V30 5655 C 544.607 -2.76777 0.170249 0
M  V30 5656 H 547.558 -1.48503 0.559704 0
M  V30 5657 H 547.579 -3.64331 -1.0974 0
M  V30 5658 H 547.091 -3.81375 0.719366 0
M  V30 5659 H 545.192 -3.31764 -1.69597 0
M  V30 5660 H 545.305 -4.76582 -0.490533 0
M  V30 5661 H 543.669 -2.52188 -0.356844 0
M  V30 5662 H 544.452 -3.23253 1.15597 0
M  V30 5663 N 546.897 -0.0685191 -1.57451 0
M  V30 5664 C 548.122 0.613919 -1.98106 0
M  V30 5665 C 548.547 1.62551 -0.946501 0
M  V30 5666 O 547.905 1.81085 0.0882824 0
M  V30 5667 C 547.953 1.26189 -3.378 0
M  V30 5668 O 547.057 2.37773 -3.36954 0
M  V30 5669 H 546.398 0.158163 -0.644888 0
M  V30 5670 H 548.928 -0.142063 -2.04106 0
M  V30 5671 H 548.938 1.60951 -3.74912 0
M  V30 5672 H 547.613 0.520625 -4.12629 0
M  V30 5673 H 546.19 2.04829 -3.11608 0
M  V30 5674 N 548.375 1.56261 0.205012 0
M  V30 5675 C 549.322 1.93754 1.25411 0
M  V30 5676 C 550.292 0.796826 1.45739 0
M  V30 5677 O 551.477 1.05414 1.59036 0
M  V30 5678 C 548.617 2.27383 2.59598 0
M  V30 5679 C 547.73 3.5447 2.46931 0
M  V30 5680 C 546.865 3.77468 3.73753 0
M  V30 5681 C 545.904 4.98014 3.55877 0
M  V30 5682 N 545.041 5.17316 4.74688 0
M  V30 5683 H 549.881 2.83203 0.92737 0
M  V30 5684 H 547.418 1.40158 0.446574 0
M  V30 5685 H 549.376 2.44895 3.37761 0
M  V30 5686 H 548.006 1.41088 2.90335 0
M  V30 5687 H 547.058 3.45061 1.60116 0
M  V30 5688 H 548.37 4.42789 2.29651 0
M  V30 5689 H 547.524 3.95165 4.60358 0
M  V30 5690 H 546.263 2.87461 3.93976 0
M  V30 5691 H 545.268 4.80249 2.67657 0
M  V30 5692 H 546.493 5.8952 3.37109 0
M  V30 5693 H 544.439 4.30255 4.95194 0
M  V30 5694 H 544.356 5.99796 4.60197 0
M  V30 5695 H 545.624 5.39463 5.62672 0
M  V30 5696 N 549.853 -0.472356 1.50355 0
M  V30 5697 C 551.099 -1.22634 1.6152 0
M  V30 5698 C 551.432 -1.91645 0.313995 0
M  V30 5699 O 550.707 -1.82059 -0.684446 0
M  V30 5700 C 550.99 -2.27099 2.7946 0
M  V30 5701 C 550.843 -1.62402 4.19459 0
M  V30 5702 C 552.162 -3.28421 2.92964 0
M  V30 5703 H 549.281 -0.444494 0.587873 0
M  V30 5704 H 551.923 -0.520321 1.82737 0
M  V30 5705 H 550.073 -2.87314 2.61501 0
M  V30 5706 H 551.745 -1.05793 4.49005 0
M  V30 5707 H 549.988 -0.927184 4.23776 0
M  V30 5708 H 550.659 -2.38309 4.97909 0
M  V30 5709 H 553.135 -2.78227 3.09401 0
M  V30 5710 H 552.011 -3.98845 3.77113 0
M  V30 5711 H 552.272 -3.92467 2.03525 0
M  V30 5712 N 551.331 -1.39911 -0.725443 0
M  V30 5713 C 552.556 -1.41137 -1.5197 0
M  V30 5714 C 552.981 -0.010262 -1.88097 0
M  V30 5715 O 552.339 0.979184 -1.52583 0
M  V30 5716 C 552.387 -2.2994 -2.77777 0
M  V30 5717 O 551.491 -1.73586 -3.74088 0
M  V30 5718 H 550.832 -0.480219 -0.458569 0
M  V30 5719 H 553.362 -1.84023 -0.894249 0
M  V30 5720 H 553.372 -2.44785 -3.26411 0
M  V30 5721 H 552.047 -3.31759 -2.50816 0
M  V30 5722 H 550.624 -1.68035 -3.32894 0
M  V30 5723 N 552.809 0.956637 -1.25245 0
M  V30 5724 C 554.055 1.70352 -1.10036 0
M  V30 5725 C 554.388 1.90869 0.358156 0
M  V30 5726 O 553.663 1.47819 1.26411 0
M  V30 5727 C 553.946 3.08766 -1.85298 0
M  V30 5728 C 553.799 2.95672 -3.38966 0
M  V30 5729 C 555.118 4.08622 -1.63451 0
M  V30 5730 H 552.237 0.618279 -0.401123 0
M  V30 5731 H 554.879 1.11212 -1.54051 0
M  V30 5732 H 553.029 3.59252 -1.47887 0
M  V30 5733 H 554.701 2.52527 -3.86041 0
M  V30 5734 H 552.944 2.31634 -3.6678 0
M  V30 5735 H 553.615 3.93776 -3.86839 0
M  V30 5736 H 556.091 3.67038 -1.96015 0
M  V30 5737 H 554.967 5.03514 -2.18551 0
M  V30 5738 H 555.228 4.3834 -0.575357 0
M  V30 5739 N 554.287 1.06798 1.15896 0
M  V30 5740 C 555.517 0.807522 1.90165 0
M  V30 5741 C 555.925 -0.642417 1.7796 0
M  V30 5742 O 555.268 -1.45193 1.12537 0
M  V30 5743 C 555.33 1.12939 3.41299 0
M  V30 5744 C 554.994 2.57879 3.7729 0
M  V30 5745 C 555.991 3.56118 3.78782 0
M  V30 5746 C 553.676 2.93311 4.07767 0
M  V30 5747 C 555.67 4.87827 4.10248 0
M  V30 5748 C 553.357 4.25219 4.38899 0
M  V30 5749 C 554.355 5.22287 4.4012 0
M  V30 5750 O 554.043 6.51826 4.70508 0
M  V30 5751 H 553.775 0.291946 0.609708 0
M  V30 5752 H 556.329 1.42627 1.47806 0
M  V30 5753 H 554.559 0.45359 3.84031 0
M  V30 5754 H 556.248 0.852363 3.9685 0
M  V30 5755 H 557.014 3.30086 3.55342 0
M  V30 5756 H 552.893 2.18409 4.05979 0
M  V30 5757 H 556.437 5.63586 4.11116 0
M  V30 5758 H 552.334 4.51006 4.61805 0
M  V30 5759 H 553.102 6.56893 4.88298 0
M  V30 5760 N 555.766 -1.3263 0.851289 0
M  V30 5761 C 556.713 -2.28952 0.291469 0
M  V30 5762 C 557.683 -1.54897 -0.599676 0
M  V30 5763 O 558.868 -1.83137 -0.535305 0
M  V30 5764 C 556.008 -3.41206 -0.516992 0
M  V30 5765 C 555.121 -4.30148 0.399566 0
M  V30 5766 C 554.256 -5.29527 -0.4212 0
M  V30 5767 C 553.295 -6.10112 0.492969 0
M  V30 5768 N 552.432 -7.01499 -0.290414 0
M  V30 5769 H 557.272 -2.76228 1.11813 0
M  V30 5770 H 554.809 -1.35907 0.562826 0
M  V30 5771 H 556.767 -4.05005 -1.00132 0
M  V30 5772 H 555.397 -2.9509 -1.30851 0
M  V30 5773 H 554.449 -3.66959 1.00227 0
M  V30 5774 H 555.761 -4.8649 1.1013 0
M  V30 5775 H 554.915 -5.98914 -0.968832 0
M  V30 5776 H 553.654 -4.73794 -1.15632 0
M  V30 5777 H 552.659 -5.39632 1.05251 0
M  V30 5778 H 553.884 -6.6793 1.22664 0
M  V30 5779 H 551.83 -6.48199 -1.00868 0
M  V30 5780 H 551.747 -7.55178 0.352354 0
M  V30 5781 H 553.015 -7.75176 -0.819882 0
M  V30 5782 N 557.244 -0.608902 -1.45362 0
M  V30 5783 C 558.521 -0.0365378 -1.95566 0
M  V30 5784 C 558.901 1.43169 -1.55131 0
M  V30 5785 O 558.249 2.1349 -0.814513 0
M  V30 5786 C 558.459 -0.236026 -3.48201 0
M  V30 5787 C 559.807 -0.117518 -4.24437 0
M  V30 5788 O 560.831 -0.166217 -3.55812 0
M  V30 5789 O 559.69 -0.00372127 -5.465 0
M  V30 5790 H 556.784 0.0349874 -0.82626 0
M  V30 5791 H 559.33 -0.679055 -1.55521 0
M  V30 5792 H 558.102 -1.25569 -3.70605 0
M  V30 5793 H 557.725 0.441691 -3.95139 0
M  V30 5794 N 558.722 1.53707 -0.348139 0
M  V30 5795 C 559.969 2.00988 0.246966 0
M  V30 5796 C 560.297 1.23586 1.50189 0
M  V30 5797 O 559.552 0.312817 1.93184 0
M  V30 5798 C 559.851 3.52292 0.602061 0
M  V30 5799 C 559.517 4.47453 -0.556509 0
M  V30 5800 C 558.179 4.73188 -0.874446 0
M  V30 5801 C 560.531 5.03851 -1.33354 0
M  V30 5802 C 557.859 5.52577 -1.9717 0
M  V30 5803 C 560.211 5.84437 -2.42108 0
M  V30 5804 C 558.875 6.08465 -2.74456 0
M  V30 5805 H 558.145 0.735469 0.0903712 0
M  V30 5806 H 560.792 1.85464 -0.477001 0
M  V30 5807 H 559.097 3.65672 1.40681 0
M  V30 5808 H 560.794 3.86337 1.07447 0
M  V30 5809 H 557.384 4.27558 -0.298652 0
M  V30 5810 H 561.568 4.8393 -1.10117 0
M  V30 5811 H 556.824 5.69418 -2.22651 0
M  V30 5812 H 560.998 6.27151 -3.02745 0
M  V30 5813 H 558.625 6.69768 -3.59604 0
M  V30 5814 N 560.2 0.0768682 1.57412 0
M  V30 5815 C 561.13 -0.886026 2.16037 0
M  V30 5816 C 562.111 -1.30691 1.08876 0
M  V30 5817 O 563.296 -1.37705 1.36934 0
M  V30 5818 C 560.426 -2.1518 2.72608 0
M  V30 5819 C 559.38 -1.87015 3.8498 0
M  V30 5820 C 558.706 -3.20266 4.28175 0
M  V30 5821 C 560.006 -1.17143 5.08994 0
M  V30 5822 H 561.7 -0.397642 2.96748 0
M  V30 5823 H 559.246 -0.189823 1.42743 0
M  V30 5824 H 561.199 -2.82962 3.12266 0
M  V30 5825 H 559.923 -2.66269 1.89125 0
M  V30 5826 H 558.582 -1.21636 3.45833 0
M  V30 5827 H 558.23 -3.69207 3.41607 0
M  V30 5828 H 557.93 -3.0221 5.03927 0
M  V30 5829 H 559.454 -3.89237 4.70454 0
M  V30 5830 H 560.868 -1.75003 5.45937 0
M  V30 5831 H 559.265 -1.09328 5.90057 0
M  V30 5832 H 560.335 -0.151295 4.84664 0
M  V30 5833 N 561.678 -1.56367 -0.196722 0
M  V30 5834 C 562.625 -1.94417 -1.24382 0
M  V30 5835 C 563.595 -0.804543 -1.45315 0
M  V30 5836 O 564.78 -1.06256 -1.58475 0
M  V30 5837 C 561.92 -2.28757 -2.58388 0
M  V30 5838 C 561.033 -3.55775 -2.45047 0
M  V30 5839 C 560.168 -3.79445 -3.71746 0
M  V30 5840 C 559.207 -4.99894 -3.53231 0
M  V30 5841 N 558.344 -5.19826 -4.71938 0
M  V30 5842 H 563.184 -2.83691 -0.912338 0
M  V30 5843 H 560.721 -1.40392 -0.439135 0
M  V30 5844 H 562.679 -2.46682 -3.36457 0
M  V30 5845 H 561.309 -1.42625 -2.89582 0
M  V30 5846 H 560.361 -3.45905 -1.58284 0
M  V30 5847 H 561.673 -4.44 -2.27299 0
M  V30 5848 H 560.827 -3.97601 -4.58256 0
M  V30 5849 H 559.566 -2.89546 -3.92446 0
M  V30 5850 H 558.571 -4.81662 -2.65107 0
M  V30 5851 H 559.796 -5.913 -3.33978 0
M  V30 5852 H 557.742 -4.32875 -4.92905 0
M  V30 5853 H 557.659 -6.02228 -4.57009 0
M  V30 5854 H 558.927 -5.42439 -5.59803 0
M  V30 5855 N 563.156 0.464375 -1.50603 0
M  V30 5856 C 564.381 1.24372 -1.65971 0
M  V30 5857 C 564.806 1.84901 -0.345453 0
M  V30 5858 O 564.164 1.67596 0.691457 0
M  V30 5859 C 564.212 2.32331 -2.7578 0
M  V30 5860 O 563.316 3.37146 -2.375 0
M  V30 5861 H 562.657 0.365604 -0.554283 0
M  V30 5862 H 565.187 0.55183 -1.97018 0
M  V30 5863 H 565.197 2.77539 -2.99059 0
M  V30 5864 H 563.872 1.87648 -3.71162 0
M  V30 5865 H 562.449 2.97602 -2.24694 0
M  V30 5866 N 564.634 1.40294 0.718013 0
M  V30 5867 C 565.566 1.36281 1.84283 0
M  V30 5868 C 566.579 0.268621 1.60569 0
M  V30 5869 O 567.768 0.528798 1.70487 0
M  V30 5870 C 564.868 1.09741 3.2064 0
M  V30 5871 C 564.041 2.30767 3.71571 0
M  V30 5872 C 563.1 2.00424 4.86535 0
M  V30 5873 O 562.126 2.73268 4.99313 0
M  V30 5874 N 563.328 0.980724 5.72156 0
M  V30 5875 H 566.093 2.3322 1.88225 0
M  V30 5876 H 563.654 1.34616 0.899453 0
M  V30 5877 H 565.646 0.874322 3.95143 0
M  V30 5878 H 564.216 0.214771 3.11861 0
M  V30 5879 H 563.436 2.68921 2.88228 0
M  V30 5880 H 564.724 3.11455 4.02335 0
M  V30 5881 H 564.122 0.377375 5.6444 0
M  V30 5882 H 562.679 0.817538 6.46653 0
M  V30 5883 N 566.112 -0.949982 1.2575 0
M  V30 5884 C 567.361 -1.68956 1.10168 0
M  V30 5885 C 567.674 -1.92327 -0.356309 0
M  V30 5886 O 568.88 -2.64026 -0.632657 0
M  V30 5887 C 567.336 -3.04196 1.92336 0
M  V30 5888 C 566.944 -2.88603 3.42655 0
M  V30 5889 C 568.688 -3.81904 1.85336 0
M  V30 5890 C 566.595 -4.19262 4.17101 0
M  V30 5891 H 565.525 -0.633645 0.408668 0
M  V30 5892 H 568.176 -1.05719 1.49986 0
M  V30 5893 H 566.558 -3.68363 1.45344 0
M  V30 5894 H 567.732 -2.3334 3.97353 0
M  V30 5895 H 566.047 -2.24345 3.50796 0
M  V30 5896 H 568.644 -4.78688 2.38248 0
M  V30 5897 H 568.987 -4.08099 0.822226 0
M  V30 5898 H 569.52 -3.24495 2.30104 0
M  V30 5899 H 566.259 -3.98254 5.20648 0
M  V30 5900 H 565.779 -4.74273 3.67186 0
M  V30 5901 H 567.458 -4.87775 4.25071 0
M  V30 5902 N 567.59 -1.07411 -1.15328 0
M  V30 5903 C 568.867 -0.710732 -1.82231 0
M  V30 5904 C 569.247 0.806732 -1.95077 0
M  V30 5905 O 568.595 1.72139 -1.50268 0
M  V30 5906 C 568.805 -1.42586 -3.18544 0
M  V30 5907 C 570.153 -1.57836 -3.94174 0
M  V30 5908 O 571.177 -1.38669 -3.281 0
M  V30 5909 O 570.036 -1.8938 -5.12638 0
M  V30 5910 H 567.13 -0.25297 -0.78736 0
M  V30 5911 H 569.676 -1.17508 -1.22434 0
M  V30 5912 H 568.448 -2.46008 -3.04296 0
M  V30 5913 H 568.071 -0.952332 -3.86026 0
M  V30 5914 N 569.068 1.32177 -0.85831 0
M  V30 5915 C 570.298 2.01021 -0.476889 0
M  V30 5916 C 570.706 1.64653 0.931995 0
M  V30 5917 O 570.049 0.865713 1.62022 0
M  V30 5918 C 570.111 3.55413 -0.540528 0
M  V30 5919 C 569.775 4.1522 -1.90895 0
M  V30 5920 C 570.772 4.3318 -2.87491 0
M  V30 5921 C 568.457 4.51212 -2.20709 0
M  V30 5922 C 570.451 4.86306 -4.1205 0
M  V30 5923 C 568.138 5.04042 -3.45521 0
M  V30 5924 C 569.136 5.21538 -4.41007 0
M  V30 5925 O 568.824 5.73238 -5.63608 0
M  V30 5926 H 568.556 0.650059 -0.18547 0
M  V30 5927 H 571.11 1.69648 -1.15796 0
M  V30 5928 H 569.34 3.86196 0.19741 0
M  V30 5929 H 571.029 4.05526 -0.174191 0
M  V30 5930 H 571.795 4.05704 -2.65762 0
M  V30 5931 H 567.674 4.36878 -1.4717 0
M  V30 5932 H 571.218 4.99877 -4.86589 0
M  V30 5933 H 567.115 5.30952 -3.67098 0
M  V30 5934 H 567.883 5.91625 -5.65617 0
M  V30 5935 N 570.547 0.616602 1.45037 0
M  V30 5936 C 571.51 -0.0871112 2.29034 0
M  V30 5937 C 572.51 -0.786414 1.40258 0
M  V30 5938 O 573.7 -0.633207 1.62284 0
M  V30 5939 C 570.832 -1.13369 3.21497 0
M  V30 5940 H 572.025 0.651497 2.92738 0
M  V30 5941 H 569.578 0.376058 1.51709 0
M  V30 5942 H 570.313 -1.90277 2.62612 0
M  V30 5943 H 570.098 -0.636358 3.86902 0
M  V30 5944 H 571.588 -1.62627 3.84633 0
M  V30 5945 N 572.025 -1.5352 0.356285 0
M  V30 5946 C 572.955 -2.28372 -0.486661 0
M  V30 5947 C 573.936 -1.30432 -1.09185 0
M  V30 5948 O 575.121 -1.59291 -1.11085 0
M  V30 5949 C 572.251 -3.06604 -1.63129 0
M  V30 5950 C 571.205 -4.12154 -1.15381 0
M  V30 5951 C 570.531 -4.78415 -2.38796 0
M  V30 5952 C 571.831 -5.21724 -0.245179 0
M  V30 5953 H 573.525 -2.99083 0.137797 0
M  V30 5954 H 571.071 -1.43841 0.0677134 0
M  V30 5955 H 573.024 -3.57712 -2.22755 0
M  V30 5956 H 571.748 -2.33568 -2.28284 0
M  V30 5957 H 570.407 -3.61978 -0.580294 0
M  V30 5958 H 570.055 -4.01959 -3.02387 0
M  V30 5959 H 569.755 -5.49734 -2.07524 0
M  V30 5960 H 571.279 -5.32313 -2.99125 0
M  V30 5961 H 572.693 -5.68391 -0.748646 0
M  V30 5962 H 571.09 -6.00095 -0.0237608 0
M  V30 5963 H 572.16 -4.79596 0.715229 0
M  V30 5964 N 573.503 -0.0852151 -1.57369 0
M  V30 5965 C 574.751 0.579658 -1.93609 0
M  V30 5966 C 575.072 1.69332 -0.967043 0
M  V30 5967 O 574.342 1.95892 -0.0174215 0
M  V30 5968 H 572.922 0.217113 -0.714752 0
M  V30 5969 H 575.584 -0.146226 -1.94351 0
M  V30 5970 H 574.68 0.996276 -2.95771 0
M  V30 5971 N 574.981 1.5647 0.188427 0
M  V30 5972 C 576.206 1.85486 0.927891 0
M  V30 5973 C 576.631 0.669575 1.75779 0
M  V30 5974 O 575.989 -0.381573 1.77239 0
M  V30 5975 C 576.037 3.12784 1.7944 0
M  V30 5976 O 575.141 2.93805 2.894 0
M  V30 5977 H 574.482 0.610585 0.260925 0
M  V30 5978 H 577.012 2.037 0.191729 0
M  V30 5979 H 577.022 3.43749 2.19774 0
M  V30 5980 H 575.697 3.98671 1.18468 0
M  V30 5981 H 574.274 2.74153 2.52774 0
M  V30 5982 N 576.459 -0.456382 1.50847 0
M  V30 5983 C 577.687 -1.23026 1.66349 0
M  V30 5984 C 578.102 -1.85473 0.352868 0
M  V30 5985 O 577.459 -1.69885 -0.666739 0
M  V30 5986 C 577.51 -2.32827 2.76539 0
M  V30 5987 O 577.231 -1.72938 4.02522 0
M  V30 5988 C 578.732 -3.23448 3.03144 0
M  V30 5989 H 575.952 -0.371527 0.558756 0
M  V30 5990 H 578.496 -0.543082 1.97157 0
M  V30 5991 H 576.651 -2.97294 2.48384 0
M  V30 5992 H 577.065 -2.45357 4.63573 0
M  V30 5993 H 578.539 -3.96669 3.83872 0
M  V30 5994 H 579.016 -3.83094 2.14793 0
M  V30 5995 H 579.622 -2.64702 3.32886 0
M  V30 5996 N 577.937 -1.40673 -0.710563 0
M  V30 5997 C 579.185 -1.38947 -1.46759 0
M  V30 5998 C 579.506 0.00572879 -1.94999 0
M  V30 5999 O 578.776 0.961358 -1.70689 0
M  V30 6000 H 577.356 -0.5114 -0.544499 0
M  V30 6001 H 580.018 -1.75773 -0.842012 0
M  V30 6002 H 579.114 -2.06745 -2.33801 0
M  V30 6003 N 579.415 0.9433 -1.26252 0
M  V30 6004 C 580.831 1.21644 -1.03319 0
M  V30 6005 C 581.031 2.0003 0.242983 0
M  V30 6006 O 580.087 2.33838 0.952688 0
M  V30 6007 C 581.4 1.97978 -2.2633 0
M  V30 6008 C 582.948 2.10978 -2.31209 0
M  V30 6009 C 583.423 2.90713 -3.53907 0
M  V30 6010 N 584.914 2.98287 -3.54371 0
M  V30 6011 C 585.649 3.60406 -4.45976 0
M  V30 6012 N 585.145 4.24043 -5.47868 0
M  V30 6013 N 586.938 3.57658 -4.33633 0
M  V30 6014 H 579.089 0.419221 -2.08222 0
M  V30 6015 H 581.352 0.247995 -0.914988 0
M  V30 6016 H 581.058 1.47788 -3.19142 0
M  V30 6017 H 580.932 2.9865 -2.30408 0
M  V30 6018 H 583.319 2.6036 -1.38913 0
M  V30 6019 H 583.4 1.09575 -2.31143 0
M  V30 6020 H 583.044 2.42018 -4.46531 0
M  V30 6021 H 582.974 3.92367 -3.5122 0
M  V30 6022 H 585.465 2.53044 -2.80673 0
M  V30 6023 H 585.778 4.69334 -6.13959 0
M  V30 6024 H 584.123 4.22637 -5.51728 0
M  V30 6025 H 587.314 3.07134 -3.53251 0
M  V30 6026 H 587.487 4.05782 -5.05218 0
M  V30 6027 N 580.893 1.08022 1.14757 0
M  V30 6028 C 582.118 0.82895 1.90114 0
M  V30 6029 C 582.543 -0.612772 1.77839 0
M  V30 6030 O 581.901 -1.42895 1.11583 0
M  V30 6031 C 581.949 1.25062 3.38219 0
M  V30 6032 O 581.053 0.400119 4.10454 0
M  V30 6033 H 580.394 0.301412 0.591648 0
M  V30 6034 H 582.924 1.44062 1.45284 0
M  V30 6035 H 582.934 1.22977 3.89025 0
M  V30 6036 H 581.609 2.30067 3.46471 0
M  V30 6037 H 580.186 0.484052 3.69745 0
M  V30 6038 N 582.371 -1.3172 0.865308 0
M  V30 6039 C 583.618 -1.96876 0.473931 0
M  V30 6040 C 583.946 -1.68425 -0.972786 0
M  V30 6041 O 583.201 -0.970742 -1.69927 0
M  V30 6042 C 583.5 -3.5102 0.672283 0
M  V30 6043 C 583.166 -3.9948 2.09108 0
M  V30 6044 C 581.828 -4.12425 2.4791 0
M  V30 6045 C 584.18 -4.2503 3.0166 0
M  V30 6046 C 581.508 -4.48267 3.78515 0
M  V30 6047 C 583.86 -4.62335 4.31774 0
M  V30 6048 C 582.524 -4.73486 4.70497 0
M  V30 6049 H 581.794 -0.72042 0.173424 0
M  V30 6050 H 584.441 -1.56937 1.0974 0
M  V30 6051 H 582.746 -3.91785 -0.034356 0
M  V30 6052 H 584.443 -3.99475 0.349353 0
M  V30 6053 H 581.033 -3.89898 1.77981 0
M  V30 6054 H 585.217 -4.14529 2.7291 0
M  V30 6055 H 580.473 -4.55097 4.08285 0
M  V30 6056 H 584.647 -4.81058 5.03543 0
M  V30 6057 H 582.274 -5.01016 5.71741 0
M  V30 6058 N 583.85 -0.624285 -1.44708 0
M  V30 6059 C 585.096 -0.126237 -2.02407 0
M  V30 6060 C 585.428 1.24618 -1.48943 0
M  V30 6061 O 584.704 1.82569 -0.670742 0
M  V30 6062 C 584.986 -0.105449 -3.59946 0
M  V30 6063 C 584.84 -1.50972 -4.23707 0
M  V30 6064 C 586.159 0.573629 -4.36346 0
M  V30 6065 H 583.278 -0.0473472 -0.735478 0
M  V30 6066 H 585.92 -0.799452 -1.72362 0
M  V30 6067 H 584.07 0.46783 -3.85673 0
M  V30 6068 H 585.742 -2.13136 -4.0911 0
M  V30 6069 H 583.985 -2.0656 -3.81465 0
M  V30 6070 H 584.656 -1.44727 -5.32689 0
M  V30 6071 H 587.132 0.0861787 -4.16011 0
M  V30 6072 H 586.008 0.557338 -5.46063 0
M  V30 6073 H 586.269 1.64276 -4.10446 0
M  V30 6074 N 585.328 1.53329 -0.364422 0
M  V30 6075 C 586.574 2.01537 0.225969 0
M  V30 6076 C 586.907 1.25128 1.48515 0
M  V30 6077 O 586.182 0.344653 1.91422 0
M  V30 6078 C 586.465 3.56339 0.519092 0
M  V30 6079 C 586.318 4.43441 -0.753639 0
M  V30 6080 C 587.637 4.19833 1.32015 0
M  V30 6081 H 584.756 0.732573 0.0806548 0
M  V30 6082 H 587.398 1.83597 -0.489084 0
M  V30 6083 H 585.548 3.71756 1.12825 0
M  V30 6084 H 587.22 4.39823 -1.39116 0
M  V30 6085 H 585.463 4.11457 -1.37424 0
M  V30 6086 H 586.134 5.49699 -0.503517 0
M  V30 6087 H 588.61 4.08242 0.804859 0
M  V30 6088 H 587.486 5.28177 1.49399 0
M  V30 6089 H 587.747 3.75821 2.32832 0
M  V30 6090 N 586.806 0.0935595 1.57322 0
M  V30 6091 C 588.054 -0.569383 1.93913 0
M  V30 6092 C 588.375 -1.68817 0.976009 0
M  V30 6093 O 587.645 -1.9588 0.0278099 0
M  V30 6094 H 586.225 -0.21332 0.715894 0
M  V30 6095 H 588.887 0.156531 1.9427 0
M  V30 6096 H 587.983 -0.980577 2.96296 0
M  V30 6097 N 588.284 -1.56567 -0.180126 0
M  V30 6098 C 589.514 -1.85349 -0.912647 0
M  V30 6099 C 589.922 -0.675795 -1.76719 0
M  V30 6100 O 589.265 0.3645 -1.80047 0
M  V30 6101 C 589.327 -3.08431 -1.84691 0
M  V30 6102 C 588.991 -4.41694 -1.17284 0
M  V30 6103 C 589.988 -5.17062 -0.542532 0
M  V30 6104 C 587.673 -4.8843 -1.17223 0
M  V30 6105 C 589.667 -6.37351 0.0793953 0
M  V30 6106 C 587.354 -6.08652 -0.54647 0
M  V30 6107 C 588.352 -6.82955 0.0782458 0
M  V30 6108 O 588.04 -8.00897 0.694158 0
M  V30 6109 H 587.772 -0.619286 -0.271036 0
M  V30 6110 H 590.326 -2.0454 -0.187768 0
M  V30 6111 H 588.556 -2.85163 -2.61188 0
M  V30 6112 H 590.245 -3.23733 -2.44851 0
M  V30 6113 H 591.011 -4.8204 -0.535045 0
M  V30 6114 H 586.89 -4.30542 -1.64788 0
M  V30 6115 H 590.434 -6.95287 0.567612 0
M  V30 6116 H 586.331 -6.4314 -0.55151 0
M  V30 6117 H 587.099 -8.16352 0.592537 0
M  V30 6118 N 589.762 0.448376 -1.51087 0
M  V30 6119 C 591.01 1.19635 -1.62886 0
M  V30 6120 C 591.331 1.91977 -0.342024 0
M  V30 6121 O 590.601 1.85094 0.641636 0
M  V30 6122 H 589.181 0.444598 -0.600285 0
M  V30 6123 H 591.843 0.515138 -1.87969 0
M  V30 6124 H 590.939 1.93194 -2.45117 0
M  V30 6125 N 591.24 1.41047 0.703093 0
M  V30 6126 C 592.486 1.40207 1.46526 0
M  V30 6127 C 592.819 0.00847763 1.94198 0
M  V30 6128 O 592.094 -0.962437 1.69019 0
M  V30 6129 C 592.377 2.40238 2.6825 0
M  V30 6130 C 592.23 3.88674 2.26391 0
M  V30 6131 C 593.549 2.37627 3.70434 0
M  V30 6132 H 590.668 0.510594 0.531472 0
M  V30 6133 H 593.31 1.72271 0.801422 0
M  V30 6134 H 591.46 2.13026 3.24888 0
M  V30 6135 H 593.132 4.2676 1.75138 0
M  V30 6136 H 591.375 4.03903 1.58255 0
M  V30 6137 H 592.046 4.542 3.13698 0
M  V30 6138 H 594.522 2.61759 3.23452 0
M  V30 6139 H 593.398 3.09645 4.53223 0
M  V30 6140 H 593.659 1.39223 4.19606 0
M  V30 6141 N 592.718 -0.936591 1.26751 0
M  V30 6142 C 593.666 -2.0573 1.08527 0
M  V30 6143 C 594.66 -1.69397 0.0108784 0
M  V30 6144 O 595.866 -1.79215 0.167915 0
M  V30 6145 H 592.241 -0.673691 0.334133 0
M  V30 6146 H 594.212 -2.1825 2.03493 0
M  V30 6147 C 592.961 -3.39738 0.739845 0
M  V30 6148 H 592.284 -3.68174 1.55845 0
M  V30 6149 H 593.724 -4.18955 0.652149 0
M  V30 6150 C 592.183 -3.32292 -0.555288 0
M  V30 6151 O 592.713 -3.68794 -1.59229 0
M  V30 6152 N 590.919 -2.85394 -0.54762 0
M  V30 6153 H 590.466 -2.55886 0.296667 0
M  V30 6154 H 590.424 -2.80795 -1.41427 0
M  V30 6155 N 594.196 -1.08629 -1.14182 0
M  V30 6156 C 595.607 -0.838003 -1.66836 0
M  V30 6157 C 595.958 0.634885 -1.85644 0
M  V30 6158 O 595.083 1.49008 -1.56926 0
M  V30 6159 C 595.678 -1.51465 -3.03058 0
M  V30 6160 C 594.237 -1.31355 -3.52736 0
M  V30 6161 C 593.384 -1.57599 -2.28162 0
M  V30 6162 H 596.335 -1.24656 -0.982165 0
M  V30 6163 H 596.356 -0.943134 -3.68626 0
M  V30 6164 H 595.868 -2.58661 -2.89337 0
M  V30 6165 H 593.969 -0.262384 -3.71675 0
M  V30 6166 H 594.082 -2.04275 -4.33369 0
M  V30 6167 H 592.446 -0.997659 -2.34348 0
M  V30 6168 H 593.229 -2.66006 -2.17015 0
M  V30 6169 N 595.674 1.31259 -0.872281 0
M  V30 6170 C 597.085 1.78822 -0.536617 0
M  V30 6171 C 597.436 1.71855 0.946594 0
M  V30 6172 O 596.561 1.28769 1.73918 0
M  V30 6173 C 597.156 3.24698 -0.967294 0
M  V30 6174 C 595.715 3.70147 -0.683251 0
M  V30 6175 C 594.862 2.51994 -1.15733 0
M  V30 6176 H 597.813 1.18308 -1.05777 0
M  V30 6177 H 597.834 3.79386 -0.290929 0
M  V30 6178 H 597.346 3.29737 -2.04683 0
M  V30 6179 H 595.447 3.70607 0.384825 0
M  V30 6180 H 595.56 4.62183 -1.2619 0
M  V30 6181 H 593.924 2.48078 -0.577024 0
M  V30 6182 H 594.707 2.59778 -2.24434 0
M  V30 6183 N 597.152 0.631951 1.44375 0
M  V30 6184 C 598.084 -0.110911 2.28931 0
M  V30 6185 C 599.097 -0.808086 1.41329 0
M  V30 6186 O 600.286 -0.669396 1.65473 0
M  V30 6187 C 597.386 -1.17928 3.1772 0
M  V30 6188 C 596.559 -0.564458 4.33743 0
M  V30 6189 C 595.618 -1.5269 5.0356 0
M  V30 6190 O 594.644 -1.04372 5.59549 0
M  V30 6191 N 595.846 -2.86123 5.05088 0
M  V30 6192 H 598.611 0.614758 2.93327 0
M  V30 6193 H 596.172 0.473171 1.54831 0
M  V30 6194 H 598.164 -1.82348 3.61291 0
M  V30 6195 H 596.734 -1.80717 2.55069 0
M  V30 6196 H 595.954 0.258373 3.93352 0
M  V30 6197 H 597.242 -0.134355 5.08623 0
M  V30 6198 H 596.64 -3.27959 4.60933 0
M  V30 6199 H 595.197 -3.45901 5.52445 0
M  V30 6200 N 598.631 -1.53133 0.372548 0
M  V30 6201 C 599.581 -2.22733 -0.487218 0
M  V30 6202 C 600.565 -1.22506 -1.04312 0
M  V30 6203 O 601.757 -1.47923 -0.972005 0
M  V30 6204 C 598.886 -3.02524 -1.62278 0
M  V30 6205 C 597.972 -4.10133 -1.07943 0
M  V30 6206 N 598.363 -5.05133 -0.259629 0
M  V30 6207 C 596.661 -4.24964 -1.35356 0
M  V30 6208 C 597.362 -5.81687 0.0386656 0
M  V30 6209 N 596.338 -5.40699 -0.560827 0
M  V30 6210 H 600.14 -2.93538 0.145853 0
M  V30 6211 H 597.654 -1.61389 0.180938 0
M  V30 6212 H 599.651 -3.50909 -2.25096 0
M  V30 6213 H 598.311 -2.33252 -2.25884 0
M  V30 6214 H 599.322 -5.178 0.101746 0
M  V30 6215 H 595.999 -3.66919 -1.9919 0
M  V30 6216 H 597.389 -6.68224 0.701841 0
M  V30 6217 N 600.109 -0.101901 -1.5727 0
M  V30 6218 C 601.52 0.426173 -1.81771 0
M  V30 6219 C 601.871 1.67725 -1.01797 0
M  V30 6220 O 600.996 2.14958 -0.249386 0
M  V30 6221 C 601.591 0.779962 -3.297 0
M  V30 6222 C 600.15 1.25275 -3.54941 0
M  V30 6223 C 599.297 0.252814 -2.76145 0
M  V30 6224 H 602.248 -0.32726 -1.55289 0
M  V30 6225 H 602.269 1.63891 -3.43395 0
M  V30 6226 H 601.781 -0.130778 -3.8788 0
M  V30 6227 H 599.882 2.18097 -3.021 0
M  V30 6228 H 599.995 1.20988 -4.63572 0
M  V30 6229 H 598.359 0.736362 -2.43823 0
M  V30 6230 H 599.142 -0.650724 -3.37076 0
M  V30 6231 N 601.587 1.56661 0.17182 0
M  V30 6232 C 602.537 1.92781 1.21736 0
M  V30 6233 C 603.521 0.796065 1.39827 0
M  V30 6234 O 604.713 1.05924 1.41806 0
M  V30 6235 C 601.842 2.29079 2.55691 0
M  V30 6236 C 600.928 3.48765 2.41296 0
M  V30 6237 N 601.319 4.66022 1.96614 0
M  V30 6238 C 599.617 3.53362 2.72124 0
M  V30 6239 C 600.318 5.48159 1.94669 0
M  V30 6240 N 599.294 4.89189 2.37054 0
M  V30 6241 H 603.096 2.80926 0.863592 0
M  V30 6242 H 600.61 1.57889 0.380096 0
M  V30 6243 H 602.607 2.5315 3.31241 0
M  V30 6244 H 601.267 1.42272 2.91871 0
M  V30 6245 H 602.278 4.9025 1.66959 0
M  V30 6246 H 598.955 2.77033 3.12345 0
M  V30 6247 H 600.345 6.52121 1.61826 0
M  V30 6248 N 603.065 -0.440357 1.51323 0
M  V30 6249 C 604.015 -1.53263 1.68803 0
M  V30 6250 C 604.999 -1.51494 0.542057 0
M  V30 6251 O 606.191 -1.57999 0.797839 0
M  V30 6252 C 603.32 -2.91479 1.8137 0
M  V30 6253 C 602.406 -2.98015 3.01742 0
M  V30 6254 N 602.797 -2.743 4.24962 0
M  V30 6255 C 601.095 -3.29173 3.00934 0
M  V30 6256 C 601.796 -2.86601 5.06197 0
M  V30 6257 N 600.772 -3.1814 4.40781 0
M  V30 6258 H 604.574 -1.33675 2.61741 0
M  V30 6259 H 602.088 -0.647616 1.48929 0
M  V30 6260 H 604.085 -3.70055 1.92002 0
M  V30 6261 H 602.745 -3.12089 0.896117 0
M  V30 6262 H 603.756 -2.49287 4.53957 0
M  V30 6263 H 600.433 -3.55577 2.18796 0
M  V30 6264 H 601.823 -2.72246 6.14274 0
M  V30 6265 N 604.543 -1.41418 -0.695603 0
M  V30 6266 C 605.959 -1.23887 -1.00619 0
M  V30 6267 C 606.159 -0.128206 -2.01092 0
M  V30 6268 O 605.215 0.507408 -2.47349 0
M  V30 6269 C 606.528 -2.58816 -1.53083 0
M  V30 6270 C 608.076 -2.65998 -1.64967 0
M  V30 6271 C 608.551 -4.01244 -2.20833 0
M  V30 6272 N 610.042 -4.0309 -2.28194 0
M  V30 6273 C 610.777 -5.04539 -2.72448 0
M  V30 6274 N 610.273 -6.16378 -3.16306 0
M  V30 6275 N 612.066 -4.91901 -2.72011 0
M  V30 6276 H 604.217 -2.12379 -0.0300061 0
M  V30 6277 H 606.48 -0.944958 -0.0758797 0
M  V30 6278 H 606.186 -3.40842 -0.867147 0
M  V30 6279 H 606.06 -2.81299 -2.51298 0
M  V30 6280 H 608.447 -1.84331 -2.30448 0
M  V30 6281 H 608.528 -2.47325 -0.652982 0
M  V30 6282 H 608.172 -4.83359 -1.55968 0
M  V30 6283 H 608.102 -4.17257 -3.21254 0
M  V30 6284 H 610.593 -3.22341 -1.97242 0
M  V30 6285 H 610.906 -6.89658 -3.487 0
M  V30 6286 H 609.251 -6.19914 -3.14215 0
M  V30 6287 H 612.442 -4.03613 -2.37095 0
M  V30 6288 H 612.615 -5.71102 -3.06181 0
M  V30 6289 N 606.021 0.929856 -1.27246 0
M  V30 6290 C 607.249 1.71144 -1.16265 0
M  V30 6291 C 607.664 1.867 0.280786 0
M  V30 6292 O 607.021 1.38249 1.19136 0
M  V30 6293 C 607.072 3.11222 -1.83911 0
M  V30 6294 O 606.793 2.96398 -3.22614 0
M  V30 6295 C 608.294 4.05541 -1.79028 0
M  V30 6296 H 605.514 0.535499 -0.404328 0
M  V30 6297 H 608.058 1.16492 -1.68077 0
M  V30 6298 H 606.213 3.6274 -1.36009 0
M  V30 6299 H 606.627 3.8494 -3.56261 0
M  V30 6300 H 608.101 5.01351 -2.30978 0
M  V30 6301 H 608.578 4.32589 -0.759168 0
M  V30 6302 H 609.184 3.59947 -2.26535 0
M  V30 6303 N 607.499 1.09233 1.13605 0
M  V30 6304 C 608.462 0.733553 2.17144 0
M  V30 6305 C 609.462 -0.235873 1.59061 0
M  V30 6306 O 610.652 -0.0143167 1.74194 0
M  V30 6307 C 607.784 0.084471 3.40795 0
M  V30 6308 H 608.977 1.65049 2.50397 0
M  V30 6309 H 606.53 0.891264 1.28399 0
M  V30 6310 H 607.265 -0.843795 3.1313 0
M  V30 6311 H 607.05 0.781985 3.84223 0
M  V30 6312 H 608.54 -0.151216 4.17326 0
M  V30 6313 N 608.977 -1.30795 0.87923 0
M  V30 6314 C 609.927 -2.25838 0.313276 0
M  V30 6315 C 610.911 -1.51025 -0.55499 0
M  V30 6316 O 612.103 -1.72413 -0.400353 0
M  V30 6317 C 609.232 -3.39981 -0.476204 0
M  V30 6318 C 608.318 -4.22154 0.405826 0
M  V30 6319 N 608.709 -4.82934 1.50362 0
M  V30 6320 C 607.007 -4.45552 0.199909 0
M  V30 6321 C 607.708 -5.44444 2.0483 0
M  V30 6322 N 606.684 -5.26723 1.34403 0
M  V30 6323 H 610.486 -2.70374 1.15218 0
M  V30 6324 H 608 -1.45168 0.728003 0
M  V30 6325 H 609.997 -4.07108 -0.898251 0
M  V30 6326 H 608.657 -2.96986 -1.31261 0
M  V30 6327 H 609.668 -4.82319 1.8865 0
M  V30 6328 H 606.345 -4.13169 -0.599795 0
M  V30 6329 H 607.735 -6.02701 2.96986 0
M  V30 6330 N 610.455 -0.639598 -1.44038 0
M  V30 6331 C 611.703 -0.147188 -2.01563 0
M  V30 6332 C 612.024 1.2384 -1.50628 0
M  V30 6333 O 611.294 1.82452 -0.713316 0
M  V30 6334 H 609.874 -0.0514231 -0.745228 0
M  V30 6335 H 612.536 -0.828205 -1.76428 0
M  V30 6336 H 611.632 -0.121358 -3.11864 0
M  V30 6337 N 611.933 1.52934 -0.380664 0
M  V30 6338 C 613.158 2.06363 0.207157 0
M  V30 6339 C 613.583 1.25122 1.4045 0
M  V30 6340 O 612.941 0.274062 1.79217 0
M  V30 6341 C 612.989 3.56162 0.563996 0
M  V30 6342 O 612.093 3.77552 1.65917 0
M  V30 6343 H 611.434 0.663468 0.0265859 0
M  V30 6344 H 613.964 1.9719 -0.545635 0
M  V30 6345 H 613.974 3.99453 0.830752 0
M  V30 6346 H 612.649 4.14732 -0.311427 0
M  V30 6347 H 611.226 3.46154 1.3868 0
M  V30 6348 N 613.412 0.11024 1.57214 0
M  V30 6349 C 614.658 -0.544479 1.95977 0
M  V30 6350 C 615.013 -1.64845 0.992171 0
M  V30 6351 O 614.306 -1.91589 0.0206981 0
M  V30 6352 C 614.5 -1.13102 3.39032 0
M  V30 6353 C 614.329 -0.0854079 4.49619 0
M  V30 6354 C 613.099 0.343373 5.04132 0
M  V30 6355 C 615.297 0.692232 5.0962 0
M  V30 6356 N 613.279 1.37567 5.98288 0
M  V30 6357 C 614.65 1.57596 5.99636 0
M  V30 6358 C 616.705 0.744085 4.92309 0
M  V30 6359 C 615.408 2.50701 6.74197 0
M  V30 6360 C 617.434 1.6628 5.67543 0
M  V30 6361 C 616.796 2.53412 6.57238 0
M  V30 6362 H 612.895 -0.169124 0.763493 0
M  V30 6363 H 615.479 0.196326 1.93708 0
M  V30 6364 H 613.65 -1.84158 3.41965 0
M  V30 6365 H 615.382 -1.74934 3.64939 0
M  V30 6366 H 612.137 -0.0473277 4.73576 0
M  V30 6367 H 612.561 1.89048 6.50069 0
M  V30 6368 H 617.203 0.0845825 4.22715 0
M  V30 6369 H 614.921 3.17669 7.43043 0
M  V30 6370 H 618.507 1.70825 5.56156 0
M  V30 6371 H 617.387 3.23347 7.14434 0
M  V30 6372 N 614.89 -1.56749 -0.16351 0
M  V30 6373 C 616.118 -1.86577 -0.894233 0
M  V30 6374 C 616.533 -0.696543 -1.75481 0
M  V30 6375 O 615.89 0.334161 -1.79415 0
M  V30 6376 C 615.941 -3.15508 -1.76456 0
M  V30 6377 O 615.662 -4.27926 -0.938685 0
M  V30 6378 C 617.163 -3.58737 -2.60428 0
M  V30 6379 H 614.383 -0.618829 -0.259405 0
M  V30 6380 H 616.927 -2.03863 -0.161259 0
M  V30 6381 H 615.082 -3.00025 -2.45079 0
M  V30 6382 H 615.496 -5.01546 -1.53465 0
M  V30 6383 H 616.97 -4.51832 -3.17099 0
M  V30 6384 H 617.447 -2.83229 -3.35675 0
M  V30 6385 H 618.053 -3.76858 -1.97125 0
M  V30 6386 N 616.368 0.432326 -1.51554 0
M  V30 6387 C 617.645 1.19288 -1.55015 0
M  V30 6388 C 618.025 2.08701 -0.317375 0
M  V30 6389 O 617.373 2.17602 0.697243 0
M  V30 6390 C 617.583 1.99037 -2.86679 0
M  V30 6391 C 618.931 2.55907 -3.38817 0
M  V30 6392 O 619.955 2.09243 -2.88263 0
M  V30 6393 O 618.814 3.41029 -4.27038 0
M  V30 6394 H 615.908 0.543369 -0.623441 0
M  V30 6395 H 618.454 0.440988 -1.6387 0
M  V30 6396 H 617.226 1.33397 -3.6786 0
M  V30 6397 H 616.849 2.81281 -2.8101 0
M  V30 6398 N 617.846 1.41785 0.688094 0
M  V30 6399 C 618.778 1.40159 1.81351 0
M  V30 6400 C 619.791 0.30262 1.59963 0
M  V30 6401 O 620.98 0.564841 1.69327 0
M  V30 6402 C 618.08 1.16517 3.1824 0
M  V30 6403 C 617.253 2.38597 3.66593 0
M  V30 6404 C 616.312 2.10699 4.82174 0
M  V30 6405 O 615.338 2.83798 4.93404 0
M  V30 6406 N 616.54 1.10187 5.69947 0
M  V30 6407 H 619.305 2.3716 1.83236 0
M  V30 6408 H 616.866 1.36494 0.870697 0
M  V30 6409 H 618.858 0.957941 3.93199 0
M  V30 6410 H 617.428 0.280873 3.11336 0
M  V30 6411 H 616.648 2.74974 2.82459 0
M  V30 6412 H 617.936 3.19919 3.95638 0
M  V30 6413 H 617.334 0.497016 5.63512 0
M  V30 6414 H 615.891 0.954518 6.44773 0
M  V30 6415 N 619.324 -0.923095 1.27737 0
M  V30 6416 C 620.257 -2.02515 1.05181 0
M  V30 6417 C 621.235 -1.62574 -0.0292204 0
M  V30 6418 O 622.419 -1.88137 0.116848 0
M  V30 6419 C 619.546 -3.33407 0.596468 0
M  V30 6420 C 618.592 -3.92328 1.67276 0
M  V30 6421 S 619.425 -4.24342 3.26641 0
M  V30 6422 C 620.581 -5.58308 2.82919 0
M  V30 6423 H 620.814 -2.21336 1.98488 0
M  V30 6424 H 618.347 -1.06679 1.1162 0
M  V30 6425 H 620.305 -4.09086 0.34044 0
M  V30 6426 H 618.966 -3.125 -0.316614 0
M  V30 6427 H 618.159 -4.86797 1.30556 0
M  V30 6428 H 617.761 -3.2325 1.8811 0
M  V30 6429 H 620.053 -6.37801 2.28509 0
M  V30 6430 H 620.996 -5.99931 3.7615 0
M  V30 6431 H 621.404 -5.19049 2.21919 0
M  V30 6432 N 620.802 -1.09834 -1.13024 0
M  V30 6433 C 622.03 -0.858902 -1.8823 0
M  V30 6434 C 622.445 0.590164 -1.79339 0
M  V30 6435 O 621.802 1.4065 -1.16292 0
M  V30 6436 C 621.853 -1.29066 -3.37675 0
M  V30 6437 O 621.574 -2.6829 -3.46341 0
M  V30 6438 C 623.075 -1.08421 -4.29837 0
M  V30 6439 H 620.295 -0.308713 -0.595766 0
M  V30 6440 H 622.839 -1.4614 -1.4305 0
M  V30 6441 H 620.994 -0.731961 -3.80422 0
M  V30 6442 H 621.408 -2.86598 -4.39274 0
M  V30 6443 H 622.882 -1.43553 -5.33007 0
M  V30 6444 H 623.359 -0.0223315 -4.39194 0
M  V30 6445 H 623.965 -1.62907 -3.92863 0
M  V30 6446 N 622.28 1.30327 -0.886154 0
M  V30 6447 C 623.505 2.0079 -0.519425 0
M  V30 6448 C 623.93 1.65979 0.885013 0
M  V30 6449 O 623.288 0.877043 1.58675 0
M  V30 6450 C 623.336 3.53686 -0.702758 0
M  V30 6451 O 622.44 4.11637 0.250828 0
M  V30 6452 H 621.781 0.63171 -0.204544 0
M  V30 6453 H 624.311 1.66145 -1.19402 0
M  V30 6454 H 624.321 4.03531 -0.602207 0
M  V30 6455 H 622.996 3.78361 -1.72673 0
M  V30 6456 H 621.573 3.72755 0.103873 0
M  V30 6457 N 623.758 0.647228 1.43697 0
M  V30 6458 C 625.169 0.238689 1.85168 0
M  V30 6459 C 625.52 -1.21345 1.54175 0
M  V30 6460 O 624.645 -1.92542 0.987743 0
M  V30 6461 C 625.24 0.426422 3.36106 0
M  V30 6462 C 623.799 0.0722541 3.76331 0
M  V30 6463 C 622.946 0.732153 2.6746 0
M  V30 6464 H 625.897 0.851309 1.33934 0
M  V30 6465 H 625.918 -0.32987 3.79067 0
M  V30 6466 H 625.43 1.48339 3.58632 0
M  V30 6467 H 623.531 -0.982355 3.59417 0
M  V30 6468 H 623.644 0.493541 4.76551 0
M  V30 6469 H 622.008 0.16594 2.54159 0
M  V30 6470 H 622.791 1.79204 2.92816 0
M  V30 6471 N 625.236 -1.5273 0.388769 0
M  V30 6472 C 626.464 -2.05992 -0.193677 0
M  V30 6473 C 626.879 -1.26053 -1.40557 0
M  V30 6474 O 626.236 -0.307049 -1.79898 0
M  V30 6475 C 626.287 -3.57068 -0.564321 0
M  V30 6476 O 626.008 -4.3398 0.599422 0
M  V30 6477 C 627.509 -4.26674 -1.20269 0
M  V30 6478 H 624.729 -0.670358 -0.0293445 0
M  V30 6479 H 627.273 -1.96857 0.553844 0
M  V30 6480 H 625.428 -3.66277 -1.26174 0
M  V30 6481 H 625.842 -5.2367 0.294895 0
M  V30 6482 H 627.316 -5.33625 -1.4124 0
M  V30 6483 H 627.793 -3.81854 -2.16989 0
M  V30 6484 H 628.399 -4.2178 -0.546047 0
M  V30 6485 N 626.714 -0.118576 -1.57153 0
M  V30 6486 C 627.944 0.546466 -1.99242 0
M  V30 6487 C 628.352 1.60791 -0.997148 0
M  V30 6488 O 627.695 1.83691 0.0181745 0
M  V30 6489 C 627.757 1.23167 -3.37743 0
M  V30 6490 C 627.421 0.318226 -4.55891 0
M  V30 6491 C 628.418 -0.442988 -5.18009 0
M  V30 6492 C 626.103 0.229421 -5.01776 0
M  V30 6493 C 628.097 -1.28074 -6.244 0
M  V30 6494 C 625.784 -0.611966 -6.08028 0
M  V30 6495 C 626.782 -1.36568 -6.69207 0
M  V30 6496 O 626.47 -2.1931 -7.73407 0
M  V30 6497 H 626.202 0.149297 -0.659307 0
M  V30 6498 H 628.756 -0.201603 -2.04408 0
M  V30 6499 H 626.986 2.0268 -3.29329 0
M  V30 6500 H 628.675 1.79358 -3.64123 0
M  V30 6501 H 629.441 -0.38425 -4.83475 0
M  V30 6502 H 625.32 0.805771 -4.53903 0
M  V30 6503 H 628.864 -1.86952 -6.72082 0
M  V30 6504 H 624.761 -0.6721 -6.41991 0
M  V30 6505 H 625.529 -2.12247 -7.90502 0
M  V30 6506 N 628.193 1.56834 0.155195 0
M  V30 6507 C 629.143 1.94061 1.19684 0
M  V30 6508 C 630.127 0.810851 1.38975 0
M  V30 6509 O 631.319 1.07422 1.40675 0
M  V30 6510 C 628.448 2.31778 2.53247 0
M  V30 6511 C 627.534 3.51305 2.37583 0
M  V30 6512 N 627.925 4.68081 1.9166 0
M  V30 6513 C 626.223 3.56228 2.6836 0
M  V30 6514 C 626.924 5.50193 1.88845 0
M  V30 6515 N 625.9 4.91676 2.31852 0
M  V30 6516 H 629.702 2.81826 0.833747 0
M  V30 6517 H 627.216 1.58284 0.363328 0
M  V30 6518 H 629.213 2.56649 3.28538 0
M  V30 6519 H 627.873 1.4536 2.90346 0
M  V30 6520 H 628.884 4.91993 1.6175 0
M  V30 6521 H 625.561 2.8033 3.09389 0
M  V30 6522 H 626.951 6.53801 1.54901 0
M  V30 6523 N 629.671 -0.424282 1.51781 0
M  V30 6524 C 631.087 -0.761768 1.40247 0
M  V30 6525 C 631.287 -1.95324 0.495041 0
M  V30 6526 O 630.343 -2.5246 -0.0448949 0
M  V30 6527 C 631.656 -1.0299 2.82513 0
M  V30 6528 C 633.204 -1.13354 2.91753 0
M  V30 6529 C 633.679 -1.43453 4.34954 0
M  V30 6530 N 635.17 -1.5035 4.3812 0
M  V30 6531 C 635.905 -1.75236 5.45967 0
M  V30 6532 N 635.401 -1.97827 6.63955 0
M  V30 6533 N 637.194 -1.77126 5.33463 0
M  V30 6534 H 629.345 0.360228 2.09323 0
M  V30 6535 H 631.608 0.0988128 0.942836 0
M  V30 6536 H 631.314 -0.226961 3.50967 0
M  V30 6537 H 631.188 -1.95411 3.22637 0
M  V30 6538 H 633.575 -1.92709 2.23489 0
M  V30 6539 H 633.656 -0.188041 2.55108 0
M  V30 6540 H 633.3 -0.646209 5.03772 0
M  V30 6541 H 633.23 -2.3923 4.69123 0
M  V30 6542 H 635.721 -1.34742 3.53062 0
M  V30 6543 H 636.034 -2.16223 7.41935 0
M  V30 6544 H 634.379 -1.95123 6.67047 0
M  V30 6545 H 637.57 -1.59005 4.40267 0
M  V30 6546 H 637.743 -1.96182 6.17589 0
M  V30 6547 N 631.149 -1.42148 -0.680565 0
M  V30 6548 C 632.099 -1.41634 -1.78672 0
M  V30 6549 C 633.083 -0.288494 -1.58293 0
M  V30 6550 O 634.275 -0.530295 -1.68869 0
M  V30 6551 C 631.404 -1.31558 -3.17092 0
M  V30 6552 C 630.49 -2.49265 -3.43115 0
M  V30 6553 N 630.881 -3.74702 -3.39753 0
M  V30 6554 C 629.179 -2.43401 -3.73727 0
M  V30 6555 C 629.88 -4.52854 -3.651 0
M  V30 6556 N 628.856 -3.83181 -3.85582 0
M  V30 6557 H 632.658 -2.3652 -1.74458 0
M  V30 6558 H 630.172 -1.36415 -0.881171 0
M  V30 6559 H 632.169 -1.29272 -3.96351 0
M  V30 6560 H 630.829 -0.376696 -3.22508 0
M  V30 6561 H 631.84 -4.07378 -3.19787 0
M  V30 6562 H 628.517 -1.58062 -3.86423 0
M  V30 6563 H 629.907 -5.61827 -3.6851 0
M  V30 6564 N 632.627 0.916307 -1.28225 0
M  V30 6565 C 633.855 1.69901 -1.18073 0
M  V30 6566 C 634.27 1.86988 0.260968 0
M  V30 6567 O 633.627 1.39505 1.17663 0
M  V30 6568 C 633.678 3.09254 -1.87201 0
M  V30 6569 O 633.399 2.92959 -3.2574 0
M  V30 6570 C 634.9 4.0362 -1.83319 0
M  V30 6571 H 632.12 0.531181 -0.409985 0
M  V30 6572 H 634.664 1.14703 -1.69303 0
M  V30 6573 H 632.819 3.61277 -1.39848 0
M  V30 6574 H 633.233 3.81139 -3.60324 0
M  V30 6575 H 634.707 4.98873 -2.36282 0
M  V30 6576 H 635.184 4.3176 -0.805007 0
M  V30 6577 H 635.79 3.57524 -2.3034 0
M  V30 6578 N 634.105 1.10431 1.1244 0
M  V30 6579 C 635.354 0.841539 1.83306 0
M  V30 6580 C 635.667 -0.634961 1.85007 0
M  V30 6581 O 636.873 -1.01363 2.51869 0
M  V30 6582 C 635.329 1.45565 3.29149 0
M  V30 6583 C 634.937 2.96544 3.35806 0
M  V30 6584 C 636.681 1.27227 4.04986 0
M  V30 6585 C 634.588 3.5099 4.75983 0
M  V30 6586 H 633.518 0.311156 0.686803 0
M  V30 6587 H 636.169 1.32829 1.26604 0
M  V30 6588 H 634.551 0.896574 3.85717 0
M  V30 6589 H 635.725 3.58766 2.89177 0
M  V30 6590 H 634.04 3.14036 2.73442 0
M  V30 6591 H 636.637 1.65348 5.08492 0
M  V30 6592 H 636.98 0.213834 4.1575 0
M  V30 6593 H 637.513 1.79941 3.54776 0
M  V30 6594 H 634.252 4.56499 4.70413 0
M  V30 6595 H 633.772 2.93535 5.23065 0
M  V30 6596 H 635.451 3.48808 5.44924 0
M  V30 6597 N 635.583 -1.29855 0.893053 0
M  V30 6598 C 636.813 -1.99686 0.530019 0
M  V30 6599 C 637.221 -1.67066 -0.888012 0
M  V30 6600 O 636.564 -0.908366 -1.5967 0
M  V30 6601 C 636.626 -3.53855 0.63457 0
M  V30 6602 C 636.29 -4.10013 2.01837 0
M  V30 6603 C 637.287 -4.25406 2.98874 0
M  V30 6604 C 634.972 -4.45202 2.32595 0
M  V30 6605 C 636.966 -4.7521 4.24799 0
M  V30 6606 C 634.653 -4.94704 3.58763 0
M  V30 6607 C 635.651 -5.09662 4.5468 0
M  V30 6608 O 635.339 -5.58093 5.78608 0
M  V30 6609 H 635.071 -0.644913 0.20264 0
M  V30 6610 H 637.625 -1.66518 1.20253 0
M  V30 6611 H 635.855 -3.86583 -0.0949477 0
M  V30 6612 H 637.544 -4.04922 0.281648 0
M  V30 6613 H 638.31 -3.98515 2.76425 0
M  V30 6614 H 634.189 -4.32822 1.58701 0
M  V30 6615 H 637.733 -4.86801 4.99671 0
M  V30 6616 H 633.63 -5.21032 3.81046 0
M  V30 6617 H 634.398 -5.7642 5.81104 0
M  V30 6618 N 637.061 -0.65484 -1.43351 0
M  V30 6619 C 638.309 -0.168559 -2.01396 0
M  V30 6620 C 638.63 1.22235 -1.51933 0
M  V30 6621 O 637.9 1.81685 -0.732627 0
M  V30 6622 H 636.48 -0.0593244 -0.744641 0
M  V30 6623 H 639.142 -0.846871 -1.75539 0
M  V30 6624 H 638.238 -0.154428 -3.11718 0
M  V30 6625 N 638.539 1.52521 -0.396863 0
M  V30 6626 C 639.502 2.2527 0.422604 0
M  V30 6627 C 640.502 1.27184 0.983913 0
M  V30 6628 O 641.692 1.51222 0.864723 0
M  V30 6629 C 638.824 3.01356 1.59365 0
M  V30 6630 H 640.017 2.99133 -0.214416 0
M  V30 6631 H 637.57 1.55587 -0.149128 0
M  V30 6632 H 638.305 2.31813 2.26789 0
M  V30 6633 H 638.09 3.73357 1.19779 0
M  V30 6634 H 639.58 3.56571 2.17363 0
M  V30 6635 N 640.017 0.126909 1.57088 0
M  V30 6636 C 640.947 -0.816847 2.18746 0
M  V30 6637 C 641.928 -1.27161 1.12979 0
M  V30 6638 O 643.113 -1.33279 1.41246 0
M  V30 6639 C 640.243 -2.06398 2.79315 0
M  V30 6640 C 639.197 -1.74673 3.90735 0
M  V30 6641 C 638.523 -3.06482 4.38147 0
M  V30 6642 C 639.823 -1.0089 5.12463 0
M  V30 6643 H 641.517 -0.303032 2.97863 0
M  V30 6644 H 639.063 -0.144314 1.43275 0
M  V30 6645 H 641.016 -2.72885 3.2111 0
M  V30 6646 H 639.74 -2.60118 1.975 0
M  V30 6647 H 638.399 -1.10572 3.49527 0
M  V30 6648 H 638.047 -3.58152 3.5318 0
M  V30 6649 H 637.747 -2.86025 5.13287 0
M  V30 6650 H 639.271 -3.74073 4.82599 0
M  V30 6651 H 640.685 -1.57546 5.51228 0
M  V30 6652 H 639.082 -0.905006 5.93237 0
M  V30 6653 H 640.152 0.00297335 4.849 0
M  V30 6654 N 641.495 -1.56914 -0.146875 0
M  V30 6655 C 642.741 -1.83628 -0.860741 0
M  V30 6656 C 643.074 -0.708528 -1.80813 0
M  V30 6657 O 642.349 0.287838 -1.92358 0
M  V30 6658 C 642.632 -3.20836 -1.63511 0
M  V30 6659 C 642.485 -4.44174 -0.709199 0
M  V30 6660 C 643.804 -3.55268 -2.59756 0
M  V30 6661 H 640.923 -0.667949 -0.311468 0
M  V30 6662 H 643.565 -1.89582 -0.125936 0
M  V30 6663 H 641.715 -3.15891 -2.26153 0
M  V30 6664 H 643.387 -4.61205 -0.0937781 0
M  V30 6665 H 641.63 -4.33796 -0.0187856 0
M  V30 6666 H 642.301 -5.36785 -1.28707 0
M  V30 6667 H 644.777 -3.60824 -2.07232 0
M  V30 6668 H 643.653 -4.52303 -3.10987 0
M  V30 6669 H 643.914 -2.81231 -3.41118 0
M  V30 6670 N 642.974 0.416227 -1.52004 0
M  V30 6671 C 644.222 1.16153 -1.65387 0
M  V30 6672 C 644.543 1.91208 -0.382669 0
M  V30 6673 O 643.813 1.86413 0.602231 0
M  V30 6674 H 642.393 0.431765 -0.60958 0
M  V30 6675 H 645.055 0.475151 -1.89019 0
M  V30 6676 H 644.151 1.87952 -2.4916 0
M  V30 6677 N 644.452 1.42507 0.673017 0
M  V30 6678 C 645.7 1.42789 1.43023 0
M  V30 6679 C 646.021 0.0459738 1.94946 0
M  V30 6680 O 645.291 -0.915765 1.73178 0
M  V30 6681 H 643.871 0.525657 0.530748 0
M  V30 6682 H 646.533 1.77944 0.795113 0
M  V30 6683 H 645.629 2.12872 2.28237 0
M  V30 6684 N 645.93 -0.909495 1.28709 0
M  V30 6685 C 647.341 -1.47419 1.14563 0
M  V30 6686 C 647.692 -1.94432 -0.262832 0
M  V30 6687 O 646.817 -1.82842 -1.15748 0
M  V30 6688 C 647.412 -2.67933 2.07358 0
M  V30 6689 C 645.971 -3.20568 1.97264 0
M  V30 6690 C 645.118 -1.93269 1.98852 0
M  V30 6691 H 648.069 -0.721787 1.41336 0
M  V30 6692 H 648.09 -3.43339 1.64007 0
M  V30 6693 H 647.602 -2.33685 3.09859 0
M  V30 6694 H 645.703 -3.59531 0.978157 0
M  V30 6695 H 645.816 -3.85529 2.84436 0
M  V30 6696 H 644.18 -2.10553 1.43317 0
M  V30 6697 H 644.963 -1.61312 3.0304 0
M  V30 6698 N 647.408 -1.11026 -1.11852 0
M  V30 6699 C 648.685 -0.768347 -1.79877 0
M  V30 6700 C 649.065 0.744261 -1.97545 0
M  V30 6701 O 648.413 1.67271 -1.55669 0
M  V30 6702 C 648.623 -1.52648 -3.13846 0
M  V30 6703 C 649.971 -1.70297 -3.88953 0
M  V30 6704 O 650.995 -1.49037 -3.23522 0
M  V30 6705 O 649.854 -2.05593 -5.06353 0
M  V30 6706 H 646.948 -0.277891 -0.778913 0
M  V30 6707 H 649.494 -1.21343 -1.18633 0
M  V30 6708 H 648.266 -2.55564 -2.96315 0
M  V30 6709 H 647.889 -1.07466 -3.82801 0
M  V30 6710 N 648.886 1.2938 -0.899927 0
M  V30 6711 C 649.834 2.29675 -0.367698 0
M  V30 6712 C 650.828 1.60787 0.533282 0
M  V30 6713 O 652.034 1.75126 0.416058 0
M  V30 6714 H 648.409 0.745284 -0.100279 0
M  V30 6715 H 650.38 2.72008 -1.22696 0
M  V30 6716 C 649.129 3.45512 0.389483 0
M  V30 6717 H 648.452 3.98713 -0.294575 0
M  V30 6718 H 649.892 4.17725 0.726744 0
M  V30 6719 C 648.351 2.969 1.59223 0
M  V30 6720 O 648.881 2.98195 2.69152 0
M  V30 6721 N 647.087 2.52728 1.43447 0
M  V30 6722 H 646.634 2.51873 0.540148 0
M  V30 6723 H 646.592 2.20561 2.24054 0
M  V30 6724 N 650.364 0.662433 1.43002 0
M  V30 6725 C 651.327 -0.0142016 2.29196 0
M  V30 6726 C 652.327 -0.741394 1.42688 0
M  V30 6727 O 653.517 -0.581257 1.64216 0
M  V30 6728 C 650.649 -1.03084 3.24941 0
M  V30 6729 H 651.842 0.7443 2.90517 0
M  V30 6730 H 649.395 0.424133 1.50435 0
M  V30 6731 H 650.13 -1.81826 2.68533 0
M  V30 6732 H 649.915 -0.512946 3.8873 0
M  V30 6733 H 651.405 -1.50308 3.89612 0
M  V30 6734 N 651.842 -1.52309 0.404946 0
M  V30 6735 C 653.119 -1.94237 -0.230544 0
M  V30 6736 C 653.499 -1.34154 -1.6299 0
M  V30 6737 O 652.847 -0.515713 -2.22604 0
M  V30 6738 C 653.057 -3.48166 -0.241106 0
M  V30 6739 C 654.405 -4.22074 -0.462488 0
M  V30 6740 O 655.429 -3.54754 -0.320644 0
M  V30 6741 O 654.288 -5.41443 -0.741708 0
M  V30 6742 H 651.382 -0.813766 -0.147358 0
M  V30 6743 H 653.928 -1.6333 0.460587 0
M  V30 6744 H 652.7 -3.84269 0.738467 0
M  V30 6745 H 652.323 -3.85422 -0.97651 0
M  V30 6746 N 653.32 -0.135238 -1.57019 0
M  V30 6747 C 654.568 0.51777 -1.95355 0
M  V30 6748 C 654.889 1.6617 -1.02042 0
M  V30 6749 O 654.159 1.95738 -0.0797343 0
M  V30 6750 H 652.739 0.194264 -0.721298 0
M  V30 6751 H 655.401 -0.207983 -1.93787 0
M  V30 6752 H 654.497 0.901675 -2.98791 0
M  V30 6753 N 654.798 1.5699 0.138552 0
M  V30 6754 C 656.028 1.87704 0.863184 0
M  V30 6755 C 656.436 0.722411 1.74865 0
M  V30 6756 O 655.779 -0.316636 1.80951 0
M  V30 6757 C 655.841 3.13219 1.76449 0
M  V30 6758 C 655.505 4.44648 1.05532 0
M  V30 6759 C 656.502 5.18318 0.405252 0
M  V30 6760 C 654.187 4.91367 1.04231 0
M  V30 6761 C 656.181 6.36916 -0.24835 0
M  V30 6762 C 653.868 6.09887 0.384904 0
M  V30 6763 C 654.866 6.82508 -0.259292 0
M  V30 6764 O 654.554 7.98775 -0.906258 0
M  V30 6765 H 654.286 0.626255 0.254521 0
M  V30 6766 H 656.84 2.04966 0.133472 0
M  V30 6767 H 655.07 2.91988 2.53535 0
M  V30 6768 H 656.759 3.30111 2.36181 0
M  V30 6769 H 657.525 4.83289 0.407053 0
M  V30 6770 H 653.404 4.34759 1.53315 0
M  V30 6771 H 656.948 6.93538 -0.751755 0
M  V30 6772 H 652.845 6.44376 0.380799 0
M  V30 6773 H 653.613 8.14494 -0.80877 0
M  V30 6774 N 656.276 -0.40816 1.52223 0
M  V30 6775 C 657.504 -1.17672 1.70179 0
M  V30 6776 C 657.919 -1.84257 0.411696 0
M  V30 6777 O 657.276 -1.7192 -0.612354 0
M  V30 6778 C 657.327 -2.23911 2.83806 0
M  V30 6779 O 657.048 -1.60044 4.0782 0
M  V30 6780 C 658.549 -3.1364 3.13281 0
M  V30 6781 H 655.769 -0.353562 0.570293 0
M  V30 6782 H 658.313 -0.480083 1.98785 0
M  V30 6783 H 656.468 -2.89242 2.57717 0
M  V30 6784 H 656.882 -2.30484 4.71145 0
M  V30 6785 H 658.356 -3.84255 3.96298 0
M  V30 6786 H 658.833 -3.76066 2.26872 0
M  V30 6787 H 659.439 -2.53977 3.41139 0
M  V30 6788 N 657.755 -1.42862 -0.66545 0
M  V30 6789 C 659.032 -1.3431 -1.42197 0
M  V30 6790 C 659.412 0.0150265 -2.11095 0
M  V30 6791 O 658.76 1.03101 -2.03918 0
M  V30 6792 C 658.97 -2.51783 -2.41674 0
M  V30 6793 C 660.318 -2.94321 -3.0604 0
M  V30 6794 O 661.342 -2.51741 -2.52001 0
M  V30 6795 O 660.201 -3.68047 -4.03985 0
M  V30 6796 H 657.295 -0.530159 -0.634713 0
M  V30 6797 H 659.841 -1.54888 -0.693386 0
M  V30 6798 H 658.613 -3.42282 -1.89627 0
M  V30 6799 H 658.236 -2.33241 -3.22001 0
M  V30 6800 N 659.233 0.902656 -1.29189 0
M  V30 6801 C 660.143 2.03946 -1.15944 0
M  V30 6802 C 661.159 1.738 -0.0833803 0
M  V30 6803 O 662.335 1.9923 -0.29487 0
M  V30 6804 C 659.4 3.36519 -0.834006 0
M  V30 6805 C 658.461 3.80203 -1.9936 0
M  V30 6806 C 657.694 5.06449 -1.68359 0
M  V30 6807 O 657.917 5.67202 -0.603141 0
M  V30 6808 O 656.851 5.46114 -2.53067 0
M  V30 6809 H 660.677 2.18043 -2.11403 0
M  V30 6810 H 658.262 1.02584 -1.08613 0
M  V30 6811 H 660.144 4.16089 -0.666949 0
M  V30 6812 H 658.819 3.23573 0.0908245 0
M  V30 6813 H 657.726 3.01413 -2.21588 0
M  V30 6814 H 659.059 3.97729 -2.89952 0
M  V30 6815 N 660.711 1.11618 1.11262 0
M  V30 6816 C 661.96 0.860934 1.82403 0
M  V30 6817 C 662.273 -0.615303 1.8567 0
M  V30 6818 O 663.479 -0.986861 2.52929 0
M  V30 6819 C 661.935 1.49048 3.27586 0
M  V30 6820 C 661.543 3.00089 3.32642 0
M  V30 6821 C 663.287 1.31515 4.03614 0
M  V30 6822 C 661.194 3.56019 4.72234 0
M  V30 6823 H 660.124 0.318423 0.683464 0
M  V30 6824 H 662.775 1.34165 1.25188 0
M  V30 6825 H 661.157 0.937434 3.84744 0
M  V30 6826 H 662.331 3.61813 2.85356 0
M  V30 6827 H 660.646 3.16919 2.70096 0
M  V30 6828 H 663.243 1.70732 5.0671 0
M  V30 6829 H 663.586 0.257917 4.155 0
M  V30 6830 H 664.119 1.83694 3.52848 0
M  V30 6831 H 660.858 4.61463 4.65545 0
M  V30 6832 H 660.378 2.99066 5.19923 0
M  V30 6833 H 662.057 3.54568 5.41193 0
M  V30 6834 N 662.189 -1.289 0.906776 0
M  V30 6835 C 663.137 -2.29477 0.379873 0
M  V30 6836 C 664.131 -1.61068 -0.524747 0
M  V30 6837 O 665.337 -1.75344 -0.406765 0
M  V30 6838 H 661.712 -0.744742 0.10423 0
M  V30 6839 H 663.683 -2.71353 1.24137 0
M  V30 6840 C 662.432 -3.45713 -0.371154 0
M  V30 6841 H 661.755 -3.98551 0.315716 0
M  V30 6842 H 663.195 -4.18105 -0.704581 0
M  V30 6843 C 661.654 -2.9774 -1.57646 0
M  V30 6844 O 662.184 -2.99618 -2.67567 0
M  V30 6845 N 660.39 -2.53485 -1.42105 0
M  V30 6846 H 659.937 -2.52156 -0.526783 0
M  V30 6847 H 659.895 -2.21747 -2.22881 0
M  V30 6848 N 663.667 -0.670007 -1.42649 0
M  V30 6849 C 664.615 0.0230106 -2.32589 0
M  V30 6850 C 665.609 0.795585 -1.49555 0
M  V30 6851 O 666.815 0.70409 -1.65658 0
M  V30 6852 H 663.19 0.0262342 -0.751542 0
M  V30 6853 H 665.161 -0.753009 -2.88743 0
M  V30 6854 C 663.91 0.963872 -3.34073 0
M  V30 6855 H 663.233 0.378813 -3.98001 0
M  V30 6856 H 664.673 1.41755 -3.99602 0
M  V30 6857 C 663.132 2.06797 -2.65964 0
M  V30 6858 O 663.662 3.15383 -2.48789 0
M  V30 6859 N 661.868 1.83831 -2.25066 0
M  V30 6860 H 661.415 0.955235 -2.39234 0
M  V30 6861 H 661.373 2.57895 -1.79827 0
M  V30 6862 N 665.145 1.52092 -0.413018 0
M  V30 6863 C 666.375 2.05974 0.160648 0
M  V30 6864 C 666.783 1.28267 1.39084 0
M  V30 6865 O 666.126 0.328805 1.80733 0
M  V30 6866 C 666.188 3.54918 0.572169 0
M  V30 6867 C 665.852 4.53705 -0.547826 0
M  V30 6868 C 666.849 5.00342 -1.41259 0
M  V30 6869 C 664.534 4.97089 -0.721627 0
M  V30 6870 C 666.528 5.89011 -2.43607 0
M  V30 6871 C 664.215 5.85554 -1.74841 0
M  V30 6872 C 665.213 6.3141 -2.60403 0
M  V30 6873 O 664.901 7.18123 -3.61323 0
M  V30 6874 H 664.633 0.675636 0.0221936 0
M  V30 6875 H 667.187 1.96931 -0.58373 0
M  V30 6876 H 665.417 3.61661 1.36889 0
M  V30 6877 H 667.106 3.91428 1.0742 0
M  V30 6878 H 667.872 4.67537 -1.28974 0
M  V30 6879 H 663.751 4.60954 -0.0652911 0
M  V30 6880 H 667.295 6.24725 -3.10425 0
M  V30 6881 H 663.192 6.17773 -1.87156 0
M  V30 6882 H 663.96 7.36244 -3.57613 0
M  V30 6883 N 666.623 0.143563 1.56945 0
M  V30 6884 C 667.869 -0.50916 1.96304 0
M  V30 6885 C 668.202 -1.64741 1.0283 0
M  V30 6886 O 667.477 -1.94374 0.0700361 0
M  V30 6887 C 667.76 -1.0186 3.45393 0
M  V30 6888 C 667.613 0.117923 4.49645 0
M  V30 6889 C 668.932 -1.90151 3.96901 0
M  V30 6890 H 666.051 -0.183608 0.713763 0
M  V30 6891 H 668.693 0.224095 1.88674 0
M  V30 6892 H 666.843 -1.64345 3.52027 0
M  V30 6893 H 668.515 0.754145 4.55094 0
M  V30 6894 H 666.758 0.777568 4.26774 0
M  V30 6895 H 667.429 -0.280187 5.51288 0
M  V30 6896 H 669.905 -1.375 3.92725 0
M  V30 6897 H 668.781 -2.22707 5.0169 0
M  V30 6898 H 669.042 -2.83718 3.39052 0
M  V30 6899 N 668.101 -1.57061 -0.130224 0
M  V30 6900 C 669.049 -2.00486 -1.17933 0
M  V30 6901 C 670.043 -0.899933 -1.43519 0
M  V30 6902 O 671.249 -1.08514 -1.43613 0
M  V30 6903 H 667.624 -0.638441 -0.397363 0
M  V30 6904 H 669.595 -2.87848 -0.786501 0
M  V30 6905 C 668.344 -2.41565 -2.50084 0
M  V30 6906 H 667.667 -3.26148 -2.31231 0
M  V30 6907 H 669.107 -2.75757 -3.22078 0
M  V30 6908 C 667.566 -1.27485 -3.11848 0
M  V30 6909 O 668.096 -0.584688 -3.97422 0
M  V30 6910 N 666.302 -1.03478 -2.71552 0
M  V30 6911 H 665.849 -1.59779 -2.02061 0
M  V30 6912 H 665.807 -0.27341 -3.13209 0
M  V30 6913 N 669.579 0.400081 -1.52437 0
M  V30 6914 C 670.527 1.50851 -1.7705 0
M  V30 6915 C 671.521 1.56928 -0.637969 0
M  V30 6916 O 672.727 1.60226 -0.820212 0
M  V30 6917 H 669.102 0.50186 -0.560036 0
M  V30 6918 H 671.073 1.27281 -2.69893 0
M  V30 6919 C 669.822 2.88117 -1.94638 0
M  V30 6920 H 669.145 2.84187 -2.81208 0
M  V30 6921 H 670.585 3.64942 -2.15855 0
M  V30 6922 C 669.044 3.29206 -0.715899 0
M  V30 6923 O 669.574 4.01544 0.111944 0
M  V30 6924 N 667.78 2.85363 -0.549191 0
M  V30 6925 H 667.327 2.26664 -1.22397 0
M  V30 6926 H 667.285 3.13214 0.27278 0
M  V30 6927 N 671.057 1.43213 0.657864 0
M  V30 6928 C 671.967 1.50448 1.80007 0
M  V30 6929 C 672.983 0.39191 1.69529 0
M  V30 6930 O 674.159 0.645349 1.90781 0
M  V30 6931 C 671.224 1.42062 3.16258 0
M  V30 6932 C 670.285 2.63951 3.38568 0
M  V30 6933 C 669.518 2.55956 4.68318 0
M  V30 6934 O 669.741 1.60473 5.47361 0
M  V30 6935 O 668.675 3.46378 4.92245 0
M  V30 6936 H 672.501 2.4689 1.76858 0
M  V30 6937 H 670.086 1.25163 0.81576 0
M  V30 6938 H 671.968 1.3981 3.97531 0
M  V30 6939 H 670.643 0.487524 3.20008 0
M  V30 6940 H 669.55 2.71776 2.57077 0
M  V30 6941 H 670.883 3.56217 3.39662 0
M  V30 6942 N 672.536 -0.895792 1.29666 0
M  V30 6943 C 673.785 -1.64131 1.17234 0
M  V30 6944 C 674.098 -1.93665 -0.274416 0
M  V30 6945 O 675.304 -2.66472 -0.520105 0
M  V30 6946 C 673.76 -2.95764 2.05065 0
M  V30 6947 C 673.368 -2.7381 3.54587 0
M  V30 6948 C 675.112 -3.737 2.01367 0
M  V30 6949 C 673.019 -4.01194 4.34508 0
M  V30 6950 H 671.949 -0.615742 0.435175 0
M  V30 6951 H 674.6 -0.992626 1.54335 0
M  V30 6952 H 672.982 -3.61867 1.60837 0
M  V30 6953 H 674.156 -2.16277 4.06892 0
M  V30 6954 H 672.471 -2.09265 3.59996 0
M  V30 6955 H 675.068 -4.68152 2.58337 0
M  V30 6956 H 675.411 -4.04245 0.994575 0
M  V30 6957 H 675.944 -3.14444 2.43659 0
M  V30 6958 H 672.683 -3.75813 5.37071 0
M  V30 6959 H 672.203 -4.58272 3.86971 0
M  V30 6960 H 673.882 -4.69307 4.45376 0
M  V30 6961 N 674.014 -1.12206 -1.10668 0
M  V30 6962 C 674.977 -0.790867 -2.15123 0
M  V30 6963 C 675.977 0.193618 -1.5963 0
M  V30 6964 O 677.167 -0.0318728 -1.74171 0
M  V30 6965 C 674.299 -0.174797 -3.40452 0
M  V30 6966 H 675.492 -1.7163 -2.45933 0
M  V30 6967 H 673.045 -0.924993 -1.2599 0
M  V30 6968 H 673.78 0.760478 -3.15257 0
M  V30 6969 H 673.565 -0.88358 -3.82015 0
M  V30 6970 H 675.055 0.0405162 -4.1758 0
M  V30 6971 N 675.492 1.28418 -0.913599 0
M  V30 6972 C 676.732 1.96756 -0.553771 0
M  V30 6973 C 677.096 1.70334 0.886013 0
M  V30 6974 O 678.297 2.32242 1.35341 0
M  V30 6975 C 676.568 3.47041 -0.854249 0
M  V30 6976 S 678.127 4.34667 -0.600816 0
M  V30 6977 H 674.945 0.680831 -0.204915 0
M  V30 6978 H 677.547 1.55947 -1.17902 0
M  V30 6979 H 676.251 3.63766 -1.90007 0
M  V30 6980 H 675.782 3.92797 -0.217651 0
M  V30 6981 H 677.797 4.93166 0.547906 0
M  V30 6982 N 676.97 0.677563 1.42291 0
M  V30 6983 C 678.247 0.129803 1.95169 0
M  V30 6984 C 678.627 -1.35605 1.61786 0
M  V30 6985 O 677.975 -2.09361 0.915444 0
M  V30 6986 C 678.185 0.401889 3.46678 0
M  V30 6987 C 679.533 0.319889 4.23393 0
M  V30 6988 O 680.557 0.33579 3.54614 0
M  V30 6989 O 679.416 0.264459 5.4586 0
M  V30 6990 H 676.51 0.00447433 0.826988 0
M  V30 6991 H 679.056 0.752483 1.52105 0
M  V30 6992 H 677.828 1.43108 3.64192 0
M  V30 6993 H 677.451 -0.252662 3.96796 0
M  V30 6994 N 678.448 -1.51871 0.421078 0
M  V30 6995 C 679.678 -2.06057 -0.149723 0
M  V30 6996 C 680.086 -1.29002 -1.38402 0
M  V30 6997 O 679.429 -0.338385 -1.80556 0
M  V30 6998 C 679.491 -3.55216 -0.553339 0
M  V30 6999 C 679.155 -4.53408 0.571879 0
M  V30 7000 C 680.152 -4.99586 1.4391 0
M  V30 7001 C 677.837 -4.967 0.747979 0
M  V30 7002 C 679.831 -5.87711 2.46727 0
M  V30 7003 C 677.518 -5.84619 1.77944 0
M  V30 7004 C 678.516 -6.30021 2.63748 0
M  V30 7005 O 678.204 -7.16197 3.65126 0
M  V30 7006 H 677.936 -0.675744 -0.0186102 0
M  V30 7007 H 680.49 -1.96618 0.594166 0
M  V30 7008 H 678.72 -3.62381 -1.34969 0
M  V30 7009 H 680.409 -3.91992 -1.05342 0
M  V30 7010 H 681.175 -4.66846 1.31451 0
M  V30 7011 H 677.054 -4.60913 0.0897357 0
M  V30 7012 H 680.598 -6.2307 3.13734 0
M  V30 7013 H 676.495 -6.16771 1.90429 0
M  V30 7014 H 677.263 -7.34337 3.61512 0
M  V30 7015 N 679.926 -0.151884 -1.56866 0
M  V30 7016 C 680.874 0.80299 -2.183 0
M  V30 7017 C 681.868 1.25174 -1.14139 0
M  V30 7018 O 683.074 1.21966 -1.3238 0
M  V30 7019 H 679.449 0.277169 -0.699057 0
M  V30 7020 H 681.42 0.260699 -2.97259 0
M  V30 7021 C 680.169 2.03009 -2.82281 0
M  V30 7022 H 679.492 1.69377 -3.62148 0
M  V30 7023 H 680.932 2.67753 -3.28762 0
M  V30 7024 C 679.391 2.84123 -1.81041 0
M  V30 7025 O 679.921 3.8063 -1.28388 0
M  V30 7026 N 678.127 2.48753 -1.50234 0
M  V30 7027 H 677.674 1.70337 -1.93244 0
M  V30 7028 H 677.632 3.03316 -0.827445 0
M  V30 7029 N 681.404 1.57128 0.121893 0
M  V30 7030 C 682.367 1.99197 1.13372 0
M  V30 7031 C 683.367 0.881728 1.3447 0
M  V30 7032 O 684.557 1.14783 1.31036 0
M  V30 7033 C 681.689 2.32963 2.4888 0
M  V30 7034 H 682.882 2.89788 0.772204 0
M  V30 7035 H 680.435 1.51952 0.366093 0
M  V30 7036 H 681.17 1.45243 2.89957 0
M  V30 7037 H 680.955 3.13934 2.34921 0
M  V30 7038 H 682.445 2.66261 3.21706 0
M  V30 7039 N 682.882 -0.391992 1.52647 0
M  V30 7040 C 684.13 -1.13507 1.67214 0
M  V30 7041 C 684.451 -1.90575 0.41304 0
M  V30 7042 O 683.721 -1.87348 -0.572498 0
M  V30 7043 H 682.301 -0.422013 0.616372 0
M  V30 7044 H 684.963 -0.44502 1.89751 0
M  V30 7045 H 684.059 -1.83964 2.52118 0
M  V30 7046 N 684.36 -1.4356 -0.65026 0
M  V30 7047 C 685.607 -1.45333 -1.41012 0
M  V30 7048 C 685.935 -0.0787282 -1.94341 0
M  V30 7049 O 685.19 0.916715 -1.72901 0
M  V30 7050 C 685.489 -2.44528 -2.60654 0
M  V30 7051 C 685.155 -3.90331 -2.25727 0
M  V30 7052 C 683.817 -4.3004 -2.15914 0
M  V30 7053 C 686.169 -4.822 -1.97821 0
M  V30 7054 C 683.497 -5.59568 -1.76354 0
M  V30 7055 C 685.849 -6.12095 -1.59759 0
M  V30 7056 C 684.513 -6.50778 -1.48473 0
M  V30 7057 H 683.783 -0.531813 -0.516 0
M  V30 7058 H 686.43 -1.76657 -0.739219 0
M  V30 7059 H 684.735 -2.06619 -3.3289 0
M  V30 7060 H 686.432 -2.43155 -3.18868 0
M  V30 7061 H 683.022 -3.58905 -2.34276 0
M  V30 7062 H 687.206 -4.5229 -2.04322 0
M  V30 7063 H 682.462 -5.88376 -1.66205 0
M  V30 7064 H 686.636 -6.82751 -1.37198 0
M  V30 7065 H 684.263 -7.5105 -1.17591 0
M  V30 7066 N 685.838 0.888903 -1.30139 0
M  V30 7067 C 687.066 1.67358 -1.21651 0
M  V30 7068 C 687.481 1.87499 0.221246 0
M  V30 7069 O 686.838 1.41969 1.14677 0
M  V30 7070 C 686.889 3.05213 -1.93719 0
M  V30 7071 O 686.61 2.85984 -3.31881 0
M  V30 7072 C 688.111 3.9964 -1.9184 0
M  V30 7073 H 685.331 0.522365 -0.42116 0
M  V30 7074 H 687.875 1.11086 -1.71698 0
M  V30 7075 H 686.03 3.5823 -1.4748 0
M  V30 7076 H 686.444 3.73411 -3.68327 0
M  V30 7077 H 687.918 4.93749 -2.46811 0
M  V30 7078 H 688.395 4.29955 -0.896409 0
M  V30 7079 H 689.001 3.52558 -2.37872 0
M  V30 7080 N 687.317 1.12792 1.10072 0
M  V30 7081 C 688.565 0.883796 1.81751 0
M  V30 7082 C 688.886 -0.591891 1.858 0
M  V30 7083 O 688.156 -1.43017 1.33876 0
M  V30 7084 H 686.736 0.323978 0.673088 0
M  V30 7085 H 689.398 1.42314 1.33164 0
M  V30 7086 H 688.494 1.26863 2.85153 0
M  V30 7087 N 688.795 -1.27931 0.920396 0
M  V30 7088 C 689.758 -2.25345 0.41858 0
M  V30 7089 C 690.758 -1.54116 -0.458798 0
M  V30 7090 O 691.948 -1.72235 -0.260912 0
M  V30 7091 C 689.08 -3.38556 -0.399104 0
M  V30 7092 H 690.273 -2.71251 1.27918 0
M  V30 7093 H 687.826 -1.39728 0.700406 0
M  V30 7094 H 688.561 -2.98021 -1.27882 0
M  V30 7095 H 688.346 -3.91426 0.229863 0
M  V30 7096 H 689.836 -4.10976 -0.740817 0
M  V30 7097 N 690.273 -0.685099 -1.4193 0
M  V30 7098 C 691.203 -0.0273506 -2.33484 0
M  V30 7099 C 692.184 0.778366 -1.51246 0
M  V30 7100 O 693.369 0.733449 -1.79817 0
M  V30 7101 C 690.499 0.917272 -3.34968 0
M  V30 7102 C 689.453 0.21941 -4.27437 0
M  V30 7103 C 688.779 1.27768 -5.1921 0
M  V30 7104 C 690.079 -0.907894 -5.14349 0
M  V30 7105 H 691.773 -0.791994 -2.88735 0
M  V30 7106 H 689.319 -0.382308 -1.38832 0
M  V30 7107 H 691.272 1.38657 -3.97935 0
M  V30 7108 H 689.996 1.71346 -2.78043 0
M  V30 7109 H 688.655 -0.229757 -3.65879 0
M  V30 7110 H 688.303 2.06612 -4.58607 0
M  V30 7111 H 688.003 0.815803 -5.81909 0
M  V30 7112 H 689.527 1.7477 -5.85054 0
M  V30 7113 H 690.941 -0.519348 -5.70943 0
M  V30 7114 H 689.338 -1.2962 -5.85934 0
M  V30 7115 H 690.408 -1.75218 -4.52136 0
M  V30 7116 N 691.751 1.51645 -0.429126 0
M  V30 7117 C 692.714 2.26116 0.374726 0
M  V30 7118 C 693.714 1.29242 0.956714 0
M  V30 7119 O 694.904 1.53022 0.832452 0
M  V30 7120 C 692.036 3.04669 1.52937 0
M  V30 7121 H 693.229 2.9861 -0.277818 0
M  V30 7122 H 690.782 1.55236 -0.182097 0
M  V30 7123 H 691.517 2.36571 2.21821 0
M  V30 7124 H 691.302 3.75814 1.11833 0
M  V30 7125 H 692.792 3.61102 2.09751 0
M  V30 7126 N 693.229 0.160201 1.56784 0
M  V30 7127 C 694.176 -0.774416 2.1742 0
M  V30 7128 C 695.146 -1.23483 1.11091 0
M  V30 7129 O 696.331 -1.30499 1.39193 0
M  V30 7130 C 693.471 -2.00283 2.81035 0
M  V30 7131 C 692.584 -1.58701 4.01793 0
M  V30 7132 C 691.719 -2.76824 4.53367 0
M  V30 7133 C 690.758 -2.31679 5.66561 0
M  V30 7134 N 689.895 -3.42856 6.12694 0
M  V30 7135 H 694.735 -0.250542 2.96945 0
M  V30 7136 H 692.272 -0.111943 1.46673 0
M  V30 7137 H 694.23 -2.72316 3.16069 0
M  V30 7138 H 692.86 -2.5006 2.04132 0
M  V30 7139 H 691.912 -0.76384 3.72652 0
M  V30 7140 H 693.224 -1.21555 4.83762 0
M  V30 7141 H 692.378 -3.57029 4.90525 0
M  V30 7142 H 691.117 -3.17223 3.70433 0
M  V30 7143 H 690.122 -1.49917 5.28966 0
M  V30 7144 H 691.347 -1.9235 6.5129 0
M  V30 7145 H 689.293 -3.82852 5.32692 0
M  V30 7146 H 689.21 -3.09767 6.89624 0
M  V30 7147 H 690.478 -4.23379 6.545 0
M  V30 7148 N 694.707 -1.5719 -0.113559 0
M  V30 7149 C 695.64 -1.9595 -1.16957 0
M  V30 7150 C 696.618 -0.829951 -1.39823 0
M  V30 7151 O 697.802 -1.08861 -1.53888 0
M  V30 7152 C 694.929 -2.2604 -2.52237 0
M  V30 7153 C 693.975 -3.48571 -2.45765 0
M  V30 7154 S 694.808 -5.00962 -1.89203 0
M  V30 7155 C 695.964 -5.3421 -3.26145 0
M  V30 7156 H 696.197 -2.85214 -0.839069 0
M  V30 7157 H 693.73 -1.51036 -0.320529 0
M  V30 7158 H 695.688 -2.44054 -3.30073 0
M  V30 7159 H 694.349 -1.3738 -2.82463 0
M  V30 7160 H 693.542 -3.67008 -3.45429 0
M  V30 7161 H 693.144 -3.29972 -1.76053 0
M  V30 7162 H 695.436 -5.29725 -4.22371 0
M  V30 7163 H 696.379 -6.35398 -3.12529 0
M  V30 7164 H 696.787 -4.61681 -3.24825 0
M  V30 7165 N 696.185 0.383891 -1.52853 0
M  V30 7166 C 697.415 1.14783 -1.7178 0
M  V30 7167 C 697.823 1.84055 -0.438211 0
M  V30 7168 O 697.166 1.73713 0.597465 0
M  V30 7169 C 697.228 2.23543 -2.81547 0
M  V30 7170 C 696.892 1.74195 -4.22499 0
M  V30 7171 C 697.889 1.21591 -5.05481 0
M  V30 7172 C 695.574 1.80262 -4.6884 0
M  V30 7173 C 697.568 0.757104 -6.32888 0
M  V30 7174 C 695.255 1.33993 -5.96229 0
M  V30 7175 C 696.253 0.818049 -6.78083 0
M  V30 7176 O 695.941 0.362123 -8.03084 0
M  V30 7177 H 695.673 0.349908 -0.578395 0
M  V30 7178 H 698.227 0.454377 -2.00311 0
M  V30 7179 H 696.457 2.96328 -2.48449 0
M  V30 7180 H 698.146 2.8519 -2.88828 0
M  V30 7181 H 698.912 1.16257 -4.7086 0
M  V30 7182 H 694.791 2.19825 -4.05213 0
M  V30 7183 H 698.335 0.34908 -6.96726 0
M  V30 7184 H 694.232 1.39015 -6.30353 0
M  V30 7185 H 695 0.483134 -8.17073 0
M  V30 7186 N 697.663 1.43903 0.642637 0
M  V30 7187 C 698.61 1.49881 1.75512 0
M  V30 7188 C 699.58 0.347538 1.62423 0
M  V30 7189 O 700.765 0.556177 1.82514 0
M  V30 7190 C 697.905 1.43797 3.13714 0
M  V30 7191 C 697.018 2.6921 3.37861 0
M  V30 7192 C 696.153 2.5504 4.6597 0
M  V30 7193 C 695.192 3.75671 4.83257 0
M  V30 7194 N 694.329 3.60247 6.02633 0
M  V30 7195 H 699.169 2.44935 1.69737 0
M  V30 7196 H 696.706 1.21572 0.828165 0
M  V30 7197 H 698.664 1.38262 3.93624 0
M  V30 7198 H 697.294 0.523173 3.18532 0
M  V30 7199 H 696.346 2.8498 2.51973 0
M  V30 7200 H 697.658 3.58786 3.46517 0
M  V30 7201 H 696.812 2.47273 5.54023 0
M  V30 7202 H 695.551 1.63006 4.59653 0
M  V30 7203 H 694.556 3.83836 3.93637 0
M  V30 7204 H 695.781 4.68728 4.91397 0
M  V30 7205 H 693.727 2.70955 5.97427 0
M  V30 7206 H 693.644 4.43431 6.12295 0
M  V30 7207 H 694.912 3.56351 6.93278 0
M  V30 7208 N 699.141 -0.881989 1.30609 0
M  V30 7209 C 700.091 -1.97539 1.13852 0
M  V30 7210 C 701.075 -1.60813 0.0528428 0
M  V30 7211 O 702.267 -1.74827 0.276484 0
M  V30 7212 C 699.396 -3.32977 0.835519 0
M  V30 7213 C 698.482 -3.76008 1.96159 0
M  V30 7214 N 698.873 -3.91109 3.20729 0
M  V30 7215 C 697.171 -4.05427 1.85863 0
M  V30 7216 C 697.872 -4.27661 3.94311 0
M  V30 7217 N 696.848 -4.37686 3.22385 0
M  V30 7218 H 700.65 -2.07309 2.08327 0
M  V30 7219 H 698.164 -1.072 1.21992 0
M  V30 7220 H 700.161 -4.11041 0.696477 0
M  V30 7221 H 698.821 -3.24542 -0.101135 0
M  V30 7222 H 699.832 -3.7616 3.55984 0
M  V30 7223 H 696.509 -4.05449 0.995847 0
M  V30 7224 H 697.899 -4.47042 5.01601 0
M  V30 7225 N 700.619 -1.13374 -1.09472 0
M  V30 7226 C 701.844 -0.918711 -1.85942 0
M  V30 7227 C 702.269 0.527225 -1.8056 0
M  V30 7228 O 701.627 1.37408 -1.18274 0
M  V30 7229 C 701.675 -1.41056 -3.31867 0
M  V30 7230 O 700.779 -0.595496 -4.08078 0
M  V30 7231 H 700.12 -0.329297 -0.576593 0
M  V30 7232 H 702.65 -1.50829 -1.38245 0
M  V30 7233 H 702.66 -1.41398 -3.82715 0
M  V30 7234 H 701.335 -2.46335 -3.35099 0
M  V30 7235 H 699.912 -0.659911 -3.67014 0
M  V30 7236 N 702.098 1.27442 -0.927168 0
M  V30 7237 C 703.346 1.94007 -0.566203 0
M  V30 7238 C 703.667 1.7323 0.895345 0
M  V30 7239 O 702.937 1.07973 1.63459 0
M  V30 7240 H 701.517 0.717917 -0.206409 0
M  V30 7241 H 704.179 1.55161 -1.17945 0
M  V30 7242 H 703.275 3.02401 -0.772028 0
M  V30 7243 N 703.576 0.692616 1.41565 0
M  V30 7244 C 704.824 0.221896 2.00878 0
M  V30 7245 C 705.145 -1.18164 1.5512 0
M  V30 7246 O 704.415 -1.79679 0.78054 0
M  V30 7247 H 702.995 0.0790463 0.742806 0
M  V30 7248 H 705.657 0.893115 1.73232 0
M  V30 7249 H 704.753 0.23702 3.11199 0
M  V30 7250 N 705.054 -1.51416 0.437162 0
M  V30 7251 C 706.331 -1.94682 -0.189292 0
M  V30 7252 C 706.711 -1.37581 -1.60108 0
M  V30 7253 O 706.059 -0.562815 -2.2146 0
M  V30 7254 C 706.269 -3.48599 -0.167201 0
M  V30 7255 C 707.617 -4.2296 -0.372856 0
M  V30 7256 O 708.641 -3.55354 -0.245323 0
M  V30 7257 O 707.5 -5.42895 -0.626693 0
M  V30 7258 H 704.594 -0.816708 -0.130063 0
M  V30 7259 H 707.14 -1.62316 0.495128 0
M  V30 7260 H 705.912 -3.82616 0.81981 0
M  V30 7261 H 705.535 -3.87406 -0.894537 0
M  V30 7262 N 706.532 -0.168513 -1.56696 0
M  V30 7263 C 707.943 0.348694 -1.83415 0
M  V30 7264 C 708.294 1.63257 -1.0882 0
M  V30 7265 O 707.419 2.13707 -0.340333 0
M  V30 7266 C 708.014 0.639423 -3.32711 0
M  V30 7267 C 706.573 1.10108 -3.59935 0
M  V30 7268 C 705.72 0.135464 -2.76969 0
M  V30 7269 H 708.671 -0.392829 -1.53761 0
M  V30 7270 H 708.692 1.49179 -3.50037 0
M  V30 7271 H 708.204 -0.295173 -3.86976 0
M  V30 7272 H 706.305 2.05088 -3.11079 0
M  V30 7273 H 706.418 1.01218 -4.68286 0
M  V30 7274 H 704.782 0.632286 -2.46727 0
M  V30 7275 H 705.565 -0.793104 -3.34013 0
M  V30 7276 N 708.01 1.57248 0.105221 0
M  V30 7277 C 709.259 1.84756 0.809198 0
M  V30 7278 C 709.572 0.756262 1.80389 0
M  V30 7279 O 710.778 0.918158 2.55504 0
M  V30 7280 C 709.234 3.27613 1.48989 0
M  V30 7281 C 708.842 4.44788 0.535484 0
M  V30 7282 C 710.586 3.64356 2.17819 0
M  V30 7283 C 708.493 5.78676 1.22019 0
M  V30 7284 H 707.423 0.689139 0.305946 0
M  V30 7285 H 710.074 1.83395 0.0620371 0
M  V30 7286 H 708.456 3.23485 2.28415 0
M  V30 7287 H 709.63 4.60243 -0.226557 0
M  V30 7288 H 707.945 4.16374 -0.0465769 0
M  V30 7289 H 710.542 4.61663 2.69761 0
M  V30 7290 H 710.885 2.92474 2.96251 0
M  V30 7291 H 711.418 3.70328 1.45264 0
M  V30 7292 H 708.157 6.53763 0.476875 0
M  V30 7293 H 707.677 5.67083 1.9539 0
M  V30 7294 H 709.356 6.22897 1.74952 0
M  V30 7295 N 709.488 -0.375779 1.53054 0
M  V30 7296 C 710.899 -0.95309 1.6054 0
M  V30 7297 C 711.25 -1.90575 0.466446 0
M  V30 7298 O 710.375 -2.12507 -0.408609 0
M  V30 7299 C 710.97 -1.73537 2.90982 0
M  V30 7300 C 709.529 -2.26218 3.00836 0
M  V30 7301 C 708.676 -1.07157 2.55759 0
M  V30 7302 H 711.627 -0.154895 1.57942 0
M  V30 7303 H 711.648 -2.59574 2.78211 0
M  V30 7304 H 711.16 -1.04176 3.73857 0
M  V30 7305 H 709.261 -2.98852 2.22527 0
M  V30 7306 H 709.374 -2.54799 4.05727 0
M  V30 7307 H 707.738 -1.43553 2.10391 0
M  V30 7308 H 708.521 -0.393099 3.41042 0
M  V30 7309 N 710.966 -1.44241 -0.634997 0
M  V30 7310 C 711.914 -1.51103 -1.76835 0
M  V30 7311 C 712.908 -0.383051 -1.65012 0
M  V30 7312 O 714.114 -0.557832 -1.71138 0
M  V30 7313 H 710.489 -0.474076 -0.583743 0
M  V30 7314 H 712.46 -2.46499 -1.68169 0
M  V30 7315 C 711.209 -1.4687 -3.15158 0
M  V30 7316 H 710.532 -2.32979 -3.24901 0
M  V30 7317 H 711.972 -1.55731 -3.94365 0
M  V30 7318 C 710.431 -0.188884 -3.3637 0
M  V30 7319 O 710.961 0.742487 -3.94778 0
M  V30 7320 N 709.167 -0.0932516 -2.9045 0
M  V30 7321 H 708.714 -0.852004 -2.43102 0
M  V30 7322 H 708.672 0.762308 -3.05018 0
M  V30 7323 N 712.444 0.87505 -1.31075 0
M  V30 7324 C 713.691 1.62768 -1.20469 0
M  V30 7325 C 714.019 1.93034 0.23834 0
M  V30 7326 O 713.274 1.55693 1.18567 0
M  V30 7327 C 713.573 2.96948 -1.98888 0
M  V30 7328 C 713.239 2.86195 -3.4843 0
M  V30 7329 C 711.901 2.82969 -3.89207 0
M  V30 7330 C 714.253 2.73599 -4.43614 0
M  V30 7331 C 711.581 2.64999 -5.23443 0
M  V30 7332 C 713.933 2.57166 -5.77969 0
M  V30 7333 C 712.597 2.52321 -6.17973 0
M  V30 7334 H 711.867 0.595611 -0.440827 0
M  V30 7335 H 714.514 1.01665 -1.62285 0
M  V30 7336 H 712.819 3.62058 -1.49737 0
M  V30 7337 H 714.516 3.54164 -1.88067 0
M  V30 7338 H 711.106 2.8952 -3.16032 0
M  V30 7339 H 715.29 2.7515 -4.13045 0
M  V30 7340 H 710.546 2.5967 -5.53517 0
M  V30 7341 H 714.72 2.46396 -6.51354 0
M  V30 7342 H 712.347 2.38156 -7.21932 0
M  V30 7343 N 713.922 1.13953 1.08869 0
M  V30 7344 C 714.869 0.82213 2.15661 0
M  V30 7345 C 715.839 -0.218274 1.6466 0
M  V30 7346 O 717.024 -0.0892475 1.90591 0
M  V30 7347 C 714.164 0.300572 3.43789 0
M  V30 7348 C 713.277 1.40071 4.08661 0
M  V30 7349 C 712.412 0.836897 5.24566 0
M  V30 7350 C 711.451 1.91504 5.81371 0
M  V30 7351 N 710.588 1.36875 6.88629 0
M  V30 7352 H 715.428 1.73683 2.42153 0
M  V30 7353 H 712.965 0.866879 1.18843 0
M  V30 7354 H 714.923 -0.0199943 4.17195 0
M  V30 7355 H 713.553 -0.577248 3.17597 0
M  V30 7356 H 712.605 1.83776 3.33062 0
M  V30 7357 H 713.917 2.21534 4.46905 0
M  V30 7358 H 713.071 0.467953 6.04893 0
M  V30 7359 H 711.81 -0.00874207 4.87699 0
M  V30 7360 H 710.815 2.29299 4.99702 0
M  V30 7361 H 712.04 2.76419 6.20298 0
M  V30 7362 H 709.986 0.545211 6.5373 0
M  V30 7363 H 709.903 2.1198 7.25672 0
M  V30 7364 H 711.171 1.02756 7.72698 0
M  V30 7365 N 715.4 -1.26948 0.933913 0
M  V30 7366 C 716.363 -2.24889 0.442457 0
M  V30 7367 C 717.363 -1.54594 -0.442426 0
M  V30 7368 O 718.553 -1.72502 -0.242629 0
M  V30 7369 C 715.685 -3.3896 -0.363173 0
M  V30 7370 H 716.878 -2.69879 1.30787 0
M  V30 7371 H 714.431 -1.38978 0.715187 0
M  V30 7372 H 715.166 -2.99361 -1.24714 0
M  V30 7373 H 714.951 -3.9116 0.271366 0
M  V30 7374 H 716.441 -4.11739 -0.697186 0
M  V30 7375 N 716.879 -0.700114 -1.41195 0
M  V30 7376 C 718.128 -0.230082 -2.00383 0
M  V30 7377 C 718.441 1.17857 -1.56106 0
M  V30 7378 O 719.647 1.74631 -2.07885 0
M  V30 7379 C 718.103 -0.360447 -3.5809 0
M  V30 7380 C 717.711 -1.77475 -4.11347 0
M  V30 7381 C 719.455 0.0495799 -4.24471 0
M  V30 7382 C 717.362 -1.85653 -5.61504 0
M  V30 7383 H 716.292 -0.0822633 -0.749499 0
M  V30 7384 H 718.943 -0.868969 -1.6162 0
M  V30 7385 H 717.325 0.346768 -3.94479 0
M  V30 7386 H 718.499 -2.51109 -3.86369 0
M  V30 7387 H 716.814 -2.13486 -3.57509 0
M  V30 7388 H 719.411 0.00898219 -5.34699 0
M  V30 7389 H 719.754 1.08904 -4.01803 0
M  V30 7390 H 720.287 -0.607521 -3.93134 0
M  V30 7391 H 717.026 -2.87667 -5.89006 0
M  V30 7392 H 716.546 -1.1641 -5.88395 0
M  V30 7393 H 718.225 -1.62151 -6.26351 0
M  V30 7394 N 718.357 1.51182 -0.445186 0
M  V30 7395 C 719.267 2.31692 0.368255 0
M  V30 7396 C 720.283 1.40942 1.02036 0
M  V30 7397 O 721.459 1.74011 1.01401 0
M  V30 7398 C 718.524 3.14903 1.45041 0
M  V30 7399 C 717.585 4.21442 0.817615 0
M  V30 7400 C 716.818 5.00677 1.8482 0
M  V30 7401 O 717.041 4.80644 3.07145 0
M  V30 7402 O 715.975 5.84559 1.43438 0
M  V30 7403 H 719.801 3.0232 -0.289219 0
M  V30 7404 H 717.386 1.47951 -0.207555 0
M  V30 7405 H 719.268 3.66612 2.07783 0
M  V30 7406 H 717.943 2.47031 2.09182 0
M  V30 7407 H 716.85 3.73791 0.151931 0
M  V30 7408 H 718.183 4.9171 0.219564 0
M  V30 7409 N 719.835 0.176821 1.56605 0
M  V30 7410 C 720.782 -0.751312 2.18229 0
M  V30 7411 C 721.752 -1.22297 1.12395 0
M  V30 7412 O 722.937 -1.29015 1.40569 0
M  V30 7413 C 720.077 -1.97291 2.83143 0
M  V30 7414 C 719.19 -1.54431 4.03454 0
M  V30 7415 C 718.325 -2.72 4.56278 0
M  V30 7416 C 717.364 -2.25657 5.68986 0
M  V30 7417 N 716.501 -3.36338 6.16296 0
M  V30 7418 H 721.341 -0.219033 2.97194 0
M  V30 7419 H 718.878 -0.0963803 1.46784 0
M  V30 7420 H 720.836 -2.68949 3.1894 0
M  V30 7421 H 719.466 -2.4788 2.06773 0
M  V30 7422 H 718.518 -0.724273 3.73441 0
M  V30 7423 H 719.83 -1.16417 4.85024 0
M  V30 7424 H 718.984 -3.51806 4.94285 0
M  V30 7425 H 717.723 -3.13277 3.73777 0
M  V30 7426 H 716.728 -1.44299 5.30526 0
M  V30 7427 H 717.953 -1.85432 6.53293 0
M  V30 7428 H 715.899 -3.7718 5.36723 0
M  V30 7429 H 715.816 -3.02435 6.9287 0
M  V30 7430 H 717.084 -4.16413 6.58954 0
M  V30 7431 N 721.313 -1.57302 -0.09688 0
M  V30 7432 C 722.562 -1.85183 -0.799388 0
M  V30 7433 C 722.875 -0.765818 -1.79985 0
M  V30 7434 O 724.081 -0.931696 -2.55013 0
M  V30 7435 C 722.537 -3.28399 -1.47249 0
M  V30 7436 C 722.145 -4.45066 -0.511888 0
M  V30 7437 C 723.889 -3.65506 -2.15883 0
M  V30 7438 C 721.796 -5.79315 -1.18948 0
M  V30 7439 H 720.726 -0.690752 -0.302287 0
M  V30 7440 H 723.377 -1.83425 -0.0523104 0
M  V30 7441 H 721.759 -3.24692 -2.26697 0
M  V30 7442 H 722.933 -4.60116 0.250962 0
M  V30 7443 H 721.248 -4.16343 0.0686576 0
M  V30 7444 H 723.845 -4.63087 -2.67309 0
M  V30 7445 H 724.188 -2.94041 -2.94696 0
M  V30 7446 H 724.721 -3.71094 -1.43298 0
M  V30 7447 H 721.46 -6.54007 -0.442198 0
M  V30 7448 H 720.98 -5.68111 -1.9238 0
M  V30 7449 H 722.659 -6.23816 -1.71646 0
M  V30 7450 N 722.791 0.367657 -1.53252 0
M  V30 7451 C 724.019 1.13119 -1.73239 0
M  V30 7452 C 724.434 1.831 -0.460404 0
M  V30 7453 O 723.791 1.73483 0.566557 0
M  V30 7454 C 723.842 2.16308 -2.89643 0
M  V30 7455 O 723.563 1.49175 -4.1192 0
M  V30 7456 C 725.064 3.05224 -3.21486 0
M  V30 7457 H 722.284 0.338318 -0.579467 0
M  V30 7458 H 724.828 0.42721 -1.99988 0
M  V30 7459 H 722.983 2.82307 -2.65295 0
M  V30 7460 H 723.397 2.17912 -4.7709 0
M  V30 7461 H 724.871 3.73613 -4.06346 0
M  V30 7462 H 725.348 3.69919 -2.36763 0
M  V30 7463 H 725.954 2.44843 -3.47753 0
M  V30 7464 N 724.269 1.44576 0.627338 0
M  V30 7465 C 725.217 1.52039 1.76031 0
M  V30 7466 C 726.211 0.391796 1.64807 0
M  V30 7467 O 727.417 0.5669 1.7084 0
M  V30 7468 H 723.792 0.477165 0.581221 0
M  V30 7469 H 725.763 2.47387 1.6686 0
M  V30 7470 C 724.512 1.48539 3.14375 0
M  V30 7471 H 723.835 2.34699 3.23661 0
M  V30 7472 H 725.275 1.57821 3.93534 0
M  V30 7473 C 723.734 0.20672 3.36265 0
M  V30 7474 O 724.264 -0.72154 3.95167 0
M  V30 7475 N 722.47 0.108654 2.90397 0
M  V30 7476 H 722.017 0.864884 2.42647 0
M  V30 7477 H 721.975 -0.746121 3.05418 0
M  V30 7478 N 725.747 -0.868086 1.31537 0
M  V30 7479 C 727.024 -1.60384 1.11965 0
M  V30 7480 C 727.404 -2.08584 -0.324949 0
M  V30 7481 O 726.752 -1.86561 -1.31937 0
M  V30 7482 C 726.962 -2.76038 2.13551 0
M  V30 7483 C 728.31 -3.45954 2.46173 0
M  V30 7484 O 729.334 -2.86247 2.11993 0
M  V30 7485 O 728.193 -4.53666 3.04711 0
M  V30 7486 H 725.287 -0.705705 0.431172 0
M  V30 7487 H 727.833 -0.913385 1.43022 0
M  V30 7488 H 726.605 -2.37849 3.10714 0
M  V30 7489 H 726.228 -3.52769 1.83411 0
M  V30 7490 N 727.225 -1.14528 -1.08264 0
M  V30 7491 C 728.135 -0.84728 -2.18765 0
M  V30 7492 C 729.151 0.172826 -1.7314 0
M  V30 7493 O 730.327 0.000985336 -2.014 0
M  V30 7494 C 727.392 -0.330633 -3.4512 0
M  V30 7495 C 726.453 -1.41348 -4.05363 0
M  V30 7496 C 725.686 -0.921387 -5.25686 0
M  V30 7497 O 725.909 0.236587 -5.69909 0
M  V30 7498 O 724.843 -1.70101 -5.77364 0
M  V30 7499 H 728.669 -1.7708 -2.46731 0
M  V30 7500 H 726.254 -0.923661 -1.17426 0
M  V30 7501 H 728.136 -0.0485053 -4.21372 0
M  V30 7502 H 726.811 0.565147 -3.18728 0
M  V30 7503 H 725.718 -1.74908 -3.30693 0
M  V30 7504 H 727.051 -2.28383 -4.36007 0
M  V30 7505 N 728.703 1.26451 -0.940633 0
M  V30 7506 C 729.949 1.94065 -0.58878 0
M  V30 7507 C 730.282 1.7363 0.869853 0
M  V30 7508 O 729.557 1.073 1.62225 0
M  V30 7509 C 729.84 3.47852 -0.931199 0
M  V30 7510 C 729.693 3.77575 -2.44453 0
M  V30 7511 C 731.012 4.37832 -0.446229 0
M  V30 7512 H 728.131 0.704827 -0.21538 0
M  V30 7513 H 730.773 1.4933 -1.17475 0
M  V30 7514 H 728.923 3.86085 -0.432539 0
M  V30 7515 H 730.595 3.49059 -3.01588 0
M  V30 7516 H 728.838 3.23671 -2.88825 0
M  V30 7517 H 729.509 4.85068 -2.63464 0
M  V30 7518 H 731.985 4.06822 -0.873778 0
M  V30 7519 H 730.861 5.44228 -0.714648 0
M  V30 7520 H 731.122 4.37239 0.653815 0
M  V30 7521 N 730.181 0.707592 1.40822 0
M  V30 7522 C 731.43 0.240705 2.00259 0
M  V30 7523 C 731.743 -1.17027 1.56729 0
M  V30 7524 O 732.949 -1.73526 2.08809 0
M  V30 7525 C 731.405 0.379432 3.57894 0
M  V30 7526 C 731.013 1.79654 4.104 0
M  V30 7527 C 732.757 -0.0270684 4.24491 0
M  V30 7528 C 730.664 1.88628 5.60512 0
M  V30 7529 H 729.594 0.0862369 0.749052 0
M  V30 7530 H 732.245 0.877528 1.61157 0
M  V30 7531 H 730.627 -0.325842 3.94657 0
M  V30 7532 H 731.801 2.53155 3.85032 0
M  V30 7533 H 730.116 2.15379 3.56372 0
M  V30 7534 H 732.713 0.0193743 5.34696 0
M  V30 7535 H 733.056 -1.06772 4.02375 0
M  V30 7536 H 733.589 0.628361 3.92806 0
M  V30 7537 H 730.328 2.90787 5.87472 0
M  V30 7538 H 729.848 1.19528 5.8777 0
M  V30 7539 H 731.527 1.6547 6.25483 0
M  V30 7540 N 731.66 -1.50943 0.453197 0
M  V30 7541 C 732.909 -2.01402 -0.10951 0
M  V30 7542 C 733.222 -1.3411 -1.42386 0
M  V30 7543 O 734.428 -1.75626 -2.07045 0
M  V30 7544 C 732.884 -3.5906 -0.245693 0
M  V30 7545 C 732.492 -4.353 1.05916 0
M  V30 7546 C 734.236 -4.17617 -0.761318 0
M  V30 7547 C 732.143 -5.84699 0.887752 0
M  V30 7548 H 731.073 -0.752674 -0.0447013 0
M  V30 7549 H 733.724 -1.73913 0.585375 0
M  V30 7550 H 732.106 -3.83062 -1.00395 0
M  V30 7551 H 733.28 -4.23034 1.82698 0
M  V30 7552 H 731.595 -3.88269 1.50452 0
M  V30 7553 H 734.192 -5.26963 -0.906306 0
M  V30 7554 H 734.535 -3.77824 -1.74799 0
M  V30 7555 H 735.068 -3.97753 -0.0609416 0
M  V30 7556 H 731.807 -6.28933 1.84726 0
M  V30 7557 H 731.327 -5.99587 0.160006 0
M  V30 7558 H 733.006 -6.44682 0.547223 0
M  V30 7559 N 733.138 -0.185124 -1.56509 0
M  V30 7560 C 734.085 0.739729 -2.18624 0
M  V30 7561 C 735.055 1.217 -1.13042 0
M  V30 7562 O 736.24 1.28268 -1.41251 0
M  V30 7563 C 733.38 1.95787 -2.84186 0
M  V30 7564 C 732.493 1.52289 -4.04267 0
M  V30 7565 C 731.628 2.69576 -4.57714 0
M  V30 7566 C 730.667 2.22636 -5.70175 0
M  V30 7567 N 729.804 3.33065 -6.18071 0
M  V30 7568 H 734.644 0.203269 -2.97306 0
M  V30 7569 H 732.181 0.0885946 -1.46833 0
M  V30 7570 H 734.139 2.67253 -3.20361 0
M  V30 7571 H 732.769 2.4678 -2.08085 0
M  V30 7572 H 731.821 0.704458 -3.7382 0
M  V30 7573 H 733.133 1.13843 -4.85635 0
M  V30 7574 H 732.287 3.4918 -4.96143 0
M  V30 7575 H 731.026 3.1129 -3.75433 0
M  V30 7576 H 730.031 1.41483 -5.31284 0
M  V30 7577 H 731.256 1.81964 -6.54267 0
M  V30 7578 H 729.202 3.74328 -5.38715 0
M  V30 7579 H 729.119 2.98756 -6.94464 0
M  V30 7580 H 730.387 4.12912 -6.61153 0
M  V30 7581 N 734.616 1.57351 0.0885366 0
M  V30 7582 C 735.579 2.01557 1.09121 0
M  V30 7583 C 736.579 0.910052 1.3257 0
M  V30 7584 O 737.769 1.17537 1.28572 0
M  V30 7585 C 734.901 2.38189 2.43883 0
M  V30 7586 H 736.094 2.91361 0.710562 0
M  V30 7587 H 733.647 1.52694 0.333779 0
M  V30 7588 H 734.382 1.5136 2.86811 0
M  V30 7589 H 734.167 3.18846 2.28209 0
M  V30 7590 H 735.657 2.73025 3.15986 0
M  V30 7591 N 736.094 -0.359525 1.53444 0
M  V30 7592 C 737.342 -1.09935 1.69584 0
M  V30 7593 C 737.663 -1.89656 0.453371 0
M  V30 7594 O 736.933 -1.8852 -0.53263 0
M  V30 7595 H 735.513 -0.408843 0.625185 0
M  V30 7596 H 738.175 -0.40467 1.90653 0
M  V30 7597 H 737.271 -1.78575 2.55964 0
M  V30 7598 N 737.572 -1.44907 -0.619662 0
M  V30 7599 C 738.502 -1.55488 -1.742 0
M  V30 7600 C 739.483 -0.407143 -1.65156 0
M  V30 7601 O 740.668 -0.628743 -1.8374 0
M  V30 7602 C 737.798 -1.5097 -3.1277 0
M  V30 7603 C 736.752 -2.64337 -3.36615 0
M  V30 7604 C 736.078 -2.44872 -4.75333 0
M  V30 7605 C 737.378 -4.06423 -3.28051 0
M  V30 7606 H 739.072 -2.49432 -1.65602 0
M  V30 7607 H 736.618 -1.20047 -0.795281 0
M  V30 7608 H 738.571 -1.56971 -3.91073 0
M  V30 7609 H 737.295 -0.535486 -3.2218 0
M  V30 7610 H 735.954 -2.57744 -2.60698 0
M  V30 7611 H 735.602 -1.45617 -4.81461 0
M  V30 7612 H 735.302 -3.20888 -4.92244 0
M  V30 7613 H 736.826 -2.52709 -5.55851 0
M  V30 7614 H 738.24 -4.14324 -3.96243 0
M  V30 7615 H 736.637 -4.82733 -3.56495 0
M  V30 7616 H 737.707 -4.29183 -2.25676 0
M  V30 7617 N 739.05 0.861098 -1.31996 0
M  V30 7618 C 739.998 1.99052 -1.20337 0
M  V30 7619 C 740.992 1.69045 -0.109623 0
M  V30 7620 O 742.198 1.77931 -0.272117 0
M  V30 7621 H 738.573 0.653064 -0.372843 0
M  V30 7622 H 740.544 2.06015 -2.15872 0
M  V30 7623 C 739.293 3.34846 -0.936663 0
M  V30 7624 H 738.616 3.58462 -1.77045 0
M  V30 7625 H 740.056 4.1444 -0.895302 0
M  V30 7626 C 738.515 3.34965 0.360607 0
M  V30 7627 O 739.045 3.7745 1.37456 0
M  V30 7628 N 737.251 2.88101 0.380296 0
M  V30 7629 H 736.798 2.53721 -0.445351 0
M  V30 7630 H 736.756 2.88563 1.24816 0
M  V30 7631 N 740.528 1.15101 1.07655 0
M  V30 7632 C 741.753 0.948177 1.84457 0
M  V30 7633 C 742.178 -0.498432 1.81376 0
M  V30 7634 O 741.536 -1.35509 1.20445 0
M  V30 7635 C 741.584 1.46318 3.29581 0
M  V30 7636 O 740.688 0.660342 4.07079 0
M  V30 7637 H 740.029 0.338428 0.571281 0
M  V30 7638 H 742.559 1.5301 1.35828 0
M  V30 7639 H 742.569 1.47468 3.80417 0
M  V30 7640 H 741.244 2.51635 3.31138 0
M  V30 7641 H 739.821 0.718216 3.65918 0
M  V30 7642 N 742.006 -1.2595 0.947325 0
M  V30 7643 C 743.234 -1.97544 0.615127 0
M  V30 7644 C 743.649 -1.70484 -0.811221 0
M  V30 7645 O 743.006 -0.97662 -1.5417 0
M  V30 7646 C 743.057 -3.51236 0.855328 0
M  V30 7647 O 742.778 -3.77359 2.22558 0
M  V30 7648 C 744.279 -4.40066 0.534515 0
M  V30 7649 H 741.499 -0.629888 0.231263 0
M  V30 7650 H 744.043 -1.60308 1.26971 0
M  V30 7651 H 742.198 -3.8661 0.247266 0
M  V30 7652 H 742.612 -4.71857 2.29022 0
M  V30 7653 H 744.086 -5.46838 0.753168 0
M  V30 7654 H 744.563 -4.35982 -0.530701 0
M  V30 7655 H 745.169 -4.10245 1.12158 0
M  V30 7656 N 743.484 -0.715051 -1.40445 0
M  V30 7657 C 744.732 -0.253826 -2.005 0
M  V30 7658 C 745.053 1.15681 -1.5698 0
M  V30 7659 O 744.323 1.78414 -0.809027 0
M  V30 7660 H 742.903 -0.0908537 -0.741454 0
M  V30 7661 H 745.565 -0.920561 -1.7179 0
M  V30 7662 H 744.661 -0.286499 -3.10782 0
M  V30 7663 N 744.962 1.50701 -0.461195 0
M  V30 7664 C 746.373 1.867 -0.00370227 0
M  V30 7665 C 746.724 1.37673 1.39787 0
M  V30 7666 O 745.849 0.737515 2.03445 0
M  V30 7667 C 746.444 3.388 5.75786e-05 0
M  V30 7668 C 745.003 3.74247 0.402044 0
M  V30 7669 C 744.15 2.74549 -0.389652 0
M  V30 7670 H 747.101 1.43585 -0.675942 0
M  V30 7671 H 747.122 3.719 0.804414 0
M  V30 7672 H 746.634 3.74452 -1.02015 0
M  V30 7673 H 744.735 3.44192 1.42697 0
M  V30 7674 H 744.848 4.78973 0.110265 0
M  V30 7675 H 743.212 2.54226 0.155314 0
M  V30 7676 H 743.995 3.13044 -1.40919 0
M  V30 7677 N 746.441 0.193421 1.56409 0
M  V30 7678 C 747.389 -0.744829 2.20352 0
M  V30 7679 C 748.383 -1.22104 1.17418 0
M  V30 7680 O 749.589 -1.18413 1.35567 0
M  V30 7681 H 745.964 -0.258538 0.70616 0
M  V30 7682 H 747.935 -0.181794 2.97846 0
M  V30 7683 C 746.684 -1.95453 2.87565 0
M  V30 7684 H 746.007 -1.59716 3.66512 0
M  V30 7685 H 747.447 -2.58942 3.35745 0
M  V30 7686 C 745.906 -2.79223 1.8851 0
M  V30 7687 O 746.436 -3.77093 1.38434 0
M  V30 7688 N 744.642 -2.44682 1.56777 0
M  V30 7689 H 744.189 -1.65153 1.97692 0
M  V30 7690 H 744.147 -3.01016 0.907573 0
M  V30 7691 N 747.919 -1.57396 -0.0801906 0
M  V30 7692 C 749.149 -1.90778 -0.792924 0
M  V30 7693 C 749.557 -0.786814 -1.72064 0
M  V30 7694 O 748.9 0.249259 -1.82001 0
M  V30 7695 C 748.962 -3.19552 -1.64702 0
M  V30 7696 C 748.626 -4.48259 -0.889567 0
M  V30 7697 C 749.623 -5.19465 -0.212602 0
M  V30 7698 C 747.308 -4.94896 -0.859229 0
M  V30 7699 C 749.302 -6.35555 0.484566 0
M  V30 7700 C 746.989 -6.10895 -0.158284 0
M  V30 7701 C 747.987 -6.81075 0.512421 0
M  V30 7702 O 747.675 -7.94862 1.20209 0
M  V30 7703 H 747.407 -0.63527 -0.231103 0
M  V30 7704 H 749.961 -2.0532 -0.0573081 0
M  V30 7705 H 748.191 -3.01196 -2.42524 0
M  V30 7706 H 749.88 -3.38649 -2.23767 0
M  V30 7707 H 750.646 -4.84467 -0.227403 0
M  V30 7708 H 746.525 -4.4015 -1.37073 0
M  V30 7709 H 750.069 -6.9027 1.00864 0
M  V30 7710 H 745.966 -6.45345 -0.141381 0
M  V30 7711 H 746.734 -8.10932 1.11051 0
M  V30 7712 N 749.397 0.351382 -1.53633 0
M  V30 7713 C 750.625 1.11275 -1.74429 0
M  V30 7714 C 751.04 1.82602 -0.479798 0
M  V30 7715 O 750.397 1.74074 0.548125 0
M  V30 7716 C 750.448 2.13223 -2.91921 0
M  V30 7717 O 750.169 1.44798 -4.13479 0
M  V30 7718 C 751.67 3.01797 -3.24706 0
M  V30 7719 H 748.89 0.332153 -0.583023 0
M  V30 7720 H 751.434 0.405974 -2.0043 0
M  V30 7721 H 749.589 2.79477 -2.68274 0
M  V30 7722 H 750.003 2.12839 -4.79374 0
M  V30 7723 H 751.477 3.69282 -4.10286 0
M  V30 7724 H 751.954 3.67387 -2.40673 0
M  V30 7725 H 752.56 2.41141 -3.5033 0
M  V30 7726 N 750.875 1.45233 0.611969 0
M  V30 7727 C 751.785 1.56098 1.7513 0
M  V30 7728 C 752.801 0.445646 1.68196 0
M  V30 7729 O 753.977 0.705718 1.88631 0
M  V30 7730 C 751.042 1.52052 3.11579 0
M  V30 7731 C 750.103 2.74589 3.29999 0
M  V30 7732 C 749.336 2.70726 4.59938 0
M  V30 7733 O 749.559 1.77806 5.41979 0
M  V30 7734 O 748.493 3.61864 4.80976 0
M  V30 7735 H 752.319 2.52392 1.68914 0
M  V30 7736 H 749.904 1.27695 0.775528 0
M  V30 7737 H 751.786 1.52387 3.92882 0
M  V30 7738 H 750.461 0.589085 3.18295 0
M  V30 7739 H 749.368 2.79817 2.48301 0
M  V30 7740 H 750.701 3.66843 3.28157 0
M  V30 7741 N 752.353 -0.854086 1.3245 0
M  V30 7742 C 753.602 -1.60318 1.22397 0
M  V30 7743 C 753.915 -1.9444 -0.212664 0
M  V30 7744 O 755.121 -2.67991 -0.435066 0
M  V30 7745 C 753.577 -2.8909 2.1437 0
M  V30 7746 C 753.185 -2.62391 3.63119 0
M  V30 7747 C 754.929 -3.67104 2.13155 0
M  V30 7748 C 752.836 -3.87167 4.47052 0
M  V30 7749 H 751.766 -0.601586 0.454544 0
M  V30 7750 H 754.417 -0.943023 1.57415 0
M  V30 7751 H 752.799 -3.56567 1.72268 0
M  V30 7752 H 753.973 -2.03222 4.13567 0
M  V30 7753 H 752.288 -1.97706 3.66471 0
M  V30 7754 H 754.885 -4.59696 2.731 0
M  V30 7755 H 755.228 -4.00876 1.12268 0
M  V30 7756 H 755.761 -3.06533 2.5354 0
M  V30 7757 H 752.5 -3.58536 5.48755 0
M  V30 7758 H 752.02 -4.45729 4.01355 0
M  V30 7759 H 753.699 -4.549 4.60081 0
M  V30 7760 N 753.831 -1.1567 -1.07043 0
M  V30 7761 C 754.778 -0.856336 -2.14326 0
M  V30 7762 C 755.748 0.192051 -1.64986 0
M  V30 7763 O 756.933 0.0589148 -1.90709 0
M  V30 7764 C 754.073 -0.355227 -3.43267 0
M  V30 7765 C 753.186 -1.46555 -4.06381 0
M  V30 7766 C 752.321 -0.920245 -5.23168 0
M  V30 7767 C 751.36 -2.00729 -5.78251 0
M  V30 7768 N 750.497 -1.47813 -6.86364 0
M  V30 7769 H 755.337 -1.77514 -2.39359 0
M  V30 7770 H 752.874 -0.885676 -1.17449 0
M  V30 7771 H 754.832 -0.0463804 -4.17174 0
M  V30 7772 H 753.462 0.526649 -3.18475 0
M  V30 7773 H 752.514 -1.89052 -3.30096 0
M  V30 7774 H 753.826 -2.28616 -4.43324 0
M  V30 7775 H 752.98 -0.564127 -6.04072 0
M  V30 7776 H 751.719 -0.0688477 -4.87651 0
M  V30 7777 H 750.724 -2.3722 -4.95991 0
M  V30 7778 H 751.949 -2.86252 -6.15822 0
M  V30 7779 H 749.895 -0.649145 -6.5278 0
M  V30 7780 H 749.812 -2.23498 -7.22208 0
M  V30 7781 H 751.08 -1.15036 -7.70965 0
M  V30 7782 N 755.309 1.25446 -0.953992 0
M  V30 7783 C 756.272 2.24156 -0.478179 0
M  V30 7784 C 757.272 1.55278 0.417776 0
M  V30 7785 O 758.462 1.72866 0.215155 0
M  V30 7786 C 755.594 3.39495 0.309202 0
M  V30 7787 H 756.787 2.67764 -1.35064 0
M  V30 7788 H 754.34 1.37822 -0.737206 0
M  V30 7789 H 755.075 3.01307 1.19936 0
M  V30 7790 H 754.86 3.90679 -0.333562 0
M  V30 7791 H 756.35 4.12796 0.631594 0
M  V30 7792 N 756.787 0.722489 1.40064 0
M  V30 7793 C 758.033 0.265371 2.01056 0
M  V30 7794 C 758.366 -1.14062 1.57174 0
M  V30 7795 O 757.641 -1.77514 0.794916 0
M  V30 7796 C 757.924 0.353157 3.58364 0
M  V30 7797 C 757.777 1.79802 4.123 0
M  V30 7798 C 759.096 -0.271677 4.39261 0
M  V30 7799 H 756.215 0.0979002 0.730469 0
M  V30 7800 H 758.857 0.916289 1.66446 0
M  V30 7801 H 757.007 -0.201037 3.87979 0
M  V30 7802 H 758.679 2.40813 3.93455 0
M  V30 7803 H 756.922 2.32348 3.66329 0
M  V30 7804 H 757.593 1.81079 5.21454 0
M  V30 7805 H 760.069 0.200607 4.15616 0
M  V30 7806 H 758.945 -0.179843 5.48605 0
M  V30 7807 H 759.206 -1.35611 4.20787 0
M  V30 7808 N 758.265 -1.50454 0.469181 0
M  V30 7809 C 759.511 -2.02615 -0.0865971 0
M  V30 7810 C 759.844 -1.35062 -1.39542 0
M  V30 7811 O 759.119 -0.475701 -1.88593 0
M  V30 7812 C 759.402 -3.59068 -0.272385 0
M  V30 7813 C 759.255 -4.37196 1.05733 0
M  V30 7814 C 760.574 -4.2793 -1.0278 0
M  V30 7815 H 757.693 -0.736389 -0.0299977 0
M  V30 7816 H 760.335 -1.79792 0.614399 0
M  V30 7817 H 758.485 -3.78646 -0.869471 0
M  V30 7818 H 760.157 -4.29195 1.69084 0
M  V30 7819 H 758.4 -4.01013 1.65442 0
M  V30 7820 H 759.071 -5.44924 0.880997 0
M  V30 7821 H 761.547 -4.12816 -0.521718 0
M  V30 7822 H 760.423 -5.37214 -1.12659 0
M  V30 7823 H 760.684 -3.90968 -2.0639 0
M  V30 7824 N 759.743 -0.201713 -1.56304 0
M  V30 7825 C 760.973 0.440084 -2.01858 0
M  V30 7826 C 761.381 1.55279 -1.08098 0
M  V30 7827 O 760.724 1.83529 -0.0792216 0
M  V30 7828 C 760.786 1.05091 -3.43797 0
M  V30 7829 C 760.45 0.0761208 -4.56937 0
M  V30 7830 C 761.447 -0.716951 -5.14933 0
M  V30 7831 C 759.132 -0.0368815 -5.02286 0
M  V30 7832 C 761.126 -1.60993 -6.16733 0
M  V30 7833 C 758.813 -0.933409 -6.03929 0
M  V30 7834 C 759.811 -1.71849 -6.61027 0
M  V30 7835 O 759.499 -2.59998 -7.60695 0
M  V30 7836 H 759.231 0.114139 -0.666294 0
M  V30 7837 H 761.785 -0.309672 -2.03052 0
M  V30 7838 H 760.015 1.84938 -3.3961 0
M  V30 7839 H 761.704 1.59804 -3.73118 0
M  V30 7840 H 762.47 -0.63999 -4.80759 0
M  V30 7841 H 758.349 0.564034 -4.57537 0
M  V30 7842 H 761.893 -2.22315 -6.61227 0
M  V30 7843 H 757.79 -1.01146 -6.37526 0
M  V30 7844 H 758.558 -2.53851 -7.7814 0
M  V30 7845 N 761.222 1.57436 0.0718424 0
M  V30 7846 C 762.17 2.04725 1.10411 0
M  V30 7847 C 763.164 0.952579 1.4008 0
M  V30 7848 O 764.37 1.13769 1.39487 0
M  V30 7849 H 760.745 0.652749 0.373393 0
M  V30 7850 H 762.716 2.90569 0.679126 0
M  V30 7851 C 761.465 2.5068 2.40946 0
M  V30 7852 H 760.788 3.34505 2.18967 0
M  V30 7853 H 762.228 2.87521 3.11621 0
M  V30 7854 C 760.687 1.38971 3.06902 0
M  V30 7855 O 761.217 0.731786 3.94978 0
M  V30 7856 N 759.423 1.13485 2.67525 0
M  V30 7857 H 758.97 1.67168 1.95991 0
M  V30 7858 H 758.928 0.389467 3.11978 0
M  V30 7859 N 762.7 -0.34323 1.53817 0
M  V30 7860 C 763.632 -1.44216 1.78141 0
M  V30 7861 C 764.645 -1.48701 0.662721 0
M  V30 7862 O 765.834 -1.51778 0.939458 0
M  V30 7863 C 762.934 -2.82872 1.86646 0
M  V30 7864 C 762.107 -3.01824 3.16577 0
M  V30 7865 C 761.166 -4.20723 3.16036 0
M  V30 7866 O 760.192 -4.14824 3.89756 0
M  V30 7867 N 761.394 -5.29276 2.38427 0
M  V30 7868 H 764.159 -1.23721 2.72971 0
M  V30 7869 H 761.72 -0.53311 1.52871 0
M  V30 7870 H 763.712 -3.60588 1.83735 0
M  V30 7871 H 762.282 -2.96509 0.990014 0
M  V30 7872 H 761.502 -2.11575 3.3261 0
M  V30 7873 H 762.79 -3.11369 4.02402 0
M  V30 7874 H 762.188 -5.36938 1.78085 0
M  V30 7875 H 760.745 -6.05484 2.41313 0
M  V30 7876 N 764.178 -1.45556 -0.604258 0
M  V30 7877 C 765.406 -1.53278 -1.38973 0
M  V30 7878 C 765.821 -0.166509 -1.88064 0
M  V30 7879 O 765.178 0.832519 -1.62405 0
M  V30 7880 C 765.229 -2.51992 -2.59195 0
M  V30 7881 O 764.95 -3.8331 -2.12143 0
M  V30 7882 C 766.451 -2.69445 -3.52015 0
M  V30 7883 H 763.671 -0.519003 -0.425297 0
M  V30 7884 H 766.215 -1.90773 -0.736621 0
M  V30 7885 H 764.37 -2.17561 -3.2054 0
M  V30 7886 H 764.784 -4.3685 -2.90279 0
M  V30 7887 H 766.258 -3.42485 -4.32907 0
M  V30 7888 H 766.735 -1.75596 -4.0257 0
M  V30 7889 H 767.341 -3.04886 -2.9652 0
M  V30 7890 N 765.656 0.84705 -1.32902 0
M  V30 7891 C 766.904 1.5986 -1.2365 0
M  V30 7892 C 767.225 1.93974 0.199789 0
M  V30 7893 O 766.495 1.60273 1.12648 0
M  V30 7894 H 765.075 0.592696 -0.454665 0
M  V30 7895 H 767.737 1.01278 -1.66519 0
M  V30 7896 H 766.833 2.53218 -1.82448 0
M  V30 7897 N 767.134 1.16236 1.06428 0
M  V30 7898 C 768.38 0.954417 1.79617 0
M  V30 7899 C 768.735 -0.512411 1.85451 0
M  V30 7900 O 768.028 -1.37523 1.33409 0
M  V30 7901 C 768.222 1.51396 3.2375 0
M  V30 7902 C 768.051 3.03367 3.31962 0
M  V30 7903 C 766.821 3.71996 3.41975 0
M  V30 7904 C 769.019 4.01075 3.21937 0
M  V30 7905 N 767.001 5.11688 3.39187 0
M  V30 7906 C 768.372 5.27142 3.26376 0
M  V30 7907 C 770.427 3.92917 3.05812 0
M  V30 7908 C 769.13 6.46 3.16348 0
M  V30 7909 C 771.156 5.11344 2.97121 0
M  V30 7910 C 770.518 6.36291 3.02181 0
M  V30 7911 H 766.617 0.403007 0.670156 0
M  V30 7912 H 769.201 1.47605 1.26968 0
M  V30 7913 H 767.372 1.01883 3.74799 0
M  V30 7914 H 769.104 1.2439 3.85109 0
M  V30 7915 H 765.859 3.22623 3.46715 0
M  V30 7916 H 766.283 5.84676 3.41297 0
M  V30 7917 H 770.925 2.97172 3.00746 0
M  V30 7918 H 768.643 7.41968 3.2017 0
M  V30 7919 H 772.229 5.06801 2.85734 0
M  V30 7920 H 771.109 7.26389 2.95513 0
M  V30 7921 N 768.612 -1.24939 0.960631 0
M  V30 7922 C 770.023 -1.74701 0.658529 0
M  V30 7923 C 770.374 -1.77967 -0.825959 0
M  V30 7924 O 769.499 -1.40444 -1.64634 0
M  V30 7925 C 770.094 -3.17263 1.18867 0
M  V30 7926 C 768.653 -3.64561 0.936614 0
M  V30 7927 C 767.8 -2.43423 1.32817 0
M  V30 7928 H 770.751 -1.10741 1.13676 0
M  V30 7929 H 770.772 -3.76481 0.551589 0
M  V30 7930 H 770.284 -3.14854 2.26912 0
M  V30 7931 H 768.385 -3.72378 -0.128608 0
M  V30 7932 H 768.498 -4.52392 1.57729 0
M  V30 7933 H 766.862 -2.43513 0.746548 0
M  V30 7934 H 767.645 -2.437 2.41796 0
M  V30 7935 N 770.09 -0.729906 -1.39679 0
M  V30 7936 C 771.053 -0.0951668 -2.29002 0
M  V30 7937 C 772.053 0.672471 -1.46063 0
M  V30 7938 O 773.243 0.502245 -1.66803 0
M  V30 7939 C 770.375 0.874631 -3.29489 0
M  V30 7940 H 771.568 -0.882062 -2.86635 0
M  V30 7941 H 769.121 -0.495424 -1.4824 0
M  V30 7942 H 769.856 1.68807 -2.76902 0
M  V30 7943 H 769.641 0.326893 -3.90735 0
M  V30 7944 H 771.131 1.31548 -3.96339 0
M  V30 7945 N 771.568 1.50203 -0.477153 0
M  V30 7946 C 772.984 1.59056 -0.131663 0
M  V30 7947 C 773.184 1.48473 1.36227 0
M  V30 7948 O 772.24 1.34635 2.13611 0
M  V30 7949 C 773.553 2.92741 -0.687254 0
M  V30 7950 C 775.101 3.0615 -0.651223 0
M  V30 7951 C 775.576 4.42419 -1.18446 0
M  V30 7952 N 777.067 4.48847 -1.14413 0
M  V30 7953 C 777.802 5.52689 -1.52717 0
M  V30 7954 N 777.298 6.63754 -1.98499 0
M  V30 7955 N 779.091 5.43267 -1.44282 0
M  V30 7956 H 771.242 1.55325 -1.44872 0
M  V30 7957 H 773.505 0.734395 -0.599473 0
M  V30 7958 H 773.211 3.0598 -1.73405 0
M  V30 7959 H 773.085 3.76961 -0.134215 0
M  V30 7960 H 775.472 2.92556 0.386677 0
M  V30 7961 H 775.553 2.23673 -1.24114 0
M  V30 7962 H 775.197 4.56763 -2.22103 0
M  V30 7963 H 775.127 5.23498 -0.570709 0
M  V30 7964 H 777.618 3.69152 -0.808416 0
M  V30 7965 H 777.931 7.39059 -2.25859 0
M  V30 7966 H 776.276 6.64858 -2.02456 0
M  V30 7967 H 779.467 4.55387 -1.08352 0
M  V30 7968 H 779.64 6.24074 -1.74459 0
M  V30 7969 N 773.046 0.209999 1.56195 0
M  V30 7970 C 774.292 -0.425442 1.98287 0
M  V30 7971 C 774.625 -1.60232 1.09724 0
M  V30 7972 O 773.9 -1.93902 0.152414 0
M  V30 7973 C 774.183 -0.871189 3.49403 0
M  V30 7974 C 774.036 0.308527 4.48741 0
M  V30 7975 C 775.355 -1.73146 4.04609 0
M  V30 7976 H 772.474 -0.153169 0.720908 0
M  V30 7977 H 775.116 0.303916 1.87554 0
M  V30 7978 H 773.266 -1.49266 3.58681 0
M  V30 7979 H 774.938 0.946487 4.51486 0
M  V30 7980 H 773.181 0.957878 4.23092 0
M  V30 7981 H 773.852 -0.0461143 5.51981 0
M  V30 7982 H 776.328 -1.2072 3.98203 0
M  V30 7983 H 775.204 -2.01228 5.10684 0
M  V30 7984 H 775.465 -2.69083 3.5078 0
M  V30 7985 N 774.524 -1.57472 -0.0634922 0
M  V30 7986 C 775.752 -1.91887 -0.773767 0
M  V30 7987 C 776.167 -0.806733 -1.70696 0
M  V30 7988 O 775.524 0.219383 -1.81177 0
M  V30 7989 C 775.575 -3.26092 -1.56034 0
M  V30 7990 O 775.296 -4.33029 -0.66464 0
M  V30 7991 C 776.797 -3.74573 -2.37087 0
M  V30 7992 H 774.017 -0.634074 -0.219525 0
M  V30 7993 H 776.561 -2.04476 -0.0312828 0
M  V30 7994 H 774.716 -3.15004 -2.25502 0
M  V30 7995 H 775.13 -5.10291 -1.21258 0
M  V30 7996 H 776.604 -4.71084 -2.87722 0
M  V30 7997 H 777.081 -3.04003 -3.16984 0
M  V30 7998 H 777.687 -3.88631 -1.72759 0
M  V30 7999 N 776.003 0.335068 -1.53997 0
M  V30 8000 C 777.28 1.09188 -1.62288 0
M  V30 8001 C 777.66 2.0626 -0.449458 0
M  V30 8002 O 777.008 2.21596 0.557444 0
M  V30 8003 C 777.218 1.80403 -2.98757 0
M  V30 8004 C 778.566 2.33841 -3.54406 0
M  V30 8005 O 779.59 1.90487 -3.00987 0
M  V30 8006 O 778.449 3.1318 -4.47862 0
M  V30 8007 H 775.543 0.502621 -0.656736 0
M  V30 8008 H 778.089 0.33588 -1.66343 0
M  V30 8009 H 776.861 1.09732 -3.75599 0
M  V30 8010 H 776.484 2.62841 -2.9833 0
M  V30 8011 N 777.481 1.45874 0.596531 0
M  V30 8012 C 778.428 1.55389 1.70655 0
M  V30 8013 C 779.398 0.399036 1.61236 0
M  V30 8014 O 780.583 0.61396 1.80652 0
M  V30 8015 C 777.723 1.53705 3.0898 0
M  V30 8016 C 776.836 2.79823 3.29125 0
M  V30 8017 C 775.971 2.69735 4.5762 0
M  V30 8018 C 775.01 3.90856 4.71061 0
M  V30 8019 N 774.147 3.79237 5.90867 0
M  V30 8020 H 778.987 2.50211 1.61859 0
M  V30 8021 H 776.524 1.24146 0.789069 0
M  V30 8022 H 778.482 1.50715 3.89026 0
M  V30 8023 H 777.112 0.624247 3.16706 0
M  V30 8024 H 776.164 2.92852 2.42779 0
M  V30 8025 H 777.476 3.69628 3.34927 0
M  V30 8026 H 776.63 2.64773 5.45875 0
M  V30 8027 H 775.369 1.77547 4.54234 0
M  V30 8028 H 774.374 3.96164 3.81227 0
M  V30 8029 H 775.599 4.84124 4.76236 0
M  V30 8030 H 773.545 2.89825 5.88504 0
M  V30 8031 H 773.462 4.62686 5.97877 0
M  V30 8032 H 774.73 3.78227 6.8159 0
M  V30 8033 N 778.959 -0.83999 1.33349 0
M  V30 8034 C 780.208 -1.59011 1.2409 0
M  V30 8035 C 780.521 -1.94655 -0.192029 0
M  V30 8036 O 781.727 -2.68438 -0.406617 0
M  V30 8037 C 780.183 -2.86801 2.17425 0
M  V30 8038 C 779.791 -2.58525 3.65881 0
M  V30 8039 C 781.535 -3.64823 2.17036 0
M  V30 8040 C 779.442 -3.82404 4.51133 0
M  V30 8041 H 778.372 -0.596731 0.460899 0
M  V30 8042 H 781.023 -0.926274 1.58406 0
M  V30 8043 H 779.405 -3.54719 1.7604 0
M  V30 8044 H 780.579 -1.98824 4.15699 0
M  V30 8045 H 778.894 -1.93808 3.68548 0
M  V30 8046 H 781.491 -4.56774 2.7796 0
M  V30 8047 H 781.834 -3.99663 1.16513 0
M  V30 8048 H 782.367 -3.03826 2.56777 0
M  V30 8049 H 779.106 -3.52696 5.52527 0
M  V30 8050 H 778.626 -4.41447 4.0606 0
M  V30 8051 H 780.305 -4.49995 4.6488 0
M  V30 8052 N 780.437 -1.16799 -1.0581 0
M  V30 8053 C 781.662 -0.977402 -1.82925 0
M  V30 8054 C 782.087 0.469514 -1.82146 0
M  V30 8055 O 781.445 1.33576 -1.22585 0
M  V30 8056 C 781.493 -1.51543 -3.27211 0
M  V30 8057 O 780.597 -0.725021 -4.05977 0
M  V30 8058 H 779.938 -0.347474 -0.565825 0
M  V30 8059 H 782.468 -1.55151 -1.33376 0
M  V30 8060 H 782.478 -1.53502 -3.78023 0
M  V30 8061 H 781.153 -2.56872 -3.27093 0
M  V30 8062 H 779.73 -0.77634 -3.64729 0
M  V30 8063 N 781.915 1.24427 -0.967243 0
M  V30 8064 C 783.162 1.92487 -0.62888 0
M  V30 8065 C 783.49 1.75623 0.835871 0
M  V30 8066 O 782.745 1.1027 1.61675 0
M  V30 8067 C 783.044 3.44568 -0.949096 0
M  V30 8068 C 782.71 3.816 -2.40192 0
M  V30 8069 C 781.372 3.9142 -2.799 0
M  V30 8070 C 783.724 3.99715 -3.34481 0
M  V30 8071 C 781.052 4.16771 -4.12939 0
M  V30 8072 C 783.404 4.26562 -4.67148 0
M  V30 8073 C 782.068 4.34601 -5.06634 0
M  V30 8074 H 781.338 0.704361 -0.230124 0
M  V30 8075 H 783.985 1.4772 -1.21864 0
M  V30 8076 H 782.29 3.90819 -0.277085 0
M  V30 8077 H 783.987 3.95436 -0.665692 0
M  V30 8078 H 780.577 3.74522 -2.08402 0
M  V30 8079 H 784.761 3.91531 -3.04987 0
M  V30 8080 H 780.017 4.21214 -4.43158 0
M  V30 8081 H 784.191 4.39523 -5.40178 0
M  V30 8082 H 781.818 4.53998 -6.09746 0
M  V30 8083 N 783.393 0.737304 1.3929 0
M  V30 8084 C 784.34 0.0988364 2.30588 0
M  V30 8085 C 785.31 -0.727206 1.49335 0
M  V30 8086 O 786.495 -0.686694 1.78014 0
M  V30 8087 C 783.635 -0.800734 3.35682 0
M  V30 8088 C 782.748 0.0381731 4.31983 0
M  V30 8089 C 781.883 -0.862884 5.24145 0
M  V30 8090 C 780.922 -0.0193639 6.12097 0
M  V30 8091 N 780.059 -0.87648 6.96608 0
M  V30 8092 H 784.899 0.883031 2.84617 0
M  V30 8093 H 782.436 0.447111 1.4014 0
M  V30 8094 H 784.394 -1.33676 3.95205 0
M  V30 8095 H 783.024 -1.55088 2.83103 0
M  V30 8096 H 782.076 0.691641 3.74059 0
M  V30 8097 H 783.388 0.690294 4.94 0
M  V30 8098 H 782.542 -1.46667 5.88705 0
M  V30 8099 H 781.281 -1.54878 4.62454 0
M  V30 8100 H 780.286 0.597202 5.46547 0
M  V30 8101 H 781.511 0.663348 6.75852 0
M  V30 8102 H 779.457 -1.54762 6.37483 0
M  V30 8103 H 779.374 -0.280892 7.55478 0
M  V30 8104 H 780.642 -1.46575 7.65595 0
M  V30 8105 N 784.871 -1.49948 0.485112 0
M  V30 8106 C 786.101 -2.06506 -0.0621921 0
M  V30 8107 C 786.509 -1.34756 -1.32806 0
M  V30 8108 O 785.852 -0.41466 -1.78959 0
M  V30 8109 C 785.914 -3.57243 -0.402182 0
M  V30 8110 C 785.578 -4.50574 0.763671 0
M  V30 8111 C 786.575 -4.93032 1.6497 0
M  V30 8112 C 784.26 -4.9308 0.957973 0
M  V30 8113 C 786.254 -5.76718 2.71432 0
M  V30 8114 C 783.941 -5.76546 2.0258 0
M  V30 8115 C 784.939 -6.18267 2.90232 0
M  V30 8116 O 784.627 -7.00066 3.95174 0
M  V30 8117 H 784.359 -0.675925 0.0100672 0
M  V30 8118 H 786.913 -1.93922 0.677023 0
M  V30 8119 H 785.143 -3.6778 -1.19478 0
M  V30 8120 H 786.832 -3.96107 -0.886219 0
M  V30 8121 H 787.598 -4.60851 1.51134 0
M  V30 8122 H 783.477 -4.60117 0.285144 0
M  V30 8123 H 787.021 -6.09203 3.39878 0
M  V30 8124 H 782.918 -6.0814 2.16417 0
M  V30 8125 H 783.686 -7.18343 3.92333 0
M  V30 8126 N 786.349 -0.21828 -1.56081 0
M  V30 8127 C 787.596 0.414307 -1.98216 0
M  V30 8128 C 787.924 1.60005 -1.10584 0
M  V30 8129 O 787.179 1.95124 -0.150043 0
M  V30 8130 C 787.478 0.894782 -3.46018 0
M  V30 8131 C 787.144 -0.180083 -4.5054 0
M  V30 8132 C 785.806 -0.475367 -4.78846 0
M  V30 8133 C 788.158 -0.907191 -5.13244 0
M  V30 8134 C 785.486 -1.50233 -5.67139 0
M  V30 8135 C 787.838 -1.92347 -6.02649 0
M  V30 8136 C 786.502 -2.22571 -6.293 0
M  V30 8137 H 785.772 0.151606 -0.725325 0
M  V30 8138 H 788.419 -0.320113 -1.88806 0
M  V30 8139 H 786.724 1.7079 -3.52616 0
M  V30 8140 H 788.421 1.39403 -3.75989 0
M  V30 8141 H 785.011 0.06022 -4.28558 0
M  V30 8142 H 789.195 -0.692303 -4.91448 0
M  V30 8143 H 784.451 -1.74215 -5.86054 0
M  V30 8144 H 788.625 -2.49197 -6.50288 0
M  V30 8145 H 786.252 -3.0229 -6.97513 0
M  V30 8146 N 787.827 1.57504 0.0551401 0
M  V30 8147 C 788.76 2.00155 1.09604 0
M  V30 8148 C 789.738 0.881274 1.36647 0
M  V30 8149 O 790.922 1.14498 1.49742 0
M  V30 8150 C 788.049 2.35246 2.43674 0
M  V30 8151 C 787.095 3.57452 2.32659 0
M  V30 8152 S 787.928 5.07639 1.7048 0
M  V30 8153 C 789.084 5.45947 3.06093 0
M  V30 8154 H 789.317 2.88131 0.732635 0
M  V30 8155 H 786.85 1.52122 0.264252 0
M  V30 8156 H 788.808 2.56136 3.20787 0
M  V30 8157 H 787.469 1.47769 2.7717 0
M  V30 8158 H 786.662 3.79576 3.31569 0
M  V30 8159 H 786.264 3.36279 1.63685 0
M  V30 8160 H 788.556 5.45036 4.0242 0
M  V30 8161 H 789.499 6.4656 2.88732 0
M  V30 8162 H 789.907 4.73419 3.07466 0
M  V30 8163 N 789.305 -0.326896 1.54172 0
M  V30 8164 C 790.582 -1.08326 1.62864 0
M  V30 8165 C 790.962 -2.06018 0.46039 0
M  V30 8166 O 790.31 -2.21889 -0.545685 0
M  V30 8167 C 790.52 -1.78816 2.9971 0
M  V30 8168 C 791.868 -2.31958 3.55641 0
M  V30 8169 O 792.892 -1.88888 3.01993 0
M  V30 8170 O 791.751 -3.10801 4.49517 0
M  V30 8171 H 788.845 -0.499131 0.659392 0
M  V30 8172 H 791.391 -0.327054 1.66519 0
M  V30 8173 H 790.163 -1.07739 3.76176 0
M  V30 8174 H 789.786 -2.61255 2.99719 0
M  V30 8175 N 790.784 -1.46188 -0.588786 0
M  V30 8176 C 791.714 -1.59148 -1.70863 0
M  V30 8177 C 792.695 -0.442083 -1.64255 0
M  V30 8178 O 793.88 -0.667575 -1.82365 0
M  V30 8179 C 791.01 -1.5757 -3.09498 0
M  V30 8180 C 789.964 -2.71418 -3.30932 0
M  V30 8181 C 789.29 -2.549 -4.70032 0
M  V30 8182 C 790.59 -4.1329 -3.19356 0
M  V30 8183 H 792.284 -2.52889 -1.60274 0
M  V30 8184 H 789.83 -1.21707 -0.769638 0
M  V30 8185 H 791.783 -1.65231 -3.87655 0
M  V30 8186 H 790.507 -0.603705 -3.20972 0
M  V30 8187 H 789.166 -2.63216 -2.55172 0
M  V30 8188 H 788.814 -1.55797 -4.78264 0
M  V30 8189 H 788.514 -3.31257 -4.85327 0
M  V30 8190 H 790.038 -2.64443 -5.50366 0
M  V30 8191 H 791.452 -4.22636 -3.87365 0
M  V30 8192 H 789.849 -4.90187 -3.46175 0
M  V30 8193 H 790.919 -4.33874 -2.16522 0
M  V30 8194 N 792.262 0.832906 -1.33792 0
M  V30 8195 C 793.487 1.62568 -1.28788 0
M  V30 8196 C 793.912 1.87599 0.137246 0
M  V30 8197 O 793.27 1.44436 1.0958 0
M  V30 8198 C 793.318 2.9495 -2.07453 0
M  V30 8199 O 792.422 3.86546 -1.43722 0
M  V30 8200 H 791.763 0.494809 -0.442787 0
M  V30 8201 H 794.293 1.03578 -1.76445 0
M  V30 8202 H 794.303 3.44599 -2.1844 0
M  V30 8203 H 792.978 2.76055 -3.11073 0
M  V30 8204 H 791.555 3.45044 -1.41417 0
M  V30 8205 N 793.74 1.17359 1.05189 0
M  V30 8206 C 794.65 0.904984 2.16442 0
M  V30 8207 C 795.666 -0.12686 1.73537 0
M  V30 8208 O 796.842 0.0524127 2.01332 0
M  V30 8209 C 793.907 0.422019 3.44122 0
M  V30 8210 C 792.968 1.52045 4.01473 0
M  V30 8211 C 792.201 1.06044 5.23059 0
M  V30 8212 O 792.424 -0.0854023 5.70336 0
M  V30 8213 O 791.358 1.85349 5.72651 0
M  V30 8214 H 795.184 1.8356 2.41949 0
M  V30 8215 H 792.769 0.95447 1.14936 0
M  V30 8216 H 794.651 0.160208 4.21095 0
M  V30 8217 H 793.326 -0.480444 3.20115 0
M  V30 8218 H 792.233 1.83615 3.25939 0
M  V30 8219 H 793.566 2.39863 4.29798 0
M  V30 8220 N 795.218 -1.23913 0.973828 0
M  V30 8221 C 796.467 -1.91455 0.63464 0
M  V30 8222 C 796.78 -1.76893 -0.834759 0
M  V30 8223 O 797.986 -2.3918 -1.28473 0
M  V30 8224 C 796.442 -3.43172 1.08447 0
M  V30 8225 C 796.05 -3.66409 2.57776 0
M  V30 8226 C 797.794 -4.1653 0.818721 0
M  V30 8227 C 795.701 -5.11728 2.9646 0
M  V30 8228 H 794.631 -0.716881 0.233661 0
M  V30 8229 H 797.282 -1.40457 1.18085 0
M  V30 8230 H 795.664 -3.93242 0.466524 0
M  V30 8231 H 796.838 -3.26913 3.24753 0
M  V30 8232 H 795.153 -3.06349 2.82027 0
M  V30 8233 H 797.75 -5.23603 1.08367 0
M  V30 8234 H 798.093 -4.15578 -0.245128 0
M  V30 8235 H 798.626 -3.72428 1.39793 0
M  V30 8236 H 795.365 -5.17806 4.01941 0
M  V30 8237 H 794.885 -5.52199 2.34172 0
M  V30 8238 H 796.564 -5.80009 2.86703 0
M  V30 8239 N 796.696 -0.74468 -1.38897 0
M  V30 8240 C 797.942 -0.297324 -2.00609 0
M  V30 8241 C 798.275 1.11547 -1.58968 0
M  V30 8242 O 797.55 1.76227 -0.823057 0
M  V30 8243 C 797.833 -0.410125 -3.57757 0
M  V30 8244 C 797.686 -1.86338 -4.09387 0
M  V30 8245 C 799.005 0.20176 -4.39637 0
M  V30 8246 H 796.124 -0.109509 -0.728819 0
M  V30 8247 H 798.766 -0.942653 -1.64967 0
M  V30 8248 H 796.916 0.139287 -3.8825 0
M  V30 8249 H 798.588 -2.47042 -3.89574 0
M  V30 8250 H 796.831 -2.38146 -3.62586 0
M  V30 8251 H 797.502 -1.89352 -5.18507 0
M  V30 8252 H 799.978 -0.266703 -4.15244 0
M  V30 8253 H 798.854 0.0925415 -5.48822 0
M  V30 8254 H 799.115 1.289 -4.22891 0
M  V30 8255 N 798.174 1.49689 -0.493057 0
M  V30 8256 C 799.137 2.27502 0.278485 0
M  V30 8257 C 800.137 1.33184 0.901037 0
M  V30 8258 O 801.327 1.56415 0.766801 0
M  V30 8259 C 798.459 3.10881 1.39878 0
M  V30 8260 H 799.652 2.97163 -0.404219 0
M  V30 8261 H 797.205 1.54324 -0.247774 0
M  V30 8262 H 797.94 2.45767 2.11587 0
M  V30 8263 H 797.725 3.80219 0.957924 0
M  V30 8264 H 799.215 3.69673 1.94247 0
M  V30 8265 N 799.652 0.226554 1.55963 0
M  V30 8266 C 800.615 -0.668015 2.19249 0
M  V30 8267 C 801.615 -1.11794 1.1558 0
M  V30 8268 O 802.805 -1.02593 1.40784 0
M  V30 8269 C 799.937 -1.91571 2.81981 0
M  V30 8270 H 801.13 -0.116175 2.99675 0
M  V30 8271 H 798.683 -0.0230497 1.56283 0
M  V30 8272 H 799.418 -2.50929 2.05439 0
M  V30 8273 H 799.203 -1.6015 3.57903 0
M  V30 8274 H 800.693 -2.55294 3.30477 0
M  V30 8275 N 801.13 -1.57531 -0.0467866 0
M  V30 8276 C 802.378 -1.88078 -0.739656 0
M  V30 8277 C 802.699 -0.821936 -1.76831 0
M  V30 8278 O 801.969 0.146582 -1.95351 0
M  V30 8279 H 800.549 -0.694075 -0.276169 0
M  V30 8280 H 803.211 -1.94893 -0.0169391 0
M  V30 8281 H 802.307 -2.86396 -1.24031 0
M  V30 8282 N 802.608 0.318715 -1.54344 0
M  V30 8283 C 803.857 1.05363 -1.71993 0
M  V30 8284 C 804.17 1.89018 -0.503155 0
M  V30 8285 O 805.376 2.65639 -0.561085 0
M  V30 8286 C 803.832 1.92281 -3.0423 0
M  V30 8287 C 803.44 1.13715 -4.33328 0
M  V30 8288 C 805.184 2.65479 -3.31242 0
M  V30 8289 C 803.091 1.99806 -5.56625 0
M  V30 8290 H 802.021 0.397081 -0.64097 0
M  V30 8291 H 804.672 0.311598 -1.80835 0
M  V30 8292 H 803.054 2.70402 -2.89307 0
M  V30 8293 H 804.228 0.403305 -4.59032 0
M  V30 8294 H 802.543 0.521769 -4.13118 0
M  V30 8295 H 805.14 3.30209 -4.20555 0
M  V30 8296 H 805.483 3.33374 -2.49334 0
M  V30 8297 H 806.016 1.94417 -3.47054 0
M  V30 8298 H 802.755 1.36411 -6.41149 0
M  V30 8299 H 802.275 2.70911 -5.35133 0
M  V30 8300 H 803.954 2.58277 -5.93213 0
M  V30 8301 N 804.086 1.46499 0.581025 0
M  V30 8302 C 805.363 1.42372 1.34125 0
M  V30 8303 C 805.743 0.108073 2.10823 0
M  V30 8304 O 805.091 -0.910366 2.09582 0
M  V30 8305 C 805.301 2.65445 2.26583 0
M  V30 8306 C 806.649 3.11664 2.88359 0
M  V30 8307 O 807.673 2.66006 2.36896 0
M  V30 8308 O 806.532 3.90974 3.81839 0
M  V30 8309 H 803.626 0.566262 0.602724 0
M  V30 8310 H 806.172 1.58667 0.601903 0
M  V30 8311 H 804.944 3.52756 1.69348 0
M  V30 8312 H 804.567 2.51618 3.07854 0
M  V30 8313 N 805.565 -0.825799 1.34232 0
M  V30 8314 C 806.976 -1.39835 1.23706 0
M  V30 8315 C 807.327 -1.95709 -0.138649 0
M  V30 8316 O 806.452 -1.89833 -1.03886 0
M  V30 8317 C 807.047 -2.54203 2.23978 0
M  V30 8318 C 805.606 -3.07374 2.17251 0
M  V30 8319 C 804.753 -1.80232 2.10741 0
M  V30 8320 H 807.704 -0.630442 1.4564 0
M  V30 8321 H 807.725 -3.32214 1.8551 0
M  V30 8322 H 807.237 -2.13506 3.24094 0
M  V30 8323 H 805.338 -3.52583 1.20483 0
M  V30 8324 H 805.451 -3.6666 3.08379 0
M  V30 8325 H 803.815 -2.01012 1.56417 0
M  V30 8326 H 804.598 -1.41713 3.12686 0
M  V30 8327 N 807.043 -1.17915 -1.04565 0
M  V30 8328 C 807.973 -0.925033 -2.14395 0
M  V30 8329 C 808.954 0.135375 -1.6956 0
M  V30 8330 O 810.139 -0.0161774 -1.94193 0
M  V30 8331 C 807.269 -0.444469 -3.44444 0
M  V30 8332 C 806.223 -1.44478 -4.02877 0
M  V30 8333 C 805.549 -0.821933 -5.28345 0
M  V30 8334 C 806.849 -2.81995 -4.39632 0
M  V30 8335 H 808.543 -1.84354 -2.35911 0
M  V30 8336 H 806.089 -0.887806 -1.13375 0
M  V30 8337 H 808.042 -0.254078 -4.20633 0
M  V30 8338 H 806.766 0.509592 -3.226 0
M  V30 8339 H 805.425 -1.62203 -3.28764 0
M  V30 8340 H 805.073 0.139161 -5.02807 0
M  V30 8341 H 804.773 -1.48976 -5.68401 0
M  V30 8342 H 806.297 -0.641959 -6.07216 0
M  V30 8343 H 807.711 -2.67952 -5.06828 0
M  V30 8344 H 806.108 -3.45414 -4.90723 0
M  V30 8345 H 807.178 -3.35927 -3.49687 0
M  V30 8346 N 808.521 1.23394 -0.980386 0
M  V30 8347 C 809.746 1.96384 -0.666935 0
M  V30 8348 C 810.171 1.72087 0.759456 0
M  V30 8349 O 809.529 0.992328 1.51732 0
M  V30 8350 C 809.577 3.47499 -0.963177 0
M  V30 8351 O 808.681 4.12363 -0.0552051 0
M  V30 8352 H 808.022 0.614797 -0.250839 0
M  V30 8353 H 810.552 1.56831 -1.31398 0
M  V30 8354 H 810.562 3.97953 -0.899877 0
M  V30 8355 H 809.237 3.6451 -2.00264 0
M  V30 8356 H 807.814 3.72499 -0.172914 0
M  V30 8357 N 809.999 0.752036 1.385 0
M  V30 8358 C 810.929 0.138718 2.33088 0
M  V30 8359 C 811.91 -0.705318 1.54788 0
M  V30 8360 O 813.095 -0.646821 1.83112 0
M  V30 8361 C 810.225 -0.75641 3.38963 0
M  V30 8362 C 809.179 -0.0152239 4.27997 0
M  V30 8363 C 808.505 -1.0285 5.24715 0
M  V30 8364 C 809.805 1.15226 5.09431 0
M  V30 8365 H 811.499 0.928852 2.84627 0
M  V30 8366 H 809.045 0.448111 1.3685 0
M  V30 8367 H 810.998 -1.19513 4.04097 0
M  V30 8368 H 809.722 -1.57885 2.85902 0
M  V30 8369 H 808.381 0.404061 3.64366 0
M  V30 8370 H 808.029 -1.84496 4.67943 0
M  V30 8371 H 807.729 -0.537238 5.85139 0
M  V30 8372 H 809.253 -1.46657 5.92726 0
M  V30 8373 H 810.667 0.791161 5.67815 0
M  V30 8374 H 809.064 1.57428 5.79082 0
M  V30 8375 H 810.134 1.9659 4.43261 0
M  V30 8376 N 811.477 -1.49425 0.500989 0
M  V30 8377 C 812.723 -2.02753 -0.0436 0
M  V30 8378 C 813.056 -1.37991 -1.36646 0
M  V30 8379 O 812.331 -0.515597 -1.87542 0
M  V30 8380 C 812.614 -3.59565 -0.19616 0
M  V30 8381 C 812.467 -4.34855 1.14982 0
M  V30 8382 C 813.786 -4.30014 -0.936795 0
M  V30 8383 H 810.905 -0.73686 -0.0143711 0
M  V30 8384 H 813.547 -1.78448 0.652397 0
M  V30 8385 H 811.697 -3.80405 -0.788959 0
M  V30 8386 H 813.369 -4.25512 1.7815 0
M  V30 8387 H 811.612 -3.97414 1.73911 0
M  V30 8388 H 812.283 -5.42933 0.996385 0
M  V30 8389 H 814.759 -4.1383 -0.434036 0
M  V30 8390 H 813.635 -5.39483 -1.01238 0
M  V30 8391 H 813.896 -3.95257 -1.9805 0
M  V30 8392 N 812.955 -0.234822 -1.55841 0
M  V30 8393 C 814.183 0.397745 -2.03041 0
M  V30 8394 C 814.598 1.52405 -1.11437 0
M  V30 8395 O 813.955 1.82061 -0.126466 0
M  V30 8396 C 814.006 0.916919 -3.49678 0
M  V30 8397 O 813.727 -0.164493 -4.37791 0
M  V30 8398 C 815.228 1.62139 -4.12584 0
M  V30 8399 H 812.448 0.0959214 -0.664108 0
M  V30 8400 H 814.992 -0.355156 -2.01392 0
M  V30 8401 H 813.147 1.62004 -3.519 0
M  V30 8402 H 813.561 0.227794 -5.24005 0
M  V30 8403 H 815.035 1.93651 -5.16917 0
M  V30 8404 H 815.512 2.53918 -3.58361 0
M  V30 8405 H 816.118 0.963145 -4.14251 0
M  V30 8406 N 814.433 1.57553 0.0384317 0
M  V30 8407 C 815.658 1.93485 0.746872 0
M  V30 8408 C 816.083 0.834069 1.68597 0
M  V30 8409 O 815.441 -0.210902 1.80069 0
M  V30 8410 C 815.489 3.28463 1.4881 0
M  V30 8411 O 814.593 3.20051 2.60079 0
M  V30 8412 H 813.934 0.632675 0.201539 0
M  V30 8413 H 816.464 2.046 -0.00329815 0
M  V30 8414 H 816.474 3.63132 1.86009 0
M  V30 8415 H 815.149 4.08147 0.799297 0
M  V30 8416 H 813.726 2.96998 2.25492 0
M  V30 8417 N 815.911 -0.310526 1.54511 0
M  V30 8418 C 817.136 -1.07046 1.7764 0
M  V30 8419 C 817.561 -1.80488 0.529696 0
M  V30 8420 O 816.919 -1.73702 -0.519361 0
M  V30 8421 C 816.967 -2.03411 2.97752 0
M  V30 8422 O 816.071 -3.11545 2.7021 0
M  V30 8423 H 815.412 -0.307994 0.588248 0
M  V30 8424 H 817.942 -0.350848 2.01569 0
M  V30 8425 H 817.952 -2.46048 3.2546 0
M  V30 8426 H 816.627 -1.49361 3.88155 0
M  V30 8427 H 815.204 -2.7349 2.53491 0
M  V30 8428 N 817.389 -1.46805 -0.573248 0
M  V30 8429 C 818.337 -1.58468 -1.70267 0
M  V30 8430 C 819.331 -0.452694 -1.63239 0
M  V30 8431 O 820.537 -0.629915 -1.68618 0
M  V30 8432 H 816.912 -0.498408 -0.56311 0
M  V30 8433 H 818.883 -2.5341 -1.57563 0
M  V30 8434 C 817.632 -1.60104 -3.08645 0
M  V30 8435 H 816.955 -2.4655 -3.14727 0
M  V30 8436 H 818.395 -1.72318 -3.87405 0
M  V30 8437 C 816.854 -0.33138 -3.35266 0
M  V30 8438 O 817.384 0.57438 -3.97572 0
M  V30 8439 N 815.59 -0.216358 -2.89793 0
M  V30 8440 H 815.137 -0.954345 -2.3927 0
M  V30 8441 H 815.095 0.632253 -3.07977 0
M  V30 8442 N 818.867 0.818669 -1.34668 0
M  V30 8443 C 820.097 1.60441 -1.30162 0
M  V30 8444 C 820.505 1.88783 0.125579 0
M  V30 8445 O 819.848 1.48281 1.08437 0
M  V30 8446 C 819.91 2.96794 -2.02864 0
M  V30 8447 C 819.574 2.91327 -3.52105 0
M  V30 8448 C 820.571 2.65611 -4.4693 0
M  V30 8449 C 818.256 3.10825 -3.9458 0
M  V30 8450 C 820.25 2.59452 -5.82206 0
M  V30 8451 C 817.937 3.0429 -5.29954 0
M  V30 8452 C 818.935 2.78637 -6.23579 0
M  V30 8453 O 818.623 2.72042 -7.56471 0
M  V30 8454 H 818.355 0.505278 -0.449077 0
M  V30 8455 H 820.909 1.02632 -1.77921 0
M  V30 8456 H 819.139 3.56538 -1.49725 0
M  V30 8457 H 820.828 3.57837 -1.91592 0
M  V30 8458 H 821.594 2.50278 -4.15434 0
M  V30 8459 H 817.473 3.29807 -3.221 0
M  V30 8460 H 821.017 2.39349 -6.55254 0
M  V30 8461 H 816.914 3.19177 -5.61067 0
M  V30 8462 H 817.682 2.87738 -7.66257 0
M  V30 8463 N 820.346 1.18468 1.03938 0
M  V30 8464 C 821.571 1.00638 1.81347 0
M  V30 8465 C 821.996 -0.440477 1.8287 0
M  V30 8466 O 821.354 -1.31609 1.24695 0
M  V30 8467 C 821.402 1.5673 3.24759 0
M  V30 8468 O 820.506 0.789517 4.04772 0
M  V30 8469 H 819.847 0.356432 0.560225 0
M  V30 8470 H 822.377 1.57253 1.30891 0
M  V30 8471 H 822.387 1.59496 3.75533 0
M  V30 8472 H 821.062 2.62043 3.22965 0
M  V30 8473 H 819.639 0.834267 3.63448 0
M  V30 8474 N 821.824 -1.22873 0.986916 0
M  V30 8475 C 822.734 -2.28277 0.540978 0
M  V30 8476 C 823.75 -1.69164 -0.407363 0
M  V30 8477 O 824.926 -1.99504 -0.275674 0
M  V30 8478 C 821.991 -3.46404 -0.143181 0
M  V30 8479 C 821.052 -4.20854 0.847375 0
M  V30 8480 C 820.285 -5.33341 0.19577 0
M  V30 8481 O 820.508 -5.61356 -1.0117 0
M  V30 8482 O 819.442 -5.95169 0.897623 0
M  V30 8483 H 823.268 -2.68578 1.41773 0
M  V30 8484 H 820.853 -1.28927 0.754867 0
M  V30 8485 H 822.735 -4.18096 -0.526676 0
M  V30 8486 H 821.41 -3.08041 -0.994593 0
M  V30 8487 H 820.317 -3.51459 1.28169 0
M  V30 8488 H 821.65 -4.63082 1.6678 0
M  V30 8489 N 823.302 -0.75937 -1.38099 0
M  V30 8490 C 824.55 -0.317485 -1.99591 0
M  V30 8491 C 824.871 1.10628 -1.60581 0
M  V30 8492 O 824.141 1.7575 -0.865378 0
M  V30 8493 H 822.721 -0.114397 -0.738189 0
M  V30 8494 H 825.383 -0.974749 -1.68774 0
M  V30 8495 H 824.479 -0.385227 -3.09713 0
M  V30 8496 N 824.78 1.49157 -0.508906 0
M  V30 8497 C 825.727 2.2927 0.265288 0
M  V30 8498 C 826.697 1.3603 0.953162 0
M  V30 8499 O 827.882 1.64989 0.958291 0
M  V30 8500 C 825.022 3.18897 1.31904 0
M  V30 8501 C 824.135 4.27201 0.642144 0
M  V30 8502 C 823.27 5.04033 1.67701 0
M  V30 8503 C 822.309 6.04165 0.982422 0
M  V30 8504 N 821.446 6.74133 1.96186 0
M  V30 8505 H 826.286 2.94967 -0.424107 0
M  V30 8506 H 823.823 1.45431 -0.220991 0
M  V30 8507 H 825.781 3.69242 1.94206 0
M  V30 8508 H 824.411 2.55168 1.97709 0
M  V30 8509 H 823.463 3.80283 -0.0943395 0
M  V30 8510 H 824.775 4.98708 0.0957507 0
M  V30 8511 H 823.929 5.58287 2.37487 0
M  V30 8512 H 822.668 4.32317 2.25728 0
M  V30 8513 H 821.673 5.49135 0.270378 0
M  V30 8514 H 822.898 6.7787 0.408554 0
M  V30 8515 H 820.844 6.05183 2.53159 0
M  V30 8516 H 820.761 7.41643 1.46634 0
M  V30 8517 H 822.029 7.32987 2.65236 0
M  V30 8518 N 826.258 0.243083 1.55714 0
M  V30 8519 C 827.206 -0.674349 2.2261 0
M  V30 8520 C 828.2 -1.18307 1.21243 0
M  V30 8521 O 829.406 -1.1404 1.39265 0
M  V30 8522 H 825.781 -0.235941 0.714028 0
M  V30 8523 H 827.752 -0.0869446 2.98273 0
M  V30 8524 C 826.501 -1.86206 2.93637 0
M  V30 8525 H 825.824 -1.47975 3.71407 0
M  V30 8526 H 827.264 -2.4813 3.43813 0
M  V30 8527 C 825.723 -2.73084 1.97298 0
M  V30 8528 O 826.253 -3.72497 1.50361 0
M  V30 8529 N 824.459 -2.39571 1.64482 0
M  V30 8530 H 824.006 -1.5878 2.02846 0
M  V30 8531 H 823.964 -2.97976 1.00288 0
M  V30 8532 N 827.736 -1.57571 -0.0300757 0
M  V30 8533 C 828.964 -1.93485 -0.732891 0
M  V30 8534 C 829.379 -0.842758 -1.68947 0
M  V30 8535 O 828.736 0.180904 -1.81601 0
M  V30 8536 C 828.787 -3.29328 -1.49082 0
M  V30 8537 O 828.508 -4.34341 -0.572639 0
M  V30 8538 C 830.009 -3.79517 -2.29088 0
M  V30 8539 H 827.229 -0.638588 -0.206026 0
M  V30 8540 H 829.773 -2.04496 0.0120966 0
M  V30 8541 H 827.928 -3.19716 -2.1877 0
M  V30 8542 H 828.342 -5.12748 -1.10406 0
M  V30 8543 H 829.816 -4.77081 -2.77665 0
M  V30 8544 H 830.293 -3.10659 -3.10464 0
M  V30 8545 H 830.899 -3.92208 -1.64477 0
M  V30 8546 N 829.214 0.302327 -1.54673 0
M  V30 8547 C 830.161 1.37282 -1.85532 0
M  V30 8548 C 831.131 1.50437 -0.704129 0
M  V30 8549 O 832.316 1.65317 -0.952627 0
M  V30 8550 C 829.456 2.73309 -2.10704 0
M  V30 8551 C 828.569 2.68614 -3.38335 0
M  V30 8552 C 827.704 3.96626 -3.53357 0
M  V30 8553 C 826.743 3.86324 -4.74784 0
M  V30 8554 N 825.88 5.06109 -4.86619 0
M  V30 8555 H 830.72 1.10265 -2.76849 0
M  V30 8556 H 828.257 0.533346 -1.37091 0
M  V30 8557 H 830.215 3.52414 -2.23294 0
M  V30 8558 H 828.845 2.98589 -1.22656 0
M  V30 8559 H 827.897 1.81381 -3.34373 0
M  V30 8560 H 829.209 2.56891 -4.27561 0
M  V30 8561 H 828.363 4.84168 -3.65604 0
M  V30 8562 H 827.102 4.11182 -2.62261 0
M  V30 8563 H 826.107 2.97166 -4.62572 0
M  V30 8564 H 827.332 3.73315 -5.67286 0
M  V30 8565 H 825.278 5.2113 -3.98446 0
M  V30 8566 H 825.195 4.96804 -5.69844 0
M  V30 8567 H 826.463 5.95306 -5.03221 0
M  V30 8568 N 830.692 1.47107 0.565454 0
M  V30 8569 C 831.938 1.53535 1.32495 0
M  V30 8570 C 832.271 0.193537 1.93233 0
M  V30 8571 O 831.546 -0.796956 1.77423 0
M  V30 8572 C 831.829 2.64712 2.4413 0
M  V30 8573 C 831.682 4.08482 1.88314 0
M  V30 8574 C 833.001 2.71853 3.46098 0
M  V30 8575 H 830.12 0.558926 0.480386 0
M  V30 8576 H 832.762 1.79125 0.633575 0
M  V30 8577 H 830.912 2.43023 3.03104 0
M  V30 8578 H 832.584 4.4151 1.33665 0
M  V30 8579 H 830.827 4.17148 1.19037 0
M  V30 8580 H 831.498 4.82032 2.68978 0
M  V30 8581 H 833.974 2.91397 2.97031 0
M  V30 8582 H 832.85 3.51433 4.21646 0
M  V30 8583 H 833.111 1.78584 4.04426 0
M  V30 8584 N 832.17 -0.811516 1.35101 0
M  V30 8585 C 833.395 -1.60499 1.31358 0
M  V30 8586 C 833.82 -1.87793 -0.107383 0
M  V30 8587 O 833.178 -1.46161 -1.07268 0
M  V30 8588 C 833.226 -2.91612 2.12119 0
M  V30 8589 O 832.33 -3.84211 1.49853 0
M  V30 8590 H 831.671 -0.487702 0.450603 0
M  V30 8591 H 834.201 -1.00758 1.7807 0
M  V30 8592 H 834.211 -3.4108 2.23894 0
M  V30 8593 H 832.886 -2.71071 3.15426 0
M  V30 8594 H 831.463 -3.42751 1.46889 0
M  V30 8595 N 833.648 -1.19017 -1.03309 0
M  V30 8596 C 834.896 -0.988258 -1.76289 0
M  V30 8597 C 835.217 0.482557 -1.88935 0
M  V30 8598 O 834.487 1.34969 -1.41987 0
M  V30 8599 H 833.067 -0.36267 -0.653054 0
M  V30 8600 H 835.729 -1.49836 -1.2464 0
M  V30 8601 H 834.825 -1.43273 -2.77271 0
M  V30 8602 N 835.127 1.22348 -0.993418 0
M  V30 8603 C 836.373 1.91393 -0.67056 0
M  V30 8604 C 836.706 1.77163 0.795428 0
M  V30 8605 O 835.981 1.14084 1.57528 0
M  V30 8606 C 836.264 3.43589 -1.0779 0
M  V30 8607 C 836.117 3.66867 -2.60248 0
M  V30 8608 C 837.436 4.35545 -0.631527 0
M  V30 8609 H 834.555 0.695057 -0.24508 0
M  V30 8610 H 837.197 1.44213 -1.23703 0
M  V30 8611 H 835.347 3.83903 -0.595902 0
M  V30 8612 H 837.019 3.35954 -3.16121 0
M  V30 8613 H 835.262 3.1113 -3.02293 0
M  V30 8614 H 835.933 4.73457 -2.838 0
M  V30 8615 H 838.409 4.0275 -1.04554 0
M  V30 8616 H 837.285 5.40707 -0.944831 0
M  V30 8617 H 837.546 4.39618 0.467779 0
M  V30 8618 N 836.605 0.766683 1.37694 0
M  V30 8619 C 837.535 0.163432 2.32927 0
M  V30 8620 C 838.516 -0.688861 1.55527 0
M  V30 8621 O 839.701 -0.627363 1.83787 0
M  V30 8622 C 836.831 -0.720416 3.39746 0
M  V30 8623 C 835.785 0.0301718 4.27989 0
M  V30 8624 C 835.111 -0.972788 5.25776 0
M  V30 8625 C 836.411 1.20623 5.0818 0
M  V30 8626 H 838.105 0.958988 2.83626 0
M  V30 8627 H 835.651 0.462601 1.36367 0
M  V30 8628 H 837.604 -1.15221 4.05342 0
M  V30 8629 H 836.328 -1.54844 2.8756 0
M  V30 8630 H 834.987 0.442685 3.63917 0
M  V30 8631 H 834.635 -1.79522 4.69873 0
M  V30 8632 H 834.335 -0.475145 5.85676 0
M  V30 8633 H 835.859 -1.40362 5.94248 0
M  V30 8634 H 837.273 0.851341 5.66944 0
M  V30 8635 H 835.67 1.63561 5.7738 0
M  V30 8636 H 836.74 2.01281 4.41151 0
M  V30 8637 N 838.083 -1.48885 0.516809 0
M  V30 8638 C 839.494 -1.86557 0.0729921 0
M  V30 8639 C 839.845 -1.42767 -1.34581 0
M  V30 8640 O 838.97 -0.812514 -2.00567 0
M  V30 8641 C 839.565 -3.38567 0.125686 0
M  V30 8642 C 838.124 -3.75481 -0.262867 0
M  V30 8643 C 837.271 -2.72913 0.491281 0
M  V30 8644 H 840.222 -1.40978 0.728767 0
M  V30 8645 H 840.243 -3.74629 -0.665831 0
M  V30 8646 H 839.755 -3.70408 1.15842 0
M  V30 8647 H 837.856 -3.49251 -1.29824 0
M  V30 8648 H 837.969 -4.79052 0.067579 0
M  V30 8649 H 836.333 -2.54627 -0.0608525 0
M  V30 8650 H 837.116 -3.07599 1.5244 0
M  V30 8651 N 839.561 -0.251338 -1.55583 0
M  V30 8652 C 840.807 0.365823 -2.00083 0
M  V30 8653 C 841.162 1.55242 -1.13656 0
M  V30 8654 O 840.455 1.90624 -0.193108 0
M  V30 8655 C 840.649 0.821186 -3.47838 0
M  V30 8656 C 840.478 -0.319746 -4.48562 0
M  V30 8657 C 839.248 -0.795866 -4.98993 0
M  V30 8658 C 841.446 -1.14825 -5.01318 0
M  V30 8659 N 839.428 -1.90875 -5.83472 0
M  V30 8660 C 840.799 -2.10943 -5.83012 0
M  V30 8661 C 842.854 -1.18431 -4.8361 0
M  V30 8662 C 841.557 -3.10383 -6.48888 0
M  V30 8663 C 843.583 -2.16703 -5.50267 0
M  V30 8664 C 842.945 -3.11557 -6.31753 0
M  V30 8665 H 839.044 0.0996971 -0.775619 0
M  V30 8666 H 841.628 -0.36993 -1.91153 0
M  V30 8667 H 839.799 1.52622 -3.57157 0
M  V30 8668 H 841.531 1.41367 -3.79206 0
M  V30 8669 H 838.286 -0.379242 -4.72079 0
M  V30 8670 H 838.71 -2.46808 -6.30408 0
M  V30 8671 H 843.352 -0.464824 -4.20237 0
M  V30 8672 H 841.07 -3.83277 -7.11424 0
M  V30 8673 H 844.656 -2.20204 -5.38518 0
M  V30 8674 H 843.536 -3.86357 -6.82421 0
M  V30 8675 N 841.039 1.57585 0.0217189 0
M  V30 8676 C 842.316 1.80779 0.74687 0
M  V30 8677 C 842.696 0.851163 1.9318 0
M  V30 8678 O 842.044 -0.105039 2.28258 0
M  V30 8679 C 842.254 3.28696 1.17302 0
M  V30 8680 C 843.602 3.93871 1.58589 0
M  V30 8681 O 844.626 3.3289 1.2674 0
M  V30 8682 O 843.485 5.01254 2.1773 0
M  V30 8683 H 840.579 0.743666 0.361786 0
M  V30 8684 H 843.125 1.697 -0.00206785 0
M  V30 8685 H 841.897 3.89927 0.327453 0
M  V30 8686 H 841.52 3.44692 1.98174 0
M  V30 8687 N 842.517 -0.29412 1.54831 0
M  V30 8688 C 843.763 -1.02999 1.74697 0
M  V30 8689 C 844.096 -1.86687 0.534949 0
M  V30 8690 O 843.371 -1.88789 -0.467863 0
M  V30 8691 C 843.654 -1.93024 3.03996 0
M  V30 8692 C 843.507 -1.1247 4.35512 0
M  V30 8693 C 844.826 -2.92085 3.29203 0
M  V30 8694 H 841.945 -0.373039 0.635618 0
M  V30 8695 H 844.587 -0.304065 1.87551 0
M  V30 8696 H 842.737 -2.5492 2.93169 0
M  V30 8697 H 844.409 -0.528067 4.58268 0
M  V30 8698 H 842.652 -0.427574 4.31688 0
M  V30 8699 H 843.323 -1.78728 5.22265 0
M  V30 8700 H 845.799 -2.40319 3.39685 0
M  V30 8701 H 844.675 -3.52234 4.20978 0
M  V30 8702 H 844.936 -3.66107 2.47827 0
M  V30 8703 N 843.995 -1.47404 -0.557645 0
M  V30 8704 C 845.22 -1.57868 -1.34508 0
M  V30 8705 C 845.645 -0.229151 -1.86699 0
M  V30 8706 O 845.003 0.794908 -1.62944 0
M  V30 8707 C 845.051 -2.60712 -2.49122 0
M  V30 8708 O 844.155 -2.15952 -3.51338 0
M  V30 8709 H 843.496 -0.530335 -0.399551 0
M  V30 8710 H 846.026 -1.93181 -0.673954 0
M  V30 8711 H 846.036 -2.81118 -2.95697 0
M  V30 8712 H 844.711 -3.58701 -2.10491 0
M  V30 8713 H 843.288 -2.05644 -3.11071 0
M  V30 8714 N 845.473 0.80434 -1.35529 0
M  V30 8715 C 846.421 1.93769 -1.28671 0
M  V30 8716 C 847.415 1.68428 -0.181222 0
M  V30 8717 O 848.621 1.76617 -0.347338 0
M  V30 8718 H 844.996 0.636663 -0.400206 0
M  V30 8719 H 846.967 1.96673 -2.24415 0
M  V30 8720 C 845.716 3.30572 -1.07784 0
M  V30 8721 H 845.039 3.5063 -1.9209 0
M  V30 8722 H 846.479 4.1027 -1.07027 0
M  V30 8723 C 844.938 3.36193 0.218213 0
M  V30 8724 O 845.468 3.82941 1.21323 0
M  V30 8725 N 843.674 2.89455 0.257761 0
M  V30 8726 H 843.221 2.51604 -0.552562 0
M  V30 8727 H 843.179 2.93597 1.12465 0
M  V30 8728 N 846.951 1.19563 1.02676 0
M  V30 8729 C 847.899 0.931942 2.13114 0
M  V30 8730 C 848.893 -0.113007 1.69023 0
M  V30 8731 O 850.099 0.0364298 1.79963 0
M  V30 8732 H 846.474 0.283981 0.696318 0
M  V30 8733 H 848.445 1.86991 2.32545 0
M  V30 8734 C 847.194 0.489461 3.44238 0
M  V30 8735 H 846.517 1.28508 3.78584 0
M  V30 8736 H 847.957 0.34408 4.22602 0
M  V30 8737 C 846.416 -0.796761 3.27343 0
M  V30 8738 O 846.946 -1.85767 3.56165 0
M  V30 8739 N 845.152 -0.754824 2.80626 0
M  V30 8740 H 844.699 0.108778 2.5737 0
M  V30 8741 H 844.657 -1.6158 2.69702 0
M  V30 8742 N 848.429 -1.21819 0.999893 0
M  V30 8743 C 849.675 -1.91035 0.680701 0
M  V30 8744 C 850.008 -1.77582 -0.786021 0
M  V30 8745 O 849.283 -1.14917 -1.56921 0
M  V30 8746 C 849.566 -3.43013 1.0961 0
M  V30 8747 C 849.419 -3.65481 2.6219 0
M  V30 8748 C 850.738 -4.35204 0.654616 0
M  V30 8749 H 847.857 -0.693748 0.248763 0
M  V30 8750 H 850.499 -1.43555 1.24466 0
M  V30 8751 H 848.649 -3.83581 0.616253 0
M  V30 8752 H 850.321 -3.34273 3.17899 0
M  V30 8753 H 848.564 -3.09522 3.03938 0
M  V30 8754 H 849.235 -4.71945 2.86307 0
M  V30 8755 H 851.711 -4.0219 1.06688 0
M  V30 8756 H 850.587 -5.40198 0.973492 0
M  V30 8757 H 850.848 -4.3986 -0.444458 0
M  V30 8758 N 849.908 -0.773975 -1.37286 0
M  V30 8759 C 851.138 -0.350249 -2.03609 0
M  V30 8760 C 851.546 1.03313 -1.58502 0
M  V30 8761 O 850.889 1.67118 -0.7627 0
M  V30 8762 C 850.951 -0.317215 -3.58098 0
M  V30 8763 C 850.615 -1.64556 -4.26345 0
M  V30 8764 C 851.612 -2.59839 -4.50311 0
M  V30 8765 C 849.297 -1.92061 -4.64131 0
M  V30 8766 C 851.291 -3.80833 -5.11122 0
M  V30 8767 C 848.978 -3.13325 -5.24663 0
M  V30 8768 C 849.976 -4.0753 -5.48095 0
M  V30 8769 O 849.664 -5.26658 -6.0736 0
M  V30 8770 H 849.396 -0.144456 -0.660385 0
M  V30 8771 H 851.95 -1.0496 -1.76557 0
M  V30 8772 H 850.18 0.438528 -3.84205 0
M  V30 8773 H 851.869 0.0797428 -4.05822 0
M  V30 8774 H 852.635 -2.39872 -4.21529 0
M  V30 8775 H 848.514 -1.19562 -4.45226 0
M  V30 8776 H 852.058 -4.54377 -5.29327 0
M  V30 8777 H 847.955 -3.33177 -5.52869 0
M  V30 8778 H 848.723 -5.27513 -6.25837 0
M  V30 8779 N 851.386 1.48609 -0.524698 0
M  V30 8780 C 852.616 2.06599 0.00741868 0
M  V30 8781 C 853.024 1.3823 1.29186 0
M  V30 8782 O 852.367 0.461962 1.77797 0
M  V30 8783 C 852.429 3.58184 0.307324 0
M  V30 8784 C 852.093 4.48391 -0.882864 0
M  V30 8785 C 853.09 4.88485 -1.77984 0
M  V30 8786 C 850.775 4.90367 -1.08837 0
M  V30 8787 C 852.769 5.69319 -2.86627 0
M  V30 8788 C 850.456 5.70972 -2.17794 0
M  V30 8789 C 851.454 6.10355 -3.06523 0
M  V30 8790 O 851.142 6.89343 -4.13596 0
M  V30 8791 H 850.874 0.675421 -0.0279846 0
M  V30 8792 H 853.428 1.92058 -0.7282 0
M  V30 8793 H 851.658 3.70818 1.09685 0
M  V30 8794 H 853.347 3.98318 0.780886 0
M  V30 8795 H 854.113 4.56682 -1.63299 0
M  V30 8796 H 849.992 4.592 -0.407035 0
M  V30 8797 H 853.536 5.99978 -3.55911 0
M  V30 8798 H 849.433 6.02188 -2.32465 0
M  V30 8799 H 850.201 7.07689 -4.1124 0
M  V30 8800 N 852.864 0.259585 1.55447 0
M  V30 8801 C 854.11 -0.362143 1.9954 0
M  V30 8802 C 854.443 -1.5666 1.14767 0
M  V30 8803 O 853.718 -1.93319 0.214025 0
M  V30 8804 C 854.001 -0.759588 3.51998 0
M  V30 8805 C 853.854 0.451134 4.47532 0
M  V30 8806 C 855.173 -1.60186 4.09913 0
M  V30 8807 H 852.292 -0.130157 0.725416 0
M  V30 8808 H 854.934 0.363431 1.86492 0
M  V30 8809 H 853.084 -1.3778 3.63248 0
M  V30 8810 H 854.756 1.08965 4.48246 0
M  V30 8811 H 852.999 1.092 4.19831 0
M  V30 8812 H 853.67 0.129518 5.51848 0
M  V30 8813 H 856.146 -1.0799 4.01842 0
M  V30 8814 H 855.022 -1.84879 5.16828 0
M  V30 8815 H 855.283 -2.57787 3.59163 0
M  V30 8816 N 854.342 -1.57594 -0.0133615 0
M  V30 8817 C 855.29 -2.08682 -1.02736 0
M  V30 8818 C 856.284 -1.00391 -1.36448 0
M  V30 8819 O 857.49 -1.18868 -1.35168 0
M  V30 8820 H 853.865 -0.666158 -0.34891 0
M  V30 8821 H 855.836 -2.9289 -0.570815 0
M  V30 8822 C 854.585 -2.5945 -2.31476 0
M  V30 8823 H 853.908 -3.42401 -2.06401 0
M  V30 8824 H 855.348 -2.98888 -3.00735 0
M  V30 8825 C 853.807 -1.50266 -3.01533 0
M  V30 8826 O 854.337 -0.877875 -3.9199 0
M  V30 8827 N 852.543 -1.23336 -2.63129 0
M  V30 8828 H 852.09 -1.74327 -1.89652 0
M  V30 8829 H 852.048 -0.504987 -3.10318 0
M  V30 8830 N 855.82 0.285905 -1.54985 0
M  V30 8831 C 857.066 1.02071 -1.75241 0
M  V30 8832 C 857.399 1.864 -0.544842 0
M  V30 8833 O 856.674 1.89034 0.457844 0
M  V30 8834 C 856.957 1.91409 -3.05016 0
M  V30 8835 C 856.81 1.10158 -4.36102 0
M  V30 8836 C 858.129 2.90335 -3.30747 0
M  V30 8837 H 855.248 0.369663 -0.637588 0
M  V30 8838 H 857.89 0.294114 -1.8771 0
M  V30 8839 H 856.04 2.53362 -2.94517 0
M  V30 8840 H 857.712 0.503756 -4.58541 0
M  V30 8841 H 855.955 0.404675 -4.31908 0
M  V30 8842 H 856.626 1.75956 -5.23205 0
M  V30 8843 H 859.102 2.38514 -3.40955 0
M  V30 8844 H 857.978 3.49997 -4.2284 0
M  V30 8845 H 858.239 3.64787 -2.49765 0
M  V30 8846 N 857.298 1.47698 0.54982 0
M  V30 8847 C 858.575 1.45185 1.31075 0
M  V30 8848 C 858.955 0.152768 2.10547 0
M  V30 8849 O 858.303 -0.865706 2.11466 0
M  V30 8850 C 858.513 2.70192 2.20902 0
M  V30 8851 C 859.861 3.1771 2.81683 0
M  V30 8852 O 860.885 2.70971 2.312 0
M  V30 8853 O 859.744 3.98986 3.7346 0
M  V30 8854 H 856.838 0.57892 0.590577 0
M  V30 8855 H 859.384 1.59908 0.568112 0
M  V30 8856 H 858.156 3.56269 1.61828 0
M  V30 8857 H 857.779 2.58091 3.02448 0
M  V30 8858 N 858.776 -0.797141 1.35954 0
M  V30 8859 C 859.706 -1.92387 1.32323 0
M  V30 8860 C 860.687 -1.68967 0.196007 0
M  V30 8861 O 861.872 -1.90193 0.39245 0
M  V30 8862 C 859.002 -3.29286 1.10398 0
M  V30 8863 C 857.956 -3.67212 2.19862 0
M  V30 8864 C 857.282 -5.02377 1.8309 0
M  V30 8865 C 858.582 -3.76602 3.61896 0
M  V30 8866 H 860.276 -1.95683 2.26602 0
M  V30 8867 H 857.822 -0.94007 1.09081 0
M  V30 8868 H 859.775 -4.07721 1.06495 0
M  V30 8869 H 858.499 -3.26358 0.125668 0
M  V30 8870 H 857.158 -2.91069 2.22878 0
M  V30 8871 H 856.806 -4.95961 0.838527 0
M  V30 8872 H 856.506 -5.28722 2.56372 0
M  V30 8873 H 858.03 -5.8324 1.80729 0
M  V30 8874 H 859.444 -4.45246 3.6115 0
M  V30 8875 H 857.841 -4.14425 4.34018 0
M  V30 8876 H 858.911 -2.77906 3.97361 0
M  V30 8877 N 860.254 -1.20106 -1.0204 0
M  V30 8878 C 861.482 -1.0344 -1.79186 0
M  V30 8879 C 861.897 0.416542 -1.84148 0
M  V30 8880 O 861.254 1.28925 -1.29168 0
M  V30 8881 C 861.305 -1.60663 -3.23836 0
M  V30 8882 O 861.026 -3.00079 -3.19193 0
M  V30 8883 C 862.527 -1.48897 -4.17546 0
M  V30 8884 H 859.747 -0.364093 -0.563629 0
M  V30 8885 H 862.291 -1.5911 -1.28469 0
M  V30 8886 H 860.446 -1.09122 -3.71714 0
M  V30 8887 H 860.86 -3.27162 -4.09958 0
M  V30 8888 H 862.334 -1.93703 -5.16898 0
M  V30 8889 H 862.811 -0.440843 -4.36982 0
M  V30 8890 H 863.417 -1.9961 -3.75547 0
M  V30 8891 N 861.732 1.21287 -1.00634 0
M  V30 8892 C 862.98 1.90013 -0.688438 0
M  V30 8893 C 863.301 1.78573 0.783365 0
M  V30 8894 O 862.571 1.1815 1.56261 0
M  V30 8895 H 861.151 0.703336 -0.251648 0
M  V30 8896 H 863.813 1.47346 -1.27574 0
M  V30 8897 H 862.909 2.96879 -0.962781 0
M  V30 8898 N 863.21 0.781244 1.36873 0
M  V30 8899 C 864.12 0.174981 2.33947 0
M  V30 8900 C 865.136 -0.668512 1.60645 0
M  V30 8901 O 866.312 -0.586213 1.9268 0
M  V30 8902 C 863.377 -0.686557 3.39834 0
M  V30 8903 C 862.438 0.174489 4.28945 0
M  V30 8904 C 861.671 -0.646024 5.29776 0
M  V30 8905 O 861.894 -1.88254 5.38439 0
M  V30 8906 O 860.828 -0.0502214 6.01879 0
M  V30 8907 H 864.654 0.977382 2.87543 0
M  V30 8908 H 862.239 0.542559 1.392 0
M  V30 8909 H 864.121 -1.1781 4.04597 0
M  V30 8910 H 862.796 -1.46699 2.8855 0
M  V30 8911 H 861.703 0.712604 3.6725 0
M  V30 8912 H 863.036 0.918232 4.83559 0
M  V30 8913 N 864.689 -1.48329 0.532571 0
M  V30 8914 C 865.637 -2.31336 -0.242133 0
M  V30 8915 C 866.631 -1.41391 -0.933006 0
M  V30 8916 O 867.837 -1.58284 -0.857096 0
M  V30 8917 H 864.212 -0.745724 -0.0969536 0
M  V30 8918 H 866.183 -2.94555 0.477504 0
M  V30 8919 C 864.932 -3.23501 -1.27446 0
M  V30 8920 H 864.255 -3.92659 -0.752261 0
M  V30 8921 H 865.695 -3.84461 -1.78789 0
M  V30 8922 C 864.154 -2.45288 -2.30944 0
M  V30 8923 O 864.684 -2.17955 -3.37429 0
M  V30 8924 N 862.89 -2.06737 -2.04226 0
M  V30 8925 H 862.437 -2.29166 -1.17647 0
M  V30 8926 H 862.395 -1.54719 -2.73696 0
M  V30 8927 N 866.167 -0.267825 -1.55308 0
M  V30 8928 C 867.416 0.351635 -1.98611 0
M  V30 8929 C 867.729 1.57522 -1.15957 0
M  V30 8930 O 868.935 2.26717 -1.49371 0
M  V30 8931 C 867.391 0.676986 -3.53475 0
M  V30 8932 C 866.999 -0.526385 -4.44897 0
M  V30 8933 C 868.743 1.25948 -4.05386 0
M  V30 8934 C 866.65 -0.176026 -5.91138 0
M  V30 8935 H 865.58 0.13516 -0.741787 0
M  V30 8936 H 868.231 -0.371333 -1.79704 0
M  V30 8937 H 866.613 1.45866 -3.68156 0
M  V30 8938 H 867.787 -1.30339 -4.41982 0
M  V30 8939 H 866.102 -1.02522 -4.03582 0
M  V30 8940 H 868.699 1.53529 -5.12184 0
M  V30 8941 H 869.042 2.19094 -3.53982 0
M  V30 8942 H 869.575 0.540253 -3.94114 0
M  V30 8943 H 866.314 -1.07518 -6.46622 0
M  V30 8944 H 865.834 0.564363 -5.97139 0
M  V30 8945 H 867.513 0.234365 -6.46575 0
M  V30 8946 N 867.645 1.57599 0.00500368 0
M  V30 8947 C 868.875 1.94344 0.700998 0
M  V30 8948 C 869.283 0.868011 1.68114 0
M  V30 8949 O 868.626 -0.16214 1.82983 0
M  V30 8950 C 868.688 3.27046 1.49268 0
M  V30 8951 C 868.352 4.51992 0.674684 0
M  V30 8952 C 869.349 5.19888 -0.0354833 0
M  V30 8953 C 867.034 4.98432 0.622129 0
M  V30 8954 C 869.028 6.3252 -0.787246 0
M  V30 8955 C 866.715 6.10954 -0.133362 0
M  V30 8956 C 867.713 6.77855 -0.836788 0
M  V30 8957 O 867.401 7.88221 -1.57996 0
M  V30 8958 H 867.133 0.645572 0.20053 0
M  V30 8959 H 869.687 2.0536 -0.040718 0
M  V30 8960 H 867.917 3.12424 2.27877 0
M  V30 8961 H 869.606 3.4894 2.07355 0
M  V30 8962 H 870.372 4.85 -0.00400159 0
M  V30 8963 H 866.251 4.46189 1.15917 0
M  V30 8964 H 869.795 6.84671 -1.33683 0
M  V30 8965 H 865.692 6.45285 -0.166682 0
M  V30 8966 H 866.46 8.0471 -1.49615 0
M  V30 8967 N 869.123 -0.277682 1.55134 0
M  V30 8968 C 870.534 -0.849063 1.66276 0
M  V30 8969 C 870.885 -1.87223 0.5867 0
M  V30 8970 O 870.01 -2.14676 -0.272635 0
M  V30 8971 C 870.605 -1.54681 3.01429 0
M  V30 8972 C 869.164 -2.06628 3.14614 0
M  V30 8973 C 868.311 -0.906748 2.62056 0
M  V30 8974 H 871.262 -0.0541357 1.58608 0
M  V30 8975 H 871.283 -2.41356 2.94156 0
M  V30 8976 H 870.795 -0.80189 3.79725 0
M  V30 8977 H 868.896 -2.84095 2.41082 0
M  V30 8978 H 869.009 -2.2848 4.2111 0
M  V30 8979 H 867.373 -1.29882 2.19095 0
M  V30 8980 H 868.156 -0.175414 3.42852 0
M  V30 8981 N 870.601 -1.47988 -0.541979 0
M  V30 8982 C 871.849 -1.55086 -1.29587 0
M  V30 8983 C 872.17 -0.221304 -1.9374 0
M  V30 8984 O 871.44 0.756128 -1.80719 0
M  V30 8985 H 870.02 -0.571307 -0.481266 0
M  V30 8986 H 872.682 -1.8438 -0.631675 0
M  V30 8987 H 871.778 -2.32556 -2.08144 0
M  V30 8988 N 872.079 0.78992 -1.36375 0
M  V30 8989 C 873.327 1.54472 -1.30319 0
M  V30 8990 C 873.648 1.94647 0.117338 0
M  V30 8991 O 872.918 1.64906 1.05748 0
M  V30 8992 H 871.498 0.572879 -0.479394 0
M  V30 8993 H 874.16 0.941245 -1.70665 0
M  V30 8994 H 873.256 2.45252 -1.93024 0
M  V30 8995 N 873.557 1.20646 1.01402 0
M  V30 8996 C 874.489 0.915392 2.10127 0
M  V30 8997 C 875.502 -0.0978705 1.62506 0
M  V30 8998 O 876.691 0.133477 1.78 0
M  V30 8999 C 873.791 0.351304 3.37074 0
M  V30 9000 C 872.964 1.41673 4.13821 0
M  V30 9001 C 872.023 0.8635 5.19067 0
M  V30 9002 O 871.049 1.54481 5.47836 0
M  V30 9003 N 872.251 -0.325799 5.79585 0
M  V30 9004 H 875.016 1.85132 2.35682 0
M  V30 9005 H 872.577 1.11048 1.17813 0
M  V30 9006 H 874.569 -0.032996 4.04687 0
M  V30 9007 H 873.139 -0.489242 3.08748 0
M  V30 9008 H 872.359 1.97526 3.41141 0
M  V30 9009 H 873.647 2.1342 4.61876 0
M  V30 9010 H 873.045 -0.896534 5.58551 0
M  V30 9011 H 871.602 -0.651708 6.48534 0
M  V30 9012 N 875.035 -1.20752 1.01276 0
M  V30 9013 C 876.26 -1.94547 0.718769 0
M  V30 9014 C 876.685 -1.7404 -0.713563 0
M  V30 9015 O 876.043 -1.03221 -1.49047 0
M  V30 9016 C 876.091 -3.44823 1.05497 0
M  V30 9017 O 875.195 -4.12072 0.164516 0
M  V30 9018 H 874.536 -0.607931 0.267051 0
M  V30 9019 H 877.066 -1.53292 1.35509 0
M  V30 9020 H 877.076 -3.95427 1.00507 0
M  V30 9021 H 875.751 -3.59072 2.09858 0
M  V30 9022 H 874.328 -3.71909 0.271615 0
M  V30 9023 N 876.513 -0.788492 -1.36457 0
M  V30 9024 C 877.476 -0.192209 -2.28393 0
M  V30 9025 C 878.476 0.609916 -1.48784 0
M  V30 9026 O 879.666 0.431046 -1.68783 0
M  V30 9027 C 876.798 0.734096 -3.32902 0
M  V30 9028 H 877.991 -1.00284 -2.82636 0
M  V30 9029 H 875.544 -0.557852 -1.46006 0
M  V30 9030 H 876.279 1.5691 -2.83813 0
M  V30 9031 H 876.064 0.160875 -3.9177 0
M  V30 9032 H 877.554 1.1462 -4.01562 0
M  V30 9033 N 877.991 1.48044 -0.54043 0
M  V30 9034 C 879.231 2.04396 -0.012296 0
M  V30 9035 C 879.595 1.40748 1.30591 0
M  V30 9036 O 880.796 1.88048 1.92072 0
M  V30 9037 C 879.067 3.5727 0.0964302 0
M  V30 9038 S 880.626 4.35041 0.573117 0
M  V30 9039 H 877.444 0.710795 -0.0170735 0
M  V30 9040 H 880.046 1.81625 -0.723362 0
M  V30 9041 H 878.75 4.01124 -0.86762 0
M  V30 9042 H 878.281 3.84511 0.83156 0
M  V30 9043 H 880.296 4.6099 1.83583 0
M  V30 9044 N 879.47 0.276058 1.55163 0
M  V30 9045 C 880.886 -0.0780579 1.59409 0
M  V30 9046 C 881.086 -1.54521 1.29327 0
M  V30 9047 O 880.142 -2.29422 1.05459 0
M  V30 9048 C 881.455 0.297422 2.99225 0
M  V30 9049 C 883.003 0.244117 3.12047 0
M  V30 9050 C 883.478 0.594051 4.54131 0
M  V30 9051 N 884.969 0.54564 4.59975 0
M  V30 9052 C 885.704 0.789192 5.67943 0
M  V30 9053 N 885.2 1.09741 6.84053 0
M  V30 9054 N 886.993 0.717926 5.57496 0
M  V30 9055 H 879.144 1.23251 1.72982 0
M  V30 9056 H 881.407 0.497988 0.806667 0
M  V30 9057 H 881.113 1.31782 3.26077 0
M  V30 9058 H 880.987 -0.361286 3.75466 0
M  V30 9059 H 883.374 -0.766992 2.84958 0
M  V30 9060 H 883.455 0.937097 2.38017 0
M  V30 9061 H 883.099 1.60285 4.81945 0
M  V30 9062 H 883.029 -0.120728 5.26462 0
M  V30 9063 H 885.52 0.317334 3.76565 0
M  V30 9064 H 885.833 1.26989 7.62295 0
M  V30 9065 H 884.178 1.13519 6.85666 0
M  V30 9066 H 887.369 0.47697 4.65664 0
M  V30 9067 H 887.542 0.911118 6.41563 0
M  V30 9068 N 880.948 -1.576 0.00335426 0
M  V30 9069 C 882.364 -1.55653 -0.352766 0
M  V30 9070 C 882.564 -1.00632 -1.74572 0
M  V30 9071 O 881.62 -0.641621 -2.44212 0
M  V30 9072 C 882.933 -2.99858 -0.224929 0
M  V30 9073 C 884.481 -3.11563 -0.299619 0
M  V30 9074 C 884.956 -4.57559 -0.200868 0
M  V30 9075 N 886.447 -4.62477 -0.258663 0
M  V30 9076 C 887.182 -5.73031 -0.205644 0
M  V30 9077 N 886.678 -6.92723 -0.103027 0
M  V30 9078 N 888.471 -5.61509 -0.257754 0
M  V30 9079 H 880.622 -1.91703 0.914539 0
M  V30 9080 H 882.885 -0.88068 0.350865 0
M  V30 9081 H 882.591 -3.43964 0.733595 0
M  V30 9082 H 882.465 -3.63547 -1.00564 0
M  V30 9083 H 884.852 -2.67384 -1.24859 0
M  V30 9084 H 884.933 -2.50644 0.511025 0
M  V30 9085 H 884.577 -5.02413 0.744572 0
M  V30 9086 H 884.507 -5.16428 -1.03004 0
M  V30 9087 H 886.998 -3.76375 -0.339168 0
M  V30 9088 H 887.311 -7.7277 -0.0685593 0
M  V30 9089 H 885.656 -6.94966 -0.0686069 0
M  V30 9090 H 888.847 -4.66892 -0.336142 0
M  V30 9091 H 889.02 -6.4765 -0.21297 0
M  V30 9092 N 882.426 0.269451 -1.5528 0
M  V30 9093 C 883.336 1.35511 -1.91505 0
M  V30 9094 C 884.352 1.53854 -0.812712 0
M  V30 9095 O 885.528 1.67912 -1.1121 0
M  V30 9096 C 882.593 2.6937 -2.18267 0
M  V30 9097 C 881.654 2.59743 -3.41807 0
M  V30 9098 C 880.887 3.87219 -3.67283 0
M  V30 9099 O 881.11 4.88066 -2.95208 0
M  V30 9100 O 880.044 3.87209 -4.60818 0
M  V30 9101 H 883.87 1.07785 -2.8393 0
M  V30 9102 H 881.455 0.468282 -1.41871 0
M  V30 9103 H 883.337 3.48513 -2.36889 0
M  V30 9104 H 882.012 2.96874 -1.29024 0
M  V30 9105 H 880.919 1.78964 -3.28516 0
M  V30 9106 H 882.252 2.37188 -4.3128 0
M  V30 9107 N 883.904 1.48273 0.534124 0
M  V30 9108 C 885.15 1.56311 1.29208 0
M  V30 9109 C 885.483 0.234481 1.92779 0
M  V30 9110 O 884.758 -0.759143 1.79073 0
M  V30 9111 C 885.041 2.69831 2.3846 0
M  V30 9112 C 884.894 4.12385 1.79608 0
M  V30 9113 C 886.213 2.79133 3.40254 0
M  V30 9114 H 883.332 0.56899 0.468422 0
M  V30 9115 H 885.974 1.80429 0.595438 0
M  V30 9116 H 884.124 2.49397 2.97881 0
M  V30 9117 H 885.796 4.44246 1.24269 0
M  V30 9118 H 884.039 4.19579 1.10162 0
M  V30 9119 H 884.71 4.87629 2.58693 0
M  V30 9120 H 887.186 2.97632 2.90783 0
M  V30 9121 H 886.062 3.60298 4.14097 0
M  V30 9122 H 886.323 1.87122 4.00547 0
M  V30 9123 N 885.382 -0.782676 1.36792 0
M  V30 9124 C 886.314 -1.9044 1.27536 0
M  V30 9125 C 887.327 -1.61647 0.193426 0
M  V30 9126 O 888.516 -1.72769 0.448692 0
M  V30 9127 C 885.616 -3.2541 0.946641 0
M  V30 9128 C 884.789 -3.81932 2.13183 0
M  V30 9129 C 883.848 -4.95355 1.7751 0
M  V30 9130 O 882.874 -5.11517 2.49678 0
M  V30 9131 N 884.076 -5.76108 0.712755 0
M  V30 9132 H 886.841 -1.98899 2.24186 0
M  V30 9133 H 884.402 -0.96127 1.30274 0
M  V30 9134 H 886.394 -3.98791 0.689043 0
M  V30 9135 H 884.964 -3.12524 0.0690591 0
M  V30 9136 H 884.184 -3.00459 2.55183 0
M  V30 9137 H 885.472 -4.16426 2.92347 0
M  V30 9138 H 884.87 -5.65586 0.113662 0
M  V30 9139 H 883.427 -6.49762 0.514995 0
M  V30 9140 N 886.86 -1.21182 -1.00761 0
M  V30 9141 C 888.107 -1.02746 -1.74498 0
M  V30 9142 C 888.435 0.439344 -1.89473 0
M  V30 9143 O 887.69 1.34232 -1.42409 0
M  V30 9144 C 887.989 -1.6667 -3.16158 0
M  V30 9145 C 887.655 -3.16515 -3.21137 0
M  V30 9146 C 886.317 -3.57405 -3.22203 0
M  V30 9147 C 888.669 -4.12495 -3.18587 0
M  V30 9148 C 885.997 -4.92786 -3.18401 0
M  V30 9149 C 888.349 -5.47833 -3.16326 0
M  V30 9150 C 887.013 -5.88124 -3.157 0
M  V30 9151 H 886.283 -0.375974 -0.638533 0
M  V30 9152 H 888.93 -1.50736 -1.18114 0
M  V30 9153 H 887.235 -1.10966 -3.75758 0
M  V30 9154 H 888.932 -1.49911 -3.71924 0
M  V30 9155 H 885.522 -2.83947 -3.21048 0
M  V30 9156 H 889.706 -3.81932 -3.16925 0
M  V30 9157 H 884.962 -5.23253 -3.16253 0
M  V30 9158 H 889.136 -6.21942 -3.13306 0
M  V30 9159 H 886.763 -6.92995 -3.12508 0
M  V30 9160 N 888.338 1.20213 -1.01915 0
M  V30 9161 C 889.754 1.41696 -0.734459 0
M  V30 9162 C 889.954 1.89504 0.684867 0
M  V30 9163 O 889.01 2.06556 1.45227 0
M  V30 9164 C 890.323 2.43644 -1.76233 0
M  V30 9165 C 891.871 2.57406 -1.78076 0
M  V30 9166 C 892.346 3.626 -2.79796 0
M  V30 9167 N 893.837 3.70086 -2.78551 0
M  V30 9168 C 894.572 4.51145 -3.53915 0
M  V30 9169 N 894.068 5.35988 -4.38963 0
M  V30 9170 N 895.861 4.45702 -3.425 0
M  V30 9171 H 888.012 0.874976 -1.93541 0
M  V30 9172 H 890.275 0.446647 -0.836188 0
M  V30 9173 H 889.981 2.15519 -2.77929 0
M  V30 9174 H 889.855 3.42672 -1.57657 0
M  V30 9175 H 892.242 2.8486 -0.770634 0
M  V30 9176 H 892.323 1.58565 -2.00725 0
M  V30 9177 H 891.967 3.35889 -3.80973 0
M  V30 9178 H 891.897 4.61069 -2.54407 0
M  V30 9179 H 894.388 3.09484 -2.1686 0
M  V30 9180 H 894.701 5.94932 -4.9323 0
M  V30 9181 H 893.046 5.35482 -4.4304 0
M  V30 9182 H 896.237 3.78456 -2.75478 0
M  V30 9183 H 896.41 5.08637 -4.01487 0
M  V30 9184 N 889.816 0.795718 1.36037 0
M  V30 9185 C 891.065 0.367575 1.98322 0
M  V30 9186 C 891.378 -1.06823 1.63854 0
M  V30 9187 O 892.584 -1.59895 2.19421 0
M  V30 9188 C 891.04 0.606272 3.54757 0
M  V30 9189 C 890.648 2.0539 3.98144 0
M  V30 9190 C 892.392 0.242947 4.23804 0
M  V30 9191 C 890.299 2.23893 5.47381 0
M  V30 9192 H 889.229 0.133699 0.742052 0
M  V30 9193 H 891.88 0.978242 1.5525 0
M  V30 9194 H 890.262 -0.0741957 3.9593 0
M  V30 9195 H 891.436 2.77129 3.68152 0
M  V30 9196 H 889.751 2.37607 3.41953 0
M  V30 9197 H 892.348 0.359382 5.33491 0
M  V30 9198 H 892.691 -0.809661 4.08351 0
M  V30 9199 H 893.224 0.876899 3.88015 0
M  V30 9200 H 889.963 3.27559 5.6779 0
M  V30 9201 H 889.483 1.56666 5.78978 0
M  V30 9202 H 891.162 2.04914 6.13693 0
M  V30 9203 N 891.294 -1.47756 0.548274 0
M  V30 9204 C 892.257 -2.28379 -0.193857 0
M  V30 9205 C 893.257 -1.36436 -0.850986 0
M  V30 9206 O 894.447 -1.59154 -0.70822 0
M  V30 9207 C 891.579 -3.15858 -1.28243 0
M  V30 9208 H 892.772 -2.95458 0.514231 0
M  V30 9209 H 890.325 -1.53298 0.304879 0
M  V30 9210 H 891.06 -2.5345 -2.0232 0
M  V30 9211 H 890.845 -3.83512 -0.816148 0
M  V30 9212 H 892.335 -3.76627 -1.80393 0
M  V30 9213 N 892.772 -0.284283 -1.55015 0
M  V30 9214 C 893.735 0.586182 -2.21577 0
M  V30 9215 C 894.735 1.07427 -1.1965 0
M  V30 9216 O 895.925 0.972977 -1.44495 0
M  V30 9217 C 893.057 1.80973 -2.88897 0
M  V30 9218 H 894.25 0.00487253 -2.999 0
M  V30 9219 H 891.803 -0.0349696 -1.56261 0
M  V30 9220 H 892.538 2.43131 -2.14611 0
M  V30 9221 H 892.323 1.46757 -3.636 0
M  V30 9222 H 893.813 2.42853 -3.39724 0
M  V30 9223 N 894.251 1.57596 -0.0117121 0
M  V30 9224 C 895.662 1.79033 0.529521 0
M  V30 9225 C 896.013 0.920299 1.73277 0
M  V30 9226 O 895.138 0.125934 2.16033 0
M  V30 9227 C 895.733 3.24695 0.967405 0
M  V30 9228 C 894.292 3.47188 1.45387 0
M  V30 9229 C 893.439 2.74245 0.410466 0
M  V30 9230 H 896.39 1.56908 -0.237836 0
M  V30 9231 H 896.411 3.33451 1.83278 0
M  V30 9232 H 895.923 3.87992 0.0914605 0
M  V30 9233 H 894.024 2.89121 2.35032 0
M  V30 9234 H 894.137 4.55886 1.47325 0
M  V30 9235 H 892.501 2.39209 0.874721 0
M  V30 9236 H 893.284 3.40248 -0.456713 0
M  V30 9237 N 895.729 -0.261212 1.5542 0
M  V30 9238 C 896.661 -1.34571 1.85535 0
M  V30 9239 C 897.674 -1.44979 0.740612 0
M  V30 9240 O 898.863 -1.46584 1.01859 0
M  V30 9241 C 895.963 -2.7258 2.01378 0
M  V30 9242 C 895.136 -2.84618 3.32131 0
M  V30 9243 C 894.195 -4.03379 3.37893 0
M  V30 9244 O 893.221 -3.93581 4.11197 0
M  V30 9245 N 894.423 -5.15893 2.66148 0
M  V30 9246 H 897.188 -1.09078 2.79145 0
M  V30 9247 H 894.749 -0.451327 1.55482 0
M  V30 9248 H 896.741 -3.50342 2.0259 0
M  V30 9249 H 895.311 -2.90844 1.14579 0
M  V30 9250 H 894.531 -1.93647 3.43358 0
M  V30 9251 H 895.819 -2.896 4.18341 0
M  V30 9252 H 895.217 -5.26743 2.06297 0
M  V30 9253 H 893.774 -5.91842 2.73069 0
M  V30 9254 N 897.207 -1.48554 -0.526253 0
M  V30 9255 C 898.455 -1.56452 -1.27935 0
M  V30 9256 C 898.776 -0.24184 -1.93495 0
M  V30 9257 O 898.046 0.736917 -1.81511 0
M  V30 9258 H 896.626 -0.576379 -0.47518 0
M  V30 9259 H 899.288 -1.85039 -0.612083 0
M  V30 9260 H 898.384 -2.34751 -2.05666 0
M  V30 9261 N 898.685 0.775411 -1.37205 0
M  V30 9262 C 899.913 1.56446 -1.35397 0
M  V30 9263 C 900.328 1.887 0.0615437 0
M  V30 9264 O 899.685 1.51178 1.02233 0
M  V30 9265 C 899.736 2.87697 -2.18889 0
M  V30 9266 O 899.457 2.56828 -3.54924 0
M  V30 9267 C 900.958 3.81944 -2.25019 0
M  V30 9268 H 898.178 0.484792 -0.463916 0
M  V30 9269 H 900.722 0.961346 -1.80495 0
M  V30 9270 H 898.877 3.44442 -1.7731 0
M  V30 9271 H 899.291 3.40851 -3.98649 0
M  V30 9272 H 900.765 4.71055 -2.87769 0
M  V30 9273 H 901.242 4.20811 -1.25757 0
M  V30 9274 H 901.848 3.3113 -2.66895 0
M  V30 9275 N 900.163 1.21714 1.00117 0
M  V30 9276 C 901.391 1.06278 1.77518 0
M  V30 9277 C 901.806 -0.387193 1.84787 0
M  V30 9278 O 901.163 -1.26854 1.31203 0
M  V30 9279 C 901.214 1.65795 3.21239 0
M  V30 9280 O 900.935 3.05119 3.14378 0
M  V30 9281 C 902.436 1.55521 4.15124 0
M  V30 9282 H 899.656 0.373013 0.557765 0
M  V30 9283 H 902.2 1.61133 1.25922 0
M  V30 9284 H 900.355 1.15022 3.69931 0
M  V30 9285 H 900.769 3.33643 4.04701 0
M  V30 9286 H 902.243 2.01902 5.13751 0
M  V30 9287 H 902.72 0.510307 4.36225 0
M  V30 9288 H 903.326 2.0556 3.72324 0
M  V30 9289 N 901.641 -1.19671 1.02551 0
M  V30 9290 C 902.871 -1.92952 0.738441 0
M  V30 9291 C 903.279 -1.75528 -0.706155 0
M  V30 9292 O 902.622 -1.0723 -1.49156 0
M  V30 9293 C 902.684 -3.45149 1.00562 0
M  V30 9294 C 902.348 -3.86341 2.44109 0
M  V30 9295 C 903.345 -3.91374 3.42231 0
M  V30 9296 C 901.03 -4.18076 2.7842 0
M  V30 9297 C 903.024 -4.27568 4.7272 0
M  V30 9298 C 900.711 -4.53943 4.0912 0
M  V30 9299 C 901.709 -4.58663 5.06081 0
M  V30 9300 O 901.397 -4.93701 6.3444 0
M  V30 9301 H 901.129 -0.619836 0.269776 0
M  V30 9302 H 903.683 -1.52852 1.37206 0
M  V30 9303 H 901.913 -3.85416 0.314849 0
M  V30 9304 H 903.602 -3.99664 0.708742 0
M  V30 9305 H 904.368 -3.67011 3.17061 0
M  V30 9306 H 900.247 -4.13589 2.03631 0
M  V30 9307 H 903.791 -4.31166 5.48399 0
M  V30 9308 H 899.688 -4.77764 4.34064 0
M  V30 9309 H 900.456 -5.11662 6.38862 0
M  V30 9310 N 903.119 -0.802921 -1.35613 0
M  V30 9311 C 904.365 -0.391259 -1.99601 0
M  V30 9312 C 904.72 1.02922 -1.62557 0
M  V30 9313 O 904.013 1.70357 -0.876878 0
M  V30 9314 C 904.207 -0.507806 -3.53774 0
M  V30 9315 C 904.036 -1.93807 -4.05794 0
M  V30 9316 C 902.806 -2.56564 -4.3532 0
M  V30 9317 C 905.004 -2.90211 -4.24596 0
M  V30 9318 N 902.986 -3.91038 -4.73247 0
M  V30 9319 C 904.357 -4.09548 -4.65479 0
M  V30 9320 C 906.412 -2.87091 -4.06796 0
M  V30 9321 C 905.115 -5.26191 -4.90424 0
M  V30 9322 C 907.141 -4.02933 -4.32896 0
M  V30 9323 C 906.503 -5.21017 -4.74047 0
M  V30 9324 H 902.602 -0.190867 -0.758349 0
M  V30 9325 H 905.186 -1.04338 -1.64382 0
M  V30 9326 H 903.357 0.114306 -3.88232 0
M  V30 9327 H 905.089 -0.0710855 -4.04638 0
M  V30 9328 H 901.844 -2.07945 -4.25507 0
M  V30 9329 H 902.268 -4.60262 -4.96475 0
M  V30 9330 H 906.91 -1.96951 -3.74126 0
M  V30 9331 H 904.628 -6.16906 -5.2197 0
M  V30 9332 H 908.214 -4.01895 -4.2068 0
M  V30 9333 H 907.094 -6.09165 -4.93849 0
M  V30 9334 N 904.597 1.47463 -0.556102 0
M  V30 9335 C 905.545 2.31692 0.205299 0
M  V30 9336 C 906.539 1.42857 0.910394 0
M  V30 9337 O 907.745 1.59628 0.831806 0
M  V30 9338 H 904.12 0.747172 0.0850775 0
M  V30 9339 H 906.091 2.93758 -0.524305 0
M  V30 9340 C 904.84 3.25487 1.22283 0
M  V30 9341 H 904.163 3.93806 0.689697 0
M  V30 9342 H 905.603 3.87257 1.7265 0
M  V30 9343 C 904.062 2.48931 2.27013 0
M  V30 9344 O 904.592 2.23296 3.33919 0
M  V30 9345 N 902.798 2.0996 2.00911 0
M  V30 9346 H 902.345 2.31008 1.13986 0
M  V30 9347 H 902.303 1.59053 2.712 0
M  V30 9348 N 906.075 0.2925 1.54862 0
M  V30 9349 C 907.486 -0.201841 1.85606 0
M  V30 9350 C 907.837 -1.54093 1.21449 0
M  V30 9351 O 906.962 -2.10327 0.509079 0
M  V30 9352 C 907.557 -0.373011 3.3674 0
M  V30 9353 C 906.116 -0.811574 3.67547 0
M  V30 9354 C 905.263 0.0850583 2.7717 0
M  V30 9355 H 908.214 0.513774 1.50153 0
M  V30 9356 H 908.235 -1.20892 3.60785 0
M  V30 9357 H 907.747 0.601751 3.83407 0
M  V30 9358 H 905.848 -1.79719 3.26392 0
M  V30 9359 H 905.961 -0.636853 4.74848 0
M  V30 9360 H 904.325 -0.434224 2.50971 0
M  V30 9361 H 905.108 1.05602 3.26654 0
M  V30 9362 N 907.553 -1.57587 0.0200696 0
M  V30 9363 C 908.5 -2.09667 -0.964791 0
M  V30 9364 C 909.47 -0.99664 -1.32877 0
M  V30 9365 O 910.655 -1.2703 -1.42366 0
M  V30 9366 C 907.795 -2.62101 -2.24493 0
M  V30 9367 C 906.908 -3.8608 -1.93821 0
M  V30 9368 C 906.043 -4.26939 -3.16064 0
M  V30 9369 C 905.082 -5.43701 -2.81169 0
M  V30 9370 N 904.219 -5.79759 -3.9601 0
M  V30 9371 H 909.059 -2.93538 -0.513751 0
M  V30 9372 H 906.596 -1.45096 -0.242 0
M  V30 9373 H 908.554 -2.90587 -2.99358 0
M  V30 9374 H 907.184 -1.81074 -2.6723 0
M  V30 9375 H 906.236 -3.64378 -1.09237 0
M  V30 9376 H 907.548 -4.71028 -1.64115 0
M  V30 9377 H 906.702 -4.56814 -3.99257 0
M  V30 9378 H 905.441 -3.40739 -3.48924 0
M  V30 9379 H 904.446 -5.13529 -1.96387 0
M  V30 9380 H 905.671 -6.31593 -2.49535 0
M  V30 9381 H 903.617 -4.96516 -4.28729 0
M  V30 9382 H 903.534 -6.59327 -3.69896 0
M  V30 9383 H 904.802 -6.14235 -4.79933 0
M  V30 9384 N 909.032 0.252966 -1.55557 0
M  V30 9385 C 909.98 1.33289 -1.90622 0
M  V30 9386 C 910.974 1.50133 -0.784638 0
M  V30 9387 O 912.18 1.51679 -0.969196 0
M  V30 9388 H 908.555 0.446196 -0.605321 0
M  V30 9389 H 910.526 1.00977 -2.80796 0
M  V30 9390 C 909.275 2.68254 -2.21213 0
M  V30 9391 H 908.598 2.5609 -3.07014 0
M  V30 9392 H 910.038 3.42707 -2.49656 0
M  V30 9393 C 908.497 3.20884 -1.02642 0
M  V30 9394 O 909.027 4.00783 -0.271292 0
M  V30 9395 N 907.233 2.7883 -0.818682 0
M  V30 9396 H 906.78 2.13966 -1.43444 0
M  V30 9397 H 906.738 3.14388 -0.0269989 0
M  V30 9398 N 910.51 1.48831 0.518367 0
M  V30 9399 C 911.787 1.47933 1.27966 0
M  V30 9400 C 912.167 0.197393 2.10175 0
M  V30 9401 O 911.515 -0.820656 2.13255 0
M  V30 9402 C 911.725 2.74816 2.15121 0
M  V30 9403 C 913.073 3.23613 2.74881 0
M  V30 9404 O 914.097 2.75814 2.254 0
M  V30 9405 O 912.956 4.06818 3.64913 0
M  V30 9406 H 910.05 0.591316 0.578164 0
M  V30 9407 H 912.596 1.61077 0.534065 0
M  V30 9408 H 911.368 3.59621 1.54234 0
M  V30 9409 H 910.991 2.64449 2.96905 0
M  V30 9410 N 911.988 -0.768124 1.37614 0
M  V30 9411 C 913.235 -1.5268 1.33022 0
M  V30 9412 C 913.563 -1.94318 -0.0841918 0
M  V30 9413 O 912.818 -1.64623 -1.0582 0
M  V30 9414 C 913.117 -2.80204 2.21856 0
M  V30 9415 C 912.783 -2.57602 3.7007 0
M  V30 9416 C 911.445 -2.51146 4.10462 0
M  V30 9417 C 913.797 -2.37482 4.63952 0
M  V30 9418 C 911.125 -2.22566 5.42846 0
M  V30 9419 C 913.477 -2.10425 5.96577 0
M  V30 9420 C 912.141 -2.02416 6.36069 0
M  V30 9421 H 911.411 -0.558697 0.486763 0
M  V30 9422 H 914.058 -0.88447 1.69851 0
M  V30 9423 H 912.363 -3.49014 1.78034 0
M  V30 9424 H 914.06 -3.38099 2.15615 0
M  V30 9425 H 910.65 -2.63491 3.38039 0
M  V30 9426 H 914.834 -2.41457 4.33604 0
M  V30 9427 H 910.09 -2.14863 5.72402 0
M  V30 9428 H 914.264 -1.93857 6.68874 0
M  V30 9429 H 911.891 -1.80034 7.38574 0
M  V30 9430 N 913.466 -1.22244 -0.994698 0
M  V30 9431 C 914.691 -1.07299 -1.77487 0
M  V30 9432 C 915.116 0.372302 -1.84379 0
M  V30 9433 O 914.474 1.2689 -1.29494 0
M  V30 9434 C 914.522 -1.68675 -3.18718 0
M  V30 9435 O 913.626 -0.939202 -4.01563 0
M  V30 9436 H 912.967 -0.376979 -0.546611 0
M  V30 9437 H 915.497 -1.62003 -1.24965 0
M  V30 9438 H 915.507 -1.73324 -3.69354 0
M  V30 9439 H 914.182 -2.73849 -3.13017 0
M  V30 9440 H 912.759 -0.968583 -3.60101 0
M  V30 9441 N 914.944 1.19125 -1.03184 0
M  V30 9442 C 916.174 1.92558 -0.748663 0
M  V30 9443 C 916.582 1.759 0.696837 0
M  V30 9444 O 915.925 1.08019 1.48585 0
M  V30 9445 C 915.987 3.4461 -1.02391 0
M  V30 9446 C 915.651 3.85041 -2.46155 0
M  V30 9447 C 916.648 3.89554 -3.44302 0
M  V30 9448 C 914.333 4.16594 -2.80633 0
M  V30 9449 C 916.327 4.25055 -4.74981 0
M  V30 9450 C 914.014 4.51767 -4.11521 0
M  V30 9451 C 915.012 4.55972 -5.08506 0
M  V30 9452 O 914.7 4.9033 -6.37049 0
M  V30 9453 H 914.432 0.618397 -0.273059 0
M  V30 9454 H 916.986 1.52122 -1.38015 0
M  V30 9455 H 915.216 3.85244 -0.335284 0
M  V30 9456 H 916.905 3.99283 -0.729927 0
M  V30 9457 H 917.671 3.65324 -3.19003 0
M  V30 9458 H 913.55 4.12503 -2.05821 0
M  V30 9459 H 917.094 4.28252 -5.50678 0
M  V30 9460 H 912.991 4.75455 -4.36592 0
M  V30 9461 H 913.759 5.08266 -6.41566 0
M  V30 9462 N 916.422 0.810101 1.35185 0
M  V30 9463 C 917.699 0.315235 1.93043 0
M  V30 9464 C 918.079 -1.19567 1.73974 0
M  V30 9465 O 917.427 -1.99682 1.11083 0
M  V30 9466 C 917.637 0.730492 3.41269 0
M  V30 9467 C 918.985 0.721985 4.18417 0
M  V30 9468 O 920.009 0.672258 3.49799 0
M  V30 9469 O 918.868 0.783535 5.40854 0
M  V30 9470 H 915.962 0.0832774 0.822796 0
M  V30 9471 H 918.508 0.894034 1.4424 0
M  V30 9472 H 917.28 1.77169 3.48894 0
M  V30 9473 H 916.903 0.12669 3.97398 0
M  V30 9474 N 917.9 -1.47166 0.563914 0
M  V30 9475 C 919.148 -2.02056 0.0422873 0
M  V30 9476 C 919.469 -1.43992 -1.31497 0
M  V30 9477 O 918.739 -0.617578 -1.85911 0
M  V30 9478 H 917.319 -0.746893 0.0126427 0
M  V30 9479 H 919.981 -1.80492 0.735441 0
M  V30 9480 H 919.077 -3.12073 -0.0408044 0
M  V30 9481 N 919.378 -0.300708 -1.54705 0
M  V30 9482 C 920.308 0.568675 -2.26469 0
M  V30 9483 C 921.289 1.13817 -1.26411 0
M  V30 9484 O 922.474 1.16756 -1.55183 0
M  V30 9485 C 919.604 1.74077 -3.00524 0
M  V30 9486 C 918.558 1.30165 -4.07727 0
M  V30 9487 C 917.884 2.55888 -4.69495 0
M  V30 9488 C 919.184 0.433106 -5.20501 0
M  V30 9489 H 920.878 -0.0298851 -2.99385 0
M  V30 9490 H 918.424 -0.0158135 -1.43991 0
M  V30 9491 H 920.377 2.35506 -3.49449 0
M  V30 9492 H 919.101 2.36556 -2.25186 0
M  V30 9493 H 917.76 0.710414 -3.59651 0
M  V30 9494 H 917.408 3.16681 -3.90797 0
M  V30 9495 H 917.108 2.27207 -5.41895 0
M  V30 9496 H 918.632 3.18121 -5.21183 0
M  V30 9497 H 920.046 0.95307 -5.65322 0
M  V30 9498 H 918.443 0.240085 -5.9962 0
M  V30 9499 H 919.513 -0.541866 -4.81863 0
M  V30 9500 N 920.856 1.57574 -0.0284266 0
M  V30 9501 C 922.267 1.79585 0.510502 0
M  V30 9502 C 922.618 0.938625 1.72291 0
M  V30 9503 O 921.743 0.14884 2.15888 0
M  V30 9504 C 922.338 3.25703 0.932912 0
M  V30 9505 C 920.897 3.48711 1.41696 0
M  V30 9506 C 920.044 2.74665 0.381356 0
M  V30 9507 H 922.995 1.56647 -0.254464 0
M  V30 9508 H 923.016 3.35376 1.79731 0
M  V30 9509 H 922.528 3.88067 0.0503036 0
M  V30 9510 H 920.629 2.91597 2.31952 0
M  V30 9511 H 920.742 4.57423 1.42481 0
M  V30 9512 H 919.106 2.40123 0.8493 0
M  V30 9513 H 919.889 3.39745 -0.492775 0
M  V30 9514 N 922.334 -0.244713 1.55689 0
M  V30 9515 C 923.562 -0.989944 1.8168 0
M  V30 9516 C 923.977 -1.78863 0.604449 0
M  V30 9517 O 923.334 -1.77437 -0.426907 0
M  V30 9518 C 923.385 -1.92607 3.05916 0
M  V30 9519 O 923.106 -1.1597 4.22472 0
M  V30 9520 C 924.607 -2.78711 3.44724 0
M  V30 9521 H 921.827 -0.2912 0.604519 0
M  V30 9522 H 924.371 -0.266938 2.0275 0
M  V30 9523 H 922.526 -2.60333 2.8689 0
M  V30 9524 H 922.94 -1.79311 4.92898 0
M  V30 9525 H 924.414 -3.40141 4.34751 0
M  V30 9526 H 924.891 -3.49935 2.6541 0
M  V30 9527 H 925.497 -2.16435 3.66109 0
M  V30 9528 N 923.813 -1.49104 -0.510467 0
M  V30 9529 C 925.041 -1.61806 -1.28944 0
M  V30 9530 C 925.456 -0.285774 -1.86625 0
M  V30 9531 O 924.813 0.727551 -1.67371 0
M  V30 9532 C 924.864 -2.67966 -2.42645 0
M  V30 9533 O 924.585 -3.96026 -1.87337 0
M  V30 9534 C 926.086 -2.91286 -3.34166 0
M  V30 9535 H 923.306 -0.544999 -0.391429 0
M  V30 9536 H 925.85 -1.95071 -0.613805 0
M  V30 9537 H 924.005 -2.37505 -3.06056 0
M  V30 9538 H 924.419 -4.54427 -2.61909 0
M  V30 9539 H 925.893 -3.69323 -4.1025 0
M  V30 9540 H 926.37 -2.00842 -3.90588 0
M  V30 9541 H 926.976 -3.23127 -2.76531 0
M  V30 9542 N 925.291 0.760815 -1.38019 0
M  V30 9543 C 926.516 1.55513 -1.37224 0
M  V30 9544 C 926.941 1.88062 0.037611 0
M  V30 9545 O 926.299 1.50042 1.0177 0
M  V30 9546 C 926.347 2.83539 -2.22796 0
M  V30 9547 O 925.451 3.78384 -1.64009 0
M  V30 9548 H 924.792 0.470642 -0.468393 0
M  V30 9549 H 927.322 0.940792 -1.81687 0
M  V30 9550 H 927.332 3.32535 -2.36399 0
M  V30 9551 H 926.007 2.59178 -3.25269 0
M  V30 9552 H 924.584 3.37063 -1.59508 0
M  V30 9553 N 926.769 1.22769 0.988202 0
M  V30 9554 C 927.997 1.08155 1.76381 0
M  V30 9555 C 928.412 -0.367573 1.85187 0
M  V30 9556 O 927.769 -1.25455 1.32541 0
M  V30 9557 C 927.82 1.69193 3.19462 0
M  V30 9558 O 927.541 3.08437 3.11125 0
M  V30 9559 C 929.042 1.59915 4.13451 0
M  V30 9560 H 926.262 0.378908 0.553778 0
M  V30 9561 H 928.806 1.6246 1.24206 0
M  V30 9562 H 926.961 1.18939 3.6869 0
M  V30 9563 H 927.375 3.37916 4.0114 0
M  V30 9564 H 928.849 2.07339 5.1158 0
M  V30 9565 H 929.326 0.556546 4.3566 0
M  V30 9566 H 929.932 2.09497 3.70123 0
M  V30 9567 N 928.247 -1.18576 1.03814 0
M  V30 9568 C 929.493 -1.88773 0.741132 0
M  V30 9569 C 929.826 -1.79993 -0.729127 0
M  V30 9570 O 929.101 -1.19851 -1.53186 0
M  V30 9571 C 929.384 -3.39352 1.20468 0
M  V30 9572 C 929.237 -3.56955 2.73684 0
M  V30 9573 C 930.556 -4.32901 0.792741 0
M  V30 9574 H 927.675 -0.685482 0.270708 0
M  V30 9575 H 930.317 -1.39523 1.2897 0
M  V30 9576 H 928.467 -3.81427 0.737974 0
M  V30 9577 H 930.139 -3.2399 3.28372 0
M  V30 9578 H 928.382 -2.99696 3.13632 0
M  V30 9579 H 929.053 -4.62598 3.01176 0
M  V30 9580 H 931.529 -3.98592 1.1943 0
M  V30 9581 H 930.405 -5.36828 1.14486 0
M  V30 9582 H 930.666 -4.41052 -0.304295 0
M  V30 9583 N 929.725 -0.817259 -1.34754 0
M  V30 9584 C 930.673 -0.223352 -2.31525 0
M  V30 9585 C 931.667 0.632785 -1.57137 0
M  V30 9586 O 932.873 0.524757 -1.72181 0
M  V30 9587 H 929.248 -0.0534765 -0.750096 0
M  V30 9588 H 931.219 -1.05446 -2.79148 0
M  V30 9589 C 929.968 0.604784 -3.424 0
M  V30 9590 H 929.291 -0.0446664 -3.99775 0
M  V30 9591 H 930.731 0.986543 -4.12363 0
M  V30 9592 C 929.19 1.77478 -2.86362 0
M  V30 9593 O 929.72 2.87273 -2.8078 0
M  V30 9594 N 927.926 1.58971 -2.43263 0
M  V30 9595 H 927.473 0.696598 -2.48003 0
M  V30 9596 H 927.431 2.37408 -2.06119 0
M  V30 9597 N 931.203 1.46865 -0.571711 0
M  V30 9598 C 932.431 2.06818 -0.0583975 0
M  V30 9599 C 932.846 1.42218 1.24175 0
M  V30 9600 O 932.203 0.523655 1.74826 0
M  V30 9601 C 932.254 3.61281 0.125673 0
M  V30 9602 O 931.975 4.23462 -1.123 0
M  V30 9603 C 933.476 4.38137 0.674604 0
M  V30 9604 H 930.696 0.668948 -0.052438 0
M  V30 9605 H 933.24 1.88656 -0.789251 0
M  V30 9606 H 931.395 3.78908 0.806707 0
M  V30 9607 H 931.809 5.16192 -0.929869 0
M  V30 9608 H 933.283 5.46845 0.752626 0
M  V30 9609 H 933.76 4.05419 1.68915 0
M  V30 9610 H 934.366 4.2529 0.0287979 0
M  V30 9611 N 932.681 0.308908 1.54543 0
M  V30 9612 C 933.927 -0.298478 2.00592 0
M  V30 9613 C 934.26 -1.52929 1.19692 0
M  V30 9614 O 933.535 -1.9254 0.27542 0
M  V30 9615 C 933.818 -0.647218 3.54236 0
M  V30 9616 C 933.671 0.593284 4.4587 0
M  V30 9617 C 934.99 -1.47064 4.14801 0
M  V30 9618 H 932.109 -0.107012 0.72919 0
M  V30 9619 H 934.751 0.422578 1.85241 0
M  V30 9620 H 932.901 -1.26153 3.67447 0
M  V30 9621 H 934.573 1.2317 4.44552 0
M  V30 9622 H 932.816 1.22501 4.16144 0
M  V30 9623 H 933.487 0.305018 5.51157 0
M  V30 9624 H 935.963 -0.951511 4.05075 0
M  V30 9625 H 934.839 -1.68343 5.22448 0
M  V30 9626 H 935.1 -2.4623 3.67183 0
M  V30 9627 N 934.159 -1.57557 0.0367827 0
M  V30 9628 C 935.387 -1.96419 -0.650168 0
M  V30 9629 C 935.802 -0.913656 -1.6522 0
M  V30 9630 O 935.159 0.103718 -1.82205 0
M  V30 9631 C 935.21 -3.35355 -1.3498 0
M  V30 9632 O 934.931 -4.36379 -0.387905 0
M  V30 9633 C 936.432 -3.88892 -2.12786 0
M  V30 9634 H 933.652 -0.646751 -0.178756 0
M  V30 9635 H 936.196 -2.04261 0.0988197 0
M  V30 9636 H 934.351 -3.28708 -2.05012 0
M  V30 9637 H 934.765 -5.16969 -0.885596 0
M  V30 9638 H 936.239 -4.88428 -2.5718 0
M  V30 9639 H 936.716 -3.23547 -2.97008 0
M  V30 9640 H 937.322 -3.98831 -1.47694 0
M  V30 9641 N 935.637 0.236453 -1.55816 0
M  V30 9642 C 936.585 1.31259 -1.92025 0
M  V30 9643 C 937.579 1.49292 -0.800518 0
M  V30 9644 O 938.785 1.50643 -0.985229 0
M  V30 9645 H 935.16 0.439751 -0.610019 0
M  V30 9646 H 937.131 0.979926 -2.81851 0
M  V30 9647 C 935.88 2.65892 -2.24046 0
M  V30 9648 H 935.203 2.5282 -3.09713 0
M  V30 9649 H 936.643 3.40039 -2.53277 0
M  V30 9650 C 935.102 3.19777 -1.0604 0
M  V30 9651 O 935.632 4.00473 -0.313786 0
M  V30 9652 N 933.838 2.77946 -0.848209 0
M  V30 9653 H 933.385 2.12433 -1.45706 0
M  V30 9654 H 933.343 3.14342 -0.0603424 0
M  V30 9655 N 937.115 1.49373 0.502552 0
M  V30 9656 C 938.364 1.58028 1.25339 0
M  V30 9657 C 938.677 0.271494 1.93707 0
M  V30 9658 O 939.883 0.236584 2.70467 0
M  V30 9659 C 938.339 2.78817 2.27572 0
M  V30 9660 C 937.947 4.16448 1.65151 0
M  V30 9661 C 939.691 2.96802 3.03494 0
M  V30 9662 C 937.598 5.28461 2.65486 0
M  V30 9663 H 936.528 0.588396 0.471494 0
M  V30 9664 H 939.179 1.75756 0.52744 0
M  V30 9665 H 937.561 2.5458 3.03323 0
M  V30 9666 H 938.735 4.50816 0.954029 0
M  V30 9667 H 937.05 4.03809 1.01625 0
M  V30 9668 H 939.647 3.77656 3.78524 0
M  V30 9669 H 939.99 2.07303 3.61014 0
M  V30 9670 H 940.523 3.21071 2.34858 0
M  V30 9671 H 937.262 6.20015 2.12749 0
M  V30 9672 H 936.782 4.9855 3.33479 0
M  V30 9673 H 938.461 5.5773 3.27943 0
M  V30 9674 N 938.594 -0.753485 1.38421 0
M  V30 9675 C 940.005 -1.33081 1.30944 0
M  V30 9676 C 940.356 -1.96169 -0.0347124 0
M  V30 9677 O 939.481 -1.95073 -0.936768 0
M  V30 9678 C 940.076 -2.41973 2.37138 0
M  V30 9679 C 938.635 -2.95426 2.33239 0
M  V30 9680 C 937.782 -1.68808 2.19998 0
M  V30 9681 H 940.733 -0.552354 1.48777 0
M  V30 9682 H 940.754 -3.21913 2.02859 0
M  V30 9683 H 940.266 -1.96027 3.34956 0
M  V30 9684 H 938.367 -3.45701 1.39003 0
M  V30 9685 H 938.48 -3.49798 3.27381 0
M  V30 9686 H 936.844 -1.92438 1.66852 0
M  V30 9687 H 937.627 -1.24939 3.19758 0
M  V30 9688 N 940.072 -1.23292 -0.981677 0
M  V30 9689 C 941.318 -1.06582 -1.72535 0
M  V30 9690 C 941.651 0.396538 -1.90108 0
M  V30 9691 O 940.926 1.29363 -1.45243 0
M  V30 9692 C 941.209 -1.7904 -3.12437 0
M  V30 9693 C 941.062 -3.32941 -3.02441 0
M  V30 9694 C 942.381 -1.55185 -4.11832 0
M  V30 9695 H 939.5 -0.388585 -0.626236 0
M  V30 9696 H 942.142 -1.51779 -1.14293 0
M  V30 9697 H 940.292 -1.40619 -3.62158 0
M  V30 9698 H 941.964 -3.80875 -2.60254 0
M  V30 9699 H 940.207 -3.62039 -2.38977 0
M  V30 9700 H 940.878 -3.78827 -4.0149 0
M  V30 9701 H 943.354 -1.88581 -3.70913 0
M  V30 9702 H 942.23 -2.08362 -5.07815 0
M  V30 9703 H 942.491 -0.486925 -4.3941 0
M  V30 9704 N 941.55 1.18024 -1.04442 0
M  V30 9705 C 942.78 1.91753 -0.769044 0
M  V30 9706 C 943.188 1.76629 0.678141 0
M  V30 9707 O 942.531 1.09589 1.47431 0
M  V30 9708 C 942.593 3.43505 -1.0604 0
M  V30 9709 C 942.257 3.82409 -2.50225 0
M  V30 9710 C 943.254 3.8588 -3.48414 0
M  V30 9711 C 940.939 4.13594 -2.85036 0
M  V30 9712 C 942.933 4.19993 -4.79463 0
M  V30 9713 C 940.62 4.47377 -4.1629 0
M  V30 9714 C 941.618 4.50553 -5.13314 0
M  V30 9715 O 941.306 4.83546 -6.42214 0
M  V30 9716 H 941.038 0.615466 -0.279603 0
M  V30 9717 H 943.592 1.5065 -1.3962 0
M  V30 9718 H 941.822 3.84866 -0.376125 0
M  V30 9719 H 943.511 3.98486 -0.772235 0
M  V30 9720 H 944.277 3.6192 -3.2286 0
M  V30 9721 H 940.156 4.10297 -2.10185 0
M  V30 9722 H 943.7 4.22387 -5.55189 0
M  V30 9723 H 939.597 4.70798 -4.4161 0
M  V30 9724 H 940.365 5.01433 -6.46921 0
M  V30 9725 N 943.028 0.824394 1.34319 0
M  V30 9726 C 944.305 0.335692 1.92698 0
M  V30 9727 C 944.685 -1.17715 1.75232 0
M  V30 9728 O 944.033 -1.98493 1.13194 0
M  V30 9729 C 944.243 0.766647 3.40475 0
M  V30 9730 C 945.591 0.766323 4.17627 0
M  V30 9731 O 946.615 0.709321 3.49066 0
M  V30 9732 O 945.474 0.840856 5.39992 0
M  V30 9733 H 942.568 0.0919996 0.821867 0
M  V30 9734 H 945.114 0.909282 1.43283 0
M  V30 9735 H 943.886 1.80859 3.46995 0
M  V30 9736 H 943.509 0.168833 3.97241 0
M  V30 9737 N 944.506 -1.46559 0.579492 0
M  V30 9738 C 945.454 -2.3199 -0.168413 0
M  V30 9739 C 946.448 -1.44288 -0.887551 0
M  V30 9740 O 947.654 -1.60931 -0.806305 0
M  V30 9741 H 944.029 -0.748431 -0.0731799 0
M  V30 9742 H 946 -2.92886 0.570973 0
M  V30 9743 C 944.749 -3.27392 -1.1709 0
M  V30 9744 H 944.072 -3.94853 -0.626958 0
M  V30 9745 H 945.512 -3.89955 -1.66467 0
M  V30 9746 C 943.971 -2.52511 -2.23024 0
M  V30 9747 O 944.501 -2.2858 -3.30324 0
M  V30 9748 N 942.707 -2.1313 -1.97545 0
M  V30 9749 H 942.254 -2.32793 -1.10297 0
M  V30 9750 H 942.212 -1.63348 -2.68635 0
M  V30 9751 N 945.984 -0.3171 -1.54377 0
M  V30 9752 C 947.232 0.286842 -2.00054 0
M  V30 9753 C 947.553 1.53161 -1.20692 0
M  V30 9754 O 946.823 1.93479 -0.307045 0
M  V30 9755 H 945.403 0.108979 -0.739008 0
M  V30 9756 H 948.065 -0.432152 -1.90049 0
M  V30 9757 H 947.161 0.547729 -3.07256 0
M  V30 9758 N 947.462 1.57535 -0.0451378 0
M  V30 9759 C 948.708 1.92736 0.630921 0
M  V30 9760 C 949.041 0.923265 1.70849 0
M  V30 9761 O 948.316 -0.0516512 1.94431 0
M  V30 9762 C 948.599 3.38348 1.23259 0
M  V30 9763 C 948.452 4.49503 0.16349 0
M  V30 9764 C 949.771 3.84233 2.14599 0
M  V30 9765 H 946.89 0.700884 0.227883 0
M  V30 9766 H 949.532 1.89706 -0.10567 0
M  V30 9767 H 947.682 3.41061 1.86037 0
M  V30 9768 H 949.354 4.58919 -0.46808 0
M  V30 9769 H 947.597 4.30802 -0.509166 0
M  V30 9770 H 948.268 5.48457 0.624382 0
M  V30 9771 H 950.744 3.83358 1.6179 0
M  V30 9772 H 949.62 4.86781 2.53644 0
M  V30 9773 H 949.881 3.20646 3.04366 0
M  V30 9774 N 948.94 -0.228186 1.55939 0
M  V30 9775 C 949.887 -1.28274 1.91871 0
M  V30 9776 C 950.857 -1.46906 0.775103 0
M  V30 9777 O 952.042 -1.60583 1.03042 0
M  V30 9778 C 949.182 -2.62945 2.23504 0
M  V30 9779 C 948.295 -2.52166 3.50766 0
M  V30 9780 C 947.43 -3.79316 3.71878 0
M  V30 9781 C 946.469 -3.63231 4.92676 0
M  V30 9782 N 945.606 -4.82315 5.10212 0
M  V30 9783 H 950.446 -0.96931 2.81795 0
M  V30 9784 H 947.983 -0.467331 1.39479 0
M  V30 9785 H 949.941 -3.41359 2.39854 0
M  V30 9786 H 948.571 -2.92397 1.36762 0
M  V30 9787 H 947.623 -1.65221 3.42646 0
M  V30 9788 H 948.935 -2.36199 4.39331 0
M  V30 9789 H 948.089 -4.66173 3.88288 0
M  V30 9790 H 946.828 -3.982 2.81581 0
M  V30 9791 H 945.833 -2.74757 4.76223 0
M  V30 9792 H 947.058 -3.45823 5.84451 0
M  V30 9793 H 945.004 -5.01526 4.22856 0
M  V30 9794 H 944.921 -4.6905 5.92898 0
M  V30 9795 H 946.189 -5.70618 5.31051 0
M  V30 9796 N 950.418 -1.49637 -0.494624 0
M  V30 9797 C 951.664 -1.59681 -1.25019 0
M  V30 9798 C 951.997 -0.285511 -1.9209 0
M  V30 9799 O 951.272 0.711398 -1.81023 0
M  V30 9800 C 951.555 -2.76058 -2.31222 0
M  V30 9801 C 951.408 -4.17002 -1.68611 0
M  V30 9802 C 952.727 -2.88056 -3.32734 0
M  V30 9803 H 949.846 -0.581209 -0.453172 0
M  V30 9804 H 952.488 -1.81944 -0.547391 0
M  V30 9805 H 950.638 -2.57207 -2.91164 0
M  V30 9806 H 952.31 -4.47385 -1.12447 0
M  V30 9807 H 950.553 -4.22352 -0.989991 0
M  V30 9808 H 951.224 -4.94316 -2.45674 0
M  V30 9809 H 953.7 -3.05237 -2.82789 0
M  V30 9810 H 952.576 -3.71151 -4.04399 0
M  V30 9811 H 952.837 -1.97676 -3.95445 0
M  V30 9812 N 951.896 0.746133 -1.38819 0
M  V30 9813 C 953.143 1.50545 -1.35434 0
M  V30 9814 C 953.471 1.94427 0.0532669 0
M  V30 9815 O 952.726 1.66285 1.03188 0
M  V30 9816 C 953.025 2.76639 -2.26286 0
M  V30 9817 C 952.691 2.51682 -3.74122 0
M  V30 9818 C 951.353 2.44584 -4.14406 0
M  V30 9819 C 953.705 2.30071 -4.67672 0
M  V30 9820 C 951.033 2.13902 -5.46318 0
M  V30 9821 C 953.385 2.00907 -5.99849 0
M  V30 9822 C 952.049 1.92271 -6.39209 0
M  V30 9823 H 951.319 0.550883 -0.49559 0
M  V30 9824 H 953.966 0.857337 -1.71237 0
M  V30 9825 H 952.271 3.46138 -1.83564 0
M  V30 9826 H 953.968 3.34626 -2.20967 0
M  V30 9827 H 950.558 2.5808 -3.42188 0
M  V30 9828 H 954.742 2.34528 -4.3739 0
M  V30 9829 H 949.998 2.0573 -5.75748 0
M  V30 9830 H 954.172 1.83191 -6.71874 0
M  V30 9831 H 951.799 1.68261 -7.41345 0
M  V30 9832 N 953.375 1.23811 0.975125 0
M  V30 9833 C 954.623 1.07124 1.71373 0
M  V30 9834 C 954.944 -0.391864 1.91022 0
M  V30 9835 O 954.214 -1.28041 1.48265 0
M  V30 9836 H 952.794 0.393415 0.635007 0
M  V30 9837 H 955.456 1.55612 1.17349 0
M  V30 9838 H 954.552 1.56338 2.7012 0
M  V30 9839 N 954.853 -1.17469 1.05066 0
M  V30 9840 C 955.801 -2.23495 0.644418 0
M  V30 9841 C 956.795 -1.66081 -0.333685 0
M  V30 9842 O 958.001 -1.78887 -0.199886 0
M  V30 9843 H 954.376 -0.727546 0.190214 0
M  V30 9844 H 956.347 -2.55058 1.5488 0
M  V30 9845 C 955.096 -3.47684 0.0338051 0
M  V30 9846 H 954.419 -3.92167 0.777513 0
M  V30 9847 H 955.859 -4.23464 -0.213086 0
M  V30 9848 C 954.318 -3.14067 -1.21915 0
M  V30 9849 O 954.848 -3.28728 -2.3087 0
M  V30 9850 N 953.054 -2.68304 -1.11631 0
M  V30 9851 H 952.601 -2.56574 -0.229673 0
M  V30 9852 H 952.559 -2.46184 -1.95553 0
M  V30 9853 N 956.331 -0.831506 -1.3388 0
M  V30 9854 C 957.241 -0.261688 -2.33136 0
M  V30 9855 C 958.257 0.608429 -1.63016 0
M  V30 9856 O 959.433 0.514297 -1.94723 0
M  V30 9857 C 956.498 0.559957 -3.42148 0
M  V30 9858 C 955.559 -0.333569 -4.28002 0
M  V30 9859 C 954.792 0.448956 -5.31808 0
M  V30 9860 O 955.015 1.6814 -5.45055 0
M  V30 9861 O 953.949 -0.173197 -6.01651 0
M  V30 9862 H 957.775 -1.08343 -2.83717 0
M  V30 9863 H 955.36 -0.593849 -1.3709 0
M  V30 9864 H 957.242 1.02712 -4.08691 0
M  V30 9865 H 955.917 1.35888 -2.93796 0
M  V30 9866 H 954.824 -0.848416 -3.64352 0
M  V30 9867 H 956.157 -1.09707 -4.79818 0
M  V30 9868 N 957.809 1.4625 -0.587256 0
M  V30 9869 C 959.22 1.85997 -0.161918 0
M  V30 9870 C 959.571 1.49025 1.27616 0
M  V30 9871 O 958.696 0.907282 1.96462 0
M  V30 9872 C 959.291 3.37582 -0.287077 0
M  V30 9873 C 957.85 3.76308 0.0834211 0
M  V30 9874 C 956.997 2.70259 -0.620932 0
M  V30 9875 H 959.948 1.3734 -0.795199 0
M  V30 9876 H 959.969 3.77379 0.486333 0
M  V30 9877 H 959.481 3.64459 -1.33383 0
M  V30 9878 H 957.582 3.55047 1.13013 0
M  V30 9879 H 957.695 4.78184 -0.296064 0
M  V30 9880 H 956.059 2.54628 -0.0607027 0
M  V30 9881 H 956.842 2.99975 -1.66942 0
M  V30 9882 N 959.287 0.325282 1.54207 0
M  V30 9883 C 960.25 -0.527228 2.23054 0
M  V30 9884 C 961.25 -1.04217 1.22456 0
M  V30 9885 O 962.44 -0.934325 1.47024 0
M  V30 9886 C 959.572 -1.7325 2.93594 0
M  V30 9887 H 960.765 0.0746423 2.99807 0
M  V30 9888 H 958.318 0.0763872 1.56113 0
M  V30 9889 H 959.053 -2.37356 2.20981 0
M  V30 9890 H 958.838 -1.37065 3.67363 0
M  V30 9891 H 960.328 -2.3376 3.46043 0
M  V30 9892 N 960.765 -1.57509 0.0534917 0
M  V30 9893 C 962.013 -1.92402 -0.618548 0
M  V30 9894 C 962.334 -0.93273 -1.71246 0
M  V30 9895 O 961.604 0.0220495 -1.95888 0
M  V30 9896 H 960.184 -0.710233 -0.23147 0
M  V30 9897 H 962.846 -1.94606 0.10704 0
M  V30 9898 H 961.942 -2.93704 -1.05566 0
M  V30 9899 N 962.243 0.219913 -1.56058 0
M  V30 9900 C 963.491 0.942199 -1.78793 0
M  V30 9901 C 963.812 1.84804 -0.622284 0
M  V30 9902 O 963.082 1.9255 0.360735 0
M  V30 9903 H 961.662 0.350895 -0.659455 0
M  V30 9904 H 964.324 0.231376 -1.93522 0
M  V30 9905 H 963.42 1.54804 -2.71002 0
M  V30 9906 N 963.721 1.49897 0.486681 0
M  V30 9907 C 964.946 1.64106 1.26823 0
M  V30 9908 C 965.371 0.317967 1.85393 0
M  V30 9909 O 964.729 -0.71626 1.66551 0
M  V30 9910 C 964.777 2.72301 2.36399 0
M  V30 9911 O 963.881 2.32469 3.40634 0
M  V30 9912 H 963.222 0.548794 0.373793 0
M  V30 9913 H 965.752 1.96177 0.581017 0
M  V30 9914 H 965.762 2.94906 2.81948 0
M  V30 9915 H 964.437 3.68335 1.93137 0
M  V30 9916 H 963.014 2.20251 3.00905 0
M  V30 9917 N 965.199 -0.738761 1.39212 0
M  V30 9918 C 966.109 -1.88324 1.39897 0
M  V30 9919 C 967.125 -1.71494 0.294229 0
M  V30 9920 O 968.301 -1.94162 0.535087 0
M  V30 9921 C 965.366 -3.23871 1.23726 0
M  V30 9922 C 964.427 -3.53121 2.44139 0
M  V30 9923 C 963.66 -4.82202 2.2873 0
M  V30 9924 O 963.883 -5.55649 1.28879 0
M  V30 9925 O 962.817 -5.11265 3.17634 0
M  V30 9926 H 966.643 -1.90701 2.36362 0
M  V30 9927 H 964.228 -0.886067 1.20288 0
M  V30 9928 H 966.11 -4.04882 1.16826 0
M  V30 9929 H 964.785 -3.22274 0.303551 0
M  V30 9930 H 963.692 -2.72212 2.56615 0
M  V30 9931 H 965.025 -3.59495 3.36191 0
M  V30 9932 N 966.677 -1.24326 -0.968545 0
M  V30 9933 C 967.625 -1.03256 -2.08425 0
M  V30 9934 C 968.619 0.0322356 -1.69369 0
M  V30 9935 O 969.825 -0.122251 -1.79584 0
M  V30 9936 H 966.2 -0.31688 -0.681976 0
M  V30 9937 H 968.171 -1.97873 -2.23358 0
M  V30 9938 C 966.92 -0.653144 -3.4151 0
M  V30 9939 H 966.243 -1.46424 -3.72021 0
M  V30 9940 H 967.683 -0.545316 -4.20479 0
M  V30 9941 C 966.142 0.639674 -3.30771 0
M  V30 9942 O 966.672 1.68563 -3.64622 0
M  V30 9943 N 964.878 0.620074 -2.83907 0
M  V30 9944 H 964.425 -0.231449 -2.56558 0
M  V30 9945 H 964.383 1.48528 -2.77104 0
M  V30 9946 N 968.156 1.1691 -1.05688 0
M  V30 9947 C 969.567 1.68915 -0.795273 0
M  V30 9948 C 969.918 1.83968 0.681925 0
M  V30 9949 O 969.043 1.53083 1.52953 0
M  V30 9950 C 969.638 3.06814 -1.43703 0
M  V30 9951 C 968.197 3.55965 -1.22335 0
M  V30 9952 C 967.344 2.32099 -1.51741 0
M  V30 9953 H 970.295 1.01357 -1.22116 0
M  V30 9954 H 970.316 3.70907 -0.849016 0
M  V30 9955 H 969.828 2.95826 -2.51214 0
M  V30 9956 H 967.929 3.72222 -0.16771 0
M  V30 9957 H 968.042 4.38427 -1.9318 0
M  V30 9958 H 966.406 2.36811 -0.937696 0
M  V30 9959 H 967.189 2.23715 -2.60397 0
M  V30 9960 N 969.634 0.838594 1.33437 0
M  V30 9961 C 970.911 0.356112 1.92331 0
M  V30 9962 C 971.291 -1.1585 1.76471 0
M  V30 9963 O 970.639 -1.97281 1.15293 0
M  V30 9964 C 970.849 0.802715 3.39643 0
M  V30 9965 C 972.197 0.810575 4.16791 0
M  V30 9966 O 973.221 0.746304 3.48294 0
M  V30 9967 O 972.08 0.898082 5.3907 0
M  V30 9968 H 969.174 0.100711 0.820845 0
M  V30 9969 H 971.72 0.924428 1.42311 0
M  V30 9970 H 970.492 1.84529 3.45057 0
M  V30 9971 H 970.115 0.210956 3.9704 0
M  V30 9972 N 971.112 -1.45937 0.595003 0
M  V30 9973 C 972.523 -1.85908 0.171779 0
M  V30 9974 C 972.874 -1.497 -1.26824 0
M  V30 9975 O 971.999 -0.917688 -1.95978 0
M  V30 9976 C 972.594 -3.37425 0.304976 0
M  V30 9977 C 971.153 -3.76346 -0.0634635 0
M  V30 9978 C 970.3 -2.69926 0.635255 0
M  V30 9979 H 973.251 -1.36916 0.802471 0
M  V30 9980 H 973.272 -3.77632 -0.466313 0
M  V30 9981 H 972.784 -3.63747 1.35314 0
M  V30 9982 H 970.885 -3.55642 -1.11129 0
M  V30 9983 H 970.998 -4.78021 0.321419 0
M  V30 9984 H 969.362 -2.54592 0.0742054 0
M  V30 9985 H 970.145 -2.99086 1.68531 0
M  V30 9986 N 972.59 -0.333456 -1.54032 0
M  V30 9987 C 973.5 0.536674 -2.28379 0
M  V30 9988 C 974.516 1.12068 -1.33104 0
M  V30 9989 O 975.692 1.13853 -1.66131 0
M  V30 9990 C 972.757 1.67677 -3.03456 0
M  V30 9991 C 971.818 1.12357 -4.14336 0
M  V30 9992 C 971.051 2.20933 -4.85823 0
M  V30 9993 O 971.274 3.41466 -4.569 0
M  V30 9994 O 970.208 1.85795 -5.72507 0
M  V30 9995 H 974.034 -0.0674003 -3.03625 0
M  V30 9996 H 971.619 -0.098823 -1.49073 0
M  V30 9997 H 973.501 2.34032 -3.50438 0
M  V30 9998 H 972.176 2.26684 -2.31076 0
M  V30 9999 H 971.083 0.424827 -3.7168 0
M  V30 10000 H 972.416 0.578497 -4.88789 0
M  V30 10001 N 974.068 1.57479 -0.061844 0
M  V30 10002 C 975.317 1.92285 0.609055 0
M  V30 10003 C 975.63 0.942983 1.71369 0
M  V30 10004 O 976.836 1.18349 2.44348 0
M  V30 10005 C 975.292 3.41545 1.13468 0
M  V30 10006 C 974.9 4.47958 0.0615926 0
M  V30 10007 C 976.644 3.85368 1.78022 0
M  V30 10008 C 974.551 5.88341 0.600705 0
M  V30 10009 H 973.481 0.717656 0.23127 0
M  V30 10010 H 976.132 1.83021 -0.132466 0
M  V30 10011 H 974.514 3.45848 1.92886 0
M  V30 10012 H 975.688 4.55258 -0.712527 0
M  V30 10013 H 974.003 4.13541 -0.487116 0
M  V30 10014 H 976.6 4.87627 2.19371 0
M  V30 10015 H 976.943 3.22193 2.63623 0
M  V30 10016 H 977.476 3.83626 1.05242 0
M  V30 10017 H 974.215 6.55138 -0.217922 0
M  V30 10018 H 973.735 5.84581 1.34257 0
M  V30 10019 H 975.414 6.37918 1.08025 0
M  V30 10020 N 975.546 -0.211634 1.56173 0
M  V30 10021 C 976.476 -1.26533 1.96244 0
M  V30 10022 C 977.457 -1.48362 0.832028 0
M  V30 10023 O 978.642 -1.60378 1.0951 0
M  V30 10024 C 975.772 -2.61307 2.2877 0
M  V30 10025 C 974.726 -2.54119 3.44395 0
M  V30 10026 C 974.052 -3.93014 3.62552 0
M  V30 10027 C 975.352 -2.08046 4.79076 0
M  V30 10028 H 977.046 -0.932407 2.84511 0
M  V30 10029 H 974.592 -0.447084 1.36884 0
M  V30 10030 H 976.545 -3.35188 2.55396 0
M  V30 10031 H 975.269 -2.96307 1.37367 0
M  V30 10032 H 973.928 -1.82694 3.17834 0
M  V30 10033 H 973.576 -4.25338 2.68508 0
M  V30 10034 H 973.276 -3.89083 4.40327 0
M  V30 10035 H 974.8 -4.68542 3.91537 0
M  V30 10036 H 976.214 -2.71676 5.04842 0
M  V30 10037 H 974.611 -2.15154 5.60204 0
M  V30 10038 H 975.681 -1.03306 4.73768 0
M  V30 10039 N 977.024 -1.50153 -0.478725 0
M  V30 10040 C 978.254 -1.64266 -1.253 0
M  V30 10041 C 978.662 -0.322256 -1.86435 0
M  V30 10042 O 978.005 0.704925 -1.69636 0
M  V30 10043 C 978.067 -2.67017 -2.40712 0
M  V30 10044 C 977.731 -4.10779 -2.00274 0
M  V30 10045 C 978.728 -4.96889 -1.52963 0
M  V30 10046 C 976.413 -4.5665 -2.09228 0
M  V30 10047 C 978.407 -6.26914 -1.15139 0
M  V30 10048 C 976.094 -5.86683 -1.71015 0
M  V30 10049 C 977.092 -6.71641 -1.24048 0
M  V30 10050 O 976.78 -7.99248 -0.863617 0
M  V30 10051 H 976.512 -0.555382 -0.385392 0
M  V30 10052 H 979.066 -1.97078 -0.578751 0
M  V30 10053 H 977.296 -2.29432 -3.11284 0
M  V30 10054 H 978.985 -2.70428 -3.02694 0
M  V30 10055 H 979.751 -4.62669 -1.45474 0
M  V30 10056 H 975.63 -3.90674 -2.44735 0
M  V30 10057 H 979.174 -6.93179 -0.784089 0
M  V30 10058 H 975.071 -6.20426 -1.78162 0
M  V30 10059 H 975.839 -8.12452 -0.993139 0
M  V30 10060 N 978.502 0.731368 -1.39602 0
M  V30 10061 C 979.75 1.48805 -1.36753 0
M  V30 10062 C 980.071 1.94969 0.034676 0
M  V30 10063 O 979.341 1.69243 0.986591 0
M  V30 10064 H 977.921 0.55203 -0.503261 0
M  V30 10065 H 980.583 0.868013 -1.74504 0
M  V30 10066 H 979.679 2.36844 -2.03252 0
M  V30 10067 N 979.98 1.24838 0.961938 0
M  V30 10068 C 981.257 0.99939 1.68141 0
M  V30 10069 C 981.637 -0.476588 2.0565 0
M  V30 10070 O 980.985 -1.45224 1.76415 0
M  V30 10071 C 981.195 1.92797 2.90913 0
M  V30 10072 C 982.543 2.20219 3.63027 0
M  V30 10073 O 983.567 1.90496 3.00981 0
M  V30 10074 O 982.426 2.70725 4.74731 0
M  V30 10075 H 979.52 0.37842 0.735342 0
M  V30 10076 H 982.066 1.35961 1.01551 0
M  V30 10077 H 980.838 2.92492 2.59931 0
M  V30 10078 H 980.461 1.57127 3.65235 0
M  V30 10079 N 981.458 -1.16348 1.06306 0
M  V30 10080 C 982.704 -1.87158 0.781007 0
M  V30 10081 C 983.037 -1.81499 -0.690784 0
M  V30 10082 O 982.312 -1.23074 -1.50609 0
M  V30 10083 C 982.595 -3.3672 1.27639 0
M  V30 10084 C 982.448 -3.51069 2.81194 0
M  V30 10085 C 983.767 -4.31122 0.884388 0
M  V30 10086 H 980.886 -0.679586 0.285187 0
M  V30 10087 H 983.528 -1.36756 1.31901 0
M  V30 10088 H 981.678 -3.79775 0.818715 0
M  V30 10089 H 983.35 -3.16952 3.35171 0
M  V30 10090 H 981.593 -2.92976 3.19918 0
M  V30 10091 H 982.264 -4.56105 3.10921 0
M  V30 10092 H 984.74 -3.95969 1.27858 0
M  V30 10093 H 983.616 -5.34279 1.25847 0
M  V30 10094 H 983.877 -4.41598 -0.210673 0
M  V30 10095 N 982.937 -0.845659 -1.3299 0
M  V30 10096 C 983.885 -0.272412 -2.30999 0
M  V30 10097 C 984.879 0.599311 -1.58444 0
M  V30 10098 O 986.085 0.488117 -1.73255 0
M  V30 10099 H 982.46 -0.0693751 -0.748793 0
M  V30 10100 H 984.431 -1.11343 -2.76849 0
M  V30 10101 C 983.18 0.532019 -3.43606 0
M  V30 10102 H 982.503 -0.129455 -3.9959 0
M  V30 10103 H 983.943 0.898853 -4.14363 0
M  V30 10104 C 982.402 1.71364 -2.90062 0
M  V30 10105 O 982.932 2.81252 -2.8681 0
M  V30 10106 N 981.138 1.53775 -2.4658 0
M  V30 10107 H 980.685 0.643836 -2.49424 0
M  V30 10108 H 980.643 2.32982 -2.11108 0
M  V30 10109 N 984.415 1.45619 -0.602734 0
M  V30 10110 C 985.64 2.07157 -0.100429 0
M  V30 10111 C 986.065 1.44524 1.20393 0
M  V30 10112 O 985.423 0.536191 1.7319 0
M  V30 10113 C 985.471 3.60587 0.0308604 0
M  V30 10114 O 984.575 3.97944 1.08234 0
M  V30 10115 H 983.916 0.6601 -0.0718643 0
M  V30 10116 H 986.446 1.86948 -0.831366 0
M  V30 10117 H 986.456 4.07348 0.230634 0
M  V30 10118 H 985.131 4.05561 -0.921581 0
M  V30 10119 H 983.708 3.62862 0.859414 0
M  V30 10120 N 985.893 0.34162 1.53853 0
M  V30 10121 C 987.17 -0.310664 1.93117 0
M  V30 10122 C 987.55 -1.68398 1.273 0
M  V30 10123 O 986.898 -2.24546 0.423225 0
M  V30 10124 C 987.108 -0.384867 3.46871 0
M  V30 10125 C 988.456 -0.636621 4.198 0
M  V30 10126 O 989.48 -0.467061 3.53125 0
M  V30 10127 O 988.339 -0.964962 5.37913 0
M  V30 10128 H 985.433 -0.180881 0.806977 0
M  V30 10129 H 987.979 0.392656 1.65095 0
M  V30 10130 H 986.751 0.57894 3.86994 0
M  V30 10131 H 986.374 -1.13505 3.81054 0
M  V30 10132 N 987.371 -1.57444 0.0701946 0
M  V30 10133 C 988.318 -2.12631 -0.897599 0
M  V30 10134 C 989.288 -1.03841 -1.29639 0
M  V30 10135 O 990.473 -1.31495 -1.38253 0
M  V30 10136 C 987.613 -2.6911 -2.16041 0
M  V30 10137 C 986.726 -3.9205 -1.8144 0
M  V30 10138 C 985.861 -4.36778 -3.02321 0
M  V30 10139 C 984.9 -5.52371 -2.63729 0
M  V30 10140 N 984.037 -5.92065 -3.77364 0
M  V30 10141 H 988.877 -2.95024 -0.420104 0
M  V30 10142 H 986.414 -1.45792 -0.195716 0
M  V30 10143 H 988.372 -2.99963 -2.89962 0
M  V30 10144 H 987.002 -1.89484 -2.61334 0
M  V30 10145 H 986.054 -3.67669 -0.975896 0
M  V30 10146 H 987.366 -4.76011 -1.49046 0
M  V30 10147 H 986.52 -4.69285 -3.84521 0
M  V30 10148 H 985.259 -3.51668 -3.37907 0
M  V30 10149 H 984.264 -5.19517 -1.7995 0
M  V30 10150 H 985.489 -6.39212 -2.29315 0
M  V30 10151 H 983.435 -5.09904 -4.12715 0
M  V30 10152 H 983.352 -6.70762 -3.48733 0
M  V30 10153 H 984.62 -6.29193 -4.60148 0
M  V30 10154 N 988.849 0.203349 -1.56283 0
M  V30 10155 C 989.797 1.27157 -1.94766 0
M  V30 10156 C 990.791 1.4756 -0.832005 0
M  V30 10157 O 991.997 1.48519 -1.01696 0
M  V30 10158 H 988.372 0.426712 -0.61921 0
M  V30 10159 H 990.343 0.919921 -2.83866 0
M  V30 10160 C 989.092 2.6108 -2.29636 0
M  V30 10161 H 988.415 2.46193 -3.15006 0
M  V30 10162 H 989.855 3.34591 -2.60433 0
M  V30 10163 C 988.314 3.17456 -1.12799 0
M  V30 10164 O 988.844 3.99717 -0.398661 0
M  V30 10165 N 987.05 2.76084 -0.906975 0
M  V30 10166 H 986.597 2.09294 -1.50179 0
M  V30 10167 H 986.555 3.14143 -0.127005 0
M  V30 10168 N 990.327 1.50405 0.470755 0
M  V30 10169 C 991.573 1.6165 1.22462 0
M  V30 10170 C 991.906 0.316034 1.91611 0
M  V30 10171 O 991.181 -0.682509 1.82132 0
M  V30 10172 C 991.464 2.79702 2.26801 0
M  V30 10173 C 991.317 4.19631 1.61955 0
M  V30 10174 C 992.636 2.93313 3.28109 0
M  V30 10175 H 989.755 0.588345 0.443868 0
M  V30 10176 H 992.397 1.82792 0.518376 0
M  V30 10177 H 990.547 2.61807 2.87036 0
M  V30 10178 H 992.219 4.49117 1.05316 0
M  V30 10179 H 990.462 4.23874 0.922674 0
M  V30 10180 H 991.133 4.98162 2.37779 0
M  V30 10181 H 993.609 3.09697 2.77897 0
M  V30 10182 H 992.485 3.77537 3.98443 0
M  V30 10183 H 992.746 2.03942 3.9225 0
M  V30 10184 N 991.805 -0.723954 1.39988 0
M  V30 10185 C 993.082 -1.4763 1.28316 0
M  V30 10186 C 993.462 -2.10852 -0.102302 0
M  V30 10187 O 992.81 -1.9948 -1.11445 0
M  V30 10188 C 993.02 -2.51878 2.41574 0
M  V30 10189 C 994.368 -3.17948 2.81415 0
M  V30 10190 O 995.392 -2.62195 2.41106 0
M  V30 10191 O 994.251 -4.18858 3.51027 0
M  V30 10192 H 991.345 -0.656092 0.50346 0
M  V30 10193 H 993.891 -0.75684 1.51888 0
M  V30 10194 H 992.663 -2.03618 3.34149 0
M  V30 10195 H 992.286 -3.3137 2.19727 0
M  V30 10196 N 993.283 -1.25346 -0.955304 0
M  V30 10197 C 994.246 -1.05754 -2.03344 0
M  V30 10198 C 995.246 -0.0105743 -1.60797 0
M  V30 10199 O 996.436 -0.252699 -1.72357 0
M  V30 10200 C 993.568 -0.605536 -3.35479 0
M  V30 10201 H 994.761 -2.01459 -2.22158 0
M  V30 10202 H 992.314 -1.07744 -1.1323 0
M  V30 10203 H 993.049 0.354154 -3.2236 0
M  V30 10204 H 992.834 -1.36134 -3.67709 0
M  V30 10205 H 994.324 -0.489867 -4.14717 0
M  V30 10206 N 994.761 1.15782 -1.06922 0
M  V30 10207 C 995.691 2.22538 -0.707045 0
M  V30 10208 C 996.672 1.67371 0.303471 0
M  V30 10209 O 997.857 1.9339 0.177189 0
M  V30 10210 C 994.987 3.47158 -0.0994269 0
M  V30 10211 C 993.941 4.15257 -1.03661 0
M  V30 10212 C 993.267 5.33902 -0.291974 0
M  V30 10213 C 994.567 4.65516 -2.36837 0
M  V30 10214 H 996.261 2.53089 -1.59958 0
M  V30 10215 H 993.807 1.21649 -0.770552 0
M  V30 10216 H 995.76 4.21073 0.165852 0
M  V30 10217 H 994.484 3.15926 0.828155 0
M  V30 10218 H 993.143 3.43276 -1.28674 0
M  V30 10219 H 992.791 4.98926 0.638928 0
M  V30 10220 H 992.491 5.80407 -0.916613 0
M  V30 10221 H 994.015 6.1059 -0.0343915 0
M  V30 10222 H 995.429 5.30981 -2.16175 0
M  V30 10223 H 993.826 5.22666 -2.94856 0
M  V30 10224 H 994.896 3.81387 -2.99453 0
M  V30 10225 N 996.239 0.8527 1.3254 0
M  V30 10226 C 997.516 0.376491 1.91942 0
M  V30 10227 C 997.896 -1.13972 1.7769 0
M  V30 10228 O 997.244 -1.96047 1.17379 0
M  V30 10229 C 997.454 0.838694 3.38773 0
M  V30 10230 C 998.802 0.854736 4.15908 0
M  V30 10231 O 999.826 0.783203 3.47483 0
M  V30 10232 O 998.685 0.955207 5.38087 0
M  V30 10233 H 995.779 0.109412 0.81973 0
M  V30 10234 H 998.325 0.93947 1.41322 0
M  V30 10235 H 997.097 1.88179 3.43081 0
M  V30 10236 H 996.72 0.253055 3.96794 0
M  V30 10237 N 997.718 -1.45297 0.610449 0
M  V30 10238 C 998.965 -2.02218 0.106759 0
M  V30 10239 C 999.293 -1.47849 -1.26376 0
M  V30 10240 O 998.548 -0.644402 -1.84786 0
M  V30 10241 C 998.847 -3.57394 0.0205329 0
M  V30 10242 C 998.513 -4.30928 1.32709 0
M  V30 10243 C 997.175 -4.50735 1.68498 0
M  V30 10244 C 999.527 -4.72936 2.19046 0
M  V30 10245 C 996.855 -5.09806 2.90371 0
M  V30 10246 C 999.207 -5.33355 3.40169 0
M  V30 10247 C 997.871 -5.51384 3.76207 0
M  V30 10248 H 997.141 -0.739969 0.039066 0
M  V30 10249 H 999.788 -1.74326 0.792638 0
M  V30 10250 H 998.093 -3.84581 -0.748623 0
M  V30 10251 H 999.79 -3.99144 -0.385386 0
M  V30 10252 H 996.38 -4.15827 1.03854 0
M  V30 10253 H 1000.56 -4.57365 1.92695 0
M  V30 10254 H 995.82 -5.21953 3.18395 0
M  V30 10255 H 999.994 -5.64859 4.07318 0
M  V30 10256 H 997.621 -5.96924 4.70729 0
M  V30 10257 N 999.196 -0.349774 -1.5367 0
M  V30 10258 C 1000.16 0.491676 -2.23864 0
M  V30 10259 C 1001.16 1.02256 -1.24098 0
M  V30 10260 O 1002.35 0.910816 -1.48492 0
M  V30 10261 C 999.481 1.68557 -2.96313 0
M  V30 10262 H 1000.67 -0.12233 -2.9965 0
M  V30 10263 H 998.227 -0.101214 -1.55972 0
M  V30 10264 H 998.962 2.3381 -2.2473 0
M  V30 10265 H 998.747 1.31203 -3.69497 0
M  V30 10266 H 1000.24 2.28225 -3.49718 0
M  V30 10267 N 1000.67 1.57404 -0.0785433 0
M  V30 10268 C 1001.64 2.11977 0.871693 0
M  V30 10269 C 1002.64 1.04529 1.2219 0
M  V30 10270 O 1003.83 1.30488 1.15406 0
M  V30 10271 C 1000.96 2.6267 2.17296 0
M  V30 10272 H 1002.15 2.97246 0.398115 0
M  V30 10273 H 999.705 1.5537 0.170251 0
M  V30 10274 H 1000.44 1.80873 2.69175 0
M  V30 10275 H 1000.22 3.41214 1.93171 0
M  V30 10276 H 1001.71 3.04943 2.85306 0
M  V30 10277 N 1002.15 -0.195058 1.56388 0
M  V30 10278 C 1003.08 -1.24444 1.97575 0
M  V30 10279 C 1004.06 -1.47471 0.847717 0
M  V30 10280 O 1005.25 -1.59208 1.11205 0
M  V30 10281 C 1002.38 -2.58866 2.31529 0
M  V30 10282 C 1001.33 -2.50451 3.47071 0
M  V30 10283 C 1000.66 -3.89146 3.667 0
M  V30 10284 C 1001.96 -2.02953 4.81256 0
M  V30 10285 H 1003.65 -0.902178 2.85484 0
M  V30 10286 H 1001.2 -0.43254 1.3735 0
M  V30 10287 H 1003.15 -3.3246 2.58936 0
M  V30 10288 H 1001.87 -2.94833 1.40502 0
M  V30 10289 H 1000.53 -1.79313 3.19754 0
M  V30 10290 H 1000.18 -4.22466 2.73004 0
M  V30 10291 H 999.882 -3.84391 4.44429 0
M  V30 10292 H 1001.41 -4.64363 3.96484 0
M  V30 10293 H 1002.82 -2.66306 5.07695 0
M  V30 10294 H 1001.22 -2.092 5.62455 0
M  V30 10295 H 1002.29 -0.982757 4.74837 0
M  V30 10296 N 1003.63 -1.50653 -0.462772 0
M  V30 10297 C 1004.58 -1.70122 -1.55971 0
M  V30 10298 C 1005.55 -0.542581 -1.56988 0
M  V30 10299 O 1006.73 -0.774114 -1.74391 0
M  V30 10300 C 1003.87 -1.80899 -2.93887 0
M  V30 10301 C 1002.98 -3.08318 -3.02595 0
M  V30 10302 C 1002.12 -3.09841 -4.31477 0
M  V30 10303 C 1001.16 -4.3168 -4.33957 0
M  V30 10304 N 1000.3 -4.30894 -5.54323 0
M  V30 10305 H 1005.14 -2.63768 -1.38674 0
M  V30 10306 H 1002.67 -1.30746 -0.674091 0
M  V30 10307 H 1004.63 -1.85128 -3.73876 0
M  V30 10308 H 1003.26 -0.906854 -3.098 0
M  V30 10309 H 1002.31 -3.13521 -2.15427 0
M  V30 10310 H 1003.62 -3.98282 -3.00288 0
M  V30 10311 H 1002.78 -3.12845 -5.1982 0
M  V30 10312 H 1001.52 -2.17722 -4.36404 0
M  V30 10313 H 1000.52 -4.28879 -3.4401 0
M  V30 10314 H 1001.75 -5.25035 -4.30715 0
M  V30 10315 H 999.694 -3.41633 -5.6002 0
M  V30 10316 H 999.611 -5.14636 -5.53792 0
M  V30 10317 H 1000.88 -4.38056 -6.44769 0
M  V30 10318 N 1005.11 0.71652 -1.4037 0
M  V30 10319 C 1006.06 1.8306 -1.40562 0
M  V30 10320 C 1007.03 1.64009 -0.262697 0
M  V30 10321 O 1008.21 1.85157 -0.460619 0
M  V30 10322 C 1005.35 3.2076 -1.27307 0
M  V30 10323 C 1004.46 3.51389 -2.51296 0
M  V30 10324 C 1003.6 4.78589 -2.30491 0
M  V30 10325 C 1002.64 5.02119 -3.50061 0
M  V30 10326 N 1001.77 6.20533 -3.28457 0
M  V30 10327 H 1006.61 1.82231 -2.35788 0
M  V30 10328 H 1004.15 0.890198 -1.17106 0
M  V30 10329 H 1006.11 4.00274 -1.17628 0
M  V30 10330 H 1004.74 3.2082 -0.357005 0
M  V30 10331 H 1003.79 2.66436 -2.71507 0
M  V30 10332 H 1005.1 3.64686 -3.40302 0
M  V30 10333 H 1004.26 5.66119 -2.1816 0
M  V30 10334 H 1003 4.67499 -1.38909 0
M  V30 10335 H 1002 4.13044 -3.6287 0
M  V30 10336 H 1003.23 5.15082 -4.42569 0
M  V30 10337 H 1001.17 6.10695 -2.39556 0
M  V30 10338 H 1001.09 6.34502 -4.11027 0
M  V30 10339 H 1002.36 7.10853 -3.19857 0
M  V30 10340 N 1006.59 1.25851 0.948643 0
M  V30 10341 C 1007.82 1.13546 1.726 0
M  V30 10342 C 1008.22 -0.312857 1.86595 0
M  V30 10343 O 1007.57 -1.22657 1.36751 0
M  V30 10344 C 1007.63 1.72315 3.15512 0
M  V30 10345 C 1007.29 3.2136 3.24926 0
M  V30 10346 C 1008.29 4.18274 3.08777 0
M  V30 10347 C 1005.98 3.61683 3.48555 0
M  V30 10348 C 1007.97 5.53491 3.16112 0
M  V30 10349 C 1005.66 4.97035 3.55526 0
M  V30 10350 C 1006.65 5.92749 3.3932 0
M  V30 10351 O 1006.34 7.25637 3.45985 0
M  V30 10352 H 1006.07 0.396555 0.547467 0
M  V30 10353 H 1008.63 1.66822 1.19832 0
M  V30 10354 H 1006.86 1.13494 3.6967 0
M  V30 10355 H 1008.55 1.55024 3.7513 0
M  V30 10356 H 1009.31 3.88461 2.90385 0
M  V30 10357 H 1005.19 2.87674 3.60229 0
M  V30 10358 H 1008.74 6.28177 3.0338 0
M  V30 10359 H 1004.63 5.26512 3.73437 0
M  V30 10360 H 1005.4 7.33812 3.62577 0
M  V30 10361 N 1008.06 -1.15214 1.07534 0
M  V30 10362 C 1008.99 -2.2216 0.718837 0
M  V30 10363 C 1009.98 -1.6753 -0.29459 0
M  V30 10364 O 1011.16 -1.93481 -0.166931 0
M  V30 10365 C 1008.29 -3.471 0.117836 0
M  V30 10366 C 1007.24 -4.14701 1.05862 0
M  V30 10367 C 1006.57 -5.3374 0.320284 0
M  V30 10368 C 1007.87 -4.64254 2.39302 0
M  V30 10369 H 1009.56 -2.52237 1.61297 0
M  V30 10370 H 1007.11 -1.21239 0.776992 0
M  V30 10371 H 1009.06 -4.21156 -0.143519 0
M  V30 10372 H 1007.79 -3.16361 -0.811389 0
M  V30 10373 H 1006.45 -3.42589 1.30493 0
M  V30 10374 H 1006.09 -4.99257 -0.61246 0
M  V30 10375 H 1005.79 -5.79912 0.947381 0
M  V30 10376 H 1007.32 -6.10563 0.0667721 0
M  V30 10377 H 1008.73 -5.29827 2.18988 0
M  V30 10378 H 1007.13 -5.21095 2.97623 0
M  V30 10379 H 1008.2 -3.79793 3.01472 0
M  V30 10380 N 1009.54 -0.859717 -1.32086 0
M  V30 10381 C 1010.47 -0.323502 -2.31248 0
M  V30 10382 C 1011.45 0.580085 -1.59903 0
M  V30 10383 O 1012.64 0.499265 -1.87673 0
M  V30 10384 C 1009.77 0.484661 -3.43902 0
M  V30 10385 C 1008.72 -0.324933 -4.26765 0
M  V30 10386 C 1008.05 0.608281 -5.31229 0
M  V30 10387 C 1009.35 -1.55344 -4.98664 0
M  V30 10388 H 1011.04 -1.15209 -2.76346 0
M  V30 10389 H 1008.59 -0.555442 -1.32856 0
M  V30 10390 H 1010.54 0.870238 -4.12316 0
M  V30 10391 H 1009.27 1.34666 -2.97544 0
M  V30 10392 H 1007.92 -0.692328 -3.60003 0
M  V30 10393 H 1007.57 1.46727 -4.81124 0
M  V30 10394 H 1007.27 0.0705571 -5.87558 0
M  V30 10395 H 1008.8 0.990925 -6.02506 0
M  V30 10396 H 1010.21 -1.23987 -5.59732 0
M  V30 10397 H 1008.61 -2.02947 -5.64741 0
M  V30 10398 H 1009.68 -2.31192 -4.26237 0
M  V30 10399 N 1011.02 1.44971 -0.618145 0
M  V30 10400 C 1012.27 2.0176 -0.11725 0
M  V30 10401 C 1012.59 1.48773 1.26062 0
M  V30 10402 O 1011.86 0.686152 1.83491 0
M  V30 10403 H 1010.44 0.745909 -0.0403545 0
M  V30 10404 H 1013.1 1.77638 -0.801923 0
M  V30 10405 H 1012.2 3.1201 -0.0750477 0
M  V30 10406 N 1012.5 0.357919 1.53482 0
M  V30 10407 C 1013.75 -0.2337 2.00744 0
M  V30 10408 C 1014.07 -1.49908 1.2471 0
M  V30 10409 O 1013.34 -1.92597 0.358235 0
M  V30 10410 H 1011.92 -0.0893474 0.741637 0
M  V30 10411 H 1014.58 0.482388 1.88836 0
M  V30 10412 H 1013.68 -0.466073 3.086 0
M  V30 10413 N 1013.98 -1.5736 0.0868897 0
M  V30 10414 C 1015.2 -1.98388 -0.587349 0
M  V30 10415 C 1015.62 -0.965757 -1.6223 0
M  V30 10416 O 1014.98 0.0456981 -1.82443 0
M  V30 10417 C 1015.03 -3.39479 -1.24242 0
M  V30 10418 O 1014.75 -4.37393 -0.248878 0
M  V30 10419 C 1016.25 -3.95465 -2.00305 0
M  V30 10420 H 1013.47 -0.652111 -0.15809 0
M  V30 10421 H 1016.01 -2.03843 0.163754 0
M  V30 10422 H 1014.17 -3.35063 -1.94451 0
M  V30 10423 H 1014.58 -5.19525 -0.720678 0
M  V30 10424 H 1016.06 -4.96363 -2.41511 0
M  V30 10425 H 1016.53 -3.32832 -2.86565 0
M  V30 10426 H 1017.14 -4.03328 -1.34931 0
M  V30 10427 N 1015.45 0.186762 -1.56489 0
M  V30 10428 C 1016.68 0.925916 -1.85584 0
M  V30 10429 C 1017.1 1.75708 -0.671446 0
M  V30 10430 O 1016.46 1.7728 0.379687 0
M  V30 10431 C 1016.51 1.79107 -3.12975 0
M  V30 10432 O 1015.61 2.89088 -2.94112 0
M  V30 10433 H 1014.96 0.260275 -0.610863 0
M  V30 10434 H 1017.49 0.189561 -2.0372 0
M  V30 10435 H 1017.5 2.19408 -3.43983 0
M  V30 10436 H 1016.17 1.18044 -3.98796 0
M  V30 10437 H 1014.75 2.52482 -2.74422 0
M  V30 10438 N 1016.93 1.50896 0.454776 0
M  V30 10439 C 1018.16 1.66759 1.23313 0
M  V30 10440 C 1018.58 0.35722 1.84677 0
M  V30 10441 O 1017.94 -0.680771 1.68033 0
M  V30 10442 C 1017.99 2.77254 2.3057 0
M  V30 10443 O 1017.09 2.39642 3.35627 0
M  V30 10444 H 1016.43 0.556599 0.362068 0
M  V30 10445 H 1018.96 1.97365 0.539274 0
M  V30 10446 H 1018.97 3.0082 2.75629 0
M  V30 10447 H 1017.65 3.72349 1.85281 0
M  V30 10448 H 1016.23 2.26584 2.96165 0
M  V30 10449 N 1018.41 -0.709066 1.40748 0
M  V30 10450 C 1019.66 -1.4646 1.38681 0
M  V30 10451 C 1019.97 -1.95599 -0.0056209 0
M  V30 10452 O 1021.18 -2.71091 -0.148907 0
M  V30 10453 C 1019.63 -2.64771 2.43771 0
M  V30 10454 C 1019.24 -2.22474 3.88856 0
M  V30 10455 C 1020.99 -3.42475 2.50821 0
M  V30 10456 C 1018.89 -3.37663 4.85528 0
M  V30 10457 H 1017.82 -0.550084 0.515678 0
M  V30 10458 H 1020.47 -0.771074 1.66513 0
M  V30 10459 H 1018.86 -3.36325 2.09048 0
M  V30 10460 H 1020.03 -1.58297 4.32757 0
M  V30 10461 H 1018.35 -1.57798 3.85342 0
M  V30 10462 H 1020.94 -4.28201 3.20232 0
M  V30 10463 H 1021.29 -3.86738 1.54076 0
M  V30 10464 H 1021.82 -2.77969 2.84567 0
M  V30 10465 H 1018.56 -2.98426 5.83628 0
M  V30 10466 H 1018.08 -4.00734 4.46287 0
M  V30 10467 H 1019.76 -4.03636 5.05655 0
M  V30 10468 N 1019.89 -1.26353 -0.941956 0
M  V30 10469 C 1021.17 -1.02601 -1.6653 0
M  V30 10470 C 1021.55 0.44381 -2.06382 0
M  V30 10471 O 1020.89 1.42399 -1.78703 0
M  V30 10472 C 1021.1 -1.97401 -2.87809 0
M  V30 10473 C 1022.45 -2.25967 -3.59478 0
M  V30 10474 O 1023.48 -1.95261 -2.97912 0
M  V30 10475 O 1022.34 -2.78244 -4.70364 0
M  V30 10476 H 1019.43 -0.39007 -0.729228 0
M  V30 10477 H 1021.98 -1.37559 -0.993754 0
M  V30 10478 H 1020.75 -2.9659 -2.55245 0
M  V30 10479 H 1020.37 -1.62918 -3.62689 0
M  V30 10480 N 1021.37 1.14642 -1.08144 0
M  V30 10481 C 1022.61 1.85892 -0.810683 0
M  V30 10482 C 1022.95 1.82575 0.661821 0
M  V30 10483 O 1022.22 1.25454 1.48632 0
M  V30 10484 C 1022.5 3.34647 -1.32979 0
M  V30 10485 C 1022.36 3.46551 -2.86744 0
M  V30 10486 C 1023.68 4.29661 -0.952864 0
M  V30 10487 H 1020.8 0.674963 -0.295963 0
M  V30 10488 H 1023.44 1.3464 -1.3406 0
M  V30 10489 H 1021.59 3.78425 -0.87903 0
M  V30 10490 H 1023.26 3.11579 -3.40171 0
M  V30 10491 H 1021.5 2.87849 -3.24539 0
M  V30 10492 H 1022.17 4.51101 -3.18138 0
M  V30 10493 H 1024.65 3.93885 -1.34141 0
M  V30 10494 H 1023.53 5.32209 -1.34331 0
M  V30 10495 H 1023.79 4.41877 0.140392 0
M  V30 10496 N 1022.85 0.866709 1.31628 0
M  V30 10497 C 1023.79 0.318169 2.28596 0
M  V30 10498 C 1024.76 -0.581558 1.55586 0
M  V30 10499 O 1025.95 -0.513895 1.83749 0
M  V30 10500 C 1023.09 -0.477137 3.41786 0
M  V30 10501 C 1022.2 0.449739 4.29653 0
M  V30 10502 C 1021.34 -0.359373 5.29983 0
M  V30 10503 C 1020.37 0.564138 6.09495 0
M  V30 10504 N 1019.51 -0.208526 7.0179 0
M  V30 10505 H 1024.35 1.15029 2.74904 0
M  V30 10506 H 1021.89 0.578649 1.35241 0
M  V30 10507 H 1023.85 -0.953985 4.06146 0
M  V30 10508 H 1022.48 -1.27398 2.96597 0
M  V30 10509 H 1021.53 1.04502 3.65764 0
M  V30 10510 H 1022.84 1.158 4.85172 0
M  V30 10511 H 1021.99 -0.89887 6.00004 0
M  V30 10512 H 1020.73 -1.10094 4.75111 0
M  V30 10513 H 1019.74 1.11542 5.38366 0
M  V30 10514 H 1020.96 1.30451 6.66453 0
M  V30 10515 H 1018.91 -0.932969 6.49332 0
M  V30 10516 H 1018.83 0.440463 7.54716 0
M  V30 10517 H 1020.09 -0.72936 7.7608 0
M  V30 10518 N 1024.32 -1.44642 0.625825 0
M  V30 10519 C 1025.29 -2.29085 -0.072526 0
M  V30 10520 C 1026.29 -1.40755 -0.777467 0
M  V30 10521 O 1027.48 -1.62684 -0.622861 0
M  V30 10522 C 1024.61 -3.22212 -1.1132 0
M  V30 10523 H 1025.8 -2.92317 0.670124 0
M  V30 10524 H 1023.35 -1.51466 0.38571 0
M  V30 10525 H 1024.09 -2.63819 -1.88601 0
M  V30 10526 H 1023.87 -3.87299 -0.611709 0
M  V30 10527 H 1025.36 -3.8566 -1.60175 0
M  V30 10528 N 1025.8 -0.366053 -1.5329 0
M  V30 10529 C 1026.76 0.467904 -2.24373 0
M  V30 10530 C 1027.76 1.00934 -1.25176 0
M  V30 10531 O 1028.95 0.895015 -1.49449 0
M  V30 10532 C 1026.09 1.65405 -2.98084 0
M  V30 10533 H 1027.28 -0.154105 -2.99504 0
M  V30 10534 H 1024.83 -0.117751 -1.55856 0
M  V30 10535 H 1025.57 2.31413 -2.27197 0
M  V30 10536 H 1025.35 1.27277 -3.70868 0
M  V30 10537 H 1026.84 2.24503 -3.52119 0
M  V30 10538 N 1027.28 1.57312 -0.0952337 0
M  V30 10539 C 1028.56 1.85822 0.610715 0
M  V30 10540 C 1028.94 0.992114 1.86334 0
M  V30 10541 O 1028.28 0.0645669 2.28409 0
M  V30 10542 C 1028.49 3.36492 0.925967 0
M  V30 10543 C 1029.84 4.0455 1.28936 0
M  V30 10544 O 1030.87 3.41374 1.01698 0
M  V30 10545 O 1029.73 5.16024 1.79949 0
M  V30 10546 H 1026.82 0.768454 0.305626 0
M  V30 10547 H 1029.37 1.69217 -0.127941 0
M  V30 10548 H 1028.14 3.91282 0.0373127 0
M  V30 10549 H 1027.76 3.58443 1.7206 0
M  V30 10550 N 1028.76 -0.17846 1.56586 0
M  V30 10551 C 1029.99 -0.911996 1.85715 0
M  V30 10552 C 1030.4 -1.76138 0.679766 0
M  V30 10553 O 1029.76 -1.79088 -0.351266 0
M  V30 10554 C 1029.81 -1.79459 3.1381 0
M  V30 10555 O 1029.53 -0.979476 4.2701 0
M  V30 10556 C 1031.03 -2.6384 3.56235 0
M  V30 10557 H 1028.25 -0.265299 0.616326 0
M  V30 10558 H 1030.79 -0.180704 2.037 0
M  V30 10559 H 1028.95 -2.4793 2.97673 0
M  V30 10560 H 1029.36 -1.58244 5.00059 0
M  V30 10561 H 1030.84 -3.21396 4.48786 0
M  V30 10562 H 1031.31 -3.38363 2.80013 0
M  V30 10563 H 1031.92 -2.00712 3.7496 0
M  V30 10564 N 1030.24 -1.51135 -0.446768 0
M  V30 10565 C 1031.47 -1.66887 -1.21788 0
M  V30 10566 C 1031.87 -0.361729 -1.8571 0
M  V30 10567 O 1031.22 0.668784 -1.71093 0
M  V30 10568 C 1031.28 -2.72062 -2.34994 0
M  V30 10569 C 1030.94 -4.14935 -1.91516 0
M  V30 10570 C 1031.94 -5.00021 -1.42389 0
M  V30 10571 C 1029.62 -4.60985 -1.99495 0
M  V30 10572 C 1031.62 -6.29216 -1.01816 0
M  V30 10573 C 1029.31 -5.90179 -1.58532 0
M  V30 10574 C 1030.3 -6.74121 -1.09774 0
M  V30 10575 O 1029.99 -8.009 -0.69389 0
M  V30 10576 H 1029.72 -0.563431 -0.373525 0
M  V30 10577 H 1032.28 -1.98261 -0.536818 0
M  V30 10578 H 1030.51 -2.35983 -3.06348 0
M  V30 10579 H 1032.2 -2.76788 -2.96889 0
M  V30 10580 H 1032.96 -4.6565 -1.35627 0
M  V30 10581 H 1028.84 -3.95777 -2.36393 0
M  V30 10582 H 1032.39 -6.94687 -0.636879 0
M  V30 10583 H 1028.28 -6.24066 -1.64962 0
M  V30 10584 H 1029.05 -8.14376 -0.820582 0
M  V30 10585 N 1031.71 0.701592 -1.41122 0
M  V30 10586 C 1032.66 1.81559 -1.42495 0
M  V30 10587 C 1033.63 1.63722 -0.280078 0
M  V30 10588 O 1034.82 1.84658 -0.480231 0
M  V30 10589 C 1031.96 3.19392 -1.30702 0
M  V30 10590 C 1031.07 3.48704 -2.55009 0
M  V30 10591 C 1030.2 4.76118 -2.35554 0
M  V30 10592 C 1029.24 4.98378 -3.55367 0
M  V30 10593 N 1028.38 6.17014 -3.3502 0
M  V30 10594 H 1033.22 1.7972 -2.37707 0
M  V30 10595 H 1030.76 0.877727 -1.18044 0
M  V30 10596 H 1032.71 3.99004 -1.21867 0
M  V30 10597 H 1031.34 3.20423 -0.391012 0
M  V30 10598 H 1030.4 2.63542 -2.74317 0
M  V30 10599 H 1031.71 3.61057 -3.44151 0
M  V30 10600 H 1030.86 5.63774 -2.24152 0
M  V30 10601 H 1029.6 4.66 -1.43859 0
M  V30 10602 H 1028.61 4.09172 -3.6723 0
M  V30 10603 H 1029.83 5.10359 -4.48007 0
M  V30 10604 H 1027.78 6.0812 -2.4602 0
M  V30 10605 H 1027.69 6.30107 -4.17733 0
M  V30 10606 H 1028.96 7.0742 -3.27379 0
M  V30 10607 N 1033.19 1.2685 0.935242 0
M  V30 10608 C 1034.47 1.03483 1.65984 0
M  V30 10609 C 1034.85 -0.432859 2.06614 0
M  V30 10610 O 1034.2 -1.4145 1.79455 0
M  V30 10611 C 1034.41 1.98924 2.86758 0
M  V30 10612 C 1035.75 2.2787 3.58274 0
M  V30 10613 O 1036.78 1.96838 2.96873 0
M  V30 10614 O 1035.64 2.80734 4.68882 0
M  V30 10615 H 1032.73 0.393932 0.72715 0
M  V30 10616 H 1035.28 1.38085 0.986445 0
M  V30 10617 H 1034.05 2.9794 2.53668 0
M  V30 10618 H 1033.67 1.64839 3.6182 0
M  V30 10619 N 1034.67 -1.14067 1.0875 0
M  V30 10620 C 1035.92 -1.84819 0.817698 0
M  V30 10621 C 1036.24 -1.83545 -0.658488 0
M  V30 10622 O 1035.51 -1.28633 -1.47751 0
M  V30 10623 H 1034.09 -0.68433 0.299502 0
M  V30 10624 H 1036.75 -1.38208 1.37421 0
M  V30 10625 H 1035.85 -2.89541 1.16501 0
M  V30 10626 N 1036.15 -0.873678 -1.31166 0
M  V30 10627 C 1037.1 -0.321349 -2.3037 0
M  V30 10628 C 1038.09 0.565568 -1.5968 0
M  V30 10629 O 1039.3 0.451257 -1.74252 0
M  V30 10630 H 1035.67 -0.0852425 -0.747153 0
M  V30 10631 H 1037.64 -1.17191 -2.74425 0
M  V30 10632 C 1036.39 0.459016 -3.44657 0
M  V30 10633 H 1035.71 -0.214185 -3.99226 0
M  V30 10634 H 1037.15 0.810758 -4.16176 0
M  V30 10635 C 1035.61 1.65173 -2.93632 0
M  V30 10636 O 1036.14 2.75105 -2.92711 0
M  V30 10637 N 1034.35 1.4851 -2.49786 0
M  V30 10638 H 1033.9 0.590785 -2.50734 0
M  V30 10639 H 1033.85 2.28452 -2.16002 0
M  V30 10640 N 1037.63 1.44308 -0.633487 0
M  V30 10641 C 1038.88 2.01239 -0.136356 0
M  V30 10642 C 1039.19 1.50438 1.25011 0
M  V30 10643 O 1040.39 1.99513 1.84138 0
M  V30 10644 C 1038.85 3.59382 -0.193011 0
M  V30 10645 C 1038.46 4.19178 -1.58093 0
M  V30 10646 C 1040.2 4.23778 0.247534 0
M  V30 10647 C 1038.11 5.69553 -1.59258 0
M  V30 10648 H 1037.04 0.752521 -0.0472109 0
M  V30 10649 H 1039.69 1.65498 -0.79263 0
M  V30 10650 H 1038.07 3.92432 0.530408 0
M  V30 10651 H 1039.25 3.97662 -2.32813 0
M  V30 10652 H 1037.56 3.67079 -1.96576 0
M  V30 10653 H 1040.16 5.34075 0.258401 0
M  V30 10654 H 1040.5 3.96285 1.27529 0
M  V30 10655 H 1041.03 3.9554 -0.423469 0
M  V30 10656 H 1037.77 6.01784 -2.59878 0
M  V30 10657 H 1037.29 5.93185 -0.888352 0
M  V30 10658 H 1038.97 6.33234 -1.32756 0
M  V30 10659 N 1039.1 0.374177 1.53094 0
M  V30 10660 C 1040.38 -0.269632 1.93733 0
M  V30 10661 C 1040.76 -1.6566 1.30843 0
M  V30 10662 O 1040.11 -2.23598 0.470759 0
M  V30 10663 C 1040.32 -0.311204 3.4761 0
M  V30 10664 C 1041.67 -0.547432 4.21056 0
M  V30 10665 O 1042.69 -0.392053 3.54036 0
M  V30 10666 O 1041.55 -0.850645 5.39839 0
M  V30 10667 H 1038.64 -0.163723 0.810632 0
M  V30 10668 H 1041.19 0.427586 1.64225 0
M  V30 10669 H 1039.96 0.660897 3.85678 0
M  V30 10670 H 1039.59 -1.05397 3.83376 0
M  V30 10671 N 1040.58 -1.57259 0.103575 0
M  V30 10672 C 1041.55 -2.13337 -0.837859 0
M  V30 10673 C 1042.55 -1.06459 -1.20512 0
M  V30 10674 O 1043.74 -1.32307 -1.13316 0
M  V30 10675 C 1040.87 -2.66093 -2.13089 0
M  V30 10676 H 1042.06 -2.97842 -0.350775 0
M  V30 10677 H 1039.61 -1.55621 -0.145511 0
M  V30 10678 H 1040.35 -1.85133 -2.66264 0
M  V30 10679 H 1040.13 -3.44244 -1.87719 0
M  V30 10680 H 1041.62 -3.09443 -2.80419 0
M  V30 10681 N 1042.06 0.170153 -1.56679 0
M  V30 10682 C 1043.31 0.884902 -1.81252 0
M  V30 10683 C 1043.62 1.83361 -0.681024 0
M  V30 10684 O 1044.83 2.59082 -0.811722 0
M  V30 10685 C 1043.28 1.62408 -3.21172 0
M  V30 10686 C 1042.89 0.718947 -4.42194 0
M  V30 10687 C 1044.64 2.32699 -3.55037 0
M  V30 10688 C 1042.54 1.45843 -5.73135 0
M  V30 10689 H 1041.47 0.33418 -0.675899 0
M  V30 10690 H 1044.12 0.137818 -1.82982 0
M  V30 10691 H 1042.51 2.41596 -3.13763 0
M  V30 10692 H 1043.68 -0.0360521 -4.60786 0
M  V30 10693 H 1042 0.125634 -4.1621 0
M  V30 10694 H 1044.59 2.88621 -4.50114 0
M  V30 10695 H 1044.94 3.08092 -2.79974 0
M  V30 10696 H 1045.47 1.60453 -3.64005 0
M  V30 10697 H 1042.21 0.746799 -6.51232 0
M  V30 10698 H 1041.73 2.18672 -5.58518 0
M  V30 10699 H 1043.41 2.0056 -6.1513 0
M  V30 10700 N 1043.54 1.5137 0.438746 0
M  V30 10701 C 1044.82 1.54508 1.19944 0
M  V30 10702 C 1045.2 0.308525 2.08833 0
M  V30 10703 O 1044.54 -0.706461 2.17305 0
M  V30 10704 C 1044.75 2.85833 2.00251 0
M  V30 10705 C 1046.1 3.37729 2.5734 0
M  V30 10706 O 1047.13 2.87374 2.10463 0
M  V30 10707 O 1045.98 4.25589 3.42836 0
M  V30 10708 H 1043.08 0.621132 0.546007 0
M  V30 10709 H 1045.62 1.63682 0.447931 0
M  V30 10710 H 1044.4 3.67291 1.34955 0
M  V30 10711 H 1044.02 2.79815 2.8247 0
M  V30 10712 N 1045.02 -0.694098 1.41492 0
M  V30 10713 C 1045.95 -1.81841 1.37873 0
M  V30 10714 C 1046.93 -1.60732 0.245772 0
M  V30 10715 O 1048.11 -1.83461 0.432917 0
M  V30 10716 C 1045.24 -3.18543 1.15099 0
M  V30 10717 C 1044.28 -3.5844 2.31133 0
M  V30 10718 S 1045.12 -3.63079 3.93617 0
M  V30 10719 C 1046.27 -5.02505 3.73148 0
M  V30 10720 H 1046.51 -1.84634 2.33018 0
M  V30 10721 H 1044.04 -0.862948 1.28033 0
M  V30 10722 H 1046 -3.9746 1.02646 0
M  V30 10723 H 1044.66 -3.13358 0.21572 0
M  V30 10724 H 1043.85 -4.57754 2.10896 0
M  V30 10725 H 1043.45 -2.86837 2.40002 0
M  V30 10726 H 1045.75 -5.90046 3.32945 0
M  V30 10727 H 1046.69 -5.27784 4.72069 0
M  V30 10728 H 1047.1 -4.74113 3.06394 0
M  V30 10729 N 1046.49 -1.27344 -0.928501 0
M  V30 10730 C 1047.46 -1.10043 -2.01055 0
M  V30 10731 C 1048.46 -0.0446793 -1.60738 0
M  V30 10732 O 1049.65 -0.289202 -1.71783 0
M  V30 10733 C 1046.78 -0.676559 -3.34119 0
M  V30 10734 H 1047.97 -2.06126 -2.17835 0
M  V30 10735 H 1045.53 -1.10121 -1.10919 0
M  V30 10736 H 1046.26 0.285697 -3.23039 0
M  V30 10737 H 1046.05 -1.43903 -3.64739 0
M  V30 10738 H 1047.54 -0.577725 -4.13584 0
M  V30 10739 N 1047.97 1.13488 -1.09353 0
M  V30 10740 C 1049.2 1.88592 -0.850915 0
M  V30 10741 C 1049.62 1.79087 0.597761 0
M  V30 10742 O 1048.97 1.15695 1.41142 0
M  V30 10743 C 1049.02 3.38219 -1.27633 0
M  V30 10744 O 1048.74 3.47476 -2.66819 0
M  V30 10745 C 1050.25 4.30293 -1.06598 0
M  V30 10746 H 1047.47 0.597069 -0.306185 0
M  V30 10747 H 1050.01 1.43668 -1.45533 0
M  V30 10748 H 1048.16 3.80729 -0.715828 0
M  V30 10749 H 1048.58 4.40485 -2.84733 0
M  V30 10750 H 1050.05 5.33611 -1.41293 0
M  V30 10751 H 1050.53 4.392 -0.0037135 0
M  V30 10752 H 1051.14 3.9355 -1.6124 0
M  V30 10753 N 1049.45 0.880621 1.30701 0
M  V30 10754 C 1050.38 0.360251 2.30704 0
M  V30 10755 C 1051.36 -0.554572 1.60806 0
M  V30 10756 O 1052.55 -0.469345 1.88443 0
M  V30 10757 C 1049.68 -0.429888 3.44629 0
M  V30 10758 C 1048.63 0.392786 4.26194 0
M  V30 10759 C 1047.96 -0.52369 5.32129 0
M  V30 10760 C 1049.26 1.63258 4.96129 0
M  V30 10761 H 1050.95 1.19591 2.74478 0
M  V30 10762 H 1048.5 0.576508 1.31956 0
M  V30 10763 H 1050.45 -0.804532 4.13649 0
M  V30 10764 H 1049.17 -1.29916 2.99649 0
M  V30 10765 H 1047.83 0.749514 3.58856 0
M  V30 10766 H 1047.48 -1.39054 4.83397 0
M  V30 10767 H 1047.18 0.0229272 5.87596 0
M  V30 10768 H 1048.71 -0.894946 6.04006 0
M  V30 10769 H 1050.12 1.32877 5.57689 0
M  V30 10770 H 1048.52 2.11906 5.61441 0
M  V30 10771 H 1049.59 2.37944 4.22505 0
M  V30 10772 N 1050.93 -1.4397 0.641131 0
M  V30 10773 C 1051.88 -2.30728 -0.0577905 0
M  V30 10774 C 1052.85 -1.44059 -0.826819 0
M  V30 10775 O 1054.03 -1.72947 -0.805853 0
M  V30 10776 C 1051.17 -3.29478 -1.02657 0
M  V30 10777 C 1050.28 -4.31247 -0.254913 0
M  V30 10778 C 1049.42 -5.17085 -1.2164 0
M  V30 10779 C 1048.46 -6.10556 -0.434481 0
M  V30 10780 N 1047.6 -6.89059 -1.34694 0
M  V30 10781 H 1052.44 -2.8995 0.687953 0
M  V30 10782 H 1049.97 -1.4285 0.351029 0
M  V30 10783 H 1051.93 -3.85228 -1.60173 0
M  V30 10784 H 1050.56 -2.71932 -1.73933 0
M  V30 10785 H 1049.61 -3.77889 0.436338 0
M  V30 10786 H 1050.92 -4.97545 0.353642 0
M  V30 10787 H 1050.08 -5.77402 -1.86258 0
M  V30 10788 H 1048.82 -4.50885 -1.85888 0
M  V30 10789 H 1047.82 -5.49339 0.225125 0
M  V30 10790 H 1049.05 -6.78795 0.203415 0
M  V30 10791 H 1046.99 -6.25518 -1.97644 0
M  V30 10792 H 1046.91 -7.51833 -0.792657 0
M  V30 10793 H 1048.18 -7.5389 -1.98165 0
M  V30 10794 N 1052.41 -0.382291 -1.52893 0
M  V30 10795 C 1053.35 0.456234 -2.26246 0
M  V30 10796 C 1054.32 1.06366 -1.27575 0
M  V30 10797 O 1055.51 1.09301 -1.5639 0
M  V30 10798 C 1052.65 1.5813 -3.06739 0
M  V30 10799 C 1051.76 0.997416 -4.20328 0
M  V30 10800 C 1050.9 2.09296 -4.8823 0
M  V30 10801 C 1049.94 1.4846 -5.93823 0
M  V30 10802 N 1049.07 2.51916 -6.55349 0
M  V30 10803 H 1053.91 -0.175761 -2.97481 0
M  V30 10804 H 1051.45 -0.0985046 -1.4677 0
M  V30 10805 H 1053.41 2.24426 -3.51694 0
M  V30 10806 H 1052.04 2.18371 -2.37727 0
M  V30 10807 H 1051.09 0.224251 -3.79738 0
M  V30 10808 H 1052.4 0.512784 -4.96157 0
M  V30 10809 H 1051.56 2.83377 -5.36453 0
M  V30 10810 H 1050.3 2.61116 -4.1191 0
M  V30 10811 H 1049.3 0.729001 -5.44946 0
M  V30 10812 H 1050.53 0.97443 -6.72073 0
M  V30 10813 H 1048.47 3.02919 -5.81873 0
M  V30 10814 H 1048.39 2.08188 -7.26769 0
M  V30 10815 H 1049.66 3.25649 -7.08218 0
M  V30 10816 N 1053.89 1.57202 -0.111913 0
M  V30 10817 C 1055.12 1.99008 0.554907 0
M  V30 10818 C 1055.52 0.990323 1.61212 0
M  V30 10819 O 1054.87 -0.0259612 1.83682 0
M  V30 10820 C 1054.93 3.37218 1.24598 0
M  V30 10821 C 1054.59 4.55752 0.337549 0
M  V30 10822 C 1055.59 5.18192 -0.421026 0
M  V30 10823 C 1053.27 5.01674 0.25069 0
M  V30 10824 C 1055.27 6.24938 -1.25426 0
M  V30 10825 C 1052.96 6.08282 -0.586186 0
M  V30 10826 C 1053.95 6.6978 -1.3373 0
M  V30 10827 O 1053.64 7.7433 -2.16029 0
M  V30 10828 H 1053.37 0.658669 0.152091 0
M  V30 10829 H 1055.93 2.04492 -0.192937 0
M  V30 10830 H 1054.16 3.28467 2.04074 0
M  V30 10831 H 1055.85 3.63359 1.809 0
M  V30 10832 H 1056.61 4.83634 -0.363752 0
M  V30 10833 H 1052.49 4.53558 0.825005 0
M  V30 10834 H 1056.04 6.72869 -1.84102 0
M  V30 10835 H 1051.93 6.42271 -0.64488 0
M  V30 10836 H 1052.7 7.91395 -2.08894 0
M  V30 10837 N 1055.36 -0.161842 1.56767 0
M  V30 10838 C 1056.29 -1.20226 2.0017 0
M  V30 10839 C 1057.27 -1.4564 0.878807 0
M  V30 10840 O 1058.46 -1.56813 1.14557 0
M  V30 10841 C 1055.59 -2.53897 2.36968 0
M  V30 10842 C 1054.54 -2.43033 3.52305 0
M  V30 10843 C 1053.87 -3.81281 3.74872 0
M  V30 10844 C 1055.17 -1.927 4.85453 0
M  V30 10845 H 1056.86 -0.84142 2.87333 0
M  V30 10846 H 1054.41 -0.403309 1.38237 0
M  V30 10847 H 1056.36 -3.26893 2.6593 0
M  V30 10848 H 1055.09 -2.91787 1.46724 0
M  V30 10849 H 1053.75 -1.7249 3.23485 0
M  V30 10850 H 1053.39 -4.1658 2.81904 0
M  V30 10851 H 1053.09 -3.74877 4.52483 0
M  V30 10852 H 1054.62 -4.55848 4.06245 0
M  V30 10853 H 1056.03 -2.55477 5.13229 0
M  V30 10854 H 1054.43 -1.97222 5.66766 0
M  V30 10855 H 1055.5 -0.881816 4.76814 0
M  V30 10856 N 1056.84 -1.516 -0.430713 0
M  V30 10857 C 1057.77 -1.76342 -1.53054 0
M  V30 10858 C 1058.75 -0.61349 -1.58652 0
M  V30 10859 O 1059.94 -0.856888 -1.74273 0
M  V30 10860 C 1057.07 -1.8945 -2.91077 0
M  V30 10861 C 1056.02 -3.04928 -3.00339 0
M  V30 10862 C 1055.35 -3.03228 -4.40405 0
M  V30 10863 C 1056.65 -4.44777 -2.73808 0
M  V30 10864 H 1058.34 -2.68435 -1.326 0
M  V30 10865 H 1055.89 -1.29171 -0.636466 0
M  V30 10866 H 1057.84 -2.05343 -3.67984 0
M  V30 10867 H 1056.56 -0.940114 -3.12777 0
M  V30 10868 H 1055.22 -2.88751 -2.25872 0
M  V30 10869 H 1054.87 -2.05553 -4.59083 0
M  V30 10870 H 1054.57 -3.80776 -4.47531 0
M  V30 10871 H 1056.1 -3.21222 -5.19277 0
M  V30 10872 H 1057.51 -4.6127 -3.40445 0
M  V30 10873 H 1055.91 -5.2408 -2.92335 0
M  V30 10874 H 1056.98 -4.54358 -1.69372 0
M  V30 10875 N 1058.32 0.686584 -1.41858 0
M  V30 10876 C 1059.57 1.44379 -1.41418 0
M  V30 10877 C 1059.89 1.94981 -0.0273696 0
M  V30 10878 O 1059.16 1.72296 0.932248 0
M  V30 10879 H 1057.74 0.53574 -0.520568 0
M  V30 10880 H 1060.4 0.812056 -1.77177 0
M  V30 10881 H 1059.5 2.30258 -2.10684 0
M  V30 10882 N 1059.8 1.27835 0.921735 0
M  V30 10883 C 1061.03 1.17352 1.704 0
M  V30 10884 C 1061.44 -0.268892 1.86875 0
M  V30 10885 O 1060.8 -1.18253 1.39005 0
M  V30 10886 C 1060.85 1.85889 3.10045 0
M  V30 10887 O 1060.57 3.24495 2.94338 0
M  V30 10888 C 1062.07 1.81607 4.04393 0
M  V30 10889 H 1059.29 0.40773 0.532914 0
M  V30 10890 H 1061.83 1.68815 1.15419 0
M  V30 10891 H 1059.99 1.38316 3.61867 0
M  V30 10892 H 1060.4 3.58705 3.82663 0
M  V30 10893 H 1061.88 2.34165 4.99871 0
M  V30 10894 H 1062.35 0.786697 4.32097 0
M  V30 10895 H 1062.96 2.28822 3.58498 0
M  V30 10896 N 1061.28 -1.12907 1.09954 0
M  V30 10897 C 1062.52 -1.83661 0.833761 0
M  V30 10898 C 1062.84 -1.84736 -0.642798 0
M  V30 10899 O 1064.04 -2.51437 -1.0243 0
M  V30 10900 C 1062.5 -3.29763 1.44168 0
M  V30 10901 C 1062.11 -3.3706 2.95118 0
M  V30 10902 C 1063.85 -4.05522 1.25509 0
M  V30 10903 C 1061.76 -4.77467 3.48969 0
M  V30 10904 H 1060.69 -0.688115 0.308242 0
M  V30 10905 H 1063.34 -1.27166 1.32291 0
M  V30 10906 H 1061.72 -3.86094 0.880215 0
M  V30 10907 H 1062.9 -2.90695 3.57537 0
M  V30 10908 H 1061.21 -2.7477 3.12874 0
M  V30 10909 H 1063.81 -5.09188 1.63191 0
M  V30 10910 H 1064.15 -4.15837 0.196208 0
M  V30 10911 H 1064.68 -3.55536 1.78435 0
M  V30 10912 H 1061.42 -4.72344 4.54501 0
M  V30 10913 H 1060.94 -5.24305 2.91315 0
M  V30 10914 H 1062.62 -5.46397 3.46495 0
M  V30 10915 N 1062.75 -0.88754 -1.30232 0
M  V30 10916 C 1063.98 -0.522306 -2.00199 0
M  V30 10917 C 1064.4 0.889866 -1.66514 0
M  V30 10918 O 1063.75 1.58558 -0.903639 0
M  V30 10919 C 1063.8 -0.690551 -3.54843 0
M  V30 10920 O 1063.53 -2.04713 -3.8733 0
M  V30 10921 C 1065.03 -0.328649 -4.4208 0
M  V30 10922 H 1062.25 -0.201628 -0.63999 0
M  V30 10923 H 1064.79 -1.19355 -1.66056 0
M  V30 10924 H 1062.95 -0.0666493 -3.87343 0
M  V30 10925 H 1063.36 -2.06762 -4.82027 0
M  V30 10926 H 1064.83 -0.497257 -5.49756 0
M  V30 10927 H 1065.31 0.733502 -4.33032 0
M  V30 10928 H 1065.92 -0.928982 -4.1503 0
M  V30 10929 N 1064.23 1.43628 -0.648757 0
M  V30 10930 C 1065.16 2.29045 0.0841858 0
M  V30 10931 C 1066.18 1.42262 0.791537 0
M  V30 10932 O 1067.37 1.66243 0.650039 0
M  V30 10933 C 1064.47 3.19075 1.14212 0
M  V30 10934 C 1063.64 4.34372 0.513799 0
M  V30 10935 C 1062.7 5.05307 1.46803 0
M  V30 10936 O 1061.72 5.60729 0.978346 0
M  V30 10937 N 1062.93 5.08393 2.80209 0
M  V30 10938 H 1065.69 2.9259 -0.648948 0
M  V30 10939 H 1063.25 1.54268 -0.491209 0
M  V30 10940 H 1065.24 3.63395 1.78119 0
M  V30 10941 H 1063.81 2.57161 1.77728 0
M  V30 10942 H 1063.03 3.93024 -0.304262 0
M  V30 10943 H 1064.32 5.08745 0.0749871 0
M  V30 10944 H 1063.72 4.64729 3.22557 0
M  V30 10945 H 1062.28 5.56445 3.3943 0
M  V30 10946 N 1065.71 0.390394 1.52688 0
M  V30 10947 C 1066.64 -0.43567 2.294 0
M  V30 10948 C 1067.62 -1.06253 1.32832 0
M  V30 10949 O 1068.81 -1.07509 1.61726 0
M  V30 10950 C 1065.94 -1.56259 3.10162 0
M  V30 10951 C 1064.89 -1.06172 4.14622 0
M  V30 10952 C 1064.22 -2.2808 4.83615 0
M  V30 10953 C 1065.52 -0.128902 5.22141 0
M  V30 10954 H 1067.21 0.204384 2.98702 0
M  V30 10955 H 1064.76 0.0997377 1.43654 0
M  V30 10956 H 1066.71 -2.14732 3.62585 0
M  V30 10957 H 1065.43 -2.23025 2.38595 0
M  V30 10958 H 1064.09 -0.499518 3.63181 0
M  V30 10959 H 1063.74 -2.93358 4.08595 0
M  V30 10960 H 1063.44 -1.95227 5.5422 0
M  V30 10961 H 1064.96 -2.87193 5.38844 0
M  V30 10962 H 1066.38 -0.621849 5.69917 0
M  V30 10963 H 1064.78 0.109919 5.99999 0
M  V30 10964 H 1065.85 0.821884 4.77884 0
M  V30 10965 N 1067.19 -1.57141 0.120249 0
M  V30 10966 C 1068.6 -1.82256 -0.404931 0
M  V30 10967 C 1068.95 -1.03748 -1.66526 0
M  V30 10968 O 1068.08 -0.274456 -2.14653 0
M  V30 10969 C 1068.67 -3.30588 -0.741431 0
M  V30 10970 C 1067.23 -3.56379 -1.21124 0
M  V30 10971 C 1066.38 -2.76421 -0.220569 0
M  V30 10972 H 1069.33 -1.54897 0.345361 0
M  V30 10973 H 1069.35 -3.45284 -1.59872 0
M  V30 10974 H 1068.86 -3.87701 0.176036 0
M  V30 10975 H 1066.96 -3.04625 -2.14556 0
M  V30 10976 H 1067.07 -4.64952 -1.1557 0
M  V30 10977 H 1065.44 -2.44666 -0.707857 0
M  V30 10978 H 1066.22 -3.36294 0.690018 0
M  V30 10979 N 1068.67 0.153526 -1.5685 0
M  V30 10980 C 1069.6 1.2147 -1.94365 0
M  V30 10981 C 1070.61 1.39532 -0.838726 0
M  V30 10982 O 1071.8 1.39219 -1.11715 0
M  V30 10983 C 1068.9 2.5806 -2.19677 0
M  V30 10984 C 1068.07 2.61062 -3.50949 0
M  V30 10985 C 1067.13 3.79144 -3.64878 0
M  V30 10986 O 1066.16 3.64319 -4.37333 0
M  V30 10987 N 1067.36 4.96333 -3.01054 0
M  V30 10988 H 1070.13 0.895889 -2.85996 0
M  V30 10989 H 1067.69 0.343147 -1.58222 0
M  V30 10990 H 1069.68 3.35553 -2.26243 0
M  V30 10991 H 1068.25 2.8226 -1.34343 0
M  V30 10992 H 1067.47 1.69533 -3.55882 0
M  V30 10993 H 1068.76 2.60094 -4.37297 0
M  V30 10994 H 1068.15 5.1128 -2.42093 0
M  V30 10995 H 1066.71 5.71625 -3.13191 0
M  V30 10996 N 1070.14 1.51827 0.422667 0
M  V30 10997 C 1071.39 1.64893 1.16853 0
M  V30 10998 C 1071.71 0.37456 1.91369 0
M  V30 10999 O 1070.98 -0.610128 1.86157 0
M  V30 11000 H 1069.56 0.607744 0.434345 0
M  V30 11001 H 1072.23 1.88816 0.483159 0
M  V30 11002 H 1071.32 2.48361 1.89006 0
M  V30 11003 O 1071.66 -0.568495 1.51163 0
M  V30 11004 H 1072.35 -1.22356 1.50162 0
M  V30 END ATOM
M  V30 BEGIN BOND
M  V30 END BOND
M  V30 END CTAB
M  END
$$$$
