drugbank_target|P16932 2,2-dialkylglycine decarboxylase (DB02038; DB02849; DB03787; DB04241)
 OpenBabel12092119553D

  0  0  0     0  0            999 V3000
M  V30 BEGIN CTAB
M  V30 COUNTS 6555 6611 0 0 0
M  V30 BEGIN ATOM
M  V30 1 H -0.908 1.98254 -0.117106 0
M  V30 2 N 0 1.576 0 0
M  V30 3 C 0.933 2.03868 1.02534 0
M  V30 4 C 1.911 0.928543 1.3348 0
M  V30 5 O 3.095 1.19667 1.45644 0
M  V30 6 C 0.222 2.43627 2.35294 0
M  V30 7 C -0.732 3.65373 2.2001 0
M  V30 8 S 0.101 5.13292 1.52614 0
M  V30 9 C 1.257 5.56322 2.86805 0
M  V30 10 H 1.49 2.90518 0.631377 0
M  V30 11 H -0.977 1.52953 0.210867 0
M  V30 12 H 0.981 2.67203 3.11629 0
M  V30 13 H -0.358 1.57376 2.7183 0
M  V30 14 H -1.165 3.90944 3.18086 0
M  V30 15 H -1.563 3.418 1.51819 0
M  V30 16 H 0.729 5.58782 3.83104 0
M  V30 17 H 1.672 6.56266 2.65933 0
M  V30 18 H 2.08 4.83886 2.90714 0
M  V30 19 N 1.4781 -0.272755 1.55222 0
M  V30 20 C 2.7031 -1.02683 1.80197 0
M  V30 21 C 3.1281 -1.79142 0.573551 0
M  V30 22 O 2.4861 -1.74917 -0.476849 0
M  V30 23 C 2.5341 -1.9609 3.02624 0
M  V30 24 O 1.6381 -3.04863 2.77727 0
M  V30 25 H 0.9791 -0.293557 0.595584 0
M  V30 26 H 3.5091 -0.30159 2.02365 0
M  V30 27 H 3.5191 -2.38039 3.31363 0
M  V30 28 H 2.1941 -1.39851 3.91682 0
M  V30 29 H 0.7711 -2.67228 2.60084 0
M  V30 30 N 2.9562 -1.48159 -0.537278 0
M  V30 31 C 3.8862 -1.65029 -1.6519 0
M  V30 32 C 4.8672 -0.499281 -1.62607 0
M  V30 33 O 6.0522 -0.730972 -1.79918 0
M  V30 34 C 3.1822 -1.68303 -3.03795 0
M  V30 35 C 2.1362 -2.8283 -3.21234 0
M  V30 36 C 1.4622 -2.71189 -4.60826 0
M  V30 37 C 2.7622 -4.24211 -3.04701 0
M  V30 38 H 4.4562 -2.58341 -1.51328 0
M  V30 39 H 2.0022 -1.24325 -0.726585 0
M  V30 40 H 3.9552 -1.78693 -3.81637 0
M  V30 41 H 2.6792 -0.715635 -3.18663 0
M  V30 42 H 1.3382 -2.71983 -2.45807 0
M  V30 43 H 0.9862 -1.72435 -4.7252 0
M  V30 44 H 0.6862 -3.48035 -4.7344 0
M  V30 45 H 2.2102 -2.83537 -5.40777 0
M  V30 46 H 3.6242 -4.3593 -3.72341 0
M  V30 47 H 2.0212 -5.01998 -3.28813 0
M  V30 48 H 3.0912 -4.41184 -2.01209 0
M  V30 49 N 4.4343 0.785586 -1.36625 0
M  V30 50 C 5.3823 1.91978 -1.31329 0
M  V30 51 C 6.3763 1.68162 -0.204416 0
M  V30 52 O 7.5823 1.76122 -0.371645 0
M  V30 53 H 3.9573 0.631087 -0.408942 0
M  V30 54 H 5.9283 1.93562 -2.27104 0
M  V30 55 C 4.6773 3.29055 -1.12329 0
M  V30 56 H 4.0003 3.4795 -1.96903 0
M  V30 57 H 5.4403 4.08756 -1.12671 0
M  V30 58 C 3.8993 3.36461 0.171861 0
M  V30 59 O 4.4293 3.84576 1.16035 0
M  V30 60 N 2.6353 2.89782 0.217846 0
M  V30 61 H 2.1823 2.50819 -0.587183 0
M  V30 62 H 2.1403 2.95119 1.08408 0
M  V30 63 N 5.9124 1.20967 1.01018 0
M  V30 64 C 7.1894 0.93264 1.71934 0
M  V30 65 C 7.5694 -0.55692 2.03621 0
M  V30 66 O 6.9174 -1.52035 1.7058 0
M  V30 67 C 7.1274 1.81233 2.98254 0
M  V30 68 C 8.4754 2.05804 3.71389 0
M  V30 69 O 9.4994 1.78539 3.08225 0
M  V30 70 O 8.3584 2.51888 4.84989 0
M  V30 71 H 5.4524 0.349272 0.749625 0
M  V30 72 H 7.9984 1.31871 1.06808 0
M  V30 73 H 6.7704 2.82067 2.71208 0
M  V30 74 H 6.3934 1.42674 3.7112 0
M  V30 75 N 7.3905 -1.2043 1.01659 0
M  V30 76 C 8.6675 -1.8548 0.621004 0
M  V30 77 C 9.0475 -1.9091 -0.900919 0
M  V30 78 O 8.3955 -1.41694 -1.79263 0
M  V30 79 C 8.6055 -3.25119 1.2688 0
M  V30 80 C 9.9535 -4.01403 1.38423 0
M  V30 81 O 10.9775 -3.34473 1.22501 0
M  V30 82 O 9.8365 -5.21265 1.64151 0
M  V30 83 H 6.9305 -0.798761 0.214266 0
M  V30 84 H 9.4765 -1.28019 1.11396 0
M  V30 85 H 8.2485 -3.15932 2.30873 0
M  V30 86 H 7.8715 -3.90212 0.762917 0
M  V30 87 N 8.8686 -0.792821 -1.36206 0
M  V30 88 C 9.8316 -0.199459 -2.2833 0
M  V30 89 C 10.8316 0.605189 -1.48977 0
M  V30 90 O 12.0216 0.425685 -1.68919 0
M  V30 91 C 9.1536 0.723523 -3.33134 0
M  V30 92 H 10.3466 -1.01181 -2.82316 0
M  V30 93 H 7.8996 -0.562485 -1.45828 0
M  V30 94 H 8.6346 1.56008 -2.84309 0
M  V30 95 H 8.4196 0.148436 -3.91819 0
M  V30 96 H 9.9096 1.13344 -4.01924 0
M  V30 97 N 10.3467 1.47872 -0.545128 0
M  V30 98 C 11.5747 2.06889 -0.021084 0
M  V30 99 C 11.9897 1.39955 1.2672 0
M  V30 100 O 11.3467 0.492036 1.75742 0
M  V30 101 C 11.3977 3.60996 0.190817 0
M  V30 102 O 11.1187 4.25419 -1.04644 0
M  V30 103 C 12.6197 4.36849 0.753521 0
M  V30 104 H 9.8397 0.669785 -0.0403635 0
M  V30 105 H 12.3837 1.90049 -0.755095 0
M  V30 106 H 10.5387 3.77391 0.87492 0
M  V30 107 H 10.9527 5.17785 -0.836611 0
M  V30 108 H 12.4267 5.45399 0.851139 0
M  V30 109 H 12.9037 4.02306 1.762 0
M  V30 110 H 13.5097 4.25169 0.105503 0
M  V30 111 N 11.8248 0.280983 1.55075 0
M  V30 112 C 13.0718 -0.334115 1.99725 0
M  V30 113 C 13.3998 -1.5542 1.1694 0
M  V30 114 O 12.6548 -1.94361 0.228531 0
M  V30 115 C 12.9538 -0.754656 3.49342 0
M  V30 116 C 12.6198 0.361445 4.49449 0
M  V30 117 C 11.2818 0.667893 4.76542 0
M  V30 118 C 13.6338 1.11322 5.09173 0
M  V30 119 C 10.9618 1.7296 5.60626 0
M  V30 120 C 13.3138 2.1647 5.9441 0
M  V30 121 C 11.9778 2.47742 6.19822 0
M  V30 122 H 11.2478 -0.122261 0.730844 0
M  V30 123 H 13.8948 0.395917 1.87363 0
M  V30 124 H 12.1998 -1.56446 3.5921 0
M  V30 125 H 13.8968 -1.24142 3.813 0
M  V30 126 H 10.4868 0.112481 4.28452 0
M  V30 127 H 14.6708 0.88973 4.8826 0
M  V30 128 H 9.9268 1.97684 5.78559 0
M  V30 129 H 14.1008 2.75193 6.3972 0
M  V30 130 H 11.7278 3.30145 6.84769 0
M  V30 131 N 13.3029 -1.57598 0.00835791 0
M  V30 132 C 14.5489 -1.92046 -0.670055 0
M  V30 133 C 14.9039 -0.88351 -1.70915 0
M  V30 134 O 14.1969 0.103223 -1.91322 0
M  V30 135 C 14.3909 -3.3101 -1.34787 0
M  V30 136 C 14.2199 -4.48126 -0.375945 0
M  V30 137 C 12.9899 -5.05297 0.0166914 0
M  V30 138 C 15.1879 -5.1303 0.361272 0
M  V30 139 N 13.1699 -6.05931 0.985952 0
M  V30 140 C 14.5409 -6.08571 1.18495 0
M  V30 141 C 16.5959 -4.9609 0.42421 0
M  V30 142 C 15.2989 -6.88996 2.06584 0
M  V30 143 C 17.3249 -5.77107 1.29236 0
M  V30 144 C 16.6869 -6.72248 2.10386 0
M  V30 145 H 12.7859 -0.75096 -0.218136 0
M  V30 146 H 15.3699 -1.94572 0.0706669 0
M  V30 147 H 13.5409 -3.29342 -2.05884 0
M  V30 148 H 15.2729 -3.52864 -1.98164 0
M  V30 149 H 12.0279 -4.72279 -0.353435 0
M  V30 150 H 12.4519 -6.60932 1.4662 0
M  V30 151 H 17.0939 -4.22378 -0.188915 0
M  V30 152 H 14.8119 -7.62028 2.6896 0
M  V30 153 H 18.3979 -5.66038 1.34508 0
M  V30 154 H 17.2779 -7.33846 2.76476 0
M  V30 155 N 14.781 0.264519 -1.55364 0
M  V30 156 C 16.197 0.61215 -1.47394 0
M  V30 157 C 16.397 1.89134 -0.695018 0
M  V30 158 O 15.453 2.51563 -0.217275 0
M  V30 159 C 16.766 0.731235 -2.91674 0
M  V30 160 C 18.314 0.82473 -3.01939 0
M  V30 161 C 18.789 0.975522 -4.4749 0
M  V30 162 N 20.28 1.04083 -4.51354 0
M  V30 163 C 21.015 1.17646 -5.61201 0
M  V30 164 N 20.511 1.27874 -6.80896 0
M  V30 165 N 22.304 1.20823 -5.48961 0
M  V30 166 H 14.455 -0.575456 -2.04456 0
M  V30 167 H 16.718 -0.196099 -0.927496 0
M  V30 168 H 16.424 -0.138392 -3.51428 0
M  V30 169 H 16.298 1.60883 -3.41169 0
M  V30 170 H 18.685 1.68482 -2.42276 0
M  V30 171 H 18.766 -0.0776479 -2.55682 0
M  V30 172 H 18.41 0.120058 -5.07758 0
M  V30 173 H 18.34 1.89268 -4.91412 0
M  V30 174 H 20.831 0.973846 -3.65136 0
M  V30 175 H 21.144 1.38081 -7.60364 0
M  V30 176 H 19.489 1.24863 -6.83692 0
M  V30 177 H 22.68 1.12469 -4.54388 0
M  V30 178 H 22.853 1.31049 -6.3461 0
M  V30 179 N 16.2591 1.48442 0.529413 0
M  V30 180 C 17.2071 1.63452 1.65487 0
M  V30 181 C 18.2011 0.500955 1.61823 0
M  V30 182 O 19.4071 0.679695 1.66674 0
M  V30 183 H 15.7821 0.514905 0.548066 0
M  V30 184 H 17.7531 2.57975 1.49971 0
M  V30 185 C 16.5021 1.69196 3.03756 0
M  V30 186 H 15.8251 2.55784 3.07269 0
M  V30 187 H 17.2651 1.83743 3.82119 0
M  V30 188 C 15.7241 0.430765 3.34135 0
M  V30 189 O 16.2541 -0.4561 3.99102 0
M  V30 190 N 14.4601 0.302293 2.89023 0
M  V30 191 H 14.0071 1.02496 2.36331 0
M  V30 192 H 13.9651 -0.540546 3.09718 0
M  V30 193 N 17.7372 -0.778329 1.37039 0
M  V30 194 C 18.7002 -1.87301 1.32102 0
M  V30 195 C 19.7002 -1.59198 0.226405 0
M  V30 196 O 20.8902 -1.67403 0.481861 0
M  V30 197 C 18.0222 -3.24309 1.05055 0
M  V30 198 H 19.2152 -1.93093 2.29467 0
M  V30 199 H 16.7682 -0.977358 1.21973 0
M  V30 200 H 17.5032 -3.24196 0.0819373 0
M  V30 201 H 17.2882 -3.46098 1.84279 0
M  V30 202 H 18.7782 -4.04382 1.04234 0
M  V30 203 N 19.2153 -1.21501 -1.00376 0
M  V30 204 C 20.6313 -0.972629 -1.26539 0
M  V30 205 C 20.8313 0.340257 -1.98606 0
M  V30 206 O 19.8873 1.06561 -2.28913 0
M  V30 207 C 21.2003 -2.16404 -2.08781 0
M  V30 208 C 22.7483 -2.20643 -2.22004 0
M  V30 209 C 23.2233 -3.39306 -3.07629 0
M  V30 210 N 24.7143 -3.39401 -3.15217 0
M  V30 211 C 25.4493 -4.27867 -3.81729 0
M  V30 212 N 24.9453 -5.26533 -4.5026 0
M  V30 213 N 26.7383 -4.15672 -3.78382 0
M  V30 214 H 18.8893 -2.05929 -0.520281 0
M  V30 215 H 21.1523 -0.901803 -0.292328 0
M  V30 216 H 20.8583 -3.11554 -1.63178 0
M  V30 217 H 20.7323 -2.15567 -3.09533 0
M  V30 218 H 23.1193 -1.26048 -2.66825 0
M  V30 219 H 23.2003 -2.25523 -1.20718 0
M  V30 220 H 22.8443 -4.34195 -2.63509 0
M  V30 221 H 22.7743 -3.31665 -4.09031 0
M  V30 222 H 25.2653 -2.67997 -2.66432 0
M  V30 223 H 25.5783 -5.90337 -4.98721 0
M  V30 224 H 23.9233 -5.30457 -4.49044 0
M  V30 225 H 27.1143 -3.3785 -3.23998 0
M  V30 226 H 27.2873 -4.84825 -4.2994 0
M  V30 227 N 20.6934 1.19889 -1.02296 0
M  V30 228 C 21.6254 2.22334 -0.556787 0
M  V30 229 C 22.6384 1.58674 0.364199 0
M  V30 230 O 23.8274 1.77768 0.161533 0
M  V30 231 C 20.9274 3.38257 0.208694 0
M  V30 232 C 20.1004 4.31504 -0.71577 0
M  V30 233 C 19.1594 5.262 0.00325597 0
M  V30 234 O 18.1854 5.65798 -0.621357 0
M  V30 235 N 19.3874 5.66303 1.27599 0
M  V30 236 H 22.1524 2.62957 -1.43784 0
M  V30 237 H 19.7134 1.34495 -0.901261 0
M  V30 238 H 21.7054 3.98616 0.699111 0
M  V30 239 H 20.2754 2.96472 0.991102 0
M  V30 240 H 19.4954 3.69016 -1.38638 0
M  V30 241 H 20.7834 4.9072 -1.34428 0
M  V30 242 H 20.1814 5.36155 1.80429 0
M  V30 243 H 18.7384 6.28942 1.71102 0
M  V30 244 N 22.1715 0.800033 1.35784 0
M  V30 245 C 23.1215 0.178654 2.27299 0
M  V30 246 C 24.1055 -0.643667 1.47464 0
M  V30 247 O 25.2975 -0.502 1.69732 0
M  V30 248 C 22.4265 -0.677194 3.36555 0
M  V30 249 C 21.5125 0.154497 4.23818 0
M  V30 250 N 21.9035 1.21427 4.91008 0
M  V30 251 C 20.2015 -0.0649462 4.45953 0
M  V30 252 C 20.9025 1.72147 5.55644 0
M  V30 253 N 19.8785 1.02897 5.33773 0
M  V30 254 H 23.6805 0.989637 2.76737 0
M  V30 255 H 21.1945 0.64054 1.49234 0
M  V30 256 H 23.1915 -1.13835 4.01058 0
M  V30 257 H 21.8515 -1.4866 2.8867 0
M  V30 258 H 22.8625 1.59684 4.92668 0
M  V30 259 H 19.5395 -0.844016 4.0888 0
M  V30 260 H 20.9295 2.60683 6.19269 0
M  V30 261 N 23.6496 -1.47581 0.552962 0
M  V30 262 C 24.5796 -2.32762 -0.185451 0
M  V30 263 C 25.5606 -1.43527 -0.912905 0
M  V30 264 O 26.7456 -1.72388 -0.894201 0
M  V30 265 C 23.8756 -3.25219 -1.21859 0
M  V30 266 C 22.8296 -4.23661 -0.607864 0
M  V30 267 C 22.1556 -5.05413 -1.74533 0
M  V30 268 C 23.4556 -5.20481 0.435582 0
M  V30 269 H 25.1496 -2.94749 0.525684 0
M  V30 270 H 22.6956 -1.41738 0.254251 0
M  V30 271 H 24.6486 -3.8365 -1.7433 0
M  V30 272 H 23.3726 -2.61279 -1.95961 0
M  V30 273 H 22.0316 -3.66451 -0.104489 0
M  V30 274 H 21.6796 -4.3788 -2.47529 0
M  V30 275 H 21.3796 -5.72059 -1.34249 0
M  V30 276 H 22.9036 -5.66701 -2.27338 0
M  V30 277 H 24.3176 -5.733 -0.00290157 0
M  V30 278 H 22.7146 -5.95305 0.757067 0
M  V30 279 H 23.7846 -4.66217 1.33303 0
M  V30 280 N 25.1277 -0.289203 -1.54924 0
M  V30 281 C 26.3737 0.323998 -2.00195 0
M  V30 282 C 26.7067 1.54441 -1.17735 0
M  V30 283 O 25.9817 1.92875 -0.250878 0
M  V30 284 C 26.2647 0.692276 -3.53383 0
M  V30 285 C 26.1177 -0.536457 -4.46589 0
M  V30 286 C 27.4367 1.52335 -4.12895 0
M  V30 287 H 24.5557 0.116289 -0.727768 0
M  V30 288 H 27.1977 -0.398954 -1.85764 0
M  V30 289 H 25.3477 1.30822 -3.65811 0
M  V30 290 H 27.0197 -1.17499 -4.46085 0
M  V30 291 H 25.2627 -1.17192 -4.1767 0
M  V30 292 H 25.9337 -0.234806 -5.515 0
M  V30 293 H 28.4097 1.00302 -4.0383 0
M  V30 294 H 27.2857 1.74982 -5.20262 0
M  V30 295 H 27.5467 2.50886 -3.64018 0
M  V30 296 N 26.6058 1.57591 -0.0167156 0
M  V30 297 C 28.0218 1.55946 0.339557 0
M  V30 298 C 28.2218 1.02109 1.73713 0
M  V30 299 O 27.2778 0.662303 2.43659 0
M  V30 300 C 28.5908 3.00037 0.199499 0
M  V30 301 C 30.1388 3.11805 0.273193 0
M  V30 302 C 30.6138 4.57713 0.162068 0
M  V30 303 N 32.1048 4.6268 0.219444 0
M  V30 304 C 32.8398 5.73185 0.157054 0
M  V30 305 N 32.3358 6.92786 0.0442936 0
M  V30 306 N 34.1288 5.61707 0.21014 0
M  V30 307 H 26.2798 1.90921 -0.930758 0
M  V30 308 H 28.5428 0.877674 -0.358319 0
M  V30 309 H 28.2488 3.4333 -0.76273 0
M  V30 310 H 28.1228 3.64387 0.974786 0
M  V30 311 H 30.5098 2.68433 1.22587 0
M  V30 312 H 30.5908 2.50201 -0.532256 0
M  V30 313 H 30.2348 5.01763 -0.78714 0
M  V30 314 H 30.1648 5.17283 0.986222 0
M  V30 315 H 32.6558 3.76649 0.307246 0
M  V30 316 H 32.9688 7.728 0.00304069 0
M  V30 317 H 31.3138 6.94999 0.00968457 0
M  V30 318 H 34.5048 4.6716 0.296546 0
M  V30 319 H 34.6778 6.47807 0.158054 0
M  V30 320 N 28.0839 -0.256276 1.55502 0
M  V30 321 C 29.3139 -1.00196 1.80677 0
M  V30 322 C 29.7219 -1.79805 0.588797 0
M  V30 323 O 29.0649 -1.78055 -0.451883 0
M  V30 324 C 29.1269 -1.99515 2.99055 0
M  V30 325 C 28.7909 -1.38688 4.35448 0
M  V30 326 C 29.7879 -0.794079 5.138 0
M  V30 327 C 27.4729 -1.40906 4.82132 0
M  V30 328 C 29.4669 -0.231562 6.36979 0
M  V30 329 C 27.1539 -0.842684 6.05262 0
M  V30 330 C 28.1519 -0.254953 6.82524 0
M  V30 331 O 27.8399 0.3027 8.0333 0
M  V30 332 H 27.5719 -0.300919 0.60533 0
M  V30 333 H 30.1259 -0.287307 2.03381 0
M  V30 334 H 28.3559 -2.74785 2.72084 0
M  V30 335 H 30.0449 -2.60349 3.11405 0
M  V30 336 H 30.8109 -0.769519 4.78856 0
M  V30 337 H 26.6899 -1.85591 4.21992 0
M  V30 338 H 30.2339 0.227816 6.97228 0
M  V30 339 H 26.1309 -0.86454 6.39684 0
M  V30 340 H 26.8989 0.193662 8.18271 0
M  V30 341 N 29.562 -1.4872 -0.521534 0
M  V30 342 C 30.81 -1.56857 -1.27437 0
M  V30 343 C 31.131 -0.247982 -1.93417 0
M  V30 344 O 30.401 0.731151 -1.81744 0
M  V30 345 H 28.981 -0.577885 -0.473347 0
M  V30 346 H 31.643 -1.85233 -0.606205 0
M  V30 347 H 30.739 -2.35402 -2.0492 0
M  V30 348 N 31.0401 0.771051 -1.3745 0
M  V30 349 C 32.2881 1.52661 -1.32435 0
M  V30 350 C 32.6091 1.9479 0.0905024 0
M  V30 351 O 31.8791 1.66348 1.03466 0
M  V30 352 H 30.4591 0.566218 -0.487244 0
M  V30 353 H 33.1211 0.917636 -1.71946 0
M  V30 354 H 32.2171 2.42568 -1.96385 0
M  V30 355 N 32.5182 1.22032 0.997298 0
M  V30 356 C 33.7462 1.06841 1.7718 0
M  V30 357 C 34.1612 -0.381325 1.84909 0
M  V30 358 O 33.5182 -1.26437 1.31605 0
M  V30 359 C 33.5692 1.66814 3.20711 0
M  V30 360 O 33.2902 3.06116 3.13408 0
M  V30 361 C 34.7912 1.56838 4.14628 0
M  V30 362 H 32.0112 0.374782 0.556578 0
M  V30 363 H 34.5552 1.61532 1.2541 0
M  V30 364 H 32.7102 1.16196 3.69564 0
M  V30 365 H 33.1242 3.34926 4.0364 0
M  V30 366 H 34.5982 2.03532 5.13107 0
M  V30 367 H 35.0752 0.524155 4.36061 0
M  V30 368 H 35.6812 2.06741 3.7167 0
M  V30 369 N 33.9963 -1.19345 1.0293 0
M  V30 370 C 35.2433 -1.89038 0.726008 0
M  V30 371 C 35.5713 -1.79649 -0.745427 0
M  V30 372 O 34.8263 -1.18354 -1.55855 0
M  V30 373 C 35.1253 -3.39292 1.12319 0
M  V30 374 C 34.7913 -3.68885 2.59297 0
M  V30 375 C 33.4533 -3.76671 2.99453 0
M  V30 376 C 35.8053 -3.82178 3.54386 0
M  V30 377 C 33.1333 -3.9522 4.33611 0
M  V30 378 C 35.4853 -4.0224 4.88248 0
M  V30 379 C 34.1493 -4.08259 5.28092 0
M  V30 380 H 33.4193 -0.691739 0.265665 0
M  V30 381 H 36.0663 -1.41328 1.29223 0
M  V30 382 H 34.3713 -3.88903 0.475584 0
M  V30 383 H 36.0683 -3.91536 0.866037 0
M  V30 384 H 32.6583 -3.63433 2.27189 0
M  V30 385 H 36.8423 -3.75505 3.24514 0
M  V30 386 H 32.0983 -3.98119 4.64016 0
M  V30 387 H 36.2723 -4.11468 5.61843 0
M  V30 388 H 33.8993 -4.22384 6.32057 0
M  V30 389 N 35.4744 -0.807222 -1.35358 0
M  V30 390 C 36.3844 -0.219594 -2.3357 0
M  V30 391 C 37.4004 0.637734 -1.61892 0
M  V30 392 O 38.5764 0.549336 -1.93763 0
M  V30 393 C 35.6414 0.62158 -3.41083 0
M  V30 394 C 34.7024 -0.256315 -4.28534 0
M  V30 395 C 33.9354 0.544807 -5.30912 0
M  V30 396 O 34.1584 1.77944 -5.41934 0
M  V30 397 O 33.0924 -0.0646478 -6.01865 0
M  V30 398 H 36.9184 -1.03208 -2.85625 0
M  V30 399 H 34.5034 -0.569025 -1.38139 0
M  V30 400 H 36.3854 1.10067 -4.06772 0
M  V30 401 H 35.0604 1.41165 -2.91297 0
M  V30 402 H 33.9674 -0.782559 -3.65823 0
M  V30 403 H 35.3004 -1.01034 -4.81719 0
M  V30 404 N 36.9525 1.47285 -0.560781 0
M  V30 405 C 38.3635 1.86258 -0.128343 0
M  V30 406 C 38.7145 1.46699 1.30284 0
M  V30 407 O 37.8395 0.871698 1.98067 0
M  V30 408 C 38.4345 3.38044 -0.22614 0
M  V30 409 C 36.9935 3.76096 0.151283 0
M  V30 410 C 36.1405 2.71335 -0.572084 0
M  V30 411 H 39.0915 1.38752 -0.770297 0
M  V30 412 H 39.1125 3.76441 0.554322 0
M  V30 413 H 38.6245 3.66806 -1.26788 0
M  V30 414 H 36.7255 3.52951 1.19399 0
M  V30 415 H 36.8385 4.78641 -0.209765 0
M  V30 416 H 35.2025 2.54696 -0.0147653 0
M  V30 417 H 35.9855 3.02938 -1.61504 0
M  V30 418 N 38.4306 0.297415 1.54768 0
M  V30 419 C 39.3636 -0.622188 2.19554 0
M  V30 420 C 40.3416 -1.13558 1.16376 0
M  V30 421 O 41.5256 -1.20444 1.45002 0
M  V30 422 C 38.6526 -1.8509 2.83653 0
M  V30 423 C 37.6986 -1.47106 4.00328 0
M  V30 424 S 38.5316 -0.53006 5.3287 0
M  V30 425 C 39.6876 -1.76665 6.0045 0
M  V30 426 H 39.9206 -0.0717806 2.97213 0
M  V30 427 H 37.4536 0.0815678 1.54184 0
M  V30 428 H 39.4116 -2.55605 3.21211 0
M  V30 429 H 38.0726 -2.37247 2.05846 0
M  V30 430 H 37.2656 -2.38594 4.43947 0
M  V30 431 H 36.8676 -0.845885 3.64309 0
M  V30 432 H 39.1596 -2.7077 6.21039 0
M  V30 433 H 40.1026 -1.37308 6.9466 0
M  V30 434 H 40.5106 -1.94174 5.30054 0
M  V30 435 N 39.9087 -1.5758 0.0250728 0
M  V30 436 C 41.1577 -1.90811 -0.653767 0
M  V30 437 C 41.4707 -0.90273 -1.73523 0
M  V30 438 O 42.6767 -1.12614 -2.47043 0
M  V30 439 C 41.1327 -3.38804 -1.21409 0
M  V30 440 C 40.7407 -4.47692 -0.166126 0
M  V30 441 C 42.4847 -3.81108 -1.86967 0
M  V30 442 C 40.3917 -5.86779 -0.737856 0
M  V30 443 H 39.3217 -0.712063 -0.247956 0
M  V30 444 H 41.9727 -1.83281 0.0897137 0
M  V30 445 H 40.3547 -3.41252 -2.00905 0
M  V30 446 H 41.5287 -4.56797 0.606079 0
M  V30 447 H 39.8437 -4.14565 0.390466 0
M  V30 448 H 42.4407 -4.82375 -2.30692 0
M  V30 449 H 42.7837 -3.15953 -2.71071 0
M  V30 450 H 43.3167 -3.81065 -1.14167 0
M  V30 451 H 40.0557 -6.55468 0.0649577 0
M  V30 452 H 39.5757 -5.81288 -1.47864 0
M  V30 453 H 41.2547 -6.35223 -1.22884 0
M  V30 454 N 41.3868 0.248026 -1.55636 0
M  V30 455 C 42.6358 0.974134 -1.76617 0
M  V30 456 C 42.9488 1.86528 -0.588796 0
M  V30 457 O 44.1548 2.62805 -0.681594 0
M  V30 458 C 42.6108 1.78213 -3.12679 0
M  V30 459 C 42.2188 0.93843 -4.38061 0
M  V30 460 C 43.9628 2.50104 -3.42999 0
M  V30 461 C 41.8698 1.74225 -5.65155 0
M  V30 462 H 40.7998 0.36745 -0.658405 0
M  V30 463 H 43.4508 0.22884 -1.82067 0
M  V30 464 H 41.8328 2.56933 -3.01333 0
M  V30 465 H 43.0068 0.193635 -4.60393 0
M  V30 466 H 41.3218 0.332905 -4.15067 0
M  V30 467 H 43.9188 3.10694 -4.3517 0
M  V30 468 H 44.2618 3.21662 -2.64271 0
M  V30 469 H 44.7948 1.78395 -3.55556 0
M  V30 470 H 41.5338 1.07043 -6.46701 0
M  V30 471 H 41.0538 2.46235 -5.46926 0
M  V30 472 H 42.7328 2.30967 -6.0437 0
M  V30 473 N 42.8649 1.48995 0.513639 0
M  V30 474 C 43.7749 1.67443 1.64317 0
M  V30 475 C 44.7909 0.556947 1.64846 0
M  V30 476 O 45.9669 0.830082 1.83498 0
M  V30 477 C 43.0319 1.72515 3.00732 0
M  V30 478 C 42.0929 2.96009 3.1093 0
M  V30 479 C 41.3259 3.00829 4.40837 0
M  V30 480 O 41.5489 2.13594 5.28898 0
M  V30 481 O 40.4829 3.93168 4.55744 0
M  V30 482 H 44.3089 2.63106 1.51687 0
M  V30 483 H 41.8939 1.32588 0.688543 0
M  V30 484 H 43.7759 1.78277 3.81831 0
M  V30 485 H 42.4509 0.800278 3.13651 0
M  V30 486 H 41.3579 2.9577 2.29065 0
M  V30 487 H 42.6909 3.87934 3.02933 0
M  V30 488 N 44.343 -0.763751 1.37857 0
M  V30 489 C 45.759 -1.06542 1.18832 0
M  V30 490 C 45.959 -2.01478 0.0299722 0
M  V30 491 O 45.015 -2.4458 -0.627447 0
M  V30 492 C 46.328 -1.65525 2.51042 0
M  V30 493 C 47.876 -1.77745 2.57635 0
M  V30 494 C 48.351 -2.4014 3.89996 0
M  V30 495 N 49.842 -2.47582 3.91481 0
M  V30 496 C 50.577 -2.96732 4.9065 0
M  V30 497 N 50.073 -3.45993 6.00217 0
M  V30 498 N 51.866 -2.95679 4.78048 0
M  V30 499 H 44.017 -0.133556 2.1198 0
M  V30 500 H 46.28 -0.121879 0.940133 0
M  V30 501 H 45.986 -1.03236 3.36207 0
M  V30 502 H 45.86 -2.64719 2.68707 0
M  V30 503 H 48.247 -2.39164 1.72872 0
M  V30 504 H 48.328 -0.772836 2.43846 0
M  V30 505 H 47.972 -1.79358 4.75177 0
M  V30 506 H 47.902 -3.41223 4.01092 0
M  V30 507 H 50.393 -2.1273 3.12337 0
M  V30 508 H 50.706 -3.81922 6.7183 0
M  V30 509 H 49.051 -3.44077 6.03851 0
M  V30 510 H 52.242 -2.56499 3.91568 0
M  V30 511 H 52.415 -3.33672 5.55488 0
M  V30 512 N 45.8211 -1.22559 -0.990812 0
M  V30 513 C 46.7841 -0.998863 -2.0629 0
M  V30 514 C 47.7841 0.0354834 -1.60761 0
M  V30 515 O 48.9741 -0.203231 -1.7301 0
M  V30 516 C 46.1061 -0.509203 -3.37076 0
M  V30 517 H 47.2991 -1.95014 -2.27837 0
M  V30 518 H 44.8521 -1.04456 -1.16269 0
M  V30 519 H 45.5871 0.446335 -3.21214 0
M  V30 520 H 45.3721 -1.25547 -3.71457 0
M  V30 521 H 46.8621 -0.370888 -4.1595 0
M  V30 522 N 47.2992 1.18797 -1.03562 0
M  V30 523 C 48.2462 2.22253 -0.622259 0
M  V30 524 C 49.2162 1.61987 0.36736 0
M  V30 525 O 50.4012 1.88986 0.262492 0
M  V30 526 C 47.5412 3.45097 0.0138462 0
M  V30 527 C 46.6542 4.19722 -1.02263 0
M  V30 528 C 45.7892 5.30009 -0.355573 0
M  V30 529 C 44.8282 5.96399 -1.37749 0
M  V30 530 N 43.9652 6.98234 -0.735766 0
M  V30 531 H 48.8052 2.56968 -1.50903 0
M  V30 532 H 46.3422 1.26245 -0.755017 0
M  V30 533 H 48.3002 4.15279 0.399948 0
M  V30 534 H 46.9302 3.11018 0.864158 0
M  V30 535 H 45.9822 3.48418 -1.52673 0
M  V30 536 H 47.2942 4.65227 -1.79903 0
M  V30 537 H 46.4482 6.0664 0.0850095 0
M  V30 538 H 45.1872 4.85592 0.452967 0
M  V30 539 H 44.1922 5.18512 -1.82826 0
M  V30 540 H 45.4172 6.42899 -2.18764 0
M  V30 541 H 43.3632 6.55979 0.0525597 0
M  V30 542 H 43.2802 7.41965 -1.44995 0
M  V30 543 H 44.5482 7.78845 -0.31941 0
M  V30 544 N 48.7773 0.814389 1.34928 0
M  V30 545 C 50.0253 0.397636 1.9815 0
M  V30 546 C 50.3463 -1.04069 1.64908 0
M  V30 547 O 49.6163 -1.72121 0.93548 0
M  V30 548 H 48.1963 0.144043 0.732981 0
M  V30 549 H 50.8583 1.04195 1.6471 0
M  V30 550 H 49.9543 0.509688 3.0791 0
M  V30 551 N 50.2554 -1.46986 0.568584 0
M  V30 552 C 51.4804 -2.07335 0.0520528 0
M  V30 553 C 51.9054 -1.41675 -1.23733 0
M  V30 554 O 51.2634 -0.495623 -1.74394 0
M  V30 555 C 51.3114 -3.60417 -0.11501 0
M  V30 556 O 50.4154 -3.95309 -1.17492 0
M  V30 557 H 49.7564 -0.661597 0.0564385 0
M  V30 558 H 52.2864 -1.88837 0.787507 0
M  V30 559 H 52.2964 -4.06698 -0.325644 0
M  V30 560 H 50.9714 -4.07601 0.826675 0
M  V30 561 H 49.5484 -3.60757 -0.943869 0
M  V30 562 N 51.7335 -0.305618 -1.54608 0
M  V30 563 C 52.9805 0.302298 -2.00231 0
M  V30 564 C 53.3085 1.5354 -1.19398 0
M  V30 565 O 52.5635 1.93973 -0.259423 0
M  V30 566 C 52.8625 0.698983 -3.50498 0
M  V30 567 C 52.5285 -0.432903 -4.48817 0
M  V30 568 C 51.1905 -0.743622 -4.75419 0
M  V30 569 C 53.5425 -1.19409 -5.07337 0
M  V30 570 C 50.8705 -1.81857 -5.57804 0
M  V30 571 C 53.2225 -2.25899 -5.90891 0
M  V30 572 C 51.8865 -2.57572 -6.15803 0
M  V30 573 H 51.1565 0.110619 -0.732697 0
M  V30 574 H 53.8035 -0.425674 -1.86709 0
M  V30 575 H 52.1085 1.50711 -3.61654 0
M  V30 576 H 53.8055 1.1806 -3.83227 0
M  V30 577 H 50.3955 -0.18063 -4.28219 0
M  V30 578 H 54.5795 -0.967295 -4.86782 0
M  V30 579 H 49.8355 -2.06864 -5.75341 0
M  V30 580 H 54.0095 -2.85335 -6.35261 0
M  V30 581 H 51.6365 -3.40998 -6.7943 0
M  V30 582 N 53.2116 1.57565 -0.0334293 0
M  V30 583 C 54.4576 1.92262 0.645226 0
M  V30 584 C 54.7906 0.910543 1.71531 0
M  V30 585 O 54.0656 -0.066099 1.94388 0
M  V30 586 C 54.3486 3.37422 1.2577 0
M  V30 587 C 54.2016 4.49369 0.196891 0
M  V30 588 C 55.5206 3.82628 2.17449 0
M  V30 589 H 52.6396 0.699171 0.233085 0
M  V30 590 H 55.2816 1.89779 -0.0915694 0
M  V30 591 H 53.4316 3.39669 1.88566 0
M  V30 592 H 55.1036 4.59254 -0.433962 0
M  V30 593 H 53.3466 4.31168 -0.477137 0
M  V30 594 H 54.0176 5.47978 0.665124 0
M  V30 595 H 56.4936 3.82145 1.64634 0
M  V30 596 H 55.3696 4.84883 2.57254 0
M  V30 597 H 55.6306 3.18376 3.0674 0
M  V30 598 N 54.6897 -0.239769 1.55765 0
M  V30 599 C 55.9197 -0.982743 1.8173 0
M  V30 600 C 56.3277 -1.7917 0.607835 0
M  V30 601 O 55.6707 -1.78525 -0.432973 0
M  V30 602 C 55.7327 -1.96332 3.01155 0
M  V30 603 C 55.3967 -1.34062 4.36894 0
M  V30 604 C 56.3937 -0.739539 5.14613 0
M  V30 605 C 54.0787 -1.35784 4.83599 0
M  V30 606 C 56.0727 -0.163989 6.37189 0
M  V30 607 C 53.7597 -0.778441 6.06122 0
M  V30 608 C 54.7577 -0.182548 6.82756 0
M  V30 609 O 54.4457 0.387887 8.02964 0
M  V30 610 H 54.1777 -0.294481 0.608487 0
M  V30 611 H 56.7317 -0.26572 2.03674 0
M  V30 612 H 54.9617 -2.71884 2.74984 0
M  V30 613 H 56.6507 -2.57032 3.14149 0
M  V30 614 H 57.4167 -0.718687 4.79646 0
M  V30 615 H 53.2957 -1.81105 4.23936 0
M  V30 616 H 56.8397 0.301753 6.96947 0
M  V30 617 H 52.7367 -0.796645 6.40565 0
M  V30 618 H 53.5047 0.28044 8.18019 0
M  V30 619 N 56.1678 -1.49265 -0.50573 0
M  V30 620 C 57.4448 -1.49012 -1.26707 0
M  V30 621 C 57.8248 -0.215205 -2.1 0
M  V30 622 O 57.1728 0.802547 -2.13943 0
M  V30 623 C 57.3828 -2.7663 -2.12783 0
M  V30 624 C 58.7308 -3.25932 -2.72127 0
M  V30 625 O 59.7548 -2.77715 -2.23054 0
M  V30 626 O 58.6138 -4.09897 -3.61451 0
M  V30 627 H 55.7078 -0.596197 -0.57313 0
M  V30 628 H 58.2538 -1.61524 -0.52039 0
M  V30 629 H 57.0258 -3.60916 -1.5118 0
M  V30 630 H 56.6488 -2.66956 -2.94653 0
M  V30 631 N 57.6459 0.756429 -1.3826 0
M  V30 632 C 58.6089 1.85176 -1.35065 0
M  V30 633 C 59.6089 1.58818 -0.251703 0
M  V30 634 O 60.7989 1.66615 -0.508433 0
M  V30 635 C 57.9309 3.22596 -1.10201 0
M  V30 636 H 59.1239 1.89417 -2.3251 0
M  V30 637 H 56.6769 0.95783 -1.23512 0
M  V30 638 H 57.4119 3.24025 -0.133504 0
M  V30 639 H 57.1969 3.43122 -1.89762 0
M  V30 640 H 58.6869 4.02673 -1.10654 0
M  V30 641 N 59.124 1.23083 0.984299 0
M  V30 642 C 60.401 0.9689 1.69917 0
M  V30 643 C 60.781 -0.513604 2.04757 0
M  V30 644 O 60.129 -1.48383 1.73767 0
M  V30 645 C 60.339 1.87518 2.94343 0
M  V30 646 C 61.687 2.13636 3.6694 0
M  V30 647 O 62.711 1.85036 3.04368 0
M  V30 648 O 61.57 2.62119 4.79537 0
M  V30 649 H 58.664 0.365095 0.742048 0
M  V30 650 H 61.21 1.34107 1.03987 0
M  V30 651 H 59.982 2.87756 2.65164 0
M  V30 652 H 59.605 1.50514 3.6801 0
M  V30 653 N 60.6021 -1.18246 1.0419 0
M  V30 654 C 61.8501 -1.87886 0.744543 0
M  V30 655 C 62.1711 -1.8082 -0.730006 0
M  V30 656 O 61.4411 -1.22736 -1.52685 0
M  V30 657 H 60.0211 -0.695556 0.272417 0
M  V30 658 H 62.6831 -1.43494 1.31892 0
M  V30 659 H 61.7791 -2.9389 1.05049 0
M  V30 660 N 62.0802 -0.821533 -1.34494 0
M  V30 661 C 63.4962 -0.507117 -1.51329 0
M  V30 662 C 63.6962 0.968964 -1.76673 0
M  V30 663 O 62.7522 1.75348 -1.81685 0
M  V30 664 C 64.0652 -1.36544 -2.67911 0
M  V30 665 C 65.6132 -1.36242 -2.81793 0
M  V30 666 C 66.0882 -2.2052 -4.01416 0
M  V30 667 N 67.5792 -2.18136 -4.08621 0
M  V30 668 C 68.3142 -2.80095 -5.00334 0
M  V30 669 N 67.8102 -3.51039 -5.9728 0
M  V30 670 N 69.6032 -2.69656 -4.93196 0
M  V30 671 H 61.7542 -1.77729 -1.16302 0
M  V30 672 H 64.0172 -0.757291 -0.570276 0
M  V30 673 H 63.7232 -2.41361 -2.55808 0
M  V30 674 H 63.5972 -1.02917 -3.62888 0
M  V30 675 H 65.9842 -0.322041 -2.93338 0
M  V30 676 H 66.0652 -1.73866 -1.87628 0
M  V30 677 H 65.7092 -3.24607 -3.90631 0
M  V30 678 H 65.6392 -1.80247 -4.94791 0
M  V30 679 H 68.1302 -1.6653 -3.39229 0
M  V30 680 H 68.4432 -3.95565 -6.63889 0
M  V30 681 H 66.7882 -3.55145 -5.97409 0
M  V30 682 H 69.9792 -2.13808 -4.16418 0
M  V30 683 H 70.1522 -3.1823 -5.64476 0
M  V30 684 N 63.5583 1.46682 -0.576371 0
M  V30 685 C 64.5213 2.28707 0.150239 0
M  V30 686 C 65.5213 1.38035 0.824794 0
M  V30 687 O 66.7113 1.60476 0.677719 0
M  V30 688 C 63.8433 3.18248 1.22192 0
M  V30 689 H 65.0363 2.94423 -0.570521 0
M  V30 690 H 62.5893 1.52688 -0.334078 0
M  V30 691 H 63.3243 2.57265 1.97447 0
M  V30 692 H 63.1093 3.85 0.742812 0
M  V30 693 H 64.5993 3.80001 1.73172 0
M  V30 694 N 65.0364 0.313813 1.54444 0
M  V30 695 C 66.2854 -0.292519 1.99568 0
M  V30 696 C 66.5984 -1.54011 1.20582 0
M  V30 697 O 67.8044 -2.22183 1.56035 0
M  V30 698 C 66.2604 -0.571752 3.55329 0
M  V30 699 C 65.8684 0.658229 4.43138 0
M  V30 700 C 67.6124 -1.13857 4.08946 0
M  V30 701 C 65.5194 0.351439 5.90355 0
M  V30 702 H 64.4494 -0.113079 0.745472 0
M  V30 703 H 67.1004 0.424518 1.78522 0
M  V30 704 H 65.4824 -1.34872 3.72325 0
M  V30 705 H 66.6564 1.43403 4.37918 0
M  V30 706 H 64.9714 1.14458 4.0036 0
M  V30 707 H 67.5684 -1.38257 5.16516 0
M  V30 708 H 67.9114 -2.08489 3.6033 0
M  V30 709 H 68.4444 -0.423015 3.95544 0
M  V30 710 H 65.1834 1.26667 6.43145 0
M  V30 711 H 64.7034 -0.386842 5.98551 0
M  V30 712 H 66.3824 -0.0423134 6.46986 0
M  V30 713 N 66.5145 -1.57545 0.0417849 0
M  V30 714 C 67.4445 -2.14009 -0.933929 0
M  V30 715 C 68.4255 -1.05938 -1.33083 0
M  V30 716 O 69.6105 -1.33833 -1.40721 0
M  V30 717 C 66.7405 -2.67747 -2.21199 0
M  V30 718 C 65.6945 -3.80718 -1.95544 0
M  V30 719 C 65.0205 -4.20935 -3.29724 0
M  V30 720 C 66.3205 -5.06258 -1.28452 0
M  V30 721 H 68.0145 -2.95788 -0.463645 0
M  V30 722 H 65.5605 -1.42285 -0.221573 0
M  V30 723 H 67.5135 -3.05886 -2.89848 0
M  V30 724 H 66.2375 -1.83147 -2.70416 0
M  V30 725 H 64.8965 -3.43037 -1.2931 0
M  V30 726 H 64.5445 -3.33298 -3.76724 0
M  V30 727 H 64.2445 -4.9707 -3.13361 0
M  V30 728 H 65.7685 -4.61666 -3.9962 0
M  V30 729 H 67.1825 -5.41903 -1.8712 0
M  V30 730 H 65.5795 -5.87475 -1.22445 0
M  V30 731 H 66.6495 -4.84207 -0.259219 0
M  V30 732 N 67.9926 0.231505 -1.5589 0
M  V30 733 C 69.2696 0.981096 -1.69215 0
M  V30 734 C 69.6496 2.02799 -0.586164 0
M  V30 735 O 68.9976 2.24823 0.408253 0
M  V30 736 C 69.2076 1.60054 -3.10135 0
M  V30 737 C 70.5556 2.09658 -3.69227 0
M  V30 738 O 71.5796 1.69967 -3.13033 0
M  V30 739 O 70.4386 2.8258 -4.67772 0
M  V30 740 H 67.5326 0.457653 -0.688827 0
M  V30 741 H 70.0786 0.224073 -1.68214 0
M  V30 742 H 68.8506 0.844105 -3.82087 0
M  V30 743 H 68.4736 2.42336 -3.15212 0
M  V30 744 N 69.4707 1.49531 0.497807 0
M  V30 745 C 70.7177 1.59179 1.25173 0
M  V30 746 C 71.0457 0.279932 1.92475 0
M  V30 747 O 70.3007 -0.732383 1.81479 0
M  V30 748 C 70.5997 2.70252 2.33878 0
M  V30 749 C 70.2657 4.11644 1.84012 0
M  V30 750 C 68.9277 4.50121 1.70132 0
M  V30 751 C 71.2797 5.00121 1.46725 0
M  V30 752 C 68.6077 5.74845 1.17348 0
M  V30 753 C 70.9597 6.25366 0.95392 0
M  V30 754 C 69.6237 6.6267 0.801538 0
M  V30 755 H 68.8937 0.582478 0.45804 0
M  V30 756 H 71.5407 1.83373 0.551948 0
M  V30 757 H 69.8457 2.40041 3.09657 0
M  V30 758 H 71.5427 2.74925 2.9192 0
M  V30 759 H 68.1327 3.81274 1.95775 0
M  V30 760 H 72.3167 4.71048 1.56294 0
M  V30 761 H 67.5727 6.02444 1.04264 0
M  V30 762 H 71.7467 6.93301 0.656225 0
M  V30 763 H 69.3737 7.59197 0.390351 0
M  V30 764 N 70.9488 -0.749086 1.3866 0
M  V30 765 C 72.1768 -1.53834 1.38358 0
M  V30 766 C 72.5918 -1.88783 -0.0255219 0
M  V30 767 O 71.9488 -1.53101 -0.993292 0
M  V30 768 C 71.9998 -2.83468 2.2434 0
M  V30 769 O 71.7208 -2.50008 3.5976 0
M  V30 770 C 73.2218 -3.7758 2.32267 0
M  V30 771 H 70.4418 -0.47585 0.473083 0
M  V30 772 H 72.9858 -0.926726 1.82297 0
M  V30 773 H 71.1408 -3.40995 1.83851 0
M  V30 774 H 71.5548 -3.33182 4.05081 0
M  V30 775 H 73.0288 -4.65478 2.96706 0
M  V30 776 H 73.5058 -4.18334 1.33765 0
M  V30 777 H 74.1118 -3.25976 2.73166 0
M  V30 778 N 72.4269 -1.23603 -0.977757 0
M  V30 779 C 73.6519 -1.09735 -1.75991 0
M  V30 780 C 74.0769 0.346858 -1.84874 0
M  V30 781 O 73.4349 1.25093 -1.3123 0
M  V30 782 C 73.4829 -1.73051 -3.16363 0
M  V30 783 O 72.5869 -0.994452 -4.0023 0
M  V30 784 H 71.9279 -0.384476 -0.541364 0
M  V30 785 H 74.4579 -1.6371 -1.2272 0
M  V30 786 H 74.4679 -1.78398 -3.66931 0
M  V30 787 H 73.1429 -2.78137 -3.09213 0
M  V30 788 H 71.7199 -1.01812 -3.58732 0
M  V30 789 N 73.905 1.17692 -1.04816 0
M  V30 790 C 75.153 1.87488 -0.754497 0
M  V30 791 C 75.474 1.81205 0.720407 0
M  V30 792 O 74.744 1.23544 1.52032 0
M  V30 793 H 73.324 0.694101 -0.276102 0
M  V30 794 H 75.986 1.42793 -1.32651 0
M  V30 795 H 75.082 2.93328 -1.06606 0
M  V30 796 N 75.3831 0.828654 1.34056 0
M  V30 797 C 76.3151 0.212052 2.28217 0
M  V30 798 C 77.3281 -0.601362 1.51286 0
M  V30 799 O 78.5171 -0.430104 1.73241 0
M  V30 800 C 75.6171 -0.72088 3.31144 0
M  V30 801 C 74.7901 0.0509587 4.3737 0
M  V30 802 C 73.8491 -0.803766 5.20025 0
M  V30 803 O 72.8751 -0.246667 5.68665 0
M  V30 804 N 74.0771 -2.1227 5.40298 0
M  V30 805 H 76.8421 1.02105 2.81771 0
M  V30 806 H 74.4031 0.686153 1.46641 0
M  V30 807 H 76.3951 -1.29742 3.8334 0
M  V30 808 H 74.9651 -1.43061 2.77943 0
M  V30 809 H 74.1851 0.808831 3.85813 0
M  V30 810 H 75.4731 0.582065 5.0546 0
M  V30 811 H 74.8711 -2.59898 5.02464 0
M  V30 812 H 73.4281 -2.64796 5.95589 0
M  V30 813 N 76.8612 -1.46375 0.584142 0
M  V30 814 C 77.7942 -2.27351 -0.196676 0
M  V30 815 C 78.7722 -1.35715 -0.895561 0
M  V30 816 O 79.9562 -1.65126 -0.90916 0
M  V30 817 C 77.0832 -3.13486 -1.28235 0
M  V30 818 C 76.1292 -4.20896 -0.689145 0
M  V30 819 S 76.9622 -5.33299 0.48507 0
M  V30 820 C 78.1182 -6.23 -0.601767 0
M  V30 821 H 78.3512 -2.93228 0.490395 0
M  V30 822 H 75.8842 -1.49875 0.371071 0
M  V30 823 H 77.8422 -3.63676 -1.90395 0
M  V30 824 H 76.5032 -2.4692 -1.94138 0
M  V30 825 H 75.6962 -4.80997 -1.50527 0
M  V30 826 H 75.2982 -3.73726 -0.143181 0
M  V30 827 H 77.5902 -6.60979 -1.48705 0
M  V30 828 H 78.5332 -7.0809 -0.0374799 0
M  V30 829 H 78.9412 -5.57173 -0.906557 0
M  V30 830 N 78.3393 -0.321999 -1.54275 0
M  V30 831 C 79.5643 0.285791 -2.05422 0
M  V30 832 C 79.9893 1.45124 -1.19669 0
M  V30 833 O 79.3473 1.80132 -0.205441 0
M  V30 834 C 79.3953 0.69956 -3.53749 0
M  V30 835 O 78.4993 1.8021 -3.70942 0
M  V30 836 H 77.8403 0.0518962 -0.661969 0
M  V30 837 H 80.3703 -0.469954 -1.9913 0
M  V30 838 H 80.3803 0.982649 -3.9599 0
M  V30 839 H 79.0553 -0.152864 -4.15619 0
M  V30 840 H 77.6323 1.51794 -3.40607 0
M  V30 841 N 79.8174 1.5752 -0.0501392 0
M  V30 842 C 80.7804 2.1037 0.909786 0
M  V30 843 C 81.7804 1.02308 1.24056 0
M  V30 844 O 82.9704 1.28385 1.17741 0
M  V30 845 C 80.1024 2.58708 2.21998 0
M  V30 846 H 81.2954 2.96479 0.451665 0
M  V30 847 H 78.8484 1.55038 0.198248 0
M  V30 848 H 79.5834 1.75989 2.72394 0
M  V30 849 H 79.3684 3.37675 1.99295 0
M  V30 850 H 80.8584 2.99747 2.9076 0
M  V30 851 N 81.2955 -0.223234 1.56011 0
M  V30 852 C 82.5415 -0.949279 1.79211 0
M  V30 853 C 82.8745 -1.84054 0.619494 0
M  V30 854 O 82.1495 -1.90726 -0.381317 0
M  V30 855 C 82.4325 -1.78965 3.12479 0
M  V30 856 C 82.2855 -0.924997 4.40186 0
M  V30 857 C 83.6045 -2.76774 3.42175 0
M  V30 858 H 80.7235 -0.343676 0.651963 0
M  V30 859 H 83.3655 -0.218253 1.88742 0
M  V30 860 H 81.5155 -2.41291 3.04485 0
M  V30 861 H 83.1875 -0.318615 4.60198 0
M  V30 862 H 81.4305 -0.230344 4.33188 0
M  V30 863 H 82.1015 -1.54735 5.29869 0
M  V30 864 H 84.5775 -2.24584 3.50287 0
M  V30 865 H 83.4535 -3.32678 4.36597 0
M  V30 866 H 83.7145 -3.54429 2.64258 0
M  V30 867 N 82.7736 -1.49793 -0.48987 0
M  V30 868 C 83.7036 -1.70201 -1.59856 0
M  V30 869 C 84.6846 -0.55076 -1.60937 0
M  V30 870 O 85.8696 -0.787841 -1.77501 0
M  V30 871 C 82.9996 -1.77882 -2.98287 0
M  V30 872 C 81.9536 -2.92907 -3.12073 0
M  V30 873 C 81.2796 -2.85712 -4.51965 0
M  V30 874 C 82.5796 -4.3369 -2.91051 0
M  V30 875 H 84.2736 -2.63025 -1.43032 0
M  V30 876 H 81.8196 -1.26574 -0.686664 0
M  V30 877 H 83.7726 -1.90744 -3.75759 0
M  V30 878 H 82.4966 -0.816653 -3.16225 0
M  V30 879 H 81.1556 -2.79665 -2.37029 0
M  V30 880 H 80.8036 -1.8738 -4.66795 0
M  V30 881 H 80.5036 -3.62921 -4.62128 0
M  V30 882 H 82.0276 -3.00598 -5.31482 0
M  V30 883 H 83.4416 -4.47555 -3.58284 0
M  V30 884 H 81.8386 -5.12205 -3.12675 0
M  V30 885 H 82.9086 -4.47362 -1.87071 0
M  V30 886 N 84.2517 0.741722 -1.39055 0
M  V30 887 C 85.4997 1.49818 -1.35643 0
M  V30 888 C 85.8207 1.94938 0.0491642 0
M  V30 889 O 85.0907 1.68505 0.999141 0
M  V30 890 H 83.6707 0.555755 -0.499144 0
M  V30 891 H 86.3327 0.880957 -1.73854 0
M  V30 892 H 85.4287 2.38348 -2.01486 0
M  V30 893 N 85.7298 1.2412 0.971189 0
M  V30 894 C 86.6798 0.997551 2.05019 0
M  V30 895 C 87.6638 -0.0597747 1.60789 0
M  V30 896 O 88.8558 0.153516 1.76333 0
M  V30 897 C 85.9848 0.600557 3.38006 0
M  V30 898 C 85.0708 1.69377 3.88809 0
M  V30 899 N 85.4618 2.92586 4.12586 0
M  V30 900 C 83.7598 1.57048 4.17435 0
M  V30 901 C 84.4608 3.63431 4.54195 0
M  V30 902 N 83.4368 2.90979 4.59165 0
M  V30 903 H 87.2388 1.93316 2.21374 0
M  V30 904 H 84.7528 1.14194 1.1547 0
M  V30 905 H 86.7498 0.40725 4.14906 0
M  V30 906 H 85.4098 -0.327903 3.2304 0
M  V30 907 H 86.4208 3.288 4.00139 0
M  V30 908 H 83.0978 0.709798 4.11422 0
M  V30 909 H 84.4878 4.69102 4.81033 0
M  V30 910 N 87.2079 -1.17134 1.05439 0
M  V30 911 C 88.4479 -1.89137 0.77502 0
M  V30 912 C 88.8119 -1.79345 -0.685526 0
M  V30 913 O 90.0129 -2.46188 -1.0791 0
M  V30 914 C 88.2839 -3.35003 1.2453 0
M  V30 915 S 89.8429 -4.24952 1.09367 0
M  V30 916 H 86.6609 -0.652949 0.281387 0
M  V30 917 H 89.2629 -1.4145 1.34953 0
M  V30 918 H 87.9669 -3.39666 2.30338 0
M  V30 919 H 87.4979 -3.87736 0.665166 0
M  V30 920 H 89.5129 -4.96196 0.0193397 0
M  V30 921 N 88.686 -0.835752 -1.33615 0
M  V30 922 C 89.636 -0.238856 -2.26745 0
M  V30 923 C 90.62 0.604343 -1.49119 0
M  V30 924 O 91.812 0.456822 -1.71003 0
M  V30 925 C 88.941 0.587725 -3.38232 0
M  V30 926 C 88.027 -0.266811 -4.2326 0
M  V30 927 N 88.418 -1.34403 -4.87616 0
M  V30 928 C 86.716 -0.0533131 -4.45968 0
M  V30 929 C 87.417 -1.86819 -5.50884 0
M  V30 930 N 86.393 -1.17013 -5.30857 0
M  V30 931 H 90.195 -1.06266 -2.74016 0
M  V30 932 H 87.709 -0.679881 -1.47483 0
M  V30 933 H 89.706 1.03161 -4.03935 0
M  V30 934 H 88.366 1.40954 -2.9251 0
M  V30 935 H 89.377 -1.7269 -4.88261 0
M  V30 936 H 86.054 0.735312 -4.10974 0
M  V30 937 H 87.444 -2.7701 -6.1214 0
M  V30 938 N 90.1641 1.46063 -0.591896 0
M  V30 939 C 91.5751 1.85944 -0.167822 0
M  V30 940 C 91.9261 1.49429 1.27143 0
M  V30 941 O 91.0511 0.913515 1.96173 0
M  V30 942 C 91.6461 3.37489 -0.297794 0
M  V30 943 C 90.2051 3.76332 0.0714732 0
M  V30 944 C 89.3521 2.7006 -0.629509 0
M  V30 945 H 92.3031 1.37087 -0.799555 0
M  V30 946 H 92.3241 3.77532 0.474349 0
M  V30 947 H 91.8361 3.64034 -1.3454 0
M  V30 948 H 89.9371 3.55405 1.11886 0
M  V30 949 H 90.0501 4.78088 -0.311245 0
M  V30 950 H 88.4141 2.54607 -0.0687867 0
M  V30 951 H 89.1971 2.99444 -1.67894 0
M  V30 952 N 91.6422 0.330177 1.54103 0
M  V30 953 C 92.5522 -0.541534 2.28264 0
M  V30 954 C 93.5682 -1.12351 1.32866 0
M  V30 955 O 94.7442 -1.14206 1.65888 0
M  V30 956 C 91.8092 -1.68322 3.03098 0
M  V30 957 C 90.8702 -1.13238 4.14096 0
M  V30 958 C 90.1032 -2.21966 4.85352 0
M  V30 959 O 90.3262 -3.42437 4.56172 0
M  V30 960 O 89.2602 -1.87013 5.7211 0
M  V30 961 H 93.0862 0.060938 3.03639 0
M  V30 962 H 90.6712 0.09565 1.49093 0
M  V30 963 H 92.5532 -2.34777 3.49939 0
M  V30 964 H 91.2282 -2.27176 2.30593 0
M  V30 965 H 90.1352 -0.432736 3.71589 0
M  V30 966 H 91.4682 -0.588898 4.88664 0
M  V30 967 N 93.1203 -1.57491 0.0584922 0
M  V30 968 C 94.3693 -1.92155 -0.613146 0
M  V30 969 C 94.6823 -0.939334 -1.71569 0
M  V30 970 O 95.8883 -1.17829 -2.44599 0
M  V30 971 C 94.3443 -3.41303 -1.14195 0
M  V30 972 C 93.9523 -4.47944 -0.0711265 0
M  V30 973 C 95.6963 -3.84988 -1.78841 0
M  V30 974 C 93.6033 -5.88212 -0.613225 0
M  V30 975 H 92.5333 -0.717162 -0.232796 0
M  V30 976 H 95.1843 -1.83049 0.12857 0
M  V30 977 H 93.5663 -3.45437 -1.93621 0
M  V30 978 H 94.7403 -4.55408 0.702836 0
M  V30 979 H 93.0553 -4.13644 0.478313 0
M  V30 980 H 95.6523 -4.87159 -2.20408 0
M  V30 981 H 95.9953 -3.21632 -2.64308 0
M  V30 982 H 96.5283 -3.83401 -1.06059 0
M  V30 983 H 93.2673 -6.55183 0.203978 0
M  V30 984 H 92.7873 -5.84294 -1.35501 0
M  V30 985 H 94.4663 -6.37687 -1.09383 0
M  V30 986 N 94.5984 0.214957 -1.56127 0
M  V30 987 C 95.8444 0.939762 -1.79712 0
M  V30 988 C 96.1774 1.83723 -0.629247 0
M  V30 989 O 95.4524 1.90925 0.371197 0
M  V30 990 C 95.7354 1.77306 -3.13424 0
M  V30 991 C 95.5884 0.90164 -4.40671 0
M  V30 992 C 96.9074 2.74956 -3.43638 0
M  V30 993 H 94.0264 0.340214 -0.653776 0
M  V30 994 H 96.6684 0.20824 -1.88855 0
M  V30 995 H 94.8184 2.39673 -3.0576 0
M  V30 996 H 96.4904 0.294206 -4.60361 0
M  V30 997 H 94.7334 0.207368 -4.33304 0
M  V30 998 H 95.4044 1.51923 -5.30682 0
M  V30 999 H 97.8804 2.22724 -3.51473 0
M  V30 1000 H 96.7564 3.30358 -4.38355 0
M  V30 1001 H 97.0174 3.53023 -2.66134 0
M  V30 1002 N 96.0765 1.50051 0.48192 0
M  V30 1003 C 97.3015 1.64508 1.26301 0
M  V30 1004 C 97.7265 0.323851 1.85291 0
M  V30 1005 O 97.0845 -0.710969 1.66778 0
M  V30 1006 C 97.1325 2.7305 2.35533 0
M  V30 1007 O 96.2365 2.3355 3.39895 0
M  V30 1008 H 95.5775 0.549978 0.372048 0
M  V30 1009 H 98.1075 1.9636 0.574786 0
M  V30 1010 H 98.1175 2.95799 2.8101 0
M  V30 1011 H 96.7925 3.68946 1.91967 0
M  V30 1012 H 95.3695 2.21205 3.00204 0
M  V30 1013 N 97.5546 -0.734337 1.39446 0
M  V30 1014 C 98.8006 -1.49613 1.36908 0
M  V30 1015 C 99.1336 -1.94169 -0.0347829 0
M  V30 1016 O 98.4086 -1.66833 -0.999847 0
M  V30 1017 C 98.6916 -2.73534 2.34203 0
M  V30 1018 C 98.5446 -2.34993 3.83534 0
M  V30 1019 C 99.8636 -3.75635 2.29317 0
M  V30 1020 H 96.9826 -0.542714 0.498629 0
M  V30 1021 H 99.6246 -0.839597 1.70443 0
M  V30 1022 H 97.7746 -3.29553 2.05736 0
M  V30 1023 H 99.4466 -1.84601 4.22753 0
M  V30 1024 H 97.6896 -1.67213 4.00278 0
M  V30 1025 H 98.3606 -3.23738 4.47099 0
M  V30 1026 H 100.837 -3.29203 2.54489 0
M  V30 1027 H 99.7126 -4.60008 2.99472 0
M  V30 1028 H 99.9736 -4.22603 1.29842 0
M  V30 1029 N 99.0327 -1.24633 -0.964593 0
M  V30 1030 C 100.282 -1.08188 -1.7023 0
M  V30 1031 C 100.595 0.37873 -1.91898 0
M  V30 1032 O 101.801 0.663427 -2.6327 0
M  V30 1033 C 100.257 -1.88773 -3.06419 0
M  V30 1034 C 99.8647 -3.39263 -2.92582 0
M  V30 1035 C 101.609 -1.80867 -3.84041 0
M  V30 1036 C 99.5157 -4.1218 -4.24101 0
M  V30 1037 H 98.4457 -0.401245 -0.638372 0
M  V30 1038 H 101.097 -1.48742 -1.07462 0
M  V30 1039 H 99.4787 -1.41035 -3.70034 0
M  V30 1040 H 100.653 -3.94603 -2.37961 0
M  V30 1041 H 98.9677 -3.48154 -2.28424 0
M  V30 1042 H 101.565 -2.32646 -4.81435 0
M  V30 1043 H 101.908 -0.774543 -4.09031 0
M  V30 1044 H 102.441 -2.26301 -3.27159 0
M  V30 1045 H 99.1797 -5.15965 -4.04303 0
M  V30 1046 H 98.6997 -3.61626 -4.78526 0
M  V30 1047 H 100.379 -4.19349 -4.92702 0
M  V30 1048 N 100.511 1.16574 -1.06058 0
M  V30 1049 C 101.759 1.86677 -0.77434 0
M  V30 1050 C 102.08 1.81959 0.701147 0
M  V30 1051 O 101.35 1.2515 1.50713 0
M  V30 1052 H 99.9298 0.691134 -0.283449 0
M  V30 1053 H 102.592 1.41378 -1.34158 0
M  V30 1054 H 101.688 2.92181 -1.09711 0
M  V30 1055 N 101.989 0.842826 1.3317 0
M  V30 1056 C 102.899 0.281444 2.32906 0
M  V30 1057 C 103.915 -0.594587 1.63526 0
M  V30 1058 O 105.091 -0.49777 1.95152 0
M  V30 1059 C 102.156 -0.530929 3.42611 0
M  V30 1060 C 101.217 0.369843 4.27704 0
M  V30 1061 C 100.45 -0.403853 5.3217 0
M  V30 1062 O 100.673 -1.63513 5.46461 0
M  V30 1063 O 99.6069 0.224199 6.01482 0
M  V30 1064 H 103.433 1.10744 2.82789 0
M  V30 1065 H 101.018 0.60545 1.36582 0
M  V30 1066 H 102.9 -0.992437 4.09547 0
M  V30 1067 H 101.575 -1.33392 2.94938 0
M  V30 1068 H 100.482 0.879275 3.6362 0
M  V30 1069 H 101.815 1.13771 4.78871 0
M  V30 1070 N 103.467 -1.45747 0.599634 0
M  V30 1071 C 104.697 -2.06369 0.0977132 0
M  V30 1072 C 105.105 -1.44624 -1.21985 0
M  V30 1073 O 104.448 -0.551831 -1.75216 0
M  V30 1074 C 104.51 -3.59284 -0.124673 0
M  V30 1075 C 104.174 -4.43318 1.10987 0
M  V30 1076 C 105.171 -4.78796 2.02609 0
M  V30 1077 C 102.856 -4.84194 1.33647 0
M  V30 1078 C 104.85 -5.53997 3.15224 0
M  V30 1079 C 102.537 -5.5915 2.46565 0
M  V30 1080 C 103.535 -5.93968 3.37182 0
M  V30 1081 O 103.223 -6.67405 4.48136 0
M  V30 1082 H 102.955 -0.673122 0.0623153 0
M  V30 1083 H 105.509 -1.88104 0.824981 0
M  V30 1084 H 103.739 -3.75919 -0.906745 0
M  V30 1085 H 105.428 -4.01775 -0.577201 0
M  V30 1086 H 106.194 -4.47781 1.86325 0
M  V30 1087 H 102.073 -4.56534 0.64016 0
M  V30 1088 H 105.617 -5.81091 3.85978 0
M  V30 1089 H 101.514 -5.89579 2.62805 0
M  V30 1090 H 102.282 -6.85847 4.46717 0
M  V30 1091 N 104.945 -0.338344 -1.53925 0
M  V30 1092 C 105.908 0.508299 -2.23493 0
M  V30 1093 C 106.908 1.03175 -1.23335 0
M  V30 1094 O 108.098 0.921826 -1.47811 0
M  V30 1095 C 105.23 1.70754 -2.95052 0
M  V30 1096 H 106.423 -0.100058 -2.99733 0
M  V30 1097 H 103.976 -0.0896198 -1.56043 0
M  V30 1098 H 104.711 2.35474 -2.22986 0
M  V30 1099 H 104.496 1.33946 -3.68512 0
M  V30 1100 H 105.986 2.30818 -3.48013 0
M  V30 1101 N 106.423 1.57458 -0.0668435 0
M  V30 1102 C 107.671 1.92919 0.602214 0
M  V30 1103 C 107.992 0.947215 1.70449 0
M  V30 1104 O 107.262 -0.00544117 1.95899 0
M  V30 1105 H 105.842 0.71217 0.22544 0
M  V30 1106 H 108.504 1.94508 -0.123535 0
M  V30 1107 H 107.6 2.94589 1.03073 0
M  V30 1108 N 107.901 -0.206675 1.56239 0
M  V30 1109 C 108.848 -1.25617 1.93621 0
M  V30 1110 C 109.818 -1.45824 0.795274 0
M  V30 1111 O 111.003 -1.59148 1.05245 0
M  V30 1112 C 108.143 -2.59839 2.27107 0
M  V30 1113 C 107.256 -2.47308 3.54207 0
M  V30 1114 C 106.391 -3.74155 3.7707 0
M  V30 1115 C 105.43 -3.56407 4.97635 0
M  V30 1116 N 104.567 -4.75238 5.1681 0
M  V30 1117 H 109.407 -0.930383 2.83104 0
M  V30 1118 H 106.944 -0.448065 1.4011 0
M  V30 1119 H 108.902 -3.38021 2.44535 0
M  V30 1120 H 107.532 -2.90485 1.40778 0
M  V30 1121 H 106.584 -1.60483 3.4489 0
M  V30 1122 H 107.896 -2.30122 4.42544 0
M  V30 1123 H 107.05 -4.60778 3.94675 0
M  V30 1124 H 105.789 -3.94282 2.87042 0
M  V30 1125 H 104.794 -2.68168 4.79964 0
M  V30 1126 H 106.019 -3.37736 5.89161 0
M  V30 1127 H 103.965 -4.95651 4.29728 0
M  V30 1128 H 103.882 -4.60835 5.99306 0
M  V30 1129 H 105.15 -5.63246 5.38864 0
M  V30 1130 N 109.379 -1.50304 -0.473955 0
M  V30 1131 C 110.309 -1.71886 -1.58042 0
M  V30 1132 C 111.29 -0.567799 -1.60344 0
M  V30 1133 O 112.475 -0.806623 -1.76656 0
M  V30 1134 C 109.605 -1.81036 -2.96384 0
M  V30 1135 C 108.559 -2.962 -3.08949 0
M  V30 1136 C 107.885 -2.9049 -4.48909 0
M  V30 1137 C 109.185 -4.36752 -2.86434 0
M  V30 1138 H 110.879 -2.64527 -1.40234 0
M  V30 1139 H 108.425 -1.27295 -0.673201 0
M  V30 1140 H 110.378 -1.94719 -3.73714 0
M  V30 1141 H 109.102 -0.850147 -3.15341 0
M  V30 1142 H 107.761 -2.82164 -2.3405 0
M  V30 1143 H 107.409 -1.92321 -4.64781 0
M  V30 1144 H 107.109 -3.67802 -4.58253 0
M  V30 1145 H 108.633 -3.06218 -5.28264 0
M  V30 1146 H 110.047 -4.5133 -3.53517 0
M  V30 1147 H 108.444 -5.15493 -3.07225 0
M  V30 1148 H 109.514 -4.49321 -1.82316 0
M  V30 1149 N 110.857 0.726932 -1.39834 0
M  V30 1150 C 112.134 1.47902 -1.28001 0
M  V30 1151 C 112.514 2.1083 0.106789 0
M  V30 1152 O 111.862 1.99242 1.11869 0
M  V30 1153 C 112.072 2.52392 -2.41038 0
M  V30 1154 C 113.42 3.18546 -2.80737 0
M  V30 1155 O 114.444 2.62708 -2.40547 0
M  V30 1156 O 113.303 4.19604 -3.50135 0
M  V30 1157 H 110.397 0.657163 -0.502062 0
M  V30 1158 H 112.943 0.760071 -1.51727 0
M  V30 1159 H 111.715 2.04329 -3.33715 0
M  V30 1160 H 111.338 3.31837 -2.19021 0
M  V30 1161 N 112.336 1.25143 0.95797 0
M  V30 1162 C 113.286 1.01924 2.0395 0
M  V30 1163 C 114.27 -0.0427175 1.60843 0
M  V30 1164 O 115.462 0.17221 1.7616 0
M  V30 1165 C 112.591 0.636373 3.3735 0
M  V30 1166 C 111.677 1.73492 3.8699 0
M  V30 1167 N 112.068 2.96945 4.0946 0
M  V30 1168 C 110.366 1.61467 4.15746 0
M  V30 1169 C 111.067 3.68228 4.50315 0
M  V30 1170 N 110.043 2.95833 4.56053 0
M  V30 1171 H 113.845 1.95653 2.19311 0
M  V30 1172 H 111.359 1.15413 1.14253 0
M  V30 1173 H 113.356 0.451233 4.14451 0
M  V30 1174 H 112.016 -0.293621 3.2337 0
M  V30 1175 H 113.027 3.33025 3.96629 0
M  V30 1176 H 109.704 0.753394 4.10646 0
M  V30 1177 H 111.094 4.74178 4.76031 0
M  V30 1178 N 113.814 -1.1601 1.06675 0
M  V30 1179 C 114.744 -2.22688 0.702307 0
M  V30 1180 C 115.725 -1.67306 -0.307032 0
M  V30 1181 O 116.91 -1.93352 -0.181305 0
M  V30 1182 C 114.04 -3.47178 0.092038 0
M  V30 1183 C 112.994 -4.15477 1.02777 0
M  V30 1184 C 112.32 -5.33963 0.28061 0
M  V30 1185 C 113.62 -4.66019 2.35846 0
M  V30 1186 H 115.314 -2.53429 1.59419 0
M  V30 1187 H 112.86 -1.21813 0.767961 0
M  V30 1188 H 114.813 -4.21037 -0.174814 0
M  V30 1189 H 113.537 -3.15749 -0.834877 0
M  V30 1190 H 112.196 -3.43549 1.27944 0
M  V30 1191 H 111.844 -4.98788 -0.649545 0
M  V30 1192 H 111.544 -5.806 0.904258 0
M  V30 1193 H 113.068 -6.10596 0.021396 0
M  V30 1194 H 114.482 -5.3144 2.15045 0
M  V30 1195 H 112.879 -5.23293 2.93743 0
M  V30 1196 H 113.949 -3.82023 2.98641 0
M  V30 1197 N 115.292 -0.849877 -1.32721 0
M  V30 1198 C 116.539 -0.450923 -1.97416 0
M  V30 1199 C 116.867 0.992376 -1.67279 0
M  V30 1200 O 116.122 1.71048 -0.950845 0
M  V30 1201 C 116.421 -0.631272 -3.51781 0
M  V30 1202 C 116.087 -2.04432 -4.01894 0
M  V30 1203 C 114.749 -2.4308 -4.1529 0
M  V30 1204 C 117.101 -2.96679 -4.28522 0
M  V30 1205 C 114.429 -3.73257 -4.52654 0
M  V30 1206 C 116.781 -4.26349 -4.67343 0
M  V30 1207 C 115.445 -4.64939 -4.78945 0
M  V30 1208 H 114.715 -0.165004 -0.722395 0
M  V30 1209 H 117.362 -1.07901 -1.58207 0
M  V30 1210 H 115.667 0.0800767 -3.91718 0
M  V30 1211 H 117.364 -0.302709 -3.99856 0
M  V30 1212 H 113.954 -1.73419 -3.91949 0
M  V30 1213 H 118.138 -2.68054 -4.17685 0
M  V30 1214 H 113.394 -4.02946 -4.59831 0
M  V30 1215 H 117.568 -4.97895 -4.86902 0
M  V30 1216 H 115.195 -5.65855 -5.07654 0
M  V30 1217 N 116.77 1.45427 -0.607355 0
M  V30 1218 C 117.995 2.07124 -0.107006 0
M  V30 1219 C 118.42 1.44906 1.19933 0
M  V30 1220 O 117.778 0.541687 1.73019 0
M  V30 1221 C 117.826 3.60595 0.0194119 0
M  V30 1222 O 116.93 3.98285 1.0697 0
M  V30 1223 H 116.271 0.659868 -0.0739597 0
M  V30 1224 H 118.801 1.86683 -0.837297 0
M  V30 1225 H 118.811 4.07419 0.2177 0
M  V30 1226 H 117.486 4.05266 -0.934453 0
M  V30 1227 H 116.063 3.63133 0.847889 0
M  V30 1228 N 118.248 0.346503 1.53744 0
M  V30 1229 C 119.496 -0.248612 2.00565 0
M  V30 1230 C 119.817 -1.5083 1.23593 0
M  V30 1231 O 119.087 -1.92858 0.343912 0
M  V30 1232 H 117.667 -0.0948564 0.740953 0
M  V30 1233 H 120.329 0.468341 1.89189 0
M  V30 1234 H 119.425 -0.488994 3.08245 0
M  V30 1235 N 119.726 -1.57421 0.075193 0
M  V30 1236 C 120.659 -2.08528 -0.926904 0
M  V30 1237 C 121.637 -0.991171 -1.28898 0
M  V30 1238 O 122.821 -1.26479 -1.39769 0
M  V30 1239 C 119.948 -2.54576 -2.23402 0
M  V30 1240 C 118.994 -3.75454 -2.02327 0
M  V30 1241 S 119.827 -5.19989 -1.27951 0
M  V30 1242 C 120.983 -5.69372 -2.59935 0
M  V30 1243 H 121.216 -2.932 -0.492048 0
M  V30 1244 H 118.749 -1.53785 -0.137651 0
M  V30 1245 H 120.707 -2.81767 -2.98526 0
M  V30 1246 H 119.368 -1.70166 -2.64012 0
M  V30 1247 H 118.561 -4.05675 -2.99071 0
M  V30 1248 H 118.163 -3.48654 -1.35339 0
M  V30 1249 H 120.455 -5.76424 -3.56008 0
M  V30 1250 H 121.398 -6.68207 -2.34319 0
M  V30 1251 H 121.806 -4.97205 -2.67296 0
M  V30 1252 N 121.204 0.198386 -1.56346 0
M  V30 1253 C 122.134 1.24865 -1.9731 0
M  V30 1254 C 123.115 1.47651 -0.844576 0
M  V30 1255 O 124.3 1.59444 -1.10866 0
M  V30 1256 C 121.43 2.59358 -2.30977 0
M  V30 1257 C 120.384 2.5119 -3.46537 0
M  V30 1258 C 119.71 3.89926 -3.65871 0
M  V30 1259 C 121.01 2.03977 -4.80823 0
M  V30 1260 H 122.704 0.908252 -2.85291 0
M  V30 1261 H 120.25 0.435462 -1.37258 0
M  V30 1262 H 122.203 3.33011 -2.58228 0
M  V30 1263 H 120.927 2.95132 -1.39874 0
M  V30 1264 H 119.586 1.79993 -3.19371 0
M  V30 1265 H 119.234 4.23046 -2.72105 0
M  V30 1266 H 118.934 3.85336 -4.4361 0
M  V30 1267 H 120.458 4.65205 -3.95495 0
M  V30 1268 H 121.872 2.67386 -5.07127 0
M  V30 1269 H 120.269 2.10397 -5.62008 0
M  V30 1270 H 121.339 0.992861 -4.74626 0
M  V30 1271 N 122.682 1.50554 0.465978 0
M  V30 1272 C 123.907 1.65838 1.24549 0
M  V30 1273 C 124.332 0.343486 1.84937 0
M  V30 1274 O 123.69 -0.69324 1.67523 0
M  V30 1275 C 123.738 2.75533 2.32624 0
M  V30 1276 O 122.842 2.37142 3.37398 0
M  V30 1277 H 122.183 0.553893 0.366194 0
M  V30 1278 H 124.713 1.96959 0.553927 0
M  V30 1279 H 124.723 2.98763 2.77857 0
M  V30 1280 H 123.398 3.70962 1.88043 0
M  V30 1281 H 121.975 2.24377 2.97841 0
M  V30 1282 N 124.16 -0.719506 1.40217 0
M  V30 1283 C 125.576 -1.02707 1.22161 0
M  V30 1284 C 125.776 -2.0128 0.0940557 0
M  V30 1285 O 124.832 -2.46452 -0.549318 0
M  V30 1286 C 126.145 -1.57454 2.56181 0
M  V30 1287 C 127.693 -1.69458 2.63159 0
M  V30 1288 C 128.168 -2.27611 3.97438 0
M  V30 1289 N 129.659 -2.35002 3.99159 0
M  V30 1290 C 130.394 -2.80972 4.99842 0
M  V30 1291 N 129.89 -3.26723 6.10921 0
M  V30 1292 N 131.683 -2.80321 4.87213 0
M  V30 1293 H 123.834 -0.0660492 2.12297 0
M  V30 1294 H 126.097 -0.0919077 0.943534 0
M  V30 1295 H 125.803 -0.924873 3.39321 0
M  V30 1296 H 125.677 -2.56036 2.76993 0
M  V30 1297 H 128.064 -2.33543 1.80393 0
M  V30 1298 H 128.145 -0.694867 2.46181 0
M  V30 1299 H 127.789 -1.6415 4.80643 0
M  V30 1300 H 127.719 -3.2829 4.11744 0
M  V30 1301 H 130.21 -2.02685 3.18947 0
M  V30 1302 H 130.523 -3.60355 6.8364 0
M  V30 1303 H 128.868 -3.24692 6.14492 0
M  V30 1304 H 132.059 -2.43912 3.9953 0
M  V30 1305 H 132.232 -3.15831 5.65822 0
M  V30 1306 N 125.638 -1.25649 -0.95132 0
M  V30 1307 C 127.049 -1.09654 -1.51106 0
M  V30 1308 C 127.4 0.326615 -1.93462 0
M  V30 1309 O 126.525 1.21697 -1.78938 0
M  V30 1310 C 127.12 -1.98437 -2.74605 0
M  V30 1311 C 125.679 -1.86618 -3.2688 0
M  V30 1312 C 124.826 -1.9239 -1.99703 0
M  V30 1313 H 127.777 -1.38887 -0.767865 0
M  V30 1314 H 127.798 -1.5263 -3.48546 0
M  V30 1315 H 127.31 -3.02009 -2.43746 0
M  V30 1316 H 125.411 -0.859421 -3.62553 0
M  V30 1317 H 125.524 -2.71607 -3.94673 0
M  V30 1318 H 123.888 -1.36317 -2.15151 0
M  V30 1319 H 124.671 -2.97573 -1.71188 0
M  V30 1320 N 127.117 1.15442 -1.07289 0
M  V30 1321 C 128.363 1.86489 -0.796846 0
M  V30 1322 C 128.696 1.82078 0.675371 0
M  V30 1323 O 127.971 1.24346 1.4956 0
M  V30 1324 C 128.254 3.35626 -1.30489 0
M  V30 1325 C 128.107 3.48673 -2.84161 0
M  V30 1326 C 129.426 4.30357 -0.920907 0
M  V30 1327 H 126.545 0.677144 -0.290939 0
M  V30 1328 H 129.187 1.35633 -1.33056 0
M  V30 1329 H 127.337 3.79068 -0.850883 0
M  V30 1330 H 129.009 3.14099 -3.37846 0
M  V30 1331 H 127.252 2.90253 -3.22391 0
M  V30 1332 H 127.923 4.53453 -3.14777 0
M  V30 1333 H 130.399 3.94871 -1.3121 0
M  V30 1334 H 129.275 5.33193 -1.30372 0
M  V30 1335 H 129.536 4.4176 0.173226 0
M  V30 1336 N 128.595 0.856903 1.32268 0
M  V30 1337 C 129.841 0.462069 1.97466 0
M  V30 1338 C 130.174 -0.980298 1.67642 0
M  V30 1339 O 129.449 -1.68824 0.965858 0
M  V30 1340 C 129.732 0.704336 3.53145 0
M  V30 1341 C 129.585 2.19529 3.9259 0
M  V30 1342 C 130.904 0.1622 4.39801 0
M  V30 1343 H 128.023 0.169357 0.717278 0
M  V30 1344 H 130.665 1.07574 1.56614 0
M  V30 1345 H 128.815 0.181999 3.88073 0
M  V30 1346 H 130.487 2.78387 3.67829 0
M  V30 1347 H 128.73 2.67292 3.41668 0
M  V30 1348 H 129.401 2.31549 5.01088 0
M  V30 1349 H 131.877 0.608905 4.11621 0
M  V30 1350 H 130.753 0.361265 5.4771 0
M  V30 1351 H 131.014 -0.935158 4.32096 0
M  V30 1352 N 130.073 -1.45103 0.615059 0
M  V30 1353 C 131.35 -1.95549 0.0448276 0
M  V30 1354 C 131.73 -1.55737 -1.4251 0
M  V30 1355 O 131.078 -0.823556 -2.13143 0
M  V30 1356 C 131.288 -3.48098 0.250785 0
M  V30 1357 C 132.636 -4.24384 0.135509 0
M  V30 1358 O 133.66 -3.55738 0.181299 0
M  V30 1359 O 132.519 -5.46493 0.0268878 0
M  V30 1360 H 129.613 -0.8264 -0.0314845 0
M  V30 1361 H 132.159 -1.55232 0.685642 0
M  V30 1362 H 130.931 -3.7007 1.27139 0
M  V30 1363 H 130.554 -3.95323 -0.424937 0
M  V30 1364 N 131.551 -0.354651 -1.53558 0
M  V30 1365 C 132.481 0.489091 -2.2832 0
M  V30 1366 C 133.462 1.09324 -1.30316 0
M  V30 1367 O 134.647 1.11255 -1.59173 0
M  V30 1368 C 131.777 1.63456 -3.0643 0
M  V30 1369 C 130.731 1.1582 -4.12031 0
M  V30 1370 C 130.057 2.39305 -4.7816 0
M  V30 1371 C 131.357 0.250731 -5.21698 0
M  V30 1372 H 133.051 -0.134614 -2.99097 0
M  V30 1373 H 130.597 -0.0661826 -1.43848 0
M  V30 1374 H 132.55 2.23136 -3.57475 0
M  V30 1375 H 131.274 2.28533 -2.33325 0
M  V30 1376 H 129.933 0.584146 -3.61916 0
M  V30 1377 H 129.581 3.02814 -4.01637 0
M  V30 1378 H 129.281 2.08109 -5.49513 0
M  V30 1379 H 130.805 2.99691 -5.31994 0
M  V30 1380 H 132.219 0.754695 -5.68311 0
M  V30 1381 H 130.616 0.0301468 -6.00092 0
M  V30 1382 H 131.686 -0.710125 -4.79672 0
M  V30 1383 N 133.029 1.57378 -0.0835403 0
M  V30 1384 C 133.992 2.12252 0.864959 0
M  V30 1385 C 134.992 1.04916 1.21858 0
M  V30 1386 O 136.182 1.30853 1.14991 0
M  V30 1387 C 133.314 2.63358 2.16461 0
M  V30 1388 H 134.507 2.97371 0.388676 0
M  V30 1389 H 132.06 1.55423 0.165317 0
M  V30 1390 H 132.795 1.81727 2.686 0
M  V30 1391 H 132.58 3.41826 1.92087 0
M  V30 1392 H 134.07 3.05847 2.84337 0
M  V30 1393 N 134.507 -0.190092 1.56449 0
M  V30 1394 C 135.735 -0.925772 1.85033 0
M  V30 1395 C 136.15 -1.76638 0.666658 0
M  V30 1396 O 135.507 -1.78822 -0.364565 0
M  V30 1397 C 135.558 -1.81786 3.12468 0
M  V30 1398 O 135.279 -1.01118 4.26271 0
M  V30 1399 C 136.78 -2.6648 3.54265 0
M  V30 1400 H 134 -0.269872 0.614337 0
M  V30 1401 H 136.544 -0.195837 2.0356 0
M  V30 1402 H 134.699 -2.50136 2.95822 0
M  V30 1403 H 135.113 -1.61956 4.98869 0
M  V30 1404 H 136.587 -3.24722 4.46385 0
M  V30 1405 H 137.064 -3.40434 2.77491 0
M  V30 1406 H 137.67 -2.03493 3.73458 0
M  V30 1407 N 135.985 -1.50799 -0.457987 0
M  V30 1408 C 137.401 -1.38515 -0.792819 0
M  V30 1409 C 137.601 -0.451409 -1.96379 0
M  V30 1410 O 136.657 0.10112 -2.52297 0
M  V30 1411 C 137.97 -2.80149 -1.09258 0
M  V30 1412 C 139.518 -2.89156 -1.19825 0
M  V30 1413 C 139.993 -4.31651 -1.53106 0
M  V30 1414 N 141.484 -4.34662 -1.60072 0
M  V30 1415 C 142.219 -5.41928 -1.87354 0
M  V30 1416 N 141.715 -6.59384 -2.12568 0
M  V30 1417 N 143.508 -5.29385 -1.88965 0
M  V30 1418 H 135.659 -2.10073 0.313511 0
M  V30 1419 H 137.922 -0.944803 0.0777862 0
M  V30 1420 H 137.628 -3.50374 -0.305084 0
M  V30 1421 H 137.502 -3.18204 -2.02549 0
M  V30 1422 H 139.889 -2.19141 -1.97639 0
M  V30 1423 H 139.97 -2.54626 -0.244821 0
M  V30 1424 H 139.614 -5.02208 -0.758266 0
M  V30 1425 H 139.544 -4.63678 -2.49621 0
M  V30 1426 H 142.035 -3.49973 -1.42573 0
M  V30 1427 H 142.348 -7.36934 -2.32696 0
M  V30 1428 H 140.693 -6.62535 -2.09933 0
M  V30 1429 H 143.884 -4.36616 -1.68772 0
M  V30 1430 H 144.057 -6.13066 -2.09891 0
M  V30 1431 N 137.463 0.71206 -1.40597 0
M  V30 1432 C 138.393 1.83889 -1.43899 0
M  V30 1433 C 139.374 1.67442 -0.299504 0
M  V30 1434 O 140.559 1.87421 -0.508624 0
M  V30 1435 C 137.689 3.21877 -1.30431 0
M  V30 1436 C 136.643 3.53002 -2.42019 0
M  V30 1437 C 135.969 4.90172 -2.13626 0
M  V30 1438 C 137.269 3.53643 -3.84362 0
M  V30 1439 H 138.963 1.81383 -2.38203 0
M  V30 1440 H 136.509 0.871237 -1.14654 0
M  V30 1441 H 138.462 4.00404 -1.31357 0
M  V30 1442 H 137.186 3.24968 -0.326049 0
M  V30 1443 H 135.845 2.76818 -2.40349 0
M  V30 1444 H 135.493 4.89869 -1.14182 0
M  V30 1445 H 135.193 5.11962 -2.88389 0
M  V30 1446 H 136.717 5.71028 -2.1624 0
M  V30 1447 H 138.131 4.22203 -3.87837 0
M  V30 1448 H 136.528 3.86961 -4.58673 0
M  V30 1449 H 137.598 2.52954 -4.13693 0
M  V30 1450 N 138.941 1.26152 0.944643 0
M  V30 1451 C 139.904 1.07474 2.0244 0
M  V30 1452 C 140.904 0.0242064 1.60782 0
M  V30 1453 O 142.094 0.267302 1.72137 0
M  V30 1454 C 139.226 0.633956 3.34953 0
M  V30 1455 H 140.419 2.03336 2.20442 0
M  V30 1456 H 137.972 1.087 1.12312 0
M  V30 1457 H 138.707 -0.326811 3.22649 0
M  V30 1458 H 138.492 1.39247 3.66542 0
M  V30 1459 H 139.982 0.52501 4.14287 0
M  V30 1460 N 140.419 -1.14872 1.07899 0
M  V30 1461 C 141.367 -2.21857 0.698727 0
M  V30 1462 C 142.361 -1.66845 -0.293086 0
M  V30 1463 O 143.567 -1.79321 -0.156204 0
M  V30 1464 H 139.942 -0.722691 0.207899 0
M  V30 1465 H 141.913 -2.51205 1.61054 0
M  V30 1466 C 140.662 -3.47498 0.11858 0
M  V30 1467 H 139.985 -3.90154 0.872914 0
M  V30 1468 H 141.425 -4.23858 -0.109759 0
M  V30 1469 C 139.884 -3.16947 -1.1422 0
M  V30 1470 O 140.414 -3.3426 -2.22785 0
M  V30 1471 N 138.62 -2.70946 -1.05055 0
M  V30 1472 H 138.167 -2.57058 -0.167038 0
M  V30 1473 H 138.125 -2.50879 -1.89491 0
M  V30 1474 N 141.898 -0.863906 -1.31812 0
M  V30 1475 C 143.147 -0.46801 -1.96195 0
M  V30 1476 C 143.46 0.983474 -1.69077 0
M  V30 1477 O 144.666 1.48523 -2.27273 0
M  V30 1478 C 143.122 -0.785995 -3.51212 0
M  V30 1479 C 142.73 -2.25383 -3.87178 0
M  V30 1480 C 144.474 -0.458274 -4.22019 0
M  V30 1481 C 142.381 -2.51455 -5.3528 0
M  V30 1482 H 141.311 -0.171283 -0.734287 0
M  V30 1483 H 143.962 -1.05597 -1.50072 0
M  V30 1484 H 142.344 -0.127359 -3.95795 0
M  V30 1485 H 143.518 -2.95502 -3.53575 0
M  V30 1486 H 141.833 -2.54698 -3.2942 0
M  V30 1487 H 144.43 -0.630369 -5.30971 0
M  V30 1488 H 144.773 0.600834 -4.11941 0
M  V30 1489 H 145.306 -1.07319 -3.8305 0
M  V30 1490 H 142.045 -3.56025 -5.50387 0
M  V30 1491 H 141.565 -1.85923 -5.70257 0
M  V30 1492 H 143.244 -2.35874 -6.02472 0
M  V30 1493 N 143.376 1.44774 -0.622745 0
M  V30 1494 C 144.604 2.06487 -0.130722 0
M  V30 1495 C 145.019 1.46476 1.19123 0
M  V30 1496 O 144.376 0.584502 1.72887 0
M  V30 1497 C 144.427 3.615 -0.000807207 0
M  V30 1498 O 144.148 4.19274 -1.27048 0
M  V30 1499 C 145.649 4.40229 0.520898 0
M  V30 1500 H 142.869 0.666704 -0.0758106 0
M  V30 1501 H 145.413 1.85779 -0.854774 0
M  V30 1502 H 143.568 3.81498 0.673643 0
M  V30 1503 H 143.982 5.12622 -1.1099 0
M  V30 1504 H 145.456 5.49144 0.560838 0
M  V30 1505 H 145.933 4.1108 1.54627 0
M  V30 1506 H 146.539 4.25131 -0.120018 0
M  V30 1507 N 144.854 0.36279 1.53368 0
M  V30 1508 C 146.265 -0.117022 1.86333 0
M  V30 1509 C 146.616 -1.48397 1.28347 0
M  V30 1510 O 145.741 -2.07787 0.604428 0
M  V30 1511 C 146.336 -0.21912 3.38091 0
M  V30 1512 C 144.895 -0.643184 3.70864 0
M  V30 1513 C 144.042 0.211318 2.76494 0
M  V30 1514 H 146.993 0.581687 1.47655 0
M  V30 1515 H 147.014 -1.04319 3.6592 0
M  V30 1516 H 146.526 0.775902 3.80265 0
M  V30 1517 H 144.627 -1.64654 3.34245 0
M  V30 1518 H 144.74 -0.41973 4.77258 0
M  V30 1519 H 143.104 -0.319367 2.5269 0
M  V30 1520 H 143.887 1.20383 3.21501 0
M  V30 1521 N 146.332 -1.57332 0.0918853 0
M  V30 1522 C 147.743 -1.81496 -0.437739 0
M  V30 1523 C 148.094 -1.00727 -1.6837 0
M  V30 1524 O 147.219 -0.235694 -2.15113 0
M  V30 1525 C 147.814 -3.29197 -0.800939 0
M  V30 1526 C 146.373 -3.54136 -1.27532 0
M  V30 1527 C 145.52 -2.75979 -0.270392 0
M  V30 1528 H 148.471 -1.55494 0.317366 0
M  V30 1529 H 148.492 -3.42344 -1.66074 0
M  V30 1530 H 148.004 -3.87955 0.106078 0
M  V30 1531 H 146.105 -3.00705 -2.20016 0
M  V30 1532 H 146.218 -4.62792 -1.23938 0
M  V30 1533 H 144.582 -2.43349 -0.751872 0
M  V30 1534 H 145.365 -3.37484 0.629248 0
M  V30 1535 N 147.81 0.181792 -1.56548 0
M  V30 1536 C 149.058 0.89832 -1.81038 0
M  V30 1537 C 149.379 1.83232 -0.667164 0
M  V30 1538 O 148.649 1.93372 0.313673 0
M  V30 1539 H 147.229 0.33471 -0.667816 0
M  V30 1540 H 149.891 0.184116 -1.94028 0
M  V30 1541 H 148.987 1.4815 -2.74696 0
M  V30 1542 N 149.288 1.51039 0.449983 0
M  V30 1543 C 150.218 1.74379 1.55288 0
M  V30 1544 C 151.199 0.593236 1.5942 0
M  V30 1545 O 152.384 0.834625 1.7535 0
M  V30 1546 C 149.514 1.85728 2.93466 0
M  V30 1547 C 148.468 3.01078 3.04197 0
M  V30 1548 C 147.794 2.97595 4.44231 0
M  V30 1549 C 149.094 4.41254 2.7945 0
M  V30 1550 H 150.788 2.66725 1.36008 0
M  V30 1551 H 148.334 1.2835 0.652864 0
M  V30 1552 H 150.287 2.0064 3.70569 0
M  V30 1553 H 149.011 0.900207 3.13949 0
M  V30 1554 H 147.67 2.85851 2.29531 0
M  V30 1555 H 147.318 1.99691 4.61663 0
M  V30 1556 H 147.018 3.75046 4.52343 0
M  V30 1557 H 148.542 3.14583 5.23326 0
M  V30 1558 H 149.956 4.56897 3.46292 0
M  V30 1559 H 148.353 5.20315 2.98985 0
M  V30 1560 H 149.423 4.52164 1.75144 0
M  V30 1561 N 150.766 -0.704594 1.40972 0
M  V30 1562 C 152.043 -1.45847 1.30338 0
M  V30 1563 C 152.423 -2.10973 -0.0732344 0
M  V30 1564 O 151.771 -2.00997 -1.08685 0
M  V30 1565 C 151.981 -2.48525 2.45023 0
M  V30 1566 C 153.329 -3.1404 2.8577 0
M  V30 1567 O 154.353 -2.58848 2.44696 0
M  V30 1568 O 153.212 -4.13981 3.56766 0
M  V30 1569 H 150.306 -0.649092 0.512454 0
M  V30 1570 H 152.852 -0.735836 1.52917 0
M  V30 1571 H 151.624 -1.98994 3.36923 0
M  V30 1572 H 151.247 -3.2831 2.24272 0
M  V30 1573 N 152.244 -1.26651 -0.937939 0
M  V30 1574 C 153.66 -1.03834 -1.21205 0
M  V30 1575 C 153.86 0.234502 -2.00131 0
M  V30 1576 O 152.916 0.942767 -2.3424 0
M  V30 1577 C 154.229 -2.27167 -1.97017 0
M  V30 1578 C 155.777 -2.32101 -2.09996 0
M  V30 1579 C 156.252 -3.55136 -2.8921 0
M  V30 1580 N 157.743 -3.55632 -2.96783 0
M  V30 1581 C 158.478 -4.475 -3.58512 0
M  V30 1582 N 157.974 -5.4966 -4.21717 0
M  V30 1583 N 159.767 -4.35145 -3.55816 0
M  V30 1584 H 151.918 -2.08398 -0.410391 0
M  V30 1585 H 154.181 -0.916031 -0.244114 0
M  V30 1586 H 153.887 -3.19765 -1.46434 0
M  V30 1587 H 153.761 -2.31672 -2.97671 0
M  V30 1588 H 156.148 -1.40015 -2.59769 0
M  V30 1589 H 156.229 -2.31605 -1.08594 0
M  V30 1590 H 155.873 -4.47553 -2.40123 0
M  V30 1591 H 155.803 -3.5288 -3.90875 0
M  V30 1592 H 158.294 -2.81743 -2.51852 0
M  V30 1593 H 158.607 -6.15943 -4.66727 0
M  V30 1594 H 156.952 -5.53514 -4.20294 0
M  V30 1595 H 160.143 -3.5455 -3.05634 0
M  V30 1596 H 160.316 -5.06934 -4.03636 0
M  V30 1597 N 153.722 1.14298 -1.08507 0
M  V30 1598 C 154.685 2.17607 -0.719711 0
M  V30 1599 C 155.685 1.58907 0.245997 0
M  V30 1600 O 156.875 1.74181 0.0254081 0
M  V30 1601 C 154.007 3.40842 -0.0627695 0
M  V30 1602 H 155.2 2.51443 -1.63452 0
M  V30 1603 H 152.753 1.28963 -0.88307 0
M  V30 1604 H 153.488 3.12587 0.863716 0
M  V30 1605 H 153.273 3.84713 -0.757504 0
M  V30 1606 H 154.763 4.17221 0.177786 0
M  V30 1607 N 155.201 0.870884 1.31352 0
M  V30 1608 C 156.131 0.343096 2.30966 0
M  V30 1609 C 157.112 -0.566507 1.60389 0
M  V30 1610 O 158.297 -0.483336 1.88089 0
M  V30 1611 C 155.427 -0.455487 3.443 0
M  V30 1612 C 154.381 0.361103 4.26474 0
M  V30 1613 C 153.707 -0.563221 5.31725 0
M  V30 1614 C 155.007 1.59566 4.97329 0
M  V30 1615 H 156.701 1.17548 2.75359 0
M  V30 1616 H 154.247 0.566686 1.32381 0
M  V30 1617 H 156.2 -0.83525 4.13039 0
M  V30 1618 H 154.924 -1.32139 2.98675 0
M  V30 1619 H 153.583 0.722825 3.59403 0
M  V30 1620 H 153.231 -1.42643 4.82351 0
M  V30 1621 H 152.931 -0.0207409 5.87596 0
M  V30 1622 H 154.455 -0.939808 6.03324 0
M  V30 1623 H 155.869 1.28728 5.58661 0
M  V30 1624 H 154.266 2.07728 5.63 0
M  V30 1625 H 155.336 2.34798 4.24262 0
M  V30 1626 N 156.679 -1.44442 0.630414 0
M  V30 1627 C 157.609 -2.33418 -0.0618083 0
M  V30 1628 C 158.59 -1.48165 -0.835541 0
M  V30 1629 O 159.775 -1.76886 -0.801564 0
M  V30 1630 C 156.905 -3.31222 -1.04449 0
M  V30 1631 C 155.859 -4.26288 -0.382436 0
M  V30 1632 C 155.185 -5.13954 -1.47497 0
M  V30 1633 C 156.485 -5.1744 0.710865 0
M  V30 1634 H 158.179 -2.91548 0.681184 0
M  V30 1635 H 155.725 -1.40191 0.329026 0
M  V30 1636 H 157.678 -3.92351 -1.53748 0
M  V30 1637 H 156.402 -2.71299 -1.81836 0
M  V30 1638 H 155.061 -3.6649 0.0899054 0
M  V30 1639 H 154.709 -4.50385 -2.2397 0
M  V30 1640 H 154.409 -5.7837 -1.03737 0
M  V30 1641 H 155.933 -5.77955 -1.96979 0
M  V30 1642 H 157.347 -5.72509 0.300996 0
M  V30 1643 H 155.744 -5.90455 1.07156 0
M  V30 1644 H 156.814 -4.58496 1.57829 0
M  V30 1645 N 158.157 -0.370918 -1.53173 0
M  V30 1646 C 159.087 0.464847 -2.28826 0
M  V30 1647 C 160.068 1.07936 -1.31468 0
M  V30 1648 O 161.253 1.0956 -1.60344 0
M  V30 1649 C 158.383 1.60196 -3.08147 0
M  V30 1650 C 157.337 1.11443 -4.13237 0
M  V30 1651 C 156.663 2.3422 -4.80672 0
M  V30 1652 C 157.963 0.195384 -5.21934 0
M  V30 1653 H 159.657 -0.166329 -2.98938 0
M  V30 1654 H 157.203 -0.0814359 -1.4377 0
M  V30 1655 H 159.156 2.19332 -3.59822 0
M  V30 1656 H 157.88 2.26045 -2.35735 0
M  V30 1657 H 156.539 0.545727 -3.62515 0
M  V30 1658 H 156.187 2.98537 -4.04827 0
M  V30 1659 H 155.887 2.02269 -5.51689 0
M  V30 1660 H 157.411 2.94032 -5.35143 0
M  V30 1661 H 158.825 0.694375 -5.69079 0
M  V30 1662 H 157.222 -0.0335027 -6.00091 0
M  V30 1663 H 158.292 -0.760961 -4.78892 0
M  V30 1664 N 159.635 1.57281 -0.100228 0
M  V30 1665 C 160.86 1.99302 0.573881 0
M  V30 1666 C 161.285 0.979059 1.60611 0
M  V30 1667 O 160.643 -0.0517803 1.81226 0
M  V30 1668 C 160.691 3.40274 1.19358 0
M  V30 1669 O 159.795 3.41676 2.30935 0
M  V30 1670 H 159.136 0.647944 0.145138 0
M  V30 1671 H 161.666 2.03779 -0.183156 0
M  V30 1672 H 161.676 3.78078 1.53365 0
M  V30 1673 H 160.351 4.13594 0.437385 0
M  V30 1674 H 158.928 3.15672 1.98509 0
M  V30 1675 N 161.113 -0.173488 1.56642 0
M  V30 1676 C 162.341 -0.906095 1.86004 0
M  V30 1677 C 162.756 -1.75921 0.685355 0
M  V30 1678 O 162.113 -1.79198 -0.345578 0
M  V30 1679 C 162.164 -1.78462 3.14378 0
M  V30 1680 O 161.885 -0.965914 4.27319 0
M  V30 1681 C 163.386 -2.62707 3.57071 0
M  V30 1682 H 160.606 -0.263341 0.617165 0
M  V30 1683 H 163.15 -0.174236 2.03756 0
M  V30 1684 H 161.305 -2.46984 2.98459 0
M  V30 1685 H 161.719 -1.56655 5.00559 0
M  V30 1686 H 163.193 -3.19969 4.49804 0
M  V30 1687 H 163.67 -3.37472 2.81086 0
M  V30 1688 H 164.276 -1.99521 3.75595 0
M  V30 1689 N 162.591 -1.51276 -0.441967 0
M  V30 1690 C 163.839 -1.63392 -1.18943 0
M  V30 1691 C 164.16 -0.350159 -1.9183 0
M  V30 1692 O 163.43 0.633784 -1.85364 0
M  V30 1693 H 162.01 -0.602164 -0.442049 0
M  V30 1694 H 164.672 -1.88186 -0.507165 0
M  V30 1695 H 163.768 -2.45934 -1.92154 0
M  V30 1696 N 164.069 0.697108 -1.41344 0
M  V30 1697 C 165.032 1.79281 -1.42797 0
M  V30 1698 C 166.032 1.57607 -0.318837 0
M  V30 1699 O 167.222 1.64309 -0.578642 0
M  V30 1700 C 164.354 3.17632 -1.23785 0
M  V30 1701 H 165.547 1.79385 -2.40335 0
M  V30 1702 H 163.1 0.904582 -1.27464 0
M  V30 1703 H 163.835 3.23167 -0.270814 0
M  V30 1704 H 163.62 3.34765 -2.04144 0
M  V30 1705 H 165.11 3.97617 -1.27633 0
M  V30 1706 N 165.547 1.27147 0.931209 0
M  V30 1707 C 166.457 1.11372 2.06478 0
M  V30 1708 C 167.473 0.044645 1.73943 0
M  V30 1709 O 168.649 0.250417 1.99837 0
M  V30 1710 C 165.714 0.758838 3.38294 0
M  V30 1711 C 164.775 1.90841 3.84549 0
M  V30 1712 C 164.008 1.57036 5.10074 0
M  V30 1713 O 164.231 0.476645 5.68405 0
M  V30 1714 O 163.165 2.40839 5.51616 0
M  V30 1715 H 166.991 2.06493 2.22698 0
M  V30 1716 H 164.576 1.06301 1.04978 0
M  V30 1717 H 166.458 0.574098 4.17471 0
M  V30 1718 H 165.133 -0.162879 3.2329 0
M  V30 1719 H 164.04 2.14819 3.06274 0
M  V30 1720 H 165.373 2.81021 4.04089 0
M  V30 1721 N 167.025 -1.13721 1.09112 0
M  V30 1722 C 168.25 -1.89314 0.847053 0
M  V30 1723 C 168.675 -1.78416 -0.595774 0
M  V30 1724 O 168.033 -1.12942 -1.41823 0
M  V30 1725 C 168.081 -3.3701 1.28284 0
M  V30 1726 O 167.185 -4.10054 0.439267 0
M  V30 1727 H 166.526 -0.588745 0.307044 0
M  V30 1728 H 169.056 -1.43902 1.45442 0
M  V30 1729 H 169.066 -3.87834 1.26683 0
M  V30 1730 H 167.741 -3.4426 2.33363 0
M  V30 1731 H 166.318 -3.69266 0.519312 0
M  V30 1732 N 168.503 -0.877838 -1.30888 0
M  V30 1733 C 169.451 -0.328662 -2.30266 0
M  V30 1734 C 170.445 0.560496 -1.59859 0
M  V30 1735 O 171.651 0.445722 -1.74394 0
M  V30 1736 H 168.026 -0.0876142 -0.746879 0
M  V30 1737 H 169.997 -1.18061 -2.74051 0
M  V30 1738 C 168.746 0.448071 -3.44801 0
M  V30 1739 H 168.069 -0.226859 -3.99156 0
M  V30 1740 H 169.509 0.797541 -4.16432 0
M  V30 1741 C 167.968 1.64239 -2.94155 0
M  V30 1742 O 168.498 2.74175 -2.93583 0
M  V30 1743 N 166.704 1.47716 -2.50256 0
M  V30 1744 H 166.251 0.582821 -2.5092 0
M  V30 1745 H 166.209 2.27765 -2.16727 0
M  V30 1746 N 169.982 1.44106 -0.638065 0
M  V30 1747 C 170.892 2.34513 0.0637334 0
M  V30 1748 C 171.908 1.53018 0.828346 0
M  V30 1749 O 173.084 1.85723 0.779036 0
M  V30 1750 C 170.149 3.31095 1.02844 0
M  V30 1751 C 169.21 4.28497 0.26244 0
M  V30 1752 C 168.443 5.20465 1.1812 0
M  V30 1753 O 168.666 5.16514 2.42011 0
M  V30 1754 O 167.6 5.98251 0.661774 0
M  V30 1755 H 171.426 2.95989 -0.68003 0
M  V30 1756 H 169.011 1.43994 -0.398252 0
M  V30 1757 H 170.893 3.90526 1.58327 0
M  V30 1758 H 169.568 2.72144 1.7527 0
M  V30 1759 H 168.475 3.72592 -0.335602 0
M  V30 1760 H 169.808 4.90388 -0.421936 0
M  V30 1761 N 171.46 0.379036 1.52974 0
M  V30 1762 C 172.423 -0.448865 2.24762 0
M  V30 1763 C 173.423 -0.998689 1.26027 0
M  V30 1764 O 174.613 -0.882313 1.50203 0
M  V30 1765 C 171.745 -1.62872 2.99476 0
M  V30 1766 H 172.938 0.179491 2.99362 0
M  V30 1767 H 170.491 0.13096 1.5575 0
M  V30 1768 H 171.226 -2.29479 2.29151 0
M  V30 1769 H 171.011 -1.24128 3.71934 0
M  V30 1770 H 172.501 -2.2151 3.5401 0
M  V30 1771 N 172.938 -1.57226 0.108567 0
M  V30 1772 C 173.901 -2.13602 -0.831082 0
M  V30 1773 C 174.901 -1.06841 -1.20173 0
M  V30 1774 O 176.091 -1.32666 -1.12895 0
M  V30 1775 C 173.223 -2.66769 -2.12243 0
M  V30 1776 H 174.416 -2.97951 -0.341317 0
M  V30 1777 H 171.969 -1.55667 -0.14057 0
M  V30 1778 H 172.704 -1.85977 -2.65675 0
M  V30 1779 H 172.489 -3.44839 -1.86625 0
M  V30 1780 H 173.979 -3.10332 -2.79435 0
M  V30 1781 N 174.416 0.165178 -1.56732 0
M  V30 1782 C 175.665 0.879143 -1.81532 0
M  V30 1783 C 175.978 1.83144 -0.686842 0
M  V30 1784 O 177.184 2.58823 -0.819944 0
M  V30 1785 C 175.64 1.61388 -3.21686 0
M  V30 1786 C 175.248 0.704904 -4.4242 0
M  V30 1787 C 176.992 2.3157 -3.55774 0
M  V30 1788 C 174.899 1.44022 -5.73595 0
M  V30 1789 H 173.829 0.332033 -0.676957 0
M  V30 1790 H 176.48 0.132008 -1.83025 0
M  V30 1791 H 174.862 2.40599 -3.14529 0
M  V30 1792 H 176.036 -0.0506815 -4.60772 0
M  V30 1793 H 174.351 0.112419 -4.16248 0
M  V30 1794 H 176.948 2.8719 -4.51028 0
M  V30 1795 H 177.291 3.07201 -2.8095 0
M  V30 1796 H 177.824 1.59297 -3.64513 0
M  V30 1797 H 174.563 0.72612 -6.51466 0
M  V30 1798 H 174.083 2.16898 -5.5921 0
M  V30 1799 H 175.762 1.98606 -6.15764 0
M  V30 1800 N 175.894 1.51508 0.433938 0
M  V30 1801 C 177.31 1.39759 0.770682 0
M  V30 1802 C 177.51 0.482594 1.95636 0
M  V30 1803 O 176.566 -0.0609691 2.52426 0
M  V30 1804 C 177.879 2.81851 1.04787 0
M  V30 1805 C 179.427 2.91025 1.1521 0
M  V30 1806 C 179.902 4.34032 1.46219 0
M  V30 1807 N 181.393 4.37154 1.53136 0
M  V30 1808 C 182.128 5.4484 1.78709 0
M  V30 1809 N 181.624 6.62682 2.02051 0
M  V30 1810 N 183.417 5.32324 1.80519 0
M  V30 1811 H 175.568 2.09548 -0.346892 0
M  V30 1812 H 177.831 0.943446 -0.0928074 0
M  V30 1813 H 177.537 3.50815 0.249304 0
M  V30 1814 H 177.411 3.21386 1.97461 0
M  V30 1815 H 179.798 2.22257 1.94128 0
M  V30 1816 H 179.879 2.54983 0.204281 0
M  V30 1817 H 179.523 5.03351 0.678274 0
M  V30 1818 H 179.453 4.6759 2.42212 0
M  V30 1819 H 181.944 3.52197 1.36987 0
M  V30 1820 H 182.257 7.40543 2.20943 0
M  V30 1821 H 180.602 6.65791 1.99366 0
M  V30 1822 H 183.793 4.39246 1.61805 0
M  V30 1823 H 183.966 6.16328 2.00111 0
M  V30 1824 N 177.372 -0.689602 1.41712 0
M  V30 1825 C 178.305 -1.81403 1.3845 0
M  V30 1826 C 179.283 -1.60653 0.250874 0
M  V30 1827 O 180.467 -1.83323 0.43874 0
M  V30 1828 C 177.594 -3.18176 1.1611 0
M  V30 1829 C 176.64 -3.57705 2.3227 0
M  V30 1830 S 177.473 -3.61827 3.94767 0
M  V30 1831 C 178.629 -5.01318 3.74742 0
M  V30 1832 H 178.862 -1.83893 2.33603 0
M  V30 1833 H 176.395 -0.858878 1.28307 0
M  V30 1834 H 178.353 -3.97132 1.03907 0
M  V30 1835 H 177.014 -3.13288 0.225668 0
M  V30 1836 H 176.207 -4.57082 2.12349 0
M  V30 1837 H 175.809 -2.86073 2.40911 0
M  V30 1838 H 178.101 -5.88986 3.34817 0
M  V30 1839 H 179.044 -5.26283 4.73743 0
M  V30 1840 H 179.452 -4.73138 3.07898 0
M  V30 1841 N 178.85 -1.27639 -0.924453 0
M  V30 1842 C 179.813 -1.10681 -2.00705 0
M  V30 1843 C 180.813 -0.0497823 -1.60723 0
M  V30 1844 O 182.003 -0.294654 -1.7169 0
M  V30 1845 C 179.135 -0.687164 -3.33902 0
M  V30 1846 H 180.328 -2.06817 -2.17179 0
M  V30 1847 H 177.881 -1.10473 -1.10569 0
M  V30 1848 H 178.616 0.275439 -3.23128 0
M  V30 1849 H 178.401 -1.45061 -3.6428 0
M  V30 1850 H 179.891 -0.590853 -4.13399 0
M  V30 1851 N 180.328 1.1314 -1.09713 0
M  V30 1852 C 181.275 2.18642 -0.739196 0
M  V30 1853 C 182.245 1.63706 0.280978 0
M  V30 1854 O 183.43 1.90111 0.161946 0
M  V30 1855 C 180.57 3.44685 -0.169102 0
M  V30 1856 C 179.683 4.13711 -1.24367 0
M  V30 1857 C 178.818 5.27379 -0.636019 0
M  V30 1858 C 177.857 5.88259 -1.69169 0
M  V30 1859 N 176.994 6.93352 -1.10485 0
M  V30 1860 H 181.834 2.48607 -1.64312 0
M  V30 1861 H 179.371 1.22066 -0.820875 0
M  V30 1862 H 181.329 4.16815 0.179256 0
M  V30 1863 H 179.959 3.15161 0.698079 0
M  V30 1864 H 179.011 3.39835 -1.70927 0
M  V30 1865 H 180.323 4.55037 -2.04311 0
M  V30 1866 H 179.477 6.06238 -0.236677 0
M  V30 1867 H 178.216 4.8731 0.194928 0
M  V30 1868 H 177.221 5.08092 -2.10055 0
M  V30 1869 H 178.446 6.30399 -2.52536 0
M  V30 1870 H 176.392 6.55335 -0.295234 0
M  V30 1871 H 176.309 7.33236 -1.84121 0
M  V30 1872 H 177.577 7.76057 -0.73181 0
M  V30 1873 N 181.806 0.884767 1.30421 0
M  V30 1874 C 182.736 0.367574 2.30589 0
M  V30 1875 C 183.717 -0.549464 1.60981 0
M  V30 1876 O 184.902 -0.46336 1.88591 0
M  V30 1877 C 182.032 -0.418944 3.44764 0
M  V30 1878 C 180.986 0.406316 4.26067 0
M  V30 1879 C 180.312 -0.506793 5.32293 0
M  V30 1880 C 181.612 1.64832 4.95608 0
M  V30 1881 H 183.306 1.20462 2.74097 0
M  V30 1882 H 180.852 0.580695 1.31772 0
M  V30 1883 H 182.805 -0.791395 4.13902 0
M  V30 1884 H 181.529 -1.28964 3.0006 0
M  V30 1885 H 180.188 0.760903 3.58617 0
M  V30 1886 H 179.836 -1.37519 4.83836 0
M  V30 1887 H 179.536 0.0415828 5.87585 0
M  V30 1888 H 181.06 -0.875764 6.04287 0
M  V30 1889 H 182.474 1.34646 5.57264 0
M  V30 1890 H 180.871 2.13688 5.60765 0
M  V30 1891 H 181.941 2.39284 4.21748 0
M  V30 1892 N 183.284 -1.43765 0.645699 0
M  V30 1893 C 184.53 -2.02197 0.156271 0
M  V30 1894 C 184.863 -1.50776 -1.22393 0
M  V30 1895 O 184.138 -0.697771 -1.81553 0
M  V30 1896 C 184.421 -3.59749 0.158872 0
M  V30 1897 C 184.274 -4.21419 1.57245 0
M  V30 1898 C 185.593 -4.37149 -0.50879 0
M  V30 1899 H 182.712 -0.734694 0.0582602 0
M  V30 1900 H 185.354 -1.71157 0.824951 0
M  V30 1901 H 183.504 -3.86325 -0.410525 0
M  V30 1902 H 185.176 -4.059 2.19186 0
M  V30 1903 H 183.419 -3.78356 2.122 0
M  V30 1904 H 184.09 -5.30482 1.52619 0
M  V30 1905 H 186.566 -4.16093 -0.024412 0
M  V30 1906 H 185.442 -5.4683 -0.476213 0
M  V30 1907 H 185.703 -4.12839 -1.58165 0
M  V30 1908 N 184.763 -0.387143 -1.52771 0
M  V30 1909 C 185.991 0.195869 -2.05971 0
M  V30 1910 C 186.406 1.40691 -1.25903 0
M  V30 1911 O 185.763 1.79931 -0.305134 0
M  V30 1912 C 185.814 0.56812 -3.57008 0
M  V30 1913 O 185.535 -0.594803 -4.34043 0
M  V30 1914 C 187.036 1.20723 -4.26545 0
M  V30 1915 H 184.256 0.0300578 -0.670326 0
M  V30 1916 H 186.8 -0.551749 -1.96916 0
M  V30 1917 H 184.955 1.26564 -3.66143 0
M  V30 1918 H 185.369 -0.289322 -5.23701 0
M  V30 1919 H 186.843 1.41807 -5.33474 0
M  V30 1920 H 187.32 2.17395 -3.81623 0
M  V30 1921 H 187.926 0.550535 -4.21722 0
M  V30 1922 N 186.241 1.57166 -0.116904 0
M  V30 1923 C 187.489 1.94737 0.540533 0
M  V30 1924 C 187.81 1.00096 1.67349 0
M  V30 1925 O 187.08 0.0568854 1.95817 0
M  V30 1926 H 185.66 0.718981 0.202669 0
M  V30 1927 H 188.322 1.94017 -0.185353 0
M  V30 1928 H 187.418 2.97719 0.936483 0
M  V30 1929 N 187.719 -0.156864 1.56817 0
M  V30 1930 C 188.666 -1.19394 1.97519 0
M  V30 1931 C 189.636 -1.4322 0.841265 0
M  V30 1932 O 190.821 -1.55719 1.10255 0
M  V30 1933 C 187.961 -2.52483 2.35258 0
M  V30 1934 C 187.074 -2.35914 3.61896 0
M  V30 1935 C 186.209 -3.61969 3.88782 0
M  V30 1936 C 185.248 -3.40395 5.08722 0
M  V30 1937 N 184.385 -4.58556 5.31668 0
M  V30 1938 H 189.225 -0.839845 2.85921 0
M  V30 1939 H 186.762 -0.403264 1.41464 0
M  V30 1940 H 188.72 -3.30071 2.55165 0
M  V30 1941 H 187.35 -2.85859 1.49949 0
M  V30 1942 H 186.402 -1.49429 3.49821 0
M  V30 1943 H 187.714 -2.15926 4.49641 0
M  V30 1944 H 186.868 -4.47989 4.09135 0
M  V30 1945 H 185.607 -3.84951 2.9944 0
M  V30 1946 H 184.612 -2.52763 4.88253 0
M  V30 1947 H 185.837 -3.18822 5.99608 0
M  V30 1948 H 183.783 -4.81729 4.45279 0
M  V30 1949 H 183.7 -4.41535 6.13664 0
M  V30 1950 H 184.968 -5.45817 5.5651 0
M  V30 1951 N 189.197 -1.51736 -0.425897 0
M  V30 1952 C 190.427 -1.68549 -1.19476 0
M  V30 1953 C 190.835 -0.387288 -1.85194 0
M  V30 1954 O 190.178 0.645142 -1.71999 0
M  V30 1955 C 190.24 -2.75275 -2.31223 0
M  V30 1956 C 189.904 -4.17534 -1.8578 0
M  V30 1957 C 190.901 -5.01936 -1.35485 0
M  V30 1958 C 188.586 -4.6369 -1.93123 0
M  V30 1959 C 190.58 -6.30559 -0.931347 0
M  V30 1960 C 188.267 -5.92307 -1.50384 0
M  V30 1961 C 189.265 -6.75569 -1.00473 0
M  V30 1962 O 188.953 -8.0178 -0.583452 0
M  V30 1963 H 188.685 -0.568525 -0.365725 0
M  V30 1964 H 191.239 -1.98982 -0.509444 0
M  V30 1965 H 189.469 -2.40182 -3.03067 0
M  V30 1966 H 191.158 -2.80853 -2.93047 0
M  V30 1967 H 191.924 -4.67475 -1.29197 0
M  V30 1968 H 187.803 -3.98997 -2.30916 0
M  V30 1969 H 191.347 -6.95498 -0.541084 0
M  V30 1970 H 187.244 -6.2628 -1.56346 0
M  V30 1971 H 188.012 -8.1543 -0.708275 0
M  V30 1972 N 190.675 0.682077 -1.42076 0
M  V30 1973 C 191.585 1.82535 -1.47371 0
M  V30 1974 C 192.601 1.7017 -0.363079 0
M  V30 1975 O 193.777 1.91848 -0.612875 0
M  V30 1976 C 190.842 3.18624 -1.36674 0
M  V30 1977 C 189.903 3.42999 -2.58167 0
M  V30 1978 C 189.136 4.72595 -2.4797 0
M  V30 1979 O 189.359 5.50006 -1.5116 0
M  V30 1980 O 188.293 4.98054 -3.37974 0
M  V30 1981 H 192.119 1.81023 -2.43853 0
M  V30 1982 H 189.704 0.836887 -1.2376 0
M  V30 1983 H 191.586 3.99847 -1.33043 0
M  V30 1984 H 190.261 3.20789 -0.433138 0
M  V30 1985 H 189.168 2.61653 -2.67373 0
M  V30 1986 H 190.501 3.45659 -3.50401 0
M  V30 1987 N 192.153 1.28127 0.917671 0
M  V30 1988 C 193.402 1.14432 1.66097 0
M  V30 1989 C 193.715 -0.307247 1.93172 0
M  V30 1990 O 194.921 -0.565259 2.65551 0
M  V30 1991 C 193.377 2.00015 2.99202 0
M  V30 1992 C 192.985 3.49889 2.79789 0
M  V30 1993 C 194.729 1.94996 3.77064 0
M  V30 1994 C 192.636 4.27636 4.08511 0
M  V30 1995 H 191.566 0.424662 0.62304 0
M  V30 1996 H 194.217 1.52628 1.01868 0
M  V30 1997 H 192.599 1.54672 3.64544 0
M  V30 1998 H 193.773 4.03162 2.23152 0
M  V30 1999 H 192.088 3.56392 2.15345 0
M  V30 2000 H 194.685 2.50354 4.72469 0
M  V30 2001 H 195.028 0.925819 4.05875 0
M  V30 2002 H 195.561 2.38287 3.18534 0
M  V30 2003 H 192.3 5.30615 3.84874 0
M  V30 2004 H 191.82 3.79137 4.64774 0
M  V30 2005 H 193.499 4.37346 4.76799 0
M  V30 2006 N 193.631 -1.12557 1.10312 0
M  V30 2007 C 194.877 -1.84311 0.846011 0
M  V30 2008 C 195.21 -1.83805 -0.626859 0
M  V30 2009 O 194.485 -1.28268 -1.46211 0
M  V30 2010 C 194.768 -3.32048 1.39341 0
M  V30 2011 C 194.621 -3.41016 2.93305 0
M  V30 2012 C 195.94 -4.27764 1.03468 0
M  V30 2013 H 193.059 -0.669192 0.30879 0
M  V30 2014 H 195.701 -1.32057 1.36605 0
M  V30 2015 H 193.851 -3.76678 0.951087 0
M  V30 2016 H 195.523 -3.05031 3.46055 0
M  V30 2017 H 193.766 -2.81603 3.29973 0
M  V30 2018 H 194.437 -4.44948 3.26689 0
M  V30 2019 H 196.913 -3.91253 1.41633 0
M  V30 2020 H 195.789 -5.29549 1.44463 0
M  V30 2021 H 196.05 -4.42064 -0.0560404 0
M  V30 2022 N 195.109 -0.891671 -1.2995 0
M  V30 2023 C 196.357 -0.512486 -1.95494 0
M  V30 2024 C 196.678 0.942776 -1.70695 0
M  V30 2025 O 195.948 1.66374 -1.03424 0
M  V30 2026 H 194.528 -0.186533 -0.723336 0
M  V30 2027 H 197.19 -1.13621 -1.58355 0
M  V30 2028 H 196.286 -0.688342 -3.04415 0
M  V30 2029 N 196.587 1.43421 -0.653314 0
M  V30 2030 C 197.834 2.01812 -0.166745 0
M  V30 2031 C 198.162 1.51535 1.21931 0
M  V30 2032 O 197.417 0.698975 1.82792 0
M  V30 2033 C 197.716 3.57176 -0.126623 0
M  V30 2034 C 197.382 4.26798 -1.45444 0
M  V30 2035 C 196.044 4.45534 -1.81805 0
M  V30 2036 C 198.396 4.66225 -2.32989 0
M  V30 2037 C 195.724 5.00961 -3.05377 0
M  V30 2038 C 198.076 5.23021 -3.55853 0
M  V30 2039 C 196.74 5.39973 -3.9241 0
M  V30 2040 H 196.01 0.738484 -0.0610162 0
M  V30 2041 H 198.657 1.71896 -0.84404 0
M  V30 2042 H 196.962 3.86634 0.634123 0
M  V30 2043 H 198.659 4.00112 0.266723 0
M  V30 2044 H 195.249 4.12561 -1.16153 0
M  V30 2045 H 199.433 4.51443 -2.06187 0
M  V30 2046 H 194.689 5.12271 -3.3375 0
M  V30 2047 H 198.863 5.52518 -4.23907 0
M  V30 2048 H 196.49 5.82687 -4.88242 0
M  V30 2049 N 198.065 0.39524 1.52563 0
M  V30 2050 C 199.028 -0.425001 2.25225 0
M  V30 2051 C 200.028 -0.985266 1.27079 0
M  V30 2052 O 201.218 -0.866332 1.5113 0
M  V30 2053 C 198.35 -1.59686 3.01186 0
M  V30 2054 H 199.543 0.211233 2.99155 0
M  V30 2055 H 197.096 0.147472 1.55603 0
M  V30 2056 H 197.831 -2.27035 2.31572 0
M  V30 2057 H 197.616 -1.20176 3.73229 0
M  V30 2058 H 199.106 -2.17743 3.5634 0
M  V30 2059 N 199.544 -1.57102 0.125237 0
M  V30 2060 C 200.476 -2.12726 -0.853237 0
M  V30 2061 C 201.489 -1.07145 -1.22571 0
M  V30 2062 O 202.678 -1.34497 -1.17358 0
M  V30 2063 C 199.778 -2.61709 -2.15317 0
M  V30 2064 C 198.951 -3.91456 -1.95143 0
M  V30 2065 C 198.01 -4.25973 -3.08923 0
M  V30 2066 O 197.036 -4.94682 -2.81564 0
M  V30 2067 N 198.238 -3.83795 -4.35524 0
M  V30 2068 H 201.003 -2.97307 -0.377964 0
M  V30 2069 H 198.564 -1.61792 -0.0590011 0
M  V30 2070 H 200.556 -2.81826 -2.90441 0
M  V30 2071 H 199.126 -1.81974 -2.54174 0
M  V30 2072 H 198.346 -3.80185 -1.04177 0
M  V30 2073 H 199.634 -4.76283 -1.78976 0
M  V30 2074 H 199.032 -3.2839 -4.60626 0
M  V30 2075 H 197.589 -4.09008 -5.07499 0
M  V30 2076 N 201.022 0.148545 -1.56898 0
M  V30 2077 C 202.247 0.880385 -1.87787 0
M  V30 2078 C 202.672 1.74018 -0.714093 0
M  V30 2079 O 202.03 1.78153 0.336343 0
M  V30 2080 C 202.078 1.71422 -3.17249 0
M  V30 2081 O 201.182 2.8183 -3.01074 0
M  V30 2082 H 200.523 0.245301 -0.617028 0
M  V30 2083 H 203.053 0.139826 -2.04122 0
M  V30 2084 H 203.063 2.10954 -3.49231 0
M  V30 2085 H 201.738 1.08284 -4.01556 0
M  V30 2086 H 200.315 2.45715 -2.80497 0
M  V30 2087 N 202.5 1.5196 0.417844 0
M  V30 2088 C 203.746 1.66793 1.16411 0
M  V30 2089 C 204.101 0.388758 1.88432 0
M  V30 2090 O 203.394 -0.616409 1.81414 0
M  V30 2091 C 203.588 2.82269 2.19223 0
M  V30 2092 C 203.417 4.21293 1.57297 0
M  V30 2093 C 202.187 4.86948 1.34944 0
M  V30 2094 C 204.385 5.03704 1.03858 0
M  V30 2095 N 202.367 6.1003 0.688195 0
M  V30 2096 C 203.738 6.1795 0.503742 0
M  V30 2097 C 205.793 4.89095 0.932203 0
M  V30 2098 C 204.496 7.19188 -0.127034 0
M  V30 2099 C 206.522 5.90559 0.315293 0
M  V30 2100 C 205.884 7.0409 -0.208906 0
M  V30 2101 H 201.983 0.66407 0.412959 0
M  V30 2102 H 204.567 1.89242 0.457772 0
M  V30 2103 H 202.738 2.61451 2.87225 0
M  V30 2104 H 204.47 2.86183 2.86149 0
M  V30 2105 H 201.225 4.45156 1.61657 0
M  V30 2106 H 201.649 6.75964 0.374449 0
M  V30 2107 H 206.291 4.01557 1.32332 0
M  V30 2108 H 204.009 8.06359 -0.530231 0
M  V30 2109 H 207.595 5.81327 0.234625 0
M  V30 2110 H 206.475 7.81257 -0.67875 0
M  V30 2111 N 203.978 -0.674533 1.42435 0
M  V30 2112 C 204.928 -1.7807 1.4239 0
M  V30 2113 C 205.912 -1.58169 0.295202 0
M  V30 2114 O 207.104 -1.68643 0.537449 0
M  V30 2115 C 204.233 -3.16532 1.32901 0
M  V30 2116 C 203.319 -3.42055 2.50717 0
M  V30 2117 N 203.71 -3.38162 3.76139 0
M  V30 2118 C 202.008 -3.72692 2.44983 0
M  V30 2119 C 202.709 -3.63177 4.54398 0
M  V30 2120 N 201.685 -3.83954 3.84812 0
M  V30 2121 H 205.487 -1.73454 2.37257 0
M  V30 2122 H 203.001 -0.875381 1.36788 0
M  V30 2123 H 204.998 -3.958 1.30951 0
M  V30 2124 H 203.658 -3.22345 0.390363 0
M  V30 2125 H 204.669 -3.18057 4.0873 0
M  V30 2126 H 201.346 -3.85749 1.59699 0
M  V30 2127 H 202.736 -3.66125 5.63384 0
M  V30 2128 N 205.456 -1.28612 -0.910864 0
M  V30 2129 C 206.704 -1.15705 -1.65701 0
M  V30 2130 C 207.025 0.29416 -1.92769 0
M  V30 2131 O 206.295 1.20331 -1.54588 0
M  V30 2132 H 204.875 -0.425216 -0.614167 0
M  V30 2133 H 207.537 -1.61381 -1.0928 0
M  V30 2134 H 206.633 -1.6988 -2.61815 0
M  V30 2135 N 206.934 1.1197 -1.10907 0
M  V30 2136 C 207.867 2.16998 -0.706192 0
M  V30 2137 C 208.845 1.59903 0.294897 0
M  V30 2138 O 210.029 1.87513 0.192636 0
M  V30 2139 C 207.156 3.38673 -0.0427664 0
M  V30 2140 C 206.202 4.14414 -1.00811 0
M  V30 2141 S 207.035 4.72079 -2.52789 0
M  V30 2142 C 208.191 5.97083 -1.87731 0
M  V30 2143 H 208.424 2.50837 -1.59587 0
M  V30 2144 H 205.957 1.23508 -0.926555 0
M  V30 2145 H 207.915 4.09142 0.333668 0
M  V30 2146 H 206.576 3.03105 0.823788 0
M  V30 2147 H 205.769 5.016 -0.491259 0
M  V30 2148 H 205.371 3.49678 -1.3267 0
M  V30 2149 H 207.663 6.66599 -1.21044 0
M  V30 2150 H 208.606 6.53403 -2.72892 0
M  V30 2151 H 209.014 5.4837 -1.33979 0
M  V30 2152 N 208.412 0.89855 1.29475 0
M  V30 2153 C 209.64 0.539261 1.99749 0
M  V30 2154 C 210.055 -0.875716 1.67262 0
M  V30 2155 O 209.412 -1.57786 0.917049 0
M  V30 2156 C 209.463 0.72061 3.54245 0
M  V30 2157 O 209.184 2.07989 3.8558 0
M  V30 2158 C 210.685 0.366118 4.41786 0
M  V30 2159 H 207.905 0.207047 0.638258 0
M  V30 2160 H 210.449 1.20758 1.65039 0
M  V30 2161 H 208.604 0.0994862 3.87272 0
M  V30 2162 H 209.018 2.10841 4.80257 0
M  V30 2163 H 210.492 0.543848 5.49314 0
M  V30 2164 H 210.969 -0.696763 4.33638 0
M  V30 2165 H 211.575 0.964135 4.14228 0
M  V30 2166 N 209.89 -1.43072 0.660911 0
M  V30 2167 C 211.138 -2.01323 0.177094 0
M  V30 2168 C 211.459 -1.5245 -1.2159 0
M  V30 2169 O 210.729 -0.740322 -1.81373 0
M  V30 2170 H 209.309 -0.744382 0.0624804 0
M  V30 2171 H 211.971 -1.75179 0.854305 0
M  V30 2172 H 211.067 -3.11649 0.167641 0
M  V30 2173 N 211.368 -0.403325 -1.52352 0
M  V30 2174 C 212.331 0.413051 -2.25447 0
M  V30 2175 C 213.331 0.978513 -1.276 0
M  V30 2176 O 214.521 0.858305 -1.51587 0
M  V30 2177 C 211.653 1.58087 -3.02029 0
M  V30 2178 H 212.846 -0.227094 -2.99039 0
M  V30 2179 H 210.399 -0.155722 -1.55522 0
M  V30 2180 H 211.134 2.25804 -2.32772 0
M  V30 2181 H 210.919 1.18195 -3.73861 0
M  V30 2182 H 212.409 2.1585 -3.57489 0
M  V30 2183 N 212.846 1.57033 -0.133567 0
M  V30 2184 C 213.809 2.14897 0.796995 0
M  V30 2185 C 214.809 1.0874 1.18458 0
M  V30 2186 O 215.999 1.34446 1.1077 0
M  V30 2187 C 213.131 2.70112 2.07973 0
M  V30 2188 H 214.324 2.98457 0.293873 0
M  V30 2189 H 211.877 1.55871 0.115787 0
M  V30 2190 H 212.612 1.9018 2.62682 0
M  V30 2191 H 212.397 3.47764 1.81115 0
M  V30 2192 H 213.887 3.14738 2.74462 0
M  V30 2193 N 214.325 -0.140222 1.56975 0
M  V30 2194 C 215.288 -1.15689 1.97861 0
M  V30 2195 C 216.288 -1.3549 0.865974 0
M  V30 2196 O 217.478 -1.32367 1.13246 0
M  V30 2197 C 214.61 -2.51582 2.30042 0
M  V30 2198 H 215.803 -0.805971 2.88867 0
M  V30 2199 H 213.356 -0.383801 1.51515 0
M  V30 2200 H 214.091 -2.91632 1.41849 0
M  V30 2201 H 213.876 -2.38569 3.11171 0
M  V30 2202 H 215.366 -3.24792 2.62488 0
M  V30 2203 N 215.803 -1.52179 -0.40978 0
M  V30 2204 C 217.028 -1.70347 -1.18308 0
M  V30 2205 C 217.453 -0.411887 -1.83535 0
M  V30 2206 O 216.811 0.630587 -1.6998 0
M  V30 2207 C 216.859 -2.83977 -2.22238 0
M  V30 2208 O 215.963 -2.495 -3.28365 0
M  V30 2209 H 215.304 -0.567103 -0.345384 0
M  V30 2210 H 217.834 -1.98879 -0.480445 0
M  V30 2211 H 217.844 -3.0887 -2.66577 0
M  V30 2212 H 216.519 -3.77685 -1.74146 0
M  V30 2213 H 215.096 -2.35277 -2.89308 0
M  V30 2214 N 217.281 0.66697 -1.42791 0
M  V30 2215 C 218.244 1.76211 -1.46568 0
M  V30 2216 C 219.244 1.56896 -0.352196 0
M  V30 2217 O 220.434 1.63044 -0.613364 0
M  V30 2218 C 217.566 3.14935 -1.30494 0
M  V30 2219 H 218.759 1.74247 -2.44086 0
M  V30 2220 H 216.312 0.877342 -1.29354 0
M  V30 2221 H 217.047 3.2252 -0.339301 0
M  V30 2222 H 216.832 3.30359 -2.11199 0
M  V30 2223 H 218.322 3.94821 -1.36038 0
M  V30 2224 N 218.759 1.29093 0.90403 0
M  V30 2225 C 219.987 1.19689 1.68766 0
M  V30 2226 C 220.402 -0.243113 1.87228 0
M  V30 2227 O 219.759 -1.16326 1.40621 0
M  V30 2228 C 219.81 1.90144 3.07453 0
M  V30 2229 O 219.531 3.2852 2.89838 0
M  V30 2230 C 221.032 1.87162 4.01852 0
M  V30 2231 H 218.252 0.415035 0.527244 0
M  V30 2232 H 220.796 1.7039 1.13082 0
M  V30 2233 H 218.951 1.43289 3.59926 0
M  V30 2234 H 219.365 3.63944 3.77684 0
M  V30 2235 H 220.839 2.41032 4.96596 0
M  V30 2236 H 221.316 0.84617 4.30972 0
M  V30 2237 H 221.922 2.33741 3.5531 0
M  V30 2238 N 220.237 -1.11381 1.11499 0
M  V30 2239 C 221.467 -1.86663 0.885464 0
M  V30 2240 C 221.875 -1.80464 -0.568281 0
M  V30 2241 O 221.218 -1.18445 -1.40415 0
M  V30 2242 C 221.28 -3.36337 1.26956 0
M  V30 2243 C 220.944 -3.66304 2.73259 0
M  V30 2244 C 221.941 -3.63733 3.71476 0
M  V30 2245 C 219.626 -3.9529 3.09921 0
M  V30 2246 C 221.62 -3.89725 5.04374 0
M  V30 2247 C 219.307 -4.20941 4.43004 0
M  V30 2248 C 220.305 -4.18147 5.40039 0
M  V30 2249 O 219.993 -4.43153 6.70724 0
M  V30 2250 H 219.725 -0.597114 0.316908 0
M  V30 2251 H 222.279 -1.41782 1.48617 0
M  V30 2252 H 220.509 -3.81826 0.611999 0
M  V30 2253 H 222.198 -3.92986 1.01573 0
M  V30 2254 H 222.964 -3.41389 3.44498 0
M  V30 2255 H 218.843 -3.966 2.35009 0
M  V30 2256 H 222.387 -3.8746 5.80104 0
M  V30 2257 H 218.284 -4.42761 4.69716 0
M  V30 2258 H 219.052 -4.60717 6.76522 0
M  V30 2259 N 221.715 -0.905404 -1.28997 0
M  V30 2260 C 222.94 -0.549175 -1.99997 0
M  V30 2261 C 223.365 0.860276 -1.67275 0
M  V30 2262 O 222.723 1.57355 -0.900502 0
M  V30 2263 C 222.771 -0.755185 -3.52604 0
M  V30 2264 O 221.875 0.189692 -4.11964 0
M  V30 2265 H 221.216 -0.213899 -0.628604 0
M  V30 2266 H 223.746 -1.21856 -1.64354 0
M  V30 2267 H 223.756 -0.662045 -4.02593 0
M  V30 2268 H 222.431 -1.78271 -3.75755 0
M  V30 2269 H 221.008 0.0485257 -3.72868 0
M  V30 2270 N 223.193 1.4272 -0.668489 0
M  V30 2271 C 224.156 2.292 0.00448567 0
M  V30 2272 C 225.156 1.43001 0.735339 0
M  V30 2273 O 226.346 1.64461 0.57429 0
M  V30 2274 C 223.478 3.25375 1.01705 0
M  V30 2275 H 224.671 2.90199 -0.756608 0
M  V30 2276 H 222.224 1.50254 -0.430506 0
M  V30 2277 H 222.959 2.69301 1.80686 0
M  V30 2278 H 222.744 3.88944 0.496463 0
M  V30 2279 H 224.234 3.90245 1.48655 0
M  V30 2280 N 224.671 0.411399 1.52136 0
M  V30 2281 C 225.919 -0.163322 2.01439 0
M  V30 2282 C 226.24 -1.45453 1.29879 0
M  V30 2283 O 225.51 -1.91225 0.4254 0
M  V30 2284 H 224.09 -0.0633447 0.744309 0
M  V30 2285 H 226.752 0.548161 1.87033 0
M  V30 2286 H 225.848 -0.357817 3.10042 0
M  V30 2287 N 226.149 -1.5696 0.141893 0
M  V30 2288 C 227.565 -1.58151 -0.21456 0
M  V30 2289 C 227.765 -1.1559 -1.65049 0
M  V30 2290 O 226.821 -0.853832 -2.37626 0
M  V30 2291 C 228.134 -3.00674 0.0395576 0
M  V30 2292 C 229.682 -3.1299 -0.0245529 0
M  V30 2293 C 230.157 -4.57554 0.202167 0
M  V30 2294 N 231.648 -4.62961 0.148919 0
M  V30 2295 C 232.383 -5.7262 0.298924 0
M  V30 2296 N 231.879 -6.90947 0.50637 0
M  V30 2297 N 233.672 -5.61601 0.236886 0
M  V30 2298 H 225.823 -1.8292 1.07953 0
M  V30 2299 H 228.086 -0.846425 0.42693 0
M  V30 2300 H 227.792 -3.36183 1.03315 0
M  V30 2301 H 227.666 -3.70981 -0.682143 0
M  V30 2302 H 230.053 -2.77326 -1.00869 0
M  V30 2303 H 230.134 -2.4518 0.729396 0
M  V30 2304 H 229.778 -4.93922 1.18338 0
M  V30 2305 H 229.708 -5.23484 -0.572044 0
M  V30 2306 H 232.199 -3.77899 -0.00697015 0
M  V30 2307 H 232.512 -7.7038 0.611076 0
M  V30 2308 H 230.857 -6.92878 0.542628 0
M  V30 2309 H 234.048 -4.68039 0.0756209 0
M  V30 2310 H 234.221 -6.47015 0.357227 0
M  V30 2311 N 227.627 0.131896 -1.57047 0
M  V30 2312 C 228.574 1.16236 -1.99393 0
M  V30 2313 C 229.544 1.41863 -0.863943 0
M  V30 2314 O 230.729 1.53946 -1.12718 0
M  V30 2315 C 227.869 2.48708 -2.39245 0
M  V30 2316 C 226.982 2.30127 -3.65603 0
M  V30 2317 C 226.117 3.55738 -3.94492 0
M  V30 2318 C 225.156 3.32259 -5.14073 0
M  V30 2319 N 224.293 4.50039 -5.38896 0
M  V30 2320 H 229.133 0.794251 -2.87221 0
M  V30 2321 H 226.67 0.380707 -1.42088 0
M  V30 2322 H 228.628 3.25969 -2.60384 0
M  V30 2323 H 227.258 2.83437 -1.54478 0
M  V30 2324 H 226.31 1.43845 -3.52154 0
M  V30 2325 H 227.622 2.08746 -4.5302 0
M  V30 2326 H 226.776 4.41423 -4.1621 0
M  V30 2327 H 225.515 3.80138 -3.05526 0
M  V30 2328 H 224.52 2.44963 -4.92212 0
M  V30 2329 H 225.745 3.09242 -6.04604 0
M  V30 2330 H 223.691 4.74584 -4.52886 0
M  V30 2331 H 223.608 4.31716 -6.2061 0
M  V30 2332 H 224.876 5.36895 -5.65123 0
M  V30 2333 N 229.106 1.52395 0.401703 0
M  V30 2334 C 230.354 1.66488 1.14569 0
M  V30 2335 C 230.675 0.400897 1.90835 0
M  V30 2336 O 229.945 -0.584415 1.8698 0
M  V30 2337 H 228.525 0.613672 0.425929 0
M  V30 2338 H 231.187 1.89464 0.457093 0
M  V30 2339 H 230.283 2.50942 1.85566 0
M  V30 2340 N 230.584 -0.659388 1.43143 0
M  V30 2341 C 231.83 -1.42145 1.44647 0
M  V30 2342 C 232.163 -1.9408 0.0681907 0
M  V30 2343 O 231.438 -1.71899 -0.910007 0
M  V30 2344 C 231.721 -2.60735 2.48373 0
M  V30 2345 C 231.574 -2.14332 3.95451 0
M  V30 2346 C 232.893 -3.62951 2.48906 0
M  V30 2347 H 230.012 -0.51552 0.526696 0
M  V30 2348 H 232.654 -0.748069 1.74654 0
M  V30 2349 H 230.804 -3.18184 2.22916 0
M  V30 2350 H 232.476 -1.61932 4.31944 0
M  V30 2351 H 230.719 -1.4576 4.08578 0
M  V30 2352 H 231.39 -2.99583 4.63631 0
M  V30 2353 H 233.866 -3.1525 2.71582 0
M  V30 2354 H 232.742 -4.43487 3.23435 0
M  V30 2355 H 233.003 -4.15126 1.52061 0
M  V30 2356 N 232.062 -1.29571 -0.897171 0
M  V30 2357 C 233.31 -1.17456 -1.64464 0
M  V30 2358 C 233.631 0.273698 -1.9307 0
M  V30 2359 O 232.901 1.18684 -1.55855 0
M  V30 2360 H 231.481 -0.431706 -0.609622 0
M  V30 2361 H 234.143 -1.62531 -1.07562 0
M  V30 2362 H 233.239 -1.72648 -2.59998 0
M  V30 2363 N 233.54 1.10788 -1.12088 0
M  V30 2364 C 234.951 1.64181 -0.88891 0
M  V30 2365 C 235.302 1.87508 0.577498 0
M  V30 2366 O 234.427 1.61434 1.44112 0
M  V30 2367 C 235.022 2.98257 -1.60712 0
M  V30 2368 C 233.581 3.4853 -1.42139 0
M  V30 2369 C 232.728 2.23208 -1.6454 0
M  V30 2370 H 235.679 0.943368 -1.27618 0
M  V30 2371 H 235.7 3.65552 -1.05604 0
M  V30 2372 H 235.212 2.81246 -2.67436 0
M  V30 2373 H 233.313 3.70692 -0.376552 0
M  V30 2374 H 233.426 4.26882 -2.17505 0
M  V30 2375 H 231.79 2.31169 -1.06925 0
M  V30 2376 H 232.573 2.08733 -2.72554 0
M  V30 2377 N 235.018 0.912232 1.28515 0
M  V30 2378 C 235.981 0.404223 2.25607 0
M  V30 2379 C 236.981 -0.468602 1.53821 0
M  V30 2380 O 238.171 -0.271873 1.72065 0
M  V30 2381 C 235.303 -0.420653 3.38295 0
M  V30 2382 H 236.496 1.26188 2.7206 0
M  V30 2383 H 234.049 0.691495 1.40171 0
M  V30 2384 H 234.784 -1.29777 2.97201 0
M  V30 2385 H 234.569 0.204935 3.91564 0
M  V30 2386 H 236.059 -0.766971 4.10496 0
M  V30 2387 N 236.496 -1.42363 0.676048 0
M  V30 2388 C 237.459 -2.29199 0.00766941 0
M  V30 2389 C 238.459 -1.43389 -0.727745 0
M  V30 2390 O 239.649 -1.64764 -0.56556 0
M  V30 2391 C 236.781 -3.2591 -0.999785 0
M  V30 2392 H 237.974 -2.89794 0.771988 0
M  V30 2393 H 235.527 -1.50024 0.438468 0
M  V30 2394 H 236.262 -2.70256 -1.79255 0
M  V30 2395 H 236.047 -3.89202 -0.475829 0
M  V30 2396 H 237.537 -3.91028 -1.46583 0
M  V30 2397 N 237.974 -0.419461 -1.51915 0
M  V30 2398 C 239.22 0.153166 -2.02221 0
M  V30 2399 C 239.553 1.43907 -1.30401 0
M  V30 2400 O 238.828 1.90055 -0.413438 0
M  V30 2401 C 239.111 0.390291 -3.57979 0
M  V30 2402 C 238.964 -0.913014 -4.40436 0
M  V30 2403 C 240.283 1.16794 -4.2432 0
M  V30 2404 H 237.402 0.0541924 -0.735005 0
M  V30 2405 H 240.044 -0.554955 -1.81715 0
M  V30 2406 H 238.194 0.993491 -3.75582 0
M  V30 2407 H 239.866 -1.54882 -4.34522 0
M  V30 2408 H 238.109 -1.52168 -4.06236 0
M  V30 2409 H 238.78 -0.701361 -5.47526 0
M  V30 2410 H 241.256 0.657161 -4.10878 0
M  V30 2411 H 240.132 1.3026 -5.3322 0
M  V30 2412 H 240.393 2.19132 -3.83971 0
M  V30 2413 N 239.452 1.56882 -0.150215 0
M  V30 2414 C 240.7 1.9584 0.499105 0
M  V30 2415 C 241.021 1.03623 1.65188 0
M  V30 2416 O 240.291 0.0984084 1.95653 0
M  V30 2417 H 238.871 0.723119 0.187373 0
M  V30 2418 H 241.533 1.9358 -0.226466 0
M  V30 2419 H 240.629 2.99638 0.873122 0
M  V30 2420 N 240.93 -0.123565 1.57115 0
M  V30 2421 C 242.155 -0.850398 1.89164 0
M  V30 2422 C 242.58 -1.7286 0.741688 0
M  V30 2423 O 241.938 -1.78665 -0.307958 0
M  V30 2424 C 241.986 -1.66353 3.19936 0
M  V30 2425 O 241.09 -2.77004 3.0552 0
M  V30 2426 H 240.431 -0.235454 0.620852 0
M  V30 2427 H 242.961 -0.107335 2.04318 0
M  V30 2428 H 242.971 -2.05372 3.52543 0
M  V30 2429 H 241.646 -1.01881 4.03228 0
M  V30 2430 H 240.223 -2.41221 2.84371 0
M  V30 2431 N 242.408 -1.52605 -0.393616 0
M  V30 2432 C 243.655 -1.67424 -1.1391 0
M  V30 2433 C 243.983 -0.411859 -1.90089 0
M  V30 2434 O 243.238 0.605626 -1.86093 0
M  V30 2435 C 243.537 -2.85721 -2.14705 0
M  V30 2436 C 243.203 -4.23342 -1.55218 0
M  V30 2437 C 241.865 -4.60771 -1.3872 0
M  V30 2438 C 244.217 -5.09041 -1.11924 0
M  V30 2439 C 241.545 -5.81563 -0.774689 0
M  V30 2440 C 243.897 -6.30452 -0.520853 0
M  V30 2441 C 242.561 -6.66617 -0.343134 0
M  V30 2442 H 241.831 -0.612648 -0.416826 0
M  V30 2443 H 244.478 -1.8674 -0.424315 0
M  V30 2444 H 242.783 -2.60803 -2.92385 0
M  V30 2445 H 244.48 -2.94382 -2.72288 0
M  V30 2446 H 241.07 -3.93855 -1.69045 0
M  V30 2447 H 245.254 -4.80695 -1.23473 0
M  V30 2448 H 240.51 -6.08196 -0.625154 0
M  V30 2449 H 244.684 -6.96175 -0.177065 0
M  V30 2450 H 242.311 -7.60083 0.133571 0
M  V30 2451 N 243.887 0.651787 -1.4349 0
M  V30 2452 C 244.85 1.74647 -1.48429 0
M  V30 2453 C 245.85 1.56513 -0.368817 0
M  V30 2454 O 247.04 1.62385 -0.630623 0
M  V30 2455 C 244.172 3.13533 -1.33827 0
M  V30 2456 H 245.365 1.71649 -2.4592 0
M  V30 2457 H 242.918 0.863573 -1.30277 0
M  V30 2458 H 243.653 3.22142 -0.37349 0
M  V30 2459 H 243.438 3.28101 -2.14691 0
M  V30 2460 H 244.928 3.93356 -1.40218 0
M  V30 2461 N 245.365 1.30045 0.890287 0
M  V30 2462 C 246.614 1.17929 1.63633 0
M  V30 2463 C 246.927 -0.266204 1.9378 0
M  V30 2464 O 248.133 -0.508804 2.6669 0
M  V30 2465 C 246.589 2.06317 2.94892 0
M  V30 2466 C 246.197 3.55745 2.72305 0
M  V30 2467 C 247.941 2.0295 3.72843 0
M  V30 2468 C 245.848 4.36205 3.99348 0
M  V30 2469 H 244.778 0.437782 0.613892 0
M  V30 2470 H 247.429 1.54754 0.986075 0
M  V30 2471 H 245.811 1.6237 3.61182 0
M  V30 2472 H 246.985 4.07805 2.1455 0
M  V30 2473 H 245.3 3.6088 2.07737 0
M  V30 2474 H 247.897 2.60319 4.67053 0
M  V30 2475 H 248.24 1.0117 4.0382 0
M  V30 2476 H 248.773 2.4499 3.13408 0
M  V30 2477 H 245.512 5.38659 3.73533 0
M  V30 2478 H 245.032 3.8891 4.56628 0
M  V30 2479 H 246.711 4.47362 4.67415 0
M  V30 2480 N 246.843 -1.10192 1.12674 0
M  V30 2481 C 248.254 -1.63707 0.897604 0
M  V30 2482 C 248.605 -1.87812 -0.567546 0
M  V30 2483 O 247.73 -1.62196 -1.43253 0
M  V30 2484 C 248.325 -2.974 1.62292 0
M  V30 2485 C 246.884 -3.47772 1.43986 0
M  V30 2486 C 246.031 -2.22332 1.65722 0
M  V30 2487 H 248.982 -0.936587 1.28116 0
M  V30 2488 H 249.003 -3.64986 1.07541 0
M  V30 2489 H 248.515 -2.79824 2.68924 0
M  V30 2490 H 246.616 -3.70487 0.396206 0
M  V30 2491 H 246.729 -4.25723 2.19765 0
M  V30 2492 H 245.093 -2.30599 1.08149 0
M  V30 2493 H 245.876 -2.07285 2.73657 0
M  V30 2494 N 248.321 -0.919034 -1.28029 0
M  V30 2495 C 249.284 -0.416182 -2.2539 0
M  V30 2496 C 250.284 0.460438 -1.54067 0
M  V30 2497 O 251.474 0.262744 -1.72207 0
M  V30 2498 C 248.606 0.402707 -3.38513 0
M  V30 2499 H 249.799 -1.27629 -2.71387 0
M  V30 2500 H 247.352 -0.698919 -1.39803 0
M  V30 2501 H 248.087 1.282 -2.97885 0
M  V30 2502 H 247.872 -0.225698 -3.9145 0
M  V30 2503 H 249.362 0.745191 -4.10897 0
M  V30 2504 N 249.799 1.42003 -0.683588 0
M  V30 2505 C 251.21 1.84501 -0.285736 0
M  V30 2506 C 251.561 1.57213 1.17382 0
M  V30 2507 O 250.686 1.03642 1.89966 0
M  V30 2508 C 251.281 3.34912 -0.511821 0
M  V30 2509 C 249.84 3.76025 -0.168005 0
M  V30 2510 C 248.987 2.6551 -0.799983 0
M  V30 2511 H 251.938 1.31724 -0.885119 0
M  V30 2512 H 251.959 3.79784 0.233292 0
M  V30 2513 H 251.471 3.54741 -1.57418 0
M  V30 2514 H 249.572 3.61801 0.890567 0
M  V30 2515 H 249.685 4.75141 -0.614661 0
M  V30 2516 H 248.049 2.53654 -0.230568 0
M  V30 2517 H 248.832 2.8816 -1.86597 0
M  V30 2518 N 251.277 0.427512 1.51691 0
M  V30 2519 C 252.524 -0.142229 2.02 0
M  V30 2520 C 252.852 -1.43566 1.31221 0
M  V30 2521 O 252.107 -1.91298 0.412744 0
M  V30 2522 C 252.406 -0.418249 3.54944 0
M  V30 2523 C 252.072 0.788187 4.43958 0
M  V30 2524 C 250.734 1.11906 4.68007 0
M  V30 2525 C 253.086 1.59347 4.96244 0
M  V30 2526 C 250.414 2.25608 5.41588 0
M  V30 2527 C 252.766 2.7214 5.71072 0
M  V30 2528 C 251.43 3.05692 5.93387 0
M  V30 2529 H 250.7 -0.0520451 0.73917 0
M  V30 2530 H 253.347 0.572697 1.82736 0
M  V30 2531 H 251.652 -1.21496 3.72486 0
M  V30 2532 H 253.349 -0.872339 3.91397 0
M  V30 2533 H 249.939 0.520344 4.2543 0
M  V30 2534 H 254.123 1.35106 4.77556 0
M  V30 2535 H 249.379 2.51929 5.57083 0
M  V30 2536 H 253.553 3.34914 6.10578 0
M  V30 2537 H 251.18 3.9391 6.50184 0
M  V30 2538 N 252.755 -1.56801 0.158532 0
M  V30 2539 C 253.983 -2.00859 -0.496303 0
M  V30 2540 C 254.398 -1.03871 -1.57659 0
M  V30 2541 O 253.755 -0.0375165 -1.82461 0
M  V30 2542 C 253.806 -3.4479 -1.08638 0
M  V30 2543 O 253.527 -4.38072 -0.0492322 0
M  V30 2544 C 255.028 -4.04185 -1.8207 0
M  V30 2545 H 252.248 -0.65864 -0.128199 0
M  V30 2546 H 254.792 -2.02885 0.256506 0
M  V30 2547 H 252.947 -3.43579 -1.78975 0
M  V30 2548 H 253.361 -5.2227 -0.483102 0
M  V30 2549 H 254.835 -5.06857 -2.18633 0
M  V30 2550 H 255.312 -3.45549 -2.71095 0
M  V30 2551 H 255.918 -4.0906 -1.16405 0
M  V30 2552 N 254.233 0.115231 -1.57178 0
M  V30 2553 C 255.463 0.835224 -1.88964 0
M  V30 2554 C 255.871 1.73774 -0.74829 0
M  V30 2555 O 255.214 1.81401 0.289739 0
M  V30 2556 C 255.276 1.7178 -3.15804 0
M  V30 2557 C 254.94 0.989198 -4.46166 0
M  V30 2558 C 255.937 0.328263 -5.18863 0
M  V30 2559 C 253.622 0.969256 -4.9286 0
M  V30 2560 C 255.616 -0.342873 -6.36477 0
M  V30 2561 C 253.303 0.294324 -6.10391 0
M  V30 2562 C 254.301 -0.360582 -6.82048 0
M  V30 2563 O 253.989 -1.02474 -7.97342 0
M  V30 2564 H 253.721 0.245197 -0.629964 0
M  V30 2565 H 256.275 0.10303 -2.05141 0
M  V30 2566 H 254.505 2.49173 -2.95719 0
M  V30 2567 H 256.194 2.31255 -3.33581 0
M  V30 2568 H 256.96 0.335263 -4.8384 0
M  V30 2569 H 252.839 1.46844 -4.36987 0
M  V30 2570 H 256.383 -0.854629 -6.92345 0
M  V30 2571 H 252.28 0.285099 -6.4487 0
M  V30 2572 H 253.048 -0.929594 -8.13204 0
M  V30 2573 N 255.711 1.52812 0.385517 0
M  V30 2574 C 257.127 1.4214 0.725829 0
M  V30 2575 C 257.327 0.544589 1.94001 0
M  V30 2576 O 256.383 0.0193693 2.52493 0
M  V30 2577 C 257.696 2.85042 0.957668 0
M  V30 2578 C 259.244 2.94543 1.05892 0
M  V30 2579 C 259.719 4.38464 1.32337 0
M  V30 2580 N 261.21 4.41804 1.39151 0
M  V30 2581 C 261.945 5.5025 1.61285 0
M  V30 2582 N 261.441 6.68775 1.80866 0
M  V30 2583 N 263.234 5.37798 1.63492 0
M  V30 2584 H 255.385 2.08338 -0.413383 0
M  V30 2585 H 257.648 0.940016 -0.122775 0
M  V30 2586 H 257.354 3.51431 0.137568 0
M  V30 2587 H 257.228 3.27505 1.87137 0
M  V30 2588 H 259.615 2.28321 1.86959 0
M  V30 2589 H 259.696 2.55504 0.123057 0
M  V30 2590 H 259.34 5.05254 0.517793 0
M  V30 2591 H 259.27 4.75059 2.27214 0
M  V30 2592 H 261.761 3.56377 1.25713 0
M  V30 2593 H 262.074 7.47197 1.97271 0
M  V30 2594 H 260.419 6.71797 1.78083 0
M  V30 2595 H 263.61 4.44171 1.47749 0
M  V30 2596 H 263.783 6.22382 1.80402 0
M  V30 2597 N 257.189 -0.644168 1.43834 0
M  V30 2598 C 258.6 -1.22554 1.40845 0
M  V30 2599 C 258.951 -1.9585 0.117115 0
M  V30 2600 O 258.076 -2.01734 -0.783086 0
M  V30 2601 C 258.671 -2.22907 2.55143 0
M  V30 2602 C 257.23 -2.76501 2.5539 0
M  V30 2603 C 256.377 -1.51287 2.32396 0
M  V30 2604 H 259.328 -0.43563 1.52604 0
M  V30 2605 H 259.349 -3.05259 2.2715 0
M  V30 2606 H 258.861 -1.69533 3.49114 0
M  V30 2607 H 256.962 -3.33914 1.65324 0
M  V30 2608 H 257.075 -3.23429 3.53455 0
M  V30 2609 H 255.439 -1.78957 1.81236 0
M  V30 2610 H 256.222 -0.998336 3.28463 0
M  V30 2611 N 258.668 -1.30515 -0.883378 0
M  V30 2612 C 260.084 -1.08881 -1.16692 0
M  V30 2613 C 260.284 0.149409 -2.00945 0
M  V30 2614 O 259.34 0.84257 -2.38027 0
M  V30 2615 C 260.653 -2.35319 -1.87204 0
M  V30 2616 C 262.201 -2.40799 -1.99962 0
M  V30 2617 C 262.676 -3.67083 -2.73887 0
M  V30 2618 N 264.167 -3.679 -2.81432 0
M  V30 2619 C 264.902 -4.62303 -3.3921 0
M  V30 2620 N 264.398 -5.67052 -3.98025 0
M  V30 2621 N 266.191 -4.49845 -3.3704 0
M  V30 2622 H 258.342 -2.09951 -0.321633 0
M  V30 2623 H 260.605 -0.92556 -0.205043 0
M  V30 2624 H 260.311 -3.25689 -1.3274 0
M  V30 2625 H 260.185 -2.44089 -2.87577 0
M  V30 2626 H 262.572 -1.50907 -2.53597 0
M  V30 2627 H 262.653 -2.36003 -0.98673 0
M  V30 2628 H 262.297 -4.57334 -2.20925 0
M  V30 2629 H 262.227 -3.69141 -3.75556 0
M  V30 2630 H 264.718 -2.92171 -2.39676 0
M  V30 2631 H 265.031 -6.35184 -4.40183 0
M  V30 2632 H 263.376 -5.70842 -3.96439 0
M  V30 2633 H 266.567 -3.67194 -2.90321 0
M  V30 2634 H 266.74 -5.23597 -3.81772 0
M  V30 2635 N 260.146 1.09593 -1.13257 0
M  V30 2636 C 261.393 1.81734 -0.893257 0
M  V30 2637 C 261.721 1.8563 0.580656 0
M  V30 2638 O 260.976 1.31906 1.44566 0
M  V30 2639 C 261.275 3.27802 -1.42411 0
M  V30 2640 C 260.941 3.44041 -2.91456 0
M  V30 2641 C 259.603 3.48181 -3.3215 0
M  V30 2642 C 261.955 3.48719 -3.87356 0
M  V30 2643 C 259.283 3.54575 -4.67433 0
M  V30 2644 C 261.635 3.56648 -5.2248 0
M  V30 2645 C 260.299 3.59055 -5.62704 0
M  V30 2646 H 259.569 0.665011 -0.326866 0
M  V30 2647 H 262.216 1.2912 -1.41422 0
M  V30 2648 H 260.521 3.83042 -0.823795 0
M  V30 2649 H 262.218 3.82149 -1.21503 0
M  V30 2650 H 258.808 3.41502 -2.58987 0
M  V30 2651 H 262.992 3.44763 -3.57004 0
M  V30 2652 H 258.248 3.54725 -4.97976 0
M  V30 2653 H 262.422 3.59212 -5.96607 0
M  V30 2654 H 260.049 3.63763 -6.67518 0
M  V30 2655 N 261.624 0.925811 1.2754 0
M  V30 2656 C 262.534 0.428993 2.30644 0
M  V30 2657 C 263.55 -0.489387 1.66976 0
M  V30 2658 O 264.726 -0.372653 1.97922 0
M  V30 2659 C 261.791 -0.311967 3.45294 0
M  V30 2660 C 260.852 0.641098 4.24486 0
M  V30 2661 C 260.085 -0.0645955 5.33661 0
M  V30 2662 O 260.308 -1.28429 5.55754 0
M  V30 2663 O 259.242 0.606265 5.98839 0
M  V30 2664 H 263.068 1.28504 2.75173 0
M  V30 2665 H 260.653 0.691086 1.32455 0
M  V30 2666 H 262.535 -0.729972 4.15029 0
M  V30 2667 H 261.21 -1.14365 3.02824 0
M  V30 2668 H 260.117 1.10874 3.57292 0
M  V30 2669 H 261.45 1.43995 4.70666 0
M  V30 2670 N 263.102 -1.41638 0.69111 0
M  V30 2671 C 264.518 -1.55435 0.362224 0
M  V30 2672 C 264.718 -1.66754 -1.13117 0
M  V30 2673 O 263.774 -1.64348 -1.91692 0
M  V30 2674 C 265.087 -2.79588 1.10684 0
M  V30 2675 C 266.635 -2.9338 1.09075 0
M  V30 2676 C 267.11 -4.20414 1.81703 0
M  V30 2677 N 268.601 -4.27362 1.7865 0
M  V30 2678 C 269.336 -5.24507 2.31689 0
M  V30 2679 N 268.832 -6.27708 2.93179 0
M  V30 2680 N 270.625 -5.16416 2.2197 0
M  V30 2681 H 262.776 -1.32536 1.65976 0
M  V30 2682 H 265.039 -0.639115 0.700168 0
M  V30 2683 H 264.745 -2.77419 2.16175 0
M  V30 2684 H 264.619 -3.70973 0.682545 0
M  V30 2685 H 267.006 -2.95067 0.0441238 0
M  V30 2686 H 267.087 -2.0318 1.55407 0
M  V30 2687 H 266.731 -4.19488 2.86343 0
M  V30 2688 H 266.661 -5.09578 1.32808 0
M  V30 2689 H 269.152 -3.53415 1.33815 0
M  V30 2690 H 269.465 -6.98217 3.31229 0
M  V30 2691 H 267.81 -6.28223 2.97255 0
M  V30 2692 H 271.001 -4.34716 1.73607 0
M  V30 2693 H 271.174 -5.91958 2.63609 0
M  V30 2694 N 264.58 -0.43555 -1.51462 0
M  V30 2695 C 265.528 0.391205 -2.29287 0
M  V30 2696 C 266.522 1.02247 -1.35062 0
M  V30 2697 O 267.728 0.957646 -1.52411 0
M  V30 2698 H 264.103 0.144968 -0.737895 0
M  V30 2699 H 266.074 -0.286051 -2.97026 0
M  V30 2700 C 264.823 1.48096 -3.14583 0
M  V30 2701 H 264.146 1.00457 -3.86973 0
M  V30 2702 H 265.586 2.03273 -3.72097 0
M  V30 2703 C 264.045 2.46321 -2.29843 0
M  V30 2704 O 264.575 3.50815 -1.95682 0
M  V30 2705 N 262.781 2.17166 -1.931 0
M  V30 2706 H 262.328 1.32218 -2.21079 0
M  V30 2707 H 262.286 2.83127 -1.36698 0
M  V30 2708 N 266.058 1.56714 -0.166846 0
M  V30 2709 C 267.306 1.96358 0.478305 0
M  V30 2710 C 267.627 1.0537 1.6408 0
M  V30 2711 O 266.897 0.119154 1.95537 0
M  V30 2712 H 265.477 0.725065 0.179692 0
M  V30 2713 H 268.139 1.93329 -0.246985 0
M  V30 2714 H 267.235 3.00547 0.841292 0
M  V30 2715 N 267.536 -0.106894 1.57237 0
M  V30 2716 C 268.499 -1.11466 2.0027 0
M  V30 2717 C 269.499 -1.33623 0.894519 0
M  V30 2718 O 270.689 -1.29935 1.16028 0
M  V30 2719 C 267.821 -2.46646 2.35327 0
M  V30 2720 H 269.014 -0.744516 2.90512 0
M  V30 2721 H 266.567 -0.351576 1.52295 0
M  V30 2722 H 267.302 -2.88558 1.48003 0
M  V30 2723 H 267.087 -2.31915 3.16161 0
M  V30 2724 H 268.577 -3.19151 2.69318 0
M  V30 2725 N 269.014 -1.53014 -0.377408 0
M  V30 2726 C 270.244 -1.72265 -1.14054 0
M  V30 2727 C 270.652 -0.44601 -1.83868 0
M  V30 2728 O 269.995 0.590095 -1.73964 0
M  V30 2729 C 270.057 -2.82492 -2.22348 0
M  V30 2730 C 269.721 -4.23233 -1.72402 0
M  V30 2731 C 270.718 -5.05992 -1.19448 0
M  V30 2732 C 268.403 -4.696 -1.78273 0
M  V30 2733 C 270.397 -6.33203 -0.730268 0
M  V30 2734 C 268.084 -5.96792 -1.31464 0
M  V30 2735 C 269.082 -6.78424 -0.789297 0
M  V30 2736 O 268.77 -8.0323 -0.328077 0
M  V30 2737 H 268.502 -0.579873 -0.347453 0
M  V30 2738 H 271.056 -2.00502 -0.445882 0
M  V30 2739 H 269.286 -2.49702 -2.95272 0
M  V30 2740 H 270.975 -2.90034 -2.83963 0
M  V30 2741 H 271.741 -4.71349 -1.14259 0
M  V30 2742 H 267.62 -4.06142 -2.18106 0
M  V30 2743 H 271.164 -6.96868 -0.319542 0
M  V30 2744 H 267.061 -6.30937 -1.36342 0
M  V30 2745 H 267.829 -8.1727 -0.448493 0
M  V30 2746 N 270.492 0.636531 -1.44174 0
M  V30 2747 C 271.769 1.39463 -1.37148 0
M  V30 2748 C 272.149 2.11082 -0.027507 0
M  V30 2749 O 271.497 2.05954 0.989716 0
M  V30 2750 C 271.707 2.36552 -2.56601 0
M  V30 2751 C 273.055 3.00048 -3.00427 0
M  V30 2752 O 274.079 2.46878 -2.56767 0
M  V30 2753 O 272.938 3.96488 -3.76111 0
M  V30 2754 H 270.032 0.623903 -0.542839 0
M  V30 2755 H 272.578 0.662039 -1.56253 0
M  V30 2756 H 271.35 1.82692 -3.46034 0
M  V30 2757 H 270.973 3.17236 -2.39681 0
M  V30 2758 N 271.97 1.30982 0.876444 0
M  V30 2759 C 273.2 1.23063 1.65949 0
M  V30 2760 C 273.608 -0.207537 1.88058 0
M  V30 2761 O 272.951 -1.14781 1.43426 0
M  V30 2762 C 273.013 1.89768 3.05333 0
M  V30 2763 C 272.677 3.39106 3.0636 0
M  V30 2764 C 273.674 4.3496 2.84791 0
M  V30 2765 C 271.359 3.80693 3.27686 0
M  V30 2766 C 273.353 5.70375 2.84519 0
M  V30 2767 C 271.04 5.16223 3.27043 0
M  V30 2768 C 272.038 6.10875 3.05485 0
M  V30 2769 O 271.726 7.43928 3.04674 0
M  V30 2770 H 271.458 0.426685 0.524324 0
M  V30 2771 H 274.012 1.7329 1.10271 0
M  V30 2772 H 272.242 1.34082 3.6271 0
M  V30 2773 H 273.931 1.75853 3.65829 0
M  V30 2774 H 274.697 4.0416 2.68103 0
M  V30 2775 H 270.576 3.07457 3.43499 0
M  V30 2776 H 274.12 6.44228 2.67611 0
M  V30 2777 H 270.017 5.4666 3.43269 0
M  V30 2778 H 270.785 7.53022 3.2078 0
M  V30 2779 N 273.449 -1.08991 1.13837 0
M  V30 2780 C 274.379 -2.17771 0.842507 0
M  V30 2781 C 275.36 -1.6892 -0.20001 0
M  V30 2782 O 276.545 -1.94113 -0.0579731 0
M  V30 2783 C 273.675 -3.4589 0.312644 0
M  V30 2784 C 272.629 -4.08099 1.28992 0
M  V30 2785 C 271.955 -5.31098 0.619623 0
M  V30 2786 C 273.255 -4.50077 2.65005 0
M  V30 2787 H 274.949 -2.42777 1.75213 0
M  V30 2788 H 272.495 -1.16682 0.843875 0
M  V30 2789 H 274.448 -4.21297 0.0933043 0
M  V30 2790 H 273.172 -3.20419 -0.632382 0
M  V30 2791 H 271.831 -3.34717 1.49533 0
M  V30 2792 H 271.479 -5.0191 -0.33102 0
M  V30 2793 H 271.179 -5.73674 1.27167 0
M  V30 2794 H 272.703 -6.09224 0.409669 0
M  V30 2795 H 274.117 -5.16688 2.48407 0
M  V30 2796 H 272.514 -5.03553 3.26427 0
M  V30 2797 H 273.584 -3.62257 3.22332 0
M  V30 2798 N 274.927 -0.932562 -1.27047 0
M  V30 2799 C 275.89 -0.440064 -2.24936 0
M  V30 2800 C 276.89 0.444071 -1.54547 0
M  V30 2801 O 278.08 0.244465 -1.72476 0
M  V30 2802 C 275.212 0.36678 -3.38921 0
M  V30 2803 H 276.405 -1.305 -2.70018 0
M  V30 2804 H 273.958 -0.713707 -1.39054 0
M  V30 2805 H 274.693 1.25033 -2.99228 0
M  V30 2806 H 274.478 -0.267204 -3.91188 0
M  V30 2807 H 275.968 0.701567 -4.11665 0
M  V30 2808 N 276.405 1.4127 -0.698611 0
M  V30 2809 C 277.315 2.34573 -0.0357891 0
M  V30 2810 C 278.331 1.56393 0.762701 0
M  V30 2811 O 279.507 1.8886 0.699564 0
M  V30 2812 C 276.572 3.35159 0.887089 0
M  V30 2813 C 275.633 4.29225 0.0804634 0
M  V30 2814 C 274.866 5.25006 0.959387 0
M  V30 2815 O 275.089 5.26314 2.19886 0
M  V30 2816 O 274.023 6.00519 0.407439 0
M  V30 2817 H 277.849 2.92838 -0.804957 0
M  V30 2818 H 275.434 1.42175 -0.458966 0
M  V30 2819 H 277.316 3.9689 1.41621 0
M  V30 2820 H 275.991 2.79333 1.6357 0
M  V30 2821 H 274.898 3.70833 -0.493328 0
M  V30 2822 H 276.231 4.88157 -0.629547 0
M  V30 2823 N 277.883 0.443576 1.51229 0
M  V30 2824 C 278.813 -0.355142 2.30783 0
M  V30 2825 C 279.794 -1.0154 1.36468 0
M  V30 2826 O 280.979 -1.01785 1.65389 0
M  V30 2827 C 278.109 -1.45312 3.15439 0
M  V30 2828 C 277.063 -0.916002 4.18083 0
M  V30 2829 C 276.389 -2.1102 4.91299 0
M  V30 2830 C 277.689 0.0538602 5.22272 0
M  V30 2831 H 279.383 0.308767 2.97804 0
M  V30 2832 H 276.929 0.149937 1.43217 0
M  V30 2833 H 278.882 -2.01914 3.69876 0
M  V30 2834 H 277.606 -2.14541 2.46252 0
M  V30 2835 H 276.265 -0.372145 3.64706 0
M  V30 2836 H 275.913 -2.78882 4.18609 0
M  V30 2837 H 275.613 -1.75717 5.60712 0
M  V30 2838 H 277.137 -2.68164 5.48562 0
M  V30 2839 H 278.551 -0.422069 5.71744 0
M  V30 2840 H 276.948 0.319776 5.99247 0
M  V30 2841 H 278.018 0.98858 4.74716 0
M  V30 2842 N 279.361 -1.56624 0.175154 0
M  V30 2843 C 280.638 -1.88688 -0.515373 0
M  V30 2844 C 281.018 -1.08564 -1.81044 0
M  V30 2845 O 280.366 -0.180703 -2.27784 0
M  V30 2846 C 280.576 -3.40768 -0.753552 0
M  V30 2847 C 281.924 -4.10587 -1.08184 0
M  V30 2848 O 282.948 -3.46106 -0.841961 0
M  V30 2849 O 281.807 -5.24512 -1.53459 0
M  V30 2850 H 278.901 -0.78301 -0.26613 0
M  V30 2851 H 281.447 -1.68347 0.213877 0
M  V30 2852 H 280.219 -3.90965 0.161829 0
M  V30 2853 H 279.842 -3.66733 -1.53598 0
M  V30 2854 N 280.839 0.0985539 -1.57292 0
M  V30 2855 C 282.069 0.815135 -1.8984 0
M  V30 2856 C 282.477 1.7297 -0.766679 0
M  V30 2857 O 281.82 1.81698 0.270483 0
M  V30 2858 C 281.882 1.6842 -3.17608 0
M  V30 2859 C 281.546 0.94182 -4.4719 0
M  V30 2860 C 282.543 0.273212 -5.19182 0
M  V30 2861 C 280.228 0.916927 -4.9386 0
M  V30 2862 C 282.222 -0.410361 -6.36078 0
M  V30 2863 C 279.909 0.229567 -6.10669 0
M  V30 2864 C 280.907 -0.432902 -6.81627 0
M  V30 2865 O 280.595 -1.10925 -7.9621 0
M  V30 2866 H 280.327 0.238501 -0.632529 0
M  V30 2867 H 282.881 0.0812659 -2.05239 0
M  V30 2868 H 281.111 2.46022 -2.98345 0
M  V30 2869 H 282.8 2.27704 -3.36015 0
M  V30 2870 H 283.566 0.283927 -4.84168 0
M  V30 2871 H 279.445 1.42201 -4.3852 0
M  V30 2872 H 282.989 -0.928013 -6.914 0
M  V30 2873 H 278.886 0.216686 -6.45136 0
M  V30 2874 H 279.654 -1.01579 -8.12172 0
M  V30 2875 N 282.317 1.53212 0.369288 0
M  V30 2876 C 283.28 1.7872 1.43498 0
M  V30 2877 C 284.28 0.657554 1.46741 0
M  V30 2878 O 285.47 0.925736 1.47566 0
M  V30 2879 C 282.602 1.90591 2.82645 0
M  V30 2880 H 283.795 2.73894 1.22156 0
M  V30 2881 H 281.348 1.44233 0.602203 0
M  V30 2882 H 282.083 0.974709 3.09306 0
M  V30 2883 H 281.868 2.72751 2.8169 0
M  V30 2884 H 283.358 2.11931 3.59826 0
M  V30 2885 N 283.795 -0.628877 1.44509 0
M  V30 2886 C 285.042 -1.38839 1.47411 0
M  V30 2887 C 285.37 -1.94202 0.10757 0
M  V30 2888 O 284.625 -1.74243 -0.890947 0
M  V30 2889 C 284.924 -2.56995 2.48371 0
M  V30 2890 C 284.59 -2.19908 3.93639 0
M  V30 2891 C 283.252 -2.09506 4.33198 0
M  V30 2892 C 285.604 -1.9064 4.85083 0
M  V30 2893 C 282.932 -1.68028 5.62124 0
M  V30 2894 C 285.284 -1.50655 6.14399 0
M  V30 2895 C 283.948 -1.38796 6.5291 0
M  V30 2896 H 283.218 -0.508048 0.539414 0
M  V30 2897 H 285.865 -0.712913 1.77735 0
M  V30 2898 H 284.17 -3.29786 2.11538 0
M  V30 2899 H 285.867 -3.15223 2.47861 0
M  V30 2900 H 282.457 -2.28922 3.62343 0
M  V30 2901 H 286.641 -1.97585 4.55273 0
M  V30 2902 H 281.897 -1.57452 5.90778 0
M  V30 2903 H 286.071 -1.27048 6.84713 0
M  V30 2904 H 283.698 -1.06429 7.52713 0
M  V30 2905 N 285.273 -1.31445 -0.869486 0
M  V30 2906 C 286.55 -1.11795 -1.60503 0
M  V30 2907 C 286.93 0.327168 -2.08549 0
M  V30 2908 O 286.278 1.32135 -1.8642 0
M  V30 2909 C 286.488 -2.13258 -2.76265 0
M  V30 2910 C 287.836 -2.45805 -3.46215 0
M  V30 2911 O 288.86 -2.11688 -2.86473 0
M  V30 2912 O 287.719 -3.04228 -4.5399 0
M  V30 2913 H 284.813 -0.430421 -0.706163 0
M  V30 2914 H 287.359 -1.42925 -0.914907 0
M  V30 2915 H 286.131 -3.10461 -2.3818 0
M  V30 2916 H 285.754 -1.83035 -3.52964 0
M  V30 2917 N 286.751 1.08385 -1.14413 0
M  V30 2918 C 287.681 2.17321 -0.854044 0
M  V30 2919 C 288.662 1.69024 0.191049 0
M  V30 2920 O 289.847 1.94141 0.0476779 0
M  V30 2921 C 286.977 3.45719 -0.330983 0
M  V30 2922 C 285.931 4.07409 -1.31155 0
M  V30 2923 C 285.257 5.30762 -0.64778 0
M  V30 2924 C 286.557 4.48665 -2.67388 0
M  V30 2925 H 288.251 2.41845 -1.76498 0
M  V30 2926 H 285.797 1.16233 -0.850051 0
M  V30 2927 H 287.75 4.21241 -0.115645 0
M  V30 2928 H 286.474 3.2075 0.615381 0
M  V30 2929 H 285.133 3.33919 -1.51306 0
M  V30 2930 H 284.781 5.02078 0.304398 0
M  V30 2931 H 284.481 5.72992 -1.30207 0
M  V30 2932 H 286.005 6.08998 -0.441972 0
M  V30 2933 H 287.419 5.15364 -2.51143 0
M  V30 2934 H 285.816 5.01814 -3.29093 0
M  V30 2935 H 286.886 3.60543 -3.24248 0
M  V30 2936 N 288.23 0.939286 1.26551 0
M  V30 2937 C 289.479 0.581601 1.93133 0
M  V30 2938 C 289.792 -0.883224 1.74524 0
M  V30 2939 O 290.998 -1.3502 2.35546 0
M  V30 2940 C 289.454 0.989425 3.46032 0
M  V30 2941 C 289.062 2.47573 3.73379 0
M  V30 2942 C 290.806 0.703544 4.18629 0
M  V30 2943 C 288.713 2.82235 5.19709 0
M  V30 2944 H 287.643 0.213803 0.723052 0
M  V30 2945 H 290.294 1.14167 1.4366 0
M  V30 2946 H 288.676 0.357902 3.94379 0
M  V30 2947 H 289.85 3.15614 3.35744 0
M  V30 2948 H 288.165 2.73471 3.1401 0
M  V30 2949 H 290.762 0.938869 5.26393 0
M  V30 2950 H 291.105 -0.359639 4.14744 0
M  V30 2951 H 291.638 1.2947 3.76141 0
M  V30 2952 H 288.377 3.87509 5.28694 0
M  V30 2953 H 287.897 2.18854 5.58447 0
M  V30 2954 H 289.576 2.70599 5.87695 0
M  V30 2955 N 289.708 -1.40897 0.706093 0
M  V30 2956 C 290.985 -1.94868 0.169099 0
M  V30 2957 C 291.365 -1.64485 -1.32318 0
M  V30 2958 O 290.713 -0.95744 -2.07474 0
M  V30 2959 C 290.923 -3.45798 0.471654 0
M  V30 2960 C 292.271 -4.22663 0.405127 0
M  V30 2961 O 293.295 -3.53865 0.407168 0
M  V30 2962 O 292.154 -5.45216 0.374383 0
M  V30 2963 H 289.248 -0.82673 0.0211352 0
M  V30 2964 H 291.794 -1.50558 0.782976 0
M  V30 2965 H 290.566 -3.61235 1.50416 0
M  V30 2966 H 290.189 -3.97225 -0.172666 0
M  V30 2967 N 291.186 -0.45159 -1.50991 0
M  V30 2968 C 292.602 -0.104647 -1.59257 0
M  V30 2969 C 292.802 1.38728 -1.4614 0
M  V30 2970 O 291.858 2.15866 -1.30989 0
M  V30 2971 C 293.171 -0.637468 -2.93865 0
M  V30 2972 C 294.719 -0.599166 -3.07212 0
M  V30 2973 C 295.194 -1.1092 -4.44366 0
M  V30 2974 N 296.685 -1.06778 -4.50725 0
M  V30 2975 C 297.42 -1.43314 -5.55201 0
M  V30 2976 N 296.916 -1.87204 -6.67028 0
M  V30 2977 N 298.709 -1.3504 -5.45638 0
M  V30 2978 H 290.86 -1.42214 -1.57762 0
M  V30 2979 H 293.123 -0.586921 -0.744465 0
M  V30 2980 H 292.829 -1.68187 -3.08879 0
M  V30 2981 H 292.703 -0.0702139 -3.77135 0
M  V30 2982 H 295.09 0.436277 -2.91857 0
M  V30 2983 H 295.171 -1.20299 -2.25747 0
M  V30 2984 H 294.815 -2.14318 -4.60467 0
M  V30 2985 H 294.745 -0.481773 -5.24392 0
M  V30 2986 H 297.236 -0.745643 -3.70471 0
M  V30 2987 H 297.549 -2.13282 -7.42786 0
M  V30 2988 H 295.894 -1.91142 -6.68199 0
M  V30 2989 H 299.085 -1.00607 -4.57161 0
M  V30 2990 H 299.258 -1.63841 -6.26945 0
M  V30 2991 N 292.664 1.56529 -0.183458 0
M  V30 2992 C 293.596 2.15747 0.773697 0
M  V30 2993 C 294.609 1.1162 1.1851 0
M  V30 2994 O 295.798 1.3876 1.12285 0
M  V30 2995 C 292.898 2.6952 2.05456 0
M  V30 2996 C 292.071 3.98429 1.8048 0
M  V30 2997 C 291.13 4.37145 2.92901 0
M  V30 2998 O 290.156 5.04791 2.6301 0
M  V30 2999 N 291.358 3.99695 4.2098 0
M  V30 3000 H 294.123 2.98505 0.26736 0
M  V30 3001 H 291.684 1.619 -0.0010878 0
M  V30 3002 H 293.676 2.92412 2.79781 0
M  V30 3003 H 292.246 1.91282 2.47245 0
M  V30 3004 H 291.466 3.8379 0.899947 0
M  V30 3005 H 292.754 4.82597 1.61175 0
M  V30 3006 H 292.152 3.4526 4.48121 0
M  V30 3007 H 290.709 4.27562 4.9197 0
M  V30 3008 N 294.142 -0.090211 1.57342 0
M  V30 3009 C 295.367 -0.810082 1.90925 0
M  V30 3010 C 295.792 -1.71248 0.778187 0
M  V30 3011 O 295.15 -1.79278 -0.269991 0
M  V30 3012 C 295.198 -1.59529 3.23393 0
M  V30 3013 O 294.302 -2.70461 3.11327 0
M  V30 3014 H 293.643 -0.222231 0.625707 0
M  V30 3015 H 296.173 -0.0639716 2.045 0
M  V30 3016 H 296.183 -1.97847 3.5682 0
M  V30 3017 H 294.858 -0.933055 4.05299 0
M  V30 3018 H 293.435 -2.35135 2.89423 0
M  V30 3019 N 295.62 -1.53406 -0.361157 0
M  V30 3020 C 296.845 -1.74024 -1.12829 0
M  V30 3021 C 297.27 -0.470069 -1.82132 0
M  V30 3022 O 296.628 0.57619 -1.719 0
M  V30 3023 C 296.676 -2.90903 -2.13091 0
M  V30 3024 O 295.78 -2.59821 -3.20261 0
M  V30 3025 H 295.121 -0.577804 -0.327168 0
M  V30 3026 H 297.651 -2.00307 -0.41693 0
M  V30 3027 H 297.661 -3.17194 -2.56616 0
M  V30 3028 H 296.336 -3.83034 -1.62042 0
M  V30 3029 H 294.913 -2.44362 -2.81677 0
M  V30 3030 N 297.098 0.621204 -1.44841 0
M  V30 3031 C 298.346 1.37783 -1.47852 0
M  V30 3032 C 298.667 1.94653 -0.116224 0
M  V30 3033 O 297.937 1.76367 0.852737 0
M  V30 3034 H 296.517 0.511453 -0.544449 0
M  V30 3035 H 299.179 0.730446 -1.80694 0
M  V30 3036 H 298.275 2.20414 -2.20961 0
M  V30 3037 N 298.576 1.31904 0.862503 0
M  V30 3038 C 299.524 1.20125 1.9918 0
M  V30 3039 C 300.518 0.107824 1.69056 0
M  V30 3040 O 301.724 0.270223 1.7796 0
M  V30 3041 H 298.099 0.372148 0.65346 0
M  V30 3042 H 300.07 2.15652 2.06244 0
M  V30 3043 C 298.819 0.933099 3.34946 0
M  V30 3044 H 298.142 1.76664 3.5865 0
M  V30 3045 H 299.582 0.890892 4.14535 0
M  V30 3046 C 298.041 -0.364172 3.34926 0
M  V30 3047 O 298.571 -1.37858 3.77304 0
M  V30 3048 N 296.777 -0.383362 2.8806 0
M  V30 3049 H 296.324 0.442651 2.53768 0
M  V30 3050 H 296.282 -1.25123 2.8843 0
M  V30 3051 N 300.054 -1.07777 1.14986 0
M  V30 3052 C 300.984 -2.16865 0.865557 0
M  V30 3053 C 301.965 -1.69123 -0.182083 0
M  V30 3054 O 303.15 -1.94164 -0.0373815 0
M  V30 3055 C 300.28 -3.45539 0.349313 0
M  V30 3056 C 299.234 -4.06708 1.33313 0
M  V30 3057 C 298.56 -5.30411 0.675918 0
M  V30 3058 C 299.86 -4.47241 2.69764 0
M  V30 3059 H 301.554 -2.40905 1.77778 0
M  V30 3060 H 299.1 -1.15781 0.856203 0
M  V30 3061 H 301.053 -4.21174 0.137983 0
M  V30 3062 H 299.777 -3.21072 -0.598362 0
M  V30 3063 H 298.436 -3.33112 1.53075 0
M  V30 3064 H 298.084 -5.02232 -0.277767 0
M  V30 3065 H 297.784 -5.72293 1.33244 0
M  V30 3066 H 299.308 -6.08755 0.474262 0
M  V30 3067 H 300.722 -5.14025 2.53873 0
M  V30 3068 H 299.119 -5.00062 3.3175 0
M  V30 3069 H 300.189 -3.58818 3.26156 0
M  V30 3070 N 301.532 -0.945985 -1.26051 0
M  V30 3071 C 302.495 -0.463897 -2.24456 0
M  V30 3072 C 303.495 0.427655 -1.55009 0
M  V30 3073 O 304.685 0.226157 -1.72726 0
M  V30 3074 C 301.817 0.330812 -3.39291 0
M  V30 3075 H 303.01 -1.33357 -2.68619 0
M  V30 3076 H 300.563 -0.728416 -1.38289 0
M  V30 3077 H 301.298 1.21852 -3.00537 0
M  V30 3078 H 301.083 -0.308679 -3.90883 0
M  V30 3079 H 302.573 0.657865 -4.12386 0
M  V30 3080 N 303.011 1.40521 -0.713556 0
M  V30 3081 C 303.974 2.29098 -0.0684347 0
M  V30 3082 C 304.974 1.45268 0.689472 0
M  V30 3083 O 306.164 1.66205 0.521677 0
M  V30 3084 C 303.296 3.28446 0.913024 0
M  V30 3085 H 304.489 2.87645 -0.84855 0
M  V30 3086 H 302.042 1.48809 -0.47809 0
M  V30 3087 H 302.777 2.74913 1.72027 0
M  V30 3088 H 302.562 3.90327 0.372472 0
M  V30 3089 H 304.052 3.94777 1.36165 0
M  V30 3090 N 304.489 0.459591 1.5075 0
M  V30 3091 C 305.736 -0.0993495 2.02256 0
M  V30 3092 C 306.064 -1.40751 1.34237 0
M  V30 3093 O 305.319 -1.90379 0.453228 0
M  V30 3094 C 305.618 -0.342866 3.55752 0
M  V30 3095 C 305.284 0.88218 4.42186 0
M  V30 3096 C 303.946 1.21808 4.65528 0
M  V30 3097 C 306.298 1.69837 4.92752 0
M  V30 3098 C 303.626 2.37045 5.36681 0
M  V30 3099 C 305.978 2.84192 5.65171 0
M  V30 3100 C 304.642 3.1821 5.8677 0
M  V30 3101 H 303.912 -0.0363545 0.740108 0
M  V30 3102 H 306.559 0.611329 1.8148 0
M  V30 3103 H 304.864 -1.13567 3.7498 0
M  V30 3104 H 306.561 -0.789121 3.93159 0
M  V30 3105 H 303.151 0.610467 4.2423 0
M  V30 3106 H 307.335 1.45205 4.74583 0
M  V30 3107 H 302.591 2.63689 5.51614 0
M  V30 3108 H 306.765 3.4779 6.03337 0
M  V30 3109 H 304.392 4.07613 6.41682 0
M  V30 3110 N 305.967 -1.56429 0.191757 0
M  V30 3111 C 307.216 -1.9666 -0.448088 0
M  V30 3112 C 307.529 -1.08136 -1.62991 0
M  V30 3113 O 308.735 -1.38135 -2.33733 0
M  V30 3114 C 307.191 -3.49753 -0.848585 0
M  V30 3115 C 306.799 -4.46935 0.308764 0
M  V30 3116 C 308.543 -3.9876 -1.4557 0
M  V30 3117 C 306.45 -5.91293 -0.112506 0
M  V30 3118 H 305.38 -0.734312 -0.171179 0
M  V30 3119 H 308.031 -1.81301 0.283242 0
M  V30 3120 H 306.413 -3.60604 -1.63649 0
M  V30 3121 H 307.587 -4.47813 1.08627 0
M  V30 3122 H 305.902 -4.08102 0.827158 0
M  V30 3123 H 308.499 -5.04086 -1.78328 0
M  V30 3124 H 308.842 -3.42875 -2.36099 0
M  V30 3125 H 309.375 -3.9101 -0.731836 0
M  V30 3126 H 306.114 -6.51097 0.758514 0
M  V30 3127 H 305.634 -5.93676 -0.854941 0
M  V30 3128 H 307.313 -6.44663 -0.549448 0
M  V30 3129 N 307.445 0.0818655 -1.57387 0
M  V30 3130 C 308.408 1.08265 -2.02018 0
M  V30 3131 C 309.408 1.32183 -0.915664 0
M  V30 3132 O 310.598 1.28073 -1.18081 0
M  V30 3133 C 307.73 2.42871 -2.39221 0
M  V30 3134 H 308.923 0.698204 -2.91659 0
M  V30 3135 H 306.476 0.327303 -1.52835 0
M  V30 3136 H 307.211 2.86167 -1.52575 0
M  V30 3137 H 306.996 2.26855 -3.19811 0
M  V30 3138 H 308.486 3.14826 -2.74362 0
M  V30 3139 N 308.923 1.53595 0.353017 0
M  V30 3140 C 309.833 1.83897 1.45667 0
M  V30 3141 C 310.849 0.728334 1.58023 0
M  V30 3142 O 312.025 1.01968 1.73679 0
M  V30 3143 C 309.09 2.03383 2.80778 0
M  V30 3144 C 308.151 3.27262 2.77845 0
M  V30 3145 C 307.384 3.45809 4.06512 0
M  V30 3146 O 307.607 2.68387 5.03314 0
M  V30 3147 O 306.541 4.39207 4.11559 0
M  V30 3148 H 310.367 2.77686 1.2298 0
M  V30 3149 H 307.952 1.39132 0.544308 0
M  V30 3150 H 309.834 2.17698 3.60812 0
M  V30 3151 H 308.509 1.12783 3.03417 0
M  V30 3152 H 307.416 3.18359 1.96465 0
M  V30 3153 H 308.749 4.17824 2.60161 0
M  V30 3154 N 310.401 -0.613514 1.45168 0
M  V30 3155 C 311.812 -1.19539 1.43413 0
M  V30 3156 C 312.163 -1.95558 0.158632 0
M  V30 3157 O 311.288 -2.0335 -0.740119 0
M  V30 3158 C 311.883 -2.17445 2.59813 0
M  V30 3159 C 310.442 -2.71022 2.61197 0
M  V30 3160 C 309.589 -1.46323 2.35552 0
M  V30 3161 H 312.54 -0.403163 1.53494 0
M  V30 3162 H 312.561 -3.00373 2.33574 0
M  V30 3163 H 312.073 -1.62089 3.52631 0
M  V30 3164 H 310.174 -3.30332 1.7237 0
M  V30 3165 H 310.287 -3.15859 3.60236 0
M  V30 3166 H 308.651 -1.75072 1.84992 0
M  V30 3167 H 309.434 -0.92844 3.30507 0
M  V30 3168 N 311.879 -1.3236 -0.855495 0
M  V30 3169 C 313.128 -1.22226 -1.60448 0
M  V30 3170 C 313.441 0.214733 -1.94418 0
M  V30 3171 O 314.647 0.437917 -2.67945 0
M  V30 3172 C 313.103 -2.14063 -2.89318 0
M  V30 3173 C 312.711 -3.62839 -2.62777 0
M  V30 3174 C 314.455 -2.12764 -3.67331 0
M  V30 3175 C 312.362 -4.4664 -3.87643 0
M  V30 3176 H 311.292 -0.453904 -0.602069 0
M  V30 3177 H 313.943 -1.57314 -0.944698 0
M  V30 3178 H 312.325 -1.71889 -3.5675 0
M  V30 3179 H 313.499 -4.1335 -2.03662 0
M  V30 3180 H 311.814 -3.66261 -1.98096 0
M  V30 3181 H 314.411 -2.72611 -4.59987 0
M  V30 3182 H 314.754 -1.11841 -4.00995 0
M  V30 3183 H 315.287 -2.53214 -3.06802 0
M  V30 3184 H 312.026 -5.48373 -3.5912 0
M  V30 3185 H 311.546 -4.0088 -4.46156 0
M  V30 3186 H 313.225 -4.59597 -4.55389 0
M  V30 3187 N 313.357 1.07166 -1.15556 0
M  V30 3188 C 314.287 2.16403 -0.877046 0
M  V30 3189 C 315.268 1.69217 0.173111 0
M  V30 3190 O 316.453 1.94181 0.027084 0
M  V30 3191 C 313.583 3.45349 -0.367632 0
M  V30 3192 C 312.537 4.05995 -1.35468 0
M  V30 3193 C 311.863 5.30045 -0.704038 0
M  V30 3194 C 313.163 4.45804 -2.72132 0
M  V30 3195 H 314.857 2.39959 -1.79053 0
M  V30 3196 H 312.403 1.15325 -0.862331 0
M  V30 3197 H 314.356 4.21095 -0.160317 0
M  V30 3198 H 313.08 3.21385 0.581326 0
M  V30 3199 H 311.739 3.32296 -1.54839 0
M  V30 3200 H 311.387 5.02373 0.251128 0
M  V30 3201 H 311.087 5.71579 -1.36277 0
M  V30 3202 H 312.611 6.08495 -0.50654 0
M  V30 3203 H 314.025 5.12671 -2.56595 0
M  V30 3204 H 312.422 4.98296 -3.34397 0
M  V30 3205 H 313.492 3.57083 -3.28054 0
M  V30 3206 N 314.835 0.952656 1.25548 0
M  V30 3207 C 316.06 0.623025 1.97821 0
M  V30 3208 C 316.485 -0.7976 1.70352 0
M  V30 3209 O 315.843 -1.53905 0.958283 0
M  V30 3210 C 315.891 0.885532 3.49558 0
M  V30 3211 O 314.995 -0.0366641 4.12384 0
M  V30 3212 H 314.336 0.237082 0.620232 0
M  V30 3213 H 316.866 1.27871 1.59719 0
M  V30 3214 H 316.876 0.811009 3.99858 0
M  V30 3215 H 315.551 1.92094 3.6888 0
M  V30 3216 H 314.128 0.0898954 3.72792 0
M  V30 3217 N 316.313 -1.40141 0.720998 0
M  V30 3218 C 317.538 -2.05618 0.271258 0
M  V30 3219 C 317.963 -1.53978 -1.08039 0
M  V30 3220 O 317.321 -0.677463 -1.68167 0
M  V30 3221 C 317.369 -3.59609 0.267197 0
M  V30 3222 O 316.473 -4.05526 -0.749814 0
M  V30 3223 H 315.814 -0.651904 0.126162 0
M  V30 3224 H 318.344 -1.79439 0.982997 0
M  V30 3225 H 318.354 -4.0786 0.106744 0
M  V30 3226 H 317.029 -3.96559 1.25354 0
M  V30 3227 H 315.606 -3.68722 -0.556644 0
M  V30 3228 N 317.792 -0.46758 -1.50504 0
M  V30 3229 C 319.04 0.0884469 -2.01906 0
M  V30 3230 C 319.361 1.40532 -1.35188 0
M  V30 3231 O 318.631 1.89515 -0.496079 0
M  V30 3232 H 317.211 0.0356765 -0.746148 0
M  V30 3233 H 319.873 -0.6172 -1.84869 0
M  V30 3234 H 318.969 0.2425 -3.11156 0
M  V30 3235 N 319.27 1.56325 -0.20005 0
M  V30 3236 C 320.518 1.97329 0.436547 0
M  V30 3237 C 320.839 1.08826 1.61808 0
M  V30 3238 O 320.109 0.160604 1.95241 0
M  V30 3239 H 318.689 0.728714 0.164272 0
M  V30 3240 H 321.351 1.92761 -0.287937 0
M  V30 3241 H 320.447 3.02264 0.777353 0
M  V30 3242 N 320.748 -0.0735177 1.57428 0
M  V30 3243 C 321.997 -0.771809 1.86349 0
M  V30 3244 C 322.31 -1.78828 0.792452 0
M  V30 3245 O 323.516 -2.53602 0.96945 0
M  V30 3246 C 321.972 -1.42358 3.30548 0
M  V30 3247 C 321.58 -0.445761 4.45777 0
M  V30 3248 C 323.324 -2.10434 3.6867 0
M  V30 3249 C 321.231 -1.10335 5.81016 0
M  V30 3250 H 320.161 -0.291999 0.695164 0
M  V30 3251 H 322.812 -0.0250749 1.83483 0
M  V30 3252 H 321.194 -2.21852 3.28021 0
M  V30 3253 H 322.368 0.319239 4.59693 0
M  V30 3254 H 320.683 0.130457 4.16196 0
M  V30 3255 H 323.28 -2.60405 4.67004 0
M  V30 3256 H 323.623 -2.90298 2.98383 0
M  V30 3257 H 324.156 -1.37773 3.7318 0
M  V30 3258 H 320.895 -0.345061 6.54591 0
M  V30 3259 H 320.415 -1.83925 5.70904 0
M  V30 3260 H 322.094 -1.62367 6.26295 0
M  V30 3261 N 322.226 -1.5378 -0.344866 0
M  V30 3262 C 323.475 -1.7018 -1.08267 0
M  V30 3263 C 323.788 -0.471 -1.89845 0
M  V30 3264 O 324.994 -0.515917 -2.66553 0
M  V30 3265 C 323.45 -3.00923 -1.97417 0
M  V30 3266 C 323.058 -4.31335 -1.21053 0
M  V30 3267 C 324.802 -3.26688 -2.71063 0
M  V30 3268 C 322.709 -5.53153 -2.09225 0
M  V30 3269 H 321.639 -0.634138 -0.407903 0
M  V30 3270 H 324.29 -1.8028 -0.342246 0
M  V30 3271 H 322.672 -2.84676 -2.75274 0
M  V30 3272 H 323.846 -4.58281 -0.481159 0
M  V30 3273 H 322.161 -4.12173 -0.591813 0
M  V30 3274 H 324.758 -4.1489 -3.37299 0
M  V30 3275 H 325.101 -2.43639 -3.37558 0
M  V30 3276 H 325.634 -3.43705 -2.0028 0
M  V30 3277 H 322.373 -6.38741 -1.47274 0
M  V30 3278 H 321.893 -5.30458 -2.79955 0
M  V30 3279 H 323.572 -5.88744 -2.68308 0
M  V30 3280 N 323.704 0.605807 -1.45491 0
M  V30 3281 C 324.614 1.74466 -1.56839 0
M  V30 3282 C 325.63 1.68006 -0.452772 0
M  V30 3283 O 326.806 1.8833 -0.713708 0
M  V30 3284 C 323.871 3.10931 -1.53371 0
M  V30 3285 C 322.932 3.28832 -2.75986 0
M  V30 3286 C 322.165 4.58787 -2.72673 0
M  V30 3287 O 322.388 5.4122 -1.80102 0
M  V30 3288 O 321.322 4.79438 -3.63899 0
M  V30 3289 H 325.148 1.67843 -2.53106 0
M  V30 3290 H 322.733 0.770108 -1.28022 0
M  V30 3291 H 324.615 3.92233 -1.54051 0
M  V30 3292 H 323.29 3.18042 -0.602572 0
M  V30 3293 H 322.197 2.47112 -2.80867 0
M  V30 3294 H 323.53 3.26599 -3.68231 0
M  V30 3295 N 325.182 1.32811 0.848464 0
M  V30 3296 C 326.112 1.24882 1.97299 0
M  V30 3297 C 327.093 0.131357 1.69592 0
M  V30 3298 O 328.278 0.319553 1.91553 0
M  V30 3299 C 325.408 0.97746 3.33261 0
M  V30 3300 C 324.362 2.05682 3.75338 0
M  V30 3301 C 323.688 1.63777 5.09 0
M  V30 3302 C 324.988 3.47254 3.90144 0
M  V30 3303 H 326.682 2.18966 2.04191 0
M  V30 3304 H 324.228 1.05413 0.981029 0
M  V30 3305 H 326.181 0.908513 4.1149 0
M  V30 3306 H 324.905 0.000980011 3.266 0
M  V30 3307 H 323.564 2.11603 2.99366 0
M  V30 3308 H 323.212 0.648569 4.98801 0
M  V30 3309 H 322.912 2.36 5.38124 0
M  V30 3310 H 324.436 1.5833 5.89715 0
M  V30 3311 H 325.85 3.43888 4.58709 0
M  V30 3312 H 324.247 4.1788 4.30693 0
M  V30 3313 H 325.317 3.86462 2.92874 0
M  V30 3314 N 326.66 -1.06551 1.16123 0
M  V30 3315 C 328.071 -1.60768 0.949232 0
M  V30 3316 C 328.422 -1.89523 -0.507508 0
M  V30 3317 O 327.547 -1.66671 -1.38021 0
M  V30 3318 C 328.142 -2.92086 1.71671 0
M  V30 3319 C 326.701 -3.43015 1.54977 0
M  V30 3320 C 325.848 -2.16947 1.72711 0
M  V30 3321 H 328.799 -0.895354 1.31031 0
M  V30 3322 H 328.82 -3.6138 1.19099 0
M  V30 3323 H 328.332 -2.71127 2.7769 0
M  V30 3324 H 326.433 -3.69039 0.513873 0
M  V30 3325 H 326.546 -4.18516 2.33198 0
M  V30 3326 H 324.91 -2.27041 1.15431 0
M  V30 3327 H 325.693 -1.98473 2.80113 0
M  V30 3328 N 328.138 -0.959301 -1.25041 0
M  V30 3329 C 329.415 -0.533805 -1.88175 0
M  V30 3330 C 329.795 0.988994 -1.865 0
M  V30 3331 O 329.143 1.85677 -1.33177 0
M  V30 3332 C 329.353 -1.11575 -3.30684 0
M  V30 3333 C 330.701 -1.19548 -4.07423 0
M  V30 3334 O 331.725 -1.06765 -3.39823 0
M  V30 3335 O 330.584 -1.39656 -5.28354 0
M  V30 3336 H 327.678 -0.176772 -0.807887 0
M  V30 3337 H 330.224 -1.05303 -1.33076 0
M  V30 3338 H 328.996 -2.15884 -3.26358 0
M  V30 3339 H 328.619 -0.580059 -3.93346 0
M  V30 3340 N 329.616 1.39756 -0.72842 0
M  V30 3341 C 330.864 2.00248 -0.272946 0
M  V30 3342 C 331.185 1.58077 1.14178 0
M  V30 3343 O 330.455 0.826014 1.77634 0
M  V30 3344 H 329.035 0.740554 -0.0979247 0
M  V30 3345 H 331.697 1.70903 -0.936912 0
M  V30 3346 H 330.793 3.10495 -0.316142 0
M  V30 3347 N 331.094 0.475555 1.50254 0
M  V30 3348 C 332.324 -0.0753399 2.06463 0
M  V30 3349 C 332.732 -1.33661 1.33908 0
M  V30 3350 O 332.075 -1.79219 0.403257 0
M  V30 3351 C 332.137 -0.424921 3.5698 0
M  V30 3352 C 331.801 0.734965 4.51051 0
M  V30 3353 C 332.798 1.61827 4.94073 0
M  V30 3354 C 330.483 0.926557 4.9368 0
M  V30 3355 C 332.477 2.67754 5.78434 0
M  V30 3356 C 330.164 1.98904 5.77824 0
M  V30 3357 C 331.162 2.8629 6.20103 0
M  V30 3358 O 330.85 3.90708 7.02568 0
M  V30 3359 H 330.582 0.00576308 0.675975 0
M  V30 3360 H 333.136 0.664662 1.94349 0
M  V30 3361 H 331.366 -1.21817 3.67012 0
M  V30 3362 H 333.055 -0.911422 3.95535 0
M  V30 3363 H 333.821 1.48196 4.61804 0
M  V30 3364 H 329.7 0.25584 4.6029 0
M  V30 3365 H 333.244 3.35992 6.11355 0
M  V30 3366 H 329.141 2.12541 6.09505 0
M  V30 3367 H 329.909 3.87751 7.20827 0
M  V30 3368 N 332.573 -1.56217 0.208337 0
M  V30 3369 C 333.506 -2.15633 -0.746842 0
M  V30 3370 C 334.484 -1.09685 -1.20034 0
M  V30 3371 O 335.668 -1.3787 -1.28547 0
M  V30 3372 C 332.795 -2.72594 -2.01023 0
M  V30 3373 C 331.841 -3.91251 -1.69779 0
M  V30 3374 S 332.674 -5.28962 -0.834209 0
M  V30 3375 C 333.83 -5.89353 -2.10745 0
M  V30 3376 H 334.063 -2.96315 -0.241789 0
M  V30 3377 H 331.596 -1.54398 -0.00682183 0
M  V30 3378 H 333.554 -3.06053 -2.73572 0
M  V30 3379 H 332.215 -1.91929 -2.48641 0
M  V30 3380 H 331.408 -4.29562 -2.63614 0
M  V30 3381 H 331.01 -3.58869 -1.05303 0
M  V30 3382 H 333.302 -6.04522 -3.05875 0
M  V30 3383 H 334.245 -6.85661 -1.76845 0
M  V30 3384 H 334.653 -5.1807 -2.24196 0
M  V30 3385 N 334.051 0.0651679 -1.57465 0
M  V30 3386 C 335.014 1.06117 -2.03155 0
M  V30 3387 C 336.014 1.31204 -0.929632 0
M  V30 3388 O 337.204 1.26813 -1.19432 0
M  V30 3389 C 334.336 2.4032 -2.41783 0
M  V30 3390 H 335.529 0.667231 -2.92383 0
M  V30 3391 H 333.082 0.311075 -1.53173 0
M  V30 3392 H 333.817 2.84532 -1.55601 0
M  V30 3393 H 333.602 2.23451 -3.22199 0
M  V30 3394 H 335.092 3.11898 -2.77685 0
M  V30 3395 N 335.529 1.53961 0.336706 0
M  V30 3396 C 336.492 1.81724 1.39675 0
M  V30 3397 C 337.492 0.688532 1.45313 0
M  V30 3398 O 338.682 0.956829 1.45569 0
M  V30 3399 C 335.814 1.96543 2.78538 0
M  V30 3400 H 337.007 2.76424 1.16318 0
M  V30 3401 H 334.56 1.45478 0.571474 0
M  V30 3402 H 335.295 1.0401 3.07168 0
M  V30 3403 H 335.08 2.78665 2.75841 0
M  V30 3404 H 336.57 2.19516 3.5525 0
M  V30 3405 N 337.007 -0.598083 1.45811 0
M  V30 3406 C 337.937 -1.71873 1.58057 0
M  V30 3407 C 338.918 -1.64533 0.431615 0
M  V30 3408 O 340.103 -1.82787 0.65595 0
M  V30 3409 C 337.233 -3.10495 1.55597 0
M  V30 3410 C 336.187 -3.32654 2.69305 0
M  V30 3411 C 335.513 -4.71646 2.51902 0
M  V30 3412 C 336.813 -3.21981 4.11248 0
M  V30 3413 H 338.507 -1.61881 2.51863 0
M  V30 3414 H 336.053 -0.777372 1.21214 0
M  V30 3415 H 338.006 -3.88699 1.6276 0
M  V30 3416 H 336.73 -3.2135 0.583255 0
M  V30 3417 H 335.389 -2.56843 2.61586 0
M  V30 3418 H 335.037 -4.79246 1.52748 0
M  V30 3419 H 334.737 -4.87426 3.2816 0
M  V30 3420 H 336.261 -5.52038 2.60933 0
M  V30 3421 H 337.675 -3.90049 4.20161 0
M  V30 3422 H 336.072 -3.49289 4.87972 0
M  V30 3423 H 337.142 -2.1928 4.32486 0
M  V30 3424 N 338.485 -1.33259 -0.841409 0
M  V30 3425 C 339.432 -1.23302 -1.95103 0
M  V30 3426 C 340.402 -0.112204 -1.65721 0
M  V30 3427 O 341.587 -0.290038 -1.88583 0
M  V30 3428 C 338.727 -0.975583 -3.31023 0
M  V30 3429 C 337.84 -2.18243 -3.72819 0
M  V30 3430 C 336.975 -1.85936 -4.97595 0
M  V30 3431 C 336.014 -3.02866 -5.3192 0
M  V30 3432 N 335.151 -2.70565 -6.47873 0
M  V30 3433 H 339.991 -2.18207 -2.02952 0
M  V30 3434 H 337.528 -1.0851 -0.993173 0
M  V30 3435 H 339.486 -0.80677 -4.09325 0
M  V30 3436 H 338.116 -0.0632755 -3.22738 0
M  V30 3437 H 337.168 -2.46107 -2.90061 0
M  V30 3438 H 338.48 -3.05666 -3.94169 0
M  V30 3439 H 337.634 -1.65684 -5.83638 0
M  V30 3440 H 336.373 -0.957452 -4.78209 0
M  V30 3441 H 335.378 -3.23736 -4.44382 0
M  V30 3442 H 336.603 -3.93809 -5.53255 0
M  V30 3443 H 334.549 -1.8293 -6.29978 0
M  V30 3444 H 334.466 -3.51519 -6.69306 0
M  V30 3445 H 335.734 -2.53774 -7.37034 0
M  V30 3446 N 339.963 1.05934 -1.16686 0
M  V30 3447 C 341.379 1.30938 -0.912542 0
M  V30 3448 C 341.579 1.96803 0.432533 0
M  V30 3449 O 340.635 2.23693 1.17123 0
M  V30 3450 C 341.948 2.18649 -2.06429 0
M  V30 3451 C 343.496 2.32055 -2.10047 0
M  V30 3452 C 343.971 3.23122 -3.24586 0
M  V30 3453 N 345.462 3.30706 -3.24327 0
M  V30 3454 C 346.197 4.01273 -4.09594 0
M  V30 3455 N 345.693 4.74332 -5.04956 0
M  V30 3456 N 347.486 3.97361 -3.97569 0
M  V30 3457 H 339.637 0.615777 -2.03278 0
M  V30 3458 H 341.9 0.334077 -0.887185 0
M  V30 3459 H 341.606 1.77534 -3.03603 0
M  V30 3460 H 341.48 3.19252 -2.00894 0
M  V30 3461 H 343.867 2.72415 -1.13464 0
M  V30 3462 H 343.948 1.31107 -2.19647 0
M  V30 3463 H 343.592 2.83477 -4.2143 0
M  V30 3464 H 343.522 4.24057 -3.12223 0
M  V30 3465 H 346.013 2.78644 -2.55276 0
M  V30 3466 H 346.326 5.25716 -5.6643 0
M  V30 3467 H 344.671 4.733 -5.08933 0
M  V30 3468 H 347.862 3.39405 -3.22369 0
M  V30 3469 H 348.035 4.52089 -4.64241 0
M  V30 3470 N 341.441 0.965919 1.2453 0
M  V30 3471 C 342.388 0.49402 2.25451 0
M  V30 3472 C 343.358 -0.45948 1.59618 0
M  V30 3473 O 344.543 -0.370238 1.87173 0
M  V30 3474 C 341.683 -0.211359 3.44452 0
M  V30 3475 C 340.796 0.7807 4.24887 0
M  V30 3476 C 339.931 0.0516105 5.31175 0
M  V30 3477 C 338.97 1.03385 6.03306 0
M  V30 3478 N 338.107 0.334887 7.01301 0
M  V30 3479 H 342.947 1.35946 2.65184 0
M  V30 3480 H 340.484 0.681515 1.3036 0
M  V30 3481 H 342.442 -0.637 4.12308 0
M  V30 3482 H 341.072 -1.04077 3.05562 0
M  V30 3483 H 340.124 1.32479 3.56586 0
M  V30 3484 H 341.436 1.52978 4.74762 0
M  V30 3485 H 340.59 -0.432114 6.05159 0
M  V30 3486 H 339.329 -0.730179 4.82203 0
M  V30 3487 H 338.334 1.52847 5.28127 0
M  V30 3488 H 339.559 1.81606 6.54367 0
M  V30 3489 H 337.505 -0.427959 6.54603 0
M  V30 3490 H 337.422 1.02287 7.49048 0
M  V30 3491 H 338.69 -0.126928 7.79397 0
M  V30 3492 N 342.919 -1.39368 0.735821 0
M  V30 3493 C 344.159 -2.02349 0.288813 0
M  V30 3494 C 344.523 -1.57127 -1.10341 0
M  V30 3495 O 345.724 -2.12312 -1.64854 0
M  V30 3496 C 343.995 -3.55288 0.387986 0
M  V30 3497 S 345.554 -4.38795 0.0209408 0
M  V30 3498 H 342.372 -0.701944 0.113115 0
M  V30 3499 H 344.974 -1.70164 0.962518 0
M  V30 3500 H 343.678 -3.85691 1.40252 0
M  V30 3501 H 343.209 -3.92227 -0.303512 0
M  V30 3502 H 345.224 -4.81595 -1.19503 0
M  V30 3503 N 344.397 -0.483516 -1.5 0
M  V30 3504 C 345.307 0.309172 -2.32554 0
M  V30 3505 C 346.323 0.984159 -1.43493 0
M  V30 3506 O 347.499 0.969399 -1.76535 0
M  V30 3507 C 344.564 1.36979 -3.18493 0
M  V30 3508 C 343.625 0.710095 -4.23387 0
M  V30 3509 C 342.858 1.72018 -5.05218 0
M  V30 3510 O 343.081 2.94813 -4.88305 0
M  V30 3511 O 342.015 1.28515 -5.8802 0
M  V30 3512 H 345.841 -0.366064 -3.01486 0
M  V30 3513 H 343.426 -0.24514 -1.47375 0
M  V30 3514 H 345.308 1.98385 -3.71781 0
M  V30 3515 H 343.983 2.02828 -2.52275 0
M  V30 3516 H 342.89 0.0567539 -3.74057 0
M  V30 3517 H 344.223 0.0943557 -4.9211 0
M  V30 3518 N 345.875 1.56104 -0.216619 0
M  V30 3519 C 346.838 2.18819 0.681962 0
M  V30 3520 C 347.838 1.14866 1.12528 0
M  V30 3521 O 349.028 1.40128 1.03488 0
M  V30 3522 C 346.16 2.80756 1.93362 0
M  V30 3523 H 347.353 2.99595 0.135254 0
M  V30 3524 H 344.906 1.56265 0.0330003 0
M  V30 3525 H 345.641 2.03837 2.52232 0
M  V30 3526 H 345.426 3.56876 1.62426 0
M  V30 3527 H 346.916 3.28844 2.57393 0
M  V30 3528 N 347.353 -0.0568162 1.57498 0
M  V30 3529 C 348.769 -0.411933 1.54192 0
M  V30 3530 C 348.969 -1.78287 0.938942 0
M  V30 3531 O 348.025 -2.46483 0.547919 0
M  V30 3532 C 349.338 -0.339244 2.9878 0
M  V30 3533 C 350.886 -0.418348 3.10192 0
M  V30 3534 C 351.361 -0.375407 4.56459 0
M  V30 3535 N 352.852 -0.435038 4.61153 0
M  V30 3536 C 353.587 -0.424265 5.71828 0
M  V30 3537 N 353.083 -0.367418 6.91825 0
M  V30 3538 N 354.876 -0.471938 5.60115 0
M  V30 3539 H 347.027 0.840684 1.95055 0
M  V30 3540 H 349.29 0.316987 0.893433 0
M  V30 3541 H 348.996 0.601742 3.46514 0
M  V30 3542 H 348.87 -1.14371 3.59443 0
M  V30 3543 H 351.257 -1.34976 2.62422 0
M  V30 3544 H 351.338 0.414962 2.52412 0
M  V30 3545 H 350.982 0.552219 5.04889 0
M  V30 3546 H 350.912 -1.22645 5.12119 0
M  V30 3547 H 353.403 -0.482612 3.74806 0
M  V30 3548 H 353.716 -0.363535 7.71944 0
M  V30 3549 H 352.061 -0.333879 6.94198 0
M  V30 3550 H 355.252 -0.514145 4.65268 0
M  V30 3551 H 355.425 -0.460073 6.46365 0
M  V30 3552 N 348.832 -1.54138 -0.328536 0
M  V30 3553 C 350.08 -1.71765 -1.06496 0
M  V30 3554 C 350.401 -0.49149 -1.88704 0
M  V30 3555 O 349.671 0.494539 -1.89555 0
M  V30 3556 H 348.251 -0.633295 -0.396164 0
M  V30 3557 H 350.913 -1.91429 -0.366176 0
M  V30 3558 H 350.009 -2.5951 -1.73381 0
M  V30 3559 N 350.31 0.590341 -1.46126 0
M  V30 3560 C 351.243 1.71434 -1.50617 0
M  V30 3561 C 352.221 1.58543 -0.360948 0
M  V30 3562 O 353.405 1.79865 -0.563985 0
M  V30 3563 C 350.532 3.09422 -1.37753 0
M  V30 3564 C 349.578 3.40854 -2.5636 0
M  V30 3565 S 350.411 3.33773 -4.18755 0
M  V30 3566 C 351.567 4.74312 -4.08386 0
M  V30 3567 H 351.8 1.67364 -2.45717 0
M  V30 3568 H 349.333 0.76845 -1.33919 0
M  V30 3569 H 351.291 3.8903 -1.31018 0
M  V30 3570 H 349.952 3.10989 -0.440949 0
M  V30 3571 H 349.145 4.41368 -2.43332 0
M  V30 3572 H 348.747 2.68798 -2.60046 0
M  V30 3573 H 351.039 5.64522 -3.74595 0
M  V30 3574 H 351.982 4.92397 -5.08872 0
M  V30 3575 H 352.39 4.50803 -3.3976 0
M  V30 3576 N 351.788 1.33704 0.83433 0
M  V30 3577 C 352.718 1.26967 1.95963 0
M  V30 3578 C 353.699 0.149337 1.69443 0
M  V30 3579 O 354.884 0.339852 1.91203 0
M  V30 3580 C 352.014 1.01275 3.32206 0
M  V30 3581 C 350.968 2.09652 3.73136 0
M  V30 3582 C 350.294 1.69166 5.07235 0
M  V30 3583 C 351.594 3.51372 3.86439 0
M  V30 3584 H 353.288 2.2112 2.01857 0
M  V30 3585 H 350.834 1.06447 0.969793 0
M  V30 3586 H 352.787 0.952106 4.10503 0
M  V30 3587 H 351.511 0.0356203 3.26581 0
M  V30 3588 H 350.17 2.14766 2.97104 0
M  V30 3589 H 349.818 0.701437 4.98085 0
M  V30 3590 H 349.518 2.41694 5.35591 0
M  V30 3591 H 351.042 1.64576 5.88003 0
M  V30 3592 H 352.456 3.48734 4.55036 0
M  V30 3593 H 350.853 4.22425 4.26236 0
M  V30 3594 H 351.923 3.89546 2.88759 0
M  V30 3595 N 353.266 -1.05314 1.17247 0
M  V30 3596 C 354.196 -2.1498 0.911362 0
M  V30 3597 C 355.177 -1.69471 -0.146169 0
M  V30 3598 O 356.362 -1.942 0.003812 0
M  V30 3599 C 353.492 -3.4472 0.422528 0
M  V30 3600 C 352.446 -4.03789 1.4191 0
M  V30 3601 C 351.772 -5.28858 0.788274 0
M  V30 3602 C 353.072 -4.41418 2.7919 0
M  V30 3603 H 354.766 -2.3708 1.82848 0
M  V30 3604 H 352.312 -1.13938 0.880569 0
M  V30 3605 H 354.265 -4.20787 0.227289 0
M  V30 3606 H 352.989 -3.22269 -0.530123 0
M  V30 3607 H 351.648 -3.2979 1.60106 0
M  V30 3608 H 351.296 -5.02709 -0.171173 0
M  V30 3609 H 350.996 -5.69338 1.45353 0
M  V30 3610 H 352.52 -6.07612 0.603282 0
M  V30 3611 H 353.934 -5.08524 2.64719 0
M  V30 3612 H 352.331 -4.92913 3.42282 0
M  V30 3613 H 353.401 -3.51819 3.33693 0
M  V30 3614 N 354.744 -0.972509 -1.24016 0
M  V30 3615 C 355.993 -0.632603 -1.91523 0
M  V30 3616 C 356.306 0.836641 -1.76804 0
M  V30 3617 O 357.512 1.28728 -2.39043 0
M  V30 3618 C 355.968 -1.08082 -3.43287 0
M  V30 3619 C 355.576 -2.57386 -3.66683 0
M  V30 3620 C 357.32 -0.814288 -4.16617 0
M  V30 3621 C 355.227 -2.95915 -5.12043 0
M  V30 3622 H 354.157 -0.232898 -0.717129 0
M  V30 3623 H 356.808 -1.17936 -1.40582 0
M  V30 3624 H 355.19 -0.462339 -3.93292 0
M  V30 3625 H 356.364 -3.24405 -3.27258 0
M  V30 3626 H 354.679 -2.81701 -3.06649 0
M  V30 3627 H 357.276 -1.0781 -5.23718 0
M  V30 3628 H 357.619 0.24955 -4.15551 0
M  V30 3629 H 358.152 -1.39397 -3.72577 0
M  V30 3630 H 354.891 -4.0139 -5.18234 0
M  V30 3631 H 354.411 -2.33584 -5.52448 0
M  V30 3632 H 356.09 -2.86086 -5.80314 0
M  V30 3633 N 356.222 1.38976 -0.743202 0
M  V30 3634 C 357.152 2.33171 -0.123873 0
M  V30 3635 C 358.133 1.54336 0.71516 0
M  V30 3636 O 359.318 1.82696 0.658467 0
M  V30 3637 C 356.448 3.38474 0.777978 0
M  V30 3638 C 355.402 4.27979 0.0424758 0
M  V30 3639 C 354.728 5.2405 1.06189 0
M  V30 3640 C 356.028 5.10155 -1.1198 0
M  V30 3641 H 357.722 2.85213 -0.910709 0
M  V30 3642 H 355.268 1.37133 -0.439388 0
M  V30 3643 H 357.221 4.03328 1.22084 0
M  V30 3644 H 355.945 2.84891 1.59702 0
M  V30 3645 H 354.604 3.64616 -0.380853 0
M  V30 3646 H 354.252 4.66758 1.87472 0
M  V30 3647 H 353.952 5.84785 0.574485 0
M  V30 3648 H 355.476 5.9178 1.50428 0
M  V30 3649 H 356.89 5.68307 -0.75499 0
M  V30 3650 H 355.287 5.80073 -1.53738 0
M  V30 3651 H 356.357 4.44504 -1.93764 0
M  V30 3652 N 357.7 0.491464 1.49741 0
M  V30 3653 C 358.977 -0.118984 1.95238 0
M  V30 3654 C 359.357 -1.55044 1.43264 0
M  V30 3655 O 358.705 -2.19287 0.642287 0
M  V30 3656 C 358.915 -0.0414187 3.48975 0
M  V30 3657 C 360.263 -0.220133 4.24029 0
M  V30 3658 O 361.287 -0.117055 3.56008 0
M  V30 3659 O 360.146 -0.430567 5.44801 0
M  V30 3660 H 357.24 -0.100536 0.820866 0
M  V30 3661 H 359.786 0.553322 1.60426 0
M  V30 3662 H 358.558 0.957214 3.79412 0
M  V30 3663 H 358.181 -0.754292 3.9038 0
M  V30 3664 N 359.178 -1.55987 0.224894 0
M  V30 3665 C 360.088 -2.24066 -0.69511 0
M  V30 3666 C 361.104 -1.24939 -1.21104 0
M  V30 3667 O 362.28 -1.5776 -1.25195 0
M  V30 3668 C 359.345 -2.90983 -1.88493 0
M  V30 3669 C 358.406 -4.05462 -1.41064 0
M  V30 3670 C 357.639 -4.69179 -2.54375 0
M  V30 3671 O 357.862 -4.31895 -3.72589 0
M  V30 3672 O 356.796 -5.58108 -2.25386 0
M  V30 3673 H 360.622 -3.03353 -0.145149 0
M  V30 3674 H 358.207 -1.49399 -0.00569476 0
M  V30 3675 H 360.089 -3.33209 -2.57972 0
M  V30 3676 H 358.764 -2.14653 -2.42293 0
M  V30 3677 H 357.671 -3.67798 -0.683774 0
M  V30 3678 H 359.004 -4.83545 -0.918985 0
M  V30 3679 N 360.656 0.0484629 -1.57525 0
M  V30 3680 C 361.619 1.03956 -2.04269 0
M  V30 3681 C 362.619 1.30211 -0.943496 0
M  V30 3682 O 363.809 1.25539 -1.20771 0
M  V30 3683 C 360.941 2.37742 -2.44319 0
M  V30 3684 H 362.134 0.636182 -2.93075 0
M  V30 3685 H 359.687 0.294811 -1.53494 0
M  V30 3686 H 360.422 2.82866 -1.5861 0
M  V30 3687 H 360.207 2.20021 -3.24551 0
M  V30 3688 H 361.697 3.08936 -2.80978 0
M  V30 3689 N 362.134 1.5431 0.320358 0
M  V30 3690 C 363.066 1.80262 1.41556 0
M  V30 3691 C 364.079 0.684723 1.477 0
M  V30 3692 O 365.268 0.961886 1.50366 0
M  V30 3693 C 362.368 1.90825 2.8007 0
M  V30 3694 C 361.541 3.21023 2.97091 0
M  V30 3695 C 360.6 3.22247 4.15985 0
M  V30 3696 O 359.626 3.95871 4.08992 0
M  V30 3697 N 360.828 2.46258 5.25678 0
M  V30 3698 H 363.593 2.74778 1.19655 0
M  V30 3699 H 361.154 1.53646 0.510358 0
M  V30 3700 H 363.146 1.89067 3.57821 0
M  V30 3701 H 361.716 1.03392 2.95006 0
M  V30 3702 H 360.936 3.35715 2.06614 0
M  V30 3703 H 362.224 4.0698 3.05361 0
M  V30 3704 H 361.622 1.86037 5.34235 0
M  V30 3705 H 360.179 2.50275 6.01835 0
M  V30 3706 N 363.613 -0.582584 1.46437 0
M  V30 3707 C 364.841 -1.36682 1.55324 0
M  V30 3708 C 365.256 -1.87796 0.194409 0
M  V30 3709 O 364.613 -1.63623 -0.808318 0
M  V30 3710 C 364.664 -2.55426 2.55812 0
M  V30 3711 O 364.385 -2.0643 3.86417 0
M  V30 3712 C 365.886 -3.47976 2.74641 0
M  V30 3713 H 363.106 -0.417545 0.525259 0
M  V30 3714 H 365.65 -0.708219 1.91845 0
M  V30 3715 H 363.805 -3.17275 2.22295 0
M  V30 3716 H 364.219 -2.83762 4.41111 0
M  V30 3717 H 365.693 -4.27775 3.48874 0
M  V30 3718 H 366.17 -3.99919 1.81553 0
M  V30 3719 H 366.776 -2.91962 3.09255 0
M  V30 3720 N 365.091 -1.34144 -0.827227 0
M  V30 3721 C 366.339 -1.26009 -1.58007 0
M  V30 3722 C 366.66 0.170971 -1.94249 0
M  V30 3723 O 365.93 1.10256 -1.61927 0
M  V30 3724 H 364.51 -0.463414 -0.585881 0
M  V30 3725 H 367.172 -1.68005 -0.987951 0
M  V30 3726 H 366.268 -1.86187 -2.50481 0
M  V30 3727 N 366.569 1.04691 -1.17803 0
M  V30 3728 C 367.815 1.78045 -0.970969 0
M  V30 3729 C 368.148 1.87686 0.498751 0
M  V30 3730 O 367.423 1.38035 1.37027 0
M  V30 3731 C 367.706 3.2166 -1.61884 0
M  V30 3732 C 367.559 3.20001 -3.161 0
M  V30 3733 C 368.878 4.1962 -1.3269 0
M  V30 3734 H 365.997 0.64633 -0.354155 0
M  V30 3735 H 368.639 1.22333 -1.45378 0
M  V30 3736 H 366.789 3.69232 -1.20831 0
M  V30 3737 H 368.461 2.80467 -3.66246 0
M  V30 3738 H 366.704 2.58203 -3.48588 0
M  V30 3739 H 367.375 4.21386 -3.56564 0
M  V30 3740 H 369.851 3.80567 -1.68249 0
M  V30 3741 H 368.727 5.18339 -1.80599 0
M  V30 3742 H 368.988 4.414 -0.248622 0
M  V30 3743 N 368.047 0.979072 1.23499 0
M  V30 3744 C 369.295 0.645941 1.91499 0
M  V30 3745 C 369.616 -0.822948 1.76784 0
M  V30 3746 O 368.886 -1.58854 1.14639 0
M  V30 3747 H 367.466 0.235919 0.708767 0
M  V30 3748 H 370.128 1.2426 1.50152 0
M  V30 3749 H 369.224 0.896411 2.9895 0
M  V30 3750 N 369.525 -1.3858 0.750561 0
M  V30 3751 C 370.941 -1.53759 0.427824 0
M  V30 3752 C 371.141 -1.71401 -1.05943 0
M  V30 3753 O 370.197 -1.72331 -1.84549 0
M  V30 3754 C 371.51 -2.74642 1.22443 0
M  V30 3755 C 373.058 -2.88489 1.2142 0
M  V30 3756 C 373.533 -4.12329 1.9937 0
M  V30 3757 N 375.024 -4.194 1.96616 0
M  V30 3758 C 375.759 -5.14209 2.53727 0
M  V30 3759 N 375.255 -6.14709 3.19539 0
M  V30 3760 N 377.048 -5.06537 2.43673 0
M  V30 3761 H 369.199 -1.25377 1.71447 0
M  V30 3762 H 371.462 -0.608844 0.726645 0
M  V30 3763 H 371.168 -2.68 2.27747 0
M  V30 3764 H 371.042 -3.67745 0.839273 0
M  V30 3765 H 373.429 -2.94614 0.169232 0
M  V30 3766 H 373.51 -1.96406 1.63885 0
M  V30 3767 H 373.154 -4.06966 3.03877 0
M  V30 3768 H 373.084 -5.03486 1.54302 0
M  V30 3769 H 375.575 -3.47421 1.48684 0
M  V30 3770 H 375.888 -6.8354 3.60545 0
M  V30 3771 H 374.233 -6.1505 3.23633 0
M  V30 3772 H 377.424 -4.26962 1.91889 0
M  V30 3773 H 377.597 -5.80245 2.88479 0
M  V30 3774 N 371.003 -0.499398 -1.49478 0
M  V30 3775 C 372.231 0.0425456 -2.06856 0
M  V30 3776 C 372.646 1.30964 -1.35992 0
M  V30 3777 O 372.003 1.77172 -0.437762 0
M  V30 3778 C 372.054 0.301735 -3.60239 0
M  V30 3779 O 371.775 -0.915127 -4.28436 0
M  V30 3780 C 373.276 0.887499 -4.34325 0
M  V30 3781 H 370.496 -0.0197482 -0.670709 0
M  V30 3782 H 373.04 -0.696297 -1.92281 0
M  V30 3783 H 371.195 0.990556 -3.74522 0
M  V30 3784 H 371.609 -0.676993 -5.20113 0
M  V30 3785 H 373.083 1.01845 -5.42523 0
M  V30 3786 H 373.56 1.88488 -3.96698 0
M  V30 3787 H 374.166 0.236196 -4.24644 0
M  V30 3788 N 372.481 1.55866 -0.233164 0
M  V30 3789 C 373.729 1.9821 0.394593 0
M  V30 3790 C 374.05 1.12234 1.59463 0
M  V30 3791 O 373.32 0.201981 1.94856 0
M  V30 3792 H 371.9 0.732034 0.148778 0
M  V30 3793 H 374.562 1.92107 -0.32876 0
M  V30 3794 H 373.658 3.03845 0.713063 0
M  V30 3795 N 373.959 -0.0401083 1.57549 0
M  V30 3796 C 375.187 -0.745196 1.93014 0
M  V30 3797 C 375.602 -1.6948 0.831984 0
M  V30 3798 O 374.959 -1.81482 -0.192463 0
M  V30 3799 C 375.01 -1.51176 3.28372 0
M  V30 3800 O 374.731 -0.600284 4.33968 0
M  V30 3801 C 376.232 -2.315 3.78051 0
M  V30 3802 H 373.452 -0.210088 0.637263 0
M  V30 3803 H 375.996 -0.000924689 2.045 0
M  V30 3804 H 374.151 -2.20801 3.18317 0
M  V30 3805 H 374.565 -1.13669 5.12035 0
M  V30 3806 H 376.039 -2.80697 4.75303 0
M  V30 3807 H 376.516 -3.12436 3.08675 0
M  V30 3808 H 377.122 -1.66971 3.91153 0
M  V30 3809 N 375.437 -1.54477 -0.31217 0
M  V30 3810 C 376.37 -1.79519 -1.40884 0
M  V30 3811 C 377.348 -0.645753 -1.49227 0
M  V30 3812 O 378.532 -0.884468 -1.66461 0
M  V30 3813 C 375.659 -1.92194 -2.78889 0
M  V30 3814 C 374.705 -3.14555 -2.88023 0
M  V30 3815 S 375.538 -4.72893 -2.51262 0
M  V30 3816 C 376.694 -4.8849 -3.91317 0
M  V30 3817 H 376.927 -2.72256 -1.19432 0
M  V30 3818 H 374.46 -1.45746 -0.509654 0
M  V30 3819 H 376.418 -2.00182 -3.58382 0
M  V30 3820 H 375.079 -1.00414 -2.97617 0
M  V30 3821 H 374.272 -3.20193 -3.89221 0
M  V30 3822 H 373.874 -3.04955 -2.16514 0
M  V30 3823 H 376.166 -4.71826 -4.86196 0
M  V30 3824 H 377.109 -5.90588 -3.90656 0
M  V30 3825 H 377.517 -4.16715 -3.80801 0
M  V30 3826 N 376.915 0.57481 -1.46744 0
M  V30 3827 C 378.162 1.33272 -1.52462 0
M  V30 3828 C 378.49 1.93669 -0.179572 0
M  V30 3829 O 377.745 1.7743 0.825664 0
M  V30 3830 C 378.044 2.476 -2.57738 0
M  V30 3831 C 377.71 2.05146 -4.01529 0
M  V30 3832 C 376.372 1.93284 -4.40676 0
M  V30 3833 C 378.724 1.72506 -4.91824 0
M  V30 3834 C 376.052 1.47049 -5.67973 0
M  V30 3835 C 378.404 1.27748 -6.19567 0
M  V30 3836 C 377.068 1.14468 -6.57612 0
M  V30 3837 H 376.338 0.487678 -0.557899 0
M  V30 3838 H 378.985 0.646456 -1.80259 0
M  V30 3839 H 377.29 3.21708 -2.23632 0
M  V30 3840 H 378.987 3.05807 -2.5939 0
M  V30 3841 H 375.577 2.15316 -3.7059 0
M  V30 3842 H 379.761 1.80552 -4.62293 0
M  V30 3843 H 375.017 1.35417 -5.96215 0
M  V30 3844 H 379.191 1.01547 -6.88957 0
M  V30 3845 H 376.818 0.78419 -7.56145 0
M  V30 3846 N 378.394 1.34581 0.820102 0
M  V30 3847 C 379.357 1.2628 1.91275 0
M  V30 3848 C 380.357 0.177344 1.59819 0
M  V30 3849 O 381.547 0.430156 1.68806 0
M  V30 3850 C 378.679 0.950327 3.27386 0
M  V30 3851 H 379.872 2.23421 2.00057 0
M  V30 3852 H 377.425 1.1891 1.0144 0
M  V30 3853 H 378.16 -0.0177938 3.24295 0
M  V30 3854 H 377.945 1.73549 3.51601 0
M  V30 3855 H 379.435 0.917492 4.07396 0
M  V30 3856 N 379.872 -1.04064 1.18357 0
M  V30 3857 C 381.112 -1.78829 0.989921 0
M  V30 3858 C 381.476 -1.86106 -0.472095 0
M  V30 3859 O 382.677 -2.57076 -0.785187 0
M  V30 3860 C 380.948 -3.1823 1.6268 0
M  V30 3861 S 382.507 -4.09332 1.58091 0
M  V30 3862 H 379.325 -0.615754 0.355482 0
M  V30 3863 H 381.927 -1.24778 1.50501 0
M  V30 3864 H 380.631 -3.10543 2.68311 0
M  V30 3865 H 380.162 -3.77357 1.112 0
M  V30 3866 H 382.177 -4.92598 0.596817 0
M  V30 3867 N 381.35 -0.985608 -1.22978 0
M  V30 3868 C 382.282 -0.488154 -2.23941 0
M  V30 3869 C 383.295 0.41282 -1.57479 0
M  V30 3870 O 384.484 0.216121 -1.77187 0
M  V30 3871 C 381.584 0.312611 -3.37455 0
M  V30 3872 C 380.757 -0.582741 -4.33501 0
M  V30 3873 C 379.816 0.165064 -5.25941 0
M  V30 3874 O 378.842 -0.447077 -5.67442 0
M  V30 3875 N 380.044 1.44953 -5.62111 0
M  V30 3876 H 382.809 -1.3563 -2.67254 0
M  V30 3877 H 380.37 -0.859477 -1.37203 0
M  V30 3878 H 382.362 0.821357 -3.96277 0
M  V30 3879 H 380.932 1.0818 -2.93285 0
M  V30 3880 H 380.152 -1.27225 -3.73105 0
M  V30 3881 H 381.44 -1.19275 -4.94622 0
M  V30 3882 H 380.838 1.9683 -5.30353 0
M  V30 3883 H 379.395 1.90361 -6.23383 0
M  V30 3884 N 382.828 1.3818 -0.7579 0
M  V30 3885 C 384.244 1.5353 -0.435972 0
M  V30 3886 C 384.444 1.71961 1.05032 0
M  V30 3887 O 383.5 1.73307 1.83633 0
M  V30 3888 C 384.813 2.73989 -1.23898 0
M  V30 3889 C 386.361 2.87841 -1.22949 0
M  V30 3890 C 386.836 4.11266 -2.01554 0
M  V30 3891 N 388.327 4.18352 -1.98837 0
M  V30 3892 C 389.062 5.12856 -2.5645 0
M  V30 3893 N 388.558 6.13005 -3.22794 0
M  V30 3894 N 390.351 5.05238 -2.46356 0
M  V30 3895 H 382.502 1.24467 -1.7211 0
M  V30 3896 H 384.765 0.604982 -0.729864 0
M  V30 3897 H 384.471 2.66789 -2.29165 0
M  V30 3898 H 384.345 3.67294 -0.858764 0
M  V30 3899 H 386.732 2.9452 -0.184854 0
M  V30 3900 H 386.813 1.95534 -1.64924 0
M  V30 3901 H 386.457 4.05349 -3.06031 0
M  V30 3902 H 386.387 5.02661 -1.5697 0
M  V30 3903 H 388.878 3.46628 -1.50524 0
M  V30 3904 H 389.191 6.81619 -3.64165 0
M  V30 3905 H 387.536 6.13325 -3.2689 0
M  V30 3906 H 390.727 4.25938 -1.9415 0
M  V30 3907 H 390.9 5.78707 -2.91552 0
M  V30 3908 N 384.306 0.507319 1.49211 0
M  V30 3909 C 385.583 -0.0982702 1.95353 0
M  V30 3910 C 385.963 -1.53516 1.449 0
M  V30 3911 O 385.311 -2.18594 0.66551 0
M  V30 3912 C 385.521 -0.00440283 3.49 0
M  V30 3913 C 386.869 -0.175147 4.24239 0
M  V30 3914 O 387.893 -0.0792891 3.56112 0
M  V30 3915 O 386.752 -0.37276 5.45227 0
M  V30 3916 H 383.846 -0.0918236 0.821887 0
M  V30 3917 H 386.392 0.570307 1.5983 0
M  V30 3918 H 385.164 0.997402 3.78375 0
M  V30 3919 H 384.787 -0.712845 3.91158 0
M  V30 3920 N 385.784 -1.5574 0.241426 0
M  V30 3921 C 387.032 -1.98417 -0.384075 0
M  V30 3922 C 387.353 -1.13078 -1.58866 0
M  V30 3923 O 386.623 -0.212312 -1.94746 0
M  V30 3924 H 385.203 -0.732813 -0.144894 0
M  V30 3925 H 387.865 -1.9193 0.338943 0
M  V30 3926 H 386.961 -3.04219 -0.696939 0
M  V30 3927 N 387.262 0.0317525 -1.57568 0
M  V30 3928 C 388.508 0.724175 -1.8943 0
M  V30 3929 C 388.841 1.75149 -0.838836 0
M  V30 3930 O 388.116 1.93948 0.146422 0
M  V30 3931 C 388.399 1.39615 -3.31933 0
M  V30 3932 C 388.252 0.382537 -4.4817 0
M  V30 3933 C 389.571 2.33084 -3.73309 0
M  V30 3934 H 386.69 0.261797 -0.688935 0
M  V30 3935 H 389.332 -0.013017 -1.89996 0
M  V30 3936 H 387.482 2.02451 -3.31581 0
M  V30 3937 H 389.154 -0.243689 -4.60656 0
M  V30 3938 H 387.397 -0.29844 -4.32772 0
M  V30 3939 H 388.068 0.891145 -5.44759 0
M  V30 3940 H 390.544 1.80295 -3.7501 0
M  V30 3941 H 389.42 2.77084 -4.73831 0
M  V30 3942 H 389.681 3.19643 -3.05419 0
M  V30 3943 N 388.74 1.54641 0.303973 0
M  V30 3944 C 389.968 1.77768 1.05858 0
M  V30 3945 C 390.383 0.535722 1.8104 0
M  V30 3946 O 389.74 -0.494337 1.75677 0
M  V30 3947 C 389.791 2.9834 2.04146 0
M  V30 3948 O 389.512 4.17736 1.32015 0
M  V30 3949 C 391.013 3.33832 2.91669 0
M  V30 3950 H 388.233 0.592961 0.314067 0
M  V30 3951 H 390.777 2.01583 0.344149 0
M  V30 3952 H 388.932 2.76742 2.71096 0
M  V30 3953 H 389.346 4.85693 1.97998 0
M  V30 3954 H 390.82 4.21448 3.56491 0
M  V30 3955 H 391.297 2.51857 3.59812 0
M  V30 3956 H 391.903 3.57579 2.30254 0
M  V30 3957 N 390.218 -0.567019 1.47046 0
M  V30 3958 C 391.629 -1.14916 1.47143 0
M  V30 3959 C 391.98 -1.94954 0.220767 0
M  V30 3960 O 391.105 -2.05602 -0.67505 0
M  V30 3961 C 391.7 -2.09069 2.666 0
M  V30 3962 C 390.259 -2.62575 2.69687 0
M  V30 3963 C 389.406 -1.38755 2.40088 0
M  V30 3964 H 392.357 -0.354126 1.54699 0
M  V30 3965 H 392.378 -2.92789 2.43011 0
M  V30 3966 H 391.89 -1.50789 3.57609 0
M  V30 3967 H 389.991 -3.24681 1.82792 0
M  V30 3968 H 390.104 -3.04239 3.70102 0
M  V30 3969 H 388.468 -1.69098 1.90468 0
M  V30 3970 H 389.251 -0.822822 3.33293 0
M  V30 3971 N 391.696 -1.35014 -0.812953 0
M  V30 3972 C 392.973 -1.18502 -1.55617 0
M  V30 3973 C 393.353 0.238421 -2.09749 0
M  V30 3974 O 392.701 1.2411 -1.91857 0
M  V30 3975 C 392.911 -2.24783 -2.66971 0
M  V30 3976 C 394.259 -2.60268 -3.35478 0
M  V30 3977 O 395.283 -2.23648 -2.77236 0
M  V30 3978 O 394.142 -3.2321 -4.40678 0
M  V30 3979 H 391.236 -0.459984 -0.687272 0
M  V30 3980 H 393.782 -1.46677 -0.853464 0
M  V30 3981 H 392.554 -3.20284 -2.24798 0
M  V30 3982 H 392.177 -1.97841 -3.44884 0
M  V30 3983 N 393.175 1.03435 -1.18907 0
M  V30 3984 C 394.424 1.76143 -0.982669 0
M  V30 3985 C 394.737 1.89416 0.487953 0
M  V30 3986 O 395.943 2.59041 0.813036 0
M  V30 3987 C 394.399 3.16722 -1.70924 0
M  V30 3988 C 394.007 3.11522 -3.21959 0
M  V30 3989 C 395.751 3.93764 -1.58588 0
M  V30 3990 C 393.658 4.46999 -3.87228 0
M  V30 3991 H 392.588 0.660292 -0.364047 0
M  V30 3992 H 395.239 1.158 -1.42347 0
M  V30 3993 H 393.621 3.775 -1.19623 0
M  V30 3994 H 394.795 2.60158 -3.80335 0
M  V30 3995 H 393.11 2.47978 -3.34508 0
M  V30 3996 H 395.707 4.93963 -2.04707 0
M  V30 3997 H 396.05 4.12794 -0.539142 0
M  V30 3998 H 396.583 3.39576 -2.07203 0
M  V30 3999 H 393.322 4.33174 -4.91976 0
M  V30 4000 H 392.842 4.98441 -3.33642 0
M  V30 4001 H 394.521 5.15898 -3.90459 0
M  V30 4002 N 394.653 0.992116 1.22453 0
M  V30 4003 C 395.583 0.561677 2.26644 0
M  V30 4004 C 396.564 -0.411055 1.65059 0
M  V30 4005 O 397.749 -0.301861 1.9184 0
M  V30 4006 C 394.879 -0.125247 3.47074 0
M  V30 4007 C 393.833 0.765948 4.21091 0
M  V30 4008 C 393.159 -0.0538484 5.34673 0
M  V30 4009 C 394.459 2.06242 4.79856 0
M  V30 4010 H 396.153 1.43259 2.62902 0
M  V30 4011 H 393.699 0.690283 1.26377 0
M  V30 4012 H 395.652 -0.437764 4.1912 0
M  V30 4013 H 394.376 -1.03069 3.0991 0
M  V30 4014 H 393.035 1.0621 3.50878 0
M  V30 4015 H 392.683 -0.960188 4.9375 0
M  V30 4016 H 392.383 0.539415 5.85119 0
M  V30 4017 H 393.907 -0.360477 6.09535 0
M  V30 4018 H 395.321 1.8139 5.43848 0
M  V30 4019 H 393.718 2.60444 5.40638 0
M  V30 4020 H 394.788 2.74167 3.99951 0
M  V30 4021 N 396.131 -1.37776 0.765217 0
M  V30 4022 C 397.359 -2.04124 0.337767 0
M  V30 4023 C 397.774 -1.57715 -1.03785 0
M  V30 4024 O 397.131 -0.755447 -1.6613 0
M  V30 4025 C 397.182 -3.59658 0.364442 0
M  V30 4026 O 396.903 -4.04367 1.68579 0
M  V30 4027 C 398.404 -4.43236 -0.0754221 0
M  V30 4028 H 395.624 -0.655696 0.142491 0
M  V30 4029 H 398.168 -1.76238 1.03732 0
M  V30 4030 H 396.323 -3.86339 -0.286471 0
M  V30 4031 H 396.737 -4.98857 1.61993 0
M  V30 4032 H 398.211 -5.52 -0.00560067 0
M  V30 4033 H 398.688 -4.2455 -1.12491 0
M  V30 4034 H 399.294 -4.21767 0.547055 0
M  V30 4035 N 397.609 -0.515225 -1.4894 0
M  V30 4036 C 398.539 0.244628 -2.32215 0
M  V30 4037 C 399.52 0.949136 -1.41157 0
M  V30 4038 O 400.705 0.937783 -1.70057 0
M  V30 4039 C 397.835 1.30096 -3.22013 0
M  V30 4040 C 396.789 0.715486 -4.21977 0
M  V30 4041 C 396.115 1.87339 -5.00808 0
M  V30 4042 C 397.415 -0.302982 -5.2142 0
M  V30 4043 H 399.109 -0.450501 -2.95991 0
M  V30 4044 H 396.655 -0.218098 -1.42339 0
M  V30 4045 H 398.608 1.84037 -3.79089 0
M  V30 4046 H 397.332 2.02547 -2.56207 0
M  V30 4047 H 395.991 0.197715 -3.66066 0
M  V30 4048 H 395.639 2.58592 -4.31438 0
M  V30 4049 H 395.339 1.48764 -5.68457 0
M  V30 4050 H 396.863 2.41686 -5.60732 0
M  V30 4051 H 398.277 0.148802 -5.73107 0
M  V30 4052 H 396.674 -0.60532 -5.97039 0
M  V30 4053 H 397.744 -1.21395 -4.69459 0
M  V30 4054 N 399.087 1.5561 -0.249682 0
M  V30 4055 C 400.312 2.03865 0.381305 0
M  V30 4056 C 400.737 1.12769 1.50548 0
M  V30 4057 O 400.095 0.121189 1.80895 0
M  V30 4058 C 400.143 3.50101 0.863816 0
M  V30 4059 O 399.247 3.62132 1.97318 0
M  V30 4060 H 398.588 0.658827 0.0827194 0
M  V30 4061 H 401.118 2.01105 -0.376552 0
M  V30 4062 H 401.128 3.90975 1.1663 0
M  V30 4063 H 399.803 4.1588 0.0411816 0
M  V30 4064 H 398.38 3.33155 1.67517 0
M  V30 4065 N 400.565 -0.0233959 1.57583 0
M  V30 4066 C 401.512 -1.02224 2.06927 0
M  V30 4067 C 402.482 -1.35575 0.959617 0
M  V30 4068 O 403.667 -1.45815 1.23055 0
M  V30 4069 C 400.807 -2.31636 2.5581 0
M  V30 4070 C 399.92 -2.04394 3.80588 0
M  V30 4071 C 399.055 -3.27717 4.18061 0
M  V30 4072 C 398.094 -2.96056 5.3574 0
M  V30 4073 N 397.231 -4.11847 5.68618 0
M  V30 4074 H 402.071 -0.594504 2.9201 0
M  V30 4075 H 399.608 -0.281921 1.44373 0
M  V30 4076 H 401.566 -3.07258 2.82221 0
M  V30 4077 H 400.196 -2.72122 1.73636 0
M  V30 4078 H 399.248 -1.19244 3.61227 0
M  V30 4079 H 400.56 -1.77042 4.66323 0
M  V30 4080 H 399.714 -4.11702 4.4563 0
M  V30 4081 H 398.453 -3.58188 3.30988 0
M  V30 4082 H 397.458 -2.10474 5.07918 0
M  V30 4083 H 398.683 -2.66857 6.24471 0
M  V30 4084 H 396.629 -4.42258 4.84504 0
M  V30 4085 H 396.546 -3.87938 6.48876 0
M  V30 4086 H 397.814 -4.96689 6.00766 0
M  V30 4087 N 402.043 -1.548 -0.295768 0
M  V30 4088 C 403.271 -1.78327 -1.04914 0
M  V30 4089 C 403.686 -0.545316 -1.80753 0
M  V30 4090 O 403.043 0.485013 -1.75937 0
M  V30 4091 C 403.094 -2.99418 -2.02561 0
M  V30 4092 O 402.815 -4.18431 -1.29798 0
M  V30 4093 C 404.316 -3.35375 -2.89895 0
M  V30 4094 H 401.536 -0.594618 -0.310918 0
M  V30 4095 H 404.08 -2.01763 -0.333454 0
M  V30 4096 H 402.235 -2.78175 -2.69624 0
M  V30 4097 H 402.649 -4.86736 -1.95419 0
M  V30 4098 H 404.123 -4.23332 -3.54251 0
M  V30 4099 H 404.6 -2.53761 -3.58472 0
M  V30 4100 H 405.206 -3.58796 -2.28355 0
M  V30 4101 N 403.521 0.559213 -1.47345 0
M  V30 4102 C 404.451 1.67622 -1.62558 0
M  V30 4103 C 405.432 1.63331 -0.475087 0
M  V30 4104 O 406.617 1.80983 -0.704182 0
M  V30 4105 C 403.747 3.0626 -1.63774 0
M  V30 4106 C 402.701 3.25397 -2.7803 0
M  V30 4107 C 402.027 4.64801 -2.64318 0
M  V30 4108 C 403.327 3.10965 -4.19641 0
M  V30 4109 H 405.021 1.55146 -2.56067 0
M  V30 4110 H 402.567 0.744961 -1.23233 0
M  V30 4111 H 404.52 3.84247 -1.73008 0
M  V30 4112 H 403.244 3.1969 -0.66825 0
M  V30 4113 H 401.903 2.49817 -2.68304 0
M  V30 4114 H 401.551 4.75028 -1.65401 0
M  V30 4115 H 401.251 4.78555 -3.40968 0
M  V30 4116 H 402.775 5.44926 -2.75478 0
M  V30 4117 H 404.189 3.78772 -4.30354 0
M  V30 4118 H 402.586 3.36229 -4.97062 0
M  V30 4119 H 403.656 2.07736 -4.38148 0
M  V30 4120 N 404.999 1.35443 0.805782 0
M  V30 4121 C 406.247 1.28507 1.55982 0
M  V30 4122 C 406.568 -0.140046 1.94496 0
M  V30 4123 O 405.838 -1.07666 1.63661 0
M  V30 4124 H 404.418 0.472676 0.578434 0
M  V30 4125 H 407.08 1.69555 0.961098 0
M  V30 4126 H 406.176 1.90148 2.47488 0
M  V30 4127 N 406.477 -1.02803 1.19454 0
M  V30 4128 C 407.44 -2.09264 0.934955 0
M  V30 4129 C 408.44 -1.60576 -0.0849015 0
M  V30 4130 O 409.63 -1.73554 0.149933 0
M  V30 4131 C 406.762 -3.38482 0.40531 0
M  V30 4132 H 407.955 -2.33726 1.87916 0
M  V30 4133 H 405.508 -1.19426 1.00832 0
M  V30 4134 H 406.243 -3.19689 -0.544899 0
M  V30 4135 H 406.028 -3.75142 1.14065 0
M  V30 4136 H 407.518 -4.16894 0.242806 0
M  V30 4137 N 407.956 -0.998596 -1.21925 0
M  V30 4138 C 409.204 -0.676325 -1.90448 0
M  V30 4139 C 409.525 0.794719 -1.78071 0
M  V30 4140 O 408.795 1.5701 -1.17152 0
M  V30 4141 H 407.375 -0.247165 -0.704925 0
M  V30 4142 H 410.037 -1.26633 -1.48156 0
M  V30 4143 H 409.133 -0.943858 -2.97486 0
M  V30 4144 N 409.434 1.37368 -0.772513 0
M  V30 4145 C 410.364 2.32856 -0.173304 0
M  V30 4146 C 411.345 1.55818 0.682262 0
M  V30 4147 O 412.53 1.84052 0.619566 0
M  V30 4148 C 409.66 3.40048 0.706007 0
M  V30 4149 C 408.614 4.27973 -0.0483144 0
M  V30 4150 C 407.94 5.26184 0.950491 0
M  V30 4151 C 409.24 5.07665 -1.22776 0
M  V30 4152 H 410.934 2.83217 -0.971002 0
M  V30 4153 H 408.48 1.3617 -0.468377 0
M  V30 4154 H 410.433 4.05827 1.13501 0
M  V30 4155 H 409.157 2.88214 1.53623 0
M  V30 4156 H 407.816 3.63726 -0.458107 0
M  V30 4157 H 407.464 4.7063 1.77529 0
M  V30 4158 H 407.164 5.85872 0.450314 0
M  V30 4159 H 408.688 5.94838 1.37842 0
M  V30 4160 H 410.102 5.66578 -0.875366 0
M  V30 4161 H 408.499 5.76681 -1.66007 0
M  V30 4162 H 409.569 4.40294 -2.03149 0
M  V30 4163 N 410.912 0.523116 1.48665 0
M  V30 4164 C 412.323 0.0808997 1.86525 0
M  V30 4165 C 412.674 -1.33975 1.43336 0
M  V30 4166 O 411.799 -2.00221 0.821009 0
M  V30 4167 C 412.394 0.140037 3.3851 0
M  V30 4168 C 410.953 -0.246948 3.75589 0
M  V30 4169 C 410.1 0.502845 2.72703 0
M  V30 4170 H 413.051 0.734736 1.40667 0
M  V30 4171 H 413.072 -0.649945 3.74908 0
M  V30 4172 H 412.584 1.17412 3.69914 0
M  V30 4173 H 410.685 -1.28343 3.49798 0
M  V30 4174 H 410.798 0.0878859 4.79019 0
M  V30 4175 H 409.162 -0.0500581 2.54651 0
M  V30 4176 H 409.945 1.53743 3.0695 0
M  V30 4177 N 412.39 -1.55475 0.257931 0
M  V30 4178 C 413.32 -2.24815 -0.630912 0
M  V30 4179 C 414.301 -1.23224 -1.17259 0
M  V30 4180 O 415.486 -1.51904 -1.20991 0
M  V30 4181 C 412.616 -2.95609 -1.82298 0
M  V30 4182 C 411.57 -4.03982 -1.41359 0
M  V30 4183 C 410.896 -4.6226 -2.68738 0
M  V30 4184 C 412.196 -5.19109 -0.57648 0
M  V30 4185 H 413.89 -2.99354 -0.0526878 0
M  V30 4186 H 411.436 -1.4398 -0.023901 0
M  V30 4187 H 413.389 -3.42822 -2.45054 0
M  V30 4188 H 412.113 -2.18577 -2.42676 0
M  V30 4189 H 410.772 -3.57555 -0.809324 0
M  V30 4190 H 410.42 -3.81915 -3.27338 0
M  V30 4191 H 410.12 -5.35424 -2.42065 0
M  V30 4192 H 411.644 -5.12212 -3.32372 0
M  V30 4193 H 413.058 -5.62479 -1.10861 0
M  V30 4194 H 411.455 -5.98729 -0.405351 0
M  V30 4195 H 412.525 -4.83174 0.408776 0
M  V30 4196 N 413.868 0.0150385 -1.57593 0
M  V30 4197 C 414.831 0.995996 -2.06428 0
M  V30 4198 C 415.831 1.2818 -0.970903 0
M  V30 4199 O 417.021 1.22949 -1.23406 0
M  V30 4200 C 414.153 2.32506 -2.49307 0
M  V30 4201 H 415.346 0.573873 -2.94358 0
M  V30 4202 H 412.899 0.262186 -1.54085 0
M  V30 4203 H 413.634 2.79438 -1.64575 0
M  V30 4204 H 413.419 2.13087 -3.29145 0
M  V30 4205 H 414.909 3.02906 -2.87468 0
M  V30 4206 N 415.346 1.54954 0.287554 0
M  V30 4207 C 416.309 1.86076 1.33823 0
M  V30 4208 C 417.309 0.734414 1.43049 0
M  V30 4209 O 418.499 1.00266 1.42452 0
M  V30 4210 C 415.631 2.05305 2.72144 0
M  V30 4211 H 416.824 2.79984 1.07465 0
M  V30 4212 H 414.377 1.47223 0.524902 0
M  V30 4213 H 415.112 1.1373 3.03704 0
M  V30 4214 H 414.897 2.873 2.66836 0
M  V30 4215 H 416.387 2.30706 3.48087 0
M  V30 4216 N 416.824 -0.551391 1.4764 0
M  V30 4217 C 418.073 -1.30467 1.53822 0
M  V30 4218 C 418.386 -1.94495 0.207661 0
M  V30 4219 O 419.592 -2.71099 0.147533 0
M  V30 4220 C 418.048 -2.36616 2.71184 0
M  V30 4221 C 417.656 -1.78754 4.10793 0
M  V30 4222 C 419.4 -3.13088 2.86663 0
M  V30 4223 C 417.307 -2.82717 5.19447 0
M  V30 4224 H 416.237 -0.490584 0.572576 0
M  V30 4225 H 418.888 -0.58494 1.73927 0
M  V30 4226 H 417.27 -3.11529 2.4447 0
M  V30 4227 H 418.444 -1.10173 4.47435 0
M  V30 4228 H 416.759 -1.14846 4.00249 0
M  V30 4229 H 419.356 -3.90736 3.65007 0
M  V30 4230 H 419.699 -3.67635 1.95321 0
M  V30 4231 H 420.232 -2.45288 3.13175 0
M  V30 4232 H 416.971 -2.33018 6.12685 0
M  V30 4233 H 416.491 -3.4969 4.87316 0
M  V30 4234 H 418.17 -3.46102 5.46646 0
M  V30 4235 N 418.302 -1.35869 -0.798587 0
M  V30 4236 C 419.548 -1.2978 -1.55836 0
M  V30 4237 C 419.881 0.125322 -1.93795 0
M  V30 4238 O 419.156 1.07658 -1.61987 0
M  V30 4239 C 419.439 -2.21188 -2.84162 0
M  V30 4240 C 419.292 -3.72155 -2.52628 0
M  V30 4241 C 420.611 -2.11545 -3.85923 0
M  V30 4242 H 417.73 -0.472769 -0.565383 0
M  V30 4243 H 420.372 -1.66341 -0.918192 0
M  V30 4244 H 418.522 -1.90139 -3.38791 0
M  V30 4245 H 420.194 -4.13682 -2.04121 0
M  V30 4246 H 418.437 -3.92042 -1.85704 0
M  V30 4247 H 419.108 -4.31511 -3.44242 0
M  V30 4248 H 421.584 -2.38855 -3.40716 0
M  V30 4249 H 420.46 -2.77688 -4.73477 0
M  V30 4250 H 420.721 -1.09987 -4.282 0
M  V30 4251 N 419.78 1.02168 -1.19998 0
M  V30 4252 C 421.008 1.79296 -1.03249 0
M  V30 4253 C 421.423 1.84103 0.418502 0
M  V30 4254 O 420.78 1.29031 1.29063 0
M  V30 4255 C 420.831 3.24007 -1.60319 0
M  V30 4256 O 420.552 3.19512 -2.99739 0
M  V30 4257 C 422.053 4.17704 -1.48453 0
M  V30 4258 H 419.273 0.564016 -0.363493 0
M  V30 4259 H 421.817 1.28639 -1.58973 0
M  V30 4260 H 419.972 3.7183 -1.08727 0
M  V30 4261 H 420.386 4.10306 -3.26725 0
M  V30 4262 H 421.86 5.17104 -1.93153 0
M  V30 4263 H 422.337 4.37029 -0.436193 0
M  V30 4264 H 422.943 3.7576 -1.99211 0
M  V30 4265 N 421.258 1.00505 1.21394 0
M  V30 4266 C 422.483 0.706367 1.95001 0
M  V30 4267 C 422.908 -0.72463 1.73582 0
M  V30 4268 O 422.266 -1.49702 1.0227 0
M  V30 4269 C 422.314 1.03299 3.45487 0
M  V30 4270 O 421.418 0.138275 4.12168 0
M  V30 4271 H 420.759 0.263175 0.609619 0
M  V30 4272 H 423.289 1.34531 1.54151 0
M  V30 4273 H 423.299 0.979872 3.96059 0
M  V30 4274 H 421.974 2.07567 3.60401 0
M  V30 4275 H 420.551 0.247928 3.72075 0
M  V30 4276 N 422.737 -1.36956 0.779787 0
M  V30 4277 C 423.7 -2.2851 0.177662 0
M  V30 4278 C 424.7 -1.48393 -0.619377 0
M  V30 4279 O 425.89 -1.68505 -0.441785 0
M  V30 4280 C 423.022 -3.32428 -0.755279 0
M  V30 4281 H 424.215 -2.83269 0.984823 0
M  V30 4282 H 421.768 -1.46358 0.548544 0
M  V30 4283 H 422.503 -2.82808 -1.58714 0
M  V30 4284 H 422.288 -3.91659 -0.185817 0
M  V30 4285 H 423.778 -4.00824 -1.17174 0
M  V30 4286 N 424.215 -0.530993 -1.48385 0
M  V30 4287 C 425.178 0.220497 -2.28137 0
M  V30 4288 C 426.178 0.866851 -1.35434 0
M  V30 4289 O 427.368 0.726746 -1.58316 0
M  V30 4290 C 424.5 1.31921 -3.1434 0
M  V30 4291 H 425.693 -0.479714 -2.96038 0
M  V30 4292 H 423.246 -0.286968 -1.53643 0
M  V30 4293 H 423.981 2.05264 -2.51072 0
M  V30 4294 H 423.766 0.86085 -3.82533 0
M  V30 4295 H 425.256 1.84776 -3.74497 0
M  V30 4296 N 425.693 1.55336 -0.266172 0
M  V30 4297 C 426.942 1.98574 0.353749 0
M  V30 4298 C 427.255 1.15789 1.57646 0
M  V30 4299 O 428.461 1.49129 2.26876 0
M  V30 4300 C 426.917 3.53403 0.680747 0
M  V30 4301 C 426.525 4.44953 -0.52165 0
M  V30 4302 C 428.269 4.05251 1.26379 0
M  V30 4303 C 426.176 5.91156 -0.169736 0
M  V30 4304 H 425.106 0.741643 0.135949 0
M  V30 4305 H 427.757 1.79743 -0.369421 0
M  V30 4306 H 426.139 3.68001 1.46257 0
M  V30 4307 H 427.313 4.42121 -1.29869 0
M  V30 4308 H 425.628 4.03691 -1.02093 0
M  V30 4309 H 428.225 5.12021 1.54074 0
M  V30 4310 H 428.568 3.53749 2.19471 0
M  V30 4311 H 429.101 3.94057 0.544447 0
M  V30 4312 H 425.84 6.46736 -1.0683 0
M  V30 4313 H 425.36 5.97079 0.570717 0
M  V30 4314 H 427.039 6.4655 0.241245 0
M  V30 4315 N 427.171 -0.0066808 1.57599 0
M  V30 4316 C 428.081 -1.01671 2.11424 0
M  V30 4317 C 429.097 -1.38143 1.05795 0
M  V30 4318 O 430.273 -1.47011 1.37658 0
M  V30 4319 C 427.338 -2.29192 2.60139 0
M  V30 4320 C 426.399 -1.99094 3.80342 0
M  V30 4321 C 425.632 -3.20535 4.26724 0
M  V30 4322 O 425.855 -4.3199 3.72479 0
M  V30 4323 O 424.789 -3.04924 5.18946 0
M  V30 4324 H 428.615 -0.589181 2.9793 0
M  V30 4325 H 426.2 -0.225091 1.47695 0
M  V30 4326 H 428.082 -3.0412 2.917 0
M  V30 4327 H 426.757 -2.71195 1.76733 0
M  V30 4328 H 425.664 -1.21663 3.53764 0
M  V30 4329 H 426.997 -1.61931 4.648 0
M  V30 4330 N 428.649 -1.55105 -0.279332 0
M  V30 4331 C 429.559 -1.90638 -1.36727 0
M  V30 4332 C 430.575 -0.802899 -1.54368 0
M  V30 4333 O 431.751 -1.10138 -1.68616 0
M  V30 4334 C 428.816 -2.16547 -2.70755 0
M  V30 4335 C 427.877 -3.40146 -2.61915 0
M  V30 4336 C 427.11 -3.6481 -3.8955 0
M  V30 4337 O 427.333 -2.92095 -4.89935 0
M  V30 4338 O 426.267 -4.58343 -3.90135 0
M  V30 4339 H 430.093 -2.83237 -1.09591 0
M  V30 4340 H 427.678 -1.4157 -0.477306 0
M  V30 4341 H 429.56 -2.34665 -3.50014 0
M  V30 4342 H 428.235 -1.27131 -2.9769 0
M  V30 4343 H 427.142 -3.2737 -1.81052 0
M  V30 4344 H 428.475 -4.29761 -2.3993 0
M  V30 4345 N 430.127 0.543554 -1.4793 0
M  V30 4346 C 431.543 0.870806 -1.3375 0
M  V30 4347 C 431.743 1.9864 -0.338261 0
M  V30 4348 O 430.799 2.51305 0.245371 0
M  V30 4349 C 432.112 1.25114 -2.73435 0
M  V30 4350 C 433.66 1.3618 -2.81823 0
M  V30 4351 C 434.135 1.77563 -4.22179 0
M  V30 4352 N 435.626 1.8469 -4.24787 0
M  V30 4353 C 436.361 2.18067 -5.30315 0
M  V30 4354 N 435.857 2.49963 -6.46135 0
M  V30 4355 N 437.65 2.18958 -5.17701 0
M  V30 4356 H 429.801 -0.19275 -2.11524 0
M  V30 4357 H 432.064 -0.0235777 -0.947707 0
M  V30 4358 H 431.77 0.50514 -3.48053 0
M  V30 4359 H 431.644 2.20431 -3.06088 0
M  V30 4360 H 434.031 2.09859 -2.07468 0
M  V30 4361 H 434.112 0.390169 -2.52807 0
M  V30 4362 H 433.756 1.04449 -4.97044 0
M  V30 4363 H 433.686 2.75753 -4.48629 0
M  V30 4364 H 436.177 1.62372 -3.41239 0
M  V30 4365 H 436.49 2.74497 -7.22406 0
M  V30 4366 H 434.835 2.47513 -6.49432 0
M  V30 4367 H 438.026 1.93488 -4.2624 0
M  V30 4368 H 438.199 2.44639 -6.00047 0
M  V30 4369 N 431.605 1.3629 0.791371 0
M  V30 4370 C 432.568 1.30309 1.88553 0
M  V30 4371 C 433.568 0.211204 1.59407 0
M  V30 4372 O 434.758 0.465865 1.67855 0
M  V30 4373 C 431.89 1.01956 3.25297 0
M  V30 4374 H 433.083 2.27614 1.95273 0
M  V30 4375 H 430.636 1.21035 0.988953 0
M  V30 4376 H 431.371 0.050998 3.2426 0
M  V30 4377 H 431.156 1.80968 3.4784 0
M  V30 4378 H 432.646 1.0037 4.05359 0
M  V30 4379 N 433.083 -1.0153 1.20538 0
M  V30 4380 C 434.033 -2.08482 0.922991 0
M  V30 4381 C 435.017 -1.60469 -0.117702 0
M  V30 4382 O 436.209 -1.76772 0.0898465 0
M  V30 4383 C 433.338 -3.39952 0.478312 0
M  V30 4384 C 432.424 -3.94662 1.5525 0
M  V30 4385 N 432.815 -4.22866 2.77521 0
M  V30 4386 C 431.113 -4.22825 1.41897 0
M  V30 4387 C 431.814 -4.67002 3.4682 0
M  V30 4388 N 430.79 -4.69356 2.74237 0
M  V30 4389 H 434.592 -2.28199 1.85209 0
M  V30 4390 H 432.106 -1.19512 1.09957 0
M  V30 4391 H 434.103 -4.16105 0.257408 0
M  V30 4392 H 432.763 -3.21648 -0.444148 0
M  V30 4393 H 433.774 -4.11732 3.1416 0
M  V30 4394 H 430.451 -4.13714 0.561015 0
M  V30 4395 H 431.841 -4.97632 4.51455 0
M  V30 4396 N 434.561 -1.01147 -1.20859 0
M  V30 4397 C 435.471 -0.58686 -2.27141 0
M  V30 4398 C 436.487 0.373198 -1.69951 0
M  V30 4399 O 437.663 0.235423 -2.00019 0
M  V30 4400 C 434.728 0.0733602 -3.46622 0
M  V30 4401 C 433.789 -0.931995 -4.19061 0
M  V30 4402 C 433.022 -0.303186 -5.32838 0
M  V30 4403 O 433.245 0.898395 -5.63281 0
M  V30 4404 O 432.179 -1.01735 -5.9324 0
M  V30 4405 H 436.005 -1.47155 -2.65667 0
M  V30 4406 H 433.59 -0.780689 -1.2738 0
M  V30 4407 H 435.472 0.442333 -4.19072 0
M  V30 4408 H 434.147 0.932329 -3.09983 0
M  V30 4409 H 433.054 -1.35224 -3.48805 0
M  V30 4410 H 434.387 -1.76076 -4.59628 0
M  V30 4411 N 436.039 1.36541 -0.78704 0
M  V30 4412 C 436.969 2.32659 -0.197992 0
M  V30 4413 C 437.95 1.56533 0.665697 0
M  V30 4414 O 439.135 1.84698 0.60001 0
M  V30 4415 C 436.265 3.40778 0.669901 0
M  V30 4416 C 435.219 4.27897 -0.0937039 0
M  V30 4417 C 434.545 5.27163 0.894629 0
M  V30 4418 C 435.845 5.06334 -1.28154 0
M  V30 4419 H 437.539 2.82171 -1.00099 0
M  V30 4420 H 435.085 1.35665 -0.482793 0
M  V30 4421 H 437.038 4.07008 1.09191 0
M  V30 4422 H 435.762 2.89827 1.50558 0
M  V30 4423 H 434.421 3.6322 -0.49666 0
M  V30 4424 H 434.069 4.72486 1.72527 0
M  V30 4425 H 433.769 5.86317 0.388149 0
M  V30 4426 H 435.293 5.96266 1.31525 0
M  V30 4427 H 436.707 5.65617 -0.93541 0
M  V30 4428 H 435.104 5.74888 -1.72115 0
M  V30 4429 H 436.174 4.38114 -2.07807 0
M  V30 4430 N 437.518 0.538854 1.48102 0
M  V30 4431 C 438.766 0.00798599 2.02098 0
M  V30 4432 C 439.087 -1.33922 1.41739 0
M  V30 4433 O 438.357 -1.86932 0.585934 0
M  V30 4434 H 436.937 -3.62179e-05 0.747 0
M  V30 4435 H 439.599 0.7047 1.81714 0
M  V30 4436 H 438.695 -0.0937672 3.11959 0
M  V30 4437 N 438.996 -1.55193 0.274407 0
M  V30 4438 C 440.226 -2.03692 -0.345442 0
M  V30 4439 C 440.634 -1.15224 -1.50067 0
M  V30 4440 O 439.977 -0.164749 -1.8296 0
M  V30 4441 C 440.039 -3.48325 -0.88939 0
M  V30 4442 C 439.703 -4.56794 0.137115 0
M  V30 4443 C 440.7 -5.11028 0.956378 0
M  V30 4444 C 438.385 -5.01568 0.27115 0
M  V30 4445 C 440.379 -6.08552 1.89587 0
M  V30 4446 C 438.066 -5.98918 1.21412 0
M  V30 4447 C 439.064 -6.52291 2.02498 0
M  V30 4448 O 438.752 -7.47738 2.952 0
M  V30 4449 H 438.484 -0.670893 -0.0829332 0
M  V30 4450 H 441.038 -2.01387 0.404056 0
M  V30 4451 H 439.268 -3.47867 -1.68895 0
M  V30 4452 H 440.957 -3.80167 -1.42225 0
M  V30 4453 H 441.723 -4.7725 0.863559 0
M  V30 4454 H 437.602 -4.5967 -0.349987 0
M  V30 4455 H 441.146 -6.50137 2.52918 0
M  V30 4456 H 437.043 -6.32114 1.30776 0
M  V30 4457 H 437.811 -7.65451 2.89874 0
M  V30 4458 N 440.474 -0.00167713 -1.576 0
M  V30 4459 C 441.404 0.988091 -2.11563 0
M  V30 4460 C 442.385 1.35736 -1.02517 0
M  V30 4461 O 443.57 1.44082 -1.30208 0
M  V30 4462 C 440.7 2.27941 -2.62031 0
M  V30 4463 C 439.654 2.0517 -3.75619 0
M  V30 4464 C 438.98 3.4033 -4.12407 0
M  V30 4465 C 440.28 1.41294 -5.02825 0
M  V30 4466 H 441.974 0.538771 -2.94513 0
M  V30 4467 H 439.52 0.257712 -1.41675 0
M  V30 4468 H 441.473 2.97539 -2.9841 0
M  V30 4469 H 440.197 2.74989 -1.76205 0
M  V30 4470 H 438.856 1.37998 -3.39635 0
M  V30 4471 H 438.504 3.85085 -3.23603 0
M  V30 4472 H 438.204 3.25909 -4.88935 0
M  V30 4473 H 439.728 4.1124 -4.51347 0
M  V30 4474 H 441.142 2.00851 -5.36965 0
M  V30 4475 H 439.539 1.37356 -5.84169 0
M  V30 4476 H 440.609 0.382362 -4.8339 0
M  V30 4477 N 441.952 1.55251 0.271103 0
M  V30 4478 C 443.199 1.75946 1.00245 0
M  V30 4479 C 443.527 0.561611 1.86215 0
M  V30 4480 O 442.782 -0.455832 1.90317 0
M  V30 4481 C 443.081 3.01879 1.91321 0
M  V30 4482 C 442.747 4.34337 1.21086 0
M  V30 4483 C 441.409 4.70338 1.01666 0
M  V30 4484 C 443.761 5.16325 0.71119 0
M  V30 4485 C 441.089 5.8588 0.310099 0
M  V30 4486 C 443.441 6.32597 0.0182157 0
M  V30 4487 C 442.105 6.67236 -0.18768 0
M  V30 4488 H 441.375 0.643833 0.366824 0
M  V30 4489 H 444.022 1.89521 0.27458 0
M  V30 4490 H 442.327 2.83212 2.70736 0
M  V30 4491 H 444.024 3.15088 2.48033 0
M  V30 4492 H 440.614 4.06043 1.37213 0
M  V30 4493 H 444.798 4.88987 0.848844 0
M  V30 4494 H 440.054 6.1124 0.139873 0
M  V30 4495 H 444.228 6.9538 -0.376711 0
M  V30 4496 H 441.855 7.56618 -0.73715 0
M  V30 4497 N 443.43 -0.535701 1.48216 0
M  V30 4498 C 444.66 -1.3148 1.59363 0
M  V30 4499 C 445.068 -1.8753 0.250844 0
M  V30 4500 O 444.411 -1.66821 -0.769174 0
M  V30 4501 C 444.473 -2.50731 2.57632 0
M  V30 4502 C 444.137 -2.15811 4.02833 0
M  V30 4503 C 445.134 -1.71822 4.90686 0
M  V30 4504 C 442.819 -2.26509 4.48329 0
M  V30 4505 C 444.813 -1.3899 6.22062 0
M  V30 4506 C 442.5 -1.93289 5.79726 0
M  V30 4507 C 443.498 -1.49599 6.66415 0
M  V30 4508 O 443.186 -1.16812 7.95368 0
M  V30 4509 H 442.918 -0.406315 0.540263 0
M  V30 4510 H 445.472 -0.653569 1.94725 0
M  V30 4511 H 443.702 -3.19817 2.1738 0
M  V30 4512 H 445.391 -3.12797 2.58675 0
M  V30 4513 H 446.157 -1.63031 4.56778 0
M  V30 4514 H 442.036 -2.59471 3.81045 0
M  V30 4515 H 445.58 -1.04816 6.89681 0
M  V30 4516 H 441.477 -2.01718 6.13172 0
M  V30 4517 H 442.245 -1.30259 8.08069 0
M  V30 4518 N 444.908 -1.36708 -0.784132 0
M  V30 4519 C 446.136 -1.34398 -1.57305 0
M  V30 4520 C 446.551 0.0735577 -1.88657 0
M  V30 4521 O 445.908 1.03193 -1.50524 0
M  V30 4522 C 445.959 -2.17053 -2.89085 0
M  V30 4523 O 445.68 -3.53281 -2.59083 0
M  V30 4524 C 447.181 -2.22583 -3.83369 0
M  V30 4525 H 444.401 -0.460819 -0.487736 0
M  V30 4526 H 446.945 -1.79879 -0.972819 0
M  V30 4527 H 445.1 -1.75113 -3.45564 0
M  V30 4528 H 445.514 -3.9647 -3.43383 0
M  V30 4529 H 446.988 -2.84763 -4.72878 0
M  V30 4530 H 447.465 -1.23075 -4.21603 0
M  V30 4531 H 448.071 -2.64781 -3.32823 0
M  V30 4532 N 446.386 1.0089 -1.21074 0
M  V30 4533 C 447.614 1.78191 -1.05145 0
M  V30 4534 C 448.029 1.84537 0.398952 0
M  V30 4535 O 447.386 1.30393 1.27687 0
M  V30 4536 C 447.437 3.22288 -1.63746 0
M  V30 4537 O 447.158 3.16315 -3.03111 0
M  V30 4538 C 448.659 4.16106 -1.52875 0
M  V30 4539 H 445.879 0.560129 -0.369454 0
M  V30 4540 H 448.423 1.26945 -1.60328 0
M  V30 4541 H 446.578 3.70655 -1.12664 0
M  V30 4542 H 446.992 4.06817 -3.31059 0
M  V30 4543 H 448.466 5.15026 -1.98626 0
M  V30 4544 H 448.943 4.36541 -0.482521 0
M  V30 4545 H 449.549 3.73625 -2.03185 0
M  V30 4546 N 447.864 1.01787 1.20321 0
M  V30 4547 C 448.814 0.559976 2.21016 0
M  V30 4548 C 449.798 -0.385366 1.56217 0
M  V30 4549 O 450.99 -0.208126 1.75772 0
M  V30 4550 C 448.119 -0.0990553 3.43157 0
M  V30 4551 C 447.205 0.86807 4.15121 0
M  V30 4552 N 447.596 2.0261 4.63447 0
M  V30 4553 C 445.894 0.689162 4.40643 0
M  V30 4554 C 446.595 2.63518 5.18588 0
M  V30 4555 N 445.571 1.91569 5.08726 0
M  V30 4556 H 449.373 1.44281 2.56048 0
M  V30 4557 H 446.887 0.883381 1.36272 0
M  V30 4558 H 448.884 -0.444643 4.14522 0
M  V30 4559 H 447.544 -0.977709 3.0963 0
M  V30 4560 H 448.555 2.40598 4.58621 0
M  V30 4561 H 445.232 -0.14133 4.17261 0
M  V30 4562 H 446.622 3.61527 5.66346 0
M  V30 4563 N 449.342 -1.36122 0.79427 0
M  V30 4564 C 450.588 -1.99406 0.369452 0
M  V30 4565 C 450.921 -1.62886 -1.05743 0
M  V30 4566 O 450.196 -0.886053 -1.73145 0
M  V30 4567 C 450.479 -3.56046 0.538833 0
M  V30 4568 C 450.332 -4.02404 2.00976 0
M  V30 4569 C 451.651 -4.40079 -0.0431359 0
M  V30 4570 H 448.77 -0.724397 0.135712 0
M  V30 4571 H 451.412 -1.61461 1.00151 0
M  V30 4572 H 449.562 -3.885 0.000771004 0
M  V30 4573 H 451.234 -3.80415 2.60926 0
M  V30 4574 H 449.477 -3.53765 2.51063 0
M  V30 4575 H 450.148 -5.11344 2.07922 0
M  V30 4576 H 452.624 -4.14013 0.416228 0
M  V30 4577 H 451.5 -5.48799 0.105374 0
M  V30 4578 H 451.761 -4.27264 -1.13571 0
M  V30 4579 N 450.82 -0.546701 -1.47814 0
M  V30 4580 C 452.045 -0.021268 -2.07389 0
M  V30 4581 C 452.47 1.25822 -1.39822 0
M  V30 4582 O 451.828 1.75111 -0.46968 0
M  V30 4583 C 451.876 0.168502 -3.60206 0
M  V30 4584 O 450.98 1.23347 -3.93522 0
M  V30 4585 H 450.321 -0.0466108 -0.662362 0
M  V30 4586 H 452.851 -0.759387 -1.89985 0
M  V30 4587 H 452.861 0.385982 -4.0617 0
M  V30 4588 H 451.536 -0.766075 -4.08784 0
M  V30 4589 H 450.113 0.997319 -3.59316 0
M  V30 4590 N 452.299 1.55045 -0.282633 0
M  V30 4591 C 453.576 1.9179 0.384166 0
M  V30 4592 C 453.956 1.20778 1.73136 0
M  V30 4593 O 453.304 0.33719 2.25998 0
M  V30 4594 C 453.514 3.45149 0.517014 0
M  V30 4595 C 454.862 4.17064 0.796427 0
M  V30 4596 O 455.886 3.51084 0.601535 0
M  V30 4597 O 454.745 5.33837 1.16962 0
M  V30 4598 H 451.839 0.799483 0.211558 0
M  V30 4599 H 454.385 1.66474 -0.32934 0
M  V30 4600 H 453.157 3.88922 -0.430772 0
M  V30 4601 H 452.78 3.76443 1.2797 0
M  V30 4602 N 453.777 0.010035 1.57597 0
M  V30 4603 C 455.188 -0.531426 1.78977 0
M  V30 4604 C 455.539 -1.73375 0.918454 0
M  V30 4605 O 454.664 -2.16047 0.123635 0
M  V30 4606 C 455.259 -0.97086 3.24592 0
M  V30 4607 C 453.818 -1.45756 3.47033 0
M  V30 4608 C 452.965 -0.413384 2.74201 0
M  V30 4609 H 455.916 0.236166 1.56933 0
M  V30 4610 H 455.937 -1.83633 3.33255 0
M  V30 4611 H 455.449 -0.0955893 3.87982 0
M  V30 4612 H 453.55 -2.35339 2.88871 0
M  V30 4613 H 453.663 -1.4781 4.55729 0
M  V30 4614 H 452.027 -0.877266 2.39115 0
M  V30 4615 H 452.81 0.453092 3.40297 0
M  V30 4616 N 455.255 -1.55392 -0.262866 0
M  V30 4617 C 456.185 -1.91978 -1.32917 0
M  V30 4618 C 457.166 -0.7828 -1.51017 0
M  V30 4619 O 458.351 -1.04178 -1.63892 0
M  V30 4620 C 455.481 -2.20055 -2.68687 0
M  V30 4621 C 454.435 -3.35854 -2.65304 0
M  V30 4622 C 453.761 -3.49435 -4.04721 0
M  V30 4623 C 455.061 -4.71977 -2.23685 0
M  V30 4624 H 456.755 -2.81292 -1.02544 0
M  V30 4625 H 454.301 -1.3534 -0.491846 0
M  V30 4626 H 456.254 -2.44237 -3.43404 0
M  V30 4627 H 454.978 -1.27551 -3.00663 0
M  V30 4628 H 453.637 -3.11655 -1.93045 0
M  V30 4629 H 453.285 -2.54379 -4.33936 0
M  V30 4630 H 452.985 -4.27297 -4.0335 0
M  V30 4631 H 454.509 -3.7592 -4.81161 0
M  V30 4632 H 455.923 -4.95637 -2.88127 0
M  V30 4633 H 454.32 -5.52828 -2.33456 0
M  V30 4634 H 455.39 -4.70115 -1.18827 0
M  V30 4635 N 456.733 0.527833 -1.48498 0
M  V30 4636 C 458.144 1.10975 -1.50138 0
M  V30 4637 C 458.495 1.943 -0.272378 0
M  V30 4638 O 457.62 2.07319 0.620301 0
M  V30 4639 C 458.215 2.01927 -2.72049 0
M  V30 4640 C 456.774 2.55332 -2.76554 0
M  V30 4641 C 455.921 1.32341 -2.43683 0
M  V30 4642 H 458.872 0.312986 -1.55583 0
M  V30 4643 H 458.893 2.86244 -2.50689 0
M  V30 4644 H 458.405 1.41254 -3.61481 0
M  V30 4645 H 456.506 3.19721 -1.91336 0
M  V30 4646 H 456.619 2.94319 -3.78038 0
M  V30 4647 H 454.983 1.63989 -1.94884 0
M  V30 4648 H 455.766 0.734165 -3.35358 0
M  V30 4649 N 458.211 1.37122 0.776871 0
M  V30 4650 C 459.174 1.32301 1.8716 0
M  V30 4651 C 460.174 0.228099 1.59174 0
M  V30 4652 O 461.364 0.483642 1.67352 0
M  V30 4653 C 458.496 1.054 3.24197 0
M  V30 4654 H 459.689 2.29673 1.92848 0
M  V30 4655 H 457.242 1.22077 0.97606 0
M  V30 4656 H 457.977 0.0853872 3.24188 0
M  V30 4657 H 457.762 1.84648 3.45901 0
M  V30 4658 H 459.252 1.04664 4.04271 0
M  V30 4659 N 459.689 -1.00246 1.21608 0
M  V30 4660 C 460.652 -2.07233 0.979133 0
M  V30 4661 C 461.652 -1.6072 -0.0508219 0
M  V30 4662 O 462.842 -1.73196 0.186712 0
M  V30 4663 C 459.974 -3.37546 0.477016 0
M  V30 4664 H 461.167 -2.29687 1.92831 0
M  V30 4665 H 458.72 -1.17261 1.03342 0
M  V30 4666 H 459.455 -3.20773 -0.476966 0
M  V30 4667 H 459.24 -3.72638 1.21997 0
M  V30 4668 H 460.73 -4.16285 0.331181 0
M  V30 4669 N 461.167 -1.02423 -1.1978 0
M  V30 4670 C 462.413 -0.719051 -1.89625 0
M  V30 4671 C 462.746 0.750083 -1.7913 0
M  V30 4672 O 462.021 1.54574 -1.18056 0
M  V30 4673 C 462.304 -1.16499 -3.40735 0
M  V30 4674 C 462.157 -2.695 -3.60125 0
M  V30 4675 C 463.476 -0.742166 -4.33797 0
M  V30 4676 H 460.595 -0.26269 -0.688595 0
M  V30 4677 H 463.237 -1.27333 -1.41018 0
M  V30 4678 H 461.387 -0.69341 -3.82262 0
M  V30 4679 H 463.059 -3.24569 -3.278 0
M  V30 4680 H 461.302 -3.10113 -3.03336 0
M  V30 4681 H 461.973 -2.95757 -4.66081 0
M  V30 4682 H 464.449 -1.1477 -3.99959 0
M  V30 4683 H 463.325 -1.08213 -5.38127 0
M  V30 4684 H 463.586 0.355747 -4.40666 0
M  V30 4685 N 462.645 1.35699 -0.801477 0
M  V30 4686 C 463.893 1.9852 -0.37871 0
M  V30 4687 C 464.214 1.63907 1.05638 0
M  V30 4688 O 463.484 0.919013 1.73006 0
M  V30 4689 H 462.064 0.734322 -0.137042 0
M  V30 4690 H 464.726 1.65697 -1.02619 0
M  V30 4691 H 463.822 3.08382 -0.480284 0
M  V30 4692 N 464.123 0.554532 1.47522 0
M  V30 4693 C 465.053 -0.182974 2.32782 0
M  V30 4694 C 466.034 -0.911377 1.43624 0
M  V30 4695 O 467.219 -0.892366 1.72483 0
M  V30 4696 C 464.349 -1.21513 3.25349 0
M  V30 4697 C 463.303 -0.603355 4.23726 0
M  V30 4698 C 462.629 -1.73995 5.05598 0
M  V30 4699 C 463.929 0.441121 5.20434 0
M  V30 4700 H 465.623 0.52882 2.94693 0
M  V30 4701 H 463.169 0.255759 1.41711 0
M  V30 4702 H 465.122 -1.73922 3.83835 0
M  V30 4703 H 463.846 -1.95683 2.61487 0
M  V30 4704 H 462.505 -0.10059 3.66462 0
M  V30 4705 H 462.153 -2.47063 4.38143 0
M  V30 4706 H 461.853 -1.3364 5.72201 0
M  V30 4707 H 463.377 -2.26735 5.66942 0
M  V30 4708 H 464.791 0.00319931 5.733 0
M  V30 4709 H 463.188 0.763402 5.95224 0
M  V30 4710 H 464.258 1.33799 4.66075 0
M  V30 4711 N 465.601 -1.54893 0.290851 0
M  V30 4712 C 467.017 -1.59476 -0.0628432 0
M  V30 4713 C 467.217 -1.30795 -1.5328 0
M  V30 4714 O 466.273 -1.07644 -2.28406 0
M  V30 4715 C 467.586 -2.98928 0.325962 0
M  V30 4716 C 469.134 -3.11799 0.273882 0
M  V30 4717 C 469.609 -4.53544 0.637359 0
M  V30 4718 N 471.1 -4.59433 0.589507 0
M  V30 4719 C 471.835 -5.67164 0.84335 0
M  V30 4720 N 471.331 -6.82975 1.16263 0
M  V30 4721 N 473.124 -5.56786 0.771091 0
M  V30 4722 H 465.275 -1.71798 1.24896 0
M  V30 4723 H 467.538 -0.801879 0.505663 0
M  V30 4724 H 467.244 -3.24805 1.34887 0
M  V30 4725 H 467.118 -3.75793 -0.325441 0
M  V30 4726 H 469.505 -2.85677 -0.739765 0
M  V30 4727 H 469.586 -2.37112 0.959766 0
M  V30 4728 H 469.23 -4.80394 1.64877 0
M  V30 4729 H 469.16 -5.26553 -0.0704866 0
M  V30 4730 H 471.651 -3.76245 0.353252 0
M  V30 4731 H 471.964 -7.61048 1.34257 0
M  V30 4732 H 470.309 -6.84552 1.20057 0
M  V30 4733 H 473.5 -4.65187 0.521383 0
M  V30 4734 H 473.673 -6.40664 0.972295 0
M  V30 4735 N 467.08 -0.0183926 -1.57589 0
M  V30 4736 C 468.326 0.663543 -1.91638 0
M  V30 4737 C 468.659 1.72392 -0.894134 0
M  V30 4738 O 467.934 1.94316 0.0846449 0
M  V30 4739 C 468.217 1.28984 -3.36207 0
M  V30 4740 C 468.07 0.239761 -4.49161 0
M  V30 4741 C 469.389 2.2109 -3.80536 0
M  V30 4742 H 466.508 0.239746 -0.696915 0
M  V30 4743 H 469.15 -0.073456 -1.89858 0
M  V30 4744 H 467.3 1.91799 -3.37854 0
M  V30 4745 H 468.972 -0.390119 -4.59647 0
M  V30 4746 H 467.215 -0.435972 -4.31604 0
M  V30 4747 H 467.886 0.717383 -5.47319 0
M  V30 4748 H 470.362 1.68273 -3.80557 0
M  V30 4749 H 469.238 2.61869 -4.82406 0
M  V30 4750 H 469.499 3.09764 -3.15434 0
M  V30 4751 N 468.558 1.5553 0.254621 0
M  V30 4752 C 469.488 1.9268 1.31897 0
M  V30 4753 C 470.469 0.790797 1.506 0
M  V30 4754 O 471.654 1.05045 1.63337 0
M  V30 4755 C 468.784 2.21477 2.67517 0
M  V30 4756 C 467.738 3.37256 2.63519 0
M  V30 4757 C 467.064 3.51576 4.02862 0
M  V30 4758 C 468.364 4.73157 2.21179 0
M  V30 4759 H 470.058 2.81832 1.01051 0
M  V30 4760 H 467.604 1.35599 0.484662 0
M  V30 4761 H 469.557 2.46055 3.42104 0
M  V30 4762 H 468.281 1.29144 2.99982 0
M  V30 4763 H 466.94 3.12675 1.9139 0
M  V30 4764 H 466.588 2.56676 4.32581 0
M  V30 4765 H 466.288 4.2943 4.01078 0
M  V30 4766 H 467.812 3.78467 4.79161 0
M  V30 4767 H 469.226 4.97158 2.85494 0
M  V30 4768 H 467.623 5.54058 2.30521 0
M  V30 4769 H 468.693 4.70739 1.16332 0
M  V30 4770 N 470.036 -0.519951 1.48776 0
M  V30 4771 C 471.313 -1.28123 1.47797 0
M  V30 4772 C 471.693 -2.10196 0.195157 0
M  V30 4773 O 471.041 -2.13167 -0.822925 0
M  V30 4774 C 471.251 -2.15413 2.74587 0
M  V30 4775 C 472.599 -2.75225 3.23321 0
M  V30 4776 O 473.623 -2.25694 2.75574 0
M  V30 4777 O 472.482 -3.65346 4.06429 0
M  V30 4778 H 469.576 -0.578793 0.590701 0
M  V30 4779 H 472.122 -0.535779 1.6102 0
M  V30 4780 H 470.894 -1.54617 3.59457 0
M  V30 4781 H 470.517 -2.97186 2.64132 0
M  V30 4782 N 471.514 -1.37532 -0.769588 0
M  V30 4783 C 472.76 -1.33057 -1.53048 0
M  V30 4784 C 473.093 0.0841865 -1.94017 0
M  V30 4785 O 472.368 1.04198 -1.64235 0
M  V30 4786 C 472.651 -2.27166 -2.79406 0
M  V30 4787 C 472.504 -3.77429 -2.44677 0
M  V30 4788 C 473.823 -2.19683 -3.81349 0
M  V30 4789 H 470.942 -0.484655 -0.555228 0
M  V30 4790 H 473.584 -1.68251 -0.882702 0
M  V30 4791 H 471.734 -1.97283 -3.34682 0
M  V30 4792 H 473.406 -4.17918 -1.953 0
M  V30 4793 H 471.649 -3.95892 -1.77346 0
M  V30 4794 H 472.32 -4.38716 -3.35011 0
M  V30 4795 H 474.796 -2.46029 -3.35573 0
M  V30 4796 H 473.672 -2.87668 -4.67481 0
M  V30 4797 H 473.933 -1.19045 -4.25771 0
M  V30 4798 N 472.992 0.995999 -1.22138 0
M  V30 4799 C 474.238 1.73767 -1.04561 0
M  V30 4800 C 474.571 1.89633 0.418698 0
M  V30 4801 O 473.846 1.43723 1.3105 0
M  V30 4802 C 474.129 3.14505 -1.75382 0
M  V30 4803 C 473.982 3.06306 -3.29388 0
M  V30 4804 C 475.301 4.13615 -1.50369 0
M  V30 4805 H 472.42 0.630728 -0.38125 0
M  V30 4806 H 475.062 1.16057 -1.50435 0
M  V30 4807 H 473.212 3.63775 -1.36383 0
M  V30 4808 H 474.884 2.64681 -3.77812 0
M  V30 4809 H 473.127 2.43186 -3.59226 0
M  V30 4810 H 473.798 4.05884 -3.74116 0
M  V30 4811 H 476.274 3.73089 -1.84239 0
M  V30 4812 H 475.15 5.10212 -2.02421 0
M  V30 4813 H 475.411 4.39949 -0.435611 0
M  V30 4814 N 474.47 1.03057 1.19235 0
M  V30 4815 C 475.402 0.570932 2.21975 0
M  V30 4816 C 476.415 -0.354088 1.58903 0
M  V30 4817 O 477.604 -0.150211 1.77867 0
M  V30 4818 C 474.704 -0.187152 3.38383 0
M  V30 4819 C 473.877 0.743231 4.31039 0
M  V30 4820 C 472.936 0.0302493 5.26191 0
M  V30 4821 O 471.962 0.657371 5.65391 0
M  V30 4822 N 473.164 -1.23991 5.67104 0
M  V30 4823 H 475.929 1.45456 2.62036 0
M  V30 4824 H 473.49 0.909807 1.33918 0
M  V30 4825 H 475.482 -0.673715 3.99053 0
M  V30 4826 H 474.052 -0.972205 2.97098 0
M  V30 4827 H 473.272 1.40985 3.68126 0
M  V30 4828 H 474.56 1.3755 4.89854 0
M  V30 4829 H 473.958 -1.77011 5.37293 0
M  V30 4830 H 472.515 -1.67093 6.30018 0
M  V30 4831 N 475.948 -1.35272 0.808662 0
M  V30 4832 C 477.364 -1.51806 0.492653 0
M  V30 4833 C 477.564 -1.7574 -0.985778 0
M  V30 4834 O 476.62 -1.80003 -1.77074 0
M  V30 4835 C 477.933 -2.69202 1.33981 0
M  V30 4836 C 479.481 -2.8308 1.33547 0
M  V30 4837 C 479.956 -4.03502 2.16679 0
M  V30 4838 N 481.447 -4.10684 2.14227 0
M  V30 4839 C 482.182 -5.02984 2.75308 0
M  V30 4840 N 481.678 -6.00603 3.45323 0
M  V30 4841 N 483.471 -4.95746 2.64938 0
M  V30 4842 H 475.622 -1.17993 1.76611 0
M  V30 4843 H 477.885 -0.577476 0.751814 0
M  V30 4844 H 477.591 -2.581 2.38909 0
M  V30 4845 H 477.465 -3.63854 0.994491 0
M  V30 4846 H 479.852 -2.93631 0.294036 0
M  V30 4847 H 479.933 -1.89278 1.72068 0
M  V30 4848 H 479.577 -3.93711 3.20864 0
M  V30 4849 H 479.507 -4.96489 1.75517 0
M  V30 4850 H 481.998 -3.40802 1.63285 0
M  V30 4851 H 482.311 -6.67633 3.89212 0
M  V30 4852 H 480.656 -6.0077 3.49428 0
M  V30 4853 H 483.847 -4.18439 2.09825 0
M  V30 4854 H 484.02 -5.67487 3.12829 0
M  V30 4855 N 477.426 -0.562348 -1.47226 0
M  V30 4856 C 478.703 0.0256985 -1.95583 0
M  V30 4857 C 479.083 1.48032 -1.50498 0
M  V30 4858 O 478.431 2.15973 -0.746181 0
M  V30 4859 C 478.641 -0.125129 -3.48776 0
M  V30 4860 C 479.989 0.0175728 -4.24596 0
M  V30 4861 O 481.013 -0.0529341 -3.56161 0
M  V30 4862 O 479.872 0.170145 -5.46235 0
M  V30 4863 H 476.966 0.0612565 -0.824728 0
M  V30 4864 H 479.512 -0.629233 -1.57603 0
M  V30 4865 H 478.284 -1.13715 -3.74412 0
M  V30 4866 H 477.907 0.567178 -3.93534 0
M  V30 4867 N 478.904 1.54736 -0.299062 0
M  V30 4868 C 480.152 1.99706 0.31017 0
M  V30 4869 C 480.473 1.18896 1.54559 0
M  V30 4870 O 479.743 0.284445 1.93824 0
M  V30 4871 H 478.323 0.737686 0.117596 0
M  V30 4872 H 480.985 1.9054 -0.409943 0
M  V30 4873 H 480.081 3.06596 0.58355 0
M  V30 4874 N 480.382 0.0267497 1.57577 0
M  V30 4875 C 481.312 -0.954308 2.13108 0
M  V30 4876 C 482.293 -1.34088 1.04663 0
M  V30 4877 O 483.478 -1.41992 1.32484 0
M  V30 4878 C 480.608 -2.23744 2.65624 0
M  V30 4879 C 479.562 -1.99168 3.78835 0
M  V30 4880 C 478.888 -3.33726 4.17769 0
M  V30 4881 C 480.188 -1.33277 5.0501 0
M  V30 4882 H 481.882 -0.491848 2.95332 0
M  V30 4883 H 479.428 -0.23514 1.42067 0
M  V30 4884 H 481.381 -2.92754 3.03106 0
M  V30 4885 H 480.105 -2.72151 1.80558 0
M  V30 4886 H 478.764 -1.32577 3.41788 0
M  V30 4887 H 478.412 -3.79888 3.29688 0
M  V30 4888 H 478.112 -3.18089 4.94058 0
M  V30 4889 H 479.636 -4.04008 4.57832 0
M  V30 4890 H 481.05 -1.92283 5.40093 0
M  V30 4891 H 479.447 -1.28045 5.8628 0
M  V30 4892 H 480.517 -0.305411 4.83937 0
M  V30 4893 N 481.861 -1.55662 -0.24637 0
M  V30 4894 C 483.107 -1.77782 -0.975779 0
M  V30 4895 C 483.44 -0.592103 -1.84953 0
M  V30 4896 O 482.715 0.409588 -1.90138 0
M  V30 4897 C 482.998 -3.09788 -1.83584 0
M  V30 4898 C 482.851 -4.38764 -0.990241 0
M  V30 4899 C 484.17 -3.38029 -2.81823 0
M  V30 4900 H 481.289 -0.646789 -0.353317 0
M  V30 4901 H 483.931 -1.88398 -0.246248 0
M  V30 4902 H 482.081 -3.00869 -2.45784 0
M  V30 4903 H 483.753 -4.59675 -0.386897 0
M  V30 4904 H 481.996 -4.32798 -0.294626 0
M  V30 4905 H 482.667 -5.27514 -1.62584 0
M  V30 4906 H 485.143 -3.46915 -2.2976 0
M  V30 4907 H 484.019 -4.3161 -3.39122 0
M  V30 4908 H 484.28 -2.58968 -3.58313 0
M  V30 4909 N 483.339 0.512053 -1.4905 0
M  V30 4910 C 484.302 1.59704 -1.64399 0
M  V30 4911 C 485.302 1.52285 -0.516317 0
M  V30 4912 O 486.492 1.55635 -0.782527 0
M  V30 4913 C 483.624 2.9935 -1.63102 0
M  V30 4914 H 484.817 1.47428 -2.61161 0
M  V30 4915 H 482.37 0.735469 -1.37915 0
M  V30 4916 H 483.105 3.17116 -0.678836 0
M  V30 4917 H 482.89 3.06144 -2.44986 0
M  V30 4918 H 484.38 3.782 -1.77072 0
M  V30 4919 N 484.817 1.37938 0.762283 0
M  V30 4920 C 486.233 1.18945 1.06415 0
M  V30 4921 C 486.433 0.0321163 2.01474 0
M  V30 4922 O 485.489 -0.624844 2.44647 0
M  V30 4923 C 486.802 2.51218 1.65258 0
M  V30 4924 C 488.35 2.57824 1.7747 0
M  V30 4925 C 488.825 3.90251 2.39725 0
M  V30 4926 N 490.316 3.91744 2.47166 0
M  V30 4927 C 491.051 4.90966 2.96209 0
M  V30 4928 N 490.547 6.00585 3.45354 0
M  V30 4929 N 492.34 4.78363 2.9517 0
M  V30 4930 H 484.491 2.11994 0.131301 0
M  V30 4931 H 486.754 0.940262 0.120879 0
M  V30 4932 H 486.46 3.36317 1.02878 0
M  V30 4933 H 486.334 2.68989 2.64433 0
M  V30 4934 H 488.721 1.73126 2.3898 0
M  V30 4935 H 488.802 2.43928 0.770241 0
M  V30 4936 H 488.446 4.75368 1.78852 0
M  V30 4937 H 488.376 4.01454 3.40796 0
M  V30 4938 H 490.867 3.12563 2.12397 0
M  V30 4939 H 491.18 6.72236 3.81207 0
M  V30 4940 H 489.525 6.04217 3.43434 0
M  V30 4941 H 492.716 3.91841 2.56082 0
M  V30 4942 H 492.889 5.55843 3.33081 0
M  V30 4943 N 486.295 -0.989507 1.22664 0
M  V30 4944 C 487.258 -2.06183 1.00106 0
M  V30 4945 C 488.258 -1.60765 -0.0337726 0
M  V30 4946 O 489.448 -1.72989 0.205072 0
M  V30 4947 C 486.58 -3.37021 0.51279 0
M  V30 4948 H 487.773 -2.27629 1.95256 0
M  V30 4949 H 485.326 -1.16158 1.0458 0
M  V30 4950 H 486.061 -3.21261 -0.442917 0
M  V30 4951 H 485.846 -3.71323 1.25942 0
M  V30 4952 H 487.336 -4.1591 0.375315 0
M  V30 4953 N 487.773 -1.03688 -1.18687 0
M  V30 4954 C 488.721 -0.618292 -2.24232 0
M  V30 4955 C 489.715 0.353045 -1.6568 0
M  V30 4956 O 490.921 0.220749 -1.78641 0
M  V30 4957 H 487.296 -0.181711 -0.729716 0
M  V30 4958 H 489.267 -1.51893 -2.56848 0
M  V30 4959 C 488.016 0.00677342 -3.47699 0
M  V30 4960 H 487.339 -0.731692 -3.93047 0
M  V30 4961 H 488.779 0.262492 -4.23187 0
M  V30 4962 C 487.238 1.25572 -3.12623 0
M  V30 4963 O 487.768 2.34691 -3.26011 0
M  V30 4964 N 485.974 1.14755 -2.66982 0
M  V30 4965 H 485.521 0.259601 -2.56289 0
M  V30 4966 H 485.479 1.98412 -2.43885 0
M  V30 4967 N 489.251 1.34841 -0.815825 0
M  V30 4968 C 490.497 1.98793 -0.401129 0
M  V30 4969 C 490.83 1.64548 1.03139 0
M  V30 4970 O 490.105 0.913487 1.71714 0
M  V30 4971 C 490.388 3.55143 -0.595409 0
M  V30 4972 C 490.241 3.99155 -2.07352 0
M  V30 4973 C 491.56 4.40092 -0.0268823 0
M  V30 4974 H 488.679 0.722146 -0.14722 0
M  V30 4975 H 491.321 1.59847 -1.02707 0
M  V30 4976 H 489.471 3.8845 -0.0625779 0
M  V30 4977 H 491.143 3.76216 -2.66945 0
M  V30 4978 H 489.386 3.49726 -2.56659 0
M  V30 4979 H 490.057 5.07971 -2.1603 0
M  V30 4980 H 492.533 4.13298 -0.482042 0
M  V30 4981 H 491.409 5.48562 -0.19267 0
M  V30 4982 H 491.67 4.29016 1.06759 0
M  V30 4983 N 490.729 0.570148 1.46925 0
M  V30 4984 C 491.662 -0.218362 2.27153 0
M  V30 4985 C 492.64 -0.90847 1.34854 0
M  V30 4986 O 493.824 -0.924875 1.64251 0
M  V30 4987 C 490.951 -1.3122 3.12248 0
M  V30 4988 C 489.997 -0.729277 4.20219 0
M  V30 4989 S 490.83 0.434159 5.33737 0
M  V30 4990 C 491.986 -0.661188 6.22398 0
M  V30 4991 H 492.219 0.462393 2.93682 0
M  V30 4992 H 489.752 0.356753 1.50222 0
M  V30 4993 H 491.71 -1.93856 3.61842 0
M  V30 4994 H 490.371 -1.96485 2.45056 0
M  V30 4995 H 489.564 -1.5511 4.79538 0
M  V30 4996 H 489.166 -0.178836 3.73572 0
M  V30 4997 H 491.458 -1.55006 6.5953 0
M  V30 4998 H 492.401 -0.105046 7.08022 0
M  V30 4999 H 492.809 -0.959682 5.56283 0
M  V30 5000 N 492.207 -1.54576 0.307264 0
M  V30 5001 C 493.455 -1.99867 -0.299574 0
M  V30 5002 C 493.776 -1.19714 -1.53927 0
M  V30 5003 O 493.046 -0.29472 -1.9367 0
M  V30 5004 H 491.626 -0.738299 -0.113683 0
M  V30 5005 H 494.288 -1.9032 0.420042 0
M  V30 5006 H 493.384 -3.06901 -0.567283 0
M  V30 5007 N 493.685 -0.035106 -1.57561 0
M  V30 5008 C 494.962 0.681212 -1.83354 0
M  V30 5009 C 495.342 1.89986 -0.920252 0
M  V30 5010 O 494.69 2.28489 0.0226815 0
M  V30 5011 C 494.9 1.05376 -3.32712 0
M  V30 5012 C 496.248 1.44286 -3.99333 0
M  V30 5013 O 497.272 1.14656 -3.37242 0
M  V30 5014 O 496.131 1.99518 -5.08778 0
M  V30 5015 H 493.225 0.334741 -0.756226 0
M  V30 5016 H 495.771 -0.0632448 -1.69582 0
M  V30 5017 H 494.543 0.186668 -3.90854 0
M  V30 5018 H 494.166 1.85619 -3.51613 0
M  V30 5019 N 495.163 1.55791 0.238111 0
M  V30 5020 C 496.579 1.48411 0.587045 0
M  V30 5021 C 496.779 0.72702 1.87927 0
M  V30 5022 O 495.835 0.259942 2.51158 0
M  V30 5023 C 497.148 2.92873 0.681623 0
M  V30 5024 C 498.696 3.03295 0.773363 0
M  V30 5025 C 499.171 4.49082 0.899428 0
M  V30 5026 N 500.662 4.53056 0.964075 0
M  V30 5027 C 501.397 5.63117 1.08104 0
M  V30 5028 N 500.893 6.82969 1.16299 0
M  V30 5029 N 502.686 5.50933 1.11488 0
M  V30 5030 H 494.837 2.0345 -0.610076 0
M  V30 5031 H 497.1 0.924034 -0.211813 0
M  V30 5032 H 496.806 3.51142 -0.19802 0
M  V30 5033 H 496.68 3.43851 1.55069 0
M  V30 5034 H 499.067 2.45101 1.64346 0
M  V30 5035 H 499.148 2.55513 -0.121034 0
M  V30 5036 H 498.792 5.07889 0.0338586 0
M  V30 5037 H 498.722 4.94553 1.809 0
M  V30 5038 H 501.213 3.66737 0.91173 0
M  V30 5039 H 501.526 7.62598 1.25155 0
M  V30 5040 H 499.871 6.85712 1.13241 0
M  V30 5041 H 503.062 4.56231 1.0474 0
M  V30 5042 H 503.235 6.36743 1.20259 0
M  V30 5043 N 496.642 -0.504142 1.49319 0
M  V30 5044 C 497.572 -1.61473 1.68667 0
M  V30 5045 C 498.553 -1.61455 0.535378 0
M  V30 5046 O 499.738 -1.78245 0.770868 0
M  V30 5047 C 496.868 -2.99971 1.75028 0
M  V30 5048 C 495.822 -3.14854 2.89916 0
M  V30 5049 C 495.148 -4.54671 2.81387 0
M  V30 5050 C 496.448 -2.95176 4.30893 0
M  V30 5051 H 498.142 -1.45535 2.61648 0
M  V30 5052 H 495.688 -0.698711 1.25913 0
M  V30 5053 H 497.641 -3.77562 1.8715 0
M  V30 5054 H 496.365 -3.1699 0.786441 0
M  V30 5055 H 495.024 -2.39687 2.77391 0
M  V30 5056 H 494.672 -4.68562 1.82917 0
M  V30 5057 H 494.372 -4.6557 3.58494 0
M  V30 5058 H 495.896 -5.34327 2.95512 0
M  V30 5059 H 497.31 -3.62538 4.44116 0
M  V30 5060 H 495.707 -3.17549 5.09198 0
M  V30 5061 H 496.777 -1.91332 4.45556 0
M  V30 5062 N 498.12 -1.38341 -0.754957 0
M  V30 5063 C 499.536 -1.19508 -1.05783 0
M  V30 5064 C 499.736 -0.0428005 -2.01455 0
M  V30 5065 O 498.792 0.611861 -2.44975 0
M  V30 5066 C 500.105 -2.52091 -1.63923 0
M  V30 5067 C 501.653 -2.58762 -1.76101 0
M  V30 5068 C 502.128 -3.91517 -2.37652 0
M  V30 5069 N 503.619 -3.93049 -2.45085 0
M  V30 5070 C 504.354 -4.9253 -2.93602 0
M  V30 5071 N 503.85 -6.02408 -3.42165 0
M  V30 5072 N 505.643 -4.79921 -2.92629 0
M  V30 5073 H 497.794 -2.1206 -0.120056 0
M  V30 5074 H 500.057 -0.94089 -0.11589 0
M  V30 5075 H 499.763 -3.36858 -1.01093 0
M  V30 5076 H 499.637 -2.70388 -2.63003 0
M  V30 5077 H 502.024 -1.74391 -2.38058 0
M  V30 5078 H 502.105 -2.44333 -0.757294 0
M  V30 5079 H 501.749 -4.76309 -1.76329 0
M  V30 5080 H 501.679 -4.03256 -3.38662 0
M  V30 5081 H 504.17 -3.13685 -2.10736 0
M  V30 5082 H 504.483 -6.74248 -3.77637 0
M  V30 5083 H 502.828 -6.0603 -3.40225 0
M  V30 5084 H 506.019 -3.93194 -2.54001 0
M  V30 5085 H 506.192 -5.57601 -3.30128 0
M  V30 5086 N 499.598 0.982988 -1.23187 0
M  V30 5087 C 501.014 1.2487 -0.993967 0
M  V30 5088 C 501.214 1.99155 0.306498 0
M  V30 5089 O 500.27 2.30688 1.0266 0
M  V30 5090 C 501.583 2.05078 -2.19917 0
M  V30 5091 C 503.131 2.18227 -2.2438 0
M  V30 5092 C 503.606 3.01825 -3.44479 0
M  V30 5093 N 505.097 3.09411 -3.44702 0
M  V30 5094 C 505.832 3.74412 -4.34285 0
M  V30 5095 N 505.328 4.41259 -5.341 0
M  V30 5096 N 507.121 3.71273 -4.22035 0
M  V30 5097 H 499.272 0.485253 -2.06783 0
M  V30 5098 H 501.535 0.276979 -0.906635 0
M  V30 5099 H 501.241 1.57867 -3.14279 0
M  V30 5100 H 501.115 3.05829 -2.2079 0
M  V30 5101 H 503.502 2.64648 -1.30559 0
M  V30 5102 H 503.583 1.16873 -2.2754 0
M  V30 5103 H 503.227 2.56102 -4.38605 0
M  V30 5104 H 503.157 4.03342 -3.38559 0
M  V30 5105 H 505.648 2.61845 -2.7248 0
M  V30 5106 H 505.961 4.88629 -5.98717 0
M  V30 5107 H 504.306 4.39975 -5.38002 0
M  V30 5108 H 507.497 3.18217 -3.43301 0
M  V30 5109 H 507.67 4.21649 -4.92053 0
M  V30 5110 N 501.076 1.04316 1.18135 0
M  V30 5111 C 502.324 0.746542 1.87806 0
M  V30 5112 C 502.645 -0.728082 1.80898 0
M  V30 5113 O 501.915 -1.52554 1.22899 0
M  V30 5114 H 500.495 0.273157 0.695265 0
M  V30 5115 H 503.157 1.32044 1.43354 0
M  V30 5116 H 502.253 1.05362 2.93778 0
M  V30 5117 N 502.554 -1.34406 0.822964 0
M  V30 5118 C 503.484 -2.32052 0.259608 0
M  V30 5119 C 504.465 -1.58243 -0.623961 0
M  V30 5120 O 505.65 -1.86224 -0.55083 0
M  V30 5121 C 502.78 -3.42434 -0.579314 0
M  V30 5122 C 501.734 -4.27499 0.20712 0
M  V30 5123 C 501.06 -5.29349 -0.754547 0
M  V30 5124 C 502.36 -5.02758 1.41533 0
M  V30 5125 H 504.054 -2.79418 1.07545 0
M  V30 5126 H 501.6 -1.34338 0.518593 0
M  V30 5127 H 503.553 -4.0976 -0.983612 0
M  V30 5128 H 502.277 -2.93717 -1.4282 0
M  V30 5129 H 500.936 -3.61776 0.592787 0
M  V30 5130 H 500.584 -4.76895 -1.59939 0
M  V30 5131 H 500.284 -5.8714 -0.232561 0
M  V30 5132 H 501.808 -5.99544 -1.1567 0
M  V30 5133 H 503.222 -5.62938 1.08504 0
M  V30 5134 H 501.619 -5.70123 1.87296 0
M  V30 5135 H 502.689 -4.32451 2.1935 0
M  V30 5136 N 504.032 -0.577932 -1.46621 0
M  V30 5137 C 504.962 0.145917 -2.33044 0
M  V30 5138 C 505.943 0.888412 -1.45056 0
M  V30 5139 O 507.128 0.864812 -1.73881 0
M  V30 5140 C 504.258 1.16322 -3.27241 0
M  V30 5141 C 503.212 0.535868 -4.24632 0
M  V30 5142 C 502.538 1.65929 -5.08303 0
M  V30 5143 C 503.838 -0.523861 -5.19666 0
M  V30 5144 H 505.532 -0.575636 -2.93814 0
M  V30 5145 H 503.078 -0.278272 -1.41286 0
M  V30 5146 H 505.031 1.67793 -3.86553 0
M  V30 5147 H 503.755 1.91498 -2.64567 0
M  V30 5148 H 502.414 0.0422759 -3.66576 0
M  V30 5149 H 502.062 2.40061 -4.42018 0
M  V30 5150 H 501.762 1.2452 -5.74255 0
M  V30 5151 H 503.286 2.17686 -5.70478 0
M  V30 5152 H 504.7 -0.0944059 -5.73222 0
M  V30 5153 H 503.097 -0.858 -5.93935 0
M  V30 5154 H 504.167 -1.41197 -4.63887 0
M  V30 5155 N 505.51 1.54411 -0.315457 0
M  V30 5156 C 506.787 1.92562 0.343398 0
M  V30 5157 C 507.167 1.24423 1.70535 0
M  V30 5158 O 506.515 0.385051 2.25232 0
M  V30 5159 C 506.725 3.46168 0.443687 0
M  V30 5160 C 508.073 4.18659 0.707783 0
M  V30 5161 O 509.097 3.52281 0.52693 0
M  V30 5162 O 507.956 5.36198 1.05612 0
M  V30 5163 H 505.05 0.80379 0.194552 0
M  V30 5164 H 507.596 1.65738 -0.364577 0
M  V30 5165 H 506.368 3.8792 -0.513172 0
M  V30 5166 H 505.991 3.79073 1.19956 0
M  V30 5167 N 506.988 0.0434614 1.5754 0
M  V30 5168 C 507.918 -0.931651 2.14109 0
M  V30 5169 C 508.899 -1.32971 1.06079 0
M  V30 5170 O 510.084 -1.40579 1.33982 0
M  V30 5171 C 507.214 -2.20914 2.67982 0
M  V30 5172 C 506.168 -1.95139 3.80926 0
M  V30 5173 C 505.494 -3.29276 4.21285 0
M  V30 5174 C 506.794 -1.27913 5.06395 0
M  V30 5175 H 508.488 -0.460497 2.95837 0
M  V30 5176 H 506.034 -0.220058 1.42309 0
M  V30 5177 H 507.987 -2.89522 3.06194 0
M  V30 5178 H 506.711 -2.70221 1.83434 0
M  V30 5179 H 505.37 -1.28945 3.43175 0
M  V30 5180 H 505.018 -3.76369 3.33699 0
M  V30 5181 H 504.718 -3.12831 4.97404 0
M  V30 5182 H 506.242 -3.99129 4.62091 0
M  V30 5183 H 507.656 -1.86544 5.42102 0
M  V30 5184 H 506.053 -1.2182 5.87605 0
M  V30 5185 H 507.123 -0.254066 4.84234 0
M  V30 5186 N 508.466 -1.55915 -0.229846 0
M  V30 5187 C 509.399 -1.86734 -1.3117 0
M  V30 5188 C 510.377 -0.723947 -1.45595 0
M  V30 5189 O 511.561 -0.971462 -1.61539 0
M  V30 5190 C 508.688 -2.06707 -2.68309 0
M  V30 5191 C 507.734 -3.2938 -2.70944 0
M  V30 5192 S 508.567 -4.85547 -2.25842 0
M  V30 5193 C 509.723 -5.08546 -3.64873 0
M  V30 5194 H 509.956 -2.78204 -1.04832 0
M  V30 5195 H 507.489 -1.48243 -0.431681 0
M  V30 5196 H 509.447 -2.18898 -3.47267 0
M  V30 5197 H 508.108 -1.16049 -2.91876 0
M  V30 5198 H 507.301 -3.40374 -3.71701 0
M  V30 5199 H 506.903 -3.16004 -2.00044 0
M  V30 5200 H 509.195 -4.96935 -4.60502 0
M  V30 5201 H 510.138 -6.10465 -3.58801 0
M  V30 5202 H 510.546 -4.36314 -3.58176 0
M  V30 5203 N 509.944 0.496216 -1.49584 0
M  V30 5204 C 510.854 1.62352 -1.69349 0
M  V30 5205 C 511.87 1.64184 -0.576147 0
M  V30 5206 O 513.046 1.82517 -0.85144 0
M  V30 5207 C 510.111 2.98698 -1.76013 0
M  V30 5208 C 509.172 3.07454 -2.99617 0
M  V30 5209 C 508.405 4.37296 -3.05953 0
M  V30 5210 O 508.628 5.2637 -2.19752 0
M  V30 5211 O 507.562 4.51124 -3.9846 0
M  V30 5212 H 511.388 1.48606 -2.64859 0
M  V30 5213 H 508.973 0.673022 -1.33382 0
M  V30 5214 H 510.855 3.79725 -1.82721 0
M  V30 5215 H 509.53 3.12696 -0.836828 0
M  V30 5216 H 508.437 2.25597 -2.98424 0
M  V30 5217 H 509.77 2.98385 -3.91443 0
M  V30 5218 N 511.423 1.38739 0.74761 0
M  V30 5219 C 512.839 1.20067 1.05148 0
M  V30 5220 C 513.039 0.0534835 2.01429 0
M  V30 5221 O 512.095 -0.59886 2.45296 0
M  V30 5222 C 513.408 2.52957 1.62584 0
M  V30 5223 C 514.956 2.59692 1.74726 0
M  V30 5224 C 515.431 3.92772 2.35573 0
M  V30 5225 N 516.922 3.94343 2.42997 0
M  V30 5226 C 517.657 4.9408 2.90985 0
M  V30 5227 N 517.153 6.04214 3.38965 0
M  V30 5228 N 518.946 4.81466 2.9008 0
M  V30 5229 H 511.097 2.12121 0.108808 0
M  V30 5230 H 513.36 0.941491 0.110899 0
M  V30 5231 H 513.066 3.37389 0.993051 0
M  V30 5232 H 512.94 2.71779 2.61565 0
M  V30 5233 H 515.327 1.75651 2.3713 0
M  V30 5234 H 515.408 2.44731 0.744326 0
M  V30 5235 H 515.052 4.77238 1.738 0
M  V30 5236 H 514.982 4.05046 3.36519 0
M  V30 5237 H 517.473 3.14799 2.0907 0
M  V30 5238 H 517.786 6.76241 3.74056 0
M  V30 5239 H 516.131 6.07825 3.37007 0
M  V30 5240 H 519.322 3.94535 2.51912 0
M  V30 5241 H 519.495 5.59344 3.27166 0
M  V30 5242 N 512.901 -0.976442 1.23707 0
M  V30 5243 C 514.148 -1.71827 1.07153 0
M  V30 5244 C 514.476 -1.9053 -0.390982 0
M  V30 5245 O 513.731 -1.45779 -1.30564 0
M  V30 5246 C 514.03 -3.11814 1.74662 0
M  V30 5247 C 513.696 -3.12978 3.24585 0
M  V30 5248 C 512.358 -3.13003 3.6549 0
M  V30 5249 C 514.71 -3.07986 4.20469 0
M  V30 5250 C 512.038 -3.05757 5.00729 0
M  V30 5251 C 514.39 -3.02282 5.55705 0
M  V30 5252 C 513.054 -3.00631 5.95968 0
M  V30 5253 H 512.324 -0.628758 0.392102 0
M  V30 5254 H 514.971 -1.14239 1.53693 0
M  V30 5255 H 513.276 -3.72812 1.20492 0
M  V30 5256 H 514.973 -3.67989 1.59328 0
M  V30 5257 H 511.563 -3.13718 2.92026 0
M  V30 5258 H 515.747 -3.07103 3.89874 0
M  V30 5259 H 511.003 -3.02834 5.31132 0
M  V30 5260 H 515.177 -2.97376 6.29714 0
M  V30 5261 H 512.804 -2.94771 7.00724 0
M  V30 5262 N 514.379 -1.04941 -1.1758 0
M  V30 5263 C 515.656 -0.671918 -1.83697 0
M  V30 5264 C 516.036 0.847929 -1.93322 0
M  V30 5265 O 515.384 1.75287 -1.46583 0
M  V30 5266 C 515.594 -1.35797 -3.21497 0
M  V30 5267 C 516.942 -1.4944 -3.97433 0
M  V30 5268 O 517.966 -1.31678 -3.30967 0
M  V30 5269 O 516.825 -1.78463 -5.1654 0
M  V30 5270 H 513.919 -0.236212 -0.792548 0
M  V30 5271 H 516.465 -1.14884 -1.24899 0
M  V30 5272 H 515.237 -2.39498 -3.09446 0
M  V30 5273 H 514.86 -0.870236 -3.8796 0
M  V30 5274 N 515.857 1.33968 -0.830081 0
M  V30 5275 C 517.097 1.99879 -0.427521 0
M  V30 5276 C 517.461 1.64355 0.992546 0
M  V30 5277 O 518.662 2.23164 1.49837 0
M  V30 5278 C 516.933 3.51771 -0.631815 0
M  V30 5279 S 518.492 4.37608 -0.323168 0
M  V30 5280 H 515.31 0.692485 -0.161202 0
M  V30 5281 H 517.912 1.63129 -1.07745 0
M  V30 5282 H 516.616 3.75113 -1.66488 0
M  V30 5283 H 516.147 3.93386 0.0325936 0
M  V30 5284 H 518.162 4.88683 0.860432 0
M  V30 5285 N 517.335 0.585699 1.46312 0
M  V30 5286 C 518.584 0.0701192 2.01578 0
M  V30 5287 C 518.897 -1.29889 1.46247 0
M  V30 5288 O 520.103 -1.90598 1.93351 0
M  V30 5289 C 518.559 0.0747499 3.59822 0
M  V30 5290 C 518.167 1.44226 4.24149 0
M  V30 5291 C 519.911 -0.38673 4.22735 0
M  V30 5292 C 517.818 1.40446 5.74481 0
M  V30 5293 H 516.748 0.0224441 0.753666 0
M  V30 5294 H 519.399 0.737789 1.68015 0
M  V30 5295 H 517.781 -0.659144 3.90476 0
M  V30 5296 H 518.955 2.19612 4.05101 0
M  V30 5297 H 517.27 1.84401 3.73343 0
M  V30 5298 H 519.867 -0.433853 5.32937 0
M  V30 5299 H 520.21 -1.40489 3.91878 0
M  V30 5300 H 520.743 0.293195 3.96718 0
M  V30 5301 H 517.482 2.39952 6.10003 0
M  V30 5302 H 517.002 0.692845 5.95785 0
M  V30 5303 H 518.681 1.11865 6.37256 0
M  V30 5304 N 518.813 -1.54241 0.323641 0
M  V30 5305 C 520.061 -2.00174 -0.278359 0
M  V30 5306 C 520.382 -1.2134 -1.52648 0
M  V30 5307 O 519.652 -0.315244 -1.93347 0
M  V30 5308 H 518.232 -0.739463 -0.105845 0
M  V30 5309 H 520.894 -1.89864 0.440204 0
M  V30 5310 H 519.99 -3.07486 -0.5347 0
M  V30 5311 N 520.291 -0.0518155 -1.57515 0
M  V30 5312 C 521.568 0.661727 -1.84067 0
M  V30 5313 C 521.948 1.88999 -0.940351 0
M  V30 5314 O 521.296 2.285 -0.00155404 0
M  V30 5315 C 521.506 1.01841 -3.3381 0
M  V30 5316 C 522.854 1.40043 -4.00841 0
M  V30 5317 O 523.878 1.11073 -3.38439 0
M  V30 5318 O 522.737 1.94111 -5.10865 0
M  V30 5319 H 519.831 0.326702 -0.759733 0
M  V30 5320 H 522.377 -0.0812277 -1.69505 0
M  V30 5321 H 521.149 0.145202 -3.91031 0
M  V30 5322 H 520.772 1.81879 -3.53562 0
M  V30 5323 N 521.769 1.56035 0.221574 0
M  V30 5324 C 523.015 1.79312 0.947372 0
M  V30 5325 C 523.348 0.621453 1.83988 0
M  V30 5326 O 522.623 -0.379287 1.90766 0
M  V30 5327 C 522.906 3.1267 1.78633 0
M  V30 5328 C 522.759 4.40284 0.920312 0
M  V30 5329 C 524.078 3.4247 2.7641 0
M  V30 5330 H 521.197 0.652328 0.342982 0
M  V30 5331 H 523.839 1.88765 0.216244 0
M  V30 5332 H 521.989 3.04741 2.40967 0
M  V30 5333 H 523.661 4.60232 0.313718 0
M  V30 5334 H 521.904 4.33212 0.225734 0
M  V30 5335 H 522.575 5.30033 1.54171 0
M  V30 5336 H 525.051 3.50526 2.24211 0
M  V30 5337 H 523.927 4.3695 3.32213 0
M  V30 5338 H 524.188 2.64635 3.54148 0
M  V30 5339 N 523.247 -0.488276 1.49845 0
M  V30 5340 C 524.663 -0.820566 1.3689 0
M  V30 5341 C 524.863 -1.97248 0.411752 0
M  V30 5342 O 523.919 -2.52042 -0.151931 0
M  V30 5343 C 525.232 -1.1488 2.77891 0
M  V30 5344 C 526.78 -1.25626 2.86683 0
M  V30 5345 C 527.255 -1.61772 4.28479 0
M  V30 5346 N 528.746 -1.68797 4.31349 0
M  V30 5347 C 529.481 -1.98235 5.38043 0
M  V30 5348 N 528.977 -2.2581 6.54967 0
M  V30 5349 N 530.77 -1.99593 5.2547 0
M  V30 5350 H 522.921 0.271123 2.10662 0
M  V30 5351 H 525.184 0.058735 0.946179 0
M  V30 5352 H 524.89 -0.375614 3.49688 0
M  V30 5353 H 524.764 -2.08919 3.14058 0
M  V30 5354 H 527.151 -2.02014 2.15114 0
M  V30 5355 H 527.232 -0.296072 2.54081 0
M  V30 5356 H 526.876 -0.859295 5.00578 0
M  V30 5357 H 526.806 -2.58912 4.58554 0
M  V30 5358 H 529.297 -1.49595 3.4703 0
M  V30 5359 H 529.61 -2.47497 7.32096 0
M  V30 5360 H 527.955 -2.23239 6.58171 0
M  V30 5361 H 531.146 -1.77535 4.33127 0
M  V30 5362 H 531.319 -2.222 6.08713 0
M  V30 5363 N 524.725 -1.39134 -0.740242 0
M  V30 5364 C 525.973 -1.35803 -1.49673 0
M  V30 5365 C 526.294 0.0470897 -1.94943 0
M  V30 5366 O 525.564 0.997347 -1.68611 0
M  V30 5367 H 524.144 -0.499736 -0.555224 0
M  V30 5368 H 526.806 -1.73947 -0.879107 0
M  V30 5369 H 525.902 -2.0174 -2.38133 0
M  V30 5370 N 526.204 0.969867 -1.24223 0
M  V30 5371 C 527.62 1.23809 -1.00716 0
M  V30 5372 C 527.82 1.99469 0.285358 0
M  V30 5373 O 526.876 2.31764 1.00207 0
M  V30 5374 C 528.189 2.02734 -2.2208 0
M  V30 5375 C 529.737 2.15834 -2.26681 0
M  V30 5376 C 530.212 2.98154 -3.47661 0
M  V30 5377 N 531.703 3.05737 -3.47964 0
M  V30 5378 C 532.438 3.69785 -4.38231 0
M  V30 5379 N 531.934 4.35569 -5.3875 0
M  V30 5380 N 533.727 3.66775 -4.25949 0
M  V30 5381 H 525.878 0.463294 -2.07286 0
M  V30 5382 H 528.141 0.267348 -0.909521 0
M  V30 5383 H 527.847 1.54524 -3.15935 0
M  V30 5384 H 527.721 3.0347 -2.24021 0
M  V30 5385 H 530.108 2.63248 -1.33359 0
M  V30 5386 H 530.189 1.14453 -2.28767 0
M  V30 5387 H 529.833 2.51435 -4.41297 0
M  V30 5388 H 529.763 3.99729 -3.42818 0
M  V30 5389 H 532.254 2.58941 -2.75242 0
M  V30 5390 H 532.567 4.82251 -6.03866 0
M  V30 5391 H 530.912 4.34244 -5.42639 0
M  V30 5392 H 534.103 3.14558 -3.46657 0
M  V30 5393 H 534.276 4.16407 -4.96497 0
M  V30 5394 N 527.682 1.05563 1.17022 0
M  V30 5395 C 528.93 0.76642 1.87004 0
M  V30 5396 C 529.251 -0.708854 1.8166 0
M  V30 5397 O 528.521 -1.51242 1.2451 0
M  V30 5398 H 527.101 0.280516 0.692329 0
M  V30 5399 H 529.763 1.33557 1.41945 0
M  V30 5400 H 528.859 1.08472 2.92644 0
M  V30 5401 N 529.16 -1.33526 0.837174 0
M  V30 5402 C 530.09 -2.31764 0.284206 0
M  V30 5403 C 531.071 -1.58896 -0.607142 0
M  V30 5404 O 532.256 -1.86798 -0.531047 0
M  V30 5405 C 529.386 -3.43029 -0.542962 0
M  V30 5406 C 528.34 -4.27255 0.252451 0
M  V30 5407 C 527.666 -5.3012 -0.69836 0
M  V30 5408 C 528.966 -5.01229 1.46858 0
M  V30 5409 H 530.66 -2.78262 1.10502 0
M  V30 5410 H 528.206 -1.3378 0.532812 0
M  V30 5411 H 530.159 -4.1078 -0.940096 0
M  V30 5412 H 528.883 -2.95216 -1.39697 0
M  V30 5413 H 527.542 -3.61127 0.631124 0
M  V30 5414 H 527.19 -4.78564 -1.54872 0
M  V30 5415 H 526.89 -5.87353 -0.170274 0
M  V30 5416 H 528.414 -6.00737 -1.09305 0
M  V30 5417 H 529.828 -5.61756 1.14469 0
M  V30 5418 H 528.225 -5.68104 1.93333 0
M  V30 5419 H 529.295 -4.301 2.23924 0
M  V30 5420 N 530.638 -0.59345 -1.46 0
M  V30 5421 C 531.568 0.121192 -2.33185 0
M  V30 5422 C 532.549 0.872977 -1.4599 0
M  V30 5423 O 533.734 0.846321 -1.74789 0
M  V30 5424 C 530.864 1.12844 -3.28456 0
M  V30 5425 C 529.818 0.4908 -4.25177 0
M  V30 5426 C 529.144 1.60529 -5.10034 0
M  V30 5427 C 530.444 -0.578949 -5.19081 0
M  V30 5428 H 532.138 -0.606767 -2.93187 0
M  V30 5429 H 529.684 -0.293242 -1.40983 0
M  V30 5430 H 531.637 1.63684 -3.88311 0
M  V30 5431 H 530.361 1.88681 -2.66584 0
M  V30 5432 H 529.02 0.00339328 -3.666 0
M  V30 5433 H 528.668 2.35359 -4.44539 0
M  V30 5434 H 528.368 1.18422 -5.75543 0
M  V30 5435 H 529.892 2.11623 -5.72755 0
M  V30 5436 H 531.306 -0.155199 -5.7309 0
M  V30 5437 H 529.703 -0.920947 -5.92991 0
M  V30 5438 H 530.773 -1.46109 -4.62364 0
M  V30 5439 N 532.116 1.54067 -0.331816 0
M  V30 5440 C 533.046 2.27569 0.522932 0
M  V30 5441 C 534.027 1.28679 1.11247 0
M  V30 5442 O 535.212 1.57504 1.13605 0
M  V30 5443 C 532.342 3.0397 1.67987 0
M  V30 5444 C 531.296 4.10267 1.21924 0
M  V30 5445 C 530.622 4.74555 2.46377 0
M  V30 5446 C 531.922 5.21268 0.32815 0
M  V30 5447 H 533.616 2.99264 -0.0901977 0
M  V30 5448 H 531.162 1.4393 -0.044821 0
M  V30 5449 H 533.115 3.54123 2.28418 0
M  V30 5450 H 531.839 2.29906 2.31971 0
M  V30 5451 H 530.498 3.61009 0.637809 0
M  V30 5452 H 530.146 3.97098 3.08743 0
M  V30 5453 H 529.846 5.46363 2.16243 0
M  V30 5454 H 531.37 5.27487 3.07555 0
M  V30 5455 H 532.784 5.67128 0.838978 0
M  V30 5456 H 531.181 5.99982 0.119228 0
M  V30 5457 H 532.251 4.80673 -0.638839 0
M  V30 5458 N 533.594 0.0601682 1.57485 0
M  V30 5459 C 534.842 -0.610386 1.92662 0
M  V30 5460 C 535.163 -1.70849 0.939981 0
M  V30 5461 O 534.433 -1.95895 -0.0137455 0
M  V30 5462 H 533.013 -0.228457 0.711208 0
M  V30 5463 H 535.675 0.115288 1.94559 0
M  V30 5464 H 534.771 -1.0432 2.94149 0
M  V30 5465 N 535.072 -1.5615 -0.213296 0
M  V30 5466 C 536.318 -1.79812 -0.937849 0
M  V30 5467 C 536.651 -0.631201 -1.83656 0
M  V30 5468 O 535.926 0.369165 -1.90964 0
M  V30 5469 C 536.209 -3.13613 -1.76972 0
M  V30 5470 C 536.062 -4.40766 -0.89695 0
M  V30 5471 C 537.381 -3.43931 -2.7459 0
M  V30 5472 H 534.5 -0.654138 -0.339518 0
M  V30 5473 H 537.142 -1.88877 -0.20623 0
M  V30 5474 H 535.292 -3.06015 -2.39347 0
M  V30 5475 H 536.964 -4.60392 -0.289306 0
M  V30 5476 H 535.207 -4.33326 -0.202756 0
M  V30 5477 H 535.878 -5.30843 -1.51358 0
M  V30 5478 H 538.354 -3.5171 -2.22349 0
M  V30 5479 H 537.23 -4.38706 -3.29891 0
M  V30 5480 H 537.491 -2.6651 -3.52739 0
M  V30 5481 N 536.55 0.480323 -1.50102 0
M  V30 5482 C 537.46 1.60547 -1.71061 0
M  V30 5483 C 538.476 1.63564 -0.593529 0
M  V30 5484 O 539.652 1.81604 -0.870751 0
M  V30 5485 C 536.717 2.96814 -1.79171 0
M  V30 5486 C 535.778 3.04259 -3.02861 0
M  V30 5487 C 535.011 4.34027 -3.10574 0
M  V30 5488 O 535.234 5.24009 -2.25323 0
M  V30 5489 O 534.168 4.46873 -4.03223 0
M  V30 5490 H 537.994 1.45788 -2.6642 0
M  V30 5491 H 535.579 0.658838 -1.34088 0
M  V30 5492 H 537.461 3.77765 -1.86738 0
M  V30 5493 H 536.136 3.11791 -0.869947 0
M  V30 5494 H 535.043 2.22419 -3.008 0
M  V30 5495 H 536.376 2.94216 -3.94586 0
M  V30 5496 N 538.028 1.39524 0.732853 0
M  V30 5497 C 539.277 1.36175 1.48792 0
M  V30 5498 C 539.59 -0.0388195 1.95561 0
M  V30 5499 O 540.796 -0.194899 2.708 0
M  V30 5500 C 539.252 2.39242 2.68871 0
M  V30 5501 C 538.86 3.85024 2.29042 0
M  V30 5502 C 540.604 2.44972 3.46683 0
M  V30 5503 C 538.511 4.79727 3.45856 0
M  V30 5504 H 537.441 0.506267 0.558757 0
M  V30 5505 H 540.092 1.65181 0.799226 0
M  V30 5506 H 538.474 2.0331 3.39825 0
M  V30 5507 H 539.648 4.30008 1.6562 0
M  V30 5508 H 537.963 3.82609 1.64316 0
M  V30 5509 H 540.56 3.12918 4.33574 0
M  V30 5510 H 540.903 1.4749 3.89297 0
M  V30 5511 H 541.436 2.79808 2.82759 0
M  V30 5512 H 538.175 5.78479 3.08289 0
M  V30 5513 H 537.695 4.39421 4.08251 0
M  V30 5514 H 539.374 4.98731 4.12161 0
M  V30 5515 N 539.506 -0.963266 1.24736 0
M  V30 5516 C 540.752 -1.70933 1.09131 0
M  V30 5517 C 541.085 -1.90676 -0.368273 0
M  V30 5518 O 540.36 -1.47147 -1.27193 0
M  V30 5519 C 540.643 -3.09744 1.83658 0
M  V30 5520 C 540.496 -2.97465 3.37394 0
M  V30 5521 C 541.815 -4.09483 1.61282 0
M  V30 5522 H 538.934 -0.620398 0.397838 0
M  V30 5523 H 541.576 -1.12028 1.53459 0
M  V30 5524 H 539.726 -3.60031 1.4598 0
M  V30 5525 H 541.398 -2.54571 3.84696 0
M  V30 5526 H 539.641 -2.33576 3.65547 0
M  V30 5527 H 540.312 -3.95822 3.84745 0
M  V30 5528 H 542.788 -3.68073 1.94066 0
M  V30 5529 H 541.664 -5.04666 2.15878 0
M  V30 5530 H 541.925 -4.38639 0.552102 0
M  V30 5531 N 540.985 -1.06182 -1.16461 0
M  V30 5532 C 541.932 -0.671613 -2.20812 0
M  V30 5533 C 542.902 0.331186 -1.62765 0
M  V30 5534 O 544.087 0.22033 -1.89524 0
M  V30 5535 C 541.227 -0.063029 -3.45042 0
M  V30 5536 C 540.34 -1.11587 -4.1734 0
M  V30 5537 C 539.475 -0.473546 -5.29085 0
M  V30 5538 C 538.514 -1.51 -5.93182 0
M  V30 5539 N 537.651 -0.891118 -6.96422 0
M  V30 5540 H 542.491 -1.56589 -2.53542 0
M  V30 5541 H 540.028 -0.782951 -1.24532 0
M  V30 5542 H 541.986 0.307344 -4.16066 0
M  V30 5543 H 540.616 0.794663 -3.12866 0
M  V30 5544 H 539.668 -1.60396 -3.44931 0
M  V30 5545 H 540.98 -1.90221 -4.61104 0
M  V30 5546 H 540.134 -0.0501432 -6.06679 0
M  V30 5547 H 538.873 0.344687 -4.8648 0
M  V30 5548 H 537.878 -1.94331 -5.14311 0
M  V30 5549 H 539.103 -2.33031 -6.37866 0
M  V30 5550 H 537.049 -0.0935753 -6.55933 0
M  V30 5551 H 536.966 -1.61486 -7.38551 0
M  V30 5552 H 538.234 -0.492822 -7.77941 0
M  V30 5553 N 542.463 1.3308 -0.844243 0
M  V30 5554 C 543.74 1.92178 -0.364261 0
M  V30 5555 C 544.12 1.76961 1.15101 0
M  V30 5556 O 543.468 1.16128 1.9679 0
M  V30 5557 C 543.678 3.393 -0.817106 0
M  V30 5558 C 545.026 4.16444 -0.828236 0
M  V30 5559 O 546.05 3.47975 -0.761062 0
M  V30 5560 O 544.909 5.38685 -0.920926 0
M  V30 5561 H 542.003 0.820411 -0.10419 0
M  V30 5562 H 544.549 1.41918 -0.930453 0
M  V30 5563 H 543.321 3.44272 -1.85991 0
M  V30 5564 H 542.944 3.96947 -0.227785 0
M  V30 5565 N 543.941 0.601185 1.45683 0
M  V30 5566 C 545.357 0.264315 1.57396 0
M  V30 5567 C 545.557 -1.23324 1.59353 0
M  V30 5568 O 544.613 -2.01594 1.52039 0
M  V30 5569 C 545.926 0.929839 2.85962 0
M  V30 5570 C 547.474 0.905156 2.99626 0
M  V30 5571 C 547.949 1.55057 4.30954 0
M  V30 5572 N 549.44 1.51576 4.37697 0
M  V30 5573 C 550.175 1.98436 5.37969 0
M  V30 5574 N 549.671 2.53352 6.44813 0
M  V30 5575 N 551.464 1.89242 5.29286 0
M  V30 5576 H 543.615 1.57363 1.42656 0
M  V30 5577 H 545.878 0.658831 0.681649 0
M  V30 5578 H 545.584 1.98404 2.90394 0
M  V30 5579 H 545.458 0.449224 3.74515 0
M  V30 5580 H 547.845 -0.14048 2.94765 0
M  V30 5581 H 547.926 1.42397 2.12501 0
M  V30 5582 H 547.57 2.5955 4.36573 0
M  V30 5583 H 547.5 1.00682 5.16886 0
M  V30 5584 H 549.991 1.11452 3.61091 0
M  V30 5585 H 550.304 2.86918 7.17564 0
M  V30 5586 H 548.649 2.57388 6.45582 0
M  V30 5587 H 551.84 1.46083 4.44722 0
M  V30 5588 H 552.013 2.26075 6.07284 0
M  V30 5589 N 545.419 -1.53889 0.339982 0
M  V30 5590 C 546.835 -1.59595 -0.0120752 0
M  V30 5591 C 547.035 -1.35605 -1.49042 0
M  V30 5592 O 546.091 -1.14856 -2.24865 0
M  V30 5593 C 547.404 -2.9774 0.420898 0
M  V30 5594 C 548.952 -3.1077 0.37294 0
M  V30 5595 C 549.427 -4.51286 0.781327 0
M  V30 5596 N 550.918 -4.57325 0.735374 0
M  V30 5597 C 551.653 -5.64194 1.02336 0
M  V30 5598 N 551.149 -6.7893 1.37933 0
M  V30 5599 N 552.942 -5.54051 0.947838 0
M  V30 5600 H 545.093 -1.67738 1.30299 0
M  V30 5601 H 547.356 -0.785385 0.530918 0
M  V30 5602 H 547.062 -3.20349 1.45152 0
M  V30 5603 H 546.936 -3.76639 -0.205721 0
M  V30 5604 H 549.323 -2.87886 -0.648505 0
M  V30 5605 H 549.404 -2.33939 1.03472 0
M  V30 5606 H 549.048 -4.74905 1.80077 0
M  V30 5607 H 548.978 -5.26511 0.0970679 0
M  V30 5608 H 551.469 -3.74931 0.472773 0
M  V30 5609 H 551.782 -7.56392 1.58402 0
M  V30 5610 H 550.127 -6.80386 1.41774 0
M  V30 5611 H 553.318 -4.63293 0.669115 0
M  V30 5612 H 553.491 -6.37246 1.17563 0
M  V30 5613 N 546.897 -0.0685191 -1.57451 0
M  V30 5614 C 548.125 0.610462 -1.97689 0
M  V30 5615 C 548.54 1.63346 -0.946758 0
M  V30 5616 O 547.897 1.82377 0.0669868 0
M  V30 5617 C 547.948 1.28196 -3.38006 0
M  V30 5618 O 547.669 0.299906 -4.37072 0
M  V30 5619 C 549.17 2.04907 -3.931 0
M  V30 5620 H 546.39 0.165689 -0.650222 0
M  V30 5621 H 548.934 -0.139953 -2.04021 0
M  V30 5622 H 547.089 1.98348 -3.32771 0
M  V30 5623 H 547.503 0.78126 -5.18649 0
M  V30 5624 H 548.977 2.47287 -4.93511 0
M  V30 5625 H 549.454 2.9043 -3.29465 0
M  V30 5626 H 550.06 1.39629 -4.01726 0
M  V30 5627 N 548.375 1.56261 0.205012 0
M  V30 5628 C 549.322 1.93754 1.25411 0
M  V30 5629 C 550.292 0.796826 1.45739 0
M  V30 5630 O 551.477 1.05414 1.59036 0
M  V30 5631 C 548.617 2.27383 2.59598 0
M  V30 5632 C 547.73 3.5447 2.46931 0
M  V30 5633 C 546.865 3.77468 3.73753 0
M  V30 5634 C 545.904 4.98014 3.55877 0
M  V30 5635 N 545.041 5.17316 4.74688 0
M  V30 5636 H 549.881 2.83203 0.92737 0
M  V30 5637 H 547.418 1.40158 0.446574 0
M  V30 5638 H 549.376 2.44895 3.37761 0
M  V30 5639 H 548.006 1.41088 2.90335 0
M  V30 5640 H 547.058 3.45061 1.60116 0
M  V30 5641 H 548.37 4.42789 2.29651 0
M  V30 5642 H 547.524 3.95165 4.60358 0
M  V30 5643 H 546.263 2.87461 3.93976 0
M  V30 5644 H 545.268 4.80249 2.67657 0
M  V30 5645 H 546.493 5.8952 3.37109 0
M  V30 5646 H 544.439 4.30255 4.95194 0
M  V30 5647 H 544.356 5.99796 4.60197 0
M  V30 5648 H 545.624 5.39463 5.62672 0
M  V30 5649 N 549.853 -0.472356 1.50355 0
M  V30 5650 C 550.763 -1.59637 1.7191 0
M  V30 5651 C 551.779 -1.63247 0.602195 0
M  V30 5652 O 552.955 -1.81139 0.880369 0
M  V30 5653 C 550.02 -2.9586 1.80742 0
M  V30 5654 C 549.081 -3.02649 3.04471 0
M  V30 5655 C 548.314 -4.32374 3.12872 0
M  V30 5656 O 548.537 -5.22807 2.28099 0
M  V30 5657 O 547.471 -4.44728 4.05587 0
M  V30 5658 H 551.297 -1.44373 2.67189 0
M  V30 5659 H 548.882 -0.651717 1.34436 0
M  V30 5660 H 550.764 -3.7677 1.88739 0
M  V30 5661 H 549.439 -3.11325 0.88647 0
M  V30 5662 H 548.346 -2.20821 3.01975 0
M  V30 5663 H 549.679 -2.92119 3.9614 0
M  V30 5664 N 551.331 -1.39911 -0.725443 0
M  V30 5665 C 552.742 -1.33599 -1.30415 0
M  V30 5666 C 553.093 -0.00481792 -1.96199 0
M  V30 5667 O 552.218 0.897275 -1.96921 0
M  V30 5668 C 552.813 -2.41965 -2.37146 0
M  V30 5669 C 551.372 -2.39144 -2.90667 0
M  V30 5670 C 550.519 -2.23355 -1.64341 0
M  V30 5671 H 553.47 -1.4986 -0.522267 0
M  V30 5672 H 553.491 -2.09304 -3.17761 0
M  V30 5673 H 553.003 -3.38837 -1.89238 0
M  V30 5674 H 551.104 -1.4594 -3.4283 0
M  V30 5675 H 551.217 -3.34362 -3.43131 0
M  V30 5676 H 549.581 -1.70696 -1.89037 0
M  V30 5677 H 550.364 -3.2221 -1.18471 0
M  V30 5678 N 552.809 0.956637 -1.25245 0
M  V30 5679 C 553.772 2.03457 -1.05537 0
M  V30 5680 C 554.772 1.60798 -0.00886317 0
M  V30 5681 O 555.962 1.72384 -0.250865 0
M  V30 5682 C 553.094 3.35543 -0.601965 0
M  V30 5683 H 554.287 2.22372 -2.01223 0
M  V30 5684 H 551.84 1.13344 -1.07623 0
M  V30 5685 H 552.575 3.22323 0.357584 0
M  V30 5686 H 552.36 3.67854 -1.35743 0
M  V30 5687 H 553.85 4.14769 -0.485454 0
M  V30 5688 N 554.287 1.06798 1.15896 0
M  V30 5689 C 555.564 0.701057 1.82605 0
M  V30 5690 C 555.944 -0.817066 1.94646 0
M  V30 5691 O 555.292 -1.72933 1.49353 0
M  V30 5692 C 555.502 1.40895 3.19296 0
M  V30 5693 C 556.85 1.55744 3.95005 0
M  V30 5694 O 557.874 1.36927 3.28831 0
M  V30 5695 O 556.733 1.86658 5.13635 0
M  V30 5696 H 553.827 0.248791 0.78869 0
M  V30 5697 H 556.373 1.16857 1.23055 0
M  V30 5698 H 555.145 2.4439 3.05596 0
M  V30 5699 H 554.768 0.931847 3.86526 0
M  V30 5700 N 555.766 -1.3263 0.851289 0
M  V30 5701 C 557.014 -1.96978 0.452128 0
M  V30 5702 C 557.335 -1.67715 -0.99482 0
M  V30 5703 O 556.605 -0.98259 -1.69476 0
M  V30 5704 H 555.185 -0.72873 0.164202 0
M  V30 5705 H 557.847 -1.61774 1.08698 0
M  V30 5706 H 556.943 -3.06387 0.594407 0
M  V30 5707 N 557.244 -0.608902 -1.45362 0
M  V30 5708 C 558.174 0.0964526 -2.33301 0
M  V30 5709 C 559.155 0.857444 -1.46908 0
M  V30 5710 O 560.34 0.827735 -1.75676 0
M  V30 5711 C 557.47 1.09354 -3.29635 0
M  V30 5712 C 556.424 0.445676 -4.25673 0
M  V30 5713 C 555.75 1.5511 -5.11708 0
M  V30 5714 C 557.05 -0.633972 -5.18438 0
M  V30 5715 H 558.744 -0.637829 -2.92527 0
M  V30 5716 H 556.29 -0.308178 -1.40664 0
M  V30 5717 H 558.243 1.59556 -3.90025 0
M  V30 5718 H 556.967 1.85843 -2.6857 0
M  V30 5719 H 555.626 -0.0354897 -3.66583 0
M  V30 5720 H 555.274 2.30631 -4.4701 0
M  V30 5721 H 554.974 1.12311 -5.76767 0
M  V30 5722 H 556.498 2.05537 -5.74967 0
M  V30 5723 H 557.912 -0.215974 -5.72893 0
M  V30 5724 H 556.309 -0.983789 -5.91981 0
M  V30 5725 H 557.379 -1.51005 -4.60788 0
M  V30 5726 N 558.722 1.53707 -0.348139 0
M  V30 5727 C 559.97 2.00591 0.246478 0
M  V30 5728 C 560.291 1.23753 1.50699 0
M  V30 5729 O 559.561 0.345964 1.92821 0
M  V30 5730 H 558.141 0.741053 0.0940679 0
M  V30 5731 H 560.803 1.89139 -0.470354 0
M  V30 5732 H 559.899 3.08297 0.485714 0
M  V30 5733 N 560.2 0.0768682 1.57412 0
M  V30 5734 C 561.163 -0.873949 2.11884 0
M  V30 5735 C 562.163 -1.22301 1.04398 0
M  V30 5736 O 563.353 -1.15545 1.30365 0
M  V30 5737 C 560.485 -2.17575 2.62438 0
M  V30 5738 H 561.678 -0.401278 2.97203 0
M  V30 5739 H 559.231 -0.171904 1.55352 0
M  V30 5740 H 559.966 -2.69368 1.80587 0
M  V30 5741 H 559.751 -1.93534 3.41009 0
M  V30 5742 H 561.241 -2.85631 3.04639 0
M  V30 5743 N 561.678 -1.56367 -0.196722 0
M  V30 5744 C 562.625 -1.94417 -1.24382 0
M  V30 5745 C 563.595 -0.804543 -1.45315 0
M  V30 5746 O 564.78 -1.06256 -1.58475 0
M  V30 5747 C 561.92 -2.28757 -2.58388 0
M  V30 5748 C 561.033 -3.55775 -2.45047 0
M  V30 5749 C 560.168 -3.79445 -3.71746 0
M  V30 5750 C 559.207 -4.99894 -3.53231 0
M  V30 5751 N 558.344 -5.19826 -4.71938 0
M  V30 5752 H 563.184 -2.83691 -0.912338 0
M  V30 5753 H 560.721 -1.40392 -0.439135 0
M  V30 5754 H 562.679 -2.46682 -3.36457 0
M  V30 5755 H 561.309 -1.42625 -2.89582 0
M  V30 5756 H 560.361 -3.45905 -1.58284 0
M  V30 5757 H 561.673 -4.44 -2.27299 0
M  V30 5758 H 560.827 -3.97601 -4.58256 0
M  V30 5759 H 559.566 -2.89546 -3.92446 0
M  V30 5760 H 558.571 -4.81662 -2.65107 0
M  V30 5761 H 559.796 -5.913 -3.33978 0
M  V30 5762 H 557.742 -4.32875 -4.92905 0
M  V30 5763 H 557.659 -6.02228 -4.57009 0
M  V30 5764 H 558.927 -5.42439 -5.59803 0
M  V30 5765 N 563.156 0.464375 -1.50603 0
M  V30 5766 C 564.405 1.21277 -1.61167 0
M  V30 5767 C 564.718 1.92953 -0.320704 0
M  V30 5768 O 565.924 2.69778 -0.30534 0
M  V30 5769 C 564.38 2.20403 -2.84518 0
M  V30 5770 C 563.988 1.54499 -4.20516 0
M  V30 5771 C 565.732 2.95843 -3.0443 0
M  V30 5772 C 563.639 2.51951 -5.35047 0
M  V30 5773 H 562.569 0.456367 -0.600204 0
M  V30 5774 H 565.22 0.48254 -1.77042 0
M  V30 5775 H 563.602 2.96746 -2.62217 0
M  V30 5776 H 564.776 0.83899 -4.53098 0
M  V30 5777 H 563.091 0.913152 -4.06264 0
M  V30 5778 H 565.688 3.6879 -3.87167 0
M  V30 5779 H 566.031 3.55622 -2.16423 0
M  V30 5780 H 566.564 2.26611 -3.26944 0
M  V30 5781 H 563.303 1.96901 -6.25228 0
M  V30 5782 H 562.823 3.20683 -5.06875 0
M  V30 5783 H 564.502 3.13643 -5.65895 0
M  V30 5784 N 564.634 1.40294 0.718013 0
M  V30 5785 C 565.862 1.4175 1.50714 0
M  V30 5786 C 566.277 0.0165366 1.88793 0
M  V30 5787 O 565.634 -0.958942 1.55276 0
M  V30 5788 C 565.685 2.30598 2.784 0
M  V30 5789 O 565.406 3.6524 2.41932 0
M  V30 5790 C 566.907 2.4062 3.72313 0
M  V30 5791 H 564.127 0.483565 0.465194 0
M  V30 5792 H 566.671 1.84316 0.885889 0
M  V30 5793 H 564.826 1.91401 3.36815 0
M  V30 5794 H 565.24 4.12402 3.24076 0
M  V30 5795 H 566.714 3.07001 4.58753 0
M  V30 5796 H 567.191 1.4305 4.15251 0
M  V30 5797 H 567.797 2.80359 3.19811 0
M  V30 5798 N 566.112 -0.949982 1.2575 0
M  V30 5799 C 567.528 -1.22191 1.02672 0
M  V30 5800 C 567.728 -1.99898 -0.253588 0
M  V30 5801 O 566.784 -2.33329 -0.965076 0
M  V30 5802 C 568.097 -1.99175 2.25277 0
M  V30 5803 C 569.645 -2.12201 2.30087 0
M  V30 5804 C 570.12 -2.92586 3.5236 0
M  V30 5805 N 571.611 -3.00163 3.52784 0
M  V30 5806 C 572.346 -3.62766 4.44059 0
M  V30 5807 N 571.842 -4.26943 5.45611 0
M  V30 5808 N 573.635 -3.59953 4.3173 0
M  V30 5809 H 565.786 -0.430258 2.07996 0
M  V30 5810 H 568.049 -0.252844 0.91366 0
M  V30 5811 H 567.755 -1.49479 3.18354 0
M  V30 5812 H 567.629 -2.99868 2.28821 0
M  V30 5813 H 570.016 -2.61093 1.3753 0
M  V30 5814 H 570.097 -1.10799 2.30559 0
M  V30 5815 H 569.741 -2.44383 4.45241 0
M  V30 5816 H 569.671 -3.94224 3.49134 0
M  V30 5817 H 572.162 -2.54529 2.79327 0
M  V30 5818 H 572.475 -4.72583 6.11461 0
M  V30 5819 H 570.82 -4.25557 5.49478 0
M  V30 5820 H 574.011 -3.09003 3.51617 0
M  V30 5821 H 574.184 -4.08455 5.03059 0
M  V30 5822 N 567.59 -1.07411 -1.15328 0
M  V30 5823 C 568.5 -0.706438 -2.23711 0
M  V30 5824 C 569.516 0.282586 -1.7169 0
M  V30 5825 O 570.692 0.129066 -2.00986 0
M  V30 5826 C 567.757 -0.11048 -3.46524 0
M  V30 5827 C 566.818 -1.15282 -4.13532 0
M  V30 5828 C 566.051 -0.585205 -5.30482 0
M  V30 5829 O 566.274 0.598549 -5.67251 0
M  V30 5830 O 565.208 -1.33039 -5.87013 0
M  V30 5831 H 569.034 -1.61031 -2.57493 0
M  V30 5832 H 566.619 -0.847113 -1.23062 0
M  V30 5833 H 568.501 0.21957 -4.20828 0
M  V30 5834 H 567.176 0.766703 -3.14489 0
M  V30 5835 H 566.083 -1.53523 -3.41147 0
M  V30 5836 H 567.416 -2.00192 -4.49649 0
M  V30 5837 N 569.068 1.32177 -0.85831 0
M  V30 5838 C 570.308 1.98927 -0.469822 0
M  V30 5839 C 570.672 1.66423 0.95746 0
M  V30 5840 O 571.873 2.26293 1.45069 0
M  V30 5841 C 570.144 3.50352 -0.706288 0
M  V30 5842 S 571.703 4.36824 -0.415918 0
M  V30 5843 H 568.521 0.688909 -0.175855 0
M  V30 5844 H 571.123 1.60807 -1.11181 0
M  V30 5845 H 569.827 3.71497 -1.74407 0
M  V30 5846 H 569.358 3.93367 -0.0508568 0
M  V30 5847 H 571.373 4.90398 0.756581 0
M  V30 5848 N 570.547 0.616602 1.45037 0
M  V30 5849 C 571.48 -0.145984 2.27733 0
M  V30 5850 C 572.458 -0.865108 1.37676 0
M  V30 5851 O 573.642 -0.872152 1.6711 0
M  V30 5852 C 570.769 -1.2122 3.16265 0
M  V30 5853 C 569.815 -0.595218 4.22326 0
M  V30 5854 S 570.648 0.603744 5.32086 0
M  V30 5855 C 571.804 -0.462842 6.24186 0
M  V30 5856 H 572.037 0.555591 2.92062 0
M  V30 5857 H 569.57 0.404364 1.49011 0
M  V30 5858 H 571.528 -1.82247 3.67827 0
M  V30 5859 H 570.189 -1.88589 2.51183 0
M  V30 5860 H 569.382 -1.39775 4.8423 0
M  V30 5861 H 568.984 -0.0598965 3.73952 0
M  V30 5862 H 571.276 -1.33945 6.64127 0
M  V30 5863 H 572.219 0.120259 7.07998 0
M  V30 5864 H 572.627 -0.782219 5.59054 0
M  V30 5865 N 572.025 -1.5352 0.356285 0
M  V30 5866 C 572.973 -2.26945 -0.50978 0
M  V30 5867 C 573.967 -1.29569 -1.09125 0
M  V30 5868 O 575.173 -1.47231 -1.03552 0
M  V30 5869 H 571.548 -0.729368 -0.183102 0
M  V30 5870 H 573.519 -2.98111 0.131374 0
M  V30 5871 C 572.268 -3.06466 -1.64237 0
M  V30 5872 H 571.591 -3.81233 -1.20423 0
M  V30 5873 H 573.031 -3.61035 -2.22327 0
M  V30 5874 C 571.49 -2.16737 -2.57928 0
M  V30 5875 O 572.02 -1.77195 -3.60507 0
M  V30 5876 N 570.226 -1.81558 -2.26903 0
M  V30 5877 H 569.773 -2.13913 -1.43524 0
M  V30 5878 H 569.731 -1.21806 -2.89846 0
M  V30 5879 N 573.503 -0.0852151 -1.57369 0
M  V30 5880 C 574.433 0.874556 -2.16503 0
M  V30 5881 C 575.414 1.30111 -1.09568 0
M  V30 5882 O 576.599 1.36977 -1.37662 0
M  V30 5883 C 573.729 2.13731 -2.73745 0
M  V30 5884 C 572.683 1.84971 -3.85966 0
M  V30 5885 C 572.009 3.17991 -4.29867 0
M  V30 5886 C 573.309 1.14442 -5.09608 0
M  V30 5887 H 575.003 0.381899 -2.96954 0
M  V30 5888 H 572.549 0.18225 -1.42842 0
M  V30 5889 H 574.502 2.81302 -3.13763 0
M  V30 5890 H 573.226 2.65263 -1.90534 0
M  V30 5891 H 571.885 1.19801 -3.46473 0
M  V30 5892 H 571.533 3.6739 -3.4356 0
M  V30 5893 H 571.233 2.99534 -5.05523 0
M  V30 5894 H 572.757 3.86737 -4.72511 0
M  V30 5895 H 574.171 1.72105 -5.46857 0
M  V30 5896 H 572.568 1.06197 -5.90629 0
M  V30 5897 H 573.638 0.12559 -4.84737 0
M  V30 5898 N 574.981 1.5647 0.188427 0
M  V30 5899 C 576.229 1.80655 0.905986 0
M  V30 5900 C 576.55 0.659391 1.83513 0
M  V30 5901 O 575.82 -0.321868 1.93238 0
M  V30 5902 H 574.4 0.666391 0.337538 0
M  V30 5903 H 577.062 1.93949 0.192339 0
M  V30 5904 H 576.158 2.74066 1.49313 0
M  V30 5905 N 576.459 -0.456382 1.50847 0
M  V30 5906 C 577.389 -1.56025 1.73719 0
M  V30 5907 C 578.37 -1.5967 0.586473 0
M  V30 5908 O 579.555 -1.75702 0.827185 0
M  V30 5909 C 576.685 -2.94251 1.84483 0
M  V30 5910 C 575.639 -3.05471 2.99786 0
M  V30 5911 C 574.965 -4.45489 2.95709 0
M  V30 5912 C 576.265 -2.81318 4.40065 0
M  V30 5913 H 577.959 -1.37138 2.66146 0
M  V30 5914 H 575.505 -0.658299 1.28072 0
M  V30 5915 H 577.458 -3.71417 1.99067 0
M  V30 5916 H 576.182 -3.14328 0.886891 0
M  V30 5917 H 574.841 -2.30741 2.84876 0
M  V30 5918 H 574.489 -4.62505 1.97732 0
M  V30 5919 H 574.189 -4.53929 3.73125 0
M  V30 5920 H 575.713 -5.24655 3.12362 0
M  V30 5921 H 577.127 -3.48226 4.55425 0
M  V30 5922 H 575.524 -3.01188 5.19043 0
M  V30 5923 H 576.594 -1.7706 4.51418 0
M  V30 5924 N 577.937 -1.40673 -0.710563 0
M  V30 5925 C 579.162 -1.42741 -1.50465 0
M  V30 5926 C 579.587 -0.0302116 -1.88076 0
M  V30 5927 O 578.945 0.962945 -1.53613 0
M  V30 5928 C 578.993 -2.32873 -2.75322 0
M  V30 5929 O 578.097 -1.77544 -3.72226 0
M  V30 5930 H 577.438 -0.485056 -0.45345 0
M  V30 5931 H 579.968 -1.84961 -0.874681 0
M  V30 5932 H 579.978 -2.48233 -3.23797 0
M  V30 5933 H 578.653 -3.34401 -2.47283 0
M  V30 5934 H 577.23 -1.71556 -3.31093 0
M  V30 5935 N 579.415 0.9433 -1.26252 0
M  V30 5936 C 580.348 2.04162 -1.01946 0
M  V30 5937 C 581.326 1.62507 0.0550808 0
M  V30 5938 O 582.51 1.883 -0.0869025 0
M  V30 5939 C 579.637 3.34313 -0.54335 0
M  V30 5940 C 578.683 3.94939 -1.61013 0
M  V30 5941 S 579.516 4.29484 -3.19849 0
M  V30 5942 C 580.672 5.62738 -2.74001 0
M  V30 5943 H 580.905 2.24466 -1.94942 0
M  V30 5944 H 578.438 1.08441 -1.09909 0
M  V30 5945 H 580.396 4.09576 -0.275315 0
M  V30 5946 H 579.057 3.11957 0.36629 0
M  V30 5947 H 578.25 4.88812 -1.22795 0
M  V30 5948 H 577.852 3.26202 -1.82943 0
M  V30 5949 H 580.144 6.41356 -2.18333 0
M  V30 5950 H 581.087 6.05839 -3.66558 0
M  V30 5951 H 581.495 5.22514 -2.13634 0
M  V30 5952 N 580.893 1.08022 1.14757 0
M  V30 5953 C 581.841 0.701088 2.21783 0
M  V30 5954 C 582.835 -0.291311 1.66876 0
M  V30 5955 O 584.041 -0.154296 1.79337 0
M  V30 5956 H 580.416 0.208668 0.722469 0
M  V30 5957 H 582.387 1.61321 2.51034 0
M  V30 5958 C 581.136 0.122278 3.47485 0
M  V30 5959 H 580.459 0.877065 3.90061 0
M  V30 5960 H 581.899 -0.105248 4.23869 0
M  V30 5961 C 580.358 -1.13883 3.17068 0
M  V30 5962 O 580.888 -2.22429 3.34497 0
M  V30 5963 N 579.094 -1.04767 2.71058 0
M  V30 5964 H 578.641 -0.164302 2.57075 0
M  V30 5965 H 578.599 -1.89224 2.51081 0
M  V30 5966 N 582.371 -1.3172 0.865308 0
M  V30 5967 C 583.62 -1.96145 0.470098 0
M  V30 5968 C 583.933 -1.69182 -0.981674 0
M  V30 5969 O 585.139 -2.27431 -1.48281 0
M  V30 5970 C 583.595 -3.51129 0.789732 0
M  V30 5971 C 583.203 -3.86938 2.25795 0
M  V30 5972 C 584.947 -4.2197 0.462765 0
M  V30 5973 C 582.854 -5.35012 2.52024 0
M  V30 5974 H 581.784 -0.734105 0.172065 0
M  V30 5975 H 584.435 -1.49959 1.05757 0
M  V30 5976 H 582.817 -3.95781 0.131571 0
M  V30 5977 H 583.991 -3.5326 2.95879 0
M  V30 5978 H 582.306 -3.29149 2.55049 0
M  V30 5979 H 584.903 -5.30904 0.636019 0
M  V30 5980 H 585.246 -4.12005 -0.59645 0
M  V30 5981 H 585.779 -3.82936 1.07727 0
M  V30 5982 H 582.518 -5.50008 3.56611 0
M  V30 5983 H 582.038 -5.70058 1.8653 0
M  V30 5984 H 583.717 -6.0222 2.36515 0
M  V30 5985 N 583.85 -0.624285 -1.44708 0
M  V30 5986 C 585.096 -0.126237 -2.02407 0
M  V30 5987 C 585.428 1.24618 -1.48943 0
M  V30 5988 O 584.704 1.82569 -0.670742 0
M  V30 5989 C 584.986 -0.105449 -3.59946 0
M  V30 5990 C 584.84 -1.50972 -4.23707 0
M  V30 5991 C 586.159 0.573629 -4.36346 0
M  V30 5992 H 583.278 -0.0473472 -0.735478 0
M  V30 5993 H 585.92 -0.799452 -1.72362 0
M  V30 5994 H 584.07 0.46783 -3.85673 0
M  V30 5995 H 585.742 -2.13136 -4.0911 0
M  V30 5996 H 583.985 -2.0656 -3.81465 0
M  V30 5997 H 584.656 -1.44727 -5.32689 0
M  V30 5998 H 587.132 0.0861787 -4.16011 0
M  V30 5999 H 586.008 0.557338 -5.46063 0
M  V30 6000 H 586.269 1.64276 -4.10446 0
M  V30 6001 N 585.328 1.53329 -0.364422 0
M  V30 6002 C 586.26 2.23286 0.517293 0
M  V30 6003 C 587.273 1.24657 1.04711 0
M  V30 6004 O 588.462 1.50887 0.95369 0
M  V30 6005 C 585.562 2.91604 1.72685 0
M  V30 6006 C 584.735 4.1673 1.32873 0
M  V30 6007 C 583.794 4.68269 2.40022 0
M  V30 6008 O 582.82 5.31976 2.02461 0
M  V30 6009 N 584.022 4.45983 3.7159 0
M  V30 6010 H 586.787 2.99588 -0.0819391 0
M  V30 6011 H 584.348 1.60787 -0.189544 0
M  V30 6012 H 586.34 3.22992 2.4384 0
M  V30 6013 H 584.91 2.18763 2.23297 0
M  V30 6014 H 584.13 3.91657 0.447069 0
M  V30 6015 H 585.418 4.98078 1.03902 0
M  V30 6016 H 584.816 3.95077 4.04883 0
M  V30 6017 H 583.373 4.81924 4.38854 0
M  V30 6018 N 586.806 0.0935595 1.57322 0
M  V30 6019 C 587.736 -0.863062 2.16964 0
M  V30 6020 C 588.717 -1.29528 1.10256 0
M  V30 6021 O 589.902 -1.36245 1.38387 0
M  V30 6022 C 587.032 -2.12276 2.74875 0
M  V30 6023 C 585.986 -1.82921 3.86942 0
M  V30 6024 C 585.312 -3.15707 4.31548 0
M  V30 6025 C 586.612 -1.11737 5.10208 0
M  V30 6026 H 588.306 -0.366145 2.97153 0
M  V30 6027 H 585.852 -0.174673 1.42937 0
M  V30 6028 H 587.805 -2.79634 3.1525 0
M  V30 6029 H 586.529 -2.64248 1.91938 0
M  V30 6030 H 585.188 -1.17961 3.47103 0
M  V30 6031 H 584.836 -3.65563 3.45504 0
M  V30 6032 H 584.536 -2.96849 5.07104 0
M  V30 6033 H 586.06 -3.84226 4.74555 0
M  V30 6034 H 587.474 -1.69203 5.47762 0
M  V30 6035 H 585.871 -1.03064 5.91183 0
M  V30 6036 H 586.941 -0.0998818 4.84797 0
M  V30 6037 N 588.284 -1.56567 -0.180126 0
M  V30 6038 C 589.695 -1.7126 -0.743422 0
M  V30 6039 C 590.046 -0.70263 -1.83187 0
M  V30 6040 O 589.171 0.137856 -2.1596 0
M  V30 6041 C 589.766 -3.10512 -1.35528 0
M  V30 6042 C 588.325 -3.26919 -1.8655 0
M  V30 6043 C 587.472 -2.67213 -0.741099 0
M  V30 6044 H 590.423 -1.58636 0.0451543 0
M  V30 6045 H 590.444 -3.08673 -2.22489 0
M  V30 6046 H 589.956 -3.83997 -0.562862 0
M  V30 6047 H 588.057 -2.58376 -2.68464 0
M  V30 6048 H 588.17 -4.34574 -2.01699 0
M  V30 6049 H 586.534 -2.26788 -1.15927 0
M  V30 6050 H 587.317 -3.43277 0.0393291 0
M  V30 6051 N 589.762 0.448376 -1.51087 0
M  V30 6052 C 591.01 1.19635 -1.62886 0
M  V30 6053 C 591.331 1.91977 -0.342024 0
M  V30 6054 O 590.601 1.85094 0.641636 0
M  V30 6055 H 589.181 0.444598 -0.600285 0
M  V30 6056 H 591.843 0.515138 -1.87969 0
M  V30 6057 H 590.939 1.93194 -2.45117 0
M  V30 6058 N 591.24 1.41047 0.703093 0
M  V30 6059 C 592.173 1.36713 1.82715 0
M  V30 6060 C 593.151 0.235533 1.60885 0
M  V30 6061 O 594.335 0.421227 1.83733 0
M  V30 6062 C 591.462 1.13069 3.1927 0
M  V30 6063 C 590.508 2.28846 3.59905 0
M  V30 6064 S 591.341 3.91297 3.65578 0
M  V30 6065 C 592.497 3.69941 5.04871 0
M  V30 6066 H 592.73 2.31838 1.86114 0
M  V30 6067 H 590.263 1.27481 0.871083 0
M  V30 6068 H 592.221 1.00113 3.98105 0
M  V30 6069 H 590.882 0.195763 3.13489 0
M  V30 6070 H 590.075 2.07977 4.59088 0
M  V30 6071 H 589.677 2.3817 2.88359 0
M  V30 6072 H 591.969 3.29181 5.92154 0
M  V30 6073 H 592.912 4.68699 5.30779 0
M  V30 6074 H 593.32 3.03369 4.76054 0
M  V30 6075 N 592.718 -0.936591 1.26751 0
M  V30 6076 C 593.966 -1.67998 1.12343 0
M  V30 6077 C 594.287 -1.92137 -0.332938 0
M  V30 6078 O 593.557 -1.52132 -1.23421 0
M  V30 6079 H 592.137 -0.622609 0.412756 0
M  V30 6080 H 594.799 -1.12509 1.59147 0
M  V30 6081 H 593.895 -2.65185 1.64571 0
M  V30 6082 N 594.196 -1.08629 -1.14182 0
M  V30 6083 C 595.444 -0.815731 -1.84906 0
M  V30 6084 C 595.765 0.660441 -1.83475 0
M  V30 6085 O 595.035 1.47888 -1.28476 0
M  V30 6086 H 593.615 -0.298773 -0.684648 0
M  V30 6087 H 596.277 -1.37274 -1.38354 0
M  V30 6088 H 595.373 -1.16193 -2.89665 0
M  V30 6089 N 595.674 1.31259 -0.872281 0
M  V30 6090 C 596.92 1.96913 -0.485083 0
M  V30 6091 C 597.253 1.68774 0.960667 0
M  V30 6092 O 596.528 0.985495 1.67685 0
M  V30 6093 C 596.811 3.52299 -0.745502 0
M  V30 6094 C 596.664 3.90002 -2.24095 0
M  V30 6095 C 597.983 4.39582 -0.213516 0
M  V30 6096 H 595.102 0.715252 -0.177716 0
M  V30 6097 H 597.744 1.55347 -1.09395 0
M  V30 6098 H 595.894 3.87835 -0.227276 0
M  V30 6099 H 597.566 3.64555 -2.82661 0
M  V30 6100 H 595.809 3.38526 -2.71261 0
M  V30 6101 H 596.48 4.98352 -2.37381 0
M  V30 6102 H 598.956 4.10882 -0.656902 0
M  V30 6103 H 597.832 5.47251 -0.42516 0
M  V30 6104 H 598.093 4.33158 0.884666 0
M  V30 6105 N 597.152 0.631951 1.44375 0
M  V30 6106 C 598.399 0.136767 2.02038 0
M  V30 6107 C 598.727 -1.24168 1.49709 0
M  V30 6108 O 597.982 -1.83809 0.671763 0
M  V30 6109 C 598.281 0.0735861 3.57324 0
M  V30 6110 C 597.947 1.39092 4.28911 0
M  V30 6111 C 596.609 1.75171 4.48184 0
M  V30 6112 C 598.961 2.26042 4.69632 0
M  V30 6113 C 596.289 2.97907 5.05439 0
M  V30 6114 C 598.641 3.4805 5.28246 0
M  V30 6115 C 597.305 3.84351 5.45738 0
M  V30 6116 H 596.575 0.0500466 0.739308 0
M  V30 6117 H 599.222 0.818429 1.7313 0
M  V30 6118 H 597.527 -0.691449 3.8565 0
M  V30 6119 H 599.224 -0.326091 3.99672 0
M  V30 6120 H 595.814 1.10015 4.1424 0
M  V30 6121 H 599.998 1.99463 4.54454 0
M  V30 6122 H 595.254 3.26108 5.17169 0
M  V30 6123 H 599.428 4.15658 5.5875 0
M  V30 6124 H 597.055 4.79538 5.8987 0
M  V30 6125 N 598.631 -1.53133 0.372548 0
M  V30 6126 C 600.047 -1.59585 0.02178 0
M  V30 6127 C 600.247 -1.38736 -1.46132 0
M  V30 6128 O 599.303 -1.19599 -2.22379 0
M  V30 6129 C 600.616 -2.9678 0.483959 0
M  V30 6130 C 602.164 -3.09909 0.438775 0
M  V30 6131 C 602.639 -4.49527 0.876876 0
M  V30 6132 N 604.13 -4.55663 0.832214 0
M  V30 6133 C 604.865 -5.61896 1.14281 0
M  V30 6134 N 604.361 -6.75852 1.52303 0
M  V30 6135 N 606.154 -5.51916 1.06515 0
M  V30 6136 H 598.305 -1.64936 1.33827 0
M  V30 6137 H 600.568 -0.773947 0.547458 0
M  V30 6138 H 600.274 -3.17198 1.51915 0
M  V30 6139 H 600.148 -3.7699 -0.125784 0
M  V30 6140 H 602.535 -2.89197 -0.587294 0
M  V30 6141 H 602.616 -2.31691 1.0841 0
M  V30 6142 H 602.26 -4.70979 1.90109 0
M  V30 6143 H 602.19 -5.26186 0.208727 0
M  V30 6144 H 604.681 -3.73844 0.552195 0
M  V30 6145 H 604.994 -7.52862 1.7441 0
M  V30 6146 H 603.339 -6.77226 1.56175 0
M  V30 6147 H 606.53 -4.6177 0.767235 0
M  V30 6148 H 606.703 -6.34609 1.31053 0
M  V30 6149 N 600.109 -0.101901 -1.5727 0
M  V30 6150 C 601.358 0.559922 -1.93772 0
M  V30 6151 C 601.671 1.68913 -0.98629 0
M  V30 6152 O 602.877 2.41256 -1.24529 0
M  V30 6153 C 601.333 1.04739 -3.44322 0
M  V30 6154 C 600.941 -0.05243 -4.47969 0
M  V30 6155 C 602.685 1.68157 -3.89774 0
M  V30 6156 C 600.592 0.450781 -5.8968 0
M  V30 6157 H 599.522 0.212931 -0.723309 0
M  V30 6158 H 602.173 -0.179001 -1.82625 0
M  V30 6159 H 600.555 1.84021 -3.50645 0
M  V30 6160 H 601.729 -0.828157 -4.53297 0
M  V30 6161 H 600.044 -0.592202 -4.12167 0
M  V30 6162 H 602.641 2.0689 -4.93052 0
M  V30 6163 H 602.984 2.55338 -3.28798 0
M  V30 6164 H 603.517 0.954453 -3.8618 0
M  V30 6165 H 600.256 -0.38458 -6.54371 0
M  V30 6166 H 599.776 1.19336 -5.87809 0
M  V30 6167 H 601.455 0.917555 -6.40461 0
M  V30 6168 N 601.587 1.56661 0.17182 0
M  V30 6169 C 602.55 1.9549 1.19651 0
M  V30 6170 C 603.55 0.838501 1.37207 0
M  V30 6171 O 604.74 1.10556 1.34622 0
M  V30 6172 C 601.872 2.24927 2.56166 0
M  V30 6173 H 603.065 2.87184 0.864007 0
M  V30 6174 H 600.618 1.50711 0.41425 0
M  V30 6175 H 601.353 1.35944 2.94431 0
M  V30 6176 H 601.138 3.06301 2.4479 0
M  V30 6177 H 602.628 2.55891 3.30014 0
M  V30 6178 N 603.065 -0.440357 1.51323 0
M  V30 6179 C 604.476 -1.02032 1.56353 0
M  V30 6180 C 604.827 -1.92382 0.385197 0
M  V30 6181 O 603.952 -2.10583 -0.498373 0
M  V30 6182 C 604.547 -1.85723 2.83359 0
M  V30 6183 C 603.106 -2.38774 2.90971 0
M  V30 6184 C 602.253 -1.17908 2.50984 0
M  V30 6185 H 605.204 -0.221744 1.57143 0
M  V30 6186 H 605.225 -2.71141 2.66951 0
M  V30 6187 H 604.737 -1.19939 3.69102 0
M  V30 6188 H 602.838 -3.08021 2.09651 0
M  V30 6189 H 602.951 -2.71778 3.94555 0
M  V30 6190 H 601.315 -1.52347 2.04114 0
M  V30 6191 H 602.098 -0.537393 3.39068 0
M  V30 6192 N 604.543 -1.41418 -0.695603 0
M  V30 6193 C 605.954 -1.36335 -1.27552 0
M  V30 6194 C 606.305 -0.0464336 -1.96145 0
M  V30 6195 O 605.43 0.855304 -1.9878 0
M  V30 6196 C 606.025 -2.46941 -2.3196 0
M  V30 6197 C 604.584 -2.45256 -2.85529 0
M  V30 6198 C 603.731 -2.2679 -1.59566 0
M  V30 6199 H 606.682 -1.50934 -0.490362 0
M  V30 6200 H 606.703 -2.15997 -3.1325 0
M  V30 6201 H 606.215 -3.42775 -1.82008 0
M  V30 6202 H 604.316 -1.53179 -3.39657 0
M  V30 6203 H 604.429 -3.41565 -3.35961 0
M  V30 6204 H 602.793 -1.74667 -1.85374 0
M  V30 6205 H 603.576 -3.24651 -1.1161 0
M  V30 6206 N 606.021 0.929856 -1.27246 0
M  V30 6207 C 606.951 2.04722 -1.12299 0
M  V30 6208 C 607.932 1.70082 -0.0250464 0
M  V30 6209 O 609.117 1.93176 -0.199141 0
M  V30 6210 C 606.247 3.38721 -0.767145 0
M  V30 6211 C 605.201 3.87466 -1.81808 0
M  V30 6212 C 604.527 5.18246 -1.31626 0
M  V30 6213 C 605.827 4.11095 -3.22177 0
M  V30 6214 H 607.521 2.17485 -2.05769 0
M  V30 6215 H 605.067 1.04503 -0.990715 0
M  V30 6216 H 607.02 4.16366 -0.649413 0
M  V30 6217 H 605.744 3.25967 0.203259 0
M  V30 6218 H 604.403 3.12012 -1.92468 0
M  V30 6219 H 604.051 5.01881 -0.335378 0
M  V30 6220 H 603.751 5.51829 -2.01887 0
M  V30 6221 H 605.275 5.98462 -1.21143 0
M  V30 6222 H 606.689 4.79316 -3.1453 0
M  V30 6223 H 605.086 4.55982 -3.90129 0
M  V30 6224 H 606.156 3.16468 -3.67391 0
M  V30 6225 N 607.499 1.09233 1.13605 0
M  V30 6226 C 608.727 0.848908 1.88683 0
M  V30 6227 C 609.142 -0.599667 1.79024 0
M  V30 6228 O 608.499 -1.41265 1.15544 0
M  V30 6229 C 608.55 1.27273 3.38355 0
M  V30 6230 O 608.271 2.66449 3.47759 0
M  V30 6231 C 609.772 1.0614 4.30406 0
M  V30 6232 H 606.992 0.305549 0.597395 0
M  V30 6233 H 609.536 1.4538 1.43823 0
M  V30 6234 H 607.691 0.711776 3.80805 0
M  V30 6235 H 608.105 2.84264 4.40788 0
M  V30 6236 H 609.579 1.40725 5.33761 0
M  V30 6237 H 610.056 -0.000960332 4.392 0
M  V30 6238 H 610.662 1.60821 3.93722 0
M  V30 6239 N 608.977 -1.30795 0.87923 0
M  V30 6240 C 610.223 -1.96653 0.495519 0
M  V30 6241 C 610.556 -1.69282 -0.951703 0
M  V30 6242 O 609.831 -0.994374 -1.6716 0
M  V30 6243 C 610.114 -3.51898 0.764174 0
M  V30 6244 C 609.967 -3.88808 2.2616 0
M  V30 6245 C 611.286 -4.39462 0.236825 0
M  V30 6246 H 608.405 -0.7143 0.181507 0
M  V30 6247 H 611.047 -1.54765 1.10217 0
M  V30 6248 H 609.197 -3.87709 0.247841 0
M  V30 6249 H 610.869 -3.63051 2.8459 0
M  V30 6250 H 609.112 -3.37082 2.73053 0
M  V30 6251 H 609.783 -4.97086 2.4002 0
M  V30 6252 H 612.259 -4.10528 0.678683 0
M  V30 6253 H 611.135 -5.47018 0.454176 0
M  V30 6254 H 611.396 -4.33621 -0.861683 0
M  V30 6255 N 610.455 -0.639598 -1.44038 0
M  V30 6256 C 611.68 -0.153117 -2.06834 0
M  V30 6257 C 612.105 1.16676 -1.47541 0
M  V30 6258 O 611.463 1.71769 -0.580093 0
M  V30 6259 C 611.511 -0.0609169 -3.60549 0
M  V30 6260 O 610.615 0.98071 -4.00569 0
M  V30 6261 H 609.956 -0.0886402 -0.658057 0
M  V30 6262 H 612.486 -0.878674 -1.84771 0
M  V30 6263 H 612.496 0.126892 -4.07803 0
M  V30 6264 H 611.171 -1.0245 -4.03084 0
M  V30 6265 H 609.748 0.766789 -3.64931 0
M  V30 6266 N 611.933 1.52934 -0.380664 0
M  V30 6267 C 612.843 2.29921 0.466192 0
M  V30 6268 C 613.859 1.36488 1.07922 0
M  V30 6269 O 615.035 1.69553 1.0869 0
M  V30 6270 C 612.1 3.08468 1.58266 0
M  V30 6271 C 611.161 4.17595 0.995627 0
M  V30 6272 C 610.394 4.92387 2.05889 0
M  V30 6273 O 610.617 4.67184 3.27254 0
M  V30 6274 O 609.551 5.77949 1.68102 0
M  V30 6275 H 613.377 3.03274 -0.160735 0
M  V30 6276 H 610.962 1.48698 -0.144617 0
M  V30 6277 H 612.844 3.57469 2.23145 0
M  V30 6278 H 611.519 2.37937 2.19471 0
M  V30 6279 H 610.426 3.72811 0.310332 0
M  V30 6280 H 611.759 4.90336 0.427918 0
M  V30 6281 N 613.412 0.11024 1.57214 0
M  V30 6282 C 614.689 -0.592956 1.86396 0
M  V30 6283 C 615.069 -1.85379 1.00985 0
M  V30 6284 O 614.417 -2.28337 0.0863592 0
M  V30 6285 C 614.627 -0.893816 3.3736 0
M  V30 6286 C 615.975 -1.25069 4.05762 0
M  V30 6287 O 616.999 -0.984356 3.42329 0
M  V30 6288 O 615.858 -1.75017 5.17718 0
M  V30 6289 H 612.952 -0.29828 0.771335 0
M  V30 6290 H 615.498 0.144083 1.69087 0
M  V30 6291 H 614.27 2.6031e-05 3.913 0
M  V30 6292 H 613.893 -1.68631 3.60068 0
M  V30 6293 N 614.89 -1.56749 -0.16351 0
M  V30 6294 C 615.8 -2.00255 -1.2221 0
M  V30 6295 C 616.816 -0.915194 -1.47987 0
M  V30 6296 O 617.992 -1.22342 -1.59982 0
M  V30 6297 C 615.057 -2.36035 -2.53946 0
M  V30 6298 C 614.118 -3.58637 -2.35962 0
M  V30 6299 C 613.351 -3.92701 -3.61416 0
M  V30 6300 O 613.574 -3.27632 -4.66919 0
M  V30 6301 O 612.508 -4.86019 -3.55062 0
M  V30 6302 H 616.334 -2.90586 -0.882794 0
M  V30 6303 H 613.919 -1.44721 -0.370978 0
M  V30 6304 H 615.801 -2.59982 -3.31643 0
M  V30 6305 H 614.476 -1.48863 -2.8744 0
M  V30 6306 H 613.383 -3.39898 -1.5627 0
M  V30 6307 H 614.716 -4.46374 -2.0739 0
M  V30 6308 N 616.368 0.432326 -1.51554 0
M  V30 6309 C 617.617 1.17831 -1.63703 0
M  V30 6310 C 617.93 1.92229 -0.36156 0
M  V30 6311 O 619.136 2.69069 -0.362495 0
M  V30 6312 C 617.592 2.14318 -2.89129 0
M  V30 6313 C 617.2 1.45544 -4.23699 0
M  V30 6314 C 618.944 2.89319 -3.10636 0
M  V30 6315 C 616.851 2.40545 -5.4027 0
M  V30 6316 H 615.781 0.443533 -0.60975 0
M  V30 6317 H 618.432 0.444878 -1.78026 0
M  V30 6318 H 616.814 2.91117 -2.68452 0
M  V30 6319 H 617.988 0.742693 -4.54775 0
M  V30 6320 H 616.303 0.826772 -4.0811 0
M  V30 6321 H 618.9 3.60495 -3.94902 0
M  V30 6322 H 619.243 3.50951 -2.23918 0
M  V30 6323 H 619.776 2.19625 -3.31677 0
M  V30 6324 H 616.515 1.83594 -6.29264 0
M  V30 6325 H 616.035 3.09859 -5.13563 0
M  V30 6326 H 617.714 3.01569 -5.72421 0
M  V30 6327 N 617.846 1.41785 0.688094 0
M  V30 6328 C 619.123 1.32031 1.44316 0
M  V30 6329 C 619.503 -0.0486079 2.11044 0
M  V30 6330 O 618.851 -1.06332 2.02252 0
M  V30 6331 C 619.061 2.47906 2.45649 0
M  V30 6332 C 620.409 2.89415 3.10683 0
M  V30 6333 O 621.433 2.477 2.55975 0
M  V30 6334 O 620.292 3.61573 4.09789 0
M  V30 6335 H 617.386 0.519994 0.643067 0
M  V30 6336 H 619.932 1.53765 0.71794 0
M  V30 6337 H 618.704 3.39222 1.95048 0
M  V30 6338 H 618.327 2.28089 3.25671 0
M  V30 6339 N 619.324 -0.923095 1.27737 0
M  V30 6340 C 620.254 -2.04124 1.13383 0
M  V30 6341 C 621.235 -1.70066 0.0340658 0
M  V30 6342 O 622.42 -1.93068 0.209383 0
M  V30 6343 C 619.55 -3.3831 0.785097 0
M  V30 6344 C 618.504 -3.86496 1.8386 0
M  V30 6345 C 617.83 -5.1754 1.34373 0
M  V30 6346 C 619.13 -4.09381 3.24353 0
M  V30 6347 H 620.824 -2.1639 2.06919 0
M  V30 6348 H 618.37 -1.03976 0.996243 0
M  V30 6349 H 620.323 -4.16016 0.671485 0
M  V30 6350 H 619.047 -3.2607 -0.185969 0
M  V30 6351 H 617.706 -3.10987 1.9412 0
M  V30 6352 H 617.354 -5.01696 0.361989 0
M  V30 6353 H 617.054 -5.50751 2.04811 0
M  V30 6354 H 618.578 -5.97811 1.24315 0
M  V30 6355 H 619.992 -4.77641 3.17067 0
M  V30 6356 H 618.389 -4.53906 3.92542 0
M  V30 6357 H 619.459 -3.14515 3.69064 0
M  V30 6358 N 620.802 -1.09834 -1.13024 0
M  V30 6359 C 622.05 -0.835297 -1.8403 0
M  V30 6360 C 622.371 0.640944 -1.84165 0
M  V30 6361 O 621.641 1.46517 -1.30037 0
M  V30 6362 H 620.221 -0.306018 -0.681441 0
M  V30 6363 H 622.883 -1.38734 -1.36891 0
M  V30 6364 H 621.979 -1.19258 -2.88416 0
M  V30 6365 N 622.28 1.30327 -0.886154 0
M  V30 6366 C 623.21 2.30549 -0.370028 0
M  V30 6367 C 624.191 1.61039 0.547751 0
M  V30 6368 O 625.376 1.8864 0.461353 0
M  V30 6369 C 622.506 3.44808 0.415275 0
M  V30 6370 C 621.46 4.26024 -0.41085 0
M  V30 6371 C 620.786 5.32347 0.501128 0
M  V30 6372 C 622.086 4.95433 -1.65359 0
M  V30 6373 H 623.78 2.73969 -1.20754 0
M  V30 6374 H 621.326 1.3171 -0.582097 0
M  V30 6375 H 623.279 4.13986 0.78699 0
M  V30 6376 H 622.003 3.00197 1.28644 0
M  V30 6377 H 620.662 3.58535 -0.764719 0
M  V30 6378 H 620.31 4.83982 1.37004 0
M  V30 6379 H 620.01 5.87581 -0.0478356 0
M  V30 6380 H 621.534 6.0438 0.869333 0
M  V30 6381 H 622.948 5.5712 -1.35239 0
M  V30 6382 H 621.345 5.60537 -2.14284 0
M  V30 6383 H 622.415 4.21493 -2.39733 0
M  V30 6384 N 623.758 0.647228 1.43697 0
M  V30 6385 C 624.983 0.164083 2.0675 0
M  V30 6386 C 625.408 -1.15892 1.48158 0
M  V30 6387 O 624.766 -1.71459 0.589194 0
M  V30 6388 C 624.814 0.0800368 3.60511 0
M  V30 6389 O 623.918 -0.959453 4.01084 0
M  V30 6390 H 623.259 0.0921288 0.657578 0
M  V30 6391 H 625.789 0.88846 1.84303 0
M  V30 6392 H 625.799 -0.105263 4.07864 0
M  V30 6393 H 624.474 1.04586 4.02535 0
M  V30 6394 H 623.051 -0.747425 3.65333 0
M  V30 6395 N 625.236 -1.5273 0.388769 0
M  V30 6396 C 626.166 -2.29353 -0.438111 0
M  V30 6397 C 627.147 -1.32719 -1.06394 0
M  V30 6398 O 628.332 -1.61612 -1.07681 0
M  V30 6399 C 625.462 -3.09995 -1.56589 0
M  V30 6400 C 624.416 -4.14509 -1.06613 0
M  V30 6401 C 623.742 -4.83372 -2.28594 0
M  V30 6402 C 625.042 -5.22127 -0.134459 0
M  V30 6403 H 626.736 -2.98723 0.201206 0
M  V30 6404 H 624.282 -1.43665 0.0982089 0
M  V30 6405 H 626.235 -3.62357 -2.15118 0
M  V30 6406 H 624.959 -2.38357 -2.23279 0
M  V30 6407 H 623.618 -3.63128 -0.503383 0
M  V30 6408 H 623.266 -4.08283 -2.93792 0
M  V30 6409 H 622.966 -5.54012 -1.95817 0
M  V30 6410 H 624.49 -5.38538 -2.87766 0
M  V30 6411 H 625.904 -5.69851 -0.627914 0
M  V30 6412 H 624.301 -6.00011 0.103534 0
M  V30 6413 H 625.371 -4.77971 0.816798 0
M  V30 6414 N 626.714 -0.118576 -1.57153 0
M  V30 6415 C 627.644 0.828436 -2.1831 0
M  V30 6416 C 628.625 1.27758 -1.12303 0
M  V30 6417 O 629.81 1.34026 -1.40537 0
M  V30 6418 C 626.94 2.07876 -2.78217 0
M  V30 6419 C 625.894 1.76742 -3.89803 0
M  V30 6420 C 625.22 3.08801 -4.36516 0
M  V30 6421 C 626.52 1.03606 -5.11921 0
M  V30 6422 H 628.214 0.318824 -2.97698 0
M  V30 6423 H 625.76 0.151911 -1.43196 0
M  V30 6424 H 627.713 2.74584 -3.19659 0
M  V30 6425 H 626.437 2.61161 -1.96118 0
M  V30 6426 H 625.096 1.12424 -3.48936 0
M  V30 6427 H 624.744 3.6002 -3.51276 0
M  V30 6428 H 624.444 2.88743 -5.11763 0
M  V30 6429 H 625.968 3.76627 -4.80608 0
M  V30 6430 H 627.382 1.60467 -5.50385 0
M  V30 6431 H 625.779 0.936454 -5.92748 0
M  V30 6432 H 626.849 0.0227421 -4.84895 0
M  V30 6433 N 628.193 1.56834 0.155195 0
M  V30 6434 C 629.441 1.82536 0.867462 0
M  V30 6435 C 629.762 0.698168 1.82073 0
M  V30 6436 O 629.032 -0.280807 1.93877 0
M  V30 6437 H 627.612 0.673401 0.323327 0
M  V30 6438 H 630.274 1.94313 0.151156 0
M  V30 6439 H 629.37 2.77171 1.43466 0
M  V30 6440 N 629.671 -0.424282 1.51781 0
M  V30 6441 C 630.603 -1.53457 1.70246 0
M  V30 6442 C 631.616 -1.52004 0.582967 0
M  V30 6443 O 632.805 -1.56544 0.857683 0
M  V30 6444 C 629.905 -2.92368 1.71389 0
M  V30 6445 C 629.078 -3.1818 3.00133 0
M  V30 6446 C 628.137 -4.36884 2.9329 0
M  V30 6447 O 627.163 -4.34901 3.67219 0
M  V30 6448 N 628.365 -5.4117 2.10036 0
M  V30 6449 H 631.13 -1.38017 2.66029 0
M  V30 6450 H 628.691 -0.613394 1.4983 0
M  V30 6451 H 630.683 -3.6982 1.64362 0
M  V30 6452 H 629.253 -3.0134 0.831449 0
M  V30 6453 H 628.473 -2.28908 3.20928 0
M  V30 6454 H 629.761 -3.32261 3.85331 0
M  V30 6455 H 629.159 -5.45623 1.49373 0
M  V30 6456 H 627.716 -6.17425 2.08878 0
M  V30 6457 N 631.149 -1.42148 -0.680565 0
M  V30 6458 C 632.112 -1.4488 -1.77602 0
M  V30 6459 C 633.112 -0.337209 -1.57224 0
M  V30 6460 O 634.302 -0.597778 -1.63622 0
M  V30 6461 C 631.434 -1.27483 -3.16166 0
M  V30 6462 H 632.627 -2.42412 -1.76568 0
M  V30 6463 H 630.18 -1.28511 -0.889645 0
M  V30 6464 H 630.915 -0.30851 -3.22829 0
M  V30 6465 H 630.7 -2.08037 -3.3236 0
M  V30 6466 H 632.19 -1.32265 -3.96101 0
M  V30 6467 N 632.627 0.916307 -1.28225 0
M  V30 6468 C 633.876 1.65975 -1.14608 0
M  V30 6469 C 634.189 1.93204 0.305191 0
M  V30 6470 O 635.395 2.65611 0.562432 0
M  V30 6471 C 633.851 2.98989 -2.00333 0
M  V30 6472 C 633.459 2.79417 -3.50186 0
M  V30 6473 C 635.203 3.76856 -1.95397 0
M  V30 6474 C 633.11 4.08056 -4.28071 0
M  V30 6475 H 632.04 0.622587 -0.425324 0
M  V30 6476 H 634.691 1.01705 -1.52736 0
M  V30 6477 H 633.073 3.6438 -1.5506 0
M  V30 6478 H 634.247 2.22723 -4.034 0
M  V30 6479 H 632.562 2.14966 -3.56621 0
M  V30 6480 H 635.159 4.72203 -2.50856 0
M  V30 6481 H 635.502 4.05776 -0.930137 0
M  V30 6482 H 636.035 3.1828 -2.38626 0
M  V30 6483 H 632.774 3.8431 -5.31024 0
M  V30 6484 H 632.294 4.64371 -3.79631 0
M  V30 6485 H 633.973 4.76333 -4.37854 0
M  V30 6486 N 634.105 1.10431 1.1244 0
M  V30 6487 C 635.015 0.765502 2.21759 0
M  V30 6488 C 636.031 -0.236966 1.72379 0
M  V30 6489 O 637.207 -0.0757329 2.01258 0
M  V30 6490 C 634.272 0.202316 3.46109 0
M  V30 6491 C 633.333 1.26205 4.1033 0
M  V30 6492 C 632.566 0.725648 5.28744 0
M  V30 6493 O 632.789 -0.447942 5.68638 0
M  V30 6494 O 631.723 1.48555 5.83279 0
M  V30 6495 H 635.549 1.67801 2.53133 0
M  V30 6496 H 633.134 0.879443 1.20773 0
M  V30 6497 H 635.016 -0.107918 4.21262 0
M  V30 6498 H 633.691 -0.683052 3.16411 0
M  V30 6499 H 632.598 1.62514 3.36957 0
M  V30 6500 H 633.931 2.12044 4.44183 0
M  V30 6501 N 635.583 -1.29855 0.893053 0
M  V30 6502 C 636.999 -1.48366 0.588199 0
M  V30 6503 C 637.199 -1.81654 -0.872018 0
M  V30 6504 O 636.255 -1.909 -1.65268 0
M  V30 6505 C 637.568 -2.60136 1.5083 0
M  V30 6506 C 639.116 -2.74014 1.51279 0
M  V30 6507 C 639.591 -3.88905 2.41902 0
M  V30 6508 N 641.082 -3.96228 2.39911 0
M  V30 6509 C 641.817 -4.84458 3.06738 0
M  V30 6510 N 641.313 -5.77426 3.8282 0
M  V30 6511 N 643.106 -4.77894 2.95929 0
M  V30 6512 H 635.257 -1.06522 1.83757 0
M  V30 6513 H 637.52 -0.528495 0.787018 0
M  V30 6514 H 637.226 -2.42383 2.54839 0
M  V30 6515 H 637.1 -3.56793 1.22388 0
M  V30 6516 H 639.487 -2.91167 0.480179 0
M  V30 6517 H 639.568 -1.77952 1.83757 0
M  V30 6518 H 639.212 -3.72508 3.45253 0
M  V30 6519 H 639.142 -4.84322 2.06737 0
M  V30 6520 H 641.633 -3.29728 1.84629 0
M  V30 6521 H 641.946 -6.41529 4.30883 0
M  V30 6522 H 640.291 -5.77332 3.86927 0
M  V30 6523 H 643.482 -4.04248 2.36012 0
M  V30 6524 H 643.655 -5.46444 3.48286 0
M  V30 6525 N 637.061 -0.65484 -1.43351 0
M  V30 6526 C 638.024 0.0263562 -2.29185 0
M  V30 6527 C 639.024 0.748951 -1.42293 0
M  V30 6528 O 640.214 0.589957 -1.63906 0
M  V30 6529 C 637.346 1.04806 -3.2439 0
M  V30 6530 H 638.539 -0.728883 -2.90908 0
M  V30 6531 H 636.092 -0.416149 -1.50658 0
M  V30 6532 H 636.827 1.83247 -2.67565 0
M  V30 6533 H 636.612 0.533554 -3.88453 0
M  V30 6534 H 638.102 1.52372 -3.88809 0
M  V30 6535 N 638.539 1.52521 -0.396863 0
M  V30 6536 C 639.469 2.29582 0.425941 0
M  V30 6537 C 640.45 1.33281 1.05689 0
M  V30 6538 O 641.635 1.62181 1.06823 0
M  V30 6539 C 638.765 3.10821 1.54943 0
M  V30 6540 C 637.719 4.15069 1.04413 0
M  V30 6541 C 637.045 4.84578 2.26028 0
M  V30 6542 C 638.345 5.22191 0.106767 0
M  V30 6543 H 640.039 2.98612 -0.217045 0
M  V30 6544 H 637.585 1.43611 -0.105826 0
M  V30 6545 H 639.538 3.63492 2.13193 0
M  V30 6546 H 638.262 2.39538 2.22011 0
M  V30 6547 H 636.921 3.63389 0.484118 0
M  V30 6548 H 636.569 4.09835 2.91623 0
M  V30 6549 H 636.269 5.55043 1.92876 0
M  V30 6550 H 637.793 5.40056 2.84906 0
M  V30 6551 H 639.207 5.70176 0.597685 0
M  V30 6552 H 637.604 5.99947 -0.135352 0
M  V30 6553 H 638.674 4.77531 -0.842134 0
M  V30 6554 O 640.056 0.267423 1.59271 0
M  V30 6555 H 640.747 -0.304099 1.91298 0
M  V30 END ATOM
M  V30 BEGIN BOND
M  V30 END BOND
M  V30 END CTAB
M  END
$$$$
