drugbank_target|P15056 Serine/threonine-protein kinase B-raf (DB00398; DB05190; DB05984; DB06999; DB07000; DB08553; DB08881; DB08896; DB08912; DB11718; DB12010; DB14840)
 OpenBabel12092119363D

  0  0  0     0  0            999 V3000
M  V30 BEGIN CTAB
M  V30 COUNTS 11815 11951 0 0 0
M  V30 BEGIN ATOM
M  V30 1 H -0.908 1.98254 -0.117106 0
M  V30 2 N 0 1.576 0 0
M  V30 3 C 0.933 2.03868 1.02534 0
M  V30 4 C 1.911 0.928543 1.3348 0
M  V30 5 O 3.095 1.19667 1.45644 0
M  V30 6 C 0.222 2.43627 2.35294 0
M  V30 7 C -0.732 3.65373 2.2001 0
M  V30 8 S 0.101 5.13292 1.52614 0
M  V30 9 C 1.257 5.56322 2.86805 0
M  V30 10 H 1.49 2.90518 0.631377 0
M  V30 11 H -0.977 1.52953 0.210867 0
M  V30 12 H 0.981 2.67203 3.11629 0
M  V30 13 H -0.358 1.57376 2.7183 0
M  V30 14 H -1.165 3.90944 3.18086 0
M  V30 15 H -1.563 3.418 1.51819 0
M  V30 16 H 0.729 5.58782 3.83104 0
M  V30 17 H 1.672 6.56266 2.65933 0
M  V30 18 H 2.08 4.83886 2.90714 0
M  V30 19 N 1.4781 -0.272755 1.55222 0
M  V30 20 C 2.4411 -1.32041 1.87344 0
M  V30 21 C 3.4411 -1.42342 0.74803 0
M  V30 22 O 4.6311 -1.41488 1.0162 0
M  V30 23 C 1.7631 -2.70173 2.07893 0
M  V30 24 H 2.9561 -1.04789 2.80997 0
M  V30 25 H 0.5091 -0.51083 1.47717 0
M  V30 26 H 1.2441 -3.02605 1.16622 0
M  V30 27 H 1.0291 -2.64082 2.89833 0
M  V30 28 H 2.5191 -3.45869 2.34017 0
M  V30 29 N 2.9562 -1.48159 -0.537278 0
M  V30 30 C 3.9192 -1.61665 -1.62472 0
M  V30 31 C 4.9192 -0.490395 -1.5314 0
M  V30 32 O 6.1092 -0.755998 -1.5694 0
M  V30 33 C 3.2412 -1.57997 -3.02076 0
M  V30 34 H 4.4342 -2.58621 -1.51839 0
M  V30 35 H 1.9872 -1.36647 -0.758771 0
M  V30 36 H 2.7222 -0.624913 -3.18222 0
M  V30 37 H 2.5072 -2.39755 -3.10258 0
M  V30 38 H 3.9972 -1.70627 -3.81151 0
M  V30 39 N 4.4343 0.785586 -1.36625 0
M  V30 40 C 5.3643 1.91259 -1.33949 0
M  V30 41 C 6.3453 1.68795 -0.210325 0
M  V30 42 O 7.5303 1.89854 -0.408561 0
M  V30 43 C 4.6603 3.28339 -1.13186 0
M  V30 44 C 3.6143 3.65335 -2.22967 0
M  V30 45 C 2.9403 5.00806 -1.87342 0
M  V30 46 C 4.2403 3.7352 -3.65075 0
M  V30 47 H 5.9343 1.93755 -2.28253 0
M  V30 48 H 3.4803 0.930788 -1.09874 0
M  V30 49 H 5.4333 4.06804 -1.09948 0
M  V30 50 H 4.1573 3.2624 -0.153332 0
M  V30 51 H 2.8163 2.89169 -2.25337 0
M  V30 52 H 2.4643 4.95233 -0.880545 0
M  V30 53 H 2.1643 5.26529 -2.60846 0
M  V30 54 H 3.6883 5.81687 -1.85667 0
M  V30 55 H 5.1023 4.42168 -3.64911 0
M  V30 56 H 3.4993 4.10731 -4.37516 0
M  V30 57 H 4.5693 2.74527 -3.99703 0
M  V30 58 N 5.9124 1.20967 1.01018 0
M  V30 59 C 7.1374 1.0503 1.78839 0
M  V30 60 C 7.5624 -0.395752 1.8389 0
M  V30 61 O 6.9204 -1.28529 1.27867 0
M  V30 62 C 6.9684 1.64602 3.2084 0
M  V30 63 O 6.0724 0.887988 4.02726 0
M  V30 64 H 5.4134 0.369987 0.551367 0
M  V30 65 H 7.9434 1.60399 1.27018 0
M  V30 66 H 7.9534 1.68607 3.71532 0
M  V30 67 H 6.6284 2.69841 3.16479 0
M  V30 68 H 5.2054 0.922648 3.61305 0
M  V30 69 N 7.3905 -1.2043 1.01659 0
M  V30 70 C 8.6385 -1.89423 0.704522 0
M  V30 71 C 8.9595 -1.79231 -0.768197 0
M  V30 72 O 8.2295 -1.1947 -1.55254 0
M  V30 73 H 6.8095 -0.701178 0.257602 0
M  V30 74 H 9.4715 -1.4626 1.28818 0
M  V30 75 H 8.5675 -2.96052 0.987916 0
M  V30 76 N 8.8686 -0.792821 -1.36206 0
M  V30 77 C 10.1166 -0.366062 -1.98757 0
M  V30 78 C 10.4376 1.0668 -1.63231 0
M  V30 79 O 9.7076 1.73587 -0.907978 0
M  V30 80 H 8.2876 -0.132364 -0.735179 0
M  V30 81 H 10.9496 -1.01562 -1.66347 0
M  V30 82 H 10.0456 -0.460638 -3.08682 0
M  V30 83 N 10.3467 1.47872 -0.545128 0
M  V30 84 C 11.5947 2.02093 -0.016553 0
M  V30 85 C 11.9157 1.42305 1.3332 0
M  V30 86 O 11.1857 0.593853 1.86682 0
M  V30 87 H 9.7657 0.746993 -0.00313038 0
M  V30 88 H 12.4277 1.81414 -0.712397 0
M  V30 89 H 11.5237 3.11996 0.0805422 0
M  V30 90 N 11.8248 0.280983 1.55075 0
M  V30 91 C 13.0728 -0.333455 1.9933 0
M  V30 92 C 13.3938 -1.55937 1.17085 0
M  V30 93 O 12.6638 -1.94143 0.261805 0
M  V30 94 H 11.2438 -0.126197 0.736263 0
M  V30 95 H 13.9058 0.387678 1.91005 0
M  V30 96 H 13.0018 -0.619292 3.05894 0
M  V30 97 N 13.3029 -1.57598 0.00835791 0
M  V30 98 C 14.5509 -1.90551 -0.6734 0
M  V30 99 C 14.8719 -0.883301 -1.73847 0
M  V30 100 O 14.1419 0.0781442 -1.95744 0
M  V30 101 H 12.7219 -0.703312 -0.251717 0
M  V30 102 H 15.3839 -1.94833 0.0512592 0
M  V30 103 H 14.4799 -2.9056 -1.13935 0
M  V30 104 N 14.781 0.264519 -1.55364 0
M  V30 105 C 16.029 0.993021 -1.76021 0
M  V30 106 C 16.35 1.86511 -0.569099 0
M  V30 107 O 15.62 1.91438 0.415735 0
M  V30 108 H 14.2 0.369639 -0.649135 0
M  V30 109 H 16.862 0.286707 -1.9278 0
M  V30 110 H 15.958 1.62502 -2.66457 0
M  V30 111 N 16.2591 1.48442 0.529413 0
M  V30 112 C 17.2221 1.62524 1.61612 0
M  V30 113 C 18.2221 0.498509 1.52877 0
M  V30 114 O 19.4121 0.76431 1.56537 0
M  V30 115 C 16.5441 1.59597 3.01233 0
M  V30 116 H 17.7371 2.59423 1.50465 0
M  V30 117 H 15.2901 1.37047 0.751514 0
M  V30 118 H 16.0251 0.641781 3.17886 0
M  V30 119 H 15.8101 2.41397 3.08982 0
M  V30 120 H 17.3001 1.72646 3.80241 0
M  V30 121 N 17.7372 -0.778329 1.37039 0
M  V30 122 C 18.6472 -1.92253 1.34446 0
M  V30 123 C 19.6632 -1.72267 0.244991 0
M  V30 124 O 20.8392 -1.95615 0.479258 0
M  V30 125 C 17.9042 -3.27282 1.144 0
M  V30 126 C 16.9652 -3.59969 2.33925 0
M  V30 127 C 16.1982 -4.88555 2.14825 0
M  V30 128 O 16.4212 -5.59113 1.12912 0
M  V30 129 O 15.3552 -5.20153 3.02861 0
M  V30 130 H 19.1812 -1.97392 2.30803 0
M  V30 131 H 16.7662 -0.920154 1.17701 0
M  V30 132 H 18.6482 -4.08062 1.05182 0
M  V30 133 H 17.3232 -3.23011 0.211124 0
M  V30 134 H 16.2302 -2.7945 2.48714 0
M  V30 135 H 17.5632 -3.68976 3.25757 0
M  V30 136 N 19.2153 -1.21501 -1.00376 0
M  V30 137 C 20.6263 -1.03146 -1.55621 0
M  V30 138 C 20.9773 0.408375 -1.91903 0
M  V30 139 O 20.1023 1.29177 -1.73616 0
M  V30 140 C 20.6973 -1.86612 -2.82775 0
M  V30 141 C 19.2563 -1.72586 -3.34501 0
M  V30 142 C 18.4033 -1.83747 -2.07683 0
M  V30 143 H 21.3543 -1.35505 -0.826081 0
M  V30 144 H 21.3753 -1.3771 -3.54706 0
M  V30 145 H 20.8873 -2.91399 -2.56336 0
M  V30 146 H 18.9883 -0.704877 -3.65872 0
M  V30 147 H 19.1013 -2.54623 -4.05837 0
M  V30 148 H 17.4653 -1.27069 -2.20739 0
M  V30 149 H 18.2483 -2.90044 -1.83655 0
M  V30 150 N 20.6934 1.19889 -1.02296 0
M  V30 151 C 21.9414 1.89046 -0.714558 0
M  V30 152 C 22.2624 1.79636 0.758681 0
M  V30 153 O 21.5324 1.20292 1.54618 0
M  V30 154 H 20.1124 0.699802 -0.261317 0
M  V30 155 H 22.7744 1.45574 -1.29592 0
M  V30 156 H 21.8704 2.95524 -1.0036 0
M  V30 157 N 22.1715 0.800033 1.35784 0
M  V30 158 C 23.1035 0.163596 2.28615 0
M  V30 159 C 24.1165 -0.633317 1.49976 0
M  V30 160 O 25.3055 -0.466754 1.72289 0
M  V30 161 C 22.4055 -0.790958 3.29541 0
M  V30 162 C 21.5785 -0.0418255 4.3738 0
M  V30 163 C 20.6375 -0.91389 5.18203 0
M  V30 164 O 19.6635 -0.367234 5.68014 0
M  V30 165 N 20.8655 -2.23682 5.35674 0
M  V30 166 H 23.6305 0.96105 2.83873 0
M  V30 167 H 21.1915 0.654894 1.48063 0
M  V30 168 H 23.1835 -1.37844 3.80501 0
M  V30 169 H 21.7535 -1.48925 2.74846 0
M  V30 170 H 20.9735 0.726813 3.87442 0
M  V30 171 H 22.2615 0.474719 5.06581 0
M  V30 172 H 21.6595 -2.70497 4.96838 0
M  V30 173 H 20.2165 -2.77369 5.89839 0
M  V30 174 N 23.6496 -1.47581 0.552962 0
M  V30 175 C 24.6126 -2.28439 -0.186605 0
M  V30 176 C 25.6126 -1.36706 -0.84665 0
M  V30 177 O 26.8026 -1.59378 -0.703164 0
M  V30 178 C 23.9346 -3.16264 -1.2724 0
M  V30 179 H 25.1276 -2.95294 0.523609 0
M  V30 180 H 22.6806 -1.532 0.309745 0
M  V30 181 H 23.4156 -2.54091 -2.01514 0
M  V30 182 H 23.2006 -3.83769 -0.803968 0
M  V30 183 H 24.6906 -3.77198 -1.79196 0
M  V30 184 N 25.1277 -0.289203 -1.54924 0
M  V30 185 C 26.0577 0.58549 -2.2604 0
M  V30 186 C 27.0387 1.14753 -1.25562 0
M  V30 187 O 28.2237 1.17906 -1.54311 0
M  V30 188 C 25.3537 1.76305 -2.99222 0
M  V30 189 C 24.3077 1.33191 -4.06748 0
M  V30 190 C 23.6337 2.5937 -4.6758 0
M  V30 191 C 24.9337 0.471775 -5.20165 0
M  V30 192 H 26.6277 -0.00763532 -2.99399 0
M  V30 193 H 24.1737 -0.00511229 -1.43999 0
M  V30 194 H 26.1267 2.38097 -3.47689 0
M  V30 195 H 24.8507 2.38223 -2.23422 0
M  V30 196 H 23.5097 0.737121 -3.59113 0
M  V30 197 H 23.1577 3.19576 -3.88433 0
M  V30 198 H 22.8577 2.31228 -5.40192 0
M  V30 199 H 24.3817 3.21985 -5.18804 0
M  V30 200 H 25.7957 0.995056 -5.64599 0
M  V30 201 H 24.1927 0.284639 -5.99425 0
M  V30 202 H 25.2627 -0.506041 -4.82252 0
M  V30 203 N 26.6058 1.57591 -0.0167156 0
M  V30 204 C 27.8528 1.91283 0.664597 0
M  V30 205 C 28.1808 0.891949 1.72842 0
M  V30 206 O 27.4358 -0.100931 1.9544 0
M  V30 207 C 27.7348 3.3172 1.33029 0
M  V30 208 C 27.4008 4.4914 0.398047 0
M  V30 209 C 26.0628 4.80992 0.141421 0
M  V30 210 C 28.4148 5.20634 -0.242825 0
M  V30 211 C 25.7428 5.81703 -0.764092 0
M  V30 212 C 28.0948 6.22311 -1.13632 0
M  V30 213 C 26.7588 6.52611 -1.40196 0
M  V30 214 H 26.0288 0.699956 0.243193 0
M  V30 215 H 28.6758 1.9135 -0.0758267 0
M  V30 216 H 26.9808 3.27856 2.14517 0
M  V30 217 H 28.6778 3.55055 1.86379 0
M  V30 218 H 25.2678 4.24262 0.608238 0
M  V30 219 H 29.4518 4.96267 -0.0576019 0
M  V30 220 H 24.7078 6.03532 -0.977732 0
M  V30 221 H 28.8818 6.76834 -1.63917 0
M  V30 222 H 26.5088 7.30467 -2.10529 0
M  V30 223 N 28.0839 -0.256276 1.55502 0
M  V30 224 C 29.0319 -1.33694 1.90338 0
M  V30 225 C 30.0259 -1.50299 0.781441 0
M  V30 226 O 31.2319 -1.51885 0.965966 0
M  V30 227 H 27.6069 -0.447483 0.60437 0
M  V30 228 H 29.5779 -1.01574 2.8058 0
M  V30 229 C 28.3269 -2.68724 2.20642 0
M  V30 230 H 27.6499 -2.56743 3.06469 0
M  V30 231 H 29.0899 -3.43237 2.48926 0
M  V30 232 C 27.5489 -3.21101 1.01959 0
M  V30 233 O 28.0789 -4.0084 0.262762 0
M  V30 234 N 26.2849 -2.79003 0.812746 0
M  V30 235 H 25.8319 -2.14271 1.42989 0
M  V30 236 H 25.7899 -3.14393 0.0203076 0
M  V30 237 N 29.562 -1.4872 -0.521534 0
M  V30 238 C 30.81 -1.56857 -1.27437 0
M  V30 239 C 31.131 -0.247982 -1.93417 0
M  V30 240 O 30.401 0.731151 -1.81744 0
M  V30 241 H 28.981 -0.577885 -0.473347 0
M  V30 242 H 31.643 -1.85233 -0.606205 0
M  V30 243 H 30.739 -2.35402 -2.0492 0
M  V30 244 N 31.0401 0.771051 -1.3745 0
M  V30 245 C 32.3171 1.519 -1.23231 0
M  V30 246 C 32.6971 2.10383 0.173809 0
M  V30 247 O 32.0451 1.95583 1.18151 0
M  V30 248 C 32.2551 2.59933 -2.32886 0
M  V30 249 C 33.6031 3.27316 -2.70461 0
M  V30 250 O 34.6271 2.70228 -2.32068 0
M  V30 251 O 33.4861 4.30531 -3.36608 0
M  V30 252 H 30.5801 0.672803 -0.480901 0
M  V30 253 H 33.1261 0.807957 -1.49232 0
M  V30 254 H 31.8981 2.14842 -3.27045 0
M  V30 255 H 31.5211 3.38637 -2.08353 0
M  V30 256 N 32.5182 1.22032 0.997298 0
M  V30 257 C 33.4512 0.929735 2.08401 0
M  V30 258 C 34.4292 -0.125681 1.62114 0
M  V30 259 O 35.6132 0.00495409 1.88499 0
M  V30 260 C 32.7402 0.397488 3.3636 0
M  V30 261 C 31.7862 1.4369 4.01566 0
M  V30 262 S 32.6192 3.00874 4.42984 0
M  V30 263 C 33.7752 2.49276 5.74119 0
M  V30 264 H 34.0082 1.84998 2.32729 0
M  V30 265 H 31.5412 1.0509 1.13117 0
M  V30 266 H 33.4992 0.0969846 4.10385 0
M  V30 267 H 32.1602 -0.501571 3.10069 0
M  V30 268 H 31.3532 1.01427 4.93689 0
M  V30 269 H 30.9552 1.68588 3.33847 0
M  V30 270 H 33.2472 1.90242 6.50242 0
M  V30 271 H 34.1902 3.39872 6.21203 0
M  V30 272 H 34.5982 1.90714 5.31308 0
M  V30 273 N 33.9963 -1.19345 1.0293 0
M  V30 274 C 34.9063 -2.26245 0.620515 0
M  V30 275 C 35.9223 -1.70486 -0.347928 0
M  V30 276 O 37.0983 -2.00347 -0.205704 0
M  V30 277 C 34.1633 -3.46693 -0.0218957 0
M  V30 278 C 33.2243 -4.17632 0.994102 0
M  V30 279 C 32.4573 -5.32329 0.382253 0
M  V30 280 O 32.6803 -5.64552 -0.814676 0
M  V30 281 O 31.6143 -5.91664 1.10531 0
M  V30 282 H 35.4403 -2.63453 1.51083 0
M  V30 283 H 33.0253 -1.26207 0.799513 0
M  V30 284 H 34.9073 -4.19683 -0.380072 0
M  V30 285 H 33.5823 -3.11333 -0.886209 0
M  V30 286 H 32.4893 -3.4676 1.40387 0
M  V30 287 H 33.8223 -4.56964 1.8288 0
M  V30 288 N 35.4744 -0.807222 -1.35358 0
M  V30 289 C 36.8854 -0.44876 -1.81226 0
M  V30 290 C 37.2364 1.02929 -1.67033 0
M  V30 291 O 36.3614 1.79991 -1.20133 0
M  V30 292 C 36.9564 -0.807774 -3.2903 0
M  V30 293 C 35.5154 -0.501901 -3.73039 0
M  V30 294 C 34.6624 -1.03304 -2.57339 0
M  V30 295 H 37.6134 -0.998808 -1.23327 0
M  V30 296 H 37.6344 -0.10554 -3.80354 0
M  V30 297 H 37.1464 -1.88357 -3.39328 0
M  V30 298 H 35.2474 0.565128 -3.68289 0
M  V30 299 H 35.3604 -1.03497 -4.67787 0
M  V30 300 H 33.7244 -0.455339 -2.50597 0
M  V30 301 H 34.5074 -2.11496 -2.70415 0
M  V30 302 N 36.9525 1.47285 -0.560781 0
M  V30 303 C 37.8625 2.33846 0.187954 0
M  V30 304 C 38.8785 1.48412 0.908293 0
M  V30 305 O 40.0545 1.81332 0.876388 0
M  V30 306 C 37.1195 3.25178 1.2025 0
M  V30 307 C 36.1805 4.26504 0.489208 0
M  V30 308 C 35.4135 5.13472 1.45542 0
M  V30 309 O 35.6365 5.02959 2.6905 0
M  V30 310 O 34.5705 5.93902 0.977963 0
M  V30 311 H 38.3965 2.99177 -0.522177 0
M  V30 312 H 35.9815 1.45903 -0.321364 0
M  V30 313 H 37.8635 3.81584 1.78805 0
M  V30 314 H 36.5385 2.6247 1.89449 0
M  V30 315 H 35.4455 3.73847 -0.137627 0
M  V30 316 H 36.7785 4.91935 -0.161399 0
M  V30 317 N 38.4306 0.297415 1.54768 0
M  V30 318 C 39.3936 -0.567375 2.22066 0
M  V30 319 C 40.3936 -1.06409 1.20556 0
M  V30 320 O 41.5836 -0.960691 1.45315 0
M  V30 321 C 38.7156 -1.78517 2.90421 0
M  V30 322 H 39.9086 0.0205534 2.99893 0
M  V30 323 H 37.4616 0.0482163 1.56226 0
M  V30 324 H 38.1966 -2.41303 2.16664 0
M  V30 325 H 37.9816 -1.43669 3.64831 0
M  V30 326 H 39.4716 -2.39964 3.41771 0
M  V30 327 N 39.9087 -1.5758 0.0250728 0
M  V30 328 C 41.1567 -1.91255 -0.653151 0
M  V30 329 C 41.4777 -0.901691 -1.729 0
M  V30 330 O 40.7477 0.0573785 -1.95816 0
M  V30 331 H 39.3277 -0.705942 -0.244243 0
M  V30 332 H 41.9897 -1.94767 0.0719209 0
M  V30 333 H 41.0857 -2.91752 -1.10847 0
M  V30 334 N 41.3868 0.248026 -1.55636 0
M  V30 335 C 42.3498 1.29044 -1.89421 0
M  V30 336 C 43.3498 1.41134 -0.770581 0
M  V30 337 O 44.5398 1.39854 -1.03858 0
M  V30 338 C 41.6718 2.66831 -2.12165 0
M  V30 339 H 42.8648 1.00305 -2.82629 0
M  V30 340 H 40.4178 0.487265 -1.48511 0
M  V30 341 H 41.1528 3.00711 -1.21422 0
M  V30 342 H 40.9378 2.59438 -2.93997 0
M  V30 343 H 42.4278 3.42103 -2.3949 0
M  V30 344 N 42.8649 1.48995 0.513639 0
M  V30 345 C 44.1129 1.57531 1.26604 0
M  V30 346 C 44.4339 0.258236 1.93283 0
M  V30 347 O 43.7039 -0.721502 1.8213 0
M  V30 348 H 42.2839 0.580387 0.470276 0
M  V30 349 H 44.9459 1.85552 0.596373 0
M  V30 350 H 44.0419 2.36486 2.03669 0
M  V30 351 N 44.343 -0.763751 1.37857 0
M  V30 352 C 45.306 -1.85889 1.34081 0
M  V30 353 C 46.306 -1.58949 0.243277 0
M  V30 354 O 47.496 -1.66882 0.499589 0
M  V30 355 C 44.628 -3.23176 1.08489 0
M  V30 356 H 45.821 -1.90648 2.31502 0
M  V30 357 H 43.374 -0.964367 1.23003 0
M  V30 358 H 44.109 -3.24091 0.116318 0
M  V30 359 H 43.894 -3.44124 1.8794 0
M  V30 360 H 45.384 -4.03254 1.08517 0
M  V30 361 N 45.8211 -1.22559 -0.990812 0
M  V30 362 C 47.0691 -1.04933 -1.72724 0
M  V30 363 C 47.3901 0.416158 -1.90508 0
M  V30 364 O 46.6601 1.29918 -1.46622 0
M  V30 365 H 45.2401 -0.385296 -0.639965 0
M  V30 366 H 47.9021 -1.54105 -1.19322 0
M  V30 367 H 46.9981 -1.52886 -2.72089 0
M  V30 368 N 47.2992 1.18797 -1.03562 0
M  V30 369 C 48.2622 2.20464 -0.626769 0
M  V30 370 C 49.2622 1.57721 0.313173 0
M  V30 371 O 50.4522 1.73917 0.0992615 0
M  V30 372 C 47.5842 3.40802 0.0818498 0
M  V30 373 H 48.7772 2.58149 -1.5264 0
M  V30 374 H 46.3302 1.32593 -0.827578 0
M  V30 375 H 47.0652 3.08642 0.995518 0
M  V30 376 H 46.8502 3.8758 -0.593652 0
M  V30 377 H 48.3402 4.16092 0.354584 0
M  V30 378 N 48.7773 0.814389 1.34928 0
M  V30 379 C 49.7403 0.235759 2.27984 0
M  V30 380 C 50.7403 -0.581412 1.49921 0
M  V30 381 O 51.9303 -0.398758 1.69575 0
M  V30 382 C 49.0623 -0.670433 3.34242 0
M  V30 383 H 50.2553 1.05659 2.80671 0
M  V30 384 H 47.8083 0.585614 1.44915 0
M  V30 385 H 48.5433 -1.51466 2.86755 0
M  V30 386 H 48.3283 -0.0860822 3.92005 0
M  V30 387 H 49.8183 -1.06935 4.03676 0
M  V30 388 N 50.2554 -1.46986 0.568584 0
M  V30 389 C 51.2184 -2.28624 -0.162366 0
M  V30 390 C 52.2184 -1.37596 -0.832103 0
M  V30 391 O 53.4084 -1.60115 -0.68622 0
M  V30 392 C 50.5404 -3.17596 -1.23878 0
M  V30 393 H 51.7334 -2.94722 0.554899 0
M  V30 394 H 49.2864 -1.52863 0.325976 0
M  V30 395 H 50.0214 -2.56214 -1.98808 0
M  V30 396 H 49.8064 -3.846 -0.763219 0
M  V30 397 H 51.2964 -3.79078 -1.75185 0
M  V30 398 N 51.7335 -0.305618 -1.54608 0
M  V30 399 C 52.9585 0.307562 -2.05107 0
M  V30 400 C 53.3835 1.46385 -1.18123 0
M  V30 401 O 52.7415 1.8034 -0.186324 0
M  V30 402 C 52.7895 0.73704 -3.52987 0
M  V30 403 O 51.8935 1.84134 -3.6901 0
M  V30 404 H 51.2345 0.0589143 -0.661381 0
M  V30 405 H 53.7645 -0.448807 -1.99617 0
M  V30 406 H 53.7745 1.02459 -3.94925 0
M  V30 407 H 52.4495 -0.108773 -4.15758 0
M  V30 408 H 51.0265 1.55398 -3.38978 0
M  V30 409 N 53.2116 1.57565 -0.0334293 0
M  V30 410 C 54.4366 1.96689 0.657895 0
M  V30 411 C 54.8616 0.910057 1.64619 0
M  V30 412 O 54.2196 -0.128598 1.80843 0
M  V30 413 C 54.2676 3.34905 1.33683 0
M  V30 414 O 53.3716 3.31574 2.45219 0
M  V30 415 H 52.7126 0.641205 0.172489 0
M  V30 416 H 55.2426 2.04372 -0.0965621 0
M  V30 417 H 55.2526 3.71234 1.69262 0
M  V30 418 H 53.9276 4.11366 0.612411 0
M  V30 419 H 52.5046 3.06968 2.11719 0
M  V30 420 N 54.6897 -0.239769 1.55765 0
M  V30 421 C 55.6527 -1.28038 1.90103 0
M  V30 422 C 56.6527 -1.40723 0.778055 0
M  V30 423 O 57.8427 -1.39301 1.04599 0
M  V30 424 C 54.9747 -2.65702 2.13577 0
M  V30 425 H 56.1677 -0.988048 2.83157 0
M  V30 426 H 53.7207 -0.479382 1.48767 0
M  V30 427 H 54.4557 -3.00063 1.23015 0
M  V30 428 H 54.2407 -2.57875 2.95369 0
M  V30 429 H 55.7307 -3.40828 2.41301 0
M  V30 430 N 56.1678 -1.49265 -0.50573 0
M  V30 431 C 57.1308 -1.65075 -1.59006 0
M  V30 432 C 58.1308 -0.522768 -1.52065 0
M  V30 433 O 59.3208 -0.789117 -1.55302 0
M  V30 434 C 56.4528 -1.64369 -2.98656 0
M  V30 435 H 57.6458 -2.61784 -1.46319 0
M  V30 436 H 55.1988 -1.38226 -0.729616 0
M  V30 437 H 55.9338 -0.692272 -3.16825 0
M  V30 438 H 55.7188 -2.46282 -3.05103 0
M  V30 439 H 57.2088 -1.78674 -3.77446 0
M  V30 440 N 57.6459 0.756429 -1.3826 0
M  V30 441 C 58.9229 1.50584 -1.24835 0
M  V30 442 C 59.3029 2.10556 0.151485 0
M  V30 443 O 58.6509 1.96825 1.1607 0
M  V30 444 C 58.8609 2.57448 -2.3563 0
M  V30 445 C 60.2089 3.24429 -2.73917 0
M  V30 446 O 61.2329 2.67751 -2.34921 0
M  V30 447 O 60.0919 4.26937 -3.41156 0
M  V30 448 H 57.1859 0.667664 -0.48801 0
M  V30 449 H 59.7319 0.792083 -1.5008 0
M  V30 450 H 58.5039 2.11362 -3.29305 0
M  V30 451 H 58.1269 3.36408 -2.11933 0
M  V30 452 N 59.124 1.23083 0.984299 0
M  V30 453 C 60.535 1.05609 1.5396 0
M  V30 454 C 60.886 -0.377793 1.92528 0
M  V30 455 O 60.011 -1.26398 1.75649 0
M  V30 456 C 60.606 1.91087 2.7977 0
M  V30 457 C 59.165 1.77885 3.31713 0
M  V30 458 C 58.312 1.87028 2.04733 0
M  V30 459 H 61.263 1.36802 0.804419 0
M  V30 460 H 61.284 1.43336 3.5247 0
M  V30 461 H 60.796 2.9544 2.51668 0
M  V30 462 H 58.897 0.762995 3.64704 0
M  V30 463 H 59.01 2.61047 4.01735 0
M  V30 464 H 57.374 1.30565 2.18689 0
M  V30 465 H 58.157 2.92929 1.79017 0
M  V30 466 N 60.6021 -1.18246 1.0419 0
M  V30 467 C 61.5651 -2.20128 0.638452 0
M  V30 468 C 62.5651 -1.57885 -0.304805 0
M  V30 469 O 63.7551 -1.73967 -0.0900369 0
M  V30 470 C 60.8871 -3.4084 -0.0637751 0
M  V30 471 H 62.0801 -2.57336 1.54007 0
M  V30 472 H 59.6331 -1.32152 0.834598 0
M  V30 473 H 60.3681 -3.09166 -0.979136 0
M  V30 474 H 60.1531 -3.8726 0.614198 0
M  V30 475 H 61.6431 -4.16274 -0.332512 0
M  V30 476 N 62.0802 -0.821533 -1.34494 0
M  V30 477 C 63.3292 -0.405355 -1.97585 0
M  V30 478 C 63.6422 1.03677 -1.65863 0
M  V30 479 O 64.8482 1.55679 -2.22433 0
M  V30 480 C 63.3042 -0.673861 -3.53535 0
M  V30 481 C 62.9122 -2.12951 -3.94152 0
M  V30 482 C 64.6562 -0.32378 -4.23263 0
M  V30 483 C 62.5632 -2.34298 -5.43009 0
M  V30 484 H 61.4932 -0.147836 -0.739365 0
M  V30 485 H 64.1442 -1.00769 -1.53355 0
M  V30 486 H 62.5262 -0.00137554 -3.96 0
M  V30 487 H 63.7002 -2.84104 -3.62797 0
M  V30 488 H 62.0152 -2.44089 -3.37356 0
M  V30 489 H 64.6122 -0.461126 -5.32708 0
M  V30 490 H 64.9552 0.731586 -4.09821 0
M  V30 491 H 65.4882 -0.950786 -3.8627 0
M  V30 492 H 62.2272 -3.38335 -5.61435 0
M  V30 493 H 61.7472 -1.67687 -5.75883 0
M  V30 494 H 63.4262 -2.16588 -6.09671 0
M  V30 495 N 63.5583 1.46682 -0.576371 0
M  V30 496 C 64.9693 1.86112 -0.148091 0
M  V30 497 C 65.3203 1.48073 1.2872 0
M  V30 498 O 64.4453 0.892656 1.97131 0
M  V30 499 C 65.0403 3.37786 -0.261982 0
M  V30 500 C 63.5993 3.76235 0.111384 0
M  V30 501 C 62.7463 2.70713 -0.60083 0
M  V30 502 H 65.6973 1.37927 -0.78497 0
M  V30 503 H 65.7183 3.77007 0.514364 0
M  V30 504 H 65.2303 3.6544 -1.30671 0
M  V30 505 H 63.3313 3.54198 1.15649 0
M  V30 506 H 63.4443 4.78391 -0.26052 0
M  V30 507 H 61.8083 2.54666 -0.0417783 0
M  V30 508 H 62.5913 3.01208 -1.64708 0
M  V30 509 N 65.0364 0.313813 1.54444 0
M  V30 510 C 65.9464 -0.565714 2.27677 0
M  V30 511 C 66.9624 -1.13754 1.31666 0
M  V30 512 O 68.1384 -1.15959 1.64668 0
M  V30 513 C 65.2034 -1.71528 3.01296 0
M  V30 514 C 64.2644 -1.17624 4.12872 0
M  V30 515 C 63.4974 -2.27102 4.8297 0
M  V30 516 O 63.7204 -3.47256 4.52514 0
M  V30 517 O 62.6544 -1.9307 5.70094 0
M  V30 518 H 66.4804 0.0287296 3.03686 0
M  V30 519 H 64.0654 0.0798312 1.49187 0
M  V30 520 H 65.9474 -2.38476 3.4743 0
M  V30 521 H 64.6224 -2.29608 2.2817 0
M  V30 522 H 63.5294 -0.472124 3.71109 0
M  V30 523 H 64.8624 -0.640695 4.88012 0
M  V30 524 N 66.5145 -1.57545 0.0417849 0
M  V30 525 C 67.4245 -2.14451 -0.951213 0
M  V30 526 C 68.4405 -1.09992 -1.34825 0
M  V30 527 O 69.6165 -1.42114 -1.42708 0
M  V30 528 C 66.6815 -2.67063 -2.21084 0
M  V30 529 C 65.7425 -3.86284 -1.87304 0
M  V30 530 C 64.9755 -4.36378 -3.07261 0
M  V30 531 O 65.1985 -3.85587 -4.20332 0
M  V30 532 O 64.1325 -5.28077 -2.88822 0
M  V30 533 H 67.9585 -2.99601 -0.497287 0
M  V30 534 H 65.5435 -1.48317 -0.179567 0
M  V30 535 H 67.4255 -3.00914 -2.95006 0
M  V30 536 H 66.1005 -1.84989 -2.65633 0
M  V30 537 H 65.0075 -3.57338 -1.10727 0
M  V30 538 H 66.3405 -4.6956 -1.47562 0
M  V30 539 N 67.9926 0.231505 -1.5589 0
M  V30 540 C 69.2386 0.95877 -1.78705 0
M  V30 541 C 69.5716 1.8438 -0.609725 0
M  V30 542 O 68.8466 1.90521 0.391426 0
M  V30 543 C 69.1296 1.8062 -3.11526 0
M  V30 544 C 68.9826 0.948328 -4.39689 0
M  V30 545 C 70.3016 2.78585 -3.40703 0
M  V30 546 H 67.4206 0.347129 -0.650131 0
M  V30 547 H 70.0626 0.228259 -1.88624 0
M  V30 548 H 68.2126 2.42902 -3.03201 0
M  V30 549 H 69.8846 0.343016 -4.60023 0
M  V30 550 H 68.1276 0.253314 -4.3306 0
M  V30 551 H 68.7986 1.57543 -5.29041 0
M  V30 552 H 71.2746 2.26439 -3.49091 0
M  V30 553 H 70.1506 3.34988 -4.34826 0
M  V30 554 H 70.4116 3.55825 -2.62375 0
M  V30 555 N 69.4707 1.49531 0.497807 0
M  V30 556 C 70.7167 1.60388 1.25089 0
M  V30 557 C 71.0717 0.288328 1.90227 0
M  V30 558 O 70.3647 -0.711706 1.77891 0
M  V30 559 C 70.5587 2.70252 2.33878 0
M  V30 560 C 70.3877 4.12363 1.79408 0
M  V30 561 C 69.1577 4.7911 1.60566 0
M  V30 562 C 71.3557 4.97491 1.30412 0
M  V30 563 N 69.3377 6.05525 1.01059 0
M  V30 564 C 70.7087 6.14411 0.830595 0
M  V30 565 C 72.7637 4.83466 1.19015 0
M  V30 566 C 71.4667 7.1885 0.254371 0
M  V30 567 C 73.4927 5.88057 0.627892 0
M  V30 568 C 72.8547 7.04208 0.16461 0
M  V30 569 H 68.9537 0.641246 0.447579 0
M  V30 570 H 71.5377 1.86549 0.557441 0
M  V30 571 H 69.7087 2.45858 3.0068 0
M  V30 572 H 71.4407 2.70613 3.00917 0
M  V30 573 H 68.1957 4.35961 1.85026 0
M  V30 574 H 68.6197 6.73028 0.732236 0
M  V30 575 H 73.2617 3.93978 1.53431 0
M  V30 576 H 70.9797 8.08036 -0.102052 0
M  V30 577 H 74.5657 5.79266 0.542444 0
M  V30 578 H 73.4457 7.83757 -0.263669 0
M  V30 579 N 70.9488 -0.749086 1.3866 0
M  V30 580 C 71.8968 -1.88428 1.36373 0
M  V30 581 C 72.8908 -1.67561 0.248929 0
M  V30 582 O 74.0968 -1.75074 0.41821 0
M  V30 583 H 70.4718 -0.620023 0.42553 0
M  V30 584 H 72.4428 -1.87473 2.32156 0
M  V30 585 C 71.1918 -3.25961 1.21014 0
M  V30 586 H 70.5148 -3.42607 2.06059 0
M  V30 587 H 71.9548 -4.05625 1.23469 0
M  V30 588 C 70.4138 -3.36799 -0.0825941 0
M  V30 589 O 70.9438 -3.87517 -1.05797 0
M  V30 590 N 69.1498 -2.90258 -0.140939 0
M  V30 591 H 68.6968 -2.49174 0.653477 0
M  V30 592 H 68.6548 -2.97889 -1.00545 0
M  V30 593 N 72.4269 -1.23603 -0.977757 0
M  V30 594 C 73.6759 -1.06377 -1.71368 0
M  V30 595 C 73.9889 0.399062 -1.91486 0
M  V30 596 O 75.1949 0.691312 -2.62551 0
M  V30 597 C 73.6509 -1.85512 -3.08404 0
M  V30 598 C 73.2589 -3.36141 -2.96164 0
M  V30 599 C 75.0029 -1.76783 -3.85938 0
M  V30 600 C 72.9099 -4.07659 -4.28449 0
M  V30 601 H 71.8399 -0.394452 -0.642591 0
M  V30 602 H 74.4909 -1.47594 -1.09034 0
M  V30 603 H 72.8729 -1.37103 -3.71509 0
M  V30 604 H 74.0469 -3.92056 -2.42133 0
M  V30 605 H 72.3619 -3.45712 -2.32104 0
M  V30 606 H 74.9589 -2.27526 -4.83876 0
M  V30 607 H 75.3019 -0.731116 -4.0983 0
M  V30 608 H 75.8349 -2.22818 -3.2954 0
M  V30 609 H 72.5739 -5.11648 -4.09752 0
M  V30 610 H 72.0939 -3.5653 -4.82334 0
M  V30 611 H 73.7729 -4.141 -4.97122 0
M  V30 612 N 73.905 1.17692 -1.04816 0
M  V30 613 C 74.852 2.21581 -0.645797 0
M  V30 614 C 75.822 1.62367 0.350159 0
M  V30 615 O 77.007 1.89254 0.242433 0
M  V30 616 C 74.147 3.45092 -0.0227568 0
M  V30 617 C 73.26 4.18613 -1.06709 0
M  V30 618 C 72.395 5.29602 -0.411767 0
M  V30 619 C 71.434 5.94904 -1.44067 0
M  V30 620 N 70.571 6.97414 -0.809781 0
M  V30 621 H 75.411 2.55353 -1.5362 0
M  V30 622 H 72.948 1.25438 -0.768364 0
M  V30 623 H 74.906 4.15679 0.35588 0
M  V30 624 H 73.536 3.11917 0.831122 0
M  V30 625 H 72.588 3.46779 -1.5636 0
M  V30 626 H 73.9 4.63293 -1.84827 0
M  V30 627 H 73.054 6.06696 0.0206623 0
M  V30 628 H 71.793 4.86045 0.401438 0
M  V30 629 H 70.798 5.16544 -1.88316 0
M  V30 630 H 72.023 6.40542 -2.25571 0
M  V30 631 H 69.969 6.55998 -0.0170186 0
M  V30 632 H 69.886 7.40386 -1.52856 0
M  V30 633 H 71.154 7.78463 -0.401999 0
M  V30 634 N 75.3831 0.828654 1.34056 0
M  V30 635 C 76.3151 0.212052 2.28217 0
M  V30 636 C 77.3281 -0.601362 1.51286 0
M  V30 637 O 78.5171 -0.430104 1.73241 0
M  V30 638 C 75.6171 -0.72088 3.31144 0
M  V30 639 C 74.7901 0.0509587 4.3737 0
M  V30 640 C 73.8491 -0.803766 5.20025 0
M  V30 641 O 72.8751 -0.246667 5.68665 0
M  V30 642 N 74.0771 -2.1227 5.40298 0
M  V30 643 H 76.8421 1.02105 2.81771 0
M  V30 644 H 74.4031 0.686153 1.46641 0
M  V30 645 H 76.3951 -1.29742 3.8334 0
M  V30 646 H 74.9651 -1.43061 2.77943 0
M  V30 647 H 74.1851 0.808831 3.85813 0
M  V30 648 H 75.4731 0.582065 5.0546 0
M  V30 649 H 74.8711 -2.59898 5.02464 0
M  V30 650 H 73.4281 -2.64796 5.95589 0
M  V30 651 N 76.8612 -1.46375 0.584142 0
M  V30 652 C 77.7942 -2.27351 -0.196676 0
M  V30 653 C 78.7722 -1.35715 -0.895561 0
M  V30 654 O 79.9562 -1.65126 -0.90916 0
M  V30 655 C 77.0832 -3.13486 -1.28235 0
M  V30 656 C 76.1292 -4.20896 -0.689145 0
M  V30 657 S 76.9622 -5.33299 0.48507 0
M  V30 658 C 78.1182 -6.23 -0.601767 0
M  V30 659 H 78.3512 -2.93228 0.490395 0
M  V30 660 H 75.8842 -1.49875 0.371071 0
M  V30 661 H 77.8422 -3.63676 -1.90395 0
M  V30 662 H 76.5032 -2.4692 -1.94138 0
M  V30 663 H 75.6962 -4.80997 -1.50527 0
M  V30 664 H 75.2982 -3.73726 -0.143181 0
M  V30 665 H 77.5902 -6.60979 -1.48705 0
M  V30 666 H 78.5332 -7.0809 -0.0374799 0
M  V30 667 H 78.9412 -5.57173 -0.906557 0
M  V30 668 N 78.3393 -0.321999 -1.54275 0
M  V30 669 C 79.5883 0.281931 -1.9972 0
M  V30 670 C 79.9013 1.53369 -1.21397 0
M  V30 671 O 81.1073 2.21352 -1.57211 0
M  V30 672 C 79.5633 0.5529 -3.55628 0
M  V30 673 C 79.1713 -0.681721 -4.42783 0
M  V30 674 C 80.9153 1.11687 -4.09544 0
M  V30 675 C 78.8223 -0.382742 -5.9016 0
M  V30 676 H 77.7523 0.109124 -0.746062 0
M  V30 677 H 80.4033 -0.43398 -1.78294 0
M  V30 678 H 78.7853 1.32896 -3.73035 0
M  V30 679 H 79.9593 -1.45723 -4.37151 0
M  V30 680 H 78.2743 -1.1658 -3.99748 0
M  V30 681 H 80.8713 1.35515 -5.17242 0
M  V30 682 H 81.2143 2.06575 -3.61431 0
M  V30 683 H 81.7473 0.402032 -3.95763 0
M  V30 684 H 78.4863 -1.30076 -6.42464 0
M  V30 685 H 78.0063 0.355094 -5.98748 0
M  V30 686 H 79.6853 0.00800157 -6.47 0
M  V30 687 N 79.8174 1.5752 -0.0501392 0
M  V30 688 C 80.7644 2.1147 0.924603 0
M  V30 689 C 81.7344 1.02182 1.30951 0
M  V30 690 O 82.9194 1.29723 1.39916 0
M  V30 691 C 80.0594 2.66337 2.19451 0
M  V30 692 C 79.1724 3.89708 1.86418 0
M  V30 693 C 78.3074 4.32893 3.07859 0
M  V30 694 C 77.3464 5.48967 2.70742 0
M  V30 695 N 76.4834 5.87211 3.84874 0
M  V30 696 H 81.3234 2.94465 0.457639 0
M  V30 697 H 78.8604 1.45531 0.214266 0
M  V30 698 H 80.8184 2.96247 2.93758 0
M  V30 699 H 79.4484 1.86141 2.63726 0
M  V30 700 H 78.5004 3.66396 1.02264 0
M  V30 701 H 79.8124 4.74074 1.55096 0
M  V30 702 H 78.9664 4.6435 3.90466 0
M  V30 703 H 77.7054 3.47336 3.42358 0
M  V30 704 H 76.7104 5.17183 1.86551 0
M  V30 705 H 77.9354 6.3624 2.37436 0
M  V30 706 H 75.8814 5.04607 4.19175 0
M  V30 707 H 75.7984 6.66266 3.57247 0
M  V30 708 H 77.0664 6.23282 4.68123 0
M  V30 709 N 81.2955 -0.223234 1.56011 0
M  V30 710 C 82.2255 -1.27988 1.95298 0
M  V30 711 C 83.2065 -1.48976 0.820979 0
M  V30 712 O 84.3915 -1.61188 1.08315 0
M  V30 713 C 81.5215 -2.63 2.26822 0
M  V30 714 C 80.4755 -2.56671 3.42497 0
M  V30 715 C 79.8015 -3.95697 3.59622 0
M  V30 716 C 81.1015 -2.11601 4.77517 0
M  V30 717 H 82.7955 -0.953525 2.8381 0
M  V30 718 H 80.3415 -0.457244 1.36548 0
M  V30 719 H 82.2945 -3.37077 2.52898 0
M  V30 720 H 81.0185 -2.9732 1.35161 0
M  V30 721 H 79.6775 -1.85051 3.16467 0
M  V30 722 H 79.3255 -4.27322 2.6534 0
M  V30 723 H 79.0255 -3.92345 4.37424 0
M  V30 724 H 80.5495 -4.71438 3.88044 0
M  V30 725 H 81.9635 -2.7542 5.02809 0
M  V30 726 H 80.3605 -2.19311 5.5859 0
M  V30 727 H 81.4305 -1.06824 4.72987 0
M  V30 728 N 82.7736 -1.49793 -0.48987 0
M  V30 729 C 84.0016 -1.63568 -1.26701 0
M  V30 730 C 84.4166 -0.311465 -1.86213 0
M  V30 731 O 83.7736 0.704416 -1.68357 0
M  V30 732 C 83.8246 -2.71284 -2.38929 0
M  V30 733 O 83.5456 -3.9857 -1.81861 0
M  V30 734 C 85.0466 -2.95864 -3.3012 0
M  V30 735 H 82.2666 -0.550342 -0.383881 0
M  V30 736 H 84.8106 -1.95898 -0.586864 0
M  V30 737 H 82.9656 -2.417 -3.02753 0
M  V30 738 H 83.3796 -4.57993 -2.55622 0
M  V30 739 H 84.8536 -3.74941 -4.05121 0
M  V30 740 H 85.3306 -2.06206 -3.87783 0
M  V30 741 H 85.9366 -3.26907 -2.72051 0
M  V30 742 N 84.2517 0.741722 -1.39055 0
M  V30 743 C 85.1837 1.8657 -1.33133 0
M  V30 744 C 86.1967 1.61001 -0.241329 0
M  V30 745 O 87.3857 1.7136 -0.499784 0
M  V30 746 C 84.4857 3.22457 -1.04283 0
M  V30 747 C 83.6587 3.75435 -2.24427 0
M  V30 748 C 82.7177 4.89867 -1.92138 0
M  V30 749 O 81.7437 5.03879 -2.64754 0
M  V30 750 N 82.9457 5.73738 -0.88347 0
M  V30 751 H 85.7107 1.92156 -2.29991 0
M  V30 752 H 83.2717 0.922172 -1.3307 0
M  V30 753 H 85.2637 3.9657 -0.807128 0
M  V30 754 H 83.8337 3.12181 -0.161807 0
M  V30 755 H 83.0537 2.92751 -2.6399 0
M  V30 756 H 84.3417 4.07563 -3.04581 0
M  V30 757 H 83.7397 5.64999 -0.281517 0
M  V30 758 H 82.2967 6.47947 -0.707662 0
M  V30 759 N 85.7298 1.2412 0.971189 0
M  V30 760 C 86.6398 1.04747 2.09917 0
M  V30 761 C 87.6558 -0.0107162 1.73997 0
M  V30 762 O 88.8318 0.186714 2.00533 0
M  V30 763 C 85.8968 0.650828 3.40537 0
M  V30 764 C 84.9578 1.7851 3.90426 0
M  V30 765 C 84.1908 1.40729 5.14812 0
M  V30 766 O 84.4138 0.29557 5.69634 0
M  V30 767 O 83.3478 2.23168 5.58999 0
M  V30 768 H 87.1738 1.99304 2.29154 0
M  V30 769 H 84.7588 1.02908 1.08307 0
M  V30 770 H 86.6408 0.440992 4.19086 0
M  V30 771 H 85.3158 -0.265649 3.22608 0
M  V30 772 H 84.2228 2.04966 3.12953 0
M  V30 773 H 85.5558 2.68023 4.12825 0
M  V30 774 N 87.2079 -1.17134 1.05439 0
M  V30 775 C 88.1579 -2.1919 0.627675 0
M  V30 776 C 89.1419 -1.57328 -0.337147 0
M  V30 777 O 90.3339 -1.76329 -0.153976 0
M  V30 778 C 87.4629 -3.43299 0.00651435 0
M  V30 779 C 86.5489 -4.12255 0.995312 0
M  V30 780 N 86.9399 -4.56997 2.16765 0
M  V30 781 C 85.2379 -4.38316 0.824336 0
M  V30 782 C 85.9389 -5.10239 2.7934 0
M  V30 783 N 84.9149 -5.02595 2.07122 0
M  V30 784 H 88.7169 -2.5149 1.52086 0
M  V30 785 H 86.2309 -1.33491 0.924868 0
M  V30 786 H 88.2279 -4.15693 -0.316965 0
M  V30 787 H 86.8879 -3.1249 -0.882033 0
M  V30 788 H 87.8989 -4.51006 2.54587 0
M  V30 789 H 84.5759 -4.17498 -0.0129526 0
M  V30 790 H 85.9659 -5.54961 3.78772 0
M  V30 791 N 88.686 -0.835752 -1.33615 0
M  V30 792 C 89.935 -0.426289 -1.97144 0
M  V30 793 C 90.248 1.01912 -1.66953 0
M  V30 794 O 91.454 1.53311 -2.24072 0
M  V30 795 C 89.91 -0.711321 -3.52801 0
M  V30 796 C 89.518 -2.1712 -3.91871 0
M  V30 797 C 91.262 -0.368654 -4.22896 0
M  V30 798 C 89.169 -2.40044 -5.40493 0
M  V30 799 H 88.099 -0.15567 -0.737755 0
M  V30 800 H 90.75 -1.0239 -1.52278 0
M  V30 801 H 89.132 -0.0433766 -3.95976 0
M  V30 802 H 90.306 -2.87936 -3.59763 0
M  V30 803 H 88.621 -2.47654 -3.34749 0
M  V30 804 H 91.218 -0.517601 -5.32189 0
M  V30 805 H 91.561 0.688078 -4.10574 0
M  V30 806 H 92.094 -0.991702 -3.8524 0
M  V30 807 H 88.833 -3.44271 -5.57815 0
M  V30 808 H 88.353 -1.73785 -5.74072 0
M  V30 809 H 90.032 -2.23042 -6.0734 0
M  V30 810 N 90.1641 1.46063 -0.591896 0
M  V30 811 C 91.0741 2.34192 0.13831 0
M  V30 812 C 92.0901 1.50305 0.876608 0
M  V30 813 O 93.2661 1.8315 0.837728 0
M  V30 814 C 90.3311 3.27656 1.13326 0
M  V30 815 C 89.3921 4.27445 0.39863 0
M  V30 816 C 88.6251 5.16443 1.34618 0
M  V30 817 O 88.8481 5.08553 2.58321 0
M  V30 818 O 87.7821 5.95843 0.851768 0
M  V30 819 H 91.6081 2.98002 -0.58552 0
M  V30 820 H 89.1931 1.45188 -0.352239 0
M  V30 821 H 91.0751 3.85291 1.70671 0
M  V30 822 H 89.7501 2.6643 1.83839 0
M  V30 823 H 88.6571 3.73471 -0.216895 0
M  V30 824 H 89.9901 4.91482 -0.265709 0
M  V30 825 N 91.6422 0.330177 1.54103 0
M  V30 826 C 92.6052 -0.520144 2.2322 0
M  V30 827 C 93.6052 -1.03828 1.22786 0
M  V30 828 O 94.7952 -0.929652 1.4732 0
M  V30 829 C 91.9272 -1.72317 2.94142 0
M  V30 830 H 93.1202 0.0841605 2.99782 0
M  V30 831 H 90.6732 0.0813433 1.56088 0
M  V30 832 H 91.4082 -2.36653 2.21734 0
M  V30 833 H 91.1932 -1.35898 3.67796 0
M  V30 834 H 92.6832 -2.3266 3.46784 0
M  V30 835 N 93.1203 -1.57491 0.0584922 0
M  V30 836 C 94.0503 -2.14988 -0.911178 0
M  V30 837 C 95.0313 -1.07343 -1.31952 0
M  V30 838 O 96.2163 -1.35318 -1.39294 0
M  V30 839 C 93.3463 -2.70078 -2.18347 0
M  V30 840 C 92.3003 -3.82771 -1.91495 0
M  V30 841 C 91.6263 -4.24408 -3.25241 0
M  V30 842 C 92.9263 -5.07592 -1.23075 0
M  V30 843 H 94.6203 -2.96263 -0.432246 0
M  V30 844 H 92.1663 -1.42512 -0.206469 0
M  V30 845 H 94.1193 -3.08943 -2.86587 0
M  V30 846 H 92.8433 -1.86005 -2.68458 0
M  V30 847 H 91.5023 -3.44389 -1.25664 0
M  V30 848 H 91.1503 -3.37275 -3.73168 0
M  V30 849 H 90.8503 -5.00366 -3.08071 0
M  V30 850 H 92.3743 -4.65879 -3.94701 0
M  V30 851 H 93.7883 -5.43857 -1.81362 0
M  V30 852 H 92.1853 -5.88741 -1.16207 0
M  V30 853 H 93.2553 -4.84454 -0.207847 0
M  V30 854 N 94.5984 0.214957 -1.56127 0
M  V30 855 C 95.5284 1.2695 -1.95974 0
M  V30 856 C 96.5094 1.48539 -0.828868 0
M  V30 857 O 97.6944 1.60611 -1.09168 0
M  V30 858 C 94.8244 2.61794 -2.28214 0
M  V30 859 C 93.7784 2.54851 -3.43853 0
M  V30 860 C 93.1044 3.93785 -3.61715 0
M  V30 861 C 94.4044 2.09065 -4.78632 0
M  V30 862 H 96.0984 0.93846 -2.84312 0
M  V30 863 H 93.6444 0.449996 -1.36788 0
M  V30 864 H 95.5974 3.35731 -2.54682 0
M  V30 865 H 94.3214 2.96599 -1.36736 0
M  V30 866 H 92.9804 1.8337 -3.17444 0
M  V30 867 H 92.6284 4.25908 -2.67602 0
M  V30 868 H 92.3284 3.90019 -4.39498 0
M  V30 869 H 93.8524 4.69374 -3.90539 0
M  V30 870 H 95.2664 2.7275 -5.04262 0
M  V30 871 H 93.6634 2.16346 -5.59745 0
M  V30 872 H 94.7334 1.04315 -4.73547 0
M  V30 873 N 96.0765 1.50051 0.48192 0
M  V30 874 C 97.3535 1.51009 1.2432 0
M  V30 875 C 97.7335 0.248587 2.09631 0
M  V30 876 O 97.0815 -0.768409 2.15192 0
M  V30 877 C 97.2915 2.79981 2.08355 0
M  V30 878 C 98.6395 3.3022 2.66908 0
M  V30 879 O 99.6635 2.81228 2.18607 0
M  V30 880 O 98.5225 4.15595 3.54884 0
M  V30 881 H 95.6165 0.605239 0.563573 0
M  V30 882 H 98.1625 1.62332 0.494627 0
M  V30 883 H 96.9345 3.63275 1.45419 0
M  V30 884 H 96.5575 2.7161 2.90368 0
M  V30 885 N 97.5546 -0.734337 1.39446 0
M  V30 886 C 98.5016 -1.84835 1.38219 0
M  V30 887 C 99.4716 -1.64331 0.24179 0
M  V30 888 O 100.657 -1.85728 0.437002 0
M  V30 889 C 97.7966 -3.22355 1.23212 0
M  V30 890 C 96.9096 -3.5456 2.46801 0
M  V30 891 C 96.0446 -4.81485 2.24377 0
M  V30 892 C 95.0836 -5.06536 3.43639 0
M  V30 893 N 94.2206 -6.24665 3.20528 0
M  V30 894 H 99.0606 -1.85219 2.33448 0
M  V30 895 H 96.5976 -0.905039 1.15963 0
M  V30 896 H 98.5556 -4.0174 1.12522 0
M  V30 897 H 97.1856 -3.21248 0.316121 0
M  V30 898 H 96.2376 -2.69872 2.68092 0
M  V30 899 H 97.5496 -3.6899 3.3563 0
M  V30 900 H 96.7036 -5.68852 2.10933 0
M  V30 901 H 95.4426 -4.6923 1.32944 0
M  V30 902 H 94.4476 -4.17632 3.5758 0
M  V30 903 H 95.6726 -5.20676 4.35974 0
M  V30 904 H 93.6186 -6.13696 2.3176 0
M  V30 905 H 93.5356 -6.39685 4.02913 0
M  V30 906 H 94.8036 -7.14868 3.10779 0
M  V30 907 N 99.0327 -1.24633 -0.964593 0
M  V30 908 C 100.28 -1.08788 -1.70796 0
M  V30 909 C 100.608 0.372783 -1.90894 0
M  V30 910 O 99.8627 1.29167 -1.47018 0
M  V30 911 C 100.162 -1.7763 -3.10133 0
M  V30 912 C 99.8277 -3.27557 -3.09866 0
M  V30 913 C 98.4897 -3.6846 -3.09501 0
M  V30 914 C 100.842 -4.23389 -3.03959 0
M  V30 915 C 98.1697 -5.03624 -3.00965 0
M  V30 916 C 100.522 -5.58565 -2.96965 0
M  V30 917 C 99.1857 -5.98809 -2.9493 0
M  V30 918 H 98.4557 -0.398084 -0.624988 0
M  V30 919 H 101.103 -1.54777 -1.12767 0
M  V30 920 H 99.4077 -1.24044 -3.71645 0
M  V30 921 H 101.105 -1.62832 -3.66451 0
M  V30 922 H 97.6947 -2.95006 -3.10917 0
M  V30 923 H 101.879 -3.92787 -3.03368 0
M  V30 924 H 97.1347 -5.33998 -2.97752 0
M  V30 925 H 101.309 -6.32523 -2.91354 0
M  V30 926 H 98.9357 -7.03505 -2.88071 0
M  V30 927 N 100.511 1.16574 -1.06058 0
M  V30 928 C 101.759 1.86677 -0.77434 0
M  V30 929 C 102.08 1.81959 0.701147 0
M  V30 930 O 101.35 1.2515 1.50713 0
M  V30 931 H 99.9298 0.691134 -0.283449 0
M  V30 932 H 102.592 1.41378 -1.34158 0
M  V30 933 H 101.688 2.92181 -1.09711 0
M  V30 934 N 101.989 0.842826 1.3317 0
M  V30 935 C 103.237 0.439577 1.97262 0
M  V30 936 C 103.558 -1.00548 1.67078 0
M  V30 937 O 102.828 -1.70098 0.971779 0
M  V30 938 H 101.408 0.159558 0.72976 0
M  V30 939 H 104.07 1.07665 1.62463 0
M  V30 940 H 103.166 0.574886 3.0676 0
M  V30 941 N 103.467 -1.45747 0.599634 0
M  V30 942 C 104.377 -2.34262 -0.125888 0
M  V30 943 C 105.393 -1.50768 -0.868625 0
M  V30 944 O 106.569 -1.83592 -0.828003 0
M  V30 945 C 103.634 -3.28252 -1.11587 0
M  V30 946 C 102.695 -4.27651 -0.375956 0
M  V30 947 C 101.928 -5.1715 -1.31877 0
M  V30 948 O 102.151 -5.09916 -2.55621 0
M  V30 949 O 101.085 -5.96286 -0.820157 0
M  V30 950 H 104.911 -2.97688 0.601315 0
M  V30 951 H 102.496 -1.44999 0.359934 0
M  V30 952 H 104.378 -3.86191 -1.68626 0
M  V30 953 H 103.053 -2.67401 -1.82424 0
M  V30 954 H 101.96 -3.7335 0.236698 0
M  V30 955 H 103.293 -4.91334 0.29177 0
M  V30 956 N 104.945 -0.338344 -1.53925 0
M  V30 957 C 105.895 0.536712 -2.21593 0
M  V30 958 C 106.879 1.07015 -1.20153 0
M  V30 959 O 108.071 1.00471 -1.45721 0
M  V30 960 C 105.2 1.68977 -2.98834 0
M  V30 961 C 104.286 1.17052 -4.07627 0
M  V30 962 N 104.677 0.372085 -5.0443 0
M  V30 963 C 102.975 1.44789 -4.21844 0
M  V30 964 C 103.676 0.0909171 -5.81629 0
M  V30 965 N 102.652 0.681131 -5.39316 0
M  V30 966 H 106.454 -0.0804298 -2.9379 0
M  V30 967 H 103.968 -0.144943 -1.61752 0
M  V30 968 H 105.965 2.32857 -3.45808 0
M  V30 969 H 104.625 2.31024 -2.28162 0
M  V30 970 H 105.636 0.0136217 -5.17898 0
M  V30 971 H 102.313 2.07313 -3.62391 0
M  V30 972 H 103.703 -0.552817 -6.69622 0
M  V30 973 N 106.423 1.57458 -0.0668435 0
M  V30 974 C 107.371 2.13639 0.919851 0
M  V30 975 C 108.365 1.07204 1.31163 0
M  V30 976 O 109.571 1.25591 1.28945 0
M  V30 977 H 105.946 0.683048 0.314562 0
M  V30 978 H 107.917 2.95415 0.421047 0
M  V30 979 C 106.666 2.70892 2.17975 0
M  V30 980 H 105.989 3.5246 1.88711 0
M  V30 981 H 107.429 3.13803 2.85138 0
M  V30 982 C 105.888 1.65414 2.93496 0
M  V30 983 O 106.418 1.07619 3.87015 0
M  V30 984 N 104.624 1.36564 2.56512 0
M  V30 985 H 104.171 1.83751 1.80536 0
M  V30 986 H 104.129 0.66223 3.07347 0
M  V30 987 N 107.901 -0.206675 1.56239 0
M  V30 988 C 109.312 -0.772383 1.69974 0
M  V30 989 C 109.663 -1.84353 0.671436 0
M  V30 990 O 108.788 -2.15695 -0.174491 0
M  V30 991 C 109.383 -1.40779 3.08167 0
M  V30 992 C 107.942 -1.92072 3.23706 0
M  V30 993 C 107.089 -0.786347 2.65917 0
M  V30 994 H 110.04 0.0182223 1.5869 0
M  V30 995 H 110.061 -2.27696 3.04852 0
M  V30 996 H 109.573 -0.627958 3.82986 0
M  V30 997 H 107.674 -2.7281 2.53782 0
M  V30 998 H 107.787 -2.09046 4.31087 0
M  V30 999 H 106.151 -1.1976 2.24788 0
M  V30 1000 H 106.934 -0.0189416 3.43295 0
M  V30 1001 N 109.379 -1.50304 -0.473955 0
M  V30 1002 C 110.79 -1.54042 -1.0549 0
M  V30 1003 C 111.141 -0.342248 -1.93192 0
M  V30 1004 O 110.266 0.545157 -2.09421 0
M  V30 1005 C 110.861 -2.79152 -1.91989 0
M  V30 1006 C 109.42 -2.8558 -2.45196 0
M  V30 1007 C 108.567 -2.48295 -1.2347 0
M  V30 1008 H 111.518 -1.5661 -0.256693 0
M  V30 1009 H 111.539 -2.60845 -2.7702 0
M  V30 1010 H 111.051 -3.66339 -1.28131 0
M  V30 1011 H 109.152 -2.02738 -3.12615 0
M  V30 1012 H 109.265 -3.88403 -2.80499 0
M  V30 1013 H 107.629 -2.00669 -1.56856 0
M  V30 1014 H 108.412 -3.37787 -0.612789 0
M  V30 1015 N 110.857 0.726932 -1.39834 0
M  V30 1016 C 112.082 1.52121 -1.40976 0
M  V30 1017 C 112.507 1.88098 -0.00826029 0
M  V30 1018 O 111.865 1.52479 0.980807 0
M  V30 1019 C 111.913 2.78021 -2.29644 0
M  V30 1020 O 111.017 3.74272 -1.73188 0
M  V30 1021 H 110.358 0.45908 -0.479731 0
M  V30 1022 H 112.888 0.896207 -1.83927 0
M  V30 1023 H 112.898 3.26671 -2.44438 0
M  V30 1024 H 111.573 2.51169 -3.31492 0
M  V30 1025 H 110.15 3.33073 -1.6768 0
M  V30 1026 N 112.336 1.25143 0.95797 0
M  V30 1027 C 113.585 1.0909 1.69654 0
M  V30 1028 C 113.898 -0.368548 1.92097 0
M  V30 1029 O 115.104 -0.649455 2.63618 0
M  V30 1030 C 113.56 1.90395 3.05414 0
M  V30 1031 C 113.168 3.4081 2.90779 0
M  V30 1032 C 114.912 1.82901 3.83076 0
M  V30 1033 C 112.819 4.14423 4.21909 0
M  V30 1034 H 111.749 0.404625 0.636235 0
M  V30 1035 H 114.4 1.4931 1.06672 0
M  V30 1036 H 112.782 1.42996 3.69281 0
M  V30 1037 H 113.956 3.95859 2.35865 0
M  V30 1038 H 112.271 3.49361 2.26575 0
M  V30 1039 H 114.868 2.35196 4.80195 0
M  V30 1040 H 115.211 0.796224 4.08615 0
M  V30 1041 H 115.744 2.28033 3.25954 0
M  V30 1042 H 112.483 5.18102 4.01561 0
M  V30 1043 H 112.003 3.64159 4.76601 0
M  V30 1044 H 113.682 4.21956 4.90471 0
M  V30 1045 N 113.814 -1.1601 1.06675 0
M  V30 1046 C 115.044 -1.90251 0.805497 0
M  V30 1047 C 115.452 -1.77891 -0.64431 0
M  V30 1048 O 114.795 -1.12383 -1.45313 0
M  V30 1049 C 114.857 -3.41419 1.12576 0
M  V30 1050 C 114.521 -3.77564 2.57477 0
M  V30 1051 C 115.518 -3.79161 3.55715 0
M  V30 1052 C 113.203 -4.08079 2.92877 0
M  V30 1053 C 115.197 -4.10767 4.8739 0
M  V30 1054 C 112.884 -4.39351 4.24751 0
M  V30 1055 C 113.882 -4.40675 5.21818 0
M  V30 1056 O 113.57 -4.71202 6.51325 0
M  V30 1057 H 113.302 -0.610018 0.291297 0
M  V30 1058 H 115.856 -1.47958 1.4247 0
M  V30 1059 H 114.086 -3.84079 0.449503 0
M  V30 1060 H 115.775 -3.9694 0.84814 0
M  V30 1061 H 116.541 -3.55693 3.29708 0
M  V30 1062 H 112.42 -4.06211 2.17976 0
M  V30 1063 H 115.964 -4.11715 5.63148 0
M  V30 1064 H 111.861 -4.62285 4.50514 0
M  V30 1065 H 112.629 -4.88996 6.56373 0
M  V30 1066 N 115.292 -0.849877 -1.32721 0
M  V30 1067 C 116.222 -0.306308 -2.31482 0
M  V30 1068 C 117.203 0.591952 -1.59468 0
M  V30 1069 O 118.388 0.513199 -1.87296 0
M  V30 1070 C 115.518 0.510204 -3.43532 0
M  V30 1071 C 114.472 -0.293209 -4.26994 0
M  V30 1072 C 113.798 0.647743 -5.30762 0
M  V30 1073 C 115.098 -1.51634 -4.99804 0
M  V30 1074 H 116.792 -1.13153 -2.77195 0
M  V30 1075 H 114.338 -0.545553 -1.33266 0
M  V30 1076 H 116.291 0.900856 -4.11658 0
M  V30 1077 H 115.015 1.36874 -2.96535 0
M  V30 1078 H 113.674 -0.665555 -3.60508 0
M  V30 1079 H 113.322 1.50299 -4.8002 0
M  V30 1080 H 113.022 0.11422 -5.87489 0
M  V30 1081 H 114.546 1.03567 -6.01753 0
M  V30 1082 H 115.96 -1.19824 -5.60638 0
M  V30 1083 H 114.357 -1.98745 -5.66234 0
M  V30 1084 H 115.427 -2.28018 -4.27943 0
M  V30 1085 N 116.77 1.45427 -0.607355 0
M  V30 1086 C 117.68 2.34325 0.113463 0
M  V30 1087 C 118.696 1.51226 0.860617 0
M  V30 1088 O 119.872 1.84029 0.818255 0
M  V30 1089 C 116.937 3.28839 1.09844 0
M  V30 1090 C 115.998 4.27844 0.353271 0
M  V30 1091 C 115.231 5.17842 1.29133 0
M  V30 1092 O 115.454 5.11264 2.52913 0
M  V30 1093 O 114.388 5.96713 0.788523 0
M  V30 1094 H 118.214 2.97364 -0.617094 0
M  V30 1095 H 115.799 1.44807 -0.367619 0
M  V30 1096 H 117.681 3.8708 1.66575 0
M  V30 1097 H 116.356 2.68365 1.81003 0
M  V30 1098 H 115.263 3.7322 -0.256494 0
M  V30 1099 H 116.596 4.91173 -0.317822 0
M  V30 1100 N 118.248 0.346503 1.53744 0
M  V30 1101 C 119.211 -0.496439 2.23759 0
M  V30 1102 C 120.211 -1.0252 1.2388 0
M  V30 1103 O 121.401 -0.913974 1.48297 0
M  V30 1104 C 118.533 -1.69187 2.95954 0
M  V30 1105 H 119.726 0.115952 2.99676 0
M  V30 1106 H 117.279 0.0978939 1.55993 0
M  V30 1107 H 118.014 -2.34288 2.24231 0
M  V30 1108 H 117.799 -1.31989 3.69217 0
M  V30 1109 H 119.289 -2.28969 3.49232 0
M  V30 1110 N 119.726 -1.57421 0.075193 0
M  V30 1111 C 120.956 -1.97659 -0.601203 0
M  V30 1112 C 121.364 -0.952427 -1.63479 0
M  V30 1113 O 120.707 0.0688241 -1.83571 0
M  V30 1114 C 120.769 -3.34218 -1.32434 0
M  V30 1115 C 120.433 -4.5484 -0.443826 0
M  V30 1116 C 121.43 -5.19034 0.299969 0
M  V30 1117 C 119.115 -5.00952 -0.367709 0
M  V30 1118 C 121.109 -6.27695 1.10807 0
M  V30 1119 C 118.796 -6.09484 0.444058 0
M  V30 1120 C 119.794 -6.72719 1.18061 0
M  V30 1121 O 119.482 -7.79161 1.97898 0
M  V30 1122 H 119.214 -0.65494 -0.167422 0
M  V30 1123 H 121.768 -2.04886 0.145157 0
M  V30 1124 H 119.998 -3.23615 -2.11685 0
M  V30 1125 H 121.687 -3.59038 -1.89331 0
M  V30 1126 H 122.453 -4.84351 0.250776 0
M  V30 1127 H 118.332 -4.51509 -0.930638 0
M  V30 1128 H 121.876 -6.76982 1.68347 0
M  V30 1129 H 117.773 -6.43601 0.494803 0
M  V30 1130 H 118.541 -7.96055 1.90367 0
M  V30 1131 N 121.204 0.198386 -1.56346 0
M  V30 1132 C 122.114 1.2664 -1.97483 0
M  V30 1133 C 123.13 1.49989 -0.882002 0
M  V30 1134 O 124.306 1.62668 -1.18748 0
M  V30 1135 C 121.371 2.59141 -2.30319 0
M  V30 1136 C 120.432 2.43892 -3.53292 0
M  V30 1137 C 119.665 3.70074 -3.84553 0
M  V30 1138 O 119.888 4.74101 -3.1715 0
M  V30 1139 O 118.822 3.658 -4.7799 0
M  V30 1140 H 122.648 0.947304 -2.88548 0
M  V30 1141 H 120.233 0.403123 -1.43859 0
M  V30 1142 H 122.115 3.37352 -2.5253 0
M  V30 1143 H 120.79 2.90684 -1.42423 0
M  V30 1144 H 119.697 1.63803 -3.36332 0
M  V30 1145 H 121.03 2.17282 -4.41644 0
M  V30 1146 N 122.682 1.50554 0.465978 0
M  V30 1147 C 123.592 1.72585 1.58907 0
M  V30 1148 C 124.608 0.60911 1.6299 0
M  V30 1149 O 125.784 0.88804 1.80765 0
M  V30 1150 C 122.849 1.81995 2.95091 0
M  V30 1151 C 121.91 3.05751 3.01355 0
M  V30 1152 C 121.143 3.14702 4.31043 0
M  V30 1153 O 121.366 2.30313 5.21835 0
M  V30 1154 O 120.3 4.07468 4.43005 0
M  V30 1155 H 124.126 2.67799 1.43239 0
M  V30 1156 H 121.711 1.34711 0.646013 0
M  V30 1157 H 123.593 1.90335 3.75966 0
M  V30 1158 H 122.268 0.899659 3.10947 0
M  V30 1159 H 121.175 3.02908 2.19539 0
M  V30 1160 H 122.508 3.97375 2.90437 0
M  V30 1161 N 124.16 -0.719506 1.40217 0
M  V30 1162 C 125.39 -1.50646 1.41384 0
M  V30 1163 C 125.798 -1.89197 0.0107743 0
M  V30 1164 O 125.141 -1.55709 -0.974708 0
M  V30 1165 C 125.203 -2.81405 2.23722 0
M  V30 1166 C 124.867 -2.65199 3.72181 0
M  V30 1167 C 125.864 -2.32717 4.64907 0
M  V30 1168 C 123.549 -2.81586 4.1595 0
M  V30 1169 C 125.543 -2.16827 5.99387 0
M  V30 1170 C 123.23 -2.65313 5.50502 0
M  V30 1171 C 124.228 -2.32981 6.42035 0
M  V30 1172 O 123.916 -2.16827 7.74107 0
M  V30 1173 H 123.648 -0.471606 0.484318 0
M  V30 1174 H 126.202 -0.895456 1.84853 0
M  V30 1175 H 124.432 -3.44823 1.75026 0
M  V30 1176 H 126.121 -3.43102 2.16878 0
M  V30 1177 H 126.887 -2.19694 4.32388 0
M  V30 1178 H 122.766 -3.0574 3.45027 0
M  V30 1179 H 126.31 -1.91513 6.70797 0
M  V30 1180 H 122.207 -2.7792 5.82607 0
M  V30 1181 H 122.975 -2.31778 7.84998 0
M  V30 1182 N 125.638 -1.25649 -0.95132 0
M  V30 1183 C 126.866 -1.13343 -1.73092 0
M  V30 1184 C 127.281 0.312434 -1.86197 0
M  V30 1185 O 126.638 1.21465 -1.36207 0
M  V30 1186 C 126.689 -1.78602 -3.14299 0
M  V30 1187 O 126.41 -3.17537 -3.01831 0
M  V30 1188 C 127.911 -1.72119 -4.08522 0
M  V30 1189 H 125.131 -0.395181 -0.542285 0
M  V30 1190 H 127.675 -1.66076 -1.19328 0
M  V30 1191 H 125.83 -1.29832 -3.64996 0
M  V30 1192 H 126.244 -3.49676 -3.90931 0
M  V30 1193 H 127.718 -2.22435 -5.052 0
M  V30 1194 H 128.195 -0.685635 -4.33815 0
M  V30 1195 H 128.801 -2.20393 -3.63741 0
M  V30 1196 N 127.117 1.15442 -1.07289 0
M  V30 1197 C 128.342 1.90638 -0.816828 0
M  V30 1198 C 128.767 1.77445 0.624083 0
M  V30 1199 O 128.125 1.10671 1.43602 0
M  V30 1200 C 128.173 3.39008 -1.22906 0
M  V30 1201 O 127.277 4.10701 -0.373975 0
M  V30 1202 H 126.618 0.593555 -0.297638 0
M  V30 1203 H 129.148 1.46198 -1.43134 0
M  V30 1204 H 129.158 3.89801 -1.20497 0
M  V30 1205 H 127.833 3.47929 -2.27856 0
M  V30 1206 H 126.41 3.70046 -0.460499 0
M  V30 1207 N 128.595 0.856903 1.32268 0
M  V30 1208 C 129.542 0.301172 2.28827 0
M  V30 1209 C 130.512 -0.593104 1.5515 0
M  V30 1210 O 131.697 -0.527537 1.83362 0
M  V30 1211 C 128.837 -0.502523 3.41422 0
M  V30 1212 C 127.95 0.417797 4.29975 0
M  V30 1213 C 127.085 -0.398749 5.29701 0
M  V30 1214 C 126.124 0.518827 6.09897 0
M  V30 1215 N 125.261 -0.260674 7.01616 0
M  V30 1216 H 130.101 1.12983 2.75751 0
M  V30 1217 H 127.638 0.568582 1.35667 0
M  V30 1218 H 129.596 -0.984141 4.05426 0
M  V30 1219 H 128.226 -1.29599 2.95642 0
M  V30 1220 H 127.278 1.01781 3.66531 0
M  V30 1221 H 128.59 1.12191 4.86019 0
M  V30 1222 H 127.744 -0.943435 5.9932 0
M  V30 1223 H 126.483 -1.13622 4.7428 0
M  V30 1224 H 125.488 1.07538 5.39181 0
M  V30 1225 H 126.713 1.25495 6.67404 0
M  V30 1226 H 124.659 -0.981198 6.4862 0
M  V30 1227 H 124.576 0.384364 7.55022 0
M  V30 1228 H 125.844 -0.787014 7.75517 0
M  V30 1229 N 130.073 -1.45103 0.615059 0
M  V30 1230 C 131.003 -2.33339 -0.0865619 0
M  V30 1231 C 131.984 -1.4727 -0.851209 0
M  V30 1232 O 133.169 -1.76026 -0.820281 0
M  V30 1233 C 130.299 -3.30095 -1.07956 0
M  V30 1234 C 129.253 -4.25858 -0.427628 0
M  V30 1235 C 128.579 -5.12361 -1.5294 0
M  V30 1236 C 129.879 -5.18165 0.655944 0
M  V30 1237 H 131.573 -2.92254 0.650224 0
M  V30 1238 H 129.119 -1.40532 0.314138 0
M  V30 1239 H 131.072 -3.90698 -1.57901 0
M  V30 1240 H 129.796 -2.69355 -1.84703 0
M  V30 1241 H 128.455 -3.66564 0.0510292 0
M  V30 1242 H 128.103 -4.47984 -2.28734 0
M  V30 1243 H 127.803 -5.77238 -1.09865 0
M  V30 1244 H 129.327 -5.75833 -2.03098 0
M  V30 1245 H 130.741 -5.72796 0.240257 0
M  V30 1246 H 129.138 -5.91559 1.00888 0
M  V30 1247 H 130.208 -4.60144 1.52957 0
M  V30 1248 N 131.551 -0.354651 -1.53558 0
M  V30 1249 C 132.828 0.294281 -1.93374 0
M  V30 1250 C 133.208 1.67313 -1.28723 0
M  V30 1251 O 132.556 2.24179 -0.442247 0
M  V30 1252 C 132.766 0.355445 -3.47185 0
M  V30 1253 C 134.114 0.601007 -4.20325 0
M  V30 1254 O 135.138 0.437106 -3.53508 0
M  V30 1255 O 133.997 0.919322 -5.38712 0
M  V30 1256 H 131.091 0.174033 -0.808481 0
M  V30 1257 H 133.637 -0.406638 -1.64756 0
M  V30 1258 H 132.409 -0.611729 -3.86489 0
M  V30 1259 H 132.032 1.1027 -3.82003 0
M  V30 1260 N 133.029 1.57378 -0.0835403 0
M  V30 1261 C 133.992 2.12252 0.864959 0
M  V30 1262 C 134.992 1.04916 1.21858 0
M  V30 1263 O 136.182 1.30853 1.14991 0
M  V30 1264 C 133.314 2.63358 2.16461 0
M  V30 1265 H 134.507 2.97371 0.388676 0
M  V30 1266 H 132.06 1.55423 0.165317 0
M  V30 1267 H 132.795 1.81727 2.686 0
M  V30 1268 H 132.58 3.41826 1.92087 0
M  V30 1269 H 134.07 3.05847 2.84337 0
M  V30 1270 N 134.507 -0.190092 1.56449 0
M  V30 1271 C 135.437 -1.23816 1.97969 0
M  V30 1272 C 136.418 -1.47201 0.852395 0
M  V30 1273 O 137.603 -1.58854 1.1171 0
M  V30 1274 C 134.733 -2.5813 2.3235 0
M  V30 1275 C 133.687 -2.49348 3.47864 0
M  V30 1276 C 133.013 -3.8798 3.67934 0
M  V30 1277 C 134.313 -2.01424 4.81898 0
M  V30 1278 H 136.007 -0.89311 2.85769 0
M  V30 1279 H 133.553 -0.428177 1.37487 0
M  V30 1280 H 135.506 -3.31637 2.59991 0
M  V30 1281 H 134.23 -2.94386 1.41438 0
M  V30 1282 H 132.889 -1.78297 3.20321 0
M  V30 1283 H 132.537 -4.21597 2.74344 0
M  V30 1284 H 132.237 -3.82978 4.45648 0
M  V30 1285 H 133.761 -4.63101 3.97957 0
M  V30 1286 H 135.175 -2.64693 5.08538 0
M  V30 1287 H 133.572 -2.07413 5.63116 0
M  V30 1288 H 134.642 -0.967677 4.75146 0
M  V30 1289 N 135.985 -1.50799 -0.457987 0
M  V30 1290 C 136.917 -1.66786 -1.57211 0
M  V30 1291 C 137.93 -0.548962 -1.53265 0
M  V30 1292 O 139.119 -0.8226 -1.58416 0
M  V30 1293 C 136.219 -1.64834 -2.96113 0
M  V30 1294 C 135.392 -2.92971 -3.24787 0
M  V30 1295 C 134.451 -2.83485 -4.43309 0
M  V30 1296 O 133.477 -3.5744 -4.42973 0
M  V30 1297 N 134.679 -1.97929 -5.45714 0
M  V30 1298 H 137.444 -2.62889 -1.43909 0
M  V30 1299 H 135.005 -1.48427 -0.646617 0
M  V30 1300 H 136.997 -1.56084 -3.7339 0
M  V30 1301 H 135.567 -0.764118 -3.03117 0
M  V30 1302 H 134.787 -3.15749 -2.36 0
M  V30 1303 H 136.075 -3.77834 -3.40762 0
M  V30 1304 H 135.473 -1.37182 -5.48815 0
M  V30 1305 H 134.03 -1.95073 -6.21924 0
M  V30 1306 N 137.463 0.71206 -1.40597 0
M  V30 1307 C 138.395 1.83704 -1.37061 0
M  V30 1308 C 139.408 1.60453 -0.275426 0
M  V30 1309 O 140.597 1.70262 -0.53602 0
M  V30 1310 C 137.697 3.20172 -1.11099 0
M  V30 1311 C 136.87 3.7059 -2.3234 0
M  V30 1312 C 135.929 4.85681 -2.02485 0
M  V30 1313 O 134.955 4.9815 -2.75382 0
M  V30 1314 N 136.157 5.71735 -1.00497 0
M  V30 1315 H 138.922 1.87235 -2.34016 0
M  V30 1316 H 136.483 0.893739 -1.34996 0
M  V30 1317 H 138.475 3.94768 -0.891064 0
M  V30 1318 H 137.045 3.11767 -0.227989 0
M  V30 1319 H 136.265 2.87085 -2.7014 0
M  V30 1320 H 137.553 4.01011 -3.13157 0
M  V30 1321 H 136.951 5.64275 -0.401298 0
M  V30 1322 H 135.508 6.463 -0.844942 0
M  V30 1323 N 138.941 1.26152 0.944643 0
M  V30 1324 C 140.357 1.03189 1.21754 0
M  V30 1325 C 140.557 -0.245112 2.00004 0
M  V30 1326 O 139.613 -0.955176 2.33736 0
M  V30 1327 C 140.926 2.26119 1.98219 0
M  V30 1328 C 142.474 2.30984 2.11224 0
M  V30 1329 C 142.949 3.53597 2.91089 0
M  V30 1330 N 144.44 3.54053 2.98664 0
M  V30 1331 C 145.175 4.45593 3.60881 0
M  V30 1332 N 144.671 5.47416 4.24626 0
M  V30 1333 N 146.464 4.33252 3.58119 0
M  V30 1334 H 138.615 2.08177 0.421437 0
M  V30 1335 H 140.878 0.914723 0.248969 0
M  V30 1336 H 140.584 3.18984 1.48128 0
M  V30 1337 H 140.458 2.3009 2.98895 0
M  V30 1338 H 142.845 1.38635 2.60508 0
M  V30 1339 H 142.926 2.31026 1.09821 0
M  V30 1340 H 142.57 4.46273 2.42493 0
M  V30 1341 H 142.5 3.50802 3.92741 0
M  V30 1342 H 144.991 2.80403 2.53343 0
M  V30 1343 H 145.304 6.13459 4.69987 0
M  V30 1344 H 143.649 5.51278 4.23223 0
M  V30 1345 H 146.84 3.52924 3.0751 0
M  V30 1346 H 147.013 5.04786 4.06319 0
M  V30 1347 N 140.419 -1.14872 1.07899 0
M  V30 1348 C 141.329 -2.2341 0.715915 0
M  V30 1349 C 142.345 -1.71808 -0.275306 0
M  V30 1350 O 143.521 -2.01039 -0.120545 0
M  V30 1351 C 140.586 -3.46474 0.125168 0
M  V30 1352 C 139.647 -4.13039 1.17034 0
M  V30 1353 C 138.88 -5.30229 0.607688 0
M  V30 1354 O 139.103 -5.675 -0.574497 0
M  V30 1355 O 138.037 -5.86444 1.35526 0
M  V30 1356 H 141.863 -2.56808 1.62121 0
M  V30 1357 H 139.448 -1.22702 0.852322 0
M  V30 1358 H 141.33 -4.20917 -0.201729 0
M  V30 1359 H 140.005 -3.14811 -0.753364 0
M  V30 1360 H 138.912 -3.40493 1.54968 0
M  V30 1361 H 140.245 -4.48796 2.02097 0
M  V30 1362 N 141.898 -0.863906 -1.31812 0
M  V30 1363 C 142.83 -0.272485 -2.27575 0
M  V30 1364 C 143.843 0.56104 -1.52827 0
M  V30 1365 O 145.032 0.384021 -1.7432 0
M  V30 1366 C 142.132 0.63283 -3.32939 0
M  V30 1367 C 141.305 -0.166902 -4.37081 0
M  V30 1368 C 140.364 0.665608 -5.21973 0
M  V30 1369 O 139.39 0.0958091 -5.69119 0
M  V30 1370 N 140.592 1.9787 -5.45736 0
M  V30 1371 H 143.357 -1.0954 -2.78964 0
M  V30 1372 H 140.918 -0.724791 -1.4477 0
M  V30 1373 H 142.91 1.19532 -3.86645 0
M  V30 1374 H 141.48 1.35642 -2.81638 0
M  V30 1375 H 140.7 -0.910838 -3.83533 0
M  V30 1376 H 141.988 -0.715874 -5.03739 0
M  V30 1377 H 141.386 2.46484 -5.09178 0
M  V30 1378 H 139.943 2.48911 -6.024 0
M  V30 1379 N 143.376 1.44774 -0.622745 0
M  V30 1380 C 144.308 2.28856 0.125485 0
M  V30 1381 C 145.321 1.40811 0.817069 0
M  V30 1382 O 146.51 1.65044 0.679918 0
M  V30 1383 C 143.61 3.16963 1.19949 0
M  V30 1384 C 142.783 4.33374 0.592064 0
M  V30 1385 C 141.842 5.02577 1.55893 0
M  V30 1386 O 140.868 5.58873 1.07933 0
M  V30 1387 N 142.07 5.03256 2.89334 0
M  V30 1388 H 144.835 2.93713 -0.596068 0
M  V30 1389 H 142.396 1.55129 -0.463303 0
M  V30 1390 H 144.388 3.60123 1.84644 0
M  V30 1391 H 142.958 2.53913 1.82337 0
M  V30 1392 H 142.178 3.93509 -0.233322 0
M  V30 1393 H 143.466 5.08527 0.166738 0
M  V30 1394 H 142.864 4.58836 3.30887 0
M  V30 1395 H 141.421 5.50232 3.49412 0
M  V30 1396 N 144.854 0.36279 1.53368 0
M  V30 1397 C 145.784 -0.476976 2.28576 0
M  V30 1398 C 146.765 -1.08631 1.30894 0
M  V30 1399 O 147.95 -1.10409 1.59761 0
M  V30 1400 C 145.08 -1.61828 3.07293 0
M  V30 1401 C 144.034 -1.13633 4.1264 0
M  V30 1402 C 143.36 -2.36766 4.79423 0
M  V30 1403 C 144.66 -0.223061 5.21823 0
M  V30 1404 H 146.354 0.150474 2.99022 0
M  V30 1405 H 143.9 0.0738103 1.43811 0
M  V30 1406 H 145.853 -2.21237 3.58653 0
M  V30 1407 H 144.577 -2.27292 2.34533 0
M  V30 1408 H 143.236 -0.564945 3.62221 0
M  V30 1409 H 142.884 -3.0068 4.03238 0
M  V30 1410 H 142.584 -2.05192 5.50609 0
M  V30 1411 H 144.108 -2.96865 5.33576 0
M  V30 1412 H 145.522 -0.724545 5.68703 0
M  V30 1413 H 143.919 0.001678 6.001 0
M  V30 1414 H 144.989 0.735553 4.79289 0
M  V30 1415 N 146.332 -1.57332 0.0918853 0
M  V30 1416 C 147.262 -2.16872 -0.865371 0
M  V30 1417 C 148.243 -1.10118 -1.29646 0
M  V30 1418 O 149.428 -1.38242 -1.36392 0
M  V30 1419 C 146.558 -2.74649 -2.12569 0
M  V30 1420 C 145.512 -3.86747 -1.83333 0
M  V30 1421 C 144.838 -4.31212 -3.16166 0
M  V30 1422 C 146.138 -5.10089 -1.1228 0
M  V30 1423 H 147.832 -2.97114 -0.369307 0
M  V30 1424 H 145.378 -1.42918 -0.176194 0
M  V30 1425 H 147.331 -3.14952 -2.7997 0
M  V30 1426 H 146.055 -1.91657 -2.64452 0
M  V30 1427 H 144.714 -3.46978 -1.18331 0
M  V30 1428 H 144.362 -3.45115 -3.6593 0
M  V30 1429 H 144.062 -5.06788 -2.97388 0
M  V30 1430 H 145.586 -4.74146 -3.84731 0
M  V30 1431 H 147 -5.47582 -1.69785 0
M  V30 1432 H 145.397 -5.91073 -1.03693 0
M  V30 1433 H 146.467 -4.84786 -0.105041 0
M  V30 1434 N 147.81 0.181792 -1.56548 0
M  V30 1435 C 148.72 1.24538 -1.98815 0
M  V30 1436 C 149.736 1.49045 -0.897861 0
M  V30 1437 O 150.912 1.61399 -1.20467 0
M  V30 1438 C 147.977 2.56683 -2.33055 0
M  V30 1439 C 147.038 2.40131 -3.55859 0
M  V30 1440 C 146.271 3.65975 -3.88456 0
M  V30 1441 O 146.494 4.70711 -3.22161 0
M  V30 1442 O 145.428 3.6071 -4.81842 0
M  V30 1443 H 149.254 0.916647 -2.89536 0
M  V30 1444 H 146.839 0.387842 -1.44278 0
M  V30 1445 H 148.721 3.34655 -2.56094 0
M  V30 1446 H 147.396 2.89157 -1.45498 0
M  V30 1447 H 146.303 1.60226 -3.38051 0
M  V30 1448 H 147.636 2.12585 -4.43924 0
M  V30 1449 N 149.288 1.51039 0.449983 0
M  V30 1450 C 150.513 1.6715 1.22783 0
M  V30 1451 C 150.938 0.363081 1.84563 0
M  V30 1452 O 150.296 -0.675433 1.68249 0
M  V30 1453 C 150.344 2.77985 2.29689 0
M  V30 1454 O 149.448 2.40707 3.34864 0
M  V30 1455 H 148.789 0.557746 0.360299 0
M  V30 1456 H 151.319 1.97535 0.533005 0
M  V30 1457 H 151.329 3.01693 2.74673 0
M  V30 1458 H 150.004 3.72935 1.84098 0
M  V30 1459 H 148.581 2.27523 2.95445 0
M  V30 1460 N 150.766 -0.704594 1.40972 0
M  V30 1461 C 151.696 -1.83124 1.44872 0
M  V30 1462 C 152.677 -1.67281 0.30838 0
M  V30 1463 O 153.862 -1.87149 0.518556 0
M  V30 1464 C 150.992 -3.21181 1.32136 0
M  V30 1465 C 149.946 -3.51714 2.43888 0
M  V30 1466 C 149.272 -4.89032 2.16222 0
M  V30 1467 C 150.572 -3.516 3.86232 0
M  V30 1468 H 152.266 -1.80117 2.39161 0
M  V30 1469 H 149.812 -0.865145 1.15114 0
M  V30 1470 H 151.765 -3.99702 1.33479 0
M  V30 1471 H 150.489 -3.24791 0.343279 0
M  V30 1472 H 149.148 -2.75539 2.41813 0
M  V30 1473 H 148.796 -4.89256 1.16778 0
M  V30 1474 H 148.496 -5.10426 2.911 0
M  V30 1475 H 150.02 -5.69873 2.19265 0
M  V30 1476 H 151.434 -4.2014 3.9007 0
M  V30 1477 H 149.831 -3.84523 4.60719 0
M  V30 1478 H 150.901 -2.50757 4.15029 0
M  V30 1479 N 152.244 -1.26651 -0.937939 0
M  V30 1480 C 153.492 -1.12165 -1.68118 0
M  V30 1481 C 153.813 0.334983 -1.92101 0
M  V30 1482 O 153.083 1.23583 -1.52 0
M  V30 1483 H 151.663 -0.412093 -0.623048 0
M  V30 1484 H 154.325 -1.59027 -1.12678 0
M  V30 1485 H 153.421 -1.64289 -2.6536 0
M  V30 1486 N 153.722 1.14298 -1.08507 0
M  V30 1487 C 154.67 2.21483 -0.710483 0
M  V30 1488 C 155.664 1.66998 0.284234 0
M  V30 1489 O 156.87 1.79401 0.146692 0
M  V30 1490 H 153.245 0.721578 -0.211729 0
M  V30 1491 H 155.216 2.50348 -1.62384 0
M  V30 1492 C 153.965 3.4743 -0.137007 0
M  V30 1493 H 153.288 3.89686 -0.893592 0
M  V30 1494 H 154.728 4.2391 0.0872789 0
M  V30 1495 C 153.187 3.17548 1.12538 0
M  V30 1496 O 153.717 3.35437 2.21009 0
M  V30 1497 N 151.923 2.71499 1.03617 0
M  V30 1498 H 151.47 2.57143 0.153403 0
M  V30 1499 H 151.428 2.51881 1.88158 0
M  V30 1500 N 155.201 0.870884 1.31352 0
M  V30 1501 C 156.449 0.48132 1.96285 0
M  V30 1502 C 156.77 -0.969813 1.69173 0
M  V30 1503 O 156.04 -1.67998 1.00764 0
M  V30 1504 H 154.62 0.175002 0.726212 0
M  V30 1505 H 157.282 1.11087 1.60143 0
M  V30 1506 H 156.378 0.639825 3.05471 0
M  V30 1507 N 156.679 -1.44442 0.630414 0
M  V30 1508 C 157.907 -2.06414 0.141671 0
M  V30 1509 C 158.322 -1.47105 -1.18345 0
M  V30 1510 O 157.679 -0.593662 -1.72574 0
M  V30 1511 C 157.73 -3.61494 0.0199784 0
M  V30 1512 O 157.451 -4.18594 1.29269 0
M  V30 1513 C 158.952 -4.40499 -0.497544 0
M  V30 1514 H 156.172 -0.666292 0.0793452 0
M  V30 1515 H 158.716 -1.85323 0.864614 0
M  V30 1516 H 156.871 -3.8185 -0.653402 0
M  V30 1517 H 157.285 -5.12026 1.13707 0
M  V30 1518 H 158.759 -5.49433 -0.531708 0
M  V30 1519 H 159.236 -4.11895 -1.52445 0
M  V30 1520 H 159.842 -4.25061 0.142562 0
M  V30 1521 N 158.157 -0.370918 -1.53173 0
M  V30 1522 C 159.434 0.273754 -1.93675 0
M  V30 1523 C 159.814 1.65938 -1.3049 0
M  V30 1524 O 159.162 2.23698 -0.465999 0
M  V30 1525 C 159.372 0.318602 -3.47543 0
M  V30 1526 C 160.72 0.556392 -4.20939 0
M  V30 1527 O 161.744 0.399587 -3.53952 0
M  V30 1528 O 160.603 0.862133 -5.39657 0
M  V30 1529 H 157.697 0.165448 -0.810281 0
M  V30 1530 H 160.243 -0.42409 -1.64315 0
M  V30 1531 H 159.015 -0.652687 -3.85818 0
M  V30 1532 H 158.638 1.06212 -3.83151 0
M  V30 1533 N 159.635 1.57281 -0.100228 0
M  V30 1534 C 160.882 1.94537 0.562268 0
M  V30 1535 C 161.21 0.982315 1.67871 0
M  V30 1536 O 160.465 0.00280936 1.957 0
M  V30 1537 C 160.764 3.38305 1.15259 0
M  V30 1538 C 160.43 4.50618 0.159409 0
M  V30 1539 C 159.092 4.81066 -0.113741 0
M  V30 1540 C 161.444 5.18615 -0.518461 0
M  V30 1541 C 158.772 5.76835 -1.07137 0
M  V30 1542 C 161.124 6.15412 -1.46459 0
M  V30 1543 C 159.788 6.44262 -1.74592 0
M  V30 1544 H 159.058 0.711863 0.205748 0
M  V30 1545 H 161.705 1.90679 -0.17715 0
M  V30 1546 H 160.01 3.38766 1.96836 0
M  V30 1547 H 161.707 3.64435 1.67297 0
M  V30 1548 H 158.297 4.2689 0.382491 0
M  V30 1549 H 162.481 4.95264 -0.320581 0
M  V30 1550 H 157.737 5.975 -1.29628 0
M  V30 1551 H 161.911 6.67194 -1.99564 0
M  V30 1552 H 159.538 7.1828 -2.48953 0
M  V30 1553 N 161.113 -0.173488 1.56642 0
M  V30 1554 C 162.338 -0.910149 1.86363 0
M  V30 1555 C 162.763 -1.75132 0.686318 0
M  V30 1556 O 162.121 -1.77595 -0.364643 0
M  V30 1557 C 162.169 -1.76447 3.14482 0
M  V30 1558 O 161.273 -2.86584 2.96553 0
M  V30 1559 H 160.614 -0.255086 0.613047 0
M  V30 1560 H 163.144 -0.172283 2.03873 0
M  V30 1561 H 163.154 -2.16483 3.45831 0
M  V30 1562 H 161.829 -1.14658 3.99783 0
M  V30 1563 H 160.406 -2.50146 2.76553 0
M  V30 1564 N 162.591 -1.51276 -0.441967 0
M  V30 1565 C 163.837 -1.63958 -1.19355 0
M  V30 1566 C 164.17 -0.352543 -1.90973 0
M  V30 1567 O 163.445 0.647627 -1.83401 0
M  V30 1568 C 163.728 -2.83979 -2.21422 0
M  V30 1569 C 163.581 -4.22646 -1.53918 0
M  V30 1570 C 164.9 -2.99521 -3.22451 0
M  V30 1571 H 162.019 -0.596709 -0.432559 0
M  V30 1572 H 164.661 -1.83748 -0.483398 0
M  V30 1573 H 162.811 -2.67237 -2.81987 0
M  V30 1574 H 164.483 -4.51045 -0.967256 0
M  V30 1575 H 162.726 -4.25558 -0.841615 0
M  V30 1576 H 163.397 -5.02609 -2.28229 0
M  V30 1577 H 165.873 -3.14944 -2.71937 0
M  V30 1578 H 164.749 -3.85072 -3.91166 0
M  V30 1579 H 165.01 -2.11391 -3.88287 0
M  V30 1580 N 164.069 0.697108 -1.41344 0
M  V30 1581 C 165.294 1.49096 -1.44171 0
M  V30 1582 C 165.719 1.88038 -0.0481568 0
M  V30 1583 O 165.077 1.54525 0.948243 0
M  V30 1584 C 165.125 2.73088 -2.3549 0
M  V30 1585 O 164.229 3.70514 -1.81088 0
M  V30 1586 H 163.57 0.448801 -0.489361 0
M  V30 1587 H 166.1 0.856992 -1.85787 0
M  V30 1588 H 166.11 3.21413 -2.51312 0
M  V30 1589 H 164.785 2.44081 -3.36745 0
M  V30 1590 H 163.362 3.29441 -1.74708 0
M  V30 1591 N 165.547 1.27147 0.931209 0
M  V30 1592 C 166.772 1.16191 1.71797 0
M  V30 1593 C 167.197 -0.278004 1.86034 0
M  V30 1594 O 166.555 -1.20137 1.35782 0
M  V30 1595 C 166.603 1.84673 3.09723 0
M  V30 1596 O 165.707 1.14231 3.96264 0
M  V30 1597 H 165.048 0.404303 0.526721 0
M  V30 1598 H 167.578 1.68152 1.1656 0
M  V30 1599 H 167.588 1.91893 3.60057 0
M  V30 1600 H 166.263 2.89421 2.98677 0
M  V30 1601 H 164.84 1.15056 3.54706 0
M  V30 1602 N 167.025 -1.13721 1.09112 0
M  V30 1603 C 168.25 -1.89314 0.847053 0
M  V30 1604 C 168.675 -1.78416 -0.595774 0
M  V30 1605 O 168.033 -1.12942 -1.41823 0
M  V30 1606 C 168.081 -3.3701 1.28284 0
M  V30 1607 O 167.185 -4.10054 0.439267 0
M  V30 1608 H 166.526 -0.588745 0.307044 0
M  V30 1609 H 169.056 -1.43902 1.45442 0
M  V30 1610 H 169.066 -3.87834 1.26683 0
M  V30 1611 H 167.741 -3.4426 2.33363 0
M  V30 1612 H 166.318 -3.69266 0.519312 0
M  V30 1613 N 168.503 -0.877838 -1.30888 0
M  V30 1614 C 169.466 -0.344265 -2.266 0
M  V30 1615 C 170.466 0.50922 -1.52524 0
M  V30 1616 O 171.656 0.317398 -1.71284 0
M  V30 1617 C 168.788 0.510198 -3.37061 0
M  V30 1618 H 169.981 -1.1893 -2.7531 0
M  V30 1619 H 167.534 -0.654088 -1.41956 0
M  V30 1620 H 168.269 1.37612 -2.93655 0
M  V30 1621 H 168.054 -0.101047 -3.9197 0
M  V30 1622 H 169.544 0.875537 -4.08319 0
M  V30 1623 N 169.982 1.44106 -0.638065 0
M  V30 1624 C 171.207 2.0685 -0.150916 0
M  V30 1625 C 171.632 1.47417 1.16833 0
M  V30 1626 O 170.99 0.578264 1.71831 0
M  V30 1627 C 171.038 3.60555 -0.05708 0
M  V30 1628 O 170.142 4.00465 0.984972 0
M  V30 1629 H 169.483 0.658151 -0.0879399 0
M  V30 1630 H 172.013 1.84865 -0.876707 0
M  V30 1631 H 172.023 4.07789 0.131232 0
M  V30 1632 H 170.698 4.03193 -1.02021 0
M  V30 1633 H 169.275 3.64849 0.770672 0
M  V30 1634 N 171.46 0.379036 1.52974 0
M  V30 1635 C 172.393 -0.504932 2.22544 0
M  V30 1636 C 173.371 -1.0723 1.22231 0
M  V30 1637 O 174.555 -1.12589 1.51182 0
M  V30 1638 C 171.682 -1.69794 2.93066 0
M  V30 1639 C 170.728 -1.25678 4.07563 0
M  V30 1640 S 171.561 -0.246852 5.34931 0
M  V30 1641 C 172.717 -1.44588 6.08971 0
M  V30 1642 H 172.95 0.0858666 2.97176 0
M  V30 1643 H 170.483 0.163183 1.53535 0
M  V30 1644 H 172.441 -2.38219 3.34308 0
M  V30 1645 H 171.102 -2.26002 2.18133 0
M  V30 1646 H 170.295 -2.14725 4.5597 0
M  V30 1647 H 169.897 -0.651584 3.6828 0
M  V30 1648 H 172.189 -2.37469 6.34519 0
M  V30 1649 H 173.132 -1.00292 7.00962 0
M  V30 1650 H 173.54 -1.65804 5.39601 0
M  V30 1651 N 172.938 -1.57226 0.108567 0
M  V30 1652 C 174.215 -1.86333 -0.594939 0
M  V30 1653 C 174.595 -1.00788 -1.85486 0
M  V30 1654 O 173.943 -0.0839293 -2.28346 0
M  V30 1655 C 174.153 -3.37265 -0.897405 0
M  V30 1656 C 175.501 -4.05629 -1.25501 0
M  V30 1657 O 176.525 -3.42224 -0.987998 0
M  V30 1658 O 175.384 -5.17531 -1.75567 0
M  V30 1659 H 172.478 -0.771018 -0.2991 0
M  V30 1660 H 175.024 -1.69102 0.142283 0
M  V30 1661 H 173.796 -3.913 -0.00413806 0
M  V30 1662 H 173.419 -3.59889 -1.69014 0
M  V30 1663 N 174.416 0.165178 -1.56732 0
M  V30 1664 C 175.644 0.896218 -1.86482 0
M  V30 1665 C 176.059 1.75555 -0.694675 0
M  V30 1666 O 175.416 1.79379 0.33607 0
M  V30 1667 C 175.467 1.76792 -3.1532 0
M  V30 1668 O 175.188 0.943239 -4.27825 0
M  V30 1669 C 176.689 2.6081 -3.58459 0
M  V30 1670 H 173.909 0.260064 -0.618553 0
M  V30 1671 H 176.453 0.163428 -2.03846 0
M  V30 1672 H 174.608 2.45398 -2.99764 0
M  V30 1673 H 175.022 1.53998 -5.01383 0
M  V30 1674 H 176.496 3.17579 -4.51495 0
M  V30 1675 H 176.973 3.35977 -2.82872 0
M  V30 1676 H 177.579 1.97526 -3.76648 0
M  V30 1677 N 175.894 1.51508 0.433938 0
M  V30 1678 C 177.14 1.64588 1.18484 0
M  V30 1679 C 177.473 0.362666 1.90784 0
M  V30 1680 O 176.748 -0.637892 1.83742 0
M  V30 1681 C 177.031 2.85149 2.19913 0
M  V30 1682 C 176.884 4.23456 1.51674 0
M  V30 1683 C 178.203 3.01227 3.20858 0
M  V30 1684 H 175.322 0.598994 0.429389 0
M  V30 1685 H 177.964 1.84002 0.473647 0
M  V30 1686 H 176.114 2.68729 2.80566 0
M  V30 1687 H 177.786 4.51552 0.943322 0
M  V30 1688 H 176.029 4.25998 0.819035 0
M  V30 1689 H 176.7 5.03812 2.2556 0
M  V30 1690 H 179.176 3.16382 2.70263 0
M  V30 1691 H 178.052 3.87141 3.89118 0
M  V30 1692 H 178.313 2.13447 3.8716 0
M  V30 1693 N 177.372 -0.689602 1.41712 0
M  V30 1694 C 178.6 -1.47827 1.44758 0
M  V30 1695 C 179.015 -1.88721 0.0545703 0
M  V30 1696 O 178.372 -1.57176 -0.927463 0
M  V30 1697 C 178.423 -2.73698 2.3616 0
M  V30 1698 O 178.144 -2.34524 3.7004 0
M  V30 1699 C 179.645 -3.67389 2.48072 0
M  V30 1700 H 176.865 -0.455357 0.49284 0
M  V30 1701 H 179.409 -0.848574 1.86063 0
M  V30 1702 H 177.564 -3.32891 1.98148 0
M  V30 1703 H 177.978 -3.15701 4.18847 0
M  V30 1704 H 179.452 -4.52475 3.16181 0
M  V30 1705 H 179.929 -4.12284 1.51388 0
M  V30 1706 H 180.535 -3.14097 2.86746 0
M  V30 1707 N 178.85 -1.27639 -0.924453 0
M  V30 1708 C 180.075 -1.17101 -1.71179 0
M  V30 1709 C 180.5 0.268134 -1.86179 0
M  V30 1710 O 179.858 1.19415 -1.36418 0
M  V30 1711 C 179.906 -1.86313 -3.08739 0
M  V30 1712 O 179.01 -1.16331 -3.95652 0
M  V30 1713 H 178.351 -0.407091 -0.524569 0
M  V30 1714 H 180.881 -1.68767 -1.15666 0
M  V30 1715 H 180.891 -1.938 -3.59034 0
M  V30 1716 H 179.566 -2.91001 -2.97138 0
M  V30 1717 H 178.143 -1.16935 -3.54091 0
M  V30 1718 N 180.328 1.1314 -1.09713 0
M  V30 1719 C 181.553 1.88862 -0.857081 0
M  V30 1720 C 181.978 1.78729 0.586304 0
M  V30 1721 O 181.336 1.13692 1.41222 0
M  V30 1722 C 181.384 3.36325 -1.30069 0
M  V30 1723 O 180.488 4.09815 -0.461007 0
M  V30 1724 H 179.829 0.587108 -0.310162 0
M  V30 1725 H 182.359 1.43129 -1.46203 0
M  V30 1726 H 182.369 3.87157 -1.28738 0
M  V30 1727 H 181.044 3.43017 -2.35185 0
M  V30 1728 H 179.621 3.68986 -0.538888 0
M  V30 1729 N 181.806 0.884767 1.30421 0
M  V30 1730 C 183.031 0.517288 2.00845 0
M  V30 1731 C 183.456 -0.886779 1.65885 0
M  V30 1732 O 182.814 -1.58768 0.875354 0
M  V30 1733 C 182.862 0.698994 3.5376 0
M  V30 1734 O 181.966 -0.255208 4.1161 0
M  V30 1735 H 181.307 0.203872 0.631927 0
M  V30 1736 H 183.837 1.19225 1.66272 0
M  V30 1737 H 183.847 0.597912 4.03595 0
M  V30 1738 H 182.522 1.72271 3.78544 0
M  V30 1739 H 181.099 -0.10784 3.72744 0
M  V30 1740 N 183.284 -1.43765 0.645699 0
M  V30 1741 C 184.509 -2.06767 0.161883 0
M  V30 1742 C 184.934 -1.48034 -1.16049 0
M  V30 1743 O 184.292 -0.587369 -1.71522 0
M  V30 1744 C 184.34 -3.60519 0.0762003 0
M  V30 1745 O 183.444 -4.00982 -0.963721 0
M  V30 1746 H 182.785 -0.657675 0.091429 0
M  V30 1747 H 185.315 -1.84397 0.886499 0
M  V30 1748 H 185.325 -4.07853 -0.109604 0
M  V30 1749 H 184 -4.02646 1.04157 0
M  V30 1750 H 182.577 -3.65253 -0.751312 0
M  V30 1751 N 184.763 -0.387143 -1.52771 0
M  V30 1752 C 185.988 0.198407 -2.06449 0
M  V30 1753 C 186.413 1.39918 -1.25716 0
M  V30 1754 O 185.771 1.79099 -0.281657 0
M  V30 1755 C 185.819 0.548893 -3.56398 0
M  V30 1756 O 184.923 1.64315 -3.78252 0
M  V30 1757 H 184.264 0.0237731 -0.663574 0
M  V30 1758 H 186.794 -0.553989 -1.96957 0
M  V30 1759 H 186.804 0.813812 -3.99801 0
M  V30 1760 H 185.479 -0.329005 -4.14597 0
M  V30 1761 H 184.056 1.37211 -3.46738 0
M  V30 1762 N 186.241 1.57166 -0.116904 0
M  V30 1763 C 187.466 1.999 0.55271 0
M  V30 1764 C 187.891 0.996039 1.59564 0
M  V30 1765 O 187.249 -0.032556 1.81271 0
M  V30 1766 C 187.297 3.4152 1.15742 0
M  V30 1767 O 186.401 3.44106 2.27299 0
M  V30 1768 H 185.742 0.649447 0.138258 0
M  V30 1769 H 188.272 2.03573 -0.204759 0
M  V30 1770 H 188.282 3.79684 1.49346 0
M  V30 1771 H 186.957 4.14034 0.393493 0
M  V30 1772 H 185.534 3.17759 1.9515 0
M  V30 1773 N 187.719 -0.156864 1.56817 0
M  V30 1774 C 188.649 -1.19589 2.00551 0
M  V30 1775 C 189.63 -1.4536 0.883426 0
M  V30 1776 O 190.815 -1.56449 1.15054 0
M  V30 1777 C 187.945 -2.53143 2.37773 0
M  V30 1778 C 186.899 -2.41913 3.53075 0
M  V30 1779 C 186.225 -3.80088 3.76081 0
M  V30 1780 C 187.525 -1.91157 4.86062 0
M  V30 1781 H 189.219 -0.832293 2.87599 0
M  V30 1782 H 186.765 -0.398918 1.38364 0
M  V30 1783 H 188.718 -3.26047 2.66967 0
M  V30 1784 H 187.442 -2.91319 1.4765 0
M  V30 1785 H 186.101 -1.71462 3.24031 0
M  V30 1786 H 185.749 -4.15683 2.83225 0
M  V30 1787 H 185.449 -3.73439 4.53671 0
M  V30 1788 H 186.973 -4.54556 4.0769 0
M  V30 1789 H 188.387 -2.53846 5.14038 0
M  V30 1790 H 186.784 -1.95422 5.67389 0
M  V30 1791 H 187.854 -0.866673 4.77092 0
M  V30 1792 N 189.197 -1.51736 -0.425897 0
M  V30 1793 C 190.422 -1.69082 -1.20108 0
M  V30 1794 C 190.847 -0.392398 -1.83962 0
M  V30 1795 O 190.205 0.64858 -1.69302 0
M  V30 1796 C 190.253 -2.81604 -2.25237 0
M  V30 1797 O 189.357 -2.46004 -3.30992 0
M  V30 1798 H 188.698 -0.563408 -0.35138 0
M  V30 1799 H 191.228 -1.98358 -0.501512 0
M  V30 1800 H 191.238 -3.06025 -2.69838 0
M  V30 1801 H 189.913 -3.75817 -1.78142 0
M  V30 1802 H 188.49 -2.32195 -2.91787 0
M  V30 1803 N 190.675 0.682077 -1.42076 0
M  V30 1804 C 191.921 1.44428 -1.42367 0
M  V30 1805 C 192.254 1.94164 -0.0373056 0
M  V30 1806 O 191.529 1.70429 0.937239 0
M  V30 1807 C 191.812 2.64654 -2.44194 0
M  V30 1808 C 191.665 2.20596 -3.91991 0
M  V30 1809 C 192.984 3.66865 -2.431 0
M  V30 1810 H 190.103 0.523834 -0.518428 0
M  V30 1811 H 192.745 0.77576 -1.73442 0
M  V30 1812 H 190.895 3.2169 -2.17826 0
M  V30 1813 H 192.567 1.68783 -4.29313 0
M  V30 1814 H 190.81 1.52242 -4.06208 0
M  V30 1815 H 191.481 3.06921 -4.58807 0
M  V30 1816 H 193.957 3.19531 -2.66532 0
M  V30 1817 H 192.833 4.48577 -3.16339 0
M  V30 1818 H 193.094 4.17493 -1.45437 0
M  V30 1819 N 192.153 1.28127 0.917671 0
M  V30 1820 C 193.083 1.14248 2.03641 0
M  V30 1821 C 194.064 0.0412748 1.7005 0
M  V30 1822 O 195.249 0.217566 1.92977 0
M  V30 1823 C 192.379 0.799431 3.37974 0
M  V30 1824 C 191.333 1.85497 3.85713 0
M  V30 1825 C 190.659 1.36565 5.16966 0
M  V30 1826 C 191.959 3.26085 4.08002 0
M  V30 1827 H 193.653 2.07835 2.15511 0
M  V30 1828 H 191.199 1.00064 1.03553 0
M  V30 1829 H 193.152 0.689114 4.15727 0
M  V30 1830 H 191.876 -0.172145 3.26146 0
M  V30 1831 H 190.535 1.95437 3.10161 0
M  V30 1832 H 190.183 0.383253 5.01538 0
M  V30 1833 H 189.883 2.07143 5.49878 0
M  V30 1834 H 191.407 1.26848 5.97279 0
M  V30 1835 H 192.821 3.19089 4.76293 0
M  V30 1836 H 191.218 3.94462 4.52238 0
M  V30 1837 H 192.288 3.70394 3.12948 0
M  V30 1838 N 193.631 -1.12557 1.10312 0
M  V30 1839 C 195.042 -1.65574 0.862678 0
M  V30 1840 C 195.393 -1.86566 -0.607256 0
M  V30 1841 O 194.518 -1.59121 -1.46662 0
M  V30 1842 C 195.113 -3.00776 1.55947 0
M  V30 1843 C 193.672 -3.50748 1.36576 0
M  V30 1844 C 192.819 -2.25797 1.60968 0
M  V30 1845 H 195.77 -0.963552 1.26101 0
M  V30 1846 H 195.791 -3.67185 0.997753 0
M  V30 1847 H 195.303 -2.85465 2.62928 0
M  V30 1848 H 193.404 -3.71245 0.317531 0
M  V30 1849 H 193.517 -4.30289 2.10686 0
M  V30 1850 H 191.881 -2.32841 1.03234 0
M  V30 1851 H 192.664 -2.13043 2.69198 0
M  V30 1852 N 195.109 -0.891671 -1.2995 0
M  V30 1853 C 196.334 -0.527932 -2.00568 0
M  V30 1854 C 196.759 0.877969 -1.66353 0
M  V30 1855 O 196.117 1.58301 -0.883762 0
M  V30 1856 C 196.165 -0.717745 -3.53385 0
M  V30 1857 O 195.269 0.233376 -4.11739 0
M  V30 1858 H 194.61 -0.20722 -0.630837 0
M  V30 1859 H 197.14 -1.20105 -1.65638 0
M  V30 1860 H 197.15 -0.619307 -4.03272 0
M  V30 1861 H 195.825 -1.74276 -3.77625 0
M  V30 1862 H 194.402 0.0880706 -3.72796 0
M  V30 1863 N 196.587 1.43421 -0.653314 0
M  V30 1864 C 197.812 2.06678 -0.172846 0
M  V30 1865 C 198.237 1.48648 1.15262 0
M  V30 1866 O 197.595 0.596457 1.71208 0
M  V30 1867 C 197.643 3.60474 -0.0953184 0
M  V30 1868 O 196.747 4.01487 0.942442 0
M  V30 1869 H 196.088 0.657181 -0.0949155 0
M  V30 1870 H 198.618 1.83925 -0.896265 0
M  V30 1871 H 198.628 4.07905 0.0879728 0
M  V30 1872 H 197.303 4.02088 -1.06291 0
M  V30 1873 H 195.88 3.65646 0.731932 0
M  V30 1874 N 198.065 0.39524 1.52563 0
M  V30 1875 C 198.995 -0.428384 2.29537 0
M  V30 1876 C 199.976 -1.05831 1.33169 0
M  V30 1877 O 201.161 -1.06995 1.62067 0
M  V30 1878 C 198.291 -1.55274 3.10656 0
M  V30 1879 C 197.245 -1.04855 4.14957 0
M  V30 1880 C 196.571 -2.26543 4.84337 0
M  V30 1881 C 197.871 -0.112324 5.22179 0
M  V30 1882 H 199.565 0.213867 2.98635 0
M  V30 1883 H 197.111 0.104298 1.43622 0
M  V30 1884 H 199.064 -2.1358 3.63265 0
M  V30 1885 H 197.788 -2.22266 2.39302 0
M  V30 1886 H 196.447 -0.487985 3.63338 0
M  V30 1887 H 196.095 -2.92059 4.09525 0
M  V30 1888 H 195.795 -1.93466 5.54837 0
M  V30 1889 H 197.319 -2.85481 5.39753 0
M  V30 1890 H 198.733 -0.603752 5.70112 0
M  V30 1891 H 197.13 0.128968 5.99961 0
M  V30 1892 H 198.2 0.837052 4.77621 0
M  V30 1893 N 199.544 -1.57102 0.125237 0
M  V30 1894 C 200.769 -2.0019 -0.542101 0
M  V30 1895 C 201.194 -1.00449 -1.59034 0
M  V30 1896 O 200.552 0.0229423 -1.81285 0
M  V30 1897 C 200.6 -3.42129 -1.13929 0
M  V30 1898 O 199.704 -3.45307 -2.2547 0
M  V30 1899 H 199.045 -0.650171 -0.134812 0
M  V30 1900 H 201.575 -2.03461 0.215553 0
M  V30 1901 H 201.585 -3.80471 -1.4733 0
M  V30 1902 H 200.26 -4.14237 -0.371531 0
M  V30 1903 H 198.837 -3.1879 -1.93462 0
M  V30 1904 N 201.022 0.148545 -1.56898 0
M  V30 1905 C 202.268 0.862694 -1.83536 0
M  V30 1906 C 202.601 1.80889 -0.706604 0
M  V30 1907 O 201.876 1.92328 0.289885 0
M  V30 1908 C 202.159 1.63853 -3.20662 0
M  V30 1909 C 202.012 0.713925 -4.44098 0
M  V30 1910 C 203.331 2.60133 -3.54991 0
M  V30 1911 H 200.45 0.312179 -0.667618 0
M  V30 1912 H 203.092 0.127953 -1.89569 0
M  V30 1913 H 201.242 2.26489 -3.1565 0
M  V30 1914 H 202.914 0.098686 -4.61194 0
M  V30 1915 H 201.157 0.0234019 -4.33794 0
M  V30 1916 H 201.828 1.29278 -5.36648 0
M  V30 1917 H 204.304 2.07616 -3.60603 0
M  V30 1918 H 203.18 3.11468 -4.51972 0
M  V30 1919 H 203.441 3.41417 -2.80868 0
M  V30 1920 N 202.5 1.5196 0.417844 0
M  V30 1921 C 203.747 1.65591 1.16559 0
M  V30 1922 C 204.075 0.381565 1.90721 0
M  V30 1923 O 203.33 -0.635156 1.85106 0
M  V30 1924 C 203.629 2.82269 2.19223 0
M  V30 1925 C 203.295 4.20819 1.61933 0
M  V30 1926 C 201.957 4.58506 1.46033 0
M  V30 1927 C 204.309 5.07196 1.20008 0
M  V30 1928 C 201.637 5.80257 0.867113 0
M  V30 1929 C 203.989 6.29544 0.621086 0
M  V30 1930 C 202.653 6.65987 0.449144 0
M  V30 1931 H 201.923 0.605939 0.42652 0
M  V30 1932 H 204.57 1.86041 0.45397 0
M  V30 1933 H 202.875 2.56118 2.96498 0
M  V30 1934 H 204.572 2.90012 2.76936 0
M  V30 1935 H 201.162 3.91116 1.7529 0
M  V30 1936 H 205.346 4.7867 1.31105 0
M  V30 1937 H 200.602 6.07124 0.721833 0
M  V30 1938 H 204.776 6.95805 0.287798 0
M  V30 1939 H 202.403 7.60199 -0.012632 0
M  V30 1940 N 203.978 -0.674533 1.42435 0
M  V30 1941 C 204.91 -1.80005 1.41883 0
M  V30 1942 C 205.923 -1.59667 0.31787 0
M  V30 1943 O 207.112 -1.68781 0.580973 0
M  V30 1944 C 204.212 -3.17114 1.19549 0
M  V30 1945 C 203.385 -3.64299 2.42084 0
M  V30 1946 C 202.444 -4.80142 2.15291 0
M  V30 1947 O 201.47 -4.90673 2.88493 0
M  V30 1948 N 202.672 -5.68869 1.1562 0
M  V30 1949 H 205.437 -1.80964 2.38898 0
M  V30 1950 H 202.998 -0.857633 1.37318 0
M  V30 1951 H 204.99 -3.92267 0.995417 0
M  V30 1952 H 203.56 -3.11053 0.310569 0
M  V30 1953 H 202.78 -2.79822 2.77657 0
M  V30 1954 H 204.068 -3.92567 3.23679 0
M  V30 1955 H 203.466 -5.63012 0.550765 0
M  V30 1956 H 202.023 -6.43833 1.016 0
M  V30 1957 N 205.456 -1.28612 -0.910864 0
M  V30 1958 C 206.404 -1.1265 -2.03501 0
M  V30 1959 C 207.398 -0.0450054 -1.6934 0
M  V30 1960 O 208.604 -0.203988 -1.7884 0
M  V30 1961 H 204.979 -0.347639 -0.666822 0
M  V30 1962 H 206.95 -2.07849 -2.14106 0
M  V30 1963 C 205.699 -0.808143 -3.38178 0
M  V30 1964 H 205.022 -1.63231 -3.6496 0
M  V30 1965 H 206.462 -0.736426 -4.17556 0
M  V30 1966 C 204.921 0.488226 -3.33344 0
M  V30 1967 O 205.451 1.51766 -3.71927 0
M  V30 1968 N 203.657 0.490009 -2.86439 0
M  V30 1969 H 203.204 -0.348161 -2.55236 0
M  V30 1970 H 203.162 1.35741 -2.83587 0
M  V30 1971 N 206.934 1.1197 -1.10907 0
M  V30 1972 C 208.345 1.65114 -0.871446 0
M  V30 1973 C 208.696 1.86885 0.597353 0
M  V30 1974 O 207.821 1.59896 1.45816 0
M  V30 1975 C 208.416 2.99944 -1.5754 0
M  V30 1976 C 206.975 3.50018 -1.38435 0
M  V30 1977 C 206.122 2.24941 -1.62164 0
M  V30 1978 H 209.073 0.956851 -1.2661 0
M  V30 1979 H 209.094 3.66651 -1.01721 0
M  V30 1980 H 208.606 2.84067 -2.64438 0
M  V30 1981 H 206.707 3.71071 -0.337214 0
M  V30 1982 H 206.82 4.29165 -2.12965 0
M  V30 1983 H 205.184 2.3229 -1.04467 0
M  V30 1984 H 205.967 2.11612 -2.70324 0
M  V30 1985 N 208.412 0.89855 1.29475 0
M  V30 1986 C 209.64 0.539261 1.99749 0
M  V30 1987 C 210.055 -0.875716 1.67262 0
M  V30 1988 O 209.412 -1.57786 0.917049 0
M  V30 1989 C 209.463 0.72061 3.54245 0
M  V30 1990 O 209.184 2.07989 3.8558 0
M  V30 1991 C 210.685 0.366118 4.41786 0
M  V30 1992 H 207.905 0.207047 0.638258 0
M  V30 1993 H 210.449 1.20758 1.65039 0
M  V30 1994 H 208.604 0.0994862 3.87272 0
M  V30 1995 H 209.018 2.10841 4.80257 0
M  V30 1996 H 210.492 0.543848 5.49314 0
M  V30 1997 H 210.969 -0.696763 4.33638 0
M  V30 1998 H 211.575 0.964135 4.14228 0
M  V30 1999 N 209.89 -1.43072 0.660911 0
M  V30 2000 C 211.167 -1.95307 0.107017 0
M  V30 2001 C 211.547 -1.60192 -1.37484 0
M  V30 2002 O 210.895 -0.890949 -2.10415 0
M  V30 2003 C 211.105 -3.47124 0.361402 0
M  V30 2004 C 212.453 -4.23738 0.270455 0
M  V30 2005 O 213.477 -3.54981 0.294382 0
M  V30 2006 O 212.336 -5.46131 0.200737 0
M  V30 2007 H 209.43 -0.826984 -0.00517729 0
M  V30 2008 H 211.976 -1.52972 0.734681 0
M  V30 2009 H 210.748 -3.65837 1.38848 0
M  V30 2010 H 210.371 -3.96475 -0.298953 0
M  V30 2011 N 211.368 -0.403325 -1.52352 0
M  V30 2012 C 212.614 0.174605 -2.02047 0
M  V30 2013 C 212.947 1.45282 -1.28867 0
M  V30 2014 O 212.222 1.90483 -0.393257 0
M  V30 2015 C 212.505 0.428238 -3.57545 0
M  V30 2016 C 212.358 -0.866248 -4.4138 0
M  V30 2017 C 213.677 1.21287 -4.23057 0
M  V30 2018 H 210.796 0.0619851 -0.734389 0
M  V30 2019 H 213.438 -0.53565 -1.82293 0
M  V30 2020 H 211.588 1.03327 -3.74507 0
M  V30 2021 H 213.26 -1.50265 -4.3614 0
M  V30 2022 H 211.503 -1.47851 -4.07827 0
M  V30 2023 H 212.174 -0.643249 -5.48239 0
M  V30 2024 H 214.65 0.700703 -4.10158 0
M  V30 2025 H 213.526 1.35909 -5.31808 0
M  V30 2026 H 213.787 2.23193 -3.81625 0
M  V30 2027 N 212.846 1.57033 -0.133567 0
M  V30 2028 C 213.809 2.14897 0.796995 0
M  V30 2029 C 214.809 1.0874 1.18458 0
M  V30 2030 O 215.999 1.34446 1.1077 0
M  V30 2031 C 213.131 2.70112 2.07973 0
M  V30 2032 H 214.324 2.98457 0.293873 0
M  V30 2033 H 211.877 1.55871 0.115787 0
M  V30 2034 H 212.612 1.9018 2.62682 0
M  V30 2035 H 212.397 3.47764 1.81115 0
M  V30 2036 H 213.887 3.14738 2.74462 0
M  V30 2037 N 214.325 -0.140222 1.56975 0
M  V30 2038 C 215.741 -0.493088 1.51792 0
M  V30 2039 C 215.941 -1.83013 0.843116 0
M  V30 2040 O 214.997 -2.49041 0.416493 0
M  V30 2041 C 216.31 -0.497144 2.96562 0
M  V30 2042 C 217.858 -0.582186 3.07538 0
M  V30 2043 C 218.333 -0.616838 4.53827 0
M  V30 2044 N 219.824 -0.678873 4.58198 0
M  V30 2045 C 220.559 -0.726782 5.68775 0
M  V30 2046 N 220.055 -0.733623 6.88905 0
M  V30 2047 N 221.848 -0.768179 5.56826 0
M  V30 2048 H 213.999 0.736108 1.99237 0
M  V30 2049 H 216.262 0.269182 0.90898 0
M  V30 2050 H 215.968 0.417217 3.49217 0
M  V30 2051 H 215.842 -1.33263 3.52875 0
M  V30 2052 H 218.229 -1.48697 2.54899 0
M  V30 2053 H 218.31 0.280581 2.54257 0
M  V30 2054 H 217.954 0.283812 5.07106 0
M  V30 2055 H 217.884 -1.49619 5.04898 0
M  V30 2056 H 220.375 -0.68061 3.7172 0
M  V30 2057 H 220.688 -0.772215 7.68932 0
M  V30 2058 H 219.033 -0.701389 6.91452 0
M  V30 2059 H 222.224 -0.760051 4.61888 0
M  V30 2060 H 222.397 -0.80205 6.43017 0
M  V30 2061 N 215.803 -1.52179 -0.40978 0
M  V30 2062 C 217.028 -1.70347 -1.18308 0
M  V30 2063 C 217.453 -0.411887 -1.83535 0
M  V30 2064 O 216.811 0.630587 -1.6998 0
M  V30 2065 C 216.859 -2.83977 -2.22238 0
M  V30 2066 O 215.963 -2.495 -3.28365 0
M  V30 2067 H 215.304 -0.567103 -0.345384 0
M  V30 2068 H 217.834 -1.98879 -0.480445 0
M  V30 2069 H 217.844 -3.0887 -2.66577 0
M  V30 2070 H 216.519 -3.77685 -1.74146 0
M  V30 2071 H 215.096 -2.35277 -2.89308 0
M  V30 2072 N 217.281 0.66697 -1.42791 0
M  V30 2073 C 218.229 1.80157 -1.47127 0
M  V30 2074 C 219.223 1.65825 -0.346199 0
M  V30 2075 O 220.429 1.72338 -0.519572 0
M  V30 2076 H 216.804 0.594158 -0.460956 0
M  V30 2077 H 218.775 1.73619 -2.42692 0
M  V30 2078 C 217.524 3.18351 -1.39813 0
M  V30 2079 H 216.847 3.3001 -2.25684 0
M  V30 2080 H 218.287 3.97736 -1.46908 0
M  V30 2081 C 216.746 3.36707 -0.11391 0
M  V30 2082 O 217.276 3.93027 0.830241 0
M  V30 2083 N 215.482 2.90586 -0.0285295 0
M  V30 2084 H 215.029 2.4494 -0.79764 0
M  V30 2085 H 214.987 3.03245 0.830063 0
M  V30 2086 N 218.759 1.29093 0.90403 0
M  V30 2087 C 220.17 1.15186 1.46932 0
M  V30 2088 C 220.521 -0.254587 1.94541 0
M  V30 2089 O 219.646 -1.14972 1.83332 0
M  V30 2090 C 220.241 2.08492 2.67051 0
M  V30 2091 C 218.8 1.98621 3.19729 0
M  V30 2092 C 217.947 1.9967 1.92425 0
M  V30 2093 H 220.898 1.41641 0.715789 0
M  V30 2094 H 220.919 1.65461 3.42641 0
M  V30 2095 H 220.431 3.10847 2.3237 0
M  V30 2096 H 218.532 0.993389 3.59114 0
M  V30 2097 H 218.645 2.86068 3.8432 0
M  V30 2098 H 217.009 1.44208 2.09943 0
M  V30 2099 H 217.792 3.03721 1.60026 0
M  V30 2100 N 220.237 -1.11381 1.11499 0
M  V30 2101 C 221.184 -2.17439 0.773887 0
M  V30 2102 C 222.154 -1.64132 -0.254899 0
M  V30 2103 O 223.339 -1.90345 -0.13168 0
M  V30 2104 C 220.479 -3.44373 0.223917 0
M  V30 2105 C 219.592 -4.1168 1.30934 0
M  V30 2106 C 218.727 -5.263 0.71984 0
M  V30 2107 C 217.766 -5.85493 1.78507 0
M  V30 2108 N 216.903 -6.91507 1.21502 0
M  V30 2109 H 221.743 -2.45962 1.68246 0
M  V30 2110 H 219.28 -1.20744 0.840191 0
M  V30 2111 H 221.238 -4.17047 -0.112921 0
M  V30 2112 H 219.868 -3.16232 -0.647851 0
M  V30 2113 H 218.92 -3.37073 1.76312 0
M  V30 2114 H 220.232 -4.51729 2.11524 0
M  V30 2115 H 219.386 -6.05785 0.333094 0
M  V30 2116 H 218.125 -4.87559 -0.117377 0
M  V30 2117 H 217.13 -5.04686 2.18111 0
M  V30 2118 H 218.355 -6.26301 2.62533 0
M  V30 2119 H 216.301 -6.54783 0.399455 0
M  V30 2120 H 216.218 -7.30214 1.95763 0
M  V30 2121 H 217.486 -7.74795 0.855181 0
M  V30 2122 N 221.715 -0.905404 -1.28997 0
M  V30 2123 C 222.94 -0.549175 -1.99997 0
M  V30 2124 C 223.365 0.860276 -1.67275 0
M  V30 2125 O 222.723 1.57355 -0.900502 0
M  V30 2126 C 222.771 -0.755185 -3.52604 0
M  V30 2127 O 221.875 0.189692 -4.11964 0
M  V30 2128 H 221.216 -0.213899 -0.628604 0
M  V30 2129 H 223.746 -1.21856 -1.64354 0
M  V30 2130 H 223.756 -0.662045 -4.02593 0
M  V30 2131 H 222.431 -1.78271 -3.75755 0
M  V30 2132 H 221.008 0.0485257 -3.72868 0
M  V30 2133 N 223.193 1.4272 -0.668489 0
M  V30 2134 C 224.604 1.84793 -0.266151 0
M  V30 2135 C 224.955 1.55959 1.19043 0
M  V30 2136 O 224.08 1.01622 1.91055 0
M  V30 2137 C 224.675 3.35436 -0.476271 0
M  V30 2138 C 223.234 3.76182 -0.128113 0
M  V30 2139 C 222.381 2.66344 -0.771777 0
M  V30 2140 H 225.332 1.32656 -0.871098 0
M  V30 2141 H 225.353 3.79515 0.273561 0
M  V30 2142 H 224.865 3.5639 -1.53647 0
M  V30 2143 H 222.966 3.60836 0.928891 0
M  V30 2144 H 223.079 4.75766 -0.564231 0
M  V30 2145 H 221.443 2.53885 -0.203652 0
M  V30 2146 H 222.226 2.90123 -1.83531 0
M  V30 2147 N 224.671 0.411399 1.52136 0
M  V30 2148 C 225.603 -0.448386 2.24771 0
M  V30 2149 C 226.616 -1.00828 1.27818 0
M  V30 2150 O 227.805 -0.906841 1.53749 0
M  V30 2151 C 224.905 -1.63636 2.96777 0
M  V30 2152 C 224.078 -1.19995 4.20618 0
M  V30 2153 C 223.137 -2.25509 4.75428 0
M  V30 2154 O 222.163 -1.86007 5.3795 0
M  V30 2155 N 223.365 -3.577 4.57199 0
M  V30 2156 H 226.13 0.174025 2.99194 0
M  V30 2157 H 223.691 0.238897 1.60128 0
M  V30 2158 H 225.683 -2.33793 3.30338 0
M  V30 2159 H 224.253 -2.16465 2.25526 0
M  V30 2160 H 223.473 -0.326421 3.92846 0
M  V30 2161 H 224.761 -0.885365 5.01038 0
M  V30 2162 H 224.159 -3.92543 4.07341 0
M  V30 2163 H 222.716 -4.23827 4.95191 0
M  V30 2164 N 226.149 -1.5696 0.141893 0
M  V30 2165 C 227.096 -2.16501 -0.799737 0
M  V30 2166 C 228.066 -1.09643 -1.24771 0
M  V30 2167 O 229.251 -1.3766 -1.32115 0
M  V30 2168 C 226.391 -2.78679 -2.03549 0
M  V30 2169 C 225.504 -3.99914 -1.6338 0
M  V30 2170 C 224.639 -4.50106 -2.82096 0
M  V30 2171 C 223.678 -5.63819 -2.38275 0
M  V30 2172 N 222.815 -6.08651 -3.49983 0
M  V30 2173 H 227.655 -2.96632 -0.285179 0
M  V30 2174 H 225.192 -1.46533 -0.129053 0
M  V30 2175 H 227.15 -3.1287 -2.75986 0
M  V30 2176 H 225.78 -2.012 -2.52425 0
M  V30 2177 H 224.832 -3.71735 -0.807279 0
M  V30 2178 H 226.144 -4.82311 -1.27192 0
M  V30 2179 H 225.298 -4.86325 -3.62729 0
M  V30 2180 H 224.037 -3.66706 -3.21525 0
M  V30 2181 H 223.042 -5.2718 -1.56081 0
M  V30 2182 H 224.267 -6.49 -1.99938 0
M  V30 2183 H 222.213 -5.28188 -3.89042 0
M  V30 2184 H 222.13 -6.85961 -3.17794 0
M  V30 2185 H 223.398 -6.49515 -4.30988 0
M  V30 2186 N 227.627 0.131896 -1.57047 0
M  V30 2187 C 229.038 0.690407 -1.73465 0
M  V30 2188 C 229.389 1.8094 -0.758629 0
M  V30 2189 O 228.514 2.16282 0.0713813 0
M  V30 2190 C 229.109 1.25916 -3.14532 0
M  V30 2191 C 227.668 1.76409 -3.32501 0
M  V30 2192 C 226.815 0.658579 -2.69366 0
M  V30 2193 H 229.766 -0.0939144 -1.58422 0
M  V30 2194 H 229.787 2.12892 -3.15369 0
M  V30 2195 H 229.299 0.444515 -3.85546 0
M  V30 2196 H 227.4 2.60391 -2.66509 0
M  V30 2197 H 227.513 1.88241 -4.4057 0
M  V30 2198 H 225.877 1.08899 -2.30246 0
M  V30 2199 H 226.66 -0.14487 -3.42994 0
M  V30 2200 N 229.106 1.52395 0.401703 0
M  V30 2201 C 230.355 1.66044 1.14509 0
M  V30 2202 C 230.668 0.400216 1.91462 0
M  V30 2203 O 231.874 0.416632 2.68284 0
M  V30 2204 C 230.33 2.93388 2.0845 0
M  V30 2205 C 229.938 4.26545 1.36978 0
M  V30 2206 C 231.682 3.16402 2.83001 0
M  V30 2207 C 229.589 5.45007 2.29611 0
M  V30 2208 H 228.519 0.618562 0.431158 0
M  V30 2209 H 231.17 1.78886 0.40892 0
M  V30 2210 H 229.552 2.74263 2.8565 0
M  V30 2211 H 230.726 4.56179 0.650916 0
M  V30 2212 H 229.041 4.09692 0.74438 0
M  V30 2213 H 231.638 4.02085 3.52465 0
M  V30 2214 H 231.981 2.30943 3.46368 0
M  V30 2215 H 232.514 3.36034 2.12898 0
M  V30 2216 H 229.253 6.32835 1.70879 0
M  V30 2217 H 228.773 5.19702 2.9945 0
M  V30 2218 H 230.452 5.7838 2.89974 0
M  V30 2219 N 230.584 -0.659388 1.43143 0
M  V30 2220 C 231.83 -1.42145 1.44647 0
M  V30 2221 C 232.163 -1.9408 0.0681907 0
M  V30 2222 O 231.438 -1.71899 -0.910007 0
M  V30 2223 C 231.721 -2.60735 2.48373 0
M  V30 2224 C 231.574 -2.14332 3.95451 0
M  V30 2225 C 232.893 -3.62951 2.48906 0
M  V30 2226 H 230.012 -0.51552 0.526696 0
M  V30 2227 H 232.654 -0.748069 1.74654 0
M  V30 2228 H 230.804 -3.18184 2.22916 0
M  V30 2229 H 232.476 -1.61932 4.31944 0
M  V30 2230 H 230.719 -1.4576 4.08578 0
M  V30 2231 H 231.39 -2.99583 4.63631 0
M  V30 2232 H 233.866 -3.1525 2.71582 0
M  V30 2233 H 232.742 -4.43487 3.23435 0
M  V30 2234 H 233.003 -4.15126 1.52061 0
M  V30 2235 N 232.062 -1.29571 -0.897171 0
M  V30 2236 C 233.478 -1.07637 -1.17841 0
M  V30 2237 C 233.678 0.170713 -2.00776 0
M  V30 2238 O 232.734 0.867768 -2.3712 0
M  V30 2239 C 234.047 -2.3332 -1.8969 0
M  V30 2240 C 235.595 -2.38664 -2.02505 0
M  V30 2241 C 236.07 -3.64157 -2.77765 0
M  V30 2242 N 237.561 -3.64894 -2.85318 0
M  V30 2243 C 238.296 -4.58679 -3.44094 0
M  V30 2244 N 237.792 -5.62799 -4.04017 0
M  V30 2245 N 239.585 -4.46245 -3.41793 0
M  V30 2246 H 231.736 -2.09598 -0.343883 0
M  V30 2247 H 233.999 -0.923333 -0.214848 0
M  V30 2248 H 233.705 -3.24262 -1.36187 0
M  V30 2249 H 233.579 -2.41025 -2.9015 0
M  V30 2250 H 235.966 -1.48208 -2.55183 0
M  V30 2251 H 236.047 -2.34943 -1.01171 0
M  V30 2252 H 235.691 -4.54965 -2.25763 0
M  V30 2253 H 235.621 -3.65137 -3.7945 0
M  V30 2254 H 238.112 -2.89613 -2.42761 0
M  V30 2255 H 238.425 -6.3048 -4.46895 0
M  V30 2256 H 236.77 -5.66605 -4.02472 0
M  V30 2257 H 239.961 -3.64094 -2.94199 0
M  V30 2258 H 240.134 -5.19518 -3.87304 0
M  V30 2259 N 233.54 1.10788 -1.12088 0
M  V30 2260 C 234.786 1.82942 -0.875226 0
M  V30 2261 C 235.119 1.84779 0.597538 0
M  V30 2262 O 234.394 1.30578 1.44152 0
M  V30 2263 C 234.677 3.29789 -1.44606 0
M  V30 2264 C 234.53 3.36307 -2.98693 0
M  V30 2265 C 235.849 4.26064 -1.10261 0
M  V30 2266 H 232.968 0.664195 -0.319397 0
M  V30 2267 H 235.61 1.29867 -1.38689 0
M  V30 2268 H 233.76 3.75118 -1.01089 0
M  V30 2269 H 235.432 2.99487 -3.50864 0
M  V30 2270 H 233.675 2.76318 -3.34411 0
M  V30 2271 H 234.346 4.39694 -3.33726 0
M  V30 2272 H 236.822 3.88951 -1.4784 0
M  V30 2273 H 235.698 5.27183 -1.52869 0
M  V30 2274 H 235.959 4.42098 -0.0142953 0
M  V30 2275 N 235.018 0.912232 1.28515 0
M  V30 2276 C 236.265 0.544599 1.95039 0
M  V30 2277 C 236.593 -0.911435 1.71823 0
M  V30 2278 O 235.848 -1.66317 1.03137 0
M  V30 2279 C 236.147 0.798392 3.48368 0
M  V30 2280 C 235.813 2.23374 3.91682 0
M  V30 2281 C 234.475 2.62617 4.03219 0
M  V30 2282 C 236.827 3.16786 4.13879 0
M  V30 2283 C 234.155 3.94429 4.3433 0
M  V30 2284 C 236.507 4.48161 4.46469 0
M  V30 2285 C 235.171 4.8726 4.56217 0
M  V30 2286 H 234.441 0.199283 0.7137 0
M  V30 2287 H 237.088 1.15327 1.52879 0
M  V30 2288 H 235.393 0.106908 3.91654 0
M  V30 2289 H 237.09 0.493141 3.97956 0
M  V30 2290 H 233.68 1.91922 3.83228 0
M  V30 2291 H 237.864 2.87677 4.0442 0
M  V30 2292 H 233.12 4.24426 4.40082 0
M  V30 2293 H 237.294 5.20559 4.62592 0
M  V30 2294 H 234.921 5.89431 4.80078 0
M  V30 2295 N 236.496 -1.42363 0.676048 0
M  V30 2296 C 237.426 -2.33497 0.0124832 0
M  V30 2297 C 238.407 -1.50748 -0.787981 0
M  V30 2298 O 239.592 -1.79346 -0.744884 0
M  V30 2299 C 236.722 -3.34377 -0.938582 0
M  V30 2300 C 235.676 -4.27289 -0.246622 0
M  V30 2301 C 235.002 -5.18386 -1.31071 0
M  V30 2302 C 236.302 -5.14916 0.875125 0
M  V30 2303 H 237.996 -2.89233 0.773593 0
M  V30 2304 H 235.542 -1.39073 0.37346 0
M  V30 2305 H 237.495 -3.97044 -1.41188 0
M  V30 2306 H 236.219 -2.76947 -1.73113 0
M  V30 2307 H 234.878 -3.66018 0.206456 0
M  V30 2308 H 234.526 -4.57282 -2.09528 0
M  V30 2309 H 234.226 -5.81378 -0.852839 0
M  V30 2310 H 235.75 -5.83929 -1.78492 0
M  V30 2311 H 237.164 -5.71262 0.482983 0
M  V30 2312 H 235.561 -5.86747 1.25887 0
M  V30 2313 H 236.631 -4.53242 1.72335 0
M  V30 2314 N 237.974 -0.419461 -1.51915 0
M  V30 2315 C 239.385 0.0477853 -1.86639 0
M  V30 2316 C 239.736 1.43531 -1.33766 0
M  V30 2317 O 238.861 2.05401 -0.68113 0
M  V30 2318 C 239.456 0.0934885 -3.38671 0
M  V30 2319 C 238.015 0.505097 -3.72996 0
M  V30 2320 C 237.162 -0.313792 -2.75519 0
M  V30 2321 H 240.113 -0.636088 -1.45395 0
M  V30 2322 H 240.134 0.906667 -3.6954 0
M  V30 2323 H 239.646 -0.916501 -3.77123 0
M  V30 2324 H 237.747 1.52135 -3.40126 0
M  V30 2325 H 237.86 0.242309 -4.78487 0
M  V30 2326 H 236.224 0.225363 -2.53701 0
M  V30 2327 H 237.007 -1.32232 -3.16812 0
M  V30 2328 N 239.452 1.56882 -0.150215 0
M  V30 2329 C 240.4 2.18214 0.805313 0
M  V30 2330 C 241.394 1.14006 1.25296 0
M  V30 2331 O 242.6 1.3225 1.22107 0
M  V30 2332 H 238.975 0.698762 0.277913 0
M  V30 2333 H 240.946 2.97231 0.263862 0
M  V30 2334 C 239.695 2.82065 2.03309 0
M  V30 2335 H 239.018 3.61968 1.69763 0
M  V30 2336 H 240.458 3.28477 2.68103 0
M  V30 2337 C 238.917 1.80739 2.84315 0
M  V30 2338 O 239.447 1.27983 3.80767 0
M  V30 2339 N 237.653 1.4997 2.48913 0
M  V30 2340 H 237.2 1.93062 1.70542 0
M  V30 2341 H 237.158 0.824217 3.03404 0
M  V30 2342 N 240.93 -0.123565 1.57115 0
M  V30 2343 C 241.877 -1.15177 2.00007 0
M  V30 2344 C 242.847 -1.41403 0.871454 0
M  V30 2345 O 244.032 -1.53346 1.13533 0
M  V30 2346 C 241.172 -2.47436 2.40561 0
M  V30 2347 C 240.285 -2.28184 3.66819 0
M  V30 2348 C 239.42 -3.53641 3.96373 0
M  V30 2349 C 238.459 -3.29528 5.15827 0
M  V30 2350 N 237.596 -4.47175 5.41275 0
M  V30 2351 H 242.436 -0.779008 2.87638 0
M  V30 2352 H 239.973 -0.373166 1.42288 0
M  V30 2353 H 241.931 -3.24584 2.62109 0
M  V30 2354 H 240.561 -2.82614 1.55978 0
M  V30 2355 H 239.613 -1.41976 3.52912 0
M  V30 2356 H 240.925 -2.0634 4.5412 0
M  V30 2357 H 240.079 -4.39209 4.18545 0
M  V30 2358 H 238.818 -3.78512 3.07538 0
M  V30 2359 H 237.823 -2.42349 4.93505 0
M  V30 2360 H 239.048 -3.06031 6.06236 0
M  V30 2361 H 236.994 -4.72175 4.55397 0
M  V30 2362 H 236.911 -4.28419 6.22891 0
M  V30 2363 H 238.179 -5.3389 5.67963 0
M  V30 2364 N 242.408 -1.52605 -0.393616 0
M  V30 2365 C 243.34 -1.73303 -1.49995 0
M  V30 2366 C 244.353 -0.613473 -1.50799 0
M  V30 2367 O 245.542 -0.889049 -1.54784 0
M  V30 2368 C 242.642 -1.77245 -2.88855 0
M  V30 2369 C 241.815 -3.06483 -3.12069 0
M  V30 2370 C 240.874 -3.02033 -4.30886 0
M  V30 2371 O 239.9 -3.75907 -4.27414 0
M  V30 2372 N 241.102 -2.20897 -5.36828 0
M  V30 2373 H 243.867 -2.68756 -1.32629 0
M  V30 2374 H 241.428 -1.51036 -0.583083 0
M  V30 2375 H 243.42 -1.7178 -3.66434 0
M  V30 2376 H 241.99 -0.891993 -2.99603 0
M  V30 2377 H 241.21 -3.25474 -2.22396 0
M  V30 2378 H 242.498 -3.91947 -3.2443 0
M  V30 2379 H 241.896 -1.60336 -5.42502 0
M  V30 2380 H 240.453 -2.21275 -6.13091 0
M  V30 2381 N 243.887 0.651787 -1.4349 0
M  V30 2382 C 245.303 0.96762 -1.26922 0
M  V30 2383 C 245.503 2.00602 -0.189982 0
M  V30 2384 O 244.559 2.48793 0.431107 0
M  V30 2385 C 245.872 1.45052 -2.63401 0
M  V30 2386 C 247.42 1.5671 -2.70945 0
M  V30 2387 C 247.895 2.0839 -4.07845 0
M  V30 2388 N 249.386 2.1569 -4.09917 0
M  V30 2389 C 250.121 2.56804 -5.12679 0
M  V30 2390 N 249.617 2.97203 -6.25813 0
M  V30 2391 N 251.41 2.56756 -5.00033 0
M  V30 2392 H 243.561 -0.0353158 -2.12371 0
M  V30 2393 H 245.824 0.0467858 -0.946845 0
M  V30 2394 H 245.53 0.761926 -3.43348 0
M  V30 2395 H 245.404 2.42529 -2.88894 0
M  V30 2396 H 247.791 2.2467 -1.9133 0
M  V30 2397 H 247.872 0.57662 -2.49216 0
M  V30 2398 H 247.516 1.41031 -4.87927 0
M  V30 2399 H 247.446 3.08271 -4.26938 0
M  V30 2400 H 249.937 1.87237 -3.28254 0
M  V30 2401 H 250.25 3.27328 -7.00055 0
M  V30 2402 H 248.595 2.95004 -6.29283 0
M  V30 2403 H 251.786 2.24572 -4.10713 0
M  V30 2404 H 251.959 2.88475 -5.80247 0
M  V30 2405 N 245.365 1.30045 0.890287 0
M  V30 2406 C 246.593 1.21472 1.67487 0
M  V30 2407 C 247.008 -0.223241 1.87476 0
M  V30 2408 O 246.365 -1.14828 1.41847 0
M  V30 2409 C 246.416 1.93394 3.05419 0
M  V30 2410 O 246.137 3.31576 2.86337 0
M  V30 2411 C 247.638 1.91414 3.99844 0
M  V30 2412 H 244.858 0.420604 0.522813 0
M  V30 2413 H 247.402 1.7158 1.11268 0
M  V30 2414 H 245.557 1.47099 3.58386 0
M  V30 2415 H 245.971 3.67929 3.73802 0
M  V30 2416 H 247.445 2.46285 4.94012 0
M  V30 2417 H 247.922 0.891833 4.3005 0
M  V30 2418 H 248.528 2.37496 3.52811 0
M  V30 2419 N 246.843 -1.10192 1.12674 0
M  V30 2420 C 248.089 -1.82475 0.884915 0
M  V30 2421 C 248.422 -1.85093 -0.58773 0
M  V30 2422 O 247.697 -1.3134 -1.43457 0
M  V30 2423 C 247.98 -3.29018 1.46353 0
M  V30 2424 C 247.833 -3.34718 3.00473 0
M  V30 2425 C 249.152 -4.25473 1.12519 0
M  V30 2426 H 246.271 -0.662492 0.322915 0
M  V30 2427 H 248.913 -1.2913 1.39375 0
M  V30 2428 H 247.063 -3.74576 1.03077 0
M  V30 2429 H 248.735 -2.97622 3.52447 0
M  V30 2430 H 246.978 -2.74541 3.35872 0
M  V30 2431 H 247.649 -4.37918 3.36053 0
M  V30 2432 H 250.125 -3.88161 1.499 0
M  V30 2433 H 249.001 -5.26365 1.55663 0
M  V30 2434 H 249.262 -4.42084 0.0377407 0
M  V30 2435 N 248.321 -0.919034 -1.28029 0
M  V30 2436 C 249.567 -0.555757 -1.95036 0
M  V30 2437 C 249.9 0.899198 -1.72128 0
M  V30 2438 O 249.175 1.64023 -1.04531 0
M  V30 2439 C 249.458 -0.872024 -3.49382 0
M  V30 2440 C 249.311 -2.3801 -3.81669 0
M  V30 2441 C 250.63 -0.37185 -4.38526 0
M  V30 2442 H 247.749 -0.203386 -0.708381 0
M  V30 2443 H 250.391 -1.14924 -1.51303 0
M  V30 2444 H 248.541 -0.366946 -3.86763 0
M  V30 2445 H 250.213 -2.9562 -3.54128 0
M  V30 2446 H 248.456 -2.83289 -3.28526 0
M  V30 2447 H 249.127 -2.55192 -4.8947 0
M  V30 2448 H 251.603 -0.804602 -4.08247 0
M  V30 2449 H 250.479 -0.622173 -5.45362 0
M  V30 2450 H 250.74 0.727934 -4.36066 0
M  V30 2451 N 249.799 1.42003 -0.683588 0
M  V30 2452 C 251.21 1.84501 -0.285736 0
M  V30 2453 C 251.561 1.57213 1.17382 0
M  V30 2454 O 250.686 1.03642 1.89966 0
M  V30 2455 C 251.281 3.34912 -0.511821 0
M  V30 2456 C 249.84 3.76025 -0.168005 0
M  V30 2457 C 248.987 2.6551 -0.799983 0
M  V30 2458 H 251.938 1.31724 -0.885119 0
M  V30 2459 H 251.959 3.79784 0.233292 0
M  V30 2460 H 251.471 3.54741 -1.57418 0
M  V30 2461 H 249.572 3.61801 0.890567 0
M  V30 2462 H 249.685 4.75141 -0.614661 0
M  V30 2463 H 248.049 2.53654 -0.230568 0
M  V30 2464 H 248.832 2.8816 -1.86597 0
M  V30 2465 N 251.277 0.427512 1.51691 0
M  V30 2466 C 252.24 -0.377132 2.26076 0
M  V30 2467 C 253.24 -0.958089 1.29141 0
M  V30 2468 O 254.43 -0.83408 1.52934 0
M  V30 2469 C 251.562 -1.53262 3.04506 0
M  V30 2470 H 252.755 0.27464 2.9864 0
M  V30 2471 H 250.308 0.180445 1.55255 0
M  V30 2472 H 251.043 -2.22072 2.36335 0
M  V30 2473 H 250.828 -1.12232 3.75694 0
M  V30 2474 H 252.318 -2.10135 3.60878 0
M  V30 2475 N 252.755 -1.56801 0.158532 0
M  V30 2476 C 254.171 -1.5837 -0.197774 0
M  V30 2477 C 254.371 -1.17334 -1.63814 0
M  V30 2478 O 253.427 -0.878988 -2.36707 0
M  V30 2479 C 254.74 -3.00615 0.0714459 0
M  V30 2480 C 256.288 -3.12999 0.00864533 0
M  V30 2481 C 256.763 -4.57313 0.250685 0
M  V30 2482 N 258.254 -4.62777 0.198014 0
M  V30 2483 C 258.989 -5.72271 0.359642 0
M  V30 2484 N 258.485 -6.90371 0.579625 0
M  V30 2485 N 260.278 -5.61318 0.296438 0
M  V30 2486 H 252.429 -1.81765 1.09887 0
M  V30 2487 H 254.692 -0.841849 0.435884 0
M  V30 2488 H 254.398 -3.35068 1.06874 0
M  V30 2489 H 254.272 -3.71683 -0.642757 0
M  V30 2490 H 256.659 -2.7838 -0.979217 0
M  V30 2491 H 256.74 -2.44393 0.755359 0
M  V30 2492 H 256.384 -4.92639 1.2357 0
M  V30 2493 H 256.314 -5.24061 -0.516489 0
M  V30 2494 H 258.805 -3.77885 0.0331115 0
M  V30 2495 H 259.118 -7.69689 0.69275 0
M  V30 2496 H 257.463 -6.92264 0.616087 0
M  V30 2497 H 260.654 -4.67932 0.125258 0
M  V30 2498 H 260.827 -6.46599 0.425831 0
M  V30 2499 N 254.233 0.115231 -1.57178 0
M  V30 2500 C 255.473 0.828199 -1.8687 0
M  V30 2501 C 255.837 1.76873 -0.747002 0
M  V30 2502 O 257.038 2.52354 -0.925785 0
M  V30 2503 C 255.309 1.55515 -3.21792 0
M  V30 2504 S 256.868 2.30917 -3.73125 0
M  V30 2505 H 253.686 0.27634 -0.655101 0
M  V30 2506 H 256.288 0.0863469 -1.95309 0
M  V30 2507 H 254.992 0.856248 -4.01368 0
M  V30 2508 H 254.523 2.3373 -3.16439 0
M  V30 2509 H 256.538 3.56705 -3.44929 0
M  V30 2510 N 255.711 1.52812 0.385517 0
M  V30 2511 C 256.959 1.67694 1.12797 0
M  V30 2512 C 257.28 0.421115 1.90399 0
M  V30 2513 O 256.55 -0.564551 1.87589 0
M  V30 2514 H 255.13 0.618155 0.419396 0
M  V30 2515 H 257.792 1.89938 0.436972 0
M  V30 2516 H 256.888 2.52896 1.82894 0
M  V30 2517 N 257.189 -0.644168 1.43834 0
M  V30 2518 C 258.435 -1.40603 1.46146 0
M  V30 2519 C 258.768 -1.93997 0.0887717 0
M  V30 2520 O 258.043 -1.72854 -0.891724 0
M  V30 2521 C 258.326 -2.58086 2.51124 0
M  V30 2522 C 258.179 -2.10126 3.97702 0
M  V30 2523 C 259.498 -3.60291 2.52742 0
M  V30 2524 H 256.617 -0.509905 0.532134 0
M  V30 2525 H 259.259 -0.729502 1.75437 0
M  V30 2526 H 257.409 -3.15801 2.26278 0
M  V30 2527 H 259.081 -1.57342 4.33637 0
M  V30 2528 H 257.324 -1.41419 4.10101 0
M  V30 2529 H 257.995 -2.94649 4.66783 0
M  V30 2530 H 260.471 -3.12352 2.7491 0
M  V30 2531 H 259.347 -4.40032 3.28121 0
M  V30 2532 H 259.608 -4.1349 1.56455 0
M  V30 2533 N 258.668 -1.30515 -0.883378 0
M  V30 2534 C 259.896 -1.22359 -1.66841 0
M  V30 2535 C 260.311 0.213296 -1.87591 0
M  V30 2536 O 259.668 1.14075 -1.42454 0
M  V30 2537 C 259.719 -1.95011 -3.04389 0
M  V30 2538 O 259.44 -3.3309 -2.84575 0
M  V30 2539 C 260.941 -1.93532 -3.98824 0
M  V30 2540 H 258.161 -0.423371 -0.520575 0
M  V30 2541 H 260.705 -1.72167 -1.10357 0
M  V30 2542 H 258.86 -1.48997 -3.57601 0
M  V30 2543 H 259.274 -3.69907 -3.71846 0
M  V30 2544 H 260.748 -2.48902 -4.92699 0
M  V30 2545 H 261.225 -0.914627 -4.29571 0
M  V30 2546 H 261.831 -2.39364 -3.51547 0
M  V30 2547 N 260.146 1.09593 -1.13257 0
M  V30 2548 C 261.392 1.82003 -0.89458 0
M  V30 2549 C 261.725 1.85402 0.577906 0
M  V30 2550 O 261 1.32099 1.42759 0
M  V30 2551 C 261.283 3.28237 -1.48096 0
M  V30 2552 C 261.136 3.3312 -3.02244 0
M  V30 2553 C 262.455 4.24871 -1.14774 0
M  V30 2554 H 259.574 0.66077 -0.326424 0
M  V30 2555 H 262.216 1.28389 -1.40058 0
M  V30 2556 H 260.366 3.74024 -1.05062 0
M  V30 2557 H 262.038 2.95748 -3.54021 0
M  V30 2558 H 260.281 2.72756 -3.37323 0
M  V30 2559 H 260.952 4.3613 -3.38371 0
M  V30 2560 H 263.428 3.87361 -1.51957 0
M  V30 2561 H 262.304 5.25532 -1.58452 0
M  V30 2562 H 262.565 4.42058 -0.0611849 0
M  V30 2563 N 261.624 0.925811 1.2754 0
M  V30 2564 C 263.04 0.625767 1.46821 0
M  V30 2565 C 263.24 -0.825506 1.83814 0
M  V30 2566 O 262.296 -1.60356 1.95044 0
M  V30 2567 C 263.609 1.57402 2.56213 0
M  V30 2568 C 265.157 1.58204 2.70075 0
M  V30 2569 C 265.632 2.51721 3.82623 0
M  V30 2570 N 267.123 2.49917 3.89994 0
M  V30 2571 C 267.858 3.18968 4.76494 0
M  V30 2572 N 267.354 3.97391 5.67496 0
M  V30 2573 N 269.147 3.07996 4.70208 0
M  V30 2574 H 261.298 1.86409 1.01811 0
M  V30 2575 H 263.561 0.800213 0.508295 0
M  V30 2576 H 263.267 2.60925 2.35819 0
M  V30 2577 H 263.141 1.31428 3.53563 0
M  V30 2578 H 265.528 0.554124 2.89851 0
M  V30 2579 H 265.609 1.88226 1.73218 0
M  V30 2580 H 265.253 3.54622 3.63601 0
M  V30 2581 H 265.183 2.18996 4.78903 0
M  V30 2582 H 267.674 1.9296 3.24923 0
M  V30 2583 H 267.987 4.4707 6.30356 0
M  V30 2584 H 266.332 4.01495 5.67298 0
M  V30 2585 H 269.523 2.46223 3.9811 0
M  V30 2586 H 269.696 3.6208 5.37403 0
M  V30 2587 N 263.102 -1.41638 0.69111 0
M  V30 2588 C 264.379 -1.95036 0.148421 0
M  V30 2589 C 264.759 -1.63072 -1.34055 0
M  V30 2590 O 264.107 -0.93538 -2.08478 0
M  V30 2591 C 264.317 -3.46279 0.434951 0
M  V30 2592 C 265.665 -4.23069 0.360275 0
M  V30 2593 O 266.689 -3.54277 0.369613 0
M  V30 2594 O 265.548 -5.45583 0.316534 0
M  V30 2595 H 262.642 -0.826908 0.0123654 0
M  V30 2596 H 265.188 -1.5138 0.766963 0
M  V30 2597 H 263.96 -3.6281 1.46576 0
M  V30 2598 H 263.583 -3.97019 -0.214787 0
M  V30 2599 N 264.58 -0.43555 -1.51462 0
M  V30 2600 C 265.805 0.132627 -2.06976 0
M  V30 2601 C 266.23 1.35848 -1.30104 0
M  V30 2602 O 265.588 1.78112 -0.338493 0
M  V30 2603 C 265.636 0.43523 -3.57964 0
M  V30 2604 O 264.74 1.52198 -3.83288 0
M  V30 2605 H 264.081 0.00265 -0.663995 0
M  V30 2606 H 266.611 -0.616369 -1.95095 0
M  V30 2607 H 266.621 0.686206 -4.02188 0
M  V30 2608 H 265.296 -0.460739 -4.1334 0
M  V30 2609 H 263.873 1.2611 -3.50928 0
M  V30 2610 N 266.058 1.56714 -0.166846 0
M  V30 2611 C 266.988 2.20754 0.760913 0
M  V30 2612 C 267.969 1.16178 1.24244 0
M  V30 2613 O 269.154 1.44592 1.29641 0
M  V30 2614 C 266.284 2.84478 1.99223 0
M  V30 2615 C 265.238 3.95053 1.64672 0
M  V30 2616 C 264.564 4.45805 2.95232 0
M  V30 2617 C 265.864 5.14865 0.878155 0
M  V30 2618 H 267.558 2.98537 0.22713 0
M  V30 2619 H 265.104 1.43596 0.107805 0
M  V30 2620 H 267.057 3.27951 2.64624 0
M  V30 2621 H 265.781 2.04056 2.55007 0
M  V30 2622 H 264.44 3.52228 1.01641 0
M  V30 2623 H 264.088 3.62181 3.49047 0
M  V30 2624 H 263.788 5.204 2.7287 0
M  V30 2625 H 265.312 4.91962 3.6167 0
M  V30 2626 H 266.726 5.55059 1.43466 0
M  V30 2627 H 265.123 5.95348 0.753738 0
M  V30 2628 H 266.193 4.84735 -0.126377 0
M  V30 2629 N 267.536 -0.106894 1.57237 0
M  V30 2630 C 268.483 -1.13049 2.01217 0
M  V30 2631 C 269.453 -1.40471 0.886403 0
M  V30 2632 O 270.638 -1.52133 1.15153 0
M  V30 2633 C 267.778 -2.4487 2.43172 0
M  V30 2634 C 266.891 -2.24281 3.69218 0
M  V30 2635 C 266.026 -3.49417 4.00101 0
M  V30 2636 C 265.065 -3.24038 5.19294 0
M  V30 2637 N 264.202 -4.41409 5.45988 0
M  V30 2638 H 269.042 -0.748456 2.88448 0
M  V30 2639 H 266.579 -0.358054 1.42676 0
M  V30 2640 H 268.537 -3.21786 2.65537 0
M  V30 2641 H 267.167 -2.80944 1.58967 0
M  V30 2642 H 266.219 -1.38224 3.54398 0
M  V30 2643 H 267.531 -2.01512 4.56283 0
M  V30 2644 H 266.685 -4.34746 4.2318 0
M  V30 2645 H 265.424 -3.75229 3.11535 0
M  V30 2646 H 264.429 -2.37102 4.96047 0
M  V30 2647 H 265.654 -2.99584 6.09447 0
M  V30 2648 H 263.6 -4.67319 4.60379 0
M  V30 2649 H 263.517 -4.21788 6.274 0
M  V30 2650 H 264.785 -5.27836 5.73593 0
M  V30 2651 N 269.014 -1.53014 -0.377408 0
M  V30 2652 C 269.961 -1.78616 -1.46168 0
M  V30 2653 C 270.931 -0.629917 -1.53692 0
M  V30 2654 O 272.116 -0.870861 -1.69766 0
M  V30 2655 C 269.256 -1.97123 -2.8326 0
M  V30 2656 C 268.369 -3.24831 -2.84796 0
M  V30 2657 C 267.504 -3.33591 -4.13389 0
M  V30 2658 C 266.543 -4.55377 -4.09021 0
M  V30 2659 N 265.68 -4.61355 -5.29241 0
M  V30 2660 H 270.52 -2.71142 -1.23637 0
M  V30 2661 H 268.057 -1.34326 -0.599577 0
M  V30 2662 H 270.015 -2.05839 -3.62886 0
M  V30 2663 H 268.645 -1.07946 -3.04216 0
M  V30 2664 H 267.697 -3.25128 -1.97474 0
M  V30 2665 H 269.009 -4.14523 -2.77439 0
M  V30 2666 H 268.163 -3.41554 -5.01424 0
M  V30 2667 H 266.902 -2.41894 -4.23484 0
M  V30 2668 H 265.907 -4.47527 -3.19373 0
M  V30 2669 H 267.132 -5.48402 -4.00539 0
M  V30 2670 H 265.078 -3.72554 -5.39944 0
M  V30 2671 H 264.995 -5.44935 -5.24006 0
M  V30 2672 H 266.263 -4.73586 -6.19141 0
M  V30 2673 N 270.492 0.636531 -1.44174 0
M  V30 2674 C 271.455 1.73063 -1.50273 0
M  V30 2675 C 272.455 1.56113 -0.385397 0
M  V30 2676 O 273.645 1.61707 -0.64781 0
M  V30 2677 C 270.777 3.12096 -1.37145 0
M  V30 2678 H 271.97 1.69031 -2.47727 0
M  V30 2679 H 269.523 0.849706 -1.31186 0
M  V30 2680 H 270.258 3.21728 -0.407636 0
M  V30 2681 H 270.043 3.25805 -2.18159 0
M  V30 2682 H 271.533 3.91846 -1.44382 0
M  V30 2683 N 271.97 1.30982 0.876444 0
M  V30 2684 C 272.9 1.20668 1.99903 0
M  V30 2685 C 273.881 0.095354 1.69833 0
M  V30 2686 O 275.066 0.27885 1.92188 0
M  V30 2687 C 272.196 0.90655 3.3526 0
M  V30 2688 C 271.15 1.97675 3.79617 0
M  V30 2689 C 270.476 1.52943 5.1236 0
M  V30 2690 C 271.776 3.389 3.97422 0
M  V30 2691 H 273.47 2.14586 2.0879 0
M  V30 2692 H 271.016 1.03308 1.00317 0
M  V30 2693 H 272.969 0.821025 4.13324 0
M  V30 2694 H 271.693 -0.0682969 3.26529 0
M  V30 2695 H 270.352 2.05205 3.03787 0
M  V30 2696 H 270 0.54262 5.00065 0
M  V30 2697 H 269.7 2.24532 5.43009 0
M  V30 2698 H 271.224 1.45786 5.92941 0
M  V30 2699 H 272.638 3.34081 4.659 0
M  V30 2700 H 271.035 4.0865 4.3946 0
M  V30 2701 H 272.105 3.80163 3.01006 0
M  V30 2702 N 273.449 -1.08991 1.13837 0
M  V30 2703 C 274.382 -2.15049 0.763477 0
M  V30 2704 C 275.36 -1.60629 -0.252398 0
M  V30 2705 O 276.544 -1.87958 -0.142853 0
M  V30 2706 C 273.671 -3.38441 0.132545 0
M  V30 2707 C 272.717 -4.11596 1.11763 0
M  V30 2708 S 273.55 -4.6521 2.65216 0
M  V30 2709 C 274.706 -5.91896 2.03495 0
M  V30 2710 H 274.939 -2.46518 1.66182 0
M  V30 2711 H 272.472 -1.21008 0.958976 0
M  V30 2712 H 274.43 -4.09883 -0.225074 0
M  V30 2713 H 273.091 -3.05182 -0.743135 0
M  V30 2714 H 272.284 -5.00121 0.624076 0
M  V30 2715 H 271.886 -3.46038 1.41894 0
M  V30 2716 H 274.178 -6.63156 1.38675 0
M  V30 2717 H 275.121 -6.45938 2.9012 0
M  V30 2718 H 275.529 -5.44625 1.48471 0
M  V30 2719 N 274.927 -0.932562 -1.27047 0
M  V30 2720 C 275.86 -0.379774 -2.25018 0
M  V30 2721 C 276.838 0.526587 -1.53837 0
M  V30 2722 O 278.022 0.465992 -1.82649 0
M  V30 2723 C 275.149 0.455187 -3.35627 0
M  V30 2724 C 274.195 -0.388428 -4.24728 0
M  V30 2725 S 275.028 -1.80701 -5.04091 0
M  V30 2726 C 276.184 -0.979865 -6.18182 0
M  V30 2727 H 276.417 -1.2101 -2.71558 0
M  V30 2728 H 273.95 -0.735078 -1.35779 0
M  V30 2729 H 275.908 0.931052 -3.99802 0
M  V30 2730 H 274.569 1.26009 -2.87716 0
M  V30 2731 H 273.762 0.25089 -5.03375 0
M  V30 2732 H 273.364 -0.798649 -3.65373 0
M  V30 2733 H 275.656 -0.218115 -6.77149 0
M  V30 2734 H 276.599 -1.73951 -6.86401 0
M  V30 2735 H 277.007 -0.51973 -5.62102 0
M  V30 2736 N 276.405 1.4127 -0.698611 0
M  V30 2737 C 277.821 1.55241 -0.370462 0
M  V30 2738 C 278.021 1.67351 1.12231 0
M  V30 2739 O 277.077 1.65363 1.90818 0
M  V30 2740 C 278.39 2.78997 -1.12165 0
M  V30 2741 C 279.938 2.92797 -1.1063 0
M  V30 2742 C 280.413 4.19445 -1.8393 0
M  V30 2743 N 281.904 4.26409 -1.80914 0
M  V30 2744 C 282.639 5.23271 -2.34467 0
M  V30 2745 N 282.135 6.26145 -2.96504 0
M  V30 2746 N 283.928 5.15232 -2.24706 0
M  V30 2747 H 276.079 1.31654 -1.66676 0
M  V30 2748 H 278.342 0.635393 -0.703548 0
M  V30 2749 H 278.048 2.76268 -2.17644 0
M  V30 2750 H 277.922 3.70606 -0.702209 0
M  V30 2751 H 280.309 2.95039 -0.0597713 0
M  V30 2752 H 280.39 2.02353 -1.56483 0
M  V30 2753 H 280.034 4.17964 -2.88563 0
M  V30 2754 H 279.964 5.08866 -1.35509 0
M  V30 2755 H 282.455 3.527 -1.35687 0
M  V30 2756 H 282.768 6.96451 -3.34927 0
M  V30 2757 H 281.113 6.26638 -3.00583 0
M  V30 2758 H 284.304 4.33789 -1.7591 0
M  V30 2759 H 284.477 5.90552 -2.66745 0
M  V30 2760 N 277.883 0.443576 1.51229 0
M  V30 2761 C 279.131 -0.120557 2.0174 0
M  V30 2762 C 279.452 -1.42665 1.32935 0
M  V30 2763 O 278.722 -1.9028 0.465866 0
M  V30 2764 H 277.302 -0.0475426 0.745486 0
M  V30 2765 H 279.964 0.587711 1.85828 0
M  V30 2766 H 279.06 -0.291972 3.10731 0
M  V30 2767 N 279.361 -1.56624 0.175154 0
M  V30 2768 C 280.291 -2.21155 -0.749195 0
M  V30 2769 C 281.272 -1.16836 -1.23626 0
M  V30 2770 O 282.457 -1.45277 -1.28873 0
M  V30 2771 C 279.587 -2.8553 -1.97711 0
M  V30 2772 C 278.541 -3.95921 -1.62575 0
M  V30 2773 C 277.867 -4.47365 -2.92864 0
M  V30 2774 C 279.167 -5.15323 -0.850838 0
M  V30 2775 H 280.861 -2.98653 -0.211295 0
M  V30 2776 H 278.407 -1.43651 -0.100188 0
M  V30 2777 H 280.36 -3.2935 -2.62881 0
M  V30 2778 H 279.084 -2.05406 -2.53921 0
M  V30 2779 H 277.743 -3.52762 -0.997719 0
M  V30 2780 H 277.391 -3.64027 -3.47122 0
M  V30 2781 H 277.091 -5.21839 -2.70106 0
M  V30 2782 H 278.615 -4.93873 -3.59056 0
M  V30 2783 H 280.029 -5.55812 -1.40521 0
M  V30 2784 H 278.426 -5.95739 -0.722154 0
M  V30 2785 H 279.496 -4.84661 0.152082 0
M  V30 2786 N 280.839 0.0985539 -1.57292 0
M  V30 2787 C 282.088 0.801358 -1.85098 0
M  V30 2788 C 282.401 1.80066 -0.763902 0
M  V30 2789 O 283.607 2.55112 -0.928981 0
M  V30 2790 C 282.063 1.47599 -3.28242 0
M  V30 2791 C 281.671 0.516624 -4.45011 0
M  V30 2792 C 283.415 2.16272 -3.65276 0
M  V30 2793 C 281.322 1.19564 -5.79188 0
M  V30 2794 H 280.252 0.303022 -0.69043 0
M  V30 2795 H 282.903 0.0542623 -1.8342 0
M  V30 2796 H 281.285 2.27042 -3.2445 0
M  V30 2797 H 282.459 -0.246065 -4.60143 0
M  V30 2798 H 280.774 -0.064227 -4.1635 0
M  V30 2799 H 283.371 2.67802 -4.62803 0
M  V30 2800 H 283.714 2.95009 -2.93727 0
M  V30 2801 H 284.247 1.43693 -3.70941 0
M  V30 2802 H 280.986 0.449157 -6.53959 0
M  V30 2803 H 280.506 1.92984 -5.67906 0
M  V30 2804 H 282.185 1.7231 -6.23633 0
M  V30 2805 N 282.317 1.53212 0.369288 0
M  V30 2806 C 283.728 1.60943 0.946276 0
M  V30 2807 C 284.079 0.47452 1.90375 0
M  V30 2808 O 283.204 -0.399597 2.12679 0
M  V30 2809 C 283.799 2.91715 1.72302 0
M  V30 2810 C 282.358 3.01792 2.24941 0
M  V30 2811 C 281.505 2.56211 1.06072 0
M  V30 2812 H 284.456 1.58007 0.148198 0
M  V30 2813 H 284.477 2.79309 2.58393 0
M  V30 2814 H 283.989 3.74295 1.0259 0
M  V30 2815 H 282.09 2.23791 2.97906 0
M  V30 2816 H 282.203 4.06803 2.53077 0
M  V30 2817 H 280.567 2.10998 1.4266 0
M  V30 2818 H 281.35 3.41206 0.378639 0
M  V30 2819 N 283.795 -0.628877 1.44509 0
M  V30 2820 C 284.705 -1.7694 1.54044 0
M  V30 2821 C 285.721 -1.68705 0.425987 0
M  V30 2822 O 286.897 -1.89442 0.683656 0
M  V30 2823 C 283.962 -3.13332 1.48405 0
M  V30 2824 C 283.023 -3.33181 2.70719 0
M  V30 2825 C 282.256 -4.63067 2.6534 0
M  V30 2826 O 282.479 -5.44017 1.71469 0
M  V30 2827 O 281.413 -4.85167 3.56226 0
M  V30 2828 H 285.239 -1.71848 2.50403 0
M  V30 2829 H 282.824 -0.790378 1.26781 0
M  V30 2830 H 284.706 -3.94634 1.47791 0
M  V30 2831 H 283.381 -3.1896 0.551898 0
M  V30 2832 H 282.288 -2.51549 2.769 0
M  V30 2833 H 283.621 -3.32416 3.62988 0
M  V30 2834 N 285.273 -1.31445 -0.869486 0
M  V30 2835 C 286.513 -1.22458 -1.63656 0
M  V30 2836 C 286.877 0.213846 -1.90805 0
M  V30 2837 O 288.078 0.427212 -2.65383 0
M  V30 2838 C 286.349 -2.04564 -2.93067 0
M  V30 2839 S 287.908 -2.12445 -3.83944 0
M  V30 2840 H 284.726 -0.436145 -0.561514 0
M  V30 2841 H 287.328 -1.66114 -1.03085 0
M  V30 2842 H 286.032 -3.0816 -2.71045 0
M  V30 2843 H 285.563 -1.6163 -3.58663 0
M  V30 2844 H 287.578 -1.26312 -4.79854 0
M  V30 2845 N 286.751 1.08385 -1.14413 0
M  V30 2846 C 287.991 1.8238 -0.922868 0
M  V30 2847 C 288.355 1.84225 0.540842 0
M  V30 2848 O 289.556 2.53985 0.880058 0
M  V30 2849 C 287.827 3.24048 -1.50757 0
M  V30 2850 S 289.386 4.14917 -1.4279 0
M  V30 2851 H 286.204 0.628524 -0.332384 0
M  V30 2852 H 288.806 1.30278 -1.45766 0
M  V30 2853 H 287.51 3.20288 -2.56601 0
M  V30 2854 H 287.041 3.81224 -0.971178 0
M  V30 2855 H 289.056 4.94473 -0.413582 0
M  V30 2856 N 288.23 0.939286 1.26551 0
M  V30 2857 C 289.193 0.451987 2.24699 0
M  V30 2858 C 290.193 -0.435869 1.5478 0
M  V30 2859 O 291.383 -0.235314 1.72603 0
M  V30 2860 C 288.515 -0.348801 3.39111 0
M  V30 2861 H 289.708 1.3193 2.69322 0
M  V30 2862 H 287.261 0.721072 1.38673 0
M  V30 2863 H 287.996 -1.23444 2.99887 0
M  V30 2864 H 287.781 0.287945 3.91041 0
M  V30 2865 H 289.271 -0.679726 4.12031 0
M  V30 2866 N 289.708 -1.40897 0.706093 0
M  V30 2867 C 290.954 -2.01352 0.241889 0
M  V30 2868 C 291.287 -1.55832 -1.15888 0
M  V30 2869 O 290.562 -0.774145 -1.7843 0
M  V30 2870 C 290.845 -3.58752 0.311311 0
M  V30 2871 C 290.698 -4.1437 1.74978 0
M  V30 2872 C 292.017 -4.38914 -0.322922 0
M  V30 2873 H 289.136 -0.731562 0.0893687 0
M  V30 2874 H 291.778 -1.67504 0.896802 0
M  V30 2875 H 289.928 -3.87718 -0.246302 0
M  V30 2876 H 291.6 -3.96239 2.36205 0
M  V30 2877 H 289.843 -3.69016 2.28057 0
M  V30 2878 H 290.514 -5.23532 1.74981 0
M  V30 2879 H 292.99 -4.15822 0.152089 0
M  V30 2880 H 291.866 -5.48358 -0.243855 0
M  V30 2881 H 292.127 -4.19176 -1.40513 0
M  V30 2882 N 291.186 -0.45159 -1.50991 0
M  V30 2883 C 292.416 0.108177 -2.06317 0
M  V30 2884 C 292.824 1.35774 -1.31765 0
M  V30 2885 O 292.167 1.79838 -0.374694 0
M  V30 2886 C 292.229 0.481659 -3.56259 0
M  V30 2887 C 291.893 -0.663114 -4.52163 0
M  V30 2888 C 292.89 -1.53947 -4.96585 0
M  V30 2889 C 290.575 -0.8479 -4.95092 0
M  V30 2890 C 292.569 -2.58518 -5.82621 0
M  V30 2891 C 290.256 -1.89686 -5.80915 0
M  V30 2892 C 291.254 -2.76388 -6.24579 0
M  V30 2893 O 290.942 -3.79482 -7.08695 0
M  V30 2894 H 290.674 0.00499183 -0.675982 0
M  V30 2895 H 293.228 -0.633659 -1.95381 0
M  V30 2896 H 291.458 1.27641 -3.65027 0
M  V30 2897 H 293.147 0.974233 -3.94035 0
M  V30 2898 H 293.913 -1.4083 -4.64103 0
M  V30 2899 H 289.792 -0.18258 -4.60638 0
M  V30 2900 H 293.336 -3.26224 -6.16623 0
M  V30 2901 H 289.233 -2.02817 -6.12809 0
M  V30 2902 H 290.001 -3.76234 -7.26905 0
M  V30 2903 N 292.664 1.56529 -0.183458 0
M  V30 2904 C 294.08 1.58664 0.172554 0
M  V30 2905 C 294.28 1.19925 1.61926 0
M  V30 2906 O 293.336 0.916534 2.35278 0
M  V30 2907 C 294.649 3.00463 -0.119262 0
M  V30 2908 C 296.197 3.12945 -0.0584396 0
M  V30 2909 C 296.672 4.56857 -0.323408 0
M  V30 2910 N 298.163 4.62403 -0.271612 0
M  V30 2911 C 298.898 5.71626 -0.450639 0
M  V30 2912 N 298.394 6.89362 -0.689384 0
M  V30 2913 N 300.187 5.60775 -0.385701 0
M  V30 2914 H 292.338 1.79994 -1.12765 0
M  V30 2915 H 294.601 0.834808 -0.449222 0
M  V30 2916 H 294.307 3.33326 -1.12192 0
M  V30 2917 H 294.181 3.72659 0.583544 0
M  V30 2918 H 296.568 2.79902 0.934805 0
M  V30 2919 H 296.649 2.4316 -0.794144 0
M  V30 2920 H 296.293 4.9061 -1.31392 0
M  V30 2921 H 296.223 5.24816 0.43305 0
M  V30 2922 H 298.714 3.77785 -0.0932256 0
M  V30 2923 H 299.027 7.68489 -0.815113 0
M  V30 2924 H 297.372 6.91196 -0.726142 0
M  V30 2925 H 300.563 4.67674 -0.199687 0
M  V30 2926 H 300.736 6.4584 -0.528646 0
M  V30 2927 N 294.142 -0.090211 1.57342 0
M  V30 2928 C 295.391 -0.791531 1.8552 0
M  V30 2929 C 295.704 -1.79659 0.773441 0
M  V30 2930 O 296.91 -2.54616 0.942497 0
M  V30 2931 C 295.366 -1.45856 3.2902 0
M  V30 2932 C 294.974 -0.493017 4.45279 0
M  V30 2933 C 296.718 -2.14332 3.66418 0
M  V30 2934 C 294.625 -1.16491 5.79814 0
M  V30 2935 H 293.555 -0.299356 0.692027 0
M  V30 2936 H 296.206 -0.0445343 1.83446 0
M  V30 2937 H 294.588 -2.25318 3.2565 0
M  V30 2938 H 295.762 0.270464 4.60006 0
M  V30 2939 H 294.077 0.0863061 4.16311 0
M  V30 2940 H 296.674 -2.65344 4.64216 0
M  V30 2941 H 297.017 -2.93447 2.95287 0
M  V30 2942 H 297.55 -1.41724 3.71698 0
M  V30 2943 H 294.289 -0.41447 6.54188 0
M  V30 2944 H 293.809 -1.8997 5.68921 0
M  V30 2945 H 295.488 -1.69001 6.24538 0
M  V30 2946 N 295.62 -1.53406 -0.361157 0
M  V30 2947 C 296.552 -1.76446 -1.46286 0
M  V30 2948 C 297.565 -0.645322 -1.49464 0
M  V30 2949 O 298.754 -0.921681 -1.52864 0
M  V30 2950 C 295.854 -1.83332 -2.85031 0
M  V30 2951 C 295.027 -3.13033 -3.05498 0
M  V30 2952 C 294.086 -3.11104 -4.24383 0
M  V30 2953 O 293.112 -3.84888 -4.19344 0
M  V30 2954 N 294.314 -2.32234 -5.32022 0
M  V30 2955 H 297.079 -2.71508 -1.26899 0
M  V30 2956 H 294.64 -1.52238 -0.550915 0
M  V30 2957 H 296.632 -1.79514 -3.62708 0
M  V30 2958 H 295.202 -0.955342 -2.97644 0
M  V30 2959 H 294.422 -3.30119 -2.15442 0
M  V30 2960 H 295.71 -3.9874 -3.16044 0
M  V30 2961 H 295.108 -1.71807 -5.38979 0
M  V30 2962 H 293.665 -2.3423 -6.08259 0
M  V30 2963 N 297.098 0.621204 -1.44841 0
M  V30 2964 C 298.375 1.38 -1.38619 0
M  V30 2965 C 298.755 2.11041 -0.0498935 0
M  V30 2966 O 298.103 2.06992 0.967816 0
M  V30 2967 C 298.313 2.33817 -2.59096 0
M  V30 2968 C 299.661 2.96844 -3.03593 0
M  V30 2969 O 300.685 2.44141 -2.59371 0
M  V30 2970 O 299.544 3.92476 -3.80296 0
M  V30 2971 H 296.638 0.61811 -0.549426 0
M  V30 2972 H 299.184 0.645429 -1.56947 0
M  V30 2973 H 297.956 1.79012 -3.47952 0
M  V30 2974 H 297.579 3.14676 -2.43032 0
M  V30 2975 N 298.576 1.31904 0.862503 0
M  V30 2976 C 299.824 1.21776 1.61292 0
M  V30 2977 C 300.145 -0.222413 1.93727 0
M  V30 2978 O 299.415 -1.1451 1.58947 0
M  V30 2979 H 297.995 0.447717 0.597962 0
M  V30 2980 H 300.657 1.65326 1.03215 0
M  V30 2981 H 299.753 1.7948 2.5533 0
M  V30 2982 N 300.054 -1.07777 1.14986 0
M  V30 2983 C 300.964 -2.18404 0.856546 0
M  V30 2984 C 301.98 -1.73211 -0.165485 0
M  V30 2985 O 303.156 -2.01399 0.00755219 0
M  V30 2986 C 300.221 -3.44977 0.34526 0
M  V30 2987 C 299.282 -4.0476 1.43065 0
M  V30 2988 C 298.515 -5.25291 0.943663 0
M  V30 2989 O 298.738 -5.70004 -0.212426 0
M  V30 2990 O 297.672 -5.76638 1.72547 0
M  V30 2991 H 301.498 -2.45978 1.78125 0
M  V30 2992 H 299.083 -1.17033 0.928631 0
M  V30 2993 H 300.965 -4.21348 0.0663671 0
M  V30 2994 H 299.64 -3.18965 -0.551631 0
M  V30 2995 H 298.547 -3.29949 1.76309 0
M  V30 2996 H 299.88 -4.35035 2.30229 0
M  V30 2997 N 301.532 -0.945985 -1.26051 0
M  V30 2998 C 302.479 -0.45809 -2.26208 0
M  V30 2999 C 303.449 0.484816 -1.58867 0
M  V30 3000 O 304.634 0.399969 -1.86561 0
M  V30 3001 C 301.774 0.266131 -3.44072 0
M  V30 3002 C 300.887 -0.713005 -4.26075 0
M  V30 3003 C 300.022 0.0329013 -5.3119 0
M  V30 3004 C 299.061 -0.93774 -6.04874 0
M  V30 3005 N 298.198 -0.223274 -7.01745 0
M  V30 3006 H 303.038 -1.3171 -2.67313 0
M  V30 3007 H 300.575 -0.66069 -1.31428 0
M  V30 3008 H 302.533 0.702514 -4.11243 0
M  V30 3009 H 301.163 1.08925 -3.03867 0
M  V30 3010 H 300.215 -1.26789 -3.58648 0
M  V30 3011 H 301.527 -1.45406 -4.77136 0
M  V30 3012 H 300.681 0.528335 -6.04395 0
M  V30 3013 H 299.42 0.806801 -4.8098 0
M  V30 3014 H 298.425 -1.44425 -5.30492 0
M  V30 3015 H 299.65 -1.71172 -6.57173 0
M  V30 3016 H 297.596 0.532046 -6.53839 0
M  V30 3017 H 297.513 -0.90357 -7.50581 0
M  V30 3018 H 298.781 0.250907 -7.79096 0
M  V30 3019 N 303.011 1.40521 -0.713556 0
M  V30 3020 C 303.958 2.30723 -0.059684 0
M  V30 3021 C 304.928 1.48079 0.752448 0
M  V30 3022 O 306.113 1.76823 0.71681 0
M  V30 3023 C 303.253 3.34274 0.857594 0
M  V30 3024 C 302.366 4.31986 0.0351536 0
M  V30 3025 C 301.501 5.22605 0.951724 0
M  V30 3026 C 300.54 6.11976 0.123253 0
M  V30 3027 N 299.677 6.9502 0.99459 0
M  V30 3028 H 304.517 2.86074 -0.834596 0
M  V30 3029 H 302.054 1.40879 -0.42326 0
M  V30 3030 H 304.012 3.92879 1.40364 0
M  V30 3031 H 302.642 2.8043 1.59871 0
M  V30 3032 H 301.694 3.7518 -0.628052 0
M  V30 3033 H 303.006 4.95101 -0.606347 0
M  V30 3034 H 302.16 5.86131 1.56638 0
M  V30 3035 H 300.899 4.59759 1.62705 0
M  V30 3036 H 299.904 5.47482 -0.50435 0
M  V30 3037 H 301.129 6.76881 -0.548539 0
M  V30 3038 H 299.075 6.34764 1.6556 0
M  V30 3039 H 298.992 7.54892 0.40908 0
M  V30 3040 H 300.26 7.62997 1.59549 0
M  V30 3041 N 304.489 0.459591 1.5075 0
M  V30 3042 C 305.9 0.00171547 1.867 0
M  V30 3043 C 306.251 -1.39934 1.37525 0
M  V30 3044 O 305.376 -2.03523 0.735349 0
M  V30 3045 C 305.971 -0.00366298 3.388 0
M  V30 3046 C 304.53 -0.406026 3.74204 0
M  V30 3047 C 303.677 0.38673 2.7459 0
M  V30 3048 H 306.628 0.674413 1.43657 0
M  V30 3049 H 306.649 -0.808371 3.71814 0
M  V30 3050 H 306.161 1.01617 3.74561 0
M  V30 3051 H 304.262 -1.43063 3.4404 0
M  V30 3052 H 304.375 -0.115362 4.78961 0
M  V30 3053 H 302.739 -0.158019 2.54209 0
M  V30 3054 H 303.522 1.40585 3.13194 0
M  V30 3055 N 305.967 -1.56429 0.191757 0
M  V30 3056 C 307.216 -1.9666 -0.448088 0
M  V30 3057 C 307.529 -1.08136 -1.62991 0
M  V30 3058 O 308.735 -1.38135 -2.33733 0
M  V30 3059 C 307.191 -3.49753 -0.848585 0
M  V30 3060 C 306.799 -4.46935 0.308764 0
M  V30 3061 C 308.543 -3.9876 -1.4557 0
M  V30 3062 C 306.45 -5.91293 -0.112506 0
M  V30 3063 H 305.38 -0.734312 -0.171179 0
M  V30 3064 H 308.031 -1.81301 0.283242 0
M  V30 3065 H 306.413 -3.60604 -1.63649 0
M  V30 3066 H 307.587 -4.47813 1.08627 0
M  V30 3067 H 305.902 -4.08102 0.827158 0
M  V30 3068 H 308.499 -5.04086 -1.78328 0
M  V30 3069 H 308.842 -3.42875 -2.36099 0
M  V30 3070 H 309.375 -3.9101 -0.731836 0
M  V30 3071 H 306.114 -6.51097 0.758514 0
M  V30 3072 H 305.634 -5.93676 -0.854941 0
M  V30 3073 H 307.313 -6.44663 -0.549448 0
M  V30 3074 N 307.445 0.0818655 -1.57387 0
M  V30 3075 C 308.693 0.781368 -1.86384 0
M  V30 3076 C 309.014 1.78618 -0.782342 0
M  V30 3077 O 308.284 1.94976 0.190061 0
M  V30 3078 H 306.864 0.291562 -0.687751 0
M  V30 3079 H 309.526 0.060348 -1.94807 0
M  V30 3080 H 308.622 1.3038 -2.83562 0
M  V30 3081 N 308.923 1.53595 0.353017 0
M  V30 3082 C 310.169 1.71581 1.09232 0
M  V30 3083 C 310.524 0.468328 1.86613 0
M  V30 3084 O 309.817 -0.538911 1.83865 0
M  V30 3085 C 310.011 2.91313 2.07054 0
M  V30 3086 C 309.84 4.27585 1.39287 0
M  V30 3087 C 308.61 4.92233 1.1417 0
M  V30 3088 C 310.808 5.07656 0.824005 0
M  V30 3089 N 308.79 6.124 0.428841 0
M  V30 3090 C 310.161 6.19531 0.241195 0
M  V30 3091 C 312.216 4.92609 0.723922 0
M  V30 3092 C 310.919 7.18002 -0.431952 0
M  V30 3093 C 312.945 5.91365 0.0645334 0
M  V30 3094 C 312.307 7.02571 -0.507347 0
M  V30 3095 H 308.406 0.680987 0.384422 0
M  V30 3096 H 310.99 1.91013 0.377096 0
M  V30 3097 H 309.161 2.73398 2.75877 0
M  V30 3098 H 310.893 2.98062 2.73753 0
M  V30 3099 H 307.648 4.51612 1.42631 0
M  V30 3100 H 308.072 6.76944 0.0874131 0
M  V30 3101 H 312.714 4.06808 1.15181 0
M  V30 3102 H 310.432 8.03384 -0.871758 0
M  V30 3103 H 314.018 5.81799 -0.0121469 0
M  V30 3104 H 312.898 7.77675 -1.0095 0
M  V30 3105 N 310.401 -0.613514 1.45168 0
M  V30 3106 C 311.678 -1.37263 1.39349 0
M  V30 3107 C 312.058 -2.11012 0.0610848 0
M  V30 3108 O 311.406 -2.07502 -0.956825 0
M  V30 3109 C 311.616 -2.3244 2.60332 0
M  V30 3110 C 312.964 -2.9523 3.05163 0
M  V30 3111 O 313.988 -2.42762 2.60663 0
M  V30 3112 O 312.847 -3.90454 3.82372 0
M  V30 3113 H 309.941 -0.615188 0.552696 0
M  V30 3114 H 312.487 -0.637097 1.57287 0
M  V30 3115 H 311.259 -1.77164 3.48896 0
M  V30 3116 H 310.882 -3.13383 2.44698 0
M  V30 3117 N 311.879 -1.3236 -0.855495 0
M  V30 3118 C 313.107 -1.2587 -1.64208 0
M  V30 3119 C 313.522 0.173457 -1.88002 0
M  V30 3120 O 312.879 1.11027 -1.44842 0
M  V30 3121 C 312.93 -2.01424 -3.00184 0
M  V30 3122 O 312.651 -3.39051 -2.77445 0
M  V30 3123 C 314.152 -2.01948 -3.94629 0
M  V30 3124 H 311.372 -0.434318 -0.511477 0
M  V30 3125 H 313.916 -1.74469 -1.0668 0
M  V30 3126 H 312.071 -1.56549 -3.5436 0
M  V30 3127 H 312.485 -3.77711 -3.63916 0
M  V30 3128 H 313.959 -2.59297 -4.87308 0
M  V30 3129 H 314.436 -1.00554 -4.27534 0
M  V30 3130 H 315.042 -2.46767 -3.4639 0
M  V30 3131 N 313.357 1.07166 -1.15556 0
M  V30 3132 C 314.634 1.76546 -0.842069 0
M  V30 3133 C 315.014 2.00453 0.661939 0
M  V30 3134 O 314.362 1.62452 1.60691 0
M  V30 3135 C 314.572 3.07266 -1.65495 0
M  V30 3136 C 315.92 3.81578 -1.86234 0
M  V30 3137 O 316.944 3.17083 -1.62287 0
M  V30 3138 O 315.803 4.97419 -2.26355 0
M  V30 3139 H 312.897 0.766756 -0.309862 0
M  V30 3140 H 315.443 1.13514 -1.26145 0
M  V30 3141 H 314.215 2.85494 -2.67598 0
M  V30 3142 H 313.838 3.7803 -1.23203 0
M  V30 3143 N 314.835 0.952656 1.25548 0
M  V30 3144 C 316.084 0.602053 1.92505 0
M  V30 3145 C 316.397 -0.864663 1.75451 0
M  V30 3146 O 317.603 -1.32514 2.36965 0
M  V30 3147 C 316.059 1.02607 3.44963 0
M  V30 3148 C 315.667 2.51519 3.70732 0
M  V30 3149 C 317.411 0.747905 4.1786 0
M  V30 3150 C 315.318 2.87732 5.16686 0
M  V30 3151 H 314.248 0.22146 0.720744 0
M  V30 3152 H 316.899 1.15684 1.42441 0
M  V30 3153 H 315.281 0.399712 3.93978 0
M  V30 3154 H 316.455 3.19157 3.32378 0
M  V30 3155 H 314.77 2.76786 3.11092 0
M  V30 3156 H 317.367 0.994647 5.25367 0
M  V30 3157 H 317.71 -0.315629 4.15102 0
M  V30 3158 H 318.243 1.33452 3.74747 0
M  V30 3159 H 314.982 3.93095 5.24554 0
M  V30 3160 H 314.502 2.24765 5.56094 0
M  V30 3161 H 316.181 2.76817 5.84792 0
M  V30 3162 N 316.313 -1.40141 0.720998 0
M  V30 3163 C 317.538 -2.05618 0.271258 0
M  V30 3164 C 317.963 -1.53978 -1.08039 0
M  V30 3165 O 317.321 -0.677463 -1.68167 0
M  V30 3166 C 317.369 -3.59609 0.267197 0
M  V30 3167 O 316.473 -4.05526 -0.749814 0
M  V30 3168 H 315.814 -0.651904 0.126162 0
M  V30 3169 H 318.344 -1.79439 0.982997 0
M  V30 3170 H 318.354 -4.0786 0.106744 0
M  V30 3171 H 317.029 -3.96559 1.25354 0
M  V30 3172 H 315.606 -3.68722 -0.556644 0
M  V30 3173 N 317.792 -0.46758 -1.50504 0
M  V30 3174 C 319.038 0.0808869 -2.03239 0
M  V30 3175 C 319.393 1.37721 -1.34353 0
M  V30 3176 O 318.686 1.86016 -0.459194 0
M  V30 3177 C 318.88 0.323995 -3.55928 0
M  V30 3178 C 318.709 -0.947215 -4.39611 0
M  V30 3179 C 317.479 -1.48951 -4.82848 0
M  V30 3180 C 319.677 -1.84166 -4.80195 0
M  V30 3181 N 317.659 -2.71011 -5.50842 0
M  V30 3182 C 319.03 -2.90815 -5.47564 0
M  V30 3183 C 321.085 -1.85246 -4.62156 0
M  V30 3184 C 319.788 -3.98529 -5.98805 0
M  V30 3185 C 321.814 -2.91914 -5.14335 0
M  V30 3186 C 321.176 -3.97282 -5.81676 0
M  V30 3187 H 317.275 -0.0103394 -0.781932 0
M  V30 3188 H 319.859 -0.635003 -1.84054 0
M  V30 3189 H 318.03 1.00892 -3.75067 0
M  V30 3190 H 319.762 0.866492 -3.95315 0
M  V30 3191 H 316.517 -1.03918 -4.62058 0
M  V30 3192 H 316.941 -3.32988 -5.89447 0
M  V30 3193 H 321.583 -1.05103 -4.09528 0
M  V30 3194 H 319.301 -4.79491 -6.50472 0
M  V30 3195 H 322.887 -2.93729 -5.0221 0
M  V30 3196 H 321.767 -4.78462 -6.21324 0
M  V30 3197 N 319.27 1.56325 -0.20005 0
M  V30 3198 C 320.2 2.22318 0.713916 0
M  V30 3199 C 321.181 1.18788 1.21752 0
M  V30 3200 O 322.366 1.47309 1.26545 0
M  V30 3201 C 319.496 2.88639 1.93144 0
M  V30 3202 C 318.45 3.98457 1.56255 0
M  V30 3203 C 317.776 4.51967 2.85709 0
M  V30 3204 C 319.076 5.16612 0.768747 0
M  V30 3205 H 320.77 2.98952 0.163755 0
M  V30 3206 H 318.316 1.43792 0.0773219 0
M  V30 3207 H 320.269 3.33491 2.57608 0
M  V30 3208 H 318.993 2.09419 2.50621 0
M  V30 3209 H 317.652 3.54305 0.941471 0
M  V30 3210 H 317.3 3.69503 3.41287 0
M  V30 3211 H 317 5.26071 2.6177 0
M  V30 3212 H 318.524 4.99523 3.51154 0
M  V30 3213 H 319.938 5.57977 1.3166 0
M  V30 3214 H 318.335 5.96812 0.627286 0
M  V30 3215 H 319.405 4.84358 -0.229168 0
M  V30 3216 N 320.748 -0.0735177 1.57428 0
M  V30 3217 C 321.976 -0.785969 1.9139 0
M  V30 3218 C 322.391 -1.71207 0.795847 0
M  V30 3219 O 321.748 -1.81033 -0.230915 0
M  V30 3220 C 321.799 -1.58107 3.25091 0
M  V30 3221 O 321.52 -0.6922 4.32597 0
M  V30 3222 C 323.021 -2.39467 3.73055 0
M  V30 3223 H 320.241 -0.223558 0.632663 0
M  V30 3224 H 322.785 -0.044302 2.04452 0
M  V30 3225 H 320.94 -2.27503 3.13562 0
M  V30 3226 H 321.354 -1.24504 5.09508 0
M  V30 3227 H 322.828 -2.90716 4.69242 0
M  V30 3228 H 323.305 -3.18913 3.01979 0
M  V30 3229 H 323.911 -1.7523 3.87523 0
M  V30 3230 N 322.226 -1.5378 -0.344866 0
M  V30 3231 C 323.474 -1.70625 -1.08311 0
M  V30 3232 C 323.795 -0.471447 -1.89215 0
M  V30 3233 O 323.065 0.514616 -1.8902 0
M  V30 3234 H 321.645 -0.629058 -0.402859 0
M  V30 3235 H 324.307 -1.9103 -0.386459 0
M  V30 3236 H 323.403 -2.57656 -1.76124 0
M  V30 3237 N 323.704 0.605807 -1.45491 0
M  V30 3238 C 324.614 1.74466 -1.56839 0
M  V30 3239 C 325.63 1.68006 -0.452772 0
M  V30 3240 O 326.806 1.8833 -0.713708 0
M  V30 3241 C 323.871 3.10931 -1.53371 0
M  V30 3242 C 322.932 3.28832 -2.75986 0
M  V30 3243 C 322.165 4.58787 -2.72673 0
M  V30 3244 O 322.388 5.4122 -1.80102 0
M  V30 3245 O 321.322 4.79438 -3.63899 0
M  V30 3246 H 325.148 1.67843 -2.53106 0
M  V30 3247 H 322.733 0.770108 -1.28022 0
M  V30 3248 H 324.615 3.92233 -1.54051 0
M  V30 3249 H 323.29 3.18042 -0.602572 0
M  V30 3250 H 322.197 2.47112 -2.80867 0
M  V30 3251 H 323.53 3.26599 -3.68231 0
M  V30 3252 N 325.182 1.32811 0.848464 0
M  V30 3253 C 326.092 1.24278 1.98978 0
M  V30 3254 C 327.108 0.155176 1.73307 0
M  V30 3255 O 328.284 0.376999 1.9784 0
M  V30 3256 C 325.349 0.972444 3.32783 0
M  V30 3257 C 324.41 2.14911 3.71634 0
M  V30 3258 C 323.643 1.89157 4.99054 0
M  V30 3259 O 323.866 0.837165 5.64223 0
M  V30 3260 O 322.8 2.75433 5.35183 0
M  V30 3261 H 326.626 2.20238 2.09115 0
M  V30 3262 H 324.211 1.12762 0.980052 0
M  V30 3263 H 326.093 0.838432 4.12975 0
M  V30 3264 H 324.768 0.043051 3.23671 0
M  V30 3265 H 323.675 2.33862 2.91992 0
M  V30 3266 H 325.008 3.06151 3.85399 0
M  V30 3267 N 326.66 -1.06551 1.16123 0
M  V30 3268 C 327.59 -2.15935 0.88851 0
M  V30 3269 C 328.571 -1.69306 -0.164135 0
M  V30 3270 O 329.756 -1.94193 -0.0167857 0
M  V30 3271 C 326.886 -3.45149 0.385942 0
M  V30 3272 C 325.84 -4.05271 1.3762 0
M  V30 3273 C 325.166 -5.29664 0.732137 0
M  V30 3274 C 326.466 -4.44355 2.74493 0
M  V30 3275 H 328.16 -2.39006 1.80323 0
M  V30 3276 H 325.706 -1.14866 0.868435 0
M  V30 3277 H 327.659 -4.21004 0.182647 0
M  V30 3278 H 326.383 -3.21689 -0.564274 0
M  V30 3279 H 325.042 -3.3147 1.56599 0
M  V30 3280 H 324.69 -5.02499 -0.224483 0
M  V30 3281 H 324.39 -5.70848 1.39307 0
M  V30 3282 H 325.914 -6.08218 0.538802 0
M  V30 3283 H 327.328 -5.11303 2.59311 0
M  V30 3284 H 325.725 -4.96515 3.37035 0
M  V30 3285 H 326.795 -3.55339 3.29943 0
M  V30 3286 N 328.138 -0.959301 -1.25041 0
M  V30 3287 C 329.088 -0.453888 -2.23436 0
M  V30 3288 C 330.072 0.459461 -1.542 0
M  V30 3289 O 331.264 0.291752 -1.74579 0
M  V30 3290 C 328.393 0.262667 -3.42294 0
M  V30 3291 C 327.479 -0.669022 -4.1879 0
M  V30 3292 N 327.87 -1.80267 -4.72586 0
M  V30 3293 C 326.168 -0.47814 -4.4343 0
M  V30 3294 C 326.869 -2.38475 -5.3057 0
M  V30 3295 N 325.845 -1.67078 -5.17287 0
M  V30 3296 H 329.647 -1.319 -2.6264 0
M  V30 3297 H 327.161 -0.817358 -1.40332 0
M  V30 3298 H 329.158 0.641911 -4.11929 0
M  V30 3299 H 327.818 1.12432 -3.04613 0
M  V30 3300 H 328.829 -2.18442 -4.69578 0
M  V30 3301 H 325.506 0.340249 -4.16111 0
M  V30 3302 H 326.896 -3.34094 -5.8295 0
M  V30 3303 N 329.616 1.39756 -0.72842 0
M  V30 3304 C 330.862 2.00942 -0.273892 0
M  V30 3305 C 331.195 1.57656 1.13394 0
M  V30 3306 O 330.47 0.802434 1.77176 0
M  V30 3307 C 330.753 3.58211 -0.368346 0
M  V30 3308 C 330.606 4.11534 -1.81548 0
M  V30 3309 C 331.925 4.39372 0.253054 0
M  V30 3310 H 329.044 0.730047 -0.100996 0
M  V30 3311 H 331.686 1.66056 -0.923337 0
M  V30 3312 H 329.836 3.88061 0.184588 0
M  V30 3313 H 331.508 3.92431 -2.42478 0
M  V30 3314 H 329.751 3.65341 -2.33898 0
M  V30 3315 H 330.422 5.20682 -1.83288 0
M  V30 3316 H 332.898 4.15527 -0.218224 0
M  V30 3317 H 331.774 5.48677 0.156585 0
M  V30 3318 H 332.035 4.21358 1.33826 0
M  V30 3319 N 331.094 0.475555 1.50254 0
M  V30 3320 C 332.004 -0.321501 2.32387 0
M  V30 3321 C 333.02 -0.991755 1.42969 0
M  V30 3322 O 334.196 -0.978747 1.76018 0
M  V30 3323 C 331.261 -1.38667 3.17762 0
M  V30 3324 C 330.322 -0.732538 4.23004 0
M  V30 3325 C 329.555 -1.74695 5.04299 0
M  V30 3326 O 329.778 -2.97399 4.86734 0
M  V30 3327 O 328.712 -1.31631 5.8733 0
M  V30 3328 H 332.538 0.350071 3.01676 0
M  V30 3329 H 330.123 0.237321 1.47503 0
M  V30 3330 H 332.005 -2.00354 3.70724 0
M  V30 3331 H 330.68 -2.04163 2.51196 0
M  V30 3332 H 329.587 -0.0765902 3.74022 0
M  V30 3333 H 330.92 -0.120452 4.92053 0
M  V30 3334 N 332.573 -1.56217 0.208337 0
M  V30 3335 C 333.819 -1.98242 -0.427552 0
M  V30 3336 C 334.152 -1.09554 -1.60348 0
M  V30 3337 O 333.427 -0.15035 -1.93918 0
M  V30 3338 C 333.71 -3.4931 -0.874907 0
M  V30 3339 C 333.563 -4.48773 0.303751 0
M  V30 3340 C 334.882 -4.04424 -1.73577 0
M  V30 3341 H 332.001 -0.720744 -0.153936 0
M  V30 3342 H 334.643 -1.87586 0.30192 0
M  V30 3343 H 332.793 -3.58522 -1.49648 0
M  V30 3344 H 334.465 -4.51586 0.941682 0
M  V30 3345 H 332.708 -4.23194 0.953375 0
M  V30 3346 H 333.379 -5.51976 -0.0519883 0
M  V30 3347 H 335.855 -3.98075 -1.21143 0
M  V30 3348 H 334.731 -5.1047 -2.01771 0
M  V30 3349 H 334.992 -3.50494 -2.69456 0
M  V30 3350 N 334.051 0.0651679 -1.57465 0
M  V30 3351 C 334.981 1.07693 -2.07182 0
M  V30 3352 C 335.962 1.39962 -0.966673 0
M  V30 3353 O 337.147 1.49475 -1.2398 0
M  V30 3354 C 334.277 2.3885 -2.52127 0
M  V30 3355 C 333.231 2.20917 -3.66579 0
M  V30 3356 C 332.557 3.57515 -3.97601 0
M  V30 3357 C 333.857 1.62493 -4.9638 0
M  V30 3358 H 335.551 0.663199 -2.91962 0
M  V30 3359 H 333.097 0.317569 -1.40455 0
M  V30 3360 H 335.05 3.09928 -2.85522 0
M  V30 3361 H 333.774 2.82215 -1.64384 0
M  V30 3362 H 332.433 1.52279 -3.33477 0
M  V30 3363 H 332.081 3.98463 -3.06979 0
M  V30 3364 H 331.781 3.46353 -4.74672 0
M  V30 3365 H 333.305 4.30013 -4.33499 0
M  V30 3366 H 334.719 2.23445 -5.27963 0
M  V30 3367 H 333.116 1.62009 -5.77818 0
M  V30 3368 H 334.186 0.587041 -4.81333 0
M  V30 3369 N 335.529 1.53961 0.336706 0
M  V30 3370 C 336.439 1.85432 1.43708 0
M  V30 3371 C 337.455 0.745053 1.57242 0
M  V30 3372 O 338.631 1.03804 1.72588 0
M  V30 3373 C 335.696 2.06349 2.78605 0
M  V30 3374 C 334.757 3.30191 2.74358 0
M  V30 3375 C 333.99 3.50101 4.02822 0
M  V30 3376 O 334.213 2.7371 5.00439 0
M  V30 3377 O 333.147 4.43547 4.06878 0
M  V30 3378 H 336.973 2.78975 1.20028 0
M  V30 3379 H 334.558 1.39701 0.52952 0
M  V30 3380 H 336.44 2.21513 3.58483 0
M  V30 3381 H 335.115 1.15995 3.02203 0
M  V30 3382 H 334.022 3.20425 1.93078 0
M  V30 3383 H 335.355 4.2056 2.55715 0
M  V30 3384 N 337.007 -0.598083 1.45811 0
M  V30 3385 C 337.955 -1.72932 1.55555 0
M  V30 3386 C 338.949 -1.63984 0.424921 0
M  V30 3387 O 340.155 -1.69663 0.601205 0
M  V30 3388 H 336.53 -0.571489 0.488779 0
M  V30 3389 H 338.501 -1.61842 2.50699 0
M  V30 3390 C 337.25 -3.11318 1.54843 0
M  V30 3391 H 336.573 -3.18867 2.41172 0
M  V30 3392 H 338.013 -3.90274 1.65717 0
M  V30 3393 C 336.472 -3.3578 0.274427 0
M  V30 3394 O 337.002 -3.9654 -0.641778 0
M  V30 3395 N 335.208 -2.90119 0.167139 0
M  V30 3396 H 334.755 -2.40855 0.913596 0
M  V30 3397 H 334.713 -3.0686 -0.684435 0
M  V30 3398 N 338.485 -1.33259 -0.841409 0
M  V30 3399 C 339.731 -1.24757 -1.59886 0
M  V30 3400 C 340.064 0.186913 -1.93298 0
M  V30 3401 O 339.339 1.12757 -1.5848 0
M  V30 3402 C 339.622 -2.12036 -2.91055 0
M  V30 3403 C 339.475 -3.63929 -2.6434 0
M  V30 3404 C 340.794 -1.9916 -3.92458 0
M  V30 3405 H 337.913 -0.454542 -0.580138 0
M  V30 3406 H 340.555 -1.63335 -0.970647 0
M  V30 3407 H 338.705 -1.79265 -3.44669 0
M  V30 3408 H 340.377 -4.06978 -2.17178 0
M  V30 3409 H 338.62 -3.85935 -1.98082 0
M  V30 3410 H 339.291 -4.20341 -3.57796 0
M  V30 3411 H 341.767 -2.27895 -3.48143 0
M  V30 3412 H 340.643 -2.62484 -4.82072 0
M  V30 3413 H 340.904 -0.963082 -4.31482 0
M  V30 3414 N 339.963 1.05934 -1.16686 0
M  V30 3415 C 341.374 1.60263 -0.957745 0
M  V30 3416 C 341.725 1.89789 0.49745 0
M  V30 3417 O 340.85 1.67401 1.37135 0
M  V30 3418 C 341.445 2.91172 -1.73218 0
M  V30 3419 C 340.004 3.42188 -1.56794 0
M  V30 3420 C 339.151 2.16028 -1.73859 0
M  V30 3421 H 342.102 0.888392 -1.31504 0
M  V30 3422 H 342.123 3.60744 -1.21014 0
M  V30 3423 H 341.635 2.6965 -2.79124 0
M  V30 3424 H 339.736 3.68762 -0.533437 0
M  V30 3425 H 339.849 4.17273 -2.35414 0
M  V30 3426 H 338.213 2.26426 -1.16633 0
M  V30 3427 H 338.996 1.96985 -2.81161 0
M  V30 3428 N 341.441 0.965919 1.2453 0
M  V30 3429 C 342.371 0.513476 2.27784 0
M  V30 3430 C 343.352 -0.445974 1.6415 0
M  V30 3431 O 344.537 -0.342485 1.91156 0
M  V30 3432 C 341.667 -0.198839 3.4673 0
M  V30 3433 C 340.621 0.676456 4.2262 0
M  V30 3434 C 339.947 -0.167248 5.34438 0
M  V30 3435 C 341.247 1.96017 4.84123 0
M  V30 3436 H 342.941 1.3765 2.65881 0
M  V30 3437 H 340.487 0.663321 1.27813 0
M  V30 3438 H 342.44 -0.526567 4.18097 0
M  V30 3439 H 341.164 -1.0962 3.07654 0
M  V30 3440 H 339.823 0.98743 3.53052 0
M  V30 3441 H 339.471 -1.0647 4.91603 0
M  V30 3442 H 339.171 0.415181 5.86131 0
M  V30 3443 H 340.695 -0.489688 6.08633 0
M  V30 3444 H 342.109 1.69814 5.47573 0
M  V30 3445 H 340.506 2.48918 5.4604 0
M  V30 3446 H 341.576 2.65622 4.05676 0
M  V30 3447 N 342.919 -1.39368 0.735821 0
M  V30 3448 C 344.147 -2.04795 0.294393 0
M  V30 3449 C 344.562 -1.55478 -1.07107 0
M  V30 3450 O 343.919 -0.720038 -1.67695 0
M  V30 3451 C 343.97 -3.6035 0.288071 0
M  V30 3452 O 343.691 -4.07852 1.59963 0
M  V30 3453 C 345.192 -4.42976 -0.169422 0
M  V30 3454 H 342.412 -0.658571 0.128551 0
M  V30 3455 H 344.956 -1.78399 0.999701 0
M  V30 3456 H 343.111 -3.85645 -0.368355 0
M  V30 3457 H 343.525 -5.02181 1.51375 0
M  V30 3458 H 344.999 -5.51864 -0.122687 0
M  V30 3459 H 345.476 -4.22068 -1.21472 0
M  V30 3460 H 346.082 -4.22832 0.457469 0
M  V30 3461 N 344.397 -0.483516 -1.5 0
M  V30 3462 C 345.625 0.0644831 -2.06799 0
M  V30 3463 C 346.04 1.32399 -1.34596 0
M  V30 3464 O 345.397 1.77626 -0.418946 0
M  V30 3465 C 345.448 0.339927 -3.59898 0
M  V30 3466 O 345.169 -0.869635 -4.29382 0
M  V30 3467 C 346.67 0.933515 -4.33359 0
M  V30 3468 H 343.89 -0.0126333 -0.670881 0
M  V30 3469 H 346.434 -0.675864 -1.93009 0
M  V30 3470 H 344.589 1.03022 -3.7345 0
M  V30 3471 H 345.003 -0.62179 -5.20801 0
M  V30 3472 H 346.477 1.07593 -5.41413 0
M  V30 3473 H 346.954 1.92685 -3.94676 0
M  V30 3474 H 347.56 0.281221 -4.24369 0
M  V30 3475 N 345.875 1.56104 -0.216619 0
M  V30 3476 C 346.825 2.16703 0.708798 0
M  V30 3477 C 347.809 1.11392 1.16106 0
M  V30 3478 O 349.001 1.37395 1.11587 0
M  V30 3479 C 346.13 2.84666 1.91886 0
M  V30 3480 C 345.216 3.97195 1.48651 0
M  V30 3481 N 345.607 4.99959 0.766434 0
M  V30 3482 C 343.905 4.09193 1.77418 0
M  V30 3483 C 344.606 5.79126 0.546659 0
M  V30 3484 N 343.582 5.32315 1.10188 0
M  V30 3485 H 347.384 2.93516 0.150162 0
M  V30 3486 H 344.898 1.6239 -0.0176768 0
M  V30 3487 H 346.895 3.26486 2.59253 0
M  V30 3488 H 345.555 2.09347 2.48202 0
M  V30 3489 H 346.566 5.16197 0.419634 0
M  V30 3490 H 343.243 3.45021 2.35088 0
M  V30 3491 H 344.633 6.71895 -0.026103 0
M  V30 3492 N 347.353 -0.0568162 1.57498 0
M  V30 3493 C 348.301 -1.08452 2.05769 0
M  V30 3494 C 349.295 -1.39164 0.965903 0
M  V30 3495 O 350.501 -1.38395 1.15095 0
M  V30 3496 H 346.876 -0.367148 0.656282 0
M  V30 3497 H 348.847 -0.651368 2.91204 0
M  V30 3498 C 347.596 -2.38543 2.52968 0
M  V30 3499 H 346.919 -2.15765 3.36579 0
M  V30 3500 H 348.359 -3.08863 2.90481 0
M  V30 3501 C 346.818 -3.05562 1.41893 0
M  V30 3502 O 347.348 -3.94262 0.769442 0
M  V30 3503 N 345.554 -2.6643 1.16032 0
M  V30 3504 H 345.101 -1.94387 1.6903 0
M  V30 3505 H 345.059 -3.11593 0.419219 0
M  V30 3506 N 348.832 -1.54138 -0.328536 0
M  V30 3507 C 350.079 -1.72105 -1.06706 0
M  V30 3508 C 350.407 -0.492111 -1.88171 0
M  V30 3509 O 349.662 0.526153 -1.88494 0
M  V30 3510 C 349.961 -2.9457 -2.02393 0
M  V30 3511 C 349.627 -4.29544 -1.37122 0
M  V30 3512 C 348.289 -4.6624 -1.19052 0
M  V30 3513 C 350.641 -5.1333 -0.902331 0
M  V30 3514 C 347.969 -5.84325 -0.527331 0
M  V30 3515 C 350.321 -6.32094 -0.252988 0
M  V30 3516 C 348.985 -6.67473 -0.0600901 0
M  V30 3517 H 348.255 -0.629775 -0.390466 0
M  V30 3518 H 350.902 -1.88372 -0.34473 0
M  V30 3519 H 349.207 -2.72969 -2.81061 0
M  V30 3520 H 350.904 -3.05665 -2.59557 0
M  V30 3521 H 347.494 -4.0067 -1.52188 0
M  V30 3522 H 351.678 -4.855 -1.02974 0
M  V30 3523 H 346.934 -6.103 -0.366634 0
M  V30 3524 H 351.108 -6.96299 0.118366 0
M  V30 3525 H 348.735 -7.58832 0.455828 0
M  V30 3526 N 350.31 0.590341 -1.46126 0
M  V30 3527 C 351.556 1.35082 -1.51264 0
M  V30 3528 C 351.889 1.93534 -0.160711 0
M  V30 3529 O 351.164 1.76045 0.826956 0
M  V30 3530 C 351.447 2.48588 -2.6053 0
M  V30 3531 C 351.3 1.95221 -4.05227 0
M  V30 3532 C 352.619 3.50662 -2.6594 0
M  V30 3533 H 349.738 0.489803 -0.550692 0
M  V30 3534 H 352.38 0.663887 -1.78024 0
M  V30 3535 H 350.53 3.07186 -2.37843 0
M  V30 3536 H 352.202 1.41139 -4.39178 0
M  V30 3537 H 350.445 1.26101 -4.15068 0
M  V30 3538 H 351.116 2.77121 -4.77397 0
M  V30 3539 H 353.592 3.01934 -2.86313 0
M  V30 3540 H 352.468 4.27551 -3.44226 0
M  V30 3541 H 352.729 4.07399 -1.71694 0
M  V30 3542 N 351.788 1.33704 0.83433 0
M  V30 3543 C 353.204 1.13137 1.12571 0
M  V30 3544 C 353.404 -0.0747261 2.01361 0
M  V30 3545 O 352.46 -0.753647 2.4099 0
M  V30 3546 C 353.773 2.42105 1.78342 0
M  V30 3547 C 355.321 2.48054 1.90888 0
M  V30 3548 C 355.796 3.76995 2.60075 0
M  V30 3549 N 357.287 3.78092 2.67584 0
M  V30 3550 C 358.022 4.74574 3.21818 0
M  V30 3551 N 357.518 5.81434 3.76705 0
M  V30 3552 N 359.311 4.62044 3.20112 0
M  V30 3553 H 351.462 2.11 0.243489 0
M  V30 3554 H 353.725 0.932532 0.17055 0
M  V30 3555 H 353.431 3.30391 1.20561 0
M  V30 3556 H 353.305 2.54594 2.7832 0
M  V30 3557 H 355.692 1.60215 2.47821 0
M  V30 3558 H 355.773 2.39502 0.898459 0
M  V30 3559 H 355.417 4.65219 2.03799 0
M  V30 3560 H 355.347 3.82825 3.61597 0
M  V30 3561 H 357.838 3.00865 2.28667 0
M  V30 3562 H 358.151 6.51084 4.16305 0
M  V30 3563 H 356.496 5.85163 3.7498 0
M  V30 3564 H 359.687 3.77716 2.76493 0
M  V30 3565 H 359.86 5.37406 3.62076 0
M  V30 3566 N 353.266 -1.05314 1.17247 0
M  V30 3567 C 354.213 -2.13031 0.888058 0
M  V30 3568 C 355.183 -1.65253 -0.167537 0
M  V30 3569 O 356.368 -1.90775 -0.0305974 0
M  V30 3570 C 353.508 -3.42702 0.406147 0
M  V30 3571 C 352.621 -4.04161 1.52572 0
M  V30 3572 C 351.756 -5.21744 0.997808 0
M  V30 3573 C 350.795 -5.75207 2.09291 0
M  V30 3574 N 349.932 -6.84094 1.57986 0
M  V30 3575 H 354.772 -2.36698 1.81048 0
M  V30 3576 H 352.309 -1.16121 0.903013 0
M  V30 3577 H 354.267 -4.17059 0.108305 0
M  V30 3578 H 352.897 -3.19222 -0.479313 0
M  V30 3579 H 351.949 -3.27253 1.93931 0
M  V30 3580 H 353.261 -4.39881 2.35172 0
M  V30 3581 H 352.415 -6.03168 0.653739 0
M  V30 3582 H 351.154 -4.87495 0.141232 0
M  V30 3583 H 350.159 -4.92414 2.44557 0
M  V30 3584 H 351.384 -6.11505 2.95362 0
M  V30 3585 H 349.33 -6.51745 0.74598 0
M  V30 3586 H 349.247 -7.18811 2.34195 0
M  V30 3587 H 350.515 -7.69172 1.26468 0
M  V30 3588 N 354.744 -0.972509 -1.24016 0
M  V30 3589 C 355.972 -0.654803 -1.96265 0
M  V30 3590 C 356.387 0.776708 -1.72083 0
M  V30 3591 O 355.744 1.52171 -1.00748 0
M  V30 3592 C 355.795 -0.92592 -3.49441 0
M  V30 3593 O 355.516 -2.30116 -3.72798 0
M  V30 3594 C 357.017 -0.623068 -4.38899 0
M  V30 3595 H 354.237 -0.243907 -0.6251 0
M  V30 3596 H 356.781 -1.30175 -1.57717 0
M  V30 3597 H 354.936 -0.325108 -3.86033 0
M  V30 3598 H 355.35 -2.38483 -4.67147 0
M  V30 3599 H 356.824 -0.863189 -5.45209 0
M  V30 3600 H 357.301 0.442754 -4.36963 0
M  V30 3601 H 357.907 -1.204 -4.07902 0
M  V30 3602 N 356.222 1.38976 -0.743202 0
M  V30 3603 C 357.469 2.00343 -0.294752 0
M  V30 3604 C 357.797 1.58983 1.12047 0
M  V30 3605 O 357.052 0.813809 1.77977 0
M  V30 3606 C 357.351 3.55647 -0.353517 0
M  V30 3607 C 357.017 4.16685 -1.72292 0
M  V30 3608 C 355.679 4.3307 -2.09771 0
M  V30 3609 C 358.031 4.50464 -2.62168 0
M  V30 3610 C 355.359 4.80526 -3.36618 0
M  V30 3611 C 357.711 4.99332 -3.88395 0
M  V30 3612 C 356.375 5.13924 -4.25956 0
M  V30 3613 H 355.645 0.733108 -0.107857 0
M  V30 3614 H 358.292 1.6618 -0.951651 0
M  V30 3615 H 356.597 3.89884 0.386954 0
M  V30 3616 H 358.294 4.00998 0.0117269 0
M  V30 3617 H 354.884 4.04339 -1.42155 0
M  V30 3618 H 359.068 4.37416 -2.3448 0
M  V30 3619 H 354.324 4.90008 -3.65653 0
M  V30 3620 H 358.498 5.2444 -4.58187 0
M  V30 3621 H 356.125 5.50457 -5.2431 0
M  V30 3622 N 357.7 0.491464 1.49741 0
M  V30 3623 C 358.947 -0.0564256 2.02421 0
M  V30 3624 C 359.275 -1.37872 1.37192 0
M  V30 3625 O 358.53 -1.89375 0.493508 0
M  V30 3626 C 358.829 -0.267329 3.56399 0
M  V30 3627 C 358.495 0.975775 4.40215 0
M  V30 3628 C 357.157 1.31655 4.62839 0
M  V30 3629 C 359.509 1.80251 4.89039 0
M  V30 3630 C 356.837 2.48375 5.31532 0
M  V30 3631 C 359.189 2.96116 5.59015 0
M  V30 3632 C 357.853 3.30585 5.79888 0
M  V30 3633 H 357.123 -0.0206476 0.740712 0
M  V30 3634 H 359.77 0.649686 1.80143 0
M  V30 3635 H 358.075 -1.05588 3.77304 0
M  V30 3636 H 359.772 -0.705549 3.94744 0
M  V30 3637 H 356.362 0.700315 4.2284 0
M  V30 3638 H 360.546 1.55239 4.71396 0
M  V30 3639 H 355.802 2.7533 5.45897 0
M  V30 3640 H 359.976 3.60509 5.95824 0
M  V30 3641 H 357.603 4.21132 6.32892 0
M  V30 3642 N 359.178 -1.55987 0.224894 0
M  V30 3643 C 360.406 -2.02784 -0.410665 0
M  V30 3644 C 360.821 -1.10464 -1.53112 0
M  V30 3645 O 360.178 -0.114871 -1.82138 0
M  V30 3646 C 360.229 -3.49087 -0.939165 0
M  V30 3647 O 359.95 -4.37887 0.136614 0
M  V30 3648 C 361.451 -4.11543 -1.64763 0
M  V30 3649 H 358.671 -0.663484 -0.100148 0
M  V30 3650 H 361.215 -2.01614 0.342326 0
M  V30 3651 H 359.37 -3.50861 -1.64242 0
M  V30 3652 H 359.784 -5.23849 -0.261155 0
M  V30 3653 H 361.258 -5.15673 -1.96939 0
M  V30 3654 H 361.735 -3.56736 -2.56195 0
M  V30 3655 H 362.341 -4.13629 -0.989503 0
M  V30 3656 N 360.656 0.0484629 -1.57525 0
M  V30 3657 C 361.586 1.0549 -2.08313 0
M  V30 3658 C 362.567 1.38929 -0.981463 0
M  V30 3659 O 363.752 1.48151 -1.25558 0
M  V30 3660 C 360.882 2.36162 -2.54646 0
M  V30 3661 C 359.836 2.17016 -3.68901 0
M  V30 3662 C 359.162 3.53278 -4.01371 0
M  V30 3663 C 360.462 1.57219 -4.98076 0
M  V30 3664 H 362.156 0.632195 -2.92649 0
M  V30 3665 H 359.702 0.302654 -1.40784 0
M  V30 3666 H 361.655 3.06882 -2.88793 0
M  V30 3667 H 360.379 2.80456 -1.67368 0
M  V30 3668 H 359.038 1.48733 -3.35073 0
M  V30 3669 H 358.686 3.95185 -3.11188 0
M  V30 3670 H 358.386 3.41299 -4.78318 0
M  V30 3671 H 359.91 4.25391 -4.38035 0
M  V30 3672 H 361.324 2.17832 -5.30304 0
M  V30 3673 H 359.721 1.55871 -5.79503 0
M  V30 3674 H 360.791 0.535956 -4.81929 0
M  V30 3675 N 362.134 1.5431 0.320358 0
M  V30 3676 C 363.097 1.83195 1.3774 0
M  V30 3677 C 364.097 0.703906 1.44575 0
M  V30 3678 O 365.287 0.972214 1.44546 0
M  V30 3679 C 362.419 1.99487 2.76438 0
M  V30 3680 H 363.612 2.77642 1.1338 0
M  V30 3681 H 361.165 1.46076 0.556012 0
M  V30 3682 H 361.9 1.07262 3.06048 0
M  V30 3683 H 361.685 2.81575 2.7287 0
M  V30 3684 H 363.175 2.23271 3.52902 0
M  V30 3685 N 363.613 -0.582584 1.46437 0
M  V30 3686 C 364.86 -1.34079 1.51753 0
M  V30 3687 C 365.188 -1.93762 0.169299 0
M  V30 3688 O 364.443 -1.76989 -0.835062 0
M  V30 3689 C 364.742 -2.48964 2.56421 0
M  V30 3690 C 364.408 -2.07273 4.00436 0
M  V30 3691 C 363.07 -1.95618 4.39644 0
M  V30 3692 C 365.422 -1.75111 4.90903 0
M  V30 3693 C 362.75 -1.5006 5.67185 0
M  V30 3694 C 365.102 -1.31032 6.18881 0
M  V30 3695 C 363.766 -1.17954 6.56996 0
M  V30 3696 H 363.036 -0.49063 0.555304 0
M  V30 3697 H 365.683 -0.656007 1.79913 0
M  V30 3698 H 363.988 -3.22889 2.21923 0
M  V30 3699 H 365.685 -3.07178 2.57765 0
M  V30 3700 H 362.275 -2.17279 3.69443 0
M  V30 3701 H 366.459 -1.83001 4.61329 0
M  V30 3702 H 361.715 -1.38577 5.95488 0
M  V30 3703 H 365.889 -1.052 6.88408 0
M  V30 3704 H 363.516 -0.824279 7.55718 0
M  V30 3705 N 365.091 -1.34144 -0.827227 0
M  V30 3706 C 366.331 -1.27603 -1.59677 0
M  V30 3707 C 366.695 0.153035 -1.91389 0
M  V30 3708 O 367.896 0.342566 -2.66608 0
M  V30 3709 C 366.167 -2.13784 -2.86411 0
M  V30 3710 S 367.726 -2.24552 -3.76991 0
M  V30 3711 H 364.544 -0.453789 -0.547354 0
M  V30 3712 H 367.146 -1.69309 -0.977479 0
M  V30 3713 H 365.85 -3.16627 -2.61104 0
M  V30 3714 H 365.381 -1.72959 -3.5334 0
M  V30 3715 H 367.396 -1.41514 -4.75593 0
M  V30 3716 N 366.569 1.04691 -1.17803 0
M  V30 3717 C 367.846 1.7472 -0.879328 0
M  V30 3718 C 368.226 2.01812 0.619271 0
M  V30 3719 O 367.574 1.65824 1.57209 0
M  V30 3720 C 367.784 3.03686 -1.71976 0
M  V30 3721 C 369.132 3.77542 -1.94286 0
M  V30 3722 O 370.156 3.13569 -1.68976 0
M  V30 3723 O 369.015 4.92506 -2.36855 0
M  V30 3724 H 366.109 0.760011 -0.326056 0
M  V30 3725 H 368.655 1.10813 -1.28525 0
M  V30 3726 H 367.427 2.79754 -2.73594 0
M  V30 3727 H 367.05 3.75332 -1.31194 0
M  V30 3728 N 368.047 0.979072 1.23499 0
M  V30 3729 C 369.294 0.647219 1.91878 0
M  V30 3730 C 369.622 -0.819074 1.76413 0
M  V30 3731 O 368.877 -1.60616 1.11808 0
M  V30 3732 C 369.176 0.981932 3.43646 0
M  V30 3733 C 368.842 2.43822 3.79291 0
M  V30 3734 C 367.504 2.83622 3.88731 0
M  V30 3735 C 369.856 3.3828 3.96505 0
M  V30 3736 C 367.184 4.16897 4.12812 0
M  V30 3737 C 369.536 4.71197 4.22085 0
M  V30 3738 C 368.2 5.10758 4.29747 0
M  V30 3739 H 367.47 0.236834 0.702133 0
M  V30 3740 H 370.117 1.23268 1.46551 0
M  V30 3741 H 368.422 0.314365 3.90537 0
M  V30 3742 H 370.119 0.703395 3.94783 0
M  V30 3743 H 366.709 2.11966 3.72516 0
M  V30 3744 H 370.893 3.0871 3.88603 0
M  V30 3745 H 366.149 4.47157 4.16966 0
M  V30 3746 H 370.323 5.44348 4.34348 0
M  V30 3747 H 367.95 6.1405 4.48159 0
M  V30 3748 N 369.525 -1.3858 0.750561 0
M  V30 3749 C 370.765 -2.02032 0.310258 0
M  V30 3750 C 371.129 -1.58288 -1.08668 0
M  V30 3751 O 372.33 -2.14049 -1.62593 0
M  V30 3752 C 370.601 -3.54856 0.425647 0
M  V30 3753 S 372.16 -4.38748 0.0674797 0
M  V30 3754 H 368.978 -0.700705 0.120554 0
M  V30 3755 H 371.58 -1.69134 0.980512 0
M  V30 3756 H 370.284 -3.84182 1.44335 0
M  V30 3757 H 369.815 -3.92527 -0.261894 0
M  V30 3758 H 371.83 -4.82835 -1.14388 0
M  V30 3759 N 371.003 -0.499398 -1.49478 0
M  V30 3760 C 372.419 -0.155261 -1.58843 0
M  V30 3761 C 372.619 1.34008 -1.50479 0
M  V30 3762 O 371.675 2.11589 -1.37791 0
M  V30 3763 C 372.988 -0.730636 -2.91689 0
M  V30 3764 C 374.536 -0.696599 -3.0515 0
M  V30 3765 C 375.011 -1.25001 -4.40612 0
M  V30 3766 N 376.502 -1.21064 -4.47099 0
M  V30 3767 C 377.237 -1.60905 -5.50361 0
M  V30 3768 N 376.733 -2.08331 -6.60735 0
M  V30 3769 N 378.526 -1.52331 -5.41065 0
M  V30 3770 H 370.677 -1.47162 -1.53158 0
M  V30 3771 H 372.94 -0.610309 -0.725415 0
M  V30 3772 H 372.646 -1.77928 -3.03372 0
M  V30 3773 H 372.52 -0.190161 -3.7672 0
M  V30 3774 H 374.907 0.343204 -2.93097 0
M  V30 3775 H 374.988 -1.2742 -2.21806 0
M  V30 3776 H 374.632 -2.28859 -4.53416 0
M  V30 3777 H 374.562 -0.64836 -5.22593 0
M  V30 3778 H 377.053 -0.863128 -3.67911 0
M  V30 3779 H 377.366 -2.36805 -7.35624 0
M  V30 3780 H 375.711 -2.12304 -6.6178 0
M  V30 3781 H 378.902 -1.151 -4.53729 0
M  V30 3782 H 379.075 -1.83704 -6.21415 0
M  V30 3783 N 372.481 1.55866 -0.233164 0
M  V30 3784 C 373.428 2.20796 0.67215 0
M  V30 3785 C 374.398 1.16731 1.18166 0
M  V30 3786 O 375.583 1.45129 1.23864 0
M  V30 3787 C 372.723 2.90072 1.86955 0
M  V30 3788 C 371.836 4.08759 1.39786 0
M  V30 3789 C 370.971 4.65787 2.55374 0
M  V30 3790 C 370.01 5.76752 2.04998 0
M  V30 3791 N 369.147 6.28021 3.13901 0
M  V30 3792 H 373.987 2.9779 0.111749 0
M  V30 3793 H 371.524 1.47036 0.0434007 0
M  V30 3794 H 373.482 3.28428 2.57276 0
M  V30 3795 H 372.112 2.15575 2.40265 0
M  V30 3796 H 371.164 3.7581 0.589173 0
M  V30 3797 H 372.476 4.88906 0.98856 0
M  V30 3798 H 371.63 5.06646 3.33758 0
M  V30 3799 H 370.369 3.84828 2.99598 0
M  V30 3800 H 369.374 5.35383 1.25079 0
M  V30 3801 H 370.599 6.59553 1.61759 0
M  V30 3802 H 368.545 5.49971 3.57586 0
M  V30 3803 H 368.462 7.03323 2.7726 0
M  V30 3804 H 369.73 6.73538 3.92386 0
M  V30 3805 N 373.959 -0.0401083 1.57549 0
M  V30 3806 C 374.889 -1.04384 2.08869 0
M  V30 3807 C 375.87 -1.38407 0.988817 0
M  V30 3808 O 377.055 -1.47483 1.26342 0
M  V30 3809 C 374.185 -2.34808 2.55895 0
M  V30 3810 C 373.139 -2.15057 3.70047 0
M  V30 3811 C 372.465 -3.51145 4.03239 0
M  V30 3812 C 373.765 -1.54576 4.98902 0
M  V30 3813 H 375.459 -0.616666 2.92981 0
M  V30 3814 H 373.005 -0.295184 1.40942 0
M  V30 3815 H 374.958 -3.05346 2.90417 0
M  V30 3816 H 373.682 -2.79565 1.68853 0
M  V30 3817 H 372.341 -1.46954 3.35857 0
M  V30 3818 H 371.989 -3.93529 3.13279 0
M  V30 3819 H 371.689 -3.38758 4.80122 0
M  V30 3820 H 373.213 -4.23062 4.40285 0
M  V30 3821 H 374.627 -2.15017 5.31451 0
M  V30 3822 H 373.024 -1.52796 5.80322 0
M  V30 3823 H 374.094 -0.51039 4.82206 0
M  V30 3824 N 375.437 -1.54477 -0.31217 0
M  V30 3825 C 376.367 -1.87652 -1.38957 0
M  V30 3826 C 377.348 -0.734358 -1.53431 0
M  V30 3827 O 378.533 -0.98911 -1.67123 0
M  V30 3828 C 375.663 -2.11396 -2.75552 0
M  V30 3829 C 374.617 -3.27243 -2.75855 0
M  V30 3830 C 373.943 -3.36382 -4.15633 0
M  V30 3831 C 375.243 -4.64622 -2.38587 0
M  V30 3832 H 376.937 -2.77887 -1.11442 0
M  V30 3833 H 374.483 -1.33707 -0.534655 0
M  V30 3834 H 376.436 -2.33189 -3.51 0
M  V30 3835 H 375.16 -1.17921 -3.04569 0
M  V30 3836 H 373.819 -3.05356 -2.02863 0
M  V30 3837 H 373.467 -2.40445 -4.41809 0
M  V30 3838 H 373.167 -4.14249 -4.1674 0
M  V30 3839 H 374.691 -3.60422 -4.92877 0
M  V30 3840 H 376.105 -4.86219 -3.03749 0
M  V30 3841 H 374.502 -5.45121 -2.50925 0
M  V30 3842 H 375.572 -4.66097 -1.33723 0
M  V30 3843 N 376.915 0.57481 -1.46744 0
M  V30 3844 C 378.162 1.33272 -1.52462 0
M  V30 3845 C 378.49 1.93669 -0.179572 0
M  V30 3846 O 377.745 1.7743 0.825664 0
M  V30 3847 C 378.044 2.476 -2.57738 0
M  V30 3848 C 377.71 2.05146 -4.01529 0
M  V30 3849 C 376.372 1.93284 -4.40676 0
M  V30 3850 C 378.724 1.72506 -4.91824 0
M  V30 3851 C 376.052 1.47049 -5.67973 0
M  V30 3852 C 378.404 1.27748 -6.19567 0
M  V30 3853 C 377.068 1.14468 -6.57612 0
M  V30 3854 H 376.338 0.487678 -0.557899 0
M  V30 3855 H 378.985 0.646456 -1.80259 0
M  V30 3856 H 377.29 3.21708 -2.23632 0
M  V30 3857 H 378.987 3.05807 -2.5939 0
M  V30 3858 H 375.577 2.15316 -3.7059 0
M  V30 3859 H 379.761 1.80552 -4.62293 0
M  V30 3860 H 375.017 1.35417 -5.96215 0
M  V30 3861 H 379.191 1.01547 -6.88957 0
M  V30 3862 H 376.818 0.78419 -7.56145 0
M  V30 3863 N 378.394 1.34581 0.820102 0
M  V30 3864 C 379.326 1.22236 1.93884 0
M  V30 3865 C 380.339 0.148776 1.62119 0
M  V30 3866 O 381.528 0.400877 1.7394 0
M  V30 3867 C 378.628 0.856542 3.27897 0
M  V30 3868 C 377.801 2.02569 3.87666 0
M  V30 3869 C 376.86 1.63782 5.00062 0
M  V30 3870 O 375.886 2.35477 5.18208 0
M  V30 3871 N 377.088 0.553611 5.77854 0
M  V30 3872 H 379.853 2.18615 2.05006 0
M  V30 3873 H 377.414 1.27573 0.99683 0
M  V30 3874 H 379.406 0.578806 4.0054 0
M  V30 3875 H 377.976 -0.0171518 3.12595 0
M  V30 3876 H 377.196 2.468 3.07382 0
M  V30 3877 H 378.484 2.80752 4.24329 0
M  V30 3878 H 377.882 -0.0423528 5.65684 0
M  V30 3879 H 376.439 0.335614 6.50935 0
M  V30 3880 N 379.872 -1.04064 1.18357 0
M  V30 3881 C 381.12 -1.76915 0.977013 0
M  V30 3882 C 381.441 -1.88624 -0.494577 0
M  V30 3883 O 380.711 -1.41125 -1.3587 0
M  V30 3884 H 379.291 -0.65535 0.358504 0
M  V30 3885 H 381.953 -1.25592 1.49039 0
M  V30 3886 H 381.049 -2.78178 1.41504 0
M  V30 3887 N 381.35 -0.985608 -1.22978 0
M  V30 3888 C 382.597 -0.657386 -1.91532 0
M  V30 3889 C 382.925 0.809707 -1.76845 0
M  V30 3890 O 382.18 1.60021 -1.12658 0
M  V30 3891 C 382.479 -1.00014 -3.43121 0
M  V30 3892 C 382.145 -2.4583 -3.77993 0
M  V30 3893 C 380.807 -2.85679 -3.87222 0
M  V30 3894 C 383.159 -3.40378 -3.94705 0
M  V30 3895 C 380.487 -4.19081 -4.10595 0
M  V30 3896 C 382.839 -4.73429 -4.1958 0
M  V30 3897 C 381.503 -5.1303 -4.27032 0
M  V30 3898 H 380.773 -0.240555 -0.700867 0
M  V30 3899 H 383.42 -1.24044 -1.45895 0
M  V30 3900 H 381.725 -0.335072 -3.90365 0
M  V30 3901 H 383.422 -0.724322 -3.94404 0
M  V30 3902 H 380.012 -2.13939 -3.71387 0
M  V30 3903 H 384.196 -3.10766 -3.8696 0
M  V30 3904 H 379.452 -4.49362 -4.14589 0
M  V30 3905 H 383.626 -5.46644 -4.31455 0
M  V30 3906 H 381.253 -6.16418 -4.44896 0
M  V30 3907 N 382.828 1.3818 -0.7579 0
M  V30 3908 C 384.244 1.5353 -0.435972 0
M  V30 3909 C 384.444 1.71961 1.05032 0
M  V30 3910 O 383.5 1.73307 1.83633 0
M  V30 3911 C 384.813 2.73989 -1.23898 0
M  V30 3912 C 386.361 2.87841 -1.22949 0
M  V30 3913 C 386.836 4.11266 -2.01554 0
M  V30 3914 N 388.327 4.18352 -1.98837 0
M  V30 3915 C 389.062 5.12856 -2.5645 0
M  V30 3916 N 388.558 6.13005 -3.22794 0
M  V30 3917 N 390.351 5.05238 -2.46356 0
M  V30 3918 H 382.502 1.24467 -1.7211 0
M  V30 3919 H 384.765 0.604982 -0.729864 0
M  V30 3920 H 384.471 2.66789 -2.29165 0
M  V30 3921 H 384.345 3.67294 -0.858764 0
M  V30 3922 H 386.732 2.9452 -0.184854 0
M  V30 3923 H 386.813 1.95534 -1.64924 0
M  V30 3924 H 386.457 4.05349 -3.06031 0
M  V30 3925 H 386.387 5.02661 -1.5697 0
M  V30 3926 H 388.878 3.46628 -1.50524 0
M  V30 3927 H 389.191 6.81619 -3.64165 0
M  V30 3928 H 387.536 6.13325 -3.2689 0
M  V30 3929 H 390.727 4.25938 -1.9415 0
M  V30 3930 H 390.9 5.78707 -2.91552 0
M  V30 3931 N 384.306 0.507319 1.49211 0
M  V30 3932 C 385.546 -0.0332372 2.04373 0
M  V30 3933 C 385.91 -1.33694 1.37804 0
M  V30 3934 O 387.111 -1.96213 1.83722 0
M  V30 3935 C 385.382 -0.17599 3.56966 0
M  V30 3936 S 386.941 -0.669882 4.33657 0
M  V30 3937 H 383.759 0.00123603 0.710999 0
M  V30 3938 H 386.361 0.682725 1.83191 0
M  V30 3939 H 385.065 0.778053 4.02957 0
M  V30 3940 H 384.596 -0.917005 3.82563 0
M  V30 3941 H 386.611 -1.93806 4.56786 0
M  V30 3942 N 385.784 -1.5574 0.241426 0
M  V30 3943 C 386.716 -2.18469 -0.693091 0
M  V30 3944 C 387.729 -1.15942 -1.14286 0
M  V30 3945 O 388.918 -1.42832 -1.07058 0
M  V30 3946 C 386.018 -2.7696 -1.95311 0
M  V30 3947 C 385.191 -4.04853 -1.65568 0
M  V30 3948 C 384.25 -4.47715 -2.76474 0
M  V30 3949 O 383.276 -5.14205 -2.44094 0
M  V30 3950 N 384.478 -4.15044 -4.05855 0
M  V30 3951 H 387.243 -2.99292 -0.156388 0
M  V30 3952 H 384.804 -1.61784 0.0611752 0
M  V30 3953 H 386.796 -3.02594 -2.68736 0
M  V30 3954 H 385.366 -2.00326 -2.39975 0
M  V30 3955 H 384.586 -3.86865 -0.756886 0
M  V30 3956 H 385.874 -4.88246 -1.43153 0
M  V30 3957 H 385.272 -3.61654 -4.34998 0
M  V30 3958 H 383.829 -4.45526 -4.75762 0
M  V30 3959 N 387.262 0.0317525 -1.57568 0
M  V30 3960 C 388.49 0.734949 -1.93407 0
M  V30 3961 C 388.905 1.69036 -0.84096 0
M  V30 3962 O 388.262 1.81582 0.182836 0
M  V30 3963 C 388.313 1.49432 -3.29169 0
M  V30 3964 O 388.034 0.577261 -4.3428 0
M  V30 3965 C 389.535 2.29492 -3.79273 0
M  V30 3966 H 386.755 0.206706 -0.638368 0
M  V30 3967 H 389.299 -0.00992046 -2.04498 0
M  V30 3968 H 387.454 2.1911 -3.19483 0
M  V30 3969 H 387.868 1.10952 -5.1263 0
M  V30 3970 H 389.342 2.78172 -4.76785 0
M  V30 3971 H 389.819 3.10794 -3.10328 0
M  V30 3972 H 390.425 1.64894 -3.92033 0
M  V30 3973 N 388.74 1.54641 0.303973 0
M  V30 3974 C 389.98 1.75516 1.04755 0
M  V30 3975 C 390.344 0.528211 1.84591 0
M  V30 3976 O 391.545 0.614645 2.61678 0
M  V30 3977 C 389.816 3.00685 1.93193 0
M  V30 3978 S 391.375 3.42549 2.74237 0
M  V30 3979 H 388.193 0.616987 0.353339 0
M  V30 3980 H 390.795 1.92842 0.321292 0
M  V30 3981 H 389.499 3.8811 1.33411 0
M  V30 3982 H 389.03 2.85937 2.70191 0
M  V30 3983 H 391.045 2.99386 3.95705 0
M  V30 3984 N 390.218 -0.567019 1.47046 0
M  V30 3985 C 391.466 -1.322 1.52864 0
M  V30 3986 C 391.787 -1.94088 0.188388 0
M  V30 3987 O 391.057 -1.7941 -0.786693 0
M  V30 3988 H 389.637 -0.490894 0.563056 0
M  V30 3989 H 392.299 -0.662879 1.83281 0
M  V30 3990 H 391.395 -2.12062 2.2899 0
M  V30 3991 N 391.696 -1.35014 -0.812953 0
M  V30 3992 C 392.926 -1.30841 -1.59888 0
M  V30 3993 C 393.334 0.117576 -1.88834 0
M  V30 3994 O 392.677 1.07807 -1.48739 0
M  V30 3995 C 392.739 -2.0412 -2.95931 0
M  V30 3996 C 392.403 -3.53336 -2.89832 0
M  V30 3997 C 393.4 -4.48052 -2.63714 0
M  V30 3998 C 391.085 -3.95894 -3.0915 0
M  V30 3999 C 393.079 -5.833 -2.56982 0
M  V30 4000 C 390.766 -5.31239 -3.0204 0
M  V30 4001 C 391.764 -6.24754 -2.75991 0
M  V30 4002 O 391.452 -7.57617 -2.68833 0
M  V30 4003 H 391.184 -0.451215 -0.50337 0
M  V30 4004 H 393.738 -1.78354 -1.01877 0
M  V30 4005 H 391.968 -1.51235 -3.559 0
M  V30 4006 H 393.657 -1.93107 -3.57022 0
M  V30 4007 H 394.423 -4.16492 -2.48515 0
M  V30 4008 H 390.302 -3.23495 -3.28438 0
M  V30 4009 H 393.846 -6.56263 -2.36569 0
M  V30 4010 H 389.743 -5.62415 -3.16796 0
M  V30 4011 H 390.511 -7.67469 -2.84487 0
M  V30 4012 N 393.175 1.03435 -1.18907 0
M  V30 4013 C 394.122 2.11591 -0.921837 0
M  V30 4014 C 395.092 1.65499 0.141226 0
M  V30 4015 O 396.277 1.908 0.000242829 0
M  V30 4016 C 393.417 3.42012 -0.460616 0
M  V30 4017 C 392.53 4.01682 -1.58982 0
M  V30 4018 C 391.665 5.20091 -1.08069 0
M  V30 4019 C 390.704 5.71805 -2.18416 0
M  V30 4020 N 389.841 6.81494 -1.68849 0
M  V30 4021 H 394.681 2.33787 -1.8479 0
M  V30 4022 H 392.218 1.1467 -0.921373 0
M  V30 4023 H 394.176 4.16834 -0.174642 0
M  V30 4024 H 392.806 3.19944 0.428467 0
M  V30 4025 H 391.858 3.24127 -1.99113 0
M  V30 4026 H 393.17 4.36084 -2.4214 0
M  V30 4027 H 392.324 6.02051 -0.749615 0
M  V30 4028 H 391.063 4.87209 -0.218771 0
M  V30 4029 H 390.068 4.88461 -2.5236 0
M  V30 4030 H 391.293 6.06728 -3.05054 0
M  V30 4031 H 389.239 6.50475 -0.849572 0
M  V30 4032 H 389.156 7.14994 -2.45601 0
M  V30 4033 H 390.424 7.67063 -1.38689 0
M  V30 4034 N 394.653 0.992116 1.22453 0
M  V30 4035 C 395.9 0.667534 1.91181 0
M  V30 4036 C 396.228 -0.800317 1.77271 0
M  V30 4037 O 395.483 -1.59421 1.13505 0
M  V30 4038 C 395.782 1.01832 3.42586 0
M  V30 4039 C 395.448 2.47831 3.76684 0
M  V30 4040 C 394.11 2.87729 3.85701 0
M  V30 4041 C 396.462 3.42466 3.92895 0
M  V30 4042 C 393.79 4.21252 4.08367 0
M  V30 4043 C 396.142 4.75648 4.17064 0
M  V30 4044 C 394.806 5.15288 4.24305 0
M  V30 4045 H 394.076 0.244268 0.699581 0
M  V30 4046 H 396.723 1.24816 1.45235 0
M  V30 4047 H 395.028 0.355769 3.90181 0
M  V30 4048 H 396.725 0.745228 3.94014 0
M  V30 4049 H 393.315 2.15905 3.70247 0
M  V30 4050 H 397.499 3.12814 3.85307 0
M  V30 4051 H 392.755 4.51554 4.122 0
M  V30 4052 H 396.929 5.48924 4.2855 0
M  V30 4053 H 394.556 6.18769 4.41621 0
M  V30 4054 N 396.131 -1.37776 0.765217 0
M  V30 4055 C 397.081 -2.2768 0.12075 0
M  V30 4056 C 398.065 -1.45778 -0.680988 0
M  V30 4057 O 399.257 -1.684 -0.545033 0
M  V30 4058 C 396.386 -3.34722 -0.762626 0
M  V30 4059 C 395.472 -4.24074 0.0465881 0
M  V30 4060 N 395.863 -4.93939 1.08892 0
M  V30 4061 C 394.161 -4.45643 -0.178418 0
M  V30 4062 C 394.862 -5.59845 1.57951 0
M  V30 4063 N 393.838 -5.36218 0.892797 0
M  V30 4064 H 397.64 -2.79166 0.918889 0
M  V30 4065 H 395.154 -1.50816 0.602353 0
M  V30 4066 H 397.151 -3.98031 -1.24005 0
M  V30 4067 H 395.811 -2.84793 -1.55959 0
M  V30 4068 H 396.822 -4.96572 1.47095 0
M  V30 4069 H 393.499 -4.06599 -0.9478 0
M  V30 4070 H 394.889 -6.25703 2.44838 0
M  V30 4071 N 397.609 -0.515225 -1.4894 0
M  V30 4072 C 398.541 0.292481 -2.27326 0
M  V30 4073 C 399.554 0.917838 -1.3446 0
M  V30 4074 O 400.743 0.798772 -1.5963 0
M  V30 4075 C 397.843 1.42803 -3.07344 0
M  V30 4076 C 397.016 0.907347 -4.27885 0
M  V30 4077 C 396.075 1.92222 -4.89834 0
M  V30 4078 O 395.101 1.48506 -5.49486 0
M  V30 4079 N 396.303 3.25355 -4.80754 0
M  V30 4080 H 399.068 -0.379721 -2.97285 0
M  V30 4081 H 396.629 -0.348638 -1.58102 0
M  V30 4082 H 398.621 2.10481 -3.45658 0
M  V30 4083 H 397.191 2.00414 -2.39902 0
M  V30 4084 H 396.411 0.0550218 -3.94162 0
M  V30 4085 H 397.699 0.538108 -5.05946 0
M  V30 4086 H 397.097 3.6355 -4.33414 0
M  V30 4087 H 395.654 3.88707 -5.23211 0
M  V30 4088 N 399.087 1.5561 -0.249682 0
M  V30 4089 C 400.503 1.59254 0.105103 0
M  V30 4090 C 400.703 1.26685 1.56694 0
M  V30 4091 O 399.759 1.0155 2.31179 0
M  V30 4092 C 401.072 2.99687 -0.246592 0
M  V30 4093 C 402.62 3.12416 -0.191118 0
M  V30 4094 C 403.095 4.55074 -0.516885 0
M  V30 4095 N 404.586 4.60835 -0.467489 0
M  V30 4096 C 405.321 5.69201 -0.69268 0
M  V30 4097 N 404.817 6.85817 -0.981146 0
M  V30 4098 N 406.61 5.58635 -0.623198 0
M  V30 4099 H 398.761 1.75049 -1.20298 0
M  V30 4100 H 401.024 0.815003 -0.484225 0
M  V30 4101 H 400.73 3.28267 -1.26228 0
M  V30 4102 H 400.604 3.74798 0.424962 0
M  V30 4103 H 402.991 2.83615 0.815247 0
M  V30 4104 H 403.072 2.39573 -0.896563 0
M  V30 4105 H 402.716 4.84596 -1.52082 0
M  V30 4106 H 402.646 5.26181 0.210068 0
M  V30 4107 H 405.137 3.7705 -0.253373 0
M  V30 4108 H 405.45 7.64341 -1.14032 0
M  V30 4109 H 403.795 6.87494 -1.01865 0
M  V30 4110 H 406.986 4.66406 -0.397863 0
M  V30 4111 H 407.159 6.43017 -0.802093 0
M  V30 4112 N 400.565 -0.0233959 1.57583 0
M  V30 4113 C 401.805 -0.71784 1.9138 0
M  V30 4114 C 402.169 -1.72216 0.848853 0
M  V30 4115 O 403.37 -2.46527 1.07134 0
M  V30 4116 C 401.641 -1.36489 3.30311 0
M  V30 4117 S 403.2 -2.0877 3.85954 0
M  V30 4118 H 400.018 -0.237676 0.670098 0
M  V30 4119 H 402.62 0.0276709 1.9548 0
M  V30 4120 H 401.324 -0.620782 4.05678 0
M  V30 4121 H 400.855 -2.14883 3.29528 0
M  V30 4122 H 402.87 -3.35988 3.65139 0
M  V30 4123 N 402.043 -1.548 -0.295768 0
M  V30 4124 C 403.268 -1.78653 -1.05346 0
M  V30 4125 C 403.693 -0.546894 -1.79974 0
M  V30 4126 O 403.051 0.502763 -1.7419 0
M  V30 4127 C 403.099 -2.99679 -2.00561 0
M  V30 4128 O 402.203 -2.7317 -3.08953 0
M  V30 4129 H 401.544 -0.59116 -0.302367 0
M  V30 4130 H 404.074 -2.01895 -0.331598 0
M  V30 4131 H 404.084 -3.27793 -2.42932 0
M  V30 4132 H 402.759 -3.89562 -1.4565 0
M  V30 4133 H 401.336 -2.56089 -2.71059 0
M  V30 4134 N 403.521 0.559213 -1.47345 0
M  V30 4135 C 404.749 1.34194 -1.57479 0
M  V30 4136 C 405.164 1.87463 -0.224261 0
M  V30 4137 O 404.521 1.64888 0.782185 0
M  V30 4138 C 404.572 2.51324 -2.59843 0
M  V30 4139 O 404.293 2.00256 -3.89653 0
M  V30 4140 C 405.794 3.43563 -2.80142 0
M  V30 4141 H 403.014 0.409136 -0.531835 0
M  V30 4142 H 405.558 0.677609 -1.92947 0
M  V30 4143 H 403.713 3.13699 -2.27314 0
M  V30 4144 H 404.127 2.76708 -4.4557 0
M  V30 4145 H 405.601 4.2217 -3.55635 0
M  V30 4146 H 406.078 3.9698 -1.87892 0
M  V30 4147 H 406.684 2.87005 -3.1386 0
M  V30 4148 N 404.999 1.35443 0.805782 0
M  V30 4149 C 405.909 1.30546 1.94923 0
M  V30 4150 C 406.925 0.210233 1.72725 0
M  V30 4151 O 408.101 0.43975 1.9654 0
M  V30 4152 C 405.166 1.07782 3.29521 0
M  V30 4153 C 404.227 2.26625 3.64609 0
M  V30 4154 C 403.46 2.04938 4.92784 0
M  V30 4155 O 403.683 1.01624 5.61274 0
M  V30 4156 O 402.617 2.9232 5.26149 0
M  V30 4157 H 406.443 2.26779 2.02002 0
M  V30 4158 H 404.028 1.15823 0.943682 0
M  V30 4159 H 405.91 0.969392 4.10098 0
M  V30 4160 H 404.585 0.146003 3.23371 0
M  V30 4161 H 403.492 2.43033 2.84404 0
M  V30 4162 H 404.825 3.18257 3.75464 0
M  V30 4163 N 406.477 -1.02803 1.19454 0
M  V30 4164 C 407.723 -1.76478 0.999171 0
M  V30 4165 C 408.056 -1.88456 -0.468828 0
M  V30 4166 O 407.331 -1.40198 -1.34814 0
M  V30 4167 C 407.614 -3.19044 1.66981 0
M  V30 4168 C 407.467 -3.14932 3.21151 0
M  V30 4169 C 408.786 -4.17456 1.39349 0
M  V30 4170 H 405.905 -0.640614 0.364393 0
M  V30 4171 H 408.547 -1.20005 1.47305 0
M  V30 4172 H 406.697 -3.67263 1.2669 0
M  V30 4173 H 408.369 -2.74605 3.70661 0
M  V30 4174 H 406.612 -2.52625 3.52652 0
M  V30 4175 H 407.283 -4.1566 3.63223 0
M  V30 4176 H 409.759 -3.77842 1.74283 0
M  V30 4177 H 408.635 -5.154 1.88823 0
M  V30 4178 H 408.896 -4.40949 0.318813 0
M  V30 4179 N 407.956 -0.998596 -1.21925 0
M  V30 4180 C 409.367 -0.711939 -1.72593 0
M  V30 4181 C 409.718 0.770842 -1.80423 0
M  V30 4182 O 408.843 1.60237 -1.4544 0
M  V30 4183 C 409.438 -1.28567 -3.13458 0
M  V30 4184 C 407.997 -1.04828 -3.61508 0
M  V30 4185 C 407.144 -1.4024 -2.39224 0
M  V30 4186 H 410.095 -1.17027 -1.07193 0
M  V30 4187 H 410.116 -0.667098 -3.74607 0
M  V30 4188 H 409.628 -2.36486 -3.07727 0
M  V30 4189 H 407.729 0.0140383 -3.72597 0
M  V30 4190 H 407.842 -1.71566 -4.47328 0
M  V30 4191 H 406.206 -0.821077 -2.41103 0
M  V30 4192 H 406.989 -2.49176 -2.36149 0
M  V30 4193 N 409.434 1.37368 -0.772513 0
M  V30 4194 C 410.364 2.32856 -0.173304 0
M  V30 4195 C 411.345 1.55818 0.682262 0
M  V30 4196 O 412.53 1.84052 0.619566 0
M  V30 4197 C 409.66 3.40048 0.706007 0
M  V30 4198 C 408.614 4.27973 -0.0483144 0
M  V30 4199 C 407.94 5.26184 0.950491 0
M  V30 4200 C 409.24 5.07665 -1.22776 0
M  V30 4201 H 410.934 2.83217 -0.971002 0
M  V30 4202 H 408.48 1.3617 -0.468377 0
M  V30 4203 H 410.433 4.05827 1.13501 0
M  V30 4204 H 409.157 2.88214 1.53623 0
M  V30 4205 H 407.816 3.63726 -0.458107 0
M  V30 4206 H 407.464 4.7063 1.77529 0
M  V30 4207 H 407.164 5.85872 0.450314 0
M  V30 4208 H 408.688 5.94838 1.37842 0
M  V30 4209 H 410.102 5.66578 -0.875366 0
M  V30 4210 H 408.499 5.76681 -1.66007 0
M  V30 4211 H 409.569 4.40294 -2.03149 0
M  V30 4212 N 410.912 0.523116 1.48665 0
M  V30 4213 C 411.845 -0.290518 2.26343 0
M  V30 4214 C 412.823 -0.950913 1.31895 0
M  V30 4215 O 414.007 -0.976662 1.61225 0
M  V30 4216 C 411.134 -1.41088 3.07915 0
M  V30 4217 C 410.18 -0.862597 4.17686 0
M  V30 4218 S 411.013 0.264135 5.34848 0
M  V30 4219 C 412.169 -0.858864 6.19979 0
M  V30 4220 H 412.402 0.368726 2.95005 0
M  V30 4221 H 409.935 0.30878 1.51281 0
M  V30 4222 H 411.893 -2.0527 3.55492 0
M  V30 4223 H 410.554 -2.04182 2.38681 0
M  V30 4224 H 409.747 -1.70287 4.74361 0
M  V30 4225 H 409.349 -0.297595 3.72814 0
M  V30 4226 H 411.641 -1.7591 6.54264 0
M  V30 4227 H 412.584 -0.330244 7.07329 0
M  V30 4228 H 412.992 -1.13617 5.52948 0
M  V30 4229 N 412.39 -1.55475 0.257931 0
M  V30 4230 C 413.63 -2.01112 -0.365129 0
M  V30 4231 C 413.994 -1.1423 -1.54323 0
M  V30 4232 O 415.195 -1.49371 -2.23477 0
M  V30 4233 C 413.466 -3.49353 -0.754117 0
M  V30 4234 S 415.025 -4.16992 -1.36614 0
M  V30 4235 H 411.843 -0.701737 -0.114397 0
M  V30 4236 H 414.445 -1.91855 0.375747 0
M  V30 4237 H 413.149 -4.10246 0.112441 0
M  V30 4238 H 412.68 -3.6256 -1.52689 0
M  V30 4239 H 414.695 -4.19191 -2.65505 0
M  V30 4240 N 413.868 0.0150385 -1.57593 0
M  V30 4241 C 415.114 0.704043 -1.90187 0
M  V30 4242 C 415.447 1.74249 -0.857366 0
M  V30 4243 O 414.722 1.94092 0.125843 0
M  V30 4244 C 415.005 1.36087 -3.33395 0
M  V30 4245 C 414.858 0.334981 -4.48551 0
M  V30 4246 C 416.177 2.29112 -3.7576 0
M  V30 4247 H 413.296 0.254475 -0.691673 0
M  V30 4248 H 415.938 -0.0331678 -1.89971 0
M  V30 4249 H 414.088 1.98922 -3.3371 0
M  V30 4250 H 415.76 -0.292534 -4.60372 0
M  V30 4251 H 414.003 -0.344325 -4.32431 0
M  V30 4252 H 414.674 0.833316 -5.45674 0
M  V30 4253 H 417.15 1.76308 -3.76902 0
M  V30 4254 H 416.026 2.72043 -4.76743 0
M  V30 4255 H 416.287 3.16385 -3.08793 0
M  V30 4256 N 415.346 1.54954 0.287554 0
M  V30 4257 C 416.294 1.87606 1.37502 0
M  V30 4258 C 417.288 0.751001 1.51843 0
M  V30 4259 O 418.494 0.935169 1.53801 0
M  V30 4260 H 414.869 0.595231 0.459569 0
M  V30 4261 H 416.84 2.78477 1.07206 0
M  V30 4262 C 415.589 2.15183 2.73115 0
M  V30 4263 H 414.912 3.01234 2.62866 0
M  V30 4264 H 416.352 2.4196 3.48183 0
M  V30 4265 C 414.811 0.954686 3.2309 0
M  V30 4266 O 415.341 0.181949 4.01288 0
M  V30 4267 N 413.547 0.756368 2.80584 0
M  V30 4268 H 413.094 1.38643 2.17108 0
M  V30 4269 H 413.052 -0.0430391 3.14371 0
M  V30 4270 N 416.824 -0.551391 1.4764 0
M  V30 4271 C 418.054 -1.33163 1.57959 0
M  V30 4272 C 418.462 -1.87785 0.23094 0
M  V30 4273 O 417.805 -1.65996 -0.786825 0
M  V30 4274 C 417.867 -2.53449 2.54958 0
M  V30 4275 C 417.531 -2.20071 4.00522 0
M  V30 4276 C 418.528 -1.77017 4.88836 0
M  V30 4277 C 416.213 -2.31252 4.45901 0
M  V30 4278 C 418.207 -1.4558 6.20552 0
M  V30 4279 C 415.894 -1.99427 5.77644 0
M  V30 4280 C 416.892 -1.56659 6.64791 0
M  V30 4281 O 416.58 -1.25242 7.94084 0
M  V30 4282 H 416.312 -0.412022 0.535923 0
M  V30 4283 H 418.866 -0.674186 1.9402 0
M  V30 4284 H 417.096 -3.22104 2.13976 0
M  V30 4285 H 418.785 -3.15523 2.55343 0
M  V30 4286 H 419.551 -1.67867 4.55023 0
M  V30 4287 H 415.43 -2.63498 3.78272 0
M  V30 4288 H 418.974 -1.12125 6.8853 0
M  V30 4289 H 414.871 -2.08211 6.10998 0
M  V30 4290 H 415.639 -1.38822 8.06642 0
M  V30 4291 N 418.302 -1.35869 -0.798587 0
M  V30 4292 C 419.579 -1.20145 -1.54352 0
M  V30 4293 C 419.959 0.216161 -2.0999 0
M  V30 4294 O 419.307 1.22068 -1.93162 0
M  V30 4295 C 419.517 -2.27602 -2.64572 0
M  V30 4296 C 420.865 -2.63811 -3.32699 0
M  V30 4297 O 421.889 -2.26576 -2.74849 0
M  V30 4298 O 420.748 -3.27866 -4.37226 0
M  V30 4299 H 417.842 -0.467248 -0.682355 0
M  V30 4300 H 420.388 -1.47574 -0.837859 0
M  V30 4301 H 419.16 -3.2265 -2.21388 0
M  V30 4302 H 418.783 -2.01488 -3.42766 0
M  V30 4303 N 419.78 1.02168 -1.19998 0
M  V30 4304 C 420.712 2.10705 -0.901994 0
M  V30 4305 C 421.725 1.6244 0.108216 0
M  V30 4306 O 422.914 1.78082 -0.12214 0
M  V30 4307 C 420.014 3.37291 -0.329834 0
M  V30 4308 C 419.187 4.14714 -1.39035 0
M  V30 4309 C 418.246 5.19606 -0.830432 0
M  V30 4310 O 417.272 5.48809 -1.50989 0
M  V30 4311 N 418.474 5.79366 0.362696 0
M  V30 4312 H 421.239 2.36856 -1.83628 0
M  V30 4313 H 418.8 1.18518 -1.10296 0
M  V30 4314 H 420.792 4.04657 0.0587633 0
M  V30 4315 H 419.362 3.0843 0.508891 0
M  V30 4316 H 418.582 3.42392 -1.9535 0
M  V30 4317 H 419.87 4.63226 -2.10474 0
M  V30 4318 H 419.268 5.57968 0.932081 0
M  V30 4319 H 417.825 6.48106 0.69299 0
M  V30 4320 N 421.258 1.00505 1.21394 0
M  V30 4321 C 422.188 0.585684 2.26035 0
M  V30 4322 C 423.169 -0.393525 1.65485 0
M  V30 4323 O 424.354 -0.281497 1.92149 0
M  V30 4324 C 421.484 -0.0884283 3.47187 0
M  V30 4325 C 420.438 0.810567 4.20254 0
M  V30 4326 C 419.764 0.00286382 5.347 0
M  V30 4327 C 421.064 2.1132 4.77641 0
M  V30 4328 H 422.758 1.46039 2.61368 0
M  V30 4329 H 420.304 0.703648 1.25638 0
M  V30 4330 H 422.257 -0.393286 4.19561 0
M  V30 4331 H 420.981 -0.997766 3.10986 0
M  V30 4332 H 419.64 1.09925 3.49731 0
M  V30 4333 H 419.288 -0.907765 4.94741 0
M  V30 4334 H 418.988 0.601444 5.84514 0
M  V30 4335 H 420.512 -0.295808 6.09883 0
M  V30 4336 H 421.926 1.87148 5.41893 0
M  V30 4337 H 420.323 2.66164 5.37845 0
M  V30 4338 H 421.393 2.78393 3.9702 0
M  V30 4339 N 422.737 -1.36956 0.779787 0
M  V30 4340 C 424.014 -1.93697 0.272156 0
M  V30 4341 C 424.394 -1.71267 -1.23413 0
M  V30 4342 O 423.742 -1.06607 -2.02107 0
M  V30 4343 C 423.952 -3.42812 0.654291 0
M  V30 4344 C 425.3 -4.19921 0.628602 0
M  V30 4345 O 426.324 -3.51209 0.594172 0
M  V30 4346 O 425.183 -5.42465 0.662864 0
M  V30 4347 H 422.277 -0.824447 0.0649286 0
M  V30 4348 H 424.823 -1.46196 0.861682 0
M  V30 4349 H 423.595 -3.52754 1.69353 0
M  V30 4350 H 423.218 -3.97582 0.0381369 0
M  V30 4351 N 424.215 -0.530993 -1.48385 0
M  V30 4352 C 425.145 0.219985 -2.32461 0
M  V30 4353 C 426.126 0.934111 -1.42156 0
M  V30 4354 O 427.311 0.919694 -1.71042 0
M  V30 4355 C 424.441 1.26674 -3.23375 0
M  V30 4356 C 423.395 0.67069 -4.22712 0
M  V30 4357 C 422.721 1.82017 -5.02766 0
M  V30 4358 C 424.021 -0.358268 -5.2107 0
M  V30 4359 H 425.715 -0.48187 -2.95497 0
M  V30 4360 H 423.261 -0.233182 -1.42099 0
M  V30 4361 H 425.214 1.80006 -3.81019 0
M  V30 4362 H 423.938 1.99818 -2.58341 0
M  V30 4363 H 422.597 0.158878 -3.66256 0
M  V30 4364 H 422.245 2.54002 -4.34157 0
M  V30 4365 H 421.945 1.42727 -5.70003 0
M  V30 4366 H 423.469 2.35725 -5.63264 0
M  V30 4367 H 424.883 0.0880081 -5.73232 0
M  V30 4368 H 423.28 -0.66861 -5.96364 0
M  V30 4369 H 424.35 -1.26367 -4.68145 0
M  V30 4370 N 425.693 1.55336 -0.266172 0
M  V30 4371 C 426.623 2.25146 0.618981 0
M  V30 4372 C 427.604 1.23845 1.16604 0
M  V30 4373 O 428.789 1.52544 1.20183 0
M  V30 4374 C 425.919 2.96572 1.80728 0
M  V30 4375 C 424.873 4.04726 1.39215 0
M  V30 4376 C 424.199 4.63678 2.66283 0
M  V30 4377 C 425.499 5.19407 0.548942 0
M  V30 4378 H 427.193 2.99377 0.0368116 0
M  V30 4379 H 424.739 1.43991 0.0162651 0
M  V30 4380 H 426.692 3.44116 2.43232 0
M  V30 4381 H 425.416 2.19861 2.41514 0
M  V30 4382 H 424.075 3.57979 0.790351 0
M  V30 4383 H 423.723 3.83646 3.25308 0
M  V30 4384 H 423.423 5.367 2.39222 0
M  V30 4385 H 424.947 5.13967 3.29651 0
M  V30 4386 H 426.361 5.63059 1.07876 0
M  V30 4387 H 424.758 5.98936 0.373593 0
M  V30 4388 H 425.828 4.8295 -0.434394 0
M  V30 4389 N 427.171 -0.0066808 1.57599 0
M  V30 4390 C 428.418 -0.69292 1.90276 0
M  V30 4391 C 428.746 -1.74148 0.866192 0
M  V30 4392 O 428.001 -1.95268 -0.129933 0
M  V30 4393 C 428.3 -1.37939 3.29708 0
M  V30 4394 C 427.966 -0.464679 4.48499 0
M  V30 4395 C 426.628 -0.212809 4.80729 0
M  V30 4396 C 428.98 0.16551 5.20937 0
M  V30 4397 C 426.308 0.677653 5.82773 0
M  V30 4398 C 428.66 1.04381 6.23929 0
M  V30 4399 C 427.324 1.30492 6.54621 0
M  V30 4400 H 426.594 -0.253558 0.696268 0
M  V30 4401 H 429.241 0.0474123 1.91441 0
M  V30 4402 H 427.546 -2.1936 3.24636 0
M  V30 4403 H 429.243 -1.9163 3.52249 0
M  V30 4404 H 425.833 -0.671153 4.23313 0
M  V30 4405 H 430.017 -0.0160756 4.96297 0
M  V30 4406 H 425.273 0.88803 6.04917 0
M  V30 4407 H 429.447 1.53851 6.79193 0
M  V30 4408 H 427.074 1.99662 7.33512 0
M  V30 4409 N 428.649 -1.55105 -0.279332 0
M  V30 4410 C 429.895 -1.75672 -1.01327 0
M  V30 4411 C 430.228 -0.552739 -1.86168 0
M  V30 4412 O 429.503 0.449827 -1.89227 0
M  V30 4413 C 429.786 -3.05825 -1.90114 0
M  V30 4414 C 429.639 -4.36565 -1.08309 0
M  V30 4415 C 430.958 -3.31975 -2.8893 0
M  V30 4416 H 428.077 -0.639149 -0.366957 0
M  V30 4417 H 430.719 -1.87833 -0.286154 0
M  V30 4418 H 428.869 -2.95588 -2.52111 0
M  V30 4419 H 430.541 -4.58751 -0.484314 0
M  V30 4420 H 428.784 -4.32076 -0.386362 0
M  V30 4421 H 429.455 -5.23946 -1.73737 0
M  V30 4422 H 431.931 -3.41963 -2.37067 0
M  V30 4423 H 430.807 -4.2432 -3.48201 0
M  V30 4424 H 431.068 -2.51309 -3.63725 0
M  V30 4425 N 430.127 0.543554 -1.4793 0
M  V30 4426 C 431.352 1.32995 -1.59145 0
M  V30 4427 C 431.777 1.86472 -0.246956 0
M  V30 4428 O 431.135 1.63696 0.779324 0
M  V30 4429 C 431.183 2.46623 -2.63077 0
M  V30 4430 O 430.287 3.49261 -2.19295 0
M  V30 4431 H 429.628 0.394472 -0.534124 0
M  V30 4432 H 432.158 0.655489 -1.93816 0
M  V30 4433 H 432.168 2.93001 -2.83926 0
M  V30 4434 H 430.843 2.07059 -3.60693 0
M  V30 4435 H 429.42 3.09094 -2.08603 0
M  V30 4436 N 431.605 1.3629 0.791371 0
M  V30 4437 C 432.552 1.30458 1.90393 0
M  V30 4438 C 433.522 0.173632 1.6519 0
M  V30 4439 O 434.707 0.35983 1.87376 0
M  V30 4440 C 431.847 1.09777 3.27174 0
M  V30 4441 C 430.96 2.31929 3.64462 0
M  V30 4442 C 430.095 2.04276 4.90352 0
M  V30 4443 C 429.134 3.224 5.20312 0
M  V30 4444 N 428.271 2.94424 6.37385 0
M  V30 4445 H 433.111 2.25589 1.94714 0
M  V30 4446 H 430.648 1.12122 0.952216 0
M  V30 4447 H 432.606 0.958133 4.06049 0
M  V30 4448 H 431.236 0.183014 3.22281 0
M  V30 4449 H 430.288 2.56703 2.80727 0
M  V30 4450 H 431.6 3.20085 3.82553 0
M  V30 4451 H 430.754 1.87231 5.77087 0
M  V30 4452 H 429.493 1.13428 4.74326 0
M  V30 4453 H 428.498 3.40005 4.32061 0
M  V30 4454 H 429.723 4.14071 5.38258 0
M  V30 4455 H 427.669 2.06185 6.22755 0
M  V30 4456 H 427.586 3.76118 6.55798 0
M  V30 4457 H 428.854 2.80953 7.27108 0
M  V30 4458 N 433.083 -1.0153 1.20538 0
M  V30 4459 C 434.33 -1.75149 1.01633 0
M  V30 4460 C 434.658 -1.89189 -0.451399 0
M  V30 4461 O 433.913 -1.41551 -1.35136 0
M  V30 4462 C 434.212 -3.17213 1.64654 0
M  V30 4463 C 433.878 -3.23146 3.14464 0
M  V30 4464 C 432.54 -3.24472 3.55347 0
M  V30 4465 C 434.892 -3.21207 4.10458 0
M  V30 4466 C 432.22 -3.21532 4.90748 0
M  V30 4467 C 434.572 -3.19808 5.45807 0
M  V30 4468 C 433.236 -3.19439 5.86102 0
M  V30 4469 H 432.506 -0.640914 0.3719 0
M  V30 4470 H 435.153 -1.19071 1.49981 0
M  V30 4471 H 433.458 -3.76457 1.08571 0
M  V30 4472 H 435.155 -3.72871 1.4754 0
M  V30 4473 H 431.745 -3.2285 2.81897 0
M  V30 4474 H 435.929 -3.19351 3.79906 0
M  V30 4475 H 431.185 -3.19578 5.21229 0
M  V30 4476 H 435.359 -3.1726 6.19935 0
M  V30 4477 H 432.986 -3.16915 6.90991 0
M  V30 4478 N 434.561 -1.01147 -1.20859 0
M  V30 4479 C 435.808 -0.697865 -1.90095 0
M  V30 4480 C 436.136 0.772014 -1.78522 0
M  V30 4481 O 435.391 1.57595 -1.16027 0
M  V30 4482 C 435.69 -1.0727 -3.40922 0
M  V30 4483 C 435.356 -2.53792 -3.72693 0
M  V30 4484 C 434.018 -2.93829 -3.81075 0
M  V30 4485 C 436.37 -3.48674 -3.87397 0
M  V30 4486 C 433.698 -4.27696 -4.01613 0
M  V30 4487 C 436.05 -4.82223 -4.09444 0
M  V30 4488 C 434.714 -5.21973 -4.16054 0
M  V30 4489 H 433.984 -0.255367 -0.695607 0
M  V30 4490 H 436.631 -1.27111 -1.43231 0
M  V30 4491 H 434.936 -0.417799 -3.89566 0
M  V30 4492 H 436.633 -0.807818 -3.92779 0
M  V30 4493 H 433.223 -2.21768 -3.66765 0
M  V30 4494 H 437.407 -3.18904 -3.80281 0
M  V30 4495 H 432.663 -4.58055 -4.04964 0
M  V30 4496 H 436.837 -5.55672 -4.19763 0
M  V30 4497 H 434.464 -6.25717 -4.31721 0
M  V30 4498 N 436.039 1.36541 -0.78704 0
M  V30 4499 C 436.949 2.3387 -0.184896 0
M  V30 4500 C 437.965 1.60927 0.661697 0
M  V30 4501 O 439.141 1.92927 0.57804 0
M  V30 4502 C 436.206 3.40122 0.672145 0
M  V30 4503 C 435.267 4.28867 -0.19267 0
M  V30 4504 C 434.5 5.30045 0.623561 0
M  V30 4505 O 434.723 5.39232 1.8597 0
M  V30 4506 O 433.657 6.01895 0.0247068 0
M  V30 4507 H 437.483 2.87126 -0.989562 0
M  V30 4508 H 435.068 1.38969 -0.548455 0
M  V30 4509 H 436.95 4.05093 1.16094 0
M  V30 4510 H 435.625 2.89169 1.45474 0
M  V30 4511 H 434.532 3.66945 -0.728166 0
M  V30 4512 H 435.865 4.83165 -0.938722 0
M  V30 4513 N 437.518 0.538854 1.48102 0
M  V30 4514 C 438.468 -0.23907 2.26743 0
M  V30 4515 C 439.452 -0.901923 1.33245 0
M  V30 4516 O 440.644 -0.803263 1.57723 0
M  V30 4517 C 437.773 -1.2799 3.18549 0
M  V30 4518 C 436.859 -0.621388 4.19523 0
M  V30 4519 N 437.25 0.298004 5.04921 0
M  V30 4520 C 435.548 -0.877533 4.37282 0
M  V30 4521 C 436.249 0.678757 5.77726 0
M  V30 4522 N 435.225 0.0377881 5.43587 0
M  V30 4523 H 439.027 0.468096 2.90148 0
M  V30 4524 H 436.541 0.357497 1.58416 0
M  V30 4525 H 438.538 -1.851 3.73555 0
M  V30 4526 H 437.198 -1.98835 2.567 0
M  V30 4527 H 438.209 0.671126 5.13533 0
M  V30 4528 H 434.886 -1.57588 3.86616 0
M  V30 4529 H 436.276 1.43316 6.56437 0
M  V30 4530 N 438.996 -1.55193 0.274407 0
M  V30 4531 C 439.946 -2.19184 -0.627882 0
M  V30 4532 C 440.93 -1.15625 -1.11892 0
M  V30 4533 O 442.122 -1.41441 -1.06411 0
M  V30 4534 C 439.251 -2.91591 -1.81189 0
M  V30 4535 C 438.337 -4.02438 -1.33807 0
M  V30 4536 N 438.728 -5.0246 -0.580349 0
M  V30 4537 C 437.026 -4.15496 -1.62109 0
M  V30 4538 C 437.727 -5.80756 -0.331344 0
M  V30 4539 N 436.703 -5.36038 -0.903556 0
M  V30 4540 H 440.505 -2.93871 -0.0411216 0
M  V30 4541 H 438.019 -1.62213 0.0779348 0
M  V30 4542 H 440.016 -3.35883 -2.46957 0
M  V30 4543 H 438.676 -2.18414 -2.40261 0
M  V30 4544 H 439.687 -5.17399 -0.227762 0
M  V30 4545 H 436.364 -3.53509 -2.22121 0
M  V30 4546 H 437.754 -6.71335 0.275454 0
M  V30 4547 N 440.474 -0.00167713 -1.576 0
M  V30 4548 C 441.885 0.54091 -1.78693 0
M  V30 4549 C 442.236 1.7386 -0.909247 0
M  V30 4550 O 441.361 2.16109 -0.112176 0
M  V30 4551 C 441.956 0.98806 -3.24072 0
M  V30 4552 C 440.515 1.47594 -3.46256 0
M  V30 4553 C 439.662 0.42792 -2.73978 0
M  V30 4554 H 442.613 -0.22784 -1.57056 0
M  V30 4555 H 442.634 1.85398 -3.32277 0
M  V30 4556 H 442.146 0.116164 -3.87926 0
M  V30 4557 H 440.247 2.36868 -2.87618 0
M  V30 4558 H 440.36 1.50225 -4.54939 0
M  V30 4559 H 438.724 0.889934 -2.38647 0
M  V30 4560 H 439.507 -0.435038 -3.40532 0
M  V30 4561 N 441.952 1.55251 0.271103 0
M  V30 4562 C 443.201 1.75151 1.00025 0
M  V30 4563 C 443.514 0.561041 1.87381 0
M  V30 4564 O 444.72 0.642506 2.63788 0
M  V30 4565 C 443.176 3.09999 1.82835 0
M  V30 4566 C 442.784 4.3662 1.00336 0
M  V30 4567 C 444.528 3.39249 2.55168 0
M  V30 4568 C 442.435 5.62506 1.82595 0
M  V30 4569 H 441.365 0.652877 0.377183 0
M  V30 4570 H 444.016 1.81708 0.255843 0
M  V30 4571 H 442.398 2.97485 2.61378 0
M  V30 4572 H 443.572 4.60055 0.261959 0
M  V30 4573 H 441.887 4.14527 0.394486 0
M  V30 4574 H 444.484 4.3051 3.1712 0
M  V30 4575 H 444.827 2.59467 3.2555 0
M  V30 4576 H 445.36 3.52869 1.83653 0
M  V30 4577 H 442.099 6.45041 1.16631 0
M  V30 4578 H 441.619 5.43211 2.54327 0
M  V30 4579 H 443.298 6.00875 2.39913 0
M  V30 4580 N 443.43 -0.535701 1.48216 0
M  V30 4581 C 444.841 -1.11769 1.49548 0
M  V30 4582 C 445.192 -1.94442 0.26207 0
M  V30 4583 O 444.317 -2.06987 -0.631287 0
M  V30 4584 C 444.912 -2.03367 2.70975 0
M  V30 4585 C 443.471 -2.56795 2.75196 0
M  V30 4586 C 442.618 -1.33631 2.42977 0
M  V30 4587 H 445.569 -0.321232 1.55415 0
M  V30 4588 H 445.59 -2.87569 2.49167 0
M  V30 4589 H 445.102 -1.43169 3.60727 0
M  V30 4590 H 443.203 -3.20731 1.89638 0
M  V30 4591 H 443.316 -2.9632 3.76472 0
M  V30 4592 H 441.68 -1.6502 1.94012 0
M  V30 4593 H 442.463 -0.75194 3.34964 0
M  V30 4594 N 444.908 -1.36708 -0.784132 0
M  V30 4595 C 445.84 -1.27333 -1.90575 0
M  V30 4596 C 446.853 -0.191706 -1.61667 0
M  V30 4597 O 448.042 -0.446854 -1.72816 0
M  V30 4598 C 445.142 -0.943177 -3.25511 0
M  V30 4599 C 444.315 -2.12776 -3.82158 0
M  V30 4600 C 443.374 -1.76983 -4.95544 0
M  V30 4601 O 442.4 -2.49134 -5.11782 0
M  V30 4602 N 443.602 -0.706624 -5.76183 0
M  V30 4603 H 446.367 -2.23974 -1.99138 0
M  V30 4604 H 443.928 -1.30171 -0.962656 0
M  V30 4605 H 445.92 -0.684799 -3.98864 0
M  V30 4606 H 444.49 -0.0657333 -3.12531 0
M  V30 4607 H 443.71 -2.54863 -3.0073 0
M  V30 4608 H 444.998 -2.91904 -4.16737 0
M  V30 4609 H 444.396 -0.107643 -5.65598 0
M  V30 4610 H 442.953 -0.50808 -6.49817 0
M  V30 4611 N 446.386 1.0089 -1.21074 0
M  V30 4612 C 447.296 2.13039 -0.982425 0
M  V30 4613 C 448.312 1.73881 0.0642161 0
M  V30 4614 O 449.488 2.01012 -0.12496 0
M  V30 4615 C 446.553 3.42377 -0.545803 0
M  V30 4616 C 445.614 3.95731 -1.6642 0
M  V30 4617 C 444.847 5.18896 -1.24832 0
M  V30 4618 O 445.07 5.70273 -0.120265 0
M  V30 4619 O 444.004 5.65597 -2.05873 0
M  V30 4620 H 447.83 2.35175 -1.92163 0
M  V30 4621 H 445.415 1.1142 -0.995285 0
M  V30 4622 H 447.297 4.20244 -0.311912 0
M  V30 4623 H 445.972 3.21639 0.364727 0
M  V30 4624 H 444.879 3.19108 -1.95246 0
M  V30 4625 H 446.212 4.20872 -2.55201 0
M  V30 4626 N 447.864 1.01787 1.20321 0
M  V30 4627 C 448.774 0.598898 2.26827 0
M  V30 4628 C 449.79 -0.36418 1.70146 0
M  V30 4629 O 450.966 -0.224812 2.00141 0
M  V30 4630 C 448.031 -0.0549769 3.46656 0
M  V30 4631 C 447.092 0.954205 4.18561 0
M  V30 4632 C 446.325 0.331439 5.3267 0
M  V30 4633 O 446.548 -0.86851 5.63749 0
M  V30 4634 O 445.482 1.0488 5.92692 0
M  V30 4635 H 449.308 1.48562 2.64883 0
M  V30 4636 H 446.893 0.787434 1.26964 0
M  V30 4637 H 448.775 -0.420102 4.19301 0
M  V30 4638 H 447.45 -0.915876 3.10473 0
M  V30 4639 H 446.357 1.37072 3.48083 0
M  V30 4640 H 447.69 1.78511 4.58688 0
M  V30 4641 N 449.342 -1.36122 0.79427 0
M  V30 4642 C 450.305 -2.28309 0.201889 0
M  V30 4643 C 451.305 -1.49041 -0.603603 0
M  V30 4644 O 452.495 -1.68964 -0.423888 0
M  V30 4645 C 449.627 -3.3321 -0.719978 0
M  V30 4646 H 450.82 -2.82208 1.01481 0
M  V30 4647 H 448.373 -1.45768 0.564037 0
M  V30 4648 H 449.108 -2.84475 -1.55706 0
M  V30 4649 H 448.893 -3.91835 -0.144266 0
M  V30 4650 H 450.383 -4.02044 -1.12916 0
M  V30 4651 N 450.82 -0.546701 -1.47814 0
M  V30 4652 C 452.045 -0.021268 -2.07389 0
M  V30 4653 C 452.47 1.25822 -1.39822 0
M  V30 4654 O 451.828 1.75111 -0.46968 0
M  V30 4655 C 451.876 0.168502 -3.60206 0
M  V30 4656 O 450.98 1.23347 -3.93522 0
M  V30 4657 H 450.321 -0.0466108 -0.662362 0
M  V30 4658 H 452.851 -0.759387 -1.89985 0
M  V30 4659 H 452.861 0.385982 -4.0617 0
M  V30 4660 H 451.536 -0.766075 -4.08784 0
M  V30 4661 H 450.113 0.997319 -3.59316 0
M  V30 4662 N 452.299 1.55045 -0.282633 0
M  V30 4663 C 453.229 2.2579 0.595066 0
M  V30 4664 C 454.21 1.25074 1.15284 0
M  V30 4665 O 455.395 1.5381 1.18559 0
M  V30 4666 C 452.525 2.98472 1.77572 0
M  V30 4667 C 451.479 4.0618 1.34914 0
M  V30 4668 C 450.805 4.66477 2.6135 0
M  V30 4669 C 452.105 5.1996 0.493821 0
M  V30 4670 H 453.799 2.994 0.00505653 0
M  V30 4671 H 451.345 1.44 0.000992001 0
M  V30 4672 H 453.298 3.46677 2.39568 0
M  V30 4673 H 452.022 2.2241 2.39168 0
M  V30 4674 H 450.681 3.58797 0.752338 0
M  V30 4675 H 450.329 3.87074 3.2122 0
M  V30 4676 H 450.029 5.39207 2.33516 0
M  V30 4677 H 451.553 5.17435 3.24181 0
M  V30 4678 H 452.967 5.64172 1.01898 0
M  V30 4679 H 451.364 5.99299 0.310047 0
M  V30 4680 H 452.434 4.82462 -0.485593 0
M  V30 4681 N 453.777 0.010035 1.57597 0
M  V30 4682 C 454.74 -0.963029 2.07986 0
M  V30 4683 C 455.74 -1.26619 0.991173 0
M  V30 4684 O 456.93 -1.2097 1.25347 0
M  V30 4685 C 454.062 -2.2851 2.52974 0
M  V30 4686 H 455.255 -0.526971 2.95234 0
M  V30 4687 H 452.808 -0.237639 1.54483 0
M  V30 4688 H 453.543 -2.76784 1.69 0
M  V30 4689 H 453.328 -2.07824 3.32493 0
M  V30 4690 H 454.818 -2.98294 2.9225 0
M  V30 4691 N 455.255 -1.55392 -0.262866 0
M  V30 4692 C 456.165 -1.92077 -1.34698 0
M  V30 4693 C 457.181 -0.819227 -1.53508 0
M  V30 4694 O 458.357 -1.11921 -1.67439 0
M  V30 4695 C 455.422 -2.19407 -2.68443 0
M  V30 4696 C 454.483 -3.42905 -2.58292 0
M  V30 4697 C 453.716 -3.68921 -3.85659 0
M  V30 4698 O 453.939 -2.97275 -4.8681 0
M  V30 4699 O 452.873 -4.62455 -3.85252 0
M  V30 4700 H 456.699 -2.84384 -1.06581 0
M  V30 4701 H 454.284 -1.42069 -0.462264 0
M  V30 4702 H 456.166 -2.38365 -3.47506 0
M  V30 4703 H 454.841 -1.30282 -2.96325 0
M  V30 4704 H 453.748 -3.29272 -1.7757 0
M  V30 4705 H 455.081 -4.32282 -2.35358 0
M  V30 4706 N 456.733 0.527833 -1.48498 0
M  V30 4707 C 457.961 1.30823 -1.6029 0
M  V30 4708 C 458.376 1.86945 -0.263974 0
M  V30 4709 O 457.733 1.6651 0.747034 0
M  V30 4710 C 457.784 2.45756 -2.65116 0
M  V30 4711 O 457.505 1.91946 -3.93813 0
M  V30 4712 C 459.006 3.37543 -2.87367 0
M  V30 4713 H 456.226 0.397763 -0.540394 0
M  V30 4714 H 458.77 0.636529 -1.94341 0
M  V30 4715 H 456.925 3.08806 -2.33917 0
M  V30 4716 H 457.339 2.67195 -4.51339 0
M  V30 4717 H 458.813 4.14532 -3.6451 0
M  V30 4718 H 459.29 3.92905 -1.9627 0
M  V30 4719 H 459.896 2.80283 -3.19878 0
M  V30 4720 N 458.211 1.37122 0.776871 0
M  V30 4721 C 459.174 1.32301 1.8716 0
M  V30 4722 C 460.174 0.228099 1.59174 0
M  V30 4723 O 461.364 0.483642 1.67352 0
M  V30 4724 C 458.496 1.054 3.24197 0
M  V30 4725 H 459.689 2.29673 1.92848 0
M  V30 4726 H 457.242 1.22077 0.97606 0
M  V30 4727 H 457.977 0.0853872 3.24188 0
M  V30 4728 H 457.762 1.84648 3.45901 0
M  V30 4729 H 459.252 1.04664 4.04271 0
M  V30 4730 N 459.689 -1.00246 1.21608 0
M  V30 4731 C 460.619 -2.10921 1.00172 0
M  V30 4732 C 461.6 -1.69938 -0.0741587 0
M  V30 4733 O 462.785 -1.94009 0.0861753 0
M  V30 4734 C 459.915 -3.42618 0.568355 0
M  V30 4735 C 458.869 -3.97407 1.58909 0
M  V30 4736 C 458.195 -5.25038 1.01187 0
M  V30 4737 C 459.495 -4.2918 2.97661 0
M  V30 4738 H 461.189 -2.29112 1.92739 0
M  V30 4739 H 458.735 -1.10101 0.928102 0
M  V30 4740 H 460.688 -4.19444 0.405555 0
M  V30 4741 H 459.412 -3.24227 -0.392961 0
M  V30 4742 H 458.071 -3.22703 1.73949 0
M  V30 4743 H 457.719 -5.02982 0.0421965 0
M  V30 4744 H 457.419 -5.62661 1.6937 0
M  V30 4745 H 458.943 -6.04507 0.860448 0
M  V30 4746 H 460.357 -4.96839 2.86049 0
M  V30 4747 H 458.754 -4.77952 3.6288 0
M  V30 4748 H 459.824 -3.3735 3.48315 0
M  V30 4749 N 461.167 -1.02423 -1.1978 0
M  V30 4750 C 462.395 -0.737456 -1.93311 0
M  V30 4751 C 462.81 0.703023 -1.75223 0
M  V30 4752 O 462.167 1.47761 -1.07112 0
M  V30 4753 C 462.218 -1.0733 -3.45199 0
M  V30 4754 O 461.939 -2.4572 -3.62702 0
M  V30 4755 C 463.44 -0.80866 -4.35862 0
M  V30 4756 H 460.66 -0.2702 -0.614193 0
M  V30 4757 H 463.204 -1.36747 -1.52054 0
M  V30 4758 H 461.359 -0.488545 -3.84307 0
M  V30 4759 H 461.773 -2.58081 -4.56612 0
M  V30 4760 H 463.247 -1.09365 -5.41057 0
M  V30 4761 H 463.724 0.257025 -4.38447 0
M  V30 4762 H 464.33 -1.37592 -4.02428 0
M  V30 4763 N 462.645 1.35699 -0.801477 0
M  V30 4764 C 463.87 2.03687 -0.390678 0
M  V30 4765 C 464.295 1.60015 0.988778 0
M  V30 4766 O 463.653 0.774357 1.63931 0
M  V30 4767 C 463.701 3.57439 -0.476404 0
M  V30 4768 O 462.805 4.09208 0.512106 0
M  V30 4769 H 462.146 0.64344 -0.163956 0
M  V30 4770 H 464.676 1.73403 -1.08594 0
M  V30 4771 H 464.686 4.06544 -0.344357 0
M  V30 4772 H 463.361 3.88576 -1.48262 0
M  V30 4773 H 461.938 3.7134 0.340721 0
M  V30 4774 N 464.123 0.554532 1.47522 0
M  V30 4775 C 465.371 0.0294208 2.02079 0
M  V30 4776 C 465.692 -1.32411 1.43151 0
M  V30 4777 O 464.962 -1.863 0.605728 0
M  V30 4778 H 463.542 0.00788672 0.746958 0
M  V30 4779 H 466.204 0.723934 1.80956 0
M  V30 4780 H 465.3 -0.0606745 3.12041 0
M  V30 4781 N 465.601 -1.54893 0.290851 0
M  V30 4782 C 466.826 -2.04804 -0.32712 0
M  V30 4783 C 467.251 -1.16721 -1.47506 0
M  V30 4784 O 466.609 -0.169107 -1.8051 0
M  V30 4785 C 466.657 -3.52268 -0.770689 0
M  V30 4786 O 465.761 -3.67236 -1.87647 0
M  V30 4787 H 465.102 -0.660789 -0.0652227 0
M  V30 4788 H 467.632 -2.00036 0.429739 0
M  V30 4789 H 467.642 -3.9393 -1.06223 0
M  V30 4790 H 466.317 -4.15843 0.069096 0
M  V30 4791 H 464.894 -3.37479 -1.58626 0
M  V30 4792 N 467.08 -0.0183926 -1.57589 0
M  V30 4793 C 468.305 0.676634 -1.96052 0
M  V30 4794 C 468.73 1.6548 -0.894307 0
M  V30 4795 O 468.088 1.80712 0.145849 0
M  V30 4796 C 468.136 1.36872 -3.33614 0
M  V30 4797 O 467.24 2.48372 -3.29219 0
M  V30 4798 H 466.581 0.1786 -0.63953 0
M  V30 4799 H 469.111 -0.077056 -2.04455 0
M  V30 4800 H 469.121 1.72797 -3.69601 0
M  V30 4801 H 467.796 0.651636 -4.10763 0
M  V30 4802 H 466.373 2.14639 -3.04934 0
M  V30 4803 N 468.558 1.5553 0.254621 0
M  V30 4804 C 469.969 1.67518 0.824286 0
M  V30 4805 C 470.32 0.614429 1.86331 0
M  V30 4806 O 469.445 -0.240736 2.15057 0
M  V30 4807 C 470.04 3.03692 1.50189 0
M  V30 4808 C 468.599 3.17646 2.01935 0
M  V30 4809 C 467.746 2.63373 0.867746 0
M  V30 4810 H 470.697 1.58671 0.0305843 0
M  V30 4811 H 470.718 2.97706 2.36962 0
M  V30 4812 H 470.23 3.80874 0.745431 0
M  V30 4813 H 468.331 2.45273 2.80485 0
M  V30 4814 H 468.444 4.24455 2.22204 0
M  V30 4815 H 466.808 2.20999 1.26616 0
M  V30 4816 H 467.591 3.43074 0.124498 0
M  V30 4817 N 470.036 -0.519951 1.48776 0
M  V30 4818 C 471.261 -1.30447 1.6124 0
M  V30 4819 C 471.686 -1.86055 0.276591 0
M  V30 4820 O 471.044 -1.64915 -0.753183 0
M  V30 4821 C 471.092 -2.42406 2.66967 0
M  V30 4822 O 470.196 -3.45728 2.24824 0
M  V30 4823 H 469.537 -0.385924 0.540332 0
M  V30 4824 H 472.067 -0.624572 1.94834 0
M  V30 4825 H 472.077 -2.88447 2.88552 0
M  V30 4826 H 470.752 -2.01294 3.63941 0
M  V30 4827 H 469.329 -3.05737 2.13494 0
M  V30 4828 N 471.514 -1.37532 -0.769588 0
M  V30 4829 C 472.477 -1.33292 -1.86456 0
M  V30 4830 C 473.477 -0.236537 -1.59051 0
M  V30 4831 O 474.667 -0.492511 -1.67093 0
M  V30 4832 C 471.799 -1.07118 -3.23633 0
M  V30 4833 H 472.992 -2.30692 -1.91628 0
M  V30 4834 H 470.545 -1.22593 -0.969572 0
M  V30 4835 H 471.28 -0.102578 -3.24138 0
M  V30 4836 H 471.065 -1.86479 -3.44917 0
M  V30 4837 H 472.555 -1.06806 -4.03711 0
M  V30 4838 N 472.992 0.995999 -1.22138 0
M  V30 4839 C 474.403 1.54961 -1.04135 0
M  V30 4840 C 474.754 1.92159 0.396147 0
M  V30 4841 O 473.879 1.74435 1.28069 0
M  V30 4842 C 474.474 2.81581 -1.88408 0
M  V30 4843 C 473.033 3.33396 -1.74712 0
M  V30 4844 C 472.18 2.06509 -1.85066 0
M  V30 4845 H 475.131 0.817436 -1.36028 0
M  V30 4846 H 475.152 3.53822 -1.39966 0
M  V30 4847 H 474.664 2.54476 -2.93025 0
M  V30 4848 H 472.765 3.65416 -0.728159 0
M  V30 4849 H 472.878 4.04208 -2.57202 0
M  V30 4850 H 471.242 2.19925 -1.28472 0
M  V30 4851 H 472.025 1.81804 -2.91208 0
M  V30 4852 N 474.47 1.03057 1.19235 0
M  V30 4853 C 475.433 0.617418 2.20727 0
M  V30 4854 C 476.433 -0.319856 1.57587 0
M  V30 4855 O 477.623 -0.106633 1.73873 0
M  V30 4856 C 474.755 -0.096296 3.40764 0
M  V30 4857 H 475.948 1.51544 2.58794 0
M  V30 4858 H 473.501 0.821949 1.32942 0
M  V30 4859 H 474.236 -1.00859 3.08217 0
M  V30 4860 H 474.021 0.577217 3.87828 0
M  V30 4861 H 475.511 -0.372219 4.15938 0
M  V30 4862 N 475.948 -1.35272 0.808662 0
M  V30 4863 C 477.173 -2.03477 0.401475 0
M  V30 4864 C 477.598 -1.60537 -0.980279 0
M  V30 4865 O 476.956 -0.78304 -1.63518 0
M  V30 4866 C 477.004 -3.57181 0.495354 0
M  V30 4867 O 476.108 -4.09474 -0.490397 0
M  V30 4868 H 475.449 -0.642561 0.167366 0
M  V30 4869 H 477.979 -1.72824 1.09512 0
M  V30 4870 H 477.989 -4.06356 0.365912 0
M  V30 4871 H 476.664 -3.87784 1.5032 0
M  V30 4872 H 475.241 -3.71516 -0.321023 0
M  V30 4873 N 477.426 -0.562348 -1.47226 0
M  V30 4874 C 478.703 0.0256985 -1.95583 0
M  V30 4875 C 479.083 1.48032 -1.50498 0
M  V30 4876 O 478.431 2.15973 -0.746181 0
M  V30 4877 C 478.641 -0.125129 -3.48776 0
M  V30 4878 C 479.989 0.0175728 -4.24596 0
M  V30 4879 O 481.013 -0.0529341 -3.56161 0
M  V30 4880 O 479.872 0.170145 -5.46235 0
M  V30 4881 H 476.966 0.0612565 -0.824728 0
M  V30 4882 H 479.512 -0.629233 -1.57603 0
M  V30 4883 H 478.284 -1.13715 -3.74412 0
M  V30 4884 H 477.907 0.567178 -3.93534 0
M  V30 4885 N 478.904 1.54736 -0.299062 0
M  V30 4886 C 480.129 2.04975 0.316254 0
M  V30 4887 C 480.554 1.17501 1.46885 0
M  V30 4888 O 479.912 0.178678 1.80417 0
M  V30 4889 C 479.96 3.52672 0.751997 0
M  V30 4890 O 479.064 3.68226 1.85697 0
M  V30 4891 H 478.405 0.661126 0.0617175 0
M  V30 4892 H 480.935 1.99805 -0.440341 0
M  V30 4893 H 480.945 3.94488 1.04133 0
M  V30 4894 H 479.62 4.158 -0.0911482 0
M  V30 4895 H 478.197 3.38316 1.56834 0
M  V30 4896 N 480.382 0.0267497 1.57577 0
M  V30 4897 C 481.631 -0.651736 1.9088 0
M  V30 4898 C 481.944 -1.73427 0.904576 0
M  V30 4899 O 483.15 -2.46923 1.12877 0
M  V30 4900 C 481.606 -1.21048 3.38933 0
M  V30 4901 C 481.214 -0.161362 4.47709 0
M  V30 4902 C 482.958 -1.86562 3.81307 0
M  V30 4903 C 480.865 -0.731611 5.86857 0
M  V30 4904 H 479.795 -0.247198 0.712326 0
M  V30 4905 H 482.446 0.0916641 1.83271 0
M  V30 4906 H 480.828 -2.00542 3.41466 0
M  V30 4907 H 482.002 0.61094 4.56732 0
M  V30 4908 H 480.317 0.394877 4.14523 0
M  V30 4909 H 482.914 -2.30178 4.8262 0
M  V30 4910 H 483.257 -2.70735 3.16241 0
M  V30 4911 H 483.79 -1.13762 3.81186 0
M  V30 4912 H 480.529 0.0719329 6.55461 0
M  V30 4913 H 480.049 -1.47245 5.81445 0
M  V30 4914 H 481.728 -1.22208 6.35354 0
M  V30 4915 N 481.861 -1.55662 -0.24637 0
M  V30 4916 C 483.109 -1.77168 -0.972411 0
M  V30 4917 C 483.43 -0.590827 -1.85834 0
M  V30 4918 O 482.7 0.393365 -1.9191 0
M  V30 4919 H 481.28 -0.653405 -0.362038 0
M  V30 4920 H 483.942 -1.93101 -0.264189 0
M  V30 4921 H 483.038 -2.68335 -1.59382 0
M  V30 4922 N 483.339 0.512053 -1.4905 0
M  V30 4923 C 484.75 1.09376 -1.51307 0
M  V30 4924 C 485.101 1.94 -0.292971 0
M  V30 4925 O 484.226 2.07965 0.598277 0
M  V30 4926 C 484.821 1.99031 -2.74176 0
M  V30 4927 C 483.38 2.52385 -2.79247 0
M  V30 4928 C 482.527 1.29749 -2.45073 0
M  V30 4929 H 485.478 0.296467 -1.55906 0
M  V30 4930 H 485.499 2.83569 -2.53711 0
M  V30 4931 H 485.011 1.37412 -3.62959 0
M  V30 4932 H 483.112 3.17673 -1.94716 0
M  V30 4933 H 483.225 2.90293 -3.81139 0
M  V30 4934 H 481.589 1.61912 -1.96612 0
M  V30 4935 H 482.372 0.698555 -3.36118 0
M  V30 4936 N 484.817 1.37938 0.762283 0
M  V30 4937 C 485.749 1.30349 1.88525 0
M  V30 4938 C 486.762 0.217402 1.61342 0
M  V30 4939 O 487.951 0.474291 1.72084 0
M  V30 4940 C 485.051 0.994844 3.23969 0
M  V30 4941 C 484.224 2.18829 3.78725 0
M  V30 4942 C 483.283 1.84844 4.92665 0
M  V30 4943 O 482.309 2.57244 5.07754 0
M  V30 4944 N 483.511 0.798201 5.74986 0
M  V30 4945 H 486.276 2.27114 1.95549 0
M  V30 4946 H 483.837 1.31686 0.941825 0
M  V30 4947 H 485.829 0.748168 3.97724 0
M  V30 4948 H 484.399 0.115446 3.12387 0
M  V30 4949 H 483.619 2.59615 2.96637 0
M  V30 4950 H 484.907 2.98497 4.1204 0
M  V30 4951 H 484.305 0.197611 5.65355 0
M  V30 4952 H 482.862 0.611396 6.48926 0
M  V30 4953 N 486.295 -0.989507 1.22664 0
M  V30 4954 C 487.544 -1.72375 1.04737 0
M  V30 4955 C 487.857 -1.91096 -0.417316 0
M  V30 4956 O 489.063 -2.6188 -0.716334 0
M  V30 4957 C 487.519 -3.10161 1.82561 0
M  V30 4958 C 487.127 -2.99358 3.333 0
M  V30 4959 C 488.871 -3.87607 1.73093 0
M  V30 4960 C 486.778 -4.32319 4.03552 0
M  V30 4961 H 485.708 -0.646326 0.388302 0
M  V30 4962 H 488.359 -1.10437 1.46546 0
M  V30 4963 H 486.741 -3.728 1.33552 0
M  V30 4964 H 487.915 -2.45863 3.89728 0
M  V30 4965 H 486.23 -2.35392 3.43481 0
M  V30 4966 H 488.827 -4.86025 2.22899 0
M  V30 4967 H 489.17 -4.10509 0.691976 0
M  V30 4968 H 489.703 -3.31652 2.19663 0
M  V30 4969 H 486.442 -4.14616 5.07714 0
M  V30 4970 H 485.962 -4.85714 3.51911 0
M  V30 4971 H 487.641 -5.01051 4.09337 0
M  V30 4972 N 487.773 -1.03688 -1.18687 0
M  V30 4973 C 488.703 -0.645407 -2.24403 0
M  V30 4974 C 489.684 0.349511 -1.66471 0
M  V30 4975 O 490.869 0.230453 -1.92828 0
M  V30 4976 C 487.999 -0.00365337 -3.473 0
M  V30 4977 C 486.953 -0.921705 -4.17958 0
M  V30 4978 C 486.279 -0.144629 -5.34504 0
M  V30 4979 C 487.579 -2.23909 -4.71871 0
M  V30 4980 H 489.273 -1.52917 -2.57404 0
M  V30 4981 H 486.819 -0.736711 -1.23728 0
M  V30 4982 H 488.772 0.281908 -4.20456 0
M  V30 4983 H 487.496 0.914963 -3.13522 0
M  V30 4984 H 486.155 -1.19159 -3.46694 0
M  V30 4985 H 485.803 0.776274 -4.96974 0
M  V30 4986 H 485.503 -0.756206 -5.82714 0
M  V30 4987 H 487.027 0.134004 -6.10453 0
M  V30 4988 H 488.441 -2.0145 -5.36741 0
M  V30 4989 H 486.838 -2.8033 -5.30599 0
M  V30 4990 H 487.908 -2.88822 -3.895 0
M  V30 4991 N 489.251 1.34841 -0.815825 0
M  V30 4992 C 490.479 2.0273 -0.413294 0
M  V30 4993 C 490.894 1.61459 0.978599 0
M  V30 4994 O 490.251 0.816584 1.63212 0
M  V30 4995 C 490.302 3.58058 -0.497676 0
M  V30 4996 O 490.023 3.97832 -1.8347 0
M  V30 4997 C 491.524 4.4321 -0.0891339 0
M  V30 4998 H 488.744 0.649956 -0.166728 0
M  V30 4999 H 491.288 1.72267 -1.10201 0
M  V30 5000 H 489.443 3.87136 0.142886 0
M  V30 5001 H 489.857 4.92501 -1.80396 0
M  V30 5002 H 491.331 5.5164 -0.199274 0
M  V30 5003 H 491.808 4.28432 0.966571 0
M  V30 5004 H 492.414 4.19446 -0.703214 0
M  V30 5005 N 490.729 0.570148 1.46925 0
M  V30 5006 C 491.954 0.0542592 2.07329 0
M  V30 5007 C 492.379 -1.23582 1.41806 0
M  V30 5008 O 491.737 -1.74341 0.497479 0
M  V30 5009 C 491.785 -0.111175 3.60429 0
M  V30 5010 O 490.889 -1.17071 3.95434 0
M  V30 5011 H 490.23 0.0571425 0.661537 0
M  V30 5012 H 492.76 0.789516 1.88753 0
M  V30 5013 H 492.77 -0.321315 4.06733 0
M  V30 5014 H 491.445 0.831012 4.07513 0
M  V30 5015 H 490.022 -0.940029 3.60857 0
M  V30 5016 N 492.207 -1.54576 0.307264 0
M  V30 5017 C 493.618 -1.8579 -0.184121 0
M  V30 5018 C 493.969 -1.22914 -1.52927 0
M  V30 5019 O 493.094 -0.529126 -2.09831 0
M  V30 5020 C 493.689 -3.37081 -0.340862 0
M  V30 5021 C 492.248 -3.68304 -0.776465 0
M  V30 5022 C 491.395 -2.77076 0.111503 0
M  V30 5023 H 494.346 -1.49656 0.528078 0
M  V30 5024 H 494.367 -3.61922 -1.17443 0
M  V30 5025 H 493.879 -3.82815 0.638309 0
M  V30 5026 H 491.98 -3.28092 -1.76596 0
M  V30 5027 H 492.093 -4.75434 -0.591512 0
M  V30 5028 H 490.457 -2.51374 -0.410256 0
M  V30 5029 H 491.24 -3.25632 1.08714 0
M  V30 5030 N 493.685 -0.035106 -1.57561 0
M  V30 5031 C 494.91 0.655802 -1.96759 0
M  V30 5032 C 495.335 1.64523 -0.911809 0
M  V30 5033 O 494.693 1.80857 0.126673 0
M  V30 5034 C 494.741 1.33326 -3.35047 0
M  V30 5035 O 493.845 2.44866 -3.31835 0
M  V30 5036 H 493.186 0.171807 -0.641388 0
M  V30 5037 H 495.716 -0.0987369 -2.04362 0
M  V30 5038 H 495.726 1.68867 -3.71413 0
M  V30 5039 H 494.401 0.608033 -4.11431 0
M  V30 5040 H 492.978 2.11392 -3.07193 0
M  V30 5041 N 495.163 1.55791 0.238111 0
M  V30 5042 C 496.574 1.68383 0.806472 0
M  V30 5043 C 496.925 0.634157 1.85669 0
M  V30 5044 O 496.05 -0.217913 2.153 0
M  V30 5045 C 496.645 3.05268 1.46959 0
M  V30 5046 C 495.204 3.1977 1.98555 0
M  V30 5047 C 494.351 2.64279 0.839763 0
M  V30 5048 H 497.302 1.58694 0.0137535 0
M  V30 5049 H 497.323 3.00203 2.33792 0
M  V30 5050 H 496.835 3.81643 0.704993 0
M  V30 5051 H 494.936 2.48234 2.77868 0
M  V30 5052 H 495.049 4.26788 2.17689 0
M  V30 5053 H 493.413 2.22329 1.24265 0
M  V30 5054 H 494.196 3.43187 0.0881032 0
M  V30 5055 N 496.642 -0.504142 1.49319 0
M  V30 5056 C 497.867 -1.28729 1.62615 0
M  V30 5057 C 498.292 -1.85752 0.296309 0
M  V30 5058 O 497.65 -1.65704 -0.735649 0
M  V30 5059 C 497.698 -2.39561 2.69524 0
M  V30 5060 O 496.802 -3.43324 2.28478 0
M  V30 5061 H 496.143 -0.380172 0.544395 0
M  V30 5062 H 498.673 -0.603872 1.95485 0
M  V30 5063 H 498.683 -2.8537 2.91595 0
M  V30 5064 H 497.358 -1.97423 3.66056 0
M  V30 5065 H 495.935 -3.03455 2.16725 0
M  V30 5066 N 498.12 -1.38341 -0.754957 0
M  V30 5067 C 499.067 -1.3546 -1.86867 0
M  V30 5068 C 500.037 -0.217369 -1.64672 0
M  V30 5069 O 501.222 -0.409383 -1.86356 0
M  V30 5070 C 498.362 -1.18413 -3.24149 0
M  V30 5071 C 497.475 -2.41511 -3.58185 0
M  V30 5072 C 496.61 -2.17205 -4.84763 0
M  V30 5073 C 495.649 -3.36081 -5.11582 0
M  V30 5074 N 494.786 -3.11219 -6.29354 0
M  V30 5075 H 499.626 -2.30672 -1.88664 0
M  V30 5076 H 497.163 -1.14607 -0.922154 0
M  V30 5077 H 499.121 -1.06545 -4.03366 0
M  V30 5078 H 497.751 -0.268397 -3.21682 0
M  V30 5079 H 496.803 -2.64056 -2.73822 0
M  V30 5080 H 498.115 -3.30115 -3.73932 0
M  V30 5081 H 497.269 -2.02465 -5.7192 0
M  V30 5082 H 496.008 -1.25964 -4.71152 0
M  V30 5083 H 495.013 -3.51341 -4.22894 0
M  V30 5084 H 496.238 -4.28196 -5.27091 0
M  V30 5085 H 494.184 -2.22624 -6.17069 0
M  V30 5086 H 494.101 -3.93373 -6.45596 0
M  V30 5087 H 495.369 -3.00132 -7.19403 0
M  V30 5088 N 499.598 0.982988 -1.23187 0
M  V30 5089 C 500.823 1.76455 -1.08988 0
M  V30 5090 C 501.248 1.84726 0.354691 0
M  V30 5091 O 500.606 1.30699 1.25649 0
M  V30 5092 C 500.654 3.17094 -1.71708 0
M  V30 5093 O 499.758 4.00648 -0.977477 0
M  V30 5094 H 499.099 0.542988 -0.382177 0
M  V30 5095 H 501.629 1.23413 -1.63188 0
M  V30 5096 H 501.639 3.67684 -1.76841 0
M  V30 5097 H 500.314 3.10389 -2.76823 0
M  V30 5098 H 498.891 3.59161 -1.0029 0
M  V30 5099 N 501.076 1.04316 1.18135 0
M  V30 5100 C 502.325 0.74319 1.87509 0
M  V30 5101 C 502.638 -0.732136 1.81381 0
M  V30 5102 O 503.844 -1.14572 2.46141 0
M  V30 5103 C 502.3 1.27913 3.36402 0
M  V30 5104 C 501.908 2.78326 3.51053 0
M  V30 5105 C 503.652 1.0558 4.11161 0
M  V30 5106 C 501.559 3.25266 4.93919 0
M  V30 5107 H 500.489 0.274313 0.702331 0
M  V30 5108 H 503.14 1.25931 1.33467 0
M  V30 5109 H 501.522 0.690853 3.89927 0
M  V30 5110 H 502.696 3.42933 3.07788 0
M  V30 5111 H 501.011 2.991 2.89704 0
M  V30 5112 H 503.608 1.38161 5.16542 0
M  V30 5113 H 503.951 -0.00684729 4.16299 0
M  V30 5114 H 504.484 1.60882 3.63816 0
M  V30 5115 H 501.223 4.30922 4.9395 0
M  V30 5116 H 500.743 2.65396 5.3789 0
M  V30 5117 H 502.422 3.19433 5.62647 0
M  V30 5118 N 502.554 -1.34406 0.822964 0
M  V30 5119 C 503.965 -1.8069 0.469879 0
M  V30 5120 C 504.316 -1.68223 -1.00972 0
M  V30 5121 O 503.441 -1.22226 -1.78577 0
M  V30 5122 C 504.036 -3.28064 0.846118 0
M  V30 5123 C 502.595 -3.72428 0.545402 0
M  V30 5124 C 501.742 -2.56116 1.06301 0
M  V30 5125 H 504.693 -1.22153 1.01313 0
M  V30 5126 H 504.714 -3.80205 0.149922 0
M  V30 5127 H 504.226 -3.37107 1.92304 0
M  V30 5128 H 502.327 -3.68924 -0.522109 0
M  V30 5129 H 502.44 -4.66548 1.0895 0
M  V30 5130 H 500.804 -2.50048 0.484554 0
M  V30 5131 H 501.587 -2.67928 2.14638 0
M  V30 5132 N 504.032 -0.577932 -1.46621 0
M  V30 5133 C 505.281 -0.0594281 -2.01612 0
M  V30 5134 C 505.594 1.30663 -1.45556 0
M  V30 5135 O 506.8 1.91621 -1.92337 0
M  V30 5136 C 505.256 -0.0556666 -3.59857 0
M  V30 5137 C 504.864 -1.41975 -4.24908 0
M  V30 5138 C 506.608 0.409143 -4.22524 0
M  V30 5139 C 504.515 -1.37397 -5.75218 0
M  V30 5140 H 503.445 -0.0184469 -0.753774 0
M  V30 5141 H 506.096 -0.728869 -1.68404 0
M  V30 5142 H 504.478 0.679843 -3.90121 0
M  V30 5143 H 505.652 -2.17461 -4.0626 0
M  V30 5144 H 503.967 -1.82419 -3.74316 0
M  V30 5145 H 506.564 0.46211 -5.32699 0
M  V30 5146 H 506.907 1.42565 -3.91128 0
M  V30 5147 H 507.44 -0.272152 -3.96868 0
M  V30 5148 H 504.179 -2.36714 -6.11267 0
M  V30 5149 H 503.699 -0.661239 -5.96144 0
M  V30 5150 H 505.378 -1.08484 -6.3784 0
M  V30 5151 N 505.51 1.54411 -0.315457 0
M  V30 5152 C 506.921 1.85885 0.174265 0
M  V30 5153 C 507.272 1.23723 1.52273 0
M  V30 5154 O 506.397 0.540246 2.09548 0
M  V30 5155 C 506.992 3.37257 0.322981 0
M  V30 5156 C 505.551 3.68711 0.756922 0
M  V30 5157 C 504.698 2.77013 -0.126195 0
M  V30 5158 H 507.649 1.49374 -0.536007 0
M  V30 5159 H 507.67 3.62539 1.15522 0
M  V30 5160 H 507.182 3.82471 -0.658602 0
M  V30 5161 H 505.283 3.29024 1.74854 0
M  V30 5162 H 505.396 4.75741 0.566291 0
M  V30 5163 H 503.76 2.51588 0.39692 0
M  V30 5164 H 504.543 3.25051 -1.1044 0
M  V30 5165 N 506.988 0.0434614 1.5754 0
M  V30 5166 C 507.92 -0.962586 2.08007 0
M  V30 5167 C 508.933 -1.27972 1.00634 0
M  V30 5168 O 510.122 -1.24186 1.28219 0
M  V30 5169 C 507.222 -2.28621 2.50171 0
M  V30 5170 C 506.395 -2.15214 3.80791 0
M  V30 5171 C 505.454 -3.30633 4.09351 0
M  V30 5172 O 504.48 -3.0688 4.79388 0
M  V30 5173 N 505.682 -4.54873 3.60654 0
M  V30 5174 H 508.447 -0.531891 2.94942 0
M  V30 5175 H 506.008 -0.142965 1.61268 0
M  V30 5176 H 508 -3.04689 2.66359 0
M  V30 5177 H 506.57 -2.63283 1.68525 0
M  V30 5178 H 505.79 -1.23785 3.74261 0
M  V30 5179 H 507.078 -2.03475 4.66343 0
M  V30 5180 H 506.476 -4.77063 3.04019 0
M  V30 5181 H 505.033 -5.2806 3.82094 0
M  V30 5182 N 508.466 -1.55915 -0.229846 0
M  V30 5183 C 509.877 -1.68809 -0.797531 0
M  V30 5184 C 510.228 -0.643995 -1.8533 0
M  V30 5185 O 509.353 0.206492 -2.15413 0
M  V30 5186 C 509.948 -3.06043 -1.45338 0
M  V30 5187 C 508.507 -3.20819 -1.96856 0
M  V30 5188 C 507.654 -2.6472 -0.825736 0
M  V30 5189 H 510.605 -1.58699 -0.00533733 0
M  V30 5190 H 510.626 -3.01438 -2.32196 0
M  V30 5191 H 510.138 -3.82012 -0.684743 0
M  V30 5192 H 508.239 -2.49704 -2.76548 0
M  V30 5193 H 508.352 -4.27937 -2.15423 0
M  V30 5194 H 506.716 -2.22985 -1.23084 0
M  V30 5195 H 507.499 -3.43229 -0.0699019 0
M  V30 5196 N 509.944 0.496216 -1.49584 0
M  V30 5197 C 511.191 1.25003 -1.59312 0
M  V30 5198 C 511.519 1.92445 -0.28198 0
M  V30 5199 O 510.774 1.81557 0.730452 0
M  V30 5200 C 511.073 2.3359 -2.705 0
M  V30 5201 C 510.739 1.83574 -4.11839 0
M  V30 5202 C 509.401 1.69653 -4.50302 0
M  V30 5203 C 511.753 1.46193 -5.00277 0
M  V30 5204 C 509.081 1.16736 -5.74969 0
M  V30 5205 C 511.433 0.947265 -6.25468 0
M  V30 5206 C 510.097 0.794485 -6.62755 0
M  V30 5207 H 509.367 0.45742 -0.582965 0
M  V30 5208 H 512.014 0.549996 -1.83432 0
M  V30 5209 H 510.319 3.09401 -2.40371 0
M  V30 5210 H 512.016 2.91627 -2.75235 0
M  V30 5211 H 508.606 1.9537 -3.81482 0
M  V30 5212 H 512.79 1.55793 -4.71214 0
M  V30 5213 H 508.046 1.03623 -6.02555 0
M  V30 5214 H 512.22 0.648846 -6.93371 0
M  V30 5215 H 509.847 0.382271 -7.59238 0
M  V30 5216 N 511.423 1.38739 0.74761 0
M  V30 5217 C 512.839 1.20067 1.05148 0
M  V30 5218 C 513.039 0.0534835 2.01429 0
M  V30 5219 O 512.095 -0.59886 2.45296 0
M  V30 5220 C 513.408 2.52957 1.62584 0
M  V30 5221 C 514.956 2.59692 1.74726 0
M  V30 5222 C 515.431 3.92772 2.35573 0
M  V30 5223 N 516.922 3.94343 2.42997 0
M  V30 5224 C 517.657 4.9408 2.90985 0
M  V30 5225 N 517.153 6.04214 3.38965 0
M  V30 5226 N 518.946 4.81466 2.9008 0
M  V30 5227 H 511.097 2.12121 0.108808 0
M  V30 5228 H 513.36 0.941491 0.110899 0
M  V30 5229 H 513.066 3.37389 0.993051 0
M  V30 5230 H 512.94 2.71779 2.61565 0
M  V30 5231 H 515.327 1.75651 2.3713 0
M  V30 5232 H 515.408 2.44731 0.744326 0
M  V30 5233 H 515.052 4.77238 1.738 0
M  V30 5234 H 514.982 4.05046 3.36519 0
M  V30 5235 H 517.473 3.14799 2.0907 0
M  V30 5236 H 517.786 6.76241 3.74056 0
M  V30 5237 H 516.131 6.07825 3.37007 0
M  V30 5238 H 519.322 3.94535 2.51912 0
M  V30 5239 H 519.495 5.59344 3.27166 0
M  V30 5240 N 512.901 -0.976442 1.23707 0
M  V30 5241 C 514.312 -1.53284 1.06587 0
M  V30 5242 C 514.663 -1.92765 -0.365526 0
M  V30 5243 O 513.788 -1.7645 -1.25277 0
M  V30 5244 C 514.383 -2.78548 1.92864 0
M  V30 5245 C 512.942 -3.30574 1.79994 0
M  V30 5246 C 512.089 -2.03538 1.88328 0
M  V30 5247 H 515.04 -0.795692 1.37311 0
M  V30 5248 H 515.061 -3.5155 1.45577 0
M  V30 5249 H 514.573 -2.49782 2.97037 0
M  V30 5250 H 512.674 -3.64211 0.786202 0
M  V30 5251 H 512.787 -4.00065 2.636 0
M  V30 5252 H 511.151 -2.17853 1.31954 0
M  V30 5253 H 511.934 -1.77149 2.94063 0
M  V30 5254 N 514.379 -1.04941 -1.1758 0
M  V30 5255 C 515.342 -0.652456 -2.19717 0
M  V30 5256 C 516.342 0.294745 -1.58076 0
M  V30 5257 O 517.532 0.0789579 -1.74021 0
M  V30 5258 C 514.664 0.0420712 -3.40874 0
M  V30 5259 H 515.857 -1.55642 -2.5635 0
M  V30 5260 H 513.41 -0.842995 -1.31618 0
M  V30 5261 H 514.145 0.95943 -3.09783 0
M  V30 5262 H 513.93 -0.638844 -3.86861 0
M  V30 5263 H 515.42 0.306 -4.16477 0
M  V30 5264 N 515.857 1.33968 -0.830081 0
M  V30 5265 C 517.134 1.92554 -0.343858 0
M  V30 5266 C 517.514 1.7573 1.16971 0
M  V30 5267 O 516.862 1.14035 1.98011 0
M  V30 5268 C 517.072 3.40147 -0.781073 0
M  V30 5269 C 518.42 4.17299 -0.78402 0
M  V30 5270 O 519.444 3.48762 -0.724112 0
M  V30 5271 O 518.303 5.39631 -0.863739 0
M  V30 5272 H 515.397 0.821469 -0.0954827 0
M  V30 5273 H 517.943 1.42897 -0.915348 0
M  V30 5274 H 516.715 3.46225 -1.82329 0
M  V30 5275 H 516.338 3.97166 -0.18567 0
M  V30 5276 N 517.335 0.585699 1.46312 0
M  V30 5277 C 518.245 -0.148236 2.34131 0
M  V30 5278 C 519.261 -0.882972 1.49932 0
M  V30 5279 O 520.437 -0.845484 1.82794 0
M  V30 5280 C 517.502 -1.14714 3.27172 0
M  V30 5281 C 516.563 -0.416746 4.27272 0
M  V30 5282 C 515.796 -1.36806 5.15868 0
M  V30 5283 O 516.019 -2.60475 5.07454 0
M  V30 5284 O 514.953 -0.877018 5.95476 0
M  V30 5285 H 518.779 0.572882 2.98248 0
M  V30 5286 H 516.364 0.346082 1.45336 0
M  V30 5287 H 518.246 -1.72303 3.84564 0
M  V30 5288 H 516.921 -1.84967 2.65648 0
M  V30 5289 H 515.828 0.201061 3.73559 0
M  V30 5290 H 517.161 0.244872 4.9159 0
M  V30 5291 N 518.813 -1.54241 0.323641 0
M  V30 5292 C 520.09 -1.92741 -0.333181 0
M  V30 5293 C 520.47 -1.25326 -1.69872 0
M  V30 5294 O 519.818 -0.396991 -2.25025 0
M  V30 5295 C 520.028 -3.46399 -0.425322 0
M  V30 5296 C 521.376 -4.19029 -0.68557 0
M  V30 5297 O 522.4 -3.52555 -0.50824 0
M  V30 5298 O 521.259 -5.36751 -1.02767 0
M  V30 5299 H 518.353 -0.804811 -0.190286 0
M  V30 5300 H 520.899 -1.65542 0.373361 0
M  V30 5301 H 519.671 -3.87643 0.533737 0
M  V30 5302 H 519.294 -3.79704 -1.17944 0
M  V30 5303 N 520.291 -0.0518155 -1.57515 0
M  V30 5304 C 521.241 0.932017 -2.0808 0
M  V30 5305 C 522.225 1.27141 -0.986098 0
M  V30 5306 O 523.417 1.25373 -1.24943 0
M  V30 5307 C 520.546 2.20665 -2.62986 0
M  V30 5308 C 519.632 1.89462 -3.79427 0
M  V30 5309 N 520.023 1.28621 -4.89173 0
M  V30 5310 C 518.321 2.19327 -3.88345 0
M  V30 5311 C 519.022 1.15062 -5.70207 0
M  V30 5312 N 517.998 1.65372 -5.17835 0
M  V30 5313 H 521.8 0.456964 -2.90326 0
M  V30 5314 H 519.314 0.152619 -1.61681 0
M  V30 5315 H 521.311 2.92044 -2.97516 0
M  V30 5316 H 519.971 2.68776 -1.8218 0
M  V30 5317 H 520.982 0.958341 -5.08956 0
M  V30 5318 H 517.659 2.69955 -3.18482 0
M  V30 5319 H 519.049 0.678243 -6.68468 0
M  V30 5320 N 521.769 1.56035 0.221574 0
M  V30 5321 C 523.185 1.49026 0.571271 0
M  V30 5322 C 523.385 0.746912 1.87146 0
M  V30 5323 O 522.441 0.286566 2.50869 0
M  V30 5324 C 523.754 2.93579 0.650522 0
M  V30 5325 C 525.302 3.04099 0.741151 0
M  V30 5326 C 525.777 4.5001 0.851747 0
M  V30 5327 N 527.268 4.54053 0.915968 0
M  V30 5328 C 528.003 5.64232 1.02125 0
M  V30 5329 N 527.499 6.84164 1.09049 0
M  V30 5330 N 529.292 5.52084 1.05639 0
M  V30 5331 H 521.443 2.02791 -0.63162 0
M  V30 5332 H 523.706 0.921736 -0.221602 0
M  V30 5333 H 523.412 3.50912 -0.235253 0
M  V30 5334 H 523.286 3.45476 1.51413 0
M  V30 5335 H 525.673 2.4683 1.61737 0
M  V30 5336 H 525.754 2.55371 -0.148128 0
M  V30 5337 H 525.398 5.07896 -0.0200117 0
M  V30 5338 H 525.328 4.96444 1.75644 0
M  V30 5339 H 527.819 3.67683 0.872782 0
M  V30 5340 H 528.132 7.63883 1.1706 0
M  V30 5341 H 526.477 6.86875 1.05962 0
M  V30 5342 H 529.668 4.57317 0.998953 0
M  V30 5343 H 529.841 6.37983 1.13498 0
M  V30 5344 N 523.247 -0.488276 1.49845 0
M  V30 5345 C 524.195 -1.60917 1.67954 0
M  V30 5346 C 525.189 -1.6038 0.54539 0
M  V30 5347 O 526.395 -1.64736 0.7254 0
M  V30 5348 H 522.77 -0.533658 0.529824 0
M  V30 5349 H 524.741 -1.428 2.62013 0
M  V30 5350 C 523.49 -2.98975 1.77509 0
M  V30 5351 H 522.813 -3.00099 2.6416 0
M  V30 5352 H 524.253 -3.76906 1.9421 0
M  V30 5353 C 522.712 -3.3282 0.522745 0
M  V30 5354 O 523.242 -4.00208 -0.345866 0
M  V30 5355 N 521.448 -2.8808 0.381882 0
M  V30 5356 H 520.995 -2.33415 1.08974 0
M  V30 5357 H 520.953 -3.11091 -0.454929 0
M  V30 5358 N 524.725 -1.39134 -0.740242 0
M  V30 5359 C 525.657 -1.33332 -1.86428 0
M  V30 5360 C 526.67 -0.243042 -1.60976 0
M  V30 5361 O 527.859 -0.501608 -1.71307 0
M  V30 5362 C 524.959 -1.04626 -3.22346 0
M  V30 5363 C 524.132 -2.24826 -3.75196 0
M  V30 5364 C 523.191 -1.92659 -4.89662 0
M  V30 5365 O 522.217 -2.6529 -5.03597 0
M  V30 5366 N 523.419 -0.889575 -5.73643 0
M  V30 5367 H 526.184 -2.30196 -1.91911 0
M  V30 5368 H 523.745 -1.33168 -0.920756 0
M  V30 5369 H 525.737 -0.811347 -3.96484 0
M  V30 5370 H 524.307 -0.165129 -3.12164 0
M  V30 5371 H 523.527 -2.64301 -2.9247 0
M  V30 5372 H 524.815 -3.05015 -4.07239 0
M  V30 5373 H 524.213 -0.287529 -5.64969 0
M  V30 5374 H 522.77 -0.714557 -6.47871 0
M  V30 5375 N 526.204 0.969867 -1.24223 0
M  V30 5376 C 527.451 1.71256 -1.08063 0
M  V30 5377 C 527.779 1.90734 0.380872 0
M  V30 5378 O 527.034 1.46469 1.29789 0
M  V30 5379 C 527.333 3.10883 -1.76314 0
M  V30 5380 C 526.999 3.11252 -3.26241 0
M  V30 5381 C 525.661 3.1106 -3.67144 0
M  V30 5382 C 528.013 3.05751 -4.22097 0
M  V30 5383 C 525.341 3.03097 -5.02344 0
M  V30 5384 C 527.693 2.9933 -5.57301 0
M  V30 5385 C 526.357 2.97466 -5.97554 0
M  V30 5386 H 525.627 0.62667 -0.395431 0
M  V30 5387 H 528.274 1.13422 -1.54297 0
M  V30 5388 H 526.579 3.72168 -1.22468 0
M  V30 5389 H 528.276 3.67138 -1.61277 0
M  V30 5390 H 524.866 3.12165 -2.93685 0
M  V30 5391 H 529.05 3.05031 -3.91497 0
M  V30 5392 H 524.306 3.00013 -5.32731 0
M  V30 5393 H 528.48 2.94033 -6.31283 0
M  V30 5394 H 526.107 2.91051 -7.02277 0
M  V30 5395 N 527.682 1.05563 1.17022 0
M  V30 5396 C 528.93 0.76642 1.87004 0
M  V30 5397 C 529.251 -0.708854 1.8166 0
M  V30 5398 O 528.521 -1.51242 1.2451 0
M  V30 5399 H 527.101 0.280516 0.692329 0
M  V30 5400 H 529.763 1.33557 1.41945 0
M  V30 5401 H 528.859 1.08472 2.92644 0
M  V30 5402 N 529.16 -1.33526 0.837174 0
M  V30 5403 C 530.092 -2.28077 0.226579 0
M  V30 5404 C 531.105 -1.51666 -0.591717 0
M  V30 5405 O 532.294 -1.73511 -0.419064 0
M  V30 5406 C 529.394 -3.31597 -0.69978 0
M  V30 5407 C 528.567 -4.37329 0.0788067 0
M  V30 5408 C 527.626 -5.20526 -0.770637 0
M  V30 5409 O 526.652 -5.68811 -0.210453 0
M  V30 5410 N 527.854 -5.41639 -2.08825 0
M  V30 5411 H 530.619 -2.81115 1.03897 0
M  V30 5412 H 528.18 -1.46201 0.695476 0
M  V30 5413 H 530.172 -3.84158 -1.27298 0
M  V30 5414 H 528.742 -2.78848 -1.41288 0
M  V30 5415 H 527.962 -3.8529 0.833381 0
M  V30 5416 H 529.25 -5.05079 0.614238 0
M  V30 5417 H 528.648 -5.04108 -2.56693 0
M  V30 5418 H 527.205 -5.97263 -2.60998 0
M  V30 5419 N 530.638 -0.59345 -1.46 0
M  V30 5420 C 532.054 -0.255965 -1.57534 0
M  V30 5421 C 532.254 1.24167 -1.58697 0
M  V30 5422 O 531.31 2.02398 -1.50968 0
M  V30 5423 C 532.623 -0.91466 -2.86451 0
M  V30 5424 C 534.171 -0.889253 -3.00102 0
M  V30 5425 C 534.646 -1.52769 -4.3177 0
M  V30 5426 N 536.137 -1.49253 -4.38495 0
M  V30 5427 C 536.872 -1.9558 -5.39014 0
M  V30 5428 N 536.368 -2.49929 -6.46148 0
M  V30 5429 N 538.161 -1.86432 -5.30282 0
M  V30 5430 H 530.312 -1.56604 -1.43489 0
M  V30 5431 H 532.575 -0.655207 -0.685133 0
M  V30 5432 H 532.281 -1.96861 -2.91442 0
M  V30 5433 H 532.155 -0.429356 -3.74748 0
M  V30 5434 H 534.542 0.156111 -2.94687 0
M  V30 5435 H 534.623 -1.41268 -2.13253 0
M  V30 5436 H 534.267 -2.57231 -4.37944 0
M  V30 5437 H 534.197 -0.979398 -5.17412 0
M  V30 5438 H 536.688 -1.09536 -3.61677 0
M  V30 5439 H 537.001 -2.83109 -7.19075 0
M  V30 5440 H 535.346 -2.53961 -6.46938 0
M  V30 5441 H 538.537 -1.43722 -4.4549 0
M  V30 5442 H 538.71 -2.22852 -6.08474 0
M  V30 5443 N 532.116 1.54067 -0.331816 0
M  V30 5444 C 533.393 1.92915 0.322955 0
M  V30 5445 C 533.773 1.26225 1.69205 0
M  V30 5446 O 533.121 0.408919 2.24811 0
M  V30 5447 C 533.331 3.46619 0.406946 0
M  V30 5448 C 534.679 4.19386 0.663339 0
M  V30 5449 O 535.703 3.5282 0.489536 0
M  V30 5450 O 534.562 5.37288 0.999193 0
M  V30 5451 H 531.656 0.805808 0.186016 0
M  V30 5452 H 534.202 1.65342 -0.382135 0
M  V30 5453 H 532.974 3.87354 -0.554287 0
M  V30 5454 H 532.597 3.80324 1.15929 0
M  V30 5455 N 533.594 0.0601682 1.57485 0
M  V30 5456 C 535.01 -0.296422 1.56823 0
M  V30 5457 C 535.21 -1.70831 1.0686 0
M  V30 5458 O 534.266 -2.4174 0.729245 0
M  V30 5459 C 535.579 -0.116681 3.00474 0
M  V30 5460 C 537.127 -0.187103 3.1244 0
M  V30 5461 C 537.602 -0.035783 4.57986 0
M  V30 5462 N 539.093 -0.0917676 4.63109 0
M  V30 5463 C 539.828 0.00107251 5.734 0
M  V30 5464 N 539.324 0.146773 6.92645 0
M  V30 5465 N 541.117 -0.0551577 5.62073 0
M  V30 5466 H 533.268 0.983055 1.88281 0
M  V30 5467 H 535.531 0.382386 0.867459 0
M  V30 5468 H 535.237 0.85712 3.41096 0
M  V30 5469 H 535.111 -0.873929 3.66936 0
M  V30 5470 H 537.498 -1.15138 2.71712 0
M  V30 5471 H 537.579 0.601052 2.48638 0
M  V30 5472 H 537.223 0.925212 4.99402 0
M  V30 5473 H 537.153 -0.843196 5.19806 0
M  V30 5474 H 539.644 -0.203261 3.77353 0
M  V30 5475 H 539.957 0.210076 7.72514 0
M  V30 5476 H 538.302 0.181979 6.94762 0
M  V30 5477 H 541.493 -0.167605 4.678 0
M  V30 5478 H 541.666 0.020652 6.47997 0
M  V30 5479 N 535.072 -1.5615 -0.213296 0
M  V30 5480 C 536.297 -1.83986 -0.957282 0
M  V30 5481 C 536.722 -0.641526 -1.76822 0
M  V30 5482 O 536.08 0.409722 -1.7661 0
M  V30 5483 C 536.128 -3.09889 -1.84393 0
M  V30 5484 O 535.232 -2.89163 -2.94038 0
M  V30 5485 H 534.573 -0.606357 -0.270605 0
M  V30 5486 H 537.103 -2.03369 -0.224111 0
M  V30 5487 H 537.113 -3.40209 -2.25215 0
M  V30 5488 H 535.788 -3.96735 -1.24795 0
M  V30 5489 H 534.365 -2.70097 -2.57103 0
M  V30 5490 N 536.55 0.480323 -1.50102 0
M  V30 5491 C 537.775 1.26126 -1.64642 0
M  V30 5492 C 538.2 1.85257 -0.325823 0
M  V30 5493 O 537.558 1.66854 0.709194 0
M  V30 5494 C 537.606 2.35243 -2.73301 0
M  V30 5495 O 536.71 3.39646 -2.33911 0
M  V30 5496 H 536.051 0.371463 -0.550374 0
M  V30 5497 H 538.581 0.572696 -1.96421 0
M  V30 5498 H 538.591 2.80695 -2.96098 0
M  V30 5499 H 537.266 1.91574 -3.6915 0
M  V30 5500 H 535.843 2.99969 -2.21525 0
M  V30 5501 N 538.028 1.39524 0.732853 0
M  V30 5502 C 539.253 1.40329 1.52717 0
M  V30 5503 C 539.678 0.000286574 1.881 0
M  V30 5504 O 539.036 -0.987262 1.52062 0
M  V30 5505 C 539.084 2.28464 2.78992 0
M  V30 5506 O 538.188 1.716 3.75003 0
M  V30 5507 H 537.529 0.47778 0.461109 0
M  V30 5508 H 540.059 1.83546 0.903996 0
M  V30 5509 H 540.069 2.43051 3.27705 0
M  V30 5510 H 538.744 3.30425 2.52572 0
M  V30 5511 H 537.321 1.66267 3.33781 0
M  V30 5512 N 539.506 -0.963266 1.24736 0
M  V30 5513 C 540.469 -2.04013 1.04457 0
M  V30 5514 C 541.469 -1.608 0.000335555 0
M  V30 5515 O 542.659 -1.72515 0.241719 0
M  V30 5516 C 539.791 -3.35858 0.584162 0
M  V30 5517 H 540.984 -2.23436 2.00041 0
M  V30 5518 H 538.537 -1.13914 1.07021 0
M  V30 5519 H 539.272 -3.22128 -0.374673 0
M  V30 5520 H 539.057 -3.68568 1.3379 0
M  V30 5521 H 540.547 -4.1502 0.463451 0
M  V30 5522 N 540.985 -1.06182 -1.16461 0
M  V30 5523 C 542.396 -0.802426 -1.68576 0
M  V30 5524 C 542.747 0.67412 -1.84255 0
M  V30 5525 O 541.872 1.52303 -1.5373 0
M  V30 5526 C 542.467 -1.45002 -3.06202 0
M  V30 5527 C 541.026 -1.23843 -3.55443 0
M  V30 5528 C 540.173 -1.52724 -2.31454 0
M  V30 5529 H 543.124 -1.22545 -1.00839 0
M  V30 5530 H 543.145 -0.864731 -3.70544 0
M  V30 5531 H 542.657 -2.52466 -2.94759 0
M  V30 5532 H 540.758 -0.183487 -3.72148 0
M  V30 5533 H 540.871 -1.95036 -4.37604 0
M  V30 5534 H 539.235 -0.947726 -2.36411 0
M  V30 5535 H 540.018 -2.61343 -2.22609 0
M  V30 5536 N 542.463 1.3308 -0.844243 0
M  V30 5537 C 543.411 2.31028 -0.269954 0
M  V30 5538 C 544.405 1.58381 0.600997 0
M  V30 5539 O 545.611 1.73203 0.48996 0
M  V30 5540 H 541.986 0.748866 -0.0685782 0
M  V30 5541 H 543.957 2.76967 -1.11049 0
M  V30 5542 C 542.706 3.43549 0.535676 0
M  V30 5543 H 542.029 3.99604 -0.125202 0
M  V30 5544 H 543.469 4.14267 0.903262 0
M  V30 5545 C 541.928 2.8988 1.71672 0
M  V30 5546 O 542.458 2.86511 2.81557 0
M  V30 5547 N 540.664 2.46416 1.54037 0
M  V30 5548 H 540.211 2.49356 0.64649 0
M  V30 5549 H 540.169 2.1086 2.33207 0
M  V30 5550 N 543.941 0.601185 1.45683 0
M  V30 5551 C 545.187 0.0940202 2.02582 0
M  V30 5552 C 545.52 -1.26972 1.46941 0
M  V30 5553 O 544.795 -1.83613 0.641612 0
M  V30 5554 C 545.078 0.0481715 3.60068 0
M  V30 5555 C 544.931 1.44212 4.26055 0
M  V30 5556 C 546.25 -0.642975 4.35378 0
M  V30 5557 H 543.369 0.0356404 0.736138 0
M  V30 5558 H 546.011 0.771929 1.73612 0
M  V30 5559 H 544.161 -0.529128 3.8488 0
M  V30 5560 H 545.833 2.06601 4.12449 0
M  V30 5561 H 544.076 2.00465 3.84703 0
M  V30 5562 H 544.747 1.36234 5.34925 0
M  V30 5563 H 547.223 -0.152351 4.15821 0
M  V30 5564 H 546.099 -0.644141 5.45107 0
M  V30 5565 H 546.36 -1.70785 4.0778 0
M  V30 5566 N 545.419 -1.53889 0.339982 0
M  V30 5567 C 546.369 -2.2165 -0.534354 0
M  V30 5568 C 547.353 -1.20266 -1.06887 0
M  V30 5569 O 548.545 -1.45827 -1.00316 0
M  V30 5570 C 545.674 -2.99014 -1.68659 0
M  V30 5571 C 544.76 -4.07751 -1.16618 0
M  V30 5572 N 545.151 -5.04469 -0.366717 0
M  V30 5573 C 543.449 -4.21998 -1.4434 0
M  V30 5574 C 544.15 -5.81638 -0.0847275 0
M  V30 5575 N 543.126 -5.39388 -0.675391 0
M  V30 5576 H 546.928 -2.93781 0.0835562 0
M  V30 5577 H 544.442 -1.61736 0.146665 0
M  V30 5578 H 546.439 -3.46056 -2.32489 0
M  V30 5579 H 545.099 -2.28408 -2.30781 0
M  V30 5580 H 546.11 -5.17899 -0.00811038 0
M  V30 5581 H 542.787 -3.62612 -2.06928 0
M  V30 5582 H 544.177 -6.69563 0.559943 0
M  V30 5583 N 546.897 -0.0685191 -1.57451 0
M  V30 5584 C 548.146 0.600898 -1.92541 0
M  V30 5585 C 548.459 1.70967 -0.950239 0
M  V30 5586 O 549.665 2.43844 -1.19384 0
M  V30 5587 C 548.121 1.12019 -3.42023 0
M  V30 5588 C 547.729 0.0426028 -4.4798 0
M  V30 5589 C 549.473 1.76386 -3.86119 0
M  V30 5590 C 547.38 0.575759 -5.88591 0
M  V30 5591 H 546.31 0.228225 -0.71863 0
M  V30 5592 H 548.961 -0.140223 -1.82963 0
M  V30 5593 H 547.343 1.91418 -3.46663 0
M  V30 5594 H 548.517 -0.73182 -4.54952 0
M  V30 5595 H 546.832 -0.504642 -4.13331 0
M  V30 5596 H 549.429 2.17302 -4.88553 0
M  V30 5597 H 549.772 2.62255 -3.23308 0
M  V30 5598 H 550.305 1.03615 -3.84069 0
M  V30 5599 H 547.044 -0.245691 -6.55039 0
M  V30 5600 H 546.564 1.31778 -5.85145 0
M  V30 5601 H 548.243 1.0532 -6.3837 0
M  V30 5602 N 548.375 1.56261 0.205012 0
M  V30 5603 C 549.323 1.94631 1.27364 0
M  V30 5604 C 550.317 0.830434 1.47649 0
M  V30 5605 O 551.523 1.01538 1.48627 0
M  V30 5606 H 547.898 0.618755 0.427371 0
M  V30 5607 H 549.869 2.83768 0.922941 0
M  V30 5608 C 548.618 2.29358 2.61324 0
M  V30 5609 H 547.941 3.14744 2.46528 0
M  V30 5610 H 549.381 2.60076 3.34868 0
M  V30 5611 C 547.84 1.12461 3.17575 0
M  V30 5612 O 548.37 0.394407 3.99759 0
M  V30 5613 N 546.576 0.904036 2.7618 0
M  V30 5614 H 546.123 1.49956 2.09454 0
M  V30 5615 H 546.081 0.123662 3.14157 0
M  V30 5616 N 549.853 -0.472356 1.50355 0
M  V30 5617 C 551.081 -1.24784 1.65035 0
M  V30 5618 C 551.496 -1.85837 0.333176 0
M  V30 5619 O 550.853 -1.69168 -0.68472 0
M  V30 5620 C 550.904 -2.35747 2.74054 0
M  V30 5621 O 550.625 -1.77197 4.00665 0
M  V30 5622 C 552.126 -3.26645 2.99696 0
M  V30 5623 H 549.346 -0.377432 0.554785 0
M  V30 5624 H 551.89 -0.563962 1.9657 0
M  V30 5625 H 550.045 -2.99912 2.45217 0
M  V30 5626 H 550.459 -2.5026 4.60945 0
M  V30 5627 H 551.933 -4.00718 3.79644 0
M  V30 5628 H 552.41 -3.8535 2.10718 0
M  V30 5629 H 553.016 -2.68218 3.3006 0
M  V30 5630 N 551.331 -1.39911 -0.725443 0
M  V30 5631 C 552.58 -1.36963 -1.48068 0
M  V30 5632 C 552.893 0.0284478 -1.95579 0
M  V30 5633 O 554.099 0.180535 -2.70899 0
M  V30 5634 C 552.555 -2.40664 -2.67598 0
M  V30 5635 C 552.163 -3.86234 -2.26997 0
M  V30 5636 C 553.907 -2.46807 -3.45379 0
M  V30 5637 C 551.814 -4.81554 -3.43307 0
M  V30 5638 H 550.744 -0.509223 -0.556065 0
M  V30 5639 H 553.395 -1.65602 -0.790454 0
M  V30 5640 H 551.777 -2.05109 -3.38742 0
M  V30 5641 H 552.951 -4.3088 -1.63337 0
M  V30 5642 H 551.266 -3.83475 -1.62284 0
M  V30 5643 H 553.863 -3.15213 -4.31909 0
M  V30 5644 H 554.206 -1.49552 -3.8851 0
M  V30 5645 H 554.739 -2.81303 -2.81271 0
M  V30 5646 H 551.478 -5.80106 -3.05217 0
M  V30 5647 H 550.998 -4.4158 -4.05915 0
M  V30 5648 H 552.677 -5.0091 -4.0951 0
M  V30 5649 N 552.809 0.956637 -1.25245 0
M  V30 5650 C 553.719 2.0868 -1.0719 0
M  V30 5651 C 554.735 1.73997 -0.00959074 0
M  V30 5652 O 555.911 2.00301 -0.210104 0
M  V30 5653 C 552.976 3.39754 -0.690526 0
M  V30 5654 C 552.037 3.88316 -1.83055 0
M  V30 5655 C 551.27 5.13134 -1.46728 0
M  V30 5656 O 551.493 5.6925 -0.362029 0
M  V30 5657 O 550.427 5.56356 -2.29677 0
M  V30 5658 H 554.253 2.26813 -2.01965 0
M  V30 5659 H 551.838 1.07098 -1.04165 0
M  V30 5660 H 553.72 4.18543 -0.489871 0
M  V30 5661 H 552.395 3.22896 0.227981 0
M  V30 5662 H 551.302 3.1054 -2.08604 0
M  V30 5663 H 552.635 4.09669 -2.72822 0
M  V30 5664 N 554.287 1.06798 1.15896 0
M  V30 5665 C 555.698 0.811355 1.68149 0
M  V30 5666 C 556.049 -0.664339 1.8461 0
M  V30 5667 O 555.174 -1.51485 1.54535 0
M  V30 5668 C 555.769 1.46624 3.05429 0
M  V30 5669 C 554.328 1.25726 3.54781 0
M  V30 5670 C 553.475 1.53949 2.3064 0
M  V30 5671 H 556.426 1.23078 1.00187 0
M  V30 5672 H 556.447 0.88437 3.7008 0
M  V30 5673 H 555.959 2.54025 2.93416 0
M  V30 5674 H 554.06 0.20322 3.72045 0
M  V30 5675 H 554.173 1.97354 4.36564 0
M  V30 5676 H 552.537 0.96025 2.35905 0
M  V30 5677 H 553.32 2.6252 2.2122 0
M  V30 5678 N 555.766 -1.3263 0.851289 0
M  V30 5679 C 557.012 -1.9766 0.453694 0
M  V30 5680 C 557.345 -1.67225 -0.987396 0
M  V30 5681 O 556.62 -0.958693 -1.69232 0
M  V30 5682 C 556.903 -3.5344 0.68936 0
M  V30 5683 C 556.756 -3.93517 2.17862 0
M  V30 5684 C 558.075 -4.39866 0.143555 0
M  V30 5685 H 555.194 -0.717989 0.166314 0
M  V30 5686 H 557.836 -1.57068 1.06909 0
M  V30 5687 H 555.986 -3.88147 0.165546 0
M  V30 5688 H 557.658 -3.69006 2.76826 0
M  V30 5689 H 555.901 -3.42798 2.65841 0
M  V30 5690 H 556.572 -5.02065 2.29422 0
M  V30 5691 H 559.048 -4.11875 0.591451 0
M  V30 5692 H 557.924 -5.47858 0.338043 0
M  V30 5693 H 558.185 -4.31696 -0.953466 0
M  V30 5694 N 557.244 -0.608902 -1.45362 0
M  V30 5695 C 558.192 0.121639 -2.32282 0
M  V30 5696 C 559.186 0.858301 -1.46046 0
M  V30 5697 O 560.392 0.773718 -1.62523 0
M  V30 5698 H 556.767 0.058086 -0.749753 0
M  V30 5699 H 558.738 -0.629866 -2.91677 0
M  V30 5700 C 557.487 1.1047 -3.29684 0
M  V30 5701 H 556.81 0.547278 -3.96036 0
M  V30 5702 H 558.25 1.58576 -3.9323 0
M  V30 5703 C 556.709 2.17891 -2.56954 0
M  V30 5704 O 557.239 3.25652 -2.35189 0
M  V30 5705 N 555.445 1.93211 -2.17066 0
M  V30 5706 H 554.992 1.05584 -2.34967 0
M  V30 5707 H 554.95 2.6529 -1.68727 0
M  V30 5708 N 558.722 1.53707 -0.348139 0
M  V30 5709 C 559.971 2.0017 0.247992 0
M  V30 5710 C 560.284 1.23983 1.51286 0
M  V30 5711 O 561.49 1.60946 2.18652 0
M  V30 5712 C 559.946 3.56515 0.492459 0
M  V30 5713 C 559.554 4.41562 -0.756777 0
M  V30 5714 C 561.298 4.11381 1.0472 0
M  V30 5715 C 559.205 5.89426 -0.482856 0
M  V30 5716 H 558.135 0.747806 0.0964452 0
M  V30 5717 H 560.786 1.77532 -0.464179 0
M  V30 5718 H 559.168 3.75236 1.26545 0
M  V30 5719 H 560.342 4.34615 -1.53122 0
M  V30 5720 H 558.657 3.97711 -1.23348 0
M  V30 5721 H 561.254 5.19468 1.26717 0
M  V30 5722 H 561.597 3.64885 2.00411 0
M  V30 5723 H 562.13 3.96389 0.334801 0
M  V30 5724 H 558.869 6.40164 -1.40962 0
M  V30 5725 H 558.389 5.99264 0.253416 0
M  V30 5726 H 560.068 6.4692 -0.101816 0
M  V30 5727 N 560.2 0.0768682 1.57412 0
M  V30 5728 C 561.477 -0.632359 1.85096 0
M  V30 5729 C 561.857 -1.87479 0.9703 0
M  V30 5730 O 561.205 -2.28469 0.0379062 0
M  V30 5731 C 561.415 -0.965174 3.35388 0
M  V30 5732 C 562.763 -1.33648 4.03018 0
M  V30 5733 O 563.787 -1.05675 3.40164 0
M  V30 5734 O 562.646 -1.85959 5.13889 0
M  V30 5735 H 559.74 -0.314574 0.764835 0
M  V30 5736 H 562.286 0.108184 1.69355 0
M  V30 5737 H 561.058 -0.0829745 3.91212 0
M  V30 5738 H 560.681 -1.76231 3.5641 0
M  V30 5739 N 561.678 -1.56367 -0.196722 0
M  V30 5740 C 562.955 -1.71359 -0.943159 0
M  V30 5741 C 563.335 -0.631192 -2.01443 0
M  V30 5742 O 562.683 0.358071 -2.25677 0
M  V30 5743 C 562.893 -3.13623 -1.53106 0
M  V30 5744 C 564.241 -3.73806 -2.01381 0
M  V30 5745 O 565.265 -3.16742 -1.62951 0
M  V30 5746 O 564.124 -4.73951 -2.7209 0
M  V30 5747 H 561.218 -0.698851 -0.442195 0
M  V30 5748 H 563.764 -1.68672 -0.186547 0
M  V30 5749 H 562.536 -3.83873 -0.758785 0
M  V30 5750 H 562.159 -3.20532 -2.35255 0
M  V30 5751 N 563.156 0.464375 -1.50603 0
M  V30 5752 C 564.086 1.56944 -1.72889 0
M  V30 5753 C 565.067 1.59979 -0.577997 0
M  V30 5754 O 566.252 1.76138 -0.817855 0
M  V30 5755 C 563.382 2.95225 -1.8292 0
M  V30 5756 C 562.336 3.07056 -2.98162 0
M  V30 5757 C 561.662 4.47051 -2.93343 0
M  V30 5758 C 562.962 2.83648 -4.38567 0
M  V30 5759 H 564.656 1.38547 -2.65415 0
M  V30 5760 H 562.202 0.665082 -1.27721 0
M  V30 5761 H 564.155 3.72467 -1.97095 0
M  V30 5762 H 562.879 3.14793 -0.870209 0
M  V30 5763 H 561.538 2.32248 -2.83648 0
M  V30 5764 H 561.186 4.63547 -1.95276 0
M  V30 5765 H 560.886 4.55902 -3.70712 0
M  V30 5766 H 562.41 5.26304 -3.09575 0
M  V30 5767 H 563.824 3.50636 -4.53572 0
M  V30 5768 H 562.221 3.03937 -5.17438 0
M  V30 5769 H 563.291 1.79451 -4.50472 0
M  V30 5770 N 564.634 1.40294 0.718013 0
M  V30 5771 C 565.883 1.37746 1.4734 0
M  V30 5772 C 566.196 -0.0180754 1.95592 0
M  V30 5773 O 567.402 -0.166166 2.70991 0
M  V30 5774 C 565.858 2.4208 2.66318 0
M  V30 5775 C 565.466 3.87432 2.24945 0
M  V30 5776 C 567.21 2.48635 3.44065 0
M  V30 5777 C 565.117 4.83368 3.40748 0
M  V30 5778 H 564.047 0.512165 0.553356 0
M  V30 5779 H 566.698 1.66019 0.781661 0
M  V30 5780 H 565.08 2.06903 3.3765 0
M  V30 5781 H 566.254 4.3174 1.6105 0
M  V30 5782 H 564.569 3.8433 1.60249 0
M  V30 5783 H 567.166 3.17499 4.30231 0
M  V30 5784 H 567.509 1.51611 3.87711 0
M  V30 5785 H 568.042 2.82791 2.79775 0
M  V30 5786 H 564.781 5.81716 3.02136 0
M  V30 5787 H 564.301 4.43726 4.03568 0
M  V30 5788 H 565.98 5.03074 4.06848 0
M  V30 5789 N 566.112 -0.949982 1.2575 0
M  V30 5790 C 567.528 -1.22191 1.02672 0
M  V30 5791 C 567.728 -1.99898 -0.253588 0
M  V30 5792 O 566.784 -2.33329 -0.965076 0
M  V30 5793 C 568.097 -1.99175 2.25277 0
M  V30 5794 C 569.645 -2.12201 2.30087 0
M  V30 5795 C 570.12 -2.92586 3.5236 0
M  V30 5796 N 571.611 -3.00163 3.52784 0
M  V30 5797 C 572.346 -3.62766 4.44059 0
M  V30 5798 N 571.842 -4.26943 5.45611 0
M  V30 5799 N 573.635 -3.59953 4.3173 0
M  V30 5800 H 565.786 -0.430258 2.07996 0
M  V30 5801 H 568.049 -0.252844 0.91366 0
M  V30 5802 H 567.755 -1.49479 3.18354 0
M  V30 5803 H 567.629 -2.99868 2.28821 0
M  V30 5804 H 570.016 -2.61093 1.3753 0
M  V30 5805 H 570.097 -1.10799 2.30559 0
M  V30 5806 H 569.741 -2.44383 4.45241 0
M  V30 5807 H 569.671 -3.94224 3.49134 0
M  V30 5808 H 572.162 -2.54529 2.79327 0
M  V30 5809 H 572.475 -4.72583 6.11461 0
M  V30 5810 H 570.82 -4.25557 5.49478 0
M  V30 5811 H 574.011 -3.09003 3.51617 0
M  V30 5812 H 574.184 -4.08455 5.03059 0
M  V30 5813 N 567.59 -1.07411 -1.15328 0
M  V30 5814 C 568.867 -0.710732 -1.82231 0
M  V30 5815 C 569.247 0.806732 -1.95077 0
M  V30 5816 O 568.595 1.72139 -1.50268 0
M  V30 5817 C 568.805 -1.42586 -3.18544 0
M  V30 5818 C 570.153 -1.57836 -3.94174 0
M  V30 5819 O 571.177 -1.38669 -3.281 0
M  V30 5820 O 570.036 -1.8938 -5.12638 0
M  V30 5821 H 567.13 -0.25297 -0.78736 0
M  V30 5822 H 569.676 -1.17508 -1.22434 0
M  V30 5823 H 568.448 -2.46008 -3.04296 0
M  V30 5824 H 568.071 -0.952332 -3.86026 0
M  V30 5825 N 569.068 1.32177 -0.85831 0
M  V30 5826 C 570 2.27688 -0.262835 0
M  V30 5827 C 571.013 1.52588 0.567513 0
M  V30 5828 O 572.202 1.74156 0.391407 0
M  V30 5829 C 569.302 3.32668 0.646937 0
M  V30 5830 C 568.475 4.37148 -0.148372 0
M  V30 5831 C 567.534 5.21686 0.687728 0
M  V30 5832 O 566.56 5.69074 0.119934 0
M  V30 5833 N 567.762 5.44892 2.00182 0
M  V30 5834 H 570.527 2.79426 -1.08356 0
M  V30 5835 H 568.088 1.45076 -0.718647 0
M  V30 5836 H 570.08 3.86134 1.2117 0
M  V30 5837 H 568.65 2.81061 1.36834 0
M  V30 5838 H 567.87 3.83915 -0.894572 0
M  V30 5839 H 569.158 5.04038 -0.694514 0
M  V30 5840 H 568.556 5.08128 2.4864 0
M  V30 5841 H 567.113 6.0134 2.51463 0
M  V30 5842 N 570.547 0.616602 1.45037 0
M  V30 5843 C 571.795 0.115103 2.01772 0
M  V30 5844 C 572.116 -1.2622 1.48639 0
M  V30 5845 O 571.386 -1.83563 0.684199 0
M  V30 5846 H 569.966 0.0395607 0.745952 0
M  V30 5847 H 572.628 0.800032 1.77723 0
M  V30 5848 H 571.724 0.0717274 3.12018 0
M  V30 5849 N 572.025 -1.5352 0.356285 0
M  V30 5850 C 573.272 -2.01117 -0.236303 0
M  V30 5851 C 573.6 -1.24381 -1.49531 0
M  V30 5852 O 572.855 -0.323057 -1.93015 0
M  V30 5853 C 573.154 -3.52607 -0.583369 0
M  V30 5854 C 572.82 -4.47151 0.58023 0
M  V30 5855 C 571.482 -4.72718 0.899528 0
M  V30 5856 C 573.834 -5.03137 1.36024 0
M  V30 5857 C 571.162 -5.51523 2.00098 0
M  V30 5858 C 573.514 -5.83145 2.45204 0
M  V30 5859 C 572.178 -6.07001 2.77679 0
M  V30 5860 H 571.448 -0.735938 -0.0864695 0
M  V30 5861 H 574.095 -1.85209 0.48683 0
M  V30 5862 H 572.4 -3.66413 -1.38739 0
M  V30 5863 H 574.097 -3.86901 -1.05397 0
M  V30 5864 H 570.687 -4.27394 0.321322 0
M  V30 5865 H 574.871 -4.83339 1.12682 0
M  V30 5866 H 570.127 -5.68229 2.25668 0
M  V30 5867 H 574.301 -6.25537 3.06067 0
M  V30 5868 H 571.928 -6.67851 3.63151 0
M  V30 5869 N 573.503 -0.0852151 -1.57369 0
M  V30 5870 C 574.919 0.271436 -1.57275 0
M  V30 5871 C 575.119 1.69109 -1.09565 0
M  V30 5872 O 574.175 2.40549 -0.767611 0
M  V30 5873 C 575.488 0.0688638 -3.00621 0
M  V30 5874 C 577.036 0.137373 -3.12698 0
M  V30 5875 C 577.511 -0.0370832 -4.57985 0
M  V30 5876 N 579.002 0.0180794 -4.63196 0
M  V30 5877 C 579.737 -0.0922953 -5.73326 0
M  V30 5878 N 579.233 -0.256948 -6.92323 0
M  V30 5879 N 581.026 -0.0342702 -5.6209 0
M  V30 5880 H 573.177 -1.01288 -1.86693 0
M  V30 5881 H 575.44 -0.396138 -0.861266 0
M  V30 5882 H 575.146 -0.911277 -3.39689 0
M  V30 5883 H 575.02 0.815442 -3.6828 0
M  V30 5884 H 577.407 1.10801 -2.73509 0
M  V30 5885 H 577.488 -0.640532 -2.47651 0
M  V30 5886 H 577.132 -1.00455 -4.97867 0
M  V30 5887 H 577.062 0.760392 -5.21081 0
M  V30 5888 H 579.553 0.143202 -3.77629 0
M  V30 5889 H 579.866 -0.332949 -7.72082 0
M  V30 5890 H 578.211 -0.292487 -6.94384 0
M  V30 5891 H 581.402 0.0931605 -4.68007 0
M  V30 5892 H 581.575 -0.12374 -6.47882 0
M  V30 5893 N 574.981 1.5647 0.188427 0
M  V30 5894 C 576.229 1.80655 0.905986 0
M  V30 5895 C 576.55 0.659391 1.83513 0
M  V30 5896 O 575.82 -0.321868 1.93238 0
M  V30 5897 H 574.4 0.666391 0.337538 0
M  V30 5898 H 577.062 1.93949 0.192339 0
M  V30 5899 H 576.158 2.74066 1.49313 0
M  V30 5900 N 576.459 -0.456382 1.50847 0
M  V30 5901 C 577.736 -1.21739 1.53098 0
M  V30 5902 C 578.116 -2.09179 0.284132 0
M  V30 5903 O 577.464 -2.16466 -0.731773 0
M  V30 5904 C 577.674 -2.03573 2.83477 0
M  V30 5905 C 579.022 -2.61264 3.34703 0
M  V30 5906 O 580.046 -2.13802 2.84898 0
M  V30 5907 O 578.905 -3.47779 4.21559 0
M  V30 5908 H 575.999 -0.553219 0.614718 0
M  V30 5909 H 578.545 -0.467003 1.63148 0
M  V30 5910 H 577.317 -1.39232 3.65691 0
M  V30 5911 H 576.94 -2.85716 2.76499 0
M  V30 5912 N 577.937 -1.40673 -0.710563 0
M  V30 5913 C 579.185 -1.38947 -1.46759 0
M  V30 5914 C 579.506 0.00572879 -1.94999 0
M  V30 5915 O 578.776 0.961358 -1.70689 0
M  V30 5916 H 577.356 -0.5114 -0.544499 0
M  V30 5917 H 580.018 -1.75773 -0.842012 0
M  V30 5918 H 579.114 -2.06745 -2.33801 0
M  V30 5919 N 579.415 0.9433 -1.26252 0
M  V30 5920 C 580.663 1.68592 -1.11451 0
M  V30 5921 C 580.984 1.91957 0.343123 0
M  V30 5922 O 580.254 1.51475 1.24226 0
M  V30 5923 H 578.834 0.624789 -0.409448 0
M  V30 5924 H 581.496 1.13351 -1.58548 0
M  V30 5925 H 580.592 2.66054 -1.63162 0
M  V30 5926 N 580.893 1.08022 1.14757 0
M  V30 5927 C 582.118 0.82895 1.90114 0
M  V30 5928 C 582.543 -0.612772 1.77839 0
M  V30 5929 O 581.901 -1.42895 1.11583 0
M  V30 5930 C 581.949 1.25062 3.38219 0
M  V30 5931 O 581.053 0.400119 4.10454 0
M  V30 5932 H 580.394 0.301412 0.591648 0
M  V30 5933 H 582.924 1.44062 1.45284 0
M  V30 5934 H 582.934 1.22977 3.89025 0
M  V30 5935 H 581.609 2.30067 3.46471 0
M  V30 5936 H 580.186 0.484052 3.69745 0
M  V30 5937 N 582.371 -1.3172 0.865308 0
M  V30 5938 C 583.599 -2.01057 0.488251 0
M  V30 5939 C 584.014 -1.64979 -0.918 0
M  V30 5940 O 583.371 -0.876597 -1.60069 0
M  V30 5941 C 583.422 -3.55964 0.630224 0
M  V30 5942 O 583.143 -3.90749 1.98109 0
M  V30 5943 C 584.644 -4.42574 0.253567 0
M  V30 5944 H 581.864 -0.64332 0.190736 0
M  V30 5945 H 584.408 -1.68058 1.16519 0
M  V30 5946 H 582.563 -3.874 0.000895422 0
M  V30 5947 H 582.977 -4.85467 1.9855 0
M  V30 5948 H 584.451 -5.50521 0.403875 0
M  V30 5949 H 584.928 -4.31724 -0.806895 0
M  V30 5950 H 585.534 -4.16547 0.858404 0
M  V30 5951 N 583.85 -0.624285 -1.44708 0
M  V30 5952 C 585.077 -0.132919 -2.06473 0
M  V30 5953 C 585.493 1.18967 -1.46602 0
M  V30 5954 O 584.85 1.72824 -0.586341 0
M  V30 5955 C 584.901 -0.00465418 -3.615 0
M  V30 5956 O 584.622 -1.27494 -4.19138 0
M  V30 5957 C 586.123 0.516213 -4.40284 0
M  V30 5958 H 583.343 -0.0765201 -0.666623 0
M  V30 5959 H 585.887 -0.856751 -1.85688 0
M  V30 5960 H 584.042 0.669583 -3.8157 0
M  V30 5961 H 584.456 -1.11536 -5.12504 0
M  V30 5962 H 585.93 0.554994 -5.49203 0
M  V30 5963 H 586.407 1.5419 -4.11245 0
M  V30 5964 H 587.013 -0.124542 -4.25118 0
M  V30 5965 N 585.328 1.53329 -0.364422 0
M  V30 5966 C 586.576 2.00842 0.225189 0
M  V30 5967 C 586.897 1.25345 1.49378 0
M  V30 5968 O 586.167 0.366396 1.92443 0
M  V30 5969 H 584.747 0.742009 0.0862027 0
M  V30 5970 H 587.409 1.8863 -0.490389 0
M  V30 5971 H 586.505 3.08795 0.452987 0
M  V30 5972 N 586.806 0.0935595 1.57322 0
M  V30 5973 C 587.736 -0.863062 2.16964 0
M  V30 5974 C 588.717 -1.29528 1.10256 0
M  V30 5975 O 589.902 -1.36245 1.38387 0
M  V30 5976 C 587.032 -2.12276 2.74875 0
M  V30 5977 C 585.986 -1.82921 3.86942 0
M  V30 5978 C 585.312 -3.15707 4.31548 0
M  V30 5979 C 586.612 -1.11737 5.10208 0
M  V30 5980 H 588.306 -0.366145 2.97153 0
M  V30 5981 H 585.852 -0.174673 1.42937 0
M  V30 5982 H 587.805 -2.79634 3.1525 0
M  V30 5983 H 586.529 -2.64248 1.91938 0
M  V30 5984 H 585.188 -1.17961 3.47103 0
M  V30 5985 H 584.836 -3.65563 3.45504 0
M  V30 5986 H 584.536 -2.96849 5.07104 0
M  V30 5987 H 586.06 -3.84226 4.74555 0
M  V30 5988 H 587.474 -1.69203 5.47762 0
M  V30 5989 H 585.871 -1.03064 5.91183 0
M  V30 5990 H 586.941 -0.0998818 4.84797 0
M  V30 5991 N 588.284 -1.56567 -0.180126 0
M  V30 5992 C 589.509 -1.85975 -0.918041 0
M  V30 5993 C 589.934 -0.678888 -1.75422 0
M  V30 5994 O 589.292 0.372168 -1.77439 0
M  V30 5995 C 589.34 -3.13731 -1.77779 0
M  V30 5996 O 588.444 -2.95335 -2.87838 0
M  V30 5997 H 587.785 -0.61196 -0.257683 0
M  V30 5998 H 590.315 -2.03798 -0.180923 0
M  V30 5999 H 590.325 -3.4491 -2.17948 0
M  V30 6000 H 589 -3.99293 -1.16352 0
M  V30 6001 H 587.577 -2.7549 -2.51316 0
M  V30 6002 N 589.762 0.448376 -1.51087 0
M  V30 6003 C 590.725 1.52588 -1.71025 0
M  V30 6004 C 591.725 1.49958 -0.580442 0
M  V30 6005 O 592.915 1.52176 -0.847833 0
M  V30 6006 C 590.047 2.92163 -1.75652 0
M  V30 6007 H 591.24 1.36218 -2.67179 0
M  V30 6008 H 588.793 0.676313 -1.4091 0
M  V30 6009 H 589.528 3.13951 -0.812724 0
M  V30 6010 H 589.313 2.95478 -2.57751 0
M  V30 6011 H 590.803 3.70349 -1.92953 0
M  V30 6012 N 591.24 1.41047 0.703093 0
M  V30 6013 C 592.468 1.4334 1.49202 0
M  V30 6014 C 592.883 0.0365596 1.88765 0
M  V30 6015 O 592.24 -0.942419 1.56284 0
M  V30 6016 C 592.291 2.33538 2.75939 0
M  V30 6017 O 592.012 3.67786 2.38045 0
M  V30 6018 C 593.513 2.44555 3.6974 0
M  V30 6019 H 590.733 0.488472 0.460039 0
M  V30 6020 H 593.277 1.85245 0.86629 0
M  V30 6021 H 591.432 1.94962 3.34766 0
M  V30 6022 H 591.846 4.15816 3.19683 0
M  V30 6023 H 593.32 3.11849 4.55471 0
M  V30 6024 H 593.797 1.47447 4.1371 0
M  V30 6025 H 594.403 2.83735 3.16819 0
M  V30 6026 N 592.718 -0.936591 1.26751 0
M  V30 6027 C 594.129 -1.49816 1.1141 0
M  V30 6028 C 594.48 -1.9383 -0.304015 0
M  V30 6029 O 593.605 -1.80346 -1.196 0
M  V30 6030 C 594.2 -2.72271 2.01629 0
M  V30 6031 C 592.759 -3.2468 1.9042 0
M  V30 6032 C 591.906 -1.97444 1.94708 0
M  V30 6033 H 594.857 -0.751604 1.39773 0
M  V30 6034 H 594.878 -3.46741 1.56688 0
M  V30 6035 H 594.39 -2.40205 3.04833 0
M  V30 6036 H 592.491 -3.61525 0.901674 0
M  V30 6037 H 592.604 -3.91476 2.76195 0
M  V30 6038 H 590.968 -2.13545 1.38818 0
M  V30 6039 H 591.751 -1.67703 2.9955 0
M  V30 6040 N 594.196 -1.08629 -1.14182 0
M  V30 6041 C 595.607 -0.838003 -1.66836 0
M  V30 6042 C 595.958 0.634885 -1.85644 0
M  V30 6043 O 595.083 1.49008 -1.56926 0
M  V30 6044 C 595.678 -1.51465 -3.03058 0
M  V30 6045 C 594.237 -1.31355 -3.52736 0
M  V30 6046 C 593.384 -1.57599 -2.28162 0
M  V30 6047 H 596.335 -1.24656 -0.982165 0
M  V30 6048 H 596.356 -0.943134 -3.68626 0
M  V30 6049 H 595.868 -2.58661 -2.89337 0
M  V30 6050 H 593.969 -0.262384 -3.71675 0
M  V30 6051 H 594.082 -2.04275 -4.33369 0
M  V30 6052 H 592.446 -0.997659 -2.34348 0
M  V30 6053 H 593.229 -2.66006 -2.17015 0
M  V30 6054 N 595.674 1.31259 -0.872281 0
M  V30 6055 C 596.637 2.26744 -0.334656 0
M  V30 6056 C 597.637 1.52307 0.515681 0
M  V30 6057 O 598.827 1.71148 0.324656 0
M  V30 6058 C 595.959 3.36841 0.524482 0
M  V30 6059 H 597.152 2.75812 -1.17762 0
M  V30 6060 H 594.705 1.42232 -0.648064 0
M  V30 6061 H 595.44 2.93069 1.38855 0
M  V30 6062 H 595.225 3.92009 -0.0844299 0
M  V30 6063 H 596.715 4.07944 0.892838 0
M  V30 6064 N 597.152 0.631951 1.44375 0
M  V30 6065 C 598.377 0.142146 2.06912 0
M  V30 6066 C 598.802 -1.17456 1.4692 0
M  V30 6067 O 598.16 -1.72074 0.570975 0
M  V30 6068 C 598.208 0.0417952 3.60576 0
M  V30 6069 O 597.312 -1.00194 4.00044 0
M  V30 6070 H 596.653 0.0851491 0.658518 0
M  V30 6071 H 599.183 0.868863 1.85235 0
M  V30 6072 H 599.193 -0.148517 4.0773 0
M  V30 6073 H 597.868 1.0031 4.03622 0
M  V30 6074 H 596.445 -0.786131 3.64519 0
M  V30 6075 N 598.631 -1.53133 0.372548 0
M  V30 6076 C 599.561 -2.28876 -0.462412 0
M  V30 6077 C 600.542 -1.31583 -1.07796 0
M  V30 6078 O 601.727 -1.60461 -1.09389 0
M  V30 6079 C 598.857 -3.08317 -1.59868 0
M  V30 6080 C 597.811 -4.13355 -1.11003 0
M  V30 6081 C 597.137 -4.8092 -2.33708 0
M  V30 6082 C 598.437 -5.21955 -0.18983 0
M  V30 6083 H 600.131 -2.9892 0.169511 0
M  V30 6084 H 597.677 -1.43761 0.0829658 0
M  V30 6085 H 599.63 -3.60055 -2.18949 0
M  V30 6086 H 598.354 -2.35976 -2.25794 0
M  V30 6087 H 597.013 -3.62573 -0.541869 0
M  V30 6088 H 596.661 -4.05144 -2.98106 0
M  V30 6089 H 596.361 -5.51904 -2.01682 0
M  V30 6090 H 597.885 -5.35455 -2.93462 0
M  V30 6091 H 599.299 -5.69153 -0.688319 0
M  V30 6092 H 597.696 -6.00087 0.0398887 0
M  V30 6093 H 598.766 -4.78811 0.766057 0
M  V30 6094 N 600.109 -0.101901 -1.5727 0
M  V30 6095 C 601.52 0.426173 -1.81771 0
M  V30 6096 C 601.871 1.67725 -1.01797 0
M  V30 6097 O 600.996 2.14958 -0.249386 0
M  V30 6098 C 601.591 0.779962 -3.297 0
M  V30 6099 C 600.15 1.25275 -3.54941 0
M  V30 6100 C 599.297 0.252814 -2.76145 0
M  V30 6101 H 602.248 -0.32726 -1.55289 0
M  V30 6102 H 602.269 1.63891 -3.43395 0
M  V30 6103 H 601.781 -0.130778 -3.8788 0
M  V30 6104 H 599.882 2.18097 -3.021 0
M  V30 6105 H 599.995 1.20988 -4.63572 0
M  V30 6106 H 598.359 0.736362 -2.43823 0
M  V30 6107 H 599.142 -0.650724 -3.37076 0
M  V30 6108 N 601.587 1.56661 0.17182 0
M  V30 6109 C 602.835 1.81606 0.886774 0
M  V30 6110 C 603.156 0.678818 1.82803 0
M  V30 6111 O 602.426 -0.301354 1.93568 0
M  V30 6112 H 601.006 0.669934 0.330451 0
M  V30 6113 H 603.668 1.94142 0.171757 0
M  V30 6114 H 602.764 2.75634 1.46398 0
M  V30 6115 N 603.065 -0.440357 1.51323 0
M  V30 6116 C 604.29 -1.21716 1.67928 0
M  V30 6117 C 604.715 -1.84328 0.374826 0
M  V30 6118 O 604.073 -1.68675 -0.664706 0
M  V30 6119 C 604.121 -2.27914 2.79442 0
M  V30 6120 O 603.225 -3.33325 2.42834 0
M  V30 6121 H 602.566 -0.35674 0.560029 0
M  V30 6122 H 605.096 -0.520417 1.97871 0
M  V30 6123 H 605.106 -2.72746 3.03436 0
M  V30 6124 H 603.781 -1.8172 3.741 0
M  V30 6125 H 602.358 -2.9399 2.294 0
M  V30 6126 N 604.543 -1.41418 -0.695603 0
M  V30 6127 C 605.473 -1.46035 -1.82197 0
M  V30 6128 C 606.454 -0.319025 -1.67082 0
M  V30 6129 O 607.639 -0.530462 -1.86815 0
M  V30 6130 C 604.769 -1.34179 -3.20333 0
M  V30 6131 C 603.723 -2.46123 -3.50154 0
M  V30 6132 C 603.049 -2.19332 -4.87645 0
M  V30 6133 C 604.349 -3.88463 -3.49133 0
M  V30 6134 H 606.043 -2.40303 -1.78591 0
M  V30 6135 H 603.589 -1.15663 -0.857797 0
M  V30 6136 H 605.542 -1.36021 -3.98844 0
M  V30 6137 H 604.266 -0.363952 -3.24566 0
M  V30 6138 H 602.925 -2.43563 -2.73994 0
M  V30 6139 H 602.573 -1.19891 -4.88503 0
M  V30 6140 H 602.273 -2.94344 -5.08562 0
M  V30 6141 H 603.797 -2.22889 -5.68465 0
M  V30 6142 H 605.211 -3.92738 -4.17648 0
M  V30 6143 H 603.608 -4.63158 -3.81582 0
M  V30 6144 H 604.678 -4.16617 -2.48109 0
M  V30 6145 N 606.021 0.929856 -1.27246 0
M  V30 6146 C 607.249 1.71144 -1.16265 0
M  V30 6147 C 607.664 1.867 0.280786 0
M  V30 6148 O 607.021 1.38249 1.19136 0
M  V30 6149 C 607.072 3.11222 -1.83911 0
M  V30 6150 O 606.793 2.96398 -3.22614 0
M  V30 6151 C 608.294 4.05541 -1.79028 0
M  V30 6152 H 605.514 0.535499 -0.404328 0
M  V30 6153 H 608.058 1.16492 -1.68077 0
M  V30 6154 H 606.213 3.6274 -1.36009 0
M  V30 6155 H 606.627 3.8494 -3.56261 0
M  V30 6156 H 608.101 5.01351 -2.30978 0
M  V30 6157 H 608.578 4.32589 -0.759168 0
M  V30 6158 H 609.184 3.59947 -2.26535 0
M  V30 6159 N 607.499 1.09233 1.13605 0
M  V30 6160 C 608.447 0.724572 2.21027 0
M  V30 6161 C 609.441 -0.273595 1.67176 0
M  V30 6162 O 610.647 -0.135266 1.79491 0
M  V30 6163 H 607.022 0.216319 0.720215 0
M  V30 6164 H 608.993 1.63975 2.49309 0
M  V30 6165 C 607.742 0.159126 3.47336 0
M  V30 6166 H 607.065 0.918387 3.89109 0
M  V30 6167 H 608.505 -0.0602851 4.23957 0
M  V30 6168 C 606.964 -1.10514 3.18258 0
M  V30 6169 O 607.494 -2.18869 3.36837 0
M  V30 6170 N 605.7 -1.01886 2.72154 0
M  V30 6171 H 605.247 -0.137027 2.57235 0
M  V30 6172 H 605.205 -1.8655 2.53074 0
M  V30 6173 N 608.977 -1.30795 0.87923 0
M  V30 6174 C 610.223 -1.96653 0.495519 0
M  V30 6175 C 610.556 -1.69282 -0.951703 0
M  V30 6176 O 609.831 -0.994374 -1.6716 0
M  V30 6177 C 610.114 -3.51898 0.764174 0
M  V30 6178 C 609.967 -3.88808 2.2616 0
M  V30 6179 C 611.286 -4.39462 0.236825 0
M  V30 6180 H 608.405 -0.7143 0.181507 0
M  V30 6181 H 611.047 -1.54765 1.10217 0
M  V30 6182 H 609.197 -3.87709 0.247841 0
M  V30 6183 H 610.869 -3.63051 2.8459 0
M  V30 6184 H 609.112 -3.37082 2.73053 0
M  V30 6185 H 609.783 -4.97086 2.4002 0
M  V30 6186 H 612.259 -4.10528 0.678683 0
M  V30 6187 H 611.135 -5.47018 0.454176 0
M  V30 6188 H 611.396 -4.33621 -0.861683 0
M  V30 6189 N 610.455 -0.639598 -1.44038 0
M  V30 6190 C 611.402 0.0602458 -2.30721 0
M  V30 6191 C 612.372 0.828352 -1.43971 0
M  V30 6192 O 613.557 0.807693 -1.72861 0
M  V30 6193 C 610.697 1.03008 -3.29368 0
M  V30 6194 C 609.81 0.259502 -4.3122 0
M  V30 6195 C 608.945 1.22191 -5.16955 0
M  V30 6196 C 607.984 0.440978 -6.10509 0
M  V30 6197 N 607.121 1.35428 -6.88915 0
M  V30 6198 H 611.961 -0.684867 -2.90023 0
M  V30 6199 H 609.498 -0.349509 -1.42888 0
M  V30 6200 H 611.456 1.60583 -3.85057 0
M  V30 6201 H 610.086 1.74222 -2.71747 0
M  V30 6202 H 609.138 -0.432317 -3.77935 0
M  V30 6203 H 610.45 -0.348347 -4.97582 0
M  V30 6204 H 609.604 1.86873 -5.77203 0
M  V30 6205 H 608.343 1.86367 -4.50687 0
M  V30 6206 H 607.348 -0.219279 -5.49363 0
M  V30 6207 H 608.573 -0.196192 -6.78817 0
M  V30 6208 H 606.519 1.9831 -6.25307 0
M  V30 6209 H 606.436 0.800657 -7.51748 0
M  V30 6210 H 607.704 1.98967 -7.53679 0
M  V30 6211 N 611.933 1.52934 -0.380664 0
M  V30 6212 C 612.896 2.24809 0.446473 0
M  V30 6213 C 613.896 1.26133 0.997347 0
M  V30 6214 O 615.086 1.50297 0.880714 0
M  V30 6215 C 612.218 2.99649 1.62553 0
M  V30 6216 H 613.411 2.99343 -0.182677 0
M  V30 6217 H 610.964 1.55736 -0.132618 0
M  V30 6218 H 611.699 2.29395 2.29235 0
M  V30 6219 H 611.484 3.72066 1.23732 0
M  V30 6220 H 612.974 3.54246 2.21133 0
M  V30 6221 N 613.412 0.11024 1.57214 0
M  V30 6222 C 614.342 -0.840002 2.17867 0
M  V30 6223 C 615.323 -1.28352 1.11624 0
M  V30 6224 O 616.508 -1.3477 1.39824 0
M  V30 6225 C 613.638 -2.09349 2.77111 0
M  V30 6226 C 612.592 -1.78807 3.8886 0
M  V30 6227 C 611.918 -3.11112 4.34872 0
M  V30 6228 C 613.218 -1.0632 5.11364 0
M  V30 6229 H 614.912 -0.334608 2.97524 0
M  V30 6230 H 612.458 -0.159502 1.43114 0
M  V30 6231 H 614.411 -2.76275 3.18198 0
M  V30 6232 H 613.135 -2.62198 1.9473 0
M  V30 6233 H 611.794 -1.14273 3.48335 0
M  V30 6234 H 611.442 -3.61877 3.49362 0
M  V30 6235 H 611.142 -2.91453 5.10224 0
M  V30 6236 H 612.666 -3.79171 4.78604 0
M  V30 6237 H 614.08 -1.63383 5.49526 0
M  V30 6238 H 612.477 -0.967876 5.92243 0
M  V30 6239 H 613.547 -0.0484569 4.84876 0
M  V30 6240 N 614.89 -1.56749 -0.16351 0
M  V30 6241 C 615.822 -1.93587 -1.22705 0
M  V30 6242 C 616.835 -0.829824 -1.40063 0
M  V30 6243 O 618.024 -1.10826 -1.39928 0
M  V30 6244 C 615.124 -2.1803 -2.59454 0
M  V30 6245 C 614.297 -3.4928 -2.63292 0
M  V30 6246 C 613.356 -3.62457 -3.8146 0
M  V30 6247 O 612.382 -4.35004 -3.67096 0
M  V30 6248 N 613.584 -2.97888 -4.9824 0
M  V30 6249 H 616.349 -2.8542 -0.914081 0
M  V30 6250 H 613.91 -1.58 -0.353214 0
M  V30 6251 H 615.902 -2.24102 -3.36987 0
M  V30 6252 H 614.472 -1.32543 -2.8311 0
M  V30 6253 H 613.692 -3.54795 -1.71796 0
M  V30 6254 H 614.98 -4.35632 -2.62873 0
M  V30 6255 H 614.378 -2.38833 -5.12811 0
M  V30 6256 H 612.935 -3.09545 -5.73607 0
M  V30 6257 N 616.368 0.432326 -1.51554 0
M  V30 6258 C 617.315 1.52512 -1.7323 0
M  V30 6259 C 618.285 1.55863 -0.5741 0
M  V30 6260 O 619.47 1.72796 -0.809093 0
M  V30 6261 C 616.61 2.90183 -1.86783 0
M  V30 6262 C 615.723 2.96322 -3.14352 0
M  V30 6263 C 614.858 4.25147 -3.18471 0
M  V30 6264 C 613.897 4.25172 -4.40335 0
M  V30 6265 N 613.034 5.45529 -4.41975 0
M  V30 6266 H 617.874 1.33332 -2.66508 0
M  V30 6267 H 615.411 0.647613 -1.32077 0
M  V30 6268 H 617.369 3.70071 -1.92623 0
M  V30 6269 H 615.999 3.0791 -0.969087 0
M  V30 6270 H 615.051 2.09066 -3.17798 0
M  V30 6271 H 616.363 2.92203 -4.04251 0
M  V30 6272 H 615.517 5.13411 -3.23255 0
M  V30 6273 H 614.256 4.31929 -2.2647 0
M  V30 6274 H 613.261 3.353 -4.35723 0
M  V30 6275 H 614.486 4.20049 -5.33606 0
M  V30 6276 H 612.432 5.53024 -3.52847 0
M  V30 6277 H 612.349 5.43311 -5.25689 0
M  V30 6278 H 613.617 6.35812 -4.50958 0
M  V30 6279 N 617.846 1.41785 0.688094 0
M  V30 6280 C 619.071 1.45117 1.48175 0
M  V30 6281 C 619.496 0.060129 1.88004 0
M  V30 6282 O 618.854 -0.938385 1.55126 0
M  V30 6283 C 618.902 2.37224 2.71583 0
M  V30 6284 O 618.006 1.83443 3.69354 0
M  V30 6285 H 617.347 0.492208 0.445676 0
M  V30 6286 H 619.877 1.86329 0.845145 0
M  V30 6287 H 619.887 2.53353 3.19806 0
M  V30 6288 H 618.562 3.38293 2.41931 0
M  V30 6289 H 617.139 1.76802 3.28322 0
M  V30 6290 N 619.324 -0.923095 1.27737 0
M  V30 6291 C 620.735 -1.48626 1.12993 0
M  V30 6292 C 621.086 -1.94142 -0.283439 0
M  V30 6293 O 620.211 -1.81605 -1.17681 0
M  V30 6294 C 620.806 -2.70117 2.04505 0
M  V30 6295 C 619.365 -3.22642 1.93853 0
M  V30 6296 C 618.512 -1.95368 1.96791 0
M  V30 6297 H 621.463 -0.736737 1.40563 0
M  V30 6298 H 621.484 -3.4506 1.60356 0
M  V30 6299 H 620.996 -2.36959 3.07363 0
M  V30 6300 H 619.097 -3.60549 0.939968 0
M  V30 6301 H 619.21 -3.88525 2.80331 0
M  V30 6302 H 617.574 -2.12061 1.41076 0
M  V30 6303 H 618.357 -1.64517 3.01312 0
M  V30 6304 N 620.802 -1.09834 -1.13024 0
M  V30 6305 C 622.05 -0.835297 -1.8403 0
M  V30 6306 C 622.371 0.640944 -1.84165 0
M  V30 6307 O 621.641 1.46517 -1.30037 0
M  V30 6308 H 620.221 -0.306018 -0.681441 0
M  V30 6309 H 622.883 -1.38734 -1.36891 0
M  V30 6310 H 621.979 -1.19258 -2.88416 0
M  V30 6311 N 622.28 1.30327 -0.886154 0
M  V30 6312 C 623.691 1.78243 -0.555554 0
M  V30 6313 C 624.042 1.72849 0.928314 0
M  V30 6314 O 623.167 1.30607 1.72542 0
M  V30 6315 C 623.762 3.23654 -1.00168 0
M  V30 6316 C 622.321 3.69401 -0.722471 0
M  V30 6317 C 621.468 2.50753 -1.18399 0
M  V30 6318 H 624.419 1.1718 -1.07026 0
M  V30 6319 H 624.44 3.79056 -0.331152 0
M  V30 6320 H 623.952 3.27548 -2.08169 0
M  V30 6321 H 622.053 3.70995 0.345496 0
M  V30 6322 H 622.166 4.60818 -1.31085 0
M  V30 6323 H 620.53 2.47452 -0.603303 0
M  V30 6324 H 621.313 2.57383 -2.27176 0
M  V30 6325 N 623.758 0.647228 1.43697 0
M  V30 6326 C 624.69 -0.0866232 2.29036 0
M  V30 6327 C 625.703 -0.793051 1.42178 0
M  V30 6328 O 626.892 -0.651807 1.66174 0
M  V30 6329 C 623.992 -1.14552 3.18953 0
M  V30 6330 C 623.165 -0.518422 4.34317 0
M  V30 6331 C 622.224 -1.4734 5.05151 0
M  V30 6332 O 621.25 -0.984312 5.60625 0
M  V30 6333 N 622.452 -2.8075 5.08094 0
M  V30 6334 H 625.217 0.645834 2.92659 0
M  V30 6335 H 622.778 0.489567 1.54321 0
M  V30 6336 H 624.77 -1.78505 3.63205 0
M  V30 6337 H 623.34 -1.78001 2.56971 0
M  V30 6338 H 622.56 0.300079 3.93056 0
M  V30 6339 H 623.848 -0.080401 5.08736 0
M  V30 6340 H 623.246 -3.23052 4.64386 0
M  V30 6341 H 621.803 -3.40022 5.56083 0
M  V30 6342 N 625.236 -1.5273 0.388769 0
M  V30 6343 C 626.652 -1.59553 0.0387049 0
M  V30 6344 C 626.852 -1.40278 -1.44652 0
M  V30 6345 O 625.908 -1.21951 -2.21098 0
M  V30 6346 C 627.221 -2.9625 0.515409 0
M  V30 6347 C 628.769 -3.09426 0.471621 0
M  V30 6348 C 629.244 -4.48572 0.924505 0
M  V30 6349 N 630.735 -4.54754 0.880496 0
M  V30 6350 C 631.47 -5.60653 1.20234 0
M  V30 6351 N 630.966 -6.74198 1.59463 0
M  V30 6352 N 632.759 -5.50755 1.12363 0
M  V30 6353 H 624.91 -1.63508 1.35569 0
M  V30 6354 H 627.173 -0.768097 0.555636 0
M  V30 6355 H 626.879 -3.15569 1.5527 0
M  V30 6356 H 626.753 -3.77102 -0.085792 0
M  V30 6357 H 629.14 -2.89804 -0.556588 0
M  V30 6358 H 629.221 -2.30528 1.10862 0
M  V30 6359 H 628.865 -4.68936 1.95094 0
M  V30 6360 H 628.795 -5.25935 0.264524 0
M  V30 6361 H 631.286 -3.73237 0.591815 0
M  V30 6362 H 631.599 -7.5097 1.82385 0
M  V30 6363 H 629.944 -6.75531 1.63349 0
M  V30 6364 H 633.135 -4.6093 0.816169 0
M  V30 6365 H 633.308 -6.33184 1.37777 0
M  V30 6366 N 626.714 -0.118576 -1.57153 0
M  V30 6367 C 627.624 0.845484 -2.18835 0
M  V30 6368 C 628.64 1.29299 -1.16438 0
M  V30 6369 O 629.816 1.35607 -1.48905 0
M  V30 6370 C 626.881 2.07795 -2.77529 0
M  V30 6371 C 625.942 1.6824 -3.9496 0
M  V30 6372 C 625.175 2.85612 -4.50845 0
M  V30 6373 O 625.398 4.01025 -4.05629 0
M  V30 6374 O 624.332 2.62721 -5.41536 0
M  V30 6375 H 628.158 0.350568 -3.0167 0
M  V30 6376 H 625.743 0.107013 -1.49016 0
M  V30 6377 H 627.625 2.79978 -3.14945 0
M  V30 6378 H 626.3 2.56294 -1.97725 0
M  V30 6379 H 625.207 0.931663 -3.62313 0
M  V30 6380 H 626.54 1.24484 -4.76198 0
M  V30 6381 N 628.193 1.56834 0.155195 0
M  V30 6382 C 629.609 1.51315 0.50755 0
M  V30 6383 C 629.809 0.825614 1.83809 0
M  V30 6384 O 628.865 0.39271 2.49427 0
M  V30 6385 C 630.178 2.96074 0.52542 0
M  V30 6386 C 631.726 3.06968 0.611505 0
M  V30 6387 C 632.201 4.53218 0.660115 0
M  V30 6388 N 633.692 4.5753 0.722564 0
M  V30 6389 C 634.427 5.68056 0.781023 0
M  V30 6390 N 633.923 6.88173 0.799327 0
M  V30 6391 N 635.716 5.56068 0.821278 0
M  V30 6392 H 627.867 1.9993 -0.717063 0
M  V30 6393 H 630.13 0.911507 -0.260496 0
M  V30 6394 H 629.836 3.49599 -0.383875 0
M  V30 6395 H 629.71 3.51587 1.36624 0
M  V30 6396 H 632.097 2.53468 1.51122 0
M  V30 6397 H 632.178 2.54513 -0.256306 0
M  V30 6398 H 631.822 5.07354 -0.23541 0
M  V30 6399 H 631.752 5.03447 1.5443 0
M  V30 6400 H 634.243 3.71054 0.716049 0
M  V30 6401 H 634.556 7.6816 0.845553 0
M  V30 6402 H 632.901 6.90751 0.767337 0
M  V30 6403 H 636.092 4.61142 0.804091 0
M  V30 6404 H 636.265 6.42223 0.863372 0
M  V30 6405 N 629.671 -0.424282 1.51781 0
M  V30 6406 C 630.618 -1.51591 1.74037 0
M  V30 6407 C 631.588 -1.55556 0.582358 0
M  V30 6408 O 632.773 -1.72364 0.818245 0
M  V30 6409 C 629.913 -2.89188 1.8832 0
M  V30 6410 C 629.026 -2.9465 3.1592 0
M  V30 6411 C 628.161 -4.23452 3.20721 0
M  V30 6412 C 627.2 -4.22831 4.42584 0
M  V30 6413 N 626.337 -5.43178 4.44862 0
M  V30 6414 H 631.177 -1.31917 2.67212 0
M  V30 6415 H 628.714 -0.640599 1.32419 0
M  V30 6416 H 630.672 -3.69044 1.94583 0
M  V30 6417 H 629.302 -3.07392 0.985402 0
M  V30 6418 H 628.354 -2.07378 3.18902 0
M  V30 6419 H 629.666 -2.90055 4.05795 0
M  V30 6420 H 628.82 -5.1169 3.25973 0
M  V30 6421 H 627.559 -4.30722 2.28757 0
M  V30 6422 H 626.564 -3.32984 4.37495 0
M  V30 6423 H 627.789 -4.17213 5.35826 0
M  V30 6424 H 625.735 -5.51145 3.55775 0
M  V30 6425 H 625.652 -5.40515 5.28563 0
M  V30 6426 H 626.92 -6.33412 4.54324 0
M  V30 6427 N 631.149 -1.42148 -0.680565 0
M  V30 6428 C 632.374 -1.45901 -1.47403 0
M  V30 6429 C 632.799 -0.0700985 -1.87969 0
M  V30 6430 O 632.157 0.930145 -1.55621 0
M  V30 6431 C 632.205 -2.38661 -2.70321 0
M  V30 6432 O 631.309 -1.85399 -3.68376 0
M  V30 6433 H 630.65 -0.494565 -0.443059 0
M  V30 6434 H 633.18 -1.86774 -0.835251 0
M  V30 6435 H 633.19 -2.55046 -3.18458 0
M  V30 6436 H 631.865 -3.39571 -2.40134 0
M  V30 6437 H 630.442 -1.78541 -3.2738 0
M  V30 6438 N 632.627 0.916307 -1.28225 0
M  V30 6439 C 633.852 1.7043 -1.18188 0
M  V30 6440 C 634.277 1.86346 0.256274 0
M  V30 6441 O 633.635 1.37175 1.18544 0
M  V30 6442 C 633.683 3.07546 -1.88275 0
M  V30 6443 O 632.787 3.94904 -1.18848 0
M  V30 6444 H 632.128 0.521967 -0.410423 0
M  V30 6445 H 634.658 1.14589 -1.69501 0
M  V30 6446 H 634.668 3.57793 -1.96082 0
M  V30 6447 H 633.343 2.95279 -2.92887 0
M  V30 6448 H 631.92 3.53339 -1.19187 0
M  V30 6449 N 634.105 1.10431 1.1244 0
M  V30 6450 C 635.33 0.869089 1.88313 0
M  V30 6451 C 635.755 -0.574912 1.79099 0
M  V30 6452 O 635.113 -1.40496 1.14589 0
M  V30 6453 C 635.161 1.32208 3.3549 0
M  V30 6454 O 634.265 0.487092 4.09513 0
M  V30 6455 H 633.606 0.313894 0.585121 0
M  V30 6456 H 636.136 1.47111 1.42195 0
M  V30 6457 H 636.146 1.31201 3.86329 0
M  V30 6458 H 634.821 2.37364 3.41513 0
M  V30 6459 H 633.398 0.562372 3.68635 0
M  V30 6460 N 635.583 -1.29855 0.893053 0
M  V30 6461 C 636.808 -2.00512 0.530066 0
M  V30 6462 C 637.233 -1.66446 -0.876199 0
M  V30 6463 O 636.591 -0.885446 -1.58207 0
M  V30 6464 C 636.639 -3.53308 0.721505 0
M  V30 6465 O 635.743 -4.11764 -0.228994 0
M  V30 6466 H 635.084 -0.630617 0.207891 0
M  V30 6467 H 637.614 -1.6551 1.20282 0
M  V30 6468 H 637.624 -4.03206 0.623599 0
M  V30 6469 H 636.299 -3.77439 1.74678 0
M  V30 6470 H 634.876 -3.72805 -0.0841034 0
M  V30 6471 N 637.061 -0.65484 -1.43351 0
M  V30 6472 C 638.286 -0.175046 -2.0666 0
M  V30 6473 C 638.711 1.15104 -1.4877 0
M  V30 6474 O 638.069 1.71144 -0.598279 0
M  V30 6475 C 638.117 -0.0991544 -3.60464 0
M  V30 6476 O 637.221 0.938169 -4.01587 0
M  V30 6477 H 636.562 -0.0956148 -0.65708 0
M  V30 6478 H 639.092 -0.898222 -1.83829 0
M  V30 6479 H 639.102 0.083632 -4.07914 0
M  V30 6480 H 637.777 -1.06719 -4.01975 0
M  V30 6481 H 636.354 0.72804 -3.65724 0
M  V30 6482 N 638.539 1.52521 -0.396863 0
M  V30 6483 C 639.449 2.30403 0.44178 0
M  V30 6484 C 640.465 1.37625 1.06468 0
M  V30 6485 O 641.641 1.70697 1.06886 0
M  V30 6486 C 638.706 3.1013 1.54986 0
M  V30 6487 C 637.767 4.18628 0.951279 0
M  V30 6488 C 637 4.94543 2.00655 0
M  V30 6489 O 637.223 4.70629 3.22281 0
M  V30 6490 O 636.157 5.797 1.61962 0
M  V30 6491 H 639.983 3.03087 -0.192892 0
M  V30 6492 H 637.568 1.48537 -0.16038 0
M  V30 6493 H 639.45 3.59816 2.19341 0
M  V30 6494 H 638.125 2.40251 2.16935 0
M  V30 6495 H 637.032 3.73119 0.270773 0
M  V30 6496 H 638.365 4.90763 0.375887 0
M  V30 6497 N 640.017 0.126909 1.57088 0
M  V30 6498 C 641.294 -0.573152 1.87014 0
M  V30 6499 C 641.674 -1.84297 1.02945 0
M  V30 6500 O 641.022 -2.28232 0.110573 0
M  V30 6501 C 641.232 -0.857984 3.38289 0
M  V30 6502 C 642.58 -1.20759 4.07066 0
M  V30 6503 O 643.604 -0.947992 3.43353 0
M  V30 6504 O 642.463 -1.69516 5.19545 0
M  V30 6505 H 639.557 -0.290082 0.774456 0
M  V30 6506 H 642.103 0.162008 1.68925 0
M  V30 6507 H 640.875 0.0415286 3.91278 0
M  V30 6508 H 640.498 -1.64803 3.61837 0
M  V30 6509 N 641.495 -1.56914 -0.146875 0
M  V30 6510 C 642.911 -1.51582 -0.499518 0
M  V30 6511 C 643.111 -0.83535 -1.83369 0
M  V30 6512 O 642.167 -0.405932 -2.49216 0
M  V30 6513 C 643.48 -2.96349 -0.509711 0
M  V30 6514 C 645.028 -3.07288 -0.595217 0
M  V30 6515 C 645.503 -4.53562 -0.636071 0
M  V30 6516 N 646.994 -4.57906 -0.69829 0
M  V30 6517 C 647.729 -5.68462 -0.750886 0
M  V30 6518 N 647.225 -6.88588 -0.76282 0
M  V30 6519 N 649.018 -5.56496 -0.791777 0
M  V30 6520 H 641.169 -1.99547 0.727656 0
M  V30 6521 H 643.432 -0.910113 0.265327 0
M  V30 6522 H 643.138 -3.4939 0.402409 0
M  V30 6523 H 643.012 -3.52307 -1.34758 0
M  V30 6524 H 645.399 -2.54266 -1.49776 0
M  V30 6525 H 645.48 -2.54373 0.2698 0
M  V30 6526 H 645.124 -5.07222 0.262313 0
M  V30 6527 H 645.054 -5.04259 -1.51758 0
M  V30 6528 H 647.545 -3.71429 -0.696362 0
M  V30 6529 H 647.858 -7.68598 -0.804804 0
M  V30 6530 H 646.203 -6.91148 -0.730694 0
M  V30 6531 H 649.394 -4.61562 -0.779624 0
M  V30 6532 H 649.567 -6.42671 -0.829301 0
M  V30 6533 N 642.974 0.416227 -1.52004 0
M  V30 6534 C 643.922 1.5272 -1.7544 0
M  V30 6535 C 644.916 1.57596 -0.621289 0
M  V30 6536 O 646.122 1.61087 -0.803172 0
M  V30 6537 H 642.497 0.507772 -0.554682 0
M  V30 6538 H 644.468 1.30136 -2.68528 0
M  V30 6539 C 643.217 2.90165 -1.91571 0
M  V30 6540 H 642.54 2.87154 -2.78178 0
M  V30 6541 H 643.98 3.67211 -2.11972 0
M  V30 6542 C 642.439 3.29947 -0.680942 0
M  V30 6543 O 642.969 4.01403 0.154527 0
M  V30 6544 N 641.175 2.8593 -0.518894 0
M  V30 6545 H 640.722 2.2795 -1.19986 0
M  V30 6546 H 640.68 3.12907 0.305985 0
M  V30 6547 N 644.452 1.42507 0.673017 0
M  V30 6548 C 645.868 1.25472 0.986355 0
M  V30 6549 C 646.068 0.160181 2.00862 0
M  V30 6550 O 645.124 -0.467993 2.48125 0
M  V30 6551 C 646.437 2.61219 1.48947 0
M  V30 6552 C 647.985 2.68589 1.60715 0
M  V30 6553 C 648.46 4.04707 2.14422 0
M  V30 6554 N 649.951 4.0667 2.21752 0
M  V30 6555 C 650.686 5.0881 2.64386 0
M  V30 6556 N 650.182 6.21332 3.0646 0
M  V30 6557 N 651.975 4.96166 2.64151 0
M  V30 6558 H 644.126 2.124 -0.00378532 0
M  V30 6559 H 646.389 0.946046 0.0608367 0
M  V30 6560 H 646.095 3.42179 0.812812 0
M  V30 6561 H 645.969 2.85261 2.46791 0
M  V30 6562 H 648.356 1.87974 2.27486 0
M  V30 6563 H 648.437 2.48333 0.613552 0
M  V30 6564 H 648.081 4.8578 1.48258 0
M  V30 6565 H 648.011 4.22315 3.14575 0
M  V30 6566 H 650.502 3.25438 1.92089 0
M  V30 6567 H 650.815 6.95118 3.37684 0
M  V30 6568 H 649.16 6.24835 3.04313 0
M  V30 6569 H 652.351 4.07334 2.30644 0
M  V30 6570 H 652.524 5.759 2.97057 0
M  V30 6571 N 645.93 -0.909495 1.28709 0
M  V30 6572 C 646.863 -2.01388 1.07323 0
M  V30 6573 C 647.841 -1.62596 -0.0119757 0
M  V30 6574 O 649.025 -1.88003 0.136796 0
M  V30 6575 C 646.152 -3.32755 0.631797 0
M  V30 6576 C 645.198 -3.90532 1.71428 0
M  V30 6577 S 646.031 -4.20853 3.31124 0
M  V30 6578 C 647.187 -5.55276 2.88825 0
M  V30 6579 H 647.42 -2.19219 2.00824 0
M  V30 6580 H 644.953 -1.05489 1.12745 0
M  V30 6581 H 646.911 -4.08702 0.38381 0
M  V30 6582 H 645.572 -3.12818 -0.283451 0
M  V30 6583 H 644.765 -4.85385 1.35712 0
M  V30 6584 H 644.367 -3.21237 1.91528 0
M  V30 6585 H 646.659 -6.35341 2.3526 0
M  V30 6586 H 647.602 -5.95907 3.82492 0
M  V30 6587 H 648.01 -5.16666 2.27412 0
M  V30 6588 N 647.408 -1.11026 -1.11852 0
M  V30 6589 C 648.355 -0.764662 -2.17765 0
M  V30 6590 C 649.325 0.261854 -1.64023 0
M  V30 6591 O 650.51 0.139748 -1.90288 0
M  V30 6592 C 647.65 -0.209317 -3.44465 0
M  V30 6593 C 646.763 -1.29187 -4.12231 0
M  V30 6594 C 645.898 -0.697523 -5.266 0
M  V30 6595 C 644.937 -1.76023 -5.86244 0
M  V30 6596 N 644.074 -1.18569 -6.92016 0
M  V30 6597 H 648.914 -1.67202 -2.46673 0
M  V30 6598 H 646.451 -0.835065 -1.21099 0
M  V30 6599 H 648.409 0.130599 -4.16996 0
M  V30 6600 H 647.039 0.661251 -3.15955 0
M  V30 6601 H 646.091 -1.74881 -3.37818 0
M  V30 6602 H 647.403 -2.09607 -4.52622 0
M  V30 6603 H 646.557 -0.307412 -6.05921 0
M  V30 6604 H 645.296 0.138044 -4.87505 0
M  V30 6605 H 644.301 -2.1597 -5.05606 0
M  V30 6606 H 645.526 -2.59875 -6.27409 0
M  V30 6607 H 643.472 -0.371695 -6.54946 0
M  V30 6608 H 643.389 -1.92666 -7.31038 0
M  V30 6609 H 644.657 -0.82233 -7.7515 0
M  V30 6610 N 648.886 1.2938 -0.899927 0
M  V30 6611 C 650.114 1.99691 -0.541386 0
M  V30 6612 C 650.529 1.67355 0.873936 0
M  V30 6613 O 649.886 0.918728 1.57688 0
M  V30 6614 C 649.937 3.54168 -0.72438 0
M  V30 6615 O 649.658 3.85359 -2.08399 0
M  V30 6616 C 651.159 4.41746 -0.370819 0
M  V30 6617 H 648.379 0.638037 -0.207726 0
M  V30 6618 H 650.923 1.6491 -1.20934 0
M  V30 6619 H 649.078 3.87261 -0.103607 0
M  V30 6620 H 649.492 4.80032 -2.11352 0
M  V30 6621 H 650.966 5.49256 -0.549693 0
M  V30 6622 H 651.443 4.33712 0.692148 0
M  V30 6623 H 652.049 4.14125 -0.968543 0
M  V30 6624 N 650.364 0.662433 1.43002 0
M  V30 6625 C 651.294 -0.00979809 2.33498 0
M  V30 6626 C 652.275 -0.802329 1.49989 0
M  V30 6627 O 653.46 -0.761964 1.78627 0
M  V30 6628 C 650.59 -0.970446 3.33466 0
M  V30 6629 C 649.544 -0.287383 4.27034 0
M  V30 6630 C 648.87 -1.36012 5.17112 0
M  V30 6631 C 650.17 0.82595 5.15728 0
M  V30 6632 H 651.864 0.745959 2.89958 0
M  V30 6633 H 649.41 0.360172 1.39423 0
M  V30 6634 H 651.363 -1.44971 3.95679 0
M  V30 6635 H 650.087 -1.75748 2.75282 0
M  V30 6636 H 648.746 0.17152 3.66199 0
M  V30 6637 H 648.394 -2.13882 4.55262 0
M  V30 6638 H 648.094 -0.908276 5.80538 0
M  V30 6639 H 649.618 -1.84056 5.82199 0
M  V30 6640 H 651.032 0.42845 5.71697 0
M  V30 6641 H 649.429 1.20282 5.87922 0
M  V30 6642 H 650.499 1.68003 4.54866 0
M  V30 6643 N 651.842 -1.52309 0.404946 0
M  V30 6644 C 653.09 -2.01368 -0.17186 0
M  V30 6645 C 653.411 -1.29261 -1.46002 0
M  V30 6646 O 652.681 -0.41729 -1.91404 0
M  V30 6647 H 651.261 -0.744034 -0.0664993 0
M  V30 6648 H 653.923 -1.87263 0.540228 0
M  V30 6649 H 653.019 -3.09888 -0.370957 0
M  V30 6650 N 653.32 -0.135238 -1.57019 0
M  V30 6651 C 654.736 0.221262 -1.58059 0
M  V30 6652 C 654.936 1.65538 -1.14889 0
M  V30 6653 O 653.992 2.37985 -0.843751 0
M  V30 6654 C 655.305 -0.0268114 -3.00688 0
M  V30 6655 C 656.853 0.0378206 -3.12977 0
M  V30 6656 C 657.328 -0.182769 -4.57635 0
M  V30 6657 N 658.819 -0.129292 -4.6302 0
M  V30 6658 C 659.554 -0.274648 -5.72742 0
M  V30 6659 N 659.05 -0.477075 -6.91155 0
M  V30 6660 N 660.843 -0.213077 -5.61696 0
M  V30 6661 H 652.994 -1.07177 -1.83376 0
M  V30 6662 H 655.257 -0.423338 -0.848227 0
M  V30 6663 H 654.963 -1.01889 -3.36618 0
M  V30 6664 H 654.837 0.697863 -3.70688 0
M  V30 6665 H 657.224 1.02043 -2.76896 0
M  V30 6666 H 657.305 -0.718996 -2.45487 0
M  V30 6667 H 656.949 -1.16243 -4.94419 0
M  V30 6668 H 656.879 0.59423 -5.23237 0
M  V30 6669 H 659.37 0.0229896 -3.77893 0
M  V30 6670 H 659.683 -0.578413 -7.70632 0
M  V30 6671 H 658.028 -0.513252 -6.93102 0
M  V30 6672 H 661.219 -0.0557796 -4.68067 0
M  V30 6673 H 661.392 -0.329796 -6.4716 0
M  V30 6674 N 654.798 1.5699 0.138552 0
M  V30 6675 C 656.214 1.51844 0.491472 0
M  V30 6676 C 656.414 0.845063 1.82923 0
M  V30 6677 O 655.47 0.419143 2.48997 0
M  V30 6678 C 656.783 2.96615 0.493987 0
M  V30 6679 C 658.331 3.076 0.578913 0
M  V30 6680 C 658.806 4.53893 0.612009 0
M  V30 6681 N 660.297 4.5827 0.673997 0
M  V30 6682 C 661.032 5.68852 0.720729 0
M  V30 6683 N 660.528 6.88982 0.726292 0
M  V30 6684 N 662.321 5.56908 0.762253 0
M  V30 6685 H 654.472 1.99158 -0.738228 0
M  V30 6686 H 656.735 0.908693 -0.270149 0
M  V30 6687 H 656.441 3.49172 -0.420933 0
M  V30 6688 H 656.315 3.53017 1.32887 0
M  V30 6689 H 658.702 2.55057 1.48425 0
M  V30 6690 H 658.783 2.54227 -0.283286 0
M  V30 6691 H 658.427 5.07076 -0.289208 0
M  V30 6692 H 658.357 5.05057 1.49082 0
M  V30 6693 H 660.848 3.71793 0.676654 0
M  V30 6694 H 661.161 7.69014 0.764032 0
M  V30 6695 H 659.506 6.91526 0.69403 0
M  V30 6696 H 662.697 4.61969 0.755135 0
M  V30 6697 H 662.87 6.43102 0.795207 0
M  V30 6698 N 656.276 -0.40816 1.52223 0
M  V30 6699 C 657.553 -1.16807 1.56893 0
M  V30 6700 C 657.933 -2.08169 0.350537 0
M  V30 6701 O 657.281 -2.18684 -0.662536 0
M  V30 6702 C 657.491 -1.94451 2.8981 0
M  V30 6703 C 658.839 -2.50484 3.42845 0
M  V30 6704 O 659.863 -2.0463 2.91556 0
M  V30 6705 O 658.722 -3.34192 4.3241 0
M  V30 6706 H 655.816 -0.533382 0.632007 0
M  V30 6707 H 658.362 -0.414862 1.64551 0
M  V30 6708 H 657.134 -1.27527 3.69936 0
M  V30 6709 H 656.757 -2.76775 2.85449 0
M  V30 6710 N 657.755 -1.42862 -0.66545 0
M  V30 6711 C 658.98 -1.47456 -1.45848 0
M  V30 6712 C 659.405 -0.0900312 -1.87884 0
M  V30 6713 O 658.763 0.913587 -1.56599 0
M  V30 6714 C 658.811 -2.41514 -2.67774 0
M  V30 6715 O 657.915 -1.89296 -3.66389 0
M  V30 6716 H 657.256 -0.499236 -0.437789 0
M  V30 6717 H 659.786 -1.8765 -0.815394 0
M  V30 6718 H 659.796 -2.58409 -3.15735 0
M  V30 6719 H 658.471 -3.42099 -2.36519 0
M  V30 6720 H 657.048 -1.82003 -3.25468 0
M  V30 6721 N 659.233 0.902656 -1.29189 0
M  V30 6722 C 660.458 1.69167 -1.19989 0
M  V30 6723 C 660.883 1.86607 0.236495 0
M  V30 6724 O 660.241 1.38425 1.17082 0
M  V30 6725 C 660.289 3.05532 -1.91527 0
M  V30 6726 O 659.393 3.93621 -1.2303 0
M  V30 6727 H 658.734 0.517584 -0.415936 0
M  V30 6728 H 661.264 1.12785 -1.70706 0
M  V30 6729 H 661.274 3.55693 -1.99866 0
M  V30 6730 H 659.949 2.92156 -2.96003 0
M  V30 6731 H 658.526 3.52055 -1.22928 0
M  V30 6732 N 660.711 1.11618 1.11262 0
M  V30 6733 C 661.988 0.777876 1.79467 0
M  V30 6734 C 662.368 -0.733774 1.97937 0
M  V30 6735 O 661.716 -1.66443 1.56554 0
M  V30 6736 C 661.926 1.5431 3.13032 0
M  V30 6737 C 663.274 1.72357 3.88044 0
M  V30 6738 O 664.298 1.5075 3.22727 0
M  V30 6739 O 663.157 2.08276 5.05256 0
M  V30 6740 H 660.251 0.282018 0.777428 0
M  V30 6741 H 662.797 1.21971 1.17988 0
M  V30 6742 H 661.569 2.57132 2.94956 0
M  V30 6743 H 661.192 1.09495 3.82226 0
M  V30 6744 N 662.189 -1.289 0.906776 0
M  V30 6745 C 663.466 -1.90221 0.455537 0
M  V30 6746 C 663.846 -1.82251 -1.06527 0
M  V30 6747 O 663.194 -1.25385 -1.91026 0
M  V30 6748 C 663.404 -3.35015 0.97806 0
M  V30 6749 C 664.752 -4.12018 1.02598 0
M  V30 6750 O 665.776 -3.43947 0.926218 0
M  V30 6751 O 664.635 -5.33677 1.17689 0
M  V30 6752 H 661.729 -0.814505 0.143214 0
M  V30 6753 H 664.275 -1.37317 0.997104 0
M  V30 6754 H 663.047 -3.35006 2.02204 0
M  V30 6755 H 662.67 -3.95408 0.416914 0
M  V30 6756 N 663.667 -0.670007 -1.42649 0
M  V30 6757 C 664.913 -0.19923 -2.02422 0
M  V30 6758 C 665.268 1.17947 -1.52007 0
M  V30 6759 O 664.561 1.77939 -0.710512 0
M  V30 6760 C 664.755 -0.168298 -3.57004 0
M  V30 6761 C 664.584 -1.54246 -4.22419 0
M  V30 6762 C 663.354 -2.13904 -4.57792 0
M  V30 6763 C 665.552 -2.4842 -4.50324 0
M  V30 6764 N 663.534 -3.44151 -5.08364 0
M  V30 6765 C 664.905 -3.63317 -5.02395 0
M  V30 6766 C 666.96 -2.47011 -4.32308 0
M  V30 6767 C 665.663 -4.77051 -5.38345 0
M  V30 6768 C 667.689 -3.59838 -4.6933 0
M  V30 6769 C 667.051 -4.73462 -5.21549 0
M  V30 6770 H 663.15 -0.117717 -0.773089 0
M  V30 6771 H 665.734 -0.881955 -1.73579 0
M  V30 6772 H 663.905 0.483824 -3.85375 0
M  V30 6773 H 665.637 0.314914 -4.03473 0
M  V30 6774 H 662.392 -1.66441 -4.4339 0
M  V30 6775 H 662.816 -4.10846 -5.38084 0
M  V30 6776 H 667.458 -1.60394 -3.91195 0
M  V30 6777 H 665.176 -5.64347 -5.78393 0
M  V30 6778 H 668.762 -3.59969 -4.57071 0
M  V30 6779 H 667.642 -5.59321 -5.49663 0
M  V30 6780 N 665.145 1.52092 -0.413018 0
M  V30 6781 C 666.055 2.30858 0.417318 0
M  V30 6782 C 667.071 1.38746 1.05003 0
M  V30 6783 O 668.247 1.71821 1.05069 0
M  V30 6784 C 665.312 3.11756 1.51687 0
M  V30 6785 C 664.373 4.19613 0.906825 0
M  V30 6786 C 663.606 4.96644 1.95399 0
M  V30 6787 O 663.829 4.7402 3.17271 0
M  V30 6788 O 662.763 5.81385 1.55805 0
M  V30 6789 H 666.589 3.02865 -0.225028 0
M  V30 6790 H 664.174 1.48358 -0.176126 0
M  V30 6791 H 666.056 3.62122 2.15512 0
M  V30 6792 H 664.731 2.42539 2.14375 0
M  V30 6793 H 663.638 3.73385 0.231183 0
M  V30 6794 H 664.971 4.91134 0.323814 0
M  V30 6795 N 666.623 0.143563 1.56945 0
M  V30 6796 C 667.872 -0.50835 1.95189 0
M  V30 6797 C 668.185 -1.66239 1.03073 0
M  V30 6798 O 669.391 -2.3787 1.30882 0
M  V30 6799 C 667.847 -0.955735 3.46978 0
M  V30 6800 C 667.455 0.171183 4.47673 0
M  V30 6801 C 669.199 -1.57763 3.94095 0
M  V30 6802 C 667.106 -0.294279 5.90667 0
M  V30 6803 H 666.036 -0.193679 0.728701 0
M  V30 6804 H 668.687 0.227357 1.82086 0
M  V30 6805 H 667.069 -1.7466 3.55401 0
M  V30 6806 H 668.243 0.948049 4.50942 0
M  V30 6807 H 666.558 0.701273 4.10452 0
M  V30 6808 H 669.155 -1.93745 4.98364 0
M  V30 6809 H 669.498 -2.46531 3.35452 0
M  V30 6810 H 670.031 -0.851728 3.88575 0
M  V30 6811 H 666.77 0.557939 6.53121 0
M  V30 6812 H 666.29 -1.0371 5.90766 0
M  V30 6813 H 667.969 -0.747426 6.42668 0
M  V30 6814 N 668.101 -1.57061 -0.130224 0
M  V30 6815 C 669.512 -1.73539 -0.68856 0
M  V30 6816 C 669.863 -0.760554 -1.80859 0
M  V30 6817 O 668.988 0.0690796 -2.1629 0
M  V30 6818 C 669.583 -3.14666 -1.25581 0
M  V30 6819 C 668.142 -3.32689 -1.76055 0
M  V30 6820 C 667.289 -2.69436 -0.655712 0
M  V30 6821 H 670.24 -1.58412 0.0956002 0
M  V30 6822 H 670.261 -3.15595 -2.12556 0
M  V30 6823 H 669.773 -3.85593 -0.440412 0
M  V30 6824 H 667.874 -2.66786 -2.60108 0
M  V30 6825 H 667.987 -4.4077 -1.87772 0
M  V30 6826 H 666.351 -2.30362 -1.08654 0
M  V30 6827 H 667.134 -3.42979 0.14852 0
M  V30 6828 N 669.579 0.400081 -1.52437 0
M  V30 6829 C 670.856 1.15973 -1.57511 0
M  V30 6830 C 671.236 2.0798 -0.361572 0
M  V30 6831 O 670.584 2.19032 0.650929 0
M  V30 6832 C 670.794 1.92912 -2.90837 0
M  V30 6833 C 672.142 2.48662 -3.44169 0
M  V30 6834 O 673.166 2.03081 -2.92637 0
M  V30 6835 O 672.025 3.31894 -4.34176 0
M  V30 6836 H 669.119 0.530023 -0.634827 0
M  V30 6837 H 671.665 0.40613 -1.64769 0
M  V30 6838 H 670.437 1.25564 -3.70607 0
M  V30 6839 H 670.06 2.75257 -2.86913 0
M  V30 6840 N 671.057 1.43213 0.657864 0
M  V30 6841 C 672.305 1.44298 1.41501 0
M  V30 6842 C 672.626 0.0666478 1.94886 0
M  V30 6843 O 671.896 -0.897345 1.74139 0
M  V30 6844 H 670.476 0.531257 0.525143 0
M  V30 6845 H 673.138 1.78777 0.776195 0
M  V30 6846 H 672.234 2.1528 2.25966 0
M  V30 6847 N 672.536 -0.895792 1.29666 0
M  V30 6848 C 673.468 -2.00563 1.10937 0
M  V30 6849 C 674.481 -1.62705 0.055734 0
M  V30 6850 O 675.67 -1.7595 0.300656 0
M  V30 6851 C 672.77 -3.32262 0.667448 0
M  V30 6852 C 671.943 -3.98625 1.80047 0
M  V30 6853 C 671.002 -5.08617 1.3489 0
M  V30 6854 O 670.028 -5.30837 2.05429 0
M  V30 6855 N 671.23 -5.80076 0.221937 0
M  V30 6856 H 673.995 -2.17184 2.06522 0
M  V30 6857 H 671.556 -1.06822 1.21658 0
M  V30 6858 H 673.548 -4.03196 0.348586 0
M  V30 6859 H 672.118 -3.11985 -0.196055 0
M  V30 6860 H 671.338 -3.21005 2.28801 0
M  V30 6861 H 672.626 -4.39704 2.56003 0
M  V30 6862 H 672.024 -5.64514 -0.366084 0
M  V30 6863 H 670.581 -6.51789 -0.0375346 0
M  V30 6864 N 674.014 -1.12206 -1.10668 0
M  V30 6865 C 675.263 -0.870595 -1.81944 0
M  V30 6866 C 675.576 0.605447 -1.85994 0
M  V30 6867 O 676.782 0.973433 -2.53449 0
M  V30 6868 C 675.238 -1.50783 -3.26791 0
M  V30 6869 C 674.846 -3.01849 -3.31046 0
M  V30 6870 C 676.59 -1.33653 -4.02911 0
M  V30 6871 C 674.497 -3.58518 -4.70339 0
M  V30 6872 H 673.427 -0.322043 -0.681765 0
M  V30 6873 H 676.078 -1.34827 -1.24475 0
M  V30 6874 H 674.46 -0.957825 -3.84242 0
M  V30 6875 H 675.634 -3.63321 -2.83433 0
M  V30 6876 H 673.949 -3.18346 -2.68411 0
M  V30 6877 H 676.546 -1.73416 -5.05797 0
M  V30 6878 H 676.889 -0.279949 -4.15358 0
M  V30 6879 H 677.422 -1.85562 -3.51868 0
M  V30 6880 H 674.161 -4.63925 -4.63091 0
M  V30 6881 H 673.681 -3.01819 -5.18329 0
M  V30 6882 H 675.36 -3.57434 -5.39305 0
M  V30 6883 N 675.492 1.28418 -0.913599 0
M  V30 6884 C 676.72 1.99106 -0.562536 0
M  V30 6885 C 677.135 1.68273 0.856137 0
M  V30 6886 O 676.492 0.935401 1.56705 0
M  V30 6887 C 676.543 3.5338 -0.761903 0
M  V30 6888 O 676.264 3.83127 -2.12475 0
M  V30 6889 C 677.765 4.41328 -0.417651 0
M  V30 6890 H 674.985 0.635798 -0.214481 0
M  V30 6891 H 677.529 1.63618 -1.22676 0
M  V30 6892 H 675.684 3.8713 -0.144676 0
M  V30 6893 H 676.098 4.77763 -2.16431 0
M  V30 6894 H 677.572 5.48642 -0.607919 0
M  V30 6895 H 678.049 4.34422 0.646108 0
M  V30 6896 H 678.655 4.13074 -1.01241 0
M  V30 6897 N 676.97 0.677563 1.42291 0
M  V30 6898 C 678.216 0.201272 2.01799 0
M  V30 6899 C 678.549 -1.19004 1.53465 0
M  V30 6900 O 677.824 -1.79953 0.738039 0
M  V30 6901 C 678.107 0.238968 3.59306 0
M  V30 6902 C 677.96 1.66594 4.17812 0
M  V30 6903 C 679.279 -0.411287 4.38174 0
M  V30 6904 H 676.398 0.0746114 0.733214 0
M  V30 6905 H 679.04 0.862872 1.69276 0
M  V30 6906 H 677.19 -0.324368 3.87144 0
M  V30 6907 H 678.862 2.28173 4.00917 0
M  V30 6908 H 677.105 2.20576 3.73536 0
M  V30 6909 H 677.776 1.64398 5.26951 0
M  V30 6910 H 680.252 0.0682804 4.16044 0
M  V30 6911 H 679.128 -0.354286 5.47755 0
M  V30 6912 H 679.389 -1.4893 4.1626 0
M  V30 6913 N 678.448 -1.51871 0.421078 0
M  V30 6914 C 679.696 -2.01539 -0.150492 0
M  V30 6915 C 680.017 -1.30803 -1.44623 0
M  V30 6916 O 679.287 -0.437568 -1.90951 0
M  V30 6917 H 677.867 -0.744698 -0.0586041 0
M  V30 6918 H 680.529 -1.8668 0.560059 0
M  V30 6919 H 679.625 -3.10264 -0.338068 0
M  V30 6920 N 679.926 -0.151884 -1.56866 0
M  V30 6921 C 680.858 0.817008 -2.14144 0
M  V30 6922 C 681.871 1.20735 -1.0921 0
M  V30 6923 O 683.06 1.15058 -1.36469 0
M  V30 6924 C 680.16 2.10844 -2.65326 0
M  V30 6925 C 679.333 1.88471 -3.94712 0
M  V30 6926 C 678.392 3.01649 -4.31155 0
M  V30 6927 O 677.418 2.73127 -4.9939 0
M  V30 6928 N 678.62 4.28947 -3.91132 0
M  V30 6929 H 681.385 0.327448 -2.97906 0
M  V30 6930 H 678.946 0.0315313 -1.61869 0
M  V30 6931 H 680.938 2.85616 -2.86715 0
M  V30 6932 H 679.508 2.51049 -1.86262 0
M  V30 6933 H 678.728 0.977088 -3.81899 0
M  V30 6934 H 680.016 1.70866 -4.79252 0
M  V30 6935 H 679.414 4.54986 -3.36161 0
M  V30 6936 H 677.971 5.00484 -4.17563 0
M  V30 6937 N 681.404 1.57128 0.121893 0
M  V30 6938 C 682.82 1.52357 0.47534 0
M  V30 6939 C 683.02 0.864417 1.82017 0
M  V30 6940 O 682.076 0.445529 2.48538 0
M  V30 6941 C 683.389 2.97122 0.4625 0
M  V30 6942 C 684.937 3.08196 0.546255 0
M  V30 6943 C 685.412 4.54516 0.563833 0
M  V30 6944 N 686.903 4.58959 0.625353 0
M  V30 6945 C 687.638 5.69585 0.660354 0
M  V30 6946 N 687.134 6.89714 0.653175 0
M  V30 6947 N 688.927 5.57685 0.703143 0
M  V30 6948 H 681.078 1.98364 -0.75931 0
M  V30 6949 H 683.341 0.905777 -0.279772 0
M  V30 6950 H 683.047 3.48706 -0.457943 0
M  V30 6951 H 682.921 3.54406 1.29136 0
M  V30 6952 H 685.308 2.56617 1.45712 0
M  V30 6953 H 685.389 2.53912 -0.310234 0
M  V30 6954 H 685.033 5.06741 -0.342974 0
M  V30 6955 H 684.963 5.06609 1.43716 0
M  V30 6956 H 687.454 3.72489 0.637182 0
M  V30 6957 H 687.767 7.69781 0.682425 0
M  V30 6958 H 686.112 6.92223 0.620646 0
M  V30 6959 H 689.303 4.62744 0.706095 0
M  V30 6960 H 689.476 6.43909 0.726952 0
M  V30 6961 N 682.882 -0.391992 1.52647 0
M  V30 6962 C 684.131 -1.13449 1.6677 0
M  V30 6963 C 684.444 -1.91203 0.412399 0
M  V30 6964 O 685.65 -2.68013 0.433707 0
M  V30 6965 C 684.106 -2.06577 2.9471 0
M  V30 6966 C 683.714 -1.3426 4.27409 0
M  V30 6967 C 685.458 -2.80981 3.18198 0
M  V30 6968 C 683.365 -2.26136 5.46458 0
M  V30 6969 H 682.295 -0.427211 0.621295 0
M  V30 6970 H 684.946 -0.397522 1.79142 0
M  V30 6971 H 683.328 -2.83898 2.76076 0
M  V30 6972 H 684.502 -0.621856 4.56585 0
M  V30 6973 H 682.817 -0.718279 4.10158 0
M  V30 6974 H 685.414 -3.49898 4.04321 0
M  V30 6975 H 685.757 -3.44891 2.33144 0
M  V30 6976 H 686.29 -2.10754 3.37383 0
M  V30 6977 H 683.029 -1.66846 6.33911 0
M  V30 6978 H 682.549 -2.96134 5.21598 0
M  V30 6979 H 684.228 -2.86286 5.80215 0
M  V30 6980 N 684.36 -1.4356 -0.65026 0
M  V30 6981 C 685.608 -1.45046 -1.40734 0
M  V30 6982 C 685.929 -0.0769822 -1.94848 0
M  V30 6983 O 685.199 0.888098 -1.74613 0
M  V30 6984 H 683.779 -0.534034 -0.522318 0
M  V30 6985 H 686.441 -1.79186 -0.766703 0
M  V30 6986 H 685.537 -2.16476 -2.24822 0
M  V30 6987 N 685.838 0.888903 -1.30139 0
M  V30 6988 C 687.063 1.67884 -1.21777 0
M  V30 6989 C 687.488 1.86848 0.216689 0
M  V30 6990 O 686.846 1.39659 1.15608 0
M  V30 6991 C 686.894 3.03483 -1.94757 0
M  V30 6992 O 685.998 3.92294 -1.27198 0
M  V30 6993 H 685.339 0.513144 -0.421402 0
M  V30 6994 H 687.869 1.10968 -1.71893 0
M  V30 6995 H 687.879 3.53553 -2.03627 0
M  V30 6996 H 686.554 2.89 -2.99085 0
M  V30 6997 H 685.131 3.50732 -1.26655 0
M  V30 6998 N 687.317 1.12792 1.10072 0
M  V30 6999 C 688.565 0.883796 1.81751 0
M  V30 7000 C 688.886 -0.591891 1.858 0
M  V30 7001 O 688.156 -1.43017 1.33876 0
M  V30 7002 H 686.736 0.323978 0.673088 0
M  V30 7003 H 689.398 1.42314 1.33164 0
M  V30 7004 H 688.494 1.26863 2.85153 0
M  V30 7005 N 688.795 -1.27931 0.920396 0
M  V30 7006 C 690.02 -1.99343 0.572478 0
M  V30 7007 C 690.445 -1.68267 -0.840696 0
M  V30 7008 O 689.803 -0.918805 -1.56294 0
M  V30 7009 C 689.851 -3.51698 0.796284 0
M  V30 7010 O 688.955 -4.12157 -0.141602 0
M  V30 7011 H 688.296 -0.626065 0.221221 0
M  V30 7012 H 690.826 -1.62921 1.23765 0
M  V30 7013 H 690.836 -4.01793 0.708984 0
M  V30 7014 H 689.511 -3.73649 1.82644 0
M  V30 7015 H 688.088 -3.729 -0.005007 0
M  V30 7016 N 690.273 -0.685099 -1.4193 0
M  V30 7017 C 691.52 -0.211658 -2.01391 0
M  V30 7018 C 691.848 1.18526 -1.54214 0
M  V30 7019 O 691.103 1.81189 -0.739519 0
M  V30 7020 C 691.402 -0.206154 -3.56805 0
M  V30 7021 C 691.068 -1.54915 -4.23453 0
M  V30 7022 C 689.73 -1.91684 -4.41373 0
M  V30 7023 C 692.082 -2.43317 -4.60919 0
M  V30 7024 C 689.41 -3.16461 -4.94034 0
M  V30 7025 C 691.762 -3.67415 -5.14965 0
M  V30 7026 C 690.426 -4.04341 -5.31098 0
M  V30 7027 H 689.696 -0.0774511 -0.736941 0
M  V30 7028 H 692.343 -0.882121 -1.69973 0
M  V30 7029 H 690.648 0.547841 -3.87951 0
M  V30 7030 H 692.345 0.17753 -4.00607 0
M  V30 7031 H 688.935 -1.25314 -4.09871 0
M  V30 7032 H 693.119 -2.16192 -4.46738 0
M  V30 7033 H 688.375 -3.45078 -5.04709 0
M  V30 7034 H 692.549 -4.3611 -5.42938 0
M  V30 7035 H 690.176 -5.01101 -5.71666 0
M  V30 7036 N 691.751 1.51645 -0.429126 0
M  V30 7037 C 692.999 2.01616 0.139802 0
M  V30 7038 C 693.32 1.31568 1.43927 0
M  V30 7039 O 692.59 0.447688 1.90716 0
M  V30 7040 H 691.17 0.744998 0.054654 0
M  V30 7041 H 693.832 1.8638 -0.569952 0
M  V30 7042 H 692.928 3.10439 0.321609 0
M  V30 7043 N 693.229 0.160201 1.56784 0
M  V30 7044 C 694.457 -0.494165 2.00912 0
M  V30 7045 C 694.872 -1.57548 1.04038 0
M  V30 7046 O 694.229 -1.82457 0.0394581 0
M  V30 7047 C 694.28 -1.08271 3.44905 0
M  V30 7048 O 694.001 -0.0445704 4.38077 0
M  V30 7049 C 695.502 -1.8164 4.04378 0
M  V30 7050 H 692.722 -0.127498 0.658776 0
M  V30 7051 H 695.266 0.258665 2.02858 0
M  V30 7052 H 693.421 -1.78609 3.4377 0
M  V30 7053 H 693.835 -0.477544 5.22322 0
M  V30 7054 H 695.309 -2.18094 5.07089 0
M  V30 7055 H 695.786 -2.70727 3.45838 0
M  V30 7056 H 696.392 -1.15969 4.09184 0
M  V30 7057 N 694.707 -1.5719 -0.113559 0
M  V30 7058 C 695.953 -1.85412 -0.821597 0
M  V30 7059 C 696.286 -0.746722 -1.7927 0
M  V30 7060 O 695.561 0.246971 -1.92926 0
M  V30 7061 C 695.844 -3.24233 -1.56669 0
M  V30 7062 C 695.697 -4.45578 -0.614823 0
M  V30 7063 C 697.016 -3.60697 -2.52161 0
M  V30 7064 H 694.135 -0.674406 -0.29723 0
M  V30 7065 H 696.777 -1.89807 -0.085694 0
M  V30 7066 H 694.927 -3.20617 -2.19401 0
M  V30 7067 H 696.599 -4.613 0.00407137 0
M  V30 7068 H 694.842 -4.33738 0.0732332 0
M  V30 7069 H 695.513 -5.39395 -1.17292 0
M  V30 7070 H 697.989 -3.65139 -1.99532 0
M  V30 7071 H 696.865 -4.58798 -3.01323 0
M  V30 7072 H 697.126 -2.88403 -3.35076 0
M  V30 7073 N 696.185 0.383891 -1.52853 0
M  V30 7074 C 697.415 1.14783 -1.7178 0
M  V30 7075 C 697.823 1.84055 -0.438211 0
M  V30 7076 O 697.166 1.73713 0.597465 0
M  V30 7077 C 697.228 2.23543 -2.81547 0
M  V30 7078 C 696.892 1.74195 -4.22499 0
M  V30 7079 C 697.889 1.21591 -5.05481 0
M  V30 7080 C 695.574 1.80262 -4.6884 0
M  V30 7081 C 697.568 0.757104 -6.32888 0
M  V30 7082 C 695.255 1.33993 -5.96229 0
M  V30 7083 C 696.253 0.818049 -6.78083 0
M  V30 7084 O 695.941 0.362123 -8.03084 0
M  V30 7085 H 695.673 0.349908 -0.578395 0
M  V30 7086 H 698.227 0.454377 -2.00311 0
M  V30 7087 H 696.457 2.96328 -2.48449 0
M  V30 7088 H 698.146 2.8519 -2.88828 0
M  V30 7089 H 698.912 1.16257 -4.7086 0
M  V30 7090 H 694.791 2.19825 -4.05213 0
M  V30 7091 H 698.335 0.34908 -6.96726 0
M  V30 7092 H 694.232 1.39015 -6.30353 0
M  V30 7093 H 695 0.483134 -8.17073 0
M  V30 7094 N 697.663 1.43903 0.642637 0
M  V30 7095 C 698.61 1.49881 1.75512 0
M  V30 7096 C 699.58 0.347538 1.62423 0
M  V30 7097 O 700.765 0.556177 1.82514 0
M  V30 7098 C 697.905 1.43797 3.13714 0
M  V30 7099 C 697.018 2.6921 3.37861 0
M  V30 7100 C 696.153 2.5504 4.6597 0
M  V30 7101 C 695.192 3.75671 4.83257 0
M  V30 7102 N 694.329 3.60247 6.02633 0
M  V30 7103 H 699.169 2.44935 1.69737 0
M  V30 7104 H 696.706 1.21572 0.828165 0
M  V30 7105 H 698.664 1.38262 3.93624 0
M  V30 7106 H 697.294 0.523173 3.18532 0
M  V30 7107 H 696.346 2.8498 2.51973 0
M  V30 7108 H 697.658 3.58786 3.46517 0
M  V30 7109 H 696.812 2.47273 5.54023 0
M  V30 7110 H 695.551 1.63006 4.59653 0
M  V30 7111 H 694.556 3.83836 3.93637 0
M  V30 7112 H 695.781 4.68728 4.91397 0
M  V30 7113 H 693.727 2.70955 5.97427 0
M  V30 7114 H 693.644 4.43431 6.12295 0
M  V30 7115 H 694.912 3.56351 6.93278 0
M  V30 7116 N 699.141 -0.881989 1.30609 0
M  V30 7117 C 700.389 -1.63082 1.19368 0
M  V30 7118 C 700.71 -1.93376 -0.251147 0
M  V30 7119 O 699.98 -1.5723 -1.16857 0
M  V30 7120 H 698.56 -0.604542 0.438791 0
M  V30 7121 H 701.222 -1.05658 1.63776 0
M  V30 7122 H 700.318 -2.57966 1.7567 0
M  V30 7123 N 700.619 -1.13374 -1.09472 0
M  V30 7124 C 701.566 -0.810682 -2.16094 0
M  V30 7125 C 702.536 0.227003 -1.64541 0
M  V30 7126 O 703.721 0.0993538 -1.90541 0
M  V30 7127 C 700.861 -0.282336 -3.43943 0
M  V30 7128 C 699.974 -1.37902 -4.09398 0
M  V30 7129 C 699.109 -0.809066 -5.25002 0
M  V30 7130 C 698.148 -1.88419 -5.82379 0
M  V30 7131 N 697.285 -1.33221 -6.89345 0
M  V30 7132 H 702.125 -1.72397 -2.43071 0
M  V30 7133 H 699.662 -0.860564 -1.19301 0
M  V30 7134 H 701.62 0.0421189 -4.17179 0
M  V30 7135 H 700.25 0.594083 -3.17286 0
M  V30 7136 H 699.302 -1.82008 -3.34032 0
M  V30 7137 H 700.614 -2.19161 -4.48074 0
M  V30 7138 H 699.768 -0.435867 -6.05132 0
M  V30 7139 H 698.507 0.0346058 -4.87688 0
M  V30 7140 H 697.512 -2.26646 -5.00911 0
M  V30 7141 H 698.737 -2.73125 -6.21755 0
M  V30 7142 H 696.683 -0.510535 -6.5401 0
M  V30 7143 H 696.6 -2.08129 -7.26786 0
M  V30 7144 H 697.868 -0.986565 -7.73232 0
M  V30 7145 N 702.098 1.27442 -0.927168 0
M  V30 7146 C 703.344 1.95025 -0.577651 0
M  V30 7147 C 703.699 1.71534 0.871421 0
M  V30 7148 O 702.992 1.03354 1.61333 0
M  V30 7149 C 703.186 3.47413 -0.838994 0
M  V30 7150 C 703.015 3.85721 -2.31192 0
M  V30 7151 C 701.785 4.09199 -2.96452 0
M  V30 7152 C 703.983 3.95352 -3.28939 0
M  V30 7153 N 701.965 4.34283 -4.33903 0
M  V30 7154 C 703.336 4.24805 -4.51598 0
M  V30 7155 C 705.391 3.77926 -3.24155 0
M  V30 7156 C 704.094 4.38645 -5.70073 0
M  V30 7157 C 706.12 3.9299 -4.41942 0
M  V30 7158 C 705.482 4.22829 -5.63379 0
M  V30 7159 H 701.581 0.736983 -0.261495 0
M  V30 7160 H 704.165 1.53816 -1.19368 0
M  V30 7161 H 702.336 3.87581 -0.252129 0
M  V30 7162 H 704.068 4.02166 -0.452158 0
M  V30 7163 H 700.823 4.04013 -2.47125 0
M  V30 7164 H 701.247 4.50883 -5.05008 0
M  V30 7165 H 705.889 3.53897 -2.31337 0
M  V30 7166 H 703.607 4.615 -6.63358 0
M  V30 7167 H 707.193 3.80926 -4.39757 0
M  V30 7168 H 706.073 4.34234 -6.53001 0
M  V30 7169 N 703.576 0.692616 1.41565 0
M  V30 7170 C 704.526 0.00231847 2.28 0
M  V30 7171 C 705.51 -0.755793 1.42044 0
M  V30 7172 O 706.702 -0.631772 1.65341 0
M  V30 7173 C 703.831 -0.935468 3.30309 0
M  V30 7174 C 702.917 -0.173761 4.23744 0
M  V30 7175 N 703.308 0.830872 4.98929 0
M  V30 7176 C 701.606 -0.409666 4.44115 0
M  V30 7177 C 702.307 1.28656 5.67294 0
M  V30 7178 N 701.283 0.613053 5.40132 0
M  V30 7179 H 705.085 0.772635 2.83562 0
M  V30 7180 H 702.599 0.523198 1.53741 0
M  V30 7181 H 704.596 -1.44513 3.91052 0
M  V30 7182 H 703.256 -1.70542 2.76307 0
M  V30 7183 H 704.267 1.21101 5.03542 0
M  V30 7184 H 700.944 -1.15773 4.01127 0
M  V30 7185 H 702.334 2.12006 6.37576 0
M  V30 7186 N 705.054 -1.51416 0.437162 0
M  V30 7187 C 706.302 -2.01687 -0.129108 0
M  V30 7188 C 706.623 -1.32329 -1.43227 0
M  V30 7189 O 705.893 -0.457796 -1.90476 0
M  V30 7190 H 704.473 -0.745277 -0.0507023 0
M  V30 7191 H 707.135 -1.86075 0.579828 0
M  V30 7192 H 706.231 -3.10605 -0.305141 0
M  V30 7193 N 706.532 -0.168513 -1.56696 0
M  V30 7194 C 707.809 0.523367 -1.88468 0
M  V30 7195 C 708.189 1.81503 -1.07796 0
M  V30 7196 O 707.537 2.27859 -0.171045 0
M  V30 7197 C 707.747 0.767991 -3.40445 0
M  V30 7198 C 709.095 1.09924 -4.10124 0
M  V30 7199 O 710.119 0.856625 -3.45746 0
M  V30 7200 O 708.978 1.55681 -5.23856 0
M  V30 7201 H 706.072 0.269447 -0.781874 0
M  V30 7202 H 708.618 -0.206739 -1.68436 0
M  V30 7203 H 707.39 -0.145254 -3.9103 0
M  V30 7204 H 707.013 1.55151 -3.66079 0
M  V30 7205 N 708.01 1.57248 0.105221 0
M  V30 7206 C 709.256 1.85845 0.811753 0
M  V30 7207 C 709.589 0.756219 1.78871 0
M  V30 7208 O 708.864 -0.236736 1.93054 0
M  V30 7209 C 709.147 3.25059 1.54947 0
M  V30 7210 C 709 4.45898 0.591185 0
M  V30 7211 C 710.319 3.6203 2.50245 0
M  V30 7212 H 707.438 0.675973 0.293649 0
M  V30 7213 H 710.08 1.89849 0.0756269 0
M  V30 7214 H 708.23 3.21776 2.17698 0
M  V30 7215 H 709.902 4.61291 -0.0285352 0
M  V30 7216 H 708.145 4.33693 -0.0962343 0
M  V30 7217 H 708.816 5.40009 1.1443 0
M  V30 7218 H 711.292 3.66192 1.97593 0
M  V30 7219 H 710.168 4.60389 2.98886 0
M  V30 7220 H 710.429 2.90176 3.33542 0
M  V30 7221 N 709.488 -0.375779 1.53054 0
M  V30 7222 C 710.451 -1.44254 1.7811 0
M  V30 7223 C 711.451 -1.47018 0.651328 0
M  V30 7224 O 712.641 -1.47957 0.919472 0
M  V30 7225 C 709.773 -2.8345 1.89391 0
M  V30 7226 H 710.966 -1.23316 2.73374 0
M  V30 7227 H 708.519 -0.608312 1.43977 0
M  V30 7228 H 709.254 -3.09716 0.961589 0
M  V30 7229 H 709.039 -2.82844 2.71555 0
M  V30 7230 H 710.529 -3.60722 2.10404 0
M  V30 7231 N 710.966 -1.44241 -0.634997 0
M  V30 7232 C 712.212 -1.47038 -1.39669 0
M  V30 7233 C 712.545 -0.101122 -1.93937 0
M  V30 7234 O 711.82 0.880699 -1.73418 0
M  V30 7235 C 712.103 -2.52763 -2.56482 0
M  V30 7236 C 711.956 -3.99032 -2.07589 0
M  V30 7237 C 713.275 -2.55031 -3.58674 0
M  V30 7238 H 710.394 -0.53537 -0.506506 0
M  V30 7239 H 713.036 -1.75898 -0.718317 0
M  V30 7240 H 711.186 -2.28284 -3.14354 0
M  V30 7241 H 712.858 -4.3463 -1.54577 0
M  V30 7242 H 711.101 -4.10994 -1.38804 0
M  V30 7243 H 711.772 -4.68649 -2.91671 0
M  V30 7244 H 714.248 -2.76893 -3.10595 0
M  V30 7245 H 713.124 -3.30916 -4.37934 0
M  V30 7246 H 713.385 -1.59085 -4.12486 0
M  V30 7247 N 712.444 0.87505 -1.31075 0
M  V30 7248 C 713.391 1.98178 -1.18296 0
M  V30 7249 C 714.361 1.65952 -0.0699923 0
M  V30 7250 O 715.546 1.8926 -0.241951 0
M  V30 7251 C 712.686 3.33399 -0.891024 0
M  V30 7252 C 711.799 3.78253 -2.08684 0
M  V30 7253 C 710.934 5.02166 -1.73212 0
M  V30 7254 C 709.973 5.39455 -2.89231 0
M  V30 7255 N 709.11 6.54549 -2.53989 0
M  V30 7256 H 713.95 2.0844 -2.12971 0
M  V30 7257 H 711.487 1.02047 -1.05948 0
M  V30 7258 H 713.445 4.11246 -0.702338 0
M  V30 7259 H 712.075 3.22794 0.0188799 0
M  V30 7260 H 711.127 2.9623 -2.38646 0
M  V30 7261 H 712.439 4.01821 -2.95536 0
M  V30 7262 H 711.593 5.87666 -1.50777 0
M  V30 7263 H 710.332 4.80491 -0.83544 0
M  V30 7264 H 709.337 4.52477 -3.12321 0
M  V30 7265 H 710.562 5.63098 -3.79601 0
M  V30 7266 H 708.508 6.3443 -1.66838 0
M  V30 7267 H 708.425 6.78035 -3.34372 0
M  V30 7268 H 709.693 7.43254 -2.34934 0
M  V30 7269 N 713.922 1.13953 1.08869 0
M  V30 7270 C 714.855 0.765765 2.14968 0
M  V30 7271 C 715.833 -0.250689 1.60656 0
M  V30 7272 O 717.017 -0.140852 1.87973 0
M  V30 7273 C 714.144 0.136146 3.38426 0
M  V30 7274 C 713.19 1.12201 4.11477 0
M  V30 7275 S 714.023 2.65711 4.64928 0
M  V30 7276 C 715.179 2.04125 5.91679 0
M  V30 7277 H 715.412 1.66444 2.46341 0
M  V30 7278 H 712.945 0.960263 1.20906 0
M  V30 7279 H 714.903 -0.220712 4.09906 0
M  V30 7280 H 713.564 -0.739887 3.05261 0
M  V30 7281 H 712.757 0.629398 5.00055 0
M  V30 7282 H 712.359 1.42262 3.45886 0
M  V30 7283 H 714.651 1.39381 6.63008 0
M  V30 7284 H 715.594 2.90808 6.45629 0
M  V30 7285 H 716.002 1.4905 5.44467 0
M  V30 7286 N 715.4 -1.26948 0.933913 0
M  V30 7287 C 716.33 -2.29017 0.45534 0
M  V30 7288 C 717.311 -1.62961 -0.487605 0
M  V30 7289 O 718.496 -1.90223 -0.391022 0
M  V30 7290 C 715.626 -3.46112 -0.287015 0
M  V30 7291 C 714.58 -4.24205 0.568682 0
M  V30 7292 C 713.906 -5.3384 -0.303206 0
M  V30 7293 C 715.206 -4.88954 1.83633 0
M  V30 7294 H 716.9 -2.69298 1.30839 0
M  V30 7295 H 714.446 -1.29459 0.630579 0
M  V30 7296 H 716.399 -4.16622 -0.6328 0
M  V30 7297 H 715.123 -3.04765 -1.17414 0
M  V30 7298 H 713.782 -3.5545 0.897261 0
M  V30 7299 H 713.43 -4.88734 -1.18947 0
M  V30 7300 H 713.13 -5.86998 0.265879 0
M  V30 7301 H 714.654 -6.0719 -0.644423 0
M  V30 7302 H 716.068 -5.51717 1.55823 0
M  V30 7303 H 714.465 -5.52198 2.34941 0
M  V30 7304 H 715.535 -4.12305 2.55211 0
M  V30 7305 N 716.879 -0.700114 -1.41195 0
M  V30 7306 C 717.827 -0.0263301 -2.32585 0
M  V30 7307 C 718.821 0.763683 -1.51209 0
M  V30 7308 O 720.027 0.668793 -1.67114 0
M  V30 7309 H 716.402 0.0102869 -0.75193 0
M  V30 7310 H 718.373 -0.814087 -2.8708 0
M  V30 7311 C 717.122 0.892793 -3.36042 0
M  V30 7312 H 716.445 0.294306 -3.98715 0
M  V30 7313 H 717.885 1.33247 -4.02518 0
M  V30 7314 C 716.344 2.01109 -2.7029 0
M  V30 7315 O 716.874 3.10035 -2.55423 0
M  V30 7316 N 715.08 1.79015 -2.28915 0
M  V30 7317 H 714.627 0.904275 -2.41207 0
M  V30 7318 H 714.585 2.54022 -1.85257 0
M  V30 7319 N 718.357 1.51182 -0.445186 0
M  V30 7320 C 719.603 2.02452 0.11882 0
M  V30 7321 C 719.936 1.32824 1.41673 0
M  V30 7322 O 719.211 0.445637 1.89326 0
M  V30 7323 C 719.494 3.5859 0.329475 0
M  V30 7324 C 719.347 4.38823 -0.987638 0
M  V30 7325 C 720.666 4.26241 1.09575 0
M  V30 7326 H 717.785 0.735819 0.0417092 0
M  V30 7327 H 720.427 1.80747 -0.585718 0
M  V30 7328 H 718.577 3.77214 0.9296 0
M  V30 7329 H 720.249 4.3183 -1.62235 0
M  V30 7330 H 718.492 4.03594 -1.59041 0
M  V30 7331 H 719.163 5.46257 -0.794192 0
M  V30 7332 H 721.639 4.11934 0.587328 0
M  V30 7333 H 720.515 5.35354 1.21191 0
M  V30 7334 H 720.776 3.87635 2.12584 0
M  V30 7335 N 719.835 0.176821 1.56605 0
M  V30 7336 C 721.063 -0.472828 2.01425 0
M  V30 7337 C 721.478 -1.56436 1.05703 0
M  V30 7338 O 720.835 -1.82405 0.058808 0
M  V30 7339 C 720.886 -1.04607 3.46034 0
M  V30 7340 O 720.607 0.00189608 4.381 0
M  V30 7341 C 722.108 -1.7734 4.06282 0
M  V30 7342 H 719.328 -0.120503 0.660091 0
M  V30 7343 H 721.872 0.280166 2.02572 0
M  V30 7344 H 720.027 -1.74953 3.45645 0
M  V30 7345 H 720.441 -0.422118 5.22799 0
M  V30 7346 H 721.915 -2.12703 5.09374 0
M  V30 7347 H 722.392 -2.67043 3.4869 0
M  V30 7348 H 722.998 -1.11623 4.10391 0
M  V30 7349 N 721.313 -1.57302 -0.09688 0
M  V30 7350 C 722.276 -2.00976 -1.10188 0
M  V30 7351 C 723.276 -0.903009 -1.3305 0
M  V30 7352 O 724.466 -1.16853 -1.29194 0
M  V30 7353 C 721.598 -2.36893 -2.45142 0
M  V30 7354 H 722.791 -2.9098 -0.726003 0
M  V30 7355 H 720.344 -1.52515 -0.341872 0
M  V30 7356 H 721.079 -1.49837 -2.8761 0
M  V30 7357 H 720.864 -3.17632 -2.29897 0
M  V30 7358 H 722.354 -2.71345 -3.1743 0
M  V30 7359 N 722.791 0.367657 -1.53252 0
M  V30 7360 C 724.202 0.944563 -1.61043 0
M  V30 7361 C 724.553 1.90325 -0.476546 0
M  V30 7362 O 723.678 2.12721 0.397333 0
M  V30 7363 C 724.273 1.71992 -2.91898 0
M  V30 7364 C 722.832 2.2462 -3.02031 0
M  V30 7365 C 721.979 1.05799 -2.56324 0
M  V30 7366 H 724.93 0.146516 -1.58022 0
M  V30 7367 H 724.951 2.58095 -2.79584 0
M  V30 7368 H 724.463 1.02192 -3.74404 0
M  V30 7369 H 722.564 2.97668 -2.24108 0
M  V30 7370 H 722.677 2.52644 -4.07073 0
M  V30 7371 H 721.041 1.42435 -2.1115 0
M  V30 7372 H 721.824 0.375008 -3.41246 0
M  V30 7373 N 724.269 1.44576 0.627338 0
M  V30 7374 C 725.497 1.51048 1.41394 0
M  V30 7375 C 725.912 0.136568 1.88305 0
M  V30 7376 O 725.269 -0.858251 1.6106 0
M  V30 7377 C 725.32 2.47837 2.63172 0
M  V30 7378 O 725.041 3.79887 2.18215 0
M  V30 7379 C 726.542 2.63811 3.56257 0
M  V30 7380 H 723.762 0.512171 0.4335 0
M  V30 7381 H 726.306 1.89576 0.766878 0
M  V30 7382 H 724.461 2.12433 3.23961 0
M  V30 7383 H 724.875 4.32177 2.97192 0
M  V30 7384 H 726.349 3.35554 4.38301 0
M  V30 7385 H 726.826 1.69169 4.05313 0
M  V30 7386 H 727.432 3.0013 3.01333 0
M  V30 7387 N 725.747 -0.868086 1.31537 0
M  V30 7388 C 727.158 -1.437 1.19195 0
M  V30 7389 C 727.509 -1.95169 -0.200842 0
M  V30 7390 O 726.634 -1.86432 -1.09872 0
M  V30 7391 C 727.229 -2.612 2.15778 0
M  V30 7392 C 725.788 -3.1413 2.07363 0
M  V30 7393 C 724.935 -1.86845 2.049 0
M  V30 7394 H 727.886 -0.676457 1.43561 0
M  V30 7395 H 727.907 -3.37948 1.74847 0
M  V30 7396 H 727.419 -2.23709 3.17137 0
M  V30 7397 H 725.52 -3.56238 1.09204 0
M  V30 7398 H 725.633 -3.76285 2.96557 0
M  V30 7399 H 723.997 -2.05886 1.49943 0
M  V30 7400 H 724.78 -1.51589 3.08019 0
M  V30 7401 N 727.225 -1.14528 -1.08264 0
M  V30 7402 C 728.157 -0.791325 -2.15106 0
M  V30 7403 C 729.17 0.192449 -1.61659 0
M  V30 7404 O 730.359 -0.0294704 -1.78476 0
M  V30 7405 C 727.459 -0.154183 -3.38549 0
M  V30 7406 C 726.632 -1.17305 -4.21377 0
M  V30 7407 C 725.691 -0.559401 -5.23218 0
M  V30 7408 O 724.717 -1.22277 -5.55911 0
M  V30 7409 N 725.919 0.663159 -5.767 0
M  V30 7410 H 728.684 -1.71076 -2.46075 0
M  V30 7411 H 726.245 -1.0399 -1.24087 0
M  V30 7412 H 728.237 0.268884 -4.03806 0
M  V30 7413 H 726.807 0.668418 -3.0537 0
M  V30 7414 H 726.027 -1.773 -3.52077 0
M  V30 7415 H 727.315 -1.86128 -4.73533 0
M  V30 7416 H 726.713 1.22066 -5.52373 0
M  V30 7417 H 725.27 1.02871 -6.43631 0
M  V30 7418 N 728.703 1.26451 -0.940633 0
M  V30 7419 C 729.635 2.25556 -0.407104 0
M  V30 7420 C 730.648 1.55888 0.469324 0
M  V30 7421 O 731.837 1.76292 0.279858 0
M  V30 7422 C 728.937 3.36109 0.434064 0
M  V30 7423 C 728.11 4.3532 -0.426082 0
M  V30 7424 C 727.169 5.25004 0.354563 0
M  V30 7425 O 726.195 5.68684 -0.242219 0
M  V30 7426 N 727.397 5.5652 1.65123 0
M  V30 7427 H 730.162 2.7197 -1.25907 0
M  V30 7428 H 727.723 1.40212 -0.809456 0
M  V30 7429 H 729.715 3.93059 0.963684 0
M  V30 7430 H 728.285 2.89194 1.18683 0
M  V30 7431 H 727.505 3.77449 -1.13692 0
M  V30 7432 H 728.793 4.986 -1.01366 0
M  V30 7433 H 728.191 5.22912 2.15822 0
M  V30 7434 H 726.748 6.16115 2.12711 0
M  V30 7435 N 730.181 0.707592 1.40822 0
M  V30 7436 C 731.111 0.0644925 2.33411 0
M  V30 7437 C 732.092 -0.754205 1.52466 0
M  V30 7438 O 733.277 -0.704749 1.80961 0
M  V30 7439 C 730.407 -0.863865 3.36385 0
M  V30 7440 C 729.361 -0.15138 4.27732 0
M  V30 7441 C 728.687 -1.19491 5.21177 0
M  V30 7442 C 729.987 0.989607 5.12839 0
M  V30 7443 H 731.681 0.837829 2.87438 0
M  V30 7444 H 729.227 0.404346 1.38207 0
M  V30 7445 H 731.18 -1.32309 4.0009 0
M  V30 7446 H 729.904 -1.66901 2.80734 0
M  V30 7447 H 728.563 0.287937 3.65467 0
M  V30 7448 H 728.211 -1.9929 4.61836 0
M  V30 7449 H 727.911 -0.723123 5.83134 0
M  V30 7450 H 729.435 -1.6544 5.8776 0
M  V30 7451 H 730.849 0.610114 5.70044 0
M  V30 7452 H 729.246 1.38926 5.83798 0
M  V30 7453 H 730.316 1.82389 4.49291 0
M  V30 7454 N 731.66 -1.50943 0.453197 0
M  V30 7455 C 732.592 -2.25922 -0.38623 0
M  V30 7456 C 733.605 -1.3055 -0.972652 0
M  V30 7457 O 734.794 -1.56191 -0.864097 0
M  V30 7458 C 731.894 -3.01176 -1.5539 0
M  V30 7459 C 731.067 -4.23768 -1.0835 0
M  V30 7460 C 730.126 -4.81466 -2.12313 0
M  V30 7461 O 729.152 -5.42875 -1.71101 0
M  V30 7462 N 730.354 -4.66889 -3.44956 0
M  V30 7463 H 733.119 -2.98601 0.256468 0
M  V30 7464 H 730.68 -1.59408 0.282965 0
M  V30 7465 H 732.672 -3.36659 -2.24594 0
M  V30 7466 H 731.242 -2.31409 -2.10163 0
M  V30 7467 H 730.462 -3.93597 -0.217961 0
M  V30 7468 H 731.75 -5.03289 -0.746857 0
M  V30 7469 H 731.148 -4.18011 -3.81161 0
M  V30 7470 H 729.705 -5.06691 -4.1001 0
M  V30 7471 N 733.138 -0.185124 -1.56509 0
M  V30 7472 C 734.101 0.72591 -2.17401 0
M  V30 7473 C 735.101 1.14819 -1.12575 0
M  V30 7474 O 736.291 1.0629 -1.38015 0
M  V30 7475 C 733.423 1.98979 -2.76803 0
M  V30 7476 H 734.616 0.195588 -2.99262 0
M  V30 7477 H 732.169 0.0644772 -1.56167 0
M  V30 7478 H 732.904 2.56287 -1.98714 0
M  V30 7479 H 732.689 1.69583 -3.53531 0
M  V30 7480 H 734.179 2.63966 -3.23592 0
M  V30 7481 N 734.616 1.57351 0.0885366 0
M  V30 7482 C 735.863 1.86419 0.790824 0
M  V30 7483 C 736.191 0.774561 1.78412 0
M  V30 7484 O 735.446 -0.23119 1.9433 0
M  V30 7485 C 735.745 3.22098 1.5488 0
M  V30 7486 C 735.411 4.4548 0.697025 0
M  V30 7487 C 734.073 4.78975 0.462237 0
M  V30 7488 C 736.425 5.21094 0.105315 0
M  V30 7489 C 733.753 5.85507 -0.374016 0
M  V30 7490 C 736.105 6.28509 -0.718298 0
M  V30 7491 C 734.769 6.60515 -0.963116 0
M  V30 7492 H 734.039 0.682157 0.289383 0
M  V30 7493 H 736.686 1.91429 0.0520961 0
M  V30 7494 H 734.991 3.12803 2.35927 0
M  V30 7495 H 736.688 3.41819 2.09669 0
M  V30 7496 H 733.278 4.19255 0.890137 0
M  V30 7497 H 737.462 4.95544 0.273856 0
M  V30 7498 H 732.718 6.08713 -0.572606 0
M  V30 7499 H 736.892 6.86268 -1.18362 0
M  V30 7500 H 734.519 7.42893 -1.6129 0
M  V30 7501 N 736.094 -0.359525 1.53444 0
M  V30 7502 C 737.041 -1.44073 1.8031 0
M  V30 7503 C 738.011 -1.52946 0.647811 0
M  V30 7504 O 739.196 -1.68739 0.890614 0
M  V30 7505 C 736.336 -2.80941 2.00416 0
M  V30 7506 C 735.449 -2.80986 3.28132 0
M  V30 7507 C 734.584 -4.09468 3.38393 0
M  V30 7508 C 733.623 -4.03679 4.60119 0
M  V30 7509 N 732.76 -5.23821 4.675 0
M  V30 7510 H 737.6 -1.20464 2.72566 0
M  V30 7511 H 735.137 -0.583859 1.35017 0
M  V30 7512 H 737.095 -3.60459 2.1006 0
M  V30 7513 H 735.725 -3.02936 1.11489 0
M  V30 7514 H 734.777 -1.93666 3.27411 0
M  V30 7515 H 736.089 -2.72583 4.17732 0
M  V30 7516 H 735.243 -4.97404 3.47382 0
M  V30 7517 H 733.982 -4.20632 2.4682 0
M  V30 7518 H 732.987 -3.14129 4.51224 0
M  V30 7519 H 734.212 -3.94112 5.5304 0
M  V30 7520 H 732.158 -5.35559 3.7883 0
M  V30 7521 H 732.075 -5.17611 5.51013 0
M  V30 7522 H 733.343 -6.13572 4.8078 0
M  V30 7523 N 737.572 -1.44907 -0.619662 0
M  V30 7524 C 738.52 -1.52971 -1.75222 0
M  V30 7525 C 739.514 -0.400531 -1.64597 0
M  V30 7526 O 740.72 -0.575952 -1.70537 0
M  V30 7527 H 737.095 -0.480241 -0.578682 0
M  V30 7528 H 739.066 -2.48269 -1.65545 0
M  V30 7529 C 737.815 -1.50204 -3.13583 0
M  V30 7530 H 737.138 -2.36412 -3.22412 0
M  V30 7531 H 738.578 -1.59905 -3.92691 0
M  V30 7532 C 737.037 -0.22455 -3.36151 0
M  V30 7533 O 737.567 0.700574 -3.95544 0
M  V30 7534 N 735.773 -0.124052 -2.90335 0
M  V30 7535 H 735.32 -0.87774 -2.42185 0
M  V30 7536 H 735.278 0.729914 -3.0581 0
M  V30 7537 N 739.05 0.861098 -1.31996 0
M  V30 7538 C 739.96 2.00154 -1.22374 0
M  V30 7539 C 740.976 1.73447 -0.138631 0
M  V30 7540 O 742.152 1.98191 -0.358104 0
M  V30 7541 C 739.217 3.33696 -0.940645 0
M  V30 7542 C 738.278 3.73668 -2.11355 0
M  V30 7543 C 737.511 5.00837 -1.84386 0
M  V30 7544 O 737.734 5.64996 -0.783287 0
M  V30 7545 O 736.668 5.37787 -2.70313 0
M  V30 7546 H 740.494 2.11207 -2.18233 0
M  V30 7547 H 738.079 0.990768 -1.11822 0
M  V30 7548 H 739.961 4.13756 -0.798987 0
M  V30 7549 H 738.636 3.23698 -0.0121636 0
M  V30 7550 H 737.543 2.94211 -2.31065 0
M  V30 7551 H 738.876 3.88303 -3.02459 0
M  V30 7552 N 740.528 1.15101 1.07655 0
M  V30 7553 C 741.774 0.925343 1.80458 0
M  V30 7554 C 742.107 -0.546354 1.86356 0
M  V30 7555 O 741.382 -1.40496 1.34503 0
M  V30 7556 C 741.665 1.53646 3.25676 0
M  V30 7557 C 741.518 3.07854 3.27942 0
M  V30 7558 C 742.837 1.21968 4.22861 0
M  V30 7559 H 739.956 0.337592 0.655134 0
M  V30 7560 H 742.598 1.42217 1.25993 0
M  V30 7561 H 740.748 1.11395 3.72187 0
M  V30 7562 H 742.42 3.58989 2.89697 0
M  V30 7563 H 740.663 3.41904 2.66991 0
M  V30 7564 H 741.334 3.45725 4.30324 0
M  V30 7565 H 743.81 1.5851 3.84726 0
M  V30 7566 H 742.686 1.67349 5.22767 0
M  V30 7567 H 742.947 0.136207 4.4189 0
M  V30 7568 N 742.006 -1.2595 0.947325 0
M  V30 7569 C 743.254 -1.93081 0.596996 0
M  V30 7570 C 743.575 -1.74632 -0.867672 0
M  V30 7571 O 742.845 -1.1056 -1.6172 0
M  V30 7572 H 741.425 -0.714542 0.217805 0
M  V30 7573 H 744.087 -1.53265 1.20398 0
M  V30 7574 H 743.183 -3.01134 0.82004 0
M  V30 7575 N 743.484 -0.715051 -1.40445 0
M  V30 7576 C 744.73 -0.254705 -2.01194 0
M  V30 7577 C 745.063 1.14894 -1.56567 0
M  V30 7578 O 744.338 1.77933 -0.785491 0
M  V30 7579 C 744.621 -0.334148 -3.58546 0
M  V30 7580 C 744.474 -1.77613 -4.13248 0
M  V30 7581 C 745.793 0.294968 -4.3911 0
M  V30 7582 H 742.912 -0.094025 -0.730978 0
M  V30 7583 H 745.554 -0.907449 -1.66929 0
M  V30 7584 H 743.704 0.221609 -3.87867 0
M  V30 7585 H 745.376 -2.38723 -3.94727 0
M  V30 7586 H 743.619 -2.30402 -3.67556 0
M  V30 7587 H 744.29 -1.78311 -5.22407 0
M  V30 7588 H 746.766 -0.178563 -4.15717 0
M  V30 7589 H 745.642 0.208934 -5.48502 0
M  V30 7590 H 745.903 1.37841 -4.20062 0
M  V30 7591 N 744.962 1.50701 -0.461195 0
M  V30 7592 C 745.892 2.31182 0.328184 0
M  V30 7593 C 746.873 1.37644 0.999408 0
M  V30 7594 O 748.058 1.66565 0.99848 0
M  V30 7595 C 745.188 3.17113 1.41621 0
M  V30 7596 C 744.142 4.19124 0.867148 0
M  V30 7597 C 743.468 4.93728 2.05272 0
M  V30 7598 C 744.768 5.22174 -0.114808 0
M  V30 7599 H 746.462 2.97423 -0.343501 0
M  V30 7600 H 744.008 1.43033 -0.166641 0
M  V30 7601 H 745.961 3.72208 1.97584 0
M  V30 7602 H 744.685 2.48739 2.11652 0
M  V30 7603 H 743.344 3.65116 0.329557 0
M  V30 7604 H 742.992 4.21835 2.73978 0
M  V30 7605 H 742.692 5.62724 1.69161 0
M  V30 7606 H 744.216 5.51654 2.61744 0
M  V30 7607 H 745.63 5.72198 0.355316 0
M  V30 7608 H 744.027 5.98833 -0.389689 0
M  V30 7609 H 745.097 4.7353 -1.04391 0
M  V30 7610 N 746.441 0.193421 1.56409 0
M  V30 7611 C 747.857 -0.162447 1.58771 0
M  V30 7612 C 748.057 -1.6116 1.20954 0
M  V30 7613 O 747.113 -2.3469 0.931497 0
M  V30 7614 C 748.426 0.138391 3.00381 0
M  V30 7615 C 749.974 0.0783649 3.12902 0
M  V30 7616 C 750.449 0.352491 4.56642 0
M  V30 7617 N 751.94 0.30105 4.62221 0
M  V30 7618 C 752.675 0.487028 5.71328 0
M  V30 7619 N 752.171 0.733265 6.88909 0
M  V30 7620 N 753.964 0.4214 5.60518 0
M  V30 7621 H 746.115 1.13909 1.79272 0
M  V30 7622 H 748.378 0.454528 0.83193 0
M  V30 7623 H 748.084 1.14312 3.32604 0
M  V30 7624 H 747.958 -0.559804 3.73023 0
M  V30 7625 H 750.345 -0.916963 2.80492 0
M  V30 7626 H 750.426 0.809611 2.4265 0
M  V30 7627 H 750.07 1.34513 4.89764 0
M  V30 7628 H 750 -0.399624 5.25081 0
M  V30 7629 H 752.491 0.117279 3.77718 0
M  V30 7630 H 752.804 0.86403 7.67955 0
M  V30 7631 H 751.149 0.770138 6.9072 0
M  V30 7632 H 754.34 0.229461 4.67537 0
M  V30 7633 H 754.513 0.569758 6.4549 0
M  V30 7634 N 747.919 -1.57396 -0.0801906 0
M  V30 7635 C 748.866 -2.03107 -1.09618 0
M  V30 7636 C 749.836 -0.910118 -1.38946 0
M  V30 7637 O 751.021 -1.17719 -1.50156 0
M  V30 7638 C 748.161 -2.47293 -2.40708 0
M  V30 7639 C 747.274 -3.72972 -2.17982 0
M  V30 7640 C 746.409 -4.05975 -3.42576 0
M  V30 7641 C 745.448 -5.24719 -3.15177 0
M  V30 7642 N 744.585 -5.53401 -4.32078 0
M  V30 7643 H 749.425 -2.89677 -0.69939 0
M  V30 7644 H 746.962 -1.43263 -0.333785 0
M  V30 7645 H 748.92 -2.7096 -3.17232 0
M  V30 7646 H 747.55 -1.63713 -2.78205 0
M  V30 7647 H 746.602 -3.56693 -1.32189 0
M  V30 7648 H 747.914 -4.59638 -1.93738 0
M  V30 7649 H 747.068 -4.30498 -4.275 0
M  V30 7650 H 745.807 -3.17859 -3.69887 0
M  V30 7651 H 744.812 -5 -2.28648 0
M  V30 7652 H 746.037 -6.14445 -2.89197 0
M  V30 7653 H 743.983 -4.68245 -4.59437 0
M  V30 7654 H 743.9 -6.34469 -4.11078 0
M  V30 7655 H 745.168 -5.8247 -5.18024 0
M  V30 7656 N 749.397 0.351382 -1.53633 0
M  V30 7657 C 750.625 1.11275 -1.74429 0
M  V30 7658 C 751.04 1.82602 -0.479798 0
M  V30 7659 O 750.397 1.74074 0.548125 0
M  V30 7660 C 750.448 2.13223 -2.91921 0
M  V30 7661 O 750.169 1.44798 -4.13479 0
M  V30 7662 C 751.67 3.01797 -3.24706 0
M  V30 7663 H 748.89 0.332153 -0.583023 0
M  V30 7664 H 751.434 0.405974 -2.0043 0
M  V30 7665 H 749.589 2.79477 -2.68274 0
M  V30 7666 H 750.003 2.12839 -4.79374 0
M  V30 7667 H 751.477 3.69282 -4.10286 0
M  V30 7668 H 751.954 3.67387 -2.40673 0
M  V30 7669 H 752.56 2.41141 -3.5033 0
M  V30 7670 N 750.875 1.45233 0.611969 0
M  V30 7671 C 752.291 1.29542 0.932251 0
M  V30 7672 C 752.491 0.24523 2.00002 0
M  V30 7673 O 751.547 -0.362333 2.49887 0
M  V30 7674 C 752.86 2.67301 1.37733 0
M  V30 7675 C 754.408 2.75163 1.49178 0
M  V30 7676 C 754.883 4.13437 1.97064 0
M  V30 7677 N 756.374 4.15709 2.04304 0
M  V30 7678 C 757.109 5.19566 2.42568 0
M  V30 7679 N 756.605 6.33771 2.79832 0
M  V30 7680 N 758.398 5.06923 2.42869 0
M  V30 7681 H 750.549 2.12192 -0.0938679 0
M  V30 7682 H 752.812 0.947775 0.0206569 0
M  V30 7683 H 752.518 3.45318 0.666951 0
M  V30 7684 H 752.392 2.95472 2.3447 0
M  V30 7685 H 754.779 1.97453 2.19309 0
M  V30 7686 H 754.86 2.50712 0.507674 0
M  V30 7687 H 754.504 4.91631 1.27521 0
M  V30 7688 H 754.434 4.35277 2.9638 0
M  V30 7689 H 756.925 3.33293 1.78113 0
M  V30 7690 H 757.238 7.08815 3.07898 0
M  V30 7691 H 755.583 6.37179 2.77538 0
M  V30 7692 H 758.774 4.1675 2.1316 0
M  V30 7693 H 758.947 5.87981 2.72364 0
M  V30 7694 N 752.353 -0.854086 1.3245 0
M  V30 7695 C 753.303 -1.9508 1.18016 0
M  V30 7696 C 754.287 -1.60665 0.0869417 0
M  V30 7697 O 755.479 -1.74201 0.313505 0
M  V30 7698 C 752.608 -3.3113 0.905961 0
M  V30 7699 C 751.694 -3.71763 2.04091 0
M  V30 7700 N 752.085 -3.84218 3.28953 0
M  V30 7701 C 750.383 -4.01393 1.94421 0
M  V30 7702 C 751.084 -4.192 4.03294 0
M  V30 7703 N 750.06 -4.30749 3.31596 0
M  V30 7704 H 753.862 -2.02843 2.12678 0
M  V30 7705 H 751.376 -1.04588 1.24238 0
M  V30 7706 H 753.373 -4.09471 0.783508 0
M  V30 7707 H 752.033 -3.24684 -0.0322715 0
M  V30 7708 H 753.044 -3.68524 3.63883 0
M  V30 7709 H 749.721 -4.03246 1.08162 0
M  V30 7710 H 751.111 -4.36301 5.1097 0
M  V30 7711 N 753.831 -1.1567 -1.07043 0
M  V30 7712 C 755.077 -0.9349 -1.79965 0
M  V30 7713 C 755.41 0.536464 -1.86643 0
M  V30 7714 O 754.685 1.39781 -1.35247 0
M  V30 7715 C 754.968 -1.55371 -3.24857 0
M  V30 7716 C 754.821 -3.09589 -3.26305 0
M  V30 7717 C 756.14 -1.24209 -4.22209 0
M  V30 7718 H 753.259 -0.341061 -0.653335 0
M  V30 7719 H 755.901 -1.42883 -1.25237 0
M  V30 7720 H 754.051 -1.13368 -3.71591 0
M  V30 7721 H 755.723 -3.60521 -2.87789 0
M  V30 7722 H 753.966 -3.43315 -2.65174 0
M  V30 7723 H 754.637 -3.48002 -4.28484 0
M  V30 7724 H 757.113 -1.60548 -3.8388 0
M  V30 7725 H 755.989 -1.70119 -5.21872 0
M  V30 7726 H 756.25 -0.15964 -4.41812 0
M  V30 7727 N 755.309 1.25446 -0.953992 0
M  V30 7728 C 756.257 2.27909 -0.46478 0
M  V30 7729 C 757.251 1.62904 0.464607 0
M  V30 7730 O 758.457 1.76733 0.341407 0
M  V30 7731 H 754.832 0.74036 -0.131798 0
M  V30 7732 H 756.803 2.66559 -1.34122 0
M  V30 7733 C 755.552 3.46853 0.242589 0
M  V30 7734 H 754.875 3.97105 -0.463418 0
M  V30 7735 H 756.315 4.20432 0.548919 0
M  V30 7736 C 754.774 3.03386 1.46487 0
M  V30 7737 O 755.304 3.09342 2.56262 0
M  V30 7738 N 753.51 2.58584 1.32599 0
M  V30 7739 H 753.057 2.53938 0.432834 0
M  V30 7740 H 753.015 2.29866 2.14497 0
M  V30 7741 N 756.787 0.722489 1.40064 0
M  V30 7742 C 758.036 0.261932 1.99992 0
M  V30 7743 C 758.349 -1.15358 1.57961 0
M  V30 7744 O 759.555 -1.71301 2.10637 0
M  V30 7745 C 758.011 0.41737 3.57472 0
M  V30 7746 C 757.619 1.83997 4.08472 0
M  V30 7747 C 759.363 0.0179561 4.24496 0
M  V30 7748 C 757.27 1.94563 5.5848 0
M  V30 7749 H 756.2 0.0941768 0.748095 0
M  V30 7750 H 758.851 0.894572 1.60218 0
M  V30 7751 H 757.233 -0.283965 3.94981 0
M  V30 7752 H 758.407 2.57224 3.82325 0
M  V30 7753 H 756.722 2.19147 3.54067 0
M  V30 7754 H 759.319 0.076085 5.34646 0
M  V30 7755 H 759.662 -1.02498 4.03485 0
M  V30 7756 H 760.195 0.669988 3.92117 0
M  V30 7757 H 756.934 2.97001 5.84355 0
M  V30 7758 H 756.454 1.25756 5.86469 0
M  V30 7759 H 758.133 1.72095 6.23692 0
M  V30 7760 N 758.265 -1.50454 0.469181 0
M  V30 7761 C 759.195 -2.31353 -0.31592 0
M  V30 7762 C 760.176 -1.38172 -0.992094 0
M  V30 7763 O 761.361 -1.67093 -0.989633 0
M  V30 7764 C 758.491 -3.1786 -1.39937 0
M  V30 7765 C 757.445 -4.19578 -0.844909 0
M  V30 7766 C 756.771 -4.9481 -2.0265 0
M  V30 7767 C 758.071 -5.22106 0.142499 0
M  V30 7768 H 759.765 -2.97237 0.359269 0
M  V30 7769 H 757.311 -1.42942 0.174224 0
M  V30 7770 H 759.264 -3.7325 -1.95607 0
M  V30 7771 H 757.988 -2.49858 -2.1033 0
M  V30 7772 H 756.647 -3.65285 -0.310189 0
M  V30 7773 H 756.295 -4.23282 -2.71737 0
M  V30 7774 H 755.995 -5.63613 -1.66174 0
M  V30 7775 H 757.519 -5.53035 -2.58815 0
M  V30 7776 H 758.933 -5.72378 -0.324966 0
M  V30 7777 H 757.33 -5.98618 0.421441 0
M  V30 7778 H 758.4 -4.7297 1.06901 0
M  V30 7779 N 759.743 -0.201713 -1.56304 0
M  V30 7780 C 760.673 0.71155 -2.22394 0
M  V30 7781 C 761.654 1.21625 -1.18917 0
M  V30 7782 O 762.839 1.26388 -1.47444 0
M  V30 7783 C 759.969 1.92837 -2.88845 0
M  V30 7784 C 758.923 1.55831 -3.98623 0
M  V30 7785 C 758.249 2.85228 -4.52271 0
M  V30 7786 C 759.549 0.763249 -5.16693 0
M  V30 7787 H 761.243 0.160573 -2.98969 0
M  V30 7788 H 758.789 0.0757916 -1.438 0
M  V30 7789 H 760.742 2.57253 -3.33764 0
M  V30 7790 H 759.466 2.50398 -2.09686 0
M  V30 7791 H 758.125 0.9377 -3.54405 0
M  V30 7792 H 757.773 3.40893 -3.69866 0
M  V30 7793 H 757.473 2.6121 -5.26349 0
M  V30 7794 H 758.997 3.50622 -4.99897 0
M  V30 7795 H 760.411 1.31066 -5.58117 0
M  V30 7796 H 758.808 0.620935 -5.96879 0
M  V30 7797 H 759.878 -0.234322 -4.84334 0
M  V30 7798 N 761.222 1.57436 0.0718424 0
M  V30 7799 C 762.469 1.87248 0.771007 0
M  V30 7800 C 762.797 0.793441 1.7758 0
M  V30 7801 O 762.052 -0.210565 1.94564 0
M  V30 7802 C 762.351 3.23723 1.51455 0
M  V30 7803 C 762.017 4.46194 0.649736 0
M  V30 7804 C 760.679 4.79438 0.411409 0
M  V30 7805 C 763.031 5.21176 0.05004 0
M  V30 7806 C 760.359 5.85077 -0.436096 0
M  V30 7807 C 762.711 6.27712 -0.784919 0
M  V30 7808 C 761.375 6.59457 -1.03312 0
M  V30 7809 H 760.645 0.685188 0.282132 0
M  V30 7810 H 763.292 1.91474 0.0317896 0
M  V30 7811 H 761.597 3.15287 2.32597 0
M  V30 7812 H 763.294 3.44023 2.06031 0
M  V30 7813 H 759.884 4.20175 0.84562 0
M  V30 7814 H 764.068 4.95806 0.221282 0
M  V30 7815 H 759.324 6.08071 -0.637136 0
M  V30 7816 H 763.498 6.84974 -1.25635 0
M  V30 7817 H 761.125 7.4114 -1.6916 0
M  V30 7818 N 762.7 -0.34323 1.53817 0
M  V30 7819 C 763.633 -1.44472 1.76644 0
M  V30 7820 C 764.611 -1.50498 0.615556 0
M  V30 7821 O 765.795 -1.6821 0.850751 0
M  V30 7822 C 762.922 -2.82705 1.86536 0
M  V30 7823 C 761.968 -2.94302 3.08688 0
M  V30 7824 S 762.801 -2.60739 4.67735 0
M  V30 7825 C 763.957 -4.01079 4.80506 0
M  V30 7826 H 764.19 -1.24893 2.69794 0
M  V30 7827 H 761.723 -0.538915 1.4469 0
M  V30 7828 H 763.681 -3.62342 1.92921 0
M  V30 7829 H 762.342 -2.9958 0.943975 0
M  V30 7830 H 761.535 -3.95593 3.12286 0
M  V30 7831 H 761.137 -2.22614 3.00531 0
M  V30 7832 H 763.429 -4.95603 4.61935 0
M  V30 7833 H 764.372 -4.02475 5.82597 0
M  V30 7834 H 764.78 -3.89119 4.08958 0
M  V30 7835 N 764.178 -1.45556 -0.604258 0
M  V30 7836 C 765.426 -1.4945 -1.36048 0
M  V30 7837 C 765.747 -0.138933 -1.94504 0
M  V30 7838 O 765.017 0.832097 -1.7735 0
M  V30 7839 H 763.597 -0.550381 -0.505064 0
M  V30 7840 H 766.259 -1.81535 -0.709308 0
M  V30 7841 H 765.355 -2.23519 -2.17821 0
M  V30 7842 N 765.656 0.84705 -1.32902 0
M  V30 7843 C 766.886 1.63166 -1.26729 0
M  V30 7844 C 767.294 1.88474 0.165595 0
M  V30 7845 O 766.637 1.45947 1.11558 0
M  V30 7846 C 766.699 3.0103 -1.96522 0
M  V30 7847 C 766.363 2.9873 -3.45846 0
M  V30 7848 C 767.36 2.75032 -4.41196 0
M  V30 7849 C 765.045 3.19125 -3.87898 0
M  V30 7850 C 767.039 2.71743 -5.76571 0
M  V30 7851 C 764.726 3.15462 -5.2338 0
M  V30 7852 C 765.724 2.91801 -6.17528 0
M  V30 7853 O 765.412 2.88027 -7.5053 0
M  V30 7854 H 765.144 0.51469 -0.438258 0
M  V30 7855 H 767.698 1.06383 -1.75704 0
M  V30 7856 H 765.928 3.59634 -1.42128 0
M  V30 7857 H 767.617 3.61821 -1.83958 0
M  V30 7858 H 768.383 2.59034 -4.10032 0
M  V30 7859 H 764.262 3.36565 -3.15032 0
M  V30 7860 H 767.806 2.53194 -6.5003 0
M  V30 7861 H 763.703 3.31006 -5.54171 0
M  V30 7862 H 764.471 3.03927 -7.59981 0
M  V30 7863 N 767.134 1.16236 1.06428 0
M  V30 7864 C 768.359 0.967688 1.83441 0
M  V30 7865 C 768.784 -0.479167 1.81894 0
M  V30 7866 O 768.142 -1.34224 1.21875 0
M  V30 7867 C 768.19 1.49806 3.2801 0
M  V30 7868 O 767.294 0.703481 4.06356 0
M  V30 7869 H 766.635 0.344468 0.56766 0
M  V30 7870 H 769.165 1.54442 1.34197 0
M  V30 7871 H 769.175 1.51495 3.78831 0
M  V30 7872 H 767.85 2.55133 3.2845 0
M  V30 7873 H 766.427 0.756986 3.65136 0
M  V30 7874 N 768.612 -1.24939 0.960631 0
M  V30 7875 C 769.84 -1.96881 0.636045 0
M  V30 7876 C 770.255 -1.71334 -0.793093 0
M  V30 7877 O 769.612 -0.992917 -1.53125 0
M  V30 7878 C 769.663 -3.50309 0.892533 0
M  V30 7879 O 769.384 -3.74977 2.26548 0
M  V30 7880 C 770.885 -4.39474 0.581159 0
M  V30 7881 H 768.105 -0.627399 0.237931 0
M  V30 7882 H 770.649 -1.58952 1.28664 0
M  V30 7883 H 768.804 -3.86326 0.288257 0
M  V30 7884 H 769.218 -4.69401 2.34014 0
M  V30 7885 H 770.692 -5.46008 0.811125 0
M  V30 7886 H 771.169 -4.3652 -0.48443 0
M  V30 7887 H 771.775 -4.09032 1.16502 0
M  V30 7888 N 770.09 -0.729906 -1.39679 0
M  V30 7889 C 771.037 -0.0866063 -2.30637 0
M  V30 7890 C 772.007 0.735115 -1.48947 0
M  V30 7891 O 773.192 0.696125 -1.77648 0
M  V30 7892 C 770.332 0.818524 -3.35252 0
M  V30 7893 C 769.445 -0.0152635 -4.31997 0
M  V30 7894 C 768.58 0.890669 -5.2368 0
M  V30 7895 C 767.619 0.0518246 -6.12078 0
M  V30 7896 N 766.756 0.913411 -6.96133 0
M  V30 7897 H 771.596 -0.867925 -2.85081 0
M  V30 7898 H 769.133 -0.439673 -1.40376 0
M  V30 7899 H 771.091 1.3577 -3.9449 0
M  V30 7900 H 769.721 1.56587 -2.82277 0
M  V30 7901 H 768.773 -0.671794 -3.74421 0
M  V30 7902 H 770.085 -0.664086 -4.9436 0
M  V30 7903 H 769.239 1.49787 -5.87919 0
M  V30 7904 H 767.978 1.57328 -4.61627 0
M  V30 7905 H 766.983 -0.568209 -5.46856 0
M  V30 7906 H 768.208 -0.627497 -6.76195 0
M  V30 7907 H 766.154 1.58141 -6.36653 0
M  V30 7908 H 766.071 0.320952 -7.55318 0
M  V30 7909 H 767.339 1.50633 -7.64807 0
M  V30 7910 N 771.568 1.50203 -0.477153 0
M  V30 7911 C 772.979 1.86685 -0.0235041 0
M  V30 7912 C 773.33 1.39148 1.38319 0
M  V30 7913 O 772.455 0.759051 2.02651 0
M  V30 7914 C 773.05 3.38781 -0.0358767 0
M  V30 7915 C 771.609 3.74652 0.362327 0
M  V30 7916 C 770.756 2.7412 -0.41875 0
M  V30 7917 H 773.707 1.4286 -0.691133 0
M  V30 7918 H 773.728 3.72732 0.764924 0
M  V30 7919 H 773.24 3.73349 -1.05981 0
M  V30 7920 H 771.341 3.45686 1.39039 0
M  V30 7921 H 771.454 4.79063 0.059457 0
M  V30 7922 H 769.818 2.54376 0.128341 0
M  V30 7923 H 770.601 3.11532 -1.44231 0
M  V30 7924 N 773.046 0.209999 1.56195 0
M  V30 7925 C 773.978 -0.736967 2.17029 0
M  V30 7926 C 774.991 -1.16599 1.13616 0
M  V30 7927 O 776.18 -1.09914 1.40646 0
M  V30 7928 C 773.28 -2.00852 2.72969 0
M  V30 7929 C 772.453 -1.73691 4.01435 0
M  V30 7930 C 771.512 -2.85439 4.42053 0
M  V30 7931 O 770.538 -2.54405 5.09183 0
M  V30 7932 N 771.74 -4.14135 4.06783 0
M  V30 7933 H 774.505 -0.216656 2.98916 0
M  V30 7934 H 772.066 0.0285672 1.61875 0
M  V30 7935 H 774.058 -2.74778 2.97118 0
M  V30 7936 H 772.628 -2.43963 1.95451 0
M  V30 7937 H 771.848 -0.834676 3.85262 0
M  V30 7938 H 773.136 -1.52961 4.85263 0
M  V30 7939 H 772.534 -4.42196 3.52816 0
M  V30 7940 H 771.091 -4.84642 4.35851 0
M  V30 7941 N 774.524 -1.57472 -0.0634922 0
M  V30 7942 C 775.454 -2.07297 -1.07473 0
M  V30 7943 C 776.435 -0.968162 -1.39859 0
M  V30 7944 O 777.62 -1.24139 -1.49343 0
M  V30 7945 C 774.75 -2.52381 -2.38581 0
M  V30 7946 C 773.704 -3.66813 -2.20526 0
M  V30 7947 C 773.03 -3.97982 -3.57092 0
M  V30 7948 C 774.33 -4.96553 -1.61965 0
M  V30 7949 H 776.024 -2.92033 -0.660092 0
M  V30 7950 H 773.57 -1.40488 -0.316074 0
M  V30 7951 H 775.523 -2.85852 -3.09624 0
M  V30 7952 H 774.247 -1.64684 -2.8204 0
M  V30 7953 H 772.906 -3.33639 -1.51924 0
M  V30 7954 H 772.554 -3.07403 -3.98136 0
M  V30 7955 H 772.254 -4.7504 -3.45848 0
M  V30 7956 H 773.778 -4.33956 -4.29552 0
M  V30 7957 H 775.192 -5.28201 -2.22883 0
M  V30 7958 H 773.589 -5.7799 -1.61394 0
M  V30 7959 H 774.659 -4.81396 -0.581918 0
M  V30 7960 N 776.003 0.335068 -1.53997 0
M  V30 7961 C 776.966 1.39481 -1.81872 0
M  V30 7962 C 777.966 1.4524 -0.690078 0
M  V30 7963 O 779.156 1.45467 -0.958377 0
M  V30 7964 C 776.288 2.78329 -1.9684 0
M  V30 7965 H 777.481 1.16024 -2.76547 0
M  V30 7966 H 775.034 0.569926 -1.45539 0
M  V30 7967 H 775.769 3.07058 -1.04337 0
M  V30 7968 H 775.554 2.75544 -2.78958 0
M  V30 7969 H 777.044 3.55016 -2.19894 0
M  V30 7970 N 777.481 1.45874 0.596531 0
M  V30 7971 C 778.73 1.49737 1.35135 0
M  V30 7972 C 779.043 0.147755 1.95041 0
M  V30 7973 O 780.249 0.0640984 2.71424 0
M  V30 7974 C 778.705 2.6378 2.44843 0
M  V30 7975 C 778.313 4.05102 1.91301 0
M  V30 7976 C 780.057 2.769 3.21755 0
M  V30 7977 C 777.964 5.10508 2.98557 0
M  V30 7978 H 776.894 0.557219 0.507959 0
M  V30 7979 H 779.545 1.72046 0.638147 0
M  V30 7980 H 777.927 2.34774 3.189 0
M  V30 7981 H 779.101 4.43836 1.2388 0
M  V30 7982 H 777.416 3.96528 1.271 0
M  V30 7983 H 780.013 3.52819 4.01775 0
M  V30 7984 H 780.356 1.83924 3.73467 0
M  V30 7985 H 780.889 3.05485 2.54802 0
M  V30 7986 H 777.628 6.0523 2.51749 0
M  V30 7987 H 777.148 4.76332 3.6451 0
M  V30 7988 H 778.827 5.35745 3.62748 0
M  V30 7989 N 778.959 -0.83999 1.33349 0
M  V30 7990 C 780.205 -1.59753 1.24927 0
M  V30 7991 C 780.538 -1.93318 -0.184855 0
M  V30 7992 O 779.813 -1.586 -1.12589 0
M  V30 7993 C 780.096 -2.90829 2.12345 0
M  V30 7994 C 779.949 -2.63953 3.6421 0
M  V30 7995 C 781.268 -3.92246 1.99577 0
M  V30 7996 H 778.387 -0.579654 0.45516 0
M  V30 7997 H 781.029 -0.968909 1.63439 0
M  V30 7998 H 779.179 -3.44478 1.79631 0
M  V30 7999 H 780.851 -2.16745 4.07209 0
M  V30 8000 H 779.094 -1.97671 3.86146 0
M  V30 8001 H 779.765 -3.57348 4.20721 0
M  V30 8002 H 782.241 -3.479 2.28265 0
M  V30 8003 H 781.117 -4.81793 2.62996 0
M  V30 8004 H 781.378 -4.3138 0.967673 0
M  V30 8005 N 780.437 -1.16799 -1.0581 0
M  V30 8006 C 781.665 -0.97687 -1.82387 0
M  V30 8007 C 782.08 0.474917 -1.82729 0
M  V30 8008 O 781.437 1.3297 -1.25001 0
M  V30 8009 C 781.488 -1.50279 -3.28783 0
M  V30 8010 O 781.209 -2.89772 -3.28578 0
M  V30 8011 C 782.71 -1.35538 -4.22071 0
M  V30 8012 H 779.93 -0.345977 -0.574927 0
M  V30 8013 H 782.474 -1.54942 -1.33466 0
M  V30 8014 H 780.629 -0.972414 -3.74997 0
M  V30 8015 H 781.043 -3.13954 -4.20159 0
M  V30 8016 H 782.517 -1.7716 -5.22799 0
M  V30 8017 H 782.994 -0.301598 -4.38163 0
M  V30 8018 H 783.6 -1.87562 -3.81708 0
M  V30 8019 N 781.915 1.24427 -0.967243 0
M  V30 8020 C 782.847 2.24641 -0.454856 0
M  V30 8021 C 783.86 1.56849 0.436152 0
M  V30 8022 O 785.049 1.76846 0.242401 0
M  V30 8023 C 782.149 3.36954 0.362672 0
M  V30 8024 C 781.322 4.34318 -0.518324 0
M  V30 8025 C 780.381 5.25638 0.243122 0
M  V30 8026 O 779.407 5.68043 -0.362791 0
M  V30 8027 N 780.609 5.59897 1.53282 0
M  V30 8028 H 783.374 2.69238 -1.31648 0
M  V30 8029 H 780.935 1.38464 -0.839015 0
M  V30 8030 H 782.927 3.95014 0.880094 0
M  V30 8031 H 781.497 2.91646 1.12522 0
M  V30 8032 H 780.717 3.74953 -1.21672 0
M  V30 8033 H 782.005 4.96338 -1.11919 0
M  V30 8034 H 781.403 5.27373 2.04682 0
M  V30 8035 H 779.96 6.20488 1.99594 0
M  V30 8036 N 783.393 0.737304 1.3929 0
M  V30 8037 C 784.639 0.295581 2.01241 0
M  V30 8038 C 784.994 -1.10561 1.57461 0
M  V30 8039 O 784.287 -1.74346 0.7946 0
M  V30 8040 C 784.481 0.338438 3.55794 0
M  V30 8041 C 784.31 1.74225 4.14579 0
M  V30 8042 C 783.08 2.35502 4.47065 0
M  V30 8043 C 785.278 2.69623 4.37959 0
M  V30 8044 N 783.26 3.68014 4.91365 0
M  V30 8045 C 784.631 3.86873 4.84489 0
M  V30 8046 C 786.686 2.67355 4.2003 0
M  V30 8047 C 785.389 5.02193 5.14971 0
M  V30 8048 C 787.415 3.8182 4.51627 0
M  V30 8049 C 786.777 4.97806 4.98366 0
M  V30 8050 H 782.876 0.154468 0.766592 0
M  V30 8051 H 785.46 0.963768 1.69173 0
M  V30 8052 H 783.631 -0.299406 3.87244 0
M  V30 8053 H 785.363 -0.122053 4.04516 0
M  V30 8054 H 782.118 1.87406 4.34943 0
M  V30 8055 H 782.542 4.36051 5.17869 0
M  V30 8056 H 787.184 1.78876 3.83097 0
M  V30 8057 H 784.902 5.913 5.50809 0
M  V30 8058 H 788.488 3.81366 4.39376 0
M  V30 8059 H 787.368 5.84909 5.22351 0
M  V30 8060 N 784.871 -1.49948 0.485112 0
M  V30 8061 C 786.111 -2.04301 -0.0635728 0
M  V30 8062 C 786.475 -1.35804 -1.35725 0
M  V30 8063 O 787.676 -1.80789 -1.98919 0
M  V30 8064 C 785.947 -3.56666 -0.228962 0
M  V30 8065 S 787.506 -4.32614 -0.734185 0
M  V30 8066 H 784.324 -0.710939 -0.00931895 0
M  V30 8067 H 786.926 -1.84185 0.655455 0
M  V30 8068 H 785.63 -4.04068 0.718148 0
M  V30 8069 H 785.161 -3.8116 -0.973696 0
M  V30 8070 H 787.176 -4.53859 -2.00565 0
M  V30 8071 N 786.349 -0.21828 -1.56081 0
M  V30 8072 C 787.259 0.704602 -2.23769 0
M  V30 8073 C 788.275 1.21633 -1.24425 0
M  V30 8074 O 789.451 1.25862 -1.57228 0
M  V30 8075 C 786.516 1.89725 -2.90182 0
M  V30 8076 C 785.577 1.42782 -4.0486 0
M  V30 8077 C 784.81 2.56361 -4.68097 0
M  V30 8078 O 785.033 3.74417 -4.30312 0
M  V30 8079 O 783.967 2.2775 -5.57148 0
M  V30 8080 H 787.793 0.158007 -3.03289 0
M  V30 8081 H 785.378 0.0120279 -1.49395 0
M  V30 8082 H 787.26 2.59382 -3.32113 0
M  V30 8083 H 785.935 2.432 -2.13624 0
M  V30 8084 H 784.842 0.699359 -3.67505 0
M  V30 8085 H 786.175 0.939474 -4.83151 0
M  V30 8086 N 787.827 1.57504 0.0551401 0
M  V30 8087 C 789.075 1.87684 0.74962 0
M  V30 8088 C 789.396 0.812547 1.77264 0
M  V30 8089 O 788.666 -0.15694 1.9527 0
M  V30 8090 H 787.246 0.6926 0.279846 0
M  V30 8091 H 789.908 1.94881 0.0272745 0
M  V30 8092 H 789.004 2.85734 1.25548 0
M  V30 8093 N 789.305 -0.326896 1.54172 0
M  V30 8094 C 790.53 -1.08924 1.76494 0
M  V30 8095 C 790.955 -1.81039 0.510523 0
M  V30 8096 O 790.313 -1.73141 -0.537756 0
M  V30 8097 C 790.361 -2.06558 2.95578 0
M  V30 8098 O 789.465 -3.14394 2.6689 0
M  V30 8099 H 788.806 -0.314216 0.584948 0
M  V30 8100 H 791.336 -0.372207 2.01186 0
M  V30 8101 H 791.346 -2.49487 3.22832 0
M  V30 8102 H 790.021 -1.53469 3.86549 0
M  V30 8103 H 788.598 -2.76164 2.50576 0
M  V30 8104 N 790.784 -1.46188 -0.588786 0
M  V30 8105 C 792.009 -1.5498 -1.37826 0
M  V30 8106 C 792.434 -0.189498 -1.87143 0
M  V30 8107 O 791.792 0.829293 -1.61222 0
M  V30 8108 C 791.84 -2.55369 -2.54596 0
M  V30 8109 O 790.944 -2.08452 -3.55839 0
M  V30 8110 H 790.285 -0.521741 -0.41071 0
M  V30 8111 H 792.815 -1.91708 -0.714779 0
M  V30 8112 H 792.825 -2.74782 -3.01594 0
M  V30 8113 H 791.5 -3.54155 -2.18052 0
M  V30 8114 H 790.077 -1.98999 -3.15363 0
M  V30 8115 N 792.262 0.832906 -1.33792 0
M  V30 8116 C 793.192 1.95828 -1.27176 0
M  V30 8117 C 794.173 1.69427 -0.15114 0
M  V30 8118 O 795.358 1.91167 -0.341886 0
M  V30 8119 C 792.488 3.32098 -1.01629 0
M  V30 8120 C 791.442 3.72912 -2.10049 0
M  V30 8121 C 790.768 5.07054 -1.69706 0
M  V30 8122 C 792.068 3.86064 -3.51783 0
M  V30 8123 H 793.762 2.01622 -2.21334 0
M  V30 8124 H 791.308 0.96866 -1.0655 0
M  V30 8125 H 793.261 4.10402 -0.956474 0
M  V30 8126 H 791.985 3.26577 -0.0390956 0
M  V30 8127 H 790.644 2.96876 -2.15082 0
M  V30 8128 H 790.292 4.9801 -0.706737 0
M  V30 8129 H 789.992 5.35333 -2.42264 0
M  V30 8130 H 791.516 5.87827 -1.65202 0
M  V30 8131 H 792.93 4.54665 -3.49218 0
M  V30 8132 H 791.327 4.25787 -4.22878 0
M  V30 8133 H 792.397 2.88344 -3.89854 0
M  V30 8134 N 793.74 1.17359 1.05189 0
M  V30 8135 C 794.97 0.985099 1.81602 0
M  V30 8136 C 795.378 -0.469872 1.83273 0
M  V30 8137 O 794.721 -1.33806 1.25864 0
M  V30 8138 C 794.783 1.44956 3.2898 0
M  V30 8139 C 794.447 2.92666 3.50993 0
M  V30 8140 C 795.444 3.906 3.43115 0
M  V30 8141 C 793.129 3.30841 3.77954 0
M  V30 8142 C 795.123 5.24709 3.61883 0
M  V30 8143 C 792.81 4.65116 3.96371 0
M  V30 8144 C 793.808 5.61859 3.88335 0
M  V30 8145 O 793.496 6.93704 4.06238 0
M  V30 8146 H 793.228 0.348731 0.579105 0
M  V30 8147 H 795.782 1.56066 1.33539 0
M  V30 8148 H 794.012 0.817559 3.77959 0
M  V30 8149 H 795.701 1.22674 3.86919 0
M  V30 8150 H 796.467 3.62453 3.22262 0
M  V30 8151 H 792.346 2.5611 3.83313 0
M  V30 8152 H 795.89 6.00205 3.55527 0
M  V30 8153 H 791.787 4.92969 4.16715 0
M  V30 8154 H 792.555 7.00443 4.23463 0
M  V30 8155 N 795.218 -1.23913 0.973828 0
M  V30 8156 C 796.168 -2.22892 0.479933 0
M  V30 8157 C 797.152 -1.54726 -0.441434 0
M  V30 8158 O 798.344 -1.74908 -0.271358 0
M  V30 8159 C 795.473 -3.42577 -0.222702 0
M  V30 8160 C 794.559 -4.17981 0.717851 0
M  V30 8161 N 794.95 -4.7045 1.8577 0
M  V30 8162 C 793.248 -4.42841 0.529858 0
M  V30 8163 C 793.949 -5.27751 2.44651 0
M  V30 8164 N 792.925 -5.15302 1.73104 0
M  V30 8165 H 796.727 -2.61083 1.34956 0
M  V30 8166 H 794.241 -1.39368 0.83368 0
M  V30 8167 H 796.238 -4.1265 -0.593793 0
M  V30 8168 H 794.898 -3.05904 -1.0887 0
M  V30 8169 H 795.909 -4.66997 2.23908 0
M  V30 8170 H 792.586 -4.1648 -0.291664 0
M  V30 8171 H 793.976 -5.79011 3.40875 0
M  V30 8172 N 796.696 -0.74468 -1.38897 0
M  V30 8173 C 797.646 -0.0869375 -2.27834 0
M  V30 8174 C 798.63 0.702553 -1.44751 0
M  V30 8175 O 799.822 0.569972 -1.67572 0
M  V30 8176 C 796.951 0.812232 -3.33553 0
M  V30 8177 C 796.037 0.0163713 -4.24097 0
M  V30 8178 N 796.428 -1.01547 -4.95502 0
M  V30 8179 C 794.726 0.244554 -4.45329 0
M  V30 8180 C 795.427 -1.49622 -5.62128 0
M  V30 8181 N 794.403 -0.813097 -5.37485 0
M  V30 8182 H 798.205 -0.877345 -2.80499 0
M  V30 8183 H 795.719 -0.579898 -1.51694 0
M  V30 8184 H 797.716 1.299 -3.96146 0
M  V30 8185 H 796.376 1.60169 -2.82446 0
M  V30 8186 H 797.387 -1.39707 -4.98701 0
M  V30 8187 H 794.064 1.00806 -4.05147 0
M  V30 8188 H 795.454 -2.35523 -6.29268 0
M  V30 8189 N 798.174 1.49689 -0.493057 0
M  V30 8190 C 799.104 2.31826 0.279073 0
M  V30 8191 C 800.085 1.39733 0.969987 0
M  V30 8192 O 801.27 1.68646 0.962925 0
M  V30 8193 C 798.4 3.20046 1.34862 0
M  V30 8194 C 797.354 4.20869 0.77805 0
M  V30 8195 C 796.68 4.97971 1.94753 0
M  V30 8196 C 797.98 5.21813 -0.225543 0
M  V30 8197 H 799.674 2.96627 -0.406512 0
M  V30 8198 H 797.22 1.42647 -0.196943 0
M  V30 8199 H 799.173 3.76315 1.89645 0
M  V30 8200 H 797.897 2.53172 2.06328 0
M  V30 8201 H 796.556 3.65733 0.252036 0
M  V30 8202 H 796.204 4.27552 2.64969 0
M  V30 8203 H 795.904 5.66186 1.57187 0
M  V30 8204 H 797.428 5.57082 2.49984 0
M  V30 8205 H 798.842 5.72823 0.233864 0
M  V30 8206 H 797.239 5.97872 -0.516622 0
M  V30 8207 H 798.309 4.71209 -1.14412 0
M  V30 8208 N 799.652 0.226554 1.55963 0
M  V30 8209 C 800.602 -0.694986 2.1715 0
M  V30 8210 C 801.586 -1.15394 1.12129 0
M  V30 8211 O 802.778 -1.1071 1.38102 0
M  V30 8212 C 799.907 -1.9007 2.85882 0
M  V30 8213 C 798.993 -1.46119 3.98133 0
M  V30 8214 N 799.384 -0.734584 5.00437 0
M  V30 8215 C 797.682 -1.74809 4.10314 0
M  V30 8216 C 798.383 -0.509773 5.79462 0
M  V30 8217 N 797.359 -1.06796 5.33006 0
M  V30 8218 H 801.161 -0.131469 2.93606 0
M  V30 8219 H 798.675 0.0280165 1.62376 0
M  V30 8220 H 800.672 -2.57169 3.28131 0
M  V30 8221 H 799.332 -2.46864 2.10923 0
M  V30 8222 H 800.343 -0.386757 5.16454 0
M  V30 8223 H 797.02 -2.32887 3.46511 0
M  V30 8224 H 798.41 0.0688847 6.71865 0
M  V30 8225 N 801.13 -1.57531 -0.0467866 0
M  V30 8226 C 802.379 -1.87632 -0.740069 0
M  V30 8227 C 802.692 -0.822691 -1.77457 0
M  V30 8228 O 803.898 -1.01235 -2.5192 0
M  V30 8229 C 802.354 -3.32917 -1.36727 0
M  V30 8230 C 801.962 -4.46469 -0.370035 0
M  V30 8231 C 803.706 -3.72189 -2.04146 0
M  V30 8232 C 801.613 -5.82806 -1.00457 0
M  V30 8233 H 800.543 -0.70002 -0.280158 0
M  V30 8234 H 803.194 -1.83499 0.00607151 0
M  V30 8235 H 801.576 -3.31739 -2.16252 0
M  V30 8236 H 802.75 -4.59085 0.397217 0
M  V30 8237 H 801.065 -4.15914 0.201079 0
M  V30 8238 H 803.662 -4.71357 -2.52441 0
M  V30 8239 H 804.005 -3.03268 -2.85192 0
M  V30 8240 H 804.538 -3.75465 -1.3142 0
M  V30 8241 H 801.277 -6.55083 -0.233907 0
M  V30 8242 H 800.797 -5.73944 -1.74209 0
M  V30 8243 H 802.476 -6.28961 -1.51713 0
M  V30 8244 N 802.608 0.318715 -1.54344 0
M  V30 8245 C 803.857 1.05363 -1.71993 0
M  V30 8246 C 804.17 1.89018 -0.503155 0
M  V30 8247 O 805.376 2.65639 -0.561085 0
M  V30 8248 C 803.832 1.92281 -3.0423 0
M  V30 8249 C 803.44 1.13715 -4.33328 0
M  V30 8250 C 805.184 2.65479 -3.31242 0
M  V30 8251 C 803.091 1.99806 -5.56625 0
M  V30 8252 H 802.021 0.397081 -0.64097 0
M  V30 8253 H 804.672 0.311598 -1.80835 0
M  V30 8254 H 803.054 2.70402 -2.89307 0
M  V30 8255 H 804.228 0.403305 -4.59032 0
M  V30 8256 H 802.543 0.521769 -4.13118 0
M  V30 8257 H 805.14 3.30209 -4.20555 0
M  V30 8258 H 805.483 3.33374 -2.49334 0
M  V30 8259 H 806.016 1.94417 -3.47054 0
M  V30 8260 H 802.755 1.36411 -6.41149 0
M  V30 8261 H 802.275 2.70911 -5.35133 0
M  V30 8262 H 803.954 2.58277 -5.93213 0
M  V30 8263 N 804.086 1.46499 0.581025 0
M  V30 8264 C 804.996 1.59778 1.71779 0
M  V30 8265 C 806.012 0.481223 1.67213 0
M  V30 8266 O 807.188 0.74557 1.87091 0
M  V30 8267 C 804.253 1.58626 3.08283 0
M  V30 8268 C 803.314 2.81527 3.241 0
M  V30 8269 C 802.547 2.80421 4.54092 0
M  V30 8270 O 802.77 1.89262 5.38085 0
M  V30 8271 O 801.704 3.71984 4.73193 0
M  V30 8272 H 805.53 2.55918 1.63523 0
M  V30 8273 H 803.115 1.29311 0.748267 0
M  V30 8274 H 804.997 1.60686 3.89561 0
M  V30 8275 H 803.672 0.656467 3.16973 0
M  V30 8276 H 802.579 2.85021 2.42309 0
M  V30 8277 H 803.912 3.73721 3.20302 0
M  V30 8278 N 805.565 -0.825799 1.34232 0
M  V30 8279 C 806.793 -1.61363 1.29497 0
M  V30 8280 C 807.208 -1.88341 -0.131536 0
M  V30 8281 O 806.565 -1.47279 -1.07773 0
M  V30 8282 C 806.616 -2.95623 2.08061 0
M  V30 8283 O 806.337 -2.69824 3.45147 0
M  V30 8284 C 807.838 -3.90032 2.10688 0
M  V30 8285 H 805.058 -0.501676 0.445603 0
M  V30 8286 H 807.602 -1.02767 1.76803 0
M  V30 8287 H 805.757 -3.50785 1.64404 0
M  V30 8288 H 806.171 -3.55412 3.85723 0
M  V30 8289 H 807.645 -4.81411 2.70087 0
M  V30 8290 H 808.122 -4.25188 1.10052 0
M  V30 8291 H 808.728 -3.40807 2.54422 0
M  V30 8292 N 807.043 -1.17915 -1.04565 0
M  V30 8293 C 807.99 -0.901605 -2.12461 0
M  V30 8294 C 808.96 0.157011 -1.65356 0
M  V30 8295 O 810.145 0.0184494 -1.90791 0
M  V30 8296 C 807.285 -0.42796 -3.42436 0
M  V30 8297 C 806.398 -1.55142 -4.03181 0
M  V30 8298 C 805.533 -1.03101 -5.21098 0
M  V30 8299 C 804.572 -2.1295 -5.73863 0
M  V30 8300 N 803.709 -1.62339 -6.83074 0
M  V30 8301 H 808.549 -1.82551 -2.3554 0
M  V30 8302 H 806.086 -0.910389 -1.15544 0
M  V30 8303 H 808.044 -0.134859 -4.16982 0
M  V30 8304 H 806.674 0.458977 -3.1952 0
M  V30 8305 H 805.726 -1.96011 -3.26012 0
M  V30 8306 H 807.038 -2.37968 -4.38375 0
M  V30 8307 H 806.192 -0.692132 -6.02739 0
M  V30 8308 H 804.931 -0.17227 -4.87396 0
M  V30 8309 H 803.936 -2.47687 -4.90847 0
M  V30 8310 H 805.161 -2.9925 -6.09611 0
M  V30 8311 H 803.107 -0.787464 -6.51256 0
M  V30 8312 H 803.024 -2.38767 -7.17305 0
M  V30 8313 H 804.292 -1.31363 -7.68351 0
M  V30 8314 N 808.521 1.23394 -0.980386 0
M  V30 8315 C 809.768 1.91809 -0.649261 0
M  V30 8316 C 810.096 1.765 0.817197 0
M  V30 8317 O 809.351 1.11979 1.60497 0
M  V30 8318 C 809.65 3.43542 -0.985588 0
M  V30 8319 C 809.316 3.79031 -2.44225 0
M  V30 8320 C 807.978 3.88429 -2.84035 0
M  V30 8321 C 810.33 3.96145 -3.38702 0
M  V30 8322 C 807.658 4.12368 -4.17336 0
M  V30 8323 C 810.01 4.21583 -4.71646 0
M  V30 8324 C 808.674 4.29203 -5.11215 0
M  V30 8325 H 807.944 0.70188 -0.237581 0
M  V30 8326 H 810.591 1.4642 -1.23424 0
M  V30 8327 H 808.896 3.90503 -0.318521 0
M  V30 8328 H 810.593 3.94708 -0.707596 0
M  V30 8329 H 807.183 3.7229 -2.12362 0
M  V30 8330 H 811.367 3.88274 -3.09123 0
M  V30 8331 H 806.623 4.1649 -4.47601 0
M  V30 8332 H 810.797 4.33769 -5.4481 0
M  V30 8333 H 808.424 4.47505 -6.14527 0
M  V30 8334 N 809.999 0.752036 1.385 0
M  V30 8335 C 810.909 0.125318 2.34265 0
M  V30 8336 C 811.925 -0.702437 1.59191 0
M  V30 8337 O 813.101 -0.626951 1.91393 0
M  V30 8338 C 810.166 -0.758486 3.38301 0
M  V30 8339 C 809.227 0.0834636 4.29219 0
M  V30 8340 C 808.46 -0.758252 5.28286 0
M  V30 8341 O 808.683 -1.99632 5.34325 0
M  V30 8342 O 807.617 -0.177878 6.01637 0
M  V30 8343 H 811.443 0.91617 2.89551 0
M  V30 8344 H 809.028 0.512911 1.4032 0
M  V30 8345 H 810.91 -1.26365 4.02007 0
M  V30 8346 H 809.585 -1.52786 2.85374 0
M  V30 8347 H 808.492 0.634545 3.68679 0
M  V30 8348 H 809.825 0.815455 4.85398 0
M  V30 8349 N 811.477 -1.49425 0.500989 0
M  V30 8350 C 812.41 -2.25887 -0.324087 0
M  V30 8351 C 813.388 -1.30469 -0.970388 0
M  V30 8352 O 814.572 -1.59758 -1.00049 0
M  V30 8353 C 811.699 -3.05787 -1.45643 0
M  V30 8354 C 810.745 -4.16359 -0.924508 0
M  V30 8355 S 811.578 -5.35181 0.184707 0
M  V30 8356 C 812.734 -6.18636 -0.950806 0
M  V30 8357 H 812.967 -2.95519 0.324891 0
M  V30 8358 H 810.5 -1.51723 0.286289 0
M  V30 8359 H 812.458 -3.52405 -2.10525 0
M  V30 8360 H 811.119 -2.35624 -2.07703 0
M  V30 8361 H 810.312 -4.71781 -1.77311 0
M  V30 8362 H 809.914 -3.72331 -0.352907 0
M  V30 8363 H 812.206 -6.51581 -1.85603 0
M  V30 8364 H 813.149 -7.06761 -0.435212 0
M  V30 8365 H 813.557 -5.512 -1.21813 0
M  V30 8366 N 812.955 -0.234822 -1.55841 0
M  V30 8367 C 814.204 0.393685 -1.97821 0
M  V30 8368 C 814.517 1.59947 -1.1259 0
M  V30 8369 O 815.723 2.29835 -1.44528 0
M  V30 8370 C 814.179 0.751811 -3.5196 0
M  V30 8371 C 813.787 -0.431898 -4.45913 0
M  V30 8372 C 815.531 1.34518 -4.02623 0
M  V30 8373 C 813.438 -0.0505976 -5.91378 0
M  V30 8374 H 812.368 0.150864 -0.738753 0
M  V30 8375 H 815.019 -0.333132 -1.80451 0
M  V30 8376 H 813.401 1.53642 -3.6498 0
M  V30 8377 H 814.575 -1.20935 -4.44647 0
M  V30 8378 H 812.89 -0.939385 -4.05666 0
M  V30 8379 H 815.487 1.64359 -5.08813 0
M  V30 8380 H 815.83 2.26554 -3.49255 0
M  V30 8381 H 816.363 0.623729 -3.9288 0
M  V30 8382 H 813.102 -0.937779 -6.48757 0
M  V30 8383 H 812.622 0.690898 -5.95808 0
M  V30 8384 H 814.301 0.37146 -6.45933 0
M  V30 8385 N 814.433 1.57553 0.0384317 0
M  V30 8386 C 815.38 2.05942 1.04194 0
M  V30 8387 C 816.35 0.946637 1.36484 0
M  V30 8388 O 817.535 1.21658 1.46983 0
M  V30 8389 C 814.675 2.53588 2.34066 0
M  V30 8390 C 813.788 3.7862 2.08017 0
M  V30 8391 C 812.923 4.14915 3.31692 0
M  V30 8392 C 811.962 5.32891 3.01155 0
M  V30 8393 N 811.099 5.64662 4.17254 0
M  V30 8394 H 815.939 2.91429 0.622341 0
M  V30 8395 H 813.476 1.44098 0.295684 0
M  V30 8396 H 815.434 2.79276 3.09937 0
M  V30 8397 H 814.064 1.71031 2.73767 0
M  V30 8398 H 813.116 3.60073 1.22686 0
M  V30 8399 H 814.428 4.64613 1.81484 0
M  V30 8400 H 813.582 4.41681 4.15936 0
M  V30 8401 H 812.321 3.27555 3.6133 0
M  V30 8402 H 811.326 5.05887 2.15311 0
M  V30 8403 H 812.551 6.21896 2.72804 0
M  V30 8404 H 810.497 4.80261 4.46861 0
M  V30 8405 H 810.414 6.45145 3.94112 0
M  V30 8406 H 811.682 5.96 5.02399 0
M  V30 8407 N 815.911 -0.310526 1.54511 0
M  V30 8408 C 816.841 -1.38757 1.878 0
M  V30 8409 C 817.822 -1.53353 0.735991 0
M  V30 8410 O 819.007 -1.67018 0.990887 0
M  V30 8411 C 816.137 -2.75327 2.11689 0
M  V30 8412 C 815.091 -2.75506 3.27537 0
M  V30 8413 C 814.417 -4.15275 3.36824 0
M  V30 8414 C 815.717 -2.38093 4.64875 0
M  V30 8415 H 817.411 -1.11146 2.78005 0
M  V30 8416 H 814.957 -0.533232 1.33763 0
M  V30 8417 H 816.91 -3.50752 2.33562 0
M  V30 8418 H 815.634 -3.04443 1.18245 0
M  V30 8419 H 814.293 -2.02538 3.05572 0
M  V30 8420 H 813.941 -4.41553 2.40915 0
M  V30 8421 H 813.641 -4.16299 4.14692 0
M  V30 8422 H 815.165 -4.92493 3.60947 0
M  V30 8423 H 816.579 -3.03232 4.86542 0
M  V30 8424 H 814.976 -2.50345 5.45387 0
M  V30 8425 H 816.046 -1.33227 4.66239 0
M  V30 8426 N 817.389 -1.46805 -0.573248 0
M  V30 8427 C 818.638 -1.51868 -1.32736 0
M  V30 8428 C 818.951 -0.178765 -1.94781 0
M  V30 8429 O 820.157 -0.107272 -2.71288 0
M  V30 8430 C 818.613 -2.67641 -2.40616 0
M  V30 8431 C 818.221 -4.08094 -1.84832 0
M  V30 8432 C 819.965 -2.81984 -3.17309 0
M  V30 8433 C 817.872 -5.15193 -2.90397 0
M  V30 8434 H 816.802 -0.56523 -0.49903 0
M  V30 8435 H 819.453 -1.7304 -0.610695 0
M  V30 8436 H 817.835 -2.39818 -3.15124 0
M  V30 8437 H 819.009 -4.45751 -1.16803 0
M  V30 8438 H 817.324 -3.985 -1.20775 0
M  V30 8439 H 819.921 -3.59166 -3.96111 0
M  V30 8440 H 820.264 -1.89842 -3.70494 0
M  V30 8441 H 820.797 -3.095 -2.4991 0
M  V30 8442 H 817.536 -6.09158 -2.42088 0
M  V30 8443 H 817.056 -4.82071 -3.56886 0
M  V30 8444 H 818.735 -5.41448 -3.54179 0
M  V30 8445 N 818.867 0.818669 -1.34668 0
M  V30 8446 C 820.144 1.56118 -1.17841 0
M  V30 8447 C 820.524 2.09646 0.24731 0
M  V30 8448 O 819.872 1.91329 1.24922 0
M  V30 8449 C 820.082 2.67922 -2.23649 0
M  V30 8450 C 821.43 3.36579 -2.58843 0
M  V30 8451 O 822.454 2.78182 -2.22471 0
M  V30 8452 O 821.313 4.42045 -3.21339 0
M  V30 8453 H 818.407 0.689216 -0.457067 0
M  V30 8454 H 820.953 0.859674 -1.46314 0
M  V30 8455 H 819.725 2.26153 -3.19328 0
M  V30 8456 H 819.348 3.45719 -1.96377 0
M  V30 8457 N 820.346 1.18468 1.03938 0
M  V30 8458 C 821.595 0.975193 1.76558 0
M  V30 8459 C 821.908 -0.495978 1.89207 0
M  V30 8460 O 823.114 -0.824009 2.58694 0
M  V30 8461 C 821.57 1.69579 3.17444 0
M  V30 8462 C 821.178 3.20636 3.12884 0
M  V30 8463 C 822.922 1.56917 3.94433 0
M  V30 8464 C 820.829 3.8533 4.48636 0
M  V30 8465 H 819.759 0.361244 0.66183 0
M  V30 8466 H 822.41 1.41854 1.16403 0
M  V30 8467 H 820.792 1.18022 3.78004 0
M  V30 8468 H 821.966 3.79228 2.61768 0
M  V30 8469 H 820.281 3.33454 2.49394 0
M  V30 8470 H 822.878 2.02611 4.94826 0
M  V30 8471 H 823.221 0.521638 4.13019 0
M  V30 8472 H 823.754 2.05762 3.40451 0
M  V30 8473 H 820.493 4.90136 4.35255 0
M  V30 8474 H 820.013 3.31526 4.99851 0
M  V30 8475 H 821.692 3.88269 5.17549 0
M  V30 8476 N 821.824 -1.22873 0.986916 0
M  V30 8477 C 822.787 -2.2281 0.537442 0
M  V30 8478 C 823.787 -1.56331 -0.37646 0
M  V30 8479 O 824.977 -1.73376 -0.169247 0
M  V30 8480 C 822.109 -3.40195 -0.219082 0
M  V30 8481 H 823.302 -2.64089 1.42116 0
M  V30 8482 H 820.855 -1.35819 0.773488 0
M  V30 8483 H 821.59 -3.04381 -1.11905 0
M  V30 8484 H 821.375 -3.89657 0.437026 0
M  V30 8485 H 822.865 -4.14326 -0.521926 0
M  V30 8486 N 823.302 -0.75937 -1.38099 0
M  V30 8487 C 824.718 -0.437606 -1.53483 0
M  V30 8488 C 824.918 1.04849 -1.72072 0
M  V30 8489 O 823.974 1.83448 -1.73502 0
M  V30 8490 C 825.287 -1.24189 -2.73857 0
M  V30 8491 C 826.835 -1.23255 -2.8771 0
M  V30 8492 C 827.31 -2.01992 -4.11051 0
M  V30 8493 N 828.801 -1.99282 -4.1814 0
M  V30 8494 C 829.536 -2.56996 -5.12583 0
M  V30 8495 N 829.032 -3.23446 -6.12662 0
M  V30 8496 N 830.825 -2.46894 -5.04975 0
M  V30 8497 H 822.976 -1.72242 -1.24283 0
M  V30 8498 H 825.239 -0.730507 -0.604205 0
M  V30 8499 H 824.945 -2.29449 -2.66545 0
M  V30 8500 H 824.819 -0.862672 -3.67203 0
M  V30 8501 H 827.206 -0.187988 -2.94501 0
M  V30 8502 H 827.287 -1.65132 -1.95359 0
M  V30 8503 H 826.931 -3.06462 -4.05023 0
M  V30 8504 H 826.861 -1.57505 -5.02494 0
M  V30 8505 H 829.352 -1.50893 -3.46467 0
M  V30 8506 H 829.665 -3.6489 -6.81231 0
M  V30 8507 H 828.01 -3.27543 -6.12977 0
M  V30 8508 H 831.201 -1.94604 -4.25731 0
M  V30 8509 H 831.374 -2.92168 -5.78396 0
M  V30 8510 N 824.78 1.49157 -0.508906 0
M  V30 8511 C 825.712 2.272 0.302115 0
M  V30 8512 C 826.725 1.3407 0.923529 0
M  V30 8513 O 827.914 1.5929 0.805532 0
M  V30 8514 C 825.014 3.06736 1.44105 0
M  V30 8515 C 824.187 4.27497 0.925477 0
M  V30 8516 C 823.246 4.89014 1.94297 0
M  V30 8517 O 822.272 5.48851 1.50834 0
M  V30 8518 N 823.474 4.7937 3.2739 0
M  V30 8519 H 826.239 2.97443 -0.367115 0
M  V30 8520 H 823.8 1.58248 -0.341933 0
M  V30 8521 H 825.792 3.44763 2.11944 0
M  V30 8522 H 824.362 2.3905 2.0143 0
M  V30 8523 H 823.582 3.94135 0.0717301 0
M  V30 8524 H 824.87 5.05714 0.55955 0
M  V30 8525 H 824.268 4.31869 3.65384 0
M  V30 8526 H 822.825 5.21559 3.90922 0
M  V30 8527 N 826.258 0.243083 1.55714 0
M  V30 8528 C 827.486 -0.386971 2.03249 0
M  V30 8529 C 827.901 -1.51812 1.12243 0
M  V30 8530 O 827.258 -1.81992 0.136119 0
M  V30 8531 C 827.309 -0.898361 3.5016 0
M  V30 8532 O 827.03 0.187708 4.37698 0
M  V30 8533 C 828.531 -1.59949 4.13438 0
M  V30 8534 H 825.751 -0.0923981 0.664608 0
M  V30 8535 H 828.295 0.365832 2.01201 0
M  V30 8536 H 826.45 -1.60136 3.52754 0
M  V30 8537 H 826.864 -0.200001 5.24119 0
M  V30 8538 H 828.338 -1.90907 5.17937 0
M  V30 8539 H 828.815 -2.52014 3.59702 0
M  V30 8540 H 829.421 -0.941163 4.14756 0
M  V30 8541 N 827.736 -1.57571 -0.0300757 0
M  V30 8542 C 828.699 -2.05468 -1.01565 0
M  V30 8543 C 829.699 -0.958628 -1.29101 0
M  V30 8544 O 830.889 -1.22228 -1.24121 0
M  V30 8545 C 828.021 -2.47077 -2.34874 0
M  V30 8546 H 829.214 -2.93797 -0.601936 0
M  V30 8547 H 826.767 -1.53828 -0.276878 0
M  V30 8548 H 827.502 -1.61901 -2.80996 0
M  V30 8549 H 827.287 -3.27097 -2.16218 0
M  V30 8550 H 828.777 -2.84564 -3.05635 0
M  V30 8551 N 829.214 0.302327 -1.54673 0
M  V30 8552 C 830.146 1.39443 -1.81902 0
M  V30 8553 C 831.159 1.46891 -0.701914 0
M  V30 8554 O 832.348 1.49233 -0.979369 0
M  V30 8555 C 829.448 2.77824 -1.9408 0
M  V30 8556 C 828.621 2.93324 -3.24468 0
M  V30 8557 C 827.68 4.12196 -3.27079 0
M  V30 8558 O 826.706 4.04344 -4.00617 0
M  V30 8559 N 827.908 5.22768 -2.52376 0
M  V30 8560 H 830.673 1.1644 -2.76155 0
M  V30 8561 H 828.234 0.492392 -1.54231 0
M  V30 8562 H 830.226 3.5559 -1.9323 0
M  V30 8563 H 828.796 2.9378 -1.06828 0
M  V30 8564 H 828.016 2.02682 -3.38103 0
M  V30 8565 H 829.304 3.0059 -4.10516 0
M  V30 8566 H 828.702 5.32027 -1.92259 0
M  V30 8567 H 827.259 5.98874 -2.57281 0
M  V30 8568 N 830.692 1.47107 0.565454 0
M  V30 8569 C 831.94 1.53005 1.32038 0
M  V30 8570 C 832.261 0.190453 1.94068 0
M  V30 8571 O 831.531 -0.784783 1.79494 0
M  V30 8572 H 830.111 0.563578 0.490294 0
M  V30 8573 H 832.773 1.83351 0.660928 0
M  V30 8574 H 831.869 2.29215 2.11818 0
M  V30 8575 N 832.17 -0.811516 1.35101 0
M  V30 8576 C 833.103 -1.92872 1.21966 0
M  V30 8577 C 834.081 -1.62236 0.108667 0
M  V30 8578 O 835.265 -1.8647 0.275875 0
M  V30 8579 C 832.392 -3.27152 0.876886 0
M  V30 8580 C 831.438 -3.7674 1.99924 0
M  V30 8581 S 832.271 -3.95132 3.61429 0
M  V30 8582 C 833.427 -5.32322 3.29218 0
M  V30 8583 H 833.66 -2.03718 2.16532 0
M  V30 8584 H 831.193 -0.968352 1.20259 0
M  V30 8585 H 833.151 -4.04729 0.685917 0
M  V30 8586 H 831.812 -3.14059 -0.0506289 0
M  V30 8587 H 831.005 -4.73981 1.71343 0
M  V30 8588 H 830.607 -3.06145 2.14829 0
M  V30 8589 H 832.899 -6.1614 2.8174 0
M  V30 8590 H 833.842 -5.65893 4.25641 0
M  V30 8591 H 834.25 -4.98374 2.65111 0
M  V30 8592 N 833.648 -1.19017 -1.03309 0
M  V30 8593 C 834.925 -0.899659 -1.73682 0
M  V30 8594 C 835.305 0.595677 -2.02521 0
M  V30 8595 O 834.653 1.55263 -1.67648 0
M  V30 8596 C 834.863 -1.75508 -3.01659 0
M  V30 8597 C 836.211 -1.98679 -3.75249 0
M  V30 8598 O 837.235 -1.72624 -3.11576 0
M  V30 8599 O 836.094 -2.42587 -4.89708 0
M  V30 8600 H 833.188 -0.334903 -0.756154 0
M  V30 8601 H 835.734 -1.29809 -1.09305 0
M  V30 8602 H 834.506 -2.7684 -2.76542 0
M  V30 8603 H 834.129 -1.35565 -3.73775 0
M  V30 8604 N 835.127 1.22348 -0.993418 0
M  V30 8605 C 836.357 1.94842 -0.687023 0
M  V30 8606 C 836.765 1.73594 0.752445 0
M  V30 8607 O 836.108 1.03238 1.51946 0
M  V30 8608 C 836.17 3.47694 -0.913754 0
M  V30 8609 C 835.834 3.92678 -2.33781 0
M  V30 8610 C 836.831 4.0031 -3.31734 0
M  V30 8611 C 834.516 4.25311 -2.67237 0
M  V30 8612 C 836.51 4.39951 -4.61218 0
M  V30 8613 C 834.197 4.64631 -3.9694 0
M  V30 8614 C 835.195 4.71919 -4.93742 0
M  V30 8615 O 834.883 5.10349 -6.21127 0
M  V30 8616 H 834.615 0.626771 -0.253247 0
M  V30 8617 H 837.169 1.56436 -1.33105 0
M  V30 8618 H 835.399 3.86115 -0.212552 0
M  V30 8619 H 837.088 4.01403 -0.602528 0
M  V30 8620 H 837.854 3.75288 -3.07219 0
M  V30 8621 H 833.733 4.18842 -1.92594 0
M  V30 8622 H 837.277 4.45555 -5.36774 0
M  V30 8623 H 833.174 4.89104 -4.21245 0
M  V30 8624 H 833.942 5.2842 -6.25072 0
M  V30 8625 N 836.605 0.766683 1.37694 0
M  V30 8626 C 837.535 0.163432 2.32927 0
M  V30 8627 C 838.516 -0.688861 1.55527 0
M  V30 8628 O 839.701 -0.627363 1.83787 0
M  V30 8629 C 836.831 -0.720416 3.39746 0
M  V30 8630 C 835.785 0.0301718 4.27989 0
M  V30 8631 C 835.111 -0.972788 5.25776 0
M  V30 8632 C 836.411 1.20623 5.0818 0
M  V30 8633 H 838.105 0.958988 2.83626 0
M  V30 8634 H 835.651 0.462601 1.36367 0
M  V30 8635 H 837.604 -1.15221 4.05342 0
M  V30 8636 H 836.328 -1.54844 2.8756 0
M  V30 8637 H 834.987 0.442685 3.63917 0
M  V30 8638 H 834.635 -1.79522 4.69873 0
M  V30 8639 H 834.335 -0.475145 5.85676 0
M  V30 8640 H 835.859 -1.40362 5.94248 0
M  V30 8641 H 837.273 0.851341 5.66944 0
M  V30 8642 H 835.67 1.63561 5.7738 0
M  V30 8643 H 836.74 2.01281 4.41151 0
M  V30 8644 N 838.083 -1.48885 0.516809 0
M  V30 8645 C 839.033 -2.26363 -0.272704 0
M  V30 8646 C 840.017 -1.31891 -0.921604 0
M  V30 8647 O 841.209 -1.56514 -0.826589 0
M  V30 8648 C 838.338 -3.16614 -1.32705 0
M  V30 8649 C 837.424 -4.18554 -0.683598 0
M  V30 8650 N 837.815 -5.05308 0.223015 0
M  V30 8651 C 836.113 -4.35931 -0.942351 0
M  V30 8652 C 836.814 -5.7867 0.592918 0
M  V30 8653 N 835.79 -5.43583 -0.042912 0
M  V30 8654 H 839.592 -2.90811 0.424971 0
M  V30 8655 H 837.106 -1.5893 0.333941 0
M  V30 8656 H 839.103 -3.70766 -1.90625 0
M  V30 8657 H 837.763 -2.5372 -2.02624 0
M  V30 8658 H 838.774 -5.14473 0.594818 0
M  V30 8659 H 835.451 -3.84234 -1.6331 0
M  V30 8660 H 836.841 -6.58493 1.33556 0
M  V30 8661 N 839.561 -0.251338 -1.55583 0
M  V30 8662 C 840.524 0.63305 -2.20284 0
M  V30 8663 C 841.524 1.09941 -1.17344 0
M  V30 8664 O 842.714 1.00341 -1.42399 0
M  V30 8665 C 839.846 1.8706 -2.84993 0
M  V30 8666 H 841.039 0.0684846 -2.99822 0
M  V30 8667 H 838.592 -0.00181653 -1.563 0
M  V30 8668 H 839.327 2.47629 -2.09405 0
M  V30 8669 H 839.112 1.54436 -3.60405 0
M  V30 8670 H 840.602 2.50004 -3.34496 0
M  V30 8671 N 841.039 1.57585 0.0217189 0
M  V30 8672 C 841.986 2.07036 1.02004 0
M  V30 8673 C 842.956 0.96106 1.35473 0
M  V30 8674 O 844.141 1.23211 1.45684 0
M  V30 8675 C 841.281 2.56056 2.31364 0
M  V30 8676 C 840.394 3.80805 2.03989 0
M  V30 8677 C 839.529 4.18409 3.27272 0
M  V30 8678 C 838.568 5.36055 2.95486 0
M  V30 8679 N 837.705 5.69056 4.11242 0
M  V30 8680 H 842.545 2.92073 0.591396 0
M  V30 8681 H 840.082 1.44403 0.280384 0
M  V30 8682 H 842.04 2.82548 3.06957 0
M  V30 8683 H 840.67 1.73925 2.71937 0
M  V30 8684 H 839.722 3.61354 1.1886 0
M  V30 8685 H 841.034 4.66512 1.76546 0
M  V30 8686 H 840.188 4.46068 4.11228 0
M  V30 8687 H 838.927 3.31369 3.57835 0
M  V30 8688 H 837.932 5.08142 2.09933 0
M  V30 8689 H 839.157 6.24755 2.66193 0
M  V30 8690 H 837.103 4.84974 4.41742 0
M  V30 8691 H 837.02 6.49288 3.87247 0
M  V30 8692 H 838.288 6.01295 4.96049 0
M  V30 8693 N 842.517 -0.29412 1.54831 0
M  V30 8694 C 843.742 -1.05156 1.78765 0
M  V30 8695 C 844.167 -1.79916 0.548809 0
M  V30 8696 O 843.525 -1.74243 -0.500909 0
M  V30 8697 C 843.573 -2.00242 2.99893 0
M  V30 8698 O 842.677 -3.08662 2.73499 0
M  V30 8699 H 842.018 -0.301737 0.591482 0
M  V30 8700 H 844.548 -0.329449 2.0193 0
M  V30 8701 H 844.558 -2.42583 3.28051 0
M  V30 8702 H 843.233 -1.45235 3.89717 0
M  V30 8703 H 841.81 -2.70786 2.56377 0
M  V30 8704 N 843.995 -1.47404 -0.557645 0
M  V30 8705 C 845.244 -1.53268 -1.31118 0
M  V30 8706 C 845.557 -0.199414 -1.94581 0
M  V30 8707 O 846.763 -0.136039 -2.71159 0
M  V30 8708 C 845.219 -2.70178 -2.37764 0
M  V30 8709 C 844.827 -4.10032 -1.80493 0
M  V30 8710 C 846.571 -2.85334 -3.14301 0
M  V30 8711 C 844.478 -5.18244 -2.84916 0
M  V30 8712 H 843.408 -0.570491 -0.493007 0
M  V30 8713 H 846.059 -1.73678 -0.592308 0
M  V30 8714 H 844.441 -2.43147 -3.12563 0
M  V30 8715 H 845.615 -4.46964 -1.12069 0
M  V30 8716 H 843.93 -3.99759 -1.16542 0
M  V30 8717 H 846.527 -3.63347 -3.92279 0
M  V30 8718 H 846.87 -1.93761 -3.68459 0
M  V30 8719 H 847.403 -3.12133 -2.46613 0
M  V30 8720 H 844.142 -6.11691 -2.35614 0
M  V30 8721 H 843.662 -4.85829 -3.51753 0
M  V30 8722 H 845.341 -5.45174 -3.48417 0
M  V30 8723 N 845.473 0.80434 -1.35529 0
M  V30 8724 C 846.722 1.55665 -1.28263 0
M  V30 8725 C 847.035 1.95096 0.140352 0
M  V30 8726 O 848.241 2.69422 0.335303 0
M  V30 8727 C 846.697 2.80935 -2.24952 0
M  V30 8728 C 846.305 2.48733 -3.72607 0
M  V30 8729 C 848.049 3.5894 -2.26632 0
M  V30 8730 C 845.956 3.70308 -4.61114 0
M  V30 8731 H 844.886 0.584301 -0.476559 0
M  V30 8732 H 847.537 0.88395 -1.60806 0
M  V30 8733 H 845.919 3.49927 -1.85383 0
M  V30 8734 H 847.093 1.87733 -4.20824 0
M  V30 8735 H 845.408 1.83969 -3.73557 0
M  V30 8736 H 848.005 4.49244 -2.89973 0
M  V30 8737 H 848.348 3.96433 -1.27069 0
M  V30 8738 H 848.881 2.96912 -2.64742 0
M  V30 8739 H 845.62 3.37922 -5.61684 0
M  V30 8740 H 845.14 4.30526 -4.17621 0
M  V30 8741 H 846.819 4.37511 -4.76648 0
M  V30 8742 N 846.951 1.19563 1.02676 0
M  V30 8743 C 847.901 0.903055 2.09354 0
M  V30 8744 C 848.885 -0.133009 1.60349 0
M  V30 8745 O 850.077 0.0729744 1.7685 0
M  V30 8746 C 847.206 0.445852 3.40392 0
M  V30 8747 C 846.292 1.51477 3.96126 0
M  V30 8748 N 846.683 2.73474 4.25495 0
M  V30 8749 C 844.981 1.37856 4.2416 0
M  V30 8750 C 845.682 3.42348 4.7029 0
M  V30 8751 N 844.658 2.69746 4.71952 0
M  V30 8752 H 848.46 1.83023 2.29956 0
M  V30 8753 H 845.974 1.08812 1.20556 0
M  V30 8754 H 847.971 0.21769 4.16331 0
M  V30 8755 H 846.631 -0.47482 3.2121 0
M  V30 8756 H 847.642 3.10217 4.14711 0
M  V30 8757 H 844.319 0.521512 4.1423 0
M  V30 8758 H 845.709 4.46686 5.01917 0
M  V30 8759 N 848.429 -1.21819 0.999893 0
M  V30 8760 C 849.845 -1.42847 0.711824 0
M  V30 8761 C 850.045 -1.88391 -0.714928 0
M  V30 8762 O 849.101 -2.0422 -1.48494 0
M  V30 8763 C 850.414 -2.46417 1.72334 0
M  V30 8764 C 851.962 -2.60207 1.73958 0
M  V30 8765 C 852.437 -3.67005 2.73992 0
M  V30 8766 N 853.928 -3.7447 2.72628 0
M  V30 8767 C 854.663 -4.56718 3.46693 0
M  V30 8768 N 854.159 -5.42904 4.3038 0
M  V30 8769 N 855.952 -4.51094 3.35366 0
M  V30 8770 H 848.103 -0.905656 1.92124 0
M  V30 8771 H 850.366 -0.459893 0.828977 0
M  V30 8772 H 850.072 -2.19914 2.74465 0
M  V30 8773 H 849.946 -3.45137 1.52186 0
M  V30 8774 H 852.333 -2.8605 0.725217 0
M  V30 8775 H 852.414 -1.61739 1.98177 0
M  V30 8776 H 852.058 -3.41908 3.75582 0
M  V30 8777 H 851.988 -4.65058 2.4704 0
M  V30 8778 H 854.479 -3.12895 2.11909 0
M  V30 8779 H 854.792 -6.02704 4.83702 0
M  V30 8780 H 853.137 -5.42463 4.34464 0
M  V30 8781 H 856.328 -3.82791 2.69423 0
M  V30 8782 H 856.501 -5.1496 3.93344 0
M  V30 8783 N 849.908 -0.773975 -1.37286 0
M  V30 8784 C 851.185 -0.263942 -1.93811 0
M  V30 8785 C 851.565 1.24138 -1.70743 0
M  V30 8786 O 850.913 2.02557 -1.05749 0
M  V30 8787 C 851.123 -0.639753 -3.43086 0
M  V30 8788 C 852.471 -0.610796 -4.20184 0
M  V30 8789 O 853.495 -0.579278 -3.51458 0
M  V30 8790 O 852.354 -0.639862 -5.42741 0
M  V30 8791 H 849.448 -0.0614331 -0.824715 0
M  V30 8792 H 851.994 -0.855477 -1.46559 0
M  V30 8793 H 850.766 -1.67856 -3.53469 0
M  V30 8794 H 850.389 -0.0212827 -3.97594 0
M  V30 8795 N 851.386 1.48609 -0.524698 0
M  V30 8796 C 852.316 2.32366 0.229837 0
M  V30 8797 C 853.297 1.41759 0.940129 0
M  V30 8798 O 854.482 1.7065 0.926936 0
M  V30 8799 C 851.612 3.22835 1.28043 0
M  V30 8800 C 850.566 4.22424 0.688603 0
M  V30 8801 C 849.892 5.0199 1.84146 0
M  V30 8802 C 851.192 5.21217 -0.336176 0
M  V30 8803 H 852.886 2.95698 -0.469339 0
M  V30 8804 H 850.432 1.42197 -0.227156 0
M  V30 8805 H 852.385 3.80253 1.8162 0
M  V30 8806 H 851.109 2.57492 2.00912 0
M  V30 8807 H 849.768 3.66185 0.174402 0
M  V30 8808 H 849.416 4.33076 2.5584 0
M  V30 8809 H 849.116 5.69392 1.45142 0
M  V30 8810 H 850.64 5.62259 2.38111 0
M  V30 8811 H 852.054 5.7319 0.112307 0
M  V30 8812 H 850.451 5.96642 -0.643324 0
M  V30 8813 H 851.521 4.68676 -1.24381 0
M  V30 8814 N 852.864 0.259585 1.55447 0
M  V30 8815 C 853.811 -0.634578 2.21905 0
M  V30 8816 C 854.781 -1.16168 1.18719 0
M  V30 8817 O 855.966 -1.21383 1.4721 0
M  V30 8818 C 853.106 -1.82005 2.93203 0
M  V30 8819 C 852.219 -1.32828 4.11073 0
M  V30 8820 C 851.354 -2.47431 4.70055 0
M  V30 8821 C 850.393 -1.95179 5.80148 0
M  V30 8822 N 849.53 -3.03197 6.33258 0
M  V30 8823 H 854.37 -0.0611886 2.97937 0
M  V30 8824 H 851.907 -0.0184378 1.47088 0
M  V30 8825 H 853.865 -2.51664 3.32748 0
M  V30 8826 H 852.495 -2.36571 2.19622 0
M  V30 8827 H 851.547 -0.525301 3.76756 0
M  V30 8828 H 852.859 -0.905435 4.90513 0
M  V30 8829 H 852.013 -3.25111 5.12238 0
M  V30 8830 H 850.752 -2.93023 3.89857 0
M  V30 8831 H 849.757 -1.15974 5.37429 0
M  V30 8832 H 850.982 -1.50541 6.62204 0
M  V30 8833 H 848.928 -3.48199 5.55961 0
M  V30 8834 H 848.845 -2.65282 7.07928 0
M  V30 8835 H 850.113 -3.80898 6.80101 0
M  V30 8836 N 854.342 -1.57594 -0.0133615 0
M  V30 8837 C 855.567 -1.94649 -0.715996 0
M  V30 8838 C 855.992 -0.860786 -1.67249 0
M  V30 8839 O 855.35 0.182228 -1.80382 0
M  V30 8840 C 855.398 -3.30789 -1.43566 0
M  V30 8841 O 854.502 -3.24148 -2.54955 0
M  V30 8842 H 853.843 -0.635801 -0.191449 0
M  V30 8843 H 856.373 -2.04569 0.0358478 0
M  V30 8844 H 856.383 -3.66045 -1.80208 0
M  V30 8845 H 855.058 -4.09367 -0.734263 0
M  V30 8846 H 853.635 -3.00548 -2.20739 0
M  V30 8847 N 855.82 0.285905 -1.54985 0
M  V30 8848 C 856.768 1.37302 -1.87752 0
M  V30 8849 C 857.762 1.51763 -0.752616 0
M  V30 8850 O 858.968 1.53701 -0.936805 0
M  V30 8851 H 855.343 0.458935 -0.59572 0
M  V30 8852 H 857.314 1.0691 -2.78591 0
M  V30 8853 C 856.063 2.72885 -2.15474 0
M  V30 8854 H 855.386 2.62545 -3.01513 0
M  V30 8855 H 856.826 3.47925 -2.42331 0
M  V30 8856 C 855.285 3.22989 -0.958124 0
M  V30 8857 O 855.815 4.01268 -0.186219 0
M  V30 8858 N 854.021 2.80503 -0.759354 0
M  V30 8859 H 853.568 2.16961 -1.38874 0
M  V30 8860 H 853.526 3.14375 0.0396937 0
M  V30 8861 N 857.298 1.47698 0.54982 0
M  V30 8862 C 858.246 1.61156 1.67724 0
M  V30 8863 C 859.24 0.478606 1.62498 0
M  V30 8864 O 860.446 0.656661 1.67595 0
M  V30 8865 H 856.821 0.507304 0.55511 0
M  V30 8866 H 858.792 2.55884 1.53512 0
M  V30 8867 C 857.541 1.64994 3.06059 0
M  V30 8868 H 856.864 2.51525 3.10765 0
M  V30 8869 H 858.304 1.78459 3.84615 0
M  V30 8870 C 856.763 0.384677 3.34697 0
M  V30 8871 O 857.293 -0.511057 3.98436 0
M  V30 8872 N 855.499 0.262434 2.89413 0
M  V30 8873 H 855.046 0.99229 2.37721 0
M  V30 8874 H 855.004 -0.583177 3.08944 0
M  V30 8875 N 858.776 -0.797141 1.35954 0
M  V30 8876 C 860.025 -1.54983 1.29086 0
M  V30 8877 C 860.338 -1.95167 -0.130003 0
M  V30 8878 O 861.544 -2.69596 -0.32101 0
M  V30 8879 C 860 -2.79738 2.26439 0
M  V30 8880 C 859.608 -2.46753 3.73921 0
M  V30 8881 C 861.352 -3.57733 2.28533 0
M  V30 8882 C 859.259 -3.67858 4.63071 0
M  V30 8883 H 858.189 -0.581766 0.479651 0
M  V30 8884 H 860.84 -0.87541 1.61273 0
M  V30 8885 H 859.222 -3.48939 1.87236 0
M  V30 8886 H 860.396 -1.85499 4.21814 0
M  V30 8887 H 858.711 -1.81985 3.74527 0
M  V30 8888 H 861.308 -4.47699 2.92351 0
M  V30 8889 H 861.651 -3.95754 1.29169 0
M  V30 8890 H 862.184 -2.95504 2.66313 0
M  V30 8891 H 858.923 -3.34939 5.63468 0
M  V30 8892 H 858.443 -4.28305 4.19898 0
M  V30 8893 H 860.122 -4.34977 4.78961 0
M  V30 8894 N 860.254 -1.20106 -1.0204 0
M  V30 8895 C 861.501 -1.00889 -1.75578 0
M  V30 8896 C 861.829 0.459415 -1.88996 0
M  V30 8897 O 861.084 1.35735 -1.40977 0
M  V30 8898 C 861.383 -1.63308 -3.17908 0
M  V30 8899 C 861.049 -3.13091 -3.24476 0
M  V30 8900 C 859.711 -3.53968 -3.25976 0
M  V30 8901 C 862.063 -4.09093 -3.22944 0
M  V30 8902 C 859.391 -4.89381 -3.2361 0
M  V30 8903 C 861.743 -5.44447 -3.22119 0
M  V30 8904 C 860.407 -5.84742 -3.2192 0
M  V30 8905 H 859.677 -0.36918 -0.642485 0
M  V30 8906 H 862.324 -1.49475 -1.19706 0
M  V30 8907 H 860.629 -1.06974 -3.76914 0
M  V30 8908 H 862.326 -1.45958 -3.73493 0
M  V30 8909 H 858.916 -2.80526 -3.24042 0
M  V30 8910 H 863.1 -3.78549 -3.20958 0
M  V30 8911 H 858.356 -5.1987 -3.21785 0
M  V30 8912 H 862.53 -6.18584 -3.19885 0
M  V30 8913 H 860.157 -6.89642 -3.19841 0
M  V30 8914 N 861.732 1.21287 -1.00634 0
M  V30 8915 C 862.662 2.25973 -0.588089 0
M  V30 8916 C 863.643 1.65527 0.391764 0
M  V30 8917 O 864.828 1.92179 0.279452 0
M  V30 8918 C 861.958 3.47197 0.0847336 0
M  V30 8919 C 860.912 4.20168 -0.815039 0
M  V30 8920 C 860.238 5.34699 -0.00855393 0
M  V30 8921 C 861.538 4.77416 -2.11828 0
M  V30 8922 H 863.232 2.61212 -1.46317 0
M  V30 8923 H 860.778 1.25563 -0.704985 0
M  V30 8924 H 862.731 4.19602 0.388821 0
M  V30 8925 H 861.455 3.11092 0.994456 0
M  V30 8926 H 860.114 3.49614 -1.10297 0
M  V30 8927 H 859.762 4.94837 0.902499 0
M  V30 8928 H 859.462 5.84449 -0.607664 0
M  V30 8929 H 860.986 6.09914 0.289317 0
M  V30 8930 H 862.4 5.41694 -1.87725 0
M  V30 8931 H 860.797 5.37561 -2.66736 0
M  V30 8932 H 861.867 3.96724 -2.78816 0
M  V30 8933 N 863.21 0.781244 1.36873 0
M  V30 8934 C 864.16 0.147313 2.27524 0
M  V30 8935 C 865.144 -0.663928 1.46563 0
M  V30 8936 O 866.336 -0.525343 1.69024 0
M  V30 8937 C 863.465 -0.723511 3.35589 0
M  V30 8938 C 862.551 0.0960763 4.23991 0
M  V30 8939 N 862.942 1.14649 4.92635 0
M  V30 8940 C 861.24 -0.126397 4.45821 0
M  V30 8941 C 861.941 1.64474 5.57964 0
M  V30 8942 N 860.917 0.955316 5.3514 0
M  V30 8943 H 864.719 0.951406 2.78075 0
M  V30 8944 H 862.233 0.619913 1.50103 0
M  V30 8945 H 864.23 -1.19351 3.99451 0
M  V30 8946 H 862.89 -1.52624 2.86594 0
M  V30 8947 H 863.901 1.5288 4.94821 0
M  V30 8948 H 860.578 -0.900284 4.07678 0
M  V30 8949 H 861.968 2.52124 6.22803 0
M  V30 8950 N 864.689 -1.48329 0.532571 0
M  V30 8951 C 865.599 -2.33445 -0.232546 0
M  V30 8952 C 866.615 -1.46651 -0.93645 0
M  V30 8953 O 867.791 -1.79627 -0.910834 0
M  V30 8954 C 864.856 -3.22824 -1.26434 0
M  V30 8955 C 863.917 -4.25492 -0.570511 0
M  V30 8956 C 863.15 -5.10601 -1.55315 0
M  V30 8957 O 863.373 -4.97733 -2.78599 0
M  V30 8958 O 862.307 -5.91927 -1.09112 0
M  V30 8959 H 866.133 -3.00119 0.464988 0
M  V30 8960 H 863.718 -1.46489 0.293462 0
M  V30 8961 H 865.6 -3.78103 -1.86055 0
M  V30 8962 H 864.275 -2.58807 -1.94424 0
M  V30 8963 H 863.182 -3.74041 0.0662587 0
M  V30 8964 H 864.515 -4.92154 0.0674904 0
M  V30 8965 N 866.167 -0.267825 -1.55308 0
M  V30 8966 C 867.444 0.402449 -1.91415 0
M  V30 8967 C 867.824 1.7428 -1.1912 0
M  V30 8968 O 867.172 2.2631 -0.315609 0
M  V30 8969 C 867.382 0.549926 -3.4464 0
M  V30 8970 C 868.73 0.836188 -4.16285 0
M  V30 8971 O 869.754 0.635009 -3.50494 0
M  V30 8972 O 868.613 1.22051 -5.32697 0
M  V30 8973 H 865.707 0.219177 -0.797427 0
M  V30 8974 H 868.253 -0.313439 -1.6678 0
M  V30 8975 H 867.025 -0.393641 -3.89315 0
M  V30 8976 H 866.648 1.31556 -3.75205 0
M  V30 8977 N 867.645 1.57599 0.00500368 0
M  V30 8978 C 868.575 2.11143 0.99705 0
M  V30 8979 C 869.556 1.0194 1.3617 0
M  V30 8980 O 870.741 1.29596 1.44632 0
M  V30 8981 C 867.871 2.61062 2.2905 0
M  V30 8982 C 866.825 3.74745 2.0676 0
M  V30 8983 C 866.151 4.10961 3.42075 0
M  V30 8984 C 867.451 5.02222 1.43424 0
M  V30 8985 H 869.145 2.94281 0.551251 0
M  V30 8986 H 866.691 1.41565 0.263715 0
M  V30 8987 H 868.644 2.97146 2.98801 0
M  V30 8988 H 867.368 1.75038 2.75734 0
M  V30 8989 H 866.027 3.39047 1.39436 0
M  V30 8990 H 865.675 3.21968 3.86453 0
M  V30 8991 H 865.375 4.87549 3.27979 0
M  V30 8992 H 866.899 4.49599 4.1315 0
M  V30 8993 H 868.313 5.36109 2.03125 0
M  V30 8994 H 866.71 5.83581 1.39831 0
M  V30 8995 H 867.78 4.83224 0.40285 0
M  V30 8996 N 869.123 -0.277682 1.55134 0
M  V30 8997 C 870.351 -1.02826 1.7954 0
M  V30 8998 C 870.766 -1.80105 0.566373 0
M  V30 8999 O 870.123 -1.76491 -0.464448 0
M  V30 9000 C 870.174 -1.99053 3.01762 0
M  V30 9001 O 869.895 -1.24906 4.19917 0
M  V30 9002 C 871.396 -2.85961 3.38735 0
M  V30 9003 H 868.616 -0.303958 0.598206 0
M  V30 9004 H 871.16 -0.309884 2.02138 0
M  V30 9005 H 869.315 -2.66359 2.81303 0
M  V30 9006 H 869.729 -1.89725 4.88983 0
M  V30 9007 H 871.203 -3.49286 4.27438 0
M  V30 9008 H 871.68 -3.55486 2.57928 0
M  V30 9009 H 872.286 -2.24152 3.61436 0
M  V30 9010 N 870.601 -1.47988 -0.541979 0
M  V30 9011 C 871.847 -1.55623 -1.30036 0
M  V30 9012 C 872.18 -0.224254 -1.92901 0
M  V30 9013 O 871.455 0.768629 -1.78668 0
M  V30 9014 C 871.738 -2.68562 -2.39888 0
M  V30 9015 C 871.591 -4.11426 -1.81792 0
M  V30 9016 C 872.91 -2.77325 -3.41729 0
M  V30 9017 H 870.029 -0.566498 -0.471433 0
M  V30 9018 H 872.671 -1.8011 -0.604998 0
M  V30 9019 H 870.821 -2.47814 -2.992 0
M  V30 9020 H 872.493 -4.43581 -1.26624 0
M  V30 9021 H 870.736 -4.18989 -1.12386 0
M  V30 9022 H 871.407 -4.8625 -2.61276 0
M  V30 9023 H 873.883 -2.96085 -2.92357 0
M  V30 9024 H 872.759 -3.58097 -4.16002 0
M  V30 9025 H 873.02 -1.84995 -4.01534 0
M  V30 9026 N 872.079 0.78992 -1.36375 0
M  V30 9027 C 873.026 1.90254 -1.3066 0
M  V30 9028 C 873.996 1.65171 -0.17539 0
M  V30 9029 O 875.181 1.87338 -0.361824 0
M  V30 9030 C 872.321 3.27057 -1.10125 0
M  V30 9031 C 871.434 3.64215 -2.32317 0
M  V30 9032 C 870.569 4.90134 -2.04798 0
M  V30 9033 C 869.608 5.19969 -3.22953 0
M  V30 9034 N 868.745 6.37071 -2.95102 0
M  V30 9035 H 873.585 1.94474 -2.25796 0
M  V30 9036 H 871.122 0.951022 -1.12223 0
M  V30 9037 H 873.08 4.05947 -0.962453 0
M  V30 9038 H 871.71 3.22261 -0.186444 0
M  V30 9039 H 870.762 2.80454 -2.57002 0
M  V30 9040 H 872.074 3.82212 -3.20492 0
M  V30 9041 H 871.228 5.76888 -1.87845 0
M  V30 9042 H 869.967 4.74205 -1.13932 0
M  V30 9043 H 868.972 4.31699 -3.40465 0
M  V30 9044 H 870.197 5.37817 -4.14644 0
M  V30 9045 H 868.143 6.22535 -2.06848 0
M  V30 9046 H 868.06 6.55398 -3.76815 0
M  V30 9047 H 869.328 7.26808 -2.81727 0
M  V30 9048 N 873.557 1.20646 1.01402 0
M  V30 9049 C 874.806 1.01242 1.7445 0
M  V30 9050 C 875.119 -0.455732 1.90217 0
M  V30 9051 O 876.325 -0.768951 2.60383 0
M  V30 9052 C 874.781 1.76275 3.13776 0
M  V30 9053 C 874.389 3.27201 3.06013 0
M  V30 9054 C 876.133 1.65248 3.91016 0
M  V30 9055 C 874.04 3.9476 4.40362 0
M  V30 9056 H 872.97 0.375202 0.654018 0
M  V30 9057 H 875.621 1.44292 1.13367 0
M  V30 9058 H 874.003 1.26013 3.75415 0
M  V30 9059 H 875.177 3.84695 2.53665 0
M  V30 9060 H 873.492 3.38669 2.42265 0
M  V30 9061 H 876.089 2.13061 4.90417 0
M  V30 9062 H 876.432 0.609128 4.1182 0
M  V30 9063 H 876.965 2.12937 3.3601 0
M  V30 9064 H 873.704 4.99258 4.24761 0
M  V30 9065 H 873.224 3.42054 4.92706 0
M  V30 9066 H 874.903 3.99159 5.09196 0
M  V30 9067 N 875.035 -1.20752 1.01276 0
M  V30 9068 C 876.283 -1.89645 0.698505 0
M  V30 9069 C 876.604 -1.78986 -0.773883 0
M  V30 9070 O 875.874 -1.18977 -1.55632 0
M  V30 9071 H 874.454 -0.701992 0.255375 0
M  V30 9072 H 877.116 -1.46668 1.28353 0
M  V30 9073 H 876.212 -2.96364 0.978512 0
M  V30 9074 N 876.513 -0.788492 -1.36457 0
M  V30 9075 C 877.79 -0.284484 -1.9352 0
M  V30 9076 C 878.17 1.2232 -1.7205 0
M  V30 9077 O 877.518 2.01424 -1.07892 0
M  V30 9078 C 877.728 -0.676106 -3.42388 0
M  V30 9079 C 879.076 -0.655327 -4.19512 0
M  V30 9080 O 880.1 -0.616523 -3.50824 0
M  V30 9081 O 878.959 -0.697391 -5.42032 0
M  V30 9082 H 876.053 -0.0701769 -0.824017 0
M  V30 9083 H 878.599 -0.870974 -1.45644 0
M  V30 9084 H 877.371 -1.71596 -3.51668 0
M  V30 9085 H 876.994 -0.0634517 -3.97549 0
M  V30 9086 N 877.991 1.48044 -0.54043 0
M  V30 9087 C 879.238 2.02497 -0.0101567 0
M  V30 9088 C 879.566 1.41651 1.33286 0
M  V30 9089 O 878.821 0.555504 1.8765 0
M  V30 9090 C 879.12 3.57085 0.150008 0
M  V30 9091 C 878.786 4.36769 -1.11998 0
M  V30 9092 C 877.448 4.58261 -1.46801 0
M  V30 9093 C 879.8 4.82848 -1.96232 0
M  V30 9094 C 877.128 5.23079 -2.65717 0
M  V30 9095 C 879.48 5.48977 -3.14335 0
M  V30 9096 C 878.144 5.68705 -3.49472 0
M  V30 9097 H 877.414 0.740991 -0.00371661 0
M  V30 9098 H 880.061 1.77909 -0.708562 0
M  V30 9099 H 878.366 3.80572 0.931259 0
M  V30 9100 H 880.063 3.96851 0.575384 0
M  V30 9101 H 876.653 4.20309 -0.838957 0
M  V30 9102 H 880.837 4.66038 -1.70654 0
M  V30 9103 H 876.093 5.36549 -2.93129 0
M  V30 9104 H 880.267 5.83649 -3.79904 0
M  V30 9105 H 877.894 6.18703 -4.41713 0
M  V30 9106 N 879.47 0.276058 1.55163 0
M  V30 9107 C 880.718 -0.339782 1.99223 0
M  V30 9108 C 881.039 -1.56307 1.16589 0
M  V30 9109 O 880.309 -1.94225 0.25564 0
M  V30 9110 H 878.889 -0.128534 0.735859 0
M  V30 9111 H 881.551 0.381612 1.91128 0
M  V30 9112 H 880.647 -0.629 3.05696 0
M  V30 9113 N 880.948 -1.576 0.00335426 0
M  V30 9114 C 881.878 -2.11668 -0.985839 0
M  V30 9115 C 882.859 -1.02661 -1.35627 0
M  V30 9116 O 884.044 -1.30361 -1.43943 0
M  V30 9117 C 881.174 -2.62273 -2.27662 0
M  V30 9118 C 880.128 -3.75837 -2.0477 0
M  V30 9119 C 879.454 -4.12769 -3.39891 0
M  V30 9120 C 880.754 -5.02975 -1.40759 0
M  V30 9121 H 882.448 -2.9457 -0.535637 0
M  V30 9122 H 879.994 -1.41702 -0.256204 0
M  V30 9123 H 881.947 -2.98727 -2.97221 0
M  V30 9124 H 880.671 -1.76498 -2.74802 0
M  V30 9125 H 879.33 -3.39782 -1.37636 0
M  V30 9126 H 878.978 -3.24013 -3.8474 0
M  V30 9127 H 878.678 -4.89281 -3.25389 0
M  V30 9128 H 880.202 -4.51784 -4.1076 0
M  V30 9129 H 881.616 -5.37179 -2.00279 0
M  V30 9130 H 880.013 -5.84315 -1.36734 0
M  V30 9131 H 881.083 -4.83431 -0.377218 0
M  V30 9132 N 882.426 0.269451 -1.5528 0
M  V30 9133 C 883.389 1.31642 -1.87625 0
M  V30 9134 C 884.389 1.42182 -0.751058 0
M  V30 9135 O 885.579 1.41272 -1.01921 0
M  V30 9136 C 882.711 2.6973 -2.08467 0
M  V30 9137 H 883.904 1.0419 -2.81219 0
M  V30 9138 H 881.457 0.507685 -1.47825 0
M  V30 9139 H 882.192 3.02356 -1.17266 0
M  V30 9140 H 881.977 2.63465 -2.90394 0
M  V30 9141 H 883.467 3.4537 -2.34753 0
M  V30 9142 N 883.904 1.48273 0.534124 0
M  V30 9143 C 885.132 1.59734 1.31501 0
M  V30 9144 C 885.547 0.256047 1.87056 0
M  V30 9145 O 884.904 -0.754086 1.66192 0
M  V30 9146 C 884.955 2.64072 2.46877 0
M  V30 9147 O 884.676 3.92995 1.93613 0
M  V30 9148 C 886.177 2.85933 3.38758 0
M  V30 9149 H 883.397 0.538703 0.40005 0
M  V30 9150 H 885.941 1.9407 0.644762 0
M  V30 9151 H 884.096 2.32606 3.09795 0
M  V30 9152 H 884.51 4.50203 2.69106 0
M  V30 9153 H 885.984 3.62749 4.16073 0
M  V30 9154 H 886.461 1.94603 3.93734 0
M  V30 9155 H 887.067 3.18687 2.81636 0
M  V30 9156 N 885.382 -0.782676 1.36792 0
M  V30 9157 C 886.628 -1.54311 1.3159 0
M  V30 9158 C 886.961 -1.93928 -0.102696 0
M  V30 9159 O 886.236 -1.63233 -1.05761 0
M  V30 9160 C 886.519 -2.81561 2.24489 0
M  V30 9161 C 886.372 -2.48268 3.75078 0
M  V30 9162 C 887.691 -3.83428 2.16034 0
M  V30 9163 H 884.81 -0.559828 0.479335 0
M  V30 9164 H 887.452 -0.898717 1.67401 0
M  V30 9165 H 885.602 -3.36549 1.9408 0
M  V30 9166 H 887.274 -1.99279 4.16036 0
M  V30 9167 H 885.517 -1.81116 3.94182 0
M  V30 9168 H 886.188 -3.39183 4.35499 0
M  V30 9169 H 888.664 -3.37905 2.42815 0
M  V30 9170 H 887.54 -4.70204 2.83194 0
M  V30 9171 H 887.801 -4.26887 1.14976 0
M  V30 9172 N 886.86 -1.21182 -1.00761 0
M  V30 9173 C 887.807 -0.968741 -2.09485 0
M  V30 9174 C 888.777 0.104325 -1.65772 0
M  V30 9175 O 889.962 -0.0422587 -1.90753 0
M  V30 9176 C 887.102 -0.536686 -3.40901 0
M  V30 9177 C 886.215 -1.6789 -3.98041 0
M  V30 9178 C 885.35 -1.19627 -5.17555 0
M  V30 9179 C 884.389 -2.31099 -5.66798 0
M  V30 9180 N 883.526 -1.83988 -6.77564 0
M  V30 9181 H 888.366 -1.89952 -2.29613 0
M  V30 9182 H 885.903 -0.946688 -1.12589 0
M  V30 9183 H 887.861 -0.26745 -4.16342 0
M  V30 9184 H 886.491 0.357092 -3.20819 0
M  V30 9185 H 885.543 -2.06284 -3.19611 0
M  V30 9186 H 886.855 -2.51794 -4.30582 0
M  V30 9187 H 886.009 -0.883539 -6.00232 0
M  V30 9188 H 884.748 -0.327244 -4.86601 0
M  V30 9189 H 883.753 -2.63178 -4.82719 0
M  V30 9190 H 884.978 -3.18493 -5.99782 0
M  V30 9191 H 882.924 -0.994257 -6.48422 0
M  V30 9192 H 882.841 -2.61466 -7.09346 0
M  V30 9193 H 884.109 -1.55741 -7.63783 0
M  V30 9194 N 888.338 1.20213 -1.01915 0
M  V30 9195 C 889.563 1.94163 -0.729076 0
M  V30 9196 C 889.988 1.74416 0.704323 0
M  V30 9197 O 889.346 1.0401 1.48498 0
M  V30 9198 C 889.394 3.44258 -1.07324 0
M  V30 9199 O 888.498 4.11979 -0.186367 0
M  V30 9200 H 887.839 0.606506 -0.270272 0
M  V30 9201 H 890.369 1.52571 -1.3632 0
M  V30 9202 H 890.379 3.94888 -1.02603 0
M  V30 9203 H 889.054 3.57954 -2.11759 0
M  V30 9204 H 887.631 3.7176 -0.291334 0
M  V30 9205 N 889.816 0.795718 1.36037 0
M  V30 9206 C 891.232 0.478145 1.52269 0
M  V30 9207 C 891.432 -1.0025 1.74792 0
M  V30 9208 O 890.488 -1.78783 1.78305 0
M  V30 9209 C 891.801 1.31406 2.70468 0
M  V30 9210 C 893.349 1.3084 2.84341 0
M  V30 9211 C 893.824 2.12819 4.05551 0
M  V30 9212 N 895.315 2.10298 4.12709 0
M  V30 9213 C 896.05 2.70495 5.05589 0
M  V30 9214 N 895.546 3.39576 6.03871 0
M  V30 9215 N 897.339 2.60195 4.98252 0
M  V30 9216 H 889.49 1.75477 1.19673 0
M  V30 9217 H 891.753 0.74627 0.584624 0
M  V30 9218 H 891.459 2.36435 2.60368 0
M  V30 9219 H 891.333 0.959726 3.64786 0
M  V30 9220 H 893.72 0.266003 2.93899 0
M  V30 9221 H 893.801 1.70254 1.90912 0
M  V30 9222 H 893.445 3.17093 3.96755 0
M  V30 9223 H 893.375 1.70772 4.98141 0
M  V30 9224 H 895.866 1.60026 3.42345 0
M  V30 9225 H 896.179 3.82823 6.71317 0
M  V30 9226 H 894.524 3.43679 6.04077 0
M  V30 9227 H 897.715 2.05823 4.20422 0
M  V30 9228 H 897.888 3.074 5.70447 0
M  V30 9229 N 891.294 -1.47756 0.548274 0
M  V30 9230 C 892.54 -2.03379 0.0291238 0
M  V30 9231 C 892.895 -1.41603 -1.30255 0
M  V30 9232 O 892.188 -0.559102 -1.83261 0
M  V30 9233 C 892.382 -3.5716 -0.131069 0
M  V30 9234 C 892.211 -4.33846 1.18353 0
M  V30 9235 C 890.981 -4.74087 1.74841 0
M  V30 9236 C 893.179 -4.69535 2.09861 0
M  V30 9237 N 891.161 -5.35382 3.00398 0
M  V30 9238 C 892.532 -5.31039 3.19997 0
M  V30 9239 C 894.587 -4.51464 2.09964 0
M  V30 9240 C 893.29 -5.7638 4.30323 0
M  V30 9241 C 895.316 -4.97798 3.19297 0
M  V30 9242 C 894.678 -5.59343 4.28152 0
M  V30 9243 H 890.777 -0.780229 0.0526037 0
M  V30 9244 H 893.361 -1.80351 0.733593 0
M  V30 9245 H 891.532 -3.79974 -0.804647 0
M  V30 9246 H 893.264 -3.99422 -0.651476 0
M  V30 9247 H 890.019 -4.55764 1.2875 0
M  V30 9248 H 890.443 -5.7058 3.64372 0
M  V30 9249 H 895.085 -4.03246 1.27093 0
M  V30 9250 H 892.803 -6.23594 5.13961 0
M  V30 9251 H 896.389 -4.85593 3.20454 0
M  V30 9252 H 895.269 -5.94544 5.11358 0
M  V30 9253 N 892.772 -0.284283 -1.55015 0
M  V30 9254 C 893.997 0.335799 -2.04664 0
M  V30 9255 C 894.422 1.47999 -1.16094 0
M  V30 9256 O 893.78 1.8058 -0.161454 0
M  V30 9257 C 893.828 0.785615 -3.51938 0
M  V30 9258 O 892.932 1.89202 -3.66437 0
M  V30 9259 H 892.273 0.0680233 -0.660506 0
M  V30 9260 H 894.803 -0.421255 -2.00216 0
M  V30 9261 H 894.813 1.07892 -3.93476 0
M  V30 9262 H 893.488 -0.0514675 -4.15868 0
M  V30 9263 H 892.065 1.60055 -3.36804 0
M  V30 9264 N 894.251 1.57596 -0.0117121 0
M  V30 9265 C 895.499 1.90694 0.669342 0
M  V30 9266 C 895.82 0.886999 1.73659 0
M  V30 9267 O 895.09 -0.0739779 1.9576 0
M  V30 9268 H 893.67 0.703846 0.250219 0
M  V30 9269 H 896.332 1.94821 -0.0554057 0
M  V30 9270 H 895.428 2.90802 1.13316 0
M  V30 9271 N 895.729 -0.261212 1.5542 0
M  V30 9272 C 896.954 -1.01341 1.80955 0
M  V30 9273 C 897.379 -1.78711 0.586849 0
M  V30 9274 O 896.737 -1.75266 -0.463837 0
M  V30 9275 C 896.785 -1.93835 3.04073 0
M  V30 9276 O 895.889 -3.02791 2.79985 0
M  V30 9277 H 895.23 -0.289123 0.597749 0
M  V30 9278 H 897.76 -0.286543 2.02584 0
M  V30 9279 H 897.77 -2.3557 3.33123 0
M  V30 9280 H 896.445 -1.36936 3.9271 0
M  V30 9281 H 895.022 -2.65287 2.62063 0
M  V30 9282 N 897.207 -1.48554 -0.526253 0
M  V30 9283 C 898.157 -1.59753 -1.62674 0
M  V30 9284 C 899.141 -0.454452 -1.54349 0
M  V30 9285 O 900.333 -0.706091 -1.62306 0
M  V30 9286 C 897.462 -1.64388 -3.01383 0
M  V30 9287 C 896.548 -2.84188 -3.14798 0
M  V30 9288 N 896.939 -4.08564 -2.98176 0
M  V30 9289 C 895.237 -2.81599 -3.45859 0
M  V30 9290 C 895.938 -4.88961 -3.15106 0
M  V30 9291 N 894.914 -4.21848 -3.42849 0
M  V30 9292 H 898.716 -2.5366 -1.48438 0
M  V30 9293 H 896.23 -1.44977 -0.731801 0
M  V30 9294 H 898.227 -1.70505 -3.80439 0
M  V30 9295 H 896.887 -0.716006 -3.16707 0
M  V30 9296 H 897.898 -4.38943 -2.74862 0
M  V30 9297 H 894.575 -1.98083 -3.67518 0
M  V30 9298 H 895.965 -5.97683 -3.0696 0
M  V30 9299 N 898.685 0.775411 -1.37205 0
M  V30 9300 C 899.617 1.89761 -1.28544 0
M  V30 9301 C 900.63 1.61542 -0.201996 0
M  V30 9302 O 901.819 1.72528 -0.457848 0
M  V30 9303 C 898.919 3.24904 -0.963885 0
M  V30 9304 C 898.092 3.80796 -2.15205 0
M  V30 9305 C 897.151 4.94407 -1.80135 0
M  V30 9306 O 896.177 5.10185 -2.52388 0
M  V30 9307 N 897.379 5.75722 -0.743298 0
M  V30 9308 H 900.144 1.97708 -2.25237 0
M  V30 9309 H 897.705 0.954348 -1.30782 0
M  V30 9310 H 899.697 3.9842 -0.710182 0
M  V30 9311 H 898.267 3.12483 -0.085632 0
M  V30 9312 H 897.487 2.99101 -2.56773 0
M  V30 9313 H 898.775 4.1487 -2.94552 0
M  V30 9314 H 898.173 5.65518 -0.143655 0
M  V30 9315 H 896.73 6.4948 -0.549446 0
M  V30 9316 N 900.163 1.21714 1.00117 0
M  V30 9317 C 901.41 1.0367 1.73951 0
M  V30 9318 C 901.738 -0.429289 1.89703 0
M  V30 9319 O 900.993 -1.33475 1.43119 0
M  V30 9320 C 901.292 1.68345 3.15269 0
M  V30 9321 C 900.958 3.18214 3.19454 0
M  V30 9322 C 899.62 3.59109 3.20303 0
M  V30 9323 C 901.972 4.14179 3.16394 0
M  V30 9324 C 899.3 4.94467 3.15783 0
M  V30 9325 C 901.652 5.49502 3.13416 0
M  V30 9326 C 900.316 5.8979 3.12577 0
M  V30 9327 H 899.586 0.379355 0.63653 0
M  V30 9328 H 902.233 1.51361 1.17312 0
M  V30 9329 H 900.538 1.12957 3.75164 0
M  V30 9330 H 902.235 1.51882 3.71124 0
M  V30 9331 H 898.825 2.85646 3.19538 0
M  V30 9332 H 903.009 3.83607 3.14895 0
M  V30 9333 H 898.265 5.24923 3.13473 0
M  V30 9334 H 902.439 6.23595 3.10003 0
M  V30 9335 H 900.066 6.94643 3.08829 0
M  V30 9336 N 901.641 -1.19671 1.02551 0
M  V30 9337 C 902.551 -2.26441 0.613329 0
M  V30 9338 C 903.567 -1.70375 -0.353339 0
M  V30 9339 O 904.743 -2.0028 -0.212064 0
M  V30 9340 C 901.808 -3.46684 -0.0329028 0
M  V30 9341 C 900.869 -4.17945 0.980837 0
M  V30 9342 C 900.102 -5.32448 0.36535 0
M  V30 9343 O 900.325 -5.64291 -0.832596 0
M  V30 9344 O 899.259 -5.92012 1.08652 0
M  V30 9345 H 903.085 -2.63932 1.50246 0
M  V30 9346 H 900.67 -1.2646 0.795502 0
M  V30 9347 H 902.552 -4.1956 -0.393395 0
M  V30 9348 H 901.227 -3.1105 -0.896089 0
M  V30 9349 H 900.134 -3.47204 1.39286 0
M  V30 9350 H 901.467 -4.57542 1.81428 0
M  V30 9351 N 903.119 -0.802921 -1.35613 0
M  V30 9352 C 904.051 -0.168461 -2.2858 0
M  V30 9353 C 905.064 0.630123 -1.50111 0
M  V30 9354 O 906.253 0.463086 -1.72388 0
M  V30 9355 C 903.353 0.783943 -3.29708 0
M  V30 9356 C 902.526 0.0325165 -4.37388 0
M  V30 9357 C 901.585 0.902859 -5.18396 0
M  V30 9358 O 900.611 0.355144 -5.68091 0
M  V30 9359 N 901.813 2.22542 -5.36149 0
M  V30 9360 H 904.578 -0.96709 -2.83668 0
M  V30 9361 H 902.139 -0.658043 -1.47924 0
M  V30 9362 H 904.131 1.37034 -3.80794 0
M  V30 9363 H 902.701 1.48339 -2.75162 0
M  V30 9364 H 901.921 -0.735057 -3.87286 0
M  V30 9365 H 903.209 -0.485499 -5.06478 0
M  V30 9366 H 902.607 2.69439 -4.97412 0
M  V30 9367 H 901.164 2.76113 -5.90428 0
M  V30 9368 N 904.597 1.47463 -0.556102 0
M  V30 9369 C 905.527 2.32801 0.180497 0
M  V30 9370 C 906.508 1.43721 0.909848 0
M  V30 9371 O 907.693 1.72578 0.89053 0
M  V30 9372 C 904.823 3.25478 1.21167 0
M  V30 9373 C 903.777 4.2379 0.598846 0
M  V30 9374 C 903.103 5.05783 1.73457 0
M  V30 9375 C 904.403 5.20387 -0.446659 0
M  V30 9376 H 906.097 2.94636 -0.531956 0
M  V30 9377 H 903.643 1.41683 -0.257267 0
M  V30 9378 H 905.596 3.8402 1.73513 0
M  V30 9379 H 904.32 2.61695 1.95405 0
M  V30 9380 H 902.979 3.66472 0.0966897 0
M  V30 9381 H 902.627 4.38405 2.46596 0
M  V30 9382 H 902.327 5.72343 1.33031 0
M  V30 9383 H 903.851 5.67183 2.26131 0
M  V30 9384 H 905.265 5.73299 -0.00930019 0
M  V30 9385 H 903.662 5.95143 -0.769735 0
M  V30 9386 H 904.732 4.65932 -1.34295 0
M  V30 9387 N 906.075 0.2925 1.54862 0
M  V30 9388 C 907.3 -0.32494 2.04839 0
M  V30 9389 C 907.725 -1.47381 1.16877 0
M  V30 9390 O 907.083 -1.80492 0.171028 0
M  V30 9391 C 907.131 -0.76694 3.5235 0
M  V30 9392 O 906.235 -1.87256 3.67436 0
M  V30 9393 H 905.576 -0.0645195 0.660858 0
M  V30 9394 H 908.106 0.431867 1.9999 0
M  V30 9395 H 908.116 -1.05804 3.94043 0
M  V30 9396 H 906.791 0.0735212 4.15835 0
M  V30 9397 H 905.368 -1.58266 3.37648 0
M  V30 9398 N 907.553 -1.57587 0.0200696 0
M  V30 9399 C 908.801 -1.91046 -0.65922 0
M  V30 9400 C 909.122 -0.896197 -1.73186 0
M  V30 9401 O 908.392 0.0635952 -1.95797 0
M  V30 9402 H 906.972 -0.705163 -0.246483 0
M  V30 9403 H 909.634 -1.94789 0.0657368 0
M  V30 9404 H 908.73 -2.91399 -1.11773 0
M  V30 9405 N 909.032 0.252966 -1.55557 0
M  V30 9406 C 910.257 1.0038 -1.8149 0
M  V30 9407 C 910.682 1.78397 -0.596318 0
M  V30 9408 O 910.04 1.7551 0.454535 0
M  V30 9409 C 910.088 1.9222 -3.05096 0
M  V30 9410 O 909.192 3.01302 -2.81587 0
M  V30 9411 H 908.533 0.285949 -0.599274 0
M  V30 9412 H 911.063 0.275795 -2.02733 0
M  V30 9413 H 911.073 2.338 -3.34368 0
M  V30 9414 H 909.748 1.34852 -3.93431 0
M  V30 9415 H 908.325 2.63894 -2.63466 0
M  V30 9416 N 910.51 1.48831 0.518367 0
M  V30 9417 C 911.759 1.5669 1.27008 0
M  V30 9418 C 912.072 0.250934 1.93984 0
M  V30 9419 O 913.278 0.207884 2.70703 0
M  V30 9420 C 911.734 2.76387 2.30517 0
M  V30 9421 C 911.342 4.14673 1.69559 0
M  V30 9422 C 913.086 2.93566 3.06625 0
M  V30 9423 C 910.993 5.25616 2.71076 0
M  V30 9424 H 909.923 0.583362 0.477708 0
M  V30 9425 H 912.574 1.75187 0.546052 0
M  V30 9426 H 910.956 2.51348 3.06006 0
M  V30 9427 H 912.13 4.49779 1.00179 0
M  V30 9428 H 910.445 4.02708 1.05902 0
M  V30 9429 H 913.042 3.7362 3.82508 0
M  V30 9430 H 913.385 2.03462 3.63193 0
M  V30 9431 H 913.918 3.18562 2.38251 0
M  V30 9432 H 910.657 6.17723 2.19313 0
M  V30 9433 H 910.177 4.94985 3.38748 0
M  V30 9434 H 911.856 5.5422 3.3384 0
M  V30 9435 N 911.988 -0.768124 1.37614 0
M  V30 9436 C 912.918 -1.89537 1.36374 0
M  V30 9437 C 913.899 -1.68513 0.231803 0
M  V30 9438 O 915.084 -1.89318 0.432705 0
M  V30 9439 C 912.214 -3.26871 1.17358 0
M  V30 9440 C 911.168 -3.62466 2.27602 0
M  V30 9441 C 910.494 -4.9838 1.93705 0
M  V30 9442 C 911.794 -3.68841 3.69802 0
M  V30 9443 H 913.488 -1.90832 2.30702 0
M  V30 9444 H 911.034 -0.91672 1.11051 0
M  V30 9445 H 912.987 -4.05371 1.15119 0
M  V30 9446 H 911.711 -3.26018 0.194865 0
M  V30 9447 H 910.37 -2.86276 2.29002 0
M  V30 9448 H 910.018 -4.94071 0.943539 0
M  V30 9449 H 909.718 -5.23165 2.6753 0
M  V30 9450 H 911.242 -5.79276 1.93059 0
M  V30 9451 H 912.656 -4.37485 3.70513 0
M  V30 9452 H 911.053 -4.05126 4.42711 0
M  V30 9453 H 912.123 -2.69415 4.03167 0
M  V30 9454 N 913.466 -1.22244 -0.994698 0
M  V30 9455 C 914.712 -1.05752 -1.73747 0
M  V30 9456 C 915.067 0.403416 -1.88123 0
M  V30 9457 O 914.36 1.29511 -1.412 0
M  V30 9458 C 914.554 -1.70014 -3.14372 0
M  V30 9459 C 914.383 -3.22205 -3.1371 0
M  V30 9460 C 913.153 -3.91301 -3.19705 0
M  V30 9461 C 915.351 -4.19163 -2.98005 0
M  V30 9462 N 913.333 -5.30594 -3.08778 0
M  V30 9463 C 914.704 -5.45274 -2.95087 0
M  V30 9464 C 916.759 -4.10078 -2.82383 0
M  V30 9465 C 915.462 -6.63345 -2.78146 0
M  V30 9466 C 917.488 -5.27797 -2.66803 0
M  V30 9467 C 916.85 -6.52826 -2.6457 0
M  V30 9468 H 912.949 -0.441393 -0.64552 0
M  V30 9469 H 915.533 -1.54757 -1.18146 0
M  V30 9470 H 913.704 -1.23562 -3.68221 0
M  V30 9471 H 915.436 -1.46631 -3.77202 0
M  V30 9472 H 912.191 -3.42289 -3.27315 0
M  V30 9473 H 912.615 -6.0358 -3.06628 0
M  V30 9474 H 917.257 -3.14201 -2.82909 0
M  V30 9475 H 914.975 -7.59373 -2.76367 0
M  V30 9476 H 918.561 -5.22598 -2.557 0
M  V30 9477 H 917.441 -7.42383 -2.5266 0
M  V30 9478 N 914.944 1.19125 -1.03184 0
M  V30 9479 C 915.877 2.21229 -0.559739 0
M  V30 9480 C 916.855 1.57578 0.400998 0
M  V30 9481 O 918.039 1.85809 0.317399 0
M  V30 9482 C 915.166 3.38203 0.183442 0
M  V30 9483 C 914.212 4.2022 -0.729182 0
M  V30 9484 S 915.045 4.87903 -2.20706 0
M  V30 9485 C 916.201 6.08284 -1.47448 0
M  V30 9486 H 916.434 2.60932 -1.42484 0
M  V30 9487 H 913.967 1.29419 -0.842028 0
M  V30 9488 H 915.925 4.06001 0.606084 0
M  V30 9489 H 914.586 2.96929 1.02432 0
M  V30 9490 H 913.779 5.03761 -0.155272 0
M  V30 9491 H 913.381 3.57755 -1.09028 0
M  V30 9492 H 915.673 6.73193 -0.762687 0
M  V30 9493 H 916.616 6.70165 -2.28659 0
M  V30 9494 H 917.024 5.56092 -0.97068 0
M  V30 9495 N 916.422 0.810101 1.35185 0
M  V30 9496 C 917.385 0.22852 2.28058 0
M  V30 9497 C 918.385 -0.586168 1.49735 0
M  V30 9498 O 919.575 -0.40414 1.69447 0
M  V30 9499 C 916.707 -0.681041 3.34028 0
M  V30 9500 H 917.9 1.04768 2.81005 0
M  V30 9501 H 915.453 0.58101 1.451 0
M  V30 9502 H 916.188 -1.52375 2.86273 0
M  V30 9503 H 915.973 -0.0985276 3.91976 0
M  V30 9504 H 917.463 -1.08217 4.03335 0
M  V30 9505 N 917.9 -1.47166 0.563914 0
M  V30 9506 C 919.311 -1.86231 0.132307 0
M  V30 9507 C 919.662 -1.46976 -1.29971 0
M  V30 9508 O 918.787 -0.875911 -1.97881 0
M  V30 9509 C 919.382 -3.37996 0.233335 0
M  V30 9510 C 917.941 -3.76127 -0.143278 0
M  V30 9511 C 917.088 -2.71212 0.577857 0
M  V30 9512 H 920.039 -1.38588 0.773249 0
M  V30 9513 H 920.06 -3.76558 -0.546309 0
M  V30 9514 H 919.572 -3.66535 1.27568 0
M  V30 9515 H 917.673 -3.53205 -1.18648 0
M  V30 9516 H 917.786 -4.78595 0.219952 0
M  V30 9517 H 916.15 -2.54692 0.020186 0
M  V30 9518 H 916.933 -3.02593 1.62149 0
M  V30 9519 N 919.378 -0.300708 -1.54705 0
M  V30 9520 C 920.288 0.584996 -2.27189 0
M  V30 9521 C 921.304 1.14866 -1.30697 0
M  V30 9522 O 922.48 1.17351 -1.63679 0
M  V30 9523 C 919.545 1.74076 -2.99831 0
M  V30 9524 C 918.606 1.2112 -4.1186 0
M  V30 9525 C 917.839 2.31188 -4.81028 0
M  V30 9526 O 918.062 3.5108 -4.49554 0
M  V30 9527 O 916.996 1.97897 -5.68437 0
M  V30 9528 H 920.822 -0.00298177 -3.037 0
M  V30 9529 H 918.407 -0.0671802 -1.49249 0
M  V30 9530 H 920.289 2.41413 -3.45395 0
M  V30 9531 H 918.964 2.31535 -2.26215 0
M  V30 9532 H 917.871 0.50357 -3.70695 0
M  V30 9533 H 919.204 0.682046 -4.87452 0
M  V30 9534 N 920.856 1.57574 -0.0284266 0
M  V30 9535 C 922.102 1.92056 0.651327 0
M  V30 9536 C 922.435 0.905092 1.71819 0
M  V30 9537 O 921.71 -0.0722703 1.94366 0
M  V30 9538 C 921.993 3.37021 1.26841 0
M  V30 9539 C 921.846 4.49304 0.211157 0
M  V30 9540 C 923.165 3.81936 2.18662 0
M  V30 9541 H 920.284 0.698428 0.235304 0
M  V30 9542 H 922.926 1.89807 -0.0855435 0
M  V30 9543 H 921.076 3.39068 1.89644 0
M  V30 9544 H 922.748 4.5939 -0.419379 0
M  V30 9545 H 920.991 4.31317 -0.463445 0
M  V30 9546 H 921.662 5.47764 0.682518 0
M  V30 9547 H 924.138 3.8162 1.65847 0
M  V30 9548 H 923.014 4.84064 2.58792 0
M  V30 9549 H 923.275 3.174 3.07749 0
M  V30 9550 N 922.334 -0.244713 1.55689 0
M  V30 9551 C 923.583 -0.970373 1.76824 0
M  V30 9552 C 923.896 -1.86402 0.592764 0
M  V30 9553 O 925.102 -2.62659 0.687186 0
M  V30 9554 C 923.558 -1.77547 3.13058 0
M  V30 9555 C 923.166 -0.929104 4.3826 0
M  V30 9556 C 924.91 -2.49373 3.43531 0
M  V30 9557 C 922.817 -1.73021 5.65524 0
M  V30 9558 H 921.747 -0.366048 0.659185 0
M  V30 9559 H 924.398 -0.224964 1.82116 0
M  V30 9560 H 922.78 -2.56291 3.01879 0
M  V30 9561 H 923.954 -0.183836 4.60433 0
M  V30 9562 H 922.269 -0.324071 4.15137 0
M  V30 9563 H 924.866 -3.09767 4.35831 0
M  V30 9564 H 925.209 -3.21099 2.64955 0
M  V30 9565 H 925.742 -1.77637 3.55935 0
M  V30 9566 H 922.481 -1.05666 6.46927 0
M  V30 9567 H 922.001 -2.45071 5.47449 0
M  V30 9568 H 923.68 -2.2968 6.0486 0
M  V30 9569 N 923.813 -1.49104 -0.510467 0
M  V30 9570 C 925.229 -1.35657 -0.840797 0
M  V30 9571 C 925.429 -0.382425 -1.97838 0
M  V30 9572 O 924.485 0.189331 -2.51789 0
M  V30 9573 C 925.798 -2.76155 -1.18992 0
M  V30 9574 C 927.346 -2.84786 -1.29868 0
M  V30 9575 C 927.821 -4.2603 -1.68115 0
M  V30 9576 N 929.312 -4.28796 -1.75181 0
M  V30 9577 C 930.047 -5.35041 -2.062 0
M  V30 9578 N 929.543 -6.51543 -2.35508 0
M  V30 9579 N 931.336 -5.2245 -2.07371 0
M  V30 9580 H 923.487 -2.11042 0.23982 0
M  V30 9581 H 925.75 -0.946946 0.0446824 0
M  V30 9582 H 925.456 -3.49092 -0.427484 0
M  V30 9583 H 925.33 -3.10922 -2.13558 0
M  V30 9584 H 927.717 -2.12092 -2.05186 0
M  V30 9585 H 927.798 -2.53613 -0.333758 0
M  V30 9586 H 927.442 -4.99247 -0.933512 0
M  V30 9587 H 927.372 -4.5466 -2.65691 0
M  V30 9588 H 929.863 -3.44771 -1.5473 0
M  V30 9589 H 930.176 -7.28342 -2.58337 0
M  V30 9590 H 928.521 -6.54785 -2.32985 0
M  V30 9591 H 931.712 -4.30444 -1.83945 0
M  V30 9592 H 931.885 -6.05347 -2.31212 0
M  V30 9593 N 925.291 0.760815 -1.38019 0
M  V30 9594 C 926.224 1.88212 -1.2904 0
M  V30 9595 C 927.202 1.61721 -0.168805 0
M  V30 9596 O 928.386 1.85318 -0.344893 0
M  V30 9597 C 925.513 3.23672 -0.997702 0
M  V30 9598 C 924.559 3.6906 -2.13769 0
M  V30 9599 S 925.392 3.81445 -3.75845 0
M  V30 9600 C 926.548 5.19736 -3.48748 0
M  V30 9601 H 926.781 1.95541 -2.23944 0
M  V30 9602 H 924.314 0.923051 -1.2377 0
M  V30 9603 H 926.272 4.01904 -0.835657 0
M  V30 9604 H 924.933 3.14031 -0.065967 0
M  V30 9605 H 924.126 4.67295 -1.88816 0
M  V30 9606 H 923.728 2.97961 -2.26043 0
M  V30 9607 H 926.02 6.05259 -3.04414 0
M  V30 9608 H 926.963 5.49706 -4.46351 0
M  V30 9609 H 927.371 4.88191 -2.83425 0
M  V30 9610 N 926.769 1.22769 0.988202 0
M  V30 9611 C 927.701 0.959757 2.08138 0
M  V30 9612 C 928.714 -0.0633787 1.62677 0
M  V30 9613 O 929.903 0.171203 1.77677 0
M  V30 9614 C 927.003 0.422724 3.36253 0
M  V30 9615 C 926.176 1.50419 4.10722 0
M  V30 9616 C 925.235 0.973407 5.17118 0
M  V30 9617 O 924.261 1.66066 5.44436 0
M  V30 9618 N 925.463 -0.202787 5.80146 0
M  V30 9619 H 928.228 1.9009 2.31702 0
M  V30 9620 H 925.789 1.13522 1.15431 0
M  V30 9621 H 927.781 0.0528514 4.04665 0
M  V30 9622 H 926.351 -0.423642 3.09716 0
M  V30 9623 H 925.571 2.04718 3.36874 0
M  V30 9624 H 926.859 2.23169 4.57245 0
M  V30 9625 H 926.257 -0.777856 5.60327 0
M  V30 9626 H 924.814 -0.513998 6.4977 0
M  V30 9627 N 928.247 -1.18576 1.03814 0
M  V30 9628 C 929.524 -1.8433 0.654358 0
M  V30 9629 C 929.904 -1.92504 -0.866338 0
M  V30 9630 O 929.252 -1.44904 -1.76678 0
M  V30 9631 C 929.462 -3.22778 1.32723 0
M  V30 9632 C 930.81 -3.98841 1.45641 0
M  V30 9633 O 931.834 -3.32209 1.28514 0
M  V30 9634 O 930.693 -5.18219 1.73526 0
M  V30 9635 H 927.787 -0.794766 0.228638 0
M  V30 9636 H 930.333 -1.25989 1.13687 0
M  V30 9637 H 929.105 -3.11717 2.36534 0
M  V30 9638 H 928.728 -3.88772 0.833176 0
M  V30 9639 N 929.725 -0.817259 -1.34754 0
M  V30 9640 C 930.672 -0.233108 -2.2962 0
M  V30 9641 C 931.642 0.638902 -1.53321 0
M  V30 9642 O 932.827 0.581739 -1.81715 0
M  V30 9643 C 929.967 0.603659 -3.39779 0
M  V30 9644 C 929.08 -0.289967 -4.31026 0
M  V30 9645 C 928.215 0.555825 -5.28284 0
M  V30 9646 C 927.254 -0.337539 -6.11169 0
M  V30 9647 N 926.391 0.468847 -7.00533 0
M  V30 9648 H 931.231 -1.04747 -2.78984 0
M  V30 9649 H 928.768 -0.528056 -1.37295 0
M  V30 9650 H 930.726 1.10407 -4.02326 0
M  V30 9651 H 929.356 1.38319 -2.91664 0
M  V30 9652 H 928.408 -0.908552 -3.69391 0
M  V30 9653 H 929.72 -0.977136 -4.89135 0
M  V30 9654 H 928.874 1.12094 -5.96255 0
M  V30 9655 H 927.613 1.27652 -4.70698 0
M  V30 9656 H 926.618 -0.914839 -5.42135 0
M  V30 9657 H 927.843 -1.05626 -6.70835 0
M  V30 9658 H 925.789 1.17332 -6.45422 0
M  V30 9659 H 925.706 -0.160052 -7.55831 0
M  V30 9660 H 926.974 1.01689 -7.72839 0
M  V30 9661 N 931.203 1.46865 -0.571711 0
M  V30 9662 C 932.151 2.31897 0.180714 0
M  V30 9663 C 933.145 1.43815 0.895191 0
M  V30 9664 O 934.351 1.60501 0.814828 0
M  V30 9665 H 930.726 0.748032 0.077148 0
M  V30 9666 H 932.697 2.93185 -0.555432 0
M  V30 9667 C 931.446 3.26766 1.18824 0
M  V30 9668 H 930.769 3.94515 0.64789 0
M  V30 9669 H 932.209 3.89067 1.68532 0
M  V30 9670 C 930.668 2.51325 2.2436 0
M  V30 9671 O 931.198 2.26825 3.31532 0
M  V30 9672 N 929.404 2.12079 1.98673 0
M  V30 9673 H 928.951 2.32204 1.1153 0
M  V30 9674 H 928.909 1.61921 2.69498 0
M  V30 9675 N 932.681 0.308908 1.54543 0
M  V30 9676 C 934.092 -0.182144 1.85809 0
M  V30 9677 C 934.443 -1.52796 1.23076 0
M  V30 9678 O 933.568 -2.09775 0.531358 0
M  V30 9679 C 934.163 -0.337275 3.37117 0
M  V30 9680 C 932.722 -0.772545 3.68387 0
M  V30 9681 C 931.869 0.114451 2.77064 0
M  V30 9682 H 934.82 0.529671 1.496 0
M  V30 9683 H 934.841 -1.17058 3.62046 0
M  V30 9684 H 934.353 0.642382 3.82747 0
M  V30 9685 H 932.454 -1.76247 3.2828 0
M  V30 9686 H 932.567 -0.586453 4.75497 0
M  V30 9687 H 930.931 -0.407581 2.51418 0
M  V30 9688 H 931.714 1.09061 3.25516 0
M  V30 9689 N 934.159 -1.57557 0.0367827 0
M  V30 9690 C 935.389 -1.96134 -0.649225 0
M  V30 9691 C 935.797 -0.912279 -1.65753 0
M  V30 9692 O 935.14 0.113569 -1.83349 0
M  V30 9693 C 935.202 -3.30889 -1.40545 0
M  V30 9694 C 934.866 -4.53622 -0.554609 0
M  V30 9695 C 935.863 -5.19611 0.17331 0
M  V30 9696 C 933.548 -4.99907 -0.48976 0
M  V30 9697 C 935.542 -6.3021 0.95467 0
M  V30 9698 C 933.229 -6.10386 0.295299 0
M  V30 9699 C 934.227 -6.75398 1.01621 0
M  V30 9700 O 933.915 -7.83755 1.78839 0
M  V30 9701 H 933.647 -0.650662 -0.183344 0
M  V30 9702 H 936.201 -2.05179 0.0951512 0
M  V30 9703 H 934.431 -3.18356 -2.19513 0
M  V30 9704 H 936.12 -3.54315 -1.9803 0
M  V30 9705 H 936.886 -4.84819 0.132589 0
M  V30 9706 H 932.765 -4.49105 -1.04046 0
M  V30 9707 H 936.309 -6.80886 1.51789 0
M  V30 9708 H 932.206 -6.44616 0.33771 0
M  V30 9709 H 932.974 -8.0046 1.70898 0
M  V30 9710 N 935.637 0.236453 -1.55816 0
M  V30 9711 C 936.862 0.98449 -1.82545 0
M  V30 9712 C 937.287 1.77755 -0.615206 0
M  V30 9713 O 936.645 1.75982 0.435895 0
M  V30 9714 C 936.693 1.88973 -3.07118 0
M  V30 9715 O 935.797 2.98298 -2.84766 0
M  V30 9716 H 935.138 0.279577 -0.602273 0
M  V30 9717 H 937.668 0.254277 -2.03014 0
M  V30 9718 H 937.678 2.3024 -3.36829 0
M  V30 9719 H 936.353 1.30671 -3.94839 0
M  V30 9720 H 934.93 2.61085 -2.6625 0
M  V30 9721 N 937.115 1.49373 0.502552 0
M  V30 9722 C 938.362 1.58781 1.25678 0
M  V30 9723 C 938.69 0.273819 1.92563 0
M  V30 9724 O 937.945 -0.738141 1.81246 0
M  V30 9725 C 938.244 2.69508 2.34735 0
M  V30 9726 C 937.91 4.11057 1.85318 0
M  V30 9727 C 936.572 4.49578 1.7156 0
M  V30 9728 C 938.924 4.99653 1.48312 0
M  V30 9729 C 936.252 5.74469 1.19172 0
M  V30 9730 C 938.604 6.2506 0.97377 0
M  V30 9731 C 937.268 6.62412 0.822573 0
M  V30 9732 H 936.538 0.581021 0.459887 0
M  V30 9733 H 939.185 1.83197 0.557767 0
M  V30 9734 H 937.49 2.39057 3.10418 0
M  V30 9735 H 939.187 2.73997 2.92791 0
M  V30 9736 H 935.777 3.80651 1.96985 0
M  V30 9737 H 939.961 4.70549 1.57789 0
M  V30 9738 H 935.217 6.0211 1.06176 0
M  V30 9739 H 939.391 6.93089 0.678233 0
M  V30 9740 H 937.018 7.59069 0.414453 0
M  V30 9741 N 938.594 -0.753485 1.38421 0
M  V30 9742 C 939.526 -1.87692 1.31547 0
M  V30 9743 C 940.539 -1.612 0.227671 0
M  V30 9744 O 941.728 -1.71778 0.485238 0
M  V30 9745 C 938.828 -3.23329 1.01545 0
M  V30 9746 C 938.001 -3.77324 2.21236 0
M  V30 9747 C 937.06 -4.91478 1.87977 0
M  V30 9748 O 936.086 -5.06106 2.60472 0
M  V30 9749 N 937.288 -5.74466 0.834796 0
M  V30 9750 H 940.053 -1.94099 2.28354 0
M  V30 9751 H 937.614 -0.933421 1.32283 0
M  V30 9752 H 939.606 -3.9724 0.773477 0
M  V30 9753 H 938.176 -3.12307 0.135334 0
M  V30 9754 H 937.396 -2.94978 2.61498 0
M  V30 9755 H 938.684 -4.10131 3.01115 0
M  V30 9756 H 938.082 -5.65217 0.233606 0
M  V30 9757 H 936.639 -6.48524 0.652703 0
M  V30 9758 N 940.072 -1.23292 -0.981677 0
M  V30 9759 C 941.297 -1.09176 -1.76339 0
M  V30 9760 C 941.722 0.352726 -1.84763 0
M  V30 9761 O 941.08 1.25509 -1.30832 0
M  V30 9762 C 941.128 -1.72046 -3.16911 0
M  V30 9763 O 940.232 -0.98174 -4.00544 0
M  V30 9764 H 939.573 -0.382755 -0.542581 0
M  V30 9765 H 942.103 -1.63319 -1.23239 0
M  V30 9766 H 942.113 -1.77232 -3.67495 0
M  V30 9767 H 940.788 -2.77154 -3.10095 0
M  V30 9768 H 939.365 -1.00672 -3.59054 0
M  V30 9769 N 941.55 1.18024 -1.04442 0
M  V30 9770 C 942.827 1.8398 -0.664125 0
M  V30 9771 C 943.207 1.92961 0.856116 0
M  V30 9772 O 942.555 1.45839 1.75907 0
M  V30 9773 C 942.765 3.22069 -1.34433 0
M  V30 9774 C 944.113 3.98063 -1.47754 0
M  V30 9775 O 945.137 3.31523 -1.30274 0
M  V30 9776 O 943.996 5.17291 -1.76272 0
M  V30 9777 H 941.09 0.793543 -0.23285 0
M  V30 9778 H 943.636 1.25385 -1.14354 0
M  V30 9779 H 942.408 3.10458 -2.38184 0
M  V30 9780 H 942.031 3.88325 -0.853782 0
M  V30 9781 N 943.028 0.824394 1.34319 0
M  V30 9782 C 944.274 0.413779 1.98534 0
M  V30 9783 C 944.607 -1.02089 1.65201 0
M  V30 9784 O 943.882 -1.71129 0.924402 0
M  V30 9785 C 944.165 0.61801 3.54757 0
M  V30 9786 C 944.018 2.0989 3.97827 0
M  V30 9787 C 945.337 0.0549041 4.40066 0
M  V30 9788 H 942.456 0.151815 0.721194 0
M  V30 9789 H 945.098 1.03723 1.5919 0
M  V30 9790 H 943.248 0.0873107 3.88402 0
M  V30 9791 H 944.92 2.69335 3.74508 0
M  V30 9792 H 943.163 2.58881 3.48085 0
M  V30 9793 H 943.834 2.1926 5.06586 0
M  V30 9794 H 946.31 0.508348 4.12983 0
M  V30 9795 H 945.186 0.227595 5.48428 0
M  V30 9796 H 945.447 -1.04025 4.29687 0
M  V30 9797 N 944.506 -1.46559 0.579492 0
M  V30 9798 C 945.736 -2.06484 0.0692642 0
M  V30 9799 C 946.144 -1.4293 -1.23967 0
M  V30 9800 O 945.487 -0.527632 -1.75959 0
M  V30 9801 C 945.549 -3.59078 -0.174174 0
M  V30 9802 C 945.213 -4.44805 1.04867 0
M  V30 9803 C 946.21 -4.81543 1.95991 0
M  V30 9804 C 943.895 -4.8599 1.26961 0
M  V30 9805 C 945.889 -5.58288 3.0756 0
M  V30 9806 C 943.576 -5.62495 2.38836 0
M  V30 9807 C 944.574 -5.98558 3.28964 0
M  V30 9808 O 944.262 -6.73518 4.38896 0
M  V30 9809 H 943.994 -0.673917 0.0530331 0
M  V30 9810 H 946.548 -1.89223 0.79898 0
M  V30 9811 H 944.778 -3.74634 -0.958464 0
M  V30 9812 H 946.467 -4.00941 -0.632515 0
M  V30 9813 H 947.233 -4.50307 1.80136 0
M  V30 9814 H 943.112 -4.57372 0.577184 0
M  V30 9815 H 946.656 -5.86355 3.77933 0
M  V30 9816 H 942.553 -5.93145 2.54655 0
M  V30 9817 H 943.321 -6.91938 4.37223 0
M  V30 9818 N 945.984 -0.3171 -1.54377 0
M  V30 9819 C 946.947 0.53905 -2.22771 0
M  V30 9820 C 947.947 1.04865 -1.21901 0
M  V30 9821 O 949.137 0.942108 -1.46526 0
M  V30 9822 C 946.269 1.74804 -2.92671 0
M  V30 9823 H 947.462 -0.0587417 -2.99842 0
M  V30 9824 H 945.015 -0.068107 -1.56152 0
M  V30 9825 H 945.75 2.38524 -2.1972 0
M  V30 9826 H 945.535 1.39011 -3.66631 0
M  V30 9827 H 947.025 2.35592 -3.44799 0
M  V30 9828 N 947.462 1.57535 -0.0451378 0
M  V30 9829 C 948.709 1.92451 0.629987 0
M  V30 9830 C 949.037 0.92298 1.71206 0
M  V30 9831 O 948.292 -0.0656626 1.9559 0
M  V30 9832 C 948.591 3.34065 1.27024 0
M  V30 9833 C 948.257 4.49785 0.316971 0
M  V30 9834 C 946.919 4.81169 0.0546406 0
M  V30 9835 C 949.271 5.20111 -0.336693 0
M  V30 9836 C 946.599 5.8023 -0.86889 0
M  V30 9837 C 948.951 6.2016 -1.24838 0
M  V30 9838 C 947.615 6.49976 -1.51944 0
M  V30 9839 H 946.885 0.704228 0.230529 0
M  V30 9840 H 949.532 1.91182 -0.110328 0
M  V30 9841 H 947.837 3.31672 2.08568 0
M  V30 9842 H 949.534 3.58359 1.79945 0
M  V30 9843 H 946.124 4.2529 0.531614 0
M  V30 9844 H 950.308 4.96082 -0.147105 0
M  V30 9845 H 945.564 6.0167 -1.08643 0
M  V30 9846 H 949.738 6.73767 -1.76098 0
M  V30 9847 H 947.365 7.26551 -2.2367 0
M  V30 9848 N 948.94 -0.228186 1.55939 0
M  V30 9849 C 950.188 -0.951668 1.78291 0
M  V30 9850 C 950.509 -1.85132 0.612474 0
M  V30 9851 O 949.779 -1.92356 -0.370942 0
M  V30 9852 H 948.359 -0.354388 0.657585 0
M  V30 9853 H 951.021 -0.241635 1.93396 0
M  V30 9854 H 950.117 -1.56239 2.70177 0
M  V30 9855 N 950.418 -1.49637 -0.494624 0
M  V30 9856 C 951.667 -1.58691 -1.24499 0
M  V30 9857 C 951.98 -0.281763 -1.9356 0
M  V30 9858 O 953.186 -0.250925 -2.70338 0
M  V30 9859 C 951.642 -2.8002 -2.26091 0
M  V30 9860 C 951.25 -4.17318 -1.6294 0
M  V30 9861 C 952.994 -2.98407 -3.01916 0
M  V30 9862 C 950.901 -5.29862 -2.62679 0
M  V30 9863 H 949.831 -0.590888 -0.468367 0
M  V30 9864 H 952.482 -1.76034 -0.518112 0
M  V30 9865 H 950.864 -2.56185 -3.01969 0
M  V30 9866 H 952.038 -4.51315 -0.930108 0
M  V30 9867 H 950.353 -4.04342 -0.994819 0
M  V30 9868 H 952.95 -3.79658 -3.76516 0
M  V30 9869 H 953.293 -2.09214 -3.5991 0
M  V30 9870 H 953.826 -3.22312 -2.33152 0
M  V30 9871 H 950.565 -6.21134 -2.09458 0
M  V30 9872 H 950.085 -5.00311 -3.3083 0
M  V30 9873 H 951.764 -5.59461 -3.2498 0
M  V30 9874 N 951.896 0.746133 -1.38819 0
M  V30 9875 C 953.142 1.50768 -1.35635 0
M  V30 9876 C 953.475 1.94132 0.0512435 0
M  V30 9877 O 952.75 1.65979 1.01396 0
M  V30 9878 C 953.033 2.7551 -2.31875 0
M  V30 9879 C 952.886 2.38236 -3.81528 0
M  V30 9880 C 954.205 3.77566 -2.26124 0
M  V30 9881 H 951.324 0.546922 -0.494009 0
M  V30 9882 H 953.966 0.854017 -1.69725 0
M  V30 9883 H 952.116 3.31285 -2.02935 0
M  V30 9884 H 953.788 1.88178 -4.21173 0
M  V30 9885 H 952.031 1.70601 -3.98846 0
M  V30 9886 H 952.702 3.27517 -4.44339 0
M  V30 9887 H 955.178 3.31349 -2.51689 0
M  V30 9888 H 954.054 4.62531 -2.95561 0
M  V30 9889 H 954.315 4.23689 -1.26254 0
M  V30 9890 N 953.375 1.23811 0.975125 0
M  V30 9891 C 954.305 1.04846 2.08638 0
M  V30 9892 C 955.286 -0.0362859 1.70061 0
M  V30 9893 O 956.471 0.12937 1.93769 0
M  V30 9894 C 953.601 0.644534 3.41267 0
M  V30 9895 C 952.555 1.67722 3.93768 0
M  V30 9896 C 951.881 1.12857 5.22654 0
M  V30 9897 C 953.181 3.07147 4.22443 0
M  V30 9898 H 954.875 1.97795 2.24761 0
M  V30 9899 H 952.421 0.952397 1.08006 0
M  V30 9900 H 954.374 0.498887 4.18436 0
M  V30 9901 H 953.098 -0.320641 3.25022 0
M  V30 9902 H 951.757 1.81095 3.18748 0
M  V30 9903 H 951.405 0.154227 5.02764 0
M  V30 9904 H 951.105 1.81862 5.58749 0
M  V30 9905 H 952.629 0.994891 6.0244 0
M  V30 9906 H 954.043 2.97045 4.90344 0
M  V30 9907 H 952.44 3.73437 4.6975 0
M  V30 9908 H 953.51 3.55743 3.29507 0
M  V30 9909 N 954.853 -1.17469 1.05066 0
M  V30 9910 C 956.083 -1.91343 0.779202 0
M  V30 9911 C 956.491 -1.76986 -0.668764 0
M  V30 9912 O 955.834 -1.1037 -1.46848 0
M  V30 9913 C 955.896 -3.42938 1.0786 0
M  V30 9914 C 955.56 -3.81076 2.52249 0
M  V30 9915 C 956.557 -3.84027 3.50456 0
M  V30 9916 C 954.242 -4.12076 2.87225 0
M  V30 9917 C 956.236 -4.17445 4.81683 0
M  V30 9918 C 953.923 -4.45163 4.18656 0
M  V30 9919 C 954.921 -4.47825 5.15696 0
M  V30 9920 O 954.609 -4.80133 6.44769 0
M  V30 9921 H 954.341 -0.613974 0.282863 0
M  V30 9922 H 956.895 -1.49907 1.40417 0
M  V30 9923 H 955.125 -3.84662 0.39653 0
M  V30 9924 H 956.814 -3.98071 0.793357 0
M  V30 9925 H 957.58 -3.60203 3.24775 0
M  V30 9926 H 953.459 -4.09176 2.12358 0
M  V30 9927 H 957.003 -4.19437 5.57421 0
M  V30 9928 H 952.9 -4.68449 4.44101 0
M  V30 9929 H 953.668 -4.97995 6.49571 0
M  V30 9930 N 956.331 -0.831506 -1.3388 0
M  V30 9931 C 957.241 -0.261688 -2.33136 0
M  V30 9932 C 958.257 0.608429 -1.63016 0
M  V30 9933 O 959.433 0.514297 -1.94723 0
M  V30 9934 C 956.498 0.559957 -3.42148 0
M  V30 9935 C 955.559 -0.333569 -4.28002 0
M  V30 9936 C 954.792 0.448956 -5.31808 0
M  V30 9937 O 955.015 1.6814 -5.45055 0
M  V30 9938 O 953.949 -0.173197 -6.01651 0
M  V30 9939 H 957.775 -1.08343 -2.83717 0
M  V30 9940 H 955.36 -0.593849 -1.3709 0
M  V30 9941 H 957.242 1.02712 -4.08691 0
M  V30 9942 H 955.917 1.35888 -2.93796 0
M  V30 9943 H 954.824 -0.848416 -3.64352 0
M  V30 9944 H 956.157 -1.09707 -4.79818 0
M  V30 9945 N 957.809 1.4625 -0.587256 0
M  V30 9946 C 958.739 2.33132 0.131076 0
M  V30 9947 C 959.72 1.45619 0.879158 0
M  V30 9948 O 960.905 1.74428 0.853723 0
M  V30 9949 C 958.035 3.27975 1.14236 0
M  V30 9950 C 956.989 4.24965 0.508819 0
M  V30 9951 C 956.315 5.09349 1.62689 0
M  V30 9952 C 957.615 5.19322 -0.55694 0
M  V30 9953 H 959.309 2.93442 -0.594333 0
M  V30 9954 H 956.855 1.41106 -0.287263 0
M  V30 9955 H 958.808 3.87614 1.65328 0
M  V30 9956 H 957.532 2.65781 1.8981 0
M  V30 9957 H 956.191 3.66595 0.0189337 0
M  V30 9958 H 955.839 4.43537 2.37242 0
M  V30 9959 H 955.539 5.75036 1.20861 0
M  V30 9960 H 957.063 5.71852 2.14049 0
M  V30 9961 H 958.477 5.73151 -0.130903 0
M  V30 9962 H 956.874 5.93376 -0.895801 0
M  V30 9963 H 957.944 4.62979 -1.44148 0
M  V30 9964 N 959.287 0.325282 1.54207 0
M  V30 9965 C 960.22 -0.582485 2.20641 0
M  V30 9966 C 961.198 -1.11441 1.18405 0
M  V30 9967 O 962.382 -1.17809 1.4715 0
M  V30 9968 C 959.509 -1.79944 2.86946 0
M  V30 9969 C 958.555 -1.39861 4.02916 0
M  V30 9970 S 959.388 -0.433859 5.3374 0
M  V30 9971 C 960.544 -1.65806 6.03539 0
M  V30 9972 H 960.777 -0.0181601 2.97294 0
M  V30 9973 H 958.31 0.109365 1.54012 0
M  V30 9974 H 960.268 -2.4977 3.25769 0
M  V30 9975 H 958.929 -2.33495 2.10092 0
M  V30 9976 H 958.122 -2.30547 4.48179 0
M  V30 9977 H 957.724 -0.780036 3.65775 0
M  V30 9978 H 960.016 -2.59524 6.25822 0
M  V30 9979 H 960.959 -1.24756 6.97023 0
M  V30 9980 H 961.367 -1.84581 5.3347 0
M  V30 9981 N 960.765 -1.57509 0.0534917 0
M  V30 9982 C 961.993 -1.97098 -0.629298 0
M  V30 9983 C 962.408 -0.931128 -1.64242 0
M  V30 9984 O 961.765 0.0843866 -1.82305 0
M  V30 9985 C 961.816 -3.36767 -1.31415 0
M  V30 9986 O 961.537 -4.36766 -0.341599 0
M  V30 9987 C 963.038 -3.91127 -2.08649 0
M  V30 9988 H 960.258 -0.648611 -0.171886 0
M  V30 9989 H 962.802 -2.04145 0.120479 0
M  V30 9990 H 960.957 -3.30863 -2.01515 0
M  V30 9991 H 961.371 -5.1788 -0.830715 0
M  V30 9992 H 962.845 -4.91129 -2.51985 0
M  V30 9993 H 963.322 -3.26679 -2.9356 0
M  V30 9994 H 963.928 -4.00376 -1.43456 0
M  V30 9995 N 962.243 0.219913 -1.56058 0
M  V30 9996 C 963.491 0.942199 -1.78793 0
M  V30 9997 C 963.812 1.84804 -0.622284 0
M  V30 9998 O 963.082 1.9255 0.360735 0
M  V30 9999 H 961.662 0.350895 -0.659455 0
M  V30 10000 H 964.324 0.231376 -1.93522 0
M  V30 10001 H 963.42 1.54804 -2.71002 0
M  V30 10002 N 963.721 1.49897 0.486681 0
M  V30 10003 C 964.653 1.63755 1.60365 0
M  V30 10004 C 965.666 0.519614 1.54285 0
M  V30 10005 O 966.855 0.792219 1.59957 0
M  V30 10006 C 963.955 1.59153 2.99205 0
M  V30 10007 C 963.128 2.8672 3.30319 0
M  V30 10008 C 962.187 2.74974 4.48638 0
M  V30 10009 O 961.213 3.48922 4.49714 0
M  V30 10010 N 962.415 1.87479 5.49392 0
M  V30 10011 H 965.18 2.60094 1.48899 0
M  V30 10012 H 962.741 1.47166 0.674825 0
M  V30 10013 H 964.733 1.4893 3.76301 0
M  V30 10014 H 963.303 0.706133 3.0452 0
M  V30 10015 H 962.523 3.11188 2.41983 0
M  V30 10016 H 963.811 3.71262 3.47911 0
M  V30 10017 H 963.209 1.26684 5.51333 0
M  V30 10018 H 961.766 1.83169 6.25534 0
M  V30 10019 N 965.199 -0.738761 1.39212 0
M  V30 10020 C 966.129 -1.86602 1.40364 0
M  V30 10021 C 967.11 -1.67984 0.267495 0
M  V30 10022 O 968.295 -1.88358 0.472765 0
M  V30 10023 C 965.425 -3.24308 1.24265 0
M  V30 10024 C 964.379 -3.57557 2.35239 0
M  V30 10025 C 963.705 -4.94159 2.04233 0
M  V30 10026 C 965.005 -3.60914 3.77543 0
M  V30 10027 H 966.699 -1.85896 2.34698 0
M  V30 10028 H 964.245 -0.892959 1.1297 0
M  V30 10029 H 966.198 -4.02838 1.23692 0
M  V30 10030 H 964.922 -3.25531 0.263974 0
M  V30 10031 H 963.581 -2.81354 2.35022 0
M  V30 10032 H 963.229 -4.91959 1.04813 0
M  V30 10033 H 962.929 -5.17373 2.78567 0
M  V30 10034 H 964.453 -5.7505 2.05303 0
M  V30 10035 H 965.867 -4.29528 3.79709 0
M  V30 10036 H 964.264 -3.95644 4.51205 0
M  V30 10037 H 965.334 -2.60803 4.08791 0
M  V30 10038 N 966.677 -1.24326 -0.968545 0
M  V30 10039 C 968.088 -1.07561 -1.52603 0
M  V30 10040 C 968.439 0.353245 -1.92994 0
M  V30 10041 O 967.564 1.24151 -1.77244 0
M  V30 10042 C 968.159 -1.94634 -2.77314 0
M  V30 10043 C 966.718 -1.82095 -3.29421 0
M  V30 10044 C 965.865 -1.8962 -2.02335 0
M  V30 10045 H 968.816 -1.37815 -0.786932 0
M  V30 10046 H 968.837 -1.47812 -3.50616 0
M  V30 10047 H 968.349 -2.98621 -2.47885 0
M  V30 10048 H 966.45 -0.809376 -3.63703 0
M  V30 10049 H 966.563 -2.66142 -3.98378 0
M  V30 10050 H 964.927 -1.33339 -2.17009 0
M  V30 10051 H 965.71 -2.95185 -1.75273 0
M  V30 10052 N 968.156 1.1691 -1.05688 0
M  V30 10053 C 969.386 1.90927 -0.789339 0
M  V30 10054 C 969.794 1.77339 0.659369 0
M  V30 10055 O 969.137 1.11147 1.4626 0
M  V30 10056 C 969.199 3.42361 -1.09677 0
M  V30 10057 C 968.863 3.79733 -2.54267 0
M  V30 10058 C 969.86 3.82163 -3.52487 0
M  V30 10059 C 967.545 4.10547 -2.89406 0
M  V30 10060 C 969.539 4.14884 -4.8389 0
M  V30 10061 C 967.226 4.42936 -4.21011 0
M  V30 10062 C 968.224 4.45084 -5.18063 0
M  V30 10063 O 967.912 4.76707 -6.47307 0
M  V30 10064 H 967.644 0.612466 -0.286115 0
M  V30 10065 H 970.198 1.4916 -1.4121 0
M  V30 10066 H 968.428 3.84446 -0.416924 0
M  V30 10067 H 970.117 3.97645 -0.814456 0
M  V30 10068 H 970.883 3.58476 -3.26681 0
M  V30 10069 H 966.762 4.08044 -2.14525 0
M  V30 10070 H 970.306 4.16475 -5.59638 0
M  V30 10071 H 966.203 4.66088 -4.46579 0
M  V30 10072 H 966.971 4.94544 -6.52203 0
M  V30 10073 N 969.634 0.838594 1.33437 0
M  V30 10074 C 970.859 0.446701 2.02532 0
M  V30 10075 C 971.284 -0.944275 1.62681 0
M  V30 10076 O 970.642 -1.61733 0.81927 0
M  V30 10077 C 970.69 0.574794 3.55989 0
M  V30 10078 O 969.794 -0.399063 4.10465 0
M  V30 10079 H 969.135 0.181637 0.638674 0
M  V30 10080 H 971.665 1.13335 1.70342 0
M  V30 10081 H 971.675 0.456339 4.0544 0
M  V30 10082 H 970.35 1.58921 3.8434 0
M  V30 10083 H 968.927 -0.238187 3.72139 0
M  V30 10084 N 971.112 -1.45937 0.595003 0
M  V30 10085 C 972.06 -2.32155 -0.143798 0
M  V30 10086 C 973.054 -1.45221 -0.872198 0
M  V30 10087 O 974.26 -1.61777 -0.789191 0
M  V30 10088 H 970.635 -0.749165 -0.0652377 0
M  V30 10089 H 972.606 -2.92264 0.602005 0
M  V30 10090 C 971.355 -3.28615 -1.13611 0
M  V30 10091 H 970.678 -3.95496 -0.585044 0
M  V30 10092 H 972.118 -3.91699 -1.62321 0
M  V30 10093 C 970.577 -2.54863 -2.20333 0
M  V30 10094 O 971.107 -2.32071 -3.27881 0
M  V30 10095 N 969.313 -2.15213 -1.95274 0
M  V30 10096 H 968.86 -2.33949 -1.07822 0
M  V30 10097 H 968.818 -1.66188 -2.66888 0
M  V30 10098 N 972.59 -0.333456 -1.54032 0
M  V30 10099 C 973.839 0.267081 -1.99924 0
M  V30 10100 C 974.152 1.52463 -1.22534 0
M  V30 10101 O 975.358 2.20178 -1.58852 0
M  V30 10102 C 973.814 0.526456 -3.56029 0
M  V30 10103 C 973.422 -0.714607 -4.42264 0
M  V30 10104 C 975.166 1.0864 -4.10363 0
M  V30 10105 C 973.073 -0.42659 -5.89859 0
M  V30 10106 H 972.003 0.103577 -0.746852 0
M  V30 10107 H 974.654 -0.447218 -1.77967 0
M  V30 10108 H 973.036 1.3012 -3.74012 0
M  V30 10109 H 974.21 -1.48968 -4.36056 0
M  V30 10110 H 972.525 -1.19547 -3.9887 0
M  V30 10111 H 975.122 1.31668 -5.18235 0
M  V30 10112 H 975.465 2.03884 -3.62956 0
M  V30 10113 H 975.998 0.37261 -3.96051 0
M  V30 10114 H 972.737 -1.34847 -6.4148 0
M  V30 10115 H 972.257 0.310588 -5.98995 0
M  V30 10116 H 973.936 -0.0400807 -6.46988 0
M  V30 10117 N 974.068 1.57479 -0.061844 0
M  V30 10118 C 975.016 2.13346 0.926629 0
M  V30 10119 C 976.01 1.06787 1.31502 0
M  V30 10120 O 977.216 1.25181 1.29343 0
M  V30 10121 H 973.591 0.682046 0.316729 0
M  V30 10122 H 975.562 2.95279 0.430424 0
M  V30 10123 C 974.311 2.70198 2.18834 0
M  V30 10124 H 973.634 3.51859 1.89829 0
M  V30 10125 H 975.074 3.12897 2.86132 0
M  V30 10126 C 973.533 1.64481 2.9402 0
M  V30 10127 O 974.063 1.0639 3.87355 0
M  V30 10128 N 972.269 1.35749 2.56944 0
M  V30 10129 H 971.816 1.83177 1.81119 0
M  V30 10130 H 971.774 0.652469 3.07555 0
M  V30 10131 N 975.546 -0.211634 1.56173 0
M  V30 10132 C 976.494 -1.28188 1.94089 0
M  V30 10133 C 977.488 -1.47999 0.824167 0
M  V30 10134 O 978.694 -1.49056 1.00907 0
M  V30 10135 H 975.069 -0.42999 0.616938 0
M  V30 10136 H 977.04 -0.934962 2.83374 0
M  V30 10137 C 975.789 -2.62294 2.28248 0
M  V30 10138 H 975.112 -2.4786 3.13696 0
M  V30 10139 H 976.552 -3.35967 2.58655 0
M  V30 10140 C 975.011 -3.18049 1.11113 0
M  V30 10141 O 975.541 -3.99923 0.377458 0
M  V30 10142 N 973.747 -2.76561 0.892321 0
M  V30 10143 H 973.294 -2.10088 1.49067 0
M  V30 10144 H 973.252 -3.14206 0.110344 0
M  V30 10145 N 977.024 -1.50153 -0.478725 0
M  V30 10146 C 978.44 -1.3741 -0.811833 0
M  V30 10147 C 978.64 -0.424303 -1.96982 0
M  V30 10148 O 977.696 0.13588 -2.52134 0
M  V30 10149 C 979.009 -2.78616 -1.13108 0
M  V30 10150 C 980.557 -2.87477 -1.23798 0
M  V30 10151 C 981.032 -4.295 -1.5904 0
M  V30 10152 N 982.523 -4.32415 -1.66047 0
M  V30 10153 C 983.258 -5.39295 -1.94805 0
M  V30 10154 N 982.754 -6.56392 -2.21635 0
M  V30 10155 N 984.547 -5.26731 -1.96243 0
M  V30 10156 H 976.698 -2.10486 0.284531 0
M  V30 10157 H 978.961 -0.945786 0.0647585 0
M  V30 10158 H 978.667 -3.49921 -0.35334 0
M  V30 10159 H 978.541 -3.15382 -2.06915 0
M  V30 10160 H 980.928 -2.16396 -2.00641 0
M  V30 10161 H 981.009 -2.54264 -0.279888 0
M  V30 10162 H 980.653 -5.01115 -0.827404 0
M  V30 10163 H 980.583 -4.60194 -2.55987 0
M  V30 10164 H 983.074 -3.47975 -1.47383 0
M  V30 10165 H 983.387 -7.33658 -2.4283 0
M  V30 10166 H 981.732 -6.59579 -2.19043 0
M  V30 10167 H 984.923 -4.34249 -1.74773 0
M  V30 10168 H 985.096 -6.10115 -2.1832 0
M  V30 10169 N 978.502 0.731368 -1.39602 0
M  V30 10170 C 979.779 1.48308 -1.27531 0
M  V30 10171 C 980.159 2.10795 0.113482 0
M  V30 10172 O 979.507 1.98886 1.12501 0
M  V30 10173 C 979.717 2.53156 -2.40235 0
M  V30 10174 C 981.065 3.19436 -2.79725 0
M  V30 10175 O 982.089 2.6347 -2.39712 0
M  V30 10176 O 980.948 4.20714 -3.48801 0
M  V30 10177 H 978.042 0.658753 -0.499973 0
M  V30 10178 H 980.588 0.764884 -1.51485 0
M  V30 10179 H 979.36 2.05387 -3.33064 0
M  V30 10180 H 978.983 3.3253 -2.17966 0
M  V30 10181 N 979.98 1.24838 0.961938 0
M  V30 10182 C 980.912 1.00369 2.06055 0
M  V30 10183 C 981.925 -0.0288583 1.62774 0
M  V30 10184 O 983.114 0.208853 1.77274 0
M  V30 10185 C 980.214 0.493953 3.35281 0
M  V30 10186 C 979.387 1.59097 4.07439 0
M  V30 10187 C 978.446 1.08288 5.14937 0
M  V30 10188 O 977.472 1.77577 5.40791 0
M  V30 10189 N 978.674 -0.0796836 5.80445 0
M  V30 10190 H 981.439 1.94962 2.27618 0
M  V30 10191 H 979 1.15945 1.12997 0
M  V30 10192 H 980.992 0.138675 4.04462 0
M  V30 10193 H 979.562 -0.357851 3.10545 0
M  V30 10194 H 978.782 2.11817 3.32456 0
M  V30 10195 H 980.07 2.32817 4.52409 0
M  V30 10196 H 979.468 -0.658827 5.6185 0
M  V30 10197 H 978.025 -0.376057 6.50714 0
M  V30 10198 N 981.458 -1.16348 1.06306 0
M  V30 10199 C 982.707 -1.8622 0.774909 0
M  V30 10200 C 983.02 -1.82598 -0.701245 0
M  V30 10201 O 984.226 -2.48051 -1.10377 0
M  V30 10202 C 982.682 -3.34182 1.33604 0
M  V30 10203 C 982.29 -3.46279 2.84245 0
M  V30 10204 C 984.034 -4.09309 1.12544 0
M  V30 10205 C 981.941 -4.88327 3.33602 0
M  V30 10206 H 980.871 -0.697574 0.286194 0
M  V30 10207 H 983.522 -1.31311 1.28179 0
M  V30 10208 H 981.904 -3.88698 0.756937 0
M  V30 10209 H 983.078 -3.01923 3.48108 0
M  V30 10210 H 981.393 -2.84585 3.03974 0
M  V30 10211 H 983.99 -5.14123 1.46909 0
M  V30 10212 H 984.333 -4.16251 0.0638129 0
M  V30 10213 H 984.866 -3.61032 1.67034 0
M  V30 10214 H 981.605 -4.86565 4.39244 0
M  V30 10215 H 981.125 -5.33307 2.74487 0
M  V30 10216 H 982.804 -5.57144 3.28937 0
M  V30 10217 N 982.937 -0.845659 -1.3299 0
M  V30 10218 C 984.186 -0.440928 -1.96822 0
M  V30 10219 C 984.499 1.00668 -1.67706 0
M  V30 10220 O 985.705 1.51641 -2.25205 0
M  V30 10221 C 984.161 -0.73752 -3.52262 0
M  V30 10222 C 983.769 -2.20026 -3.90247 0
M  V30 10223 C 985.513 -0.400072 -4.22611 0
M  V30 10224 C 983.42 -2.44054 -5.38694 0
M  V30 10225 H 982.35 -0.161148 -0.736578 0
M  V30 10226 H 985.001 -1.03519 -1.51513 0
M  V30 10227 H 983.383 -0.0728025 -3.95933 0
M  V30 10228 H 984.557 -2.90602 -3.57613 0
M  V30 10229 H 982.872 -2.50135 -3.32899 0
M  V30 10230 H 985.469 -0.557136 -5.3179 0
M  V30 10231 H 985.812 0.657547 -4.11074 0
M  V30 10232 H 986.345 -1.0203 -3.84493 0
M  V30 10233 H 983.084 -3.48407 -5.55241 0
M  V30 10234 H 982.604 -1.78047 -5.72765 0
M  V30 10235 H 984.283 -2.27549 -6.05665 0
M  V30 10236 N 984.415 1.45619 -0.602734 0
M  V30 10237 C 985.662 2.02272 -0.0960337 0
M  V30 10238 C 985.99 1.47177 1.27159 0
M  V30 10239 O 985.245 0.634593 1.85125 0
M  V30 10240 C 985.544 3.574 -0.00157909 0
M  V30 10241 C 985.21 4.31626 -1.30422 0
M  V30 10242 C 983.872 4.51622 -1.66106 0
M  V30 10243 C 986.224 4.74091 -2.16535 0
M  V30 10244 C 983.552 5.11338 -2.87663 0
M  V30 10245 C 985.904 5.35151 -3.37336 0
M  V30 10246 C 984.568 5.53371 -3.73278 0
M  V30 10247 H 983.838 0.740166 -0.0351412 0
M  V30 10248 H 986.485 1.74744 -0.783382 0
M  V30 10249 H 984.79 3.84179 0.769008 0
M  V30 10250 H 986.487 3.98934 0.406549 0
M  V30 10251 H 983.077 4.16372 -1.01647 0
M  V30 10252 H 987.261 4.5838 -1.90266 0
M  V30 10253 H 982.517 5.23634 -3.15622 0
M  V30 10254 H 986.691 5.67011 -4.04316 0
M  V30 10255 H 984.318 5.99412 -4.67556 0
M  V30 10256 N 985.893 0.34162 1.53853 0
M  V30 10257 C 986.826 -0.559051 2.21246 0
M  V30 10258 C 987.804 -1.10179 1.1958 0
M  V30 10259 O 988.988 -1.16242 1.48392 0
M  V30 10260 C 986.115 -1.7689 2.88838 0
M  V30 10261 C 985.161 -1.3558 4.04377 0
M  V30 10262 S 985.994 -0.377225 5.3417 0
M  V30 10263 C 987.15 -1.59395 6.05264 0
M  V30 10264 H 987.383 0.013373 2.97297 0
M  V30 10265 H 984.916 0.125694 1.53888 0
M  V30 10266 H 986.874 -2.463 3.284 0
M  V30 10267 H 985.535 -2.31254 2.12557 0
M  V30 10268 H 984.728 -2.25781 4.50599 0
M  V30 10269 H 984.33 -0.741197 3.66582 0
M  V30 10270 H 986.622 -2.52872 6.2854 0
M  V30 10271 H 987.565 -1.17356 6.98307 0
M  V30 10272 H 987.973 -1.78913 5.35397 0
M  V30 10273 N 987.371 -1.57444 0.0701946 0
M  V30 10274 C 988.617 -1.93716 -0.600178 0
M  V30 10275 C 988.95 -0.950329 -1.69359 0
M  V30 10276 O 988.225 0.0207123 -1.94489 0
M  V30 10277 C 988.508 -3.40266 -1.17861 0
M  V30 10278 C 988.361 -4.49706 -0.0919575 0
M  V30 10279 C 989.68 -3.87599 -2.08459 0
M  V30 10280 H 986.799 -0.704421 -0.216704 0
M  V30 10281 H 989.441 -1.89514 0.135838 0
M  V30 10282 H 987.591 -3.43977 -1.80587 0
M  V30 10283 H 989.263 -4.58116 0.541031 0
M  V30 10284 H 987.506 -4.29937 0.577639 0
M  V30 10285 H 988.177 -5.49381 -0.537048 0
M  V30 10286 H 990.653 -3.85883 -1.5567 0
M  V30 10287 H 989.529 -4.90755 -2.45867 0
M  V30 10288 H 989.79 -3.25448 -2.99226 0
M  V30 10289 N 988.849 0.203349 -1.56283 0
M  V30 10290 C 990.097 0.923183 -1.79782 0
M  V30 10291 C 990.418 1.84134 -0.64185 0
M  V30 10292 O 989.688 1.92922 0.340292 0
M  V30 10293 H 988.268 0.343881 -0.66314 0
M  V30 10294 H 990.93 0.210837 -1.93756 0
M  V30 10295 H 990.026 1.51921 -2.72629 0
M  V30 10296 N 990.327 1.50405 0.470755 0
M  V30 10297 C 991.743 1.37838 0.804534 0
M  V30 10298 C 991.943 0.434743 1.96754 0
M  V30 10299 O 990.999 -0.122507 2.52203 0
M  V30 10300 C 992.312 2.79212 1.11629 0
M  V30 10301 C 993.86 2.88129 1.22272 0
M  V30 10302 C 994.335 4.30337 1.5676 0
M  V30 10303 N 995.826 4.3329 1.63751 0
M  V30 10304 C 996.561 5.4032 1.91942 0
M  V30 10305 N 996.057 6.57558 2.18151 0
M  V30 10306 N 997.85 5.27764 1.93446 0
M  V30 10307 H 990.001 2.10332 -0.295689 0
M  V30 10308 H 992.264 0.945429 -0.0697733 0
M  V30 10309 H 991.97 3.50103 0.334778 0
M  V30 10310 H 991.844 3.16475 2.0524 0
M  V30 10311 H 994.231 2.17457 1.9949 0
M  V30 10312 H 994.312 2.54409 0.2664 0
M  V30 10313 H 993.956 5.01547 0.800817 0
M  V30 10314 H 993.886 4.61545 2.53543 0
M  V30 10315 H 996.377 3.48752 1.45535 0
M  V30 10316 H 996.69 7.34935 2.38936 0
M  V30 10317 H 995.035 6.60732 2.15542 0
M  V30 10318 H 998.226 4.35169 1.72468 0
M  V30 10319 H 998.399 6.11264 2.15081 0
M  V30 10320 N 991.805 -0.723954 1.39988 0
M  V30 10321 C 993.053 -1.48078 1.3754 0
M  V30 10322 C 993.374 -1.94985 -0.0243358 0
M  V30 10323 O 992.644 -1.69764 -0.977602 0
M  V30 10324 H 991.224 -0.549354 0.506181 0
M  V30 10325 H 993.886 -0.858746 1.74962 0
M  V30 10326 H 992.982 -2.35763 2.04505 0
M  V30 10327 N 993.283 -1.25346 -0.955304 0
M  V30 10328 C 994.513 -1.12629 -1.732 0
M  V30 10329 C 994.921 0.322748 -1.86427 0
M  V30 10330 O 994.264 1.23381 -1.36099 0
M  V30 10331 C 994.326 -1.7064 -3.16421 0
M  V30 10332 C 993.99 -3.19632 -3.26626 0
M  V30 10333 C 994.987 -4.1663 -3.10991 0
M  V30 10334 C 992.672 -3.59829 -3.50468 0
M  V30 10335 C 994.666 -5.51806 -3.19043 0
M  V30 10336 C 992.353 -4.95143 -3.58157 0
M  V30 10337 C 993.351 -5.90941 -3.42459 0
M  V30 10338 O 993.039 -7.23792 -3.49828 0
M  V30 10339 H 992.771 -0.393646 -0.549562 0
M  V30 10340 H 995.325 -1.66184 -1.20715 0
M  V30 10341 H 993.555 -1.11532 -3.70267 0
M  V30 10342 H 995.244 -1.53032 -3.75947 0
M  V30 10343 H 996.01 -3.86915 -2.92441 0
M  V30 10344 H 991.889 -2.8576 -3.61749 0
M  V30 10345 H 995.433 -6.26559 -3.06707 0
M  V30 10346 H 991.33 -5.24525 -3.76224 0
M  V30 10347 H 992.098 -7.31879 -3.66463 0
M  V30 10348 N 994.761 1.15782 -1.06922 0
M  V30 10349 C 995.691 2.22538 -0.707045 0
M  V30 10350 C 996.672 1.67371 0.303471 0
M  V30 10351 O 997.857 1.9339 0.177189 0
M  V30 10352 C 994.987 3.47158 -0.0994269 0
M  V30 10353 C 993.941 4.15257 -1.03661 0
M  V30 10354 C 993.267 5.33902 -0.291974 0
M  V30 10355 C 994.567 4.65516 -2.36837 0
M  V30 10356 H 996.261 2.53089 -1.59958 0
M  V30 10357 H 993.807 1.21649 -0.770552 0
M  V30 10358 H 995.76 4.21073 0.165852 0
M  V30 10359 H 994.484 3.15926 0.828155 0
M  V30 10360 H 993.143 3.43276 -1.28674 0
M  V30 10361 H 992.791 4.98926 0.638928 0
M  V30 10362 H 992.491 5.80407 -0.916613 0
M  V30 10363 H 994.015 6.1059 -0.0343915 0
M  V30 10364 H 995.429 5.30981 -2.16175 0
M  V30 10365 H 993.826 5.22666 -2.94856 0
M  V30 10366 H 994.896 3.81387 -2.99453 0
M  V30 10367 N 996.239 0.8527 1.3254 0
M  V30 10368 C 997.464 0.468157 2.02047 0
M  V30 10369 C 997.889 -0.926967 1.63673 0
M  V30 10370 O 997.247 -1.60855 0.836378 0
M  V30 10371 C 997.295 0.612519 3.5536 0
M  V30 10372 O 996.399 -0.355506 4.10865 0
M  V30 10373 H 995.74 0.188401 0.636711 0
M  V30 10374 H 998.27 1.15135 1.6913 0
M  V30 10375 H 998.28 0.499315 4.04933 0
M  V30 10376 H 996.955 1.62988 3.82632 0
M  V30 10377 H 995.532 -0.198703 3.7237 0
M  V30 10378 N 997.718 -1.45297 0.610449 0
M  V30 10379 C 999.129 -1.85715 0.191488 0
M  V30 10380 C 999.48 -1.51036 -1.25229 0
M  V30 10381 O 998.605 -0.938422 -1.94994 0
M  V30 10382 C 999.2 -3.37082 0.340747 0
M  V30 10383 C 997.759 -3.76393 -0.0235433 0
M  V30 10384 C 996.906 -2.69237 0.663849 0
M  V30 10385 H 999.857 -1.36058 0.816948 0
M  V30 10386 H 999.878 -3.78105 -0.426233 0
M  V30 10387 H 999.39 -3.62291 1.39164 0
M  V30 10388 H 997.491 -3.56801 -1.07351 0
M  V30 10389 H 997.604 -4.77653 0.372102 0
M  V30 10390 H 995.968 -2.54499 0.101204 0
M  V30 10391 H 996.751 -2.97281 1.71694 0
M  V30 10392 N 999.196 -0.349774 -1.5367 0
M  V30 10393 C 1000.47 0.300419 -1.93279 0
M  V30 10394 C 1000.85 1.67721 -1.28191 0
M  V30 10395 O 1000.2 2.24319 -0.435127 0
M  V30 10396 C 1000.41 0.366466 -3.47071 0
M  V30 10397 C 1001.76 0.614349 -4.20132 0
M  V30 10398 O 1002.78 0.448327 -3.53367 0
M  V30 10399 O 1001.64 0.936421 -5.38417 0
M  V30 10400 H 998.736 0.176599 -0.807924 0
M  V30 10401 H 1001.28 -0.401405 -1.64884 0
M  V30 10402 H 1000.05 -0.599455 -3.86681 0
M  V30 10403 H 999.677 1.11482 -3.81651 0
M  V30 10404 N 1000.67 1.57404 -0.0785433 0
M  V30 10405 C 1001.6 2.16131 0.883726 0
M  V30 10406 C 1002.58 1.09015 1.30575 0
M  V30 10407 O 1003.77 1.3708 1.37559 0
M  V30 10408 C 1000.9 2.72836 2.1489 0
M  V30 10409 C 999.854 3.85178 1.86605 0
M  V30 10410 C 999.18 4.28516 3.1981 0
M  V30 10411 C 1000.48 5.09118 1.16601 0
M  V30 10412 H 1002.17 2.9679 0.394484 0
M  V30 10413 H 999.72 1.42763 0.188304 0
M  V30 10414 H 1001.67 3.12567 2.8263 0
M  V30 10415 H 1000.4 1.89408 2.66068 0
M  V30 10416 H 999.056 3.45962 1.21268 0
M  V30 10417 H 998.704 3.42 3.68843 0
M  V30 10418 H 998.404 5.04249 3.01674 0
M  V30 10419 H 999.928 4.70868 3.88737 0
M  V30 10420 H 1001.34 5.46123 1.74422 0
M  V30 10421 H 999.739 5.90173 1.087 0
M  V30 10422 H 1000.81 4.8468 0.146138 0
M  V30 10423 N 1002.15 -0.195058 1.56388 0
M  V30 10424 C 1003.38 -0.935745 1.85091 0
M  V30 10425 C 1003.8 -1.76061 0.662118 0
M  V30 10426 O 1003.16 -1.77076 -0.389083 0
M  V30 10427 C 1003.21 -1.80764 3.1202 0
M  V30 10428 O 1002.31 -2.90643 2.92575 0
M  V30 10429 H 1001.65 -0.26351 0.609474 0
M  V30 10430 H 1004.18 -0.200362 2.03617 0
M  V30 10431 H 1004.19 -2.21229 3.42815 0
M  V30 10432 H 1002.87 -1.20157 3.98165 0
M  V30 10433 H 1001.44 -2.53934 2.73079 0
M  V30 10434 N 1003.63 -1.50653 -0.462772 0
M  V30 10435 C 1004.58 -1.70122 -1.55971 0
M  V30 10436 C 1005.55 -0.542581 -1.56988 0
M  V30 10437 O 1006.73 -0.774114 -1.74391 0
M  V30 10438 C 1003.87 -1.80899 -2.93887 0
M  V30 10439 C 1002.98 -3.08318 -3.02595 0
M  V30 10440 C 1002.12 -3.09841 -4.31477 0
M  V30 10441 C 1001.16 -4.3168 -4.33957 0
M  V30 10442 N 1000.3 -4.30894 -5.54323 0
M  V30 10443 H 1005.14 -2.63768 -1.38674 0
M  V30 10444 H 1002.67 -1.30746 -0.674091 0
M  V30 10445 H 1004.63 -1.85128 -3.73876 0
M  V30 10446 H 1003.26 -0.906854 -3.098 0
M  V30 10447 H 1002.31 -3.13521 -2.15427 0
M  V30 10448 H 1003.62 -3.98282 -3.00288 0
M  V30 10449 H 1002.78 -3.12845 -5.1982 0
M  V30 10450 H 1001.52 -2.17722 -4.36404 0
M  V30 10451 H 1000.52 -4.28879 -3.4401 0
M  V30 10452 H 1001.75 -5.25035 -4.30715 0
M  V30 10453 H 999.694 -3.41633 -5.6002 0
M  V30 10454 H 999.611 -5.14636 -5.53792 0
M  V30 10455 H 1000.88 -4.38056 -6.44769 0
M  V30 10456 N 1005.11 0.71652 -1.4037 0
M  V30 10457 C 1006.35 1.47857 -1.38803 0
M  V30 10458 C 1006.69 1.94197 0.0100536 0
M  V30 10459 O 1005.96 1.68093 0.978521 0
M  V30 10460 C 1006.25 2.7053 -2.37667 0
M  V30 10461 C 1006.1 2.3009 -3.86496 0
M  V30 10462 C 1007.42 3.72684 -2.34082 0
M  V30 10463 H 1004.54 0.53632 -0.505499 0
M  V30 10464 H 1007.18 0.817824 -1.71498 0
M  V30 10465 H 1005.33 3.26906 -2.09916 0
M  V30 10466 H 1007 1.79202 -4.2507 0
M  V30 10467 H 1005.24 1.62102 -4.02375 0
M  V30 10468 H 1005.91 3.18018 -4.51186 0
M  V30 10469 H 1008.39 3.25935 -2.58661 0
M  V30 10470 H 1007.27 4.56157 -3.05306 0
M  V30 10471 H 1007.53 4.20916 -1.35213 0
M  V30 10472 N 1006.59 1.25851 0.948643 0
M  V30 10473 C 1008 1.02802 1.22081 0
M  V30 10474 C 1008.2 -0.251461 1.99925 0
M  V30 10475 O 1007.26 -0.962592 2.33432 0
M  V30 10476 C 1008.57 2.25489 1.98936 0
M  V30 10477 C 1010.12 2.30312 2.11956 0
M  V30 10478 C 1010.59 3.52671 2.92211 0
M  V30 10479 N 1012.09 3.53103 2.99787 0
M  V30 10480 C 1012.82 4.44445 3.62294 0
M  V30 10481 N 1012.32 5.46065 4.26362 0
M  V30 10482 N 1014.11 4.32113 3.59493 0
M  V30 10483 H 1006.26 2.08042 0.428044 0
M  V30 10484 H 1008.52 0.913928 0.251872 0
M  V30 10485 H 1008.23 3.18513 1.4914 0
M  V30 10486 H 1008.1 2.2914 2.99624 0
M  V30 10487 H 1010.49 1.37808 2.60946 0
M  V30 10488 H 1010.57 2.30676 1.10554 0
M  V30 10489 H 1010.22 4.45501 2.43909 0
M  V30 10490 H 1010.15 3.49554 3.93853 0
M  V30 10491 H 1012.64 2.79597 2.54232 0
M  V30 10492 H 1012.95 6.11964 4.71932 0
M  V30 10493 H 1011.29 5.49931 4.24972 0
M  V30 10494 H 1014.49 3.51946 3.08629 0
M  V30 10495 H 1014.66 5.03493 4.0792 0
M  V30 10496 N 1008.06 -1.15214 1.07534 0
M  V30 10497 C 1009.29 -1.90463 0.820883 0
M  V30 10498 C 1009.71 -1.77578 -0.620305 0
M  V30 10499 O 1009.07 -1.10976 -1.43366 0
M  V30 10500 C 1009.12 -3.38746 1.23627 0
M  V30 10501 O 1008.22 -4.1062 0.382715 0
M  V30 10502 H 1007.57 -0.59292 0.298901 0
M  V30 10503 H 1010.1 -1.45893 1.43445 0
M  V30 10504 H 1010.11 -3.89543 1.21327 0
M  V30 10505 H 1008.78 -3.47443 2.28596 0
M  V30 10506 H 1007.36 -3.69947 0.468374 0
M  V30 10507 N 1009.54 -0.859717 -1.32086 0
M  V30 10508 C 1010.49 -0.296897 -2.30697 0
M  V30 10509 C 1011.48 0.582473 -1.59071 0
M  V30 10510 O 1012.69 0.469713 -1.73763 0
M  V30 10511 H 1009.07 -0.0773132 -0.748015 0
M  V30 10512 H 1011.04 -1.14273 -2.75652 0
M  V30 10513 C 1009.79 0.495546 -3.44151 0
M  V30 10514 H 1009.11 -0.171829 -3.99431 0
M  V30 10515 H 1010.55 0.854854 -4.15293 0
M  V30 10516 C 1009.01 1.68278 -2.91863 0
M  V30 10517 O 1009.54 2.78194 -2.89777 0
M  V30 10518 N 1007.74 1.51151 -2.48197 0
M  V30 10519 H 1007.29 0.617345 -2.50093 0
M  V30 10520 H 1007.25 2.3073 -2.13567 0
M  V30 10521 N 1011.02 1.44971 -0.618145 0
M  V30 10522 C 1012.26 2.04044 -0.120625 0
M  V30 10523 C 1012.62 1.47472 1.22947 0
M  V30 10524 O 1013.83 1.97965 1.81834 0
M  V30 10525 C 1012.1 3.57279 -0.0930863 0
M  V30 10526 S 1013.66 4.37468 0.341705 0
M  V30 10527 H 1010.47 0.708891 -0.0547272 0
M  V30 10528 H 1013.08 1.77535 -0.818621 0
M  V30 10529 H 1011.78 3.95961 -1.07903 0
M  V30 10530 H 1011.31 3.88378 0.62657 0
M  V30 10531 H 1013.33 4.70073 1.58888 0
M  V30 10532 N 1012.5 0.357919 1.53482 0
M  V30 10533 C 1013.91 -0.122938 1.86295 0
M  V30 10534 C 1014.26 -1.48803 1.27875 0
M  V30 10535 O 1013.39 -2.07978 0.597828 0
M  V30 10536 C 1013.98 -0.229853 3.38019 0
M  V30 10537 C 1012.54 -0.654955 3.70658 0
M  V30 10538 C 1011.69 0.202539 2.76559 0
M  V30 10539 H 1014.64 0.576997 1.47839 0
M  V30 10540 H 1014.66 -1.05481 3.65587 0
M  V30 10541 H 1014.17 0.763825 3.80509 0
M  V30 10542 H 1012.27 -1.65714 3.33721 0
M  V30 10543 H 1012.38 -0.43488 4.77122 0
M  V30 10544 H 1010.75 -0.327388 2.52587 0
M  V30 10545 H 1011.53 1.19361 3.21882 0
M  V30 10546 N 1013.98 -1.5736 0.0868897 0
M  V30 10547 C 1014.92 -2.13571 -0.874996 0
M  V30 10548 C 1015.89 -1.0521 -1.2853 0
M  V30 10549 O 1017.08 -1.32954 -1.3685 0
M  V30 10550 C 1014.22 -2.71386 -2.13175 0
M  V30 10551 C 1013.33 -3.93953 -1.77272 0
M  V30 10552 C 1012.47 -4.3996 -2.97671 0
M  V30 10553 C 1011.51 -5.55137 -2.57856 0
M  V30 10554 N 1010.64 -5.96034 -3.71064 0
M  V30 10555 H 1015.48 -2.95453 -0.388789 0
M  V30 10556 H 1013.02 -1.45992 -0.180242 0
M  V30 10557 H 1014.98 -3.03022 -2.86764 0
M  V30 10558 H 1013.61 -1.92245 -2.5931 0
M  V30 10559 H 1012.66 -3.68683 -0.936845 0
M  V30 10560 H 1013.97 -4.77565 -1.43989 0
M  V30 10561 H 1013.13 -4.73337 -3.79522 0
M  V30 10562 H 1011.86 -3.55232 -3.34158 0
M  V30 10563 H 1010.87 -5.21397 -1.7443 0
M  V30 10564 H 1012.09 -6.41608 -2.22522 0
M  V30 10565 H 1010.04 -5.14253 -4.07284 0
M  V30 10566 H 1009.96 -6.74423 -3.41599 0
M  V30 10567 H 1011.23 -6.34038 -4.53449 0
M  V30 10568 N 1015.45 0.186762 -1.56489 0
M  V30 10569 C 1016.42 1.21511 -1.94339 0
M  V30 10570 C 1017.42 1.38001 -0.82537 0
M  V30 10571 O 1018.61 1.3567 -1.09266 0
M  V30 10572 C 1015.74 2.583 -2.22472 0
M  V30 10573 H 1016.93 0.891371 -2.86347 0
M  V30 10574 H 1014.49 0.428612 -1.50308 0
M  V30 10575 H 1015.22 2.95715 -1.33129 0
M  V30 10576 H 1015.01 2.47701 -3.03951 0
M  V30 10577 H 1016.5 3.32441 -2.5273 0
M  V30 10578 N 1016.93 1.50896 0.454776 0
M  V30 10579 C 1017.87 1.65608 1.57001 0
M  V30 10580 C 1018.84 0.50387 1.54596 0
M  V30 10581 O 1020.03 0.725485 1.7398 0
M  V30 10582 C 1017.15 1.65366 2.95587 0
M  V30 10583 C 1016.2 2.86344 3.16085 0
M  V30 10584 S 1017.03 4.47418 2.9424 0
M  V30 10585 C 1018.19 4.49895 4.35138 0
M  V30 10586 H 1018.42 2.59941 1.44285 0
M  V30 10587 H 1015.96 1.40362 0.643264 0
M  V30 10588 H 1017.91 1.65911 3.75478 0
M  V30 10589 H 1016.57 0.722407 3.0568 0
M  V30 10590 H 1015.77 2.82526 4.17367 0
M  V30 10591 H 1015.37 2.8345 2.43992 0
M  V30 10592 H 1017.66 4.24462 5.28051 0
M  V30 10593 H 1018.6 5.5161 4.43995 0
M  V30 10594 H 1019.01 3.79412 4.17979 0
M  V30 10595 N 1018.41 -0.709066 1.40748 0
M  V30 10596 C 1019.36 -1.82312 1.4153 0
M  V30 10597 C 1020.33 -1.63868 0.271392 0
M  V30 10598 O 1021.51 -1.8491 0.470431 0
M  V30 10599 C 1018.65 -3.2008 1.29006 0
M  V30 10600 C 1017.77 -3.50051 2.53156 0
M  V30 10601 C 1016.9 -4.7736 2.33025 0
M  V30 10602 C 1015.94 -5.00255 3.52719 0
M  V30 10603 N 1015.08 -6.18782 3.31743 0
M  V30 10604 H 1019.92 -1.80978 2.36751 0
M  V30 10605 H 1017.45 -0.883975 1.17577 0
M  V30 10606 H 1019.41 -3.99645 1.19749 0
M  V30 10607 H 1018.04 -3.20626 0.374014 0
M  V30 10608 H 1017.09 -2.64993 2.72916 0
M  V30 10609 H 1018.41 -3.62877 3.42231 0
M  V30 10610 H 1017.56 -5.64954 2.21159 0
M  V30 10611 H 1016.3 -4.66756 1.41386 0
M  V30 10612 H 1015.3 -4.11114 3.65055 0
M  V30 10613 H 1016.53 -5.12728 4.45295 0
M  V30 10614 H 1014.47 -6.09416 2.42791 0
M  V30 10615 H 1014.39 -6.32313 4.14386 0
M  V30 10616 H 1015.66 -7.09146 3.23623 0
M  V30 10617 N 1019.89 -1.26353 -0.941956 0
M  V30 10618 C 1021.31 -1.03448 -1.21534 0
M  V30 10619 C 1021.51 0.240855 -2.00055 0
M  V30 10620 O 1020.56 0.950199 -2.33939 0
M  V30 10621 C 1021.87 -2.2654 -1.97737 0
M  V30 10622 C 1023.42 -2.31433 -2.10731 0
M  V30 10623 C 1023.9 -3.54216 -2.90336 0
M  V30 10624 N 1025.39 -3.54688 -2.9791 0
M  V30 10625 C 1026.12 -4.4636 -3.59931 0
M  V30 10626 N 1025.62 -5.48319 -4.2346 0
M  V30 10627 N 1027.41 -4.34013 -3.57196 0
M  V30 10628 H 1019.56 -2.08266 -0.417005 0
M  V30 10629 H 1021.83 -0.915251 -0.247021 0
M  V30 10630 H 1021.53 -3.19299 -1.47449 0
M  V30 10631 H 1021.41 -2.30726 -2.98405 0
M  V30 10632 H 1023.79 -1.3919 -2.60212 0
M  V30 10633 H 1023.87 -2.31259 -1.09329 0
M  V30 10634 H 1023.52 -4.46788 -2.41543 0
M  V30 10635 H 1023.45 -3.51637 -3.91993 0
M  V30 10636 H 1025.94 -2.80942 -2.52745 0
M  V30 10637 H 1026.25 -6.14458 -4.6868 0
M  V30 10638 H 1024.6 -5.52177 -4.22049 0
M  V30 10639 H 1027.79 -3.53578 -3.06758 0
M  V30 10640 H 1027.96 -5.0565 -4.05244 0
M  V30 10641 N 1021.37 1.14642 -1.08144 0
M  V30 10642 C 1022.3 2.21775 -0.730609 0
M  V30 10643 C 1023.28 1.67683 0.285702 0
M  V30 10644 O 1024.46 1.93567 0.156667 0
M  V30 10645 C 1021.59 3.47033 -0.136242 0
M  V30 10646 C 1020.55 4.14134 -1.0806 0
M  V30 10647 C 1019.87 5.33563 -0.348585 0
M  V30 10648 C 1021.17 4.62978 -2.41761 0
M  V30 10649 H 1022.87 2.51378 -1.62633 0
M  V30 10650 H 1020.41 1.20825 -0.783411 0
M  V30 10651 H 1022.37 4.21226 0.121182 0
M  V30 10652 H 1021.09 3.16786 0.7946 0
M  V30 10653 H 1019.75 3.41892 -1.32308 0
M  V30 10654 H 1019.4 4.99575 0.585974 0
M  V30 10655 H 1019.1 5.79402 -0.978122 0
M  V30 10656 H 1020.62 6.10519 -0.0991508 0
M  V30 10657 H 1022.04 5.28659 -2.21795 0
M  V30 10658 H 1020.43 5.1951 -3.00383 0
M  V30 10659 H 1021.5 3.78189 -3.03482 0
M  V30 10660 N 1022.85 0.866709 1.31628 0
M  V30 10661 C 1023.78 0.264788 2.26659 0
M  V30 10662 C 1024.76 -0.604181 1.50958 0
M  V30 10663 O 1025.94 -0.558324 1.80042 0
M  V30 10664 C 1023.07 -0.625373 3.32877 0
M  V30 10665 C 1022.11 0.171813 4.26154 0
M  V30 10666 S 1022.95 1.54818 5.12632 0
M  V30 10667 C 1024.1 0.66405 6.22367 0
M  V30 10668 H 1024.34 1.07036 2.77364 0
M  V30 10669 H 1021.87 0.665038 1.39343 0
M  V30 10670 H 1023.83 -1.13327 3.94547 0
M  V30 10671 H 1022.49 -1.40486 2.80932 0
M  V30 10672 H 1021.68 -0.506694 5.01447 0
M  V30 10673 H 1021.28 0.611704 3.68964 0
M  V30 10674 H 1023.57 -0.126717 6.77381 0
M  V30 10675 H 1024.52 1.388 6.94363 0
M  V30 10676 H 1024.93 0.233046 5.64019 0
M  V30 10677 N 1024.32 -1.44642 0.625825 0
M  V30 10678 C 1025.29 -2.29085 -0.072526 0
M  V30 10679 C 1026.29 -1.40755 -0.777467 0
M  V30 10680 O 1027.48 -1.62684 -0.622861 0
M  V30 10681 C 1024.61 -3.22212 -1.1132 0
M  V30 10682 H 1025.8 -2.92317 0.670124 0
M  V30 10683 H 1023.35 -1.51466 0.38571 0
M  V30 10684 H 1024.09 -2.63819 -1.88601 0
M  V30 10685 H 1023.87 -3.87299 -0.611709 0
M  V30 10686 H 1025.36 -3.8566 -1.60175 0
M  V30 10687 N 1025.8 -0.366053 -1.5329 0
M  V30 10688 C 1026.71 0.488111 -2.29466 0
M  V30 10689 C 1027.73 1.09219 -1.35452 0
M  V30 10690 O 1028.9 1.10303 -1.68509 0
M  V30 10691 C 1025.97 1.61202 -3.06944 0
M  V30 10692 C 1025.03 1.03543 -4.16626 0
M  V30 10693 C 1024.26 2.10578 -4.904 0
M  V30 10694 O 1024.49 3.31697 -4.6404 0
M  V30 10695 O 1023.42 1.73609 -5.76319 0
M  V30 10696 H 1027.25 -0.131789 -3.03414 0
M  V30 10697 H 1024.83 -0.130421 -1.4883 0
M  V30 10698 H 1026.71 2.26546 -3.55324 0
M  V30 10699 H 1025.39 2.21732 -2.35832 0
M  V30 10700 H 1024.29 0.345892 -3.72498 0
M  V30 10701 H 1025.63 0.474687 -4.89906 0
M  V30 10702 N 1027.28 1.57312 -0.0952337 0
M  V30 10703 C 1028.52 1.96239 0.571813 0
M  V30 10704 C 1028.88 0.97602 1.65342 0
M  V30 10705 O 1030.08 1.25379 2.37768 0
M  V30 10706 C 1028.36 3.39644 1.1125 0
M  V30 10707 S 1029.91 4.00568 1.7914 0
M  V30 10708 H 1026.73 0.686081 0.186585 0
M  V30 10709 H 1029.33 1.94718 -0.174669 0
M  V30 10710 H 1028.04 4.09199 0.313796 0
M  V30 10711 H 1027.57 3.44762 1.89481 0
M  V30 10712 H 1029.58 3.89383 3.07563 0
M  V30 10713 N 1028.76 -0.17846 1.56586 0
M  V30 10714 C 1029.69 -1.22342 1.98884 0
M  V30 10715 C 1030.67 -1.46564 0.86331 0
M  V30 10716 O 1031.85 -1.58019 1.12887 0
M  V30 10717 C 1028.98 -2.56396 2.34261 0
M  V30 10718 C 1027.94 -2.46756 3.49708 0
M  V30 10719 C 1027.26 -3.85235 3.70807 0
M  V30 10720 C 1028.56 -1.97838 4.83381 0
M  V30 10721 H 1030.26 -0.871848 2.86425 0
M  V30 10722 H 1027.8 -0.417948 1.37801 0
M  V30 10723 H 1029.76 -3.29695 2.62448 0
M  V30 10724 H 1028.48 -2.93327 1.43621 0
M  V30 10725 H 1027.14 -1.75912 3.21637 0
M  V30 10726 H 1026.79 -4.19547 2.7747 0
M  V30 10727 H 1026.49 -3.79655 4.48481 0
M  V30 10728 H 1028.01 -4.60131 4.01387 0
M  V30 10729 H 1029.43 -2.60906 5.10491 0
M  V30 10730 H 1027.82 -2.03223 5.64642 0
M  V30 10731 H 1028.89 -0.932339 4.75852 0
M  V30 10732 N 1030.24 -1.51135 -0.446768 0
M  V30 10733 C 1031.18 -1.71767 -1.54158 0
M  V30 10734 C 1032.15 -0.559201 -1.56404 0
M  V30 10735 O 1033.34 -0.792567 -1.7356 0
M  V30 10736 C 1030.48 -1.84006 -2.91952 0
M  V30 10737 C 1029.59 -3.11511 -2.99308 0
M  V30 10738 C 1028.73 -3.144 -4.28166 0
M  V30 10739 C 1027.76 -4.36258 -4.29355 0
M  V30 10740 N 1026.9 -4.3675 -5.49722 0
M  V30 10741 H 1031.74 -2.65224 -1.35869 0
M  V30 10742 H 1029.28 -1.31453 -0.660186 0
M  V30 10743 H 1031.24 -1.89083 -3.71892 0
M  V30 10744 H 1029.87 -0.939661 -3.08821 0
M  V30 10745 H 1028.92 -3.15788 -2.12089 0
M  V30 10746 H 1030.23 -4.01445 -2.96047 0
M  V30 10747 H 1029.38 -3.18341 -5.16473 0
M  V30 10748 H 1028.12 -2.22338 -4.3407 0
M  V30 10749 H 1027.13 -4.32503 -3.39442 0
M  V30 10750 H 1028.35 -5.29574 -4.25122 0
M  V30 10751 H 1026.3 -3.47554 -5.56365 0
M  V30 10752 H 1026.22 -5.20481 -5.48302 0
M  V30 10753 H 1027.48 -4.4487 -6.40086 0
M  V30 10754 N 1031.71 0.701592 -1.41122 0
M  V30 10755 C 1032.66 1.81559 -1.42495 0
M  V30 10756 C 1033.63 1.63722 -0.280078 0
M  V30 10757 O 1034.82 1.84658 -0.480231 0
M  V30 10758 C 1031.96 3.19392 -1.30702 0
M  V30 10759 C 1031.07 3.48704 -2.55009 0
M  V30 10760 C 1030.2 4.76118 -2.35554 0
M  V30 10761 C 1029.24 4.98378 -3.55367 0
M  V30 10762 N 1028.38 6.17014 -3.3502 0
M  V30 10763 H 1033.22 1.7972 -2.37707 0
M  V30 10764 H 1030.76 0.877727 -1.18044 0
M  V30 10765 H 1032.71 3.99004 -1.21867 0
M  V30 10766 H 1031.34 3.20423 -0.391012 0
M  V30 10767 H 1030.4 2.63542 -2.74317 0
M  V30 10768 H 1031.71 3.61057 -3.44151 0
M  V30 10769 H 1030.86 5.63774 -2.24152 0
M  V30 10770 H 1029.6 4.66 -1.43859 0
M  V30 10771 H 1028.61 4.09172 -3.6723 0
M  V30 10772 H 1029.83 5.10359 -4.48007 0
M  V30 10773 H 1027.78 6.0812 -2.4602 0
M  V30 10774 H 1027.69 6.30107 -4.17733 0
M  V30 10775 H 1028.96 7.0742 -3.27379 0
M  V30 10776 N 1033.19 1.2685 0.935242 0
M  V30 10777 C 1034.14 1.08923 2.03481 0
M  V30 10778 C 1035.11 -0.00749786 1.66098 0
M  V30 10779 O 1036.29 0.153401 1.90182 0
M  V30 10780 C 1033.43 0.734529 3.37192 0
M  V30 10781 C 1032.55 1.90812 3.87576 0
M  V30 10782 C 1031.68 1.49599 5.097 0
M  V30 10783 C 1030.72 2.63752 5.5236 0
M  V30 10784 N 1029.86 2.23179 6.65684 0
M  V30 10785 H 1034.7 2.03016 2.18148 0
M  V30 10786 H 1032.23 1.01072 1.06878 0
M  V30 10787 H 1034.19 0.509734 4.14074 0
M  V30 10788 H 1032.82 -0.169438 3.22355 0
M  V30 10789 H 1031.87 2.24567 3.0704 0
M  V30 10790 H 1033.19 2.7647 4.1517 0
M  V30 10791 H 1032.34 1.23199 5.9406 0
M  V30 10792 H 1031.08 0.61039 4.83865 0
M  V30 10793 H 1030.08 2.90874 4.66554 0
M  V30 10794 H 1031.31 3.5292 5.80193 0
M  V30 10795 H 1029.26 1.37061 6.41522 0
M  V30 10796 H 1029.17 3.02379 6.92895 0
M  V30 10797 H 1030.44 2.00007 7.53404 0
M  V30 10798 N 1034.67 -1.14067 1.0875 0
M  V30 10799 C 1036.09 -1.37173 0.815823 0
M  V30 10800 C 1036.29 -1.93175 -0.573215 0
M  V30 10801 O 1035.34 -2.14672 -1.32937 0
M  V30 10802 C 1036.66 -2.32955 1.90138 0
M  V30 10803 C 1038.2 -2.46586 1.9278 0
M  V30 10804 C 1038.68 -3.4567 3.0046 0
M  V30 10805 N 1040.17 -3.53216 2.99655 0
M  V30 10806 C 1040.9 -4.29743 3.79616 0
M  V30 10807 N 1040.4 -5.09484 4.69466 0
M  V30 10808 N 1042.19 -4.24975 3.67903 0
M  V30 10809 H 1034.34 -0.760648 1.98313 0
M  V30 10810 H 1036.61 -0.397135 0.860807 0
M  V30 10811 H 1036.31 -1.98949 2.90021 0
M  V30 10812 H 1036.19 -3.32897 1.77368 0
M  V30 10813 H 1038.57 -2.79882 0.935404 0
M  V30 10814 H 1038.66 -1.46593 2.09629 0
M  V30 10815 H 1038.3 -3.13106 3.99909 0
M  V30 10816 H 1038.23 -4.45452 2.80856 0
M  V30 10817 H 1040.72 -2.96314 2.34535 0
M  V30 10818 H 1041.03 -5.65163 5.27077 0
M  V30 10819 H 1039.38 -5.08741 4.73506 0
M  V30 10820 H 1042.57 -3.61751 2.97075 0
M  V30 10821 H 1042.74 -4.84364 4.30459 0
M  V30 10822 N 1036.15 -0.873678 -1.31166 0
M  V30 10823 C 1037.43 -0.40698 -1.91319 0
M  V30 10824 C 1037.81 1.1113 -1.79481 0
M  V30 10825 O 1037.15 1.94155 -1.20483 0
M  V30 10826 C 1037.36 -0.892484 -3.37396 0
M  V30 10827 C 1038.71 -0.920795 -4.14496 0
M  V30 10828 O 1039.74 -0.838386 -3.46193 0
M  V30 10829 O 1038.59 -1.04069 -5.365 0
M  V30 10830 H 1035.69 -0.122439 -0.817886 0
M  V30 10831 H 1038.23 -0.961835 -1.3981 0
M  V30 10832 H 1037.01 -1.93613 -3.40044 0
M  V30 10833 H 1036.63 -0.31615 -3.96341 0
M  V30 10834 N 1037.63 1.44308 -0.633487 0
M  V30 10835 C 1038.54 2.34492 0.0711787 0
M  V30 10836 C 1039.55 1.52754 0.8332 0
M  V30 10837 O 1040.73 1.85475 0.784929 0
M  V30 10838 C 1037.79 3.30767 1.03895 0
M  V30 10839 C 1036.85 4.28412 0.276043 0
M  V30 10840 C 1036.09 5.20087 1.19772 0
M  V30 10841 O 1036.31 5.15743 2.4365 0
M  V30 10842 O 1035.24 5.98038 0.680764 0
M  V30 10843 H 1039.07 2.96203 -0.67063 0
M  V30 10844 H 1036.66 1.4412 -0.393678 0
M  V30 10845 H 1038.54 3.90021 1.59566 0
M  V30 10846 H 1037.21 2.71586 1.76133 0
M  V30 10847 H 1036.12 3.72696 -0.32377 0
M  V30 10848 H 1037.45 4.9052 -0.406364 0
M  V30 10849 N 1039.1 0.374177 1.53094 0
M  V30 10850 C 1040.52 0.0234783 1.59583 0
M  V30 10851 C 1040.72 -1.45984 1.38892 0
M  V30 10852 O 1039.78 -2.22251 1.19836 0
M  V30 10853 C 1041.09 0.487117 2.96728 0
M  V30 10854 C 1042.64 0.442073 3.09862 0
M  V30 10855 C 1043.11 0.881659 4.49434 0
M  V30 10856 N 1044.6 0.837062 4.55574 0
M  V30 10857 C 1045.34 1.14878 5.61774 0
M  V30 10858 N 1044.83 1.53022 6.75689 0
M  V30 10859 N 1046.63 1.07102 5.51802 0
M  V30 10860 H 1038.78 1.34003 1.64794 0
M  V30 10861 H 1041.04 0.548281 0.773364 0
M  V30 10862 H 1040.75 1.52252 3.17037 0
M  V30 10863 H 1040.62 -0.121772 3.77003 0
M  V30 10864 H 1043.01 -0.584216 2.89259 0
M  V30 10865 H 1043.09 1.08657 2.31576 0
M  V30 10866 H 1042.73 1.90611 4.70776 0
M  V30 10867 H 1042.66 0.214326 5.26164 0
M  V30 10868 H 1045.15 0.556173 3.73785 0
M  V30 10869 H 1045.47 1.75211 7.52676 0
M  V30 10870 H 1043.81 1.56895 6.77059 0
M  V30 10871 H 1047 0.772149 4.61688 0
M  V30 10872 H 1047.18 1.31728 6.3447 0
M  V30 10873 N 1040.58 -1.57259 0.103575 0
M  V30 10874 C 1041.99 -1.81816 -0.424239 0
M  V30 10875 C 1042.34 -1.01976 -1.67617 0
M  V30 10876 O 1041.47 -0.251673 -2.14932 0
M  V30 10877 C 1042.06 -3.29783 -0.776453 0
M  V30 10878 C 1040.62 -3.55074 -1.24897 0
M  V30 10879 C 1039.77 -2.76172 -0.249875 0
M  V30 10880 H 1042.72 -1.55254 0.328913 0
M  V30 10881 H 1042.74 -3.43569 -1.63526 0
M  V30 10882 H 1042.25 -3.87865 0.134906 0
M  V30 10883 H 1040.36 -3.02332 -2.17775 0
M  V30 10884 H 1040.47 -4.637 -1.20495 0
M  V30 10885 H 1038.83 -2.43902 -0.733767 0
M  V30 10886 H 1039.62 -3.37007 0.65431 0
M  V30 10887 N 1042.06 0.170153 -1.56679 0
M  V30 10888 C 1042.99 1.21285 -1.9953 0
M  V30 10889 C 1043.97 1.46104 -0.871071 0
M  V30 10890 O 1045.16 1.57419 -1.13724 0
M  V30 10891 C 1042.29 2.5515 -2.35618 0
M  V30 10892 C 1041.24 2.44898 -3.51011 0
M  V30 10893 C 1040.57 3.83263 -3.72845 0
M  V30 10894 C 1041.87 1.95271 -4.84424 0
M  V30 10895 H 1043.56 0.856646 -2.86883 0
M  V30 10896 H 1041.11 0.410634 -1.38021 0
M  V30 10897 H 1043.06 3.28299 -2.64193 0
M  V30 10898 H 1041.78 2.92561 -1.45175 0
M  V30 10899 H 1040.44 1.74203 -3.22566 0
M  V30 10900 H 1040.09 4.18069 -2.79691 0
M  V30 10901 H 1039.79 3.77272 -4.50488 0
M  V30 10902 H 1041.31 4.57996 -4.03822 0
M  V30 10903 H 1042.73 2.58195 -5.11867 0
M  V30 10904 H 1041.13 2.00225 -5.65712 0
M  V30 10905 H 1042.2 0.90709 -4.7634 0
M  V30 10906 N 1043.54 1.5137 0.438746 0
M  V30 10907 C 1044.79 1.63969 1.1883 0
M  V30 10908 C 1045.11 0.355245 1.91228 0
M  V30 10909 O 1044.37 -0.660605 1.84213 0
M  V30 10910 C 1044.67 2.79221 2.23093 0
M  V30 10911 C 1044.33 4.18547 1.67717 0
M  V30 10912 C 1043 4.5645 1.52337 0
M  V30 10913 C 1045.35 5.05494 1.26986 0
M  V30 10914 C 1042.68 5.79007 0.946996 0
M  V30 10915 C 1045.03 6.28628 0.707785 0
M  V30 10916 C 1043.69 6.65305 0.540881 0
M  V30 10917 H 1042.96 0.600003 0.43483 0
M  V30 10918 H 1045.61 1.85398 0.479565 0
M  V30 10919 H 1043.91 2.52008 2.99999 0
M  V30 10920 H 1045.61 2.86168 2.80907 0
M  V30 10921 H 1042.2 3.88663 1.80663 0
M  V30 10922 H 1046.38 4.76818 1.37689 0
M  V30 10923 H 1041.64 6.06072 0.805432 0
M  V30 10924 H 1045.81 6.95342 0.38366 0
M  V30 10925 H 1043.44 7.60144 0.0921324 0
M  V30 10926 N 1045.02 -0.694098 1.41492 0
M  V30 10927 C 1046.43 -1.27407 1.36471 0
M  V30 10928 C 1046.78 -1.9614 0.0485209 0
M  V30 10929 O 1045.9 -1.98871 -0.853188 0
M  V30 10930 C 1046.5 -2.31698 2.47188 0
M  V30 10931 C 1045.06 -2.85268 2.45559 0
M  V30 10932 C 1044.2 -1.59325 2.2696 0
M  V30 10933 H 1047.16 -0.488756 1.50986 0
M  V30 10934 H 1047.18 -3.1302 2.1633 0
M  V30 10935 H 1046.69 -1.81644 3.42968 0
M  V30 10936 H 1044.79 -3.39494 1.5354 0
M  V30 10937 H 1044.9 -3.35598 3.41922 0
M  V30 10938 H 1043.27 -1.85188 1.74864 0
M  V30 10939 H 1044.05 -1.11265 3.24769 0
M  V30 10940 N 1046.49 -1.27344 -0.928501 0
M  V30 10941 C 1047.43 -1.05797 -2.03322 0
M  V30 10942 C 1048.44 -0.0143086 -1.62794 0
M  V30 10943 O 1049.63 -0.25578 -1.76658 0
M  V30 10944 C 1046.73 -0.582673 -3.33853 0
M  V30 10945 C 1045.9 -1.69844 -4.03078 0
M  V30 10946 C 1044.96 -1.21902 -5.11885 0
M  V30 10947 O 1043.99 -1.91853 -5.35893 0
M  V30 10948 N 1045.19 -0.0742392 -5.80453 0
M  V30 10949 H 1047.95 -2.00928 -2.22369 0
M  V30 10950 H 1045.51 -1.189 -1.09883 0
M  V30 10951 H 1047.51 -0.245862 -4.03952 0
M  V30 10952 H 1046.08 0.27539 -3.11385 0
M  V30 10953 H 1045.3 -2.20557 -3.26723 0
M  V30 10954 H 1046.58 -2.4473 -4.46077 0
M  V30 10955 H 1045.98 0.509631 -5.634 0
M  V30 10956 H 1044.54 0.203399 -6.51483 0
M  V30 10957 N 1047.97 1.13488 -1.09353 0
M  V30 10958 C 1049.22 1.841 -0.82401 0
M  V30 10959 C 1049.53 1.84393 0.652586 0
M  V30 10960 O 1050.74 2.5089 1.03762 0
M  V30 10961 C 1049.2 3.30523 -1.42418 0
M  V30 10962 C 1048.8 3.38621 -2.93326 0
M  V30 10963 C 1050.55 4.06182 -1.23356 0
M  V30 10964 C 1048.46 4.79311 -3.46432 0
M  V30 10965 H 1047.39 0.68974 -0.304589 0
M  V30 10966 H 1050.04 1.27866 -1.31615 0
M  V30 10967 H 1048.42 3.86555 -0.859727 0
M  V30 10968 H 1049.59 2.92587 -3.5599 0
M  V30 10969 H 1047.91 2.76426 -3.11412 0
M  V30 10970 H 1050.5 5.10047 -1.60488 0
M  V30 10971 H 1050.85 4.15936 -0.174152 0
M  V30 10972 H 1051.38 3.56477 -1.76547 0
M  V30 10973 H 1048.12 4.74748 -4.5199 0
M  V30 10974 H 1047.64 5.25842 -2.8853 0
M  V30 10975 H 1049.32 5.48227 -3.43593 0
M  V30 10976 N 1049.45 0.880621 1.30701 0
M  V30 10977 C 1050.38 0.360251 2.30704 0
M  V30 10978 C 1051.36 -0.554572 1.60806 0
M  V30 10979 O 1052.55 -0.469345 1.88443 0
M  V30 10980 C 1049.68 -0.429888 3.44629 0
M  V30 10981 C 1048.63 0.392786 4.26194 0
M  V30 10982 C 1047.96 -0.52369 5.32129 0
M  V30 10983 C 1049.26 1.63258 4.96129 0
M  V30 10984 H 1050.95 1.19591 2.74478 0
M  V30 10985 H 1048.5 0.576508 1.31956 0
M  V30 10986 H 1050.45 -0.804532 4.13649 0
M  V30 10987 H 1049.17 -1.29916 2.99649 0
M  V30 10988 H 1047.83 0.749514 3.58856 0
M  V30 10989 H 1047.48 -1.39054 4.83397 0
M  V30 10990 H 1047.18 0.0229272 5.87596 0
M  V30 10991 H 1048.71 -0.894946 6.04006 0
M  V30 10992 H 1050.12 1.32877 5.57689 0
M  V30 10993 H 1048.52 2.11906 5.61441 0
M  V30 10994 H 1049.59 2.37944 4.22505 0
M  V30 10995 N 1050.93 -1.4397 0.641131 0
M  V30 10996 C 1051.89 -2.29149 -0.0482243 0
M  V30 10997 C 1052.89 -1.41572 -0.762495 0
M  V30 10998 O 1054.08 -1.63335 -0.605571 0
M  V30 10999 C 1051.21 -3.23375 -1.07896 0
M  V30 11000 H 1052.41 -2.9159 0.70109 0
M  V30 11001 H 1049.96 -1.51048 0.401754 0
M  V30 11002 H 1050.7 -2.65804 -1.85792 0
M  V30 11003 H 1050.48 -3.87926 -0.570597 0
M  V30 11004 H 1051.97 -3.87337 -1.56075 0
M  V30 11005 N 1052.41 -0.382291 -1.52893 0
M  V30 11006 C 1053.63 0.204961 -2.06385 0
M  V30 11007 C 1054.06 1.40316 -1.25271 0
M  V30 11008 O 1053.42 1.79187 -0.275969 0
M  V30 11009 C 1053.46 0.560205 -3.56222 0
M  V30 11010 O 1052.57 1.65515 -3.77728 0
M  V30 11011 H 1051.91 0.0258798 -0.663495 0
M  V30 11012 H 1054.44 -0.547733 -1.97132 0
M  V30 11013 H 1054.45 0.826501 -3.99541 0
M  V30 11014 H 1053.12 -0.31584 -4.14699 0
M  V30 11015 H 1051.7 1.38311 -3.46301 0
M  V30 11016 N 1053.89 1.57202 -0.111913 0
M  V30 11017 C 1055.13 1.94125 0.547573 0
M  V30 11018 C 1055.45 0.997026 1.68282 0
M  V30 11019 O 1056.65 1.26063 2.40459 0
M  V30 11020 C 1055.11 3.44982 1.02545 0
M  V30 11021 C 1054.72 4.47927 -0.0809529 0
M  V30 11022 C 1056.46 3.90837 1.65671 0
M  V30 11023 C 1054.37 5.89955 0.413224 0
M  V30 11024 H 1053.3 0.724651 0.208321 0
M  V30 11025 H 1055.95 1.82507 -0.190625 0
M  V30 11026 H 1054.33 3.5181 1.81785 0
M  V30 11027 H 1055.51 4.52761 -0.857003 0
M  V30 11028 H 1053.82 4.11782 -0.618434 0
M  V30 11029 H 1056.42 4.9436 2.03746 0
M  V30 11030 H 1056.76 3.30417 2.53239 0
M  V30 11031 H 1057.29 3.8678 0.929844 0
M  V30 11032 H 1054.03 6.54113 -0.426238 0
M  V30 11033 H 1053.55 5.88557 1.15591 0
M  V30 11034 H 1055.23 6.41032 0.876756 0
M  V30 11035 N 1055.36 -0.161842 1.56767 0
M  V30 11036 C 1056.27 -1.21996 2.00385 0
M  V30 11037 C 1057.29 -1.4789 0.916768 0
M  V30 11038 O 1058.47 -1.59852 1.22513 0
M  V30 11039 C 1055.53 -2.53695 2.36305 0
M  V30 11040 C 1054.59 -2.3558 3.58888 0
M  V30 11041 C 1053.82 -3.60998 3.93085 0
M  V30 11042 O 1054.05 -4.6657 3.28129 0
M  V30 11043 O 1052.98 -3.54544 4.86397 0
M  V30 11044 H 1056.81 -0.879701 2.9068 0
M  V30 11045 H 1054.39 -0.369437 1.4476 0
M  V30 11046 H 1056.27 -3.31366 2.60335 0
M  V30 11047 H 1054.95 -2.87281 1.49169 0
M  V30 11048 H 1053.86 -1.55908 3.40064 0
M  V30 11049 H 1055.19 -2.06915 4.46595 0
M  V30 11050 N 1056.84 -1.516 -0.430713 0
M  V30 11051 C 1057.77 -1.76342 -1.53054 0
M  V30 11052 C 1058.75 -0.61349 -1.58652 0
M  V30 11053 O 1059.94 -0.856888 -1.74273 0
M  V30 11054 C 1057.07 -1.8945 -2.91077 0
M  V30 11055 C 1056.02 -3.04928 -3.00339 0
M  V30 11056 C 1055.35 -3.03228 -4.40405 0
M  V30 11057 C 1056.65 -4.44777 -2.73808 0
M  V30 11058 H 1058.34 -2.68435 -1.326 0
M  V30 11059 H 1055.89 -1.29171 -0.636466 0
M  V30 11060 H 1057.84 -2.05343 -3.67984 0
M  V30 11061 H 1056.56 -0.940114 -3.12777 0
M  V30 11062 H 1055.22 -2.88751 -2.25872 0
M  V30 11063 H 1054.87 -2.05553 -4.59083 0
M  V30 11064 H 1054.57 -3.80776 -4.47531 0
M  V30 11065 H 1056.1 -3.21222 -5.19277 0
M  V30 11066 H 1057.51 -4.6127 -3.40445 0
M  V30 11067 H 1055.91 -5.2408 -2.92335 0
M  V30 11068 H 1056.98 -4.54358 -1.69372 0
M  V30 11069 N 1058.32 0.686584 -1.41858 0
M  V30 11070 C 1059.25 1.81264 -1.47193 0
M  V30 11071 C 1060.23 1.66875 -0.329657 0
M  V30 11072 O 1061.42 1.86473 -0.542347 0
M  V30 11073 C 1058.55 3.19472 -1.36216 0
M  V30 11074 C 1057.5 3.4858 -2.48347 0
M  V30 11075 C 1056.83 4.86239 -2.22432 0
M  V30 11076 C 1058.13 3.46653 -3.90678 0
M  V30 11077 H 1059.82 1.77057 -2.41436 0
M  V30 11078 H 1057.37 0.850415 -1.16206 0
M  V30 11079 H 1059.32 3.97969 -1.38558 0
M  V30 11080 H 1058.04 3.24327 -0.384611 0
M  V30 11081 H 1056.7 2.72437 -2.45303 0
M  V30 11082 H 1056.35 4.8773 -1.22999 0
M  V30 11083 H 1056.05 5.06677 -2.97577 0
M  V30 11084 H 1057.57 5.67034 -2.26505 0
M  V30 11085 H 1058.99 4.15139 -3.95389 0
M  V30 11086 H 1057.38 3.78625 -4.65578 0
M  V30 11087 H 1058.45 2.45451 -4.18189 0
M  V30 11088 N 1059.8 1.27835 0.921735 0
M  V30 11089 C 1060.76 1.11108 2.00469 0
M  V30 11090 C 1061.76 0.053203 1.60712 0
M  V30 11091 O 1062.95 0.298308 1.71627 0
M  V30 11092 C 1060.08 0.694269 3.33755 0
M  V30 11093 H 1061.28 2.07279 2.16738 0
M  V30 11094 H 1058.83 1.10708 1.10333 0
M  V30 11095 H 1059.56 -0.268561 3.23186 0
M  V30 11096 H 1059.35 1.45836 3.6397 0
M  V30 11097 H 1060.84 0.59965 4.13272 0
M  V30 11098 N 1061.28 -1.12907 1.09954 0
M  V30 11099 C 1062.69 -1.363 0.830326 0
M  V30 11100 C 1062.89 -1.93772 -0.552694 0
M  V30 11101 O 1061.95 -2.1607 -1.30652 0
M  V30 11102 C 1063.26 -2.30925 1.92598 0
M  V30 11103 C 1064.81 -2.44528 1.95385 0
M  V30 11104 C 1065.28 -3.42464 3.0411 0
M  V30 11105 N 1066.77 -3.50018 3.03384 0
M  V30 11106 C 1067.51 -4.25693 3.84152 0
M  V30 11107 N 1067.01 -5.04476 4.74843 0
M  V30 11108 N 1068.8 -4.21049 3.7239 0
M  V30 11109 H 1060.95 -0.739571 1.99108 0
M  V30 11110 H 1063.21 -0.387983 0.86497 0
M  V30 11111 H 1062.92 -1.95861 2.92115 0
M  V30 11112 H 1062.79 -3.30997 1.80889 0
M  V30 11113 H 1065.18 -2.78875 0.965037 0
M  V30 11114 H 1065.26 -1.44361 2.11172 0
M  V30 11115 H 1064.9 -3.08847 4.03207 0
M  V30 11116 H 1064.83 -4.42448 2.85565 0
M  V30 11117 H 1067.33 -2.93809 2.37665 0
M  V30 11118 H 1067.64 -5.59541 5.33042 0
M  V30 11119 H 1065.98 -5.0369 4.78875 0
M  V30 11120 H 1069.17 -3.5858 3.00895 0
M  V30 11121 H 1069.35 -4.79771 4.35572 0
M  V30 11122 N 1062.75 -0.88754 -1.30232 0
M  V30 11123 C 1063.98 -0.521562 -2.00735 0
M  V30 11124 C 1064.4 0.883247 -1.66073 0
M  V30 11125 O 1063.76 1.58581 -0.878731 0
M  V30 11126 C 1063.81 -0.706521 -3.53611 0
M  V30 11127 O 1062.91 0.246447 -4.11663 0
M  V30 11128 H 1062.25 -0.205216 -0.631492 0
M  V30 11129 H 1064.78 -1.19579 -1.66018 0
M  V30 11130 H 1064.79 -0.606501 -4.03467 0
M  V30 11131 H 1063.47 -1.73076 -3.78177 0
M  V30 11132 H 1062.05 0.0999062 -3.72766 0
M  V30 11133 N 1064.23 1.43628 -0.648757 0
M  V30 11134 C 1065.16 2.33478 0.0320785 0
M  V30 11135 C 1066.14 1.49217 0.816605 0
M  V30 11136 O 1067.33 1.77892 0.778974 0
M  V30 11137 C 1064.46 3.32525 1.00222 0
M  V30 11138 C 1063.41 4.2674 0.328119 0
M  V30 11139 C 1062.74 5.15791 1.4094 0
M  V30 11140 C 1064.04 5.16493 -0.776701 0
M  V30 11141 H 1065.73 2.90657 -0.718257 0
M  V30 11142 H 1063.28 1.3976 -0.346852 0
M  V30 11143 H 1065.23 3.94277 1.4874 0
M  V30 11144 H 1063.96 2.73593 1.78366 0
M  V30 11145 H 1062.61 3.66346 -0.136569 0
M  V30 11146 H 1062.26 4.53201 2.18216 0
M  V30 11147 H 1061.96 5.79645 0.963631 0
M  V30 11148 H 1063.49 5.80416 1.89603 0
M  V30 11149 H 1064.9 5.7208 -0.373878 0
M  V30 11150 H 1063.3 5.89043 -1.14667 0
M  V30 11151 H 1064.37 4.56448 -1.63654 0
M  V30 11152 N 1065.71 0.390394 1.52688 0
M  V30 11153 C 1067.12 -0.083394 1.86514 0
M  V30 11154 C 1067.47 -1.46057 1.31003 0
M  V30 11155 O 1066.6 -2.06663 0.641809 0
M  V30 11156 C 1067.19 -0.158102 3.38431 0
M  V30 11157 C 1065.75 -0.576186 3.71964 0
M  V30 11158 C 1064.9 0.261156 2.76068 0
M  V30 11159 H 1067.85 0.608226 1.46582 0
M  V30 11160 H 1067.87 -0.977023 3.67742 0
M  V30 11161 H 1067.38 0.844365 3.78803 0
M  V30 11162 H 1065.48 -1.58598 3.37161 0
M  V30 11163 H 1065.6 -0.333577 4.77937 0
M  V30 11164 H 1063.96 -0.273737 2.53225 0
M  V30 11165 H 1064.74 1.26162 3.19277 0
M  V30 11166 N 1067.19 -1.57141 0.120249 0
M  V30 11167 C 1068.14 -2.15379 -0.829497 0
M  V30 11168 C 1069.11 -1.07913 -1.2627 0
M  V30 11169 O 1070.29 -1.35827 -1.33999 0
M  V30 11170 C 1067.43 -2.75847 -2.0737 0
M  V30 11171 C 1066.54 -3.97624 -1.68875 0
M  V30 11172 C 1065.68 -4.46175 -2.88272 0
M  V30 11173 C 1064.72 -5.60481 -2.46023 0
M  V30 11174 N 1063.85 -6.0377 -3.58337 0
M  V30 11175 H 1068.69 -2.96211 -0.326031 0
M  V30 11176 H 1066.23 -1.46341 -0.149235 0
M  V30 11177 H 1068.19 -3.09037 -2.80272 0
M  V30 11178 H 1066.82 -1.97703 -2.55174 0
M  V30 11179 H 1065.87 -3.70588 -0.858431 0
M  V30 11180 H 1067.18 -4.80512 -1.33827 0
M  V30 11181 H 1066.34 -4.8128 -3.69397 0
M  V30 11182 H 1065.08 -3.6224 -3.26548 0
M  V30 11183 H 1064.08 -5.24979 -1.63331 0
M  V30 11184 H 1065.31 -6.46184 -2.08863 0
M  V30 11185 H 1063.25 -5.22776 -3.96284 0
M  V30 11186 H 1063.17 -6.81517 -3.27217 0
M  V30 11187 H 1064.44 -6.43514 -4.39898 0
M  V30 11188 N 1068.67 0.153526 -1.5685 0
M  V30 11189 C 1069.92 0.865628 -1.82181 0
M  V30 11190 C 1070.23 1.82629 -0.700434 0
M  V30 11191 O 1071.43 2.58206 -0.839155 0
M  V30 11192 C 1069.89 1.58993 -3.22877 0
M  V30 11193 C 1069.5 0.672006 -4.42931 0
M  V30 11194 C 1071.24 2.2892 -3.57486 0
M  V30 11195 C 1069.15 1.39755 -5.7465 0
M  V30 11196 H 1068.08 0.326993 -0.679406 0
M  V30 11197 H 1070.73 0.118403 -1.83118 0
M  V30 11198 H 1069.11 2.38255 -3.16308 0
M  V30 11199 H 1070.29 -0.0849226 -4.60722 0
M  V30 11200 H 1068.6 0.0814825 -4.1632 0
M  V30 11201 H 1071.2 2.8383 -4.5315 0
M  V30 11202 H 1071.54 3.05105 -2.83226 0
M  V30 11203 H 1072.07 1.56583 -3.65686 0
M  V30 11204 H 1068.81 0.677686 -6.51987 0
M  V30 11205 H 1068.33 2.12736 -5.60806 0
M  V30 11206 H 1070.01 1.94024 -6.17223 0
M  V30 11207 N 1070.14 1.51827 0.422667 0
M  V30 11208 C 1071.09 1.7058 1.51282 0
M  V30 11209 C 1072.08 0.5597 1.50851 0
M  V30 11210 O 1073.27 0.816223 1.57057 0
M  V30 11211 C 1070.4 1.84759 2.89342 0
M  V30 11212 C 1069.49 3.05199 2.94473 0
M  V30 11213 N 1069.88 4.28135 2.69322 0
M  V30 11214 C 1068.17 3.04755 3.25638 0
M  V30 11215 C 1068.88 5.09507 2.80674 0
M  V30 11216 N 1067.85 4.44464 3.12974 0
M  V30 11217 H 1071.65 2.63283 1.30611 0
M  V30 11218 H 1069.17 1.49674 0.630191 0
M  V30 11219 H 1071.16 1.96308 3.67789 0
M  V30 11220 H 1069.82 0.932478 3.11022 0
M  V30 11221 H 1070.84 4.56835 2.43972 0
M  V30 11222 H 1067.51 2.2293 3.52999 0
M  V30 11223 H 1068.9 6.17409 2.65058 0
M  V30 11224 N 1071.62 -0.679052 1.4222 0
M  V30 11225 C 1073.04 -0.991665 1.25053 0
M  V30 11226 C 1073.24 -2.00928 0.151665 0
M  V30 11227 O 1072.29 -2.47925 -0.478507 0
M  V30 11228 C 1073.61 -1.50053 2.60585 0
M  V30 11229 C 1075.16 -1.61852 2.67905 0
M  V30 11230 C 1075.63 -2.16135 4.03794 0
M  V30 11231 N 1077.12 -2.23474 4.05726 0
M  V30 11232 C 1077.86 -2.66541 5.07685 0
M  V30 11233 N 1077.35 -3.09092 6.20028 0
M  V30 11234 N 1079.15 -2.66252 4.95042 0
M  V30 11235 H 1071.3 -0.00521851 2.12399 0
M  V30 11236 H 1073.56 -0.0648465 0.94578 0
M  V30 11237 H 1073.27 -0.82731 3.41831 0
M  V30 11238 H 1073.14 -2.47998 2.84213 0
M  V30 11239 H 1075.53 -2.28281 1.87008 0
M  V30 11240 H 1075.61 -0.624074 2.4807 0
M  V30 11241 H 1075.25 -1.50316 4.85147 0
M  V30 11242 H 1075.18 -3.16363 4.20978 0
M  V30 11243 H 1077.67 -1.93467 3.24621 0
M  V30 11244 H 1077.99 -3.40627 6.93681 0
M  V30 11245 H 1076.33 -3.06959 6.23539 0
M  V30 11246 H 1079.52 -2.32369 4.06352 0
M  V30 11247 H 1079.69 -2.99496 5.74636 0
M  V30 11248 N 1073.1 -1.28322 -0.914942 0
M  V30 11249 C 1074.33 -1.1837 -1.70304 0
M  V30 11250 C 1074.75 0.254291 -1.86373 0
M  V30 11251 O 1074.11 1.18398 -1.37301 0
M  V30 11252 C 1074.16 -1.88603 -3.07346 0
M  V30 11253 O 1073.26 -1.19268 -3.94777 0
M  V30 11254 H 1072.6 -0.410978 -0.52153 0
M  V30 11255 H 1075.13 -1.69622 -1.14409 0
M  V30 11256 H 1075.14 -1.96463 -3.57584 0
M  V30 11257 H 1073.82 -2.93201 -2.94967 0
M  V30 11258 H 1072.39 -1.19563 -3.53212 0
M  V30 11259 N 1074.58 1.12322 -1.10551 0
M  V30 11260 C 1075.54 2.16273 -0.758844 0
M  V30 11261 C 1076.54 1.59325 0.217294 0
M  V30 11262 O 1077.73 1.74199 -0.00601346 0
M  V30 11263 C 1074.86 3.40674 -0.124238 0
M  V30 11264 H 1076.06 2.48454 -1.6796 0
M  V30 11265 H 1073.61 1.2735 -0.906188 0
M  V30 11266 H 1074.34 3.14094 0.807194 0
M  V30 11267 H 1074.13 3.83284 -0.826772 0
M  V30 11268 H 1075.62 4.17474 0.102502 0
M  V30 11269 N 1076.06 0.894434 1.2976 0
M  V30 11270 C 1077.28 0.5322 2.00455 0
M  V30 11271 C 1077.71 -0.874427 1.66539 0
M  V30 11272 O 1077.06 -1.58113 0.887129 0
M  V30 11273 C 1077.11 0.725264 3.53231 0
M  V30 11274 O 1076.22 -0.224612 4.11788 0
M  V30 11275 H 1075.56 0.208562 0.630395 0
M  V30 11276 H 1078.09 1.20458 1.65382 0
M  V30 11277 H 1078.1 0.627889 4.0314 0
M  V30 11278 H 1076.77 1.75079 3.77253 0
M  V30 11279 H 1075.35 -0.0801361 3.72814 0
M  V30 11280 N 1077.53 -1.43282 0.656365 0
M  V30 11281 C 1078.44 -2.34576 -0.033864 0
M  V30 11282 C 1079.46 -1.5406 -0.808793 0
M  V30 11283 O 1080.64 -1.867 -0.755322 0
M  V30 11284 C 1077.7 -3.32378 -0.986197 0
M  V30 11285 C 1076.76 -4.28797 -0.207851 0
M  V30 11286 C 1076 -5.21927 -1.11482 0
M  V30 11287 O 1076.22 -5.19554 -2.35414 0
M  V30 11288 O 1075.15 -5.99045 -0.585536 0
M  V30 11289 H 1078.98 -2.95099 0.717668 0
M  V30 11290 H 1076.56 -1.43475 0.416556 0
M  V30 11291 H 1078.45 -3.9251 -1.53341 0
M  V30 11292 H 1077.12 -2.74354 -1.7179 0
M  V30 11293 H 1076.03 -3.72134 0.383022 0
M  V30 11294 H 1077.36 -4.89811 0.48435 0
M  V30 11295 N 1079.01 -0.398486 -1.52479 0
M  V30 11296 C 1080.42 0.0735015 -1.86555 0
M  V30 11297 C 1080.78 1.45361 -1.31775 0
M  V30 11298 O 1079.9 2.0632 -0.652759 0
M  V30 11299 C 1080.5 0.140152 -3.3851 0
M  V30 11300 C 1079.05 0.556451 -3.72264 0
M  V30 11301 C 1078.2 -0.275792 -2.75925 0
M  V30 11302 H 1081.15 -0.615991 -1.46257 0
M  V30 11303 H 1081.17 0.957507 -3.68255 0
M  V30 11304 H 1080.69 -0.864442 -3.7835 0
M  V30 11305 H 1078.79 1.56808 -3.37997 0
M  V30 11306 H 1078.9 0.308227 -4.78107 0
M  V30 11307 H 1077.26 0.260304 -2.53366 0
M  V30 11308 H 1078.05 -1.27854 -3.18604 0
M  V30 11309 N 1080.49 1.57075 -0.12858 0
M  V30 11310 C 1081.72 2.00305 0.537839 0
M  V30 11311 C 1082.14 1.00787 1.58819 0
M  V30 11312 O 1081.5 -0.0190839 1.8129 0
M  V30 11313 C 1081.55 3.42371 1.13201 0
M  V30 11314 O 1080.65 3.45786 2.24735 0
M  V30 11315 H 1079.99 0.650456 0.133428 0
M  V30 11316 H 1082.52 2.03415 -0.219882 0
M  V30 11317 H 1082.53 3.80783 1.4652 0
M  V30 11318 H 1081.21 4.14315 0.362713 0
M  V30 11319 H 1079.78 3.19201 1.92783 0
M  V30 11320 N 1081.97 -0.145205 1.5693 0
M  V30 11321 C 1082.9 -1.18096 2.01434 0
M  V30 11322 C 1083.88 -1.447 0.894204 0
M  V30 11323 O 1085.07 -1.55589 1.16214 0
M  V30 11324 C 1082.2 -2.51369 2.39647 0
M  V30 11325 C 1081.15 -2.39283 3.54863 0
M  V30 11326 C 1080.48 -3.77283 3.78895 0
M  V30 11327 C 1081.78 -1.8754 4.87469 0
M  V30 11328 H 1083.47 -0.810897 2.8821 0
M  V30 11329 H 1081.02 -0.388624 1.38657 0
M  V30 11330 H 1082.97 -3.24054 2.69382 0
M  V30 11331 H 1081.69 -2.90214 1.49811 0
M  V30 11332 H 1080.35 -1.6905 3.25296 0
M  V30 11333 H 1080 -4.13567 2.86307 0
M  V30 11334 H 1079.7 -3.70057 4.56433 0
M  V30 11335 H 1081.22 -4.51514 4.11057 0
M  V30 11336 H 1082.64 -2.50019 5.1591 0
M  V30 11337 H 1081.03 -1.912 5.68826 0
M  V30 11338 H 1082.1 -0.831194 4.77723 0
M  V30 11339 N 1083.45 -1.52049 -0.414609 0
M  V30 11340 C 1084.4 -1.75603 -1.52533 0
M  V30 11341 C 1085.39 -0.622965 -1.57529 0
M  V30 11342 O 1086.6 -0.804886 -1.61002 0
M  V30 11343 H 1082.97 -0.555222 -0.507181 0
M  V30 11344 H 1084.94 -2.68666 -1.2985 0
M  V30 11345 C 1083.69 -1.9188 -2.89961 0
M  V30 11346 H 1083.01 -2.78483 -2.86857 0
M  V30 11347 H 1084.45 -2.12363 -3.66985 0
M  V30 11348 C 1082.91 -0.684453 -3.29874 0
M  V30 11349 O 1083.44 0.150256 -4.01419 0
M  V30 11350 N 1081.65 -0.521936 -2.85874 0
M  V30 11351 H 1081.2 -1.20229 -2.27822 0
M  V30 11352 H 1081.15 0.302655 -3.1294 0
M  V30 11353 N 1084.93 0.6715 -1.42579 0
M  V30 11354 C 1086.34 0.985019 -1.25577 0
M  V30 11355 C 1086.54 2.00845 -0.162319 0
M  V30 11356 O 1085.6 2.48175 0.465352 0
M  V30 11357 C 1086.91 1.48668 -2.61377 0
M  V30 11358 C 1088.46 1.60429 -2.68759 0
M  V30 11359 C 1088.93 2.13991 -4.04935 0
M  V30 11360 N 1090.42 2.21319 -4.06906 0
M  V30 11361 C 1091.16 2.63845 -5.09091 0
M  V30 11362 N 1090.66 3.05799 -6.21658 0
M  V30 11363 N 1092.45 2.63623 -4.96447 0
M  V30 11364 H 1084.6 -0.00604561 -2.12399 0
M  V30 11365 H 1086.86 0.0598299 -0.94611 0
M  V30 11366 H 1086.57 0.80917 -3.42265 0
M  V30 11367 H 1086.44 2.46487 -2.85524 0
M  V30 11368 H 1088.83 2.27286 -1.88216 0
M  V30 11369 H 1088.91 0.610909 -2.48398 0
M  V30 11370 H 1088.55 1.47741 -4.85937 0
M  V30 11371 H 1088.48 3.14126 -4.2265 0
M  V30 11372 H 1090.98 1.91743 -3.25643 0
M  V30 11373 H 1091.29 3.36944 -6.95477 0
M  V30 11374 H 1089.63 3.03648 -6.25158 0
M  V30 11375 H 1092.82 2.30211 -4.07579 0
M  V30 11376 H 1093 2.96444 -5.76216 0
M  V30 11377 N 1086.4 1.28806 0.908124 0
M  V30 11378 C 1087.37 1.13228 1.99279 0
M  V30 11379 C 1088.37 0.0702456 1.60646 0
M  V30 11380 O 1089.56 0.316494 1.71301 0
M  V30 11381 C 1086.69 0.729629 3.33 0
M  V30 11382 H 1087.88 2.09566 2.14528 0
M  V30 11383 H 1085.43 1.11872 1.09153 0
M  V30 11384 H 1086.17 -0.234268 3.23453 0
M  V30 11385 H 1085.95 1.49688 3.62403 0
M  V30 11386 H 1087.44 0.643449 4.12613 0
M  V30 11387 N 1087.88 -1.11734 1.11145 0
M  V30 11388 C 1089.13 -1.83043 0.856717 0
M  V30 11389 C 1089.45 -1.84901 -0.619407 0
M  V30 11390 O 1088.72 -1.31738 -1.44989 0
M  V30 11391 H 1087.3 -0.677823 0.31395 0
M  V30 11392 H 1089.96 -1.35262 1.40322 0
M  V30 11393 H 1089.06 -2.87005 1.22616 0
M  V30 11394 N 1089.36 -0.901303 -1.29284 0
M  V30 11395 C 1090.61 -0.528043 -1.95494 0
M  V30 11396 C 1090.93 0.92597 -1.71044 0
M  V30 11397 O 1090.19 1.67185 -1.01723 0
M  V30 11398 C 1090.49 -0.768828 -3.49033 0
M  V30 11399 C 1090.15 -2.20045 -3.93562 0
M  V30 11400 C 1088.82 -2.59189 -4.05431 0
M  V30 11401 C 1091.17 -3.13266 -4.1655 0
M  V30 11402 C 1088.5 -3.90733 -4.37658 0
M  V30 11403 C 1090.85 -4.4436 -4.50252 0
M  V30 11404 C 1089.51 -4.83375 -4.60331 0
M  V30 11405 H 1088.78 -0.193225 -0.715364 0
M  V30 11406 H 1091.43 -1.14027 -1.53851 0
M  V30 11407 H 1089.73 -0.0736997 -3.91731 0
M  V30 11408 H 1091.43 -0.459384 -3.9836 0
M  V30 11409 H 1088.02 -1.88666 -3.84842 0
M  V30 11410 H 1092.21 -2.84237 -4.06845 0
M  V30 11411 H 1087.46 -4.2068 -4.43665 0
M  V30 11412 H 1091.64 -5.16618 -4.66989 0
M  V30 11413 H 1089.26 -5.8534 -4.85058 0
M  V30 11414 N 1090.84 1.42931 -0.663954 0
M  V30 11415 C 1091.77 2.29122 0.0598878 0
M  V30 11416 C 1092.78 1.43094 0.776404 0
M  V30 11417 O 1093.97 1.66923 0.63237 0
M  V30 11418 C 1091.07 3.20268 1.10822 0
M  V30 11419 C 1090.24 4.34892 0.4677 0
M  V30 11420 C 1089.3 5.06836 1.41435 0
M  V30 11421 O 1088.33 5.61735 0.918818 0
M  V30 11422 N 1089.53 5.11336 2.74801 0
M  V30 11423 H 1092.3 2.91885 -0.679945 0
M  V30 11424 H 1089.86 1.53739 -0.507543 0
M  V30 11425 H 1091.85 3.65264 1.74255 0
M  V30 11426 H 1090.42 2.59031 1.7499 0
M  V30 11427 H 1089.64 3.92679 -0.34593 0
M  V30 11428 H 1090.93 5.08796 0.0210237 0
M  V30 11429 H 1090.33 4.68124 3.1761 0
M  V30 11430 H 1088.88 5.60013 3.33509 0
M  V30 11431 N 1092.32 0.406567 1.52266 0
M  V30 11432 C 1093.54 -0.169624 2.06204 0
M  V30 11433 C 1093.96 -1.39076 1.27684 0
M  V30 11434 O 1093.32 -1.79528 0.328023 0
M  V30 11435 C 1093.37 -0.522611 3.57702 0
M  V30 11436 O 1093.09 0.650028 4.33251 0
M  V30 11437 C 1094.59 -1.15281 4.28048 0
M  V30 11438 H 1091.81 -0.0215191 0.670655 0
M  V30 11439 H 1094.35 0.576781 1.96198 0
M  V30 11440 H 1092.51 -1.21891 3.67725 0
M  V30 11441 H 1092.92 0.355989 5.23291 0
M  V30 11442 H 1094.4 -1.35002 5.35237 0
M  V30 11443 H 1094.87 -2.12517 3.84361 0
M  V30 11444 H 1095.48 -0.496786 4.22389 0
M  V30 11445 N 1093.79 -1.57004 0.136909 0
M  V30 11446 C 1094.7 -2.19807 -0.819887 0
M  V30 11447 C 1095.72 -1.17939 -1.27932 0
M  V30 11448 O 1096.9 -1.50478 -1.3386 0
M  V30 11449 C 1093.96 -2.79935 -2.04542 0
M  V30 11450 C 1093.02 -3.96897 -1.6362 0
M  V30 11451 C 1092.26 -4.54148 -2.80331 0
M  V30 11452 O 1092.48 -4.10282 -3.96264 0
M  V30 11453 O 1091.41 -5.44565 -2.56384 0
M  V30 11454 H 1095.24 -3.02058 -0.315337 0
M  V30 11455 H 1092.82 -1.49131 -0.0896151 0
M  V30 11456 H 1094.71 -3.18191 -2.76283 0
M  V30 11457 H 1093.38 -2.00703 -2.53969 0
M  V30 11458 H 1092.29 -3.63376 -0.889316 0
M  V30 11459 H 1093.62 -4.77618 -1.18918 0
M  V30 11460 N 1095.27 0.136881 -1.57004 0
M  V30 11461 C 1096.55 0.87705 -1.74835 0
M  V30 11462 C 1096.93 1.98886 -0.707639 0
M  V30 11463 O 1096.28 2.26879 0.271652 0
M  V30 11464 C 1096.49 1.41021 -3.1924 0
M  V30 11465 C 1097.84 1.86963 -3.81222 0
M  V30 11466 O 1098.86 1.5074 -3.22732 0
M  V30 11467 O 1097.72 2.53798 -4.83993 0
M  V30 11468 H 1094.81 0.415192 -0.715223 0
M  V30 11469 H 1097.36 0.122016 -1.69261 0
M  V30 11470 H 1096.13 0.611677 -3.8649 0
M  V30 11471 H 1095.75 2.22846 -3.2928 0
M  V30 11472 N 1096.75 1.52266 0.40654 0
M  V30 11473 C 1098 1.66452 1.15325 0
M  V30 11474 C 1098.33 0.395728 1.90432 0
M  V30 11475 O 1097.58 -0.621382 1.85573 0
M  V30 11476 C 1097.88 2.8389 2.1712 0
M  V30 11477 C 1097.55 4.22011 1.58801 0
M  V30 11478 C 1096.21 4.59579 1.42621 0
M  V30 11479 C 1098.56 5.08074 1.16236 0
M  V30 11480 C 1095.89 5.80885 0.823967 0
M  V30 11481 C 1098.24 6.29988 0.574284 0
M  V30 11482 C 1096.9 6.66303 0.399638 0
M  V30 11483 H 1096.17 0.609092 0.422005 0
M  V30 11484 H 1098.82 1.86374 0.440131 0
M  V30 11485 H 1097.13 2.58314 2.94586 0
M  V30 11486 H 1098.82 2.92063 2.74774 0
M  V30 11487 H 1095.41 3.92408 1.72378 0
M  V30 11488 H 1099.6 4.79631 1.27544 0
M  V30 11489 H 1094.85 6.07644 0.676694 0
M  V30 11490 H 1099.03 6.96 0.236081 0
M  V30 11491 H 1096.65 7.60169 -0.0691262 0
M  V30 11492 N 1098.23 -0.663929 1.42933 0
M  V30 11493 C 1099.45 -1.45691 1.47611 0
M  V30 11494 C 1099.88 -1.87875 0.0920305 0
M  V30 11495 O 1099.24 -1.56696 -0.91192 0
M  V30 11496 C 1099.28 -2.67517 2.41799 0
M  V30 11497 O 1098.39 -3.66187 1.89686 0
M  V30 11498 H 1097.73 -0.437257 0.499702 0
M  V30 11499 H 1100.26 -0.813397 1.87737 0
M  V30 11500 H 1100.27 -3.1546 2.58745 0
M  V30 11501 H 1098.94 -2.36155 3.4235 0
M  V30 11502 H 1097.52 -3.25274 1.82349 0
M  V30 11503 N 1099.71 -1.29285 -0.901281 0
M  V30 11504 C 1100.64 -1.16832 -2.0217 0
M  V30 11505 C 1101.62 -0.0629265 -1.69984 0
M  V30 11506 O 1102.8 -0.242123 -1.92685 0
M  V30 11507 C 1099.93 -0.842406 -3.36929 0
M  V30 11508 C 1098.89 -1.90394 -3.8332 0
M  V30 11509 C 1098.21 -1.43138 -5.15185 0
M  V30 11510 C 1099.51 -3.31254 -4.03817 0
M  V30 11511 H 1101.21 -2.10562 -2.12847 0
M  V30 11512 H 1098.75 -1.01375 -1.0227 0
M  V30 11513 H 1100.71 -0.741999 -4.14816 0
M  V30 11514 H 1099.43 0.130598 -3.26339 0
M  V30 11515 H 1098.09 -1.99371 -3.07647 0
M  V30 11516 H 1097.74 -0.447091 -5.01009 0
M  V30 11517 H 1097.44 -2.14129 -5.47195 0
M  V30 11518 H 1098.96 -1.34444 -5.95615 0
M  V30 11519 H 1100.37 -3.25129 -4.72191 0
M  V30 11520 H 1098.77 -4.00189 -4.47178 0
M  V30 11521 H 1099.84 -3.74349 -3.08206 0
M  V30 11522 N 1101.18 1.11143 -1.11736 0
M  V30 11523 C 1102.41 1.86474 -0.889435 0
M  V30 11524 C 1102.82 1.80584 0.564438 0
M  V30 11525 O 1102.17 1.18743 1.40163 0
M  V30 11526 C 1102.23 3.36066 -1.27671 0
M  V30 11527 C 1101.89 3.65721 -2.74038 0
M  V30 11528 C 1102.89 3.62941 -3.7225 0
M  V30 11529 C 1100.57 3.94629 -3.10762 0
M  V30 11530 C 1102.57 3.88651 -5.05202 0
M  V30 11531 C 1100.25 4.19997 -4.43899 0
M  V30 11532 C 1101.25 4.16996 -5.40928 0
M  V30 11533 O 1100.94 4.41724 -6.71666 0
M  V30 11534 H 1100.67 0.596438 -0.318178 0
M  V30 11535 H 1103.23 1.41465 -1.48918 0
M  V30 11536 H 1101.46 3.81695 -0.620124 0
M  V30 11537 H 1103.15 3.92769 -1.02409 0
M  V30 11538 H 1103.91 3.40655 -3.45223 0
M  V30 11539 H 1099.79 3.96099 -2.35853 0
M  V30 11540 H 1103.33 3.86224 -5.80927 0
M  V30 11541 H 1099.23 4.4176 -4.70657 0
M  V30 11542 H 1100 4.59276 -6.77501 0
M  V30 11543 N 1102.66 0.908147 1.28804 0
M  V30 11544 C 1103.63 0.397058 2.25735 0
M  V30 11545 C 1104.63 -0.473483 1.53671 0
M  V30 11546 O 1105.82 -0.277335 1.71978 0
M  V30 11547 C 1102.95 -0.431392 3.38159 0
M  V30 11548 H 1104.14 1.25323 2.72459 0
M  V30 11549 H 1101.69 0.687041 1.4039 0
M  V30 11550 H 1102.43 -1.3072 2.96787 0
M  V30 11551 H 1102.21 0.192502 3.91627 0
M  V30 11552 H 1103.7 -0.78 4.10251 0
M  V30 11553 N 1104.14 -1.42577 0.671525 0
M  V30 11554 C 1105.38 -2.03455 0.196271 0
M  V30 11555 C 1105.74 -1.51934 -1.17389 0
M  V30 11556 O 1106.95 -2.04577 -1.74361 0
M  V30 11557 C 1105.22 -3.56687 0.225624 0
M  V30 11558 S 1106.78 -4.38434 -0.179107 0
M  V30 11559 H 1103.59 -0.706371 0.0809995 0
M  V30 11560 H 1106.2 -1.74375 0.883948 0
M  V30 11561 H 1104.9 -3.91684 1.22524 0
M  V30 11562 H 1104.43 -3.90436 -0.481994 0
M  V30 11563 H 1106.45 -4.75646 -1.41332 0
M  V30 11564 N 1105.62 -0.414636 -1.52048 0
M  V30 11565 C 1106.58 0.396285 -2.25748 0
M  V30 11566 C 1107.58 0.969003 -1.28324 0
M  V30 11567 O 1108.77 0.847016 -1.52221 0
M  V30 11568 C 1105.9 1.55838 -3.03195 0
M  V30 11569 H 1107.1 -0.249311 -2.98862 0
M  V30 11570 H 1104.65 -0.167276 -1.55402 0
M  V30 11571 H 1105.38 2.24068 -2.34444 0
M  V30 11572 H 1105.17 1.15414 -3.74729 0
M  V30 11573 H 1106.66 2.13187 -3.59084 0
M  V30 11574 N 1107.1 1.56929 -0.145233 0
M  V30 11575 C 1108.32 2.00864 0.516564 0
M  V30 11576 C 1108.75 1.02466 1.57741 0
M  V30 11577 O 1108.1 0.000145439 1.813 0
M  V30 11578 C 1108.15 3.43552 1.09563 0
M  V30 11579 O 1107.26 3.4815 2.21055 0
M  V30 11580 H 1106.6 0.651835 0.126521 0
M  V30 11581 H 1109.13 2.0317 -0.241445 0
M  V30 11582 H 1109.14 3.82316 1.42473 0
M  V30 11583 H 1107.81 4.14677 0.318749 0
M  V30 11584 H 1106.39 3.21228 1.89387 0
M  V30 11585 N 1108.58 -0.128553 1.57075 0
M  V30 11586 C 1109.99 -0.686713 1.73612 0
M  V30 11587 C 1110.34 -1.80778 0.762478 0
M  V30 11588 O 1109.46 -2.16297 -0.0667779 0
M  V30 11589 C 1110.06 -1.25246 3.148 0
M  V30 11590 C 1108.62 -1.757 3.32876 0
M  V30 11591 C 1107.76 -0.652844 2.69506 0
M  V30 11592 H 1110.71 0.0972859 1.58402 0
M  V30 11593 H 1110.74 -2.1222 3.15821 0
M  V30 11594 H 1110.25 -0.436308 3.8564 0
M  V30 11595 H 1108.35 -2.59824 2.67063 0
M  V30 11596 H 1108.46 -1.87302 4.4097 0
M  V30 11597 H 1106.83 -1.08408 2.30477 0
M  V30 11598 H 1107.61 0.15217 3.42963 0
M  V30 11599 N 1110.05 -1.5248 -0.398459 0
M  V30 11600 C 1111 -1.76585 -1.48615 0
M  V30 11601 C 1111.97 -0.608677 -1.54546 0
M  V30 11602 O 1113.16 -0.847383 -1.7095 0
M  V30 11603 C 1110.3 -1.93201 -2.8595 0
M  V30 11604 C 1109.41 -3.20875 -2.89246 0
M  V30 11605 C 1108.54 -3.27862 -4.17947 0
M  V30 11606 C 1107.58 -4.49697 -4.15258 0
M  V30 11607 N 1106.72 -4.54017 -5.35549 0
M  V30 11608 H 1111.56 -2.69412 -1.27362 0
M  V30 11609 H 1109.1 -1.33487 -0.618031 0
M  V30 11610 H 1111.05 -2.00819 -3.65688 0
M  V30 11611 H 1109.68 -1.03743 -3.05675 0
M  V30 11612 H 1108.74 -3.22376 -2.01935 0
M  V30 11613 H 1110.05 -4.1066 -2.83125 0
M  V30 11614 H 1109.2 -3.34611 -5.06083 0
M  V30 11615 H 1107.94 -2.36035 -4.26777 0
M  V30 11616 H 1106.95 -4.43083 -3.25511 0
M  V30 11617 H 1108.17 -5.42831 -4.08059 0
M  V30 11618 H 1106.12 -3.65078 -5.45027 0
M  V30 11619 H 1106.03 -5.37661 -5.31466 0
M  V30 11620 H 1107.3 -4.65009 -6.25609 0
M  V30 11621 N 1111.53 0.65634 -1.43283 0
M  V30 11622 C 1112.76 1.44408 -1.48168 0
M  V30 11623 C 1113.17 1.88542 -0.0986016 0
M  V30 11624 O 1112.53 1.59298 0.890527 0
M  V30 11625 C 1112.58 2.68111 -2.42484 0
M  V30 11626 O 1112.3 2.25824 -3.75413 0
M  V30 11627 C 1113.8 3.61499 -2.56579 0
M  V30 11628 H 1111.02 0.443731 -0.503333 0
M  V30 11629 H 1113.57 0.804917 -1.87993 0
M  V30 11630 H 1111.72 3.28175 -2.05863 0
M  V30 11631 H 1112.14 3.05839 -4.26102 0
M  V30 11632 H 1113.61 4.44972 -3.26655 0
M  V30 11633 H 1114.09 4.08639 -1.60969 0
M  V30 11634 H 1114.69 3.07319 -2.93998 0
M  V30 11635 N 1113.01 1.29761 0.894412 0
M  V30 11636 C 1114.42 1.16275 1.46072 0
M  V30 11637 C 1114.77 -0.240123 1.94725 0
M  V30 11638 O 1113.9 -1.13606 1.84181 0
M  V30 11639 C 1114.49 2.10471 2.65494 0
M  V30 11640 C 1113.05 2.00992 3.18244 0
M  V30 11641 C 1112.2 2.01094 1.90936 0
M  V30 11642 H 1115.15 1.42169 0.705243 0
M  V30 11643 H 1115.17 1.68003 3.41402 0
M  V30 11644 H 1114.68 3.12566 2.30053 0
M  V30 11645 H 1112.78 1.02005 3.58365 0
M  V30 11646 H 1112.9 2.88916 3.82184 0
M  V30 11647 H 1111.26 1.45764 2.08866 0
M  V30 11648 H 1112.04 3.04902 1.57764 0
M  V30 11649 N 1114.49 -1.10549 1.12324 0
M  V30 11650 C 1115.74 -1.81851 0.872531 0
M  V30 11651 C 1116.05 -1.86058 -0.603468 0
M  V30 11652 O 1117.26 -2.53553 -0.970736 0
M  V30 11653 C 1115.71 -3.26631 1.51131 0
M  V30 11654 C 1115.32 -3.30725 3.02201 0
M  V30 11655 C 1117.06 -4.02768 1.34082 0
M  V30 11656 C 1114.97 -4.69957 3.59018 0
M  V30 11657 H 1113.9 -0.681422 0.322769 0
M  V30 11658 H 1116.55 -1.24332 1.34959 0
M  V30 11659 H 1114.93 -3.8414 0.961913 0
M  V30 11660 H 1116.11 -2.83046 3.63623 0
M  V30 11661 H 1114.42 -2.68072 3.18632 0
M  V30 11662 H 1117.02 -5.05612 1.73955 0
M  V30 11663 H 1117.36 -4.15328 0.284369 0
M  V30 11664 H 1117.9 -3.51671 1.85937 0
M  V30 11665 H 1114.63 -4.62597 4.64418 0
M  V30 11666 H 1114.15 -5.18008 3.02371 0
M  V30 11667 H 1115.83 -5.38925 3.58007 0
M  V30 11668 N 1115.97 -0.914965 -1.28321 0
M  V30 11669 C 1116.9 -0.361578 -2.2633 0
M  V30 11670 C 1117.91 0.500637 -1.54911 0
M  V30 11671 O 1119.1 0.31532 -1.75693 0
M  V30 11672 C 1116.2 0.501693 -3.35166 0
M  V30 11673 C 1115.37 -0.338289 -4.3609 0
M  V30 11674 C 1114.43 0.460267 -5.24183 0
M  V30 11675 O 1113.46 -0.127594 -5.69057 0
M  V30 11676 N 1114.66 1.76302 -5.5308 0
M  V30 11677 H 1117.42 -1.20402 -2.74451 0
M  V30 11678 H 1114.99 -0.781042 -1.41814 0
M  V30 11679 H 1116.98 1.04268 -3.91037 0
M  V30 11680 H 1115.55 1.24485 -2.86744 0
M  V30 11681 H 1114.77 -1.06064 -3.79663 0
M  V30 11682 H 1116.06 -0.912996 -5.00542 0
M  V30 11683 H 1115.45 2.26314 -5.18458 0
M  V30 11684 H 1114.01 2.25081 -6.11704 0
M  V30 11685 N 1117.44 1.42219 -0.679077 0
M  V30 11686 C 1118.41 2.29197 -0.0125475 0
M  V30 11687 C 1119.41 1.43544 0.724691 0
M  V30 11688 O 1120.6 1.64884 0.562052 0
M  V30 11689 C 1117.73 3.26122 0.992846 0
M  V30 11690 H 1118.92 2.89629 -0.778154 0
M  V30 11691 H 1116.47 1.4993 -0.44166 0
M  V30 11692 H 1117.21 2.70637 1.78679 0
M  V30 11693 H 1116.99 3.89302 0.467544 0
M  V30 11694 H 1118.48 3.91339 1.45751 0
M  V30 11695 N 1118.92 0.422693 1.51826 0
M  V30 11696 C 1120.17 -0.148348 2.01555 0
M  V30 11697 C 1120.49 -1.44483 1.30956 0
M  V30 11698 O 1119.76 -1.90904 0.439599 0
M  V30 11699 H 1118.34 -0.0578116 0.74476 0
M  V30 11700 H 1121 0.562046 1.8662 0
M  V30 11701 H 1120.1 -0.334766 3.10299 0
M  V30 11702 N 1120.4 -1.5685 0.153553 0
M  V30 11703 C 1121.65 -1.95946 -0.494936 0
M  V30 11704 C 1121.97 -1.03975 -1.64967 0
M  V30 11705 O 1121.24 -0.102572 -1.95631 0
M  V30 11706 H 1119.82 -0.723516 -0.185833 0
M  V30 11707 H 1122.48 -1.93531 0.230585 0
M  V30 11708 H 1121.58 -2.99823 -0.866743 0
M  V30 11709 N 1121.88 0.120221 -1.57141 0
M  V30 11710 C 1123.11 0.841219 -1.88698 0
M  V30 11711 C 1123.52 1.7401 -0.74277 0
M  V30 11712 O 1122.86 1.81308 0.295497 0
M  V30 11713 C 1122.92 1.72781 -3.15257 0
M  V30 11714 C 1122.58 1.00336 -4.45849 0
M  V30 11715 C 1123.58 0.344734 -5.18756 0
M  V30 11716 C 1121.27 0.984899 -4.9255 0
M  V30 11717 C 1123.26 -0.322664 -6.36583 0
M  V30 11718 C 1120.95 0.313702 -6.10294 0
M  V30 11719 C 1121.95 -0.338926 -6.82159 0
M  V30 11720 O 1121.63 -0.999416 -7.97663 0
M  V30 11721 H 1121.37 0.247195 -0.629182 0
M  V30 11722 H 1123.92 0.109542 -2.05108 0
M  V30 11723 H 1122.15 2.5011 -2.94927 0
M  V30 11724 H 1123.84 2.32313 -3.32845 0
M  V30 11725 H 1124.6 0.350623 -4.83731 0
M  V30 11726 H 1120.48 1.4823 -4.36519 0
M  V30 11727 H 1124.03 -0.832643 -6.92613 0
M  V30 11728 H 1119.92 0.305572 -6.44776 0
M  V30 11729 H 1120.69 -0.90377 -8.13495 0
M  V30 11730 N 1123.36 1.52689 0.390367 0
M  V30 11731 C 1124.6 1.67335 1.13329 0
M  V30 11732 C 1124.93 0.415068 1.90531 0
M  V30 11733 O 1124.2 -0.570504 1.87409 0
M  V30 11734 H 1122.78 0.616821 0.421356 0
M  V30 11735 H 1125.44 1.89799 0.443 0
M  V30 11736 H 1124.53 2.52314 1.83696 0
M  V30 11737 N 1124.83 -0.648732 1.43629 0
M  V30 11738 C 1125.8 -1.74331 1.488 0
M  V30 11739 C 1126.8 -1.56434 0.372147 0
M  V30 11740 O 1127.99 -1.6225 0.634078 0
M  V30 11741 C 1125.12 -3.13248 1.34494 0
M  V30 11742 H 1126.31 -1.71125 2.46285 0
M  V30 11743 H 1123.87 -0.860798 1.30461 0
M  V30 11744 H 1124.6 -3.22062 0.380345 0
M  V30 11745 H 1124.39 -3.27643 2.15389 0
M  V30 11746 H 1125.88 -3.93056 1.41055 0
M  V30 11747 N 1126.31 -1.30234 -0.887518 0
M  V30 11748 C 1127.56 -1.1891 -1.6391 0
M  V30 11749 C 1127.89 0.256749 -1.92798 0
M  V30 11750 O 1127.14 1.20047 -1.54555 0
M  V30 11751 C 1127.44 -1.96046 -2.98832 0
M  V30 11752 C 1127.11 -3.45683 -2.89507 0
M  V30 11753 C 1125.77 -3.86489 -2.8667 0
M  V30 11754 C 1128.12 -4.40983 -2.7782 0
M  V30 11755 C 1125.45 -5.2089 -2.69982 0
M  V30 11756 C 1127.8 -5.75489 -2.6267 0
M  V30 11757 C 1126.47 -6.15537 -2.58207 0
M  V30 11758 H 1125.74 -0.435123 -0.599791 0
M  V30 11759 H 1128.38 -1.61308 -1.03209 0
M  V30 11760 H 1126.69 -1.46275 -3.6347 0
M  V30 11761 H 1128.38 -1.84678 -3.55942 0
M  V30 11762 H 1124.97 -3.13255 -2.92523 0
M  V30 11763 H 1129.16 -4.10401 -2.79079 0
M  V30 11764 H 1124.41 -5.51014 -2.6494 0
M  V30 11765 H 1128.59 -6.48973 -2.526 0
M  V30 11766 H 1126.22 -7.19627 -2.45034 0
M  V30 11767 N 1127.79 1.09952 -1.12909 0
M  V30 11768 C 1129.2 1.63516 -0.901087 0
M  V30 11769 C 1129.55 1.87932 0.563547 0
M  V30 11770 O 1128.68 1.625 1.42908 0
M  V30 11771 C 1129.27 2.97054 -1.62924 0
M  V30 11772 C 1127.83 3.47464 -1.44725 0
M  V30 11773 C 1126.98 2.21979 -1.66194 0
M  V30 11774 H 1129.93 0.933858 -1.28315 0
M  V30 11775 H 1129.95 3.64757 -1.08318 0
M  V30 11776 H 1129.46 2.79251 -2.69519 0
M  V30 11777 H 1127.56 3.70402 -0.40409 0
M  V30 11778 H 1127.68 4.25254 -2.20671 0
M  V30 11779 H 1126.04 2.30368 -1.0864 0
M  V30 11780 H 1126.82 2.06702 -2.74097 0
M  V30 11781 N 1129.27 0.921757 1.27833 0
M  V30 11782 C 1130.51 0.559906 1.94918 0
M  V30 11783 C 1130.85 -0.895532 1.72319 0
M  V30 11784 O 1130.12 -1.638 1.04879 0
M  V30 11785 C 1130.41 0.879458 3.49196 0
M  V30 11786 C 1130.26 2.38821 3.81162 0
M  V30 11787 C 1131.58 0.381183 4.38446 0
M  V30 11788 H 1128.7 0.204893 0.707946 0
M  V30 11789 H 1131.34 1.15246 1.51058 0
M  V30 11790 H 1129.49 0.375177 3.86684 0
M  V30 11791 H 1131.16 2.96373 3.53498 0
M  V30 11792 H 1129.4 2.83988 3.27923 0
M  V30 11793 H 1130.07 2.56234 4.88926 0
M  V30 11794 H 1132.55 0.813289 4.08075 0
M  V30 11795 H 1131.43 0.633778 5.45229 0
M  V30 11796 H 1131.69 -0.718651 4.3622 0
M  V30 11797 N 1130.75 -1.41857 0.686609 0
M  V30 11798 C 1131.7 -2.27999 -0.00734666 0
M  V30 11799 C 1132.68 -1.41723 -0.761808 0
M  V30 11800 O 1133.87 -1.65072 -0.638776 0
M  V30 11801 C 1131 -3.29909 -0.949462 0
M  V30 11802 C 1130.09 -4.23666 -0.191722 0
M  V30 11803 N 1130.48 -4.99277 0.809715 0
M  V30 11804 C 1128.78 -4.43937 -0.428489 0
M  V30 11805 C 1129.48 -5.67834 1.2625 0
M  V30 11806 N 1128.45 -5.40387 0.590151 0
M  V30 11807 H 1132.26 -2.83887 0.760608 0
M  V30 11808 H 1129.77 -1.53962 0.516676 0
M  V30 11809 H 1131.77 -3.90436 -1.46169 0
M  V30 11810 H 1130.43 -2.75582 -1.71711 0
M  V30 11811 H 1131.44 -5.04051 1.18966 0
M  V30 11812 H 1128.11 -4.00633 -1.17472 0
M  V30 11813 H 1129.5 -6.38469 2.09301 0
M  V30 11814 O 1132.26 -0.572812 -1.51 0
M  V30 11815 H 1132.95 -0.0746995 -1.93556 0
M  V30 END ATOM
M  V30 BEGIN BOND
M  V30 END BOND
M  V30 END CTAB
M  END
$$$$
