drugbank_target|P11444 Mandelate racemase (DB02280; DB03357; DB07381)
 OpenBabel12092119553D

  0  0  0     0  0            999 V3000
M  V30 BEGIN CTAB
M  V30 COUNTS 5477 5533 0 0 0
M  V30 BEGIN ATOM
M  V30 1 H -0.908 1.98254 -0.117106 0
M  V30 2 N 0 1.576 0 0
M  V30 3 C 0.933 2.03868 1.02534 0
M  V30 4 C 1.911 0.928543 1.3348 0
M  V30 5 O 3.095 1.19667 1.45644 0
M  V30 6 C 0.222 2.43627 2.35294 0
M  V30 7 C -0.732 3.65373 2.2001 0
M  V30 8 S 0.101 5.13292 1.52614 0
M  V30 9 C 1.257 5.56322 2.86805 0
M  V30 10 H 1.49 2.90518 0.631377 0
M  V30 11 H -0.977 1.52953 0.210867 0
M  V30 12 H 0.981 2.67203 3.11629 0
M  V30 13 H -0.358 1.57376 2.7183 0
M  V30 14 H -1.165 3.90944 3.18086 0
M  V30 15 H -1.563 3.418 1.51819 0
M  V30 16 H 0.729 5.58782 3.83104 0
M  V30 17 H 1.672 6.56266 2.65933 0
M  V30 18 H 2.08 4.83886 2.90714 0
M  V30 19 N 1.4781 -0.272755 1.55222 0
M  V30 20 C 2.7031 -1.02683 1.80197 0
M  V30 21 C 3.1281 -1.79142 0.573551 0
M  V30 22 O 2.4861 -1.74917 -0.476849 0
M  V30 23 C 2.5341 -1.9609 3.02624 0
M  V30 24 O 1.6381 -3.04863 2.77727 0
M  V30 25 H 0.9791 -0.293557 0.595584 0
M  V30 26 H 3.5091 -0.30159 2.02365 0
M  V30 27 H 3.5191 -2.38039 3.31363 0
M  V30 28 H 2.1941 -1.39851 3.91682 0
M  V30 29 H 0.7711 -2.67228 2.60084 0
M  V30 30 N 2.9562 -1.48159 -0.537278 0
M  V30 31 C 3.8662 -1.64807 -1.6696 0
M  V30 32 C 4.8822 -0.530651 -1.65711 0
M  V30 33 O 6.0582 -0.800784 -1.84796 0
M  V30 34 C 3.1232 -1.67708 -3.03438 0
M  V30 35 C 2.1842 -2.91025 -3.156 0
M  V30 36 C 1.4172 -2.93778 -4.45567 0
M  V30 37 O 1.6402 -2.05153 -5.3223 0
M  V30 38 O 0.5742 -3.85868 -4.61941 0
M  V30 39 H 4.4002 -2.6066 -1.55853 0
M  V30 40 H 1.9852 -1.31475 -0.709549 0
M  V30 41 H 3.8672 -1.7218 -3.84619 0
M  V30 42 H 2.5422 -0.750278 -3.14885 0
M  V30 43 H 1.4492 -2.92089 -2.33741 0
M  V30 44 H 2.7822 -3.83065 -3.09066 0
M  V30 45 N 4.4343 0.785586 -1.36625 0
M  V30 46 C 5.6803 1.54591 -1.31261 0
M  V30 47 C 6.0133 1.93906 0.106823 0
M  V30 48 O 5.2883 1.63007 1.06108 0
M  V30 49 C 5.5713 2.82038 -2.23889 0
M  V30 50 C 5.4243 2.49066 -3.74548 0
M  V30 51 C 6.7433 3.83887 -2.15217 0
M  V30 52 H 3.8623 0.560846 -0.478143 0
M  V30 53 H 6.5043 0.902278 -1.67209 0
M  V30 54 H 4.6543 3.36961 -1.93363 0
M  V30 55 H 6.3263 2.00164 -4.15611 0
M  V30 56 H 4.5693 1.81954 -3.93796 0
M  V30 57 H 5.2403 3.40109 -4.34776 0
M  V30 58 H 7.7163 3.38421 -2.42096 0
M  V30 59 H 6.5923 4.70806 -2.82193 0
M  V30 60 H 6.8533 4.27131 -1.14068 0
M  V30 61 N 5.9124 1.20967 1.01018 0
M  V30 62 C 6.8424 0.988272 2.11555 0
M  V30 63 C 7.8234 -0.0849778 1.69888 0
M  V30 64 O 9.0084 0.0738202 1.9406 0
M  V30 65 C 6.1384 0.546528 3.42973 0
M  V30 66 C 5.0924 1.56375 3.9841 0
M  V30 67 C 4.4184 0.97842 5.25672 0
M  V30 68 C 5.7184 2.94922 4.31066 0
M  V30 69 H 7.4124 1.91276 2.30334 0
M  V30 70 H 4.9584 0.921073 1.1069 0
M  V30 71 H 6.9114 0.378839 4.19694 0
M  V30 72 H 5.6354 -0.413598 3.23971 0
M  V30 73 H 4.2944 1.71891 3.23804 0
M  V30 74 H 3.9424 0.0101688 5.02999 0
M  V30 75 H 3.6424 1.65784 5.63728 0
M  V30 76 H 5.1664 0.821939 6.05043 0
M  V30 77 H 6.5804 2.8288 4.9865 0
M  V30 78 H 4.9774 3.5983 4.80253 0
M  V30 79 H 6.0474 3.4616 3.39561 0
M  V30 80 N 7.3905 -1.2043 1.01659 0
M  V30 81 C 8.6395 -1.89118 0.701237 0
M  V30 82 C 8.9525 -1.79705 -0.772358 0
M  V30 83 O 10.1585 -2.43528 -1.20026 0
M  V30 84 C 8.6145 -3.39168 1.20388 0
M  V30 85 C 8.2225 -3.57166 2.70438 0
M  V30 86 C 9.9665 -4.1341 0.963953 0
M  V30 87 C 7.8735 -5.01042 3.14183 0
M  V30 88 H 6.8035 -0.708267 0.2586 0
M  V30 89 H 9.4545 -1.36239 1.22927 0
M  V30 90 H 7.8365 -3.91369 0.603824 0
M  V30 91 H 9.0105 -3.15351 3.35992 0
M  V30 92 H 7.3255 -2.96294 2.92572 0
M  V30 93 H 9.9225 -5.19491 1.26621 0
M  V30 94 H 10.2655 -4.16181 -0.099578 0
M  V30 95 H 10.7985 -3.67309 1.52738 0
M  V30 96 H 7.5375 -5.03426 4.19812 0
M  V30 97 H 7.0575 -5.43668 2.53348 0
M  V30 98 H 8.7365 -5.69623 3.0682 0
M  V30 99 N 8.8686 -0.792821 -1.36206 0
M  V30 100 C 10.0966 -0.378825 -2.03402 0
M  V30 101 C 10.5116 1.00586 -1.59774 0
M  V30 102 O 9.8686 1.64574 -0.788764 0
M  V30 103 C 9.9196 -0.43683 -3.58851 0
M  V30 104 O 9.6406 -1.76691 -4.00889 0
M  V30 105 C 11.1416 -0.0138943 -4.43298 0
M  V30 106 H 8.3616 -0.155673 -0.652692 0
M  V30 107 H 10.9056 -1.07261 -1.74113 0
M  V30 108 H 9.0606 0.208575 -3.86838 0
M  V30 109 H 9.4746 -1.72011 -4.95492 0
M  V30 110 H 10.9486 -0.105615 -5.51899 0
M  V30 111 H 11.4256 1.03915 -4.2673 0
M  V30 112 H 12.0316 -0.63192 -4.20579 0
M  V30 113 N 10.3467 1.47872 -0.545128 0
M  V30 114 C 11.5947 2.02093 -0.016553 0
M  V30 115 C 11.9157 1.42305 1.3332 0
M  V30 116 O 11.1857 0.593853 1.86682 0
M  V30 117 H 9.7657 0.746993 -0.00313038 0
M  V30 118 H 12.4277 1.81414 -0.712397 0
M  V30 119 H 11.5237 3.11996 0.0805422 0
M  V30 120 N 11.8248 0.280983 1.55075 0
M  V30 121 C 12.7548 -0.597469 2.25727 0
M  V30 122 C 13.7358 -1.15417 1.24952 0
M  V30 123 O 14.9208 -1.18722 1.53684 0
M  V30 124 C 12.0508 -1.7789 2.98283 0
M  V30 125 C 11.0048 -1.35347 4.06036 0
M  V30 126 C 10.3308 -2.61846 4.66198 0
M  V30 127 C 11.6308 -0.499354 5.19907 0
M  V30 128 H 13.3248 -0.00824265 2.99399 0
M  V30 129 H 10.8708 -0.0025244 1.44 0
M  V30 130 H 12.8238 -2.39937 3.46422 0
M  V30 131 H 11.5478 -2.39405 2.22155 0
M  V30 132 H 10.2068 -0.756156 3.58717 0
M  V30 133 H 9.8548 -3.21632 3.86732 0
M  V30 134 H 9.5548 -2.3409 5.38958 0
M  V30 135 H 11.0788 -3.24732 5.1709 0
M  V30 136 H 12.4928 -1.02498 5.64063 0
M  V30 137 H 10.8898 -0.316424 5.99265 0
M  V30 138 H 11.9598 0.480459 4.82514 0
M  V30 139 N 13.3029 -1.57598 0.00835791 0
M  V30 140 C 14.7189 -1.55764 -0.347822 0
M  V30 141 C 14.9189 -1.01186 -1.74252 0
M  V30 142 O 13.9749 -0.649371 -2.44007 0
M  V30 143 C 15.2879 -2.99927 -0.215407 0
M  V30 144 C 16.8359 -3.11656 -0.289725 0
M  V30 145 C 17.3109 -4.57621 -0.18634 0
M  V30 146 N 18.8019 -4.62557 -0.243978 0
M  V30 147 C 19.5369 -5.73094 -0.18745 0
M  V30 148 N 19.0329 -6.92753 -0.0810331 0
M  V30 149 N 20.8259 -5.61588 -0.239925 0
M  V30 150 H 12.9769 -1.91411 0.92062 0
M  V30 151 H 15.2399 -0.879562 0.353659 0
M  V30 152 H 14.9459 -3.43729 0.744512 0
M  V30 153 H 14.8199 -3.63865 -0.994097 0
M  V30 154 H 17.2069 -2.67779 -1.24009 0
M  V30 155 H 17.2879 -2.5048 0.51898 0
M  V30 156 H 16.9319 -5.02174 0.760519 0
M  V30 157 H 16.8619 -5.16752 -1.01364 0
M  V30 158 H 19.3529 -3.76481 -0.327217 0
M  V30 159 H 19.6659 -7.72787 -0.0440241 0
M  V30 160 H 18.0109 -6.94984 -0.0465419 0
M  V30 161 H 21.2019 -4.66996 -0.321317 0
M  V30 162 H 21.3749 -6.47714 -0.192407 0
M  V30 163 N 14.781 0.264519 -1.55364 0
M  V30 164 C 16.009 1.013 -1.80405 0
M  V30 165 C 16.424 1.79618 -0.581622 0
M  V30 166 O 15.781 1.76879 0.449468 0
M  V30 167 C 15.832 1.96487 -3.03439 0
M  V30 168 O 15.553 1.21341 -4.20961 0
M  V30 169 C 17.054 2.83079 -3.41147 0
M  V30 170 H 14.274 0.298875 -0.600762 0
M  V30 171 H 16.818 0.292736 -2.02394 0
M  V30 172 H 14.973 2.63965 -2.83551 0
M  V30 173 H 15.387 1.85573 -4.90574 0
M  V30 174 H 16.861 3.4565 -4.30384 0
M  V30 175 H 17.338 3.53286 -2.60932 0
M  V30 176 H 17.944 2.2108 -3.63323 0
M  V30 177 N 16.2591 1.48442 0.529413 0
M  V30 178 C 17.6751 1.34575 0.858004 0
M  V30 179 C 17.8751 0.3572 1.98309 0
M  V30 180 O 16.9311 -0.221379 2.51528 0
M  V30 181 C 18.2441 2.74617 1.22499 0
M  V30 182 C 19.7921 2.83109 1.33484 0
M  V30 183 C 20.2671 4.23854 1.73526 0
M  V30 184 N 21.7581 4.2653 1.80628 0
M  V30 185 C 22.4931 5.32372 2.12997 0
M  V30 186 N 21.9891 6.48491 2.43786 0
M  V30 187 N 23.7821 5.19766 2.14008 0
M  V30 188 H 15.9331 2.1133 -0.212925 0
M  V30 189 H 18.1961 0.947439 -0.0326199 0
M  V30 190 H 17.9021 3.4852 0.471905 0
M  V30 191 H 17.7761 3.08177 2.17501 0
M  V30 192 H 20.1631 2.09462 2.0787 0
M  V30 193 H 20.2441 2.53168 0.366027 0
M  V30 194 H 19.8881 4.98018 0.997013 0
M  V30 195 H 19.8181 4.5124 2.71459 0
M  V30 196 H 22.3091 3.42772 1.59108 0
M  V30 197 H 22.6221 7.24993 2.67592 0
M  V30 198 H 20.9671 6.51765 2.41304 0
M  V30 199 H 24.1581 4.28066 1.89412 0
M  V30 200 H 24.3311 6.02354 2.38902 0
M  V30 201 N 17.7372 -0.778329 1.37039 0
M  V30 202 C 18.7002 -1.87301 1.32102 0
M  V30 203 C 19.7002 -1.59198 0.226405 0
M  V30 204 O 20.8902 -1.67403 0.481861 0
M  V30 205 C 18.0222 -3.24309 1.05055 0
M  V30 206 H 19.2152 -1.93093 2.29467 0
M  V30 207 H 16.7682 -0.977358 1.21973 0
M  V30 208 H 17.5032 -3.24196 0.0819373 0
M  V30 209 H 17.2882 -3.46098 1.84279 0
M  V30 210 H 18.7782 -4.04382 1.04234 0
M  V30 211 N 19.2153 -1.21501 -1.00376 0
M  V30 212 C 20.4613 -1.03452 -1.74429 0
M  V30 213 C 20.7943 0.430764 -1.89362 0
M  V30 214 O 20.0693 1.31962 -1.42886 0
M  V30 215 C 20.3523 -1.73375 -3.15615 0
M  V30 216 C 20.2053 -3.27431 -3.08397 0
M  V30 217 C 21.5243 -1.47732 -4.14564 0
M  V30 218 H 18.6433 -0.377226 -0.633143 0
M  V30 219 H 21.2853 -1.49693 -1.17013 0
M  V30 220 H 19.4353 -1.34064 -3.64636 0
M  V30 221 H 21.1073 -3.76119 -2.67081 0
M  V30 222 H 19.3503 -3.5767 -2.45468 0
M  V30 223 H 20.0213 -3.71524 -4.08258 0
M  V30 224 H 22.4973 -1.8186 -3.74254 0
M  V30 225 H 21.3733 -1.99169 -5.11491 0
M  V30 226 H 21.6343 -0.407589 -4.40217 0
M  V30 227 N 20.6934 1.19889 -1.02296 0
M  V30 228 C 21.6414 2.24938 -0.592081 0
M  V30 229 C 22.6354 1.65257 0.372357 0
M  V30 230 O 23.8414 1.78371 0.241583 0
M  V30 231 H 20.2164 0.731787 -0.173182 0
M  V30 232 H 22.1874 2.58603 -1.48885 0
M  V30 233 C 20.9364 3.47668 0.047351 0
M  V30 234 H 20.2594 3.93875 -0.685772 0
M  V30 235 H 21.6994 4.22852 0.311862 0
M  V30 236 C 20.1584 3.11136 1.29212 0
M  V30 237 O 20.6884 3.2325 2.38479 0
M  V30 238 N 18.8944 2.65625 1.17863 0
M  V30 239 H 18.4414 2.55968 0.289493 0
M  V30 240 H 18.3994 2.41553 2.01245 0
M  V30 241 N 22.1715 0.800033 1.35784 0
M  V30 242 C 23.4175 0.377901 1.99248 0
M  V30 243 C 23.7505 -1.05052 1.63333 0
M  V30 244 O 23.0255 -1.72768 0.893385 0
M  V30 245 C 23.3085 0.553922 3.55814 0
M  V30 246 C 23.1615 2.0268 4.01548 0
M  V30 247 C 24.4805 -0.0244802 4.40093 0
M  V30 248 H 21.5995 0.138782 0.723815 0
M  V30 249 H 24.2415 1.00835 1.61035 0
M  V30 250 H 22.3915 0.0172398 3.88496 0
M  V30 251 H 24.0635 2.62536 3.79305 0
M  V30 252 H 22.3065 2.5256 3.52698 0
M  V30 253 H 22.9775 2.10087 5.10458 0
M  V30 254 H 25.4535 0.433775 4.13833 0
M  V30 255 H 24.3295 0.128637 5.48749 0
M  V30 256 H 24.5905 -1.11758 4.27741 0
M  V30 257 N 23.6496 -1.47581 0.552962 0
M  V30 258 C 25.0606 -1.86324 0.118463 0
M  V30 259 C 25.4116 -1.46006 -1.3106 0
M  V30 260 O 24.5366 -0.861182 -1.98526 0
M  V30 261 C 25.1316 -3.3816 0.20821 0
M  V30 262 C 23.6906 -3.7601 -0.171226 0
M  V30 263 C 22.8376 -2.71634 0.557686 0
M  V30 264 H 25.7886 -1.39159 0.762928 0
M  V30 265 H 25.8096 -3.76141 -0.574278 0
M  V30 266 H 25.3216 -3.67473 1.24841 0
M  V30 267 H 23.4226 -3.52313 -1.21269 0
M  V30 268 H 23.5356 -4.78745 0.184379 0
M  V30 269 H 21.8996 -2.547 0.00125792 0
M  V30 270 H 22.6826 -3.0379 1.59896 0
M  V30 271 N 25.1277 -0.289203 -1.54924 0
M  V30 272 C 26.0577 0.58549 -2.2604 0
M  V30 273 C 27.0387 1.14753 -1.25562 0
M  V30 274 O 28.2237 1.17906 -1.54311 0
M  V30 275 C 25.3537 1.76305 -2.99222 0
M  V30 276 C 24.3077 1.33191 -4.06748 0
M  V30 277 C 23.6337 2.5937 -4.6758 0
M  V30 278 C 24.9337 0.471775 -5.20165 0
M  V30 279 H 26.6277 -0.00763532 -2.99399 0
M  V30 280 H 24.1737 -0.00511229 -1.43999 0
M  V30 281 H 26.1267 2.38097 -3.47689 0
M  V30 282 H 24.8507 2.38223 -2.23422 0
M  V30 283 H 23.5097 0.737121 -3.59113 0
M  V30 284 H 23.1577 3.19576 -3.88433 0
M  V30 285 H 22.8577 2.31228 -5.40192 0
M  V30 286 H 24.3817 3.21985 -5.18804 0
M  V30 287 H 25.7957 0.995056 -5.64599 0
M  V30 288 H 24.1927 0.284639 -5.99425 0
M  V30 289 H 25.2627 -0.506041 -4.82252 0
M  V30 290 N 26.6058 1.57591 -0.0167156 0
M  V30 291 C 27.5688 2.08393 0.954204 0
M  V30 292 C 28.5688 0.996531 1.26198 0
M  V30 293 O 29.7588 1.25858 1.20438 0
M  V30 294 C 26.8908 2.5394 2.27436 0
M  V30 295 H 28.0838 2.95455 0.514451 0
M  V30 296 H 25.6368 1.54582 0.231089 0
M  V30 297 H 26.3718 1.70171 2.76066 0
M  V30 298 H 26.1568 3.33371 2.06412 0
M  V30 299 H 27.6468 2.93512 2.97053 0
M  V30 300 N 28.0839 -0.256276 1.55502 0
M  V30 301 C 29.3139 -1.00196 1.80677 0
M  V30 302 C 29.7219 -1.79805 0.588797 0
M  V30 303 O 29.0649 -1.78055 -0.451883 0
M  V30 304 C 29.1269 -1.99515 2.99055 0
M  V30 305 C 28.7909 -1.38688 4.35448 0
M  V30 306 C 29.7879 -0.794079 5.138 0
M  V30 307 C 27.4729 -1.40906 4.82132 0
M  V30 308 C 29.4669 -0.231562 6.36979 0
M  V30 309 C 27.1539 -0.842684 6.05262 0
M  V30 310 C 28.1519 -0.254953 6.82524 0
M  V30 311 O 27.8399 0.3027 8.0333 0
M  V30 312 H 27.5719 -0.300919 0.60533 0
M  V30 313 H 30.1259 -0.287307 2.03381 0
M  V30 314 H 28.3559 -2.74785 2.72084 0
M  V30 315 H 30.0449 -2.60349 3.11405 0
M  V30 316 H 30.8109 -0.769519 4.78856 0
M  V30 317 H 26.6899 -1.85591 4.21992 0
M  V30 318 H 30.2339 0.227816 6.97228 0
M  V30 319 H 26.1309 -0.86454 6.39684 0
M  V30 320 H 26.8989 0.193662 8.18271 0
M  V30 321 N 29.562 -1.4872 -0.521534 0
M  V30 322 C 30.973 -1.50607 -1.10337 0
M  V30 323 C 31.324 -0.280612 -1.94183 0
M  V30 324 O 30.449 0.611507 -2.0758 0
M  V30 325 C 31.044 -2.72903 -2.00772 0
M  V30 326 C 29.603 -2.77634 -2.54158 0
M  V30 327 C 28.75 -2.44241 -1.31307 0
M  V30 328 H 31.701 -1.55714 -0.306388 0
M  V30 329 H 31.722 -2.519 -2.85178 0
M  V30 330 H 31.234 -3.62077 -1.39721 0
M  V30 331 H 29.335 -1.92689 -3.18907 0
M  V30 332 H 29.448 -3.79283 -2.92714 0
M  V30 333 H 27.812 -1.95577 -1.63161 0
M  V30 334 H 28.595 -3.35666 -0.719943 0
M  V30 335 N 31.0401 0.771051 -1.3745 0
M  V30 336 C 32.2861 1.5319 -1.32894 0
M  V30 337 C 32.6191 1.94008 0.0862511 0
M  V30 338 O 31.8941 1.64124 1.04373 0
M  V30 339 C 32.1771 2.79648 -2.26868 0
M  V30 340 C 32.0301 2.45079 -3.77169 0
M  V30 341 C 33.3491 3.81583 -2.19277 0
M  V30 342 H 30.4681 0.555744 -0.484064 0
M  V30 343 H 33.1101 0.884492 -1.68157 0
M  V30 344 H 31.2601 3.34891 -1.96926 0
M  V30 345 H 32.9321 1.95745 -4.1771 0
M  V30 346 H 31.1751 1.77767 -3.95704 0
M  V30 347 H 31.8461 3.35478 -4.38359 0
M  V30 348 H 34.3221 3.35835 -2.45671 0
M  V30 349 H 33.1981 4.67787 -2.87171 0
M  V30 350 H 33.4591 4.25897 -1.18592 0
M  V30 351 N 32.5182 1.22032 0.997298 0
M  V30 352 C 33.4682 0.953838 2.07089 0
M  V30 353 C 34.4522 -0.0938669 1.60626 0
M  V30 354 O 35.6442 0.116078 1.76619 0
M  V30 355 C 32.7732 0.528726 3.39204 0
M  V30 356 C 31.8592 1.61092 3.92314 0
M  V30 357 N 32.2502 2.83768 4.18699 0
M  V30 358 C 30.5482 1.48158 4.20672 0
M  V30 359 C 31.2492 3.53715 4.61802 0
M  V30 360 N 30.2252 2.81174 4.65233 0
M  V30 361 H 34.0272 1.88577 2.25424 0
M  V30 362 H 31.5412 1.11719 1.17867 0
M  V30 363 H 33.5382 0.31915 4.15677 0
M  V30 364 H 32.1982 -0.39635 3.22272 0
M  V30 365 H 33.2092 3.20238 4.07023 0
M  V30 366 H 29.8862 0.622369 4.12835 0
M  V30 367 H 31.2762 4.58793 4.90875 0
M  V30 368 N 33.9963 -1.19345 1.0293 0
M  V30 369 C 35.2243 -1.92997 0.745644 0
M  V30 370 C 35.6393 -1.75519 -0.695589 0
M  V30 371 O 34.9963 -1.07737 -1.47306 0
M  V30 372 C 35.0473 -3.44741 1.08792 0
M  V30 373 O 34.7683 -3.61658 2.47256 0
M  V30 374 C 36.2693 -4.35515 0.827129 0
M  V30 375 H 33.4893 -0.613042 0.272801 0
M  V30 376 H 36.0333 -1.51473 1.3739 0
M  V30 377 H 34.1883 -3.84097 0.504832 0
M  V30 378 H 34.6023 -4.55514 2.60015 0
M  V30 379 H 36.0763 -5.40589 1.11658 0
M  V30 380 H 36.5533 -4.38552 -0.238436 0
M  V30 381 H 37.1593 -4.01841 1.39297 0
M  V30 382 N 35.4744 -0.807222 -1.35358 0
M  V30 383 C 36.4374 -0.223665 -2.28106 0
M  V30 384 C 37.4374 0.589354 -1.4961 0
M  V30 385 O 38.6274 0.407745 -1.69361 0
M  V30 386 C 35.7594 0.688149 -3.33882 0
M  V30 387 H 36.9524 -1.04169 -2.81227 0
M  V30 388 H 34.5054 -0.577921 -1.45223 0
M  V30 389 H 35.2404 1.52984 -2.85948 0
M  V30 390 H 35.0254 0.10687 -3.91954 0
M  V30 391 H 36.5154 1.09075 -4.03104 0
M  V30 392 N 36.9525 1.47285 -0.560781 0
M  V30 393 C 38.1985 2.02764 -0.0381184 0
M  V30 394 C 38.5315 1.43384 1.30976 0
M  V30 395 O 37.8065 0.590733 1.85312 0
M  V30 396 C 38.0895 3.60064 0.0511427 0
M  V30 397 C 37.9425 4.2987 -1.32408 0
M  V30 398 C 39.2615 4.33439 0.762795 0
M  V30 399 H 36.3805 0.736841 -0.0153264 0
M  V30 400 H 39.0225 1.75675 -0.723759 0
M  V30 401 H 37.1725 3.83274 0.635065 0
M  V30 402 H 38.8445 4.17989 -1.95148 0
M  V30 403 H 37.0875 3.90085 -1.8978 0
M  V30 404 H 37.7585 5.38478 -1.21431 0
M  V30 405 H 40.2345 4.15243 0.266965 0
M  V30 406 H 39.1105 5.43124 0.794221 0
M  V30 407 H 39.3715 4.02915 1.81966 0
M  V30 408 N 38.4306 0.297415 1.54768 0
M  V30 409 C 39.6786 -0.312295 1.99673 0
M  V30 410 C 39.9996 -1.54686 1.18732 0
M  V30 411 O 39.2696 -1.93854 0.282382 0
M  V30 412 H 37.8496 -0.118381 0.73756 0
M  V30 413 H 40.5116 0.407915 1.90583 0
M  V30 414 H 39.6076 -0.586813 3.06534 0
M  V30 415 N 39.9087 -1.5758 0.0250728 0
M  V30 416 C 41.1367 -1.9593 -0.664747 0
M  V30 417 C 41.5517 -0.901352 -1.65895 0
M  V30 418 O 40.9087 0.117255 -1.82123 0
M  V30 419 C 40.9597 -3.34342 -1.37468 0
M  V30 420 O 40.6807 -4.36079 -0.420324 0
M  V30 421 C 42.1817 -3.873 -2.1567 0
M  V30 422 H 39.4017 -0.645405 -0.183557 0
M  V30 423 H 41.9457 -2.04329 0.0836372 0
M  V30 424 H 40.1007 -3.27175 -2.0745 0
M  V30 425 H 40.5147 -5.16297 -0.923991 0
M  V30 426 H 41.9887 -4.86504 -2.60803 0
M  V30 427 H 42.4657 -3.21331 -2.99405 0
M  V30 428 H 43.0717 -3.97723 -1.50654 0
M  V30 429 N 41.3868 0.248026 -1.55636 0
M  V30 430 C 42.6328 0.97767 -1.77678 0
M  V30 431 C 42.9658 1.85016 -0.590135 0
M  V30 432 O 42.2408 1.90095 0.411611 0
M  V30 433 C 42.5238 1.83914 -3.09593 0
M  V30 434 C 42.3768 0.99491 -4.38659 0
M  V30 435 C 43.6958 2.82183 -3.37729 0
M  V30 436 H 40.8148 0.354005 -0.646413 0
M  V30 437 H 43.4568 0.248253 -1.88371 0
M  V30 438 H 41.6068 2.46104 -3.00608 0
M  V30 439 H 43.2788 0.391789 -4.59633 0
M  V30 440 H 41.5218 0.299231 -4.32767 0
M  V30 441 H 42.1928 1.63145 -5.2734 0
M  V30 442 H 44.6688 2.30129 -3.4667 0
M  V30 443 H 43.5448 3.39582 -4.31249 0
M  V30 444 H 43.8058 3.58588 -2.58586 0
M  V30 445 N 42.8649 1.48995 0.513639 0
M  V30 446 C 44.1129 1.57531 1.26604 0
M  V30 447 C 44.4339 0.258236 1.93283 0
M  V30 448 O 43.7039 -0.721502 1.8213 0
M  V30 449 H 42.2839 0.580387 0.470276 0
M  V30 450 H 44.9459 1.85552 0.596373 0
M  V30 451 H 44.0419 2.36486 2.03669 0
M  V30 452 N 44.343 -0.763751 1.37857 0
M  V30 453 C 45.571 -1.55293 1.36718 0
M  V30 454 C 45.986 -1.88745 -0.0455434 0
M  V30 455 O 45.343 -1.52039 -1.00947 0
M  V30 456 C 45.394 -2.85831 2.2132 0
M  V30 457 O 45.115 -2.5381 3.57089 0
M  V30 458 C 46.616 -3.80023 2.28249 0
M  V30 459 H 43.836 -0.480841 0.468009 0
M  V30 460 H 46.38 -0.946009 1.81303 0
M  V30 461 H 44.535 -3.42926 1.80223 0
M  V30 462 H 44.949 -3.37459 4.01524 0
M  V30 463 H 46.423 -4.68599 2.91752 0
M  V30 464 H 46.9 -4.1973 1.2932 0
M  V30 465 H 47.506 -3.28855 2.69693 0
M  V30 466 N 45.8211 -1.22559 -0.990812 0
M  V30 467 C 46.7841 -0.998863 -2.0629 0
M  V30 468 C 47.7841 0.0354834 -1.60761 0
M  V30 469 O 48.9741 -0.203231 -1.7301 0
M  V30 470 C 46.1061 -0.509203 -3.37076 0
M  V30 471 H 47.2991 -1.95014 -2.27837 0
M  V30 472 H 44.8521 -1.04456 -1.16269 0
M  V30 473 H 45.5871 0.446335 -3.21214 0
M  V30 474 H 45.3721 -1.25547 -3.71457 0
M  V30 475 H 46.8621 -0.370888 -4.1595 0
M  V30 476 N 47.2992 1.18797 -1.03562 0
M  V30 477 C 48.7102 1.70322 -0.764676 0
M  V30 478 C 49.0612 1.82708 0.714996 0
M  V30 479 O 48.1862 1.50299 1.55689 0
M  V30 480 C 48.7812 3.09356 -1.38145 0
M  V30 481 C 47.3402 3.58114 -1.15895 0
M  V30 482 C 46.4872 2.34798 -1.4753 0
M  V30 483 H 49.4382 1.03543 -1.20268 0
M  V30 484 H 49.4592 3.72378 -0.781977 0
M  V30 485 H 48.9712 3.00309 -2.45837 0
M  V30 486 H 47.0722 3.72464 -0.100544 0
M  V30 487 H 47.1852 4.4184 -1.8524 0
M  V30 488 H 45.5492 2.38464 -0.894829 0
M  V30 489 H 46.3322 2.28375 -2.56319 0
M  V30 490 N 48.7773 0.814389 1.34928 0
M  V30 491 C 49.7073 0.244827 2.32213 0
M  V30 492 C 50.6883 -0.634024 1.57842 0
M  V30 493 O 51.8733 -0.562676 1.8587 0
M  V30 494 C 49.0033 -0.601106 3.42058 0
M  V30 495 C 47.9573 0.179896 4.27622 0
M  V30 496 C 47.2833 -0.788237 5.28858 0
M  V30 497 C 48.5833 1.38329 5.03649 0
M  V30 498 H 50.2773 1.05763 2.80097 0
M  V30 499 H 47.8233 0.510029 1.34665 0
M  V30 500 H 49.7763 -1.00968 4.09125 0
M  V30 501 H 48.5003 -1.44688 2.92802 0
M  V30 502 H 47.1593 0.569739 3.62146 0
M  V30 503 H 46.8073 -1.62973 4.75866 0
M  V30 504 H 46.5073 -0.269942 5.8698 0
M  V30 505 H 48.0313 -1.19485 5.98795 0
M  V30 506 H 49.4453 1.04918 5.63618 0
M  V30 507 H 47.8423 1.83662 5.71304 0
M  V30 508 H 48.9123 2.16592 4.33839 0
M  V30 509 N 50.2554 -1.46986 0.568584 0
M  V30 510 C 51.5014 -2.02741 0.0488709 0
M  V30 511 C 51.8344 -1.44077 -1.30214 0
M  V30 512 O 51.1094 -0.600552 -1.84996 0
M  V30 513 C 51.3924 -3.60086 -0.032047 0
M  V30 514 C 51.2454 -4.29162 1.34686 0
M  V30 515 C 52.5644 -4.33838 -0.739798 0
M  V30 516 H 49.6834 -0.736749 0.0192338 0
M  V30 517 H 52.3254 -1.75289 0.733065 0
M  V30 518 H 50.4754 -3.83606 -0.61473 0
M  V30 519 H 52.1474 -4.16948 1.97362 0
M  V30 520 H 50.3904 -3.89073 1.91846 0
M  V30 521 H 51.0614 -5.37826 1.24285 0
M  V30 522 H 53.5374 -4.15378 -0.244939 0
M  V30 523 H 52.4134 -5.43537 -0.765406 0
M  V30 524 H 52.6744 -4.03875 -1.79827 0
M  V30 525 N 51.7335 -0.305618 -1.54608 0
M  V30 526 C 52.6635 0.561482 -2.26649 0
M  V30 527 C 53.6445 1.13415 -1.26772 0
M  V30 528 O 54.8295 1.16262 -1.55553 0
M  V30 529 C 51.9595 1.73122 -3.01075 0
M  V30 530 C 50.9135 1.2887 -4.08138 0
M  V30 531 C 50.2395 2.54396 -4.70305 0
M  V30 532 C 51.5395 0.416578 -5.20636 0
M  V30 533 H 53.2335 -0.0393902 -2.99374 0
M  V30 534 H 50.7795 -0.020385 -1.43986 0
M  V30 535 H 52.7325 2.34396 -3.50195 0
M  V30 536 H 51.4565 2.3584 -2.25936 0
M  V30 537 H 50.1155 0.698991 -3.59875 0
M  V30 538 H 49.7635 3.15439 -3.918 0
M  V30 539 H 49.4635 2.25486 -5.42614 0
M  V30 540 H 50.9875 3.16464 -5.2219 0
M  V30 541 H 52.4015 0.935116 -5.65622 0
M  V30 542 H 50.7985 0.221046 -5.99693 0
M  V30 543 H 51.8685 -0.557162 -4.81688 0
M  V30 544 N 53.2116 1.57565 -0.0334293 0
M  V30 545 C 54.4606 1.91155 0.643639 0
M  V30 546 C 54.7736 0.91192 1.73042 0
M  V30 547 O 55.9796 1.13923 2.46442 0
M  V30 548 C 54.4356 3.39443 1.1961 0
M  V30 549 C 54.0436 4.47774 0.142381 0
M  V30 550 C 55.7876 3.82094 1.84944 0
M  V30 551 C 53.6946 5.87162 0.706727 0
M  V30 552 H 52.6246 0.713368 0.244176 0
M  V30 553 H 55.2756 1.8323 -0.0994323 0
M  V30 554 H 53.6576 3.42313 1.99092 0
M  V30 555 H 54.8316 4.56469 -0.630296 0
M  V30 556 H 53.1466 4.14352 -0.412446 0
M  V30 557 H 55.7436 4.83591 2.2813 0
M  V30 558 H 56.0866 3.17386 2.69392 0
M  V30 559 H 56.6196 3.81665 1.12145 0
M  V30 560 H 53.3586 6.55424 -0.0997178 0
M  V30 561 H 52.8786 5.82064 1.44779 0
M  V30 562 H 54.5576 6.35866 1.19514 0
M  V30 563 N 54.6897 -0.239769 1.55765 0
M  V30 564 C 55.9667 -0.990056 1.68693 0
M  V30 565 C 56.3467 -2.03107 0.5754 0
M  V30 566 O 55.6947 -2.24604 -0.42017 0
M  V30 567 C 55.9047 -1.61696 3.09282 0
M  V30 568 C 57.2527 -2.11613 3.6811 0
M  V30 569 O 58.2767 -1.71624 3.12127 0
M  V30 570 O 57.1357 -2.85057 4.66267 0
M  V30 571 H 54.2297 -0.461299 0.686391 0
M  V30 572 H 56.7757 -0.232991 1.68093 0
M  V30 573 H 55.5477 -0.864357 3.81634 0
M  V30 574 H 55.1707 -2.44005 3.13923 0
M  V30 575 N 56.1678 -1.49265 -0.50573 0
M  V30 576 C 57.0978 -1.68495 -1.61653 0
M  V30 577 C 58.0788 -0.53366 -1.61512 0
M  V30 578 O 59.2638 -0.76897 -1.78327 0
M  V30 579 C 56.3938 -1.74709 -3.00157 0
M  V30 580 C 55.3478 -2.89581 -3.15162 0
M  V30 581 C 54.6738 -2.80903 -4.5497 0
M  V30 582 C 55.9738 -4.30578 -2.95634 0
M  V30 583 H 57.6678 -2.61493 -1.45814 0
M  V30 584 H 55.2138 -1.25838 -0.70005 0
M  V30 585 H 57.1668 -1.86748 -3.77761 0
M  V30 586 H 55.8908 -0.783067 -3.17074 0
M  V30 587 H 54.5498 -2.77136 -2.39982 0
M  V30 588 H 54.1978 -1.82419 -4.68756 0
M  V30 589 H 53.8978 -3.57999 -4.65951 0
M  V30 590 H 55.4218 -2.94944 -5.34641 0
M  V30 591 H 56.8358 -4.4373 -3.63011 0
M  V30 592 H 55.2328 -5.0886 -3.18091 0
M  V30 593 H 56.3028 -4.45352 -1.91806 0
M  V30 594 N 57.6459 0.756429 -1.3826 0
M  V30 595 C 58.6089 1.85176 -1.35065 0
M  V30 596 C 59.6089 1.58818 -0.251703 0
M  V30 597 O 60.7989 1.66615 -0.508433 0
M  V30 598 C 57.9309 3.22596 -1.10201 0
M  V30 599 H 59.1239 1.89417 -2.3251 0
M  V30 600 H 56.6769 0.95783 -1.23512 0
M  V30 601 H 57.4119 3.24025 -0.133504 0
M  V30 602 H 57.1969 3.43122 -1.89762 0
M  V30 603 H 58.6869 4.02673 -1.10654 0
M  V30 604 N 59.124 1.23083 0.984299 0
M  V30 605 C 60.352 1.08714 1.76037 0
M  V30 606 C 60.767 -0.361691 1.85303 0
M  V30 607 O 60.124 -1.25034 1.32939 0
M  V30 608 C 60.175 1.70206 3.18923 0
M  V30 609 O 59.896 3.09423 3.10144 0
M  V30 610 C 61.397 1.61227 4.12941 0
M  V30 611 H 58.617 0.380664 0.552572 0
M  V30 612 H 61.161 1.62853 1.23689 0
M  V30 613 H 59.316 1.20109 3.6831 0
M  V30 614 H 59.73 3.39188 4.00065 0
M  V30 615 H 61.204 2.08962 5.10919 0
M  V30 616 H 61.681 0.570375 4.35481 0
M  V30 617 H 62.287 2.10671 3.69456 0
M  V30 618 N 60.6021 -1.18246 1.0419 0
M  V30 619 C 61.8271 -1.92736 0.765996 0
M  V30 620 C 62.2521 -1.75728 -0.67091 0
M  V30 621 O 61.6101 -1.06825 -1.46486 0
M  V30 622 C 61.6581 -3.42148 1.13875 0
M  V30 623 O 60.7621 -4.11548 0.264954 0
M  V30 624 H 60.1031 -0.601238 0.281797 0
M  V30 625 H 62.6331 -1.49942 1.39207 0
M  V30 626 H 62.6431 -3.92858 1.1012 0
M  V30 627 H 61.3181 -3.53848 2.18551 0
M  V30 628 H 59.8951 -3.71137 0.362226 0
M  V30 629 N 62.0802 -0.821533 -1.34494 0
M  V30 630 C 63.0432 -0.247847 -2.27856 0
M  V30 631 C 64.0432 0.573453 -1.50227 0
M  V30 632 O 65.2332 0.389759 -1.69784 0
M  V30 633 C 62.3652 0.652698 -3.34593 0
M  V30 634 H 63.5582 -1.07146 -2.80107 0
M  V30 635 H 61.1112 -0.593291 -1.44602 0
M  V30 636 H 61.8462 1.49943 -2.87555 0
M  V30 637 H 61.6312 0.065292 -3.92046 0
M  V30 638 H 63.1212 1.04793 -4.04238 0
M  V30 639 N 63.5583 1.46682 -0.576371 0
M  V30 640 C 64.8063 2.02013 -0.0594163 0
M  V30 641 C 65.1273 1.45101 1.30271 0
M  V30 642 O 64.3973 0.633317 1.8538 0
M  V30 643 H 62.9773 0.746759 -0.0189745 0
M  V30 644 H 65.6393 1.79862 -0.750717 0
M  V30 645 H 64.7353 3.12097 0.014345 0
M  V30 646 N 65.0364 0.313813 1.54444 0
M  V30 647 C 66.2824 -0.292108 2.00685 0
M  V30 648 C 66.6154 -1.52548 1.20177 0
M  V30 649 O 65.8904 -1.92452 0.281531 0
M  V30 650 C 66.1734 -0.635968 3.5444 0
M  V30 651 C 66.0264 0.607437 4.4568 0
M  V30 652 C 67.3454 -1.45747 4.15266 0
M  V30 653 H 64.4644 -0.104697 0.729526 0
M  V30 654 H 67.1064 0.428457 1.85106 0
M  V30 655 H 65.2564 -1.24986 3.67846 0
M  V30 656 H 66.9284 1.24581 4.44159 0
M  V30 657 H 65.1714 1.23822 4.15753 0
M  V30 658 H 65.8424 0.322515 5.51057 0
M  V30 659 H 68.3184 -0.938645 4.05375 0
M  V30 660 H 67.1944 -1.66683 5.2298 0
M  V30 661 H 67.4554 -2.45063 3.67963 0
M  V30 662 N 66.5145 -1.57545 0.0417849 0
M  V30 663 C 67.7605 -1.92601 -0.635021 0
M  V30 664 C 68.0935 -0.919627 -1.71045 0
M  V30 665 O 67.3685 0.0557892 -1.9442 0
M  V30 666 C 67.6515 -3.38085 -1.23979 0
M  V30 667 C 67.5045 -4.49467 -0.173057 0
M  V30 668 C 68.8235 -3.83776 -2.15416 0
M  V30 669 H 65.9425 -0.700397 -0.229374 0
M  V30 670 H 68.5845 -1.89728 0.101633 0
M  V30 671 H 66.7345 -3.40664 -1.86762 0
M  V30 672 H 68.4065 -4.59018 0.458312 0
M  V30 673 H 66.6495 -4.30909 0.499996 0
M  V30 674 H 67.3205 -5.48323 -0.636054 0
M  V30 675 H 69.7965 -3.83013 -1.62605 0
M  V30 676 H 68.6725 -4.8624 -2.54679 0
M  V30 677 H 68.9335 -3.19998 -3.05047 0
M  V30 678 N 67.9926 0.231505 -1.5589 0
M  V30 679 C 69.2406 0.955461 -1.78088 0
M  V30 680 C 69.5616 1.85262 -0.608533 0
M  V30 681 O 68.8316 1.92277 0.375035 0
M  V30 682 H 67.4116 0.355787 -0.656829 0
M  V30 683 H 70.0736 0.245751 -1.93344 0
M  V30 684 H 69.1696 1.56814 -2.69844 0
M  V30 685 N 69.4707 1.49531 0.497807 0
M  V30 686 C 70.4207 1.62829 1.59596 0
M  V30 687 C 71.4047 0.483824 1.53453 0
M  V30 688 O 72.5967 0.736937 1.60929 0
M  V30 689 C 69.7257 1.7011 2.98191 0
M  V30 690 C 68.8117 2.90144 3.09317 0
M  V30 691 N 69.2027 4.1418 2.90324 0
M  V30 692 C 67.5007 2.88148 3.40422 0
M  V30 693 C 68.2017 4.94886 3.05717 0
M  V30 694 N 67.1777 4.28314 3.34736 0
M  V30 695 H 70.9797 2.56446 1.4357 0
M  V30 696 H 68.4937 1.46347 0.704001 0
M  V30 697 H 70.4907 1.77735 3.77115 0
M  V30 698 H 69.1507 0.776315 3.15283 0
M  V30 699 H 70.1617 4.44109 2.66436 0
M  V30 700 H 66.8387 2.05061 3.63671 0
M  V30 701 H 68.2287 6.03432 2.95499 0
M  V30 702 N 70.9488 -0.749086 1.3866 0
M  V30 703 C 72.1738 -1.54344 1.38538 0
M  V30 704 C 72.5988 -1.88088 -0.0216655 0
M  V30 705 O 71.9568 -1.50899 -1.00494 0
M  V30 706 C 72.0048 -2.8164 2.25192 0
M  V30 707 O 71.1088 -3.7698 1.67212 0
M  V30 708 H 70.4498 -0.466654 0.472367 0
M  V30 709 H 72.9798 -0.925355 1.82478 0
M  V30 710 H 72.9898 -3.30519 2.3921 0
M  V30 711 H 71.6648 -2.56411 3.27454 0
M  V30 712 H 70.2418 -3.35699 1.6236 0
M  V30 713 N 72.4269 -1.23603 -0.977757 0
M  V30 714 C 73.6569 -1.09487 -1.75203 0
M  V30 715 C 74.0649 0.356321 -1.85814 0
M  V30 716 O 73.4079 1.25816 -1.33851 0
M  V30 717 C 73.4699 -1.64905 -3.19447 0
M  V30 718 C 73.1339 -3.13688 -3.32338 0
M  V30 719 C 74.1309 -4.10953 -3.18455 0
M  V30 720 C 71.8159 -3.53449 -3.56902 0
M  V30 721 C 73.8099 -5.45962 -3.28944 0
M  V30 722 C 71.4969 -4.88602 -3.6703 0
M  V30 723 C 72.4949 -5.84668 -3.53062 0
M  V30 724 O 72.1829 -7.17365 -3.62826 0
M  V30 725 H 71.9149 -0.38367 -0.556573 0
M  V30 726 H 74.4689 -1.6398 -1.23693 0
M  V30 727 H 72.6989 -1.04835 -3.72218 0
M  V30 728 H 74.3879 -1.46226 -3.78646 0
M  V30 729 H 75.1539 -3.81577 -2.99372 0
M  V30 730 H 71.0329 -2.79188 -3.66844 0
M  V30 731 H 74.5769 -6.20925 -3.17958 0
M  V30 732 H 70.4739 -5.17653 -3.85623 0
M  V30 733 H 71.2419 -7.2515 -3.79605 0
M  V30 734 N 73.905 1.17692 -1.04816 0
M  V30 735 C 74.835 2.23777 -0.666791 0
M  V30 736 C 75.816 1.66796 0.33361 0
M  V30 737 O 77.001 1.93039 0.212042 0
M  V30 738 C 74.131 3.47281 -0.0367933 0
M  V30 739 C 73.085 4.17059 -0.961546 0
M  V30 740 C 72.411 5.34342 -0.195626 0
M  V30 741 C 73.711 4.69713 -2.28402 0
M  V30 742 H 75.405 2.55933 -1.55367 0
M  V30 743 H 72.951 1.23019 -0.748484 0
M  V30 744 H 74.904 4.20706 0.241775 0
M  V30 745 H 73.628 3.14381 0.885004 0
M  V30 746 H 72.287 3.45541 -1.22462 0
M  V30 747 H 71.935 4.97692 0.728816 0
M  V30 748 H 71.635 5.81966 -0.811775 0
M  V30 749 H 73.159 6.10553 0.0757473 0
M  V30 750 H 74.573 5.34794 -2.06563 0
M  V30 751 H 72.97 5.279 -2.8538 0
M  V30 752 H 74.04 3.86726 -2.92525 0
M  V30 753 N 75.3831 0.828654 1.34056 0
M  V30 754 C 76.6301 0.419458 1.98108 0
M  V30 755 C 76.9581 -1.01886 1.65679 0
M  V30 756 O 76.2131 -1.72539 0.923512 0
M  V30 757 C 76.5121 0.575226 3.52741 0
M  V30 758 C 76.1781 1.98012 4.05095 0
M  V30 759 C 74.8401 2.36442 4.19104 0
M  V30 760 C 77.1921 2.89824 4.33188 0
M  V30 761 C 74.5201 3.66009 4.58535 0
M  V30 762 C 76.8721 4.1886 4.74066 0
M  V30 763 C 75.5361 4.5726 4.86281 0
M  V30 764 H 74.8061 0.153491 0.724929 0
M  V30 765 H 77.4531 1.05371 1.59904 0
M  V30 766 H 75.7581 -0.142385 3.91541 0
M  V30 767 H 77.4551 0.239057 4.00287 0
M  V30 768 H 74.0451 1.67162 3.94658 0
M  V30 769 H 78.2291 2.61375 4.21897 0
M  V30 770 H 73.4851 3.95579 4.66184 0
M  V30 771 H 77.6591 4.90086 4.94761 0
M  V30 772 H 75.2861 5.57707 5.16592 0
M  V30 773 N 76.8612 -1.46375 0.584142 0
M  V30 774 C 77.8242 -2.28784 -0.138108 0
M  V30 775 C 78.8242 -1.38471 -0.817462 0
M  V30 776 O 80.0142 -1.60833 -0.669199 0
M  V30 777 C 77.1462 -3.18892 -1.20503 0
M  V30 778 H 78.3392 -2.94117 0.586127 0
M  V30 779 H 75.8922 -1.52509 0.342171 0
M  V30 780 H 76.6272 -2.58309 -1.96079 0
M  V30 781 H 76.4122 -3.85388 -0.722384 0
M  V30 782 H 77.9022 -3.80914 -1.71155 0
M  V30 783 N 78.3393 -0.321999 -1.54275 0
M  V30 784 C 79.5693 0.282642 -2.04658 0
M  V30 785 C 79.9773 1.46453 -1.19784 0
M  V30 786 O 79.3203 1.82367 -0.220932 0
M  V30 787 C 79.3823 0.781857 -3.50895 0
M  V30 788 C 79.0463 -0.277517 -4.56157 0
M  V30 789 C 80.0433 -1.11307 -5.07845 0
M  V30 790 C 77.7283 -0.425256 -5.00497 0
M  V30 791 C 79.7223 -2.08211 -6.02434 0
M  V30 792 C 77.4093 -1.39771 -5.94901 0
M  V30 793 C 78.4073 -2.2246 -6.45756 0
M  V30 794 O 78.0953 -3.18054 -7.38307 0
M  V30 795 H 77.8273 0.0622636 -0.673126 0
M  V30 796 H 80.3813 -0.465792 -2.00049 0
M  V30 797 H 78.6113 1.58118 -3.52896 0
M  V30 798 H 80.3003 1.30467 -3.84361 0
M  V30 799 H 81.0663 -1.00991 -4.74369 0
M  V30 800 H 76.9453 0.20847 -4.60528 0
M  V30 801 H 80.4893 -2.72791 -6.42052 0
M  V30 802 H 76.3863 -1.50152 -6.27794 0
M  V30 803 H 77.1543 -3.13275 -7.56175 0
M  V30 804 N 79.8174 1.5752 -0.0501392 0
M  V30 805 C 81.0454 1.96963 0.633492 0
M  V30 806 C 81.4604 0.927631 1.6444 0
M  V30 807 O 80.8174 -0.0882665 1.82286 0
M  V30 808 C 80.8684 3.36487 1.32132 0
M  V30 809 O 80.5894 4.36693 0.350894 0
M  V30 810 C 82.0904 3.90682 2.09481 0
M  V30 811 H 79.3104 0.648244 0.173266 0
M  V30 812 H 81.8544 2.0417 -0.116134 0
M  V30 813 H 80.0094 3.30434 2.02218 0
M  V30 814 H 80.4234 5.17702 0.841735 0
M  V30 815 H 81.8974 4.90591 2.5303 0
M  V30 816 H 82.3744 3.26053 2.94255 0
M  V30 817 H 82.9804 4.00069 1.44307 0
M  V30 818 N 81.2955 -0.223234 1.56011 0
M  V30 819 C 82.7065 -0.790368 1.69145 0
M  V30 820 C 83.0575 -1.85055 0.651845 0
M  V30 821 O 82.1825 -2.15498 -0.197359 0
M  V30 822 C 82.7775 -1.4404 3.06656 0
M  V30 823 C 81.3365 -1.95494 3.2165 0
M  V30 824 C 80.4835 -0.814506 2.65068 0
M  V30 825 H 83.4345 0.00139011 1.587 0
M  V30 826 H 83.4555 -2.30916 3.0242 0
M  V30 827 H 82.9675 -0.668543 3.82298 0
M  V30 828 H 81.0685 -2.75487 2.50874 0
M  V30 829 H 81.1815 -2.13607 4.28846 0
M  V30 830 H 79.5455 -1.22137 2.23505 0
M  V30 831 H 80.3285 -0.0553515 3.43255 0
M  V30 832 N 82.7736 -1.49793 -0.48987 0
M  V30 833 C 84.0196 -1.60078 -1.24511 0
M  V30 834 C 84.3526 -0.291608 -1.91998 0
M  V30 835 O 83.6276 0.705647 -1.81248 0
M  V30 836 C 83.9106 -2.76791 -2.30345 0
M  V30 837 C 83.7636 -4.17535 -1.67286 0
M  V30 838 C 85.0826 -2.89111 -3.31817 0
M  V30 839 H 82.2016 -0.582645 -0.451324 0
M  V30 840 H 84.8436 -1.82117 -0.541612 0
M  V30 841 H 82.9936 -2.5813 -2.90346 0
M  V30 842 H 84.6656 -4.4774 -1.11026 0
M  V30 843 H 82.9086 -4.22665 -0.976577 0
M  V30 844 H 83.5796 -4.95094 -2.44103 0
M  V30 845 H 86.0556 -3.06133 -2.81819 0
M  V30 846 H 84.9316 -3.72433 -4.03219 0
M  V30 847 H 85.1926 -1.9893 -3.94815 0
M  V30 848 N 84.2517 0.741722 -1.39055 0
M  V30 849 C 85.2147 1.83733 -1.37021 0
M  V30 850 C 86.2147 1.58542 -0.268534 0
M  V30 851 O 87.4047 1.66067 -0.526076 0
M  V30 852 C 84.5367 3.2141 -1.13617 0
M  V30 853 H 85.7297 1.86941 -2.34506 0
M  V30 854 H 83.2827 0.944676 -1.24521 0
M  V30 855 H 84.0177 3.23865 -0.167863 0
M  V30 856 H 83.8027 3.4109 -1.93391 0
M  V30 857 H 85.2927 4.01477 -1.14918 0
M  V30 858 N 85.7298 1.2412 0.971189 0
M  V30 859 C 86.6598 1.05508 2.08304 0
M  V30 860 C 87.6408 -0.0308864 1.70072 0
M  V30 861 O 88.8258 0.135521 1.93727 0
M  V30 862 C 85.9558 0.655365 3.4106 0
M  V30 863 C 84.9098 1.68971 3.93234 0
M  V30 864 C 84.2358 1.14516 5.22293 0
M  V30 865 C 85.5358 3.08487 4.21465 0
M  V30 866 H 87.2298 1.98507 2.24132 0
M  V30 867 H 84.7758 0.955821 1.07704 0
M  V30 868 H 86.7288 0.51217 4.18276 0
M  V30 869 H 85.4528 -0.31032 3.25122 0
M  V30 870 H 84.1118 1.82106 3.18171 0
M  V30 871 H 83.7598 0.170189 5.02712 0
M  V30 872 H 83.4598 1.83635 5.58168 0
M  V30 873 H 84.9838 1.01401 6.02121 0
M  V30 874 H 86.3978 2.98601 4.89398 0
M  V30 875 H 84.7948 3.74926 4.68562 0
M  V30 876 H 85.8648 3.56787 3.28376 0
M  V30 877 N 87.2079 -1.17134 1.05439 0
M  V30 878 C 88.1549 -2.21235 0.657539 0
M  V30 879 C 89.1249 -1.62551 -0.341543 0
M  V30 880 O 90.3099 -1.89379 -0.232393 0
M  V30 881 C 87.4499 -3.45076 0.0410575 0
M  V30 882 C 86.5629 -4.18042 1.08927 0
M  V30 883 C 85.6979 -5.29376 0.439848 0
M  V30 884 C 84.7369 -5.94132 1.4722 0
M  V30 885 N 83.8739 -6.96975 0.846756 0
M  V30 886 H 88.7139 -2.54534 1.54972 0
M  V30 887 H 86.2509 -1.25028 0.775006 0
M  V30 888 H 88.2089 -4.15862 -0.33383 0
M  V30 889 H 86.8389 -3.12353 -0.814568 0
M  V30 890 H 85.8909 -3.45945 1.58196 0
M  V30 891 H 87.2029 -4.62306 1.87282 0
M  V30 892 H 86.3569 -6.06699 0.0115125 0
M  V30 893 H 85.0959 -4.86251 -0.375656 0
M  V30 894 H 84.1009 -5.15538 1.91052 0
M  V30 895 H 85.3259 -6.39337 2.28965 0
M  V30 896 H 83.2719 -6.5598 0.0518075 0
M  V30 897 H 83.1889 -7.39565 1.5678 0
M  V30 898 H 84.4569 -7.78239 0.443277 0
M  V30 899 N 88.686 -0.835752 -1.33615 0
M  V30 900 C 89.911 -0.442389 -2.02627 0
M  V30 901 C 90.336 0.947735 -1.62479 0
M  V30 902 O 89.694 1.61907 -0.815826 0
M  V30 903 C 89.742 -0.567216 -3.56111 0
M  V30 904 O 88.846 0.407799 -4.10379 0
M  V30 905 H 88.187 -0.180278 -0.639059 0
M  V30 906 H 90.717 -1.12972 -1.70583 0
M  V30 907 H 90.727 -0.447708 -4.05536 0
M  V30 908 H 89.402 -1.58103 -3.84677 0
M  V30 909 H 87.979 0.246107 -3.72087 0
M  V30 910 N 90.1641 1.46063 -0.591896 0
M  V30 911 C 91.0941 2.33172 0.123673 0
M  V30 912 C 92.0751 1.45897 0.87453 0
M  V30 913 O 93.2601 1.74698 0.848181 0
M  V30 914 C 90.3901 3.28336 1.13194 0
M  V30 915 C 89.3441 4.25124 0.495324 0
M  V30 916 C 88.6701 5.09863 1.61071 0
M  V30 917 C 89.9701 5.19143 -0.573425 0
M  V30 918 H 91.6641 2.93252 -0.603646 0
M  V30 919 H 89.2101 1.41014 -0.291741 0
M  V30 920 H 91.1631 3.88137 1.64097 0
M  V30 921 H 89.8871 2.66383 1.88965 0
M  V30 922 H 88.5461 3.66599 0.00729452 0
M  V30 923 H 88.1941 4.44288 2.35832 0
M  V30 924 H 87.8941 5.75417 1.19035 0
M  V30 925 H 89.4181 5.72529 2.12233 0
M  V30 926 H 90.8321 5.73106 -0.1491 0
M  V30 927 H 89.2291 5.93089 -0.914636 0
M  V30 928 H 90.2991 4.62519 -1.45617 0
M  V30 929 N 91.6422 0.330177 1.54103 0
M  V30 930 C 92.5892 -0.532762 2.24567 0
M  V30 931 C 93.5592 -1.10635 1.23892 0
M  V30 932 O 94.7442 -1.14546 1.5259 0
M  V30 933 C 91.8842 -1.6845 3.01195 0
M  V30 934 C 90.9972 -1.13951 4.167 0
M  V30 935 C 90.1322 -2.25746 4.80845 0
M  V30 936 C 89.1712 -1.6853 5.88442 0
M  V30 937 N 88.3082 -2.74014 6.46421 0
M  V30 938 H 93.1482 0.0746905 2.97906 0
M  V30 939 H 90.6852 0.048632 1.4702 0
M  V30 940 H 92.6432 -2.36234 3.43874 0
M  V30 941 H 91.2732 -2.26314 2.30178 0
M  V30 942 H 90.3252 -0.35301 3.78758 0
M  V30 943 H 91.6372 -0.680892 4.94131 0
M  V30 944 H 90.7912 -3.01422 5.26526 0
M  V30 945 H 89.5302 -2.74947 4.0281 0
M  V30 946 H 88.5352 -0.913543 5.42157 0
M  V30 947 H 89.7602 -1.20198 6.68378 0
M  V30 948 H 87.7062 -3.22494 5.71256 0
M  V30 949 H 87.6232 -2.32735 7.19285 0
M  V30 950 H 88.8912 -3.49499 6.96757 0
M  V30 951 N 93.1203 -1.57491 0.0584922 0
M  V30 952 C 94.0523 -2.08916 -0.942694 0
M  V30 953 C 95.0653 -1.0185 -1.27006 0
M  V30 954 O 96.2543 -1.29398 -1.22957 0
M  V30 955 C 93.3543 -2.52341 -2.26224 0
M  V30 956 C 92.5273 -3.82827 -2.1157 0
M  V30 957 C 91.5863 -4.12487 -3.26712 0
M  V30 958 O 90.6123 -4.82295 -3.02292 0
M  V30 959 N 91.8143 -3.64978 -4.5141 0
M  V30 960 H 94.5793 -2.95437 -0.503722 0
M  V30 961 H 92.1403 -1.61397 -0.12757 0
M  V30 962 H 94.1323 -2.69254 -3.02133 0
M  V30 963 H 92.7023 -1.7103 -2.61663 0
M  V30 964 H 91.9223 -3.75425 -1.20208 0
M  V30 965 H 93.2103 -4.68263 -1.99015 0
M  V30 966 H 92.6083 -3.08558 -4.7414 0
M  V30 967 H 91.1653 -3.87115 -5.2439 0
M  V30 968 N 94.5984 0.214957 -1.56127 0
M  V30 969 C 95.5284 1.2695 -1.95974 0
M  V30 970 C 96.5094 1.48539 -0.828868 0
M  V30 971 O 97.6944 1.60611 -1.09168 0
M  V30 972 C 94.8244 2.61794 -2.28214 0
M  V30 973 C 93.7784 2.54851 -3.43853 0
M  V30 974 C 93.1044 3.93785 -3.61715 0
M  V30 975 C 94.4044 2.09065 -4.78632 0
M  V30 976 H 96.0984 0.93846 -2.84312 0
M  V30 977 H 93.6444 0.449996 -1.36788 0
M  V30 978 H 95.5974 3.35731 -2.54682 0
M  V30 979 H 94.3214 2.96599 -1.36736 0
M  V30 980 H 92.9804 1.8337 -3.17444 0
M  V30 981 H 92.6284 4.25908 -2.67602 0
M  V30 982 H 92.3284 3.90019 -4.39498 0
M  V30 983 H 93.8524 4.69374 -3.90539 0
M  V30 984 H 95.2664 2.7275 -5.04262 0
M  V30 985 H 93.6634 2.16346 -5.59745 0
M  V30 986 H 94.7334 1.04315 -4.73547 0
M  V30 987 N 96.0765 1.50051 0.48192 0
M  V30 988 C 97.0065 1.71046 1.58951 0
M  V30 989 C 97.9875 0.559288 1.60642 0
M  V30 990 O 99.1725 0.797243 1.77081 0
M  V30 991 C 96.3025 1.79462 2.97339 0
M  V30 992 C 95.2565 2.94558 3.10515 0
M  V30 993 C 94.5825 2.88105 4.50444 0
M  V30 994 C 95.8825 4.35227 2.88747 0
M  V30 995 H 97.5765 2.6378 1.41635 0
M  V30 996 H 95.1225 1.26936 0.679942 0
M  V30 997 H 97.0755 1.92734 3.74742 0
M  V30 998 H 95.7995 0.833412 3.15788 0
M  V30 999 H 94.4585 2.80918 2.35543 0
M  V30 1000 H 94.1065 1.89853 4.65795 0
M  V30 1001 H 93.8065 3.65366 4.60197 0
M  V30 1002 H 95.3305 3.03412 5.29881 0
M  V30 1003 H 96.7445 4.49449 3.55905 0
M  V30 1004 H 95.1415 5.13856 3.09955 0
M  V30 1005 H 96.2115 4.48347 1.84696 0
M  V30 1006 N 97.5546 -0.734337 1.39446 0
M  V30 1007 C 98.8316 -1.48579 1.27215 0
M  V30 1008 C 99.2116 -2.1077 -0.117968 0
M  V30 1009 O 98.5596 -1.98646 -1.12924 0
M  V30 1010 C 98.7696 -2.53667 2.39696 0
M  V30 1011 C 100.118 -3.20031 2.79044 0
M  V30 1012 O 101.142 -2.6398 2.39151 0
M  V30 1013 O 100.001 -4.21455 3.47905 0
M  V30 1014 H 97.0946 -0.659816 0.49857 0
M  V30 1015 H 99.6406 -0.768106 1.51322 0
M  V30 1016 H 98.4126 -2.06096 3.32626 0
M  V30 1017 H 98.0356 -3.32994 2.17258 0
M  V30 1018 N 99.0327 -1.24633 -0.964593 0
M  V30 1019 C 100.31 -0.995809 -1.68354 0
M  V30 1020 C 100.69 0.480964 -2.05548 0
M  V30 1021 O 100.038 1.45599 -1.76105 0
M  V30 1022 C 100.248 -1.92177 -2.91323 0
M  V30 1023 C 101.596 -2.19446 -3.63495 0
M  V30 1024 O 102.62 -1.89855 -3.01386 0
M  V30 1025 O 101.479 -2.69714 -4.75307 0
M  V30 1026 H 98.5727 -0.376854 -0.736146 0
M  V30 1027 H 101.119 -1.35745 -1.0184 0
M  V30 1028 H 99.8907 -2.91938 -2.60553 0
M  V30 1029 H 99.5137 -1.56349 -3.65569 0
M  V30 1030 N 100.511 1.16574 -1.06058 0
M  V30 1031 C 101.444 2.19798 -0.61352 0
M  V30 1032 C 102.422 1.58509 0.362453 0
M  V30 1033 O 103.606 1.86527 0.271994 0
M  V30 1034 C 100.733 3.3855 0.100915 0
M  V30 1035 C 99.7788 4.18317 -0.831438 0
M  V30 1036 S 100.612 4.82375 -2.32539 0
M  V30 1037 C 101.768 6.04508 -1.62238 0
M  V30 1038 H 102.001 2.5738 -1.48805 0
M  V30 1039 H 99.5338 1.27327 -0.873338 0
M  V30 1040 H 101.492 4.07358 0.506898 0
M  V30 1041 H 100.153 2.99338 0.951604 0
M  V30 1042 H 99.3458 5.03232 -0.278071 0
M  V30 1043 H 98.9478 3.5499 -1.17719 0
M  V30 1044 H 101.24 6.71133 -0.926622 0
M  V30 1045 H 102.183 6.64389 -2.44934 0
M  V30 1046 H 102.591 5.53559 -1.106 0
M  V30 1047 N 101.989 0.842826 1.3317 0
M  V30 1048 C 102.952 0.284065 2.27433 0
M  V30 1049 C 103.952 -0.54948 1.5112 0
M  V30 1050 O 105.142 -0.362699 1.70382 0
M  V30 1051 C 102.274 -0.599384 3.35589 0
M  V30 1052 H 103.467 1.11589 2.78366 0
M  V30 1053 H 101.02 0.616221 1.4364 0
M  V30 1054 H 101.755 -1.45349 2.89904 0
M  V30 1055 H 101.54 -0.00291266 3.921 0
M  V30 1056 H 103.03 -0.983488 4.05854 0
M  V30 1057 N 103.467 -1.45747 0.599634 0
M  V30 1058 C 104.43 -2.28917 -0.113835 0
M  V30 1059 C 105.43 -1.3933 -0.802729 0
M  V30 1060 O 106.62 -1.61534 -0.652103 0
M  V30 1061 C 103.752 -3.20152 -1.17114 0
M  V30 1062 H 104.945 -2.93478 0.617289 0
M  V30 1063 H 102.498 -1.52137 0.358327 0
M  V30 1064 H 103.233 -2.60374 -1.93329 0
M  V30 1065 H 103.018 -3.86133 -0.681468 0
M  V30 1066 H 104.508 -3.82708 -1.67105 0
M  V30 1067 N 104.945 -0.338344 -1.53925 0
M  V30 1068 C 105.878 0.563758 -2.21127 0
M  V30 1069 C 106.856 1.10433 -1.19345 0
M  V30 1070 O 108.04 1.16557 -1.48144 0
M  V30 1071 C 105.167 1.77505 -2.88461 0
M  V30 1072 C 104.213 1.3644 -4.04087 0
M  V30 1073 S 105.046 0.388593 -5.34088 0
M  V30 1074 C 106.202 1.60683 -6.04923 0
M  V30 1075 H 106.435 -0.00704546 -2.97299 0
M  V30 1076 H 103.968 -0.122418 -1.53914 0
M  V30 1077 H 105.926 2.46999 -3.27875 0
M  V30 1078 H 104.587 2.31706 -2.12064 0
M  V30 1079 H 103.78 2.26739 -4.50117 0
M  V30 1080 H 103.382 0.748998 -3.66423 0
M  V30 1081 H 105.674 2.54209 -6.28 0
M  V30 1082 H 106.617 1.18842 -6.98056 0
M  V30 1083 H 107.025 1.80052 -5.35015 0
M  V30 1084 N 106.423 1.57458 -0.0668435 0
M  V30 1085 C 107.672 1.92477 0.602947 0
M  V30 1086 C 107.985 0.948419 1.71068 0
M  V30 1087 O 109.191 1.19124 2.43971 0
M  V30 1088 C 107.647 3.41903 1.12383 0
M  V30 1089 C 107.255 4.47975 0.04737 0
M  V30 1090 C 108.999 3.85931 1.76797 0
M  V30 1091 C 106.906 5.88529 0.582022 0
M  V30 1092 H 105.836 0.718387 0.22899 0
M  V30 1093 H 108.487 1.82978 -0.138276 0
M  V30 1094 H 106.869 3.46459 1.91787 0
M  V30 1095 H 108.043 4.55029 -0.726978 0
M  V30 1096 H 106.358 4.13384 -0.500243 0
M  V30 1097 H 108.955 4.88322 2.17821 0
M  V30 1098 H 109.298 3.23029 2.62599 0
M  V30 1099 H 109.831 3.83958 1.04024 0
M  V30 1100 H 106.57 6.55065 -0.238721 0
M  V30 1101 H 106.09 5.85004 1.324 0
M  V30 1102 H 107.769 6.38258 1.05999 0
M  V30 1103 N 107.901 -0.206675 1.56239 0
M  V30 1104 C 109.147 -0.930218 1.80208 0
M  V30 1105 C 109.48 -1.83387 0.638981 0
M  V30 1106 O 108.755 -1.91119 -0.361066 0
M  V30 1107 C 109.038 -1.75641 3.1436 0
M  V30 1108 C 108.891 -0.878257 4.41142 0
M  V30 1109 C 110.21 -2.73129 3.45092 0
M  V30 1110 H 107.329 -0.336742 0.655571 0
M  V30 1111 H 109.971 -0.198222 1.88963 0
M  V30 1112 H 108.121 -2.38048 3.07027 0
M  V30 1113 H 109.793 -0.269787 4.6051 0
M  V30 1114 H 108.036 -0.184385 4.33408 0
M  V30 1115 H 108.707 -1.49106 5.3148 0
M  V30 1116 H 111.183 -2.20856 3.52649 0
M  V30 1117 H 110.059 -3.28028 4.40101 0
M  V30 1118 H 110.32 -3.51606 2.68003 0
M  V30 1119 N 109.379 -1.50304 -0.473955 0
M  V30 1120 C 110.327 -1.69482 -1.59307 0
M  V30 1121 C 111.321 -0.560669 -1.59853 0
M  V30 1122 O 112.527 -0.741087 -1.64036 0
M  V30 1123 H 108.902 -0.534892 -0.528578 0
M  V30 1124 H 110.873 -2.63364 -1.40293 0
M  V30 1125 C 109.622 -1.80354 -2.97267 0
M  V30 1126 H 108.945 -2.67012 -2.97564 0
M  V30 1127 H 110.385 -1.97798 -3.75036 0
M  V30 1128 C 108.844 -0.55448 -3.32306 0
M  V30 1129 O 109.374 0.307661 -4.0052 0
M  V30 1130 N 107.58 -0.409354 -2.87702 0
M  V30 1131 H 107.127 -1.11196 -2.32364 0
M  V30 1132 H 107.085 0.425223 -3.11511 0
M  V30 1133 N 110.857 0.726932 -1.39834 0
M  V30 1134 C 111.767 1.87131 -1.41489 0
M  V30 1135 C 112.783 1.71239 -0.308757 0
M  V30 1136 O 113.959 1.93701 -0.551529 0
M  V30 1137 C 111.024 3.22811 -1.26468 0
M  V30 1138 C 110.085 3.51039 -2.47124 0
M  V30 1139 C 109.318 4.80245 -2.3281 0
M  V30 1140 O 109.541 5.54537 -1.33585 0
M  V30 1141 O 108.475 5.08554 -3.21957 0
M  V30 1142 H 112.301 1.8869 -2.3797 0
M  V30 1143 H 109.886 0.875837 -1.21035 0
M  V30 1144 H 111.768 4.03877 -1.20255 0
M  V30 1145 H 110.443 3.22005 -0.330862 0
M  V30 1146 H 109.35 2.70027 -2.58914 0
M  V30 1147 H 110.683 3.56632 -3.39227 0
M  V30 1148 N 112.336 1.25143 0.95797 0
M  V30 1149 C 113.747 1.08851 1.51685 0
M  V30 1150 C 114.098 -0.33687 1.93286 0
M  V30 1151 O 113.223 -1.22644 1.7829 0
M  V30 1152 C 113.818 1.96978 2.75654 0
M  V30 1153 C 112.377 1.84881 3.27866 0
M  V30 1154 C 111.524 1.91329 2.0072 0
M  V30 1155 H 114.475 1.38478 0.77522 0
M  V30 1156 H 114.496 1.5078 3.4935 0
M  V30 1157 H 114.008 3.00712 2.45345 0
M  V30 1158 H 112.109 0.840182 3.63004 0
M  V30 1159 H 112.222 2.6951 3.96107 0
M  V30 1160 H 110.586 1.35174 2.15871 0
M  V30 1161 H 111.369 2.96661 1.72764 0
M  V30 1162 N 113.814 -1.1601 1.06675 0
M  V30 1163 C 114.744 -2.22688 0.702307 0
M  V30 1164 C 115.725 -1.67306 -0.307032 0
M  V30 1165 O 116.91 -1.93352 -0.181305 0
M  V30 1166 C 114.04 -3.47178 0.092038 0
M  V30 1167 C 112.994 -4.15477 1.02777 0
M  V30 1168 C 112.32 -5.33963 0.28061 0
M  V30 1169 C 113.62 -4.66019 2.35846 0
M  V30 1170 H 115.314 -2.53429 1.59419 0
M  V30 1171 H 112.86 -1.21813 0.767961 0
M  V30 1172 H 114.813 -4.21037 -0.174814 0
M  V30 1173 H 113.537 -3.15749 -0.834877 0
M  V30 1174 H 112.196 -3.43549 1.27944 0
M  V30 1175 H 111.844 -4.98788 -0.649545 0
M  V30 1176 H 111.544 -5.806 0.904258 0
M  V30 1177 H 113.068 -6.10596 0.021396 0
M  V30 1178 H 114.482 -5.3144 2.15045 0
M  V30 1179 H 112.879 -5.23293 2.93743 0
M  V30 1180 H 113.949 -3.82023 2.98641 0
M  V30 1181 N 115.292 -0.849877 -1.32721 0
M  V30 1182 C 116.255 -0.296122 -2.27279 0
M  V30 1183 C 117.255 0.541458 -1.5141 0
M  V30 1184 O 118.445 0.353658 -1.70572 0
M  V30 1185 C 115.577 0.581579 -3.35902 0
M  V30 1186 H 116.77 -1.13064 -2.77771 0
M  V30 1187 H 114.323 -0.62383 -1.43311 0
M  V30 1188 H 115.058 1.43809 -2.9067 0
M  V30 1189 H 114.843 -0.0178814 -3.92096 0
M  V30 1190 H 116.333 0.961951 -4.0637 0
M  V30 1191 N 116.77 1.45427 -0.607355 0
M  V30 1192 C 118.181 1.85756 -0.187535 0
M  V30 1193 C 118.532 1.5077 1.25551 0
M  V30 1194 O 117.657 0.93427 1.95193 0
M  V30 1195 C 118.252 3.37154 -0.333572 0
M  V30 1196 C 116.811 3.76387 0.0315542 0
M  V30 1197 C 115.958 2.69377 -0.658117 0
M  V30 1198 H 118.909 1.36231 -0.81405 0
M  V30 1199 H 118.93 3.78014 0.43428 0
M  V30 1200 H 118.442 3.62586 -1.38393 0
M  V30 1201 H 116.543 3.56571 1.0811 0
M  V30 1202 H 116.656 4.77731 -0.361935 0
M  V30 1203 H 115.02 2.5452 -0.0957873 0
M  V30 1204 H 115.803 2.97646 -1.7106 0
M  V30 1205 N 118.248 0.346503 1.53744 0
M  V30 1206 C 119.494 -0.249473 2.0126 0
M  V30 1207 C 119.827 -1.49965 1.23386 0
M  V30 1208 O 119.102 -1.91811 0.32229 0
M  V30 1209 C 119.385 -0.560643 3.55709 0
M  V30 1210 C 119.238 0.701836 4.44291 0
M  V30 1211 C 120.557 -1.36905 4.18264 0
M  V30 1212 H 117.676 -0.0891987 0.731582 0
M  V30 1213 H 120.318 0.467624 1.84156 0
M  V30 1214 H 118.468 -1.17156 3.70414 0
M  V30 1215 H 120.14 1.33974 4.41417 0
M  V30 1216 H 118.383 1.32612 4.13033 0
M  V30 1217 H 119.054 0.43933 5.50249 0
M  V30 1218 H 121.53 -0.852448 4.07275 0
M  V30 1219 H 120.406 -1.55553 5.26398 0
M  V30 1220 H 120.667 -2.37203 3.73078 0
M  V30 1221 N 119.726 -1.57421 0.075193 0
M  V30 1222 C 120.951 -1.98364 -0.605515 0
M  V30 1223 C 121.376 -0.953383 -1.62149 0
M  V30 1224 O 120.734 0.0806053 -1.81121 0
M  V30 1225 C 120.782 -3.38332 -1.24756 0
M  V30 1226 O 119.886 -3.37959 -2.36342 0
M  V30 1227 H 119.227 -0.645553 -0.155428 0
M  V30 1228 H 121.757 -2.04044 0.150714 0
M  V30 1229 H 121.767 -3.75591 -1.5936 0
M  V30 1230 H 120.442 -4.12846 -0.503129 0
M  V30 1231 H 119.019 -3.12474 -2.03506 0
M  V30 1232 N 121.204 0.198386 -1.56346 0
M  V30 1233 C 122.134 1.24865 -1.9731 0
M  V30 1234 C 123.115 1.47651 -0.844576 0
M  V30 1235 O 124.3 1.59444 -1.10866 0
M  V30 1236 C 121.43 2.59358 -2.30977 0
M  V30 1237 C 120.384 2.5119 -3.46537 0
M  V30 1238 C 119.71 3.89926 -3.65871 0
M  V30 1239 C 121.01 2.03977 -4.80823 0
M  V30 1240 H 122.704 0.908252 -2.85291 0
M  V30 1241 H 120.25 0.435462 -1.37258 0
M  V30 1242 H 122.203 3.33011 -2.58228 0
M  V30 1243 H 120.927 2.95132 -1.39874 0
M  V30 1244 H 119.586 1.79993 -3.19371 0
M  V30 1245 H 119.234 4.23046 -2.72105 0
M  V30 1246 H 118.934 3.85336 -4.4361 0
M  V30 1247 H 120.458 4.65205 -3.95495 0
M  V30 1248 H 121.872 2.67386 -5.07127 0
M  V30 1249 H 120.269 2.10397 -5.62008 0
M  V30 1250 H 121.339 0.992861 -4.74626 0
M  V30 1251 N 122.682 1.50554 0.465978 0
M  V30 1252 C 123.592 1.72585 1.58907 0
M  V30 1253 C 124.608 0.60911 1.6299 0
M  V30 1254 O 125.784 0.88804 1.80765 0
M  V30 1255 C 122.849 1.81995 2.95091 0
M  V30 1256 C 121.91 3.05751 3.01355 0
M  V30 1257 C 121.143 3.14702 4.31043 0
M  V30 1258 O 121.366 2.30313 5.21835 0
M  V30 1259 O 120.3 4.07468 4.43005 0
M  V30 1260 H 124.126 2.67799 1.43239 0
M  V30 1261 H 121.711 1.34711 0.646013 0
M  V30 1262 H 123.593 1.90335 3.75966 0
M  V30 1263 H 122.268 0.899659 3.10947 0
M  V30 1264 H 121.175 3.02908 2.19539 0
M  V30 1265 H 122.508 3.97375 2.90437 0
M  V30 1266 N 124.16 -0.719506 1.40217 0
M  V30 1267 C 125.123 -1.8153 1.39927 0
M  V30 1268 C 126.123 -1.58095 0.293723 0
M  V30 1269 O 127.313 -1.65209 0.552429 0
M  V30 1270 C 124.445 -3.19561 1.18716 0
M  V30 1271 H 125.638 -1.83186 2.37451 0
M  V30 1272 H 123.191 -0.924746 1.26008 0
M  V30 1273 H 123.926 -3.23557 0.219366 0
M  V30 1274 H 123.711 -3.3797 1.98793 0
M  V30 1275 H 125.201 -3.99598 1.21291 0
M  V30 1276 N 125.638 -1.25649 -0.95132 0
M  V30 1277 C 126.571 -1.00644 -2.04807 0
M  V30 1278 C 127.549 0.0654271 -1.62468 0
M  V30 1279 O 128.733 -0.074911 -1.88351 0
M  V30 1280 C 125.86 -0.522052 -3.34653 0
M  V30 1281 C 124.906 -1.58495 -3.95957 0
M  V30 1282 S 125.739 -3.17108 -4.31512 0
M  V30 1283 C 126.895 -2.70412 -5.64471 0
M  V30 1284 H 127.128 -1.93508 -2.25703 0
M  V30 1285 H 124.661 -1.09216 -1.09139 0
M  V30 1286 H 126.619 -0.24923 -4.09743 0
M  V30 1287 H 125.28 0.386146 -3.11717 0
M  V30 1288 H 124.473 -1.1968 -4.89584 0
M  V30 1289 H 124.075 -1.80862 -3.2736 0
M  V30 1290 H 126.367 -2.14245 -6.42733 0
M  V30 1291 H 127.31 -3.62693 -6.08161 0
M  V30 1292 H 127.718 -2.10302 -5.23864 0
M  V30 1293 N 127.117 1.15442 -1.07289 0
M  V30 1294 C 128.047 2.22312 -0.714107 0
M  V30 1295 C 129.028 1.67467 0.298155 0
M  V30 1296 O 130.213 1.93445 0.171048 0
M  V30 1297 C 127.343 3.47124 -0.110448 0
M  V30 1298 C 126.297 4.14926 -1.04979 0
M  V30 1299 C 125.623 5.33807 -0.308924 0
M  V30 1300 C 126.923 4.64762 -2.38314 0
M  V30 1301 H 128.617 2.5258 -1.6076 0
M  V30 1302 H 126.163 1.21404 -0.77441 0
M  V30 1303 H 128.116 4.21124 0.152482 0
M  V30 1304 H 126.84 3.16187 0.81812 0
M  V30 1305 H 125.499 3.42866 -1.29764 0
M  V30 1306 H 125.147 4.99126 0.623084 0
M  V30 1307 H 124.847 5.80113 -0.935036 0
M  V30 1308 H 126.371 6.10576 -0.0537771 0
M  V30 1309 H 127.785 5.30292 -2.1786 0
M  V30 1310 H 126.182 5.21728 -2.96514 0
M  V30 1311 H 127.252 3.80434 -3.00663 0
M  V30 1312 N 128.595 0.856903 1.32268 0
M  V30 1313 C 129.558 0.308171 2.27119 0
M  V30 1314 C 130.558 -0.533421 1.51695 0
M  V30 1315 O 131.748 -0.344607 1.70757 0
M  V30 1316 C 128.88 -0.563757 3.36206 0
M  V30 1317 H 130.073 1.14535 2.77167 0
M  V30 1318 H 127.626 0.631421 1.42978 0
M  V30 1319 H 128.361 -1.42266 2.91429 0
M  V30 1320 H 128.146 0.0386749 3.92081 0
M  V30 1321 H 129.636 -0.940386 4.06874 0
M  V30 1322 N 130.073 -1.45103 0.615059 0
M  V30 1323 C 131.02 -2.30586 -0.0993978 0
M  V30 1324 C 131.99 -1.42544 -0.852669 0
M  V30 1325 O 133.175 -1.71465 -0.836917 0
M  V30 1326 C 130.315 -3.27572 -1.08583 0
M  V30 1327 C 129.428 -4.30717 -0.332656 0
M  V30 1328 C 128.563 -5.14807 -1.30947 0
M  V30 1329 C 127.602 -6.09673 -0.544538 0
M  V30 1330 N 126.739 -6.86517 -1.47101 0
M  V30 1331 H 131.579 -2.91144 0.635542 0
M  V30 1332 H 129.116 -1.4346 0.325206 0
M  V30 1333 H 131.074 -3.82276 -1.67095 0
M  V30 1334 H 129.704 -2.68751 -1.78809 0
M  V30 1335 H 128.756 -3.78615 0.368107 0
M  V30 1336 H 130.068 -4.98102 0.263842 0
M  V30 1337 H 129.222 -5.73948 -1.96643 0
M  V30 1338 H 127.961 -4.47458 -1.9399 0
M  V30 1339 H 126.966 -5.49656 0.126003 0
M  V30 1340 H 128.191 -6.79052 0.080947 0
M  V30 1341 H 126.137 -6.21851 -2.08895 0
M  V30 1342 H 126.054 -7.50281 -0.928137 0
M  V30 1343 H 127.322 -7.50194 -2.11731 0
M  V30 1344 N 131.551 -0.354651 -1.53558 0
M  V30 1345 C 132.967 -0.00315426 -1.596 0
M  V30 1346 C 133.167 1.47741 -1.37021 0
M  V30 1347 O 132.223 2.23759 -1.16996 0
M  V30 1348 C 133.536 -0.44929 -2.97325 0
M  V30 1349 C 135.084 -0.402578 -3.104 0
M  V30 1350 C 135.559 -0.824355 -4.5052 0
M  V30 1351 N 137.05 -0.778979 -4.56603 0
M  V30 1352 C 137.785 -1.07715 -5.63192 0
M  V30 1353 N 137.281 -1.44405 -6.77583 0
M  V30 1354 N 139.074 -1.00066 -5.53121 0
M  V30 1355 H 131.225 -1.31893 -1.66487 0
M  V30 1356 H 133.488 -0.538388 -0.780284 0
M  V30 1357 H 133.194 -1.48202 -3.1895 0
M  V30 1358 H 133.068 0.169772 -3.76818 0
M  V30 1359 H 135.455 0.621004 -2.88492 0
M  V30 1360 H 135.536 -1.05699 -2.32941 0
M  V30 1361 H 135.18 -1.846 -4.73165 0
M  V30 1362 H 135.11 -0.147304 -5.26394 0
M  V30 1363 H 137.601 -0.508528 -3.74463 0
M  V30 1364 H 137.914 -1.65612 -7.54846 0
M  V30 1365 H 136.259 -1.4826 -6.79002 0
M  V30 1366 H 139.45 -0.713293 -4.62633 0
M  V30 1367 H 139.623 -1.23638 -6.36096 0
M  V30 1368 N 133.029 1.57378 -0.0835403 0
M  V30 1369 C 134.276 1.9393 0.58287 0
M  V30 1370 C 134.604 0.964455 1.68904 0
M  V30 1371 O 133.859 -0.0179474 1.95692 0
M  V30 1372 C 134.158 3.37063 1.1884 0
M  V30 1373 C 133.824 4.50424 0.207194 0
M  V30 1374 C 132.486 4.81159 -0.0627115 0
M  V30 1375 C 134.838 5.19136 -0.463426 0
M  V30 1376 C 132.166 5.77939 -1.01012 0
M  V30 1377 C 134.518 6.16931 -1.39924 0
M  V30 1378 C 133.182 6.46078 -1.67749 0
M  V30 1379 H 132.452 0.70964 0.213287 0
M  V30 1380 H 135.099 1.90856 -0.156916 0
M  V30 1381 H 133.404 3.3666 2.00418 0
M  V30 1382 H 135.101 3.6264 1.71153 0
M  V30 1383 H 131.691 4.2646 0.427747 0
M  V30 1384 H 135.875 4.95576 -0.268034 0
M  V30 1385 H 131.131 5.98842 -1.23283 0
M  V30 1386 H 135.305 6.69273 -1.92476 0
M  V30 1387 H 132.932 7.2088 -2.41321 0
M  V30 1388 N 134.507 -0.190092 1.56449 0
M  V30 1389 C 135.747 -0.916414 1.82705 0
M  V30 1390 C 136.111 -1.80235 0.661763 0
M  V30 1391 O 137.312 -2.56484 0.80433 0
M  V30 1392 C 135.583 -1.70691 3.14005 0
M  V30 1393 S 137.142 -2.48457 3.61683 0
M  V30 1394 H 133.96 -0.307281 0.64117 0
M  V30 1395 H 136.562 -0.179433 1.94675 0
M  V30 1396 H 135.266 -1.04677 3.96826 0
M  V30 1397 H 134.797 -2.48562 3.04927 0
M  V30 1398 H 136.812 -3.72756 3.27517 0
M  V30 1399 N 135.985 -1.50799 -0.457987 0
M  V30 1400 C 136.915 -1.73553 -1.5621 0
M  V30 1401 C 137.896 -0.584774 -1.59732 0
M  V30 1402 O 139.081 -0.825314 -1.7579 0
M  V30 1403 C 136.211 -1.84169 -2.94447 0
M  V30 1404 C 135.165 -2.99461 -3.0579 0
M  V30 1405 C 134.491 -2.95235 -4.45803 0
M  V30 1406 C 135.791 -4.39766 -2.81786 0
M  V30 1407 H 137.485 -2.66 -1.37421 0
M  V30 1408 H 135.031 -1.28002 -0.659662 0
M  V30 1409 H 136.984 -1.98672 -3.71628 0
M  V30 1410 H 135.708 -0.883545 -3.14422 0
M  V30 1411 H 134.367 -2.8463 -2.31044 0
M  V30 1412 H 134.015 -1.97239 -4.62715 0
M  V30 1413 H 133.715 -3.72642 -4.54326 0
M  V30 1414 H 135.239 -3.11803 -5.24987 0
M  V30 1415 H 136.653 -4.55054 -3.4871 0
M  V30 1416 H 135.05 -5.18722 -3.0174 0
M  V30 1417 H 136.12 -4.51229 -1.7754 0
M  V30 1418 N 137.463 0.71206 -1.40597 0
M  V30 1419 C 138.426 1.80785 -1.40888 0
M  V30 1420 C 139.426 1.57937 -0.302103 0
M  V30 1421 O 140.616 1.64913 -0.561182 0
M  V30 1422 C 137.748 3.18927 -1.20409 0
M  V30 1423 H 138.941 1.81924 -2.38419 0
M  V30 1424 H 136.494 0.91805 -1.26497 0
M  V30 1425 H 137.229 3.23436 -0.236522 0
M  V30 1426 H 137.014 3.36911 -2.00582 0
M  V30 1427 H 138.504 3.98949 -1.23408 0
M  V30 1428 N 138.941 1.26152 0.944643 0
M  V30 1429 C 140.189 1.11271 1.6871 0
M  V30 1430 C 140.51 -0.345166 1.91921 0
M  V30 1431 O 139.78 -1.24387 1.51343 0
M  V30 1432 H 138.36 0.408783 0.625224 0
M  V30 1433 H 141.022 1.58427 1.1352 0
M  V30 1434 H 140.118 1.62879 2.66227 0
M  V30 1435 N 140.419 -1.14872 1.07899 0
M  V30 1436 C 141.649 -1.89386 0.825631 0
M  V30 1437 C 142.057 -1.78565 -0.625406 0
M  V30 1438 O 141.4 -1.13918 -1.44113 0
M  V30 1439 C 141.462 -3.40206 1.16191 0
M  V30 1440 C 141.126 -3.74812 2.61467 0
M  V30 1441 C 142.123 -3.75367 3.59716 0
M  V30 1442 C 139.808 -4.0495 2.97189 0
M  V30 1443 C 141.802 -4.05574 4.9172 0
M  V30 1444 C 139.489 -4.34821 4.29388 0
M  V30 1445 C 140.487 -4.35116 5.26463 0
M  V30 1446 O 140.175 -4.64267 6.56286 0
M  V30 1447 H 139.907 -0.606894 0.297751 0
M  V30 1448 H 142.461 -1.46438 1.44031 0
M  V30 1449 H 140.691 -3.8358 0.490214 0
M  V30 1450 H 142.38 -3.96018 0.890193 0
M  V30 1451 H 143.146 -3.52176 3.33462 0
M  V30 1452 H 139.025 -4.03876 2.22273 0
M  V30 1453 H 142.569 -4.05719 5.67484 0
M  V30 1454 H 138.466 -4.5748 4.55392 0
M  V30 1455 H 139.234 -4.82007 6.61522 0
M  V30 1456 N 141.898 -0.863906 -1.31812 0
M  V30 1457 C 143.126 -0.486111 -2.01108 0
M  V30 1458 C 143.541 0.919755 -1.64882 0
M  V30 1459 O 142.898 1.60162 -0.874893 0
M  V30 1460 C 142.949 -0.626435 -3.56031 0
M  V30 1461 O 142.67 -1.97693 -3.90959 0
M  V30 1462 C 144.171 -0.248857 -4.42601 0
M  V30 1463 H 141.391 -0.190052 -0.643523 0
M  V30 1464 H 143.935 -1.1634 -1.68182 0
M  V30 1465 H 142.09 0.00322717 -3.874 0
M  V30 1466 H 142.504 -1.98034 -4.85678 0
M  V30 1467 H 143.978 -0.398016 -5.50563 0
M  V30 1468 H 144.455 0.811489 -4.31638 0
M  V30 1469 H 145.061 -0.853971 -4.16638 0
M  V30 1470 N 143.376 1.44774 -0.622745 0
M  V30 1471 C 144.624 2.01721 -0.123655 0
M  V30 1472 C 144.945 1.49172 1.25589 0
M  V30 1473 O 144.215 0.691974 1.83272 0
M  V30 1474 H 142.795 0.745777 -0.0427225 0
M  V30 1475 H 145.457 1.77382 -0.807559 0
M  V30 1476 H 144.553 3.11984 -0.0849534 0
M  V30 1477 N 144.854 0.36279 1.53368 0
M  V30 1478 C 145.784 -0.476976 2.28576 0
M  V30 1479 C 146.765 -1.08631 1.30894 0
M  V30 1480 O 147.95 -1.10409 1.59761 0
M  V30 1481 C 145.08 -1.61828 3.07293 0
M  V30 1482 C 144.034 -1.13633 4.1264 0
M  V30 1483 C 143.36 -2.36766 4.79423 0
M  V30 1484 C 144.66 -0.223061 5.21823 0
M  V30 1485 H 146.354 0.150474 2.99022 0
M  V30 1486 H 143.9 0.0738103 1.43811 0
M  V30 1487 H 145.853 -2.21237 3.58653 0
M  V30 1488 H 144.577 -2.27292 2.34533 0
M  V30 1489 H 143.236 -0.564945 3.62221 0
M  V30 1490 H 142.884 -3.0068 4.03238 0
M  V30 1491 H 142.584 -2.05192 5.50609 0
M  V30 1492 H 144.108 -2.96865 5.33576 0
M  V30 1493 H 145.522 -0.724545 5.68703 0
M  V30 1494 H 143.919 0.001678 6.001 0
M  V30 1495 H 144.989 0.735553 4.79289 0
M  V30 1496 N 146.332 -1.57332 0.0918853 0
M  V30 1497 C 147.581 -1.93412 -0.572249 0
M  V30 1498 C 147.894 -0.975515 -1.69538 0
M  V30 1499 O 149.1 -1.22991 -2.42045 0
M  V30 1500 C 147.556 -3.43648 -1.0693 0
M  V30 1501 C 147.164 -4.47994 0.0239049 0
M  V30 1502 C 148.908 -3.88695 -1.70635 0
M  V30 1503 C 146.815 -5.89381 -0.488319 0
M  V30 1504 H 145.745 -0.721939 -0.217532 0
M  V30 1505 H 148.396 -1.82735 0.167369 0
M  V30 1506 H 146.778 -3.49466 -1.8625 0
M  V30 1507 H 147.952 -4.53815 0.799277 0
M  V30 1508 H 146.267 -4.12536 0.565946 0
M  V30 1509 H 148.864 -4.91725 -2.10025 0
M  V30 1510 H 149.207 -3.27166 -2.57426 0
M  V30 1511 H 149.74 -3.85564 -0.979023 0
M  V30 1512 H 146.479 -6.54602 0.342906 0
M  V30 1513 H 145.999 -5.87037 -1.23077 0
M  V30 1514 H 147.678 -6.39863 -0.958317 0
M  V30 1515 N 147.81 0.181792 -1.56548 0
M  V30 1516 C 149.226 0.53316 -1.50431 0
M  V30 1517 C 149.426 1.85184 -0.794297 0
M  V30 1518 O 148.482 2.50058 -0.350318 0
M  V30 1519 C 149.795 0.575597 -2.9514 0
M  V30 1520 C 151.343 0.663519 -3.05886 0
M  V30 1521 C 151.818 0.736946 -4.52032 0
M  V30 1522 N 153.309 0.800118 -4.56237 0
M  V30 1523 C 154.044 0.877327 -5.66649 0
M  V30 1524 N 153.54 0.916016 -6.86718 0
M  V30 1525 N 155.333 0.915542 -5.54594 0
M  V30 1526 H 147.484 -0.683025 -2.01118 0
M  V30 1527 H 149.747 -0.244988 -0.915797 0
M  V30 1528 H 149.453 -0.324482 -3.502 0
M  V30 1529 H 149.327 1.42572 -3.49218 0
M  V30 1530 H 151.714 1.55403 -2.50867 0
M  V30 1531 H 151.795 -0.21307 -2.54911 0
M  V30 1532 H 151.439 -0.149262 -5.07681 0
M  V30 1533 H 151.369 1.62953 -5.00753 0
M  V30 1534 H 153.86 0.778926 -3.69785 0
M  V30 1535 H 154.173 0.975813 -7.66614 0
M  V30 1536 H 152.518 0.884469 -6.89349 0
M  V30 1537 H 155.709 0.882245 -4.59711 0
M  V30 1538 H 155.882 0.972253 -6.40665 0
M  V30 1539 N 149.288 1.51039 0.449983 0
M  V30 1540 C 150.221 1.66105 1.56474 0
M  V30 1541 C 151.199 0.508776 1.54435 0
M  V30 1542 O 152.383 0.731005 1.73749 0
M  V30 1543 C 149.51 1.66304 2.9506 0
M  V30 1544 C 148.556 2.87346 3.15174 0
M  V30 1545 S 149.389 4.4835 2.92818 0
M  V30 1546 C 150.545 4.51274 4.33708 0
M  V30 1547 H 150.778 2.60397 1.43459 0
M  V30 1548 H 148.311 1.40565 0.638805 0
M  V30 1549 H 150.269 1.67103 3.74949 0
M  V30 1550 H 148.93 0.732108 3.05449 0
M  V30 1551 H 148.123 2.83849 4.16468 0
M  V30 1552 H 147.725 2.84223 2.43091 0
M  V30 1553 H 150.017 4.26136 5.26701 0
M  V30 1554 H 150.96 5.53017 4.42242 0
M  V30 1555 H 151.368 3.80738 4.16772 0
M  V30 1556 N 150.766 -0.704594 1.40972 0
M  V30 1557 C 151.729 -1.80035 1.41845 0
M  V30 1558 C 152.729 -1.57774 0.310474 0
M  V30 1559 O 153.919 -1.64613 0.56992 0
M  V30 1560 C 151.051 -3.18284 1.22098 0
M  V30 1561 H 152.244 -1.80658 2.3938 0
M  V30 1562 H 149.797 -0.911329 1.26982 0
M  V30 1563 H 150.532 -3.23306 0.253672 0
M  V30 1564 H 150.317 -3.35843 2.02366 0
M  V30 1565 H 151.807 -3.98289 1.25522 0
M  V30 1566 N 152.244 -1.26651 -0.937939 0
M  V30 1567 C 153.207 -1.08546 -2.01867 0
M  V30 1568 C 154.207 -0.0327327 -1.60767 0
M  V30 1569 O 155.397 -0.276427 -1.71993 0
M  V30 1570 C 152.529 -0.651711 -3.34613 0
M  V30 1571 H 153.722 -2.04502 -2.1936 0
M  V30 1572 H 151.275 -1.09294 -1.11734 0
M  V30 1573 H 152.01 0.309696 -3.22818 0
M  V30 1574 H 151.795 -1.41189 -3.65798 0
M  V30 1575 H 153.285 -0.546973 -4.14002 0
M  V30 1576 N 153.722 1.14298 -1.08507 0
M  V30 1577 C 154.685 2.17607 -0.719711 0
M  V30 1578 C 155.685 1.58907 0.245997 0
M  V30 1579 O 156.875 1.74181 0.0254081 0
M  V30 1580 C 154.007 3.40842 -0.0627695 0
M  V30 1581 H 155.2 2.51443 -1.63452 0
M  V30 1582 H 152.753 1.28963 -0.88307 0
M  V30 1583 H 153.488 3.12587 0.863716 0
M  V30 1584 H 153.273 3.84713 -0.757504 0
M  V30 1585 H 154.763 4.17221 0.177786 0
M  V30 1586 N 155.201 0.870884 1.31352 0
M  V30 1587 C 156.449 0.48132 1.96285 0
M  V30 1588 C 156.77 -0.969813 1.69173 0
M  V30 1589 O 156.04 -1.67998 1.00764 0
M  V30 1590 H 154.62 0.175002 0.726212 0
M  V30 1591 H 157.282 1.11087 1.60143 0
M  V30 1592 H 156.378 0.639825 3.05471 0
M  V30 1593 N 156.679 -1.44442 0.630414 0
M  V30 1594 C 157.928 -2.01267 0.132073 0
M  V30 1595 C 158.241 -1.50172 -1.25331 0
M  V30 1596 O 159.447 -1.9912 -1.84562 0
M  V30 1597 C 157.903 -3.59422 0.185362 0
M  V30 1598 C 157.511 -4.19514 1.57201 0
M  V30 1599 C 159.255 -4.23724 -0.256553 0
M  V30 1600 C 157.162 -5.69891 1.58045 0
M  V30 1601 H 156.092 -0.752619 0.0456092 0
M  V30 1602 H 158.743 -1.65666 0.789106 0
M  V30 1603 H 157.125 -3.92318 -0.538759 0
M  V30 1604 H 158.299 -3.98156 2.31966 0
M  V30 1605 H 156.614 -3.67496 1.95795 0
M  V30 1606 H 159.211 -5.34019 -0.269767 0
M  V30 1607 H 159.554 -3.96013 -1.28372 0
M  V30 1608 H 160.087 -3.95629 0.41505 0
M  V30 1609 H 156.826 -6.02336 2.58597 0
M  V30 1610 H 156.346 -5.93373 0.875725 0
M  V30 1611 H 158.025 -6.33515 1.31408 0
M  V30 1612 N 158.157 -0.370918 -1.53173 0
M  V30 1613 C 159.434 0.273754 -1.93675 0
M  V30 1614 C 159.814 1.65938 -1.3049 0
M  V30 1615 O 159.162 2.23698 -0.465999 0
M  V30 1616 C 159.372 0.318602 -3.47543 0
M  V30 1617 C 160.72 0.556392 -4.20939 0
M  V30 1618 O 161.744 0.399587 -3.53952 0
M  V30 1619 O 160.603 0.862133 -5.39657 0
M  V30 1620 H 157.697 0.165448 -0.810281 0
M  V30 1621 H 160.243 -0.42409 -1.64315 0
M  V30 1622 H 159.015 -0.652687 -3.85818 0
M  V30 1623 H 158.638 1.06212 -3.83151 0
M  V30 1624 N 159.635 1.57281 -0.100228 0
M  V30 1625 C 160.568 2.09976 0.893612 0
M  V30 1626 C 161.546 1.01155 1.27304 0
M  V30 1627 O 162.73 1.28687 1.37739 0
M  V30 1628 C 159.857 2.58098 2.19324 0
M  V30 1629 C 158.903 3.78626 1.96328 0
M  V30 1630 S 159.736 5.21959 1.19662 0
M  V30 1631 C 160.892 5.73435 2.50844 0
M  V30 1632 H 161.125 2.93946 0.44534 0
M  V30 1633 H 158.658 1.53985 0.113167 0
M  V30 1634 H 160.616 2.8648 2.94005 0
M  V30 1635 H 159.277 1.74344 2.61272 0
M  V30 1636 H 158.47 4.10382 2.92579 0
M  V30 1637 H 158.072 3.50763 1.29775 0
M  V30 1638 H 160.364 5.82015 3.46792 0
M  V30 1639 H 161.307 6.7185 2.23659 0
M  V30 1640 H 161.715 5.01395 2.59352 0
M  V30 1641 N 161.113 -0.173488 1.56642 0
M  V30 1642 C 162.076 -1.19859 1.95362 0
M  V30 1643 C 163.076 -1.37296 0.83704 0
M  V30 1644 O 164.266 -1.34739 1.10413 0
M  V30 1645 C 161.398 -2.56405 2.24654 0
M  V30 1646 H 162.591 -0.867062 2.87092 0
M  V30 1647 H 160.144 -0.415853 1.50666 0
M  V30 1648 H 160.879 -2.94576 1.35631 0
M  V30 1649 H 160.664 -2.45115 3.06041 0
M  V30 1650 H 162.154 -3.30287 2.5554 0
M  V30 1651 N 162.591 -1.51276 -0.441967 0
M  V30 1652 C 163.554 -1.7167 -1.51862 0
M  V30 1653 C 164.554 -0.586793 -1.49711 0
M  V30 1654 O 165.744 -0.854276 -1.51815 0
M  V30 1655 C 162.876 -1.76889 -2.91416 0
M  V30 1656 H 164.069 -2.67754 -1.35084 0
M  V30 1657 H 161.622 -1.41196 -0.670333 0
M  V30 1658 H 162.357 -0.826026 -3.13604 0
M  V30 1659 H 162.142 -2.59001 -2.94382 0
M  V30 1660 H 163.632 -1.94522 -3.69528 0
M  V30 1661 N 164.069 0.697108 -1.41344 0
M  V30 1662 C 165.315 1.45796 -1.41828 0
M  V30 1663 C 165.67 1.92382 -0.0261743 0
M  V30 1664 O 164.963 1.66522 0.947688 0
M  V30 1665 C 165.157 2.68553 -2.35826 0
M  V30 1666 C 164.986 2.33975 -3.84039 0
M  V30 1667 C 163.756 2.24414 -4.52732 0
M  V30 1668 C 165.954 1.97048 -4.75054 0
M  V30 1669 N 163.936 1.82705 -5.86082 0
M  V30 1670 C 165.307 1.66086 -5.9734 0
M  V30 1671 C 167.362 1.83845 -4.62715 0
M  V30 1672 C 166.065 1.23246 -7.08663 0
M  V30 1673 C 168.091 1.4241 -5.73998 0
M  V30 1674 C 167.453 1.12357 -6.95381 0
M  V30 1675 H 163.552 0.530859 -0.574206 0
M  V30 1676 H 166.136 0.806674 -1.77203 0
M  V30 1677 H 164.307 3.31404 -2.02549 0
M  V30 1678 H 166.039 3.35015 -2.2704 0
M  V30 1679 H 162.794 2.4276 -4.0665 0
M  V30 1680 H 163.218 1.64337 -6.56751 0
M  V30 1681 H 167.86 2.05734 -3.69369 0
M  V30 1682 H 165.578 1.00102 -8.01876 0
M  V30 1683 H 169.164 1.32746 -5.66454 0
M  V30 1684 H 168.044 0.807795 -7.80028 0
M  V30 1685 N 165.547 1.27147 0.931209 0
M  V30 1686 C 166.824 1.0401 1.65654 0
M  V30 1687 C 167.204 -0.426297 2.06751 0
M  V30 1688 O 166.552 -1.40879 1.79904 0
M  V30 1689 C 166.762 1.99834 2.86125 0
M  V30 1690 C 168.11 2.29007 3.57549 0
M  V30 1691 O 169.134 1.97779 2.96246 0
M  V30 1692 O 167.993 2.82222 4.67989 0
M  V30 1693 H 165.087 0.396239 0.725895 0
M  V30 1694 H 167.633 1.38397 0.982056 0
M  V30 1695 H 166.405 2.98744 2.52721 0
M  V30 1696 H 166.028 1.65987 3.61295 0
M  V30 1697 N 167.025 -1.13721 1.09112 0
M  V30 1698 C 167.988 -2.17222 0.731241 0
M  V30 1699 C 168.988 -1.59035 -0.237566 0
M  V30 1700 O 170.178 -1.74192 -0.0161704 0
M  V30 1701 C 167.31 -3.40804 0.0808443 0
M  V30 1702 H 168.503 -2.50573 1.64783 0
M  V30 1703 H 166.056 -1.28493 0.889897 0
M  V30 1704 H 166.791 -3.1304 -0.847127 0
M  V30 1705 H 166.576 -3.84306 0.777896 0
M  V30 1706 H 168.066 -4.1731 -0.155657 0
M  V30 1707 N 168.503 -0.877838 -1.30888 0
M  V30 1708 C 169.433 -0.35534 -2.3078 0
M  V30 1709 C 170.414 0.557994 -1.60687 0
M  V30 1710 O 171.599 0.473355 -1.88343 0
M  V30 1711 C 168.729 0.437221 -3.44537 0
M  V30 1712 C 167.683 -0.383715 -4.26276 0
M  V30 1713 C 167.009 0.535014 -5.32017 0
M  V30 1714 C 168.309 -1.62201 -4.96476 0
M  V30 1715 H 170.003 -1.19007 -2.74732 0
M  V30 1716 H 167.549 -0.573698 -1.32078 0
M  V30 1717 H 169.502 0.813334 -4.13477 0
M  V30 1718 H 168.226 1.30553 -2.99372 0
M  V30 1719 H 166.885 -0.741874 -3.59015 0
M  V30 1720 H 166.533 1.40083 -4.831 0
M  V30 1721 H 166.233 -0.0104211 -5.87599 0
M  V30 1722 H 167.757 0.907799 -6.03814 0
M  V30 1723 H 169.171 -1.31689 -5.5797 0
M  V30 1724 H 167.568 -2.10711 -5.61891 0
M  V30 1725 H 168.638 -2.37044 -4.23011 0
M  V30 1726 N 169.982 1.44106 -0.638065 0
M  V30 1727 C 171.23 2.01579 -0.145043 0
M  V30 1728 C 171.551 1.50496 1.24 0
M  V30 1729 O 170.821 0.711374 1.82527 0
M  V30 1730 H 169.401 0.745282 -0.05063 0
M  V30 1731 H 172.063 1.76516 -0.826327 0
M  V30 1732 H 171.159 3.11877 -0.118039 0
M  V30 1733 N 171.46 0.379036 1.52974 0
M  V30 1734 C 172.407 -0.461048 2.26148 0
M  V30 1735 C 173.377 -1.06637 1.27349 0
M  V30 1736 O 174.562 -1.09633 1.56157 0
M  V30 1737 C 171.702 -1.58782 3.06402 0
M  V30 1738 C 170.815 -1.00636 4.20115 0
M  V30 1739 C 169.95 -2.10334 4.87784 0
M  V30 1740 C 168.989 -1.49724 5.93506 0
M  V30 1741 N 168.126 -2.5331 6.54812 0
M  V30 1742 H 172.966 0.169429 2.97518 0
M  V30 1743 H 170.503 0.0953806 1.4679 0
M  V30 1744 H 172.461 -2.25174 3.51215 0
M  V30 1745 H 171.091 -2.18876 2.37261 0
M  V30 1746 H 170.143 -0.232332 3.7969 0
M  V30 1747 H 171.455 -0.523343 4.96047 0
M  V30 1748 H 170.609 -2.84519 5.35849 0
M  V30 1749 H 169.348 -2.61992 4.11353 0
M  V30 1750 H 168.353 -0.740598 5.44789 0
M  V30 1751 H 169.578 -0.988732 6.71864 0
M  V30 1752 H 167.524 -3.04156 5.81227 0
M  V30 1753 H 167.441 -2.09734 7.26325 0
M  V30 1754 H 168.709 -3.27155 7.07524 0
M  V30 1755 N 172.938 -1.57226 0.108567 0
M  V30 1756 C 174.184 -1.95121 -0.552761 0
M  V30 1757 C 174.517 -0.991345 -1.66991 0
M  V30 1758 O 173.792 -0.0267211 -1.94482 0
M  V30 1759 C 174.075 -3.43039 -1.09528 0
M  V30 1760 C 173.928 -4.49797 0.0177332 0
M  V30 1761 C 175.247 -3.92567 -1.98945 0
M  V30 1762 H 172.366 -0.709496 -0.199461 0
M  V30 1763 H 175.008 -1.89126 0.182011 0
M  V30 1764 H 173.158 -3.48279 -1.72146 0
M  V30 1765 H 174.83 -4.56661 0.652584 0
M  V30 1766 H 173.073 -4.284 0.682309 0
M  V30 1767 H 173.744 -5.50528 -0.402919 0
M  V30 1768 H 176.22 -3.89565 -1.46214 0
M  V30 1769 H 175.096 -4.96605 -2.33827 0
M  V30 1770 H 175.357 -3.32648 -2.91201 0
M  V30 1771 N 174.416 0.165178 -1.56732 0
M  V30 1772 C 175.366 1.20917 -1.93295 0
M  V30 1773 C 176.35 1.39488 -0.801985 0
M  V30 1774 O 177.542 1.41356 -1.06525 0
M  V30 1775 C 174.671 2.54718 -2.3016 0
M  V30 1776 C 173.757 2.39815 -3.49785 0
M  V30 1777 N 174.148 1.94637 -4.66851 0
M  V30 1778 C 172.446 2.70623 -3.54513 0
M  V30 1779 C 173.147 1.92344 -5.4898 0
M  V30 1780 N 172.123 2.34978 -4.9019 0
M  V30 1781 H 175.925 0.851675 -2.81289 0
M  V30 1782 H 173.439 0.373399 -1.58049 0
M  V30 1783 H 175.436 3.30165 -2.54552 0
M  V30 1784 H 174.096 2.91265 -1.43508 0
M  V30 1785 H 175.107 1.6488 -4.90953 0
M  V30 1786 H 171.784 3.11167 -2.78354 0
M  V30 1787 H 173.174 1.5906 -6.52801 0
M  V30 1788 N 175.894 1.51508 0.433938 0
M  V30 1789 C 176.804 1.75917 1.5521 0
M  V30 1790 C 177.82 0.643545 1.61662 0
M  V30 1791 O 178.996 0.926183 1.7884 0
M  V30 1792 C 176.061 1.88213 2.91164 0
M  V30 1793 C 175.122 3.12074 2.94802 0
M  V30 1794 C 174.355 3.23774 4.24271 0
M  V30 1795 O 174.578 2.4133 5.16833 0
M  V30 1796 O 173.512 4.16774 4.34262 0
M  V30 1797 H 177.338 2.70777 1.37527 0
M  V30 1798 H 174.923 1.36051 0.617293 0
M  V30 1799 H 176.805 1.98267 3.71845 0
M  V30 1800 H 175.48 0.965413 3.08968 0
M  V30 1801 H 174.387 3.07497 2.13065 0
M  V30 1802 H 175.72 4.03446 2.81943 0
M  V30 1803 N 177.372 -0.689602 1.41712 0
M  V30 1804 C 178.6 -1.47827 1.44758 0
M  V30 1805 C 179.015 -1.88721 0.0545703 0
M  V30 1806 O 178.372 -1.57176 -0.927463 0
M  V30 1807 C 178.423 -2.73698 2.3616 0
M  V30 1808 O 178.144 -2.34524 3.7004 0
M  V30 1809 C 179.645 -3.67389 2.48072 0
M  V30 1810 H 176.865 -0.455357 0.49284 0
M  V30 1811 H 179.409 -0.848574 1.86063 0
M  V30 1812 H 177.564 -3.32891 1.98148 0
M  V30 1813 H 177.978 -3.15701 4.18847 0
M  V30 1814 H 179.452 -4.52475 3.16181 0
M  V30 1815 H 179.929 -4.12284 1.51388 0
M  V30 1816 H 180.535 -3.14097 2.86746 0
M  V30 1817 N 178.85 -1.27639 -0.924453 0
M  V30 1818 C 180.261 -1.12834 -1.48746 0
M  V30 1819 C 180.612 0.285505 -1.94112 0
M  V30 1820 O 179.737 1.17874 -1.81479 0
M  V30 1821 C 180.332 -2.04217 -2.70334 0
M  V30 1822 C 178.891 -1.93509 -3.22848 0
M  V30 1823 C 178.038 -1.96583 -1.95577 0
M  V30 1824 H 180.989 -1.40484 -0.738233 0
M  V30 1825 H 181.01 -1.59989 -3.4523 0
M  V30 1826 H 180.522 -3.07111 -2.37285 0
M  V30 1827 H 178.623 -0.936131 -3.60649 0
M  V30 1828 H 178.736 -2.79917 -3.88823 0
M  V30 1829 H 177.1 -1.4085 -2.12211 0
M  V30 1830 H 177.883 -3.01137 -1.64837 0
M  V30 1831 N 180.328 1.1314 -1.09713 0
M  V30 1832 C 181.258 2.20748 -0.761102 0
M  V30 1833 C 182.239 1.68061 0.262566 0
M  V30 1834 O 183.424 1.93765 0.129977 0
M  V30 1835 C 180.554 3.46812 -0.184054 0
M  V30 1836 C 179.508 4.12606 -1.13757 0
M  V30 1837 C 178.834 5.33031 -0.422083 0
M  V30 1838 C 180.134 4.59603 -2.48118 0
M  V30 1839 H 181.828 2.49113 -1.66082 0
M  V30 1840 H 179.374 1.19734 -0.799987 0
M  V30 1841 H 181.327 4.21353 0.0631215 0
M  V30 1842 H 180.051 3.17851 0.750868 0
M  V30 1843 H 178.71 3.40036 -1.37007 0
M  V30 1844 H 178.358 5.00335 0.517072 0
M  V30 1845 H 178.058 5.77999 -1.05788 0
M  V30 1846 H 179.582 6.10325 -0.183277 0
M  V30 1847 H 180.996 5.25552 -2.29059 0
M  V30 1848 H 179.393 5.15321 -3.07514 0
M  V30 1849 H 180.463 3.73971 -3.08665 0
M  V30 1850 N 181.806 0.884767 1.30421 0
M  V30 1851 C 183.052 0.503851 1.96441 0
M  V30 1852 C 183.385 -0.944518 1.69684 0
M  V30 1853 O 182.66 -1.66737 1.00145 0
M  V30 1854 C 182.943 0.779085 3.51571 0
M  V30 1855 C 182.796 2.27807 3.87846 0
M  V30 1856 C 184.115 0.255452 4.39358 0
M  V30 1857 H 181.234 0.184533 0.713524 0
M  V30 1858 H 183.876 1.10872 1.54297 0
M  V30 1859 H 182.026 0.264274 3.876 0
M  V30 1860 H 183.698 2.86127 3.61841 0
M  V30 1861 H 181.941 2.74479 3.35922 0
M  V30 1862 H 182.612 2.42125 4.96064 0
M  V30 1863 H 185.088 0.696079 4.10236 0
M  V30 1864 H 183.964 0.477361 5.4682 0
M  V30 1865 H 184.225 -0.843293 4.33983 0
M  V30 1866 N 183.284 -1.43765 0.645699 0
M  V30 1867 C 184.231 -2.30745 -0.0504648 0
M  V30 1868 C 185.201 -1.4432 -0.822241 0
M  V30 1869 O 186.386 -1.73202 -0.800358 0
M  V30 1870 C 183.526 -3.29802 -1.0161 0
M  V30 1871 C 182.639 -4.31326 -0.241219 0
M  V30 1872 C 181.774 -5.17469 -1.19998 0
M  V30 1873 C 180.813 -6.10691 -0.415094 0
M  V30 1874 N 179.95 -6.89483 -1.32506 0
M  V30 1875 H 184.79 -2.8973 0.697155 0
M  V30 1876 H 182.327 -1.42738 0.355563 0
M  V30 1877 H 184.285 -3.85734 -1.58949 0
M  V30 1878 H 182.915 -2.72483 -1.73069 0
M  V30 1879 H 181.967 -3.77749 0.448334 0
M  V30 1880 H 183.279 -4.9743 0.369437 0
M  V30 1881 H 182.433 -5.7799 -1.84424 0
M  V30 1882 H 181.172 -4.51473 -1.84455 0
M  V30 1883 H 180.177 -5.49265 0.242565 0
M  V30 1884 H 181.402 -6.78727 0.224966 0
M  V30 1885 H 179.348 -6.26142 -1.95657 0
M  V30 1886 H 179.265 -7.52081 -0.768783 0
M  V30 1887 H 180.533 -7.54516 -1.9577 0
M  V30 1888 N 184.763 -0.387143 -1.52771 0
M  V30 1889 C 185.693 0.440551 -2.29306 0
M  V30 1890 C 186.674 1.06535 -1.32606 0
M  V30 1891 O 187.859 1.07853 -1.61497 0
M  V30 1892 C 184.989 1.56919 -3.09829 0
M  V30 1893 C 183.943 1.07054 -4.14395 0
M  V30 1894 C 183.269 2.29109 -4.83129 0
M  V30 1895 C 184.569 0.140015 -5.22112 0
M  V30 1896 H 186.263 -0.198026 -2.98744 0
M  V30 1897 H 183.809 -0.09668 -1.43675 0
M  V30 1898 H 185.762 2.15503 -3.62128 0
M  V30 1899 H 184.486 2.23532 -2.3812 0
M  V30 1900 H 183.145 0.507247 -3.63074 0
M  V30 1901 H 182.793 2.94227 -4.0797 0
M  V30 1902 H 182.493 1.96406 -5.53804 0
M  V30 1903 H 184.017 2.88339 -5.38231 0
M  V30 1904 H 185.431 0.633978 -5.69784 0
M  V30 1905 H 183.828 -0.0971485 -6.00021 0
M  V30 1906 H 184.898 -0.811711 -4.78058 0
M  V30 1907 N 186.241 1.57166 -0.116904 0
M  V30 1908 C 187.171 2.18222 0.830759 0
M  V30 1909 C 188.152 1.12167 1.27877 0
M  V30 1910 O 189.337 1.40394 1.34176 0
M  V30 1911 C 186.467 2.77996 2.08172 0
M  V30 1912 C 185.421 3.89614 1.77157 0
M  V30 1913 C 184.747 4.36187 3.09265 0
M  V30 1914 C 186.047 5.1181 1.04151 0
M  V30 1915 H 187.741 2.97664 0.321992 0
M  V30 1916 H 185.287 1.4318 0.153434 0
M  V30 1917 H 187.24 3.19366 2.74924 0
M  V30 1918 H 185.964 1.9584 2.6137 0
M  V30 1919 H 184.623 3.48816 1.12796 0
M  V30 1920 H 184.271 3.50893 3.60393 0
M  V30 1921 H 183.971 5.11455 2.89288 0
M  V30 1922 H 185.495 4.80207 3.77139 0
M  V30 1923 H 186.909 5.50214 1.61052 0
M  V30 1924 H 185.306 5.92648 0.942762 0
M  V30 1925 H 186.376 4.84892 0.0279022 0
M  V30 1926 N 187.719 -0.156864 1.56817 0
M  V30 1927 C 188.967 -0.869404 1.82444 0
M  V30 1928 C 189.288 -1.82147 0.69623 0
M  V30 1929 O 188.558 -1.93847 -0.28287 0
M  V30 1930 H 187.138 -0.324043 0.673056 0
M  V30 1931 H 189.8 -0.153224 1.94297 0
M  V30 1932 H 188.896 -1.43761 2.77019 0
M  V30 1933 N 189.197 -1.51736 -0.425897 0
M  V30 1934 C 190.16 -1.73271 -1.50032 0
M  V30 1935 C 191.16 -0.602639 -1.4908 0
M  V30 1936 O 192.35 -0.87033 -1.509 0
M  V30 1937 C 189.482 -1.79969 -2.89523 0
M  V30 1938 H 190.675 -2.69172 -1.32237 0
M  V30 1939 H 188.228 -1.41899 -0.65532 0
M  V30 1940 H 188.963 -0.859241 -3.1271 0
M  V30 1941 H 188.748 -2.62109 -2.91619 0
M  V30 1942 H 190.238 -1.9843 -3.67444 0
M  V30 1943 N 190.675 0.682077 -1.42076 0
M  V30 1944 C 191.623 1.81707 -1.45208 0
M  V30 1945 C 192.617 1.66183 -0.328591 0
M  V30 1946 O 193.823 1.7288 -0.501264 0
M  V30 1947 H 190.198 0.599014 -0.454628 0
M  V30 1948 H 192.169 1.76183 -2.40836 0
M  V30 1949 C 190.918 3.19816 -1.36428 0
M  V30 1950 H 190.241 3.32385 -2.22171 0
M  V30 1951 H 191.681 3.99272 -1.42681 0
M  V30 1952 C 190.14 3.36809 -0.078191 0
M  V30 1953 O 190.67 3.92124 0.87188 0
M  V30 1954 N 188.876 2.906 0.00229266 0
M  V30 1955 H 188.423 2.45772 -0.771616 0
M  V30 1956 H 188.381 3.02347 0.862179 0
M  V30 1957 N 192.153 1.28127 0.917671 0
M  V30 1958 C 193.116 1.11744 2.00115 0
M  V30 1959 C 194.116 0.0583052 1.60694 0
M  V30 1960 O 195.306 0.303755 1.71531 0
M  V30 1961 C 192.438 0.704862 3.33533 0
M  V30 1962 H 193.631 2.07966 2.16079 0
M  V30 1963 H 191.184 1.11058 1.09981 0
M  V30 1964 H 191.919 -0.258299 3.2327 0
M  V30 1965 H 191.704 1.4699 3.63505 0
M  V30 1966 H 193.194 0.612768 4.1308 0
M  V30 1967 N 193.631 -1.12557 1.10312 0
M  V30 1968 C 195.047 -1.36036 0.834649 0
M  V30 1969 C 195.247 -1.93946 -0.546539 0
M  V30 1970 O 194.303 -2.16484 -1.29966 0
M  V30 1971 C 195.616 -2.30312 1.9333 0
M  V30 1972 C 197.164 -2.43906 1.9616 0
M  V30 1973 C 197.639 -3.41496 3.05195 0
M  V30 1974 N 199.13 -3.49053 3.04494 0
M  V30 1975 C 199.865 -4.24471 3.85502 0
M  V30 1976 N 199.361 -5.02966 4.76442 0
M  V30 1977 N 201.154 -4.19864 3.73725 0
M  V30 1978 H 193.305 -0.733246 1.99342 0
M  V30 1979 H 195.568 -0.385234 0.866198 0
M  V30 1980 H 195.274 -1.94933 2.92735 0
M  V30 1981 H 195.148 -3.30421 1.81939 0
M  V30 1982 H 197.535 -2.78567 0.973886 0
M  V30 1983 H 197.616 -1.4369 2.11629 0
M  V30 1984 H 197.26 -3.07565 4.04186 0
M  V30 1985 H 197.19 -4.41539 2.86968 0
M  V30 1986 H 199.681 -2.93053 2.38596 0
M  V30 1987 H 199.994 -5.57846 5.34815 0
M  V30 1988 H 198.339 -5.02167 4.80472 0
M  V30 1989 H 201.53 -3.57623 3.02032 0
M  V30 1990 H 201.703 -4.78386 4.37093 0
M  V30 1991 N 195.109 -0.891671 -1.2995 0
M  V30 1992 C 196.52 -0.563104 -1.78006 0
M  V30 1993 C 196.871 0.920978 -1.73241 0
M  V30 1994 O 195.996 1.71987 -1.31337 0
M  V30 1995 C 196.591 -1.01539 -3.23226 0
M  V30 1996 C 195.15 -0.738124 -3.69092 0
M  V30 1997 C 194.297 -1.19461 -2.50249 0
M  V30 1998 H 197.248 -1.07522 -1.16725 0
M  V30 1999 H 197.269 -0.347217 -3.78912 0
M  V30 2000 H 196.781 -2.09555 -3.26662 0
M  V30 2001 H 194.882 0.329766 -3.71138 0
M  V30 2002 H 194.995 -1.33037 -4.60259 0
M  V30 2003 H 193.359 -0.613787 -2.47194 0
M  V30 2004 H 194.142 -2.28265 -2.56417 0
M  V30 2005 N 196.587 1.43421 -0.653314 0
M  V30 2006 C 197.833 2.02111 -0.166992 0
M  V30 2007 C 198.166 1.51423 1.21592 0
M  V30 2008 O 197.441 0.707389 1.8118 0
M  V30 2009 C 197.724 3.5966 -0.177948 0
M  V30 2010 C 197.577 4.20579 -1.59478 0
M  V30 2011 C 198.896 4.37413 0.4856 0
M  V30 2012 H 196.015 0.734374 -0.0621557 0
M  V30 2013 H 198.657 1.70717 -0.834016 0
M  V30 2014 H 196.807 3.86537 0.390032 0
M  V30 2015 H 198.479 4.04732 -2.21336 0
M  V30 2016 H 196.722 3.77226 -2.14204 0
M  V30 2017 H 197.393 5.29665 -1.5543 0
M  V30 2018 H 199.869 4.161 0.00234528 0
M  V30 2019 H 198.745 5.47075 0.447207 0
M  V30 2020 H 199.006 4.13672 1.55974 0
M  V30 2021 N 198.065 0.39524 1.52563 0
M  V30 2022 C 198.997 -0.472201 2.24283 0
M  V30 2023 C 200.01 -1.02178 1.26742 0
M  V30 2024 O 201.199 -0.923097 1.52778 0
M  V30 2025 C 198.299 -1.66775 2.95024 0
M  V30 2026 C 197.472 -1.2445 4.19322 0
M  V30 2027 C 196.531 -2.30539 4.7301 0
M  V30 2028 O 195.557 -1.91702 5.35947 0
M  V30 2029 N 196.759 -3.6253 4.53379 0
M  V30 2030 H 199.524 0.142282 2.99362 0
M  V30 2031 H 197.085 0.2219 1.60372 0
M  V30 2032 H 199.077 -2.37283 3.27839 0
M  V30 2033 H 197.647 -2.18845 2.23217 0
M  V30 2034 H 196.867 -0.368069 3.92478 0
M  V30 2035 H 198.155 -0.938457 5.0007 0
M  V30 2036 H 197.553 -3.96841 4.03154 0
M  V30 2037 H 196.11 -4.29055 4.90668 0
M  V30 2038 N 199.544 -1.57102 0.125237 0
M  V30 2039 C 200.507 -2.14471 -0.80838 0
M  V30 2040 C 201.507 -1.0811 -1.19033 0
M  V30 2041 O 202.697 -1.33856 -1.11482 0
M  V30 2042 C 199.829 -2.69005 -2.09402 0
M  V30 2043 H 201.022 -2.98297 -0.309696 0
M  V30 2044 H 198.575 -1.55807 -0.124051 0
M  V30 2045 H 199.31 -1.88785 -2.63687 0
M  V30 2046 H 199.095 -3.46799 -1.82957 0
M  V30 2047 H 200.585 -3.13278 -2.76128 0
M  V30 2048 N 201.022 0.148545 -1.56898 0
M  V30 2049 C 202.252 0.875118 -1.8715 0
M  V30 2050 C 202.66 1.75322 -0.711262 0
M  V30 2051 O 202.003 1.80745 0.328151 0
M  V30 2052 C 202.065 1.7844 -3.12089 0
M  V30 2053 C 201.729 1.08361 -4.43967 0
M  V30 2054 C 202.726 0.438247 -5.1805 0
M  V30 2055 C 200.411 1.07358 -4.90693 0
M  V30 2056 C 202.405 -0.20779 -6.37061 0
M  V30 2057 C 200.092 0.42373 -6.09629 0
M  V30 2058 C 201.09 -0.215829 -6.82659 0
M  V30 2059 O 200.778 -0.855378 -7.99336 0
M  V30 2060 H 200.51 0.258504 -0.624621 0
M  V30 2061 H 203.064 0.14652 -2.04877 0
M  V30 2062 H 201.294 2.55389 -2.90367 0
M  V30 2063 H 202.983 2.38279 -3.286 0
M  V30 2064 H 203.749 0.437817 -4.8302 0
M  V30 2065 H 199.628 1.5608 -4.33774 0
M  V30 2066 H 203.172 -0.70758 -6.94002 0
M  V30 2067 H 199.069 0.421822 -6.4412 0
M  V30 2068 H 199.837 -0.756892 -8.14993 0
M  V30 2069 N 202.5 1.5196 0.417844 0
M  V30 2070 C 203.777 1.56146 1.17803 0
M  V30 2071 C 204.157 0.337275 2.08388 0
M  V30 2072 O 203.505 -0.676447 2.18258 0
M  V30 2073 C 203.715 2.88566 1.96293 0
M  V30 2074 C 205.063 3.41244 2.52662 0
M  V30 2075 O 206.087 2.90247 2.06483 0
M  V30 2076 O 204.946 4.30273 3.36938 0
M  V30 2077 H 202.04 0.628598 0.537395 0
M  V30 2078 H 204.586 1.64283 0.425331 0
M  V30 2079 H 203.358 3.69116 1.2988 0
M  V30 2080 H 202.981 2.83681 2.78587 0
M  V30 2081 N 203.978 -0.674533 1.42435 0
M  V30 2082 C 205.203 -1.46784 1.46524 0
M  V30 2083 C 205.628 -1.87938 0.078066 0
M  V30 2084 O 204.986 -1.56014 -0.92354 0
M  V30 2085 C 205.034 -2.69307 2.39805 0
M  V30 2086 O 204.138 -3.67587 1.86959 0
M  V30 2087 H 203.479 -0.440959 0.496439 0
M  V30 2088 H 206.009 -0.827326 1.87127 0
M  V30 2089 H 206.019 -3.17374 2.56393 0
M  V30 2090 H 204.694 -2.38692 3.40586 0
M  V30 2091 H 203.271 -3.2662 1.79927 0
M  V30 2092 N 205.456 -1.28612 -0.910864 0
M  V30 2093 C 206.406 -1.09423 -2.00026 0
M  V30 2094 C 207.39 -0.0170079 -1.60891 0
M  V30 2095 O 208.582 -0.237472 -1.754 0
M  V30 2096 C 205.711 -0.76114 -3.34756 0
M  V30 2097 C 204.797 -1.87735 -3.80285 0
M  V30 2098 N 205.188 -3.11938 -3.98156 0
M  V30 2099 C 203.486 -1.76786 -4.09467 0
M  V30 2100 C 204.187 -3.84687 -4.36338 0
M  V30 2101 N 203.163 -3.12555 -4.44759 0
M  V30 2102 H 206.965 -2.03658 -2.11898 0
M  V30 2103 H 204.479 -1.19573 -1.09891 0
M  V30 2104 H 206.476 -0.604743 -4.12491 0
M  V30 2105 H 205.136 0.173403 -3.24237 0
M  V30 2106 H 206.147 -3.47516 -3.83996 0
M  V30 2107 H 202.824 -0.905284 -4.07567 0
M  V30 2108 H 204.214 -4.91518 -4.58104 0
M  V30 2109 N 206.934 1.1197 -1.10907 0
M  V30 2110 C 208.159 1.87942 -0.877064 0
M  V30 2111 C 208.584 1.79341 0.567314 0
M  V30 2112 O 207.942 1.15184 1.40009 0
M  V30 2113 C 207.99 3.34926 -1.33629 0
M  V30 2114 O 207.094 4.09303 -0.504447 0
M  V30 2115 H 206.435 0.583785 -0.316371 0
M  V30 2116 H 208.965 1.4157 -1.47712 0
M  V30 2117 H 208.975 3.8577 -1.32837 0
M  V30 2118 H 207.65 3.40504 -2.3881 0
M  V30 2119 H 206.227 3.68393 -0.577993 0
M  V30 2120 N 208.412 0.89855 1.29475 0
M  V30 2121 C 209.342 0.39201 2.30186 0
M  V30 2122 C 210.323 -0.532359 1.61555 0
M  V30 2123 O 211.508 -0.443331 1.89072 0
M  V30 2124 C 208.638 -0.382353 3.45189 0
M  V30 2125 C 207.592 0.451483 4.25612 0
M  V30 2126 C 206.918 -0.450307 5.328 0
M  V30 2127 C 208.218 1.70079 4.93832 0
M  V30 2128 H 209.912 1.23362 2.72804 0
M  V30 2129 H 207.458 0.594638 1.31149 0
M  V30 2130 H 209.411 -0.747451 4.14718 0
M  V30 2131 H 208.135 -1.25774 3.01411 0
M  V30 2132 H 206.794 0.798897 3.57789 0
M  V30 2133 H 206.442 -1.32379 4.85268 0
M  V30 2134 H 206.142 0.103902 5.87508 0
M  V30 2135 H 207.666 -0.811623 6.05182 0
M  V30 2136 H 209.08 1.40549 5.55805 0
M  V30 2137 H 207.477 2.19623 5.58467 0
M  V30 2138 H 208.547 2.43744 4.19186 0
M  V30 2139 N 209.89 -1.43072 0.660911 0
M  V30 2140 C 211.167 -1.95307 0.107017 0
M  V30 2141 C 211.547 -1.60192 -1.37484 0
M  V30 2142 O 210.895 -0.890949 -2.10415 0
M  V30 2143 C 211.105 -3.47124 0.361402 0
M  V30 2144 C 212.453 -4.23738 0.270455 0
M  V30 2145 O 213.477 -3.54981 0.294382 0
M  V30 2146 O 212.336 -5.46131 0.200737 0
M  V30 2147 H 209.43 -0.826984 -0.00517729 0
M  V30 2148 H 211.976 -1.52972 0.734681 0
M  V30 2149 H 210.748 -3.65837 1.38848 0
M  V30 2150 H 210.371 -3.96475 -0.298953 0
M  V30 2151 N 211.368 -0.403325 -1.52352 0
M  V30 2152 C 212.616 0.174003 -2.0135 0
M  V30 2153 C 212.937 1.46139 -1.29106 0
M  V30 2154 O 212.207 1.91448 -0.415253 0
M  V30 2155 H 210.787 0.0672911 -0.743963 0
M  V30 2156 H 213.449 -0.538235 -1.87321 0
M  V30 2157 H 212.545 0.374254 -3.09848 0
M  V30 2158 N 212.846 1.57033 -0.133567 0
M  V30 2159 C 214.092 1.95976 0.521649 0
M  V30 2160 C 214.425 1.01779 1.65393 0
M  V30 2161 O 213.7 0.0576581 1.94415 0
M  V30 2162 C 213.983 3.44738 1.04057 0
M  V30 2163 C 213.836 4.49711 -0.0892897 0
M  V30 2164 C 215.155 3.95682 1.92675 0
M  V30 2165 H 212.274 0.712579 0.188149 0
M  V30 2166 H 214.916 1.88813 -0.212076 0
M  V30 2167 H 213.066 3.50973 1.66583 0
M  V30 2168 H 214.738 4.55565 -0.725152 0
M  V30 2169 H 212.981 4.27261 -0.750378 0
M  V30 2170 H 213.652 5.51099 0.315284 0
M  V30 2171 H 216.128 3.91841 1.39998 0
M  V30 2172 H 215.004 5.00262 2.25897 0
M  V30 2173 H 215.265 3.37239 2.85872 0
M  V30 2174 N 214.325 -0.140222 1.56975 0
M  V30 2175 C 215.272 -1.17292 1.98774 0
M  V30 2176 C 216.242 -1.4232 0.856408 0
M  V30 2177 O 217.427 -1.54541 1.119 0
M  V30 2178 C 214.567 -2.49973 2.37923 0
M  V30 2179 C 213.68 -2.32062 3.64378 0
M  V30 2180 C 212.815 -3.57825 3.926 0
M  V30 2181 C 211.854 -3.3498 5.12303 0
M  V30 2182 N 210.991 -4.52891 5.36502 0
M  V30 2183 H 215.831 -0.809472 2.86795 0
M  V30 2184 H 213.368 -0.388237 1.41884 0
M  V30 2185 H 215.326 -3.27346 2.58652 0
M  V30 2186 H 213.956 -2.84252 1.52972 0
M  V30 2187 H 213.008 -1.45711 3.51387 0
M  V30 2188 H 214.32 -2.11145 4.51906 0
M  V30 2189 H 213.474 -4.43624 4.13863 0
M  V30 2190 H 212.213 -3.81753 3.03506 0
M  V30 2191 H 211.218 -2.4757 4.90906 0
M  V30 2192 H 212.443 -3.12444 6.02956 0
M  V30 2193 H 210.389 -4.76979 4.50363 0
M  V30 2194 H 210.306 -4.35001 6.18312 0
M  V30 2195 H 211.574 -5.39884 5.62268 0
M  V30 2196 N 215.803 -1.52179 -0.40978 0
M  V30 2197 C 216.733 -1.78435 -1.5061 0
M  V30 2198 C 217.714 -0.635295 -1.57791 0
M  V30 2199 O 218.899 -0.880823 -1.73076 0
M  V30 2200 C 216.029 -1.93444 -2.88439 0
M  V30 2201 C 214.983 -3.09038 -2.96108 0
M  V30 2202 C 214.309 -3.09268 -4.36185 0
M  V30 2203 C 215.609 -4.48508 -2.67652 0
M  V30 2204 H 217.303 -2.70237 -1.28889 0
M  V30 2205 H 214.849 -1.30036 -0.618605 0
M  V30 2206 H 216.802 -2.10394 -3.65119 0
M  V30 2207 H 215.526 -0.983129 -3.11452 0
M  V30 2208 H 214.185 -2.91837 -2.21872 0
M  V30 2209 H 213.833 -2.11861 -4.56206 0
M  V30 2210 H 213.533 -3.86907 -4.42241 0
M  V30 2211 H 215.057 -3.28348 -5.14801 0
M  V30 2212 H 216.471 -4.65918 -3.34056 0
M  V30 2213 H 214.868 -5.28059 -2.85085 0
M  V30 2214 H 215.938 -4.56649 -1.63095 0
M  V30 2215 N 217.281 0.66697 -1.42791 0
M  V30 2216 C 218.244 1.76211 -1.46568 0
M  V30 2217 C 219.244 1.56896 -0.352196 0
M  V30 2218 O 220.434 1.63044 -0.613364 0
M  V30 2219 C 217.566 3.14935 -1.30494 0
M  V30 2220 H 218.759 1.74247 -2.44086 0
M  V30 2221 H 216.312 0.877342 -1.29354 0
M  V30 2222 H 217.047 3.2252 -0.339301 0
M  V30 2223 H 216.832 3.30359 -2.11199 0
M  V30 2224 H 218.322 3.94821 -1.36038 0
M  V30 2225 N 218.759 1.29093 0.90403 0
M  V30 2226 C 219.987 1.19689 1.68766 0
M  V30 2227 C 220.402 -0.243113 1.87228 0
M  V30 2228 O 219.759 -1.16326 1.40621 0
M  V30 2229 C 219.81 1.90144 3.07453 0
M  V30 2230 O 219.531 3.2852 2.89838 0
M  V30 2231 C 221.032 1.87162 4.01852 0
M  V30 2232 H 218.252 0.415035 0.527244 0
M  V30 2233 H 220.796 1.7039 1.13082 0
M  V30 2234 H 218.951 1.43289 3.59926 0
M  V30 2235 H 219.365 3.63944 3.77684 0
M  V30 2236 H 220.839 2.41032 4.96596 0
M  V30 2237 H 221.316 0.84617 4.30972 0
M  V30 2238 H 221.922 2.33741 3.5531 0
M  V30 2239 N 220.237 -1.11381 1.11499 0
M  V30 2240 C 221.147 -2.21019 0.786628 0
M  V30 2241 C 222.163 -1.72597 -0.220507 0
M  V30 2242 O 223.339 -2.01321 -0.0565251 0
M  V30 2243 C 220.404 -3.459 0.235333 0
M  V30 2244 C 219.465 -4.09107 1.30115 0
M  V30 2245 C 218.698 -5.28027 0.776068 0
M  V30 2246 O 218.921 -5.6904 -0.393661 0
M  V30 2247 O 217.855 -5.81835 1.54114 0
M  V30 2248 H 221.681 -2.51521 1.70209 0
M  V30 2249 H 219.266 -1.19928 0.890928 0
M  V30 2250 H 221.148 -4.21346 -0.067715 0
M  V30 2251 H 219.823 -3.17049 -0.652828 0
M  V30 2252 H 218.73 -3.35391 1.65722 0
M  V30 2253 H 220.063 -4.42139 2.16273 0
M  V30 2254 N 221.715 -0.905404 -1.28997 0
M  V30 2255 C 223.131 -0.60233 -1.47798 0
M  V30 2256 C 223.331 0.854645 -1.82478 0
M  V30 2257 O 222.387 1.63439 -1.92468 0
M  V30 2258 C 223.7 -1.53306 -2.58685 0
M  V30 2259 C 225.248 -1.53887 -2.72558 0
M  V30 2260 C 225.723 -2.45602 -3.86579 0
M  V30 2261 N 227.214 -2.43681 -3.93921 0
M  V30 2262 C 227.949 -3.11347 -4.81509 0
M  V30 2263 N 227.445 -3.88313 -5.73746 0
M  V30 2264 N 229.238 -3.00476 -4.75048 0
M  V30 2265 H 221.389 -1.84765 -1.04764 0
M  V30 2266 H 223.652 -0.792025 -0.520961 0
M  V30 2267 H 223.358 -2.57141 -2.39941 0
M  V30 2268 H 223.232 -1.25787 -3.55609 0
M  V30 2269 H 225.619 -0.507941 -2.90696 0
M  V30 2270 H 225.7 -1.85447 -1.76191 0
M  V30 2271 H 225.344 -3.48792 -3.69197 0
M  V30 2272 H 225.274 -2.11349 -4.82327 0
M  V30 2273 H 227.765 -1.87767 -3.27951 0
M  V30 2274 H 228.078 -4.36985 -6.37389 0
M  V30 2275 H 226.423 -3.92419 -5.73614 0
M  V30 2276 H 229.614 -2.39858 -4.01977 0
M  V30 2277 H 229.787 -3.53485 -5.43095 0
M  V30 2278 N 223.193 1.4272 -0.668489 0
M  V30 2279 C 224.156 2.292 0.00448567 0
M  V30 2280 C 225.156 1.43001 0.735339 0
M  V30 2281 O 226.346 1.64461 0.57429 0
M  V30 2282 C 223.478 3.25375 1.01705 0
M  V30 2283 H 224.671 2.90199 -0.756608 0
M  V30 2284 H 222.224 1.50254 -0.430506 0
M  V30 2285 H 222.959 2.69301 1.80686 0
M  V30 2286 H 222.744 3.88944 0.496463 0
M  V30 2287 H 224.234 3.90245 1.48655 0
M  V30 2288 N 224.671 0.411399 1.52136 0
M  V30 2289 C 225.917 -0.163888 2.02137 0
M  V30 2290 C 226.25 -1.44597 1.29636 0
M  V30 2291 O 225.525 -1.90272 0.403353 0
M  V30 2292 C 225.808 -0.40927 3.57767 0
M  V30 2293 C 225.661 0.889643 4.40914 0
M  V30 2294 C 226.98 -1.19042 4.23694 0
M  V30 2295 H 224.099 -0.0580896 0.734707 0
M  V30 2296 H 226.741 0.54531 1.82007 0
M  V30 2297 H 224.891 -1.0134 3.7505 0
M  V30 2298 H 226.563 1.52575 4.35337 0
M  V30 2299 H 224.806 1.50011 4.07037 0
M  V30 2300 H 225.477 0.672314 5.4789 0
M  V30 2301 H 227.953 -0.678942 4.10524 0
M  V30 2302 H 226.829 -1.33086 5.32522 0
M  V30 2303 H 227.09 -2.21166 3.82803 0
M  V30 2304 N 226.149 -1.5696 0.141893 0
M  V30 2305 C 227.377 -2.00322 -0.517579 0
M  V30 2306 C 227.792 -1.02193 -1.58752 0
M  V30 2307 O 227.149 -0.0181619 -1.82491 0
M  V30 2308 C 227.2 -3.43618 -1.12289 0
M  V30 2309 O 226.921 -4.37995 -0.0956929 0
M  V30 2310 C 228.422 -4.02231 -1.86347 0
M  V30 2311 H 225.642 -0.657243 -0.135177 0
M  V30 2312 H 228.186 -2.03146 0.234973 0
M  V30 2313 H 226.341 -3.41662 -1.82609 0
M  V30 2314 H 226.755 -5.21729 -0.538469 0
M  V30 2315 H 228.229 -5.04509 -2.23997 0
M  V30 2316 H 228.706 -3.42655 -2.74744 0
M  V30 2317 H 229.312 -4.07802 -1.20737 0
M  V30 2318 N 227.627 0.131896 -1.57047 0
M  V30 2319 C 228.59 1.14638 -1.98471 0
M  V30 2320 C 229.59 1.35029 -0.873148 0
M  V30 2321 O 230.78 1.31764 -1.13946 0
M  V30 2322 C 227.912 2.50358 -2.31373 0
M  V30 2323 H 229.105 0.79064 -2.8929 0
M  V30 2324 H 226.658 0.375761 -1.51716 0
M  V30 2325 H 227.393 2.90876 -1.43393 0
M  V30 2326 H 227.178 2.36915 -3.12432 0
M  V30 2327 H 228.668 3.23395 -2.64207 0
M  V30 2328 N 229.106 1.52395 0.401703 0
M  V30 2329 C 230.069 1.75636 1.47257 0
M  V30 2330 C 231.069 0.62628 1.48103 0
M  V30 2331 O 232.259 0.894227 1.49497 0
M  V30 2332 C 229.391 1.84553 2.86624 0
M  V30 2333 H 230.584 2.71241 1.27938 0
M  V30 2334 H 228.137 1.42923 0.632662 0
M  V30 2335 H 228.872 0.908882 3.11303 0
M  V30 2336 H 228.657 2.66715 2.87412 0
M  V30 2337 H 230.147 2.04251 3.64241 0
M  V30 2338 N 230.584 -0.659388 1.43143 0
M  V30 2339 C 231.494 -1.80167 1.50256 0
M  V30 2340 C 232.51 -1.69571 0.390106 0
M  V30 2341 O 233.686 -1.90849 0.643319 0
M  V30 2342 C 230.751 -3.16409 1.41725 0
M  V30 2343 C 229.812 -3.38848 2.63591 0
M  V30 2344 C 229.045 -4.68591 2.55458 0
M  V30 2345 O 229.268 -5.47532 1.59891 0
M  V30 2346 O 228.202 -4.92614 3.45854 0
M  V30 2347 H 232.028 -1.77121 2.46702 0
M  V30 2348 H 229.613 -0.817092 1.25076 0
M  V30 2349 H 231.495 -3.9768 1.39387 0
M  V30 2350 H 230.17 -3.20059 0.484118 0
M  V30 2351 H 229.077 -2.57366 2.71502 0
M  V30 2352 H 230.41 -3.4004 3.55856 0
M  V30 2353 N 232.062 -1.29571 -0.897171 0
M  V30 2354 C 232.992 -1.17473 -2.01798 0
M  V30 2355 C 233.973 -0.068323 -1.69963 0
M  V30 2356 O 235.158 -0.248239 -1.92607 0
M  V30 2357 C 232.288 -0.853099 -3.36659 0
M  V30 2358 C 231.242 -1.9161 -3.82713 0
M  V30 2359 C 230.568 -1.44773 -5.14728 0
M  V30 2360 C 231.868 -3.32535 -4.02763 0
M  V30 2361 H 233.562 -2.11237 -2.12177 0
M  V30 2362 H 231.108 -1.01699 -1.01948 0
M  V30 2363 H 233.061 -0.755165 -4.14578 0
M  V30 2364 H 231.785 0.120236 -3.26379 0
M  V30 2365 H 230.444 -2.00346 -3.07013 0
M  V30 2366 H 230.092 -0.462995 -5.00865 0
M  V30 2367 H 229.792 -2.15865 -5.46513 0
M  V30 2368 H 231.316 -1.36334 -5.95185 0
M  V30 2369 H 232.73 -3.26626 -4.71156 0
M  V30 2370 H 231.127 -4.01607 -4.45905 0
M  V30 2371 H 232.197 -3.75326 -3.07016 0
M  V30 2372 N 233.54 1.10788 -1.12088 0
M  V30 2373 C 234.788 1.8231 -0.872205 0
M  V30 2374 C 235.109 1.85419 0.603709 0
M  V30 2375 O 234.379 1.32963 1.43867 0
M  V30 2376 H 232.959 0.675137 -0.319686 0
M  V30 2377 H 235.621 1.34068 -1.41463 0
M  V30 2378 H 234.717 2.85955 -1.25045 0
M  V30 2379 N 235.018 0.912232 1.28515 0
M  V30 2380 C 236.265 0.544599 1.95039 0
M  V30 2381 C 236.593 -0.911435 1.71823 0
M  V30 2382 O 235.848 -1.66317 1.03137 0
M  V30 2383 C 236.147 0.798392 3.48368 0
M  V30 2384 C 235.813 2.23374 3.91682 0
M  V30 2385 C 234.475 2.62617 4.03219 0
M  V30 2386 C 236.827 3.16786 4.13879 0
M  V30 2387 C 234.155 3.94429 4.3433 0
M  V30 2388 C 236.507 4.48161 4.46469 0
M  V30 2389 C 235.171 4.8726 4.56217 0
M  V30 2390 H 234.441 0.199283 0.7137 0
M  V30 2391 H 237.088 1.15327 1.52879 0
M  V30 2392 H 235.393 0.106908 3.91654 0
M  V30 2393 H 237.09 0.493141 3.97956 0
M  V30 2394 H 233.68 1.91922 3.83228 0
M  V30 2395 H 237.864 2.87677 4.0442 0
M  V30 2396 H 233.12 4.24426 4.40082 0
M  V30 2397 H 237.294 5.20559 4.62592 0
M  V30 2398 H 234.921 5.89431 4.80078 0
M  V30 2399 N 236.496 -1.42363 0.676048 0
M  V30 2400 C 237.912 -1.55811 0.345718 0
M  V30 2401 C 238.112 -1.65544 -1.14879 0
M  V30 2402 O 237.168 -1.62306 -1.93424 0
M  V30 2403 C 238.481 -2.80746 1.07713 0
M  V30 2404 C 240.029 -2.9452 1.05958 0
M  V30 2405 C 240.504 -4.22318 1.77233 0
M  V30 2406 N 241.995 -4.29233 1.74108 0
M  V30 2407 C 242.73 -5.26935 2.26113 0
M  V30 2408 N 242.226 -6.30783 2.86505 0
M  V30 2409 N 244.019 -5.18741 2.1648 0
M  V30 2410 H 236.17 -1.34289 1.6456 0
M  V30 2411 H 238.433 -0.646506 0.69335 0
M  V30 2412 H 238.139 -2.79696 2.13221 0
M  V30 2413 H 238.013 -3.71676 0.64316 0
M  V30 2414 H 240.4 -2.95097 0.0128255 0
M  V30 2415 H 240.481 -2.04817 1.53244 0
M  V30 2416 H 240.125 -4.22502 2.81877 0
M  V30 2417 H 240.055 -5.10958 1.27396 0
M  V30 2418 H 242.546 -3.54814 1.30059 0
M  V30 2419 H 242.859 -7.01691 3.23805 0
M  V30 2420 H 241.204 -6.31341 2.90575 0
M  V30 2421 H 244.395 -4.36533 1.68987 0
M  V30 2422 H 244.568 -5.94721 2.57316 0
M  V30 2423 N 237.974 -0.419461 -1.51915 0
M  V30 2424 C 238.937 0.389116 -2.25873 0
M  V30 2425 C 239.937 0.964924 -1.28631 0
M  V30 2426 O 241.127 0.842179 -1.52489 0
M  V30 2427 C 238.259 1.54874 -3.03689 0
M  V30 2428 H 239.452 -0.258799 -2.98781 0
M  V30 2429 H 237.005 -0.172209 -1.55348 0
M  V30 2430 H 237.74 2.23323 -2.35154 0
M  V30 2431 H 237.525 1.14223 -3.75094 0
M  V30 2432 H 239.015 2.12046 -3.59759 0
M  V30 2433 N 239.452 1.56882 -0.150215 0
M  V30 2434 C 240.698 1.96518 0.500834 0
M  V30 2435 C 241.031 1.03527 1.64304 0
M  V30 2436 O 240.306 0.0782751 1.94342 0
M  V30 2437 C 240.589 3.45822 1.00395 0
M  V30 2438 C 240.442 4.49591 -0.136983 0
M  V30 2439 C 241.761 3.97704 1.88467 0
M  V30 2440 H 238.88 0.714535 0.18058 0
M  V30 2441 H 241.522 1.88577 -0.232091 0
M  V30 2442 H 239.672 3.5272 1.62851 0
M  V30 2443 H 241.344 4.5477 -0.77343 0
M  V30 2444 H 239.587 4.26441 -0.795652 0
M  V30 2445 H 240.258 5.51402 0.256815 0
M  V30 2446 H 242.734 3.93304 1.35834 0
M  V30 2447 H 241.61 5.0263 2.20578 0
M  V30 2448 H 241.871 3.40252 2.82279 0
M  V30 2449 N 240.93 -0.123565 1.57115 0
M  V30 2450 C 241.877 -1.15177 2.00007 0
M  V30 2451 C 242.847 -1.41403 0.871454 0
M  V30 2452 O 244.032 -1.53346 1.13533 0
M  V30 2453 C 241.172 -2.47436 2.40561 0
M  V30 2454 C 240.285 -2.28184 3.66819 0
M  V30 2455 C 239.42 -3.53641 3.96373 0
M  V30 2456 C 238.459 -3.29528 5.15827 0
M  V30 2457 N 237.596 -4.47175 5.41275 0
M  V30 2458 H 242.436 -0.779008 2.87638 0
M  V30 2459 H 239.973 -0.373166 1.42288 0
M  V30 2460 H 241.931 -3.24584 2.62109 0
M  V30 2461 H 240.561 -2.82614 1.55978 0
M  V30 2462 H 239.613 -1.41976 3.52912 0
M  V30 2463 H 240.925 -2.0634 4.5412 0
M  V30 2464 H 240.079 -4.39209 4.18545 0
M  V30 2465 H 238.818 -3.78512 3.07538 0
M  V30 2466 H 237.823 -2.42349 4.93505 0
M  V30 2467 H 239.048 -3.06031 6.06236 0
M  V30 2468 H 236.994 -4.72175 4.55397 0
M  V30 2469 H 236.911 -4.28419 6.22891 0
M  V30 2470 H 238.179 -5.3389 5.67963 0
M  V30 2471 N 242.408 -1.52605 -0.393616 0
M  V30 2472 C 243.636 -1.71294 -1.16043 0
M  V30 2473 C 244.051 -0.429259 -1.83855 0
M  V30 2474 O 243.408 0.595921 -1.72496 0
M  V30 2475 C 243.459 -2.8593 -2.21193 0
M  V30 2476 O 243.18 -4.09329 -1.56146 0
M  V30 2477 C 244.681 -3.16259 -3.10636 0
M  V30 2478 H 241.901 -0.573641 -0.348104 0
M  V30 2479 H 244.445 -1.99234 -0.461092 0
M  V30 2480 H 242.6 -2.60465 -2.86769 0
M  V30 2481 H 243.014 -4.73323 -2.25978 0
M  V30 2482 H 244.488 -3.99946 -3.80456 0
M  V30 2483 H 244.965 -2.3045 -3.73884 0
M  V30 2484 H 245.571 -3.43547 -2.50711 0
M  V30 2485 N 243.887 0.651787 -1.4349 0
M  V30 2486 C 244.834 1.76462 -1.4876 0
M  V30 2487 C 245.804 1.62641 -0.337189 0
M  V30 2488 O 246.989 1.82864 -0.544544 0
M  V30 2489 C 244.129 3.14623 -1.41796 0
M  V30 2490 C 243.242 3.39568 -2.67053 0
M  V30 2491 C 242.377 4.67585 -2.52068 0
M  V30 2492 C 241.416 4.85639 -3.72587 0
M  V30 2493 N 240.553 6.04915 -3.56402 0
M  V30 2494 H 245.393 1.71293 -2.43849 0
M  V30 2495 H 242.93 0.835889 -1.21043 0
M  V30 2496 H 244.888 3.94496 -1.35753 0
M  V30 2497 H 243.518 3.18859 -0.50288 0
M  V30 2498 H 242.57 2.53783 -2.8337 0
M  V30 2499 H 243.882 3.48795 -3.56572 0
M  V30 2500 H 243.036 5.55586 -2.4374 0
M  V30 2501 H 241.775 4.60681 -1.60075 0
M  V30 2502 H 240.78 3.96073 -3.81321 0
M  V30 2503 H 242.005 4.94372 -4.65589 0
M  V30 2504 H 239.951 5.9914 -2.67146 0
M  V30 2505 H 239.868 6.15106 -4.39524 0
M  V30 2506 H 241.136 6.95533 -3.51929 0
M  V30 2507 N 245.365 1.30045 0.890287 0
M  V30 2508 C 246.614 1.17929 1.63633 0
M  V30 2509 C 246.927 -0.266204 1.9378 0
M  V30 2510 O 248.133 -0.508804 2.6669 0
M  V30 2511 C 246.589 2.06317 2.94892 0
M  V30 2512 C 246.197 3.55745 2.72305 0
M  V30 2513 C 247.941 2.0295 3.72843 0
M  V30 2514 C 245.848 4.36205 3.99348 0
M  V30 2515 H 244.778 0.437782 0.613892 0
M  V30 2516 H 247.429 1.54754 0.986075 0
M  V30 2517 H 245.811 1.6237 3.61182 0
M  V30 2518 H 246.985 4.07805 2.1455 0
M  V30 2519 H 245.3 3.6088 2.07737 0
M  V30 2520 H 247.897 2.60319 4.67053 0
M  V30 2521 H 248.24 1.0117 4.0382 0
M  V30 2522 H 248.773 2.4499 3.13408 0
M  V30 2523 H 245.512 5.38659 3.73533 0
M  V30 2524 H 245.032 3.8891 4.56628 0
M  V30 2525 H 246.711 4.47362 4.67415 0
M  V30 2526 N 246.843 -1.10192 1.12674 0
M  V30 2527 C 248.091 -1.81845 0.881861 0
M  V30 2528 C 248.412 -1.85737 -0.593867 0
M  V30 2529 O 247.682 -1.33724 -1.4316 0
M  V30 2530 H 246.262 -0.673432 0.323261 0
M  V30 2531 H 248.924 -1.33316 1.42172 0
M  V30 2532 H 248.02 -2.85288 1.2656 0
M  V30 2533 N 248.321 -0.919034 -1.28029 0
M  V30 2534 C 249.551 -0.570143 -1.98577 0
M  V30 2535 C 249.959 0.854172 -1.68821 0
M  V30 2536 O 249.302 1.57807 -0.940351 0
M  V30 2537 C 249.364 -0.705734 -3.52505 0
M  V30 2538 C 249.028 -2.10057 -4.05863 0
M  V30 2539 C 250.025 -3.07385 -4.19298 0
M  V30 2540 C 247.71 -2.41517 -4.40426 0
M  V30 2541 C 249.704 -4.34287 -4.66555 0
M  V30 2542 C 247.391 -3.68657 -4.87376 0
M  V30 2543 C 248.389 -4.64856 -5.00398 0
M  V30 2544 O 248.077 -5.89735 -5.46322 0
M  V30 2545 H 247.809 -0.215592 -0.6407 0
M  V30 2546 H 250.363 -1.23583 -1.64062 0
M  V30 2547 H 248.593 0.0170414 -3.86696 0
M  V30 2548 H 250.282 -0.363172 -4.04272 0
M  V30 2549 H 251.048 -2.84398 -3.92865 0
M  V30 2550 H 246.927 -1.67389 -4.29537 0
M  V30 2551 H 250.471 -5.09377 -4.76635 0
M  V30 2552 H 246.368 -3.91466 -5.13249 0
M  V30 2553 H 247.136 -5.92599 -5.64596 0
M  V30 2554 N 249.799 1.42003 -0.683588 0
M  V30 2555 C 251.21 1.84501 -0.285736 0
M  V30 2556 C 251.561 1.57213 1.17382 0
M  V30 2557 O 250.686 1.03642 1.89966 0
M  V30 2558 C 251.281 3.34912 -0.511821 0
M  V30 2559 C 249.84 3.76025 -0.168005 0
M  V30 2560 C 248.987 2.6551 -0.799983 0
M  V30 2561 H 251.938 1.31724 -0.885119 0
M  V30 2562 H 251.959 3.79784 0.233292 0
M  V30 2563 H 251.471 3.54741 -1.57418 0
M  V30 2564 H 249.572 3.61801 0.890567 0
M  V30 2565 H 249.685 4.75141 -0.614661 0
M  V30 2566 H 248.049 2.53654 -0.230568 0
M  V30 2567 H 248.832 2.8816 -1.86597 0
M  V30 2568 N 251.277 0.427512 1.51691 0
M  V30 2569 C 252.24 -0.377132 2.26076 0
M  V30 2570 C 253.24 -0.958089 1.29141 0
M  V30 2571 O 254.43 -0.83408 1.52934 0
M  V30 2572 C 251.562 -1.53262 3.04506 0
M  V30 2573 H 252.755 0.27464 2.9864 0
M  V30 2574 H 250.308 0.180445 1.55255 0
M  V30 2575 H 251.043 -2.22072 2.36335 0
M  V30 2576 H 250.828 -1.12232 3.75694 0
M  V30 2577 H 252.318 -2.10135 3.60878 0
M  V30 2578 N 252.755 -1.56801 0.158532 0
M  V30 2579 C 253.685 -2.20347 -0.772609 0
M  V30 2580 C 254.666 -1.15518 -1.24859 0
M  V30 2581 O 255.851 -1.43902 -1.30406 0
M  V30 2582 C 252.981 -2.83417 -2.00729 0
M  V30 2583 C 251.935 -3.94174 -1.66765 0
M  V30 2584 C 251.261 -4.44233 -2.97592 0
M  V30 2585 C 252.561 -5.14392 -0.905447 0
M  V30 2586 H 254.255 -2.98413 -0.242959 0
M  V30 2587 H 251.801 -1.43537 -0.115419 0
M  V30 2588 H 253.754 -3.26543 -2.6636 0
M  V30 2589 H 252.478 -2.02701 -2.56086 0
M  V30 2590 H 251.137 -3.51684 -1.03508 0
M  V30 2591 H 250.785 -3.60325 -3.50963 0
M  V30 2592 H 250.485 -5.18945 -2.75626 0
M  V30 2593 H 252.009 -4.90037 -3.64274 0
M  V30 2594 H 253.423 -5.5429 -1.46408 0
M  V30 2595 H 251.82 -5.9494 -0.7853 0
M  V30 2596 H 252.89 -4.84795 0.100668 0
M  V30 2597 N 254.233 0.115231 -1.57178 0
M  V30 2598 C 255.51 0.852873 -1.76027 0
M  V30 2599 C 255.89 1.97892 -0.73498 0
M  V30 2600 O 255.238 2.27232 0.24036 0
M  V30 2601 C 255.448 1.36608 -3.21153 0
M  V30 2602 C 256.796 1.81692 -3.83762 0
M  V30 2603 O 257.82 1.46278 -3.24779 0
M  V30 2604 O 256.679 2.47104 -4.87444 0
M  V30 2605 H 253.773 0.405296 -0.720877 0
M  V30 2606 H 256.319 0.0986785 -1.69413 0
M  V30 2607 H 255.091 0.558357 -3.87296 0
M  V30 2608 H 254.714 2.18287 -3.3232 0
M  V30 2609 N 255.711 1.52812 0.385517 0
M  V30 2610 C 256.643 1.74096 1.49074 0
M  V30 2611 C 257.656 0.621462 1.50472 0
M  V30 2612 O 258.845 0.897245 1.54311 0
M  V30 2613 C 255.945 1.78774 2.87911 0
M  V30 2614 C 255.118 3.08134 3.10439 0
M  V30 2615 C 254.177 3.04313 4.29278 0
M  V30 2616 O 253.203 3.78168 4.25415 0
M  V30 2617 N 254.405 2.23741 5.35649 0
M  V30 2618 H 257.17 2.69455 1.31202 0
M  V30 2619 H 254.731 1.51343 0.575065 0
M  V30 2620 H 256.723 1.73721 3.65518 0
M  V30 2621 H 255.293 0.907869 2.99126 0
M  V30 2622 H 254.513 3.26649 2.20667 0
M  V30 2623 H 255.801 3.93662 3.22347 0
M  V30 2624 H 255.199 1.63211 5.41645 0
M  V30 2625 H 253.756 2.24524 6.11909 0
M  V30 2626 N 257.189 -0.644168 1.43834 0
M  V30 2627 C 258.466 -1.40188 1.36406 0
M  V30 2628 C 258.846 -2.11094 0.0163124 0
M  V30 2629 O 258.194 -2.05426 -1.00062 0
M  V30 2630 C 258.404 -2.3791 2.55343 0
M  V30 2631 C 259.752 -3.01637 2.98832 0
M  V30 2632 O 260.776 -2.48237 2.55455 0
M  V30 2633 O 259.635 -3.98477 3.74003 0
M  V30 2634 H 256.729 -0.626773 0.539523 0
M  V30 2635 H 259.275 -0.670317 1.559 0
M  V30 2636 H 258.047 -1.84525 3.4506 0
M  V30 2637 H 257.67 -3.18503 2.37995 0
M  V30 2638 N 258.668 -1.30515 -0.883378 0
M  V30 2639 C 259.598 -1.19607 -2.00541 0
M  V30 2640 C 260.579 -0.086346 -1.69881 0
M  V30 2641 O 261.764 -0.268654 -1.92333 0
M  V30 2642 C 258.894 -0.888758 -3.35736 0
M  V30 2643 C 257.848 -1.95659 -3.8066 0
M  V30 2644 C 257.174 -1.50224 -5.13164 0
M  V30 2645 C 258.474 -3.36788 -3.99213 0
M  V30 2646 H 260.168 -2.13476 -2.09925 0
M  V30 2647 H 257.714 -1.02775 -1.00863 0
M  V30 2648 H 259.667 -0.799094 -4.13754 0
M  V30 2649 H 258.391 0.0856125 -3.26488 0
M  V30 2650 H 257.05 -2.03591 -3.04871 0
M  V30 2651 H 256.698 -0.516092 -5.00345 0
M  V30 2652 H 256.398 -2.2165 -5.44192 0
M  V30 2653 H 257.922 -1.42639 -5.93706 0
M  V30 2654 H 259.336 -3.31605 -4.67665 0
M  V30 2655 H 257.733 -4.06314 -4.41621 0
M  V30 2656 H 258.803 -3.78561 -3.03017 0
M  V30 2657 N 260.146 1.09593 -1.13257 0
M  V30 2658 C 261.109 2.14359 -0.811358 0
M  V30 2659 C 262.109 1.59808 0.178377 0
M  V30 2660 O 263.299 1.74132 -0.0484911 0
M  V30 2661 C 260.431 3.40269 -0.207276 0
M  V30 2662 H 261.624 2.44284 -1.73969 0
M  V30 2663 H 259.177 1.25102 -0.936973 0
M  V30 2664 H 259.912 3.15969 0.73036 0
M  V30 2665 H 259.697 3.81154 -0.919992 0
M  V30 2666 H 261.187 4.176 0.000667944 0
M  V30 2667 N 261.624 0.925811 1.2754 0
M  V30 2668 C 262.87 0.566092 1.94739 0
M  V30 2669 C 263.203 -0.890057 1.72603 0
M  V30 2670 O 262.478 -1.63467 1.05399 0
M  V30 2671 C 262.761 0.89054 3.48915 0
M  V30 2672 C 262.614 2.4003 3.80402 0
M  V30 2673 C 263.933 0.395101 4.38323 0
M  V30 2674 H 261.052 0.20714 0.707292 0
M  V30 2675 H 263.694 1.15725 1.50691 0
M  V30 2676 H 261.844 0.387452 3.86563 0
M  V30 2677 H 263.516 2.97494 3.52555 0
M  V30 2678 H 261.759 2.85028 3.2702 0
M  V30 2679 H 262.43 2.57785 4.8811 0
M  V30 2680 H 264.906 0.826241 4.07814 0
M  V30 2681 H 263.782 0.651086 5.45025 0
M  V30 2682 H 264.043 -0.704798 4.36446 0
M  V30 2683 N 263.102 -1.41638 0.69111 0
M  V30 2684 C 264.348 -2.01598 0.220519 0
M  V30 2685 C 264.681 -1.54594 -1.17535 0
M  V30 2686 O 263.956 -0.755177 -1.79241 0
M  V30 2687 C 264.239 -3.59062 0.273243 0
M  V30 2688 C 264.092 -4.16203 1.70573 0
M  V30 2689 C 265.411 -4.38546 -0.369457 0
M  V30 2690 H 262.53 -0.732468 0.0816045 0
M  V30 2691 H 265.172 -1.68445 0.878986 0
M  V30 2692 H 263.322 -3.87435 -0.287411 0
M  V30 2693 H 264.994 -3.98722 2.31989 0
M  V30 2694 H 263.237 -3.71414 2.2413 0
M  V30 2695 H 263.908 -5.25358 1.69419 0
M  V30 2696 H 266.384 -4.1596 0.107977 0
M  V30 2697 H 265.26 -5.48069 -0.302002 0
M  V30 2698 H 265.521 -4.17662 -1.44951 0
M  V30 2699 N 264.58 -0.43555 -1.51462 0
M  V30 2700 C 265.996 -0.0877501 -1.59359 0
M  V30 2701 C 266.196 1.4027 -1.4466 0
M  V30 2702 O 265.252 2.17243 -1.28693 0
M  V30 2703 C 266.565 -0.606264 -2.94525 0
M  V30 2704 C 268.113 -0.566548 -3.0783 0
M  V30 2705 C 268.588 -1.06201 -4.45517 0
M  V30 2706 N 270.079 -1.01992 -4.51832 0
M  V30 2707 C 270.814 -1.37417 -5.5669 0
M  V30 2708 N 270.31 -1.80119 -6.68976 0
M  V30 2709 N 272.103 -1.29245 -5.47039 0
M  V30 2710 H 264.254 -1.40533 -1.59261 0
M  V30 2711 H 266.517 -0.578992 -0.750648 0
M  V30 2712 H 266.223 -1.64901 -3.10645 0
M  V30 2713 H 266.097 -0.0302097 -3.77188 0
M  V30 2714 H 268.484 0.467208 -2.91378 0
M  V30 2715 H 268.565 -1.17898 -2.2701 0
M  V30 2716 H 268.209 -2.09422 -4.62715 0
M  V30 2717 H 268.139 -0.426127 -5.24873 0
M  V30 2718 H 270.63 -0.706308 -3.71241 0
M  V30 2719 H 270.943 -2.05392 -7.45006 0
M  V30 2720 H 269.288 -1.84044 -6.70189 0
M  V30 2721 H 272.479 -0.957522 -4.58202 0
M  V30 2722 H 272.652 -1.57182 -6.28648 0
M  V30 2723 N 266.058 1.56714 -0.166846 0
M  V30 2724 C 267.283 2.01557 0.488833 0
M  V30 2725 C 267.708 1.0463 1.56314 0
M  V30 2726 O 267.066 0.0251304 1.81283 0
M  V30 2727 C 267.114 3.4503 1.04818 0
M  V30 2728 O 266.218 3.51163 2.16236 0
M  V30 2729 H 265.559 0.653516 0.117526 0
M  V30 2730 H 268.089 2.02818 -0.269421 0
M  V30 2731 H 268.099 3.84243 1.37191 0
M  V30 2732 H 266.774 4.15077 0.261572 0
M  V30 2733 H 265.351 3.23807 1.84942 0
M  V30 2734 N 267.536 -0.106894 1.57237 0
M  V30 2735 C 268.785 -0.811163 1.8467 0
M  V30 2736 C 269.098 -1.80469 0.754342 0
M  V30 2737 O 270.304 -2.55601 0.915439 0
M  V30 2738 C 268.76 -1.49337 3.27454 0
M  V30 2739 C 268.368 -0.540217 4.44731 0
M  V30 2740 C 270.112 -2.18206 3.64124 0
M  V30 2741 C 268.019 -1.22634 5.78545 0
M  V30 2742 H 266.949 -0.306679 0.688813 0
M  V30 2743 H 269.6 -0.0639887 1.83388 0
M  V30 2744 H 267.982 -2.2876 3.23241 0
M  V30 2745 H 269.156 0.221659 4.60267 0
M  V30 2746 H 267.471 0.042146 4.16379 0
M  V30 2747 H 270.068 -2.70253 4.61376 0
M  V30 2748 H 270.411 -2.96562 2.92158 0
M  V30 2749 H 270.944 -1.45658 3.70174 0
M  V30 2750 H 267.683 -0.483832 6.53712 0
M  V30 2751 H 267.203 -1.95993 5.66874 0
M  V30 2752 H 268.882 -1.75615 6.2271 0
M  V30 2753 N 269.014 -1.53014 -0.377408 0
M  V30 2754 C 270.43 -1.42523 -0.718281 0
M  V30 2755 C 270.63 -0.55487 -1.9371 0
M  V30 2756 O 269.686 -0.0327593 -2.52479 0
M  V30 2757 C 270.999 -2.85546 -0.942539 0
M  V30 2758 C 272.547 -2.95101 -1.04329 0
M  V30 2759 C 273.022 -4.3916 -1.3001 0
M  V30 2760 N 274.513 -4.42536 -1.36806 0
M  V30 2761 C 275.248 -5.51097 -1.58364 0
M  V30 2762 N 274.744 -6.69724 -1.77317 0
M  V30 2763 N 276.537 -5.38657 -1.60638 0
M  V30 2764 H 268.688 -2.08116 0.424426 0
M  V30 2765 H 270.951 -0.939352 0.127759 0
M  V30 2766 H 270.657 -3.51499 -0.118929 0
M  V30 2767 H 270.531 -3.28493 -1.85397 0
M  V30 2768 H 272.918 -2.29309 -1.85745 0
M  V30 2769 H 272.999 -2.55566 -0.109505 0
M  V30 2770 H 272.643 -5.05521 -0.490991 0
M  V30 2771 H 272.573 -4.76258 -2.24691 0
M  V30 2772 H 275.064 -3.57039 -1.23821 0
M  V30 2773 H 275.377 -7.48233 -1.93306 0
M  V30 2774 H 273.722 -6.72732 -1.74518 0
M  V30 2775 H 276.913 -4.44948 -1.45391 0
M  V30 2776 H 277.086 -6.2333 -1.77098 0
M  V30 2777 N 270.492 0.636531 -1.44174 0
M  V30 2778 C 271.424 1.7618 -1.46606 0
M  V30 2779 C 272.437 1.58768 -0.360091 0
M  V30 2780 O 273.626 1.67181 -0.625518 0
M  V30 2781 C 270.726 3.13833 -1.27915 0
M  V30 2782 C 269.899 3.57753 -2.51658 0
M  V30 2783 C 268.958 4.74265 -2.27945 0
M  V30 2784 O 267.984 4.82852 -3.01401 0
M  V30 2785 N 269.186 5.65604 -1.30662 0
M  V30 2786 H 271.951 1.74567 -2.43612 0
M  V30 2787 H 269.512 0.820924 -1.39544 0
M  V30 2788 H 271.504 3.8949 -1.09907 0
M  V30 2789 H 270.074 3.10121 -0.39293 0
M  V30 2790 H 269.294 2.72362 -2.84978 0
M  V30 2791 H 270.582 3.83847 -3.33974 0
M  V30 2792 H 269.98 5.61354 -0.699844 0
M  V30 2793 H 268.537 6.40913 -1.18634 0
M  V30 2794 N 271.97 1.30982 0.876444 0
M  V30 2795 C 272.933 1.18054 1.96459 0
M  V30 2796 C 273.933 0.109399 1.60427 0
M  V30 2797 O 275.123 0.358173 1.70478 0
M  V30 2798 C 272.255 0.810616 3.31122 0
M  V30 2799 H 273.448 2.14735 2.09354 0
M  V30 2800 H 271.001 1.145 1.06392 0
M  V30 2801 H 271.736 -0.155322 3.23928 0
M  V30 2802 H 271.521 1.58481 3.58645 0
M  V30 2803 H 273.011 0.743876 4.10921 0
M  V30 2804 N 273.449 -1.08991 1.13837 0
M  V30 2805 C 274.695 -1.81526 0.90422 0
M  V30 2806 C 275.028 -1.85706 -0.568066 0
M  V30 2807 O 274.303 -1.32855 -1.42056 0
M  V30 2808 C 274.586 -3.27447 1.49835 0
M  V30 2809 C 274.439 -3.31512 3.04006 0
M  V30 2810 C 275.758 -4.24256 1.17025 0
M  V30 2811 H 272.877 -0.659029 0.329923 0
M  V30 2812 H 275.519 -1.27644 1.40737 0
M  V30 2813 H 273.669 -3.73462 1.07044 0
M  V30 2814 H 275.341 -2.93867 3.55584 0
M  V30 2815 H 273.584 -2.70963 3.38765 0
M  V30 2816 H 274.255 -4.34329 3.40679 0
M  V30 2817 H 276.731 -3.86549 1.54009 0
M  V30 2818 H 275.607 -5.24684 1.61237 0
M  V30 2819 H 275.868 -4.42019 0.0846274 0
M  V30 2820 N 274.927 -0.932562 -1.27047 0
M  V30 2821 C 276.175 -0.574422 -1.93765 0
M  V30 2822 C 276.496 0.887993 -1.73608 0
M  V30 2823 O 275.766 1.62999 -1.08665 0
M  V30 2824 H 274.346 -0.209451 -0.717035 0
M  V30 2825 H 277.008 -1.18601 -1.5466 0
M  V30 2826 H 276.104 -0.784841 -3.02071 0
M  V30 2827 N 276.405 1.4127 -0.698611 0
M  V30 2828 C 277.682 1.94955 -0.158762 0
M  V30 2829 C 278.062 1.63781 1.33188 0
M  V30 2830 O 277.41 0.946423 2.07979 0
M  V30 2831 C 277.62 3.46044 -0.453309 0
M  V30 2832 C 278.968 4.22872 -0.382707 0
M  V30 2833 O 279.992 3.54076 -0.388396 0
M  V30 2834 O 278.851 5.45407 -0.345463 0
M  V30 2835 H 275.945 0.82683 -0.0167505 0
M  V30 2836 H 278.491 1.50971 -0.77498 0
M  V30 2837 H 277.263 3.62028 -1.48498 0
M  V30 2838 H 276.886 3.97128 0.19373 0
M  V30 2839 N 277.883 0.443576 1.51229 0
M  V30 2840 C 279.16 -0.181038 1.9476 0
M  V30 2841 C 279.54 -1.59523 1.38259 0
M  V30 2842 O 278.888 -2.2122 0.572198 0
M  V30 2843 C 279.098 -0.152422 3.48667 0
M  V30 2844 C 280.446 -0.354923 4.23114 0
M  V30 2845 O 281.47 -0.230257 3.55455 0
M  V30 2846 O 280.329 -0.603674 5.43156 0
M  V30 2847 H 277.423 -0.1266 0.817252 0
M  V30 2848 H 279.969 0.502004 1.62105 0
M  V30 2849 H 278.741 0.836022 3.82265 0
M  V30 2850 H 278.364 -0.878107 3.87782 0
M  V30 2851 N 279.361 -1.56624 0.175154 0
M  V30 2852 C 280.608 -1.96999 -0.468811 0
M  V30 2853 C 280.936 -1.06129 -1.62994 0
M  V30 2854 O 280.191 -0.0961771 -1.95464 0
M  V30 2855 C 280.49 -3.43419 -0.989864 0
M  V30 2856 C 280.156 -4.50866 0.0557687 0
M  V30 2857 C 278.818 -4.79975 0.343134 0
M  V30 2858 C 281.17 -5.15551 0.765308 0
M  V30 2859 C 278.498 -5.71066 1.34536 0
M  V30 2860 C 280.85 -6.07724 1.75654 0
M  V30 2861 C 279.514 -6.35199 2.05132 0
M  V30 2862 H 278.784 -0.720869 -0.17155 0
M  V30 2863 H 281.431 -1.89616 0.267924 0
M  V30 2864 H 279.736 -3.47772 -1.80449 0
M  V30 2865 H 281.433 -3.72002 -1.49719 0
M  V30 2866 H 278.023 -4.28229 -0.178381 0
M  V30 2867 H 282.207 -4.9317 0.556513 0
M  V30 2868 H 277.463 -5.90635 1.57988 0
M  V30 2869 H 281.637 -6.56912 2.31169 0
M  V30 2870 H 279.264 -7.05584 2.8294 0
M  V30 2871 N 280.839 0.0985539 -1.57292 0
M  V30 2872 C 282.087 0.801092 -1.85545 0
M  V30 2873 C 282.408 1.79438 -0.763353 0
M  V30 2874 O 281.678 1.94763 0.21073 0
M  V30 2875 H 280.258 0.29884 -0.684619 0
M  V30 2876 H 282.92 0.0810064 -1.94732 0
M  V30 2877 H 282.016 1.3338 -2.82163 0
M  V30 2878 N 282.317 1.53212 0.369288 0
M  V30 2879 C 283.566 1.68436 1.10961 0
M  V30 2880 C 283.879 0.440738 1.9057 0
M  V30 2881 O 285.085 0.473446 2.6734 0
M  V30 2882 C 283.541 2.97744 2.0218 0
M  V30 2883 C 283.149 4.29355 1.279 0
M  V30 2884 C 284.893 3.22334 2.76226 0
M  V30 2885 C 282.8 5.49755 2.17999 0
M  V30 2886 H 281.73 0.627568 0.41794 0
M  V30 2887 H 284.381 1.79713 0.370884 0
M  V30 2888 H 282.763 2.8026 2.79768 0
M  V30 2889 H 283.937 4.57458 0.554007 0
M  V30 2890 H 282.252 4.11179 0.657311 0
M  V30 2891 H 284.849 4.09471 3.43857 0
M  V30 2892 H 285.192 2.38238 3.41392 0
M  V30 2893 H 285.725 3.40475 2.05723 0
M  V30 2894 H 282.464 6.36318 1.57417 0
M  V30 2895 H 281.984 5.25937 2.88359 0
M  V30 2896 H 283.663 5.84401 2.77641 0
M  V30 2897 N 283.795 -0.628877 1.44509 0
M  V30 2898 C 284.728 -1.75367 1.46019 0
M  V30 2899 C 285.706 -1.59444 0.318787 0
M  V30 2900 O 286.89 -1.81297 0.516099 0
M  V30 2901 C 284.017 -3.12965 1.29501 0
M  V30 2902 C 283.063 -3.47532 2.47233 0
M  V30 2903 S 283.896 -3.44758 4.09758 0
M  V30 2904 C 285.052 -4.84973 3.95667 0
M  V30 2905 H 285.285 -1.7382 2.41193 0
M  V30 2906 H 282.818 -0.803686 1.31834 0
M  V30 2907 H 284.776 -3.92367 1.20658 0
M  V30 2908 H 283.437 -3.12049 0.358341 0
M  V30 2909 H 282.63 -4.47664 2.31544 0
M  V30 2910 H 282.232 -2.75598 2.52828 0
M  V30 2911 H 284.524 -5.74255 3.59496 0
M  V30 2912 H 285.467 -5.05716 4.95638 0
M  V30 2913 H 285.875 -4.59653 3.27688 0
M  V30 2914 N 285.273 -1.31445 -0.869486 0
M  V30 2915 C 286.519 -1.21337 -1.62496 0
M  V30 2916 C 286.852 0.227872 -1.92858 0
M  V30 2917 O 286.127 1.16094 -1.56053 0
M  V30 2918 C 286.41 -2.05814 -2.95487 0
M  V30 2919 C 286.263 -3.5824 -2.72 0
M  V30 2920 C 287.582 -1.9079 -3.96594 0
M  V30 2921 H 284.701 -0.442135 -0.589649 0
M  V30 2922 H 287.343 -1.6124 -1.00507 0
M  V30 2923 H 285.493 -1.71913 -3.48394 0
M  V30 2924 H 287.165 -4.0228 -2.25762 0
M  V30 2925 H 285.408 -3.81647 -2.06224 0
M  V30 2926 H 286.079 -4.12657 -3.66631 0
M  V30 2927 H 288.555 -2.20459 -3.52898 0
M  V30 2928 H 287.431 -2.52199 -4.87531 0
M  V30 2929 H 287.692 -0.871341 -4.33428 0
M  V30 2930 N 286.751 1.08385 -1.14413 0
M  V30 2931 C 288.028 1.77429 -0.823297 0
M  V30 2932 C 288.408 1.9974 0.683163 0
M  V30 2933 O 287.756 1.60739 1.62405 0
M  V30 2934 C 287.966 3.09004 -1.62227 0
M  V30 2935 C 289.314 3.83532 -1.82177 0
M  V30 2936 O 290.338 3.18786 -1.58915 0
M  V30 2937 O 289.197 4.99792 -2.21067 0
M  V30 2938 H 286.291 0.769999 -0.301712 0
M  V30 2939 H 288.837 1.14846 -1.24934 0
M  V30 2940 H 287.609 2.88316 -2.64555 0
M  V30 2941 H 287.232 3.79316 -1.19187 0
M  V30 2942 N 288.23 0.939286 1.26551 0
M  V30 2943 C 289.46 0.601663 1.97645 0
M  V30 2944 C 289.868 -0.827206 1.70159 0
M  V30 2945 O 289.211 -1.56291 0.965338 0
M  V30 2946 C 289.273 0.761725 3.51337 0
M  V30 2947 C 288.937 2.16487 4.0247 0
M  V30 2948 C 289.934 3.14016 4.14355 0
M  V30 2949 C 287.619 2.48494 4.36527 0
M  V30 2950 C 289.613 4.41654 4.59587 0
M  V30 2951 C 287.3 3.76364 4.81449 0
M  V30 2952 C 288.298 4.72758 4.92939 0
M  V30 2953 O 287.986 5.98352 5.36871 0
M  V30 2954 H 287.718 0.225758 0.637189 0
M  V30 2955 H 290.272 1.26178 1.62075 0
M  V30 2956 H 288.502 0.0444808 3.86674 0
M  V30 2957 H 290.191 0.427442 4.03643 0
M  V30 2958 H 290.957 2.90613 3.8829 0
M  V30 2959 H 286.836 1.74202 4.26819 0
M  V30 2960 H 290.38 5.16896 4.68471 0
M  V30 2961 H 286.277 3.99582 5.06956 0
M  V30 2962 H 287.045 6.01507 5.55096 0
M  V30 2963 N 289.708 -1.40897 0.706093 0
M  V30 2964 C 290.656 -2.32572 0.0361893 0
M  V30 2965 C 291.65 -1.51532 -0.757266 0
M  V30 2966 O 292.856 -1.67396 -0.661703 0
M  V30 2967 H 289.231 -0.751966 -0.00709935 0
M  V30 2968 H 291.202 -2.86733 0.826249 0
M  V30 2969 C 289.951 -3.36418 -0.87854 0
M  V30 2970 H 289.274 -3.98836 -0.277401 0
M  V30 2971 H 290.714 -4.0308 -1.3154 0
M  V30 2972 C 289.173 -2.71141 -1.99961 0
M  V30 2973 O 289.703 -2.56735 -3.0895 0
M  V30 2974 N 287.909 -2.29671 -1.78043 0
M  V30 2975 H 287.456 -2.41588 -0.894042 0
M  V30 2976 H 287.414 -1.86332 -2.53235 0
M  V30 2977 N 291.186 -0.45159 -1.50991 0
M  V30 2978 C 292.118 0.388634 -2.25881 0
M  V30 2979 C 293.131 0.974041 -1.30446 0
M  V30 2980 O 294.32 0.865758 -1.56099 0
M  V30 2981 C 291.42 1.5571 -3.01011 0
M  V30 2982 C 290.593 1.08801 -4.23652 0
M  V30 2983 C 289.652 2.12825 -4.8124 0
M  V30 2984 O 288.678 1.71678 -5.42693 0
M  V30 2985 N 289.88 3.45453 -4.66522 0
M  V30 2986 H 292.645 -0.25329 -2.98628 0
M  V30 2987 H 290.206 -0.281268 -1.59438 0
M  V30 2988 H 292.198 2.24952 -3.3642 0
M  V30 2989 H 290.768 2.10409 -2.31186 0
M  V30 2990 H 289.988 0.22215 -3.93574 0
M  V30 2991 H 291.276 0.752213 -5.03209 0
M  V30 2992 H 290.674 3.81605 -4.17605 0
M  V30 2993 H 289.231 4.10549 -5.06254 0
M  V30 2994 N 292.664 1.56529 -0.183458 0
M  V30 2995 C 293.889 2.02064 0.467428 0
M  V30 2996 C 294.314 1.06282 1.55196 0
M  V30 2997 O 293.672 0.0443565 1.81246 0
M  V30 2998 C 293.72 3.46122 1.01153 0
M  V30 2999 O 292.824 3.53437 2.12499 0
M  V30 3000 H 292.165 0.654726 0.110588 0
M  V30 3001 H 294.695 2.02521 -0.290917 0
M  V30 3002 H 294.705 3.85676 1.33108 0
M  V30 3003 H 293.38 4.15331 0.217533 0
M  V30 3004 H 291.957 3.2575 1.81497 0
M  V30 3005 N 294.142 -0.090211 1.57342 0
M  V30 3006 C 295.072 -1.10976 2.05443 0
M  V30 3007 C 296.053 -1.41482 0.944284 0
M  V30 3008 O 297.238 -1.51428 1.21586 0
M  V30 3009 C 294.368 -2.42831 2.48295 0
M  V30 3010 C 293.322 -2.26721 3.63018 0
M  V30 3011 C 292.648 -3.63796 3.91863 0
M  V30 3012 C 293.948 -1.7037 4.93732 0
M  V30 3013 H 295.642 -0.709564 2.9087 0
M  V30 3014 H 293.188 -0.339874 1.39932 0
M  V30 3015 H 295.141 -3.14431 2.80555 0
M  V30 3016 H 293.865 -2.84795 1.59873 0
M  V30 3017 H 292.524 -1.57565 3.31012 0
M  V30 3018 H 292.172 -4.03297 3.00601 0
M  V30 3019 H 291.872 -3.53861 4.69101 0
M  V30 3020 H 293.396 -4.36855 4.26603 0
M  V30 3021 H 294.81 -2.31816 5.24342 0
M  V30 3022 H 293.207 -1.71181 5.75167 0
M  V30 3023 H 294.277 -0.663542 4.80339 0
M  V30 3024 N 295.62 -1.53406 -0.361157 0
M  V30 3025 C 296.897 -1.60411 -1.11927 0
M  V30 3026 C 297.277 -0.414385 -2.06993 0
M  V30 3027 O 296.625 0.594976 -2.20618 0
M  V30 3028 C 296.835 -2.95652 -1.85448 0
M  V30 3029 C 298.183 -3.50386 -2.39823 0
M  V30 3030 O 299.207 -2.97711 -1.95568 0
M  V30 3031 O 298.066 -4.42482 -3.20737 0
M  V30 3032 H 295.16 -0.64811 -0.513695 0
M  V30 3033 H 297.706 -1.65749 -0.364065 0
M  V30 3034 H 296.478 -3.73682 -1.16091 0
M  V30 3035 H 296.101 -2.93825 -2.67866 0
M  V30 3036 N 297.098 0.621204 -1.44841 0
M  V30 3037 C 298.344 1.3826 -1.48365 0
M  V30 3038 C 298.677 1.93831 -0.119624 0
M  V30 3039 O 297.952 1.74251 0.864111 0
M  V30 3040 C 298.235 2.54058 -2.55199 0
M  V30 3041 C 298.088 2.03772 -4.00995 0
M  V30 3042 C 299.407 3.56225 -2.58442 0
M  V30 3043 H 296.526 0.501374 -0.540179 0
M  V30 3044 H 299.168 0.7015 -1.76576 0
M  V30 3045 H 297.318 3.12162 -2.31274 0
M  V30 3046 H 298.99 1.50423 -4.36086 0
M  V30 3047 H 297.233 1.34876 -4.12299 0
M  V30 3048 H 297.904 2.87185 -4.71411 0
M  V30 3049 H 300.38 3.07939 -2.79844 0
M  V30 3050 H 299.256 4.34756 -3.3508 0
M  V30 3051 H 299.517 4.10949 -1.63013 0
M  V30 3052 N 298.576 1.31904 0.862503 0
M  V30 3053 C 299.987 1.19803 1.43193 0
M  V30 3054 C 300.338 -0.192567 1.95253 0
M  V30 3055 O 299.463 -1.09081 1.86896 0
M  V30 3056 C 300.058 2.16883 2.60283 0
M  V30 3057 C 298.617 2.08692 3.13248 0
M  V30 3058 C 297.764 2.05691 1.85975 0
M  V30 3059 H 300.715 1.43846 0.670365 0
M  V30 3060 H 300.736 1.76278 3.37204 0
M  V30 3061 H 300.248 3.18083 2.22363 0
M  V30 3062 H 298.349 1.10713 3.55771 0
M  V30 3063 H 298.462 2.9815 3.75025 0
M  V30 3064 H 296.826 1.50814 2.05249 0
M  V30 3065 H 297.609 3.08659 1.50282 0
M  V30 3066 N 300.054 -1.07777 1.14986 0
M  V30 3067 C 301.017 -2.13041 0.845358 0
M  V30 3068 C 302.017 -1.60071 -0.152931 0
M  V30 3069 O 303.207 -1.74033 0.0761879 0
M  V30 3070 C 300.339 -3.39896 0.261383 0
M  V30 3071 H 301.532 -2.41485 1.77834 0
M  V30 3072 H 299.085 -1.23595 0.956757 0
M  V30 3073 H 299.82 -3.17091 -0.68 0
M  V30 3074 H 299.605 -3.79642 0.980514 0
M  V30 3075 H 301.095 -4.17548 0.0657687 0
M  V30 3076 N 301.532 -0.945985 -1.26051 0
M  V30 3077 C 302.495 -0.463897 -2.24456 0
M  V30 3078 C 303.495 0.427655 -1.55009 0
M  V30 3079 O 304.685 0.226157 -1.72726 0
M  V30 3080 C 301.817 0.330812 -3.39291 0
M  V30 3081 H 303.01 -1.33357 -2.68619 0
M  V30 3082 H 300.563 -0.728416 -1.38289 0
M  V30 3083 H 301.298 1.21852 -3.00537 0
M  V30 3084 H 301.083 -0.308679 -3.90883 0
M  V30 3085 H 302.573 0.657865 -4.12386 0
M  V30 3086 N 303.011 1.40521 -0.713556 0
M  V30 3087 C 304.26 2.00155 -0.249192 0
M  V30 3088 C 304.573 1.57224 1.16362 0
M  V30 3089 O 305.779 2.09542 1.72639 0
M  V30 3090 C 304.235 3.5773 -0.3946 0
M  V30 3091 C 303.843 4.09635 -1.81392 0
M  V30 3092 C 305.587 4.24499 0.00907364 0
M  V30 3093 C 303.494 5.59707 -1.91003 0
M  V30 3094 H 302.424 0.74868 -0.0894114 0
M  V30 3095 H 305.075 1.60784 -0.884352 0
M  V30 3096 H 303.457 3.94792 0.30911 0
M  V30 3097 H 304.631 3.83955 -2.54785 0
M  V30 3098 H 302.946 3.55456 -2.16888 0
M  V30 3099 H 305.543 5.34683 -0.0420404 0
M  V30 3100 H 305.886 4.02824 1.05065 0
M  V30 3101 H 306.419 3.92536 -0.645007 0
M  V30 3102 H 303.158 5.86234 -2.93275 0
M  V30 3103 H 302.678 5.87258 -1.22019 0
M  V30 3104 H 304.357 6.24776 -1.6812 0
M  V30 3105 N 304.489 0.459591 1.5075 0
M  V30 3106 C 305.436 -0.340524 2.28274 0
M  V30 3107 C 306.406 -0.997371 1.32822 0
M  V30 3108 O 307.591 -1.01202 1.61749 0
M  V30 3109 C 304.731 -1.42317 3.14388 0
M  V30 3110 C 303.844 -0.782251 4.24859 0
M  V30 3111 C 302.979 -1.84182 4.98247 0
M  V30 3112 C 302.018 -1.18053 6.00608 0
M  V30 3113 N 301.155 -2.18244 6.67319 0
M  V30 3114 H 305.995 0.326899 2.96202 0
M  V30 3115 H 303.532 0.173057 1.46078 0
M  V30 3116 H 305.49 -2.06241 3.62658 0
M  V30 3117 H 304.12 -2.05992 2.4853 0
M  V30 3118 H 303.172 -0.0307404 3.80388 0
M  V30 3119 H 304.484 -0.259663 4.98124 0
M  V30 3120 H 303.638 -2.55714 5.50177 0
M  V30 3121 H 302.377 -2.39819 4.24662 0
M  V30 3122 H 301.382 -0.450776 5.47949 0
M  V30 3123 H 302.607 -0.631202 6.7616 0
M  V30 3124 H 300.553 -2.72919 5.96533 0
M  V30 3125 H 300.47 -1.70938 7.36421 0
M  V30 3126 H 301.738 -2.89191 7.23871 0
M  V30 3127 N 305.967 -1.56429 0.191757 0
M  V30 3128 C 307.383 -1.58754 -0.164137 0
M  V30 3129 C 307.583 -1.20782 -1.61288 0
M  V30 3130 O 306.639 -0.928999 -2.34789 0
M  V30 3131 C 307.952 -3.00396 0.135195 0
M  V30 3132 C 309.5 -3.1291 0.0750351 0
M  V30 3133 C 309.975 -4.56679 0.347632 0
M  V30 3134 N 311.466 -4.62252 0.296131 0
M  V30 3135 C 312.201 -5.71379 0.480948 0
M  V30 3136 N 311.697 -6.88986 0.725933 0
M  V30 3137 N 313.49 -5.60563 0.415435 0
M  V30 3138 H 305.641 -1.79393 1.13718 0
M  V30 3139 H 307.904 -0.832414 0.453643 0
M  V30 3140 H 307.61 -3.32726 1.13958 0
M  V30 3141 H 307.484 -3.72963 -0.563773 0
M  V30 3142 H 309.871 -2.80394 -0.919948 0
M  V30 3143 H 309.952 -2.42736 0.807029 0
M  V30 3144 H 309.596 -4.89907 1.33992 0
M  V30 3145 H 309.526 -5.25039 -0.405212 0
M  V30 3146 H 312.017 -3.7773 0.113259 0
M  V30 3147 H 312.33 -7.68046 0.855857 0
M  V30 3148 H 310.675 -6.90801 0.762788 0
M  V30 3149 H 313.866 -4.67561 0.224486 0
M  V30 3150 H 314.039 -6.45551 0.562889 0
M  V30 3151 N 307.445 0.0818655 -1.57387 0
M  V30 3152 C 308.67 0.799946 -1.91352 0
M  V30 3153 C 309.095 1.70833 -0.787258 0
M  V30 3154 O 308.453 1.79419 0.26048 0
M  V30 3155 C 308.501 1.57812 -3.24234 0
M  V30 3156 O 307.605 2.68806 -3.12757 0
M  V30 3157 H 306.946 0.21891 -0.626877 0
M  V30 3158 H 309.476 0.0531256 -2.04531 0
M  V30 3159 H 309.486 1.95952 -3.57864 0
M  V30 3160 H 308.161 0.911548 -4.05788 0
M  V30 3161 H 306.738 2.33597 -2.90666 0
M  V30 3162 N 308.923 1.53595 0.353017 0
M  V30 3163 C 309.855 1.77219 1.45348 0
M  V30 3164 C 310.868 0.65324 1.49119 0
M  V30 3165 O 312.057 0.929775 1.52373 0
M  V30 3166 C 309.157 1.84841 2.84055 0
M  V30 3167 C 308.33 3.14649 3.03833 0
M  V30 3168 C 307.389 3.13351 4.22727 0
M  V30 3169 O 306.415 3.87107 4.17297 0
M  V30 3170 N 307.617 2.35052 5.30783 0
M  V30 3171 H 310.382 2.72178 1.25457 0
M  V30 3172 H 307.943 1.52528 0.542833 0
M  V30 3173 H 309.935 1.81435 3.61751 0
M  V30 3174 H 308.505 0.971114 2.97133 0
M  V30 3175 H 307.725 3.31256 2.13689 0
M  V30 3176 H 309.013 4.00411 3.13925 0
M  V30 3177 H 308.411 1.74663 5.38061 0
M  V30 3178 H 306.968 2.37453 6.07009 0
M  V30 3179 N 310.401 -0.613514 1.45168 0
M  V30 3180 C 311.364 -1.7065 1.53007 0
M  V30 3181 C 312.364 -1.5548 0.410184 0
M  V30 3182 O 313.554 -1.60656 0.673455 0
M  V30 3183 C 310.686 -3.09875 1.42093 0
M  V30 3184 H 311.879 -1.65068 2.50385 0
M  V30 3185 H 309.432 -0.828728 1.32521 0
M  V30 3186 H 310.167 -3.21039 0.458769 0
M  V30 3187 H 309.952 -3.22293 2.23315 0
M  V30 3188 H 311.442 -3.895 1.50598 0
M  V30 3189 N 311.879 -1.3236 -0.855495 0
M  V30 3190 C 312.809 -1.23833 -1.97958 0
M  V30 3191 C 313.79 -0.122361 -1.69659 0
M  V30 3192 O 314.975 -0.30939 -1.9172 0
M  V30 3193 C 312.105 -0.959772 -3.33775 0
M  V30 3194 C 311.059 -2.03689 -3.76424 0
M  V30 3195 C 310.385 -1.61075 -5.09862 0
M  V30 3196 C 311.685 -3.4518 -3.9198 0
M  V30 3197 H 313.379 -2.1788 -2.0535 0
M  V30 3198 H 310.925 -1.04891 -0.986605 0
M  V30 3199 H 312.878 -0.886678 -4.11966 0
M  V30 3200 H 311.602 0.0163404 -3.26596 0
M  V30 3201 H 310.261 -2.10012 -3.00484 0
M  V30 3202 H 309.909 -0.622107 -4.99138 0
M  V30 3203 H 309.609 -2.33143 -5.39368 0
M  V30 3204 H 311.133 -1.55201 -5.90546 0
M  V30 3205 H 312.547 -3.4145 -4.60526 0
M  V30 3206 H 310.944 -4.1559 -4.32903 0
M  V30 3207 H 312.014 -3.84903 -2.94919 0
M  V30 3208 N 313.357 1.07166 -1.15556 0
M  V30 3209 C 314.289 2.14341 -0.811815 0
M  V30 3210 C 315.302 1.61835 0.177015 0
M  V30 3211 O 316.491 1.78439 -0.0464996 0
M  V30 3212 C 313.591 3.38387 -0.186481 0
M  V30 3213 C 312.764 4.20238 -1.21321 0
M  V30 3214 C 311.823 5.2266 -0.609302 0
M  V30 3215 O 310.849 5.54719 -1.27576 0
M  V30 3216 N 312.051 5.77306 0.608099 0
M  V30 3217 H 314.816 2.44431 -1.73417 0
M  V30 3218 H 312.377 1.23089 -1.0517 0
M  V30 3219 H 314.369 4.04044 0.230339 0
M  V30 3220 H 312.939 3.05994 0.639249 0
M  V30 3221 H 312.159 3.50369 -1.80652 0
M  V30 3222 H 313.447 4.71736 -1.90638 0
M  V30 3223 H 312.845 5.53513 1.1679 0
M  V30 3224 H 311.402 6.44583 0.96725 0
M  V30 3225 N 314.835 0.952656 1.25548 0
M  V30 3226 C 315.767 0.428609 2.25157 0
M  V30 3227 C 316.78 -0.454428 1.56329 0
M  V30 3228 O 317.969 -0.263023 1.76552 0
M  V30 3229 C 315.069 -0.401972 3.36508 0
M  V30 3230 C 314.242 0.467601 4.34893 0
M  V30 3231 C 313.301 -0.30445 5.25319 0
M  V30 3232 O 312.327 0.296473 5.68427 0
M  V30 3233 N 313.529 -1.59805 5.5807 0
M  V30 3234 H 316.294 1.28497 2.70756 0
M  V30 3235 H 313.855 0.822798 1.39433 0
M  V30 3236 H 315.847 -0.926134 3.9396 0
M  V30 3237 H 314.417 -1.15918 2.90313 0
M  V30 3238 H 313.637 1.17288 3.76347 0
M  V30 3239 H 314.925 1.06119 4.97611 0
M  V30 3240 H 314.323 -2.10823 5.24948 0
M  V30 3241 H 312.88 -2.06822 6.18116 0
M  V30 3242 N 316.313 -1.40141 0.720998 0
M  V30 3243 C 317.223 -2.34486 0.0731031 0
M  V30 3244 C 318.239 -1.57587 -0.737723 0
M  V30 3245 O 319.415 -1.89949 -0.669429 0
M  V30 3246 C 316.48 -3.36528 -0.833656 0
M  V30 3247 C 315.541 -4.29298 -0.0121673 0
M  V30 3248 C 314.774 -5.26466 -0.875742 0
M  V30 3249 O 314.997 -5.29745 -2.11485 0
M  V30 3250 O 313.931 -6.01092 -0.31185 0
M  V30 3251 H 317.757 -2.9152 0.851444 0
M  V30 3252 H 315.342 -1.41427 0.481527 0
M  V30 3253 H 317.224 -3.99093 -1.35289 0
M  V30 3254 H 315.899 -2.81899 -1.59105 0
M  V30 3255 H 314.806 -3.70001 0.552262 0
M  V30 3256 H 316.139 -4.87094 0.707129 0
M  V30 3257 N 317.792 -0.46758 -1.50504 0
M  V30 3258 C 319.04 0.0884469 -2.01906 0
M  V30 3259 C 319.361 1.40532 -1.35188 0
M  V30 3260 O 318.631 1.89515 -0.496079 0
M  V30 3261 H 317.211 0.0356765 -0.746148 0
M  V30 3262 H 319.873 -0.6172 -1.84869 0
M  V30 3263 H 318.969 0.2425 -3.11156 0
M  V30 3264 N 319.27 1.56325 -0.20005 0
M  V30 3265 C 320.516 1.98012 0.438059 0
M  V30 3266 C 320.849 1.08702 1.60927 0
M  V30 3267 O 320.124 0.140064 1.93995 0
M  V30 3268 C 320.407 3.48841 0.893419 0
M  V30 3269 C 320.26 4.48928 -0.279947 0
M  V30 3270 C 321.579 4.03498 1.75719 0
M  V30 3271 H 318.698 0.719918 0.157757 0
M  V30 3272 H 321.34 1.87743 -0.291968 0
M  V30 3273 H 319.49 3.57723 1.51547 0
M  V30 3274 H 321.162 4.52079 -0.91772 0
M  V30 3275 H 319.405 4.23694 -0.930919 0
M  V30 3276 H 320.076 5.5194 0.0812601 0
M  V30 3277 H 322.552 3.97427 1.23253 0
M  V30 3278 H 321.428 5.09393 2.04476 0
M  V30 3279 H 321.689 3.4906 2.71311 0
M  V30 3280 N 320.748 -0.0735177 1.57428 0
M  V30 3281 C 321.976 -0.785969 1.9139 0
M  V30 3282 C 322.391 -1.71207 0.795847 0
M  V30 3283 O 321.748 -1.81033 -0.230915 0
M  V30 3284 C 321.799 -1.58107 3.25091 0
M  V30 3285 O 321.52 -0.6922 4.32597 0
M  V30 3286 C 323.021 -2.39467 3.73055 0
M  V30 3287 H 320.241 -0.223558 0.632663 0
M  V30 3288 H 322.785 -0.044302 2.04452 0
M  V30 3289 H 320.94 -2.27503 3.13562 0
M  V30 3290 H 321.354 -1.24504 5.09508 0
M  V30 3291 H 322.828 -2.90716 4.69242 0
M  V30 3292 H 323.305 -3.18913 3.01979 0
M  V30 3293 H 323.911 -1.7523 3.87523 0
M  V30 3294 N 322.226 -1.5378 -0.344866 0
M  V30 3295 C 323.472 -1.72158 -1.0832 0
M  V30 3296 C 323.827 -0.478218 -1.86362 0
M  V30 3297 O 323.12 0.529152 -1.84148 0
M  V30 3298 C 323.314 -2.92407 -2.05506 0
M  V30 3299 C 323.143 -4.28318 -1.37017 0
M  V30 3300 C 321.913 -4.92832 -1.11558 0
M  V30 3301 C 324.111 -5.08086 -0.797071 0
M  V30 3302 N 322.093 -6.12619 -0.396358 0
M  V30 3303 C 323.464 -6.1965 -0.208336 0
M  V30 3304 C 325.519 -4.92986 -0.697787 0
M  V30 3305 C 324.222 -7.17763 0.470023 0
M  V30 3306 C 326.248 -5.91391 -0.033171 0
M  V30 3307 C 325.61 -7.02292 0.544599 0
M  V30 3308 H 321.709 -0.683017 -0.380805 0
M  V30 3309 H 324.293 -1.91211 -0.366961 0
M  V30 3310 H 322.464 -2.74857 -2.74423 0
M  V30 3311 H 324.196 -2.9951 -2.72169 0
M  V30 3312 H 320.951 -4.52362 -1.40234 0
M  V30 3313 H 321.375 -6.7698 -0.0515119 0
M  V30 3314 H 326.017 -4.07414 -1.13022 0
M  V30 3315 H 323.735 -8.0291 0.914351 0
M  V30 3316 H 327.321 -5.81784 0.0430009 0
M  V30 3317 H 326.201 -7.77129 1.05073 0
M  V30 3318 N 323.704 0.605807 -1.45491 0
M  V30 3319 C 324.953 1.36086 -1.48874 0
M  V30 3320 C 325.266 1.95131 -0.135333 0
M  V30 3321 O 326.472 2.7146 -0.0468144 0
M  V30 3322 C 324.928 2.46518 -2.62215 0
M  V30 3323 C 324.536 1.93877 -4.03876 0
M  V30 3324 C 326.28 3.23512 -2.74846 0
M  V30 3325 C 324.187 3.01801 -5.08596 0
M  V30 3326 H 323.117 0.511497 -0.553974 0
M  V30 3327 H 325.768 0.649089 -1.71636 0
M  V30 3328 H 324.15 3.20388 -2.32739 0
M  V30 3329 H 325.324 1.26704 -4.43038 0
M  V30 3330 H 323.639 1.29622 -3.95711 0
M  V30 3331 H 326.236 4.04013 -3.50253 0
M  V30 3332 H 326.579 3.74631 -1.81542 0
M  V30 3333 H 327.112 2.56742 -3.03856 0
M  V30 3334 H 323.851 2.55597 -6.03614 0
M  V30 3335 H 323.371 3.67535 -4.74002 0
M  V30 3336 H 325.05 3.66152 -5.33424 0
M  V30 3337 N 325.182 1.32811 0.848464 0
M  V30 3338 C 326.092 1.24278 1.98978 0
M  V30 3339 C 327.108 0.155176 1.73307 0
M  V30 3340 O 328.284 0.376999 1.9784 0
M  V30 3341 C 325.349 0.972444 3.32783 0
M  V30 3342 C 324.41 2.14911 3.71634 0
M  V30 3343 C 323.643 1.89157 4.99054 0
M  V30 3344 O 323.866 0.837165 5.64223 0
M  V30 3345 O 322.8 2.75433 5.35183 0
M  V30 3346 H 326.626 2.20238 2.09115 0
M  V30 3347 H 324.211 1.12762 0.980052 0
M  V30 3348 H 326.093 0.838432 4.12975 0
M  V30 3349 H 324.768 0.043051 3.23671 0
M  V30 3350 H 323.675 2.33862 2.91992 0
M  V30 3351 H 325.008 3.06151 3.85399 0
M  V30 3352 N 326.66 -1.06551 1.16123 0
M  V30 3353 C 327.57 -2.17484 0.879662 0
M  V30 3354 C 328.586 -1.73377 -0.147104 0
M  V30 3355 O 329.762 -2.01379 0.0289128 0
M  V30 3356 C 326.827 -3.44591 0.381829 0
M  V30 3357 C 325.888 -4.0322 1.4735 0
M  V30 3358 C 325.121 -5.24261 0.999324 0
M  V30 3359 O 325.344 -5.70198 -0.151957 0
M  V30 3360 O 324.278 -5.74775 1.78653 0
M  V30 3361 H 328.104 -2.44075 1.80724 0
M  V30 3362 H 325.689 -1.16042 0.940992 0
M  V30 3363 H 327.571 -4.21254 0.111053 0
M  V30 3364 H 326.246 -3.19532 -0.51777 0
M  V30 3365 H 325.153 -3.2806 1.79798 0
M  V30 3366 H 326.486 -4.32568 2.34831 0
M  V30 3367 N 328.138 -0.959301 -1.25041 0
M  V30 3368 C 329.549 -0.65667 -1.74771 0
M  V30 3369 C 329.9 0.827852 -1.77879 0
M  V30 3370 O 329.025 1.64783 -1.40269 0
M  V30 3371 C 329.62 -1.1853 -3.1739 0
M  V30 3372 C 328.179 -0.932734 -3.6466 0
M  V30 3373 C 327.326 -1.32558 -2.43564 0
M  V30 3374 H 330.277 -1.13558 -1.10862 0
M  V30 3375 H 330.298 -0.547582 -3.76539 0
M  V30 3376 H 329.81 -2.26576 -3.15095 0
M  V30 3377 H 327.911 0.13257 -3.72364 0
M  V30 3378 H 328.024 -1.57248 -4.52559 0
M  V30 3379 H 326.388 -0.743956 -2.43593 0
M  V30 3380 H 327.171 -2.41537 -2.43957 0
M  V30 3381 N 329.616 1.39756 -0.72842 0
M  V30 3382 C 330.844 2.04948 -0.283528 0
M  V30 3383 C 331.259 1.54908 1.0793 0
M  V30 3384 O 330.616 0.711135 1.68075 0
M  V30 3385 C 330.667 3.60498 -0.268957 0
M  V30 3386 O 330.388 4.08695 -1.57798 0
M  V30 3387 C 331.889 4.4288 0.192912 0
M  V30 3388 H 329.109 0.659243 -0.125056 0
M  V30 3389 H 331.653 1.78927 -0.990226 0
M  V30 3390 H 329.808 3.85444 0.388801 0
M  V30 3391 H 330.222 5.02977 -1.48709 0
M  V30 3392 H 331.696 5.51791 0.151952 0
M  V30 3393 H 332.173 4.21418 1.23708 0
M  V30 3394 H 332.779 4.23069 -0.435039 0
M  V30 3395 N 331.094 0.475555 1.50254 0
M  V30 3396 C 332.024 -0.30611 2.31485 0
M  V30 3397 C 333.005 -0.986228 1.38591 0
M  V30 3398 O 334.19 -0.982541 1.67511 0
M  V30 3399 C 331.32 -1.38588 3.1845 0
M  V30 3400 C 330.274 -0.827115 4.19932 0
M  V30 3401 C 329.6 -2.00551 4.95665 0
M  V30 3402 C 330.9 0.16463 5.2204 0
M  V30 3403 H 332.594 0.371866 2.97082 0
M  V30 3404 H 330.14 0.180282 1.42867 0
M  V30 3405 H 332.093 -1.94023 3.74076 0
M  V30 3406 H 330.817 -2.09269 2.50747 0
M  V30 3407 H 329.476 -0.294702 3.65414 0
M  V30 3408 H 329.124 -2.6994 4.2443 0
M  V30 3409 H 328.824 -1.63784 5.64313 0
M  V30 3410 H 330.348 -2.56468 5.54127 0
M  V30 3411 H 331.762 -0.300699 5.72511 0
M  V30 3412 H 330.159 0.446813 5.98434 0
M  V30 3413 H 331.229 1.08905 4.72512 0
M  V30 3414 N 332.573 -1.56217 0.208337 0
M  V30 3415 C 333.505 -2.1695 -0.739276 0
M  V30 3416 C 334.518 -1.13492 -1.1672 0
M  V30 3417 O 335.707 -1.40529 -1.10063 0
M  V30 3418 C 332.807 -2.72755 -2.01142 0
M  V30 3419 C 331.98 -4.0125 -1.74118 0
M  V30 3420 C 331.039 -4.41749 -2.85909 0
M  V30 3421 O 330.065 -5.08912 -2.54946 0
M  V30 3422 N 331.267 -4.06342 -4.14568 0
M  V30 3423 H 334.032 -2.98893 -0.219837 0
M  V30 3424 H 331.593 -1.61878 0.0268445 0
M  V30 3425 H 333.585 -2.96826 -2.75094 0
M  V30 3426 H 332.155 -1.95191 -2.4417 0
M  V30 3427 H 331.375 -3.85173 -0.838775 0
M  V30 3428 H 332.663 -4.851 -1.53477 0
M  V30 3429 H 332.061 -3.52345 -4.42571 0
M  V30 3430 H 330.618 -4.35335 -4.85105 0
M  V30 3431 N 334.051 0.0651679 -1.57465 0
M  V30 3432 C 335.001 1.0838 -2.00594 0
M  V30 3433 C 335.985 1.34106 -0.889071 0
M  V30 3434 O 337.177 1.34295 -1.15299 0
M  V30 3435 C 334.306 2.39565 -2.45894 0
M  V30 3436 C 333.392 2.17085 -3.64328 0
M  V30 3437 N 333.783 1.64553 -4.78285 0
M  V30 3438 C 332.081 2.4753 -3.71006 0
M  V30 3439 C 332.782 1.57042 -5.60101 0
M  V30 3440 N 331.758 2.03328 -5.04141 0
M  V30 3441 H 335.56 0.671062 -2.86136 0
M  V30 3442 H 333.074 0.27213 -1.60104 0
M  V30 3443 H 335.071 3.13308 -2.75034 0
M  V30 3444 H 333.731 2.81549 -1.61741 0
M  V30 3445 H 334.742 1.33323 -5.00445 0
M  V30 3446 H 331.419 2.92835 -2.9758 0
M  V30 3447 H 332.809 1.17223 -6.61595 0
M  V30 3448 N 335.529 1.53961 0.336706 0
M  V30 3449 C 336.806 1.62171 1.09361 0
M  V30 3450 C 337.186 0.447263 2.06307 0
M  V30 3451 O 336.534 -0.559802 2.21537 0
M  V30 3452 C 336.744 2.98565 1.80721 0
M  V30 3453 C 338.092 3.54157 2.34218 0
M  V30 3454 O 339.116 3.00784 1.90807 0
M  V30 3455 O 337.975 4.47528 3.13657 0
M  V30 3456 H 335.069 0.6562 0.503319 0
M  V30 3457 H 337.615 1.66307 0.33765 0
M  V30 3458 H 336.387 3.75482 1.10132 0
M  V30 3459 H 336.01 2.9805 2.63158 0
M  V30 3460 N 337.007 -0.598083 1.45811 0
M  V30 3461 C 338.237 -1.38121 1.53643 0
M  V30 3462 C 338.645 -1.88425 0.171081 0
M  V30 3463 O 337.988 -1.63409 -0.839237 0
M  V30 3464 C 338.05 -2.61432 2.46766 0
M  V30 3465 C 337.714 -2.32702 3.93318 0
M  V30 3466 C 338.711 -1.92479 4.82957 0
M  V30 3467 C 336.396 -2.45321 4.38318 0
M  V30 3468 C 338.39 -1.65248 6.15607 0
M  V30 3469 C 336.077 -2.17703 5.71007 0
M  V30 3470 C 337.075 -1.7773 6.5947 0
M  V30 3471 O 336.763 -1.50441 7.89698 0
M  V30 3472 H 336.495 -0.428863 0.522544 0
M  V30 3473 H 339.049 -0.73557 1.91777 0
M  V30 3474 H 337.279 -3.28749 2.0362 0
M  V30 3475 H 338.968 -3.23487 2.45175 0
M  V30 3476 H 339.734 -1.82258 4.49452 0
M  V30 3477 H 335.613 -2.75399 3.69697 0
M  V30 3478 H 339.157 -1.33973 6.84614 0
M  V30 3479 H 335.054 -2.27544 6.04065 0
M  V30 3480 H 335.822 -1.64415 8.01817 0
M  V30 3481 N 338.485 -1.33259 -0.841409 0
M  V30 3482 C 339.395 -1.25332 -1.98316 0
M  V30 3483 C 340.411 -0.164364 -1.73222 0
M  V30 3484 O 341.587 -0.387486 -1.97637 0
M  V30 3485 C 338.652 -0.990078 -3.32262 0
M  V30 3486 C 337.713 -2.16879 -3.70489 0
M  V30 3487 C 336.946 -1.91801 -4.98044 0
M  V30 3488 O 337.169 -0.867075 -5.63771 0
M  V30 3489 O 336.103 -2.78267 -5.33714 0
M  V30 3490 H 339.929 -2.21344 -2.07944 0
M  V30 3491 H 337.514 -1.1328 -0.974058 0
M  V30 3492 H 339.396 -0.860321 -4.12524 0
M  V30 3493 H 338.071 -0.0602155 -3.23644 0
M  V30 3494 H 336.978 -2.35407 -2.90748 0
M  V30 3495 H 338.311 -3.0819 -3.8377 0
M  V30 3496 N 339.963 1.05934 -1.16686 0
M  V30 3497 C 341.211 1.78447 -0.948744 0
M  V30 3498 C 341.532 1.87813 0.524523 0
M  V30 3499 O 340.802 1.38945 1.38098 0
M  V30 3500 H 339.382 0.660971 -0.348033 0
M  V30 3501 H 342.044 1.27947 -1.47022 0
M  V30 3502 H 341.14 2.80394 -1.37061 0
M  V30 3503 N 341.441 0.965919 1.2453 0
M  V30 3504 C 342.391 0.465731 2.23193 0
M  V30 3505 C 343.375 -0.451277 1.54442 0
M  V30 3506 O 344.567 -0.282489 1.74731 0
M  V30 3507 C 341.696 -0.244511 3.42428 0
M  V30 3508 C 340.782 0.691222 4.18429 0
M  V30 3509 N 341.173 1.82771 4.71623 0
M  V30 3510 C 339.471 0.501649 4.4317 0
M  V30 3511 C 340.172 2.41285 5.29298 0
M  V30 3512 N 339.148 1.69819 5.16394 0
M  V30 3513 H 342.95 1.33291 2.61937 0
M  V30 3514 H 340.464 0.824789 1.39896 0
M  V30 3515 H 342.461 -0.620056 4.12263 0
M  V30 3516 H 341.121 -1.10815 3.05205 0
M  V30 3517 H 342.132 2.20929 4.68413 0
M  V30 3518 H 338.809 -0.318177 4.16286 0
M  V30 3519 H 340.199 3.37181 5.8117 0
M  V30 3520 N 342.919 -1.39368 0.735821 0
M  V30 3521 C 343.851 -2.2913 0.0567723 0
M  V30 3522 C 344.864 -1.46859 -0.702589 0
M  V30 3523 O 346.053 -1.69925 -0.546616 0
M  V30 3524 C 343.153 -3.25492 -0.943823 0
M  V30 3525 C 342.326 -4.36709 -0.24581 0
M  V30 3526 C 341.385 -5.13376 -1.15463 0
M  V30 3527 O 340.411 -5.65683 -0.631803 0
M  V30 3528 N 341.613 -5.24656 -2.48427 0
M  V30 3529 H 344.378 -2.88047 0.827582 0
M  V30 3530 H 341.939 -1.50957 0.585112 0
M  V30 3531 H 343.931 -3.73657 -1.55443 0
M  V30 3532 H 342.501 -2.676 -1.61583 0
M  V30 3533 H 341.721 -3.9041 0.545286 0
M  V30 3534 H 343.009 -5.08244 0.237891 0
M  V30 3535 H 342.407 -4.83679 -2.93379 0
M  V30 3536 H 340.964 -5.76258 -3.04582 0
M  V30 3537 N 344.397 -0.483516 -1.5 0
M  V30 3538 C 345.813 -0.138404 -1.58999 0
M  V30 3539 C 346.013 1.35597 -1.4905 0
M  V30 3540 O 345.069 2.13039 -1.35539 0
M  V30 3541 C 346.382 -0.699658 -2.92447 0
M  V30 3542 C 347.93 -0.664195 -3.05872 0
M  V30 3543 C 348.405 -1.20321 -4.41913 0
M  V30 3544 N 349.896 -1.16315 -4.48358 0
M  V30 3545 C 350.631 -1.55058 -5.52037 0
M  V30 3546 N 350.127 -2.01311 -6.62907 0
M  V30 3547 N 351.92 -1.46584 -5.42651 0
M  V30 3548 H 344.071 -1.45529 -1.5471 0
M  V30 3549 H 346.334 -0.60258 -0.731848 0
M  V30 3550 H 346.04 -1.747 -3.05242 0
M  V30 3551 H 345.914 -0.150194 -3.76901 0
M  V30 3552 H 348.301 0.374272 -2.92717 0
M  V30 3553 H 348.382 -1.25061 -2.23144 0
M  V30 3554 H 348.026 -2.24037 -4.55818 0
M  V30 3555 H 347.956 -0.592896 -5.23252 0
M  V30 3556 H 350.447 -0.824058 -3.68806 0
M  V30 3557 H 350.76 -2.2899 -7.38095 0
M  V30 3558 H 349.105 -2.05273 -6.63994 0
M  V30 3559 H 352.296 -1.10281 -4.54924 0
M  V30 3560 H 352.469 -1.77103 -6.23329 0
M  V30 3561 N 345.875 1.56104 -0.216619 0
M  V30 3562 C 347.124 1.97348 0.416744 0
M  V30 3563 C 347.437 1.10715 1.6125 0
M  V30 3564 O 348.643 1.41836 2.31506 0
M  V30 3565 C 347.099 3.51059 0.792835 0
M  V30 3566 C 346.707 4.46387 -0.379828 0
M  V30 3567 C 348.451 4.01026 1.39208 0
M  V30 3568 C 346.358 5.91397 0.0184223 0
M  V30 3569 H 345.288 0.736942 0.159475 0
M  V30 3570 H 347.939 1.80827 -0.31205 0
M  V30 3571 H 346.321 3.63162 1.57891 0
M  V30 3572 H 347.495 4.46029 -1.15737 0
M  V30 3573 H 345.81 4.06734 -0.891979 0
M  V30 3574 H 348.407 5.0686 1.70286 0
M  V30 3575 H 348.75 3.46587 2.30614 0
M  V30 3576 H 349.283 3.92125 0.669537 0
M  V30 3577 H 346.022 6.49807 -0.862002 0
M  V30 3578 H 345.542 5.94961 0.760384 0
M  V30 3579 H 347.221 6.45455 0.446818 0
M  V30 3580 N 347.353 -0.0568162 1.57498 0
M  V30 3581 C 348.285 -1.09292 2.01464 0
M  V30 3582 C 349.298 -1.34112 0.922913 0
M  V30 3583 O 350.487 -1.32089 1.20062 0
M  V30 3584 C 347.587 -2.44068 2.35125 0
M  V30 3585 C 346.76 -2.38995 3.66333 0
M  V30 3586 C 345.819 -3.55997 3.87495 0
M  V30 3587 O 344.845 -3.36746 4.58901 0
M  V30 3588 N 346.047 -4.76888 3.30996 0
M  V30 3589 H 348.812 -0.718386 2.90963 0
M  V30 3590 H 346.373 -0.245235 1.60032 0
M  V30 3591 H 348.365 -3.21011 2.46443 0
M  V30 3592 H 346.935 -2.73468 1.5144 0
M  V30 3593 H 346.155 -1.47336 3.65631 0
M  V30 3594 H 347.443 -2.3272 4.52458 0
M  V30 3595 H 346.841 -4.95431 2.73065 0
M  V30 3596 H 345.398 -5.51291 3.47738 0
M  V30 3597 N 348.832 -1.54138 -0.328536 0
M  V30 3598 C 350.057 -1.76378 -1.09112 0
M  V30 3599 C 350.482 -0.508596 -1.81094 0
M  V30 3600 O 349.84 0.539598 -1.73084 0
M  V30 3601 C 349.888 -2.95358 -2.06872 0
M  V30 3602 O 348.992 -2.66556 -3.14677 0
M  V30 3603 H 348.333 -0.584614 -0.314838 0
M  V30 3604 H 350.863 -2.01146 -0.374348 0
M  V30 3605 H 350.873 -3.22566 -2.4983 0
M  V30 3606 H 349.548 -3.86385 -1.5388 0
M  V30 3607 H 348.125 -2.50282 -2.7643 0
M  V30 3608 N 350.31 0.590341 -1.46126 0
M  V30 3609 C 351.257 1.69994 -1.56111 0
M  V30 3610 C 352.227 1.61065 -0.405867 0
M  V30 3611 O 353.412 1.8039 -0.621613 0
M  V30 3612 C 350.552 3.08326 -1.55013 0
M  V30 3613 C 349.665 3.27936 -2.81215 0
M  V30 3614 C 348.8 4.56473 -2.71673 0
M  V30 3615 C 347.839 4.694 -3.92849 0
M  V30 3616 N 346.976 5.89254 -3.81738 0
M  V30 3617 H 351.816 1.60797 -2.50895 0
M  V30 3618 H 349.353 0.783799 -1.24479 0
M  V30 3619 H 351.311 3.88383 -1.52362 0
M  V30 3620 H 349.941 3.16439 -0.637667 0
M  V30 3621 H 348.993 2.41536 -2.93879 0
M  V30 3622 H 350.305 3.33357 -3.71045 0
M  V30 3623 H 349.459 5.44748 -2.67085 0
M  V30 3624 H 348.198 4.53477 -1.7947 0
M  V30 3625 H 347.203 3.79544 -3.97777 0
M  V30 3626 H 348.428 4.7418 -4.86138 0
M  V30 3627 H 346.374 5.87271 -2.92317 0
M  V30 3628 H 346.291 5.95911 -4.65217 0
M  V30 3629 H 347.559 6.79981 -3.81112 0
M  V30 3630 N 351.788 1.33704 0.83433 0
M  V30 3631 C 352.718 1.26967 1.95963 0
M  V30 3632 C 353.699 0.149337 1.69443 0
M  V30 3633 O 354.884 0.339852 1.91203 0
M  V30 3634 C 352.014 1.01275 3.32206 0
M  V30 3635 C 350.968 2.09652 3.73136 0
M  V30 3636 C 350.294 1.69166 5.07235 0
M  V30 3637 C 351.594 3.51372 3.86439 0
M  V30 3638 H 353.288 2.2112 2.01857 0
M  V30 3639 H 350.834 1.06447 0.969793 0
M  V30 3640 H 352.787 0.952106 4.10503 0
M  V30 3641 H 351.511 0.0356203 3.26581 0
M  V30 3642 H 350.17 2.14766 2.97104 0
M  V30 3643 H 349.818 0.701437 4.98085 0
M  V30 3644 H 349.518 2.41694 5.35591 0
M  V30 3645 H 351.042 1.64576 5.88003 0
M  V30 3646 H 352.456 3.48734 4.55036 0
M  V30 3647 H 350.853 4.22425 4.26236 0
M  V30 3648 H 351.923 3.89546 2.88759 0
M  V30 3649 N 353.266 -1.05314 1.17247 0
M  V30 3650 C 354.214 -2.15137 0.884238 0
M  V30 3651 C 355.208 -1.68729 -0.15063 0
M  V30 3652 O 356.414 -1.8 -0.00366673 0
M  V30 3653 H 352.789 -0.702471 0.2684 0
M  V30 3654 H 354.76 -2.36652 1.81764 0
M  V30 3655 C 353.509 -3.45243 0.412659 0
M  V30 3656 H 352.832 -3.81352 1.20043 0
M  V30 3657 H 354.272 -4.23263 0.249858 0
M  V30 3658 C 352.731 -3.25487 -0.86948 0
M  V30 3659 O 353.261 -3.51938 -1.93655 0
M  V30 3660 N 351.467 -2.78875 -0.817147 0
M  V30 3661 H 351.014 -2.57549 0.0514211 0
M  V30 3662 H 350.972 -2.66036 -1.67547 0
M  V30 3663 N 354.744 -0.972509 -1.24016 0
M  V30 3664 C 355.99 -0.637978 -1.92504 0
M  V30 3665 C 356.323 0.825383 -1.75787 0
M  V30 3666 O 355.598 1.59442 -1.11393 0
M  V30 3667 C 355.881 -1.01942 -3.45369 0
M  V30 3668 C 355.734 -2.53983 -3.71231 0
M  V30 3669 C 357.053 -0.55751 -4.36555 0
M  V30 3670 H 354.172 -0.233248 -0.699117 0
M  V30 3671 H 356.814 -1.21238 -1.46292 0
M  V30 3672 H 354.964 -0.530656 -3.84859 0
M  V30 3673 H 356.636 -3.10374 -3.41271 0
M  V30 3674 H 354.879 -2.96968 -3.16216 0
M  V30 3675 H 355.55 -2.75723 -4.78206 0
M  V30 3676 H 358.026 -0.977029 -4.04467 0
M  V30 3677 H 356.902 -0.85292 -5.42233 0
M  V30 3678 H 357.163 0.542328 -4.38761 0
M  V30 3679 N 356.222 1.38976 -0.743202 0
M  V30 3680 C 357.633 1.83123 -0.363732 0
M  V30 3681 C 357.984 1.6205 1.10609 0
M  V30 3682 O 357.109 1.11606 1.854 0
M  V30 3683 C 357.704 3.32439 -0.653408 0
M  V30 3684 C 356.263 3.74974 -0.327338 0
M  V30 3685 C 355.41 2.61878 -0.911875 0
M  V30 3686 H 358.361 1.27852 -0.940191 0
M  V30 3687 H 358.382 3.80432 0.0720031 0
M  V30 3688 H 357.894 3.47745 -1.72323 0
M  V30 3689 H 355.995 3.65252 0.736314 0
M  V30 3690 H 356.108 4.72106 -0.815631 0
M  V30 3691 H 354.472 2.52448 -0.337944 0
M  V30 3692 H 355.255 2.79987 -1.98651 0
M  V30 3693 N 357.7 0.491464 1.49741 0
M  V30 3694 C 358.946 -0.0565092 2.02721 0
M  V30 3695 C 359.279 -1.37522 1.37118 0
M  V30 3696 O 358.554 -1.87866 0.503645 0
M  V30 3697 C 358.837 -0.219051 3.59433 0
M  V30 3698 C 358.69 1.12211 4.35579 0
M  V30 3699 C 360.009 -0.964157 4.29409 0
M  V30 3700 H 357.128 -0.0190627 0.736753 0
M  V30 3701 H 359.77 0.641021 1.7886 0
M  V30 3702 H 357.92 -0.813165 3.79895 0
M  V30 3703 H 359.592 1.75437 4.26637 0
M  V30 3704 H 357.835 1.71377 3.98513 0
M  V30 3705 H 358.506 0.961794 5.43556 0
M  V30 3706 H 360.982 -0.460378 4.13545 0
M  V30 3707 H 359.858 -1.04671 5.38828 0
M  V30 3708 H 360.119 -2.00563 3.93988 0
M  V30 3709 N 359.178 -1.55987 0.224894 0
M  V30 3710 C 360.11 -2.17722 -0.716224 0
M  V30 3711 C 361.123 -1.14723 -1.15509 0
M  V30 3712 O 362.312 -1.41688 -1.08567 0
M  V30 3713 C 359.412 -2.74873 -1.98238 0
M  V30 3714 C 358.585 -4.03074 -1.69853 0
M  V30 3715 C 357.644 -4.44757 -2.81208 0
M  V30 3716 O 356.67 -5.11587 -2.49534 0
M  V30 3717 N 357.872 -4.10716 -4.10235 0
M  V30 3718 H 360.637 -2.99109 -0.188123 0
M  V30 3719 H 358.198 -1.6184 0.0440123 0
M  V30 3720 H 360.19 -2.99727 -2.7193 0
M  V30 3721 H 358.76 -1.9777 -2.42086 0
M  V30 3722 H 357.98 -3.86041 -0.797875 0
M  V30 3723 H 359.268 -4.86701 -1.48324 0
M  V30 3724 H 358.666 -3.57019 -4.38809 0
M  V30 3725 H 357.223 -4.40455 -4.80461 0
M  V30 3726 N 360.656 0.0484629 -1.57525 0
M  V30 3727 C 361.589 1.08755 -2.00618 0
M  V30 3728 C 362.567 1.36272 -0.887058 0
M  V30 3729 O 363.751 1.49255 -1.15131 0
M  V30 3730 C 360.878 2.42675 -2.36277 0
M  V30 3731 C 359.924 2.31142 -3.58435 0
M  V30 3732 S 360.757 1.68326 -5.08357 0
M  V30 3733 C 361.913 3.03776 -5.47239 0
M  V30 3734 H 362.146 0.720415 -2.88439 0
M  V30 3735 H 359.679 0.257801 -1.52233 0
M  V30 3736 H 361.637 3.19699 -2.57494 0
M  V30 3737 H 360.298 2.76541 -1.48942 0
M  V30 3738 H 359.491 3.29957 -3.80978 0
M  V30 3739 H 359.093 1.62258 -3.36969 0
M  V30 3740 H 361.385 4.00106 -5.46737 0
M  V30 3741 H 362.328 2.85988 -6.47778 0
M  V30 3742 H 362.736 3.05456 -4.74718 0
M  V30 3743 N 362.134 1.5431 0.320358 0
M  V30 3744 C 363.382 1.72327 1.05583 0
M  V30 3745 C 363.703 0.50149 1.88441 0
M  V30 3746 O 362.973 -0.48448 1.89815 0
M  V30 3747 H 361.553 0.635387 0.3928 0
M  V30 3748 H 364.215 1.91621 0.356019 0
M  V30 3749 H 363.311 2.60426 1.72003 0
M  V30 3750 N 363.613 -0.582584 1.46437 0
M  V30 3751 C 364.523 -1.71949 1.59595 0
M  V30 3752 C 365.539 -1.67264 0.479443 0
M  V30 3753 O 366.715 -1.87171 0.743579 0
M  V30 3754 C 363.78 -3.08452 1.58298 0
M  V30 3755 C 362.841 -3.244 2.81182 0
M  V30 3756 C 362.074 -4.54391 2.79937 0
M  V30 3757 O 362.297 -5.38287 1.8869 0
M  V30 3758 O 361.231 -4.73588 3.71481 0
M  V30 3759 H 365.057 -1.63795 2.55744 0
M  V30 3760 H 362.642 -0.749643 1.29231 0
M  V30 3761 H 364.524 -3.89732 1.60271 0
M  V30 3762 H 363.199 -3.17043 0.653094 0
M  V30 3763 H 362.106 -2.42613 2.84763 0
M  V30 3764 H 363.439 -3.20699 3.7338 0
M  V30 3765 N 365.091 -1.34144 -0.827227 0
M  V30 3766 C 366.039 -1.25364 -1.95925 0
M  V30 3767 C 367.033 -0.152608 -1.68711 0
M  V30 3768 O 368.239 -0.317311 -1.77181 0
M  V30 3769 H 364.614 -0.389342 -0.643364 0
M  V30 3770 H 366.585 -2.21045 -2.00454 0
M  V30 3771 C 365.334 -1.02158 -3.32354 0
M  V30 3772 H 364.657 -1.86111 -3.5384 0
M  V30 3773 H 366.097 -1.00048 -4.12027 0
M  V30 3774 C 364.556 0.275244 -3.35774 0
M  V30 3775 O 365.086 1.27806 -3.80826 0
M  V30 3776 N 363.292 0.306853 -2.88975 0
M  V30 3777 H 362.839 -0.509777 -2.52506 0
M  V30 3778 H 362.797 1.17432 -2.91646 0
M  V30 3779 N 366.569 1.04691 -1.17803 0
M  V30 3780 C 367.815 1.78181 -0.980977 0
M  V30 3781 C 368.17 1.86191 0.484825 0
M  V30 3782 O 367.463 1.35436 1.35527 0
M  V30 3783 C 367.657 3.21467 -1.56186 0
M  V30 3784 C 367.486 3.27422 -3.08261 0
M  V30 3785 C 366.256 3.36415 -3.77032 0
M  V30 3786 C 368.454 3.15947 -4.0581 0
M  V30 3787 N 366.436 3.31554 -5.16667 0
M  V30 3788 C 367.807 3.18514 -5.31929 0
M  V30 3789 C 369.862 2.99945 -3.97413 0
M  V30 3790 C 368.565 3.06723 -6.50625 0
M  V30 3791 C 370.591 2.89497 -5.15699 0
M  V30 3792 C 369.953 2.92702 -6.40706 0
M  V30 3793 H 366.052 0.6641 -0.412911 0
M  V30 3794 H 368.636 1.24762 -1.49474 0
M  V30 3795 H 366.807 3.73245 -1.07436 0
M  V30 3796 H 368.539 3.8322 -1.30093 0
M  V30 3797 H 365.294 3.41887 -3.27735 0
M  V30 3798 H 365.718 3.3258 -5.89678 0
M  V30 3799 H 370.36 2.96302 -3.01604 0
M  V30 3800 H 368.078 3.0912 -7.46639 0
M  V30 3801 H 371.664 2.78179 -5.10987 0
M  V30 3802 H 370.544 2.84697 -7.30696 0
M  V30 3803 N 368.047 0.979072 1.23499 0
M  V30 3804 C 368.977 0.537606 2.27227 0
M  V30 3805 C 369.958 -0.428539 1.64613 0
M  V30 3806 O 371.143 -0.322191 1.91509 0
M  V30 3807 C 368.273 -0.162052 3.46922 0
M  V30 3808 C 367.227 0.721242 4.21879 0
M  V30 3809 C 366.553 -0.110555 5.34586 0
M  V30 3810 C 367.853 2.01141 4.82016 0
M  V30 3811 H 369.547 1.40462 2.64406 0
M  V30 3812 H 367.093 0.67684 1.27102 0
M  V30 3813 H 369.046 -0.482192 4.18632 0
M  V30 3814 H 367.77 -1.06351 3.08799 0
M  V30 3815 H 366.429 1.02482 3.51984 0
M  V30 3816 H 366.077 -1.0125 4.92704 0
M  V30 3817 H 365.777 0.477325 5.85658 0
M  V30 3818 H 367.301 -0.425107 6.09118 0
M  V30 3819 H 368.715 1.75612 5.45741 0
M  V30 3820 H 367.112 2.54695 5.43369 0
M  V30 3821 H 368.182 2.69909 4.02836 0
M  V30 3822 N 369.525 -1.3858 0.750561 0
M  V30 3823 C 370.773 -1.99789 0.30477 0
M  V30 3824 C 371.094 -1.59874 -1.11649 0
M  V30 3825 O 370.364 -0.85417 -1.76297 0
M  V30 3826 H 368.944 -0.738902 0.109694 0
M  V30 3827 H 371.606 -1.69391 0.963983 0
M  V30 3828 H 370.702 -3.09952 0.365499 0
M  V30 3829 N 371.003 -0.499398 -1.49478 0
M  V30 3830 C 372.414 -0.051215 -1.8663 0
M  V30 3831 C 372.765 1.36238 -1.41186 0
M  V30 3832 O 371.89 2.01502 -0.789051 0
M  V30 3833 C 372.485 -0.0861651 -3.3869 0
M  V30 3834 C 371.044 0.30667 -3.75149 0
M  V30 3835 C 370.191 -0.459397 -2.73468 0
M  V30 3836 H 373.142 -0.712264 -1.41818 0
M  V30 3837 H 373.163 0.709507 -3.73826 0
M  V30 3838 H 372.675 -1.11512 -3.71735 0
M  V30 3839 H 370.776 1.33892 -3.47712 0
M  V30 3840 H 370.889 -0.0116669 -4.79099 0
M  V30 3841 H 369.253 0.0905645 -2.54539 0
M  V30 3842 H 370.036 -1.4884 -3.09357 0
M  V30 3843 N 372.481 1.55866 -0.233164 0
M  V30 3844 C 373.391 2.24431 0.683217 0
M  V30 3845 C 374.407 1.2558 1.2044 0
M  V30 3846 O 375.583 1.58422 1.24356 0
M  V30 3847 C 372.648 2.91979 1.86947 0
M  V30 3848 C 371.709 4.06204 1.38912 0
M  V30 3849 C 370.942 4.70522 2.51883 0
M  V30 3850 O 371.165 4.33865 3.70293 0
M  V30 3851 O 370.099 5.59296 2.22423 0
M  V30 3852 H 373.925 3.03426 0.129059 0
M  V30 3853 H 371.51 1.494 -0.0022283 0
M  V30 3854 H 373.392 3.34573 2.56201 0
M  V30 3855 H 372.067 2.15935 2.41151 0
M  V30 3856 H 370.974 3.68155 0.664259 0
M  V30 3857 H 372.307 4.84025 0.893328 0
M  V30 3858 N 373.959 -0.0401083 1.57549 0
M  V30 3859 C 374.869 -1.06133 2.0922 0
M  V30 3860 C 375.885 -1.40356 1.0284 0
M  V30 3861 O 377.061 -1.49897 1.34509 0
M  V30 3862 C 374.126 -2.34658 2.55218 0
M  V30 3863 C 373.187 -2.07117 3.76033 0
M  V30 3864 C 372.42 -3.29514 4.19829 0
M  V30 3865 O 372.643 -4.39794 3.63232 0
M  V30 3866 O 371.577 -3.15863 5.12362 0
M  V30 3867 H 375.403 -0.652244 2.96613 0
M  V30 3868 H 372.988 -0.256368 1.47184 0
M  V30 3869 H 374.87 -3.10239 2.85184 0
M  V30 3870 H 373.545 -2.74883 1.70941 0
M  V30 3871 H 372.452 -1.29139 3.51104 0
M  V30 3872 H 373.785 -1.71754 4.61261 0
M  V30 3873 N 375.437 -1.54477 -0.31217 0
M  V30 3874 C 376.37 -1.79519 -1.40884 0
M  V30 3875 C 377.348 -0.645753 -1.49227 0
M  V30 3876 O 378.532 -0.884468 -1.66461 0
M  V30 3877 C 375.659 -1.92194 -2.78889 0
M  V30 3878 C 374.705 -3.14555 -2.88023 0
M  V30 3879 S 375.538 -4.72893 -2.51262 0
M  V30 3880 C 376.694 -4.8849 -3.91317 0
M  V30 3881 H 376.927 -2.72256 -1.19432 0
M  V30 3882 H 374.46 -1.45746 -0.509654 0
M  V30 3883 H 376.418 -2.00182 -3.58382 0
M  V30 3884 H 375.079 -1.00414 -2.97617 0
M  V30 3885 H 374.272 -3.20193 -3.89221 0
M  V30 3886 H 373.874 -3.04955 -2.16514 0
M  V30 3887 H 376.166 -4.71826 -4.86196 0
M  V30 3888 H 377.109 -5.90588 -3.90656 0
M  V30 3889 H 377.517 -4.16715 -3.80801 0
M  V30 3890 N 376.915 0.57481 -1.46744 0
M  V30 3891 C 378.162 1.33272 -1.52462 0
M  V30 3892 C 378.49 1.93669 -0.179572 0
M  V30 3893 O 377.745 1.7743 0.825664 0
M  V30 3894 C 378.044 2.476 -2.57738 0
M  V30 3895 C 377.71 2.05146 -4.01529 0
M  V30 3896 C 376.372 1.93284 -4.40676 0
M  V30 3897 C 378.724 1.72506 -4.91824 0
M  V30 3898 C 376.052 1.47049 -5.67973 0
M  V30 3899 C 378.404 1.27748 -6.19567 0
M  V30 3900 C 377.068 1.14468 -6.57612 0
M  V30 3901 H 376.338 0.487678 -0.557899 0
M  V30 3902 H 378.985 0.646456 -1.80259 0
M  V30 3903 H 377.29 3.21708 -2.23632 0
M  V30 3904 H 378.987 3.05807 -2.5939 0
M  V30 3905 H 375.577 2.15316 -3.7059 0
M  V30 3906 H 379.761 1.80552 -4.62293 0
M  V30 3907 H 375.017 1.35417 -5.96215 0
M  V30 3908 H 379.191 1.01547 -6.88957 0
M  V30 3909 H 376.818 0.78419 -7.56145 0
M  V30 3910 N 378.394 1.34581 0.820102 0
M  V30 3911 C 379.341 1.2639 1.93117 0
M  V30 3912 C 380.311 0.138554 1.65521 0
M  V30 3913 O 381.496 0.320004 1.88097 0
M  V30 3914 C 378.636 1.02812 3.29429 0
M  V30 3915 C 377.749 2.24146 3.693 0
M  V30 3916 C 376.884 1.93829 4.94574 0
M  V30 3917 C 375.923 3.1129 5.27034 0
M  V30 3918 N 375.06 2.80838 6.43486 0
M  V30 3919 H 379.9 2.21408 1.99455 0
M  V30 3920 H 377.437 1.10077 0.975784 0
M  V30 3921 H 379.395 0.871788 4.0799 0
M  V30 3922 H 378.025 0.114612 3.22596 0
M  V30 3923 H 377.077 2.50691 2.86109 0
M  V30 3924 H 378.389 3.11899 3.89257 0
M  V30 3925 H 377.543 1.74948 5.80929 0
M  V30 3926 H 376.282 1.03341 4.76626 0
M  V30 3927 H 375.287 3.30764 4.39175 0
M  V30 3928 H 376.512 4.02561 5.4692 0
M  V30 3929 H 374.458 1.92929 6.26988 0
M  V30 3930 H 374.375 3.62123 6.63629 0
M  V30 3931 H 375.643 2.65467 7.32903 0
M  V30 3932 N 379.872 -1.04064 1.18357 0
M  V30 3933 C 380.835 -2.10243 0.912707 0
M  V30 3934 C 381.835 -1.60477 -0.101928 0
M  V30 3935 O 383.025 -1.73703 0.131517 0
M  V30 3936 C 380.157 -3.38893 0.369387 0
M  V30 3937 H 381.35 -2.35706 1.85426 0
M  V30 3938 H 378.903 -1.20489 0.995594 0
M  V30 3939 H 379.638 -3.19094 -0.578776 0
M  V30 3940 H 379.423 -3.76331 1.1008 0
M  V30 3941 H 380.913 -4.17128 0.198575 0
M  V30 3942 N 381.35 -0.985608 -1.22978 0
M  V30 3943 C 382.28 -0.549649 -2.26939 0
M  V30 3944 C 383.261 0.419803 -1.64838 0
M  V30 3945 O 384.446 0.31203 -1.91677 0
M  V30 3946 C 381.576 0.143652 -3.47003 0
M  V30 3947 C 380.53 -0.743606 -4.21491 0
M  V30 3948 C 379.856 0.0822027 -5.34637 0
M  V30 3949 C 381.156 -2.03694 -4.80943 0
M  V30 3950 H 382.85 -1.41862 -2.63658 0
M  V30 3951 H 380.396 -0.683571 -1.26741 0
M  V30 3952 H 382.349 0.459985 -4.18882 0
M  V30 3953 H 381.073 1.04711 -3.09359 0
M  V30 3954 H 379.732 -1.04347 -3.51436 0
M  V30 3955 H 379.38 0.986359 -4.93234 0
M  V30 3956 H 379.08 -0.508377 -5.85397 0
M  V30 3957 H 380.604 0.392797 -6.09335 0
M  V30 3958 H 382.018 -1.78504 -5.44802 0
M  V30 3959 H 380.415 -2.57573 -5.42011 0
M  V30 3960 H 381.485 -2.72042 -4.01399 0
M  V30 3961 N 382.828 1.3818 -0.7579 0
M  V30 3962 C 384.053 2.04827 -0.325679 0
M  V30 3963 C 384.478 1.56788 1.03919 0
M  V30 3964 O 383.836 0.721811 1.66312 0
M  V30 3965 C 383.884 3.58774 -0.362447 0
M  V30 3966 O 382.988 4.07372 0.642033 0
M  V30 3967 H 382.329 0.64833 -0.143402 0
M  V30 3968 H 384.859 1.7677 -1.03023 0
M  V30 3969 H 384.869 4.07434 -0.214844 0
M  V30 3970 H 383.544 3.93096 -1.35824 0
M  V30 3971 H 382.121 3.70068 0.458688 0
M  V30 3972 N 384.306 0.507319 1.49211 0
M  V30 3973 C 385.555 -0.0368315 2.01666 0
M  V30 3974 C 385.868 -1.37459 1.39156 0
M  V30 3975 O 387.074 -2.00579 1.82976 0
M  V30 3976 C 385.53 -0.116089 3.59713 0
M  V30 3977 C 385.138 1.2154 4.31198 0
M  V30 3978 C 386.882 -0.610268 4.2009 0
M  V30 3979 C 384.789 1.09796 5.81119 0
M  V30 3980 H 383.719 -0.0175376 0.753796 0
M  V30 3981 H 386.37 0.647691 1.71689 0
M  V30 3982 H 384.752 -0.8652 3.86433 0
M  V30 3983 H 385.926 1.9783 4.16173 0
M  V30 3984 H 384.241 1.64352 3.82593 0
M  V30 3985 H 386.838 -0.715742 5.29888 0
M  V30 3986 H 387.181 -1.61064 3.8388 0
M  V30 3987 H 387.714 0.0824916 3.97714 0
M  V30 3988 H 384.453 2.0728 6.21864 0
M  V30 3989 H 383.973 0.376058 5.9862 0
M  V30 3990 H 385.652 0.779281 6.4229 0
M  V30 3991 N 385.784 -1.5574 0.241426 0
M  V30 3992 C 387.032 -1.98417 -0.384075 0
M  V30 3993 C 387.353 -1.13078 -1.58866 0
M  V30 3994 O 386.623 -0.212312 -1.94746 0
M  V30 3995 H 385.203 -0.732813 -0.144894 0
M  V30 3996 H 387.865 -1.9193 0.338943 0
M  V30 3997 H 386.961 -3.04219 -0.696939 0
M  V30 3998 N 387.262 0.0317525 -1.57568 0
M  V30 3999 C 388.225 1.01783 -2.0536 0
M  V30 4000 C 389.225 1.29203 -0.957253 0
M  V30 4001 O 390.415 1.24251 -1.22095 0
M  V30 4002 C 387.547 2.35137 -2.46827 0
M  V30 4003 H 388.74 0.605062 -2.93733 0
M  V30 4004 H 386.293 0.278514 -1.53799 0
M  V30 4005 H 387.028 2.81168 -1.61602 0
M  V30 4006 H 386.813 2.16566 -3.26866 0
M  V30 4007 H 388.303 3.05938 -2.84239 0
M  V30 4008 N 388.74 1.54641 0.303973 0
M  V30 4009 C 389.98 1.75516 1.04755 0
M  V30 4010 C 390.344 0.528211 1.84591 0
M  V30 4011 O 391.545 0.614645 2.61678 0
M  V30 4012 C 389.816 3.00685 1.93193 0
M  V30 4013 S 391.375 3.42549 2.74237 0
M  V30 4014 H 388.193 0.616987 0.353339 0
M  V30 4015 H 390.795 1.92842 0.321292 0
M  V30 4016 H 389.499 3.8811 1.33411 0
M  V30 4017 H 389.03 2.85937 2.70191 0
M  V30 4018 H 391.045 2.99386 3.95705 0
M  V30 4019 N 390.218 -0.567019 1.47046 0
M  V30 4020 C 391.634 -0.891975 1.32348 0
M  V30 4021 C 391.834 -1.99154 0.306616 0
M  V30 4022 O 390.89 -2.50883 -0.28532 0
M  V30 4023 C 392.203 -1.29449 2.7141 0
M  V30 4024 C 393.751 -1.40646 2.79621 0
M  V30 4025 C 394.226 -1.84257 4.19301 0
M  V30 4026 N 395.717 -1.91424 4.21795 0
M  V30 4027 C 396.452 -2.26476 5.26779 0
M  V30 4028 N 395.948 -2.60211 6.42077 0
M  V30 4029 N 397.741 -2.27166 5.14152 0
M  V30 4030 H 389.892 0.159074 2.11803 0
M  V30 4031 H 392.155 0.00849752 0.947962 0
M  V30 4032 H 391.861 -0.560448 3.47206 0
M  V30 4033 H 391.735 -2.25273 3.02542 0
M  V30 4034 H 394.122 -2.13133 2.04104 0
M  V30 4035 H 394.203 -0.430339 2.52154 0
M  V30 4036 H 393.847 -1.12343 4.95319 0
M  V30 4037 H 393.777 -2.82855 4.44185 0
M  V30 4038 H 396.268 -1.6778 3.38612 0
M  V30 4039 H 396.581 -2.85956 7.17948 0
M  V30 4040 H 394.926 -2.57813 6.45413 0
M  V30 4041 H 398.117 -2.00244 4.23107 0
M  V30 4042 H 398.29 -2.54154 5.96079 0
M  V30 4043 N 391.696 -1.35014 -0.812953 0
M  V30 4044 C 392.626 -1.30069 -1.93919 0
M  V30 4045 C 393.607 -0.176275 -1.69184 0
M  V30 4046 O 394.792 -0.370227 -1.90638 0
M  V30 4047 C 391.922 -1.06547 -3.30552 0
M  V30 4048 C 390.876 -2.15561 -3.69753 0
M  V30 4049 C 390.202 -1.77214 -5.04479 0
M  V30 4050 C 391.502 -3.57476 -3.808 0
M  V30 4051 H 393.196 -2.24303 -1.98314 0
M  V30 4052 H 390.742 -1.07977 -0.952736 0
M  V30 4053 H 392.695 -1.01729 -4.08937 0
M  V30 4054 H 391.419 -0.0875719 -3.26483 0
M  V30 4055 H 390.078 -2.19466 -2.9365 0
M  V30 4056 H 389.726 -0.780589 -4.96906 0
M  V30 4057 H 389.426 -2.50184 -5.31678 0
M  V30 4058 H 390.95 -1.7391 -5.8531 0
M  V30 4059 H 392.364 -3.55929 -4.4943 0
M  V30 4060 H 390.761 -4.29152 -4.19462 0
M  V30 4061 H 391.831 -3.94091 -2.82525 0
M  V30 4062 N 393.175 1.03435 -1.18907 0
M  V30 4063 C 394.138 2.09756 -0.923844 0
M  V30 4064 C 395.138 1.60528 0.093416 0
M  V30 4065 O 396.328 1.73631 -0.140727 0
M  V30 4066 C 393.46 3.38692 -0.387354 0
M  V30 4067 H 394.653 2.34719 -1.86674 0
M  V30 4068 H 392.206 1.19959 -1.00197 0
M  V30 4069 H 392.941 3.19396 0.561845 0
M  V30 4070 H 392.726 3.75742 -1.12074 0
M  V30 4071 H 394.216 4.17016 -0.220694 0
M  V30 4072 N 394.653 0.992116 1.22453 0
M  V30 4073 C 395.586 0.486701 2.22949 0
M  V30 4074 C 396.564 -0.45259 1.56174 0
M  V30 4075 O 397.748 -0.378317 1.84665 0
M  V30 4076 C 394.875 -0.294537 3.37417 0
M  V30 4077 C 393.921 0.590628 4.22391 0
M  V30 4078 S 394.754 2.04546 4.94895 0
M  V30 4079 C 395.91 1.27369 6.12803 0
M  V30 4080 H 396.143 1.33828 2.65475 0
M  V30 4081 H 393.676 0.799023 1.32117 0
M  V30 4082 H 395.634 -0.739241 4.03789 0
M  V30 4083 H 394.295 -1.12139 2.934 0
M  V30 4084 H 393.488 -0.0104375 5.03999 0
M  V30 4085 H 393.09 0.972064 3.61147 0
M  V30 4086 H 395.382 0.540943 6.75337 0
M  V30 4087 H 396.325 2.06502 6.7732 0
M  V30 4088 H 396.733 0.787324 5.58983 0
M  V30 4089 N 396.131 -1.37776 0.765217 0
M  V30 4090 C 397.542 -1.82521 0.392819 0
M  V30 4091 C 397.893 -1.63789 -1.08017 0
M  V30 4092 O 397.018 -1.14542 -1.83601 0
M  V30 4093 C 397.613 -3.31358 0.706214 0
M  V30 4094 C 396.172 -3.74406 0.386952 0
M  V30 4095 C 395.319 -2.60394 0.953422 0
M  V30 4096 H 398.27 -1.2634 0.960412 0
M  V30 4097 H 398.291 -3.80498 -0.0114706 0
M  V30 4098 H 397.803 -3.44959 1.77833 0
M  V30 4099 H 395.904 -3.66377 -0.678112 0
M  V30 4100 H 396.017 -4.70749 0.890636 0
M  V30 4101 H 394.381 -2.51878 0.378064 0
M  V30 4102 H 395.164 -2.76791 2.03081 0
M  V30 4103 N 397.609 -0.515225 -1.4894 0
M  V30 4104 C 398.886 0.0879088 -1.95402 0
M  V30 4105 C 399.266 1.52745 -1.45712 0
M  V30 4106 O 398.614 2.18238 -0.677093 0
M  V30 4107 C 398.824 -0.0141055 -3.48997 0
M  V30 4108 C 400.172 0.152646 -4.24326 0
M  V30 4109 O 401.196 0.0604025 -3.56149 0
M  V30 4110 O 400.055 0.34384 -5.45417 0
M  V30 4111 H 397.149 0.0874636 -0.822362 0
M  V30 4112 H 399.695 -0.578775 -1.59525 0
M  V30 4113 H 398.467 -1.01745 -3.77841 0
M  V30 4114 H 398.09 0.692091 -3.9153 0
M  V30 4115 N 399.087 1.5561 -0.249682 0
M  V30 4116 C 400.05 2.20217 0.635394 0
M  V30 4117 C 401.05 1.17227 1.10066 0
M  V30 4118 O 402.24 1.42292 1.00492 0
M  V30 4119 C 399.372 2.84794 1.87363 0
M  V30 4120 H 400.565 2.99814 0.0716752 0
M  V30 4121 H 398.118 1.563 -0.000153234 0
M  V30 4122 H 398.853 2.09142 2.47851 0
M  V30 4123 H 398.638 3.60241 1.5482 0
M  V30 4124 H 400.128 3.3423 2.5036 0
M  V30 4125 N 400.565 -0.0233959 1.57583 0
M  V30 4126 C 401.498 -1.05549 2.02323 0
M  V30 4127 C 402.476 -1.34843 0.908626 0
M  V30 4128 O 403.66 -1.47404 1.17491 0
M  V30 4129 C 400.787 -2.38885 2.40108 0
M  V30 4130 C 399.833 -2.2541 3.62067 0
M  V30 4131 S 400.666 -1.60217 5.1097 0
M  V30 4132 C 401.822 -2.95032 5.52003 0
M  V30 4133 H 402.055 -0.674435 2.89549 0
M  V30 4134 H 399.588 -0.23355 1.52623 0
M  V30 4135 H 401.546 -3.15562 2.62547 0
M  V30 4136 H 400.207 -2.74137 1.53323 0
M  V30 4137 H 399.4 -3.23854 3.86179 0
M  V30 4138 H 399.002 -1.56876 3.39508 0
M  V30 4139 H 401.294 -3.91357 5.53033 0
M  V30 4140 H 402.237 -2.75646 6.52246 0
M  V30 4141 H 402.645 -2.97865 4.79517 0
M  V30 4142 N 402.043 -1.548 -0.295768 0
M  V30 4143 C 402.99 -1.86113 -1.36494 0
M  V30 4144 C 403.96 -0.7105 -1.50137 0
M  V30 4145 O 405.145 -0.959626 -1.64912 0
M  V30 4146 C 402.285 -2.11861 -2.72413 0
M  V30 4147 C 401.398 -3.39471 -2.67177 0
M  V30 4148 C 400.533 -3.55035 -3.95125 0
M  V30 4149 C 399.572 -4.76418 -3.84308 0
M  V30 4150 N 398.709 -4.8876 -5.04042 0
M  V30 4151 H 403.549 -2.77314 -1.09091 0
M  V30 4152 H 401.086 -1.37315 -0.52753 0
M  V30 4153 H 403.044 -2.24786 -3.51464 0
M  V30 4154 H 401.674 -1.2392 -2.98066 0
M  V30 4155 H 400.726 -3.35139 -1.79962 0
M  V30 4156 H 402.038 -4.28646 -2.55076 0
M  V30 4157 H 401.192 -3.67653 -4.82614 0
M  V30 4158 H 399.931 -2.64002 -4.10066 0
M  V30 4159 H 398.936 -4.63827 -2.95202 0
M  V30 4160 H 400.161 -5.68863 -3.70906 0
M  V30 4161 H 398.107 -4.00652 -5.19436 0
M  V30 4162 H 398.024 -5.71945 -4.94384 0
M  V30 4163 H 399.292 -5.0574 -5.93167 0
M  V30 4164 N 403.521 0.559213 -1.47345 0
M  V30 4165 C 404.77 1.31281 -1.53128 0
M  V30 4166 C 405.083 1.94602 -0.197344 0
M  V30 4167 O 406.289 2.71173 -0.133154 0
M  V30 4168 C 404.745 2.38051 -2.69925 0
M  V30 4169 C 404.353 1.8093 -4.0984 0
M  V30 4170 C 406.097 3.14604 -2.84999 0
M  V30 4171 C 404.004 2.85468 -5.1794 0
M  V30 4172 H 402.934 0.493614 -0.569966 0
M  V30 4173 H 405.585 0.594155 -1.73615 0
M  V30 4174 H 403.967 3.12822 -2.42814 0
M  V30 4175 H 405.141 1.12544 -4.46845 0
M  V30 4176 H 403.456 1.16967 -3.99634 0
M  V30 4177 H 406.053 3.92666 -3.62929 0
M  V30 4178 H 406.396 3.68665 -1.93369 0
M  V30 4179 H 406.929 2.46945 -3.1187 0
M  V30 4180 H 403.668 2.36264 -6.1144 0
M  V30 4181 H 403.188 3.52269 -4.85455 0
M  V30 4182 H 404.867 3.48996 -5.44803 0
M  V30 4183 N 404.999 1.35443 0.805782 0
M  V30 4184 C 406.247 1.28507 1.55982 0
M  V30 4185 C 406.568 -0.140046 1.94496 0
M  V30 4186 O 405.838 -1.07666 1.63661 0
M  V30 4187 H 404.418 0.472676 0.578434 0
M  V30 4188 H 407.08 1.69555 0.961098 0
M  V30 4189 H 406.176 1.90148 2.47488 0
M  V30 4190 N 406.477 -1.02803 1.19454 0
M  V30 4191 C 407.725 -1.75869 0.995722 0
M  V30 4192 C 408.046 -1.89138 -0.474543 0
M  V30 4193 O 407.316 -1.42558 -1.34366 0
M  V30 4194 H 405.896 -0.651511 0.365435 0
M  V30 4195 H 408.558 -1.24004 1.50363 0
M  V30 4196 H 407.654 -2.76661 1.44447 0
M  V30 4197 N 407.956 -0.998596 -1.21925 0
M  V30 4198 C 409.202 -0.678667 -1.91107 0
M  V30 4199 C 409.535 0.78791 -1.77498 0
M  V30 4200 O 408.81 1.57043 -1.1475 0
M  V30 4201 C 409.093 -1.09245 -3.43129 0
M  V30 4202 C 408.946 -2.61801 -3.6576 0
M  V30 4203 C 410.265 -0.649984 -4.35274 0
M  V30 4204 H 407.384 -0.248025 -0.694012 0
M  V30 4205 H 410.026 -1.24314 -1.43688 0
M  V30 4206 H 408.176 -0.612171 -3.83647 0
M  V30 4207 H 409.848 -3.17543 -3.34611 0
M  V30 4208 H 408.091 -3.03609 -3.09845 0
M  V30 4209 H 408.762 -2.85804 -4.7225 0
M  V30 4210 H 411.238 -1.0626 -4.02303 0
M  V30 4211 H 410.114 -0.967743 -5.40302 0
M  V30 4212 H 410.375 0.449139 -4.39813 0
M  V30 4213 N 409.434 1.37368 -0.772513 0
M  V30 4214 C 410.662 2.03942 -0.348588 0
M  V30 4215 C 411.077 1.58264 1.02947 0
M  V30 4216 O 410.434 0.764246 1.65727 0
M  V30 4217 C 410.485 3.5946 -0.38351 0
M  V30 4218 O 410.206 4.03468 -1.70721 0
M  V30 4219 C 411.707 4.4327 0.0519152 0
M  V30 4220 H 408.927 0.654931 -0.145966 0
M  V30 4221 H 411.471 1.75686 -1.04665 0
M  V30 4222 H 409.626 3.86486 0.265978 0
M  V30 4223 H 410.04 4.97991 -1.64636 0
M  V30 4224 H 411.514 5.51995 -0.0236733 0
M  V30 4225 H 411.991 4.2514 1.10238 0
M  V30 4226 H 412.597 4.21471 -0.569415 0
M  V30 4227 N 410.912 0.523116 1.48665 0
M  V30 4228 C 412.16 -0.0134497 2.02096 0
M  V30 4229 C 412.481 -1.35418 1.40311 0
M  V30 4230 O 411.751 -1.87543 0.566074 0
M  V30 4231 H 410.331 -0.00795915 0.746958 0
M  V30 4232 H 412.993 0.685388 1.82451 0
M  V30 4233 H 412.089 -0.126849 3.11842 0
M  V30 4234 N 412.39 -1.55475 0.257931 0
M  V30 4235 C 413.636 -2.00237 -0.357338 0
M  V30 4236 C 413.991 -1.14313 -1.54759 0
M  V30 4237 O 413.284 -0.201187 -1.90541 0
M  V30 4238 C 413.478 -3.48183 -0.806433 0
M  V30 4239 C 413.307 -4.48422 0.338758 0
M  V30 4240 C 412.077 -4.98651 0.817011 0
M  V30 4241 C 414.275 -5.00827 1.16949 0
M  V30 4242 N 412.257 -5.82658 1.93346 0
M  V30 4243 C 413.628 -5.82113 2.13413 0
M  V30 4244 C 415.683 -4.83104 1.2048 0
M  V30 4245 C 414.386 -6.47566 3.13131 0
M  V30 4246 C 416.412 -5.49343 2.19034 0
M  V30 4247 C 415.774 -6.30427 3.14232 0
M  V30 4248 H 411.873 -0.776034 -0.0964083 0
M  V30 4249 H 414.457 -1.90995 0.37803 0
M  V30 4250 H 412.628 -3.57801 -1.51107 0
M  V30 4251 H 414.36 -3.79802 -1.39758 0
M  V30 4252 H 411.115 -4.71914 0.39925 0
M  V30 4253 H 411.539 -6.29356 2.49478 0
M  V30 4254 H 416.181 -4.20036 0.482634 0
M  V30 4255 H 413.899 -7.09793 3.8629 0
M  V30 4256 H 417.485 -5.37579 2.22485 0
M  V30 4257 H 416.365 -6.80777 3.89246 0
M  V30 4258 N 413.868 0.0150385 -1.57593 0
M  V30 4259 C 415.117 0.702115 -1.89085 0
M  V30 4260 C 415.43 1.75764 -0.858277 0
M  V30 4261 O 416.636 2.49829 -1.0629 0
M  V30 4262 C 415.092 1.29992 -3.35604 0
M  V30 4263 C 414.7 0.280007 -4.47124 0
M  V30 4264 C 416.444 1.96606 -3.76227 0
M  V30 4265 C 414.351 0.886949 -5.84711 0
M  V30 4266 H 413.281 0.265997 -0.705522 0
M  V30 4267 H 415.932 -0.0430408 -1.8345 0
M  V30 4268 H 414.314 2.09525 -3.36029 0
M  V30 4269 H 415.488 -0.489631 -4.58191 0
M  V30 4270 H 413.803 -0.284835 -4.15425 0
M  V30 4271 H 416.4 2.42893 -4.76347 0
M  V30 4272 H 416.743 2.79024 -3.08952 0
M  V30 4273 H 417.276 1.23828 -3.78036 0
M  V30 4274 H 414.015 0.101876 -6.55421 0
M  V30 4275 H 413.535 1.6261 -5.77337 0
M  V30 4276 H 415.214 1.39011 -6.3189 0
M  V30 4277 N 415.346 1.54954 0.287554 0
M  V30 4278 C 416.762 1.46469 0.633964 0
M  V30 4279 C 416.962 0.666865 1.90145 0
M  V30 4280 O 416.018 0.179906 2.51858 0
M  V30 4281 C 417.331 2.90556 0.774454 0
M  V30 4282 C 418.879 3.00681 0.869462 0
M  V30 4283 C 419.354 4.45993 1.04184 0
M  V30 4284 N 420.845 4.4976 1.10772 0
M  V30 4285 C 421.58 5.59393 1.25964 0
M  V30 4286 N 421.076 6.78923 1.37968 0
M  V30 4287 N 422.869 5.47107 1.28959 0
M  V30 4288 H 415.02 2.05288 -0.545041 0
M  V30 4289 H 417.283 0.930305 -0.182308 0
M  V30 4290 H 416.989 3.51594 -0.086207 0
M  V30 4291 H 416.863 3.38743 1.6593 0
M  V30 4292 H 419.25 2.39749 1.7206 0
M  V30 4293 H 419.331 2.55769 -0.0396831 0
M  V30 4294 H 418.975 5.07524 0.195422 0
M  V30 4295 H 418.905 4.88548 1.96542 0
M  V30 4296 H 421.396 3.63651 1.02794 0
M  V30 4297 H 421.709 7.58231 1.49353 0
M  V30 4298 H 420.054 6.81763 1.34999 0
M  V30 4299 H 423.245 4.52668 1.19202 0
M  V30 4300 H 423.418 6.32595 1.40455 0
M  V30 4301 N 416.824 -0.551391 1.4764 0
M  V30 4302 C 417.787 -1.64007 1.60107 0
M  V30 4303 C 418.787 -1.53601 0.47576 0
M  V30 4304 O 419.977 -1.57655 0.740988 0
M  V30 4305 C 417.109 -3.03569 1.55108 0
M  V30 4306 H 418.302 -1.543 2.57161 0
M  V30 4307 H 415.855 -0.771776 1.35917 0
M  V30 4308 H 416.59 -3.18804 0.594519 0
M  V30 4309 H 416.375 -3.12532 2.36783 0
M  V30 4310 H 417.865 -3.82762 1.66982 0
M  V30 4311 N 418.302 -1.35869 -0.798587 0
M  V30 4312 C 419.527 -1.32883 -1.59238 0
M  V30 4313 C 419.952 0.0894587 -1.87887 0
M  V30 4314 O 419.31 1.05869 -1.47178 0
M  V30 4315 C 419.358 -2.14892 -2.89575 0
M  V30 4316 O 418.462 -1.53512 -3.82763 0
M  V30 4317 H 417.803 -0.455236 -0.48338 0
M  V30 4318 H 420.333 -1.79024 -0.990539 0
M  V30 4319 H 420.343 -2.27139 -3.38928 0
M  V30 4320 H 419.018 -3.17998 -2.68049 0
M  V30 4321 H 417.595 -1.50153 -3.41334 0
M  V30 4322 N 419.78 1.02168 -1.19998 0
M  V30 4323 C 420.743 2.08765 -0.94604 0
M  V30 4324 C 421.743 1.60618 0.0763846 0
M  V30 4325 O 422.933 1.73472 -0.159135 0
M  V30 4326 C 420.065 3.38262 -0.423255 0
M  V30 4327 H 421.258 2.32726 -1.89153 0
M  V30 4328 H 418.811 1.1889 -1.01464 0
M  V30 4329 H 419.546 3.19974 0.527938 0
M  V30 4330 H 419.331 3.74532 -1.16053 0
M  V30 4331 H 420.821 4.16759 -0.264911 0
M  V30 4332 N 421.258 1.00505 1.21394 0
M  V30 4333 C 422.188 0.585684 2.26035 0
M  V30 4334 C 423.169 -0.393525 1.65485 0
M  V30 4335 O 424.354 -0.281497 1.92149 0
M  V30 4336 C 421.484 -0.0884283 3.47187 0
M  V30 4337 C 420.438 0.810567 4.20254 0
M  V30 4338 C 419.764 0.00286382 5.347 0
M  V30 4339 C 421.064 2.1132 4.77641 0
M  V30 4340 H 422.758 1.46039 2.61368 0
M  V30 4341 H 420.304 0.703648 1.25638 0
M  V30 4342 H 422.257 -0.393286 4.19561 0
M  V30 4343 H 420.981 -0.997766 3.10986 0
M  V30 4344 H 419.64 1.09925 3.49731 0
M  V30 4345 H 419.288 -0.907765 4.94741 0
M  V30 4346 H 418.988 0.601444 5.84514 0
M  V30 4347 H 420.512 -0.295808 6.09883 0
M  V30 4348 H 421.926 1.87148 5.41893 0
M  V30 4349 H 420.323 2.66164 5.37845 0
M  V30 4350 H 421.393 2.78393 3.9702 0
M  V30 4351 N 422.737 -1.36956 0.779787 0
M  V30 4352 C 423.7 -2.2851 0.177662 0
M  V30 4353 C 424.7 -1.48393 -0.619377 0
M  V30 4354 O 425.89 -1.68505 -0.441785 0
M  V30 4355 C 423.022 -3.32428 -0.755279 0
M  V30 4356 H 424.215 -2.83269 0.984823 0
M  V30 4357 H 421.768 -1.46358 0.548544 0
M  V30 4358 H 422.503 -2.82808 -1.58714 0
M  V30 4359 H 422.288 -3.91659 -0.185817 0
M  V30 4360 H 423.778 -4.00824 -1.17174 0
M  V30 4361 N 424.215 -0.530993 -1.48385 0
M  V30 4362 C 425.147 0.268353 -2.27624 0
M  V30 4363 C 426.16 0.903525 -1.35426 0
M  V30 4364 O 427.349 0.781796 -1.60469 0
M  V30 4365 C 424.449 1.39535 -3.08842 0
M  V30 4366 C 423.622 0.861913 -4.28824 0
M  V30 4367 C 422.681 1.87016 -4.91845 0
M  V30 4368 O 421.707 1.4267 -5.5103 0
M  V30 4369 N 422.909 3.20238 -4.84178 0
M  V30 4370 H 425.674 -0.41123 -2.96865 0
M  V30 4371 H 423.235 -0.365387 -1.57723 0
M  V30 4372 H 425.227 2.06803 -3.47871 0
M  V30 4373 H 423.797 1.97859 -2.42014 0
M  V30 4374 H 423.017 0.0132126 -3.94198 0
M  V30 4375 H 424.305 0.484415 -5.06489 0
M  V30 4376 H 423.703 3.58932 -4.37246 0
M  V30 4377 H 422.26 3.83136 -5.27305 0
M  V30 4378 N 425.693 1.55336 -0.266172 0
M  V30 4379 C 426.625 2.19544 0.658247 0
M  V30 4380 C 427.638 1.17746 1.12427 0
M  V30 4381 O 428.827 1.44517 1.04772 0
M  V30 4382 C 425.927 2.80032 1.9088 0
M  V30 4383 C 425.1 4.07436 1.59106 0
M  V30 4384 C 424.159 4.52056 2.69317 0
M  V30 4385 O 423.185 5.18023 2.35883 0
M  V30 4386 N 424.387 4.21448 3.99201 0
M  V30 4387 H 427.152 2.99503 0.108754 0
M  V30 4388 H 424.713 1.61667 -0.0869059 0
M  V30 4389 H 426.705 3.06831 2.63888 0
M  V30 4390 H 425.275 2.04119 2.36758 0
M  V30 4391 H 424.495 3.88021 0.695243 0
M  V30 4392 H 425.783 4.90462 1.35367 0
M  V30 4393 H 425.181 3.68528 4.29189 0
M  V30 4394 H 423.738 4.53039 4.68614 0
M  V30 4395 N 427.171 -0.0066808 1.57599 0
M  V30 4396 C 428.418 -0.69292 1.90276 0
M  V30 4397 C 428.746 -1.74148 0.866192 0
M  V30 4398 O 428.001 -1.95268 -0.129933 0
M  V30 4399 C 428.3 -1.37939 3.29708 0
M  V30 4400 C 427.966 -0.464679 4.48499 0
M  V30 4401 C 426.628 -0.212809 4.80729 0
M  V30 4402 C 428.98 0.16551 5.20937 0
M  V30 4403 C 426.308 0.677653 5.82773 0
M  V30 4404 C 428.66 1.04381 6.23929 0
M  V30 4405 C 427.324 1.30492 6.54621 0
M  V30 4406 H 426.594 -0.253558 0.696268 0
M  V30 4407 H 429.241 0.0474123 1.91441 0
M  V30 4408 H 427.546 -2.1936 3.24636 0
M  V30 4409 H 429.243 -1.9163 3.52249 0
M  V30 4410 H 425.833 -0.671153 4.23313 0
M  V30 4411 H 430.017 -0.0160756 4.96297 0
M  V30 4412 H 425.273 0.88803 6.04917 0
M  V30 4413 H 429.447 1.53851 6.79193 0
M  V30 4414 H 427.074 1.99662 7.33512 0
M  V30 4415 N 428.649 -1.55105 -0.279332 0
M  V30 4416 C 429.897 -1.75066 -1.00977 0
M  V30 4417 C 430.218 -0.551276 -1.87045 0
M  V30 4418 O 429.488 0.433984 -1.91032 0
M  V30 4419 H 428.068 -0.645578 -0.375816 0
M  V30 4420 H 430.73 -1.92497 -0.305089 0
M  V30 4421 H 429.826 -2.64894 -1.65038 0
M  V30 4422 N 430.127 0.543554 -1.4793 0
M  V30 4423 C 431.376 1.29649 -1.54512 0
M  V30 4424 C 431.689 1.94382 -0.217973 0
M  V30 4425 O 432.895 2.71017 -0.161908 0
M  V30 4426 C 431.351 2.35175 -2.72435 0
M  V30 4427 C 430.959 1.76572 -4.11736 0
M  V30 4428 C 432.703 3.11564 -2.8832 0
M  V30 4429 C 430.61 2.79958 -5.20939 0
M  V30 4430 H 429.54 0.487541 -0.57517 0
M  V30 4431 H 432.191 0.575708 -1.74235 0
M  V30 4432 H 430.573 3.10229 -2.46118 0
M  V30 4433 H 431.747 1.07799 -4.48013 0
M  V30 4434 H 430.062 1.12722 -4.00852 0
M  V30 4435 H 432.659 3.88794 -3.67074 0
M  V30 4436 H 433.002 3.66594 -1.97268 0
M  V30 4437 H 433.535 2.43623 -3.14472 0
M  V30 4438 H 430.274 2.29766 -6.13912 0
M  V30 4439 H 429.794 3.47101 -4.89164 0
M  V30 4440 H 431.473 3.43198 -5.48474 0
M  V30 4441 N 431.605 1.3629 0.791371 0
M  V30 4442 C 433.016 1.27225 1.36641 0
M  V30 4443 C 433.367 -0.0887968 1.95999 0
M  V30 4444 O 432.492 -0.990207 1.92416 0
M  V30 4445 C 433.087 2.30375 2.48421 0
M  V30 4446 C 431.646 2.25004 3.01746 0
M  V30 4447 C 430.793 2.15259 1.7481 0
M  V30 4448 H 433.744 1.47198 0.593173 0
M  V30 4449 H 433.765 1.93905 3.27385 0
M  V30 4450 H 433.277 3.29422 2.05189 0
M  V30 4451 H 431.378 1.29417 3.49403 0
M  V30 4452 H 431.491 3.1761 3.58693 0
M  V30 4453 H 429.855 1.61482 1.96966 0
M  V30 4454 H 430.638 3.16191 1.33709 0
M  V30 4455 N 433.083 -1.0153 1.20538 0
M  V30 4456 C 434.016 -2.09759 0.898695 0
M  V30 4457 C 434.994 -1.61909 -0.149733 0
M  V30 4458 O 436.178 -1.88486 -0.0230293 0
M  V30 4459 C 433.305 -3.36913 0.347512 0
M  V30 4460 C 432.351 -4.03655 1.37713 0
M  V30 4461 S 433.184 -4.47402 2.94265 0
M  V30 4462 C 434.34 -5.77756 2.40726 0
M  V30 4463 H 434.573 -2.3545 1.81523 0
M  V30 4464 H 432.106 -1.14665 1.03399 0
M  V30 4465 H 434.064 -4.10484 0.0360518 0
M  V30 4466 H 432.725 -3.09291 -0.547546 0
M  V30 4467 H 431.918 -4.9514 0.940872 0
M  V30 4468 H 431.52 -3.36313 1.63614 0
M  V30 4469 H 433.812 -6.52994 1.80569 0
M  V30 4470 H 434.755 -6.2618 3.30612 0
M  V30 4471 H 435.163 -5.34081 1.82806 0
M  V30 4472 N 434.561 -1.01147 -1.20859 0
M  V30 4473 C 435.786 -0.716698 -1.94623 0
M  V30 4474 C 436.211 0.715415 -1.73964 0
M  V30 4475 O 435.569 1.49157 -1.03062 0
M  V30 4476 C 435.617 -1.0513 -3.44935 0
M  V30 4477 O 434.721 -0.160131 -4.12089 0
M  V30 4478 H 434.062 -0.266404 -0.608214 0
M  V30 4479 H 436.592 -1.35346 -1.53436 0
M  V30 4480 H 436.602 -1.00086 -3.95533 0
M  V30 4481 H 435.277 -2.09475 -3.59295 0
M  V30 4482 H 433.854 -0.267657 -3.71938 0
M  V30 4483 N 436.039 1.36541 -0.78704 0
M  V30 4484 C 437.264 2.0409 -0.369053 0
M  V30 4485 C 437.689 1.58957 1.00569 0
M  V30 4486 O 437.047 0.756926 1.64743 0
M  V30 4487 C 437.095 3.57924 -0.438466 0
M  V30 4488 O 436.199 4.08642 0.555479 0
M  V30 4489 H 435.54 0.645142 -0.157122 0
M  V30 4490 H 438.07 1.74545 -1.06749 0
M  V30 4491 H 438.08 4.06887 -0.301218 0
M  V30 4492 H 436.755 3.90127 -1.44132 0
M  V30 4493 H 435.332 3.70958 0.380088 0
M  V30 4494 N 437.518 0.538854 1.48102 0
M  V30 4495 C 438.468 -0.23907 2.26743 0
M  V30 4496 C 439.452 -0.901923 1.33245 0
M  V30 4497 O 440.644 -0.803263 1.57723 0
M  V30 4498 C 437.773 -1.2799 3.18549 0
M  V30 4499 C 436.859 -0.621388 4.19523 0
M  V30 4500 N 437.25 0.298004 5.04921 0
M  V30 4501 C 435.548 -0.877533 4.37282 0
M  V30 4502 C 436.249 0.678757 5.77726 0
M  V30 4503 N 435.225 0.0377881 5.43587 0
M  V30 4504 H 439.027 0.468096 2.90148 0
M  V30 4505 H 436.541 0.357497 1.58416 0
M  V30 4506 H 438.538 -1.851 3.73555 0
M  V30 4507 H 437.198 -1.98835 2.567 0
M  V30 4508 H 438.209 0.671126 5.13533 0
M  V30 4509 H 434.886 -1.57588 3.86616 0
M  V30 4510 H 436.276 1.43316 6.56437 0
M  V30 4511 N 438.996 -1.55193 0.274407 0
M  V30 4512 C 439.926 -2.25471 -0.607032 0
M  V30 4513 C 440.907 -1.24461 -1.15946 0
M  V30 4514 O 442.092 -1.53179 -1.19373 0
M  V30 4515 C 439.222 -2.97526 -1.79153 0
M  V30 4516 C 438.176 -4.05459 -1.37067 0
M  V30 4517 C 437.502 -4.65084 -2.6382 0
M  V30 4518 C 438.802 -5.19691 -0.521389 0
M  V30 4519 H 440.496 -2.99393 -0.0209343 0
M  V30 4520 H 438.042 -1.43997 -0.00862866 0
M  V30 4521 H 439.995 -3.45402 -2.41404 0
M  V30 4522 H 438.719 -2.21138 -2.40344 0
M  V30 4523 H 437.378 -3.58393 -0.771355 0
M  V30 4524 H 437.026 -3.85365 -3.23268 0
M  V30 4525 H 436.726 -5.37961 -2.36372 0
M  V30 4526 H 438.25 -5.15708 -3.26921 0
M  V30 4527 H 439.664 -5.63623 -1.04889 0
M  V30 4528 H 438.061 -5.99126 -0.341825 0
M  V30 4529 H 439.131 -4.82713 0.46 0
M  V30 4530 N 440.474 -0.00167713 -1.576 0
M  V30 4531 C 441.721 0.68282 -1.90641 0
M  V30 4532 C 442.049 1.73686 -0.875415 0
M  V30 4533 O 441.304 1.95334 0.119575 0
M  V30 4534 C 441.603 1.36189 -3.30435 0
M  V30 4535 C 441.269 0.440887 -4.48739 0
M  V30 4536 C 439.931 0.187312 -4.80835 0
M  V30 4537 C 442.283 -0.193134 -5.20842 0
M  V30 4538 C 439.611 -0.70855 -5.82406 0
M  V30 4539 C 441.963 -1.07688 -6.23367 0
M  V30 4540 C 440.627 -1.33962 -6.53919 0
M  V30 4541 H 439.897 0.249862 -0.697603 0
M  V30 4542 H 442.544 -0.0575642 -1.91413 0
M  V30 4543 H 440.849 2.17636 -3.25794 0
M  V30 4544 H 442.546 1.89759 -3.5326 0
M  V30 4545 H 439.136 0.648694 -4.23663 0
M  V30 4546 H 443.32 -0.0102445 -4.96299 0
M  V30 4547 H 438.576 -0.920097 -6.04437 0
M  V30 4548 H 442.75 -1.57451 -6.78367 0
M  V30 4549 H 440.377 -2.03549 -7.32442 0
M  V30 4550 N 441.952 1.55251 0.271103 0
M  V30 4551 C 442.884 1.84675 1.35749 0
M  V30 4552 C 443.897 0.731366 1.45447 0
M  V30 4553 O 445.086 1.00924 1.4723 0
M  V30 4554 C 442.186 1.99638 2.73857 0
M  V30 4555 C 441.359 3.30312 2.86727 0
M  V30 4556 C 440.418 3.35318 4.05522 0
M  V30 4557 O 439.444 4.08682 3.96191 0
M  V30 4558 N 440.646 2.62857 5.17577 0
M  V30 4559 H 443.411 2.78445 1.10853 0
M  V30 4560 H 440.972 1.55191 0.461218 0
M  V30 4561 H 442.964 2.00355 3.51625 0
M  V30 4562 H 441.534 1.12725 2.91568 0
M  V30 4563 H 440.754 3.42118 1.95829 0
M  V30 4564 H 442.042 4.16488 2.92258 0
M  V30 4565 H 441.44 2.02939 5.28046 0
M  V30 4566 H 439.997 2.69295 5.93568 0
M  V30 4567 N 443.43 -0.535701 1.48216 0
M  V30 4568 C 444.34 -1.66785 1.64985 0
M  V30 4569 C 445.356 -1.65654 0.532414 0
M  V30 4570 O 446.532 -1.8471 0.80275 0
M  V30 4571 C 443.597 -3.0326 1.68031 0
M  V30 4572 C 442.658 -3.1529 2.9136 0
M  V30 4573 C 441.891 -4.45255 2.94252 0
M  V30 4574 O 442.114 -5.32011 2.05719 0
M  V30 4575 O 441.048 -4.6153 3.86359 0
M  V30 4576 H 444.874 -1.55576 2.60825 0
M  V30 4577 H 442.459 -0.70815 1.31551 0
M  V30 4578 H 444.341 -3.84436 1.72589 0
M  V30 4579 H 443.016 -3.14805 0.753628 0
M  V30 4580 H 441.923 -2.3343 2.92337 0
M  V30 4581 H 443.256 -3.08658 3.83394 0
M  V30 4582 N 444.908 -1.36708 -0.784132 0
M  V30 4583 C 446.157 -1.30559 -1.53744 0
M  V30 4584 C 446.47 0.111374 -1.95283 0
M  V30 4585 O 447.676 0.29527 -2.6989 0
M  V30 4586 C 446.132 -2.29098 -2.77565 0
M  V30 4587 C 445.74 -3.76258 -2.43174 0
M  V30 4588 C 447.484 -2.31936 -3.55536 0
M  V30 4589 C 445.391 -4.6656 -3.63422 0
M  V30 4590 H 444.321 -0.48518 -0.577162 0
M  V30 4591 H 446.972 -1.62101 -0.859981 0
M  V30 4592 H 445.354 -1.90557 -3.47137 0
M  V30 4593 H 446.528 -4.23565 -1.81465 0
M  V30 4594 H 444.843 -3.76246 -1.78403 0
M  V30 4595 H 447.44 -2.9661 -4.44889 0
M  V30 4596 H 447.783 -1.3294 -3.94503 0
M  V30 4597 H 448.316 -2.6912 -2.92949 0
M  V30 4598 H 445.055 -5.66638 -3.29547 0
M  V30 4599 H 444.575 -4.23966 -4.24279 0
M  V30 4600 H 446.254 -4.8309 -4.30387 0
M  V30 4601 N 446.386 1.0089 -1.21074 0
M  V30 4602 C 447.611 1.78727 -1.05221 0
M  V30 4603 C 448.036 1.83932 0.393795 0
M  V30 4604 O 447.394 1.28004 1.28393 0
M  V30 4605 C 447.442 3.20665 -1.64944 0
M  V30 4606 O 446.546 4.02632 -0.892273 0
M  V30 4607 H 445.887 0.550973 -0.370574 0
M  V30 4608 H 448.417 1.26847 -1.60534 0
M  V30 4609 H 448.427 3.71352 -1.69002 0
M  V30 4610 H 447.102 3.16191 -2.70177 0
M  V30 4611 H 445.679 3.61207 -0.926492 0
M  V30 4612 N 447.864 1.01787 1.20321 0
M  V30 4613 C 448.827 0.593972 2.2137 0
M  V30 4614 C 449.827 -0.336553 1.57239 0
M  V30 4615 O 451.017 -0.125069 1.7375 0
M  V30 4616 C 448.149 -0.132433 3.40643 0
M  V30 4617 H 449.342 1.48791 2.60387 0
M  V30 4618 H 446.895 0.807803 1.33807 0
M  V30 4619 H 447.63 -1.04123 3.0713 0
M  V30 4620 H 447.415 0.53605 3.88418 0
M  V30 4621 H 448.905 -0.416314 4.1552 0
M  V30 4622 N 449.342 -1.36122 0.79427 0
M  V30 4623 C 450.292 -2.27373 0.169017 0
M  V30 4624 C 451.276 -1.4719 -0.649913 0
M  V30 4625 O 452.468 -1.69518 -0.50919 0
M  V30 4626 C 449.597 -3.36264 -0.691455 0
M  V30 4627 C 448.683 -4.2388 0.13653 0
M  V30 4628 N 449.074 -4.91519 1.19345 0
M  V30 4629 C 447.372 -4.45921 -0.0838499 0
M  V30 4630 C 448.073 -5.56369 1.6979 0
M  V30 4631 N 447.049 -5.34204 1.00634 0
M  V30 4632 H 450.851 -2.77154 0.977897 0
M  V30 4633 H 448.365 -1.49504 0.634208 0
M  V30 4634 H 450.362 -4.00572 -1.15534 0
M  V30 4635 H 449.022 -2.88037 -1.49883 0
M  V30 4636 H 450.033 -4.9334 1.57594 0
M  V30 4637 H 446.71 -4.08518 -0.861341 0
M  V30 4638 H 448.1 -6.20368 2.58055 0
M  V30 4639 N 450.82 -0.546701 -1.47814 0
M  V30 4640 C 451.75 0.195317 -2.32682 0
M  V30 4641 C 452.731 0.918981 -1.43139 0
M  V30 4642 O 453.916 0.901501 -1.72008 0
M  V30 4643 C 451.046 1.23237 -3.247 0
M  V30 4644 C 450 0.625818 -4.234 0
M  V30 4645 C 449.326 1.76674 -5.04669 0
M  V30 4646 C 450.626 -0.413515 -5.2066 0
M  V30 4647 H 452.32 -0.513184 -2.94969 0
M  V30 4648 H 449.866 -0.248241 -1.41844 0
M  V30 4649 H 451.819 1.75955 -3.82907 0
M  V30 4650 H 450.543 1.97067 -2.60446 0
M  V30 4651 H 449.202 0.120023 -3.66403 0
M  V30 4652 H 448.85 2.49383 -4.36826 0
M  V30 4653 H 448.55 1.36673 -5.71484 0
M  V30 4654 H 450.074 2.29738 -5.65732 0
M  V30 4655 H 451.488 0.0272042 -5.73294 0
M  V30 4656 H 449.885 -0.731825 -5.95621 0
M  V30 4657 H 450.955 -1.31325 -4.66778 0
M  V30 4658 N 452.299 1.55045 -0.282633 0
M  V30 4659 C 453.229 2.2579 0.595066 0
M  V30 4660 C 454.21 1.25074 1.15284 0
M  V30 4661 O 455.395 1.5381 1.18559 0
M  V30 4662 C 452.525 2.98472 1.77572 0
M  V30 4663 C 451.479 4.0618 1.34914 0
M  V30 4664 C 450.805 4.66477 2.6135 0
M  V30 4665 C 452.105 5.1996 0.493821 0
M  V30 4666 H 453.799 2.994 0.00505653 0
M  V30 4667 H 451.345 1.44 0.000992001 0
M  V30 4668 H 453.298 3.46677 2.39568 0
M  V30 4669 H 452.022 2.2241 2.39168 0
M  V30 4670 H 450.681 3.58797 0.752338 0
M  V30 4671 H 450.329 3.87074 3.2122 0
M  V30 4672 H 450.029 5.39207 2.33516 0
M  V30 4673 H 451.553 5.17435 3.24181 0
M  V30 4674 H 452.967 5.64172 1.01898 0
M  V30 4675 H 451.364 5.99299 0.310047 0
M  V30 4676 H 452.434 4.82462 -0.485593 0
M  V30 4677 N 453.777 0.010035 1.57597 0
M  V30 4678 C 454.74 -0.963029 2.07986 0
M  V30 4679 C 455.74 -1.26619 0.991173 0
M  V30 4680 O 456.93 -1.2097 1.25347 0
M  V30 4681 C 454.062 -2.2851 2.52974 0
M  V30 4682 H 455.255 -0.526971 2.95234 0
M  V30 4683 H 452.808 -0.237639 1.54483 0
M  V30 4684 H 453.543 -2.76784 1.69 0
M  V30 4685 H 453.328 -2.07824 3.32493 0
M  V30 4686 H 454.818 -2.98294 2.9225 0
M  V30 4687 N 455.255 -1.55392 -0.262866 0
M  V30 4688 C 456.218 -1.88181 -1.30846 0
M  V30 4689 C 457.218 -0.757079 -1.41862 0
M  V30 4690 O 458.408 -1.02519 -1.40838 0
M  V30 4691 C 455.54 -2.09609 -2.68844 0
M  V30 4692 H 456.733 -2.81659 -1.02997 0
M  V30 4693 H 454.286 -1.48039 -0.501414 0
M  V30 4694 H 455.021 -1.18547 -3.01856 0
M  V30 4695 H 454.806 -2.91508 -2.62231 0
M  V30 4696 H 456.296 -2.36215 -3.44372 0
M  V30 4697 N 456.733 0.527833 -1.48498 0
M  V30 4698 C 457.961 1.30823 -1.6029 0
M  V30 4699 C 458.376 1.86945 -0.263974 0
M  V30 4700 O 457.733 1.6651 0.747034 0
M  V30 4701 C 457.784 2.45756 -2.65116 0
M  V30 4702 O 457.505 1.91946 -3.93813 0
M  V30 4703 C 459.006 3.37543 -2.87367 0
M  V30 4704 H 456.226 0.397763 -0.540394 0
M  V30 4705 H 458.77 0.636529 -1.94341 0
M  V30 4706 H 456.925 3.08806 -2.33917 0
M  V30 4707 H 457.339 2.67195 -4.51339 0
M  V30 4708 H 458.813 4.14532 -3.6451 0
M  V30 4709 H 459.29 3.92905 -1.9627 0
M  V30 4710 H 459.896 2.80283 -3.19878 0
M  V30 4711 N 458.211 1.37122 0.776871 0
M  V30 4712 C 459.622 1.28667 1.35284 0
M  V30 4713 C 459.973 -0.0680035 1.96082 0
M  V30 4714 O 459.098 -0.969743 1.93455 0
M  V30 4715 C 459.693 2.32997 2.45963 0
M  V30 4716 C 458.252 2.28191 2.99342 0
M  V30 4717 C 457.399 2.17101 1.72517 0
M  V30 4718 H 460.35 1.47819 0.577527 0
M  V30 4719 H 460.371 1.97366 3.2531 0
M  V30 4720 H 459.883 3.3158 2.01684 0
M  V30 4721 H 457.984 1.33115 3.4801 0
M  V30 4722 H 458.097 3.21397 3.55304 0
M  V30 4723 H 456.461 1.63562 1.95242 0
M  V30 4724 H 457.244 3.17591 1.30348 0
M  V30 4725 N 459.689 -1.00246 1.21608 0
M  V30 4726 C 460.917 -1.77631 1.06089 0
M  V30 4727 C 461.332 -1.84746 -0.38916 0
M  V30 4728 O 460.689 -1.31068 -1.26994 0
M  V30 4729 C 460.74 -3.21415 1.65453 0
M  V30 4730 O 460.461 -3.14703 3.04785 0
M  V30 4731 C 461.962 -4.15289 1.55079 0
M  V30 4732 H 459.182 -0.558162 0.37242 0
M  V30 4733 H 461.726 -1.26093 1.60999 0
M  V30 4734 H 459.881 -3.70053 1.14629 0
M  V30 4735 H 460.295 -4.05056 3.33212 0
M  V30 4736 H 461.769 -5.13965 2.01355 0
M  V30 4737 H 462.246 -4.36279 0.505665 0
M  V30 4738 H 462.852 -3.72543 2.05163 0
M  V30 4739 N 461.167 -1.02423 -1.1978 0
M  V30 4740 C 462.13 -0.605703 -2.21052 0
M  V30 4741 C 463.13 0.328209 -1.57415 0
M  V30 4742 O 464.32 0.115853 -1.73814 0
M  V30 4743 C 461.452 0.114366 -3.40708 0
M  V30 4744 H 462.645 -1.5017 -2.59594 0
M  V30 4745 H 460.198 -0.814888 -1.33376 0
M  V30 4746 H 460.933 1.02492 -3.07678 0
M  V30 4747 H 460.718 -0.556641 -3.88129 0
M  V30 4748 H 462.208 0.394272 -4.15735 0
M  V30 4749 N 462.645 1.35699 -0.801477 0
M  V30 4750 C 463.595 2.2728 -0.181073 0
M  V30 4751 C 464.579 1.47533 0.642098 0
M  V30 4752 O 465.771 1.69785 0.500193 0
M  V30 4753 C 462.9 3.36626 0.673612 0
M  V30 4754 C 461.986 4.23802 -0.159008 0
M  V30 4755 N 462.377 4.90879 -1.2195 0
M  V30 4756 C 460.675 4.45959 0.0602005 0
M  V30 4757 C 461.376 5.5546 -1.72738 0
M  V30 4758 N 460.352 5.33663 -1.03465 0
M  V30 4759 H 464.154 2.76632 -0.992582 0
M  V30 4760 H 461.668 1.49166 -0.642127 0
M  V30 4761 H 463.665 4.01179 1.13408 0
M  V30 4762 H 462.325 2.88828 1.48353 0
M  V30 4763 H 463.336 4.92497 -1.60209 0
M  V30 4764 H 460.013 4.08969 0.839664 0
M  V30 4765 H 461.403 6.18991 -2.61342 0
M  V30 4766 N 464.123 0.554532 1.47522 0
M  V30 4767 C 465.369 0.0377449 2.03365 0
M  V30 4768 C 465.724 -1.29654 1.42154 0
M  V30 4769 O 465.017 -1.83022 0.566865 0
M  V30 4770 C 465.211 -0.115927 3.57212 0
M  V30 4771 C 465.04 1.20191 4.33341 0
M  V30 4772 C 463.81 1.76849 4.73342 0
M  V30 4773 C 466.008 2.11849 4.68641 0
M  V30 4774 N 463.99 3.02665 5.34104 0
M  V30 4775 C 465.361 3.22245 5.29677 0
M  V30 4776 C 467.416 2.11876 4.5057 0
M  V30 4777 C 466.119 4.32763 5.74551 0
M  V30 4778 C 468.145 3.21405 4.9644 0
M  V30 4779 C 467.507 4.30519 5.57523 0
M  V30 4780 H 463.606 0.0559107 0.779999 0
M  V30 4781 H 466.19 0.741232 1.80038 0
M  V30 4782 H 464.361 -0.788533 3.80311 0
M  V30 4783 H 466.093 -0.634538 3.99695 0
M  V30 4784 H 462.848 1.30681 4.55214 0
M  V30 4785 H 463.272 3.66788 5.69031 0
M  V30 4786 H 467.914 1.28801 4.02704 0
M  V30 4787 H 465.632 5.166 6.2141 0
M  V30 4788 H 469.218 3.22509 4.8423 0
M  V30 4789 H 468.098 5.13873 5.92371 0
M  V30 4790 N 465.601 -1.54893 0.290851 0
M  V30 4791 C 466.531 -2.26103 -0.583084 0
M  V30 4792 C 467.512 -1.25684 -1.14619 0
M  V30 4793 O 468.697 -1.54436 -1.17741 0
M  V30 4794 C 465.827 -2.99409 -1.75987 0
M  V30 4795 C 464.781 -4.0689 -1.32758 0
M  V30 4796 C 464.107 -4.67856 -2.58872 0
M  V30 4797 C 465.407 -5.20215 -0.46624 0
M  V30 4798 H 467.101 -2.99398 0.0108214 0
M  V30 4799 H 464.647 -1.43998 0.00664468 0
M  V30 4800 H 466.6 -3.47943 -2.37727 0
M  V30 4801 H 465.324 -2.23675 -2.37985 0
M  V30 4802 H 463.983 -3.59191 -0.733299 0
M  V30 4803 H 463.631 -3.88772 -3.19163 0
M  V30 4804 H 463.331 -5.40438 -2.30653 0
M  V30 4805 H 464.855 -5.19147 -3.21433 0
M  V30 4806 H 466.269 -5.64704 -0.989047 0
M  V30 4807 H 464.666 -5.99455 -0.27826 0
M  V30 4808 H 465.736 -4.82198 0.511173 0
M  V30 4809 N 467.08 -0.0183926 -1.57589 0
M  V30 4810 C 467.99 0.982943 -2.13015 0
M  V30 4811 C 469.006 1.36443 -1.07979 0
M  V30 4812 O 470.182 1.44802 -1.3998 0
M  V30 4813 C 467.247 2.25024 -2.63752 0
M  V30 4814 C 466.308 1.93018 -3.83461 0
M  V30 4815 C 465.541 3.13706 -4.31769 0
M  V30 4816 O 465.764 4.2601 -3.79305 0
M  V30 4817 O 464.698 2.96629 -5.23732 0
M  V30 4818 H 468.524 0.541709 -2.9883 0
M  V30 4819 H 466.109 0.201565 -1.48034 0
M  V30 4820 H 467.991 2.99441 -2.96502 0
M  V30 4821 H 466.666 2.68349 -1.81026 0
M  V30 4822 H 465.573 1.16019 -3.55655 0
M  V30 4823 H 466.906 1.54516 -4.67317 0
M  V30 4824 N 468.558 1.5553 0.254621 0
M  V30 4825 C 469.974 1.4778 0.602753 0
M  V30 4826 C 470.174 0.707047 1.88688 0
M  V30 4827 O 469.23 0.233288 2.5142 0
M  V30 4828 C 470.543 2.92133 0.712648 0
M  V30 4829 C 472.091 3.02458 0.805488 0
M  V30 4830 C 472.566 4.48102 0.947009 0
M  V30 4831 N 474.057 4.52008 1.01207 0
M  V30 4832 C 474.792 5.61939 1.1407 0
M  V30 4833 N 474.288 6.81697 1.23536 0
M  V30 4834 N 476.081 5.49719 1.17325 0
M  V30 4835 H 468.232 2.04085 -0.588463 0
M  V30 4836 H 470.495 0.926229 -0.202001 0
M  V30 4837 H 470.201 3.51332 -0.160766 0
M  V30 4838 H 470.075 3.42187 1.58707 0
M  V30 4839 H 472.462 2.43344 1.66936 0
M  V30 4840 H 472.543 2.55627 -0.0939266 0
M  V30 4841 H 472.187 5.07824 0.087725 0
M  V30 4842 H 472.117 4.92607 1.86135 0
M  V30 4843 H 474.608 3.65749 0.950577 0
M  V30 4844 H 474.921 7.61228 1.33236 0
M  V30 4845 H 473.266 6.84473 1.20508 0
M  V30 4846 H 476.457 4.55095 1.09573 0
M  V30 4847 H 476.63 6.35432 1.27005 0
M  V30 4848 N 470.036 -0.519951 1.48776 0
M  V30 4849 C 470.966 -1.63253 1.66945 0
M  V30 4850 C 471.947 -1.62014 0.518224 0
M  V30 4851 O 473.132 -1.79053 0.751919 0
M  V30 4852 C 470.262 -3.0181 1.71836 0
M  V30 4853 C 469.216 -3.17911 2.8656 0
M  V30 4854 C 468.542 -4.5763 2.76548 0
M  V30 4855 C 469.842 -2.99729 4.27738 0
M  V30 4856 H 471.536 -1.48302 2.6009 0
M  V30 4857 H 469.082 -0.712026 1.25165 0
M  V30 4858 H 471.035 -3.79525 1.83135 0
M  V30 4859 H 469.759 -3.17806 0.752775 0
M  V30 4860 H 468.418 -2.42616 2.74833 0
M  V30 4861 H 468.066 -4.70476 1.77937 0
M  V30 4862 H 467.766 -4.69346 3.53536 0
M  V30 4863 H 469.29 -5.37431 2.89828 0
M  V30 4864 H 470.704 -3.67228 4.40246 0
M  V30 4865 H 469.101 -3.22932 5.05801 0
M  V30 4866 H 470.171 -1.96047 4.43502 0
M  V30 4867 N 471.514 -1.37532 -0.769588 0
M  V30 4868 C 472.791 -1.23392 -1.51768 0
M  V30 4869 C 473.171 0.17157 -2.10402 0
M  V30 4870 O 472.519 1.17943 -1.95708 0
M  V30 4871 C 472.729 -2.33163 -2.59685 0
M  V30 4872 C 474.077 -2.70809 -3.27028 0
M  V30 4873 O 475.101 -2.32355 -2.69981 0
M  V30 4874 O 473.96 -3.37066 -4.30173 0
M  V30 4875 H 471.054 -0.481617 -0.67229 0
M  V30 4876 H 473.6 -1.49318 -0.806368 0
M  V30 4877 H 472.372 -3.27273 -2.14494 0
M  V30 4878 H 471.995 -2.08713 -3.38415 0
M  V30 4879 N 472.992 0.995999 -1.22138 0
M  V30 4880 C 473.922 2.10387 -1.01289 0
M  V30 4881 C 474.903 1.69975 0.0651454 0
M  V30 4882 O 476.088 1.9396 -0.0964628 0
M  V30 4883 C 473.218 3.42312 -0.586517 0
M  V30 4884 C 472.172 3.96558 -1.61014 0
M  V30 4885 C 471.498 5.24494 -1.0397 0
M  V30 4886 C 472.798 4.27595 -2.99933 0
M  V30 4887 H 474.492 2.28086 -1.93951 0
M  V30 4888 H 472.038 1.09607 -0.933928 0
M  V30 4889 H 473.991 4.19223 -0.427793 0
M  V30 4890 H 472.715 3.24431 0.375761 0
M  V30 4891 H 471.374 3.21776 -1.75658 0
M  V30 4892 H 471.022 5.02953 -0.0688703 0
M  V30 4893 H 470.722 5.61755 -1.72352 0
M  V30 4894 H 472.246 6.04042 -0.892494 0
M  V30 4895 H 473.66 4.95315 -2.8868 0
M  V30 4896 H 472.057 4.76021 -3.6541 0
M  V30 4897 H 473.127 3.35498 -3.50099 0
M  V30 4898 N 474.47 1.03057 1.19235 0
M  V30 4899 C 475.433 0.617418 2.20727 0
M  V30 4900 C 476.433 -0.319856 1.57587 0
M  V30 4901 O 477.623 -0.106633 1.73873 0
M  V30 4902 C 474.755 -0.096296 3.40764 0
M  V30 4903 H 475.948 1.51544 2.58794 0
M  V30 4904 H 473.501 0.821949 1.32942 0
M  V30 4905 H 474.236 -1.00859 3.08217 0
M  V30 4906 H 474.021 0.577217 3.87828 0
M  V30 4907 H 475.511 -0.372219 4.15938 0
M  V30 4908 N 475.948 -1.35272 0.808662 0
M  V30 4909 C 477.196 -1.98316 0.389233 0
M  V30 4910 C 477.517 -1.64465 -1.04767 0
M  V30 4911 O 476.787 -0.928175 -1.72516 0
M  V30 4912 H 475.367 -0.733585 0.140935 0
M  V30 4913 H 478.029 -1.6515 1.03496 0
M  V30 4914 H 477.125 -3.08123 0.496631 0
M  V30 4915 N 477.426 -0.562348 -1.47226 0
M  V30 4916 C 478.651 -0.0432632 -2.07355 0
M  V30 4917 C 479.076 1.24332 -1.41149 0
M  V30 4918 O 478.434 1.74603 -0.488226 0
M  V30 4919 C 478.482 0.130288 -3.60365 0
M  V30 4920 O 477.586 1.19166 -3.94808 0
M  V30 4921 H 476.927 -0.0536334 -0.66183 0
M  V30 4922 H 479.457 -0.779495 -1.89169 0
M  V30 4923 H 479.467 0.342881 -4.06557 0
M  V30 4924 H 478.142 -0.809389 -4.07948 0
M  V30 4925 H 476.719 0.959153 -3.60354 0
M  V30 4926 N 478.904 1.54736 -0.299062 0
M  V30 4927 C 480.15 2.00397 0.311244 0
M  V30 4928 C 480.483 1.18716 1.53688 0
M  V30 4929 O 479.758 0.263154 1.92712 0
M  V30 4930 C 480.041 3.53817 0.669761 0
M  V30 4931 C 479.894 4.46239 -0.564882 0
M  V30 4932 C 481.213 4.13856 1.49702 0
M  V30 4933 H 478.332 0.728493 0.111653 0
M  V30 4934 H 480.974 1.85506 -0.410774 0
M  V30 4935 H 479.124 3.66637 1.28491 0
M  V30 4936 H 480.796 4.45328 -1.20337 0
M  V30 4937 H 479.039 4.16916 -1.19849 0
M  V30 4938 H 479.71 5.5134 -0.269918 0
M  V30 4939 H 482.186 4.04461 0.977284 0
M  V30 4940 H 481.062 5.21365 1.71666 0
M  V30 4941 H 481.323 3.65608 2.48563 0
M  V30 4942 N 480.382 0.0267497 1.57577 0
M  V30 4943 C 481.631 -0.651736 1.9088 0
M  V30 4944 C 481.944 -1.73427 0.904576 0
M  V30 4945 O 483.15 -2.46923 1.12877 0
M  V30 4946 C 481.606 -1.21048 3.38933 0
M  V30 4947 C 481.214 -0.161362 4.47709 0
M  V30 4948 C 482.958 -1.86562 3.81307 0
M  V30 4949 C 480.865 -0.731611 5.86857 0
M  V30 4950 H 479.795 -0.247198 0.712326 0
M  V30 4951 H 482.446 0.0916641 1.83271 0
M  V30 4952 H 480.828 -2.00542 3.41466 0
M  V30 4953 H 482.002 0.61094 4.56732 0
M  V30 4954 H 480.317 0.394877 4.14523 0
M  V30 4955 H 482.914 -2.30178 4.8262 0
M  V30 4956 H 483.257 -2.70735 3.16241 0
M  V30 4957 H 483.79 -1.13762 3.81186 0
M  V30 4958 H 480.529 0.0719329 6.55461 0
M  V30 4959 H 480.049 -1.47245 5.81445 0
M  V30 4960 H 481.728 -1.22208 6.35354 0
M  V30 4961 N 481.861 -1.55662 -0.24637 0
M  V30 4962 C 482.771 -1.93495 -1.32653 0
M  V30 4963 C 483.787 -0.835462 -1.5263 0
M  V30 4964 O 484.963 -1.1369 -1.66242 0
M  V30 4965 C 482.028 -2.22242 -2.66101 0
M  V30 4966 C 481.089 -3.45625 -2.54641 0
M  V30 4967 C 480.322 -3.72991 -3.81724 0
M  V30 4968 O 480.545 -3.02421 -4.8363 0
M  V30 4969 O 479.479 -4.66515 -3.80325 0
M  V30 4970 H 483.305 -2.85498 -1.03559 0
M  V30 4971 H 480.89 -1.42551 -0.44717 0
M  V30 4972 H 482.772 -2.42037 -3.44958 0
M  V30 4973 H 481.447 -1.33417 -2.94926 0
M  V30 4974 H 480.354 -3.31136 -1.74067 0
M  V30 4975 H 481.687 -4.34754 -2.3076 0
M  V30 4976 N 483.339 0.512053 -1.4905 0
M  V30 4977 C 484.75 1.09376 -1.51307 0
M  V30 4978 C 485.101 1.94 -0.292971 0
M  V30 4979 O 484.226 2.07965 0.598277 0
M  V30 4980 C 484.821 1.99031 -2.74176 0
M  V30 4981 C 483.38 2.52385 -2.79247 0
M  V30 4982 C 482.527 1.29749 -2.45073 0
M  V30 4983 H 485.478 0.296467 -1.55906 0
M  V30 4984 H 485.499 2.83569 -2.53711 0
M  V30 4985 H 485.011 1.37412 -3.62959 0
M  V30 4986 H 483.112 3.17673 -1.94716 0
M  V30 4987 H 483.225 2.90293 -3.81139 0
M  V30 4988 H 481.589 1.61912 -1.96612 0
M  V30 4989 H 482.372 0.698555 -3.36118 0
M  V30 4990 N 484.817 1.37938 0.762283 0
M  V30 4991 C 486.045 1.36883 1.55147 0
M  V30 4992 C 486.46 -0.0435348 1.8875 0
M  V30 4993 O 485.817 -1.00786 1.52146 0
M  V30 4994 C 485.868 2.21624 2.85596 0
M  V30 4995 O 485.589 3.57358 2.5343 0
M  V30 4996 C 487.09 2.28653 3.7978 0
M  V30 4997 H 484.31 0.468521 0.480343 0
M  V30 4998 H 486.854 1.81404 0.944079 0
M  V30 4999 H 485.009 1.80588 3.42734 0
M  V30 5000 H 485.423 4.01883 3.37032 0
M  V30 5001 H 486.897 2.9225 4.68288 0
M  V30 5002 H 487.374 1.29767 4.19592 0
M  V30 5003 H 487.98 2.70043 3.28568 0
M  V30 5004 N 486.295 -0.989507 1.22664 0
M  V30 5005 C 487.225 -2.09847 1.02404 0
M  V30 5006 C 488.206 -1.70007 -0.0561303 0
M  V30 5007 O 489.391 -1.93906 0.106748 0
M  V30 5008 C 486.521 -3.41996 0.604663 0
M  V30 5009 C 485.475 -3.95699 1.63115 0
M  V30 5010 C 484.801 -5.23936 1.0675 0
M  V30 5011 C 486.101 -4.25999 3.02196 0
M  V30 5012 H 487.795 -2.27054 1.95158 0
M  V30 5013 H 485.341 -1.09111 0.939727 0
M  V30 5014 H 487.294 -4.1899 0.45002 0
M  V30 5015 H 486.018 -3.24626 -0.35855 0
M  V30 5016 H 484.677 -3.2084 1.77362 0
M  V30 5017 H 484.325 -5.02909 0.0955422 0
M  V30 5018 H 484.025 -5.60833 1.75328 0
M  V30 5019 H 485.549 -6.0356 0.924516 0
M  V30 5020 H 486.963 -4.93777 2.91303 0
M  V30 5021 H 485.36 -4.74076 3.67929 0
M  V30 5022 H 486.43 -3.33636 3.51873 0
M  V30 5023 N 487.773 -1.03688 -1.18687 0
M  V30 5024 C 489.001 -0.757918 -1.92518 0
M  V30 5025 C 489.416 0.684398 -1.75959 0
M  V30 5026 O 488.773 1.46617 -1.08673 0
M  V30 5027 C 488.824 -1.10985 -3.44042 0
M  V30 5028 O 488.545 -2.49554 -3.60076 0
M  V30 5029 C 490.046 -0.854844 -4.3498 0
M  V30 5030 H 487.266 -0.276699 -0.611293 0
M  V30 5031 H 489.81 -1.38352 -1.50595 0
M  V30 5032 H 487.965 -0.529279 -3.83767 0
M  V30 5033 H 488.379 -2.6291 -4.53849 0
M  V30 5034 H 489.853 -1.15098 -5.39867 0
M  V30 5035 H 490.33 0.210507 -4.38695 0
M  V30 5036 H 490.936 -1.41853 -4.00946 0
M  V30 5037 N 489.251 1.34841 -0.815825 0
M  V30 5038 C 490.498 1.98499 -0.400535 0
M  V30 5039 C 490.826 1.64699 1.03463 0
M  V30 5040 O 490.081 0.907006 1.73412 0
M  V30 5041 C 490.38 3.53273 -0.541541 0
M  V30 5042 C 490.046 4.06966 -1.94138 0
M  V30 5043 C 488.708 4.21341 -2.32433 0
M  V30 5044 C 491.06 4.35933 -2.85677 0
M  V30 5045 C 488.388 4.62007 -3.61617 0
M  V30 5046 C 490.74 4.78042 -4.14317 0
M  V30 5047 C 489.404 4.90622 -4.52599 0
M  V30 5048 H 488.674 0.72636 -0.146566 0
M  V30 5049 H 491.321 1.60902 -1.0384 0
M  V30 5050 H 489.626 3.91387 0.179741 0
M  V30 5051 H 491.323 4.00497 -0.20085 0
M  V30 5052 H 487.913 3.96235 -1.63388 0
M  V30 5053 H 492.097 4.24372 -2.57337 0
M  V30 5054 H 487.353 4.69937 -3.91113 0
M  V30 5055 H 491.527 4.99415 -4.85342 0
M  V30 5056 H 489.154 5.2189 -5.52752 0
M  V30 5057 N 490.729 0.570148 1.46925 0
M  V30 5058 C 491.639 -0.173061 2.33961 0
M  V30 5059 C 492.655 -0.898825 1.48987 0
M  V30 5060 O 493.831 -0.864825 1.81887 0
M  V30 5061 C 490.896 -1.18177 3.25937 0
M  V30 5062 C 489.957 -0.462041 4.26806 0
M  V30 5063 C 489.19 -1.4227 5.14388 0
M  V30 5064 O 489.413 -2.65842 5.04662 0
M  V30 5065 O 488.347 -0.940127 5.94513 0
M  V30 5066 H 492.173 0.541216 2.98839 0
M  V30 5067 H 489.758 0.330647 1.45695 0
M  V30 5068 H 491.64 -1.76372 3.82715 0
M  V30 5069 H 490.315 -1.87774 2.63671 0
M  V30 5070 H 489.222 0.161429 3.73752 0
M  V30 5071 H 490.555 0.192719 4.91823 0
M  V30 5072 N 492.207 -1.54576 0.307264 0
M  V30 5073 C 493.455 -1.99867 -0.299574 0
M  V30 5074 C 493.776 -1.19714 -1.53927 0
M  V30 5075 O 493.046 -0.29472 -1.9367 0
M  V30 5076 H 491.626 -0.738299 -0.113683 0
M  V30 5077 H 494.288 -1.9032 0.420042 0
M  V30 5078 H 493.384 -3.06901 -0.567283 0
M  V30 5079 N 493.685 -0.035106 -1.57561 0
M  V30 5080 C 494.933 0.64096 -1.91667 0
M  V30 5081 C 495.254 1.72323 -0.912681 0
M  V30 5082 O 494.524 1.95849 0.0449089 0
M  V30 5083 H 493.104 0.239743 -0.707483 0
M  V30 5084 H 495.766 -0.084321 -1.94718 0
M  V30 5085 H 494.862 1.08987 -2.92452 0
M  V30 5086 N 495.163 1.55791 0.238111 0
M  V30 5087 C 496.111 1.91885 1.31464 0
M  V30 5088 C 497.105 0.798929 1.49377 0
M  V30 5089 O 498.311 0.983626 1.50747 0
M  V30 5090 H 494.686 0.609551 0.440399 0
M  V30 5091 H 496.657 2.81747 0.982925 0
M  V30 5092 C 495.406 2.23763 2.6613 0
M  V30 5093 H 494.729 3.09444 2.53149 0
M  V30 5094 H 496.169 2.52915 3.40309 0
M  V30 5095 C 494.628 1.05699 3.1989 0
M  V30 5096 O 495.158 0.309524 4.00506 0
M  V30 5097 N 493.364 0.845251 2.78036 0
M  V30 5098 H 492.911 1.4548 2.12588 0
M  V30 5099 H 492.869 0.0569973 3.14348 0
M  V30 5100 N 496.642 -0.504142 1.49319 0
M  V30 5101 C 497.605 -1.5883 1.65244 0
M  V30 5102 C 498.605 -1.52009 0.524386 0
M  V30 5103 O 499.795 -1.55218 0.79077 0
M  V30 5104 C 496.927 -2.98481 1.64687 0
M  V30 5105 H 498.12 -1.4604 2.61939 0
M  V30 5106 H 495.673 -0.728144 1.38303 0
M  V30 5107 H 496.408 -3.16751 0.695644 0
M  V30 5108 H 496.193 -3.0484 2.46607 0
M  V30 5109 H 497.683 -3.77256 1.79075 0
M  V30 5110 N 498.12 -1.38341 -0.754957 0
M  V30 5111 C 499.366 -1.34672 -1.51628 0
M  V30 5112 C 499.699 0.0636036 -1.94096 0
M  V30 5113 O 498.974 1.0245 -1.6533 0
M  V30 5114 C 499.257 -2.30116 -2.76981 0
M  V30 5115 C 499.11 -3.80003 -2.4066 0
M  V30 5116 C 500.429 -2.23715 -3.78998 0
M  V30 5117 H 497.548 -0.490517 -0.550056 0
M  V30 5118 H 500.19 -1.69178 -0.864807 0
M  V30 5119 H 498.34 -2.00821 -3.3257 0
M  V30 5120 H 500.012 -4.19966 -1.90856 0
M  V30 5121 H 498.255 -3.97751 -1.73137 0
M  V30 5122 H 498.926 -4.42244 -3.30339 0
M  V30 5123 H 501.402 -2.49574 -3.32945 0
M  V30 5124 H 500.278 -2.9261 -4.64403 0
M  V30 5125 H 500.539 -1.23554 -4.24484 0
M  V30 5126 N 499.598 0.982988 -1.23187 0
M  V30 5127 C 500.847 1.71817 -1.05649 0
M  V30 5128 C 501.16 1.91315 0.407176 0
M  V30 5129 O 502.366 2.62256 0.702436 0
M  V30 5130 C 500.822 3.09188 -1.84203 0
M  V30 5131 C 500.43 2.97586 -3.34882 0
M  V30 5132 C 502.174 3.86684 -1.75146 0
M  V30 5133 C 500.081 4.30173 -4.05839 0
M  V30 5134 H 499.011 0.644258 -0.391724 0
M  V30 5135 H 501.662 1.09659 -1.4713 0
M  V30 5136 H 500.044 3.72087 -1.35527 0
M  V30 5137 H 501.218 2.43793 -3.91026 0
M  V30 5138 H 499.533 2.33567 -3.44725 0
M  V30 5139 H 502.13 4.84836 -2.25473 0
M  V30 5140 H 502.473 4.10136 -0.713737 0
M  V30 5141 H 503.006 3.30482 -2.21419 0
M  V30 5142 H 499.745 4.11918 -5.09906 0
M  V30 5143 H 499.265 4.83841 -3.54482 0
M  V30 5144 H 500.944 4.98873 -4.11989 0
M  V30 5145 N 501.076 1.04316 1.18135 0
M  V30 5146 C 502.487 0.775505 1.69832 0
M  V30 5147 C 502.838 -0.703348 1.8316 0
M  V30 5148 O 501.963 -1.54729 1.51287 0
M  V30 5149 C 502.558 1.40112 3.0847 0
M  V30 5150 C 501.117 1.18172 3.57368 0
M  V30 5151 C 500.264 1.49022 2.33854 0
M  V30 5152 H 503.215 1.20925 1.02775 0
M  V30 5153 H 503.236 0.805672 3.71873 0
M  V30 5154 H 502.748 2.47744 2.98738 0
M  V30 5155 H 500.849 0.124258 3.72393 0
M  V30 5156 H 500.962 1.8805 4.40652 0
M  V30 5157 H 499.326 0.909995 2.37889 0
M  V30 5158 H 500.109 2.57768 2.26738 0
M  V30 5159 N 502.554 -1.34406 0.822964 0
M  V30 5160 C 503.831 -1.92733 0.333641 0
M  V30 5161 C 504.211 -1.75107 -1.17901 0
M  V30 5162 O 503.559 -1.12983 -1.98613 0
M  V30 5163 C 503.769 -3.40557 0.763023 0
M  V30 5164 C 505.117 -4.17709 0.761879 0
M  V30 5165 O 506.141 -3.49141 0.705606 0
M  V30 5166 O 505 -5.40082 0.835109 0
M  V30 5167 H 502.094 -0.821964 0.0911249 0
M  V30 5168 H 504.64 -1.4338 0.907757 0
M  V30 5169 H 503.412 -3.47187 1.8049 0
M  V30 5170 H 503.035 -3.97259 0.164605 0
M  V30 5171 N 504.032 -0.577932 -1.46621 0
M  V30 5172 C 504.962 0.145917 -2.33044 0
M  V30 5173 C 505.943 0.888412 -1.45056 0
M  V30 5174 O 507.128 0.864812 -1.73881 0
M  V30 5175 C 504.258 1.16322 -3.27241 0
M  V30 5176 C 503.212 0.535868 -4.24632 0
M  V30 5177 C 502.538 1.65929 -5.08303 0
M  V30 5178 C 503.838 -0.523861 -5.19666 0
M  V30 5179 H 505.532 -0.575636 -2.93814 0
M  V30 5180 H 503.078 -0.278272 -1.41286 0
M  V30 5181 H 505.031 1.67793 -3.86553 0
M  V30 5182 H 503.755 1.91498 -2.64567 0
M  V30 5183 H 502.414 0.0422759 -3.66576 0
M  V30 5184 H 502.062 2.40061 -4.42018 0
M  V30 5185 H 501.762 1.2452 -5.74255 0
M  V30 5186 H 503.286 2.17686 -5.70478 0
M  V30 5187 H 504.7 -0.0944059 -5.73222 0
M  V30 5188 H 503.097 -0.858 -5.93935 0
M  V30 5189 H 504.167 -1.41197 -4.63887 0
M  V30 5190 N 505.51 1.54411 -0.315457 0
M  V30 5191 C 506.921 1.85885 0.174265 0
M  V30 5192 C 507.272 1.23723 1.52273 0
M  V30 5193 O 506.397 0.540246 2.09548 0
M  V30 5194 C 506.992 3.37257 0.322981 0
M  V30 5195 C 505.551 3.68711 0.756922 0
M  V30 5196 C 504.698 2.77013 -0.126195 0
M  V30 5197 H 507.649 1.49374 -0.536007 0
M  V30 5198 H 507.67 3.62539 1.15522 0
M  V30 5199 H 507.182 3.82471 -0.658602 0
M  V30 5200 H 505.283 3.29024 1.74854 0
M  V30 5201 H 505.396 4.75741 0.566291 0
M  V30 5202 H 503.76 2.51588 0.39692 0
M  V30 5203 H 504.543 3.25051 -1.1044 0
M  V30 5204 N 506.988 0.0434614 1.5754 0
M  V30 5205 C 508.236 -0.630786 1.92004 0
M  V30 5206 C 508.557 -1.71836 0.921807 0
M  V30 5207 O 507.827 -1.9587 -0.034522 0
M  V30 5208 H 506.407 -0.235988 0.708745 0
M  V30 5209 H 509.069 0.0946462 1.9467 0
M  V30 5210 H 508.165 -1.07434 2.93026 0
M  V30 5211 N 508.466 -1.55915 -0.229846 0
M  V30 5212 C 509.712 -1.78807 -0.956868 0
M  V30 5213 C 510.045 -0.611687 -1.84315 0
M  V30 5214 O 509.32 0.389398 -1.90562 0
M  V30 5215 C 509.603 -3.11718 -1.80288 0
M  V30 5216 C 509.456 -4.3979 -0.943649 0
M  V30 5217 C 510.775 -3.40999 -2.78222 0
M  V30 5218 H 507.894 -0.6505 -0.346437 0
M  V30 5219 H 510.536 -1.88648 -0.226252 0
M  V30 5220 H 508.686 -3.03459 -2.42579 0
M  V30 5221 H 510.358 -4.60059 -0.338121 0
M  V30 5222 H 508.601 -4.33086 -0.248705 0
M  V30 5223 H 509.272 -5.29208 -1.5698 0
M  V30 5224 H 511.748 -3.49332 -2.26067 0
M  V30 5225 H 510.624 -4.35183 -3.34526 0
M  V30 5226 H 510.885 -2.62754 -3.55546 0
M  V30 5227 N 509.944 0.496216 -1.49584 0
M  V30 5228 C 511.192 1.24756 -1.58998 0
M  V30 5229 C 511.513 1.92968 -0.280775 0
M  V30 5230 O 510.783 1.82959 0.700198 0
M  V30 5231 H 509.363 0.463471 -0.585836 0
M  V30 5232 H 512.025 0.574678 -1.86235 0
M  V30 5233 H 511.121 2.00895 -2.38847 0
M  V30 5234 N 511.423 1.38739 0.74761 0
M  V30 5235 C 512.672 1.3459 1.50228 0
M  V30 5236 C 512.985 -0.0595592 1.95509 0
M  V30 5237 O 514.191 -0.22361 2.70578 0
M  V30 5238 C 512.647 2.36377 2.71393 0
M  V30 5239 C 512.255 3.82573 2.33113 0
M  V30 5240 C 513.999 2.41281 3.49262 0
M  V30 5241 C 511.906 4.76032 3.50924 0
M  V30 5242 H 510.836 0.500312 0.564096 0
M  V30 5243 H 513.487 1.64324 0.8167 0
M  V30 5244 H 511.869 1.99694 3.41962 0
M  V30 5245 H 513.043 4.28227 1.70171 0
M  V30 5246 H 511.358 3.80844 1.68365 0
M  V30 5247 H 513.955 3.08301 4.36869 0
M  V30 5248 H 514.298 1.43353 3.9084 0
M  V30 5249 H 514.831 2.76793 2.85711 0
M  V30 5250 H 511.57 5.75177 3.14408 0
M  V30 5251 H 511.09 4.35066 4.12889 0
M  V30 5252 H 512.769 4.94331 4.17427 0
M  V30 5253 N 512.901 -0.976442 1.23707 0
M  V30 5254 C 514.15 -1.71254 1.06559 0
M  V30 5255 C 514.463 -1.91528 -0.397024 0
M  V30 5256 O 515.669 -2.62625 -0.688518 0
M  V30 5257 C 514.125 -3.08207 1.8584 0
M  V30 5258 C 513.733 -2.95806 3.36456 0
M  V30 5259 C 515.477 -3.85749 1.77194 0
M  V30 5260 C 513.384 -4.28015 4.08114 0
M  V30 5261 H 512.314 -0.642171 0.395136 0
M  V30 5262 H 514.965 -1.08877 1.4771 0
M  V30 5263 H 513.347 -3.71363 1.37498 0
M  V30 5264 H 514.521 -2.41716 3.92314 0
M  V30 5265 H 512.836 -2.31736 3.45959 0
M  V30 5266 H 515.433 -4.83633 2.28041 0
M  V30 5267 H 515.776 -4.09752 0.735477 0
M  V30 5268 H 516.309 -3.29303 2.23169 0
M  V30 5269 H 513.048 -4.09208 5.12083 0
M  V30 5270 H 512.568 -4.81955 3.57043 0
M  V30 5271 H 514.247 -4.96681 4.14629 0
M  V30 5272 N 514.379 -1.04941 -1.1758 0
M  V30 5273 C 515.625 -0.768896 -1.88307 0
M  V30 5274 C 515.98 0.696361 -1.79356 0
M  V30 5275 O 515.273 1.50245 -1.18899 0
M  V30 5276 C 515.467 -1.18062 -3.37337 0
M  V30 5277 C 515.296 -2.68436 -3.60794 0
M  V30 5278 C 514.066 -3.35709 -3.77661 0
M  V30 5279 C 516.264 -3.66657 -3.60649 0
M  V30 5280 N 514.246 -4.74974 -3.88939 0
M  V30 5281 C 515.617 -4.91638 -3.77747 0
M  V30 5282 C 517.672 -3.60162 -3.43785 0
M  V30 5283 C 516.375 -6.10902 -3.79726 0
M  V30 5284 C 518.401 -4.78863 -3.47051 0
M  V30 5285 C 517.763 -6.02666 -3.64654 0
M  V30 5286 H 513.862 -0.33355 -0.707296 0
M  V30 5287 H 516.446 -1.34085 -1.41171 0
M  V30 5288 H 514.617 -0.636648 -3.83147 0
M  V30 5289 H 516.349 -0.8502 -3.95669 0
M  V30 5290 H 513.104 -2.8611 -3.77409 0
M  V30 5291 H 513.528 -5.47378 -3.98379 0
M  V30 5292 H 518.17 -2.65412 -3.29114 0
M  V30 5293 H 515.888 -7.05998 -3.93182 0
M  V30 5294 H 519.474 -4.75488 -3.35265 0
M  V30 5295 H 518.354 -6.92979 -3.67083 0
M  V30 5296 N 515.857 1.33968 -0.830081 0
M  V30 5297 C 517.273 1.51003 -0.516742 0
M  V30 5298 C 517.473 1.77286 0.957694 0
M  V30 5299 O 516.529 1.82797 1.74188 0
M  V30 5300 C 517.842 2.67036 -1.38247 0
M  V30 5301 C 519.39 2.80919 -1.38034 0
M  V30 5302 C 519.865 4.00004 -2.23071 0
M  V30 5303 N 521.356 4.07224 -2.20733 0
M  V30 5304 C 522.091 4.98541 -2.83275 0
M  V30 5305 N 521.587 5.95033 -3.54835 0
M  V30 5306 N 523.38 4.91469 -2.72791 0
M  V30 5307 H 515.531 1.15168 -1.78466 0
M  V30 5308 H 517.794 0.565443 -0.760906 0
M  V30 5309 H 517.5 2.54266 -2.42985 0
M  V30 5310 H 517.374 3.62226 -1.05225 0
M  V30 5311 H 519.761 2.93127 -0.340713 0
M  V30 5312 H 519.842 1.86517 -1.75057 0
M  V30 5313 H 519.486 3.88557 -3.27087 0
M  V30 5314 H 519.416 4.93634 -1.83394 0
M  V30 5315 H 521.907 3.38162 -1.68687 0
M  V30 5316 H 522.22 6.61357 -3.99784 0
M  V30 5317 H 520.565 5.95135 -3.58942 0
M  V30 5318 H 523.756 4.15048 -2.16456 0
M  V30 5319 H 523.929 5.62439 -3.21818 0
M  V30 5320 N 517.335 0.585699 1.46312 0
M  V30 5321 C 518.245 -0.148236 2.34131 0
M  V30 5322 C 519.261 -0.882972 1.49932 0
M  V30 5323 O 520.437 -0.845484 1.82794 0
M  V30 5324 C 517.502 -1.14714 3.27172 0
M  V30 5325 C 516.563 -0.416746 4.27272 0
M  V30 5326 C 515.796 -1.36806 5.15868 0
M  V30 5327 O 516.019 -2.60475 5.07454 0
M  V30 5328 O 514.953 -0.877018 5.95476 0
M  V30 5329 H 518.779 0.572882 2.98248 0
M  V30 5330 H 516.364 0.346082 1.45336 0
M  V30 5331 H 518.246 -1.72303 3.84564 0
M  V30 5332 H 516.921 -1.84967 2.65648 0
M  V30 5333 H 515.828 0.201061 3.73559 0
M  V30 5334 H 517.161 0.244872 4.9159 0
M  V30 5335 N 518.813 -1.54241 0.323641 0
M  V30 5336 C 519.76 -2.24339 -0.542277 0
M  V30 5337 C 520.73 -1.23421 -1.11159 0
M  V30 5338 O 521.915 -1.52104 -1.15192 0
M  V30 5339 C 519.055 -3.00479 -1.69725 0
M  V30 5340 C 518.168 -4.16214 -1.15716 0
M  V30 5341 C 517.303 -4.79884 -2.27783 0
M  V30 5342 C 516.342 -5.87722 -1.71023 0
M  V30 5343 N 515.479 -6.45254 -2.76752 0
M  V30 5344 H 520.319 -2.97935 0.0620613 0
M  V30 5345 H 517.856 -1.47039 0.0423993 0
M  V30 5346 H 519.814 -3.42869 -2.3769 0
M  V30 5347 H 518.444 -2.29217 -2.27288 0
M  V30 5348 H 517.496 -3.78605 -0.369063 0
M  V30 5349 H 518.808 -4.93838 -0.701832 0
M  V30 5350 H 517.962 -5.25243 -3.03651 0
M  V30 5351 H 516.701 -4.01641 -2.76652 0
M  V30 5352 H 515.706 -5.41765 -0.936518 0
M  V30 5353 H 516.931 -6.67863 -1.2303 0
M  V30 5354 H 514.877 -5.69884 -3.24912 0
M  V30 5355 H 514.794 -7.18292 -2.35782 0
M  V30 5356 H 516.062 -6.95269 -3.5245 0
M  V30 5357 N 520.291 -0.0518155 -1.57515 0
M  V30 5358 C 521.201 0.937539 -2.15052 0
M  V30 5359 C 522.217 1.34121 -1.10849 0
M  V30 5360 O 523.393 1.418 -1.4302 0
M  V30 5361 C 520.458 2.19379 -2.68466 0
M  V30 5362 C 519.519 1.84841 -3.87469 0
M  V30 5363 C 518.752 3.04477 -4.38326 0
M  V30 5364 O 518.975 4.17868 -3.88256 0
M  V30 5365 O 517.909 2.85453 -5.29906 0
M  V30 5366 H 521.735 0.478201 -2.99912 0
M  V30 5367 H 519.32 0.17012 -1.48428 0
M  V30 5368 H 521.202 2.93084 -3.02787 0
M  V30 5369 H 519.877 2.64449 -1.86677 0
M  V30 5370 H 518.784 1.08449 -3.58036 0
M  V30 5371 H 520.117 1.44569 -4.7049 0
M  V30 5372 N 521.769 1.56035 0.221574 0
M  V30 5373 C 523.018 1.78245 0.944016 0
M  V30 5374 C 523.331 0.620371 1.85501 0
M  V30 5375 O 524.537 0.726103 2.6161 0
M  V30 5376 C 522.993 3.15659 1.7288 0
M  V30 5377 C 522.601 4.39591 0.863942 0
M  V30 5378 C 524.345 3.47195 2.44246 0
M  V30 5379 C 522.252 5.6803 1.64607 0
M  V30 5380 H 521.182 0.664547 0.356222 0
M  V30 5381 H 523.833 1.8243 0.197904 0
M  V30 5382 H 522.215 3.0565 2.51781 0
M  V30 5383 H 523.389 4.60655 0.115464 0
M  V30 5384 H 521.704 4.15572 0.262407 0
M  V30 5385 H 524.301 4.40381 3.03263 0
M  V30 5386 H 524.644 2.69693 3.1713 0
M  V30 5387 H 525.177 3.58533 1.72334 0
M  V30 5388 H 521.916 6.48425 0.960507 0
M  V30 5389 H 521.436 5.51027 2.36917 0
M  V30 5390 H 523.115 6.08203 2.20675 0
M  V30 5391 N 523.247 -0.488276 1.49845 0
M  V30 5392 C 524.495 -1.23911 1.59657 0
M  V30 5393 C 524.816 -1.92816 0.291005 0
M  V30 5394 O 524.086 -1.83328 -0.690485 0
M  V30 5395 H 522.666 -0.460357 0.588286 0
M  V30 5396 H 525.328 -0.564794 1.86537 0
M  V30 5397 H 524.424 -1.99625 2.39909 0
M  V30 5398 N 524.725 -1.39134 -0.740242 0
M  V30 5399 C 525.672 -1.37434 -1.8542 0
M  V30 5400 C 526.642 -0.234822 -1.64432 0
M  V30 5401 O 527.827 -0.429125 -1.85912 0
M  V30 5402 C 524.967 -1.21844 -3.22875 0
M  V30 5403 C 524.08 -2.45296 -3.55603 0
M  V30 5404 C 523.215 -2.22334 -4.82432 0
M  V30 5405 C 522.254 -3.41488 -5.07988 0
M  V30 5406 N 521.391 -3.17877 -6.26018 0
M  V30 5407 H 526.231 -2.3266 -1.86207 0
M  V30 5408 H 523.768 -1.15578 -0.909946 0
M  V30 5409 H 525.726 -1.10818 -4.02213 0
M  V30 5410 H 524.356 -0.3025 -3.21379 0
M  V30 5411 H 523.408 -2.66945 -2.71006 0
M  V30 5412 H 524.72 -3.34063 -3.7041 0
M  V30 5413 H 523.874 -2.0852 -5.69741 0
M  V30 5414 H 522.613 -1.30954 -4.6979 0
M  V30 5415 H 521.618 -3.55807 -4.19144 0
M  V30 5416 H 522.843 -4.33763 -5.22519 0
M  V30 5417 H 520.789 -2.29156 -6.14673 0
M  V30 5418 H 520.706 -4.00198 -6.41387 0
M  V30 5419 H 521.974 -3.07746 -7.16179 0
M  V30 5420 N 526.204 0.969867 -1.24223 0
M  V30 5421 C 527.434 1.74502 -1.106 0
M  V30 5422 C 527.842 1.86038 0.344483 0
M  V30 5423 O 527.185 1.3465 1.24961 0
M  V30 5424 C 527.247 3.18391 -1.66935 0
M  V30 5425 C 526.911 3.30334 -3.15798 0
M  V30 5426 C 527.908 3.15832 -4.12973 0
M  V30 5427 C 525.593 3.54644 -3.55715 0
M  V30 5428 C 527.587 3.25461 -5.48045 0
M  V30 5429 C 525.274 3.63912 -4.90929 0
M  V30 5430 C 526.272 3.49332 -5.86904 0
M  V30 5431 O 525.96 3.58251 -7.1966 0
M  V30 5432 H 525.692 0.554119 -0.387206 0
M  V30 5433 H 528.246 1.22646 -1.64764 0
M  V30 5434 H 526.476 3.71543 -1.07203 0
M  V30 5435 H 528.165 3.77707 -1.48634 0
M  V30 5436 H 528.931 2.96937 -3.83476 0
M  V30 5437 H 524.81 3.65059 -2.81519 0
M  V30 5438 H 528.354 3.13998 -6.22937 0
M  V30 5439 H 524.251 3.82319 -5.20098 0
M  V30 5440 H 525.019 3.7498 -7.27552 0
M  V30 5441 N 527.682 1.05563 1.17022 0
M  V30 5442 C 528.612 0.681026 2.23348 0
M  V30 5443 C 529.593 -0.322983 1.67005 0
M  V30 5444 O 530.778 -0.199746 1.9317 0
M  V30 5445 C 527.908 0.0589053 3.4725 0
M  V30 5446 C 526.862 0.988082 4.16438 0
M  V30 5447 C 526.188 0.229646 5.34207 0
M  V30 5448 C 527.488 2.31388 4.68249 0
M  V30 5449 H 529.182 1.56993 2.54938 0
M  V30 5450 H 526.728 0.756302 1.2254 0
M  V30 5451 H 528.681 -0.214982 4.20851 0
M  V30 5452 H 527.405 -0.864968 3.14938 0
M  V30 5453 H 526.064 1.24659 3.44754 0
M  V30 5454 H 525.712 -0.697111 4.98146 0
M  V30 5455 H 525.412 0.848815 5.81437 0
M  V30 5456 H 526.936 -0.0368694 6.10589 0
M  V30 5457 H 528.35 2.09964 5.33468 0
M  V30 5458 H 526.747 2.88736 5.26072 0
M  V30 5459 H 527.817 2.94982 3.84855 0
M  V30 5460 N 529.16 -1.33526 0.837174 0
M  V30 5461 C 530.406 -1.9813 0.432704 0
M  V30 5462 C 530.739 -1.66168 -1.00508 0
M  V30 5463 O 530.014 -0.94069 -1.70239 0
M  V30 5464 C 530.297 -3.54151 0.651834 0
M  V30 5465 C 530.15 -3.95806 2.13676 0
M  V30 5466 C 531.469 -4.39993 0.0968937 0
M  V30 5467 H 528.588 -0.719713 0.15869 0
M  V30 5468 H 531.23 -1.58193 1.05237 0
M  V30 5469 H 529.38 -3.88301 0.124369 0
M  V30 5470 H 531.052 -3.71921 2.72896 0
M  V30 5471 H 529.295 -3.45599 2.62191 0
M  V30 5472 H 529.966 -5.0447 2.24084 0
M  V30 5473 H 532.442 -4.12479 0.547733 0
M  V30 5474 H 531.318 -5.48186 0.279917 0
M  V30 5475 H 531.579 -4.3066 -0.9992 0
M  V30 5476 O 530.677 -0.734023 -1.43855 0
M  V30 5477 H 531.368 -0.285275 -1.91588 0
M  V30 END ATOM
M  V30 BEGIN BOND
M  V30 END BOND
M  V30 END CTAB
M  END
$$$$
