drugbank_target|P54284 Voltage-dependent L-type calcium channel subunit beta-3 (DB00252; DB00653; DB00825; DB09089; DB09231; DB09232; DB09236; DB09238; DB13746)
 OpenBabel12092120093D

  0  0  0     0  0            999 V3000
M  V30 BEGIN CTAB
M  V30 COUNTS 7583 7669 0 0 0
M  V30 BEGIN ATOM
M  V30 1 H -0.908 1.98254 -0.117106 0
M  V30 2 N 0 1.576 0 0
M  V30 3 C 0.933 2.03868 1.02534 0
M  V30 4 C 1.911 0.928543 1.3348 0
M  V30 5 O 3.095 1.19667 1.45644 0
M  V30 6 C 0.222 2.43627 2.35294 0
M  V30 7 C -0.732 3.65373 2.2001 0
M  V30 8 S 0.101 5.13292 1.52614 0
M  V30 9 C 1.257 5.56322 2.86805 0
M  V30 10 H 1.49 2.90518 0.631377 0
M  V30 11 H -0.977 1.52953 0.210867 0
M  V30 12 H 0.981 2.67203 3.11629 0
M  V30 13 H -0.358 1.57376 2.7183 0
M  V30 14 H -1.165 3.90944 3.18086 0
M  V30 15 H -1.563 3.418 1.51819 0
M  V30 16 H 0.729 5.58782 3.83104 0
M  V30 17 H 1.672 6.56266 2.65933 0
M  V30 18 H 2.08 4.83886 2.90714 0
M  V30 19 N 1.4781 -0.272755 1.55222 0
M  V30 20 C 2.7081 -1.02107 1.79604 0
M  V30 21 C 3.1161 -1.80419 0.569693 0
M  V30 22 O 2.4591 -1.77566 -0.470743 0
M  V30 23 C 2.5211 -2.02675 2.96922 0
M  V30 24 C 2.1851 -1.43299 4.33952 0
M  V30 25 C 3.1821 -0.84853 5.12929 0
M  V30 26 C 0.8671 -1.46012 4.8061 0
M  V30 27 C 2.8611 -0.299109 6.36698 0
M  V30 28 C 0.5481 -0.906833 6.04334 0
M  V30 29 C 1.5461 -0.32733 6.82215 0
M  V30 30 O 1.2341 0.217479 8.03606 0
M  V30 31 H 0.9661 -0.307322 0.602104 0
M  V30 32 H 3.5201 -0.308862 2.03065 0
M  V30 33 H 1.7501 -2.77656 2.69155 0
M  V30 34 H 3.4391 -2.63637 3.08626 0
M  V30 35 H 4.2051 -0.820265 4.78013 0
M  V30 36 H 0.0841 -1.90056 4.2 0
M  V30 37 H 3.6281 0.153852 6.9743 0
M  V30 38 H -0.4749 -0.932339 6.38731 0
M  V30 39 H 0.2931 0.106863 8.1843 0
M  V30 40 N 2.9562 -1.48159 -0.537278 0
M  V30 41 C 4.2332 -1.46291 -1.29839 0
M  V30 42 C 4.6132 -0.170613 -2.10409 0
M  V30 43 O 3.9612 0.847746 -2.12192 0
M  V30 44 C 4.1712 -2.72055 -2.18603 0
M  V30 45 C 5.5192 -3.20087 -2.7898 0
M  V30 46 O 6.5432 -2.72921 -2.28894 0
M  V30 47 O 5.4022 -4.02138 -3.70064 0
M  V30 48 H 2.4962 -0.583906 -0.585647 0
M  V30 49 H 5.0422 -1.60384 -0.554534 0
M  V30 50 H 3.8142 -3.57628 -1.58801 0
M  V30 51 H 3.4372 -2.60646 -3.00249 0
M  V30 52 N 4.4343 0.785586 -1.36625 0
M  V30 53 C 5.7113 1.53198 -1.21613 0
M  V30 54 C 6.0913 2.10187 0.196113 0
M  V30 55 O 5.4393 1.94318 1.20219 0
M  V30 56 C 5.6493 2.62388 -2.30116 0
M  V30 57 C 6.9973 3.30167 -2.66974 0
M  V30 58 O 8.0213 2.72674 -2.29188 0
M  V30 59 O 6.8803 4.34077 -3.32023 0
M  V30 60 H 3.9743 0.677865 -0.473738 0
M  V30 61 H 6.5203 0.823739 -1.48367 0
M  V30 62 H 5.2923 2.18299 -3.24748 0
M  V30 63 H 4.9153 3.40827 -2.0475 0
M  V30 64 N 5.9124 1.20967 1.01018 0
M  V30 65 C 7.1374 1.0503 1.78839 0
M  V30 66 C 7.5624 -0.395752 1.8389 0
M  V30 67 O 6.9204 -1.28529 1.27867 0
M  V30 68 C 6.9684 1.64602 3.2084 0
M  V30 69 O 6.0724 0.887988 4.02726 0
M  V30 70 H 5.4134 0.369987 0.551367 0
M  V30 71 H 7.9434 1.60399 1.27018 0
M  V30 72 H 7.9534 1.68607 3.71532 0
M  V30 73 H 6.6284 2.69841 3.16479 0
M  V30 74 H 5.2054 0.922648 3.61305 0
M  V30 75 N 7.3905 -1.2043 1.01659 0
M  V30 76 C 8.6205 -1.93496 0.724081 0
M  V30 77 C 9.0285 -1.74998 -0.71918 0
M  V30 78 O 8.3715 -1.06118 -1.49949 0
M  V30 79 C 8.4335 -3.45886 0.97994 0
M  V30 80 C 8.0975 -3.88145 2.41232 0
M  V30 81 C 9.0945 -3.93907 3.39313 0
M  V30 82 C 6.7795 -4.20134 2.75305 0
M  V30 83 C 8.7735 -4.31069 4.6953 0
M  V30 84 C 6.4605 -4.56971 4.05735 0
M  V30 85 C 7.4585 -4.62411 5.02658 0
M  V30 86 O 7.1465 -4.98403 6.30754 0
M  V30 87 H 6.8785 -0.621824 0.265162 0
M  V30 88 H 9.4325 -1.53867 1.36066 0
M  V30 89 H 7.6625 -3.85639 0.286198 0
M  V30 90 H 9.3515 -4.0018 0.679021 0
M  V30 91 H 10.1175 -3.69357 3.14325 0
M  V30 92 H 5.9965 -4.1509 2.00551 0
M  V30 93 H 9.5405 -4.3523 5.45179 0
M  V30 94 H 5.4375 -4.80977 4.30502 0
M  V30 95 H 6.2055 -5.16395 6.35042 0
M  V30 96 N 8.8686 -0.792821 -1.36206 0
M  V30 97 C 10.1146 -0.36733 -1.99446 0
M  V30 98 C 10.4476 1.05917 -1.62774 0
M  V30 99 O 9.7226 1.7324 -0.88421 0
M  V30 100 C 10.0056 -0.535044 -3.56103 0
M  V30 101 C 9.8586 -2.00548 -4.02617 0
M  V30 102 C 11.1776 0.0478191 -4.40074 0
M  V30 103 H 8.2966 -0.134941 -0.724541 0
M  V30 104 H 10.9386 -0.999794 -1.61568 0
M  V30 105 H 9.0886 0.00336329 -3.885 0
M  V30 106 H 10.7606 -2.60521 -3.80692 0
M  V30 107 H 9.0036 -2.50686 -3.54032 0
M  V30 108 H 9.6746 -2.07377 -5.11565 0
M  V30 109 H 12.1506 -0.411822 -4.14057 0
M  V30 110 H 11.0266 -0.0995336 -5.4881 0
M  V30 111 H 11.2876 1.14025 -4.27142 0
M  V30 112 N 10.3467 1.47872 -0.545128 0
M  V30 113 C 11.7577 1.86384 -0.108581 0
M  V30 114 C 12.1087 1.45309 1.31832 0
M  V30 115 O 11.2337 0.850641 1.9898 0
M  V30 116 C 11.8287 3.38265 -0.190274 0
M  V30 117 C 10.3877 3.75914 0.191164 0
M  V30 118 C 9.5347 2.71926 -0.543273 0
M  V30 119 H 12.4857 1.39561 -0.755537 0
M  V30 120 H 12.5067 3.75831 0.594217 0
M  V30 121 H 12.0187 3.6813 -1.2289 0
M  V30 122 H 10.1197 3.51665 1.23136 0
M  V30 123 H 10.2327 4.78836 -0.158987 0
M  V30 124 H 8.5967 2.54697 0.0122495 0
M  V30 125 H 9.3797 3.04634 -1.58282 0
M  V30 126 N 11.8248 0.280983 1.55075 0
M  V30 127 C 13.0728 -0.333455 1.9933 0
M  V30 128 C 13.3938 -1.55937 1.17085 0
M  V30 129 O 12.6638 -1.94143 0.261805 0
M  V30 130 H 11.2438 -0.126197 0.736263 0
M  V30 131 H 13.9058 0.387678 1.91005 0
M  V30 132 H 13.0018 -0.619292 3.05894 0
M  V30 133 N 13.3029 -1.57598 0.00835791 0
M  V30 134 C 14.5499 -1.90928 -0.674732 0
M  V30 135 C 14.8779 -0.88277 -1.73313 0
M  V30 136 O 14.1329 0.111294 -1.95383 0
M  V30 137 C 14.4319 -3.3101 -1.34787 0
M  V30 138 C 14.0979 -4.48922 -0.421861 0
M  V30 139 C 12.7599 -4.8091 -0.166927 0
M  V30 140 C 15.1119 -5.20755 0.215211 0
M  V30 141 C 12.4399 -5.821 0.733232 0
M  V30 142 C 14.7919 -6.22905 1.1033 0
M  V30 143 C 13.4559 -6.53346 1.36733 0
M  V30 144 H 12.7259 -0.698656 -0.246902 0
M  V30 145 H 15.3729 -1.91387 0.0656779 0
M  V30 146 H 13.6779 -3.26714 -2.16253 0
M  V30 147 H 15.3749 -3.54061 -1.8826 0
M  V30 148 H 11.9649 -4.23934 -0.630729 0
M  V30 149 H 16.1489 -4.9629 0.0312829 0
M  V30 150 H 11.4049 -6.04042 0.945712 0
M  V30 151 H 15.5789 -6.77694 1.60325 0
M  V30 152 H 13.2059 -7.31573 2.06652 0
M  V30 153 N 14.781 0.264519 -1.55364 0
M  V30 154 C 15.691 1.34902 -1.91934 0
M  V30 155 C 16.707 1.53595 -0.817593 0
M  V30 156 O 17.883 1.67558 -1.11742 0
M  V30 157 C 14.948 2.68676 -2.19121 0
M  V30 158 C 14.009 2.58657 -3.4263 0
M  V30 159 C 13.242 3.86051 -3.68511 0
M  V30 160 O 13.465 4.87126 -2.96757 0
M  V30 161 O 12.399 3.85744 -4.62045 0
M  V30 162 H 16.225 1.06883 -2.8427 0
M  V30 163 H 13.81 0.463775 -1.42019 0
M  V30 164 H 15.692 3.47759 -2.37995 0
M  V30 165 H 14.367 2.96463 -1.29966 0
M  V30 166 H 13.274 1.7792 -3.29082 0
M  V30 167 H 14.607 2.35818 -4.32031 0
M  V30 168 N 16.2591 1.48442 0.529413 0
M  V30 169 C 17.5361 1.46978 1.29062 0
M  V30 170 C 17.9161 0.181769 2.10316 0
M  V30 171 O 17.2641 -0.836481 2.12639 0
M  V30 172 C 17.4741 2.7321 2.17157 0
M  V30 173 C 18.8221 3.21562 2.77278 0
M  V30 174 O 19.8461 2.74131 2.27444 0
M  V30 175 O 18.7051 4.04094 3.67927 0
M  V30 176 H 15.7991 0.587003 0.582543 0
M  V30 177 H 18.3451 1.60676 0.546021 0
M  V30 178 H 17.1171 3.58465 1.56903 0
M  V30 179 H 16.7401 2.62235 2.98862 0
M  V30 180 N 17.7372 -0.778329 1.37039 0
M  V30 181 C 18.9622 -1.57248 1.35233 0
M  V30 182 C 19.3872 -1.87999 -0.0615568 0
M  V30 183 O 18.7452 -1.48734 -1.03672 0
M  V30 184 C 18.7932 -2.86353 2.19167 0
M  V30 185 O 17.8972 -3.80442 1.59178 0
M  V30 186 H 17.2382 -0.476569 0.462362 0
M  V30 187 H 19.7682 -0.963853 1.80474 0
M  V30 188 H 19.7782 -3.35519 2.32145 0
M  V30 189 H 18.4532 -2.63299 3.21942 0
M  V30 190 H 17.0302 -3.39067 1.55203 0
M  V30 191 N 19.2153 -1.21501 -1.00376 0
M  V30 192 C 20.1253 -0.991447 -2.12621 0
M  V30 193 C 21.1413 0.0568446 -1.73907 0
M  V30 194 O 22.3173 -0.13348 -2.00957 0
M  V30 195 C 19.3823 -0.560312 -3.42142 0
M  V30 196 C 18.4433 -1.68096 -3.95022 0
M  V30 197 C 17.6763 -1.2703 -5.18362 0
M  V30 198 O 17.8993 -0.144438 -5.70217 0
M  V30 199 O 16.8333 -2.08269 -5.64719 0
M  V30 200 H 20.6593 -1.93158 -2.34358 0
M  V30 201 H 18.2443 -0.999999 -1.10997 0
M  V30 202 H 20.1263 -0.329724 -4.20108 0
M  V30 203 H 18.8013 0.351089 -3.2179 0
M  V30 204 H 17.7083 -1.96597 -3.18278 0
M  V30 205 H 19.0413 -2.56983 -4.19786 0
M  V30 206 N 20.6934 1.19889 -1.02296 0
M  V30 207 C 21.6564 2.21116 -0.603351 0
M  V30 208 C 22.6564 1.5738 0.329884 0
M  V30 209 O 23.8464 1.73802 0.117702 0
M  V30 210 C 20.9784 3.40696 0.117992 0
M  V30 211 H 22.1714 2.59754 -1.49893 0
M  V30 212 H 19.7244 1.33463 -0.813468 0
M  V30 213 H 20.4594 3.07569 1.0282 0
M  V30 214 H 20.2444 3.88188 -0.552511 0
M  V30 215 H 21.7344 4.15692 0.398696 0
M  V30 216 N 22.1715 0.800033 1.35784 0
M  V30 217 C 23.4195 0.376597 1.9856 0
M  V30 218 C 23.7405 -1.05812 1.63795 0
M  V30 219 O 23.0105 -1.73103 0.917171 0
M  V30 220 H 21.5905 0.136261 0.734467 0
M  V30 221 H 24.2525 1.02442 1.65806 0
M  V30 222 H 23.3485 0.477002 3.08433 0
M  V30 223 N 23.6496 -1.47581 0.552962 0
M  V30 224 C 24.8746 -2.07378 0.0300593 0
M  V30 225 C 25.2996 -1.40355 -1.25229 0
M  V30 226 O 24.6576 -0.477099 -1.7491 0
M  V30 227 C 24.7056 -3.60274 -0.153231 0
M  V30 228 O 23.8096 -3.94041 -1.21678 0
M  V30 229 H 23.1506 -0.662158 0.0494182 0
M  V30 230 H 25.6806 -1.89662 0.767434 0
M  V30 231 H 25.6906 -4.0633 -0.368761 0
M  V30 232 H 24.3656 -4.08455 0.783397 0
M  V30 233 H 22.9426 -3.59735 -0.982079 0
M  V30 234 N 25.1277 -0.289203 -1.54924 0
M  V30 235 C 26.0907 0.579144 -2.21762 0
M  V30 236 C 27.0907 1.07047 -1.1999 0
M  V30 237 O 28.2807 0.968384 -1.44803 0
M  V30 238 C 25.4127 1.80055 -2.8947 0
M  V30 239 H 26.6057 -0.00464908 -2.999 0
M  V30 240 H 24.1587 -0.0399306 -1.56249 0
M  V30 241 H 24.8937 2.42449 -2.15381 0
M  V30 242 H 24.6787 1.45602 -3.64064 0
M  V30 243 H 26.1687 2.41773 -3.40493 0
M  V30 244 N 26.6058 1.57591 -0.0167156 0
M  V30 245 C 27.8828 1.82547 0.702564 0
M  V30 246 C 28.2628 0.898018 1.91047 0
M  V30 247 O 27.6108 -0.0493456 2.28447 0
M  V30 248 C 27.8208 3.31459 1.09251 0
M  V30 249 C 29.1688 3.97622 1.48937 0
M  V30 250 O 30.1928 3.35881 1.18584 0
M  V30 251 O 29.0518 5.06415 2.05442 0
M  V30 252 H 26.1458 0.752268 0.343544 0
M  V30 253 H 28.6918 1.69644 -0.0434495 0
M  V30 254 H 27.4638 3.9061 0.23227 0
M  V30 255 H 27.0868 3.49422 1.89709 0
M  V30 256 N 28.0839 -0.256276 1.55502 0
M  V30 257 C 29.3089 -1.00766 1.81276 0
M  V30 258 C 29.7339 -1.78524 0.59252 0
M  V30 259 O 29.0919 -1.75413 -0.45827 0
M  V30 260 C 29.1399 -1.92869 3.04687 0
M  V30 261 O 28.2439 -3.019 2.80945 0
M  V30 262 H 27.5849 -0.287224 0.598664 0
M  V30 263 H 30.1149 -0.280109 2.02674 0
M  V30 264 H 30.1249 -2.34511 3.33869 0
M  V30 265 H 28.7999 -1.35689 3.93143 0
M  V30 266 H 27.3769 -2.64454 2.62904 0
M  V30 267 N 29.562 -1.4872 -0.521534 0
M  V30 268 C 30.792 -1.6061 -1.29954 0
M  V30 269 C 31.2 -0.268728 -1.87282 0
M  V30 270 O 30.543 0.753221 -1.67548 0
M  V30 271 C 30.605 -2.60013 -2.48261 0
M  V30 272 C 30.269 -4.04874 -2.11957 0
M  V30 273 C 31.266 -4.92304 -1.67132 0
M  V30 274 C 28.951 -4.5047 -2.22221 0
M  V30 275 C 30.945 -6.2336 -1.33047 0
M  V30 276 C 28.632 -5.81544 -1.87748 0
M  V30 277 C 29.63 -6.67812 -1.43234 0
M  V30 278 O 29.318 -7.96446 -1.09217 0
M  V30 279 H 29.05 -0.544116 -0.401141 0
M  V30 280 H 31.604 -1.95339 -0.634958 0
M  V30 281 H 29.834 -2.20422 -3.17728 0
M  V30 282 H 31.523 -2.61648 -3.10315 0
M  V30 283 H 32.289 -4.58312 -1.58665 0
M  V30 284 H 28.168 -3.83504 -2.55823 0
M  V30 285 H 31.712 -6.90649 -0.982299 0
M  V30 286 H 27.609 -6.15069 -1.95858 0
M  V30 287 H 28.377 -8.09275 -1.22542 0
M  V30 288 N 31.0401 0.771051 -1.3745 0
M  V30 289 C 32.2681 1.56015 -1.35893 0
M  V30 290 C 32.6831 1.88718 0.0555523 0
M  V30 291 O 32.0401 1.51502 1.01752 0
M  V30 292 C 32.0911 2.87001 -2.19801 0
M  V30 293 O 31.8121 2.557 -3.55738 0
M  V30 294 C 33.3131 3.81228 -2.26231 0
M  V30 295 H 30.5331 0.483317 -0.465453 0
M  V30 296 H 33.0771 0.955611 -1.80799 0
M  V30 297 H 31.2321 3.43877 -1.78402 0
M  V30 298 H 31.6461 3.39584 -3.99729 0
M  V30 299 H 33.1201 4.70139 -2.89263 0
M  V30 300 H 33.5971 4.20409 -1.27093 0
M  V30 301 H 34.2031 3.30281 -2.67945 0
M  V30 302 N 32.5182 1.22032 0.997298 0
M  V30 303 C 33.7432 1.06921 1.77715 0
M  V30 304 C 34.1682 -0.376226 1.84299 0
M  V30 305 O 33.5262 -1.27165 1.29223 0
M  V30 306 C 33.5742 1.67996 3.19076 0
M  V30 307 O 32.6782 0.930653 4.01762 0
M  V30 308 H 32.0192 0.375814 0.547412 0
M  V30 309 H 34.5492 1.61737 1.25309 0
M  V30 310 H 34.5592 1.72538 3.69723 0
M  V30 311 H 33.2342 2.73182 3.13599 0
M  V30 312 H 31.8112 0.960917 3.60307 0
M  V30 313 N 33.9963 -1.19345 1.0293 0
M  V30 314 C 35.4123 -1.41069 0.746446 0
M  V30 315 C 35.6123 -1.90078 -0.668776 0
M  V30 316 O 34.6683 -2.0778 -1.4347 0
M  V30 317 C 35.9813 -2.42141 1.78292 0
M  V30 318 C 37.5293 -2.55887 1.80252 0
M  V30 319 C 38.0043 -3.60214 2.8286 0
M  V30 320 N 39.4953 -3.67711 2.81679 0
M  V30 321 C 40.2303 -4.48128 3.57727 0
M  V30 322 N 39.7263 -5.32248 4.43491 0
M  V30 323 N 41.5193 -4.42782 3.46267 0
M  V30 324 H 33.6703 -0.858536 1.94275 0
M  V30 325 H 35.9333 -0.439541 0.839945 0
M  V30 326 H 35.6393 -2.13155 2.79746 0
M  V30 327 H 35.5133 -3.41323 1.60557 0
M  V30 328 H 37.9003 -2.84196 0.794757 0
M  V30 329 H 37.9813 -1.56858 2.02062 0
M  V30 330 H 37.6253 -3.32647 3.83807 0
M  V30 331 H 37.5553 -4.58895 2.58307 0
M  V30 332 H 40.0463 -3.07634 2.19476 0
M  V30 333 H 40.3593 -5.90729 4.98256 0
M  V30 334 H 38.7043 -5.31707 4.47564 0
M  V30 335 H 41.8953 -3.76107 2.78677 0
M  V30 336 H 42.0683 -5.05215 4.05785 0
M  V30 337 N 35.4744 -0.807222 -1.35358 0
M  V30 338 C 36.8854 -0.44876 -1.81226 0
M  V30 339 C 37.2364 1.02929 -1.67033 0
M  V30 340 O 36.3614 1.79991 -1.20133 0
M  V30 341 C 36.9564 -0.807774 -3.2903 0
M  V30 342 C 35.5154 -0.501901 -3.73039 0
M  V30 343 C 34.6624 -1.03304 -2.57339 0
M  V30 344 H 37.6134 -0.998808 -1.23327 0
M  V30 345 H 37.6344 -0.10554 -3.80354 0
M  V30 346 H 37.1464 -1.88357 -3.39328 0
M  V30 347 H 35.2474 0.565128 -3.68289 0
M  V30 348 H 35.3604 -1.03497 -4.67787 0
M  V30 349 H 33.7244 -0.455339 -2.50597 0
M  V30 350 H 34.5074 -2.11496 -2.70415 0
M  V30 351 N 36.9525 1.47285 -0.560781 0
M  V30 352 C 38.1775 2.07359 -0.0410566 0
M  V30 353 C 38.6025 1.41017 1.24483 0
M  V30 354 O 37.9605 0.486368 1.74654 0
M  V30 355 C 38.0085 3.6035 0.134123 0
M  V30 356 O 37.1125 3.94681 1.19587 0
M  V30 357 H 36.4535 0.661887 -0.0529291 0
M  V30 358 H 38.9835 1.89252 -0.777482 0
M  V30 359 H 38.9935 4.0652 0.347207 0
M  V30 360 H 37.6685 4.08034 -0.805047 0
M  V30 361 H 36.2455 3.60251 0.962987 0
M  V30 362 N 38.4306 0.297415 1.54768 0
M  V30 363 C 39.3606 -0.573494 2.26348 0
M  V30 364 C 40.3416 -1.14085 1.26169 0
M  V30 365 O 41.5266 -1.17086 1.54934 0
M  V30 366 C 38.6566 -1.74716 3.00153 0
M  V30 367 C 37.6106 -1.31032 4.07449 0
M  V30 368 C 36.9366 -2.56887 4.68949 0
M  V30 369 C 38.2366 -0.444183 5.20408 0
M  V30 370 H 39.9306 0.0235131 2.99391 0
M  V30 371 H 37.4766 0.0127488 1.43994 0
M  V30 372 H 39.4296 -2.3625 3.48947 0
M  V30 373 H 38.1536 -2.37035 2.24682 0
M  V30 374 H 36.8126 -0.718066 3.59499 0
M  V30 375 H 36.4606 -3.17512 3.90122 0
M  V30 376 H 36.1606 -2.2836 5.41411 0
M  V30 377 H 37.6846 -3.19229 5.20505 0
M  V30 378 H 39.0986 -0.9651 5.65118 0
M  V30 379 H 37.4956 -0.252846 5.99567 0
M  V30 380 H 38.5656 0.531609 4.81977 0
M  V30 381 N 39.9087 -1.5758 0.0250728 0
M  V30 382 C 41.1857 -1.82917 -0.692873 0
M  V30 383 C 41.5657 -0.908137 -1.90568 0
M  V30 384 O 40.9137 0.0372298 -2.2847 0
M  V30 385 C 41.1237 -3.32034 -1.07492 0
M  V30 386 C 42.4717 -3.98406 -1.46826 0
M  V30 387 O 43.4957 -3.36505 -1.16801 0
M  V30 388 O 42.3547 -5.07497 -2.02754 0
M  V30 389 H 39.4487 -0.754079 -0.33955 0
M  V30 390 H 41.9947 -1.69619 0.0524456 0
M  V30 391 H 40.7667 -3.90728 -0.211552 0
M  V30 392 H 40.3897 -3.50424 -1.87854 0
M  V30 393 N 41.3868 0.248026 -1.55636 0
M  V30 394 C 42.6118 0.998028 -1.81808 0
M  V30 395 C 43.0368 1.78207 -0.601979 0
M  V30 396 O 42.3948 1.75653 0.448961 0
M  V30 397 C 42.4428 1.9125 -3.05705 0
M  V30 398 O 41.5468 3.00406 -2.82542 0
M  V30 399 H 40.8878 0.284045 -0.600179 0
M  V30 400 H 43.4178 0.269357 -2.02819 0
M  V30 401 H 43.4278 2.32737 -3.35108 0
M  V30 402 H 42.1028 1.33602 -3.93857 0
M  V30 403 H 40.6798 2.63056 -2.64303 0
M  V30 404 N 42.8649 1.48995 0.513639 0
M  V30 405 C 44.1419 1.48338 1.27495 0
M  V30 406 C 44.5219 0.204065 2.10111 0
M  V30 407 O 43.8699 -0.813881 2.13514 0
M  V30 408 C 44.0799 2.75498 2.14247 0
M  V30 409 C 45.4279 3.24484 2.73852 0
M  V30 410 O 46.4519 2.76528 2.24523 0
M  V30 411 O 45.3109 4.07974 3.6362 0
M  V30 412 H 42.4049 0.593149 0.576284 0
M  V30 413 H 44.9509 1.61246 0.528948 0
M  V30 414 H 43.7229 3.60109 1.53092 0
M  V30 415 H 43.3459 2.6539 2.96064 0
M  V30 416 N 44.343 -0.763751 1.37857 0
M  V30 417 C 45.589 -1.52483 1.33704 0
M  V30 418 C 45.922 -1.94051 -0.0759612 0
M  V30 419 O 45.197 -1.64675 -1.03501 0
M  V30 420 C 45.48 -2.78441 2.28348 0
M  V30 421 C 45.333 -2.43075 3.78463 0
M  V30 422 C 46.652 -3.80415 2.21298 0
M  V30 423 H 43.771 -0.553169 0.487005 0
M  V30 424 H 46.413 -0.875562 1.68624 0
M  V30 425 H 44.563 -3.33842 1.987 0
M  V30 426 H 46.235 -1.93527 4.18742 0
M  V30 427 H 44.478 -1.75666 3.96641 0
M  V30 428 H 45.149 -3.33149 4.40132 0
M  V30 429 H 47.625 -3.34527 2.47449 0
M  V30 430 H 46.501 -4.66257 2.89647 0
M  V30 431 H 46.762 -4.25262 1.20849 0
M  V30 432 N 45.8211 -1.22559 -0.990812 0
M  V30 433 C 47.0461 -1.07862 -1.77145 0
M  V30 434 C 47.4711 0.366447 -1.84496 0
M  V30 435 O 46.8291 1.26478 -1.29896 0
M  V30 436 C 46.8771 -1.69686 -3.18181 0
M  V30 437 O 45.9811 -0.951946 -4.01263 0
M  V30 438 H 45.3221 -0.378712 -0.545411 0
M  V30 439 H 47.8521 -1.62399 -1.2445 0
M  V30 440 H 47.8621 -1.74496 -3.68802 0
M  V30 441 H 46.5371 -2.74841 -3.12146 0
M  V30 442 H 45.1141 -0.980011 -3.59792 0
M  V30 443 N 47.2992 1.18797 -1.03562 0
M  V30 444 C 48.2292 2.24472 -0.643019 0
M  V30 445 C 49.2102 1.66433 0.351283 0
M  V30 446 O 50.3952 1.92803 0.232505 0
M  V30 447 C 47.5252 3.473 4.24935e-05 0
M  V30 448 C 46.4792 4.18055 -0.917257 0
M  V30 449 C 45.8052 5.34519 -0.138941 0
M  V30 450 C 47.1052 4.72109 -2.23407 0
M  V30 451 H 48.7992 2.57566 -1.52643 0
M  V30 452 H 46.3452 1.23806 -0.735394 0
M  V30 453 H 48.2982 4.20426 0.286383 0
M  V30 454 H 47.0222 3.13424 0.918299 0
M  V30 455 H 45.6812 3.46821 -1.1879 0
M  V30 456 H 45.3292 4.96891 0.781562 0
M  V30 457 H 45.0292 5.82794 -0.750005 0
M  V30 458 H 46.5532 6.10438 0.1405 0
M  V30 459 H 47.9672 5.36955 -2.00879 0
M  V30 460 H 46.3642 5.30897 -2.79765 0
M  V30 461 H 47.4342 3.89807 -2.88407 0
M  V30 462 N 48.7773 0.814389 1.34928 0
M  V30 463 C 49.6873 0.231978 2.3345 0
M  V30 464 C 50.7033 -0.629139 1.62228 0
M  V30 465 O 51.8793 -0.539052 1.94052 0
M  V30 466 C 48.9443 -0.603482 3.41407 0
M  V30 467 C 48.0053 0.279037 4.28392 0
M  V30 468 C 47.2383 -0.516643 5.31193 0
M  V30 469 O 47.4613 -1.75068 5.4287 0
M  V30 470 O 46.3953 0.0965652 6.01823 0
M  V30 471 H 50.2213 1.04721 2.85074 0
M  V30 472 H 47.8063 0.576343 1.37836 0
M  V30 473 H 49.6883 -1.07908 4.0735 0
M  V30 474 H 48.3633 -1.39618 2.92042 0
M  V30 475 H 47.2703 0.801948 3.65403 0
M  V30 476 H 48.6033 1.03588 4.81176 0
M  V30 477 N 50.2554 -1.46986 0.568584 0
M  V30 478 C 51.1654 -2.33942 -0.17555 0
M  V30 479 C 52.1814 -1.48891 -0.90041 0
M  V30 480 O 53.3574 -1.81794 -0.86676 0
M  V30 481 C 50.4224 -3.25811 -1.18524 0
M  V30 482 C 49.4834 -4.26757 -0.466582 0
M  V30 483 C 48.7164 -5.14236 -1.42817 0
M  V30 484 O 48.9394 -5.04379 -2.66379 0
M  V30 485 O 47.8734 -5.94412 -0.946453 0
M  V30 486 H 51.6994 -2.98896 0.538036 0
M  V30 487 H 49.2844 -1.4573 0.329097 0
M  V30 488 H 51.1664 -3.82527 -1.76779 0
M  V30 489 H 49.8414 -2.63471 -1.88055 0
M  V30 490 H 48.7484 -3.73769 0.157451 0
M  V30 491 H 50.0814 -4.91843 0.187485 0
M  V30 492 N 51.7335 -0.305618 -1.54608 0
M  V30 493 C 53.0105 0.355652 -1.92339 0
M  V30 494 C 53.3905 1.71324 -1.23335 0
M  V30 495 O 52.7385 2.25473 -0.370702 0
M  V30 496 C 52.9485 0.46572 -3.45879 0
M  V30 497 C 54.2965 0.734426 -4.182 0
M  V30 498 O 55.3205 0.54935 -3.51938 0
M  V30 499 O 54.1795 1.09024 -5.35515 0
M  V30 500 H 51.2735 0.199666 -0.802535 0
M  V30 501 H 53.8195 -0.354017 -1.65966 0
M  V30 502 H 52.5915 -0.488461 -3.88239 0
M  V30 503 H 52.2145 1.22367 -3.78301 0
M  V30 504 N 53.2116 1.57565 -0.0334293 0
M  V30 505 C 54.6276 1.56297 0.322997 0
M  V30 506 C 54.8276 1.03945 1.7262 0
M  V30 507 O 53.8836 0.688109 2.42943 0
M  V30 508 C 55.1966 3.00232 0.167664 0
M  V30 509 C 56.7446 3.12078 0.240107 0
M  V30 510 C 57.2196 4.57859 0.113513 0
M  V30 511 N 58.7106 4.62887 0.170359 0
M  V30 512 C 59.4456 5.73319 0.0962517 0
M  V30 513 N 58.9416 6.92794 -0.0291881 0
M  V30 514 N 60.7346 5.61898 0.150551 0
M  V30 515 H 52.8856 1.89923 -0.950956 0
M  V30 516 H 55.1486 0.873824 -0.367608 0
M  V30 517 H 54.8546 3.42501 -0.799102 0
M  V30 518 H 54.7286 3.654 0.936083 0
M  V30 519 H 57.1156 2.69718 1.19733 0
M  V30 520 H 57.1966 2.49623 -0.558763 0
M  V30 521 H 56.8406 5.009 -0.840314 0
M  V30 522 H 56.7706 5.18299 0.931302 0
M  V30 523 H 59.2616 3.76954 0.26728 0
M  V30 524 H 59.5746 7.7276 -0.0789252 0
M  V30 525 H 57.9196 6.94971 -0.0640299 0
M  V30 526 H 61.1106 4.67448 0.246981 0
M  V30 527 H 61.2836 6.47938 0.0893365 0
M  V30 528 N 54.6897 -0.239769 1.55765 0
M  V30 529 C 55.5997 -1.31831 1.94056 0
M  V30 530 C 56.6157 -1.52275 0.841925 0
M  V30 531 O 57.7917 -1.65759 1.14394 0
M  V30 532 C 54.8567 -2.65156 2.23368 0
M  V30 533 C 53.9177 -2.53173 3.46701 0
M  V30 534 C 53.1507 -3.8014 3.74606 0
M  V30 535 O 53.3737 -4.82343 3.04469 0
M  V30 536 O 52.3077 -3.78344 4.68123 0
M  V30 537 H 56.1337 -1.02347 2.85935 0
M  V30 538 H 53.7187 -0.441123 1.42739 0
M  V30 539 H 55.6007 -3.43929 2.43497 0
M  V30 540 H 54.2757 -2.94358 1.34666 0
M  V30 541 H 53.1827 -1.72662 3.31871 0
M  V30 542 H 54.5157 -2.28915 4.35728 0
M  V30 543 N 56.1678 -1.49265 -0.50573 0
M  V30 544 C 57.3928 -1.62478 -1.28902 0
M  V30 545 C 57.8178 -0.294332 -1.85783 0
M  V30 546 O 57.1758 0.737412 -1.65626 0
M  V30 547 C 57.2238 -2.69268 -2.39848 0
M  V30 548 O 56.3278 -2.28113 -3.43567 0
M  V30 549 H 55.6688 -0.54399 -0.380751 0
M  V30 550 H 58.1988 -1.95421 -0.605952 0
M  V30 551 H 58.2088 -2.91291 -2.85681 0
M  V30 552 H 56.8838 -3.65846 -1.97812 0
M  V30 553 H 55.4608 -2.16401 -3.03685 0
M  V30 554 N 57.6459 0.756429 -1.3826 0
M  V30 555 C 58.6089 1.85176 -1.35065 0
M  V30 556 C 59.6089 1.58818 -0.251703 0
M  V30 557 O 60.7989 1.66615 -0.508433 0
M  V30 558 C 57.9309 3.22596 -1.10201 0
M  V30 559 H 59.1239 1.89417 -2.3251 0
M  V30 560 H 56.6769 0.95783 -1.23512 0
M  V30 561 H 57.4119 3.24025 -0.133504 0
M  V30 562 H 57.1969 3.43122 -1.89762 0
M  V30 563 H 58.6869 4.02673 -1.10654 0
M  V30 564 N 59.124 1.23083 0.984299 0
M  V30 565 C 60.54 0.992637 1.24975 0
M  V30 566 C 60.74 -0.308618 1.99123 0
M  V30 567 O 59.796 -1.02905 2.30579 0
M  V30 568 C 61.109 2.19698 2.05312 0
M  V30 569 C 62.657 2.24147 2.18465 0
M  V30 570 C 63.132 3.44157 3.02192 0
M  V30 571 N 64.623 3.44372 3.09777 0
M  V30 572 C 65.358 4.33886 3.74874 0
M  V30 573 N 64.854 5.3363 4.41827 0
M  V30 574 N 66.647 4.21639 3.71721 0
M  V30 575 H 58.798 2.06731 0.487453 0
M  V30 576 H 61.061 0.906339 0.277944 0
M  V30 577 H 60.767 3.1411 1.58201 0
M  V30 578 H 60.641 2.20465 3.06064 0
M  V30 579 H 63.028 1.30277 2.64786 0
M  V30 580 H 63.109 2.27415 1.17115 0
M  V30 581 H 62.753 4.38332 2.56568 0
M  V30 582 H 62.683 3.3813 4.03702 0
M  V30 583 H 65.174 2.72201 2.62135 0
M  V30 584 H 65.487 5.98196 4.89266 0
M  V30 585 H 63.832 5.37534 4.40548 0
M  V30 586 H 67.023 3.42962 3.18582 0
M  V30 587 H 67.196 4.91604 4.22173 0
M  V30 588 N 60.6021 -1.18246 1.0419 0
M  V30 589 C 62.0181 -1.40269 0.761366 0
M  V30 590 C 62.2181 -1.90777 -0.648578 0
M  V30 591 O 61.2741 -2.0929 -1.41258 0
M  V30 592 C 62.5871 -2.40237 1.8085 0
M  V30 593 C 64.1351 -2.53961 1.82955 0
M  V30 594 C 64.6101 -3.57194 2.86664 0
M  V30 595 N 66.1011 -3.64702 2.85563 0
M  V30 596 C 66.8361 -4.44309 3.6246 0
M  V30 597 N 66.3321 -5.27514 4.49111 0
M  V30 598 N 68.1251 -4.39084 3.50944 0
M  V30 599 H 60.2761 -0.837882 1.95175 0
M  V30 600 H 62.5391 -0.430608 0.84456 0
M  V30 601 H 62.2451 -2.10176 2.81991 0
M  V30 602 H 62.1191 -3.39601 1.64168 0
M  V30 603 H 64.5061 -2.83338 0.824855 0
M  V30 604 H 64.5871 -1.54706 2.03715 0
M  V30 605 H 64.2311 -3.28558 3.87314 0
M  V30 606 H 64.1611 -4.5613 2.6316 0
M  V30 607 H 66.6521 -3.05289 2.22727 0
M  V30 608 H 66.9651 -5.85411 5.04493 0
M  V30 609 H 65.3101 -5.2693 4.53178 0
M  V30 610 H 68.5011 -3.7313 2.82651 0
M  V30 611 H 68.6741 -5.00883 4.11121 0
M  V30 612 N 62.0802 -0.821533 -1.34494 0
M  V30 613 C 62.9902 -0.244355 -2.33324 0
M  V30 614 C 64.0062 0.620527 -1.62559 0
M  V30 615 O 65.1822 0.528754 -1.94335 0
M  V30 616 C 62.2472 0.585368 -3.41723 0
M  V30 617 C 61.3082 -0.301752 -4.28238 0
M  V30 618 C 60.5412 0.488466 -5.3146 0
M  V30 619 O 60.7642 1.72186 -5.4379 0
M  V30 620 O 59.6982 -0.12848 -6.01763 0
M  V30 621 H 63.5242 -1.06231 -2.84515 0
M  V30 622 H 61.1092 -0.583645 -1.37528 0
M  V30 623 H 62.9912 1.05747 -4.07916 0
M  V30 624 H 61.6662 1.38068 -2.92778 0
M  V30 625 H 60.5732 -0.821315 -3.64973 0
M  V30 626 H 61.9062 -1.06138 -4.8062 0
M  V30 627 N 63.5583 1.46682 -0.576371 0
M  V30 628 C 64.8043 2.02712 -0.0596221 0
M  V30 629 C 65.1373 1.44765 1.29448 0
M  V30 630 O 64.4123 0.610355 1.84675 0
M  V30 631 C 64.6953 3.60098 0.0129503 0
M  V30 632 C 64.5483 4.28441 -1.3696 0
M  V30 633 C 65.8673 4.34224 0.71678 0
M  V30 634 H 62.9863 0.736637 -0.0231407 0
M  V30 635 H 65.6283 1.74898 -0.742351 0
M  V30 636 H 63.7783 3.83926 0.594378 0
M  V30 637 H 65.4503 4.15896 -1.9957 0
M  V30 638 H 63.6933 3.8805 -1.93907 0
M  V30 639 H 64.3643 5.3716 -1.27135 0
M  V30 640 H 66.8403 4.15503 0.222908 0
M  V30 641 H 65.7163 5.43936 0.73657 0
M  V30 642 H 65.9773 4.04823 1.77682 0
M  V30 643 N 65.0364 0.313813 1.54444 0
M  V30 644 C 65.9464 -0.565714 2.27677 0
M  V30 645 C 66.9624 -1.13754 1.31666 0
M  V30 646 O 68.1384 -1.15959 1.64668 0
M  V30 647 C 65.2034 -1.71528 3.01296 0
M  V30 648 C 64.2644 -1.17624 4.12872 0
M  V30 649 C 63.4974 -2.27102 4.8297 0
M  V30 650 O 63.7204 -3.47256 4.52514 0
M  V30 651 O 62.6544 -1.9307 5.70094 0
M  V30 652 H 66.4804 0.0287296 3.03686 0
M  V30 653 H 64.0654 0.0798312 1.49187 0
M  V30 654 H 65.9474 -2.38476 3.4743 0
M  V30 655 H 64.6224 -2.29608 2.2817 0
M  V30 656 H 63.5294 -0.472124 3.71109 0
M  V30 657 H 64.8624 -0.640695 4.88012 0
M  V30 658 N 66.5145 -1.57545 0.0417849 0
M  V30 659 C 67.7395 -1.97035 -0.647455 0
M  V30 660 C 68.1645 -0.918775 -1.64135 0
M  V30 661 O 67.5225 0.119006 -1.80909 0
M  V30 662 C 67.5705 -3.35609 -1.31905 0
M  V30 663 O 66.6745 -3.3287 -2.43457 0
M  V30 664 H 66.0155 -0.64211 -0.169086 0
M  V30 665 H 68.5455 -2.04318 0.107399 0
M  V30 666 H 68.5555 -3.72126 -1.67291 0
M  V30 667 H 67.2305 -4.11685 -0.590586 0
M  V30 668 H 65.8075 -3.08087 -2.10088 0
M  V30 669 N 67.9926 0.231505 -1.5589 0
M  V30 670 C 68.9246 1.31006 -1.8807 0
M  V30 671 C 69.9376 1.43539 -0.768145 0
M  V30 672 O 71.1266 1.44614 -1.04638 0
M  V30 673 C 68.2266 2.68688 -2.06543 0
M  V30 674 C 67.3996 2.78228 -3.37502 0
M  V30 675 C 66.4586 3.96857 -3.4553 0
M  V30 676 O 65.4846 3.85662 -4.18633 0
M  V30 677 N 66.6866 5.1072 -2.75944 0
M  V30 678 H 69.4516 1.03731 -2.81176 0
M  V30 679 H 67.0126 0.421573 -1.56315 0
M  V30 680 H 69.0046 3.46412 -2.09239 0
M  V30 681 H 67.5746 2.88605 -1.20109 0
M  V30 682 H 66.7946 1.87059 -3.46991 0
M  V30 683 H 68.0826 2.81564 -4.23791 0
M  V30 684 H 67.4806 5.2271 -2.16311 0
M  V30 685 H 66.0376 5.86523 -2.84314 0
M  V30 686 N 69.4707 1.49531 0.497807 0
M  V30 687 C 70.4337 1.65916 1.58128 0
M  V30 688 C 71.4337 0.530825 1.51786 0
M  V30 689 O 72.6237 0.797342 1.54881 0
M  V30 690 C 69.7557 1.65951 2.9778 0
M  V30 691 H 70.9487 2.62556 1.44929 0
M  V30 692 H 68.5017 1.38611 0.722275 0
M  V30 693 H 69.2367 0.709065 3.16453 0
M  V30 694 H 69.0217 2.47897 3.03792 0
M  V30 695 H 70.5117 1.80673 3.76493 0
M  V30 696 N 70.9488 -0.749086 1.3866 0
M  V30 697 C 71.8808 -1.87273 1.32142 0
M  V30 698 C 72.8938 -1.61127 0.232787 0
M  V30 699 O 74.0828 -1.71623 0.49069 0
M  V30 700 C 71.1828 -3.23005 1.02571 0
M  V30 701 C 70.3558 -3.7662 2.22433 0
M  V30 702 C 69.4148 -4.90879 1.89537 0
M  V30 703 O 68.4408 -5.05276 2.62078 0
M  V30 704 N 69.6428 -5.74198 0.853031 0
M  V30 705 H 72.4078 -1.93373 2.28969 0
M  V30 706 H 69.9688 -0.929216 1.32579 0
M  V30 707 H 71.9608 -3.96992 0.786085 0
M  V30 708 H 70.5308 -3.12262 0.145249 0
M  V30 709 H 69.7508 -2.94147 2.62434 0
M  V30 710 H 71.0388 -4.09173 3.02415 0
M  V30 711 H 70.4368 -5.6514 0.25155 0
M  V30 712 H 68.9938 -6.48313 0.67329 0
M  V30 713 N 72.4269 -1.23603 -0.977757 0
M  V30 714 C 73.3589 -0.977369 -2.07317 0
M  V30 715 C 74.3719 0.0495845 -1.62724 0
M  V30 716 O 75.5609 -0.186261 -1.77526 0
M  V30 717 C 72.6609 -0.451216 -3.35883 0
M  V30 718 C 71.8339 -1.53896 -4.09432 0
M  V30 719 C 70.8929 -1.01721 -5.16274 0
M  V30 720 O 69.9189 -1.70676 -5.43009 0
M  V30 721 N 71.1209 0.153594 -5.80297 0
M  V30 722 H 73.8859 -1.92047 -2.30082 0
M  V30 723 H 71.4469 -1.14497 -1.14465 0
M  V30 724 H 73.4389 -0.0871574 -4.04606 0
M  V30 725 H 72.0089 0.397368 -3.10064 0
M  V30 726 H 71.2289 -2.07566 -3.35127 0
M  V30 727 H 72.5169 -2.27037 -4.55337 0
M  V30 728 H 71.9149 0.730323 -5.60966 0
M  V30 729 H 70.4719 0.458892 -6.50183 0
M  V30 730 N 73.905 1.17692 -1.04816 0
M  V30 731 C 74.837 2.21103 -0.603822 0
M  V30 732 C 75.85 1.59411 0.33046 0
M  V30 733 O 77.039 1.7807 0.12379 0
M  V30 734 C 74.139 3.38623 0.136898 0
M  V30 735 C 73.312 4.29888 -0.807137 0
M  V30 736 C 72.371 5.26088 -0.10836 0
M  V30 737 O 71.397 5.64353 -0.741232 0
M  V30 738 N 72.599 5.68882 1.15558 0
M  V30 739 H 75.364 2.59848 -1.49329 0
M  V30 740 H 72.925 1.32553 -0.929587 0
M  V30 741 H 74.917 4.00009 0.614401 0
M  V30 742 H 73.487 2.98508 0.927993 0
M  V30 743 H 72.707 3.65993 -1.46434 0
M  V30 744 H 73.995 4.87759 -1.44807 0
M  V30 745 H 73.393 5.39861 1.69015 0
M  V30 746 H 71.95 6.32429 1.57722 0
M  V30 747 N 75.3831 0.828654 1.34056 0
M  V30 748 C 76.3131 0.269443 2.3194 0
M  V30 749 C 77.2941 -0.617247 1.58506 0
M  V30 750 O 78.4791 -0.542931 1.86456 0
M  V30 751 C 75.6091 -0.564793 3.42677 0
M  V30 752 C 74.5631 0.225241 4.27407 0
M  V30 753 C 73.8891 -0.7321 5.29664 0
M  V30 754 C 75.1891 1.43663 5.02154 0
M  V30 755 H 76.8831 1.08728 2.7896 0
M  V30 756 H 74.4291 0.524283 1.34117 0
M  V30 757 H 76.3821 -0.966233 4.10173 0
M  V30 758 H 75.1061 -1.41574 2.9432 0
M  V30 759 H 73.7651 0.608117 3.61521 0
M  V30 760 H 73.4131 -1.57916 4.77568 0
M  V30 761 H 73.1131 -0.20767 5.87233 0
M  V30 762 H 74.6371 -1.13128 6.00029 0
M  V30 763 H 76.0511 1.1089 5.62473 0
M  V30 764 H 74.4481 1.89711 5.69324 0
M  V30 765 H 75.5181 2.21181 4.31517 0
M  V30 766 N 76.8612 -1.46375 0.584142 0
M  V30 767 C 77.7712 -2.34115 -0.150728 0
M  V30 768 C 78.7872 -1.49838 -0.884567 0
M  V30 769 O 79.9632 -1.82704 -0.847429 0
M  V30 770 C 77.0282 -3.2705 -1.15062 0
M  V30 771 C 76.0892 -4.27228 -0.421293 0
M  V30 772 C 75.3222 -5.15722 -1.37355 0
M  V30 773 O 75.5452 -5.07176 -2.61014 0
M  V30 774 O 74.4792 -5.95383 -0.883355 0
M  V30 775 H 78.3052 -2.98309 0.569708 0
M  V30 776 H 75.8902 -1.45373 0.344535 0
M  V30 777 H 77.7722 -3.84381 -1.72712 0
M  V30 778 H 76.4472 -2.65451 -1.8525 0
M  V30 779 H 75.3542 -3.7358 0.197085 0
M  V30 780 H 76.6872 -4.91616 0.239641 0
M  V30 781 N 78.3393 -0.321999 -1.54275 0
M  V30 782 C 79.7553 0.0306999 -1.5957 0
M  V30 783 C 79.9553 1.50614 -1.33857 0
M  V30 784 O 79.0113 2.2619 -1.12223 0
M  V30 785 C 80.3243 -0.386122 -2.98211 0
M  V30 786 C 81.8723 -0.336647 -3.11184 0
M  V30 787 C 82.3473 -0.728607 -4.52167 0
M  V30 788 N 83.8383 -0.681952 -4.58152 0
M  V30 789 C 84.5733 -0.957449 -5.6535 0
M  V30 790 N 84.0693 -1.3 -6.80494 0
M  V30 791 N 85.8623 -0.883113 -5.55119 0
M  V30 792 H 78.0133 -1.28332 -1.69247 0
M  V30 793 H 80.2763 -0.521716 -0.791528 0
M  V30 794 H 79.9823 -1.41404 -3.22022 0
M  V30 795 H 79.8563 0.249662 -3.76373 0
M  V30 796 H 82.2433 0.682058 -2.8711 0
M  V30 797 H 82.3243 -1.00734 -2.3513 0
M  V30 798 H 81.9683 -1.74522 -4.76974 0
M  V30 799 H 81.8983 -0.0356152 -5.26588 0
M  V30 800 H 84.3893 -0.428985 -3.75457 0
M  V30 801 H 84.7023 -1.49563 -7.58189 0
M  V30 802 H 83.0473 -1.33824 -6.81994 0
M  V30 803 H 86.2383 -0.615001 -4.64042 0
M  V30 804 H 86.4113 -1.10118 -6.38575 0
M  V30 805 N 79.8174 1.5752 -0.0501392 0
M  V30 806 C 80.7804 2.1037 0.909786 0
M  V30 807 C 81.7804 1.02308 1.24056 0
M  V30 808 O 82.9704 1.28385 1.17741 0
M  V30 809 C 80.1024 2.58708 2.21998 0
M  V30 810 H 81.2954 2.96479 0.451665 0
M  V30 811 H 78.8484 1.55038 0.198248 0
M  V30 812 H 79.5834 1.75989 2.72394 0
M  V30 813 H 79.3684 3.37675 1.99295 0
M  V30 814 H 80.8584 2.99747 2.9076 0
M  V30 815 N 81.2955 -0.223234 1.56011 0
M  V30 816 C 82.2425 -1.27664 1.92277 0
M  V30 817 C 83.2125 -1.46659 0.779763 0
M  V30 818 O 84.3975 -1.60256 1.03551 0
M  V30 819 C 81.5375 -2.62234 2.24338 0
M  V30 820 C 80.6505 -2.51051 3.51564 0
M  V30 821 C 79.7855 -3.78133 3.7308 0
M  V30 822 C 78.8245 -3.61665 4.93827 0
M  V30 823 N 77.9615 -4.80693 5.11741 0
M  V30 824 H 82.8015 -0.960358 2.82101 0
M  V30 825 H 80.3385 -0.462901 1.39627 0
M  V30 826 H 82.2965 -3.40596 2.40936 0
M  V30 827 H 80.9265 -2.91961 1.3769 0
M  V30 828 H 79.9785 -1.64132 3.43169 0
M  V30 829 H 81.2905 -2.34803 4.40079 0
M  V30 830 H 80.4445 -4.64938 3.89766 0
M  V30 831 H 79.1835 -3.97304 2.82844 0
M  V30 832 H 78.1885 -2.73244 4.77093 0
M  V30 833 H 79.4135 -3.43966 5.85546 0
M  V30 834 H 77.3595 -5.00181 4.24446 0
M  V30 835 H 77.2765 -4.67165 5.94384 0
M  V30 836 H 78.5445 -5.6893 5.3286 0
M  V30 837 N 82.7736 -1.49793 -0.48987 0
M  V30 838 C 83.7236 -1.63673 -1.5873 0
M  V30 839 C 84.7076 -0.491956 -1.53195 0
M  V30 840 O 85.8996 -0.745461 -1.60536 0
M  V30 841 C 83.0286 -1.71689 -2.97284 0
M  V30 842 C 82.1146 -2.91781 -3.07774 0
M  V30 843 N 82.5056 -4.15714 -2.88124 0
M  V30 844 C 80.8036 -2.89949 -3.38889 0
M  V30 845 C 81.5046 -4.965 -3.03088 0
M  V30 846 N 80.4806 -4.30083 -3.3246 0
M  V30 847 H 84.2826 -2.57204 -1.42208 0
M  V30 848 H 81.7966 -1.46719 -0.69623 0
M  V30 849 H 83.7936 -1.79732 -3.76168 0
M  V30 850 H 82.4536 -0.793024 -3.14867 0
M  V30 851 H 83.4646 -4.45515 -2.64077 0
M  V30 852 H 80.1416 -2.06987 -3.62578 0
M  V30 853 H 81.5316 -6.04991 -2.92294 0
M  V30 854 N 84.2517 0.741722 -1.39055 0
M  V30 855 C 85.1987 1.85566 -1.37237 0
M  V30 856 C 86.1687 1.64457 -0.233072 0
M  V30 857 O 87.3537 1.85957 -0.427147 0
M  V30 858 C 84.4937 3.23004 -1.215 0
M  V30 859 C 83.6067 3.55864 -2.44918 0
M  V30 860 C 82.7417 4.82669 -2.21821 0
M  V30 861 C 81.7807 5.08351 -3.40948 0
M  V30 862 N 80.9177 6.26356 -3.17211 0
M  V30 863 H 85.7577 1.86455 -2.32462 0
M  V30 864 H 83.2947 0.911176 -1.15482 0
M  V30 865 H 85.2527 4.02331 -1.10389 0
M  V30 866 H 83.8827 3.21411 -0.29908 0
M  V30 867 H 82.9347 2.7129 -2.66657 0
M  V30 868 H 84.2467 3.70765 -3.33668 0
M  V30 869 H 83.4007 5.69962 -2.07914 0
M  V30 870 H 82.1397 4.69929 -1.30454 0
M  V30 871 H 81.1447 4.19522 -3.55361 0
M  V30 872 H 82.3697 5.22981 -4.33207 0
M  V30 873 H 80.3157 6.14917 -2.28502 0
M  V30 874 H 80.2327 6.41813 -3.99515 0
M  V30 875 H 81.5007 7.16506 -3.06984 0
M  V30 876 N 85.7298 1.2412 0.971189 0
M  V30 877 C 87.1408 1.07236 1.52831 0
M  V30 878 C 87.4918 -0.357352 1.92918 0
M  V30 879 O 86.6168 -1.24528 1.76979 0
M  V30 880 C 87.2118 1.94043 2.77728 0
M  V30 881 C 85.7708 1.81394 3.29808 0
M  V30 882 C 84.9178 1.89189 2.02738 0
M  V30 883 H 87.8688 1.37648 0.789864 0
M  V30 884 H 87.8898 1.47066 3.5093 0
M  V30 885 H 87.4018 2.98093 2.4852 0
M  V30 886 H 85.5028 0.801634 3.63874 0
M  V30 887 H 85.6158 2.65294 3.98944 0
M  V30 888 H 83.9798 1.32877 2.17292 0
M  V30 889 H 84.7628 2.94812 1.759 0
M  V30 890 N 87.2079 -1.17134 1.05439 0
M  V30 891 C 88.4539 -1.87733 0.767077 0
M  V30 892 C 88.7869 -1.8098 -0.704253 0
M  V30 893 O 88.0619 -1.21951 -1.5152 0
M  V30 894 C 88.3449 -3.37659 1.25133 0
M  V30 895 C 88.1979 -3.53149 2.78578 0
M  V30 896 C 89.5169 -4.31768 0.852324 0
M  V30 897 H 86.6359 -0.681687 0.280129 0
M  V30 898 H 89.2779 -1.37732 1.30881 0
M  V30 899 H 87.4279 -3.80373 0.790469 0
M  V30 900 H 89.0999 -3.19434 3.32806 0
M  V30 901 H 87.3429 -2.95345 3.17732 0
M  V30 902 H 88.0139 -4.58403 3.07523 0
M  V30 903 H 90.4899 -3.96909 1.24911 0
M  V30 904 H 89.3659 -5.35199 1.21873 0
M  V30 905 H 89.6269 -4.41429 -0.243485 0
M  V30 906 N 88.686 -0.835752 -1.33615 0
M  V30 907 C 89.649 -0.272 -2.2758 0
M  V30 908 C 90.649 0.557487 -1.50827 0
M  V30 909 O 91.839 0.37173 -1.70188 0
M  V30 910 C 88.971 0.617173 -3.35267 0
M  V30 911 H 90.164 -1.10111 -2.78954 0
M  V30 912 H 87.717 -0.608594 -1.43965 0
M  V30 913 H 88.452 1.46884 -2.89129 0
M  V30 914 H 88.237 0.0237066 -3.92093 0
M  V30 915 H 89.727 1.005 -4.05326 0
M  V30 916 N 90.1641 1.46063 -0.591896 0
M  V30 917 C 91.4111 2.02338 -0.0809991 0
M  V30 918 C 91.7391 1.46228 1.28249 0
M  V30 919 O 90.9941 0.620818 1.85592 0
M  V30 920 C 91.2931 3.57391 0.0249813 0
M  V30 921 C 90.9591 4.32583 -1.27211 0
M  V30 922 C 89.6211 4.52844 -1.62745 0
M  V30 923 C 91.9731 4.75687 -2.13005 0
M  V30 924 C 89.3011 5.13462 -2.83855 0
M  V30 925 C 91.6531 5.37644 -3.3335 0
M  V30 926 C 90.3171 5.5613 -3.69155 0
M  V30 927 H 89.5871 0.740407 -0.0296397 0
M  V30 928 H 92.2341 1.75321 -0.770374 0
M  V30 929 H 90.5391 3.83597 0.797537 0
M  V30 930 H 92.2361 3.98621 0.436184 0
M  V30 931 H 88.8261 4.17116 -0.985499 0
M  V30 932 H 93.0101 4.59782 -1.86855 0
M  V30 933 H 88.2661 5.25965 -3.11722 0
M  V30 934 H 92.4401 5.7 -4.00092 0
M  V30 935 H 90.0671 6.0287 -4.63089 0
M  V30 936 N 91.6422 0.330177 1.54103 0
M  V30 937 C 92.6052 -0.520144 2.2322 0
M  V30 938 C 93.6052 -1.03828 1.22786 0
M  V30 939 O 94.7952 -0.929652 1.4732 0
M  V30 940 C 91.9272 -1.72317 2.94142 0
M  V30 941 H 93.1202 0.0841605 2.99782 0
M  V30 942 H 90.6732 0.0813433 1.56088 0
M  V30 943 H 91.4082 -2.36653 2.21734 0
M  V30 944 H 91.1932 -1.35898 3.67796 0
M  V30 945 H 92.6832 -2.3266 3.46784 0
M  V30 946 N 93.1203 -1.57491 0.0584922 0
M  V30 947 C 94.3663 -1.93264 -0.614558 0
M  V30 948 C 94.6993 -0.937717 -1.7006 0
M  V30 949 O 93.9743 0.0351652 -1.94468 0
M  V30 950 C 94.2573 -3.3938 -1.20386 0
M  V30 951 C 94.1103 -4.49625 -0.125375 0
M  V30 952 C 95.4293 -3.86039 -2.11334 0
M  V30 953 H 92.5483 -0.702791 -0.221933 0
M  V30 954 H 95.1903 -1.8961 0.12175 0
M  V30 955 H 93.3403 -3.42626 -1.83139 0
M  V30 956 H 95.0123 -4.58506 0.506971 0
M  V30 957 H 93.2553 -4.30354 0.545672 0
M  V30 958 H 93.9263 -5.48967 -0.577861 0
M  V30 959 H 96.4023 -3.84716 -1.58534 0
M  V30 960 H 95.2783 -4.88914 -2.49507 0
M  V30 961 H 95.5393 -3.23215 -3.01636 0
M  V30 962 N 94.5984 0.214957 -1.56127 0
M  V30 963 C 96.0144 0.564948 -1.49267 0
M  V30 964 C 96.2144 1.86827 -0.754838 0
M  V30 965 O 95.2704 2.50745 -0.297198 0
M  V30 966 C 96.5834 0.638071 -2.93852 0
M  V30 967 C 98.1314 0.728253 -3.0441 0
M  V30 968 C 98.6064 0.832663 -4.50367 0
M  V30 969 N 100.097 0.896712 -4.54437 0
M  V30 970 C 100.832 0.997324 -5.6466 0
M  V30 971 N 100.328 1.06147 -6.8462 0
M  V30 972 N 102.121 1.03297 -5.52527 0
M  V30 973 H 94.2724 -0.640211 -2.02522 0
M  V30 974 H 96.5354 -0.225507 -0.920788 0
M  V30 975 H 96.2414 -0.250126 -3.50809 0
M  V30 976 H 96.1154 1.49947 -3.46115 0
M  V30 977 H 98.5024 1.60689 -2.47514 0
M  V30 978 H 98.5834 -0.158952 -2.55306 0
M  V30 979 H 98.2274 -0.0415417 -5.07883 0
M  V30 980 H 98.1574 1.73538 -4.97184 0
M  V30 981 H 100.648 0.857188 -3.6805 0
M  V30 982 H 100.961 1.1382 -7.64372 0
M  V30 983 H 99.3064 1.03049 -6.87318 0
M  V30 984 H 102.497 0.979558 -4.57736 0
M  V30 985 H 102.67 1.10793 -6.38458 0
M  V30 986 N 96.0765 1.50051 0.48192 0
M  V30 987 C 97.3045 1.64237 1.25832 0
M  V30 988 C 97.7195 0.321336 1.86045 0
M  V30 989 O 97.0765 -0.695478 1.68729 0
M  V30 990 C 97.1275 2.72548 2.37487 0
M  V30 991 O 96.8485 3.99529 1.79745 0
M  V30 992 C 98.3495 2.9761 3.28547 0
M  V30 993 H 95.5695 0.55237 0.380957 0
M  V30 994 H 98.1135 1.96207 0.576467 0
M  V30 995 H 96.2685 2.43303 3.01467 0
M  V30 996 H 96.6825 4.59342 2.5319 0
M  V30 997 H 98.1565 3.77084 4.03127 0
M  V30 998 H 98.6335 2.0826 3.86684 0
M  V30 999 H 99.2395 3.28345 2.70314 0
M  V30 1000 N 97.5546 -0.734337 1.39446 0
M  V30 1001 C 98.5026 -1.86971 1.38364 0
M  V30 1002 C 99.4966 -1.67288 0.266687 0
M  V30 1003 O 100.703 -1.74621 0.436755 0
M  V30 1004 H 97.0776 -0.615474 0.432082 0
M  V30 1005 H 99.0486 -1.85 2.34132 0
M  V30 1006 C 97.7976 -3.2466 1.24465 0
M  V30 1007 H 97.1206 -3.40402 2.09682 0
M  V30 1008 H 98.5606 -4.04292 1.27764 0
M  V30 1009 C 97.0196 -3.36867 -0.0468674 0
M  V30 1010 O 97.5496 -3.88618 -1.01681 0
M  V30 1011 N 95.7556 -2.90391 -0.110145 0
M  V30 1012 H 95.3026 -2.48466 0.679868 0
M  V30 1013 H 95.2606 -2.98939 -0.973799 0
M  V30 1014 N 99.0327 -1.24633 -0.964593 0
M  V30 1015 C 100.279 -1.08949 -1.71049 0
M  V30 1016 C 100.612 0.370302 -1.90637 0
M  V30 1017 O 99.8867 1.27349 -1.47011 0
M  V30 1018 C 100.17 -1.83329 -3.0994 0
M  V30 1019 C 100.023 -3.37077 -2.97824 0
M  V30 1020 C 101.342 -1.60846 -4.09654 0
M  V30 1021 H 98.4607 -0.397178 -0.620821 0
M  V30 1022 H 101.103 -1.5334 -1.12191 0
M  V30 1023 H 99.2527 -1.45597 -3.60186 0
M  V30 1024 H 100.925 -3.84425 -2.5498 0
M  V30 1025 H 99.1677 -3.65298 -2.33965 0
M  V30 1026 H 99.8387 -3.84324 -3.96231 0
M  V30 1027 H 102.315 -1.93674 -3.68279 0
M  V30 1028 H 101.191 -2.1534 -5.04896 0
M  V30 1029 H 101.452 -0.547434 -4.38698 0
M  V30 1030 N 100.511 1.16574 -1.06058 0
M  V30 1031 C 101.736 1.91493 -0.796562 0
M  V30 1032 C 102.161 1.76773 0.642868 0
M  V30 1033 O 101.519 1.09142 1.44768 0
M  V30 1034 C 101.567 3.40293 -1.19303 0
M  V30 1035 O 100.671 4.11074 -0.330394 0
M  V30 1036 H 100.012 0.596678 -0.291326 0
M  V30 1037 H 102.542 1.47708 -1.41575 0
M  V30 1038 H 102.552 3.91057 -1.16356 0
M  V30 1039 H 101.227 3.50326 -2.24153 0
M  V30 1040 H 99.8038 3.70513 -0.421225 0
M  V30 1041 N 101.989 0.842826 1.3317 0
M  V30 1042 C 103.219 0.453397 2.01564 0
M  V30 1043 C 103.627 -0.951147 1.63554 0
M  V30 1044 O 102.97 -1.63021 0.846746 0
M  V30 1045 C 103.032 0.499013 3.5602 0
M  V30 1046 C 102.696 1.86037 4.1742 0
M  V30 1047 C 103.693 2.82416 4.36506 0
M  V30 1048 C 101.378 2.15428 4.53757 0
M  V30 1049 C 103.372 4.06346 4.91082 0
M  V30 1050 C 101.059 3.39615 5.0804 0
M  V30 1051 C 102.057 4.3489 5.26649 0
M  V30 1052 O 101.745 5.5688 5.79776 0
M  V30 1053 H 101.477 0.177871 0.652179 0
M  V30 1054 H 104.031 1.13808 1.70988 0
M  V30 1055 H 102.261 -0.242467 3.85939 0
M  V30 1056 H 103.95 0.126852 4.05702 0
M  V30 1057 H 104.716 2.6101 4.08777 0
M  V30 1058 H 100.595 1.42061 4.38565 0
M  V30 1059 H 104.139 4.80722 5.05522 0
M  V30 1060 H 100.036 3.60876 5.352 0
M  V30 1061 H 100.804 5.58674 5.98185 0
M  V30 1062 N 103.467 -1.45747 0.599634 0
M  V30 1063 C 104.707 -2.04181 0.0946309 0
M  V30 1064 C 105.071 -1.45895 -1.24815 0
M  V30 1065 O 106.272 -1.95633 -1.8434 0
M  V30 1066 C 104.543 -3.57368 0.047581 0
M  V30 1067 S 106.102 -4.36997 -0.397387 0
M  V30 1068 H 102.92 -0.70953 0.0456954 0
M  V30 1069 H 105.522 -1.78564 0.795946 0
M  V30 1070 H 104.226 -3.97303 1.02852 0
M  V30 1071 H 103.757 -3.87549 -0.675977 0
M  V30 1072 H 105.772 -4.68012 -1.64862 0
M  V30 1073 N 104.945 -0.338344 -1.53925 0
M  V30 1074 C 106.193 0.259245 -2.0043 0
M  V30 1075 C 106.514 1.51484 -1.22791 0
M  V30 1076 O 105.784 1.93037 -0.33368 0
M  V30 1077 H 104.364 0.0987845 -0.740439 0
M  V30 1078 H 107.026 -0.458302 -1.89435 0
M  V30 1079 H 106.122 0.505334 -3.07982 0
M  V30 1080 N 106.423 1.57458 -0.0668435 0
M  V30 1081 C 107.669 1.93587 0.6043 0
M  V30 1082 C 108.002 0.946722 1.69561 0
M  V30 1083 O 107.277 -0.0248516 1.94484 0
M  V30 1084 C 107.56 3.40014 1.18585 0
M  V30 1085 C 107.413 4.49685 0.101529 0
M  V30 1086 C 108.732 3.87154 2.09284 0
M  V30 1087 H 105.851 0.703958 0.218202 0
M  V30 1088 H 108.493 1.89542 -0.131804 0
M  V30 1089 H 106.643 3.43592 1.81319 0
M  V30 1090 H 108.315 4.5823 -0.531279 0
M  V30 1091 H 106.558 4.30059 -0.568487 0
M  V30 1092 H 107.229 5.49266 0.54874 0
M  V30 1093 H 109.705 3.85551 1.56491 0
M  V30 1094 H 108.581 4.90231 2.46911 0
M  V30 1095 H 108.842 3.2481 2.99918 0
M  V30 1096 N 107.901 -0.206675 1.56239 0
M  V30 1097 C 108.831 -1.25909 1.96645 0
M  V30 1098 C 109.812 -1.48097 0.836734 0
M  V30 1099 O 110.997 -1.6003 1.10019 0
M  V30 1100 C 108.127 -2.6058 2.29599 0
M  V30 1101 C 107.081 -2.53024 3.452 0
M  V30 1102 C 106.407 -3.91861 3.63798 0
M  V30 1103 C 107.707 -2.06524 4.79734 0
M  V30 1104 H 109.401 -0.923369 2.84806 0
M  V30 1105 H 106.947 -0.442735 1.37025 0
M  V30 1106 H 108.9 -3.34375 2.56459 0
M  V30 1107 H 107.624 -2.95869 1.38307 0
M  V30 1108 H 106.283 -1.81684 3.18412 0
M  V30 1109 H 105.931 -4.24483 2.69857 0
M  V30 1110 H 105.631 -3.87683 4.4156 0
M  V30 1111 H 107.155 -4.67296 3.93022 0
M  V30 1112 H 108.569 -2.70072 5.05702 0
M  V30 1113 H 106.966 -2.13374 5.60885 0
M  V30 1114 H 108.036 -1.01802 4.74093 0
M  V30 1115 N 109.379 -1.50304 -0.473955 0
M  V30 1116 C 110.656 -1.51667 -1.23518 0
M  V30 1117 C 111.036 -0.259701 -2.09496 0
M  V30 1118 O 110.384 0.756986 -2.15597 0
M  V30 1119 C 110.594 -2.81082 -2.06868 0
M  V30 1120 C 111.942 -3.31631 -2.65153 0
M  V30 1121 O 112.966 -2.82384 -2.17113 0
M  V30 1122 O 111.825 -4.17471 -3.52675 0
M  V30 1123 H 108.919 -0.60822 -0.560355 0
M  V30 1124 H 111.465 -1.62592 -0.486011 0
M  V30 1125 H 110.237 -3.64041 -1.4349 0
M  V30 1126 H 109.86 -2.73146 -2.88924 0
M  V30 1127 N 110.857 0.726932 -1.39834 0
M  V30 1128 C 111.767 1.87131 -1.41489 0
M  V30 1129 C 112.783 1.71239 -0.308757 0
M  V30 1130 O 113.959 1.93701 -0.551529 0
M  V30 1131 C 111.024 3.22811 -1.26468 0
M  V30 1132 C 110.085 3.51039 -2.47124 0
M  V30 1133 C 109.318 4.80245 -2.3281 0
M  V30 1134 O 109.541 5.54537 -1.33585 0
M  V30 1135 O 108.475 5.08554 -3.21957 0
M  V30 1136 H 112.301 1.8869 -2.3797 0
M  V30 1137 H 109.886 0.875837 -1.21035 0
M  V30 1138 H 111.768 4.03877 -1.20255 0
M  V30 1139 H 110.443 3.22005 -0.330862 0
M  V30 1140 H 109.35 2.70027 -2.58914 0
M  V30 1141 H 110.683 3.56632 -3.39227 0
M  V30 1142 N 112.336 1.25143 0.95797 0
M  V30 1143 C 113.246 1.06968 2.08794 0
M  V30 1144 C 114.262 0.00773911 1.73998 0
M  V30 1145 O 115.438 0.207972 2.00323 0
M  V30 1146 C 112.503 0.68691 3.39827 0
M  V30 1147 C 111.564 1.82641 3.88511 0
M  V30 1148 C 110.797 1.46181 5.1329 0
M  V30 1149 O 111.02 0.355971 5.69288 0
M  V30 1150 O 109.954 2.29085 5.566 0
M  V30 1151 H 113.78 2.01723 2.27027 0
M  V30 1152 H 111.365 1.04051 1.07209 0
M  V30 1153 H 113.247 0.485417 4.18595 0
M  V30 1154 H 111.922 -0.231417 3.22872 0
M  V30 1155 H 110.829 2.08274 3.10762 0
M  V30 1156 H 112.162 2.72386 4.09959 0
M  V30 1157 N 113.814 -1.1601 1.06675 0
M  V30 1158 C 115.054 -1.88304 0.795037 0
M  V30 1159 C 115.418 -1.80062 -0.666466 0
M  V30 1160 O 116.619 -2.47319 -1.05293 0
M  V30 1161 C 114.89 -3.33664 1.28076 0
M  V30 1162 S 116.449 -4.23768 1.13868 0
M  V30 1163 H 113.267 -0.649928 0.288296 0
M  V30 1164 H 115.869 -1.4001 1.36445 0
M  V30 1165 H 114.573 -3.37203 2.33927 0
M  V30 1166 H 114.104 -3.87009 0.706253 0
M  V30 1167 H 116.119 -4.96148 0.0719668 0
M  V30 1168 N 115.292 -0.849877 -1.32721 0
M  V30 1169 C 116.703 -0.506188 -1.79707 0
M  V30 1170 C 117.054 0.975627 -1.70223 0
M  V30 1171 O 116.179 1.76078 -1.25799 0
M  V30 1172 C 116.774 -0.912044 -3.26293 0
M  V30 1173 C 115.333 -0.620326 -3.71253 0
M  V30 1174 C 114.48 -1.11439 -2.53922 0
M  V30 1175 H 117.431 -1.03754 -1.20087 0
M  V30 1176 H 117.452 -0.226493 -3.79825 0
M  V30 1177 H 116.964 -1.99057 -3.33164 0
M  V30 1178 H 115.065 0.447674 -3.69901 0
M  V30 1179 H 115.178 -1.18327 -4.64258 0
M  V30 1180 H 113.542 -0.534834 -2.49021 0
M  V30 1181 H 114.325 -2.19992 -2.6355 0
M  V30 1182 N 116.77 1.45427 -0.607355 0
M  V30 1183 C 118.016 2.0254 -0.102607 0
M  V30 1184 C 118.349 1.47478 1.26348 0
M  V30 1185 O 117.624 0.64939 1.83339 0
M  V30 1186 C 117.907 3.60044 -0.0634347 0
M  V30 1187 C 117.76 4.2544 -1.46017 0
M  V30 1188 C 119.079 4.35646 0.624514 0
M  V30 1189 H 116.198 0.73598 -0.0387607 0
M  V30 1190 H 118.84 1.73284 -0.779282 0
M  V30 1191 H 116.99 3.85101 0.512808 0
M  V30 1192 H 118.662 4.11569 -2.08347 0
M  V30 1193 H 116.905 3.83849 -2.02094 0
M  V30 1194 H 117.576 5.34342 -1.385 0
M  V30 1195 H 120.052 4.15882 0.134723 0
M  V30 1196 H 118.928 5.45376 0.621028 0
M  V30 1197 H 119.189 4.08501 1.69055 0
M  V30 1198 N 118.248 0.346503 1.53744 0
M  V30 1199 C 119.18 -0.543316 2.22667 0
M  V30 1200 C 120.193 -1.06159 1.23427 0
M  V30 1201 O 121.382 -0.971235 1.49764 0
M  V30 1202 C 118.482 -1.76076 2.89569 0
M  V30 1203 C 117.655 -1.37727 4.15151 0
M  V30 1204 C 116.714 -2.45471 4.65436 0
M  V30 1205 O 115.74 -2.08655 5.29577 0
M  V30 1206 N 116.942 -3.7677 4.41616 0
M  V30 1207 H 119.707 0.0469703 2.99663 0
M  V30 1208 H 117.268 0.170766 1.60997 0
M  V30 1209 H 119.26 -2.47593 3.20125 0
M  V30 1210 H 117.83 -2.25835 2.16142 0
M  V30 1211 H 117.05 -0.492746 3.91108 0
M  V30 1212 H 118.338 -1.09708 4.96832 0
M  V30 1213 H 117.736 -4.09467 3.90325 0
M  V30 1214 H 116.293 -4.44448 4.7677 0
M  V30 1215 N 119.726 -1.57421 0.075193 0
M  V30 1216 C 120.974 -1.93236 -0.591974 0
M  V30 1217 C 121.295 -0.956241 -1.69944 0
M  V30 1218 O 120.565 -0.00494792 -1.95899 0
M  V30 1219 H 119.145 -0.713355 -0.22166 0
M  V30 1220 H 121.807 -1.9444 0.133848 0
M  V30 1221 H 120.903 -2.95131 -1.01509 0
M  V30 1222 N 121.204 0.198386 -1.56346 0
M  V30 1223 C 122.429 0.939682 -1.84891 0
M  V30 1224 C 122.854 1.76202 -0.658369 0
M  V30 1225 O 122.212 1.76993 0.392851 0
M  V30 1226 C 122.26 1.81428 -3.11635 0
M  V30 1227 O 121.364 2.91265 -2.91956 0
M  V30 1228 H 120.705 0.264807 -0.608912 0
M  V30 1229 H 123.235 0.204695 -2.03573 0
M  V30 1230 H 123.245 2.21958 -3.42343 0
M  V30 1231 H 121.92 1.21004 -3.97908 0
M  V30 1232 H 120.497 2.54514 -2.72538 0
M  V30 1233 N 122.682 1.50554 0.465978 0
M  V30 1234 C 123.93 1.61479 1.21528 0
M  V30 1235 C 124.251 0.319596 1.92363 0
M  V30 1236 O 123.521 -0.663194 1.84333 0
M  V30 1237 H 122.101 0.595055 0.451573 0
M  V30 1238 H 124.763 1.87355 0.53704 0
M  V30 1239 H 123.859 2.42846 1.96042 0
M  V30 1240 N 124.16 -0.719506 1.40217 0
M  V30 1241 C 125.406 -1.48152 1.38488 0
M  V30 1242 C 125.739 -1.94195 -0.0141867 0
M  V30 1243 O 125.014 -1.67884 -0.982096 0
M  V30 1244 C 125.297 -2.71035 2.37091 0
M  V30 1245 C 125.15 -2.30912 3.86005 0
M  V30 1246 C 126.469 -3.73182 2.33288 0
M  V30 1247 H 123.588 -0.537395 0.504357 0
M  V30 1248 H 126.23 -0.821472 1.71324 0
M  V30 1249 H 124.38 -3.27352 2.0922 0
M  V30 1250 H 126.052 -1.80107 4.24687 0
M  V30 1251 H 124.295 -1.62958 4.02029 0
M  V30 1252 H 124.966 -3.18978 4.50508 0
M  V30 1253 H 127.442 -3.26485 2.57966 0
M  V30 1254 H 126.318 -4.56806 3.04334 0
M  V30 1255 H 126.579 -4.21202 1.34317 0
M  V30 1256 N 125.638 -1.25649 -0.95132 0
M  V30 1257 C 126.586 -1.06118 -2.06982 0
M  V30 1258 C 127.58 0.00889169 -1.69398 0
M  V30 1259 O 128.786 -0.146988 -1.79399 0
M  V30 1260 H 125.161 -0.326248 -0.677544 0
M  V30 1261 H 127.132 -2.00932 -2.2061 0
M  V30 1262 C 125.881 -0.700145 -3.40578 0
M  V30 1263 H 125.204 -1.51537 -3.69968 0
M  V30 1264 H 126.644 -0.603211 -4.19687 0
M  V30 1265 C 125.103 0.59403 -3.31622 0
M  V30 1266 O 125.633 1.63522 -3.66911 0
M  V30 1267 N 123.839 0.58089 -2.84735 0
M  V30 1268 H 123.386 -0.266783 -2.56215 0
M  V30 1269 H 123.344 1.44695 -2.79125 0
M  V30 1270 N 127.117 1.15442 -1.07289 0
M  V30 1271 C 128.364 1.86213 -0.795668 0
M  V30 1272 C 128.692 1.82291 0.678238 0
M  V30 1273 O 127.947 1.24057 1.51355 0
M  V30 1274 C 128.246 3.3489 -1.24834 0
M  V30 1275 C 127.912 3.59007 -2.72809 0
M  V30 1276 C 126.574 3.65298 -3.13227 0
M  V30 1277 C 128.926 3.68762 -3.68326 0
M  V30 1278 C 126.254 3.78854 -4.4798 0
M  V30 1279 C 128.606 3.83842 -5.0284 0
M  V30 1280 C 127.27 3.88378 -5.4288 0
M  V30 1281 H 126.54 0.681403 -0.291155 0
M  V30 1282 H 129.187 1.36435 -1.34379 0
M  V30 1283 H 127.492 3.8687 -0.619595 0
M  V30 1284 H 129.189 3.88052 -1.01076 0
M  V30 1285 H 125.779 3.5475 -2.40521 0
M  V30 1286 H 129.963 3.63202 -3.38227 0
M  V30 1287 H 125.219 3.80623 -4.78472 0
M  V30 1288 H 129.393 3.90332 -5.76727 0
M  V30 1289 H 127.02 3.98635 -6.47298 0
M  V30 1290 N 128.595 0.856903 1.32268 0
M  V30 1291 C 129.505 0.306131 2.32594 0
M  V30 1292 C 130.521 -0.577209 1.64147 0
M  V30 1293 O 131.697 -0.477043 1.95669 0
M  V30 1294 C 128.762 -0.494561 3.43154 0
M  V30 1295 C 127.823 0.415186 4.27288 0
M  V30 1296 C 127.056 -0.347387 5.32568 0
M  V30 1297 O 127.279 -1.57708 5.48165 0
M  V30 1298 O 126.213 0.287982 6.01211 0
M  V30 1299 H 130.039 1.13737 2.81598 0
M  V30 1300 H 127.624 0.619902 1.35932 0
M  V30 1301 H 129.506 -0.948944 4.10576 0
M  V30 1302 H 128.181 -1.30257 2.96336 0
M  V30 1303 H 127.088 0.917793 3.62667 0
M  V30 1304 H 128.421 1.18844 4.77637 0
M  V30 1305 N 130.073 -1.45103 0.615059 0
M  V30 1306 C 131.036 -2.29025 -0.0895485 0
M  V30 1307 C 132.036 -1.40174 -0.787906 0
M  V30 1308 O 133.226 -1.62217 -0.634933 0
M  V30 1309 C 130.358 -3.21376 -1.13711 0
M  V30 1310 H 131.551 -2.92807 0.648382 0
M  V30 1311 H 129.104 -1.51749 0.374444 0
M  V30 1312 H 129.839 -2.6241 -1.90556 0
M  V30 1313 H 129.624 -3.86834 -0.640475 0
M  V30 1314 H 131.114 -3.84459 -1.63036 0
M  V30 1315 N 131.551 -0.354651 -1.53558 0
M  V30 1316 C 132.498 0.496968 -2.25386 0
M  V30 1317 C 133.468 1.0865 -1.25636 0
M  V30 1318 O 134.653 1.12104 -1.54394 0
M  V30 1319 C 131.793 1.63637 -3.03837 0
M  V30 1320 C 130.906 1.07307 -4.18461 0
M  V30 1321 C 130.041 2.18068 -4.84376 0
M  V30 1322 C 129.08 1.59147 -5.91049 0
M  V30 1323 N 128.217 2.63695 -6.50699 0
M  V30 1324 H 133.057 -0.122075 -2.9775 0
M  V30 1325 H 130.594 -0.0720154 -1.46924 0
M  V30 1326 H 132.552 2.30734 -3.47589 0
M  V30 1327 H 131.182 2.22623 -2.33749 0
M  V30 1328 H 130.234 0.292708 -3.79272 0
M  V30 1329 H 131.546 0.602193 -4.95152 0
M  V30 1330 H 130.7 2.93007 -5.31255 0
M  V30 1331 H 129.439 2.68504 -4.07133 0
M  V30 1332 H 128.444 0.827175 -5.43542 0
M  V30 1333 H 129.669 1.09549 -6.70206 0
M  V30 1334 H 127.615 3.13365 -5.76315 0
M  V30 1335 H 127.532 2.21263 -7.22896 0
M  V30 1336 H 128.8 3.3837 -7.02229 0
M  V30 1337 N 133.029 1.57378 -0.0835403 0
M  V30 1338 C 134.306 1.85363 0.624507 0
M  V30 1339 C 134.686 0.978239 1.87066 0
M  V30 1340 O 134.034 0.0475908 2.2845 0
M  V30 1341 C 134.244 3.35795 0.950947 0
M  V30 1342 C 135.592 4.03581 1.31939 0
M  V30 1343 O 136.616 3.40609 1.04232 0
M  V30 1344 O 135.475 5.14672 1.83779 0
M  V30 1345 H 132.569 0.766162 0.311329 0
M  V30 1346 H 135.115 1.69307 -0.115362 0
M  V30 1347 H 133.887 3.91244 0.0663899 0
M  V30 1348 H 133.51 3.57154 1.74719 0
M  V30 1349 N 134.507 -0.190092 1.56449 0
M  V30 1350 C 135.754 -0.909705 1.80916 0
M  V30 1351 C 136.082 -1.83047 0.657583 0
M  V30 1352 O 135.337 -1.92428 -0.356356 0
M  V30 1353 C 135.636 -1.75382 3.1141 0
M  V30 1354 C 135.302 -0.983606 4.40041 0
M  V30 1355 C 133.964 -0.770967 4.74984 0
M  V30 1356 C 136.316 -0.442024 5.19322 0
M  V30 1357 C 133.644 -0.0053448 5.867 0
M  V30 1358 C 135.996 0.310412 6.31838 0
M  V30 1359 C 134.66 0.534023 6.6536 0
M  V30 1360 H 133.93 -0.332885 0.662019 0
M  V30 1361 H 136.577 -0.175762 1.90692 0
M  V30 1362 H 134.882 -2.55659 2.96893 0
M  V30 1363 H 136.579 -2.31331 3.27547 0
M  V30 1364 H 133.169 -1.15936 4.12622 0
M  V30 1365 H 137.353 -0.593693 4.92736 0
M  V30 1366 H 132.609 0.177825 6.11141 0
M  V30 1367 H 136.783 0.737419 6.92485 0
M  V30 1368 H 134.41 1.12918 7.51767 0
M  V30 1369 N 135.985 -1.50799 -0.457987 0
M  V30 1370 C 136.915 -1.73553 -1.5621 0
M  V30 1371 C 137.896 -0.584774 -1.59732 0
M  V30 1372 O 139.081 -0.825314 -1.7579 0
M  V30 1373 C 136.211 -1.84169 -2.94447 0
M  V30 1374 C 135.165 -2.99461 -3.0579 0
M  V30 1375 C 134.491 -2.95235 -4.45803 0
M  V30 1376 C 135.791 -4.39766 -2.81786 0
M  V30 1377 H 137.485 -2.66 -1.37421 0
M  V30 1378 H 135.031 -1.28002 -0.659662 0
M  V30 1379 H 136.984 -1.98672 -3.71628 0
M  V30 1380 H 135.708 -0.883545 -3.14422 0
M  V30 1381 H 134.367 -2.8463 -2.31044 0
M  V30 1382 H 134.015 -1.97239 -4.62715 0
M  V30 1383 H 133.715 -3.72642 -4.54326 0
M  V30 1384 H 135.239 -3.11803 -5.24987 0
M  V30 1385 H 136.653 -4.55054 -3.4871 0
M  V30 1386 H 135.05 -5.18722 -3.0174 0
M  V30 1387 H 136.12 -4.51229 -1.7754 0
M  V30 1388 N 137.463 0.71206 -1.40597 0
M  V30 1389 C 138.413 1.81783 -1.37619 0
M  V30 1390 C 139.397 1.58896 -0.253162 0
M  V30 1391 O 140.589 1.70009 -0.492547 0
M  V30 1392 C 137.718 3.19944 -1.24462 0
M  V30 1393 C 136.804 3.48582 -2.4156 0
M  V30 1394 N 137.195 3.48016 -3.67041 0
M  V30 1395 C 135.493 3.79056 -2.35016 0
M  V30 1396 C 136.194 3.75096 -4.44609 0
M  V30 1397 N 135.17 3.94022 -3.74497 0
M  V30 1398 H 138.972 1.79683 -2.32575 0
M  V30 1399 H 136.486 0.91134 -1.34419 0
M  V30 1400 H 138.483 3.99133 -1.20411 0
M  V30 1401 H 137.143 3.23267 -0.304762 0
M  V30 1402 H 138.154 3.28782 -4.00153 0
M  V30 1403 H 134.831 3.89848 -1.49415 0
M  V30 1404 H 136.221 3.80934 -5.53479 0
M  V30 1405 N 138.941 1.26152 0.944643 0
M  V30 1406 C 140.19 1.10883 1.68487 0
M  V30 1407 C 140.503 -0.348153 1.92477 0
M  V30 1408 O 141.709 -0.621459 2.64292 0
M  V30 1409 C 140.165 1.93624 3.03377 0
M  V30 1410 C 139.773 3.43875 2.87148 0
M  V30 1411 C 141.517 1.86954 3.81115 0
M  V30 1412 C 139.424 4.18875 4.1749 0
M  V30 1413 H 138.354 0.41135 0.631907 0
M  V30 1414 H 141.005 1.50433 1.05082 0
M  V30 1415 H 139.387 1.46904 3.67743 0
M  V30 1416 H 140.561 3.98338 2.31653 0
M  V30 1417 H 138.876 3.51744 2.22856 0
M  V30 1418 H 141.473 2.40275 4.77673 0
M  V30 1419 H 141.816 0.839518 4.07747 0
M  V30 1420 H 142.349 2.31477 3.23517 0
M  V30 1421 H 139.088 5.22332 3.96043 0
M  V30 1422 H 138.608 3.69193 4.72712 0
M  V30 1423 H 140.287 4.27134 4.85968 0
M  V30 1424 N 140.419 -1.14872 1.07899 0
M  V30 1425 C 141.366 -2.19791 0.704319 0
M  V30 1426 C 142.336 -1.63238 -0.306987 0
M  V30 1427 O 143.521 -1.8983 -0.192171 0
M  V30 1428 C 140.661 -3.44911 0.114244 0
M  V30 1429 C 139.774 -4.15637 1.1777 0
M  V30 1430 C 138.909 -5.28324 0.552037 0
M  V30 1431 C 137.948 -5.90875 1.59789 0
M  V30 1432 N 137.085 -6.95022 0.994404 0
M  V30 1433 H 141.925 -2.5119 1.60336 0
M  V30 1434 H 139.462 -1.23356 0.801352 0
M  V30 1435 H 141.42 -4.16477 -0.245544 0
M  V30 1436 H 140.05 -3.14011 -0.74813 0
M  V30 1437 H 139.102 -3.42512 1.65499 0
M  V30 1438 H 140.414 -4.5823 1.97046 0
M  V30 1439 H 139.568 -6.06538 0.1402 0
M  V30 1440 H 138.307 -4.86939 -0.272431 0
M  V30 1441 H 137.312 -5.11369 2.01945 0
M  V30 1442 H 138.537 -6.34337 2.42474 0
M  V30 1443 H 136.483 -6.55722 0.190939 0
M  V30 1444 H 136.4 -7.36073 1.72432 0
M  V30 1445 H 137.668 -7.77123 0.608253 0
M  V30 1446 N 141.898 -0.863906 -1.31812 0
M  V30 1447 C 142.808 -0.318461 -2.32428 0
M  V30 1448 C 143.824 0.568496 -1.64451 0
M  V30 1449 O 145 0.46666 -1.95919 0
M  V30 1450 C 142.065 0.476355 -3.43412 0
M  V30 1451 C 141.126 -0.43784 -4.27061 0
M  V30 1452 C 140.359 0.319138 -5.32745 0
M  V30 1453 O 140.582 1.54799 -5.48993 0
M  V30 1454 O 139.516 -0.319861 -6.01049 0
M  V30 1455 H 143.342 -1.15229 -2.80991 0
M  V30 1456 H 140.927 -0.627103 -1.35602 0
M  V30 1457 H 142.809 0.927156 -4.11074 0
M  V30 1458 H 141.484 1.28683 -2.97022 0
M  V30 1459 H 140.391 -0.937013 -3.62175 0
M  V30 1460 H 141.724 -1.21375 -4.77 0
M  V30 1461 N 143.376 1.44774 -0.622745 0
M  V30 1462 C 144.323 2.30635 0.0871679 0
M  V30 1463 C 145.293 1.42994 0.845097 0
M  V30 1464 O 146.478 1.71907 0.827812 0
M  V30 1465 C 143.618 3.28144 1.06844 0
M  V30 1466 C 142.731 4.30888 0.309809 0
M  V30 1467 C 141.866 5.15494 1.28215 0
M  V30 1468 C 140.905 6.09953 0.512198 0
M  V30 1469 N 140.042 6.87287 1.43458 0
M  V30 1470 H 144.882 2.90803 -0.650974 0
M  V30 1471 H 142.419 1.43286 -0.33281 0
M  V30 1472 H 144.377 3.83157 1.65066 0
M  V30 1473 H 143.007 2.69695 1.77382 0
M  V30 1474 H 142.059 3.78414 -0.388181 0
M  V30 1475 H 143.371 4.97955 -0.290254 0
M  V30 1476 H 142.525 5.74983 1.93596 0
M  V30 1477 H 141.264 4.48481 1.91614 0
M  V30 1478 H 140.269 5.49581 -0.155151 0
M  V30 1479 H 141.494 6.78999 -0.116958 0
M  V30 1480 H 139.44 6.2295 2.05594 0
M  V30 1481 H 139.357 7.50763 0.888335 0
M  V30 1482 H 140.625 7.51306 2.07749 0
M  V30 1483 N 144.854 0.36279 1.53368 0
M  V30 1484 C 146.084 -0.228281 2.05335 0
M  V30 1485 C 146.492 -1.43226 1.23625 0
M  V30 1486 O 145.835 -1.81717 0.269206 0
M  V30 1487 C 145.897 -0.688549 3.52845 0
M  V30 1488 C 145.561 0.398362 4.5526 0
M  V30 1489 C 146.558 1.24732 5.04716 0
M  V30 1490 C 144.243 0.557805 4.99193 0
M  V30 1491 C 146.237 2.2411 5.96702 0
M  V30 1492 C 143.924 1.55495 5.90986 0
M  V30 1493 C 144.922 2.39503 6.39631 0
M  V30 1494 O 144.61 3.37517 7.29615 0
M  V30 1495 H 144.342 -0.044395 0.674541 0
M  V30 1496 H 146.896 0.518668 1.98744 0
M  V30 1497 H 145.126 -1.48706 3.56964 0
M  V30 1498 H 146.815 -1.20231 3.87685 0
M  V30 1499 H 147.581 1.13532 4.71525 0
M  V30 1500 H 143.46 -0.0862959 4.60919 0
M  V30 1501 H 147.004 2.89718 6.34594 0
M  V30 1502 H 142.901 1.66744 6.23592 0
M  V30 1503 H 143.669 3.33213 7.47604 0
M  V30 1504 N 146.332 -1.57332 0.0918853 0
M  V30 1505 C 147.557 -1.98995 -0.584442 0
M  V30 1506 C 147.982 -0.970528 -1.61128 0
M  V30 1507 O 147.34 0.0613904 -1.81196 0
M  V30 1508 C 147.388 -3.39636 -1.21161 0
M  V30 1509 O 146.492 -3.40447 -2.32744 0
M  V30 1510 H 145.833 -0.647165 -0.148572 0
M  V30 1511 H 148.363 -2.03873 0.172347 0
M  V30 1512 H 148.373 -3.7726 -1.55367 0
M  V30 1513 H 147.048 -4.13356 -0.459313 0
M  V30 1514 H 145.625 -3.14614 -2.0018 0
M  V30 1515 N 147.81 0.181792 -1.56548 0
M  V30 1516 C 148.758 1.24461 -1.965 0
M  V30 1517 C 149.752 1.464 -0.852261 0
M  V30 1518 O 150.958 1.47103 -1.03733 0
M  V30 1519 H 147.333 0.418138 -0.625031 0
M  V30 1520 H 149.304 0.880714 -2.85107 0
M  V30 1521 C 148.053 2.57891 -2.33212 0
M  V30 1522 H 147.376 2.41829 -3.18369 0
M  V30 1523 H 148.816 3.3097 -2.65019 0
M  V30 1524 C 147.275 3.15871 -1.17163 0
M  V30 1525 O 147.805 3.9913 -0.453708 0
M  V30 1526 N 146.011 2.74808 -0.944936 0
M  V30 1527 H 145.558 2.07205 -1.53049 0
M  V30 1528 H 145.516 3.13939 -0.170286 0
M  V30 1529 N 149.288 1.51039 0.449983 0
M  V30 1530 C 150.565 1.53612 1.21089 0
M  V30 1531 C 150.945 0.292997 2.09057 0
M  V30 1532 O 150.293 -0.72259 2.16774 0
M  V30 1533 C 150.503 2.84337 2.0237 0
M  V30 1534 C 151.851 3.35807 2.59843 0
M  V30 1535 O 152.875 2.85802 2.12593 0
M  V30 1536 O 151.734 4.23029 3.45989 0
M  V30 1537 H 148.828 0.617057 0.550608 0
M  V30 1538 H 151.374 1.63344 0.460082 0
M  V30 1539 H 150.146 3.66278 1.37681 0
M  V30 1540 H 149.769 2.77708 2.84542 0
M  V30 1541 N 150.766 -0.704594 1.40972 0
M  V30 1542 C 152.012 -1.46546 1.41053 0
M  V30 1543 C 152.367 -1.92393 0.0159714 0
M  V30 1544 O 151.66 -1.66017 -0.956506 0
M  V30 1545 C 151.854 -2.698 2.34399 0
M  V30 1546 C 151.683 -2.36008 3.82793 0
M  V30 1547 C 150.453 -2.26812 4.51536 0
M  V30 1548 C 152.651 -1.99565 4.74003 0
M  V30 1549 N 150.633 -1.8581 5.85105 0
M  V30 1550 C 152.004 -1.69251 5.96451 0
M  V30 1551 C 154.059 -1.86296 4.61734 0
M  V30 1552 C 152.762 -1.27003 7.07999 0
M  V30 1553 C 154.788 -1.45452 5.73234 0
M  V30 1554 C 154.15 -1.16043 6.94776 0
M  V30 1555 H 150.249 -0.533896 0.571383 0
M  V30 1556 H 152.833 -0.816061 1.76773 0
M  V30 1557 H 151.004 -3.32473 2.00789 0
M  V30 1558 H 152.736 -3.36214 2.25261 0
M  V30 1559 H 149.491 -2.44913 4.05357 0
M  V30 1560 H 149.915 -1.67817 6.55871 0
M  V30 1561 H 154.557 -2.0769 3.68273 0
M  V30 1562 H 152.275 -1.04353 8.01334 0
M  V30 1563 H 155.861 -1.35748 5.65742 0
M  V30 1564 H 154.741 -0.84915 7.79589 0
M  V30 1565 N 152.244 -1.26651 -0.937939 0
M  V30 1566 C 153.49 -1.13562 -1.68746 0
M  V30 1567 C 153.845 0.317241 -1.89767 0
M  V30 1568 O 153.138 1.22939 -1.46957 0
M  V30 1569 C 153.332 -1.84168 -3.06295 0
M  V30 1570 C 153.161 -3.36171 -2.98696 0
M  V30 1571 C 151.931 -4.05468 -3.01535 0
M  V30 1572 C 154.129 -4.32312 -2.78588 0
M  V30 1573 N 152.111 -5.44118 -2.84269 0
M  V30 1574 C 153.482 -5.58159 -2.69924 0
M  V30 1575 C 155.537 -4.22524 -2.63396 0
M  V30 1576 C 154.24 -6.75335 -2.47618 0
M  V30 1577 C 156.266 -5.39411 -2.42466 0
M  V30 1578 C 155.628 -6.64208 -2.34536 0
M  V30 1579 H 151.727 -0.470361 -0.624728 0
M  V30 1580 H 154.311 -1.59982 -1.10968 0
M  V30 1581 H 152.482 -1.40219 -3.62206 0
M  V30 1582 H 154.214 -1.63674 -3.70126 0
M  V30 1583 H 150.969 -3.56854 -3.11372 0
M  V30 1584 H 151.393 -6.1693 -2.78795 0
M  V30 1585 H 156.035 -3.26771 -2.68292 0
M  V30 1586 H 153.753 -7.71182 -2.41463 0
M  V30 1587 H 157.339 -5.33711 -2.31611 0
M  V30 1588 H 156.219 -7.53129 -2.18555 0
M  V30 1589 N 153.722 1.14298 -1.08507 0
M  V30 1590 C 154.971 1.84708 -0.810305 0
M  V30 1591 C 155.284 1.83903 0.666271 0
M  V30 1592 O 156.49 2.50112 1.05624 0
M  V30 1593 C 154.946 3.31572 -1.39957 0
M  V30 1594 C 154.554 3.40791 -2.90801 0
M  V30 1595 C 156.298 4.07087 -1.20334 0
M  V30 1596 C 154.205 4.81872 -3.4286 0
M  V30 1597 H 153.135 0.691985 -0.299454 0
M  V30 1598 H 155.786 1.28841 -1.30661 0
M  V30 1599 H 154.168 3.87183 -0.830976 0
M  V30 1600 H 155.342 2.95225 -3.53806 0
M  V30 1601 H 153.657 2.78732 -3.0935 0
M  V30 1602 H 156.254 5.11225 -1.56693 0
M  V30 1603 H 156.597 4.16054 -0.143237 0
M  V30 1604 H 157.13 3.57779 -1.73893 0
M  V30 1605 H 153.869 4.78094 -4.48449 0
M  V30 1606 H 153.389 5.27972 -2.84615 0
M  V30 1607 H 155.068 5.50765 -3.39509 0
M  V30 1608 N 155.201 0.870884 1.31352 0
M  V30 1609 C 156.449 0.48132 1.96285 0
M  V30 1610 C 156.77 -0.969813 1.69173 0
M  V30 1611 O 156.04 -1.67998 1.00764 0
M  V30 1612 H 154.62 0.175002 0.726212 0
M  V30 1613 H 157.282 1.11087 1.60143 0
M  V30 1614 H 156.378 0.639825 3.05471 0
M  V30 1615 N 156.679 -1.44442 0.630414 0
M  V30 1616 C 158.095 -1.56832 0.295973 0
M  V30 1617 C 158.295 -1.61806 -1.20088 0
M  V30 1618 O 157.351 -1.5607 -1.9849 0
M  V30 1619 C 158.664 -2.84031 0.987264 0
M  V30 1620 C 160.212 -2.97742 0.96534 0
M  V30 1621 C 160.687 -4.27743 1.63708 0
M  V30 1622 N 162.178 -4.34555 1.60364 0
M  V30 1623 C 162.913 -5.33862 2.09234 0
M  V30 1624 N 162.409 -6.39578 2.66292 0
M  V30 1625 N 164.202 -5.25366 1.99867 0
M  V30 1626 H 156.353 -1.39457 1.60205 0
M  V30 1627 H 158.616 -0.668237 0.672431 0
M  V30 1628 H 158.322 -2.86338 2.04215 0
M  V30 1629 H 158.196 -3.73534 0.524588 0
M  V30 1630 H 160.583 -2.94989 -0.0810639 0
M  V30 1631 H 160.664 -2.09589 1.4665 0
M  V30 1632 H 160.308 -4.31255 2.68293 0
M  V30 1633 H 160.238 -5.14752 1.11076 0
M  V30 1634 H 162.729 -3.58772 1.18705 0
M  V30 1635 H 163.042 -7.11637 3.01317 0
M  V30 1636 H 161.387 -6.40265 2.70343 0
M  V30 1637 H 164.578 -4.41688 1.55013 0
M  V30 1638 H 164.751 -6.02606 2.38265 0
M  V30 1639 N 158.157 -0.370918 -1.53173 0
M  V30 1640 C 159.087 0.464847 -2.28826 0
M  V30 1641 C 160.068 1.07936 -1.31468 0
M  V30 1642 O 161.253 1.0956 -1.60344 0
M  V30 1643 C 158.383 1.60196 -3.08147 0
M  V30 1644 C 157.337 1.11443 -4.13237 0
M  V30 1645 C 156.663 2.3422 -4.80672 0
M  V30 1646 C 157.963 0.195384 -5.21934 0
M  V30 1647 H 159.657 -0.166329 -2.98938 0
M  V30 1648 H 157.203 -0.0814359 -1.4377 0
M  V30 1649 H 159.156 2.19332 -3.59822 0
M  V30 1650 H 157.88 2.26045 -2.35735 0
M  V30 1651 H 156.539 0.545727 -3.62515 0
M  V30 1652 H 156.187 2.98537 -4.04827 0
M  V30 1653 H 155.887 2.02269 -5.51689 0
M  V30 1654 H 157.411 2.94032 -5.35143 0
M  V30 1655 H 158.825 0.694375 -5.69079 0
M  V30 1656 H 157.222 -0.0335027 -6.00091 0
M  V30 1657 H 158.292 -0.760961 -4.78892 0
M  V30 1658 N 159.635 1.57281 -0.100228 0
M  V30 1659 C 160.881 1.94826 0.563101 0
M  V30 1660 C 161.214 0.982475 1.67514 0
M  V30 1661 O 160.489 0.0164069 1.94493 0
M  V30 1662 C 160.772 3.42453 1.11346 0
M  V30 1663 C 160.625 4.498 0.00612081 0
M  V30 1664 C 161.944 3.91506 2.01024 0
M  V30 1665 H 159.063 0.708428 0.203221 0
M  V30 1666 H 161.705 1.8922 -0.171979 0
M  V30 1667 H 159.855 3.47361 1.7399 0
M  V30 1668 H 161.527 4.57 -0.628357 0
M  V30 1669 H 159.77 4.28756 -0.659581 0
M  V30 1670 H 160.441 5.50306 0.432109 0
M  V30 1671 H 162.917 3.88784 1.48278 0
M  V30 1672 H 161.793 4.95358 2.36457 0
M  V30 1673 H 162.054 3.31099 2.92961 0
M  V30 1674 N 161.113 -0.173488 1.56642 0
M  V30 1675 C 162.06 -1.21482 1.96242 0
M  V30 1676 C 163.03 -1.44104 0.826027 0
M  V30 1677 O 164.215 -1.5688 1.08597 0
M  V30 1678 C 161.355 -2.54964 2.32567 0
M  V30 1679 C 160.468 -2.39739 3.59373 0
M  V30 1680 C 159.603 -3.66072 3.84921 0
M  V30 1681 C 158.642 -3.45771 5.05083 0
M  V30 1682 N 157.779 -4.64169 5.26775 0
M  V30 1683 H 162.619 -0.870123 2.85014 0
M  V30 1684 H 160.156 -0.418245 1.41029 0
M  V30 1685 H 162.114 -3.32758 2.5165 0
M  V30 1686 H 160.744 -2.87433 1.46908 0
M  V30 1687 H 159.796 -1.53131 3.48217 0
M  V30 1688 H 161.108 -2.20683 4.47326 0
M  V30 1689 H 160.262 -4.52303 4.0436 0
M  V30 1690 H 159.001 -3.88105 2.9534 0
M  V30 1691 H 158.006 -2.57927 4.85545 0
M  V30 1692 H 159.231 -3.25163 5.96193 0
M  V30 1693 H 157.177 -4.86425 4.40144 0
M  V30 1694 H 157.094 -4.48019 6.08946 0
M  V30 1695 H 158.362 -5.51689 5.5069 0
M  V30 1696 N 162.591 -1.51276 -0.441967 0
M  V30 1697 C 163.501 -1.75092 -1.56141 0
M  V30 1698 C 164.517 -0.634963 -1.62001 0
M  V30 1699 O 165.693 -0.916686 -1.79329 0
M  V30 1700 C 162.758 -1.86666 -2.92158 0
M  V30 1701 C 161.819 -3.10506 -2.96453 0
M  V30 1702 C 161.052 -3.21519 -4.25982 0
M  V30 1703 O 161.275 -2.38586 -5.18105 0
M  V30 1704 O 160.209 -4.14465 -4.36466 0
M  V30 1705 H 164.035 -2.70044 -1.38961 0
M  V30 1706 H 161.62 -1.35722 -0.624499 0
M  V30 1707 H 163.502 -1.96292 -3.72891 0
M  V30 1708 H 162.177 -0.949014 -3.09476 0
M  V30 1709 H 161.084 -3.06363 -2.14692 0
M  V30 1710 H 162.417 -4.01945 -2.84079 0
M  V30 1711 N 164.069 0.697108 -1.41344 0
M  V30 1712 C 165.317 1.45426 -1.40341 0
M  V30 1713 C 165.638 1.94996 -0.0128787 0
M  V30 1714 O 164.908 1.71599 0.945027 0
M  V30 1715 H 163.488 0.539594 -0.516573 0
M  V30 1716 H 166.15 0.825201 -1.76569 0
M  V30 1717 H 165.246 2.31817 -2.08967 0
M  V30 1718 N 165.547 1.27147 0.931209 0
M  V30 1719 C 166.795 1.13055 1.6752 0
M  V30 1720 C 167.116 -0.324791 1.92276 0
M  V30 1721 O 166.386 -1.22775 1.52654 0
M  V30 1722 H 164.966 0.415391 0.620854 0
M  V30 1723 H 167.628 1.59623 1.11833 0
M  V30 1724 H 166.724 1.65694 2.64485 0
M  V30 1725 N 167.025 -1.13721 1.09112 0
M  V30 1726 C 168.302 -1.81155 0.737706 0
M  V30 1727 C 168.682 -1.96253 -0.777683 0
M  V30 1728 O 168.03 -1.52807 -1.69889 0
M  V30 1729 C 168.24 -3.16392 1.47299 0
M  V30 1730 C 169.588 -3.91787 1.63671 0
M  V30 1731 O 170.612 -3.26005 1.43524 0
M  V30 1732 O 169.471 -5.0977 1.96969 0
M  V30 1733 H 166.565 -0.783518 0.26463 0
M  V30 1734 H 169.111 -1.20676 1.19312 0
M  V30 1735 H 167.883 -3.0061 2.50498 0
M  V30 1736 H 167.506 -3.8457 1.00953 0
M  V30 1737 N 168.503 -0.877838 -1.30888 0
M  V30 1738 C 169.752 -0.488793 -1.95688 0
M  V30 1739 C 170.065 0.965485 -1.70111 0
M  V30 1740 O 171.271 1.46104 -2.28836 0
M  V30 1741 C 169.727 -0.823201 -3.50359 0
M  V30 1742 C 169.335 -2.29477 -3.84765 0
M  V30 1743 C 171.079 -0.503009 -4.21509 0
M  V30 1744 C 168.986 -2.57118 -5.32583 0
M  V30 1745 H 167.916 -0.179062 -0.732429 0
M  V30 1746 H 170.567 -1.07183 -1.48943 0
M  V30 1747 H 168.949 -0.169331 -3.95638 0
M  V30 1748 H 170.123 -2.99236 -3.5042 0
M  V30 1749 H 168.438 -2.58178 -3.267 0
M  V30 1750 H 171.035 -0.68665 -5.30273 0
M  V30 1751 H 171.378 0.557109 -4.12555 0
M  V30 1752 H 171.911 -1.11376 -3.8189 0
M  V30 1753 H 168.65 -3.61843 -5.4658 0
M  V30 1754 H 168.17 -1.91961 -5.68253 0
M  V30 1755 H 169.849 -2.42251 -5.99936 0
M  V30 1756 N 169.982 1.44106 -0.638065 0
M  V30 1757 C 170.945 2.29138 0.0531013 0
M  V30 1758 C 171.945 1.41409 0.765506 0
M  V30 1759 O 173.135 1.63206 0.609046 0
M  V30 1760 C 170.267 3.23144 1.08584 0
M  V30 1761 H 171.46 2.91739 -0.694883 0
M  V30 1762 H 169.013 1.51134 -0.398538 0
M  V30 1763 H 169.748 2.65408 1.86357 0
M  V30 1764 H 169.533 3.87804 0.578852 0
M  V30 1765 H 171.023 3.87004 1.56899 0
M  V30 1766 N 171.46 0.379036 1.52974 0
M  V30 1767 C 172.707 -0.206421 2.01445 0
M  V30 1768 C 173.035 -1.47668 1.26587 0
M  V30 1769 O 172.29 -1.92514 0.351675 0
M  V30 1770 C 172.589 -0.53096 3.53434 0
M  V30 1771 C 172.255 0.646546 4.46241 0
M  V30 1772 C 170.917 0.969604 4.7133 0
M  V30 1773 C 173.269 1.43479 5.01062 0
M  V30 1774 C 170.597 2.08263 5.48492 0
M  V30 1775 C 172.949 2.53834 5.7944 0
M  V30 1776 C 171.613 2.86659 6.02812 0
M  V30 1777 H 170.883 -0.0755349 0.73714 0
M  V30 1778 H 173.53 0.514271 1.84465 0
M  V30 1779 H 171.835 -1.33285 3.68432 0
M  V30 1780 H 173.532 -0.996417 3.88423 0
M  V30 1781 H 170.122 0.384734 4.2687 0
M  V30 1782 H 174.306 1.19844 4.81613 0
M  V30 1783 H 169.562 2.34078 5.64816 0
M  V30 1784 H 173.736 3.15319 6.20924 0
M  V30 1785 H 171.363 3.73026 6.62387 0
M  V30 1786 N 172.938 -1.57226 0.108567 0
M  V30 1787 C 174.187 -1.94008 -0.551703 0
M  V30 1788 C 174.5 -0.993442 -1.68494 0
M  V30 1789 O 175.706 -1.25551 -2.40726 0
M  V30 1790 C 174.162 -3.44763 -1.03279 0
M  V30 1791 C 173.77 -4.47943 0.0714193 0
M  V30 1792 C 175.514 -3.90483 -1.66503 0
M  V30 1793 C 173.421 -5.89865 -0.425779 0
M  V30 1794 H 172.351 -0.724206 -0.209863 0
M  V30 1795 H 175.002 -1.82547 0.186741 0
M  V30 1796 H 173.384 -3.51422 -1.82533 0
M  V30 1797 H 174.558 -4.52942 0.847365 0
M  V30 1798 H 172.873 -4.11913 0.609669 0
M  V30 1799 H 175.47 -4.93925 -2.04798 0
M  V30 1800 H 175.813 -3.29877 -2.53942 0
M  V30 1801 H 176.346 -3.86581 -0.938074 0
M  V30 1802 H 173.085 -6.54202 0.412316 0
M  V30 1803 H 172.605 -5.88309 -1.16843 0
M  V30 1804 H 174.284 -6.40844 -0.890397 0
M  V30 1805 N 174.416 0.165178 -1.56732 0
M  V30 1806 C 175.827 0.727046 -1.71962 0
M  V30 1807 C 176.178 1.82508 -0.720078 0
M  V30 1808 O 175.303 2.16082 0.117242 0
M  V30 1809 C 175.898 1.32559 -3.11791 0
M  V30 1810 C 174.457 1.83422 -3.28684 0
M  V30 1811 C 173.604 0.715567 -2.67908 0
M  V30 1812 H 176.555 -0.0602896 -1.58585 0
M  V30 1813 H 176.576 2.19533 -3.10782 0
M  V30 1814 H 176.088 0.526195 -3.84516 0
M  V30 1815 H 174.189 2.65986 -2.60926 0
M  V30 1816 H 174.302 1.97543 -4.36478 0
M  V30 1817 H 172.666 1.13758 -2.27884 0
M  V30 1818 H 173.449 -0.0720836 -3.43224 0
M  V30 1819 N 175.894 1.51508 0.433938 0
M  V30 1820 C 177.119 1.68443 1.21003 0
M  V30 1821 C 177.544 0.382636 1.84167 0
M  V30 1822 O 176.902 -0.65755 1.68956 0
M  V30 1823 C 176.95 2.80405 2.26727 0
M  V30 1824 O 176.054 2.44245 3.32292 0
M  V30 1825 H 175.395 0.561536 0.354363 0
M  V30 1826 H 177.925 1.9809 0.512024 0
M  V30 1827 H 177.935 3.0459 2.71457 0
M  V30 1828 H 176.61 3.74867 1.80132 0
M  V30 1829 H 175.187 2.30644 2.93015 0
M  V30 1830 N 177.372 -0.689602 1.41712 0
M  V30 1831 C 178.783 -1.26973 1.36875 0
M  V30 1832 C 179.134 -1.96124 0.054748 0
M  V30 1833 O 178.259 -1.99141 -0.84687 0
M  V30 1834 C 178.854 -2.30912 2.47922 0
M  V30 1835 C 177.413 -2.84486 2.46464 0
M  V30 1836 C 176.56 -1.58603 2.27465 0
M  V30 1837 H 179.511 -0.48396 1.51141 0
M  V30 1838 H 179.532 -3.12331 2.17323 0
M  V30 1839 H 179.044 -1.80554 3.43543 0
M  V30 1840 H 177.145 -3.39005 1.54617 0
M  V30 1841 H 177.258 -3.34511 3.42986 0
M  V30 1842 H 175.622 -1.84632 1.75451 0
M  V30 1843 H 176.405 -1.10233 3.25121 0
M  V30 1844 N 178.85 -1.27639 -0.924453 0
M  V30 1845 C 179.782 -1.06442 -2.02985 0
M  V30 1846 C 180.795 -0.0194771 -1.62788 0
M  V30 1847 O 181.984 -0.261388 -1.76576 0
M  V30 1848 C 179.084 -0.59327 -3.33667 0
M  V30 1849 C 178.257 -1.71123 -4.02537 0
M  V30 1850 C 177.316 -1.23527 -5.11495 0
M  V30 1851 O 176.342 -1.93553 -5.35281 0
M  V30 1852 N 177.544 -0.0926678 -5.80426 0
M  V30 1853 H 180.309 -2.01633 -2.2173 0
M  V30 1854 H 177.87 -1.19248 -1.09505 0
M  V30 1855 H 179.862 -0.258686 -4.03872 0
M  V30 1856 H 178.432 0.265502 -3.1147 0
M  V30 1857 H 177.652 -2.21593 -3.26022 0
M  V30 1858 H 178.94 -2.46145 -4.45298 0
M  V30 1859 H 178.338 0.491741 -5.63559 0
M  V30 1860 H 176.895 0.182714 -6.51544 0
M  V30 1861 N 180.328 1.1314 -1.09713 0
M  V30 1862 C 181.744 1.36477 -0.827423 0
M  V30 1863 C 181.944 1.93654 0.556817 0
M  V30 1864 O 181 2.15791 1.31112 0
M  V30 1865 C 182.313 2.31334 -1.92106 0
M  V30 1866 C 183.861 2.44943 -1.94864 0
M  V30 1867 C 184.336 3.4311 -3.0338 0
M  V30 1868 N 185.827 3.50662 -3.02639 0
M  V30 1869 C 186.562 4.2651 -3.83246 0
M  V30 1870 N 186.058 5.05485 -4.73768 0
M  V30 1871 N 187.851 4.2184 -3.71493 0
M  V30 1872 H 180.002 0.743807 -1.9895 0
M  V30 1873 H 182.265 0.389823 -0.864143 0
M  V30 1874 H 181.971 1.96483 -2.91698 0
M  V30 1875 H 181.845 3.31381 -1.80184 0
M  V30 1876 H 184.232 2.79079 -0.959099 0
M  V30 1877 H 184.313 1.4481 -2.10864 0
M  V30 1878 H 183.957 3.09704 -4.02549 0
M  V30 1879 H 183.887 4.43055 -2.84622 0
M  V30 1880 H 186.378 2.94315 -2.37039 0
M  V30 1881 H 186.691 5.60675 -5.3185 0
M  V30 1882 H 185.036 5.04708 -4.77802 0
M  V30 1883 H 188.227 3.5922 -3.00131 0
M  V30 1884 H 188.4 4.80697 -4.3455 0
M  V30 1885 N 181.806 0.884767 1.30421 0
M  V30 1886 C 182.736 0.367574 2.30589 0
M  V30 1887 C 183.717 -0.549464 1.60981 0
M  V30 1888 O 184.902 -0.46336 1.88591 0
M  V30 1889 C 182.032 -0.418944 3.44764 0
M  V30 1890 C 180.986 0.406316 4.26067 0
M  V30 1891 C 180.312 -0.506793 5.32293 0
M  V30 1892 C 181.612 1.64832 4.95608 0
M  V30 1893 H 183.306 1.20462 2.74097 0
M  V30 1894 H 180.852 0.580695 1.31772 0
M  V30 1895 H 182.805 -0.791395 4.13902 0
M  V30 1896 H 181.529 -1.28964 3.0006 0
M  V30 1897 H 180.188 0.760903 3.58617 0
M  V30 1898 H 179.836 -1.37519 4.83836 0
M  V30 1899 H 179.536 0.0415828 5.87585 0
M  V30 1900 H 181.06 -0.875764 6.04287 0
M  V30 1901 H 182.474 1.34646 5.57264 0
M  V30 1902 H 180.871 2.13688 5.60765 0
M  V30 1903 H 181.941 2.39284 4.21748 0
M  V30 1904 N 183.284 -1.43765 0.645699 0
M  V30 1905 C 184.194 -2.34544 -0.0512957 0
M  V30 1906 C 185.21 -1.53455 -0.82022 0
M  V30 1907 O 186.386 -1.86133 -0.769176 0
M  V30 1908 C 183.451 -3.31636 -1.01087 0
M  V30 1909 C 182.512 -4.2863 -0.239712 0
M  V30 1910 C 181.745 -5.21084 -1.15358 0
M  V30 1911 O 181.968 -5.1779 -2.39269 0
M  V30 1912 O 180.902 -5.98593 -0.630038 0
M  V30 1913 H 184.728 -2.95624 0.695718 0
M  V30 1914 H 182.313 -1.43781 0.405882 0
M  V30 1915 H 184.195 -3.9136 -1.56254 0
M  V30 1916 H 182.87 -2.73069 -1.73824 0
M  V30 1917 H 181.777 -3.72408 0.355356 0
M  V30 1918 H 183.11 -4.90157 0.447936 0
M  V30 1919 N 184.763 -0.387143 -1.52771 0
M  V30 1920 C 185.988 0.198407 -2.06449 0
M  V30 1921 C 186.413 1.39918 -1.25716 0
M  V30 1922 O 185.771 1.79099 -0.281657 0
M  V30 1923 C 185.819 0.548893 -3.56398 0
M  V30 1924 O 184.923 1.64315 -3.78252 0
M  V30 1925 H 184.264 0.0237731 -0.663574 0
M  V30 1926 H 186.794 -0.553989 -1.96957 0
M  V30 1927 H 186.804 0.813812 -3.99801 0
M  V30 1928 H 185.479 -0.329005 -4.14597 0
M  V30 1929 H 184.056 1.37211 -3.46738 0
M  V30 1930 N 186.241 1.57166 -0.116904 0
M  V30 1931 C 187.49 1.94298 0.541407 0
M  V30 1932 C 187.803 1.00236 1.67964 0
M  V30 1933 O 189.009 1.26826 2.40057 0
M  V30 1934 C 187.465 3.45306 1.01449 0
M  V30 1935 C 187.073 4.47899 -0.0951738 0
M  V30 1936 C 188.817 3.91361 1.6443 0
M  V30 1937 C 186.724 5.90083 0.394491 0
M  V30 1938 H 185.654 0.725308 0.206019 0
M  V30 1939 H 188.305 1.82446 -0.196419 0
M  V30 1940 H 186.687 3.52385 1.80667 0
M  V30 1941 H 187.861 4.52486 -0.871374 0
M  V30 1942 H 186.176 4.11583 -0.631505 0
M  V30 1943 H 188.773 4.95004 2.02176 0
M  V30 1944 H 189.116 3.3122 2.52189 0
M  V30 1945 H 189.649 3.87073 0.917559 0
M  V30 1946 H 186.388 6.53974 -0.447004 0
M  V30 1947 H 185.908 5.88921 1.13722 0
M  V30 1948 H 187.587 6.41307 0.856399 0
M  V30 1949 N 187.719 -0.156864 1.56817 0
M  V30 1950 C 189.135 -0.50916 1.5126 0
M  V30 1951 C 189.335 -1.83897 0.823658 0
M  V30 1952 O 188.391 -2.49469 0.390055 0
M  V30 1953 C 189.704 -0.52857 2.96018 0
M  V30 1954 C 191.252 -0.614771 3.06903 0
M  V30 1955 C 191.727 -0.664938 4.53147 0
M  V30 1956 N 193.218 -0.727433 4.57452 0
M  V30 1957 C 193.953 -0.787067 5.67973 0
M  V30 1958 N 193.449 -0.806649 6.88088 0
M  V30 1959 N 195.242 -0.827195 5.5598 0
M  V30 1960 H 187.393 0.714935 2.00006 0
M  V30 1961 H 189.656 0.259526 0.911784 0
M  V30 1962 H 189.362 0.380154 3.49639 0
M  V30 1963 H 189.236 -1.36998 3.51442 0
M  V30 1964 H 191.623 -1.51392 2.53307 0
M  V30 1965 H 191.704 0.253597 2.5454 0
M  V30 1966 H 191.348 0.230011 5.07379 0
M  V30 1967 H 191.278 -1.54966 5.03282 0
M  V30 1968 H 193.769 -0.719998 3.70978 0
M  V30 1969 H 194.082 -0.853727 7.6807 0
M  V30 1970 H 192.427 -0.774687 6.90669 0
M  V30 1971 H 195.618 -0.808998 4.61056 0
M  V30 1972 H 195.791 -0.870206 6.4213 0
M  V30 1973 N 189.197 -1.51736 -0.425897 0
M  V30 1974 C 190.127 -1.76827 -1.52494 0
M  V30 1975 C 191.108 -0.618524 -1.58456 0
M  V30 1976 O 192.293 -0.862416 -1.74 0
M  V30 1977 C 189.423 -1.90374 -2.90474 0
M  V30 1978 C 188.377 -3.0588 -2.99369 0
M  V30 1979 C 187.703 -3.04625 -4.3944 0
M  V30 1980 C 189.003 -4.45644 -2.72394 0
M  V30 1981 H 190.697 -2.68855 -1.31748 0
M  V30 1982 H 188.243 -1.29372 -0.632362 0
M  V30 1983 H 190.196 -2.0651 -3.6733 0
M  V30 1984 H 188.92 -0.95004 -3.12477 0
M  V30 1985 H 187.579 -2.89467 -2.24954 0
M  V30 1986 H 187.227 -2.0701 -4.58428 0
M  V30 1987 H 186.927 -3.82195 -4.46319 0
M  V30 1988 H 188.451 -3.22869 -5.18255 0
M  V30 1989 H 189.865 -4.62348 -3.38979 0
M  V30 1990 H 188.262 -5.25006 -2.9067 0
M  V30 1991 H 189.332 -4.54893 -1.67929 0
M  V30 1992 N 190.675 0.682077 -1.42076 0
M  V30 1993 C 191.622 1.79578 -1.44984 0
M  V30 1994 C 192.592 1.6332 -0.302614 0
M  V30 1995 O 193.777 1.83978 -0.505633 0
M  V30 1996 C 190.917 3.1756 -1.35091 0
M  V30 1997 C 190.03 3.45156 -2.59791 0
M  V30 1998 C 189.165 4.72826 -2.42093 0
M  V30 1999 C 188.204 4.93433 -3.62202 0
M  V30 2000 N 187.341 6.12338 -3.43491 0
M  V30 2001 H 192.181 1.76427 -2.40161 0
M  V30 2002 H 189.718 0.861376 -1.19242 0
M  V30 2003 H 191.676 3.97287 -1.27354 0
M  V30 2004 H 190.306 3.19854 -0.435133 0
M  V30 2005 H 189.358 2.59736 -2.77923 0
M  V30 2006 H 190.67 3.5628 -3.49094 0
M  V30 2007 H 189.824 5.60631 -2.319 0
M  V30 2008 H 188.563 4.63973 -1.50268 0
M  V30 2009 H 187.568 4.04073 -3.72834 0
M  V30 2010 H 188.793 5.04136 -4.54998 0
M  V30 2011 H 186.739 6.04672 -2.54377 0
M  V30 2012 H 186.656 6.2429 -4.26377 0
M  V30 2013 H 187.924 7.02841 -3.37097 0
M  V30 2014 N 192.153 1.28127 0.917671 0
M  V30 2015 C 193.085 1.07517 2.02417 0
M  V30 2016 C 194.098 0.0281099 1.62776 0
M  V30 2017 O 195.287 0.270748 1.76435 0
M  V30 2018 C 192.387 0.610957 3.33347 0
M  V30 2019 C 191.56 1.73255 4.01624 0
M  V30 2020 C 190.619 1.26238 5.10833 0
M  V30 2021 O 189.645 1.96389 5.34247 0
M  V30 2022 N 190.847 0.123448 5.80369 0
M  V30 2023 H 193.612 2.02806 2.20658 0
M  V30 2024 H 191.173 1.19827 1.08871 0
M  V30 2025 H 193.165 0.280101 4.0373 0
M  V30 2026 H 191.735 -0.24898 3.11607 0
M  V30 2027 H 190.955 2.23319 3.24842 0
M  V30 2028 H 192.243 2.48503 4.43986 0
M  V30 2029 H 191.641 -0.461847 5.63812 0
M  V30 2030 H 190.198 -0.148158 6.51632 0
M  V30 2031 N 193.631 -1.12557 1.10312 0
M  V30 2032 C 194.541 -2.21841 0.763142 0
M  V30 2033 C 195.557 -1.72354 -0.238801 0
M  V30 2034 O 196.733 -2.01249 -0.0778746 0
M  V30 2035 C 193.798 -3.46131 0.198632 0
M  V30 2036 C 192.859 -4.10464 1.25769 0
M  V30 2037 C 192.092 -5.28821 0.72002 0
M  V30 2038 O 192.315 -5.6859 -0.453993 0
M  V30 2039 O 191.249 -5.83437 1.47935 0
M  V30 2040 H 195.075 -2.53312 1.67532 0
M  V30 2041 H 192.66 -1.20867 0.878157 0
M  V30 2042 H 194.542 -4.2125 -0.112401 0
M  V30 2043 H 193.217 -3.16338 -0.686419 0
M  V30 2044 H 192.124 -3.3713 1.62156 0
M  V30 2045 H 193.457 -4.44408 2.11571 0
M  V30 2046 N 195.109 -0.891671 -1.2995 0
M  V30 2047 C 196.041 -0.320695 -2.26945 0
M  V30 2048 C 197.054 0.528497 -1.53983 0
M  V30 2049 O 198.243 0.346959 -1.75096 0
M  V30 2050 C 195.343 0.562066 -3.34207 0
M  V30 2051 C 194.516 -0.259576 -4.36629 0
M  V30 2052 C 193.575 0.554739 -5.23268 0
M  V30 2053 O 192.601 -0.0249311 -5.69195 0
M  V30 2054 N 193.803 1.8625 -5.4981 0
M  V30 2055 H 196.568 -1.15432 -2.76578 0
M  V30 2056 H 194.129 -0.755336 -1.432 0
M  V30 2057 H 196.121 1.11304 -3.89093 0
M  V30 2058 H 194.691 1.29637 -2.84452 0
M  V30 2059 H 193.911 -0.991986 -3.81514 0
M  V30 2060 H 195.199 -0.822564 -5.02107 0
M  V30 2061 H 194.597 2.35628 -5.14292 0
M  V30 2062 H 193.154 2.36078 -6.07545 0
M  V30 2063 N 196.587 1.43421 -0.653314 0
M  V30 2064 C 197.534 2.30768 0.0382271 0
M  V30 2065 C 198.504 1.44755 0.814576 0
M  V30 2066 O 199.689 1.73624 0.791162 0
M  V30 2067 C 196.829 3.30336 0.998599 0
M  V30 2068 C 195.942 4.31448 0.218342 0
M  V30 2069 C 195.077 5.18098 1.17252 0
M  V30 2070 C 194.116 6.10902 0.382702 0
M  V30 2071 N 193.253 6.90176 1.28848 0
M  V30 2072 H 198.093 2.89357 -0.712511 0
M  V30 2073 H 195.63 1.42548 -0.363128 0
M  V30 2074 H 197.588 3.86572 1.56901 0
M  V30 2075 H 196.218 2.73397 1.71621 0
M  V30 2076 H 195.27 3.77506 -0.46836 0
M  V30 2077 H 196.582 4.97227 -0.395812 0
M  V30 2078 H 195.736 5.7896 1.81356 0
M  V30 2079 H 194.475 4.52444 1.82058 0
M  V30 2080 H 193.48 5.49128 -0.27169 0
M  V30 2081 H 194.705 6.78598 -0.260957 0
M  V30 2082 H 192.651 6.27171 1.92334 0
M  V30 2083 H 192.568 7.52478 0.728887 0
M  V30 2084 H 193.836 7.55543 1.91766 0
M  V30 2085 N 198.065 0.39524 1.52563 0
M  V30 2086 C 199.028 -0.425001 2.25225 0
M  V30 2087 C 200.028 -0.985266 1.27079 0
M  V30 2088 O 201.218 -0.866332 1.5113 0
M  V30 2089 C 198.35 -1.59686 3.01186 0
M  V30 2090 H 199.543 0.211233 2.99155 0
M  V30 2091 H 197.096 0.147472 1.55603 0
M  V30 2092 H 197.831 -2.27035 2.31572 0
M  V30 2093 H 197.616 -1.20176 3.73229 0
M  V30 2094 H 199.106 -2.17743 3.5634 0
M  V30 2095 N 199.544 -1.57102 0.125237 0
M  V30 2096 C 200.96 -1.57915 -0.231322 0
M  V30 2097 C 201.16 -1.13833 -1.66266 0
M  V30 2098 O 200.216 -0.828581 -2.38518 0
M  V30 2099 C 201.529 -3.00699 0.00766489 0
M  V30 2100 C 203.077 -3.12947 -0.0577483 0
M  V30 2101 C 203.552 -4.57742 0.153626 0
M  V30 2102 N 205.043 -4.63092 0.0998073 0
M  V30 2103 C 205.778 -5.72905 0.238174 0
M  V30 2104 N 205.274 -6.91445 0.433057 0
M  V30 2105 N 207.067 -5.6182 0.177308 0
M  V30 2106 H 199.218 -1.84055 1.06007 0
M  V30 2107 H 201.481 -0.850905 0.417929 0
M  V30 2108 H 201.187 -3.3726 0.997431 0
M  V30 2109 H 201.061 -3.70236 -0.721452 0
M  V30 2110 H 203.448 -2.7624 -1.03804 0
M  V30 2111 H 203.529 -2.4594 0.70335 0
M  V30 2112 H 203.173 -4.95149 1.13092 0
M  V30 2113 H 203.103 -5.22848 -0.627534 0
M  V30 2114 H 205.594 -3.77871 -0.047051 0
M  V30 2115 H 205.907 -7.70985 0.529332 0
M  V30 2116 H 204.252 -6.93415 0.469109 0
M  V30 2117 H 207.443 -4.68093 0.0259748 0
M  V30 2118 H 207.616 -6.47357 0.288582 0
M  V30 2119 N 201.022 0.148545 -1.56898 0
M  V30 2120 C 202.438 0.501131 -1.51528 0
M  V30 2121 C 202.638 1.83458 -0.833399 0
M  V30 2122 O 201.694 2.49259 -0.40328 0
M  V30 2123 C 203.007 0.512864 -2.96294 0
M  V30 2124 C 204.555 0.598487 -3.07225 0
M  V30 2125 C 205.03 0.640897 -4.53494 0
M  V30 2126 N 206.521 0.703163 -4.57832 0
M  V30 2127 C 207.256 0.756935 -5.68382 0
M  V30 2128 N 206.752 0.770147 -6.88506 0
M  V30 2129 N 208.545 0.797698 -5.56411 0
M  V30 2130 H 200.696 -0.725532 -1.99624 0
M  V30 2131 H 202.959 -0.264358 -0.910395 0
M  V30 2132 H 202.665 -0.398691 -3.49433 0
M  V30 2133 H 202.539 1.35133 -3.52163 0
M  V30 2134 H 204.926 1.50046 -2.54106 0
M  V30 2135 H 205.007 -0.267093 -2.54402 0
M  V30 2136 H 204.651 -0.256915 -5.0725 0
M  V30 2137 H 204.581 1.52295 -5.04097 0
M  V30 2138 H 207.072 0.700314 -3.71354 0
M  V30 2139 H 207.385 0.812983 -7.68512 0
M  V30 2140 H 205.73 0.738049 -6.9107 0
M  V30 2141 H 208.921 0.784535 -4.61479 0
M  V30 2142 H 209.094 0.83614 -6.42583 0
M  V30 2143 N 202.5 1.5196 0.417844 0
M  V30 2144 C 203.725 1.69717 1.1921 0
M  V30 2145 C 204.15 0.402148 1.83751 0
M  V30 2146 O 203.508 -0.639593 1.69643 0
M  V30 2147 C 203.556 2.82794 2.2374 0
M  V30 2148 O 202.66 2.47756 3.29683 0
M  V30 2149 H 202.001 0.565263 0.348387 0
M  V30 2150 H 204.531 1.98621 0.490985 0
M  V30 2151 H 204.541 3.07452 2.68212 0
M  V30 2152 H 203.216 3.76756 1.76146 0
M  V30 2153 H 201.793 2.33739 2.90552 0
M  V30 2154 N 203.978 -0.674533 1.42435 0
M  V30 2155 C 205.226 -1.43175 1.42637 0
M  V30 2156 C 205.547 -1.94951 0.0438992 0
M  V30 2157 O 204.817 -1.7308 -0.917607 0
M  V30 2158 H 203.397 -0.531307 0.525092 0
M  V30 2159 H 206.059 -0.797006 1.77859 0
M  V30 2160 H 205.155 -2.28463 2.12629 0
M  V30 2161 N 205.456 -1.28612 -0.910864 0
M  V30 2162 C 206.404 -1.1265 -2.03501 0
M  V30 2163 C 207.398 -0.0450054 -1.6934 0
M  V30 2164 O 208.604 -0.203988 -1.7884 0
M  V30 2165 H 204.979 -0.347639 -0.666822 0
M  V30 2166 H 206.95 -2.07849 -2.14106 0
M  V30 2167 C 205.699 -0.808143 -3.38178 0
M  V30 2168 H 205.022 -1.63231 -3.6496 0
M  V30 2169 H 206.462 -0.736426 -4.17556 0
M  V30 2170 C 204.921 0.488226 -3.33344 0
M  V30 2171 O 205.451 1.51766 -3.71927 0
M  V30 2172 N 203.657 0.490009 -2.86439 0
M  V30 2173 H 203.204 -0.348161 -2.55236 0
M  V30 2174 H 203.162 1.35741 -2.83587 0
M  V30 2175 N 206.934 1.1197 -1.10907 0
M  V30 2176 C 208.345 1.65114 -0.871446 0
M  V30 2177 C 208.696 1.86885 0.597353 0
M  V30 2178 O 207.821 1.59896 1.45816 0
M  V30 2179 C 208.416 2.99944 -1.5754 0
M  V30 2180 C 206.975 3.50018 -1.38435 0
M  V30 2181 C 206.122 2.24941 -1.62164 0
M  V30 2182 H 209.073 0.956851 -1.2661 0
M  V30 2183 H 209.094 3.66651 -1.01721 0
M  V30 2184 H 208.606 2.84067 -2.64438 0
M  V30 2185 H 206.707 3.71071 -0.337214 0
M  V30 2186 H 206.82 4.29165 -2.12965 0
M  V30 2187 H 205.184 2.3229 -1.04467 0
M  V30 2188 H 205.967 2.11612 -2.70324 0
M  V30 2189 N 208.412 0.89855 1.29475 0
M  V30 2190 C 209.637 0.538561 2.00285 0
M  V30 2191 C 210.062 -0.869135 1.66816 0
M  V30 2192 O 209.42 -1.57831 0.892145 0
M  V30 2193 C 209.468 0.736475 3.52999 0
M  V30 2194 O 208.572 -0.211537 4.11857 0
M  V30 2195 H 207.913 0.210563 0.62973 0
M  V30 2196 H 210.443 1.20982 1.64998 0
M  V30 2197 H 210.453 0.640685 4.02938 0
M  V30 2198 H 209.128 1.76276 3.76696 0
M  V30 2199 H 207.705 -0.0682991 3.72837 0
M  V30 2200 N 209.89 -1.43072 0.660911 0
M  V30 2201 C 211.115 -2.06584 0.183805 0
M  V30 2202 C 211.54 -1.49257 -1.14472 0
M  V30 2203 O 210.898 -0.605528 -1.70889 0
M  V30 2204 C 210.946 -3.60418 0.114434 0
M  V30 2205 O 210.05 -4.01981 -0.921137 0
M  V30 2206 H 209.391 -0.656669 0.0983994 0
M  V30 2207 H 211.921 -1.83447 0.906006 0
M  V30 2208 H 211.931 -4.07946 -0.0663394 0
M  V30 2209 H 210.606 -4.01519 1.08422 0
M  V30 2210 H 209.183 -3.66029 -0.71253 0
M  V30 2211 N 211.368 -0.403325 -1.52352 0
M  V30 2212 C 212.298 0.416205 -2.29761 0
M  V30 2213 C 213.279 1.05123 -1.33728 0
M  V30 2214 O 214.464 1.06134 -1.62632 0
M  V30 2215 C 211.594 1.53624 -3.11475 0
M  V30 2216 C 210.548 1.02653 -4.15507 0
M  V30 2217 C 209.874 2.23971 -4.85532 0
M  V30 2218 C 211.174 0.08463 -5.22231 0
M  V30 2219 H 212.868 -0.229701 -2.98518 0
M  V30 2220 H 210.414 -0.111913 -1.43564 0
M  V30 2221 H 212.367 2.1165 -3.64393 0
M  V30 2222 H 211.091 2.20994 -2.40477 0
M  V30 2223 H 209.75 0.46871 -3.63591 0
M  V30 2224 H 209.398 2.89883 -4.11068 0
M  V30 2225 H 209.098 1.90521 -5.55856 0
M  V30 2226 H 210.622 2.82614 -5.41259 0
M  V30 2227 H 212.036 0.573509 -5.70424 0
M  V30 2228 H 210.433 -0.160783 -5.99885 0
M  V30 2229 H 211.503 -0.86237 -4.7717 0
M  V30 2230 N 212.846 1.57033 -0.133567 0
M  V30 2231 C 214.071 2.00475 0.531477 0
M  V30 2232 C 214.496 1.01291 1.58499 0
M  V30 2233 O 213.854 -0.0133279 1.81295 0
M  V30 2234 C 213.902 3.42729 1.12113 0
M  V30 2235 O 213.006 3.46498 2.23636 0
M  V30 2236 H 212.347 0.650876 0.131362 0
M  V30 2237 H 214.877 2.03344 -0.22634 0
M  V30 2238 H 214.887 3.81246 1.4531 0
M  V30 2239 H 213.562 4.14428 0.349557 0
M  V30 2240 H 212.139 3.19811 1.91769 0
M  V30 2241 N 214.325 -0.140222 1.56975 0
M  V30 2242 C 215.602 -0.880769 1.74648 0
M  V30 2243 C 215.982 -1.99036 0.703404 0
M  V30 2244 O 215.33 -2.26821 -0.27648 0
M  V30 2245 C 215.54 -1.417 3.18939 0
M  V30 2246 C 216.888 -1.87774 3.80823 0
M  V30 2247 O 217.912 -1.51427 3.2241 0
M  V30 2248 O 216.771 -2.54827 4.83452 0
M  V30 2249 H 213.865 -0.416713 0.714338 0
M  V30 2250 H 216.411 -0.125618 1.69234 0
M  V30 2251 H 215.183 -0.619902 3.86359 0
M  V30 2252 H 214.806 -2.23546 3.28805 0
M  V30 2253 N 215.803 -1.52179 -0.40978 0
M  V30 2254 C 217.052 -1.65434 -1.15388 0
M  V30 2255 C 217.365 -0.390056 -1.91671 0
M  V30 2256 O 218.571 -0.402399 -2.68501 0
M  V30 2257 C 217.027 -2.92279 -2.10003 0
M  V30 2258 C 216.635 -4.25813 -1.39239 0
M  V30 2259 C 218.379 -3.14897 -2.84675 0
M  V30 2260 C 216.286 -5.43782 -2.32498 0
M  V30 2261 H 215.216 -0.616267 -0.434432 0
M  V30 2262 H 217.867 -1.78666 -0.418401 0
M  V30 2263 H 216.249 -2.72744 -2.871 0
M  V30 2264 H 217.423 -4.55828 -0.675099 0
M  V30 2265 H 215.738 -4.09292 -0.766097 0
M  V30 2266 H 218.335 -4.0021 -3.54593 0
M  V30 2267 H 218.678 -2.29103 -3.47588 0
M  V30 2268 H 219.211 -3.34901 -2.14677 0
M  V30 2269 H 215.95 -6.3192 -1.74233 0
M  V30 2270 H 215.47 -5.18106 -3.02201 0
M  V30 2271 H 217.149 -5.76834 -2.93038 0
M  V30 2272 N 217.281 0.66697 -1.42791 0
M  V30 2273 C 218.529 1.42417 -1.43394 0
M  V30 2274 C 218.85 1.94925 -0.0542373 0
M  V30 2275 O 218.12 1.73564 0.908415 0
M  V30 2276 H 216.7 0.528515 -0.527902 0
M  V30 2277 H 219.362 0.787562 -1.78279 0
M  V30 2278 H 218.458 2.27333 -2.13837 0
M  V30 2279 N 218.759 1.29093 0.90403 0
M  V30 2280 C 219.707 1.13727 2.02901 0
M  V30 2281 C 220.701 0.0539853 1.69314 0
M  V30 2282 O 221.907 0.213469 1.7873 0
M  V30 2283 H 218.282 0.35117 0.664969 0
M  V30 2284 H 220.253 2.08982 2.13001 0
M  V30 2285 C 219.002 0.826066 3.37745 0
M  V30 2286 H 218.325 1.65164 3.64089 0
M  V30 2287 H 219.765 0.758559 4.17159 0
M  V30 2288 C 218.224 -0.470541 3.33598 0
M  V30 2289 O 218.754 -1.49792 3.72727 0
M  V30 2290 N 216.96 -0.474812 2.86695 0
M  V30 2291 H 216.507 0.361692 2.55048 0
M  V30 2292 H 216.465 -1.34236 2.84303 0
M  V30 2293 N 220.237 -1.11381 1.11499 0
M  V30 2294 C 221.653 -1.35143 0.849031 0
M  V30 2295 C 221.853 -1.94515 -0.525938 0
M  V30 2296 O 220.909 -2.1785 -1.27662 0
M  V30 2297 C 222.222 -2.28249 1.95762 0
M  V30 2298 C 223.77 -2.41812 1.98736 0
M  V30 2299 C 224.245 -3.3824 3.088 0
M  V30 2300 N 225.736 -3.45803 3.08179 0
M  V30 2301 C 226.471 -4.20358 3.89982 0
M  V30 2302 N 225.967 -4.97884 4.8175 0
M  V30 2303 N 227.76 -4.15877 3.78157 0
M  V30 2304 H 219.911 -0.712062 2.00109 0
M  V30 2305 H 222.174 -0.376025 0.870235 0
M  V30 2306 H 221.88 -1.91817 2.94787 0
M  V30 2307 H 221.754 -3.28473 1.85433 0
M  V30 2308 H 224.141 -2.77518 1.00338 0
M  V30 2309 H 224.222 -1.41437 2.13141 0
M  V30 2310 H 223.866 -3.03261 4.07425 0
M  V30 2311 H 223.796 -4.38471 2.91635 0
M  V30 2312 H 226.287 -2.90506 2.41691 0
M  V30 2313 H 226.6 -5.52142 5.40702 0
M  V30 2314 H 224.945 -4.97043 4.85771 0
M  V30 2315 H 228.136 -3.544 3.05808 0
M  V30 2316 H 228.309 -4.73723 4.42143 0
M  V30 2317 N 221.715 -0.905404 -1.28997 0
M  V30 2318 C 223.131 -0.60233 -1.47798 0
M  V30 2319 C 223.331 0.854645 -1.82478 0
M  V30 2320 O 222.387 1.63439 -1.92468 0
M  V30 2321 C 223.7 -1.53306 -2.58685 0
M  V30 2322 C 225.248 -1.53887 -2.72558 0
M  V30 2323 C 225.723 -2.45602 -3.86579 0
M  V30 2324 N 227.214 -2.43681 -3.93921 0
M  V30 2325 C 227.949 -3.11347 -4.81509 0
M  V30 2326 N 227.445 -3.88313 -5.73746 0
M  V30 2327 N 229.238 -3.00476 -4.75048 0
M  V30 2328 H 221.389 -1.84765 -1.04764 0
M  V30 2329 H 223.652 -0.792025 -0.520961 0
M  V30 2330 H 223.358 -2.57141 -2.39941 0
M  V30 2331 H 223.232 -1.25787 -3.55609 0
M  V30 2332 H 225.619 -0.507941 -2.90696 0
M  V30 2333 H 225.7 -1.85447 -1.76191 0
M  V30 2334 H 225.344 -3.48792 -3.69197 0
M  V30 2335 H 225.274 -2.11349 -4.82327 0
M  V30 2336 H 227.765 -1.87767 -3.27951 0
M  V30 2337 H 228.078 -4.36985 -6.37389 0
M  V30 2338 H 226.423 -3.92419 -5.73614 0
M  V30 2339 H 229.614 -2.39858 -4.01977 0
M  V30 2340 H 229.787 -3.53485 -5.43095 0
M  V30 2341 N 223.193 1.4272 -0.668489 0
M  V30 2342 C 224.418 2.06484 -0.194758 0
M  V30 2343 C 224.843 1.49862 1.13679 0
M  V30 2344 O 224.201 0.614582 1.70565 0
M  V30 2345 C 224.249 3.60353 -0.133546 0
M  V30 2346 O 223.353 4.02464 0.899806 0
M  V30 2347 H 222.694 0.656137 -0.10188 0
M  V30 2348 H 225.224 1.82964 -0.915722 0
M  V30 2349 H 225.234 4.07976 0.0447041 0
M  V30 2350 H 223.909 4.00938 -1.1055 0
M  V30 2351 H 222.486 3.66402 0.693109 0
M  V30 2352 N 224.671 0.411399 1.52136 0
M  V30 2353 C 226.082 -0.0576826 1.86611 0
M  V30 2354 C 226.433 -1.44238 1.33003 0
M  V30 2355 O 225.558 -2.05759 0.670228 0
M  V30 2356 C 226.153 -0.111448 3.38617 0
M  V30 2357 C 224.712 -0.52487 3.72723 0
M  V30 2358 C 223.859 0.299176 2.75681 0
M  V30 2359 H 226.81 0.628368 1.4573 0
M  V30 2360 H 226.831 -0.926252 3.69054 0
M  V30 2361 H 226.343 0.896488 3.77604 0
M  V30 2362 H 224.444 -1.53936 3.39315 0
M  V30 2363 H 224.557 -0.267681 4.78352 0
M  V30 2364 H 222.921 -0.238814 2.53578 0
M  V30 2365 H 223.704 1.3055 3.17508 0
M  V30 2366 N 226.149 -1.5696 0.141893 0
M  V30 2367 C 227.56 -1.82797 -0.379776 0
M  V30 2368 C 227.911 -1.06033 -1.6508 0
M  V30 2369 O 227.036 -0.304011 -2.14254 0
M  V30 2370 C 227.631 -3.31578 -0.695802 0
M  V30 2371 C 226.19 -3.58014 -1.16201 0
M  V30 2372 C 225.337 -2.76699 -0.182455 0
M  V30 2373 H 228.288 -1.54406 0.366675 0
M  V30 2374 H 228.309 -3.47454 -1.55099 0
M  V30 2375 H 227.821 -3.87421 0.229449 0
M  V30 2376 H 225.922 -3.07553 -2.10338 0
M  V30 2377 H 226.035 -4.66501 -1.09151 0
M  V30 2378 H 224.399 -2.45618 -0.674072 0
M  V30 2379 H 225.182 -3.35311 0.736297 0
M  V30 2380 N 227.627 0.131896 -1.57047 0
M  V30 2381 C 229.038 0.690407 -1.73465 0
M  V30 2382 C 229.389 1.8094 -0.758629 0
M  V30 2383 O 228.514 2.16282 0.0713813 0
M  V30 2384 C 229.109 1.25916 -3.14532 0
M  V30 2385 C 227.668 1.76409 -3.32501 0
M  V30 2386 C 226.815 0.658579 -2.69366 0
M  V30 2387 H 229.766 -0.0939144 -1.58422 0
M  V30 2388 H 229.787 2.12892 -3.15369 0
M  V30 2389 H 229.299 0.444515 -3.85546 0
M  V30 2390 H 227.4 2.60391 -2.66509 0
M  V30 2391 H 227.513 1.88241 -4.4057 0
M  V30 2392 H 225.877 1.08899 -2.30246 0
M  V30 2393 H 226.66 -0.14487 -3.42994 0
M  V30 2394 N 229.106 1.52395 0.401703 0
M  V30 2395 C 230.331 1.70972 1.17403 0
M  V30 2396 C 230.756 0.421615 1.83314 0
M  V30 2397 O 230.114 -0.621564 1.70312 0
M  V30 2398 C 230.162 2.85151 2.20728 0
M  V30 2399 O 229.266 2.51238 3.27037 0
M  V30 2400 H 228.607 0.568927 0.342372 0
M  V30 2401 H 231.137 1.99131 0.469891 0
M  V30 2402 H 231.147 3.10279 2.64936 0
M  V30 2403 H 229.822 3.78603 1.7214 0
M  V30 2404 H 228.399 2.36808 2.88057 0
M  V30 2405 N 230.584 -0.659388 1.43143 0
M  V30 2406 C 231.514 -1.78422 1.50625 0
M  V30 2407 C 232.495 -1.66216 0.361443 0
M  V30 2408 O 233.68 -1.85404 0.577834 0
M  V30 2409 C 230.81 -3.16815 1.42287 0
M  V30 2410 C 229.764 -3.43777 2.54954 0
M  V30 2411 C 229.09 -4.81905 2.31671 0
M  V30 2412 C 230.39 -3.39134 3.97222 0
M  V30 2413 H 232.084 -1.72417 2.44771 0
M  V30 2414 H 229.63 -0.828084 1.17808 0
M  V30 2415 H 231.583 -3.95253 1.46127 0
M  V30 2416 H 230.307 -3.23534 0.446435 0
M  V30 2417 H 228.966 -2.67707 2.50457 0
M  V30 2418 H 228.614 -4.85294 1.32284 0
M  V30 2419 H 228.314 -5.00906 3.07192 0
M  V30 2420 H 229.838 -5.62609 2.37284 0
M  V30 2421 H 231.252 -4.07518 4.03239 0
M  V30 2422 H 229.649 -3.69671 4.72719 0
M  V30 2423 H 230.719 -2.37426 4.22797 0
M  V30 2424 N 232.062 -1.29571 -0.897171 0
M  V30 2425 C 233.025 -1.14913 -1.98312 0
M  V30 2426 C 234.025 -0.0838629 -1.60581 0
M  V30 2427 O 235.215 -0.331006 -1.71026 0
M  V30 2428 C 232.347 -0.757835 -3.3237 0
M  V30 2429 H 233.54 -2.11377 -2.12743 0
M  V30 2430 H 231.093 -1.12793 -1.08201 0
M  V30 2431 H 231.828 0.206837 -3.2364 0
M  V30 2432 H 231.613 -1.52755 -3.61121 0
M  V30 2433 H 233.103 -0.678408 -4.12053 0
M  V30 2434 N 233.54 1.10788 -1.12088 0
M  V30 2435 C 234.487 2.17025 -0.785407 0
M  V30 2436 C 235.457 1.64265 0.246191 0
M  V30 2437 O 236.642 1.90412 0.121584 0
M  V30 2438 C 233.782 3.44249 -0.242177 0
M  V30 2439 C 232.895 4.1098 -1.33115 0
M  V30 2440 C 232.03 5.25911 -0.747741 0
M  V30 2441 C 231.069 5.84538 -1.81609 0
M  V30 2442 N 230.206 6.90853 -1.25167 0
M  V30 2443 H 235.046 2.45066 -1.69548 0
M  V30 2444 H 232.583 1.20297 -0.846582 0
M  V30 2445 H 234.541 4.17101 0.0908026 0
M  V30 2446 H 233.171 3.16571 0.631072 0
M  V30 2447 H 232.223 3.36133 -1.78097 0
M  V30 2448 H 233.535 4.50601 -2.13917 0
M  V30 2449 H 232.689 6.056 -0.365216 0
M  V30 2450 H 231.428 4.87614 0.0915188 0
M  V30 2451 H 230.433 5.03522 -2.20785 0
M  V30 2452 H 231.658 6.249 -2.6585 0
M  V30 2453 H 229.604 6.54562 -0.434174 0
M  V30 2454 H 229.521 7.29166 -1.99633 0
M  V30 2455 H 230.789 7.7433 -0.896259 0
M  V30 2456 N 235.018 0.912232 1.28515 0
M  V30 2457 C 235.95 0.35676 2.26406 0
M  V30 2458 C 236.963 -0.503933 1.54804 0
M  V30 2459 O 238.152 -0.319059 1.75625 0
M  V30 2460 C 235.252 -0.508825 3.35058 0
M  V30 2461 C 234.425 0.329007 4.36161 0
M  V30 2462 C 233.484 -0.471422 5.24084 0
M  V30 2463 O 232.51 0.115482 5.69083 0
M  V30 2464 N 233.712 -1.77479 5.52704 0
M  V30 2465 H 236.477 1.19818 2.74707 0
M  V30 2466 H 234.038 0.778022 1.4198 0
M  V30 2467 H 236.03 -1.051 3.90815 0
M  V30 2468 H 234.6 -1.25095 2.86478 0
M  V30 2469 H 233.82 1.05256 3.79888 0
M  V30 2470 H 235.108 0.90234 5.00735 0
M  V30 2471 H 234.506 -2.27417 5.17975 0
M  V30 2472 H 233.063 -2.26382 6.11224 0
M  V30 2473 N 236.496 -1.42363 0.676048 0
M  V30 2474 C 237.443 -2.308 -0.00150904 0
M  V30 2475 C 238.413 -1.46032 -0.791444 0
M  V30 2476 O 239.598 -1.74861 -0.76344 0
M  V30 2477 C 236.738 -3.31883 -0.945919 0
M  V30 2478 C 235.851 -4.31741 -0.149675 0
M  V30 2479 C 234.986 -5.19898 -1.08995 0
M  V30 2480 C 234.025 -6.11434 -0.285465 0
M  V30 2481 N 233.162 -6.92138 -1.17851 0
M  V30 2482 H 238.002 -2.88187 0.758455 0
M  V30 2483 H 235.539 -1.41952 0.38576 0
M  V30 2484 H 237.497 -3.89019 -1.50731 0
M  V30 2485 H 236.127 -2.76093 -1.6725 0
M  V30 2486 H 235.179 -3.76713 0.528359 0
M  V30 2487 H 236.491 -4.96534 0.474866 0
M  V30 2488 H 235.645 -5.81772 -1.72123 0
M  V30 2489 H 234.384 -4.55284 -1.74837 0
M  V30 2490 H 233.389 -5.48627 0.359018 0
M  V30 2491 H 234.614 -6.78097 0.368883 0
M  V30 2492 H 232.56 -6.30152 -1.82332 0
M  V30 2493 H 232.477 -7.53542 -0.609082 0
M  V30 2494 H 233.745 -7.58499 -1.79722 0
M  V30 2495 N 237.974 -0.419461 -1.51915 0
M  V30 2496 C 238.906 0.43646 -2.25006 0
M  V30 2497 C 239.919 1.00149 -1.28351 0
M  V30 2498 O 241.108 0.898674 -1.54227 0
M  V30 2499 C 238.208 1.6206 -2.9764 0
M  V30 2500 C 237.381 1.17763 -4.21249 0
M  V30 2501 C 236.44 2.22985 -4.76617 0
M  V30 2502 O 235.466 1.83151 -5.38929 0
M  V30 2503 N 236.668 3.55271 -4.59089 0
M  V30 2504 H 239.433 -0.18989 -2.99098 0
M  V30 2505 H 236.994 -0.247386 -1.59999 0
M  V30 2506 H 238.986 2.32038 -3.31573 0
M  V30 2507 H 237.556 2.15266 -2.2667 0
M  V30 2508 H 236.776 0.305582 -3.93014 0
M  V30 2509 H 238.064 0.858781 -5.015 0
M  V30 2510 H 237.462 3.90377 -4.09417 0
M  V30 2511 H 236.019 4.21195 -4.97432 0
M  V30 2512 N 239.452 1.56882 -0.150215 0
M  V30 2513 C 240.399 2.16922 0.788244 0
M  V30 2514 C 241.369 1.10303 1.24187 0
M  V30 2515 O 242.554 1.38359 1.31383 0
M  V30 2516 C 239.694 2.79754 2.02068 0
M  V30 2517 C 238.807 4.00775 1.61257 0
M  V30 2518 C 237.942 4.51595 2.79705 0
M  V30 2519 C 236.981 5.65074 2.35282 0
M  V30 2520 N 236.118 6.10499 3.4675 0
M  V30 2521 H 240.958 2.96779 0.269444 0
M  V30 2522 H 238.495 1.46599 0.12128 0
M  V30 2523 H 240.453 3.14329 2.74323 0
M  V30 2524 H 239.083 2.02536 2.51354 0
M  V30 2525 H 238.135 3.72158 0.787553 0
M  V30 2526 H 239.447 4.82978 1.24633 0
M  V30 2527 H 238.601 4.88242 3.60145 0
M  V30 2528 H 237.34 3.68406 3.19576 0
M  V30 2529 H 236.345 5.28 1.53283 0
M  V30 2530 H 237.57 6.50052 1.96493 0
M  V30 2531 H 235.516 5.30243 3.86236 0
M  V30 2532 H 235.433 6.87637 3.14152 0
M  V30 2533 H 236.701 6.51791 4.27537 0
M  V30 2534 N 240.93 -0.123565 1.57115 0
M  V30 2535 C 241.862 -1.17739 1.96648 0
M  V30 2536 C 242.875 -1.37906 0.865201 0
M  V30 2537 O 244.064 -1.37062 1.14351 0
M  V30 2538 C 241.164 -2.53821 2.24562 0
M  V30 2539 C 240.337 -2.54317 3.55867 0
M  V30 2540 C 239.396 -3.72112 3.72047 0
M  V30 2541 O 238.422 -3.55907 4.44206 0
M  V30 2542 N 239.624 -4.90498 3.10471 0
M  V30 2543 H 242.389 -0.841147 2.87654 0
M  V30 2544 H 239.95 -0.31289 1.58848 0
M  V30 2545 H 241.942 -3.31175 2.32606 0
M  V30 2546 H 240.512 -2.79645 1.39705 0
M  V30 2547 H 239.732 -1.62711 3.59053 0
M  V30 2548 H 241.02 -2.51701 4.42181 0
M  V30 2549 H 240.418 -5.06567 2.51806 0
M  V30 2550 H 238.975 -5.65544 3.24043 0
M  V30 2551 N 242.408 -1.52605 -0.393616 0
M  V30 2552 C 243.371 -1.76415 -1.46323 0
M  V30 2553 C 244.371 -0.634126 -1.47768 0
M  V30 2554 O 245.561 -0.902142 -1.4902 0
M  V30 2555 C 242.693 -1.8607 -2.85641 0
M  V30 2556 H 243.886 -2.71916 -1.26498 0
M  V30 2557 H 241.439 -1.43257 -0.625073 0
M  V30 2558 H 242.174 -0.925378 -3.10817 0
M  V30 2559 H 241.959 -2.68235 -2.85993 0
M  V30 2560 H 243.449 -2.06179 -3.63153 0
M  V30 2561 N 243.887 0.651787 -1.4349 0
M  V30 2562 C 244.797 1.79368 -1.5121 0
M  V30 2563 C 245.813 1.69361 -0.399093 0
M  V30 2564 O 246.989 1.90505 -0.653431 0
M  V30 2565 C 244.054 3.15653 -1.43401 0
M  V30 2566 C 243.115 3.37446 -2.65384 0
M  V30 2567 C 242.348 4.67229 -2.57939 0
M  V30 2568 O 242.571 5.46676 -1.62792 0
M  V30 2569 O 241.505 4.90773 -3.48462 0
M  V30 2570 H 245.331 1.7581 -2.47638 0
M  V30 2571 H 242.916 0.810447 -1.25507 0
M  V30 2572 H 244.798 3.96935 -1.41494 0
M  V30 2573 H 243.473 3.19798 -0.501085 0
M  V30 2574 H 242.38 2.55923 -2.72863 0
M  V30 2575 H 243.713 3.38148 -3.57654 0
M  V30 2576 N 245.365 1.30045 0.890287 0
M  V30 2577 C 246.315 1.12592 1.9826 0
M  V30 2578 C 247.299 0.0426021 1.60844 0
M  V30 2579 O 248.491 0.265346 1.75 0
M  V30 2580 C 245.62 0.814301 3.33503 0
M  V30 2581 C 244.706 1.93761 3.7725 0
M  V30 2582 N 245.097 3.18232 3.93143 0
M  V30 2583 C 243.395 1.83277 4.06602 0
M  V30 2584 C 244.096 3.9158 4.30163 0
M  V30 2585 N 243.072 3.19591 4.3973 0
M  V30 2586 H 246.874 2.07003 2.08631 0
M  V30 2587 H 244.388 1.21307 1.07974 0
M  V30 2588 H 246.385 0.67029 4.11476 0
M  V30 2589 H 245.045 -0.121797 3.24471 0
M  V30 2590 H 246.056 3.53581 3.78419 0
M  V30 2591 H 242.733 0.97001 4.06075 0
M  V30 2592 H 244.123 4.98744 4.50226 0
M  V30 2593 N 246.843 -1.10192 1.12674 0
M  V30 2594 C 248.089 -1.82475 0.884915 0
M  V30 2595 C 248.422 -1.85093 -0.58773 0
M  V30 2596 O 247.697 -1.3134 -1.43457 0
M  V30 2597 C 247.98 -3.29018 1.46353 0
M  V30 2598 C 247.833 -3.34718 3.00473 0
M  V30 2599 C 249.152 -4.25473 1.12519 0
M  V30 2600 H 246.271 -0.662492 0.322915 0
M  V30 2601 H 248.913 -1.2913 1.39375 0
M  V30 2602 H 247.063 -3.74576 1.03077 0
M  V30 2603 H 248.735 -2.97622 3.52447 0
M  V30 2604 H 246.978 -2.74541 3.35872 0
M  V30 2605 H 247.649 -4.37918 3.36053 0
M  V30 2606 H 250.125 -3.88161 1.499 0
M  V30 2607 H 249.001 -5.26365 1.55663 0
M  V30 2608 H 249.262 -4.42084 0.0377407 0
M  V30 2609 N 248.321 -0.919034 -1.28029 0
M  V30 2610 C 249.732 -0.600735 -1.76771 0
M  V30 2611 C 250.083 0.884024 -1.75156 0
M  V30 2612 O 249.208 1.69163 -1.34956 0
M  V30 2613 C 249.803 -1.08372 -3.21 0
M  V30 2614 C 248.362 -0.816248 -3.67443 0
M  V30 2615 C 247.509 -1.24742 -2.47658 0
M  V30 2616 H 250.46 -1.09974 -1.14418 0
M  V30 2617 H 250.481 -0.427512 -3.78091 0
M  V30 2618 H 249.993 -2.16437 -3.22144 0
M  V30 2619 H 248.094 0.250968 -3.71754 0
M  V30 2620 H 248.207 -1.4277 -4.57333 0
M  V30 2621 H 246.571 -0.666083 -2.45836 0
M  V30 2622 H 247.354 -2.33653 -2.51518 0
M  V30 2623 N 249.799 1.42003 -0.683588 0
M  V30 2624 C 251.21 1.84501 -0.285736 0
M  V30 2625 C 251.561 1.57213 1.17382 0
M  V30 2626 O 250.686 1.03642 1.89966 0
M  V30 2627 C 251.281 3.34912 -0.511821 0
M  V30 2628 C 249.84 3.76025 -0.168005 0
M  V30 2629 C 248.987 2.6551 -0.799983 0
M  V30 2630 H 251.938 1.31724 -0.885119 0
M  V30 2631 H 251.959 3.79784 0.233292 0
M  V30 2632 H 251.471 3.54741 -1.57418 0
M  V30 2633 H 249.572 3.61801 0.890567 0
M  V30 2634 H 249.685 4.75141 -0.614661 0
M  V30 2635 H 248.049 2.53654 -0.230568 0
M  V30 2636 H 248.832 2.8816 -1.86597 0
M  V30 2637 N 251.277 0.427512 1.51691 0
M  V30 2638 C 252.507 -0.140986 2.06118 0
M  V30 2639 C 252.915 -1.37854 1.29588 0
M  V30 2640 O 252.258 -1.80411 0.346036 0
M  V30 2641 C 252.32 -0.538276 3.55447 0
M  V30 2642 C 251.984 0.591095 4.53161 0
M  V30 2643 C 252.981 1.46027 4.98971 0
M  V30 2644 C 250.666 0.769028 4.96378 0
M  V30 2645 C 252.66 2.49216 5.8666 0
M  V30 2646 C 250.347 1.80421 5.83859 0
M  V30 2647 C 251.345 2.66417 6.28897 0
M  V30 2648 O 251.033 3.68159 7.14643 0
M  V30 2649 H 250.765 -0.0157455 0.675817 0
M  V30 2650 H 253.319 0.602495 1.96365 0
M  V30 2651 H 251.549 -1.33432 3.6295 0
M  V30 2652 H 253.238 -1.0368 3.92435 0
M  V30 2653 H 254.004 1.33429 4.66285 0
M  V30 2654 H 249.883 0.109273 4.6087 0
M  V30 2655 H 253.427 3.16372 6.21735 0
M  V30 2656 H 249.324 1.93042 6.15959 0
M  V30 2657 H 250.092 3.64622 7.32798 0
M  V30 2658 N 252.755 -1.56801 0.158532 0
M  V30 2659 C 254.032 -1.88131 -0.535357 0
M  V30 2660 C 254.412 -1.06638 -1.82186 0
M  V30 2661 O 253.76 -0.156533 -2.27963 0
M  V30 2662 C 253.97 -3.39949 -0.789653 0
M  V30 2663 C 255.318 -4.09416 -1.12533 0
M  V30 2664 O 256.342 -3.45194 -0.878622 0
M  V30 2665 O 255.201 -5.22855 -1.59014 0
M  V30 2666 H 252.295 -0.780143 -0.27442 0
M  V30 2667 H 254.841 -1.68564 0.19601 0
M  V30 2668 H 253.613 -3.91115 0.120353 0
M  V30 2669 H 253.236 -3.65084 -1.57479 0
M  V30 2670 N 254.233 0.115231 -1.57178 0
M  V30 2671 C 255.479 0.82357 -1.85325 0
M  V30 2672 C 255.812 1.79349 -0.744814 0
M  V30 2673 O 255.087 1.92899 0.249024 0
M  V30 2674 C 255.37 1.57014 -3.24066 0
M  V30 2675 C 255.223 0.619565 -4.45513 0
M  V30 2676 C 256.542 2.52545 -3.60429 0
M  V30 2677 H 253.661 0.297948 -0.674089 0
M  V30 2678 H 256.303 0.0877138 -1.89797 0
M  V30 2679 H 254.453 2.19742 -3.20383 0
M  V30 2680 H 256.125 0.000837639 -4.613 0
M  V30 2681 H 254.368 -0.0686174 -4.33746 0
M  V30 2682 H 255.039 1.17866 -5.3927 0
M  V30 2683 H 257.515 1.9992 -3.64926 0
M  V30 2684 H 256.391 3.01811 -4.58477 0
M  V30 2685 H 256.652 3.35383 -2.88047 0
M  V30 2686 N 255.711 1.52812 0.385517 0
M  V30 2687 C 256.957 1.68275 1.13188 0
M  V30 2688 C 257.29 0.423179 1.89533 0
M  V30 2689 O 256.565 -0.579113 1.85679 0
M  V30 2690 C 256.848 2.92001 2.1073 0
M  V30 2691 C 256.701 4.28067 1.38125 0
M  V30 2692 C 258.02 3.11283 3.11113 0
M  V30 2693 H 255.139 0.612352 0.410115 0
M  V30 2694 H 257.781 1.85415 0.414869 0
M  V30 2695 H 255.931 2.77519 2.71874 0
M  V30 2696 H 257.603 4.54324 0.799187 0
M  V30 2697 H 255.846 4.28388 0.683092 0
M  V30 2698 H 256.517 5.10733 2.09417 0
M  V30 2699 H 258.993 3.2482 2.6006 0
M  V30 2700 H 257.869 3.99325 3.76605 0
M  V30 2701 H 258.13 2.25656 3.80173 0
M  V30 2702 N 257.189 -0.644168 1.43834 0
M  V30 2703 C 258.6 -1.22554 1.40845 0
M  V30 2704 C 258.951 -1.9585 0.117115 0
M  V30 2705 O 258.076 -2.01734 -0.783086 0
M  V30 2706 C 258.671 -2.22907 2.55143 0
M  V30 2707 C 257.23 -2.76501 2.5539 0
M  V30 2708 C 256.377 -1.51287 2.32396 0
M  V30 2709 H 259.328 -0.43563 1.52604 0
M  V30 2710 H 259.349 -3.05259 2.2715 0
M  V30 2711 H 258.861 -1.69533 3.49114 0
M  V30 2712 H 256.962 -3.33914 1.65324 0
M  V30 2713 H 257.075 -3.23429 3.53455 0
M  V30 2714 H 255.439 -1.78957 1.81236 0
M  V30 2715 H 256.222 -0.998336 3.28463 0
M  V30 2716 N 258.668 -1.30515 -0.883378 0
M  V30 2717 C 259.893 -1.22487 -1.67367 0
M  V30 2718 C 260.318 0.208767 -1.86938 0
M  V30 2719 O 259.676 1.15015 -1.40148 0
M  V30 2720 C 259.724 -1.96041 -3.02655 0
M  V30 2721 O 258.828 -1.28859 -3.91751 0
M  V30 2722 H 258.169 -0.423573 -0.511353 0
M  V30 2723 H 260.699 -1.72362 -1.10239 0
M  V30 2724 H 260.709 -2.05124 -3.52687 0
M  V30 2725 H 259.384 -3.00307 -2.8773 0
M  V30 2726 H 257.961 -1.28141 -3.50192 0
M  V30 2727 N 260.146 1.09593 -1.13257 0
M  V30 2728 C 261.079 2.15451 -0.752061 0
M  V30 2729 C 262.057 1.60493 0.260913 0
M  V30 2730 O 263.241 1.8788 0.152819 0
M  V30 2731 C 260.368 3.38506 -0.114594 0
M  V30 2732 C 259.414 4.12183 -1.09579 0
M  V30 2733 S 260.247 4.6661 -2.62745 0
M  V30 2734 C 261.403 5.92966 -2.00354 0
M  V30 2735 H 261.636 2.47395 -1.64872 0
M  V30 2736 H 259.169 1.21515 -0.952545 0
M  V30 2737 H 261.127 4.09757 0.246808 0
M  V30 2738 H 259.788 3.04784 0.759309 0
M  V30 2739 H 258.981 5.00445 -0.597545 0
M  V30 2740 H 258.583 3.46785 -1.40057 0
M  V30 2741 H 260.875 6.63882 -1.35156 0
M  V30 2742 H 261.818 6.47467 -2.86691 0
M  V30 2743 H 262.226 5.45405 -1.4558 0
M  V30 2744 N 261.624 0.925811 1.2754 0
M  V30 2745 C 263.04 0.625767 1.46821 0
M  V30 2746 C 263.24 -0.825506 1.83814 0
M  V30 2747 O 262.296 -1.60356 1.95044 0
M  V30 2748 C 263.609 1.57402 2.56213 0
M  V30 2749 C 265.157 1.58204 2.70075 0
M  V30 2750 C 265.632 2.51721 3.82623 0
M  V30 2751 N 267.123 2.49917 3.89994 0
M  V30 2752 C 267.858 3.18968 4.76494 0
M  V30 2753 N 267.354 3.97391 5.67496 0
M  V30 2754 N 269.147 3.07996 4.70208 0
M  V30 2755 H 261.298 1.86409 1.01811 0
M  V30 2756 H 263.561 0.800213 0.508295 0
M  V30 2757 H 263.267 2.60925 2.35819 0
M  V30 2758 H 263.141 1.31428 3.53563 0
M  V30 2759 H 265.528 0.554124 2.89851 0
M  V30 2760 H 265.609 1.88226 1.73218 0
M  V30 2761 H 265.253 3.54622 3.63601 0
M  V30 2762 H 265.183 2.18996 4.78903 0
M  V30 2763 H 267.674 1.9296 3.24923 0
M  V30 2764 H 267.987 4.4707 6.30356 0
M  V30 2765 H 266.332 4.01495 5.67298 0
M  V30 2766 H 269.523 2.46223 3.9811 0
M  V30 2767 H 269.696 3.6208 5.37403 0
M  V30 2768 N 263.102 -1.41638 0.69111 0
M  V30 2769 C 264.513 -1.84346 0.295517 0
M  V30 2770 C 264.864 -1.57833 -1.16547 0
M  V30 2771 O 263.989 -1.04648 -1.89414 0
M  V30 2772 C 264.584 -3.34636 0.529575 0
M  V30 2773 C 263.143 -3.7593 0.187944 0
M  V30 2774 C 262.29 -2.65082 0.814052 0
M  V30 2775 H 265.241 -1.31253 0.892092 0
M  V30 2776 H 265.262 -3.79903 -0.213148 0
M  V30 2777 H 264.774 -3.53901 1.59297 0
M  V30 2778 H 262.875 -3.62268 -0.871367 0
M  V30 2779 H 262.988 -4.74808 0.63985 0
M  V30 2780 H 261.352 -2.53528 0.244017 0
M  V30 2781 H 262.135 -2.87167 1.88123 0
M  V30 2782 N 264.58 -0.43555 -1.51462 0
M  V30 2783 C 265.826 0.131709 -2.02372 0
M  V30 2784 C 266.159 1.42516 -1.3192 0
M  V30 2785 O 265.434 1.89606 -0.433573 0
M  V30 2786 C 265.717 0.352301 -3.58373 0
M  V30 2787 C 265.57 -0.959676 -4.39443 0
M  V30 2788 C 266.889 1.12286 -4.25535 0
M  V30 2789 H 264.008 0.0463936 -0.735538 0
M  V30 2790 H 266.65 -0.574197 -1.81116 0
M  V30 2791 H 264.8 0.9536 -3.76615 0
M  V30 2792 H 266.472 -1.59482 -4.32855 0
M  V30 2793 H 264.715 -1.56468 -4.04599 0
M  V30 2794 H 265.386 -0.759394 -5.46752 0
M  V30 2795 H 267.862 0.613545 -4.11552 0
M  V30 2796 H 266.738 1.24598 -5.34571 0
M  V30 2797 H 266.999 2.15048 -3.86273 0
M  V30 2798 N 266.058 1.56714 -0.166846 0
M  V30 2799 C 267.304 1.97039 0.479962 0
M  V30 2800 C 267.637 1.05264 1.63197 0
M  V30 2801 O 266.912 0.0988833 1.94248 0
M  V30 2802 C 267.195 3.46867 0.967212 0
M  V30 2803 C 267.048 4.49421 -0.18466 0
M  V30 2804 C 268.367 3.9968 1.84238 0
M  V30 2805 H 265.486 0.71641 0.172992 0
M  V30 2806 H 268.128 1.8832 -0.252079 0
M  V30 2807 H 266.278 3.54428 1.59101 0
M  V30 2808 H 267.95 4.53924 -0.821621 0
M  V30 2809 H 266.193 4.25573 -0.840837 0
M  V30 2810 H 266.864 5.51644 0.198317 0
M  V30 2811 H 269.34 3.94723 1.31655 0
M  V30 2812 H 268.216 5.04941 2.15234 0
M  V30 2813 H 268.477 3.43226 2.78654 0
M  V30 2814 N 267.536 -0.106894 1.57237 0
M  V30 2815 C 268.466 -1.13148 2.04254 0
M  V30 2816 C 269.447 -1.42476 0.929224 0
M  V30 2817 O 270.632 -1.52709 1.19973 0
M  V30 2818 C 267.762 -2.4545 2.45706 0
M  V30 2819 C 266.716 -2.30558 3.60592 0
M  V30 2820 C 266.042 -3.67931 3.87983 0
M  V30 2821 C 267.342 -1.75597 4.91897 0
M  V30 2822 H 269.036 -0.740374 2.90101 0
M  V30 2823 H 266.582 -0.354696 1.39563 0
M  V30 2824 H 268.535 -3.17389 2.77205 0
M  V30 2825 H 267.259 -2.86475 1.56843 0
M  V30 2826 H 265.918 -1.61067 3.29322 0
M  V30 2827 H 265.566 -4.06462 2.96306 0
M  V30 2828 H 265.266 -3.58817 4.65322 0
M  V30 2829 H 266.79 -4.41356 4.21945 0
M  V30 2830 H 268.204 -2.37364 5.21854 0
M  V30 2831 H 266.601 -1.77272 5.73319 0
M  V30 2832 H 267.671 -0.714451 4.79608 0
M  V30 2833 N 269.014 -1.53014 -0.377408 0
M  V30 2834 C 270.26 -1.68872 -1.12294 0
M  V30 2835 C 270.593 -0.433224 -1.89306 0
M  V30 2836 O 269.868 0.569258 -1.85983 0
M  V30 2837 C 270.151 -2.93115 -2.09179 0
M  V30 2838 C 270.004 -4.28794 -1.35853 0
M  V30 2839 C 271.323 -3.12928 -3.09458 0
M  V30 2840 H 268.442 -0.614518 -0.406862 0
M  V30 2841 H 271.084 -1.85633 -0.40503 0
M  V30 2842 H 269.234 -2.78956 -2.70399 0
M  V30 2843 H 270.906 -4.54742 -0.775082 0
M  V30 2844 H 269.149 -4.28744 -0.660364 0
M  V30 2845 H 269.82 -5.11837 -2.06706 0
M  V30 2846 H 272.296 -3.26194 -2.58334 0
M  V30 2847 H 271.172 -4.01316 -3.74482 0
M  V30 2848 H 271.433 -2.27669 -3.78971 0
M  V30 2849 N 270.492 0.636531 -1.44174 0
M  V30 2850 C 271.74 1.39343 -1.46383 0
M  V30 2851 C 272.061 1.94766 -0.0955715 0
M  V30 2852 O 271.331 1.75452 0.871395 0
M  V30 2853 H 269.911 0.517199 -0.538994 0
M  V30 2854 H 272.573 0.74957 -1.7991 0
M  V30 2855 H 271.669 2.22746 -2.18611 0
M  V30 2856 N 271.97 1.30982 0.876444 0
M  V30 2857 C 273.381 1.18277 1.44456 0
M  V30 2858 C 273.732 -0.213265 1.95037 0
M  V30 2859 O 272.857 -1.11057 1.85729 0
M  V30 2860 C 273.452 2.1411 2.62569 0
M  V30 2861 C 272.011 2.05358 3.15444 0
M  V30 2862 C 271.158 2.03706 1.88146 0
M  V30 2863 H 274.109 1.43127 0.685584 0
M  V30 2864 H 274.13 1.72692 3.39054 0
M  V30 2865 H 273.642 3.15706 2.25724 0
M  V30 2866 H 271.743 1.06934 3.56926 0
M  V30 2867 H 271.856 2.94156 3.78166 0
M  V30 2868 H 270.22 1.48629 2.06837 0
M  V30 2869 H 271.003 3.07047 1.53547 0
M  V30 2870 N 273.449 -1.08991 1.13837 0
M  V30 2871 C 274.674 -1.85551 0.926585 0
M  V30 2872 C 275.099 -1.80782 -0.519566 0
M  V30 2873 O 274.457 -1.18855 -1.36906 0
M  V30 2874 C 274.505 -3.31266 1.42462 0
M  V30 2875 O 273.609 -4.07822 0.612789 0
M  V30 2876 H 272.95 -0.575192 0.331738 0
M  V30 2877 H 275.48 -1.37604 1.51414 0
M  V30 2878 H 275.49 -3.82112 1.43019 0
M  V30 2879 H 274.165 -3.34052 2.47754 0
M  V30 2880 H 272.742 -3.66731 0.675463 0
M  V30 2881 N 274.927 -0.932562 -1.27047 0
M  V30 2882 C 275.857 -0.452902 -2.29066 0
M  V30 2883 C 276.838 0.489338 -1.62909 0
M  V30 2884 O 278.023 0.393046 -1.90181 0
M  V30 2885 C 275.153 0.290698 -3.46081 0
M  V30 2886 C 274.107 -0.564168 -4.24265 0
M  V30 2887 C 273.433 0.308886 -5.33807 0
M  V30 2888 C 274.733 -1.83112 -4.89149 0
M  V30 2889 H 276.427 -1.30552 -2.69437 0
M  V30 2890 H 273.973 -0.629201 -1.29526 0
M  V30 2891 H 275.926 0.637233 -4.16554 0
M  V30 2892 H 274.65 1.17738 -3.0464 0
M  V30 2893 H 273.309 -0.893477 -3.55545 0
M  V30 2894 H 272.957 1.19467 -4.88607 0
M  V30 2895 H 272.657 -0.259633 -5.87026 0
M  V30 2896 H 274.181 0.650884 -6.07121 0
M  V30 2897 H 275.595 -1.55236 -5.51883 0
M  V30 2898 H 273.992 -2.34353 -5.52448 0
M  V30 2899 H 275.062 -2.54772 -4.12576 0
M  V30 2900 N 276.405 1.4127 -0.698611 0
M  V30 2901 C 277.352 2.30773 -0.0352094 0
M  V30 2902 C 278.322 1.47273 0.768111 0
M  V30 2903 O 279.507 1.76053 0.735524 0
M  V30 2904 C 276.647 3.33346 0.893 0
M  V30 2905 C 275.76 4.31924 0.0809695 0
M  V30 2906 C 274.895 5.21566 1.0071 0
M  V30 2907 C 273.934 6.11811 0.188155 0
M  V30 2908 N 273.071 6.93926 1.06825 0
M  V30 2909 H 277.911 2.86943 -0.804207 0
M  V30 2910 H 275.448 1.4132 -0.408294 0
M  V30 2911 H 277.406 3.91368 1.44523 0
M  V30 2912 H 276.036 2.78719 1.62836 0
M  V30 2913 H 275.088 3.75825 -0.588224 0
M  V30 2914 H 276.4 4.95716 -0.553801 0
M  V30 2915 H 275.554 5.84437 1.62845 0
M  V30 2916 H 274.293 4.58008 1.67572 0
M  V30 2917 H 273.298 5.47986 -0.446254 0
M  V30 2918 H 274.523 6.77425 -0.476716 0
M  V30 2919 H 272.469 6.32973 1.72283 0
M  V30 2920 H 272.386 7.54416 0.489123 0
M  V30 2921 H 273.654 7.61262 1.67632 0
M  V30 2922 N 277.883 0.443576 1.51229 0
M  V30 2923 C 279.131 -0.120557 2.0174 0
M  V30 2924 C 279.452 -1.42665 1.32935 0
M  V30 2925 O 278.722 -1.9028 0.465866 0
M  V30 2926 H 277.302 -0.0475426 0.745486 0
M  V30 2927 H 279.964 0.587711 1.85828 0
M  V30 2928 H 279.06 -0.291972 3.10731 0
M  V30 2929 N 279.361 -1.56624 0.175154 0
M  V30 2930 C 280.591 -2.01082 -0.474283 0
M  V30 2931 C 280.999 -1.05447 -1.57091 0
M  V30 2932 O 280.342 -0.0480595 -1.83637 0
M  V30 2933 C 280.404 -3.41963 -1.10911 0
M  V30 2934 C 280.068 -4.56742 -0.153666 0
M  V30 2935 C 281.065 -5.16076 0.629448 0
M  V30 2936 C 278.75 -5.02277 -0.0483776 0
M  V30 2937 C 280.744 -6.19377 1.50501 0
M  V30 2938 C 278.431 -6.05427 0.830768 0
M  V30 2939 C 279.429 -6.63849 1.60605 0
M  V30 2940 O 279.117 -7.64998 2.47049 0
M  V30 2941 H 278.849 -0.664261 -0.125432 0
M  V30 2942 H 281.403 -2.03549 0.275163 0
M  V30 2943 H 279.633 -3.36422 -1.90676 0
M  V30 2944 H 281.322 -3.70352 -1.66114 0
M  V30 2945 H 282.088 -4.81776 0.558297 0
M  V30 2946 H 277.967 -4.56513 -0.641611 0
M  V30 2947 H 281.511 -6.64906 2.1106 0
M  V30 2948 H 277.408 -6.39151 0.903107 0
M  V30 2949 H 278.176 -7.82336 2.40607 0
M  V30 2950 N 280.839 0.0985539 -1.57292 0
M  V30 2951 C 281.749 1.13824 -2.05137 0
M  V30 2952 C 282.765 1.44076 -0.975604 0
M  V30 2953 O 283.941 1.54786 -1.28853 0
M  V30 2954 C 281.006 2.43969 -2.46333 0
M  V30 2955 C 280.067 2.2093 -3.68087 0
M  V30 2956 C 279.3 3.44869 -4.0731 0
M  V30 2957 O 279.523 4.52972 -3.46659 0
M  V30 2958 O 278.457 3.34661 -5.00285 0
M  V30 2959 H 282.283 0.761881 -2.93988 0
M  V30 2960 H 279.868 0.310818 -1.46131 0
M  V30 2961 H 281.75 3.20609 -2.73473 0
M  V30 2962 H 280.425 2.81038 -1.60621 0
M  V30 2963 H 279.332 1.42081 -3.46069 0
M  V30 2964 H 280.665 1.88755 -4.54568 0
M  V30 2965 N 282.317 1.53212 0.369288 0
M  V30 2966 C 283.563 1.69466 1.11397 0
M  V30 2967 C 283.896 0.443257 1.89074 0
M  V30 2968 O 283.171 -0.559386 1.86282 0
M  V30 2969 C 283.454 2.9422 2.07621 0
M  V30 2970 C 283.307 4.29508 1.33577 0
M  V30 2971 C 284.626 3.14565 3.07794 0
M  V30 2972 H 281.745 0.616667 0.403597 0
M  V30 2973 H 284.387 1.85845 0.395179 0
M  V30 2974 H 282.537 2.80387 2.68916 0
M  V30 2975 H 284.209 4.55147 0.750955 0
M  V30 2976 H 282.452 4.29088 0.637618 0
M  V30 2977 H 283.123 5.12926 2.03989 0
M  V30 2978 H 285.599 3.2756 2.56601 0
M  V30 2979 H 284.475 4.03297 3.72348 0
M  V30 2980 H 284.736 2.29675 3.77759 0
M  V30 2981 N 283.795 -0.628877 1.44509 0
M  V30 2982 C 285.023 -1.41554 1.50897 0
M  V30 2983 C 285.438 -1.8832 0.134564 0
M  V30 2984 O 284.795 -1.60969 -0.859965 0
M  V30 2985 C 284.846 -2.63435 2.47556 0
M  V30 2986 O 284.567 -2.18619 3.79654 0
M  V30 2987 C 286.068 -3.56537 2.63431 0
M  V30 2988 H 283.288 -0.434044 0.511709 0
M  V30 2989 H 285.832 -0.768895 1.89495 0
M  V30 2990 H 283.987 -3.24187 2.12089 0
M  V30 2991 H 284.401 -2.97652 4.31861 0
M  V30 2992 H 285.875 -4.38657 3.35088 0
M  V30 2993 H 286.352 -4.05493 1.68738 0
M  V30 2994 H 286.958 -3.01653 2.9981 0
M  V30 2995 N 285.273 -1.31445 -0.869486 0
M  V30 2996 C 286.55 -1.11795 -1.60503 0
M  V30 2997 C 286.93 0.327168 -2.08549 0
M  V30 2998 O 286.278 1.32135 -1.8642 0
M  V30 2999 C 286.488 -2.13258 -2.76265 0
M  V30 3000 C 287.836 -2.45805 -3.46215 0
M  V30 3001 O 288.86 -2.11688 -2.86473 0
M  V30 3002 O 287.719 -3.04228 -4.5399 0
M  V30 3003 H 284.813 -0.430421 -0.706163 0
M  V30 3004 H 287.359 -1.42925 -0.914907 0
M  V30 3005 H 286.131 -3.10461 -2.3818 0
M  V30 3006 H 285.754 -1.83035 -3.52964 0
M  V30 3007 N 286.751 1.08385 -1.14413 0
M  V30 3008 C 287.684 2.14642 -0.774871 0
M  V30 3009 C 288.662 1.60761 0.243876 0
M  V30 3010 O 289.846 1.88031 0.132883 0
M  V30 3011 C 286.973 3.38366 -0.150491 0
M  V30 3012 C 286.019 4.10997 -1.13945 0
M  V30 3013 S 286.852 4.63797 -2.67679 0
M  V30 3014 C 288.008 5.90808 -2.06631 0
M  V30 3015 H 288.241 2.45633 -1.67487 0
M  V30 3016 H 285.774 1.20498 -0.96538 0
M  V30 3017 H 287.732 4.09996 0.203334 0
M  V30 3018 H 286.393 3.05572 0.72694 0
M  V30 3019 H 285.586 4.99783 -0.65059 0
M  V30 3020 H 285.188 3.4528 -1.43727 0
M  V30 3021 H 287.48 6.62411 -1.4219 0
M  V30 3022 H 288.423 6.4439 -2.93542 0
M  V30 3023 H 288.831 5.4383 -1.51357 0
M  V30 3024 N 288.23 0.939286 1.26551 0
M  V30 3025 C 289.163 0.391702 2.24813 0
M  V30 3026 C 290.141 -0.518421 1.54114 0
M  V30 3027 O 291.325 -0.456299 1.82894 0
M  V30 3028 C 288.452 -0.437382 3.35864 0
M  V30 3029 C 287.498 0.410946 4.24516 0
M  V30 3030 S 288.331 1.83372 5.03125 0
M  V30 3031 C 289.487 1.01264 6.17654 0
M  V30 3032 H 289.72 1.22448 2.70913 0
M  V30 3033 H 287.253 0.742269 1.35387 0
M  V30 3034 H 289.211 -0.909837 4.0029 0
M  V30 3035 H 287.872 -1.24482 2.8838 0
M  V30 3036 H 287.065 -0.224191 5.03501 0
M  V30 3037 H 286.667 0.818014 3.64945 0
M  V30 3038 H 288.959 0.254023 6.77024 0
M  V30 3039 H 289.902 1.77589 6.85469 0
M  V30 3040 H 290.31 0.549532 5.61819 0
M  V30 3041 N 289.708 -1.40897 0.706093 0
M  V30 3042 C 290.64 -2.29199 0.00815776 0
M  V30 3043 C 291.653 -1.45336 -0.733582 0
M  V30 3044 O 292.842 -1.68727 -0.582537 0
M  V30 3045 C 289.942 -3.23417 -1.01265 0
M  V30 3046 C 289.115 -4.36089 -0.338387 0
M  V30 3047 C 288.174 -5.10811 -1.26326 0
M  V30 3048 O 287.2 -5.64215 -0.751651 0
M  V30 3049 N 288.402 -5.19269 -2.595 0
M  V30 3050 H 291.167 -2.89738 0.766297 0
M  V30 3051 H 288.728 -1.52164 0.55296 0
M  V30 3052 H 290.72 -3.70276 -1.63334 0
M  V30 3053 H 289.29 -2.64112 -1.67223 0
M  V30 3054 H 288.51 -3.91479 0.462352 0
M  V30 3055 H 289.798 -5.08634 0.130031 0
M  V30 3056 H 289.196 -4.77347 -3.03573 0
M  V30 3057 H 287.753 -5.69667 -3.16737 0
M  V30 3058 N 291.186 -0.45159 -1.50991 0
M  V30 3059 C 292.133 0.352625 -2.2809 0
M  V30 3060 C 293.103 1.0044 -1.32291 0
M  V30 3061 O 294.288 1.02058 -1.6121 0
M  V30 3062 C 291.428 1.43983 -3.13629 0
M  V30 3063 C 290.541 0.804772 -4.24438 0
M  V30 3064 C 289.676 1.86822 -4.97263 0
M  V30 3065 C 288.715 1.21236 -5.99973 0
M  V30 3066 N 287.852 2.2178 -6.66152 0
M  V30 3067 H 292.692 -0.311186 -2.96371 0
M  V30 3068 H 290.229 -0.165308 -1.46168 0
M  V30 3069 H 292.187 2.08161 -3.61559 0
M  V30 3070 H 290.817 2.07307 -2.47434 0
M  V30 3071 H 289.869 0.0509129 -3.80366 0
M  V30 3072 H 291.181 0.286076 -4.97979 0
M  V30 3073 H 290.335 2.58628 -5.48813 0
M  V30 3074 H 289.074 2.42068 -4.23385 0
M  V30 3075 H 288.079 0.479828 -5.47702 0
M  V30 3076 H 289.304 0.667051 -6.75816 0
M  V30 3077 H 287.25 2.76079 -5.95077 0
M  V30 3078 H 287.167 1.74841 -7.35504 0
M  V30 3079 H 288.435 2.93026 -7.22327 0
M  V30 3080 N 292.664 1.56529 -0.183458 0
M  V30 3081 C 293.627 2.17324 0.728223 0
M  V30 3082 C 294.627 1.12453 1.14939 0
M  V30 3083 O 295.817 1.37902 1.06437 0
M  V30 3084 C 292.949 2.76591 1.99274 0
M  V30 3085 H 294.142 2.99241 0.198772 0
M  V30 3086 H 291.695 1.5616 0.0661391 0
M  V30 3087 H 292.43 1.98441 2.56499 0
M  V30 3088 H 292.215 3.5335 1.69959 0
M  V30 3089 H 293.705 3.23311 2.6431 0
M  V30 3090 N 294.142 -0.090211 1.57342 0
M  V30 3091 C 295.072 -1.10976 2.05443 0
M  V30 3092 C 296.053 -1.41482 0.944284 0
M  V30 3093 O 297.238 -1.51428 1.21586 0
M  V30 3094 C 294.368 -2.42831 2.48295 0
M  V30 3095 C 293.322 -2.26721 3.63018 0
M  V30 3096 C 292.648 -3.63796 3.91863 0
M  V30 3097 C 293.948 -1.7037 4.93732 0
M  V30 3098 H 295.642 -0.709564 2.9087 0
M  V30 3099 H 293.188 -0.339874 1.39932 0
M  V30 3100 H 295.141 -3.14431 2.80555 0
M  V30 3101 H 293.865 -2.84795 1.59873 0
M  V30 3102 H 292.524 -1.57565 3.31012 0
M  V30 3103 H 292.172 -4.03297 3.00601 0
M  V30 3104 H 291.872 -3.53861 4.69101 0
M  V30 3105 H 293.396 -4.36855 4.26603 0
M  V30 3106 H 294.81 -2.31816 5.24342 0
M  V30 3107 H 293.207 -1.71181 5.75167 0
M  V30 3108 H 294.277 -0.663542 4.80339 0
M  V30 3109 N 295.62 -1.53406 -0.361157 0
M  V30 3110 C 296.867 -1.69802 -1.10333 0
M  V30 3111 C 297.195 -0.452087 -1.89173 0
M  V30 3112 O 296.45 0.566017 -1.87336 0
M  V30 3113 C 296.749 -2.90211 -2.08596 0
M  V30 3114 C 296.415 -4.26539 -1.46203 0
M  V30 3115 C 295.077 -4.6361 -1.28915 0
M  V30 3116 C 297.429 -5.113 -1.01101 0
M  V30 3117 C 294.757 -5.83075 -0.651157 0
M  V30 3118 C 297.109 -6.31415 -0.387007 0
M  V30 3119 C 295.773 -6.67195 -0.201657 0
M  V30 3120 H 295.043 -0.621351 -0.403737 0
M  V30 3121 H 297.69 -1.87598 -0.384609 0
M  V30 3122 H 295.995 -2.66946 -2.86788 0
M  V30 3123 H 297.692 -3.00091 -2.65982 0
M  V30 3124 H 294.282 -3.97352 -1.60653 0
M  V30 3125 H 298.466 -4.83206 -1.13249 0
M  V30 3126 H 293.722 -6.09385 -0.496006 0
M  V30 3127 H 297.896 -6.96394 -0.0293563 0
M  V30 3128 H 295.523 -7.59628 0.294766 0
M  V30 3129 N 297.098 0.621204 -1.44841 0
M  V30 3130 C 298.375 1.38 -1.38619 0
M  V30 3131 C 298.755 2.11041 -0.0498935 0
M  V30 3132 O 298.103 2.06992 0.967816 0
M  V30 3133 C 298.313 2.33817 -2.59096 0
M  V30 3134 C 299.661 2.96844 -3.03593 0
M  V30 3135 O 300.685 2.44141 -2.59371 0
M  V30 3136 O 299.544 3.92476 -3.80296 0
M  V30 3137 H 296.638 0.61811 -0.549426 0
M  V30 3138 H 299.184 0.645429 -1.56947 0
M  V30 3139 H 297.956 1.79012 -3.47952 0
M  V30 3140 H 297.579 3.14676 -2.43032 0
M  V30 3141 N 298.576 1.31904 0.862503 0
M  V30 3142 C 299.823 1.22017 1.61611 0
M  V30 3143 C 300.151 -0.21991 1.93253 0
M  V30 3144 O 299.406 -1.17076 1.56817 0
M  V30 3145 C 299.705 2.01713 2.95037 0
M  V30 3146 C 299.371 3.51145 2.82857 0
M  V30 3147 C 298.033 3.91889 2.79243 0
M  V30 3148 C 300.385 4.46204 2.69353 0
M  V30 3149 C 297.713 5.25947 2.59993 0
M  V30 3150 C 300.065 5.80397 2.5164 0
M  V30 3151 C 298.729 6.20352 2.46413 0
M  V30 3152 H 297.999 0.44649 0.591378 0
M  V30 3153 H 300.646 1.63248 1.00111 0
M  V30 3154 H 298.951 1.53185 3.60613 0
M  V30 3155 H 300.648 1.91437 3.52353 0
M  V30 3156 H 297.238 3.1878 2.86491 0
M  V30 3157 H 301.422 4.15652 2.71196 0
M  V30 3158 H 296.678 5.5597 2.54376 0
M  V30 3159 H 300.852 6.53676 2.40169 0
M  V30 3160 H 298.479 7.24172 2.31256 0
M  V30 3161 N 300.054 -1.07777 1.14986 0
M  V30 3162 C 300.984 -2.16865 0.865557 0
M  V30 3163 C 301.965 -1.69123 -0.182083 0
M  V30 3164 O 303.15 -1.94164 -0.0373815 0
M  V30 3165 C 300.28 -3.45539 0.349313 0
M  V30 3166 C 299.234 -4.06708 1.33313 0
M  V30 3167 C 298.56 -5.30411 0.675918 0
M  V30 3168 C 299.86 -4.47241 2.69764 0
M  V30 3169 H 301.554 -2.40905 1.77778 0
M  V30 3170 H 299.1 -1.15781 0.856203 0
M  V30 3171 H 301.053 -4.21174 0.137983 0
M  V30 3172 H 299.777 -3.21072 -0.598362 0
M  V30 3173 H 298.436 -3.33112 1.53075 0
M  V30 3174 H 298.084 -5.02232 -0.277767 0
M  V30 3175 H 297.784 -5.72293 1.33244 0
M  V30 3176 H 299.308 -6.08755 0.474262 0
M  V30 3177 H 300.722 -5.14025 2.53873 0
M  V30 3178 H 299.119 -5.00062 3.3175 0
M  V30 3179 H 300.189 -3.58818 3.26156 0
M  V30 3180 N 301.532 -0.945985 -1.26051 0
M  V30 3181 C 302.479 -0.45809 -2.26208 0
M  V30 3182 C 303.449 0.484816 -1.58867 0
M  V30 3183 O 304.634 0.399969 -1.86561 0
M  V30 3184 C 301.774 0.266131 -3.44072 0
M  V30 3185 C 300.887 -0.713005 -4.26075 0
M  V30 3186 C 300.022 0.0329013 -5.3119 0
M  V30 3187 C 299.061 -0.93774 -6.04874 0
M  V30 3188 N 298.198 -0.223274 -7.01745 0
M  V30 3189 H 303.038 -1.3171 -2.67313 0
M  V30 3190 H 300.575 -0.66069 -1.31428 0
M  V30 3191 H 302.533 0.702514 -4.11243 0
M  V30 3192 H 301.163 1.08925 -3.03867 0
M  V30 3193 H 300.215 -1.26789 -3.58648 0
M  V30 3194 H 301.527 -1.45406 -4.77136 0
M  V30 3195 H 300.681 0.528335 -6.04395 0
M  V30 3196 H 299.42 0.806801 -4.8098 0
M  V30 3197 H 298.425 -1.44425 -5.30492 0
M  V30 3198 H 299.65 -1.71172 -6.57173 0
M  V30 3199 H 297.596 0.532046 -6.53839 0
M  V30 3200 H 297.513 -0.90357 -7.50581 0
M  V30 3201 H 298.781 0.250907 -7.79096 0
M  V30 3202 N 303.011 1.40521 -0.713556 0
M  V30 3203 C 303.961 2.27971 -0.036165 0
M  V30 3204 C 304.945 1.43151 0.734623 0
M  V30 3205 O 306.137 1.66261 0.607158 0
M  V30 3206 C 303.266 3.31661 0.886331 0
M  V30 3207 C 302.352 4.23955 0.110836 0
M  V30 3208 N 302.743 4.97641 -0.904847 0
M  V30 3209 C 301.041 4.44674 0.343692 0
M  V30 3210 C 301.742 5.65322 -1.37064 0
M  V30 3211 N 300.718 5.39162 -0.693168 0
M  V30 3212 H 304.52 2.82384 -0.814645 0
M  V30 3213 H 302.034 1.52948 -0.545963 0
M  V30 3214 H 304.031 3.93154 1.38692 0
M  V30 3215 H 302.691 2.78808 1.66421 0
M  V30 3216 H 303.702 5.01689 -1.28563 0
M  V30 3217 H 300.379 4.02801 1.09805 0
M  V30 3218 H 301.769 6.34359 -2.21447 0
M  V30 3219 N 304.489 0.459591 1.5075 0
M  V30 3220 C 305.905 0.113092 1.59199 0
M  V30 3221 C 306.105 -1.37951 1.46874 0
M  V30 3222 O 305.161 -2.15168 1.32132 0
M  V30 3223 C 306.474 0.653043 2.93523 0
M  V30 3224 C 308.022 0.615449 3.0689 0
M  V30 3225 C 308.497 1.13275 4.43771 0
M  V30 3226 N 309.988 1.09167 4.50152 0
M  V30 3227 C 310.723 1.46256 5.54434 0
M  V30 3228 N 310.219 1.90739 6.66026 0
M  V30 3229 N 312.012 1.37932 5.44914 0
M  V30 3230 H 304.163 1.43049 1.57005 0
M  V30 3231 H 306.426 0.590861 0.741341 0
M  V30 3232 H 306.132 1.69822 3.07983 0
M  V30 3233 H 306.006 0.0902132 3.77092 0
M  V30 3234 H 308.393 -0.420793 2.92084 0
M  V30 3235 H 308.474 1.21495 2.25106 0
M  V30 3236 H 308.118 2.16757 4.59324 0
M  V30 3237 H 308.048 0.509576 5.24129 0
M  V30 3238 H 310.539 0.76528 3.7007 0
M  V30 3239 H 310.852 2.17218 7.41644 0
M  V30 3240 H 309.197 1.94683 6.67176 0
M  V30 3241 H 312.388 1.0303 4.56621 0
M  V30 3242 H 312.561 1.67164 6.26067 0
M  V30 3243 N 305.967 -1.56429 0.191757 0
M  V30 3244 C 307.214 -1.97485 -0.447891 0
M  V30 3245 C 307.542 -1.07852 -1.61859 0
M  V30 3246 O 306.797 -0.116903 -1.95351 0
M  V30 3247 C 307.096 -3.44449 -0.953384 0
M  V30 3248 C 306.762 -4.50781 0.103586 0
M  V30 3249 C 305.424 -4.79584 0.394023 0
M  V30 3250 C 307.776 -5.1471 0.819946 0
M  V30 3251 C 305.104 -5.69607 1.40585 0
M  V30 3252 C 307.456 -6.05827 1.8209 0
M  V30 3253 C 306.12 -6.32987 2.11857 0
M  V30 3254 H 305.39 -0.722648 -0.163895 0
M  V30 3255 H 308.037 -1.89322 0.28802 0
M  V30 3256 H 306.342 -3.49666 -1.76751 0
M  V30 3257 H 308.039 -3.73569 -1.45765 0
M  V30 3258 H 304.629 -4.28394 -0.132951 0
M  V30 3259 H 308.813 -4.92552 0.608789 0
M  V30 3260 H 304.069 -5.88926 1.64243 0
M  V30 3261 H 308.243 -6.54424 2.38123 0
M  V30 3262 H 305.87 -7.02544 2.90407 0
M  V30 3263 N 307.445 0.0818655 -1.57387 0
M  V30 3264 C 308.722 0.815343 -1.77796 0
M  V30 3265 C 309.102 1.96289 -0.77679 0
M  V30 3266 O 308.45 2.27691 0.192106 0
M  V30 3267 C 308.66 1.29765 -3.23978 0
M  V30 3268 C 310.008 1.7351 -3.8753 0
M  V30 3269 O 311.032 1.39356 -3.27808 0
M  V30 3270 O 309.891 2.36708 -4.92576 0
M  V30 3271 H 306.985 0.389914 -0.729312 0
M  V30 3272 H 309.531 0.0627213 -1.69584 0
M  V30 3273 H 308.303 0.47608 -3.88393 0
M  V30 3274 H 307.926 2.11189 -3.36875 0
M  V30 3275 N 308.923 1.53595 0.353017 0
M  V30 3276 C 310.171 1.70049 1.09215 0
M  V30 3277 C 310.492 0.461406 1.89463 0
M  V30 3278 O 309.762 -0.524633 1.88744 0
M  V30 3279 H 308.342 0.626912 0.40619 0
M  V30 3280 H 311.004 1.90822 0.396585 0
M  V30 3281 H 310.1 2.56718 1.77488 0
M  V30 3282 N 310.401 -0.613514 1.45168 0
M  V30 3283 C 311.817 -0.933629 1.29443 0
M  V30 3284 C 312.017 -2.00028 0.243101 0
M  V30 3285 O 311.073 -2.49848 -0.364992 0
M  V30 3286 C 312.386 -1.38018 2.67155 0
M  V30 3287 C 313.934 -1.49471 2.75004 0
M  V30 3288 C 314.409 -1.97503 4.13227 0
M  V30 3289 N 315.9 -2.04746 4.15491 0
M  V30 3290 C 316.635 -2.43121 5.19307 0
M  V30 3291 N 316.131 -2.80506 6.33473 0
M  V30 3292 N 317.924 -2.43408 5.06664 0
M  V30 3293 H 310.075 0.0916097 2.12202 0
M  V30 3294 H 312.338 -0.0216655 0.947752 0
M  V30 3295 H 312.044 -0.670625 3.45247 0
M  V30 3296 H 311.918 -2.34784 2.95222 0
M  V30 3297 H 314.305 -2.19519 1.9722 0
M  V30 3298 H 314.386 -0.510342 2.50657 0
M  V30 3299 H 314.03 -1.28045 4.91495 0
M  V30 3300 H 313.96 -2.96843 4.34962 0
M  V30 3301 H 316.451 -1.78468 3.33103 0
M  V30 3302 H 316.764 -3.08652 7.08487 0
M  V30 3303 H 315.109 -2.78216 6.36884 0
M  V30 3304 H 318.3 -2.13604 4.16523 0
M  V30 3305 H 318.473 -2.72989 5.87691 0
M  V30 3306 N 311.879 -1.3236 -0.855495 0
M  V30 3307 C 313.128 -1.22226 -1.60448 0
M  V30 3308 C 313.441 0.214733 -1.94418 0
M  V30 3309 O 314.647 0.437917 -2.67945 0
M  V30 3310 C 313.103 -2.14063 -2.89318 0
M  V30 3311 C 312.711 -3.62839 -2.62777 0
M  V30 3312 C 314.455 -2.12764 -3.67331 0
M  V30 3313 C 312.362 -4.4664 -3.87643 0
M  V30 3314 H 311.292 -0.453904 -0.602069 0
M  V30 3315 H 313.943 -1.57314 -0.944698 0
M  V30 3316 H 312.325 -1.71889 -3.5675 0
M  V30 3317 H 313.499 -4.1335 -2.03662 0
M  V30 3318 H 311.814 -3.66261 -1.98096 0
M  V30 3319 H 314.411 -2.72611 -4.59987 0
M  V30 3320 H 314.754 -1.11841 -4.00995 0
M  V30 3321 H 315.287 -2.53214 -3.06802 0
M  V30 3322 H 312.026 -5.48373 -3.5912 0
M  V30 3323 H 311.546 -4.0088 -4.46156 0
M  V30 3324 H 313.225 -4.59597 -4.55389 0
M  V30 3325 N 313.357 1.07166 -1.15556 0
M  V30 3326 C 314.582 1.84053 -0.955988 0
M  V30 3327 C 315.007 1.81586 0.490739 0
M  V30 3328 O 314.365 1.21018 1.34997 0
M  V30 3329 C 314.413 3.28957 -1.47714 0
M  V30 3330 O 313.517 4.06795 -0.677593 0
M  V30 3331 H 312.858 0.569842 -0.340847 0
M  V30 3332 H 315.388 1.35178 -1.53584 0
M  V30 3333 H 315.398 3.79788 -1.4908 0
M  V30 3334 H 314.073 3.30068 -2.53037 0
M  V30 3335 H 312.65 3.6561 -0.733721 0
M  V30 3336 N 314.835 0.952656 1.25548 0
M  V30 3337 C 316.084 0.602053 1.92505 0
M  V30 3338 C 316.397 -0.864663 1.75451 0
M  V30 3339 O 317.603 -1.32514 2.36965 0
M  V30 3340 C 316.059 1.02607 3.44963 0
M  V30 3341 C 315.667 2.51519 3.70732 0
M  V30 3342 C 317.411 0.747905 4.1786 0
M  V30 3343 C 315.318 2.87732 5.16686 0
M  V30 3344 H 314.248 0.22146 0.720744 0
M  V30 3345 H 316.899 1.15684 1.42441 0
M  V30 3346 H 315.281 0.399712 3.93978 0
M  V30 3347 H 316.455 3.19157 3.32378 0
M  V30 3348 H 314.77 2.76786 3.11092 0
M  V30 3349 H 317.367 0.994647 5.25367 0
M  V30 3350 H 317.71 -0.315629 4.15102 0
M  V30 3351 H 318.243 1.33452 3.74747 0
M  V30 3352 H 314.982 3.93095 5.24554 0
M  V30 3353 H 314.502 2.24765 5.56094 0
M  V30 3354 H 316.181 2.76817 5.84792 0
M  V30 3355 N 316.313 -1.40141 0.720998 0
M  V30 3356 C 317.541 -2.05096 0.272656 0
M  V30 3357 C 317.956 -1.54334 -1.0875 0
M  V30 3358 O 317.313 -0.702211 -1.6845 0
M  V30 3359 C 317.364 -3.60636 0.249835 0
M  V30 3360 O 317.085 -4.09526 1.55629 0
M  V30 3361 C 318.586 -4.42772 -0.216396 0
M  V30 3362 H 315.806 -0.659897 0.121558 0
M  V30 3363 H 318.35 -1.79449 0.980723 0
M  V30 3364 H 316.505 -3.85232 -0.409237 0
M  V30 3365 H 316.919 -5.03758 1.4604 0
M  V30 3366 H 318.393 -5.51702 -0.181212 0
M  V30 3367 H 318.87 -4.20756 -1.25941 0
M  V30 3368 H 319.476 -4.23294 0.412596 0
M  V30 3369 N 317.792 -0.46758 -1.50504 0
M  V30 3370 C 319.208 -0.121533 -1.59137 0
M  V30 3371 C 319.408 1.3717 -1.47603 0
M  V30 3372 O 318.464 2.14464 -1.33272 0
M  V30 3373 C 319.777 -0.6686 -2.93173 0
M  V30 3374 C 321.325 -0.631716 -3.06559 0
M  V30 3375 C 321.8 -1.15627 -4.43164 0
M  V30 3376 N 323.291 -1.11553 -4.49567 0
M  V30 3377 C 324.026 -1.49195 -5.5365 0
M  V30 3378 N 323.522 -1.94269 -6.65005 0
M  V30 3379 N 325.315 -1.4082 -5.44175 0
M  V30 3380 H 317.466 -1.4388 -1.56245 0
M  V30 3381 H 319.729 -0.594784 -0.738198 0
M  V30 3382 H 319.435 -1.71453 -3.07078 0
M  V30 3383 H 319.309 -0.11021 -3.77039 0
M  V30 3384 H 321.696 0.405297 -2.92304 0
M  V30 3385 H 321.777 -1.22687 -2.24458 0
M  V30 3386 H 321.421 -2.1919 -4.58168 0
M  V30 3387 H 321.351 -0.537365 -5.23851 0
M  V30 3388 H 323.842 -0.784895 -3.69659 0
M  V30 3389 H 324.155 -2.21148 -7.40482 0
M  V30 3390 H 322.5 -1.98219 -6.66134 0
M  V30 3391 H 325.691 -1.0545 -4.56068 0
M  V30 3392 H 325.864 -1.70481 -6.25172 0
M  V30 3393 N 319.27 1.56325 -0.20005 0
M  V30 3394 C 320.516 1.98012 0.438059 0
M  V30 3395 C 320.849 1.08702 1.60927 0
M  V30 3396 O 320.124 0.140064 1.93995 0
M  V30 3397 C 320.407 3.48841 0.893419 0
M  V30 3398 C 320.26 4.48928 -0.279947 0
M  V30 3399 C 321.579 4.03498 1.75719 0
M  V30 3400 H 318.698 0.719918 0.157757 0
M  V30 3401 H 321.34 1.87743 -0.291968 0
M  V30 3402 H 319.49 3.57723 1.51547 0
M  V30 3403 H 321.162 4.52079 -0.91772 0
M  V30 3404 H 319.405 4.23694 -0.930919 0
M  V30 3405 H 320.076 5.5194 0.0812601 0
M  V30 3406 H 322.552 3.97427 1.23253 0
M  V30 3407 H 321.428 5.09393 2.04476 0
M  V30 3408 H 321.689 3.4906 2.71311 0
M  V30 3409 N 320.748 -0.0735177 1.57428 0
M  V30 3410 C 321.976 -0.785969 1.9139 0
M  V30 3411 C 322.391 -1.71207 0.795847 0
M  V30 3412 O 321.748 -1.81033 -0.230915 0
M  V30 3413 C 321.799 -1.58107 3.25091 0
M  V30 3414 O 321.52 -0.6922 4.32597 0
M  V30 3415 C 323.021 -2.39467 3.73055 0
M  V30 3416 H 320.241 -0.223558 0.632663 0
M  V30 3417 H 322.785 -0.044302 2.04452 0
M  V30 3418 H 320.94 -2.27503 3.13562 0
M  V30 3419 H 321.354 -1.24504 5.09508 0
M  V30 3420 H 322.828 -2.90716 4.69242 0
M  V30 3421 H 323.305 -3.18913 3.01979 0
M  V30 3422 H 323.911 -1.7523 3.87523 0
M  V30 3423 N 322.226 -1.5378 -0.344866 0
M  V30 3424 C 323.189 -1.80981 -1.40637 0
M  V30 3425 C 324.189 -0.680816 -1.45676 0
M  V30 3426 O 325.379 -0.949095 -1.46075 0
M  V30 3427 C 322.511 -1.95063 -2.79577 0
M  V30 3428 H 323.704 -2.75803 -1.17783 0
M  V30 3429 H 321.257 -1.45173 -0.579181 0
M  V30 3430 H 321.992 -1.02379 -3.07716 0
M  V30 3431 H 321.777 -2.77198 -2.77315 0
M  V30 3432 H 323.267 -2.17629 -3.56409 0
M  V30 3433 N 323.704 0.605807 -1.45491 0
M  V30 3434 C 324.981 1.36522 -1.40075 0
M  V30 3435 C 325.361 2.10976 -0.0722744 0
M  V30 3436 O 324.709 2.08007 0.945808 0
M  V30 3437 C 324.919 2.31056 -2.61561 0
M  V30 3438 C 326.267 2.93608 -3.06724 0
M  V30 3439 O 327.291 2.41376 -2.61946 0
M  V30 3440 O 326.15 3.88421 -3.84437 0
M  V30 3441 H 323.244 0.612248 -0.555951 0
M  V30 3442 H 325.79 0.628747 -1.57623 0
M  V30 3443 H 324.562 1.75311 -3.49831 0
M  V30 3444 H 324.185 3.12081 -2.46356 0
M  V30 3445 N 325.182 1.32811 0.848464 0
M  V30 3446 C 326.112 1.24882 1.97299 0
M  V30 3447 C 327.093 0.131357 1.69592 0
M  V30 3448 O 328.278 0.319553 1.91553 0
M  V30 3449 C 325.408 0.97746 3.33261 0
M  V30 3450 C 324.362 2.05682 3.75338 0
M  V30 3451 C 323.688 1.63777 5.09 0
M  V30 3452 C 324.988 3.47254 3.90144 0
M  V30 3453 H 326.682 2.18966 2.04191 0
M  V30 3454 H 324.228 1.05413 0.981029 0
M  V30 3455 H 326.181 0.908513 4.1149 0
M  V30 3456 H 324.905 0.000980011 3.266 0
M  V30 3457 H 323.564 2.11603 2.99366 0
M  V30 3458 H 323.212 0.648569 4.98801 0
M  V30 3459 H 322.912 2.36 5.38124 0
M  V30 3460 H 324.436 1.5833 5.89715 0
M  V30 3461 H 325.85 3.43888 4.58709 0
M  V30 3462 H 324.247 4.1788 4.30693 0
M  V30 3463 H 325.317 3.86462 2.92874 0
M  V30 3464 N 326.66 -1.06551 1.16123 0
M  V30 3465 C 327.885 -1.83544 0.965735 0
M  V30 3466 C 328.31 -1.81843 -0.481102 0
M  V30 3467 O 327.668 -1.21732 -1.34354 0
M  V30 3468 C 327.716 -3.28169 1.49457 0
M  V30 3469 O 326.82 -4.0643 0.699157 0
M  V30 3470 H 326.161 -0.568026 0.343864 0
M  V30 3471 H 328.691 -1.34362 1.54299 0
M  V30 3472 H 328.701 -3.78992 1.51092 0
M  V30 3473 H 327.376 -3.28722 2.54784 0
M  V30 3474 H 325.953 -3.65216 0.7531 0
M  V30 3475 N 328.138 -0.959301 -1.25041 0
M  V30 3476 C 329.068 -0.501388 -2.28053 0
M  V30 3477 C 330.049 0.454673 -1.63911 0
M  V30 3478 O 331.234 0.352618 -1.90972 0
M  V30 3479 C 328.364 0.217224 -3.4662 0
M  V30 3480 C 327.318 -0.654034 -4.22973 0
M  V30 3481 C 326.644 0.195589 -5.34342 0
M  V30 3482 C 327.944 -1.93447 -4.85155 0
M  V30 3483 H 329.638 -1.36238 -2.66608 0
M  V30 3484 H 327.184 -0.656534 -1.28163 0
M  V30 3485 H 329.137 0.548732 -4.17812 0
M  V30 3486 H 327.861 1.1125 -3.07068 0
M  V30 3487 H 326.52 -0.968693 -3.5357 0
M  V30 3488 H 326.168 1.09076 -4.91031 0
M  V30 3489 H 325.868 -0.384091 -5.86343 0
M  V30 3490 H 327.392 0.521958 -6.08365 0
M  V30 3491 H 328.806 -1.66908 -5.48466 0
M  V30 3492 H 327.203 -2.46018 -5.47353 0
M  V30 3493 H 328.273 -2.63466 -4.07079 0
M  V30 3494 N 329.616 1.39756 -0.72842 0
M  V30 3495 C 330.579 2.29012 -0.0927297 0
M  V30 3496 C 331.579 1.45992 0.674025 0
M  V30 3497 O 332.769 1.66749 0.50402 0
M  V30 3498 C 329.901 3.29396 0.878137 0
M  V30 3499 H 331.094 2.86729 -0.879011 0
M  V30 3500 H 328.647 1.48293 -0.493847 0
M  V30 3501 H 329.382 2.76722 1.69101 0
M  V30 3502 H 329.167 3.907 0.331051 0
M  V30 3503 H 330.657 3.96199 1.3197 0
M  V30 3504 N 331.094 0.475555 1.50254 0
M  V30 3505 C 332.041 -0.316293 2.28622 0
M  V30 3506 C 333.011 -0.983227 1.33873 0
M  V30 3507 O 334.196 -0.994805 1.62814 0
M  V30 3508 C 331.336 -1.38975 3.1588 0
M  V30 3509 C 330.449 -0.737146 4.25664 0
M  V30 3510 C 329.584 -1.78887 5.00173 0
M  V30 3511 C 328.623 -1.11676 6.01826 0
M  V30 3512 N 327.76 -2.11154 6.69596 0
M  V30 3513 H 332.6 0.358297 2.95838 0
M  V30 3514 H 330.137 0.188541 1.45887 0
M  V30 3515 H 332.095 -2.02383 3.64825 0
M  V30 3516 H 330.725 -2.03344 2.50701 0
M  V30 3517 H 329.777 0.0096065 3.80399 0
M  V30 3518 H 331.089 -0.206816 4.98371 0
M  V30 3519 H 330.243 -2.49865 5.52859 0
M  V30 3520 H 328.982 -2.35302 4.27182 0
M  V30 3521 H 327.987 -0.392633 5.48396 0
M  V30 3522 H 329.212 -0.55945 6.76792 0
M  V30 3523 H 327.158 -2.66577 5.99394 0
M  V30 3524 H 327.075 -1.63118 7.38193 0
M  V30 3525 H 328.343 -2.81497 7.26897 0
M  V30 3526 N 332.573 -1.56217 0.208337 0
M  V30 3527 C 333.989 -1.58919 -0.14729 0
M  V30 3528 C 334.189 -1.22486 -1.59998 0
M  V30 3529 O 333.245 -0.953849 -2.3379 0
M  V30 3530 C 334.558 -3.00236 0.167048 0
M  V30 3531 C 336.106 -3.12813 0.108219 0
M  V30 3532 C 336.581 -4.56284 0.396049 0
M  V30 3533 N 338.072 -4.61912 0.345142 0
M  V30 3534 C 338.807 -5.70837 0.541523 0
M  V30 3535 N 338.303 -6.88178 0.798968 0
M  V30 3536 N 340.096 -5.60091 0.474867 0
M  V30 3537 H 332.247 -1.78177 1.15614 0
M  V30 3538 H 334.51 -0.827555 0.462446 0
M  V30 3539 H 334.216 -3.31499 1.1748 0
M  V30 3540 H 334.09 -3.7354 -0.524184 0
M  V30 3541 H 336.477 -2.81354 -0.890157 0
M  V30 3542 H 336.558 -2.41866 0.832729 0
M  V30 3543 H 336.202 -4.88458 1.3918 0
M  V30 3544 H 336.132 -5.25439 -0.349502 0
M  V30 3545 H 338.623 -3.77589 0.153316 0
M  V30 3546 H 338.936 -7.67095 0.93727 0
M  V30 3547 H 337.281 -6.89953 0.836013 0
M  V30 3548 H 340.472 -4.67297 0.274064 0
M  V30 3549 H 340.645 -6.44917 0.631326 0
M  V30 3550 N 334.051 0.0651679 -1.57465 0
M  V30 3551 C 335.276 0.779605 -1.9219 0
M  V30 3552 C 335.701 1.69988 -0.805333 0
M  V30 3553 O 335.059 1.79685 0.241435 0
M  V30 3554 C 335.107 1.54364 -3.2589 0
M  V30 3555 O 334.211 2.65474 -3.1559 0
M  V30 3556 H 333.552 0.212249 -0.629163 0
M  V30 3557 H 336.082 0.0314294 -2.04576 0
M  V30 3558 H 336.092 1.92146 -3.59922 0
M  V30 3559 H 334.767 0.868457 -4.06732 0
M  V30 3560 H 333.344 2.30501 -2.93128 0
M  V30 3561 N 335.529 1.53961 0.336706 0
M  V30 3562 C 336.775 1.7179 1.07777 0
M  V30 3563 C 337.108 0.483263 1.88091 0
M  V30 3564 O 336.383 -0.519747 1.87427 0
M  V30 3565 C 336.666 2.98558 2.01334 0
M  V30 3566 C 336.519 4.32245 1.24437 0
M  V30 3567 C 337.838 3.21023 3.01052 0
M  V30 3568 H 334.957 0.625089 0.390426 0
M  V30 3569 H 337.599 1.86641 0.35567 0
M  V30 3570 H 335.749 2.86028 2.62908 0
M  V30 3571 H 337.421 4.56637 0.654243 0
M  V30 3572 H 335.664 4.30344 0.546458 0
M  V30 3573 H 336.335 5.17137 1.93063 0
M  V30 3574 H 338.811 3.32929 2.49595 0
M  V30 3575 H 337.687 4.11104 3.6371 0
M  V30 3576 H 337.948 2.37637 3.72802 0
M  V30 3577 N 337.007 -0.598083 1.45811 0
M  V30 3578 C 337.937 -1.71873 1.58057 0
M  V30 3579 C 338.918 -1.64533 0.431615 0
M  V30 3580 O 340.103 -1.82787 0.65595 0
M  V30 3581 C 337.233 -3.10495 1.55597 0
M  V30 3582 C 336.187 -3.32654 2.69305 0
M  V30 3583 C 335.513 -4.71646 2.51902 0
M  V30 3584 C 336.813 -3.21981 4.11248 0
M  V30 3585 H 338.507 -1.61881 2.51863 0
M  V30 3586 H 336.053 -0.777372 1.21214 0
M  V30 3587 H 338.006 -3.88699 1.6276 0
M  V30 3588 H 336.73 -3.2135 0.583255 0
M  V30 3589 H 335.389 -2.56843 2.61586 0
M  V30 3590 H 335.037 -4.79246 1.52748 0
M  V30 3591 H 334.737 -4.87426 3.2816 0
M  V30 3592 H 336.261 -5.52038 2.60933 0
M  V30 3593 H 337.675 -3.90049 4.20161 0
M  V30 3594 H 336.072 -3.49289 4.87972 0
M  V30 3595 H 337.142 -2.1928 4.32486 0
M  V30 3596 N 338.485 -1.33259 -0.841409 0
M  V30 3597 C 339.433 -1.23279 -1.97244 0
M  V30 3598 C 340.427 -0.134706 -1.68864 0
M  V30 3599 O 341.633 -0.298501 -1.77508 0
M  V30 3600 H 338.008 -0.382497 -0.647457 0
M  V30 3601 H 339.979 -2.18906 -2.02787 0
M  V30 3602 C 338.728 -0.986268 -3.33419 0
M  V30 3603 H 338.051 -1.82347 -3.55794 0
M  V30 3604 H 339.491 -0.956728 -4.13065 0
M  V30 3605 C 337.95 0.310842 -3.35463 0
M  V30 3606 O 338.48 1.31838 -3.79449 0
M  V30 3607 N 336.686 0.337485 -2.88634 0
M  V30 3608 H 336.233 -0.482967 -2.53032 0
M  V30 3609 H 336.191 1.20518 -2.90384 0
M  V30 3610 N 339.963 1.05934 -1.16686 0
M  V30 3611 C 340.911 2.15603 -0.872817 0
M  V30 3612 C 341.905 1.68647 0.159576 0
M  V30 3613 O 343.111 1.79995 0.0132125 0
M  V30 3614 H 339.486 0.703885 -0.264671 0
M  V30 3615 H 341.457 2.37613 -1.80507 0
M  V30 3616 C 340.206 3.45457 -0.394344 0
M  V30 3617 H 339.529 3.81984 -1.18019 0
M  V30 3618 H 340.969 4.2339 -0.227408 0
M  V30 3619 C 339.428 3.25021 0.88673 0
M  V30 3620 O 339.958 3.50906 1.95519 0
M  V30 3621 N 338.164 2.78437 0.831925 0
M  V30 3622 H 337.711 2.57572 -0.0377619 0
M  V30 3623 H 337.669 2.65144 1.68956 0
M  V30 3624 N 341.441 0.965919 1.2453 0
M  V30 3625 C 342.852 0.665929 1.7442 0
M  V30 3626 C 343.203 -0.818407 1.78316 0
M  V30 3627 O 342.328 -1.64037 1.41141 0
M  V30 3628 C 342.923 1.20211 3.16757 0
M  V30 3629 C 341.482 0.952059 3.6416 0
M  V30 3630 C 340.629 1.33848 2.42858 0
M  V30 3631 H 343.58 1.14144 1.10258 0
M  V30 3632 H 343.601 0.567544 3.76244 0
M  V30 3633 H 343.113 2.28244 3.13889 0
M  V30 3634 H 341.214 -0.112821 3.72429 0
M  V30 3635 H 341.327 1.59645 4.51719 0
M  V30 3636 H 339.691 0.756864 2.43195 0
M  V30 3637 H 340.474 2.42827 2.42673 0
M  V30 3638 N 342.919 -1.39368 0.735821 0
M  V30 3639 C 344.167 -2.00101 0.283562 0
M  V30 3640 C 344.488 -1.5868 -1.13338 0
M  V30 3641 O 343.758 -0.835423 -1.77193 0
M  V30 3642 H 342.338 -0.740024 0.101851 0
M  V30 3643 H 345 -1.70404 0.945962 0
M  V30 3644 H 344.096 -3.10323 0.332604 0
M  V30 3645 N 344.397 -0.483516 -1.5 0
M  V30 3646 C 345.344 0.304164 -2.28787 0
M  V30 3647 C 346.314 0.976114 -1.34392 0
M  V30 3648 O 347.499 0.986156 -1.63339 0
M  V30 3649 C 344.639 1.37298 -3.16612 0
M  V30 3650 C 343.752 0.714561 -4.26049 0
M  V30 3651 C 342.887 1.76232 -5.01114 0
M  V30 3652 C 341.926 1.08483 -6.0241 0
M  V30 3653 N 341.063 2.076 -6.70706 0
M  V30 3654 H 345.903 -0.373981 -2.95644 0
M  V30 3655 H 343.44 -0.196275 -1.45785 0
M  V30 3656 H 345.398 2.00445 -3.65893 0
M  V30 3657 H 344.028 2.02012 -2.51776 0
M  V30 3658 H 343.08 -0.0297798 -3.80388 0
M  V30 3659 H 344.392 0.180383 -4.98474 0
M  V30 3660 H 343.546 2.46929 -5.54176 0
M  V30 3661 H 342.285 2.33033 -4.28424 0
M  V30 3662 H 341.29 0.363545 -5.48597 0
M  V30 3663 H 342.515 0.523551 -6.77079 0
M  V30 3664 H 340.461 2.63394 -6.00799 0
M  V30 3665 H 340.378 1.59201 -7.39047 0
M  V30 3666 H 341.646 2.77639 -7.2838 0
M  V30 3667 N 345.875 1.56104 -0.216619 0
M  V30 3668 C 347.291 1.58995 0.13886 0
M  V30 3669 C 347.491 1.23333 1.59346 0
M  V30 3670 O 346.547 0.966234 2.33281 0
M  V30 3671 C 347.86 3.00143 -0.182968 0
M  V30 3672 C 349.408 3.12751 -0.124807 0
M  V30 3673 C 349.883 4.56068 -0.420241 0
M  V30 3674 N 351.374 4.61723 -0.369634 0
M  V30 3675 C 352.109 5.70542 -0.571789 0
M  V30 3676 N 351.605 6.87744 -0.835453 0
M  V30 3677 N 353.398 5.59831 -0.504563 0
M  V30 3678 H 345.549 1.77562 -1.16557 0
M  V30 3679 H 347.812 0.825091 -0.466828 0
M  V30 3680 H 347.518 3.30871 -1.19237 0
M  V30 3681 H 347.392 3.73813 0.504367 0
M  V30 3682 H 349.779 2.81822 0.875223 0
M  V30 3683 H 349.86 2.41421 -0.845544 0
M  V30 3684 H 349.504 4.87713 -1.41769 0
M  V30 3685 H 349.434 5.25617 0.321631 0
M  V30 3686 H 351.925 3.77502 -0.173338 0
M  V30 3687 H 352.238 7.66587 -0.977938 0
M  V30 3688 H 350.583 6.895 -0.872592 0
M  V30 3689 H 353.774 4.67145 -0.298842 0
M  V30 3690 H 353.947 6.44573 -0.665519 0
M  V30 3691 N 347.353 -0.0568162 1.57498 0
M  V30 3692 C 348.581 -0.765626 1.92213 0
M  V30 3693 C 348.996 -1.70353 0.813961 0
M  V30 3694 O 348.353 -1.81268 -0.211701 0
M  V30 3695 C 348.404 -1.5465 3.2675 0
M  V30 3696 O 348.125 -0.646278 4.33307 0
M  V30 3697 C 349.626 -2.35497 3.75574 0
M  V30 3698 H 346.846 -0.216835 0.634999 0
M  V30 3699 H 349.39 -0.0226146 2.04487 0
M  V30 3700 H 347.545 -2.24165 3.15957 0
M  V30 3701 H 347.959 -1.19093 5.108 0
M  V30 3702 H 349.433 -2.85722 4.72299 0
M  V30 3703 H 349.91 -3.15692 3.05344 0
M  V30 3704 H 350.516 -1.7111 3.8936 0
M  V30 3705 N 348.832 -1.54138 -0.328536 0
M  V30 3706 C 350.081 -1.71318 -1.06456 0
M  V30 3707 C 350.394 -0.491109 -1.89334 0
M  V30 3708 O 351.6 -0.54416 -2.65991 0
M  V30 3709 C 350.056 -3.03 -1.94214 0
M  V30 3710 C 349.664 -4.32595 -1.16471 0
M  V30 3711 C 351.408 -3.29544 -2.67583 0
M  V30 3712 C 349.315 -5.55341 -2.03347 0
M  V30 3713 H 348.245 -0.638429 -0.401155 0
M  V30 3714 H 350.896 -1.80633 -0.323106 0
M  V30 3715 H 349.278 -2.87579 -2.72239 0
M  V30 3716 H 350.452 -4.58766 -0.432525 0
M  V30 3717 H 348.767 -4.12777 -0.548063 0
M  V30 3718 H 351.364 -4.18444 -3.3288 0
M  V30 3719 H 351.707 -2.47206 -3.34955 0
M  V30 3720 H 352.24 -3.45809 -1.96623 0
M  V30 3721 H 348.979 -6.40268 -1.40491 0
M  V30 3722 H 348.499 -5.33397 -2.74313 0
M  V30 3723 H 350.178 -5.91557 -2.62049 0
M  V30 3724 N 350.31 0.590341 -1.46126 0
M  V30 3725 C 351.559 1.34499 -1.50309 0
M  V30 3726 C 351.872 1.94977 -0.156021 0
M  V30 3727 O 353.078 2.71395 -0.0756037 0
M  V30 3728 C 351.534 2.43723 -2.64815 0
M  V30 3729 C 351.142 1.89582 -4.0591 0
M  V30 3730 C 352.886 3.20579 -2.78262 0
M  V30 3731 C 350.793 2.9639 -5.11769 0
M  V30 3732 H 349.723 0.505593 -0.559368 0
M  V30 3733 H 352.374 0.630848 -1.72315 0
M  V30 3734 H 350.756 3.17902 -2.36124 0
M  V30 3735 H 351.93 1.21997 -4.44357 0
M  V30 3736 H 350.245 1.25418 -3.97063 0
M  V30 3737 H 352.842 4.00276 -3.54519 0
M  V30 3738 H 353.185 3.72684 -1.85505 0
M  V30 3739 H 353.718 2.53505 -3.06562 0
M  V30 3740 H 350.457 2.49181 -6.06291 0
M  V30 3741 H 349.977 3.62487 -4.77873 0
M  V30 3742 H 351.656 3.60474 -5.37278 0
M  V30 3743 N 351.788 1.33704 0.83433 0
M  V30 3744 C 352.698 1.26382 1.97648 0
M  V30 3745 C 353.714 0.173548 1.73132 0
M  V30 3746 O 354.89 0.397962 1.97429 0
M  V30 3747 C 351.955 1.00769 3.31733 0
M  V30 3748 C 351.016 2.1884 3.69334 0
M  V30 3749 C 350.249 1.9444 4.9702 0
M  V30 3750 O 350.472 0.896961 5.63303 0
M  V30 3751 O 349.406 2.81093 5.32231 0
M  V30 3752 H 353.232 2.22444 2.06767 0
M  V30 3753 H 350.817 1.13795 0.968037 0
M  V30 3754 H 352.699 0.882186 4.12062 0
M  V30 3755 H 351.374 0.0773783 3.23608 0
M  V30 3756 H 350.281 2.36946 2.89495 0
M  V30 3757 H 351.614 3.10221 3.82131 0
M  V30 3758 N 353.266 -1.05314 1.17247 0
M  V30 3759 C 354.682 -1.30452 0.919473 0
M  V30 3760 C 354.882 -1.9703 -0.42209 0
M  V30 3761 O 353.938 -2.24311 -1.15935 0
M  V30 3762 C 355.251 -2.17551 2.07586 0
M  V30 3763 C 356.799 -2.30937 2.11275 0
M  V30 3764 C 357.274 -3.21396 3.26296 0
M  V30 3765 N 358.765 -3.28981 3.26076 0
M  V30 3766 C 359.5 -3.99095 4.11716 0
M  V30 3767 N 358.996 -4.71648 5.07465 0
M  V30 3768 N 360.789 -3.95247 3.9967 0
M  V30 3769 H 352.94 -0.604988 2.03602 0
M  V30 3770 H 355.203 -0.329368 0.888944 0
M  V30 3771 H 354.909 -1.75921 3.0454 0
M  V30 3772 H 354.783 -3.18182 2.02584 0
M  V30 3773 H 357.17 -2.71809 1.14907 0
M  V30 3774 H 357.251 -1.2994 2.20339 0
M  V30 3775 H 356.895 -2.81238 4.22927 0
M  V30 3776 H 356.825 -4.22395 3.14467 0
M  V30 3777 H 359.316 -2.77286 2.5675 0
M  V30 3778 H 359.629 -5.22705 5.6921 0
M  V30 3779 H 357.974 -4.70594 5.11435 0
M  V30 3780 H 361.165 -3.37691 3.24164 0
M  V30 3781 H 361.338 -4.4962 4.66632 0
M  V30 3782 N 354.744 -0.972509 -1.24016 0
M  V30 3783 C 355.969 -0.654417 -1.96805 0
M  V30 3784 C 356.394 0.770398 -1.716 0
M  V30 3785 O 355.752 1.52361 -0.982647 0
M  V30 3786 C 355.8 -0.941031 -3.48105 0
M  V30 3787 O 354.904 -0.0289472 -4.1239 0
M  V30 3788 H 354.245 -0.24692 -0.616382 0
M  V30 3789 H 356.775 -1.30396 -1.57664 0
M  V30 3790 H 356.785 -0.87452 -3.98517 0
M  V30 3791 H 355.46 -1.97939 -3.65777 0
M  V30 3792 H 354.037 -0.149192 -3.72601 0
M  V30 3793 N 356.222 1.38976 -0.743202 0
M  V30 3794 C 357.447 2.05161 -0.303936 0
M  V30 3795 C 357.872 1.55677 1.05576 0
M  V30 3796 O 357.23 0.704131 1.67068 0
M  V30 3797 C 357.278 3.59138 -0.324373 0
M  V30 3798 O 356.382 4.06668 0.685204 0
M  V30 3799 H 355.723 0.649815 -0.136518 0
M  V30 3800 H 358.253 1.77852 -1.01142 0
M  V30 3801 H 358.263 4.07639 -0.171618 0
M  V30 3802 H 356.938 3.94515 -1.31647 0
M  V30 3803 H 355.515 3.69561 0.497913 0
M  V30 3804 N 357.7 0.491464 1.49741 0
M  V30 3805 C 358.663 -0.280906 2.27472 0
M  V30 3806 C 359.663 -0.902454 1.33088 0
M  V30 3807 O 360.853 -0.768465 1.56334 0
M  V30 3808 C 357.985 -1.40209 3.10732 0
M  V30 3809 H 359.178 0.401056 2.97206 0
M  V30 3810 H 356.731 0.246131 1.5435 0
M  V30 3811 H 357.466 -2.11849 2.45541 0
M  V30 3812 H 357.251 -0.961969 3.80117 0
M  V30 3813 H 358.741 -1.9464 3.69466 0
M  V30 3814 N 359.178 -1.55987 0.224894 0
M  V30 3815 C 360.594 -1.59066 -0.130426 0
M  V30 3816 C 360.794 -1.24176 -1.5869 0
M  V30 3817 O 359.85 -0.978592 -2.32766 0
M  V30 3818 C 361.163 -3.00042 0.198883 0
M  V30 3819 C 362.711 -3.1268 0.141391 0
M  V30 3820 C 363.186 -4.55839 0.444422 0
M  V30 3821 N 364.677 -4.6152 0.394115 0
M  V30 3822 C 365.412 -5.70231 0.602038 0
M  V30 3823 N 364.908 -6.87291 0.871914 0
M  V30 3824 N 366.701 -5.59555 0.534245 0
M  V30 3825 H 358.852 -1.76941 1.17497 0
M  V30 3826 H 361.115 -0.822604 0.471197 0
M  V30 3827 H 360.821 -3.30234 1.2099 0
M  V30 3828 H 360.695 -3.74075 -0.484535 0
M  V30 3829 H 363.082 -2.82283 -0.860265 0
M  V30 3830 H 363.163 -2.40969 0.858335 0
M  V30 3831 H 362.807 -4.86954 1.44353 0
M  V30 3832 H 362.737 -5.2578 -0.293752 0
M  V30 3833 H 365.228 -3.77405 0.193356 0
M  V30 3834 H 365.541 -7.66058 1.01858 0
M  V30 3835 H 363.886 -6.89028 0.909145 0
M  V30 3836 H 367.077 -4.6698 0.323612 0
M  V30 3837 H 367.25 -6.44211 0.699693 0
M  V30 3838 N 360.656 0.0484629 -1.57525 0
M  V30 3839 C 361.881 0.759177 -1.93006 0
M  V30 3840 C 362.306 1.69125 -0.823317 0
M  V30 3841 O 361.664 1.79931 0.222364 0
M  V30 3842 C 361.712 1.50899 -3.27509 0
M  V30 3843 O 360.816 2.62112 -3.18388 0
M  V30 3844 H 360.157 0.205564 -0.631379 0
M  V30 3845 H 362.687 0.00972959 -2.04598 0
M  V30 3846 H 362.697 1.88317 -3.6194 0
M  V30 3847 H 361.372 0.825269 -4.0763 0
M  V30 3848 H 359.949 2.27379 -2.95556 0
M  V30 3849 N 362.134 1.5431 0.320358 0
M  V30 3850 C 363.359 1.76954 1.08175 0
M  V30 3851 C 363.784 0.518193 1.80821 0
M  V30 3852 O 363.142 -0.530411 1.73368 0
M  V30 3853 C 363.19 2.96451 2.05303 0
M  V30 3854 O 362.294 2.68221 3.13259 0
M  V30 3855 H 361.635 0.586275 0.311733 0
M  V30 3856 H 364.165 2.01342 0.363676 0
M  V30 3857 H 364.175 3.23887 2.48116 0
M  V30 3858 H 362.85 3.87196 1.51829 0
M  V30 3859 H 361.427 2.51744 2.75099 0
M  V30 3860 N 363.613 -0.582584 1.46437 0
M  V30 3861 C 364.862 -1.337 1.5102 0
M  V30 3862 C 365.175 -1.94891 0.166359 0
M  V30 3863 O 366.381 -2.71351 0.0899954 0
M  V30 3864 C 364.837 -2.42315 2.66104 0
M  V30 3865 C 364.445 -1.87427 4.06909 0
M  V30 3866 C 366.189 -3.19099 2.79958 0
M  V30 3867 C 364.096 -2.93672 5.13333 0
M  V30 3868 H 363.026 -0.502619 0.562041 0
M  V30 3869 H 365.677 -0.621701 1.72647 0
M  V30 3870 H 364.059 -3.16645 2.37807 0
M  V30 3871 H 365.233 -1.19639 4.44998 0
M  V30 3872 H 363.548 -1.2331 3.97723 0
M  V30 3873 H 366.145 -3.9839 3.56636 0
M  V30 3874 H 366.488 -3.71695 1.87479 0
M  V30 3875 H 367.021 -2.51875 3.07902 0
M  V30 3876 H 363.76 -2.45962 6.07604 0
M  V30 3877 H 363.28 -3.59948 4.79789 0
M  V30 3878 H 364.959 -3.5762 5.39182 0
M  V30 3879 N 365.091 -1.34144 -0.827227 0
M  V30 3880 C 366.054 -1.25264 -1.91942 0
M  V30 3881 C 367.054 -0.168866 -1.59911 0
M  V30 3882 O 368.244 -0.421198 -1.69031 0
M  V30 3883 C 365.376 -0.932952 -3.27885 0
M  V30 3884 H 366.569 -2.22357 -2.0124 0
M  V30 3885 H 364.122 -1.1837 -1.0207 0
M  V30 3886 H 364.857 0.0349917 -3.24281 0
M  V30 3887 H 364.642 -1.71682 -3.52516 0
M  V30 3888 H 366.132 -0.895874 -4.07877 0
M  V30 3889 N 366.569 1.04691 -1.17803 0
M  V30 3890 C 367.479 2.16057 -0.914151 0
M  V30 3891 C 368.495 1.73589 0.119503 0
M  V30 3892 O 369.671 2.01308 -0.0609468 0
M  V30 3893 C 366.736 3.4394 -0.436603 0
M  V30 3894 C 365.797 4.00825 -1.53746 0
M  V30 3895 C 365.03 5.22604 -1.0826 0
M  V30 3896 O 365.253 5.70367 0.0612244 0
M  V30 3897 O 364.187 5.7186 -1.87775 0
M  V30 3898 H 368.013 2.41169 -1.84584 0
M  V30 3899 H 365.598 1.1453 -0.959334 0
M  V30 3900 H 367.48 4.21024 -0.178057 0
M  V30 3901 H 366.155 3.20316 0.466869 0
M  V30 3902 H 365.062 3.25158 -1.84995 0
M  V30 3903 H 366.395 4.28778 -2.41683 0
M  V30 3904 N 368.047 0.979072 1.23499 0
M  V30 3905 C 369.293 0.648178 1.92163 0
M  V30 3906 C 369.626 -0.816049 1.76222 0
M  V30 3907 O 368.901 -1.58849 1.12237 0
M  V30 3908 C 369.184 1.03773 3.44824 0
M  V30 3909 C 369.037 2.55948 3.69879 0
M  V30 3910 C 370.356 0.580653 4.36253 0
M  V30 3911 H 367.475 0.236952 0.69787 0
M  V30 3912 H 370.117 1.22012 1.45647 0
M  V30 3913 H 368.267 0.551058 3.84572 0
M  V30 3914 H 369.939 3.12179 3.3962 0
M  V30 3915 H 368.182 2.98641 3.14636 0
M  V30 3916 H 368.853 2.78255 4.76737 0
M  V30 3917 H 371.329 0.998465 4.03943 0
M  V30 3918 H 370.205 0.881663 5.41773 0
M  V30 3919 H 370.466 -0.519052 4.39042 0
M  V30 3920 N 369.525 -1.3858 0.750561 0
M  V30 3921 C 370.457 -2.29057 0.0810714 0
M  V30 3922 C 371.47 -1.47596 -0.686973 0
M  V30 3923 O 372.659 -1.70495 -0.528563 0
M  V30 3924 C 369.759 -3.26475 -0.909247 0
M  V30 3925 C 368.932 -4.36945 -0.199478 0
M  V30 3926 C 367.991 -5.14572 -1.10011 0
M  V30 3927 O 367.017 -5.66321 -0.57177 0
M  V30 3928 N 368.219 -5.27262 -2.42849 0
M  V30 3929 H 370.984 -2.87153 0.858087 0
M  V30 3930 H 368.545 -1.50328 0.60109 0
M  V30 3931 H 370.537 -3.75285 -1.51471 0
M  V30 3932 H 369.107 -2.69298 -1.58736 0
M  V30 3933 H 368.327 -3.8981 0.586664 0
M  V30 3934 H 369.615 -5.07963 0.291783 0
M  V30 3935 H 369.013 -4.86763 -2.88233 0
M  V30 3936 H 367.57 -5.79456 -2.98453 0
M  V30 3937 N 371.003 -0.499398 -1.49478 0
M  V30 3938 C 372.228 0.044722 -2.07352 0
M  V30 3939 C 372.653 1.30207 -1.35749 0
M  V30 3940 O 372.011 1.76516 -0.413732 0
M  V30 3941 C 372.059 0.283013 -3.59488 0
M  V30 3942 O 371.163 1.35804 -3.89398 0
M  V30 3943 H 370.504 -0.0255147 -0.66351 0
M  V30 3944 H 373.034 -0.698561 -1.92305 0
M  V30 3945 H 373.044 0.515007 -4.04737 0
M  V30 3946 H 371.719 -0.635636 -4.11014 0
M  V30 3947 H 370.296 1.11113 -3.55961 0
M  V30 3948 N 372.481 1.55866 -0.233164 0
M  V30 3949 C 373.391 2.24431 0.683217 0
M  V30 3950 C 374.407 1.2558 1.2044 0
M  V30 3951 O 375.583 1.58422 1.24356 0
M  V30 3952 C 372.648 2.91979 1.86947 0
M  V30 3953 C 371.709 4.06204 1.38912 0
M  V30 3954 C 370.942 4.70522 2.51883 0
M  V30 3955 O 371.165 4.33865 3.70293 0
M  V30 3956 O 370.099 5.59296 2.22423 0
M  V30 3957 H 373.925 3.03426 0.129059 0
M  V30 3958 H 371.51 1.494 -0.0022283 0
M  V30 3959 H 373.392 3.34573 2.56201 0
M  V30 3960 H 372.067 2.15935 2.41151 0
M  V30 3961 H 370.974 3.68155 0.664259 0
M  V30 3962 H 372.307 4.84025 0.893328 0
M  V30 3963 N 373.959 -0.0401083 1.57549 0
M  V30 3964 C 375.208 -0.732108 1.87944 0
M  V30 3965 C 375.521 -1.77107 0.830206 0
M  V30 3966 O 376.727 -2.51488 1.02302 0
M  V30 3967 C 375.183 -1.35315 3.33494 0
M  V30 3968 C 374.791 -0.351105 4.46622 0
M  V30 3969 C 376.535 -2.02566 3.73051 0
M  V30 3970 C 374.442 -0.979859 5.83226 0
M  V30 3971 H 373.372 -0.277188 0.701201 0
M  V30 3972 H 376.023 0.0138501 1.83495 0
M  V30 3973 H 374.405 -2.14844 3.32653 0
M  V30 3974 H 375.579 0.416674 4.58912 0
M  V30 3975 H 373.894 0.218708 4.15825 0
M  V30 3976 H 376.491 -2.50441 4.72423 0
M  V30 3977 H 376.834 -2.83904 3.04474 0
M  V30 3978 H 377.367 -1.29827 3.76018 0
M  V30 3979 H 374.106 -0.206135 6.55176 0
M  V30 3980 H 373.626 -1.71774 5.74677 0
M  V30 3981 H 375.305 -1.49046 6.29599 0
M  V30 3982 N 375.437 -1.54477 -0.31217 0
M  V30 3983 C 376.347 -1.87695 -1.4074 0
M  V30 3984 C 377.363 -0.769975 -1.56036 0
M  V30 3985 O 378.539 -1.06537 -1.70915 0
M  V30 3986 C 375.604 -2.10755 -2.75287 0
M  V30 3987 C 374.665 -3.34514 -2.69071 0
M  V30 3988 C 373.898 -3.56465 -3.97201 0
M  V30 3989 O 374.121 -2.81637 -4.96021 0
M  V30 3990 O 373.055 -4.49964 -3.9977 0
M  V30 3991 H 376.881 -2.80849 -1.15574 0
M  V30 3992 H 374.466 -1.40526 -0.507228 0
M  V30 3993 H 376.348 -2.27188 -3.54913 0
M  V30 3994 H 375.023 -1.20788 -3.0032 0
M  V30 3995 H 373.93 -3.23456 -1.87955 0
M  V30 3996 H 375.263 -4.24575 -2.48992 0
M  V30 3997 N 376.915 0.57481 -1.46744 0
M  V30 3998 C 378.331 0.898981 -1.31873 0
M  V30 3999 C 378.531 1.99313 -0.29605 0
M  V30 4000 O 377.587 2.50728 0.298621 0
M  V30 4001 C 378.9 1.30886 -2.7072 0
M  V30 4002 C 380.448 1.42127 -2.78871 0
M  V30 4003 C 380.923 1.86478 -4.18318 0
M  V30 4004 N 382.414 1.93658 -4.20774 0
M  V30 4005 C 383.149 2.29267 -5.2557 0
M  V30 4006 N 382.645 2.63612 -6.40688 0
M  V30 4007 N 384.438 2.29889 -5.1294 0
M  V30 4008 H 376.589 -0.147839 -2.11885 0
M  V30 4009 H 378.852 -0.00347013 -0.947994 0
M  V30 4010 H 378.558 0.578853 -3.46904 0
M  V30 4011 H 378.432 2.26874 -3.01343 0
M  V30 4012 H 380.819 2.14213 -2.0297 0
M  V30 4013 H 380.9 0.443705 -2.51922 0
M  V30 4014 H 380.544 1.14968 -4.94717 0
M  V30 4015 H 380.474 2.85207 -4.42679 0
M  V30 4016 H 382.965 1.69574 -3.37718 0
M  V30 4017 H 383.278 2.89759 -7.16421 0
M  V30 4018 H 381.623 2.61232 -6.44036 0
M  V30 4019 H 384.814 2.02485 -4.22039 0
M  V30 4020 H 384.987 2.57312 -5.94722 0
M  V30 4021 N 378.394 1.34581 0.820102 0
M  V30 4022 C 379.643 1.26437 1.57151 0
M  V30 4023 C 379.956 -0.163111 1.94919 0
M  V30 4024 O 381.162 -0.366722 2.69012 0
M  V30 4025 C 379.618 2.21658 2.83541 0
M  V30 4026 C 379.226 3.69679 2.53065 0
M  V30 4027 C 380.97 2.22428 3.61561 0
M  V30 4028 C 378.877 4.56761 3.75664 0
M  V30 4029 H 377.807 0.469707 0.589823 0
M  V30 4030 H 380.458 1.59763 0.902656 0
M  V30 4031 H 378.84 1.81287 3.52067 0
M  V30 4032 H 380.014 4.18605 1.92631 0
M  V30 4033 H 378.329 3.71384 1.88316 0
M  V30 4034 H 380.926 2.8471 4.52597 0
M  V30 4035 H 381.269 1.22434 3.97889 0
M  V30 4036 H 381.802 2.61259 2.99981 0
M  V30 4037 H 378.541 5.57702 3.44454 0
M  V30 4038 H 378.061 4.12568 4.35371 0
M  V30 4039 H 379.74 4.71509 4.43044 0
M  V30 4040 N 379.872 -1.04064 1.18357 0
M  V30 4041 C 381.119 -1.77265 0.978947 0
M  V30 4042 C 381.447 -1.88189 -0.491428 0
M  V30 4043 O 380.702 -1.38653 -1.38108 0
M  V30 4044 C 381.001 -3.20634 1.57888 0
M  V30 4045 C 380.667 -3.29743 3.07539 0
M  V30 4046 C 379.329 -3.31937 3.48384 0
M  V30 4047 C 381.681 -3.29841 4.03552 0
M  V30 4048 C 379.009 -3.3187 4.83818 0
M  V30 4049 C 381.361 -3.31313 5.38901 0
M  V30 4050 C 380.025 -3.31799 5.79194 0
M  V30 4051 H 379.295 -0.648659 0.358222 0
M  V30 4052 H 381.942 -1.22225 1.47422 0
M  V30 4053 H 380.247 -3.78675 1.00561 0
M  V30 4054 H 381.944 -3.75917 1.39598 0
M  V30 4055 H 378.534 -3.28757 2.74986 0
M  V30 4056 H 382.718 -3.27337 3.73047 0
M  V30 4057 H 377.974 -3.30562 5.14333 0
M  V30 4058 H 382.148 -3.30338 6.13066 0
M  V30 4059 H 379.775 -3.315 6.84114 0
M  V30 4060 N 381.35 -0.985608 -1.22978 0
M  V30 4061 C 382.26 -0.538548 -2.28335 0
M  V30 4062 C 383.276 0.409163 -1.69121 0
M  V30 4063 O 384.452 0.277797 -1.99475 0
M  V30 4064 C 381.517 0.146867 -3.46389 0
M  V30 4065 C 380.578 -0.842896 -4.20944 0
M  V30 4066 C 379.811 -0.190095 -5.33361 0
M  V30 4067 O 380.034 1.01767 -5.61248 0
M  V30 4068 O 378.968 -0.891289 -5.95264 0
M  V30 4069 H 382.794 -1.41487 -2.68729 0
M  V30 4070 H 380.379 -0.753495 -1.29007 0
M  V30 4071 H 382.261 0.531125 -4.1804 0
M  V30 4072 H 380.936 0.997871 -3.07935 0
M  V30 4073 H 379.843 -1.27795 -3.51595 0
M  V30 4074 H 381.176 -1.66287 -4.6326 0
M  V30 4075 N 382.828 1.3818 -0.7579 0
M  V30 4076 C 383.758 2.33027 -0.148597 0
M  V30 4077 C 384.739 1.55085 0.69875 0
M  V30 4078 O 385.924 1.83384 0.639053 0
M  V30 4079 C 383.054 3.3928 0.742034 0
M  V30 4080 C 382.008 4.28 -0.00291946 0
M  V30 4081 C 381.334 5.25146 1.00625 0
M  V30 4082 C 382.634 5.08938 -1.17385 0
M  V30 4083 H 384.328 2.84231 -0.940909 0
M  V30 4084 H 381.874 1.36659 -0.453908 0
M  V30 4085 H 383.827 4.046 1.17799 0
M  V30 4086 H 382.551 2.86569 1.56671 0
M  V30 4087 H 381.21 3.64192 -0.419504 0
M  V30 4088 H 380.858 4.68721 1.8251 0
M  V30 4089 H 380.558 5.85361 0.512428 0
M  V30 4090 H 382.082 5.93342 1.44143 0
M  V30 4091 H 383.496 5.67474 -0.815224 0
M  V30 4092 H 381.893 5.7841 -1.59882 0
M  V30 4093 H 382.963 4.42424 -1.98468 0
M  V30 4094 N 384.306 0.507319 1.49211 0
M  V30 4095 C 385.269 -0.256763 2.27757 0
M  V30 4096 C 386.269 -0.888287 1.34038 0
M  V30 4097 O 387.459 -0.751841 1.5714 0
M  V30 4098 C 384.591 -1.36905 3.12202 0
M  V30 4099 H 385.784 0.432557 2.96764 0
M  V30 4100 H 383.337 0.262488 1.5408 0
M  V30 4101 H 384.072 -2.09233 2.47775 0
M  V30 4102 H 383.857 -0.921599 3.81115 0
M  V30 4103 H 385.347 -1.9071 3.7151 0
M  V30 4104 N 385.784 -1.5574 0.241426 0
M  V30 4105 C 386.731 -2.21149 -0.660432 0
M  V30 4106 C 387.701 -1.17356 -1.17545 0
M  V30 4107 O 388.886 -1.45784 -1.23093 0
M  V30 4108 C 386.026 -2.91059 -1.85414 0
M  V30 4109 C 385.139 -4.09495 -1.37616 0
M  V30 4110 C 384.274 -4.67135 -2.529 0
M  V30 4111 C 383.313 -5.77831 -2.01936 0
M  V30 4112 N 382.45 -6.29677 -3.10566 0
M  V30 4113 H 387.29 -2.97845 -0.095955 0
M  V30 4114 H 384.827 -1.47057 -0.0356024 0
M  V30 4115 H 386.785 -3.29788 -2.5553 0
M  V30 4116 H 385.415 -2.16846 -2.39118 0
M  V30 4117 H 384.467 -3.76117 -0.569235 0
M  V30 4118 H 385.779 -4.89423 -0.962618 0
M  V30 4119 H 384.933 -5.08409 -3.31067 0
M  V30 4120 H 383.672 -3.86411 -2.97553 0
M  V30 4121 H 382.677 -5.36039 -1.22238 0
M  V30 4122 H 383.902 -6.60402 -1.58259 0
M  V30 4123 H 381.848 -5.5186 -3.54664 0
M  V30 4124 H 381.765 -7.04783 -2.73526 0
M  V30 4125 H 383.033 -6.75609 -3.88809 0
M  V30 4126 N 387.262 0.0317525 -1.57568 0
M  V30 4127 C 388.487 0.738664 -1.938 0
M  V30 4128 C 388.912 1.68242 -0.841208 0
M  V30 4129 O 388.27 1.80157 0.203267 0
M  V30 4130 C 388.318 1.47417 -3.29091 0
M  V30 4131 O 387.422 2.5872 -3.2115 0
M  V30 4132 H 386.763 0.198856 -0.633524 0
M  V30 4133 H 389.293 -0.0119713 -2.04596 0
M  V30 4134 H 389.303 1.84468 -3.63917 0
M  V30 4135 H 387.978 0.781988 -4.08482 0
M  V30 4136 H 386.555 2.24231 -2.97951 0
M  V30 4137 N 388.74 1.54641 0.303973 0
M  V30 4138 C 389.67 1.88386 1.3796 0
M  V30 4139 C 390.651 0.742485 1.5304 0
M  V30 4140 O 391.836 0.997959 1.66597 0
M  V30 4141 C 388.966 2.12854 2.74427 0
M  V30 4142 C 387.92 3.28702 2.74115 0
M  V30 4143 C 387.246 3.38582 4.13844 0
M  V30 4144 C 388.546 4.65881 2.3612 0
M  V30 4145 H 390.24 2.78474 1.09966 0
M  V30 4146 H 387.786 1.33988 0.527556 0
M  V30 4147 H 389.739 2.35047 3.49758 0
M  V30 4148 H 388.463 1.19535 3.03939 0
M  V30 4149 H 387.122 3.06428 2.0124 0
M  V30 4150 H 386.77 2.42784 4.40528 0
M  V30 4151 H 386.47 4.16453 4.14537 0
M  V30 4152 H 387.994 3.63031 4.90959 0
M  V30 4153 H 389.408 4.87823 3.01167 0
M  V30 4154 H 387.805 5.46444 2.48031 0
M  V30 4155 H 388.875 4.66799 1.3125 0
M  V30 4156 N 390.218 -0.567019 1.47046 0
M  V30 4157 C 391.15 -1.68985 1.54844 0
M  V30 4158 C 392.163 -1.56869 0.435431 0
M  V30 4159 O 393.352 -1.64006 0.70457 0
M  V30 4160 C 390.452 -3.07373 1.42742 0
M  V30 4161 C 389.625 -3.45339 2.6844 0
M  V30 4162 C 388.684 -4.62849 2.50314 0
M  V30 4163 O 387.71 -4.67922 3.24095 0
M  V30 4164 N 388.912 -5.58726 1.57499 0
M  V30 4165 H 391.677 -1.62745 2.51663 0
M  V30 4166 H 389.238 -0.753411 1.43302 0
M  V30 4167 H 391.23 -3.83803 1.28365 0
M  V30 4168 H 389.8 -3.07893 0.540445 0
M  V30 4169 H 389.02 -2.58455 2.97648 0
M  V30 4170 H 390.308 -3.67476 3.51907 0
M  V30 4171 H 389.706 -5.57376 0.966876 0
M  V30 4172 H 388.263 -6.34523 1.49078 0
M  V30 4173 N 391.696 -1.35014 -0.812953 0
M  V30 4174 C 392.626 -1.30069 -1.93919 0
M  V30 4175 C 393.607 -0.176275 -1.69184 0
M  V30 4176 O 394.792 -0.370227 -1.90638 0
M  V30 4177 C 391.922 -1.06547 -3.30552 0
M  V30 4178 C 390.876 -2.15561 -3.69753 0
M  V30 4179 C 390.202 -1.77214 -5.04479 0
M  V30 4180 C 391.502 -3.57476 -3.808 0
M  V30 4181 H 393.196 -2.24303 -1.98314 0
M  V30 4182 H 390.742 -1.07977 -0.952736 0
M  V30 4183 H 392.695 -1.01729 -4.08937 0
M  V30 4184 H 391.419 -0.0875719 -3.26483 0
M  V30 4185 H 390.078 -2.19466 -2.9365 0
M  V30 4186 H 389.726 -0.780589 -4.96906 0
M  V30 4187 H 389.426 -2.50184 -5.31678 0
M  V30 4188 H 390.95 -1.7391 -5.8531 0
M  V30 4189 H 392.364 -3.55929 -4.4943 0
M  V30 4190 H 390.761 -4.29152 -4.19462 0
M  V30 4191 H 391.831 -3.94091 -2.82525 0
M  V30 4192 N 393.175 1.03435 -1.18907 0
M  V30 4193 C 394.421 1.77005 -0.989798 0
M  V30 4194 C 394.754 1.88205 0.478816 0
M  V30 4195 O 394.029 1.39481 1.35556 0
M  V30 4196 C 394.312 3.19925 -1.65287 0
M  V30 4197 C 394.165 3.1663 -3.19477 0
M  V30 4198 C 395.484 4.18189 -1.37134 0
M  V30 4199 H 392.603 0.642538 -0.360991 0
M  V30 4200 H 395.245 1.20784 -1.46667 0
M  V30 4201 H 393.395 3.67929 -1.24741 0
M  V30 4202 H 395.067 2.76567 -3.692 0
M  V30 4203 H 393.31 2.54491 -3.51307 0
M  V30 4204 H 393.981 4.1758 -3.61013 0
M  V30 4205 H 396.457 3.78761 -1.72276 0
M  V30 4206 H 395.333 5.16394 -1.86087 0
M  V30 4207 H 395.594 4.41112 -0.295424 0
M  V30 4208 N 394.653 0.992116 1.22453 0
M  V30 4209 C 395.899 0.668523 1.91464 0
M  V30 4210 C 396.232 -0.797313 1.77078 0
M  V30 4211 O 395.507 -1.5765 1.13916 0
M  V30 4212 C 395.79 1.07424 3.43703 0
M  V30 4213 C 395.643 2.59857 3.67143 0
M  V30 4214 C 396.962 0.626891 4.35612 0
M  V30 4215 H 394.081 0.244341 0.695318 0
M  V30 4216 H 396.723 1.2355 1.44345 0
M  V30 4217 H 394.873 0.591816 3.83966 0
M  V30 4218 H 396.545 3.15764 3.3629 0
M  V30 4219 H 394.788 3.01961 3.11451 0
M  V30 4220 H 395.459 2.83296 4.73759 0
M  V30 4221 H 397.935 1.04125 4.02861 0
M  V30 4222 H 396.811 0.939076 5.40807 0
M  V30 4223 H 397.072 -0.472457 4.39568 0
M  V30 4224 N 396.131 -1.37776 0.765217 0
M  V30 4225 C 397.061 -2.32945 0.160953 0
M  V30 4226 C 398.042 -1.55454 -0.690516 0
M  V30 4227 O 399.227 -1.83721 -0.629318 0
M  V30 4228 C 396.357 -3.39669 -0.724031 0
M  V30 4229 C 395.311 -4.27992 0.0256173 0
M  V30 4230 C 394.637 -5.25673 -0.978383 0
M  V30 4231 C 395.937 -5.08309 1.20082 0
M  V30 4232 H 397.631 -2.83728 0.955969 0
M  V30 4233 H 395.177 -1.36416 0.461149 0
M  V30 4234 H 397.13 -4.05219 -1.15652 0
M  V30 4235 H 395.854 -2.87396 -1.5515 0
M  V30 4236 H 394.513 -3.63964 0.438812 0
M  V30 4237 H 394.161 -4.69682 -1.80022 0
M  V30 4238 H 393.861 -5.85625 -0.481378 0
M  V30 4239 H 395.385 -5.94098 -1.40995 0
M  V30 4240 H 396.799 -5.67034 0.845307 0
M  V30 4241 H 395.196 -5.77554 1.62947 0
M  V30 4242 H 396.266 -4.41365 2.00811 0
M  V30 4243 N 397.609 -0.515225 -1.4894 0
M  V30 4244 C 398.886 0.0879088 -1.95402 0
M  V30 4245 C 399.266 1.52745 -1.45712 0
M  V30 4246 O 398.614 2.18238 -0.677093 0
M  V30 4247 C 398.824 -0.0141055 -3.48997 0
M  V30 4248 C 400.172 0.152646 -4.24326 0
M  V30 4249 O 401.196 0.0604025 -3.56149 0
M  V30 4250 O 400.055 0.34384 -5.45417 0
M  V30 4251 H 397.149 0.0874636 -0.822362 0
M  V30 4252 H 399.695 -0.578775 -1.59525 0
M  V30 4253 H 398.467 -1.01745 -3.77841 0
M  V30 4254 H 398.09 0.692091 -3.9153 0
M  V30 4255 N 399.087 1.5561 -0.249682 0
M  V30 4256 C 400.05 2.20217 0.635394 0
M  V30 4257 C 401.05 1.17227 1.10066 0
M  V30 4258 O 402.24 1.42292 1.00492 0
M  V30 4259 C 399.372 2.84794 1.87363 0
M  V30 4260 H 400.565 2.99814 0.0716752 0
M  V30 4261 H 398.118 1.563 -0.000153234 0
M  V30 4262 H 398.853 2.09142 2.47851 0
M  V30 4263 H 398.638 3.60241 1.5482 0
M  V30 4264 H 400.128 3.3423 2.5036 0
M  V30 4265 N 400.565 -0.0233959 1.57583 0
M  V30 4266 C 401.842 -0.748794 1.807 0
M  V30 4267 C 402.222 -1.9327 0.849106 0
M  V30 4268 O 401.57 -2.28247 -0.107468 0
M  V30 4269 C 401.78 -1.17651 3.28571 0
M  V30 4270 C 403.128 -1.59008 3.93702 0
M  V30 4271 O 404.152 -1.27094 3.32755 0
M  V30 4272 O 403.011 -2.18264 5.01022 0
M  V30 4273 H 400.105 -0.362578 0.743281 0
M  V30 4274 H 402.651 0.000261958 1.697 0
M  V30 4275 H 401.423 -0.331603 3.89892 0
M  V30 4276 H 401.046 -1.98541 3.44481 0
M  V30 4277 N 402.043 -1.548 -0.295768 0
M  V30 4278 C 403.271 -1.78327 -1.04914 0
M  V30 4279 C 403.686 -0.545316 -1.80753 0
M  V30 4280 O 403.043 0.485013 -1.75937 0
M  V30 4281 C 403.094 -2.99418 -2.02561 0
M  V30 4282 O 402.815 -4.18431 -1.29798 0
M  V30 4283 C 404.316 -3.35375 -2.89895 0
M  V30 4284 H 401.536 -0.594618 -0.310918 0
M  V30 4285 H 404.08 -2.01763 -0.333454 0
M  V30 4286 H 402.235 -2.78175 -2.69624 0
M  V30 4287 H 402.649 -4.86736 -1.95419 0
M  V30 4288 H 404.123 -4.23332 -3.54251 0
M  V30 4289 H 404.6 -2.53761 -3.58472 0
M  V30 4290 H 405.206 -3.58796 -2.28355 0
M  V30 4291 N 403.521 0.559213 -1.47345 0
M  V30 4292 C 404.77 1.31281 -1.53128 0
M  V30 4293 C 405.083 1.94602 -0.197344 0
M  V30 4294 O 406.289 2.71173 -0.133154 0
M  V30 4295 C 404.745 2.38051 -2.69925 0
M  V30 4296 C 404.353 1.8093 -4.0984 0
M  V30 4297 C 406.097 3.14604 -2.84999 0
M  V30 4298 C 404.004 2.85468 -5.1794 0
M  V30 4299 H 402.934 0.493614 -0.569966 0
M  V30 4300 H 405.585 0.594155 -1.73615 0
M  V30 4301 H 403.967 3.12822 -2.42814 0
M  V30 4302 H 405.141 1.12544 -4.46845 0
M  V30 4303 H 403.456 1.16967 -3.99634 0
M  V30 4304 H 406.053 3.92666 -3.62929 0
M  V30 4305 H 406.396 3.68665 -1.93369 0
M  V30 4306 H 406.929 2.46945 -3.1187 0
M  V30 4307 H 403.668 2.36264 -6.1144 0
M  V30 4308 H 403.188 3.52269 -4.85455 0
M  V30 4309 H 404.867 3.48996 -5.44803 0
M  V30 4310 N 404.999 1.35443 0.805782 0
M  V30 4311 C 405.947 1.28465 1.93906 0
M  V30 4312 C 406.941 0.17943 1.68447 0
M  V30 4313 O 408.147 0.345459 1.76654 0
M  V30 4314 H 404.522 0.399528 0.637088 0
M  V30 4315 H 406.493 2.24206 1.96912 0
M  V30 4316 C 405.242 1.07432 3.30687 0
M  V30 4317 H 404.565 1.91716 3.50835 0
M  V30 4318 H 406.005 1.06591 4.10383 0
M  V30 4319 C 404.464 -0.22179 3.36169 0
M  V30 4320 O 404.994 -1.21731 3.82811 0
M  V30 4321 N 403.2 -0.260841 2.89427 0
M  V30 4322 H 402.747 0.549884 2.51663 0
M  V30 4323 H 402.705 -1.12777 2.93477 0
M  V30 4324 N 406.477 -1.02803 1.19454 0
M  V30 4325 C 407.427 -2.0945 0.900827 0
M  V30 4326 C 408.411 -1.60335 -0.134715 0
M  V30 4327 O 409.603 -1.76857 0.0710924 0
M  V30 4328 C 406.732 -3.4044 0.442229 0
M  V30 4329 C 405.818 -3.96286 1.51056 0
M  V30 4330 N 406.209 -4.25785 2.73021 0
M  V30 4331 C 404.507 -4.24307 1.37404 0
M  V30 4332 C 405.208 -4.70654 3.41848 0
M  V30 4333 N 404.184 -4.72238 2.69243 0
M  V30 4334 H 407.986 -2.3015 1.82779 0
M  V30 4335 H 405.5 -1.20672 1.08683 0
M  V30 4336 H 407.497 -4.16354 0.21326 0
M  V30 4337 H 406.157 -3.21159 -0.478238 0
M  V30 4338 H 407.168 -4.15041 3.09776 0
M  V30 4339 H 403.845 -4.14285 0.517103 0
M  V30 4340 H 405.235 -5.02392 4.46152 0
M  V30 4341 N 407.956 -0.998596 -1.21925 0
M  V30 4342 C 409.367 -0.711939 -1.72593 0
M  V30 4343 C 409.718 0.770842 -1.80423 0
M  V30 4344 O 408.843 1.60237 -1.4544 0
M  V30 4345 C 409.438 -1.28567 -3.13458 0
M  V30 4346 C 407.997 -1.04828 -3.61508 0
M  V30 4347 C 407.144 -1.4024 -2.39224 0
M  V30 4348 H 410.095 -1.17027 -1.07193 0
M  V30 4349 H 410.116 -0.667098 -3.74607 0
M  V30 4350 H 409.628 -2.36486 -3.07727 0
M  V30 4351 H 407.729 0.0140383 -3.72597 0
M  V30 4352 H 407.842 -1.71566 -4.47328 0
M  V30 4353 H 406.206 -0.821077 -2.41103 0
M  V30 4354 H 406.989 -2.49176 -2.36149 0
M  V30 4355 N 409.434 1.37368 -0.772513 0
M  V30 4356 C 410.397 2.28601 -0.165541 0
M  V30 4357 C 411.397 1.48062 0.627238 0
M  V30 4358 O 412.587 1.68268 0.450715 0
M  V30 4359 C 409.719 3.32023 0.772897 0
M  V30 4360 H 410.912 2.83787 -0.969787 0
M  V30 4361 H 408.465 1.46647 -0.540775 0
M  V30 4362 H 409.2 2.81962 1.60212 0
M  V30 4363 H 408.985 3.91555 0.206585 0
M  V30 4364 H 410.475 4.00197 1.19298 0
M  V30 4365 N 410.912 0.523116 1.48665 0
M  V30 4366 C 411.844 -0.280421 2.27478 0
M  V30 4367 C 412.857 -0.910694 1.34945 0
M  V30 4368 O 414.046 -0.790295 1.60052 0
M  V30 4369 C 411.146 -1.41171 3.08097 0
M  V30 4370 C 410.319 -0.884642 4.28361 0
M  V30 4371 C 409.378 -1.89622 4.90846 0
M  V30 4372 O 408.404 -1.4559 5.50265 0
M  V30 4373 N 409.606 -3.22801 4.82472 0
M  V30 4374 H 412.371 0.395481 2.97079 0
M  V30 4375 H 409.932 0.357018 1.57915 0
M  V30 4376 H 411.924 -2.08645 3.4677 0
M  V30 4377 H 410.494 -1.99139 2.40961 0
M  V30 4378 H 409.714 -0.0341177 3.94185 0
M  V30 4379 H 411.002 -0.511268 5.06225 0
M  V30 4380 H 410.4 -3.61246 4.35336 0
M  V30 4381 H 408.957 -3.85927 5.25265 0
M  V30 4382 N 412.39 -1.55475 0.257931 0
M  V30 4383 C 413.32 -2.24815 -0.630912 0
M  V30 4384 C 414.301 -1.23224 -1.17259 0
M  V30 4385 O 415.486 -1.51904 -1.20991 0
M  V30 4386 C 412.616 -2.95609 -1.82298 0
M  V30 4387 C 411.57 -4.03982 -1.41359 0
M  V30 4388 C 410.896 -4.6226 -2.68738 0
M  V30 4389 C 412.196 -5.19109 -0.57648 0
M  V30 4390 H 413.89 -2.99354 -0.0526878 0
M  V30 4391 H 411.436 -1.4398 -0.023901 0
M  V30 4392 H 413.389 -3.42822 -2.45054 0
M  V30 4393 H 412.113 -2.18577 -2.42676 0
M  V30 4394 H 410.772 -3.57555 -0.809324 0
M  V30 4395 H 410.42 -3.81915 -3.27338 0
M  V30 4396 H 410.12 -5.35424 -2.42065 0
M  V30 4397 H 411.644 -5.12212 -3.32372 0
M  V30 4398 H 413.058 -5.62479 -1.10861 0
M  V30 4399 H 411.455 -5.98729 -0.405351 0
M  V30 4400 H 412.525 -4.83174 0.408776 0
M  V30 4401 N 413.868 0.0150385 -1.57593 0
M  V30 4402 C 414.831 0.995996 -2.06428 0
M  V30 4403 C 415.831 1.2818 -0.970903 0
M  V30 4404 O 417.021 1.22949 -1.23406 0
M  V30 4405 C 414.153 2.32506 -2.49307 0
M  V30 4406 H 415.346 0.573873 -2.94358 0
M  V30 4407 H 412.899 0.262186 -1.54085 0
M  V30 4408 H 413.634 2.79438 -1.64575 0
M  V30 4409 H 413.419 2.13087 -3.29145 0
M  V30 4410 H 414.909 3.02906 -2.87468 0
M  V30 4411 N 415.346 1.54954 0.287554 0
M  V30 4412 C 416.293 1.86834 1.35505 0
M  V30 4413 C 417.263 0.718452 1.49758 0
M  V30 4414 O 418.448 0.968358 1.644 0
M  V30 4415 C 415.588 2.13303 2.71286 0
M  V30 4416 C 414.701 3.40883 2.65373 0
M  V30 4417 C 413.836 3.57125 3.93236 0
M  V30 4418 C 412.875 4.78449 3.81776 0
M  V30 4419 N 412.012 4.91426 5.01443 0
M  V30 4420 H 416.852 2.77889 1.07619 0
M  V30 4421 H 414.389 1.37593 0.520241 0
M  V30 4422 H 416.347 2.26646 3.50267 0
M  V30 4423 H 414.977 1.25499 2.97405 0
M  V30 4424 H 414.029 3.36088 1.78182 0
M  V30 4425 H 415.341 4.29993 2.52799 0
M  V30 4426 H 414.495 3.70207 4.80658 0
M  V30 4427 H 413.234 2.66173 4.0866 0
M  V30 4428 H 412.239 4.65386 2.92738 0
M  V30 4429 H 413.464 5.70822 3.67884 0
M  V30 4430 H 411.41 4.03401 5.17304 0
M  V30 4431 H 411.327 5.74559 4.91343 0
M  V30 4432 H 412.595 5.08879 5.90477 0
M  V30 4433 N 416.824 -0.551391 1.4764 0
M  V30 4434 C 418.052 -1.33357 1.58189 0
M  V30 4435 C 418.467 -1.87342 0.234199 0
M  V30 4436 O 417.824 -1.65301 -0.77343 0
M  V30 4437 C 417.875 -2.49942 2.61173 0
M  V30 4438 O 417.596 -1.98187 3.90709 0
M  V30 4439 C 419.097 -3.42072 2.8196 0
M  V30 4440 H 416.317 -0.40631 0.533998 0
M  V30 4441 H 418.861 -0.667367 1.93304 0
M  V30 4442 H 417.016 -3.12489 2.28975 0
M  V30 4443 H 417.43 -2.74342 4.47031 0
M  V30 4444 H 418.904 -4.20278 3.57869 0
M  V30 4445 H 419.381 -3.95978 1.89995 0
M  V30 4446 H 419.987 -2.85336 3.15378 0
M  V30 4447 N 418.302 -1.35869 -0.798587 0
M  V30 4448 C 419.527 -1.32883 -1.59238 0
M  V30 4449 C 419.952 0.0894587 -1.87887 0
M  V30 4450 O 419.31 1.05869 -1.47178 0
M  V30 4451 C 419.358 -2.14892 -2.89575 0
M  V30 4452 O 418.462 -1.53512 -3.82763 0
M  V30 4453 H 417.803 -0.455236 -0.48338 0
M  V30 4454 H 420.333 -1.79024 -0.990539 0
M  V30 4455 H 420.343 -2.27139 -3.38928 0
M  V30 4456 H 419.018 -3.17998 -2.68049 0
M  V30 4457 H 417.595 -1.50153 -3.41334 0
M  V30 4458 N 419.78 1.02168 -1.19998 0
M  V30 4459 C 420.71 2.12488 -0.96804 0
M  V30 4460 C 421.691 1.69799 0.101185 0
M  V30 4461 O 422.876 1.94121 -0.0552993 0
M  V30 4462 C 420.006 3.43479 -0.513776 0
M  V30 4463 C 418.96 3.99884 -1.52566 0
M  V30 4464 C 418.286 5.26582 -0.928214 0
M  V30 4465 C 419.586 4.33861 -2.90795 0
M  V30 4466 H 421.28 2.32149 -1.89069 0
M  V30 4467 H 418.826 1.11564 -0.910468 0
M  V30 4468 H 420.779 4.20036 -0.338774 0
M  V30 4469 H 419.503 3.23561 0.444493 0
M  V30 4470 H 418.162 3.25429 -1.68794 0
M  V30 4471 H 417.81 5.02986 0.0378289 0
M  V30 4472 H 417.51 5.65284 -1.60397 0
M  V30 4473 H 419.034 6.05799 -0.764167 0
M  V30 4474 H 420.448 5.01327 -2.78109 0
M  V30 4475 H 418.845 4.83664 -3.55231 0
M  V30 4476 H 419.915 3.42848 -3.42904 0
M  V30 4477 N 421.258 1.00505 1.21394 0
M  V30 4478 C 422.221 0.570459 2.21987 0
M  V30 4479 C 423.221 -0.353211 1.56873 0
M  V30 4480 O 424.411 -0.14349 1.73608 0
M  V30 4481 C 421.543 -0.168555 3.40483 0
M  V30 4482 H 422.736 1.46021 2.6195 0
M  V30 4483 H 420.289 0.793565 1.34656 0
M  V30 4484 H 421.024 -1.07374 3.06009 0
M  V30 4485 H 420.809 0.494823 3.88965 0
M  V30 4486 H 422.299 -0.460362 4.15055 0
M  V30 4487 N 422.737 -1.36956 0.779787 0
M  V30 4488 C 424.148 -1.82094 0.412156 0
M  V30 4489 C 424.499 -1.64926 -1.06273 0
M  V30 4490 O 423.624 -1.16483 -1.82375 0
M  V30 4491 C 424.219 -3.3059 0.741319 0
M  V30 4492 C 422.778 -3.73974 0.426641 0
M  V30 4493 C 421.925 -2.59368 0.980987 0
M  V30 4494 H 424.876 -1.25314 0.973758 0
M  V30 4495 H 424.897 -3.80489 0.028887 0
M  V30 4496 H 424.409 -3.43054 1.81482 0
M  V30 4497 H 422.51 -3.67076 -0.639215 0
M  V30 4498 H 422.623 -4.69778 0.940515 0
M  V30 4499 H 420.987 -2.51463 0.404757 0
M  V30 4500 H 421.77 -2.74621 2.06005 0
M  V30 4501 N 424.215 -0.530993 -1.48385 0
M  V30 4502 C 425.464 0.00474348 -2.01699 0
M  V30 4503 C 425.777 1.35227 -1.41325 0
M  V30 4504 O 426.983 1.97643 -1.86144 0
M  V30 4505 C 425.439 0.0588473 -3.59852 0
M  V30 4506 C 425.047 -1.28385 -4.2921 0
M  V30 4507 C 426.791 0.543358 -4.21008 0
M  V30 4508 C 424.698 -1.19028 -5.79298 0
M  V30 4509 H 423.628 0.00554317 -0.75398 0
M  V30 4510 H 426.279 -0.674924 -1.70637 0
M  V30 4511 H 424.661 0.803612 -3.8776 0
M  V30 4512 H 425.835 -2.04426 -4.12973 0
M  V30 4513 H 424.15 -1.70418 -3.7993 0
M  V30 4514 H 426.747 0.631351 -5.3096 0
M  V30 4515 H 427.09 1.54937 -3.86394 0
M  V30 4516 H 427.623 -0.145754 -3.97533 0
M  V30 4517 H 424.362 -2.17147 -6.18488 0
M  V30 4518 H 423.882 -0.471246 -5.97946 0
M  V30 4519 H 425.561 -0.881365 -6.40969 0
M  V30 4520 N 425.693 1.55336 -0.266172 0
M  V30 4521 C 426.942 1.98574 0.353749 0
M  V30 4522 C 427.255 1.15789 1.57646 0
M  V30 4523 O 428.461 1.49129 2.26876 0
M  V30 4524 C 426.917 3.53403 0.680747 0
M  V30 4525 C 426.525 4.44953 -0.52165 0
M  V30 4526 C 428.269 4.05251 1.26379 0
M  V30 4527 C 426.176 5.91156 -0.169736 0
M  V30 4528 H 425.106 0.741643 0.135949 0
M  V30 4529 H 427.757 1.79743 -0.369421 0
M  V30 4530 H 426.139 3.68001 1.46257 0
M  V30 4531 H 427.313 4.42121 -1.29869 0
M  V30 4532 H 425.628 4.03691 -1.02093 0
M  V30 4533 H 428.225 5.12021 1.54074 0
M  V30 4534 H 428.568 3.53749 2.19471 0
M  V30 4535 H 429.101 3.94057 0.544447 0
M  V30 4536 H 425.84 6.46736 -1.0683 0
M  V30 4537 H 425.36 5.97079 0.570717 0
M  V30 4538 H 427.039 6.4655 0.241245 0
M  V30 4539 N 427.171 -0.0066808 1.57599 0
M  V30 4540 C 428.417 -0.693947 1.90558 0
M  V30 4541 C 428.75 -1.73792 0.866594 0
M  V30 4542 O 428.025 -1.94156 -0.115548 0
M  V30 4543 C 428.308 -1.34317 3.34112 0
M  V30 4544 C 428.161 -0.311189 4.48722 0
M  V30 4545 C 429.48 -2.27116 3.7697 0
M  V30 4546 H 426.599 -0.250803 0.693013 0
M  V30 4547 H 429.241 0.043242 1.89951 0
M  V30 4548 H 427.391 -1.9715 3.3476 0
M  V30 4549 H 429.063 0.316944 4.6021 0
M  V30 4550 H 427.306 0.367253 4.32243 0
M  V30 4551 H 427.977 -0.804366 5.46108 0
M  V30 4552 H 430.453 -1.74306 3.77831 0
M  V30 4553 H 429.329 -2.69511 4.78179 0
M  V30 4554 H 429.59 -3.14743 3.10466 0
M  V30 4555 N 428.649 -1.55105 -0.279332 0
M  V30 4556 C 429.896 -1.75412 -1.01177 0
M  V30 4557 C 430.224 -0.551728 -1.86511 0
M  V30 4558 O 429.479 0.465919 -1.90073 0
M  V30 4559 C 429.778 -3.0086 -1.92919 0
M  V30 4560 C 429.444 -4.33689 -1.23387 0
M  V30 4561 C 428.106 -4.69792 -1.04159 0
M  V30 4562 C 430.458 -5.15941 -0.738562 0
M  V30 4563 C 427.786 -5.85707 -0.341166 0
M  V30 4564 C 430.138 -6.32579 -0.0517636 0
M  V30 4565 C 428.802 -6.67326 0.152292 0
M  V30 4566 H 428.072 -0.641879 -0.370233 0
M  V30 4567 H 430.719 -1.89373 -0.284627 0
M  V30 4568 H 429.024 -2.81773 -2.72234 0
M  V30 4569 H 430.721 -3.13768 -2.49701 0
M  V30 4570 H 427.311 -4.05309 -1.39364 0
M  V30 4571 H 431.495 -4.8853 -0.874764 0
M  V30 4572 H 426.751 -6.11157 -0.172287 0
M  V30 4573 H 430.925 -6.9557 0.339828 0
M  V30 4574 H 428.552 -7.56998 0.697014 0
M  V30 4575 N 430.127 0.543554 -1.4793 0
M  V30 4576 C 431.373 1.30201 -1.55485 0
M  V30 4577 C 431.706 1.92925 -0.222201 0
M  V30 4578 O 430.981 1.78586 0.77053 0
M  V30 4579 C 431.264 2.40174 -2.68307 0
M  V30 4580 C 431.117 1.8223 -4.11233 0
M  V30 4581 C 432.436 3.42024 -2.76961 0
M  V30 4582 H 429.555 0.472036 -0.565996 0
M  V30 4583 H 432.197 0.606914 -1.80046 0
M  V30 4584 H 430.347 2.99463 -2.47495 0
M  V30 4585 H 432.019 1.27096 -4.43446 0
M  V30 4586 H 430.262 1.12832 -4.18869 0
M  V30 4587 H 430.933 2.61793 -4.85972 0
M  V30 4588 H 433.409 2.92672 -2.95774 0
M  V30 4589 H 432.285 4.16383 -3.57654 0
M  V30 4590 H 432.546 4.0173 -1.84568 0
M  V30 4591 N 431.605 1.3629 0.791371 0
M  V30 4592 C 432.552 1.30458 1.90393 0
M  V30 4593 C 433.522 0.173632 1.6519 0
M  V30 4594 O 434.707 0.35983 1.87376 0
M  V30 4595 C 431.847 1.09777 3.27174 0
M  V30 4596 C 430.96 2.31929 3.64462 0
M  V30 4597 C 430.095 2.04276 4.90352 0
M  V30 4598 C 429.134 3.224 5.20312 0
M  V30 4599 N 428.271 2.94424 6.37385 0
M  V30 4600 H 433.111 2.25589 1.94714 0
M  V30 4601 H 430.648 1.12122 0.952216 0
M  V30 4602 H 432.606 0.958133 4.06049 0
M  V30 4603 H 431.236 0.183014 3.22281 0
M  V30 4604 H 430.288 2.56703 2.80727 0
M  V30 4605 H 431.6 3.20085 3.82553 0
M  V30 4606 H 430.754 1.87231 5.77087 0
M  V30 4607 H 429.493 1.13428 4.74326 0
M  V30 4608 H 428.498 3.40005 4.32061 0
M  V30 4609 H 429.723 4.14071 5.38258 0
M  V30 4610 H 427.669 2.06185 6.22755 0
M  V30 4611 H 427.586 3.76118 6.55798 0
M  V30 4612 H 428.854 2.80953 7.27108 0
M  V30 4613 N 433.083 -1.0153 1.20538 0
M  V30 4614 C 434.329 -1.75408 1.01783 0
M  V30 4615 C 434.662 -1.88943 -0.448814 0
M  V30 4616 O 433.937 -1.4162 -1.33319 0
M  V30 4617 C 434.22 -3.17255 1.70356 0
M  V30 4618 C 434.073 -3.11508 3.24473 0
M  V30 4619 C 435.392 -4.15955 1.43769 0
M  V30 4620 H 432.511 -0.636713 0.371167 0
M  V30 4621 H 435.153 -1.18436 1.4857 0
M  V30 4622 H 433.303 -3.65898 1.30578 0
M  V30 4623 H 434.975 -2.70658 3.73553 0
M  V30 4624 H 433.218 -2.4887 3.55311 0
M  V30 4625 H 433.889 -4.11784 3.67611 0
M  V30 4626 H 436.365 -3.75973 1.7828 0
M  V30 4627 H 435.241 -5.13368 1.94279 0
M  V30 4628 H 435.502 -4.40586 0.365564 0
M  V30 4629 N 434.561 -1.01147 -1.20859 0
M  V30 4630 C 435.786 -0.716698 -1.94623 0
M  V30 4631 C 436.211 0.715415 -1.73964 0
M  V30 4632 O 435.569 1.49157 -1.03062 0
M  V30 4633 C 435.617 -1.0513 -3.44935 0
M  V30 4634 O 434.721 -0.160131 -4.12089 0
M  V30 4635 H 434.062 -0.266404 -0.608214 0
M  V30 4636 H 436.592 -1.35346 -1.53436 0
M  V30 4637 H 436.602 -1.00086 -3.95533 0
M  V30 4638 H 435.277 -2.09475 -3.59295 0
M  V30 4639 H 433.854 -0.267657 -3.71938 0
M  V30 4640 N 436.039 1.36541 -0.78704 0
M  V30 4641 C 437.264 2.0409 -0.369053 0
M  V30 4642 C 437.689 1.58957 1.00569 0
M  V30 4643 O 437.047 0.756926 1.64743 0
M  V30 4644 C 437.095 3.57924 -0.438466 0
M  V30 4645 O 436.199 4.08642 0.555479 0
M  V30 4646 H 435.54 0.645142 -0.157122 0
M  V30 4647 H 438.07 1.74545 -1.06749 0
M  V30 4648 H 438.08 4.06887 -0.301218 0
M  V30 4649 H 436.755 3.90127 -1.44132 0
M  V30 4650 H 435.332 3.70958 0.380088 0
M  V30 4651 N 437.518 0.538854 1.48102 0
M  V30 4652 C 438.929 0.100679 1.86428 0
M  V30 4653 C 439.28 -1.32447 1.44749 0
M  V30 4654 O 438.405 -1.99339 0.842199 0
M  V30 4655 C 439 0.175933 3.38343 0
M  V30 4656 C 437.559 -0.207098 3.7583 0
M  V30 4657 C 436.706 0.531741 2.72154 0
M  V30 4658 H 439.657 0.749614 1.3988 0
M  V30 4659 H 439.678 -0.610144 3.75576 0
M  V30 4660 H 439.19 1.21328 3.68648 0
M  V30 4661 H 437.291 -1.24626 3.5114 0
M  V30 4662 H 437.404 0.138687 4.78899 0
M  V30 4663 H 435.768 -0.0230462 2.5469 0
M  V30 4664 H 436.551 1.56989 3.05302 0
M  V30 4665 N 438.996 -1.55193 0.274407 0
M  V30 4666 C 439.943 -2.225 -0.613374 0
M  V30 4667 C 440.913 -1.19823 -1.15029 0
M  V30 4668 O 442.098 -1.48362 -1.19973 0
M  V30 4669 C 439.238 -2.94927 -1.79199 0
M  V30 4670 C 438.351 -4.12322 -1.28899 0
M  V30 4671 C 437.486 -4.72394 -2.42934 0
M  V30 4672 C 436.525 -5.81984 -1.89634 0
M  V30 4673 N 435.662 -6.36123 -2.9714 0
M  V30 4674 H 440.502 -2.97982 -0.032756 0
M  V30 4675 H 438.039 -1.47099 -0.00440146 0
M  V30 4676 H 439.997 -3.35134 -2.48478 0
M  V30 4677 H 438.627 -2.2187 -2.34465 0
M  V30 4678 H 437.679 -3.7724 -0.489327 0
M  V30 4679 H 438.991 -4.91355 -0.858587 0
M  V30 4680 H 438.145 -5.15317 -3.20208 0
M  V30 4681 H 436.884 -3.92636 -2.8929 0
M  V30 4682 H 435.889 -5.38511 -1.1084 0
M  V30 4683 H 437.114 -6.6361 -1.44215 0
M  V30 4684 H 435.06 -5.59259 -3.42878 0
M  V30 4685 H 434.977 -7.10427 -2.58515 0
M  V30 4686 H 436.245 -6.83704 -3.74391 0
M  V30 4687 N 440.474 -0.00167713 -1.576 0
M  V30 4688 C 441.72 0.683832 -1.90923 0
M  V30 4689 C 442.053 1.7333 -0.875799 0
M  V30 4690 O 441.328 1.94215 0.10525 0
M  V30 4691 C 441.611 1.32543 -3.3482 0
M  V30 4692 C 441.464 0.287387 -4.48881 0
M  V30 4693 C 442.783 2.25114 -3.78169 0
M  V30 4694 H 439.902 0.247125 -0.694333 0
M  V30 4695 H 442.544 -0.0533149 -1.89925 0
M  V30 4696 H 440.694 1.95372 -3.35801 0
M  V30 4697 H 442.366 -0.341346 -4.60035 0
M  V30 4698 H 440.609 -0.39017 -4.32042 0
M  V30 4699 H 441.28 0.775393 -5.46527 0
M  V30 4700 H 443.756 1.723 -3.7875 0
M  V30 4701 H 442.632 2.66971 -4.79602 0
M  V30 4702 H 442.893 3.13092 -3.12131 0
M  V30 4703 N 441.952 1.55251 0.271103 0
M  V30 4704 C 442.882 1.9127 1.33933 0
M  V30 4705 C 443.863 0.77478 1.5143 0
M  V30 4706 O 445.048 1.03307 1.64442 0
M  V30 4707 C 442.178 2.18627 2.69851 0
M  V30 4708 C 441.132 3.34442 2.67081 0
M  V30 4709 C 440.458 3.47284 4.06569 0
M  V30 4710 C 441.758 4.70784 2.26185 0
M  V30 4711 H 443.452 2.80744 1.04035 0
M  V30 4712 H 440.998 1.35077 0.499017 0
M  V30 4713 H 442.951 2.42413 3.44694 0
M  V30 4714 H 441.675 1.25955 3.01335 0
M  V30 4715 H 440.334 3.10627 1.94695 0
M  V30 4716 H 439.982 2.52074 4.35279 0
M  V30 4717 H 439.682 4.25152 4.0561 0
M  V30 4718 H 441.206 3.73363 4.83148 0
M  V30 4719 H 442.62 4.94102 2.90751 0
M  V30 4720 H 441.017 5.51582 2.36384 0
M  V30 4721 H 442.087 4.69478 1.21319 0
M  V30 4722 N 443.43 -0.535701 1.48216 0
M  V30 4723 C 444.362 -1.65662 1.58394 0
M  V30 4724 C 445.375 -1.5591 0.468607 0
M  V30 4725 O 446.564 -1.62475 0.7392 0
M  V30 4726 C 443.664 -3.04276 1.4923 0
M  V30 4727 C 442.837 -3.39567 2.75705 0
M  V30 4728 C 441.896 -4.57436 2.60075 0
M  V30 4729 O 440.922 -4.60942 3.33948 0
M  V30 4730 N 442.124 -5.55259 1.69315 0
M  V30 4731 H 444.889 -1.5737 2.55058 0
M  V30 4732 H 442.45 -0.722845 1.44867 0
M  V30 4733 H 444.442 -3.80994 1.36477 0
M  V30 4734 H 443.012 -3.06677 0.605632 0
M  V30 4735 H 442.232 -2.52083 3.03064 0
M  V30 4736 H 443.52 -3.59929 3.59623 0
M  V30 4737 H 442.918 -5.552 1.08489 0
M  V30 4738 H 441.475 -6.31218 1.62504 0
M  V30 4739 N 444.908 -1.36708 -0.784132 0
M  V30 4740 C 446.324 -1.17237 -1.08294 0
M  V30 4741 C 446.524 -5.93947e-05 -2.015 0
M  V30 4742 O 445.58 0.663686 -2.43622 0
M  V30 4743 C 446.893 -2.48557 -1.69233 0
M  V30 4744 C 448.441 -2.54968 -1.8155 0
M  V30 4745 C 448.916 -3.86388 -2.45904 0
M  V30 4746 N 450.407 -3.87762 -2.53367 0
M  V30 4747 C 451.142 -4.86191 -3.03983 0
M  V30 4748 N 450.638 -5.95015 -3.54866 0
M  V30 4749 N 452.431 -4.73606 -3.02743 0
M  V30 4750 H 444.582 -2.11758 -0.16501 0
M  V30 4751 H 446.845 -0.93822 -0.135822 0
M  V30 4752 H 446.551 -3.34638 -1.08215 0
M  V30 4753 H 446.425 -2.64748 -2.68679 0
M  V30 4754 H 448.812 -1.69302 -2.41704 0
M  V30 4755 H 448.893 -2.42672 -0.80895 0
M  V30 4756 H 448.537 -4.72462 -1.86392 0
M  V30 4757 H 448.467 -3.95982 -3.4714 0
M  V30 4758 H 450.958 -3.09145 -2.17343 0
M  V30 4759 H 451.271 -6.66086 -3.91854 0
M  V30 4760 H 449.616 -5.98676 -3.53003 0
M  V30 4761 H 452.807 -3.87717 -2.62284 0
M  V30 4762 H 452.98 -5.50473 -3.41881 0
M  V30 4763 N 446.386 1.0089 -1.21074 0
M  V30 4764 C 447.316 2.1145 -0.990523 0
M  V30 4765 C 448.297 1.69897 0.0831699 0
M  V30 4766 O 449.482 1.94052 -0.0758853 0
M  V30 4767 C 446.612 3.42914 -0.550177 0
M  V30 4768 C 445.566 3.98244 -1.56799 0
M  V30 4769 C 444.892 5.25568 -0.984013 0
M  V30 4770 C 446.192 4.30752 -2.95381 0
M  V30 4771 H 447.886 2.3013 -1.91521 0
M  V30 4772 H 445.432 1.10592 -0.92225 0
M  V30 4773 H 447.385 4.19653 -0.383305 0
M  V30 4774 H 446.109 3.24014 0.41015 0
M  V30 4775 H 444.768 3.23621 -1.72236 0
M  V30 4776 H 444.416 5.02998 -0.0155216 0
M  V30 4777 H 444.116 5.63551 -1.66384 0
M  V30 4778 H 445.64 6.04955 -0.828378 0
M  V30 4779 H 447.054 4.98349 -2.8341 0
M  V30 4780 H 445.451 4.79869 -3.60341 0
M  V30 4781 H 446.521 3.39192 -3.46521 0
M  V30 4782 N 447.864 1.01787 1.20321 0
M  V30 4783 C 449.113 0.703249 1.89043 0
M  V30 4784 C 449.426 -0.770445 1.79787 0
M  V30 4785 O 450.632 -1.19767 2.43656 0
M  V30 4786 C 449.088 1.20749 3.3904 0
M  V30 4787 C 448.696 2.70817 3.56878 0
M  V30 4788 C 450.44 0.968352 4.13308 0
M  V30 4789 C 448.347 3.14716 5.00708 0
M  V30 4790 H 447.277 0.259354 0.707991 0
M  V30 4791 H 449.928 1.23072 1.36108 0
M  V30 4792 H 448.31 0.607989 3.91305 0
M  V30 4793 H 449.484 3.36327 3.14993 0
M  V30 4794 H 447.799 2.92888 2.95983 0
M  V30 4795 H 450.396 1.27173 5.19356 0
M  V30 4796 H 450.739 -0.095149 4.16191 0
M  V30 4797 H 451.272 1.53129 3.67146 0
M  V30 4798 H 448.011 4.20347 5.02979 0
M  V30 4799 H 447.531 2.53927 5.43398 0
M  V30 4800 H 449.21 3.07426 5.69296 0
M  V30 4801 N 449.342 -1.36122 0.79427 0
M  V30 4802 C 450.758 -1.5232 0.476525 0
M  V30 4803 C 450.958 -1.74685 -1.00436 0
M  V30 4804 O 450.014 -1.78115 -1.78973 0
M  V30 4805 C 451.327 -2.70607 1.31119 0
M  V30 4806 C 452.875 -2.8448 1.30537 0
M  V30 4807 C 453.35 -4.05778 2.12387 0
M  V30 4808 N 454.841 -4.12933 2.09859 0
M  V30 4809 C 455.576 -5.05876 2.69957 0
M  V30 4810 N 455.072 -6.04232 3.38934 0
M  V30 4811 N 456.865 -4.98528 2.59665 0
M  V30 4812 H 449.016 -1.1986 1.75349 0
M  V30 4813 H 451.279 -0.585418 0.745647 0
M  V30 4814 H 450.985 -2.60619 2.36158 0
M  V30 4815 H 450.859 -3.64888 0.955843 0
M  V30 4816 H 453.246 -2.93927 0.262876 0
M  V30 4817 H 453.327 -1.91093 1.70051 0
M  V30 4818 H 452.971 -3.97092 3.1667 0
M  V30 4819 H 452.901 -4.98323 1.70242 0
M  V30 4820 H 455.392 -3.42515 1.59662 0
M  V30 4821 H 455.705 -6.71724 3.82109 0
M  V30 4822 H 454.05 -6.04443 3.43036 0
M  V30 4823 H 457.241 -4.20641 2.05375 0
M  V30 4824 H 457.414 -5.70773 3.06793 0
M  V30 4825 N 450.82 -0.546701 -1.47814 0
M  V30 4826 C 452.045 -0.021268 -2.07389 0
M  V30 4827 C 452.47 1.25822 -1.39822 0
M  V30 4828 O 451.828 1.75111 -0.46968 0
M  V30 4829 C 451.876 0.168502 -3.60206 0
M  V30 4830 O 450.98 1.23347 -3.93522 0
M  V30 4831 H 450.321 -0.0466108 -0.662362 0
M  V30 4832 H 452.851 -0.759387 -1.89985 0
M  V30 4833 H 452.861 0.385982 -4.0617 0
M  V30 4834 H 451.536 -0.766075 -4.08784 0
M  V30 4835 H 450.113 0.997319 -3.59316 0
M  V30 4836 N 452.299 1.55045 -0.282633 0
M  V30 4837 C 453.715 1.59441 0.0712997 0
M  V30 4838 C 453.915 1.2998 1.53972 0
M  V30 4839 O 452.971 1.06431 2.28973 0
M  V30 4840 C 454.284 2.99097 -0.310104 0
M  V30 4841 C 455.832 3.1194 -0.257343 0
M  V30 4842 C 456.307 4.53875 -0.613297 0
M  V30 4843 N 457.798 4.5974 -0.565134 0
M  V30 4844 C 458.533 5.67603 -0.81326 0
M  V30 4845 N 458.029 6.83582 -1.1264 0
M  V30 4846 N 459.822 5.57187 -0.741553 0
M  V30 4847 H 451.973 1.72458 -1.23984 0
M  V30 4848 H 454.236 0.804549 -0.501403 0
M  V30 4849 H 453.942 3.25516 -1.33163 0
M  V30 4850 H 453.816 3.75616 0.345366 0
M  V30 4851 H 456.203 2.85281 0.754905 0
M  V30 4852 H 456.284 2.37618 -0.947178 0
M  V30 4853 H 455.928 4.81261 -1.62327 0
M  V30 4854 H 455.858 5.26508 0.09841 0
M  V30 4855 H 458.349 3.76427 -0.333294 0
M  V30 4856 H 458.662 7.6175 -1.30219 0
M  V30 4857 H 457.007 6.85179 -1.16425 0
M  V30 4858 H 460.198 4.65457 -0.496705 0
M  V30 4859 H 460.371 6.41171 -0.938306 0
M  V30 4860 N 453.777 0.010035 1.57597 0
M  V30 4861 C 455.025 -0.671371 1.90623 0
M  V30 4862 C 455.346 -1.73753 0.885151 0
M  V30 4863 O 454.616 -1.95752 -0.0760611 0
M  V30 4864 H 453.196 -0.250968 0.703579 0
M  V30 4865 H 455.858 0.0533325 1.94827 0
M  V30 4866 H 454.954 -1.13626 2.90681 0
M  V30 4867 N 455.255 -1.55392 -0.262866 0
M  V30 4868 C 456.202 -1.88966 -1.32516 0
M  V30 4869 C 457.172 -0.742187 -1.48596 0
M  V30 4870 O 458.357 -0.99439 -1.62839 0
M  V30 4871 C 455.497 -2.17592 -2.67858 0
M  V30 4872 C 454.61 -3.45061 -2.59917 0
M  V30 4873 C 453.745 -3.63336 -3.87505 0
M  V30 4874 C 452.784 -4.84462 -3.74116 0
M  V30 4875 N 451.921 -4.99342 -4.93561 0
M  V30 4876 H 456.761 -2.79566 -1.03184 0
M  V30 4877 H 454.298 -1.38404 -0.498285 0
M  V30 4878 H 456.256 -2.3219 -3.46617 0
M  V30 4879 H 454.886 -1.30215 -2.95371 0
M  V30 4880 H 453.938 -3.38881 -1.72812 0
M  V30 4881 H 455.25 -4.3396 -2.45926 0
M  V30 4882 H 454.404 -3.77807 -4.74707 0
M  V30 4883 H 453.143 -2.72641 -4.04374 0
M  V30 4884 H 452.148 -4.69985 -2.85297 0
M  V30 4885 H 453.373 -5.76603 -3.58757 0
M  V30 4886 H 451.319 -4.1158 -5.10821 0
M  V30 4887 H 451.236 -5.82303 -4.82141 0
M  V30 4888 H 452.504 -5.18208 -5.82306 0
M  V30 4889 N 456.733 0.527833 -1.48498 0
M  V30 4890 C 457.958 1.313 -1.60546 0
M  V30 4891 C 458.383 1.86199 -0.26672 0
M  V30 4892 O 457.741 1.64513 0.761918 0
M  V30 4893 C 457.789 2.43818 -2.65678 0
M  V30 4894 O 456.893 3.46916 -2.22987 0
M  V30 4895 H 456.234 0.388784 -0.538277 0
M  V30 4896 H 458.764 0.634896 -1.945 0
M  V30 4897 H 458.774 2.89973 -2.87018 0
M  V30 4898 H 457.449 2.03222 -3.62869 0
M  V30 4899 H 456.026 3.06864 -2.11869 0
M  V30 4900 N 458.211 1.37122 0.776871 0
M  V30 4901 C 459.143 1.28342 1.89897 0
M  V30 4902 C 460.156 0.200277 1.61563 0
M  V30 4903 O 461.345 0.456012 1.72577 0
M  V30 4904 C 458.445 0.960427 3.25006 0
M  V30 4905 C 457.618 2.148 3.81025 0
M  V30 4906 C 456.677 1.79608 4.94598 0
M  V30 4907 O 455.703 2.51845 5.10454 0
M  V30 4908 N 456.905 0.737171 5.758 0
M  V30 4909 H 459.67 2.25027 1.97947 0
M  V30 4910 H 457.231 1.3068 0.955739 0
M  V30 4911 H 459.223 0.705942 3.98495 0
M  V30 4912 H 457.793 0.0823066 3.12492 0
M  V30 4913 H 457.013 2.56454 2.99374 0
M  V30 4914 H 458.301 2.9411 4.15183 0
M  V30 4915 H 457.699 0.137637 5.65533 0
M  V30 4916 H 456.256 0.542534 6.49538 0
M  V30 4917 N 459.689 -1.00246 1.21608 0
M  V30 4918 C 460.622 -2.08794 0.920892 0
M  V30 4919 C 461.6 -1.62059 -0.132552 0
M  V30 4920 O 462.784 -1.885 -0.0030366 0
M  V30 4921 C 459.911 -3.36525 0.383226 0
M  V30 4922 C 458.957 -4.02172 1.41987 0
M  V30 4923 S 459.79 -4.44256 2.98994 0
M  V30 4924 C 460.946 -5.7517 2.4684 0
M  V30 4925 H 461.179 -2.33511 1.8401 0
M  V30 4926 H 458.712 -1.13562 1.04609 0
M  V30 4927 H 460.67 -4.10423 0.0795871 0
M  V30 4928 H 459.331 -3.09854 -0.514711 0
M  V30 4929 H 458.524 -4.94114 0.993335 0
M  V30 4930 H 458.126 -3.34559 1.67171 0
M  V30 4931 H 460.418 -6.51042 1.87484 0
M  V30 4932 H 461.361 -6.22638 3.37235 0
M  V30 4933 H 461.769 -5.32112 1.88461 0
M  V30 4934 N 461.167 -1.02423 -1.1978 0
M  V30 4935 C 462.114 -0.601023 -2.22837 0
M  V30 4936 C 463.084 0.382801 -1.61629 0
M  V30 4937 O 464.269 0.280514 -1.88727 0
M  V30 4938 C 461.409 0.0467755 -3.45068 0
M  V30 4939 C 460.522 -0.98253 -4.20678 0
M  V30 4940 C 459.657 -0.304982 -5.30324 0
M  V30 4941 C 458.696 -1.32052 -5.97686 0
M  V30 4942 N 457.833 -0.669105 -6.98904 0
M  V30 4943 H 462.673 -1.48444 -2.58396 0
M  V30 4944 H 460.21 -0.742936 -1.2696 0
M  V30 4945 H 462.168 0.439556 -4.14878 0
M  V30 4946 H 460.798 0.893796 -3.10179 0
M  V30 4947 H 459.85 -1.49341 -3.49859 0
M  V30 4948 H 461.162 -1.75455 -4.66923 0
M  V30 4949 H 460.316 0.142893 -6.06532 0
M  V30 4950 H 459.055 0.499283 -4.85138 0
M  V30 4951 H 458.06 -1.7787 -5.20233 0
M  V30 4952 H 459.285 -2.1262 -6.44957 0
M  V30 4953 H 457.231 0.115152 -6.55899 0
M  V30 4954 H 457.148 -1.37908 -7.43315 0
M  V30 4955 H 458.416 -0.245076 -7.79115 0
M  V30 4956 N 462.645 1.35699 -0.801477 0
M  V30 4957 C 463.595 2.2728 -0.181073 0
M  V30 4958 C 464.579 1.47533 0.642098 0
M  V30 4959 O 465.771 1.69785 0.500193 0
M  V30 4960 C 462.9 3.36626 0.673612 0
M  V30 4961 C 461.986 4.23802 -0.159008 0
M  V30 4962 N 462.377 4.90879 -1.2195 0
M  V30 4963 C 460.675 4.45959 0.0602005 0
M  V30 4964 C 461.376 5.5546 -1.72738 0
M  V30 4965 N 460.352 5.33663 -1.03465 0
M  V30 4966 H 464.154 2.76632 -0.992582 0
M  V30 4967 H 461.668 1.49166 -0.642127 0
M  V30 4968 H 463.665 4.01179 1.13408 0
M  V30 4969 H 462.325 2.88828 1.48353 0
M  V30 4970 H 463.336 4.92497 -1.60209 0
M  V30 4971 H 460.013 4.08969 0.839664 0
M  V30 4972 H 461.403 6.18991 -2.61342 0
M  V30 4973 N 464.123 0.554532 1.47522 0
M  V30 4974 C 465.053 -0.182974 2.32782 0
M  V30 4975 C 466.034 -0.911377 1.43624 0
M  V30 4976 O 467.219 -0.892366 1.72483 0
M  V30 4977 C 464.349 -1.21513 3.25349 0
M  V30 4978 C 463.303 -0.603355 4.23726 0
M  V30 4979 C 462.629 -1.73995 5.05598 0
M  V30 4980 C 463.929 0.441121 5.20434 0
M  V30 4981 H 465.623 0.52882 2.94693 0
M  V30 4982 H 463.169 0.255759 1.41711 0
M  V30 4983 H 465.122 -1.73922 3.83835 0
M  V30 4984 H 463.846 -1.95683 2.61487 0
M  V30 4985 H 462.505 -0.10059 3.66462 0
M  V30 4986 H 462.153 -2.47063 4.38143 0
M  V30 4987 H 461.853 -1.3364 5.72201 0
M  V30 4988 H 463.377 -2.26735 5.66942 0
M  V30 4989 H 464.791 0.00319931 5.733 0
M  V30 4990 H 463.188 0.763402 5.95224 0
M  V30 4991 H 464.258 1.33799 4.66075 0
M  V30 4992 N 465.601 -1.54893 0.290851 0
M  V30 4993 C 466.829 -2.04343 -0.324288 0
M  V30 4994 C 467.244 -1.16859 -1.48289 0
M  V30 4995 O 466.601 -0.192018 -1.81487 0
M  V30 4996 C 466.652 -3.52756 -0.79026 0
M  V30 4997 O 466.373 -4.36913 0.322213 0
M  V30 4998 C 467.874 -4.18161 -1.4716 0
M  V30 4999 H 465.094 -0.667135 -0.0719173 0
M  V30 5000 H 467.638 -1.99981 0.427529 0
M  V30 5001 H 465.793 -3.57511 -1.49213 0
M  V30 5002 H 466.207 -5.24486 -0.0387372 0
M  V30 5003 H 467.681 -5.23562 -1.7489 0
M  V30 5004 H 468.158 -3.67282 -2.40834 0
M  V30 5005 H 468.764 -4.17454 -0.813178 0
M  V30 5006 N 467.08 -0.0183926 -1.57589 0
M  V30 5007 C 468.326 0.663543 -1.91638 0
M  V30 5008 C 468.659 1.72392 -0.894134 0
M  V30 5009 O 467.934 1.94316 0.0846449 0
M  V30 5010 C 468.217 1.28984 -3.36207 0
M  V30 5011 C 468.07 0.239761 -4.49161 0
M  V30 5012 C 469.389 2.2109 -3.80536 0
M  V30 5013 H 466.508 0.239746 -0.696915 0
M  V30 5014 H 469.15 -0.073456 -1.89858 0
M  V30 5015 H 467.3 1.91799 -3.37854 0
M  V30 5016 H 468.972 -0.390119 -4.59647 0
M  V30 5017 H 467.215 -0.435972 -4.31604 0
M  V30 5018 H 467.886 0.717383 -5.47319 0
M  V30 5019 H 470.362 1.68273 -3.80557 0
M  V30 5020 H 469.238 2.61869 -4.82406 0
M  V30 5021 H 469.499 3.09764 -3.15434 0
M  V30 5022 N 468.558 1.5553 0.254621 0
M  V30 5023 C 469.49 1.86104 1.33783 0
M  V30 5024 C 470.503 0.746752 1.44663 0
M  V30 5025 O 471.692 1.0248 1.46151 0
M  V30 5026 C 468.792 2.02532 2.71724 0
M  V30 5027 C 467.965 3.33335 2.83208 0
M  V30 5028 C 467.024 3.396 4.01943 0
M  V30 5029 O 466.05 4.12862 3.91834 0
M  V30 5030 N 467.252 2.68332 5.1476 0
M  V30 5031 H 470.017 2.79605 1.07893 0
M  V30 5032 H 467.578 1.55672 0.444732 0
M  V30 5033 H 469.57 2.04074 3.4948 0
M  V30 5034 H 468.14 1.15811 2.90356 0
M  V30 5035 H 467.36 3.44176 1.92189 0
M  V30 5036 H 468.648 4.19565 2.87824 0
M  V30 5037 H 468.046 2.08528 5.25864 0
M  V30 5038 H 466.603 2.75575 5.90679 0
M  V30 5039 N 470.036 -0.519951 1.48776 0
M  V30 5040 C 470.969 -1.64053 1.58625 0
M  V30 5041 C 471.947 -1.5664 0.43618 0
M  V30 5042 O 473.131 -1.76969 0.649159 0
M  V30 5043 C 470.258 -3.02497 1.52359 0
M  V30 5044 C 469.304 -3.28235 2.72331 0
M  V30 5045 S 470.137 -3.13414 4.34203 0
M  V30 5046 C 471.293 -4.54287 4.30551 0
M  V30 5047 H 471.526 -1.5545 2.53422 0
M  V30 5048 H 469.059 -0.703681 1.37433 0
M  V30 5049 H 471.017 -3.82336 1.4943 0
M  V30 5050 H 469.678 -3.08531 0.588824 0
M  V30 5051 H 468.871 -4.29256 2.64113 0
M  V30 5052 H 468.473 -2.56085 2.72574 0
M  V30 5053 H 470.765 -5.46006 4.01103 0
M  V30 5054 H 471.708 -4.67558 5.31785 0
M  V30 5055 H 472.116 -4.34079 3.60881 0
M  V30 5056 N 471.514 -1.37532 -0.769588 0
M  V30 5057 C 472.447 -1.27839 -1.8903 0
M  V30 5058 C 473.425 -0.158504 -1.61826 0
M  V30 5059 O 474.609 -0.333086 -1.85534 0
M  V30 5060 C 471.736 -0.977072 -3.24301 0
M  V30 5061 C 470.782 -2.11414 -3.70414 0
M  V30 5062 S 471.615 -3.73409 -3.83831 0
M  V30 5063 C 472.771 -3.45432 -5.21946 0
M  V30 5064 H 473.004 -2.22694 -1.96963 0
M  V30 5065 H 470.537 -1.2318 -0.930914 0
M  V30 5066 H 472.495 -0.810049 -4.02428 0
M  V30 5067 H 471.156 -0.0459701 -3.14066 0
M  V30 5068 H 470.349 -1.85837 -4.68488 0
M  V30 5069 H 469.951 -2.24141 -2.99394 0
M  V30 5070 H 472.243 -3.00554 -6.07185 0
M  V30 5071 H 473.186 -4.42841 -5.52537 0
M  V30 5072 H 473.594 -2.80311 -4.89986 0
M  V30 5073 N 472.992 0.995999 -1.22138 0
M  V30 5074 C 473.955 2.06711 -0.990109 0
M  V30 5075 C 474.955 1.60744 0.0422978 0
M  V30 5076 O 476.145 1.73095 -0.195895 0
M  V30 5077 C 473.277 3.37288 -0.49491 0
M  V30 5078 H 474.47 2.28661 -1.94047 0
M  V30 5079 H 472.023 1.16711 -1.03963 0
M  V30 5080 H 472.758 3.21022 0.459948 0
M  V30 5081 H 472.543 3.71986 -1.23971 0
M  V30 5082 H 474.033 4.16103 -0.353253 0
M  V30 5083 N 474.47 1.03057 1.19235 0
M  V30 5084 C 475.7 0.746613 1.92638 0
M  V30 5085 C 476.108 -0.698708 1.75826 0
M  V30 5086 O 475.451 -1.487 1.07861 0
M  V30 5087 C 475.513 1.02024 3.44719 0
M  V30 5088 C 475.177 2.45745 3.85303 0
M  V30 5089 C 476.174 3.43887 3.8992 0
M  V30 5090 C 473.859 2.8019 4.16892 0
M  V30 5091 C 475.853 4.74529 4.2556 0
M  V30 5092 C 473.54 4.1104 4.52205 0
M  V30 5093 C 474.538 5.0802 4.56513 0
M  V30 5094 O 474.226 6.36527 4.91008 0
M  V30 5095 H 473.958 0.272401 0.618687 0
M  V30 5096 H 476.512 1.37853 1.52269 0
M  V30 5097 H 474.742 0.331184 3.85279 0
M  V30 5098 H 476.431 0.725677 3.9936 0
M  V30 5099 H 477.197 3.18614 3.65664 0
M  V30 5100 H 473.076 2.05382 4.12722 0
M  V30 5101 H 476.62 5.50222 4.28838 0
M  V30 5102 H 472.517 4.36086 4.7592 0
M  V30 5103 H 473.285 6.41025 5.08949 0
M  V30 5104 N 475.948 -1.35272 0.808662 0
M  V30 5105 C 477.225 -1.93077 0.313181 0
M  V30 5106 C 477.605 -1.73847 -1.19752 0
M  V30 5107 O 476.953 -1.1087 -1.998 0
M  V30 5108 C 477.163 -3.41347 0.726859 0
M  V30 5109 C 478.511 -4.18493 0.717532 0
M  V30 5110 O 479.535 -3.4987 0.668535 0
M  V30 5111 O 478.394 -5.40937 0.777779 0
M  V30 5112 H 475.488 -0.822885 0.0824018 0
M  V30 5113 H 478.034 -1.44335 0.892499 0
M  V30 5114 H 476.806 -3.49082 1.76797 0
M  V30 5115 H 476.429 -3.97411 0.122461 0
M  V30 5116 N 477.426 -0.562348 -1.47226 0
M  V30 5117 C 478.373 0.182461 -2.30078 0
M  V30 5118 C 479.343 0.903503 -1.39377 0
M  V30 5119 O 480.528 0.898188 -1.68337 0
M  V30 5120 C 477.668 1.20322 -3.23445 0
M  V30 5121 C 476.781 0.487717 -4.29238 0
M  V30 5122 C 475.916 1.49422 -5.09752 0
M  V30 5123 C 474.955 0.763976 -6.07314 0
M  V30 5124 N 474.092 1.71755 -6.80768 0
M  V30 5125 H 478.932 -0.530169 -2.93246 0
M  V30 5126 H 476.469 -0.273276 -1.44539 0
M  V30 5127 H 478.427 1.80768 -3.76004 0
M  V30 5128 H 477.057 1.88382 -2.6213 0
M  V30 5129 H 476.109 -0.231374 -3.79696 0
M  V30 5130 H 477.421 -0.0841003 -4.98729 0
M  V30 5131 H 476.575 2.17206 -5.66486 0
M  V30 5132 H 475.314 2.09995 -4.40174 0
M  V30 5133 H 474.319 0.0722344 -5.49753 0
M  V30 5134 H 475.544 0.16391 -6.78902 0
M  V30 5135 H 473.49 2.31177 -6.13916 0
M  V30 5136 H 473.407 1.19802 -7.46447 0
M  V30 5137 H 474.675 2.38638 -7.42073 0
M  V30 5138 N 478.904 1.54736 -0.299062 0
M  V30 5139 C 479.834 2.26409 0.571085 0
M  V30 5140 C 480.815 1.2629 1.13951 0
M  V30 5141 O 482 1.55059 1.16921 0
M  V30 5142 C 479.13 3.00338 1.74396 0
M  V30 5143 C 478.084 4.07588 1.30599 0
M  V30 5144 C 477.41 4.69222 2.56387 0
M  V30 5145 C 478.71 5.20455 0.438645 0
M  V30 5146 H 480.404 2.99388 -0.0266991 0
M  V30 5147 H 477.95 1.43993 -0.0142812 0
M  V30 5148 H 479.903 3.49198 2.35878 0
M  V30 5149 H 478.627 2.24934 2.36796 0
M  V30 5150 H 477.286 3.59575 0.71424 0
M  V30 5151 H 476.934 3.9046 3.17097 0
M  V30 5152 H 476.634 5.41653 2.27784 0
M  V30 5153 H 478.158 5.20844 3.18675 0
M  V30 5154 H 479.572 5.65221 0.959085 0
M  V30 5155 H 477.969 5.99594 0.246466 0
M  V30 5156 H 479.039 4.8192 -0.536738 0
M  V30 5157 N 480.382 0.0267497 1.57577 0
M  V30 5158 C 481.628 -0.653371 1.91987 0
M  V30 5159 C 481.961 -1.71915 0.903263 0
M  V30 5160 O 481.236 -1.94358 -0.0743387 0
M  V30 5161 C 481.519 -1.272 3.36886 0
M  V30 5162 C 481.372 -0.215938 4.49281 0
M  V30 5163 C 482.691 -2.19069 3.81703 0
M  V30 5164 H 479.81 -0.236047 0.698177 0
M  V30 5165 H 482.452 0.0835236 1.89816 0
M  V30 5166 H 480.602 -1.90005 3.38866 0
M  V30 5167 H 482.274 0.41449 4.59434 0
M  V30 5168 H 480.517 0.458855 4.31366 0
M  V30 5169 H 481.188 -0.688347 5.47691 0
M  V30 5170 H 483.664 -1.66253 3.81444 0
M  V30 5171 H 482.54 -2.59307 4.83788 0
M  V30 5172 H 482.801 -3.08087 3.17072 0
M  V30 5173 N 481.861 -1.55662 -0.24637 0
M  V30 5174 C 482.793 -1.86811 -1.32794 0
M  V30 5175 C 483.806 -0.754413 -1.44265 0
M  V30 5176 O 484.995 -1.03253 -1.45606 0
M  V30 5177 C 482.095 -2.0397 -2.70646 0
M  V30 5178 C 481.268 -3.34832 -2.81436 0
M  V30 5179 C 480.327 -3.41727 -4.00136 0
M  V30 5180 O 479.353 -4.14934 -3.89639 0
M  V30 5181 N 480.555 -2.71058 -5.1333 0
M  V30 5182 H 483.32 -2.80174 -1.06409 0
M  V30 5183 H 480.881 -1.55906 -0.43647 0
M  V30 5184 H 482.873 -2.05924 -3.48393 0
M  V30 5185 H 481.443 -1.1735 -2.89738 0
M  V30 5186 H 480.663 -3.4519 -1.90361 0
M  V30 5187 H 481.951 -4.21085 -2.85595 0
M  V30 5188 H 481.349 -2.11314 -5.2475 0
M  V30 5189 H 479.906 -2.78704 -5.89209 0
M  V30 5190 N 483.339 0.512053 -1.4905 0
M  V30 5191 C 484.579 1.27715 -1.59588 0
M  V30 5192 C 484.943 1.90071 -0.271502 0
M  V30 5193 O 486.144 2.67616 -0.251987 0
M  V30 5194 C 484.415 2.32399 -2.71524 0
M  V30 5195 S 485.974 3.18396 -3.01943 0
M  V30 5196 H 482.792 0.43419 -0.563027 0
M  V30 5197 H 485.394 0.581315 -1.86657 0
M  V30 5198 H 484.098 1.85101 -3.66287 0
M  V30 5199 H 483.629 3.06667 -2.46412 0
M  V30 5200 H 485.644 4.32842 -2.42616 0
M  V30 5201 N 484.817 1.37938 0.762283 0
M  V30 5202 C 486.228 1.30094 1.33912 0
M  V30 5203 C 486.579 -0.0472026 1.96143 0
M  V30 5204 O 485.704 -0.94917 1.94473 0
M  V30 5205 C 486.299 2.35592 2.43478 0
M  V30 5206 C 484.858 2.31353 2.96905 0
M  V30 5207 C 484.005 2.18919 1.70205 0
M  V30 5208 H 486.956 1.48423 0.561816 0
M  V30 5209 H 486.977 2.00806 3.23199 0
M  V30 5210 H 486.489 3.33701 1.98155 0
M  V30 5211 H 484.59 1.36799 3.46579 0
M  V30 5212 H 484.703 3.25147 3.51875 0
M  V30 5213 H 483.067 1.65624 1.93496 0
M  V30 5214 H 483.85 3.18956 1.26973 0
M  V30 5215 N 486.295 -0.989507 1.22664 0
M  V30 5216 C 487.706 -1.54406 1.04955 0
M  V30 5217 C 488.057 -1.92366 -0.385951 0
M  V30 5218 O 487.182 -1.75111 -1.27142 0
M  V30 5219 C 487.777 -2.80578 1.89899 0
M  V30 5220 C 486.336 -3.32464 1.76478 0
M  V30 5221 C 485.483 -2.05524 1.86159 0
M  V30 5222 H 488.434 -0.810211 1.3646 0
M  V30 5223 H 488.455 -3.53075 1.4184 0
M  V30 5224 H 487.967 -2.52918 2.94371 0
M  V30 5225 H 486.068 -3.65024 0.747528 0
M  V30 5226 H 486.181 -4.02838 2.59342 0
M  V30 5227 H 484.545 -2.19241 1.29636 0
M  V30 5228 H 485.328 -1.80258 2.92168 0
M  V30 5229 N 487.773 -1.03688 -1.18687 0
M  V30 5230 C 488.683 -0.634908 -2.25845 0
M  V30 5231 C 489.699 0.337065 -1.70704 0
M  V30 5232 O 490.875 0.192943 -2.00474 0
M  V30 5233 C 487.94 -0.000180054 -3.467 0
M  V30 5234 C 487.001 -1.02067 -4.1699 0
M  V30 5235 C 486.234 -0.41614 -5.32075 0
M  V30 5236 O 486.457 0.778712 -5.65059 0
M  V30 5237 O 485.391 -1.14296 -5.90948 0
M  V30 5238 H 489.217 -1.52757 -2.62486 0
M  V30 5239 H 486.802 -0.807533 -1.25695 0
M  V30 5240 H 488.684 0.353342 -4.19916 0
M  V30 5241 H 487.359 0.866367 -3.11891 0
M  V30 5242 H 486.266 -1.42592 -3.45859 0
M  V30 5243 H 487.599 -1.85786 -4.5579 0
M  V30 5244 N 489.251 1.34841 -0.815825 0
M  V30 5245 C 490.476 2.03261 -0.41226 0
M  V30 5246 C 490.901 1.61055 0.971751 0
M  V30 5247 O 490.259 0.7917 1.63101 0
M  V30 5248 C 490.307 3.56914 -0.514289 0
M  V30 5249 O 489.411 4.09728 0.468675 0
M  V30 5250 H 488.752 0.641664 -0.170771 0
M  V30 5251 H 491.282 1.72241 -1.10427 0
M  V30 5252 H 491.292 4.06156 -0.387457 0
M  V30 5253 H 489.967 3.86982 -1.52375 0
M  V30 5254 H 488.544 3.71681 0.301316 0
M  V30 5255 N 490.729 0.570148 1.46925 0
M  V30 5256 C 491.976 0.0509529 2.02436 0
M  V30 5257 C 492.304 -1.30405 1.44308 0
M  V30 5258 O 491.559 -1.86493 0.593198 0
M  V30 5259 C 491.858 -0.0780336 3.57315 0
M  V30 5260 C 491.524 1.20775 4.34424 0
M  V30 5261 C 490.186 1.56004 4.5521 0
M  V30 5262 C 492.538 2.0592 4.78797 0
M  V30 5263 C 489.866 2.76201 5.17619 0
M  V30 5264 C 492.218 3.25332 5.42533 0
M  V30 5265 C 490.882 3.60859 5.61549 0
M  V30 5266 H 490.152 0.018645 0.740765 0
M  V30 5267 H 492.799 0.744262 1.76445 0
M  V30 5268 H 491.104 -0.854394 3.82371 0
M  V30 5269 H 492.801 -0.495312 3.97929 0
M  V30 5270 H 489.391 0.923469 4.18533 0
M  V30 5271 H 493.575 1.80008 4.62505 0
M  V30 5272 H 488.831 3.0388 5.30535 0
M  V30 5273 H 493.005 3.91586 5.75876 0
M  V30 5274 H 490.632 4.54088 6.09678 0
M  V30 5275 N 492.207 -1.54576 0.307264 0
M  V30 5276 C 493.484 -1.92377 -0.353605 0
M  V30 5277 C 493.864 -1.23517 -1.71192 0
M  V30 5278 O 493.212 -0.373101 -2.25433 0
M  V30 5279 C 493.422 -3.45928 -0.462039 0
M  V30 5280 C 494.77 -4.18278 -0.729975 0
M  V30 5281 O 495.794 -3.51997 -0.545605 0
M  V30 5282 O 494.653 -5.3563 -1.08454 0
M  V30 5283 H 491.747 -0.802747 -0.198812 0
M  V30 5284 H 494.293 -1.65929 0.355783 0
M  V30 5285 H 493.065 -3.88187 0.492592 0
M  V30 5286 H 492.688 -3.78431 -1.21965 0
M  V30 5287 N 493.685 -0.035106 -1.57561 0
M  V30 5288 C 494.931 0.64318 -1.92331 0
M  V30 5289 C 495.264 1.71434 -0.912368 0
M  V30 5290 O 494.539 1.94395 0.0640303 0
M  V30 5291 C 494.822 1.25411 -3.37556 0
M  V30 5292 C 494.675 0.192109 -4.4939 0
M  V30 5293 C 495.994 2.17041 -3.82859 0
M  V30 5294 H 493.113 0.232341 -0.699419 0
M  V30 5295 H 495.755 -0.0935889 -1.89769 0
M  V30 5296 H 493.905 1.88205 -3.39869 0
M  V30 5297 H 495.577 -0.438849 -4.59208 0
M  V30 5298 H 493.82 -0.481725 -4.31117 0
M  V30 5299 H 494.491 0.659292 -5.48049 0
M  V30 5300 H 496.967 1.64228 -3.8232 0
M  V30 5301 H 495.843 2.56738 -4.85157 0
M  V30 5302 H 496.104 3.06401 -3.18702 0
M  V30 5303 N 495.163 1.55791 0.238111 0
M  V30 5304 C 496.412 1.77234 0.962868 0
M  V30 5305 C 496.725 0.600661 1.86149 0
M  V30 5306 O 497.931 0.698315 2.62366 0
M  V30 5307 C 496.387 3.13808 1.76218 0
M  V30 5308 C 495.995 4.3865 0.910518 0
M  V30 5309 C 497.739 3.44585 2.47914 0
M  V30 5310 C 495.646 5.66252 1.70623 0
M  V30 5311 H 494.576 0.660731 0.36325 0
M  V30 5312 H 497.227 1.8221 0.217242 0
M  V30 5313 H 495.609 3.02963 2.55009 0
M  V30 5314 H 496.783 4.60507 0.164316 0
M  V30 5315 H 495.098 4.15271 0.30647 0
M  V30 5316 H 497.695 4.3714 3.07917 0
M  V30 5317 H 498.038 2.66314 3.19973 0
M  V30 5318 H 498.571 3.56685 1.76127 0
M  V30 5319 H 495.31 6.47369 1.02923 0
M  V30 5320 H 494.83 5.48483 2.42748 0
M  V30 5321 H 496.509 6.05829 2.27114 0
M  V30 5322 N 496.642 -0.504142 1.49319 0
M  V30 5323 C 497.572 -1.61473 1.68667 0
M  V30 5324 C 498.553 -1.61455 0.535378 0
M  V30 5325 O 499.738 -1.78245 0.770868 0
M  V30 5326 C 496.868 -2.99971 1.75028 0
M  V30 5327 C 495.822 -3.14854 2.89916 0
M  V30 5328 C 495.148 -4.54671 2.81387 0
M  V30 5329 C 496.448 -2.95176 4.30893 0
M  V30 5330 H 498.142 -1.45535 2.61648 0
M  V30 5331 H 495.688 -0.698711 1.25913 0
M  V30 5332 H 497.641 -3.77562 1.8715 0
M  V30 5333 H 496.365 -3.1699 0.786441 0
M  V30 5334 H 495.024 -2.39687 2.77391 0
M  V30 5335 H 494.672 -4.68562 1.82917 0
M  V30 5336 H 494.372 -4.6557 3.58494 0
M  V30 5337 H 495.896 -5.34327 2.95512 0
M  V30 5338 H 497.31 -3.62538 4.44116 0
M  V30 5339 H 495.707 -3.17549 5.09198 0
M  V30 5340 H 496.777 -1.91332 4.45556 0
M  V30 5341 N 498.12 -1.38341 -0.754957 0
M  V30 5342 C 499.397 -1.24995 -1.50451 0
M  V30 5343 C 499.777 0.149244 -2.10572 0
M  V30 5344 O 499.125 1.15861 -1.96948 0
M  V30 5345 C 499.335 -2.35904 -2.57197 0
M  V30 5346 C 500.683 -2.74262 -3.24138 0
M  V30 5347 O 501.707 -2.35205 -2.67501 0
M  V30 5348 O 500.566 -3.4161 -4.26574 0
M  V30 5349 H 497.66 -0.48872 -0.667144 0
M  V30 5350 H 500.206 -1.50165 -0.790486 0
M  V30 5351 H 498.978 -3.2953 -2.11011 0
M  V30 5352 H 498.601 -2.12291 -3.36182 0
M  V30 5353 N 499.598 0.982988 -1.23187 0
M  V30 5354 C 500.508 2.10907 -1.02739 0
M  V30 5355 C 501.524 1.73979 0.0273188 0
M  V30 5356 O 502.7 2.00702 -0.16757 0
M  V30 5357 C 499.765 3.41142 -0.618304 0
M  V30 5358 C 498.826 3.92112 -1.74777 0
M  V30 5359 C 498.059 5.16131 -1.3581 0
M  V30 5360 O 498.282 5.6989 -0.241201 0
M  V30 5361 O 497.216 5.61103 -2.17824 0
M  V30 5362 H 501.042 2.31046 -1.97108 0
M  V30 5363 H 498.627 1.09284 -1.01869 0
M  V30 5364 H 500.509 4.19488 -0.400982 0
M  V30 5365 H 499.184 3.2234 0.296421 0
M  V30 5366 H 498.091 3.14895 -2.0197 0
M  V30 5367 H 499.424 4.15364 -2.64071 0
M  V30 5368 N 501.076 1.04316 1.18135 0
M  V30 5369 C 502.024 0.630175 2.23901 0
M  V30 5370 C 503.018 -0.344254 1.65865 0
M  V30 5371 O 504.224 -0.211273 1.78756 0
M  V30 5372 H 500.599 0.185578 0.728742 0
M  V30 5373 H 502.57 1.53253 2.56039 0
M  V30 5374 C 501.319 0.011666 3.47698 0
M  V30 5375 H 500.642 0.752526 3.92654 0
M  V30 5376 H 502.082 -0.240046 4.2332 0
M  V30 5377 C 500.541 -1.23913 3.13285 0
M  V30 5378 O 501.071 -2.32959 3.27251 0
M  V30 5379 N 499.277 -1.13338 2.67587 0
M  V30 5380 H 498.824 -0.246006 2.56423 0
M  V30 5381 H 498.782 -1.97116 2.44934 0
M  V30 5382 N 502.554 -1.34406 0.822964 0
M  V30 5383 C 503.486 -2.28305 0.202375 0
M  V30 5384 C 504.499 -1.5103 -0.60777 0
M  V30 5385 O 505.688 -1.73057 -0.437444 0
M  V30 5386 C 502.788 -3.30836 -0.734911 0
M  V30 5387 C 501.961 -4.37388 0.0324177 0
M  V30 5388 C 501.02 -5.1968 -0.825803 0
M  V30 5389 O 500.046 -5.68556 -0.270771 0
M  V30 5390 N 501.248 -5.39393 -2.14558 0
M  V30 5391 H 504.013 -2.82201 1.00909 0
M  V30 5392 H 501.574 -1.4693 0.67993 0
M  V30 5393 H 503.566 -3.82786 -1.31365 0
M  V30 5394 H 502.136 -2.77334 -1.44238 0
M  V30 5395 H 501.356 -3.86152 0.792469 0
M  V30 5396 H 502.644 -5.05702 0.560633 0
M  V30 5397 H 502.042 -5.01357 -2.62025 0
M  V30 5398 H 500.599 -5.94461 -2.67318 0
M  V30 5399 N 504.032 -0.577932 -1.46621 0
M  V30 5400 C 504.962 0.145917 -2.33044 0
M  V30 5401 C 505.943 0.888412 -1.45056 0
M  V30 5402 O 507.128 0.864812 -1.73881 0
M  V30 5403 C 504.258 1.16322 -3.27241 0
M  V30 5404 C 503.212 0.535868 -4.24632 0
M  V30 5405 C 502.538 1.65929 -5.08303 0
M  V30 5406 C 503.838 -0.523861 -5.19666 0
M  V30 5407 H 505.532 -0.575636 -2.93814 0
M  V30 5408 H 503.078 -0.278272 -1.41286 0
M  V30 5409 H 505.031 1.67793 -3.86553 0
M  V30 5410 H 503.755 1.91498 -2.64567 0
M  V30 5411 H 502.414 0.0422759 -3.66576 0
M  V30 5412 H 502.062 2.40061 -4.42018 0
M  V30 5413 H 501.762 1.2452 -5.74255 0
M  V30 5414 H 503.286 2.17686 -5.70478 0
M  V30 5415 H 504.7 -0.0944059 -5.73222 0
M  V30 5416 H 503.097 -0.858 -5.93935 0
M  V30 5417 H 504.167 -1.41197 -4.63887 0
M  V30 5418 N 505.51 1.54411 -0.315457 0
M  V30 5419 C 506.42 2.27737 0.56329 0
M  V30 5420 C 507.436 1.31787 1.13614 0
M  V30 5421 O 508.612 1.64791 1.15784 0
M  V30 5422 C 505.677 3.01478 1.71207 0
M  V30 5423 C 504.738 4.12997 1.17185 0
M  V30 5424 C 503.971 4.83212 2.26588 0
M  V30 5425 O 504.194 4.52884 3.46775 0
M  V30 5426 O 503.128 5.70299 1.92463 0
M  V30 5427 H 506.954 3.03683 -0.0319614 0
M  V30 5428 H 504.539 1.49178 -0.0814188 0
M  V30 5429 H 506.421 3.47683 2.38106 0
M  V30 5430 H 505.096 2.28414 2.29366 0
M  V30 5431 H 504.003 3.71159 0.468174 0
M  V30 5432 H 505.336 4.8808 0.635501 0
M  V30 5433 N 506.988 0.0434614 1.5754 0
M  V30 5434 C 508.265 -0.671479 1.83713 0
M  V30 5435 C 508.645 -1.89495 0.930315 0
M  V30 5436 O 507.993 -2.28498 -0.0105639 0
M  V30 5437 C 508.203 -1.0361 3.33266 0
M  V30 5438 C 509.551 -1.42167 4.00092 0
M  V30 5439 O 510.575 -1.12866 3.37846 0
M  V30 5440 O 509.434 -1.96817 5.09829 0
M  V30 5441 H 506.528 -0.330726 0.75799 0
M  V30 5442 H 509.074 0.0722373 1.69546 0
M  V30 5443 H 507.846 -0.165938 3.90948 0
M  V30 5444 H 507.469 -1.83751 3.52592 0
M  V30 5445 N 508.466 -1.55915 -0.229846 0
M  V30 5446 C 509.429 -1.90914 -1.26824 0
M  V30 5447 C 510.429 -0.786999 -1.40225 0
M  V30 5448 O 511.619 -1.05484 -1.38632 0
M  V30 5449 C 508.751 -2.15264 -2.64337 0
M  V30 5450 H 509.944 -2.8378 -0.969998 0
M  V30 5451 H 507.497 -1.49069 -0.4699 0
M  V30 5452 H 508.232 -1.24923 -2.99274 0
M  V30 5453 H 508.017 -2.97005 -2.55989 0
M  V30 5454 H 509.507 -2.43467 -3.39284 0
M  V30 5455 N 509.944 0.496216 -1.49584 0
M  V30 5456 C 511.184 1.26015 -1.60933 0
M  V30 5457 C 511.548 1.89772 -0.291646 0
M  V30 5458 O 512.749 2.67334 -0.280357 0
M  V30 5459 C 511.02 2.29506 -2.73974 0
M  V30 5460 S 512.579 3.15175 -3.05303 0
M  V30 5461 H 509.397 0.428194 -0.567601 0
M  V30 5462 H 511.999 0.561484 -1.87263 0
M  V30 5463 H 510.703 1.81205 -3.68229 0
M  V30 5464 H 510.234 3.04036 -2.49651 0
M  V30 5465 H 512.249 4.30244 -2.47193 0
M  V30 5466 N 511.423 1.38739 0.74761 0
M  V30 5467 C 512.333 1.38696 1.89211 0
M  V30 5468 C 513.349 0.283303 1.71678 0
M  V30 5469 O 514.525 0.522713 1.94498 0
M  V30 5470 C 511.59 1.21662 3.24653 0
M  V30 5471 C 510.651 2.41886 3.54669 0
M  V30 5472 C 509.884 2.25655 4.83648 0
M  V30 5473 O 510.107 1.25339 5.56459 0
M  V30 5474 O 509.041 3.14372 5.13277 0
M  V30 5475 H 512.867 2.35143 1.92202 0
M  V30 5476 H 510.452 1.19721 0.893708 0
M  V30 5477 H 512.334 1.14246 4.05618 0
M  V30 5478 H 511.009 0.283024 3.2246 0
M  V30 5479 H 509.916 2.54877 2.73841 0
M  V30 5480 H 511.249 3.33895 3.61628 0
M  V30 5481 N 512.901 -0.976442 1.23707 0
M  V30 5482 C 513.851 -2.0544 0.988851 0
M  V30 5483 C 514.835 -1.60762 -0.0665901 0
M  V30 5484 O 516.027 -1.76396 0.14604 0
M  V30 5485 C 513.156 -3.38258 0.586223 0
M  V30 5486 C 512.242 -3.89523 1.67728 0
M  V30 5487 N 512.633 -4.13823 2.90834 0
M  V30 5488 C 510.931 -4.18097 1.55277 0
M  V30 5489 C 511.632 -4.55731 3.61502 0
M  V30 5490 N 510.608 -4.60394 2.8903 0
M  V30 5491 H 514.41 -2.22191 1.92376 0
M  V30 5492 H 511.924 -1.15954 1.13704 0
M  V30 5493 H 513.921 -4.15075 0.389658 0
M  V30 5494 H 512.581 -3.22898 -0.341594 0
M  V30 5495 H 513.592 -4.01529 3.271 0
M  V30 5496 H 510.269 -4.11719 0.692351 0
M  V30 5497 H 511.659 -4.83018 4.67059 0
M  V30 5498 N 514.379 -1.04941 -1.1758 0
M  V30 5499 C 515.309 -0.669172 -2.23706 0
M  V30 5500 C 516.29 0.331835 -1.66832 0
M  V30 5501 O 517.475 0.209988 -1.93061 0
M  V30 5502 C 514.605 -0.0404889 -3.47276 0
M  V30 5503 C 513.559 -0.965983 -4.16957 0
M  V30 5504 C 512.885 -0.201312 -5.34321 0
M  V30 5505 C 514.185 -2.28902 -4.69469 0
M  V30 5506 H 515.879 -1.55639 -2.55767 0
M  V30 5507 H 513.425 -0.749793 -1.22939 0
M  V30 5508 H 515.378 0.237298 -4.20731 0
M  V30 5509 H 514.102 0.881658 -3.14475 0
M  V30 5510 H 512.761 -1.22829 -3.45411 0
M  V30 5511 H 512.409 0.723519 -4.97769 0
M  V30 5512 H 512.109 -0.817968 -5.81879 0
M  V30 5513 H 513.633 0.0692499 -6.10561 0
M  V30 5514 H 515.047 -2.07132 -5.34574 0
M  V30 5515 H 513.444 -2.85942 -5.27596 0
M  V30 5516 H 514.514 -2.92937 -3.86414 0
M  V30 5517 N 515.857 1.33968 -0.830081 0
M  V30 5518 C 516.82 2.27694 -0.26235 0
M  V30 5519 C 517.82 1.50589 0.563876 0
M  V30 5520 O 519.01 1.70028 0.378941 0
M  V30 5521 C 516.142 3.35002 0.63138 0
M  V30 5522 H 517.335 2.79419 -1.08928 0
M  V30 5523 H 514.888 1.44221 -0.602486 0
M  V30 5524 H 515.623 2.88504 1.48109 0
M  V30 5525 H 515.408 3.92079 0.0403276 0
M  V30 5526 H 516.898 4.04897 1.02217 0
M  V30 5527 N 517.335 0.585699 1.46312 0
M  V30 5528 C 518.245 -0.148236 2.34131 0
M  V30 5529 C 519.261 -0.882972 1.49932 0
M  V30 5530 O 520.437 -0.845484 1.82794 0
M  V30 5531 C 517.502 -1.14714 3.27172 0
M  V30 5532 C 516.563 -0.416746 4.27272 0
M  V30 5533 C 515.796 -1.36806 5.15868 0
M  V30 5534 O 516.019 -2.60475 5.07454 0
M  V30 5535 O 514.953 -0.877018 5.95476 0
M  V30 5536 H 518.779 0.572882 2.98248 0
M  V30 5537 H 516.364 0.346082 1.45336 0
M  V30 5538 H 518.246 -1.72303 3.84564 0
M  V30 5539 H 516.921 -1.84967 2.65648 0
M  V30 5540 H 515.828 0.201061 3.73559 0
M  V30 5541 H 517.161 0.244872 4.9159 0
M  V30 5542 N 518.813 -1.54241 0.323641 0
M  V30 5543 C 520.043 -2.04687 -0.280464 0
M  V30 5544 C 520.451 -1.19939 -1.46326 0
M  V30 5545 O 519.794 -0.222872 -1.82343 0
M  V30 5546 C 519.856 -3.50978 -0.778123 0
M  V30 5547 C 519.52 -4.56127 0.282371 0
M  V30 5548 C 520.517 -5.07726 1.11847 0
M  V30 5549 C 518.202 -5.00451 0.430582 0
M  V30 5550 C 520.196 -6.02212 2.08851 0
M  V30 5551 C 517.883 -5.94752 1.40404 0
M  V30 5552 C 518.881 -6.45519 2.23147 0
M  V30 5553 O 518.569 -7.37968 3.1884 0
M  V30 5554 H 518.301 -0.673192 -0.0615473 0
M  V30 5555 H 520.855 -1.99999 0.467921 0
M  V30 5556 H 519.085 -3.53064 -1.57742 0
M  V30 5557 H 520.774 -3.84499 -1.30058 0
M  V30 5558 H 521.54 -4.74261 1.01496 0
M  V30 5559 H 517.419 -4.6055 -0.203569 0
M  V30 5560 H 520.963 -6.41761 2.73474 0
M  V30 5561 H 516.86 -6.27633 1.5082 0
M  V30 5562 H 517.628 -7.55841 3.14079 0
M  V30 5563 N 520.291 -0.0518155 -1.57515 0
M  V30 5564 C 521.221 0.920283 -2.146 0
M  V30 5565 C 522.202 1.32406 -1.06783 0
M  V30 5566 O 523.387 1.39866 -1.34726 0
M  V30 5567 C 520.517 2.1949 -2.6915 0
M  V30 5568 C 519.471 1.93116 -3.81956 0
M  V30 5569 C 518.797 3.27037 -4.23026 0
M  V30 5570 C 520.097 1.25225 -5.07066 0
M  V30 5571 H 521.791 0.444801 -2.96077 0
M  V30 5572 H 519.337 0.212508 -1.42423 0
M  V30 5573 H 521.29 2.87894 -3.07725 0
M  V30 5574 H 520.014 2.69244 -1.84865 0
M  V30 5575 H 518.673 1.27123 -3.43854 0
M  V30 5576 H 518.321 3.74595 -3.3569 0
M  V30 5577 H 518.021 3.10189 -4.99056 0
M  V30 5578 H 519.545 3.96673 -4.64202 0
M  V30 5579 H 520.959 1.83666 -5.43083 0
M  V30 5580 H 519.356 1.18702 -5.88243 0
M  V30 5581 H 520.426 0.228382 -4.84362 0
M  V30 5582 N 521.769 1.56035 0.221574 0
M  V30 5583 C 522.679 1.95581 1.29558 0
M  V30 5584 C 523.695 0.859639 1.51282 0
M  V30 5585 O 524.871 1.16321 1.64413 0
M  V30 5586 C 521.936 2.26447 2.62531 0
M  V30 5587 C 520.997 3.49632 2.4911 0
M  V30 5588 C 520.23 3.79017 3.75742 0
M  V30 5589 O 520.453 3.10077 4.78757 0
M  V30 5590 O 519.387 4.72507 3.72855 0
M  V30 5591 H 523.213 2.8711 0.990035 0
M  V30 5592 H 520.798 1.43244 0.424434 0
M  V30 5593 H 522.68 2.47494 3.41064 0
M  V30 5594 H 521.355 1.38092 2.92766 0
M  V30 5595 H 520.262 3.33864 1.68777 0
M  V30 5596 H 521.595 4.3837 2.23814 0
M  V30 5597 N 523.247 -0.488276 1.49845 0
M  V30 5598 C 524.493 -1.24341 1.6021 0
M  V30 5599 C 524.826 -1.91967 0.293651 0
M  V30 5600 O 524.101 -1.81323 -0.703718 0
M  V30 5601 C 524.384 -2.3005 2.77036 0
M  V30 5602 C 524.237 -1.66842 4.17713 0
M  V30 5603 C 525.556 -3.31509 2.89464 0
M  V30 5604 H 522.675 -0.450704 0.583125 0
M  V30 5605 H 525.317 -0.539673 1.82174 0
M  V30 5606 H 523.467 -2.90071 2.58439 0
M  V30 5607 H 525.139 -1.1055 4.47858 0
M  V30 5608 H 523.382 -0.972079 4.22768 0
M  V30 5609 H 524.053 -2.43576 4.95353 0
M  V30 5610 H 526.529 -2.81493 3.06433 0
M  V30 5611 H 525.405 -4.02822 3.72861 0
M  V30 5612 H 525.666 -3.94603 1.99351 0
M  V30 5613 N 524.725 -1.39134 -0.740242 0
M  V30 5614 C 525.955 -1.39132 -1.52728 0
M  V30 5615 C 526.363 0.0173133 -1.89192 0
M  V30 5616 O 525.706 0.997715 -1.54244 0
M  V30 5617 C 525.768 -2.1952 -2.84695 0
M  V30 5618 C 525.432 -3.68203 -2.70695 0
M  V30 5619 C 526.429 -4.61401 -2.39593 0
M  V30 5620 C 524.114 -4.11724 -2.8773 0
M  V30 5621 C 526.108 -5.96102 -2.25701 0
M  V30 5622 C 523.795 -5.46503 -2.73456 0
M  V30 5623 C 524.793 -6.38506 -2.42486 0
M  V30 5624 O 524.481 -7.70803 -2.28295 0
M  V30 5625 H 524.213 -0.477263 -0.478744 0
M  V30 5626 H 526.767 -1.83504 -0.922799 0
M  V30 5627 H 524.997 -1.69888 -3.47383 0
M  V30 5628 H 526.686 -2.1176 -3.46284 0
M  V30 5629 H 527.452 -4.29079 -2.26088 0
M  V30 5630 H 523.331 -3.4045 -3.10829 0
M  V30 5631 H 526.875 -6.6788 -2.0145 0
M  V30 5632 H 522.772 -5.78417 -2.86538 0
M  V30 5633 H 523.54 -7.8147 -2.43405 0
M  V30 5634 N 526.204 0.969867 -1.24223 0
M  V30 5635 C 527.45 1.71582 -1.09231 0
M  V30 5636 C 527.805 1.88898 0.365432 0
M  V30 5637 O 527.098 1.43781 1.2664 0
M  V30 5638 C 527.292 3.10883 -1.76314 0
M  V30 5639 C 527.121 3.07155 -3.2846 0
M  V30 5640 C 525.891 3.11757 -3.97663 0
M  V30 5641 C 528.089 2.895 -4.25082 0
M  V30 5642 N 526.071 2.98025 -5.36707 0
M  V30 5643 C 527.442 2.84041 -5.51109 0
M  V30 5644 C 529.497 2.74064 -4.15684 0
M  V30 5645 C 528.2 2.64725 -6.68815 0
M  V30 5646 C 530.226 2.56115 -5.33066 0
M  V30 5647 C 529.588 2.51363 -6.58024 0
M  V30 5648 H 525.687 0.636496 -0.454309 0
M  V30 5649 H 528.271 1.15004 -1.57106 0
M  V30 5650 H 526.442 3.65657 -1.30955 0
M  V30 5651 H 528.174 3.74171 -1.54201 0
M  V30 5652 H 524.929 3.20352 -3.48814 0
M  V30 5653 H 525.353 2.94405 -6.09635 0
M  V30 5654 H 529.995 2.76521 -3.19837 0
M  V30 5655 H 527.713 2.61011 -7.64787 0
M  V30 5656 H 531.299 2.45119 -5.27644 0
M  V30 5657 H 530.179 2.37651 -7.47323 0
M  V30 5658 N 527.682 1.05563 1.17022 0
M  V30 5659 C 529.098 0.777684 1.39371 0
M  V30 5660 C 529.298 -0.626269 1.91521 0
M  V30 5661 O 528.354 -1.38806 2.10924 0
M  V30 5662 C 529.667 1.83642 2.3811 0
M  V30 5663 C 531.215 1.85907 2.51809 0
M  V30 5664 C 531.69 2.90813 3.53824 0
M  V30 5665 N 533.181 2.898 3.61345 0
M  V30 5666 C 533.916 3.6762 4.40049 0
M  V30 5667 N 533.412 4.55237 5.22237 0
M  V30 5668 N 535.205 3.56044 4.34959 0
M  V30 5669 H 527.356 1.9614 0.815047 0
M  V30 5670 H 529.619 0.849527 0.420722 0
M  V30 5671 H 529.325 2.84425 2.06871 0
M  V30 5672 H 529.199 1.6812 3.37662 0
M  V30 5673 H 531.586 0.857865 2.82356 0
M  V30 5674 H 531.667 2.05506 1.52318 0
M  V30 5675 H 531.311 3.91122 3.24015 0
M  V30 5676 H 531.241 2.68465 4.53028 0
M  V30 5677 H 533.732 2.26274 3.02669 0
M  V30 5678 H 534.045 5.11291 5.79484 0
M  V30 5679 H 532.39 4.59296 5.21605 0
M  V30 5680 H 535.581 2.86986 3.69806 0
M  V30 5681 H 535.754 4.16938 4.96051 0
M  V30 5682 N 529.16 -1.33526 0.837174 0
M  V30 5683 C 530.123 -2.27551 0.274421 0
M  V30 5684 C 531.123 -1.50886 -0.555881 0
M  V30 5685 O 532.313 -1.70227 -0.369918 0
M  V30 5686 C 529.445 -3.35332 -0.613605 0
M  V30 5687 H 530.638 -2.78837 1.10408 0
M  V30 5688 H 528.191 -1.439 0.610126 0
M  V30 5689 H 528.926 -2.89285 -1.46577 0
M  V30 5690 H 528.711 -3.92095 -0.0195341 0
M  V30 5691 H 530.201 -4.05433 -1.00068 0
M  V30 5692 N 530.638 -0.59345 -1.46 0
M  V30 5693 C 531.866 -0.0890934 -2.06708 0
M  V30 5694 C 532.281 1.2205 -1.44046 0
M  V30 5695 O 531.638 1.74029 -0.549551 0
M  V30 5696 C 531.689 0.0720263 -3.61428 0
M  V30 5697 O 531.41 -1.18574 -4.21748 0
M  V30 5698 C 532.911 0.609487 -4.3909 0
M  V30 5699 H 530.131 -0.0623628 -0.668096 0
M  V30 5700 H 532.675 -0.817171 -1.87464 0
M  V30 5701 H 530.83 0.750369 -3.80063 0
M  V30 5702 H 531.244 -1.0064 -5.14754 0
M  V30 5703 H 532.718 0.671363 -5.47902 0
M  V30 5704 H 533.195 1.62878 -4.07882 0
M  V30 5705 H 533.801 -0.03434 -4.25286 0
M  V30 5706 N 532.116 1.54067 -0.331816 0
M  V30 5707 C 533.066 2.21363 0.546101 0
M  V30 5708 C 534.05 1.19698 1.07523 0
M  V30 5709 O 535.242 1.45293 1.01088 0
M  V30 5710 C 532.371 2.98115 1.70242 0
M  V30 5711 C 531.457 4.07127 1.18779 0
M  V30 5712 N 531.848 5.04267 0.393465 0
M  V30 5713 C 530.146 4.21226 1.46576 0
M  V30 5714 C 530.847 5.81585 0.115572 0
M  V30 5715 N 529.823 5.39022 0.703987 0
M  V30 5716 H 533.625 2.93821 -0.0679751 0
M  V30 5717 H 531.139 1.61812 -0.138085 0
M  V30 5718 H 533.136 3.44818 2.34321 0
M  V30 5719 H 531.796 2.27181 2.31989 0
M  V30 5720 H 532.807 5.17888 0.0355757 0
M  V30 5721 H 529.484 3.61509 2.08848 0
M  V30 5722 H 530.874 6.6985 -0.524426 0
M  V30 5723 N 533.594 0.0601682 1.57485 0
M  V30 5724 C 534.544 -0.920969 2.08572 0
M  V30 5725 C 535.528 -1.26617 0.992827 0
M  V30 5726 O 536.72 -1.24708 1.25606 0
M  V30 5727 C 533.849 -2.19267 2.64153 0
M  V30 5728 C 532.935 -1.87447 3.80427 0
M  V30 5729 N 533.326 -1.26025 4.89848 0
M  V30 5730 C 531.624 -2.17265 3.89502 0
M  V30 5731 C 532.325 -1.12036 5.70809 0
M  V30 5732 N 531.301 -1.62624 5.18705 0
M  V30 5733 H 535.103 -0.441561 2.90564 0
M  V30 5734 H 532.617 -0.144043 1.6176 0
M  V30 5735 H 534.614 -2.90462 2.99061 0
M  V30 5736 H 533.274 -2.67806 1.83603 0
M  V30 5737 H 534.285 -0.931336 5.09457 0
M  V30 5738 H 530.962 -2.68262 3.19909 0
M  V30 5739 H 532.352 -0.642783 6.68818 0
M  V30 5740 N 535.072 -1.5615 -0.213296 0
M  V30 5741 C 536.483 -1.69645 -0.779582 0
M  V30 5742 C 536.834 -0.663615 -1.84636 0
M  V30 5743 O 535.959 0.183633 -2.15619 0
M  V30 5744 C 536.554 -3.07567 -1.42084 0
M  V30 5745 C 535.113 -3.22889 -1.93442 0
M  V30 5746 C 534.26 -2.65581 -0.797612 0
M  V30 5747 H 537.211 -1.58696 0.0114951 0
M  V30 5748 H 537.232 -3.03884 -2.28986 0
M  V30 5749 H 536.744 -3.82716 -0.644187 0
M  V30 5750 H 534.845 -2.52623 -2.73884 0
M  V30 5751 H 534.958 -4.30197 -2.10872 0
M  V30 5752 H 533.322 -2.24278 -1.20712 0
M  V30 5753 H 534.105 -3.43284 -0.033494 0
M  V30 5754 N 536.55 0.480323 -1.50102 0
M  V30 5755 C 537.513 1.56181 -1.6775 0
M  V30 5756 C 538.513 1.51156 -0.548503 0
M  V30 5757 O 539.703 1.5394 -0.815363 0
M  V30 5758 C 536.835 2.95823 -1.69415 0
M  V30 5759 H 538.028 1.41855 -2.6423 0
M  V30 5760 H 535.581 0.70605 -1.39444 0
M  V30 5761 H 536.316 3.15604 -0.745948 0
M  V30 5762 H 536.101 3.00878 -2.51425 0
M  V30 5763 H 537.591 3.74359 -1.85054 0
M  V30 5764 N 538.028 1.39524 0.732853 0
M  V30 5765 C 539.439 1.32905 1.31122 0
M  V30 5766 C 539.79 -0.00558708 1.96199 0
M  V30 5767 O 538.915 -0.907706 1.96443 0
M  V30 5768 C 539.51 2.40704 2.38426 0
M  V30 5769 C 538.069 2.37599 2.91931 0
M  V30 5770 C 537.216 2.2248 1.65523 0
M  V30 5771 H 540.167 1.49581 0.530207 0
M  V30 5772 H 540.188 2.07616 3.18867 0
M  V30 5773 H 539.7 3.37829 1.91033 0
M  V30 5774 H 537.801 1.44119 3.43599 0
M  V30 5775 H 537.914 3.32538 3.44899 0
M  V30 5776 H 536.278 1.69691 1.8994 0
M  V30 5777 H 537.061 3.21577 1.20178 0
M  V30 5778 N 539.506 -0.963266 1.24736 0
M  V30 5779 C 540.754 -1.70343 1.08755 0
M  V30 5780 C 541.075 -1.91387 -0.373619 0
M  V30 5781 O 540.345 -1.4948 -1.2662 0
M  V30 5782 H 538.925 -0.631224 0.399456 0
M  V30 5783 H 541.587 -1.15859 1.56725 0
M  V30 5784 H 540.683 -2.68616 1.58909 0
M  V30 5785 N 540.985 -1.06182 -1.16461 0
M  V30 5786 C 542.396 -0.802426 -1.68576 0
M  V30 5787 C 542.747 0.67412 -1.84255 0
M  V30 5788 O 541.872 1.52303 -1.5373 0
M  V30 5789 C 542.467 -1.45002 -3.06202 0
M  V30 5790 C 541.026 -1.23843 -3.55443 0
M  V30 5791 C 540.173 -1.52724 -2.31454 0
M  V30 5792 H 543.124 -1.22545 -1.00839 0
M  V30 5793 H 543.145 -0.864731 -3.70544 0
M  V30 5794 H 542.657 -2.52466 -2.94759 0
M  V30 5795 H 540.758 -0.183487 -3.72148 0
M  V30 5796 H 540.871 -1.95036 -4.37604 0
M  V30 5797 H 539.235 -0.947726 -2.36411 0
M  V30 5798 H 540.018 -2.61343 -2.22609 0
M  V30 5799 N 542.463 1.3308 -0.844243 0
M  V30 5800 C 543.711 1.97215 -0.441676 0
M  V30 5801 C 544.032 1.67185 1.0037 0
M  V30 5802 O 543.302 0.973588 1.69994 0
M  V30 5803 H 541.882 0.72959 -0.160335 0
M  V30 5804 H 544.544 1.62348 -1.07838 0
M  V30 5805 H 543.64 3.06698 -0.57815 0
M  V30 5806 N 543.941 0.601185 1.45683 0
M  V30 5807 C 544.871 -0.108824 2.33246 0
M  V30 5808 C 545.852 -0.865223 1.46451 0
M  V30 5809 O 547.037 -0.83704 1.75235 0
M  V30 5810 C 544.167 -1.11101 3.2905 0
M  V30 5811 C 543.121 -0.468244 4.25431 0
M  V30 5812 C 542.447 -1.57822 5.10878 0
M  V30 5813 C 543.747 0.606469 5.18767 0
M  V30 5814 H 545.441 0.622306 2.92861 0
M  V30 5815 H 542.987 0.300714 1.40825 0
M  V30 5816 H 544.94 -1.61622 3.89174 0
M  V30 5817 H 543.664 -1.87265 2.67581 0
M  V30 5818 H 542.323 0.0160484 3.66596 0
M  V30 5819 H 541.971 -2.32998 4.45781 0
M  V30 5820 H 541.671 -1.15369 5.76163 0
M  V30 5821 H 543.195 -2.08583 5.73869 0
M  V30 5822 H 544.609 0.185589 5.73 0
M  V30 5823 H 543.006 0.952381 5.92494 0
M  V30 5824 H 544.076 1.48559 4.61582 0
M  V30 5825 N 545.419 -1.53889 0.339982 0
M  V30 5826 C 546.349 -2.27843 -0.510856 0
M  V30 5827 C 547.33 -1.29267 -1.10563 0
M  V30 5828 O 548.515 -1.58104 -1.12768 0
M  V30 5829 C 545.645 -3.04857 -1.66372 0
M  V30 5830 C 544.599 -4.10907 -1.19746 0
M  V30 5831 C 543.925 -4.75855 -2.43857 0
M  V30 5832 C 545.225 -5.21435 -0.300501 0
M  V30 5833 H 546.919 -2.99212 0.106067 0
M  V30 5834 H 544.465 -1.43904 0.0524533 0
M  V30 5835 H 546.418 -3.5533 -2.26537 0
M  V30 5836 H 545.142 -2.31133 -2.30749 0
M  V30 5837 H 543.801 -3.61342 -0.618654 0
M  V30 5838 H 543.449 -3.9873 -3.06633 0
M  V30 5839 H 543.149 -5.47502 -2.13343 0
M  V30 5840 H 544.673 -5.2911 -3.04754 0
M  V30 5841 H 546.087 -5.67565 -0.80889 0
M  V30 5842 H 544.484 -6.00036 -0.0874076 0
M  V30 5843 H 545.554 -4.80328 0.664321 0
M  V30 5844 N 546.897 -0.0685191 -1.57451 0
M  V30 5845 C 548.145 0.60016 -1.92983 0
M  V30 5846 C 548.466 1.70348 -0.949028 0
M  V30 5847 O 547.736 1.959 0.00335647 0
M  V30 5848 H 546.316 0.224682 -0.712409 0
M  V30 5849 H 548.978 -0.125605 -1.94495 0
M  V30 5850 H 548.074 1.02759 -2.94698 0
M  V30 5851 N 548.375 1.56261 0.205012 0
M  V30 5852 C 549.786 1.70056 0.770574 0
M  V30 5853 C 550.137 0.673398 1.84282 0
M  V30 5854 O 549.262 -0.172196 2.15714 0
M  V30 5855 C 549.857 3.08316 1.40451 0
M  V30 5856 C 548.416 3.2391 1.91727 0
M  V30 5857 C 547.563 2.66001 0.783516 0
M  V30 5858 H 550.514 1.58688 -0.019911 0
M  V30 5859 H 550.535 3.05094 2.27371 0
M  V30 5860 H 550.047 3.83053 0.623882 0
M  V30 5861 H 548.148 2.54072 2.7254 0
M  V30 5862 H 548.261 4.3131 2.08588 0
M  V30 5863 H 546.625 2.24915 1.19521 0
M  V30 5864 H 547.408 3.43297 0.0152883 0
M  V30 5865 N 549.853 -0.472356 1.50355 0
M  V30 5866 C 551.264 -1.05326 1.54154 0
M  V30 5867 C 551.615 -1.93155 0.344303 0
M  V30 5868 O 550.74 -2.09479 -0.542928 0
M  V30 5869 C 551.335 -1.91691 2.79356 0
M  V30 5870 C 549.894 -2.44892 2.8584 0
M  V30 5871 C 549.041 -1.23205 2.48426 0
M  V30 5872 H 551.992 -0.255027 1.56637 0
M  V30 5873 H 552.013 -2.76742 2.6114 0
M  V30 5874 H 551.525 -1.27741 3.66475 0
M  V30 5875 H 549.626 -3.12399 2.0307 0
M  V30 5876 H 549.739 -2.80086 3.88701 0
M  V30 5877 H 548.103 -1.56643 2.00836 0
M  V30 5878 H 548.886 -0.609194 3.37852 0
M  V30 5879 N 551.331 -1.39911 -0.725443 0
M  V30 5880 C 552.556 -1.41137 -1.5197 0
M  V30 5881 C 552.981 -0.010262 -1.88097 0
M  V30 5882 O 552.339 0.979184 -1.52583 0
M  V30 5883 C 552.387 -2.2994 -2.77777 0
M  V30 5884 O 551.491 -1.73586 -3.74088 0
M  V30 5885 H 550.832 -0.480219 -0.458569 0
M  V30 5886 H 553.362 -1.84023 -0.894249 0
M  V30 5887 H 553.372 -2.44785 -3.26411 0
M  V30 5888 H 552.047 -3.31759 -2.50816 0
M  V30 5889 H 550.624 -1.68035 -3.32894 0
M  V30 5890 N 552.809 0.956637 -1.25245 0
M  V30 5891 C 553.772 2.03457 -1.05537 0
M  V30 5892 C 554.772 1.60798 -0.00886317 0
M  V30 5893 O 555.962 1.72384 -0.250865 0
M  V30 5894 C 553.094 3.35543 -0.601965 0
M  V30 5895 H 554.287 2.22372 -2.01223 0
M  V30 5896 H 551.84 1.13344 -1.07623 0
M  V30 5897 H 552.575 3.22323 0.357584 0
M  V30 5898 H 552.36 3.67854 -1.35743 0
M  V30 5899 H 553.85 4.14769 -0.485454 0
M  V30 5900 N 554.287 1.06798 1.15896 0
M  V30 5901 C 555.536 0.782796 1.8589 0
M  V30 5902 C 555.849 -0.693498 1.82893 0
M  V30 5903 O 557.055 -1.09325 2.48516 0
M  V30 5904 C 555.511 1.3502 3.33613 0
M  V30 5905 C 555.119 2.8571 3.45071 0
M  V30 5906 C 556.863 1.14278 4.08829 0
M  V30 5907 C 554.77 3.35669 4.86909 0
M  V30 5908 H 553.7 0.289149 0.696354 0
M  V30 5909 H 556.351 1.28734 1.30766 0
M  V30 5910 H 554.733 0.773407 3.88374 0
M  V30 5911 H 555.907 3.49385 3.00445 0
M  V30 5912 H 554.222 3.05178 2.83294 0
M  V30 5913 H 556.819 1.49087 5.13495 0
M  V30 5914 H 557.162 0.0814575 4.1622 0
M  V30 5915 H 557.695 1.68563 3.60321 0
M  V30 5916 H 554.434 4.41302 4.84698 0
M  V30 5917 H 553.954 2.76745 5.32139 0
M  V30 5918 H 555.633 3.31296 5.55745 0
M  V30 5919 N 555.766 -1.3263 0.851289 0
M  V30 5920 C 557.177 -1.79653 0.5081 0
M  V30 5921 C 557.528 -1.70327 -0.973815 0
M  V30 5922 O 556.653 -1.25986 -1.75944 0
M  V30 5923 C 557.248 -3.26196 0.915515 0
M  V30 5924 C 555.807 -3.71187 0.624277 0
M  V30 5925 C 554.954 -2.53804 1.11709 0
M  V30 5926 H 557.905 -1.19976 1.03882 0
M  V30 5927 H 557.926 -3.79801 0.230535 0
M  V30 5928 H 557.438 -3.32952 1.99411 0
M  V30 5929 H 555.539 -3.69948 -0.443737 0
M  V30 5930 H 555.652 -4.64132 1.18821 0
M  V30 5931 H 554.016 -2.48964 0.537484 0
M  V30 5932 H 554.799 -2.63315 2.20272 0
M  V30 5933 N 557.244 -0.608902 -1.45362 0
M  V30 5934 C 558.492 -0.104401 -2.0183 0
M  V30 5935 C 558.813 1.27007 -1.47967 0
M  V30 5936 O 558.083 1.83924 -0.674455 0
M  V30 5937 H 556.663 -0.0356042 -0.746151 0
M  V30 5938 H 559.325 -0.790596 -1.78145 0
M  V30 5939 H 558.421 -0.0551793 -3.12051 0
M  V30 5940 N 558.722 1.53707 -0.348139 0
M  V30 5941 C 559.652 2.28111 0.498766 0
M  V30 5942 C 560.633 1.29851 1.09876 0
M  V30 5943 O 561.818 1.587 1.11928 0
M  V30 5944 C 558.948 3.05735 1.64753 0
M  V30 5945 C 557.902 4.11537 1.17565 0
M  V30 5946 C 557.228 4.77142 2.4133 0
M  V30 5947 C 558.528 5.21587 0.272844 0
M  V30 5948 H 560.222 2.99152 -0.121934 0
M  V30 5949 H 557.768 1.43875 -0.0600842 0
M  V30 5950 H 559.721 3.56526 2.24649 0
M  V30 5951 H 558.445 2.32354 2.2952 0
M  V30 5952 H 557.104 3.61665 0.599483 0
M  V30 5953 H 556.752 4.0035 3.04514 0
M  V30 5954 H 556.452 5.48626 2.10436 0
M  V30 5955 H 557.976 5.30719 3.01943 0
M  V30 5956 H 559.39 5.67986 0.778779 0
M  V30 5957 H 557.787 6.00074 0.0555849 0
M  V30 5958 H 558.857 4.79969 -0.689785 0
M  V30 5959 N 560.2 0.0768682 1.57412 0
M  V30 5960 C 561.132 -0.918248 2.10002 0
M  V30 5961 C 562.145 -1.25808 1.03325 0
M  V30 5962 O 563.334 -1.21438 1.30824 0
M  V30 5963 C 560.434 -2.23263 2.54964 0
M  V30 5964 C 559.607 -2.07088 3.8527 0
M  V30 5965 C 558.666 -3.21876 4.16272 0
M  V30 5966 O 557.692 -2.96643 4.8579 0
M  V30 5967 N 558.894 -4.4712 3.70221 0
M  V30 5968 H 561.659 -0.469209 2.96004 0
M  V30 5969 H 559.22 -0.108725 1.61535 0
M  V30 5970 H 561.212 -2.9897 2.72762 0
M  V30 5971 H 559.782 -2.59649 1.74072 0
M  V30 5972 H 559.002 -1.15818 3.76802 0
M  V30 5973 H 560.29 -1.93537 4.70554 0
M  V30 5974 H 559.688 -4.70506 3.1407 0
M  V30 5975 H 558.245 -5.19837 3.93209 0
M  V30 5976 N 561.678 -1.56367 -0.196722 0
M  V30 5977 C 562.626 -1.95304 -1.2633 0
M  V30 5978 C 563.62 -0.838252 -1.47206 0
M  V30 5979 O 564.826 -1.02325 -1.48087 0
M  V30 5980 H 561.201 -0.621013 -0.424083 0
M  V30 5981 H 563.172 -2.84254 -0.907879 0
M  V30 5982 C 561.921 -2.3074 -2.60104 0
M  V30 5983 H 561.244 -3.16047 -2.44856 0
M  V30 5984 H 562.684 -2.61849 -3.33484 0
M  V30 5985 C 561.143 -1.14143 -3.16975 0
M  V30 5986 O 561.673 -0.415602 -3.99544 0
M  V30 5987 N 559.879 -0.91867 -2.75697 0
M  V30 5988 H 559.426 -1.51065 -2.08656 0
M  V30 5989 H 559.384 -0.140321 -3.14087 0
M  V30 5990 N 563.156 0.464375 -1.50603 0
M  V30 5991 C 564.088 1.57916 -1.66118 0
M  V30 5992 C 565.101 1.53497 -0.54246 0
M  V30 5993 O 566.29 1.58763 -0.815877 0
M  V30 5994 C 563.39 2.96809 -1.63577 0
M  V30 5995 C 562.563 3.26026 -2.91592 0
M  V30 5996 C 561.622 4.44506 -2.81604 0
M  V30 5997 O 560.648 4.44484 -3.55559 0
M  V30 5998 N 561.85 5.46549 -1.95614 0
M  V30 5999 H 564.615 1.45022 -2.62276 0
M  V30 6000 H 562.176 0.652903 -1.48151 0
M  V30 6001 H 564.168 3.74048 -1.54499 0
M  V30 6002 H 562.738 3.03438 -0.751262 0
M  V30 6003 H 561.958 2.37337 -3.14746 0
M  V30 6004 H 563.246 3.42361 -3.76386 0
M  V30 6005 H 562.644 5.49391 -1.34854 0
M  V30 6006 H 561.201 6.22746 -1.92435 0
M  V30 6007 N 564.634 1.40294 0.718013 0
M  V30 6008 C 565.566 1.36281 1.84283 0
M  V30 6009 C 566.579 0.268621 1.60569 0
M  V30 6010 O 567.768 0.528798 1.70487 0
M  V30 6011 C 564.868 1.09741 3.2064 0
M  V30 6012 C 564.041 2.30767 3.71571 0
M  V30 6013 C 563.1 2.00424 4.86535 0
M  V30 6014 O 562.126 2.73268 4.99313 0
M  V30 6015 N 563.328 0.980724 5.72156 0
M  V30 6016 H 566.093 2.3322 1.88225 0
M  V30 6017 H 563.654 1.34616 0.899453 0
M  V30 6018 H 565.646 0.874322 3.95143 0
M  V30 6019 H 564.216 0.214771 3.11861 0
M  V30 6020 H 563.436 2.68921 2.88228 0
M  V30 6021 H 564.724 3.11455 4.02335 0
M  V30 6022 H 564.122 0.377375 5.6444 0
M  V30 6023 H 562.679 0.817538 6.46653 0
M  V30 6024 N 566.112 -0.949982 1.2575 0
M  V30 6025 C 567.042 -2.06483 1.09028 0
M  V30 6026 C 568.023 -1.701 -0.00201532 0
M  V30 6027 O 569.208 -1.93469 0.168383 0
M  V30 6028 C 566.338 -3.39899 0.71316 0
M  V30 6029 C 565.292 -3.90309 1.75621 0
M  V30 6030 C 564.618 -5.20274 1.23365 0
M  V30 6031 C 565.918 -4.16169 3.15596 0
M  V30 6032 H 567.612 -2.20731 2.02283 0
M  V30 6033 H 565.158 -1.06066 0.973964 0
M  V30 6034 H 567.111 -4.17346 0.58309 0
M  V30 6035 H 565.835 -3.25602 -0.255091 0
M  V30 6036 H 564.494 -3.15035 1.8748 0
M  V30 6037 H 564.142 -5.02351 0.255491 0
M  V30 6038 H 563.842 -5.54971 1.93082 0
M  V30 6039 H 565.366 -6.00314 1.11607 0
M  V30 6040 H 566.78 -4.84259 3.06864 0
M  V30 6041 H 565.177 -4.62131 3.82825 0
M  V30 6042 H 566.247 -3.22273 3.6231 0
M  V30 6043 N 567.59 -1.07411 -1.15328 0
M  V30 6044 C 568.52 -0.716472 -2.22236 0
M  V30 6045 C 569.501 0.296373 -1.67498 0
M  V30 6046 O 570.686 0.168989 -1.93463 0
M  V30 6047 C 567.816 -0.114142 -3.47112 0
M  V30 6048 C 566.77 -1.05421 -4.14814 0
M  V30 6049 C 566.096 -0.314604 -5.33774 0
M  V30 6050 C 567.396 -2.38808 -4.64508 0
M  V30 6051 H 569.09 -1.61029 -2.52408 0
M  V30 6052 H 566.636 -0.775702 -1.21321 0
M  V30 6053 H 568.589 0.148001 -4.2114 0
M  V30 6054 H 567.313 0.814755 -3.16274 0
M  V30 6055 H 565.972 -1.30128 -3.42728 0
M  V30 6056 H 565.62 0.617772 -4.99192 0
M  V30 6057 H 565.32 -0.941209 -5.80013 0
M  V30 6058 H 566.844 -0.0602747 -6.1057 0
M  V30 6059 H 568.258 -2.18424 -5.3006 0
M  V30 6060 H 566.655 -2.97069 -5.21412 0
M  V30 6061 H 567.725 -3.01067 -3.80114 0
M  V30 6062 N 569.068 1.32177 -0.85831 0
M  V30 6063 C 570.316 1.96735 -0.462568 0
M  V30 6064 C 570.637 1.6824 0.985911 0
M  V30 6065 O 569.907 0.991564 1.68952 0
M  V30 6066 H 568.487 0.727849 -0.168064 0
M  V30 6067 H 571.149 1.61195 -1.09554 0
M  V30 6068 H 570.245 3.06068 -0.610647 0
M  V30 6069 N 570.547 0.616602 1.45037 0
M  V30 6070 C 571.457 -0.0985401 2.34393 0
M  V30 6071 C 572.473 -0.850971 1.51771 0
M  V30 6072 O 573.649 -0.806521 1.84546 0
M  V30 6073 C 570.714 -1.07748 3.29532 0
M  V30 6074 C 569.775 -0.326022 4.2806 0
M  V30 6075 C 569.008 -1.25833 5.18654 0
M  V30 6076 O 569.231 -2.49652 5.12864 0
M  V30 6077 O 568.165 -0.750512 5.97203 0
M  V30 6078 H 571.991 0.636016 2.96966 0
M  V30 6079 H 569.576 0.376832 1.44569 0
M  V30 6080 H 571.458 -1.64107 3.88133 0
M  V30 6081 H 570.133 -1.79291 2.69512 0
M  V30 6082 H 569.04 0.280253 3.73049 0
M  V30 6083 H 570.373 0.349091 4.9096 0
M  V30 6084 N 572.025 -1.5352 0.356285 0
M  V30 6085 C 573.441 -1.59599 0.00485267 0
M  V30 6086 C 573.641 -1.37179 -1.47595 0
M  V30 6087 O 572.697 -1.17234 -2.23635 0
M  V30 6088 C 574.01 -2.97277 0.452454 0
M  V30 6089 C 575.558 -3.10357 0.405881 0
M  V30 6090 C 576.033 -4.50432 0.829148 0
M  V30 6091 N 577.524 -4.5652 0.783838 0
M  V30 6092 C 578.259 -5.63077 1.08315 0
M  V30 6093 N 577.755 -6.77429 1.45126 0
M  V30 6094 N 579.548 -5.53014 1.00655 0
M  V30 6095 H 571.699 -1.66346 1.32071 0
M  V30 6096 H 573.962 -0.77971 0.539218 0
M  V30 6097 H 573.668 -3.18792 1.48542 0
M  V30 6098 H 573.542 -3.76836 -0.165762 0
M  V30 6099 H 575.929 -2.88558 -0.617934 0
M  V30 6100 H 576.01 -2.32828 1.05947 0
M  V30 6101 H 575.654 -4.72968 1.85103 0
M  V30 6102 H 575.584 -5.26378 0.152906 0
M  V30 6103 H 578.075 -3.74408 0.512513 0
M  V30 6104 H 578.388 -7.54669 1.66415 0
M  V30 6105 H 576.733 -6.78844 1.48983 0
M  V30 6106 H 579.924 -4.62557 0.718215 0
M  V30 6107 H 580.097 -6.35964 1.24315 0
M  V30 6108 N 573.503 -0.0852151 -1.57369 0
M  V30 6109 C 574.751 0.579658 -1.93609 0
M  V30 6110 C 575.072 1.69332 -0.967043 0
M  V30 6111 O 574.342 1.95892 -0.0174215 0
M  V30 6112 H 572.922 0.217113 -0.714752 0
M  V30 6113 H 575.584 -0.146226 -1.94351 0
M  V30 6114 H 574.68 0.996276 -2.95771 0
M  V30 6115 N 574.981 1.5647 0.188427 0
M  V30 6116 C 575.891 1.98285 1.2538 0
M  V30 6117 C 576.907 0.891535 1.49424 0
M  V30 6118 O 578.083 1.19782 1.61908 0
M  V30 6119 C 575.148 2.31965 2.57669 0
M  V30 6120 C 574.209 3.54838 2.41638 0
M  V30 6121 C 573.442 3.86901 3.67618 0
M  V30 6122 O 573.665 3.20163 4.72072 0
M  V30 6123 O 572.599 4.80309 3.62749 0
M  V30 6124 H 576.425 2.89145 0.928912 0
M  V30 6125 H 574.01 1.44112 0.393955 0
M  V30 6126 H 575.892 2.54673 3.35737 0
M  V30 6127 H 574.567 1.44271 2.89771 0
M  V30 6128 H 573.474 3.37369 1.61658 0
M  V30 6129 H 574.807 4.43019 2.14465 0
M  V30 6130 N 576.459 -0.456382 1.50847 0
M  V30 6131 C 577.369 -1.57805 1.73594 0
M  V30 6132 C 578.385 -1.62599 0.619476 0
M  V30 6133 O 579.561 -1.80195 0.899532 0
M  V30 6134 C 576.626 -2.93926 1.8387 0
M  V30 6135 C 575.687 -2.99402 3.07663 0
M  V30 6136 C 574.92 -4.29031 3.1744 0
M  V30 6137 O 575.143 -5.20358 2.33631 0
M  V30 6138 O 574.077 -4.40401 4.10281 0
M  V30 6139 H 577.903 -1.41531 2.68705 0
M  V30 6140 H 575.488 -0.637422 1.3512 0
M  V30 6141 H 577.37 -3.74747 1.92725 0
M  V30 6142 H 576.045 -3.10368 0.91944 0
M  V30 6143 H 574.952 -2.17606 3.043 0
M  V30 6144 H 576.285 -2.87901 3.99216 0
M  V30 6145 N 577.937 -1.40673 -0.710563 0
M  V30 6146 C 578.887 -1.37812 -1.81636 0
M  V30 6147 C 579.871 -0.254853 -1.58869 0
M  V30 6148 O 581.063 -0.494356 -1.69956 0
M  V30 6149 C 578.192 -1.24802 -3.19811 0
M  V30 6150 C 577.278 -2.41931 -3.48325 0
M  V30 6151 N 577.669 -3.67411 -3.47625 0
M  V30 6152 C 575.967 -2.35419 -3.78806 0
M  V30 6153 C 576.668 -4.45008 -3.74623 0
M  V30 6154 N 575.644 -3.74916 -3.93623 0
M  V30 6155 H 579.446 -2.32766 -1.79436 0
M  V30 6156 H 576.96 -1.34516 -0.909909 0
M  V30 6157 H 578.957 -1.20835 -3.99004 0
M  V30 6158 H 577.617 -0.308202 -3.23234 0
M  V30 6159 H 578.628 -4.00503 -3.28356 0
M  V30 6160 H 575.305 -1.4983 -3.89689 0
M  V30 6161 H 576.695 -5.53884 -3.80344 0
M  V30 6162 N 579.415 0.9433 -1.26252 0
M  V30 6163 C 580.64 1.72898 -1.14547 0
M  V30 6164 C 581.065 1.85761 0.295743 0
M  V30 6165 O 580.423 1.3463 1.21427 0
M  V30 6166 C 580.471 3.11471 -1.8171 0
M  V30 6167 O 579.575 3.97336 -1.10445 0
M  V30 6168 H 578.916 0.530555 -0.399259 0
M  V30 6169 H 581.446 1.18159 -1.67032 0
M  V30 6170 H 581.456 3.61872 -1.88449 0
M  V30 6171 H 580.131 3.01425 -2.86558 0
M  V30 6172 H 578.708 3.55788 -1.11666 0
M  V30 6173 N 580.893 1.08022 1.14757 0
M  V30 6174 C 582.304 0.829144 1.67279 0
M  V30 6175 C 582.655 -0.644721 1.85305 0
M  V30 6176 O 581.78 -1.49838 1.56133 0
M  V30 6177 C 582.375 1.49855 3.03857 0
M  V30 6178 C 580.934 1.29482 3.53428 0
M  V30 6179 C 580.081 1.56386 2.28995 0
M  V30 6180 H 583.032 1.24134 0.988762 0
M  V30 6181 H 583.053 0.923572 3.69121 0
M  V30 6182 H 582.565 2.57123 2.90705 0
M  V30 6183 H 580.666 0.242669 3.71809 0
M  V30 6184 H 580.779 2.01974 4.34446 0
M  V30 6185 H 579.143 0.985217 2.34874 0
M  V30 6186 H 579.926 2.64851 2.18423 0
M  V30 6187 N 582.371 -1.3172 0.865308 0
M  V30 6188 C 583.301 -2.31109 0.333302 0
M  V30 6189 C 584.282 -1.60148 -0.573301 0
M  V30 6190 O 585.467 -1.87882 -0.491305 0
M  V30 6191 C 582.597 -3.44104 -0.470078 0
M  V30 6192 C 581.551 -4.26623 0.343021 0
M  V30 6193 C 580.877 -5.31482 -0.585756 0
M  V30 6194 C 582.177 -4.98001 1.57456 0
M  V30 6195 H 583.871 -2.75855 1.1638 0
M  V30 6196 H 581.417 -1.3262 0.561069 0
M  V30 6197 H 583.37 -4.12682 -0.852752 0
M  V30 6198 H 582.094 -2.98112 -1.33404 0
M  V30 6199 H 580.753 -3.59707 0.707583 0
M  V30 6200 H 580.401 -4.81741 -1.44686 0
M  V30 6201 H 580.101 -5.87582 -0.0456494 0
M  V30 6202 H 581.625 -6.0292 -0.965375 0
M  V30 6203 H 583.039 -5.59201 1.26359 0
M  V30 6204 H 581.436 -5.63876 2.05339 0
M  V30 6205 H 582.506 -4.25253 2.32997 0
M  V30 6206 N 583.85 -0.624285 -1.44708 0
M  V30 6207 C 584.76 0.0861083 -2.34442 0
M  V30 6208 C 585.776 0.84291 -1.5222 0
M  V30 6209 O 586.952 0.796723 -1.84971 0
M  V30 6210 C 584.017 1.05999 -3.30099 0
M  V30 6211 C 583.077 0.303316 -4.28227 0
M  V30 6212 C 582.311 1.23081 -5.19314 0
M  V30 6213 O 582.534 2.46929 -5.14181 0
M  V30 6214 O 581.468 0.71883 -5.97592 0
M  V30 6215 H 585.293 -0.651756 -2.96624 0
M  V30 6216 H 582.879 -0.384493 -1.44368 0
M  V30 6217 H 584.76 1.62046 -3.88997 0
M  V30 6218 H 583.436 1.77859 -2.70459 0
M  V30 6219 H 582.343 -0.300033 -3.72895 0
M  V30 6220 H 583.676 -0.375123 -4.90768 0
M  V30 6221 N 585.328 1.53329 -0.364422 0
M  V30 6222 C 586.744 1.59594 -0.0133165 0
M  V30 6223 C 586.944 1.37959 1.46865 0
M  V30 6224 O 586 1.18418 2.2301 0
M  V30 6225 C 587.313 2.97032 -0.468213 0
M  V30 6226 C 588.861 3.10138 -0.422334 0
M  V30 6227 C 589.336 4.49986 -0.853024 0
M  V30 6228 N 590.827 4.56098 -0.808037 0
M  V30 6229 C 591.562 5.62495 -1.11299 0
M  V30 6230 N 591.058 6.7665 -1.48717 0
M  V30 6231 N 592.851 5.52473 -1.03586 0
M  V30 6232 H 585.002 1.65644 -1.32951 0
M  V30 6233 H 587.265 0.77684 -0.543345 0
M  V30 6234 H 586.971 3.18 -1.5023 0
M  V30 6235 H 586.845 3.76918 0.145775 0
M  V30 6236 H 589.232 2.88881 0.602622 0
M  V30 6237 H 589.313 2.32263 -1.0718 0
M  V30 6238 H 588.957 4.7198 -1.87609 0
M  V30 6239 H 588.887 5.26289 -0.180819 0
M  V30 6240 H 591.378 3.74131 -0.532361 0
M  V30 6241 H 591.691 7.53776 -1.70415 0
M  V30 6242 H 590.036 6.78044 -1.52581 0
M  V30 6243 H 593.227 4.6217 -0.742736 0
M  V30 6244 H 593.4 6.35295 -1.27686 0
M  V30 6245 N 586.806 0.0935595 1.57322 0
M  V30 6246 C 588.083 -0.612692 1.85756 0
M  V30 6247 C 588.463 -1.86439 0.99013 0
M  V30 6248 O 587.811 -2.28416 0.0621362 0
M  V30 6249 C 588.021 -0.929547 3.36393 0
M  V30 6250 C 589.369 -1.29366 4.04413 0
M  V30 6251 O 590.393 -1.02061 3.41265 0
M  V30 6252 O 589.252 -1.80498 5.15832 0
M  V30 6253 H 586.346 -0.306444 0.768128 0
M  V30 6254 H 588.892 0.126141 1.69231 0
M  V30 6255 H 587.664 -0.0414766 3.91278 0
M  V30 6256 H 587.287 -1.72441 3.5826 0
M  V30 6257 N 588.284 -1.56567 -0.180126 0
M  V30 6258 C 589.509 -1.85975 -0.918041 0
M  V30 6259 C 589.934 -0.678888 -1.75422 0
M  V30 6260 O 589.292 0.372168 -1.77439 0
M  V30 6261 C 589.34 -3.13731 -1.77779 0
M  V30 6262 O 588.444 -2.95335 -2.87838 0
M  V30 6263 H 587.785 -0.61196 -0.257683 0
M  V30 6264 H 590.315 -2.03798 -0.180923 0
M  V30 6265 H 590.325 -3.4491 -2.17948 0
M  V30 6266 H 589 -3.99293 -1.16352 0
M  V30 6267 H 587.577 -2.7549 -2.51316 0
M  V30 6268 N 589.762 0.448376 -1.51087 0
M  V30 6269 C 590.692 1.55102 -1.74544 0
M  V30 6270 C 591.673 1.59357 -0.594932 0
M  V30 6271 O 592.858 1.75261 -0.836491 0
M  V30 6272 C 589.988 2.93268 -1.86041 0
M  V30 6273 C 588.942 3.03877 -3.01402 0
M  V30 6274 C 588.268 4.43914 -2.98068 0
M  V30 6275 C 589.568 2.7898 -4.41551 0
M  V30 6276 H 591.262 1.35724 -2.66869 0
M  V30 6277 H 588.808 0.651498 -1.28419 0
M  V30 6278 H 590.761 3.70356 -2.01034 0
M  V30 6279 H 589.485 3.13853 -0.903548 0
M  V30 6280 H 588.144 2.29227 -2.86096 0
M  V30 6281 H 587.792 4.6145 -2.00182 0
M  V30 6282 H 587.492 4.51944 -3.75527 0
M  V30 6283 H 589.016 5.22991 -3.1514 0
M  V30 6284 H 590.43 3.45805 -4.57265 0
M  V30 6285 H 588.827 2.98431 -5.20633 0
M  V30 6286 H 589.897 1.74663 -4.5235 0
M  V30 6287 N 591.24 1.41047 0.703093 0
M  V30 6288 C 592.173 1.36713 1.82715 0
M  V30 6289 C 593.151 0.235533 1.60885 0
M  V30 6290 O 594.335 0.421227 1.83733 0
M  V30 6291 C 591.462 1.13069 3.1927 0
M  V30 6292 C 590.508 2.28846 3.59905 0
M  V30 6293 S 591.341 3.91297 3.65578 0
M  V30 6294 C 592.497 3.69941 5.04871 0
M  V30 6295 H 592.73 2.31838 1.86114 0
M  V30 6296 H 590.263 1.27481 0.871083 0
M  V30 6297 H 592.221 1.00113 3.98105 0
M  V30 6298 H 590.882 0.195763 3.13489 0
M  V30 6299 H 590.075 2.07977 4.59088 0
M  V30 6300 H 589.677 2.3817 2.88359 0
M  V30 6301 H 591.969 3.29181 5.92154 0
M  V30 6302 H 592.912 4.68699 5.30779 0
M  V30 6303 H 593.32 3.03369 4.76054 0
M  V30 6304 N 592.718 -0.936591 1.26751 0
M  V30 6305 C 594.129 -1.49816 1.1141 0
M  V30 6306 C 594.48 -1.9383 -0.304015 0
M  V30 6307 O 593.605 -1.80346 -1.196 0
M  V30 6308 C 594.2 -2.72271 2.01629 0
M  V30 6309 C 592.759 -3.2468 1.9042 0
M  V30 6310 C 591.906 -1.97444 1.94708 0
M  V30 6311 H 594.857 -0.751604 1.39773 0
M  V30 6312 H 594.878 -3.46741 1.56688 0
M  V30 6313 H 594.39 -2.40205 3.04833 0
M  V30 6314 H 592.491 -3.61525 0.901674 0
M  V30 6315 H 592.604 -3.91476 2.76195 0
M  V30 6316 H 590.968 -2.13545 1.38818 0
M  V30 6317 H 591.751 -1.67703 2.9955 0
M  V30 6318 N 594.196 -1.08629 -1.14182 0
M  V30 6319 C 595.421 -0.83902 -1.89671 0
M  V30 6320 C 595.846 0.603332 -1.78161 0
M  V30 6321 O 595.204 1.42301 -1.12339 0
M  V30 6322 C 595.252 -1.26854 -3.37551 0
M  V30 6323 O 594.356 -0.42188 -4.10236 0
M  V30 6324 H 593.697 -0.304545 -0.590041 0
M  V30 6325 H 596.227 -1.4483 -1.44518 0
M  V30 6326 H 596.237 -1.25038 -3.88368 0
M  V30 6327 H 594.912 -2.31901 -3.45246 0
M  V30 6328 H 593.489 -0.503654 -3.69483 0
M  V30 6329 N 595.674 1.31259 -0.872281 0
M  V30 6330 C 596.951 1.91362 -0.404943 0
M  V30 6331 C 597.331 1.79362 1.11321 0
M  V30 6332 O 596.679 1.20277 1.94283 0
M  V30 6333 C 596.889 3.3749 -0.888893 0
M  V30 6334 C 598.237 4.14593 -0.916384 0
M  V30 6335 O 599.261 3.46282 -0.834701 0
M  V30 6336 O 598.12 5.3661 -1.03498 0
M  V30 6337 H 595.214 0.818016 -0.121569 0
M  V30 6338 H 597.76 1.39912 -0.960346 0
M  V30 6339 H 596.532 3.40249 -1.93251 0
M  V30 6340 H 596.155 3.96375 -0.311932 0
M  V30 6341 N 597.152 0.631951 1.44375 0
M  V30 6342 C 598.062 -0.073674 2.34484 0
M  V30 6343 C 599.078 -0.834825 1.52665 0
M  V30 6344 O 600.254 -0.786902 1.85391 0
M  V30 6345 C 597.319 -1.04247 3.30656 0
M  V30 6346 C 596.38 -0.280602 4.28382 0
M  V30 6347 C 595.613 -1.20325 5.19959 0
M  V30 6348 O 595.836 -2.44199 5.15484 0
M  V30 6349 O 594.77 -0.687128 5.97965 0
M  V30 6350 H 598.596 0.667477 2.96274 0
M  V30 6351 H 596.181 0.392144 1.44162 0
M  V30 6352 H 598.063 -1.59981 3.89851 0
M  V30 6353 H 596.738 -1.76422 2.71398 0
M  V30 6354 H 595.645 0.319804 3.72731 0
M  V30 6355 H 596.978 0.401144 4.90563 0
M  V30 6356 N 598.631 -1.53133 0.372548 0
M  V30 6357 C 599.594 -2.24569 -0.458389 0
M  V30 6358 C 600.594 -1.25603 -1.00402 0
M  V30 6359 O 601.784 -1.49827 -0.888672 0
M  V30 6360 C 598.916 -2.98783 -1.6414 0
M  V30 6361 H 600.109 -2.99436 0.166799 0
M  V30 6362 H 597.662 -1.55805 0.124357 0
M  V30 6363 H 598.397 -2.28176 -2.30448 0
M  V30 6364 H 598.182 -3.71404 -1.25704 0
M  V30 6365 H 599.672 -3.53068 -2.23008 0
M  V30 6366 N 600.109 -0.101901 -1.5727 0
M  V30 6367 C 601.334 0.571759 -1.99363 0
M  V30 6368 C 601.759 1.60507 -0.980768 0
M  V30 6369 O 601.117 1.81231 0.0498517 0
M  V30 6370 C 601.165 1.18996 -3.404 0
M  V30 6371 O 600.269 2.30572 -3.41922 0
M  V30 6372 H 599.61 0.144449 -0.648098 0
M  V30 6373 H 602.14 -0.185325 -2.03759 0
M  V30 6374 H 602.15 1.52962 -3.78241 0
M  V30 6375 H 600.825 0.432984 -4.1364 0
M  V30 6376 H 599.402 1.98173 -3.15883 0
M  V30 6377 N 601.587 1.56661 0.17182 0
M  V30 6378 C 602.497 1.99604 1.2327 0
M  V30 6379 C 603.513 0.907333 1.4847 0
M  V30 6380 O 604.689 1.21492 1.60629 0
M  V30 6381 C 601.754 2.34685 2.55194 0
M  V30 6382 C 600.815 3.57381 2.3786 0
M  V30 6383 C 600.048 3.90779 3.63494 0
M  V30 6384 O 600.271 3.25152 4.6865 0
M  V30 6385 O 599.205 4.84129 3.57634 0
M  V30 6386 H 603.031 2.90114 0.898192 0
M  V30 6387 H 600.616 1.44522 0.378647 0
M  V30 6388 H 602.498 2.5822 3.33017 0
M  V30 6389 H 601.173 1.47336 2.88225 0
M  V30 6390 H 600.08 3.39064 1.5807 0
M  V30 6391 H 601.413 4.45268 2.09754 0
M  V30 6392 N 603.065 -0.440357 1.51323 0
M  V30 6393 C 604.29 -1.21716 1.67928 0
M  V30 6394 C 604.715 -1.84328 0.374826 0
M  V30 6395 O 604.073 -1.68675 -0.664706 0
M  V30 6396 C 604.121 -2.27914 2.79442 0
M  V30 6397 O 603.225 -3.33325 2.42834 0
M  V30 6398 H 602.566 -0.35674 0.560029 0
M  V30 6399 H 605.096 -0.520417 1.97871 0
M  V30 6400 H 605.106 -2.72746 3.03436 0
M  V30 6401 H 603.781 -1.8172 3.741 0
M  V30 6402 H 602.358 -2.9399 2.294 0
M  V30 6403 N 604.543 -1.41418 -0.695603 0
M  V30 6404 C 605.768 -1.44329 -1.48942 0
M  V30 6405 C 606.193 -0.0501579 -1.88033 0
M  V30 6406 O 605.551 0.946598 -1.54626 0
M  V30 6407 C 605.599 -2.3578 -2.72837 0
M  V30 6408 O 604.703 -1.81482 -3.70322 0
M  V30 6409 H 604.044 -0.489838 -0.44828 0
M  V30 6410 H 606.574 -1.85878 -0.855014 0
M  V30 6411 H 606.584 -2.51654 -3.21145 0
M  V30 6412 H 605.259 -3.37005 -2.43722 0
M  V30 6413 H 603.836 -1.75058 -3.29255 0
M  V30 6414 N 606.021 0.929856 -1.27246 0
M  V30 6415 C 607.437 1.20542 -1.04603 0
M  V30 6416 C 607.637 2.00276 0.221754 0
M  V30 6417 O 606.693 2.34835 0.927833 0
M  V30 6418 C 608.006 1.95566 -2.28417 0
M  V30 6419 C 609.554 2.08513 -2.33433 0
M  V30 6420 C 610.029 2.86943 -3.5697 0
M  V30 6421 N 611.52 2.94512 -3.57515 0
M  V30 6422 C 612.255 3.55656 -4.49774 0
M  V30 6423 N 611.751 4.18209 -5.52334 0
M  V30 6424 N 613.544 3.53038 -4.37402 0
M  V30 6425 H 605.695 0.397113 -2.08655 0
M  V30 6426 H 607.958 0.238277 -0.917566 0
M  V30 6427 H 607.664 1.44395 -3.20691 0
M  V30 6428 H 607.538 2.9619 -2.33563 0
M  V30 6429 H 609.925 2.58872 -1.41666 0
M  V30 6430 H 610.006 1.07117 -2.32292 0
M  V30 6431 H 609.65 2.37268 -4.49072 0
M  V30 6432 H 609.58 3.8862 -3.55362 0
M  V30 6433 H 612.071 2.50053 -2.83341 0
M  V30 6434 H 612.384 4.62796 -6.18902 0
M  V30 6435 H 610.729 4.16761 -5.56179 0
M  V30 6436 H 613.92 3.0337 -3.56489 0
M  V30 6437 H 614.093 4.004 -5.09493 0
M  V30 6438 N 607.499 1.09233 1.13605 0
M  V30 6439 C 608.431 0.687794 2.18637 0
M  V30 6440 C 609.444 -0.26936 1.60556 0
M  V30 6441 O 610.633 -0.0557162 1.78413 0
M  V30 6442 C 607.733 -0.00751901 3.38899 0
M  V30 6443 C 606.906 0.97067 4.26494 0
M  V30 6444 C 605.965 0.309129 5.25291 0
M  V30 6445 O 604.991 0.956149 5.61112 0
M  V30 6446 N 606.193 -0.937555 5.72879 0
M  V30 6447 H 608.958 1.59141 2.53957 0
M  V30 6448 H 606.519 0.979515 1.28907 0
M  V30 6449 H 608.511 -0.461238 4.02063 0
M  V30 6450 H 607.081 -0.813353 3.01833 0
M  V30 6451 H 606.301 1.603 3.60135 0
M  V30 6452 H 607.589 1.63323 4.81875 0
M  V30 6453 H 606.987 -1.48281 5.4592 0
M  V30 6454 H 605.544 -1.33463 6.3799 0
M  V30 6455 N 608.977 -1.30795 0.87923 0
M  V30 6456 C 609.94 -2.26563 0.346676 0
M  V30 6457 C 610.94 -1.52578 -0.507597 0
M  V30 6458 O 612.13 -1.71318 -0.315575 0
M  V30 6459 C 609.262 -3.37115 -0.506611 0
M  V30 6460 H 610.455 -2.75183 1.19223 0
M  V30 6461 H 608.008 -1.41886 0.655598 0
M  V30 6462 H 608.743 -2.93802 -1.37299 0
M  V30 6463 H 608.528 -3.91959 0.105218 0
M  V30 6464 H 610.018 -4.08412 -0.871192 0
M  V30 6465 N 610.455 -0.639598 -1.44038 0
M  V30 6466 C 611.701 -0.156248 -2.02799 0
M  V30 6467 C 612.056 1.21145 -1.49471 0
M  V30 6468 O 611.349 1.79406 -0.672608 0
M  V30 6469 C 611.543 -0.0925348 -3.5728 0
M  V30 6470 C 611.372 -1.45252 -4.25596 0
M  V30 6471 C 610.142 -2.04145 -4.62226 0
M  V30 6472 C 612.34 -2.38812 -4.55492 0
M  V30 6473 N 610.322 -3.3329 -5.15549 0
M  V30 6474 C 611.693 -3.52578 -5.09989 0
M  V30 6475 C 613.748 -2.37785 -4.3745 0
M  V30 6476 C 612.451 -4.65525 -5.48342 0
M  V30 6477 C 614.477 -3.49802 -4.76857 0
M  V30 6478 C 613.839 -4.62292 -5.31475 0
M  V30 6479 H 609.938 -0.101292 -0.775412 0
M  V30 6480 H 612.522 -0.844938 -1.75411 0
M  V30 6481 H 610.693 0.565459 -3.84262 0
M  V30 6482 H 612.425 0.400426 -4.02714 0
M  V30 6483 H 609.18 -1.56999 -4.4682 0
M  V30 6484 H 609.604 -3.9934 -5.46678 0
M  V30 6485 H 614.246 -1.52061 -3.94509 0
M  V30 6486 H 611.964 -5.51951 -5.90233 0
M  V30 6487 H 615.55 -3.50193 -4.64603 0
M  V30 6488 H 614.43 -5.47536 -5.61403 0
M  V30 6489 N 611.933 1.52934 -0.380664 0
M  V30 6490 C 613.161 2.05886 0.204599 0
M  V30 6491 C 613.576 1.25305 1.41223 0
M  V30 6492 O 612.933 0.297504 1.80059 0
M  V30 6493 C 612.984 3.56764 0.583249 0
M  V30 6494 O 612.705 4.34292 -0.576398 0
M  V30 6495 C 614.206 4.2603 1.2253 0
M  V30 6496 H 611.426 0.670193 0.0328991 0
M  V30 6497 H 613.97 1.97148 -0.543397 0
M  V30 6498 H 612.125 3.65603 1.28115 0
M  V30 6499 H 612.539 5.23819 -0.267119 0
M  V30 6500 H 614.013 5.32868 1.44068 0
M  V30 6501 H 614.49 3.80698 2.19011 0
M  V30 6502 H 615.096 4.21485 0.568407 0
M  V30 6503 N 613.412 0.11024 1.57214 0
M  V30 6504 C 614.66 -0.548783 1.94506 0
M  V30 6505 C 614.981 -1.67772 0.99386 0
M  V30 6506 O 614.251 -1.9584 0.0485841 0
M  V30 6507 H 612.831 -0.205715 0.718116 0
M  V30 6508 H 615.493 0.177127 1.94093 0
M  V30 6509 H 614.589 -0.949096 2.97319 0
M  V30 6510 N 614.89 -1.56749 -0.16351 0
M  V30 6511 C 616.115 -1.86938 -0.898264 0
M  V30 6512 C 616.54 -0.697456 -1.74692 0
M  V30 6513 O 615.898 0.353327 -1.77824 0
M  V30 6514 C 615.946 -3.15599 -1.74441 0
M  V30 6515 O 615.05 -2.98371 -2.8469 0
M  V30 6516 H 614.391 -0.614659 -0.251178 0
M  V30 6517 H 616.921 -2.03979 -0.159298 0
M  V30 6518 H 616.931 -3.47202 -2.14277 0
M  V30 6519 H 615.606 -4.00505 -1.1211 0
M  V30 6520 H 614.183 -2.7814 -2.4838 0
M  V30 6521 N 616.368 0.432326 -1.51554 0
M  V30 6522 C 617.593 1.20824 -1.68571 0
M  V30 6523 C 618.018 1.84126 -0.384596 0
M  V30 6524 O 617.376 1.69025 0.655751 0
M  V30 6525 C 617.424 2.26429 -2.80646 0
M  V30 6526 O 616.528 3.32032 -2.44598 0
M  V30 6527 H 615.869 0.353765 -0.561913 0
M  V30 6528 H 618.399 0.509916 -1.98144 0
M  V30 6529 H 618.409 2.71133 -3.04878 0
M  V30 6530 H 617.084 1.79733 -3.75058 0
M  V30 6531 H 615.661 2.92769 -2.30956 0
M  V30 6532 N 617.846 1.41785 0.688094 0
M  V30 6533 C 618.778 1.40159 1.81351 0
M  V30 6534 C 619.791 0.30262 1.59963 0
M  V30 6535 O 620.98 0.564841 1.69327 0
M  V30 6536 C 618.08 1.16517 3.1824 0
M  V30 6537 C 617.253 2.38597 3.66593 0
M  V30 6538 C 616.312 2.10699 4.82174 0
M  V30 6539 O 615.338 2.83798 4.93404 0
M  V30 6540 N 616.54 1.10187 5.69947 0
M  V30 6541 H 619.305 2.3716 1.83236 0
M  V30 6542 H 616.866 1.36494 0.870697 0
M  V30 6543 H 618.858 0.957941 3.93199 0
M  V30 6544 H 617.428 0.280873 3.11336 0
M  V30 6545 H 616.648 2.74974 2.82459 0
M  V30 6546 H 617.936 3.19919 3.95638 0
M  V30 6547 H 617.334 0.497016 5.63512 0
M  V30 6548 H 615.891 0.954518 6.44773 0
M  V30 6549 N 619.324 -0.923095 1.27737 0
M  V30 6550 C 620.74 -1.19985 1.05241 0
M  V30 6551 C 620.94 -2.00391 -0.21113 0
M  V30 6552 O 619.996 -2.35324 -0.915366 0
M  V30 6553 C 621.309 -1.94352 2.29451 0
M  V30 6554 C 622.857 -2.07273 2.34536 0
M  V30 6555 C 623.332 -2.85046 3.58487 0
M  V30 6556 N 624.823 -2.92612 3.59072 0
M  V30 6557 C 625.558 -3.53266 4.51654 0
M  V30 6558 N 625.054 -4.15274 5.54545 0
M  V30 6559 N 626.847 -3.50714 4.39268 0
M  V30 6560 H 618.998 -0.386042 2.08862 0
M  V30 6561 H 621.261 -0.233407 0.918817 0
M  V30 6562 H 620.967 -1.42692 3.21453 0
M  V30 6563 H 620.841 -2.94947 2.3513 0
M  V30 6564 H 623.228 -2.58117 1.43037 0
M  V30 6565 H 623.309 -1.05884 2.32857 0
M  V30 6566 H 622.953 -2.34884 4.50324 0
M  V30 6567 H 622.883 -3.8673 3.57418 0
M  V30 6568 H 625.374 -2.48547 2.84663 0
M  V30 6569 H 625.687 -4.59507 6.21348 0
M  V30 6570 H 624.032 -4.13806 5.58382 0
M  V30 6571 H 627.223 -3.01475 3.58093 0
M  V30 6572 H 627.396 -3.97693 5.1161 0
M  V30 6573 N 620.802 -1.09834 -1.13024 0
M  V30 6574 C 622.027 -0.85909 -1.88771 0
M  V30 6575 C 622.452 0.584402 -1.78791 0
M  V30 6576 O 621.81 1.41101 -1.13842 0
M  V30 6577 C 621.858 -1.30427 -3.36186 0
M  V30 6578 O 620.962 -0.465368 -4.09766 0
M  V30 6579 H 620.303 -0.310786 -0.586778 0
M  V30 6580 H 622.833 -1.46355 -1.42973 0
M  V30 6581 H 622.843 -1.2915 -3.8702 0
M  V30 6582 H 621.518 -2.3555 -3.42767 0
M  V30 6583 H 620.095 -0.542814 -3.68928 0
M  V30 6584 N 622.28 1.30327 -0.886154 0
M  V30 6585 C 623.505 2.0079 -0.519425 0
M  V30 6586 C 623.93 1.65979 0.885013 0
M  V30 6587 O 623.288 0.877043 1.58675 0
M  V30 6588 C 623.336 3.53686 -0.702758 0
M  V30 6589 O 622.44 4.11637 0.250828 0
M  V30 6590 H 621.781 0.63171 -0.204544 0
M  V30 6591 H 624.311 1.66145 -1.19402 0
M  V30 6592 H 624.321 4.03531 -0.602207 0
M  V30 6593 H 622.996 3.78361 -1.72673 0
M  V30 6594 H 621.573 3.72755 0.103873 0
M  V30 6595 N 623.758 0.647228 1.43697 0
M  V30 6596 C 625.174 0.314256 1.56476 0
M  V30 6597 C 625.374 -1.18191 1.63196 0
M  V30 6598 O 624.43 -1.96655 1.58376 0
M  V30 6599 C 625.743 1.02034 2.82859 0
M  V30 6600 C 627.291 1.00002 2.96595 0
M  V30 6601 C 627.766 1.68689 4.25803 0
M  V30 6602 N 629.257 1.65424 4.32654 0
M  V30 6603 C 629.992 2.1545 5.31384 0
M  V30 6604 N 629.488 2.73738 6.36427 0
M  V30 6605 N 631.281 2.05985 5.22998 0
M  V30 6606 H 623.432 1.61821 1.37578 0
M  V30 6607 H 625.695 0.680184 0.660344 0
M  V30 6608 H 625.401 2.07542 2.83935 0
M  V30 6609 H 625.275 0.568146 3.72897 0
M  V30 6610 H 627.662 -0.0466319 2.95063 0
M  V30 6611 H 627.743 1.49086 2.07863 0
M  V30 6612 H 627.387 2.73308 4.28095 0
M  V30 6613 H 627.317 1.17076 5.13421 0
M  V30 6614 H 629.808 1.22884 3.57363 0
M  V30 6615 H 630.121 3.09602 7.08072 0
M  V30 6616 H 628.466 2.77796 6.37067 0
M  V30 6617 H 631.657 1.60157 4.39849 0
M  V30 6618 H 631.83 2.45281 5.99784 0
M  V30 6619 N 625.236 -1.5273 0.388769 0
M  V30 6620 C 626.186 -2.23238 -0.463567 0
M  V30 6621 C 627.17 -1.23606 -1.03007 0
M  V30 6622 O 628.362 -1.48945 -0.956261 0
M  V30 6623 C 625.491 -3.04228 -1.5906 0
M  V30 6624 C 624.577 -4.11255 -1.03587 0
M  V30 6625 N 624.968 -5.0538 -0.206038 0
M  V30 6626 C 623.266 -4.26376 -1.30841 0
M  V30 6627 C 623.967 -5.81613 0.100359 0
M  V30 6628 N 622.943 -5.41264 -0.503447 0
M  V30 6629 H 626.745 -2.93367 0.176978 0
M  V30 6630 H 624.259 -1.61188 0.198046 0
M  V30 6631 H 626.256 -3.53277 -2.21362 0
M  V30 6632 H 624.916 -2.35634 -2.23398 0
M  V30 6633 H 625.927 -5.17663 0.156659 0
M  V30 6634 H 622.604 -3.69011 -1.95287 0
M  V30 6635 H 623.994 -6.67442 0.772676 0
M  V30 6636 N 626.714 -0.118576 -1.57153 0
M  V30 6637 C 627.644 0.828436 -2.1831 0
M  V30 6638 C 628.625 1.27758 -1.12303 0
M  V30 6639 O 629.81 1.34026 -1.40537 0
M  V30 6640 C 626.94 2.07876 -2.78217 0
M  V30 6641 C 625.894 1.76742 -3.89803 0
M  V30 6642 C 625.22 3.08801 -4.36516 0
M  V30 6643 C 626.52 1.03606 -5.11921 0
M  V30 6644 H 628.214 0.318824 -2.97698 0
M  V30 6645 H 625.76 0.151911 -1.43196 0
M  V30 6646 H 627.713 2.74584 -3.19659 0
M  V30 6647 H 626.437 2.61161 -1.96118 0
M  V30 6648 H 625.096 1.12424 -3.48936 0
M  V30 6649 H 624.744 3.6002 -3.51276 0
M  V30 6650 H 624.444 2.88743 -5.11763 0
M  V30 6651 H 625.968 3.76627 -4.80608 0
M  V30 6652 H 627.382 1.60467 -5.50385 0
M  V30 6653 H 625.779 0.936454 -5.92748 0
M  V30 6654 H 626.849 0.0227421 -4.84895 0
M  V30 6655 N 628.193 1.56834 0.155195 0
M  V30 6656 C 629.103 2.009 1.21146 0
M  V30 6657 C 630.119 0.923029 1.475 0
M  V30 6658 O 631.295 1.23189 1.59331 0
M  V30 6659 C 628.36 2.37378 2.52691 0
M  V30 6660 C 627.421 3.59883 2.34057 0
M  V30 6661 C 626.654 3.94612 3.59329 0
M  V30 6662 O 626.877 3.30104 4.65175 0
M  V30 6663 O 625.811 4.87895 3.52479 0
M  V30 6664 H 629.637 2.9105 0.867371 0
M  V30 6665 H 627.222 1.44916 0.363298 0
M  V30 6666 H 629.104 2.61737 3.3026 0
M  V30 6667 H 627.779 1.50385 2.86646 0
M  V30 6668 H 626.686 3.40722 1.54465 0
M  V30 6669 H 628.019 4.47468 2.0502 0
M  V30 6670 N 629.671 -0.424282 1.51781 0
M  V30 6671 C 630.581 -1.54087 1.76902 0
M  V30 6672 C 631.597 -1.61249 0.653826 0
M  V30 6673 O 632.773 -1.78247 0.937552 0
M  V30 6674 C 629.838 -2.8996 1.90063 0
M  V30 6675 C 628.899 -2.92809 3.13945 0
M  V30 6676 C 628.132 -4.22201 3.26469 0
M  V30 6677 O 628.355 -5.15286 2.44616 0
M  V30 6678 O 627.289 -4.31599 4.1953 0
M  V30 6679 H 631.115 -1.358 2.71647 0
M  V30 6680 H 628.7 -0.608618 1.36441 0
M  V30 6681 H 630.582 -3.70575 2.0063 0
M  V30 6682 H 629.257 -3.08347 0.985067 0
M  V30 6683 H 628.164 -2.11102 3.08847 0
M  V30 6684 H 629.497 -2.79369 4.05233 0
M  V30 6685 N 631.149 -1.42148 -0.680565 0
M  V30 6686 C 632.426 -1.32795 -1.43614 0
M  V30 6687 C 632.806 0.037415 -2.11067 0
M  V30 6688 O 632.154 1.05258 -2.02813 0
M  V30 6689 C 632.364 -2.49206 -2.44331 0
M  V30 6690 C 633.712 -2.91059 -3.09144 0
M  V30 6691 O 634.736 -2.49054 -2.54657 0
M  V30 6692 O 633.595 -3.63741 -4.07866 0
M  V30 6693 H 630.689 -0.523397 -0.640301 0
M  V30 6694 H 633.235 -1.54144 -0.709775 0
M  V30 6695 H 632.007 -3.40252 -1.93247 0
M  V30 6696 H 631.63 -2.29813 -3.24456 0
M  V30 6697 N 632.627 0.916307 -1.28225 0
M  V30 6698 C 633.857 1.69654 -1.17902 0
M  V30 6699 C 634.265 1.87331 0.265268 0
M  V30 6700 O 633.608 1.39828 1.19137 0
M  V30 6701 C 633.67 3.11024 -1.80289 0
M  V30 6702 C 633.334 3.16643 -3.29525 0
M  V30 6703 C 634.331 2.98032 -4.25997 0
M  V30 6704 C 632.016 3.39238 -3.70436 0
M  V30 6705 C 634.01 3.01924 -5.61356 0
M  V30 6706 C 631.697 3.42762 -5.05922 0
M  V30 6707 C 632.695 3.24125 -6.01192 0
M  V30 6708 O 632.383 3.27406 -7.34208 0
M  V30 6709 H 632.115 0.537197 -0.41036 0
M  V30 6710 H 634.669 1.15547 -1.69817 0
M  V30 6711 H 632.899 3.66662 -1.22865 0
M  V30 6712 H 634.588 3.71063 -1.6452 0
M  V30 6713 H 635.354 2.80405 -3.95725 0
M  V30 6714 H 631.233 3.52791 -2.96749 0
M  V30 6715 H 634.777 2.87295 -6.35694 0
M  V30 6716 H 630.674 3.59916 -5.35846 0
M  V30 6717 H 631.442 3.43784 -7.42802 0
M  V30 6718 N 634.105 1.10431 1.1244 0
M  V30 6719 C 635.068 0.756542 2.16354 0
M  V30 6720 C 636.068 -0.21899 1.59302 0
M  V30 6721 O 637.258 0.00415969 1.742 0
M  V30 6722 C 634.39 0.120612 3.40687 0
M  V30 6723 H 635.583 1.67696 2.48632 0
M  V30 6724 H 633.136 0.904832 1.27446 0
M  V30 6725 H 633.871 -0.810536 3.14008 0
M  V30 6726 H 633.656 0.822693 3.83372 0
M  V30 6727 H 635.146 -0.106945 4.17463 0
M  V30 6728 N 635.583 -1.29855 0.893053 0
M  V30 6729 C 636.86 -1.90694 0.435336 0
M  V30 6730 C 637.24 -1.8111 -1.08454 0
M  V30 6731 O 636.588 -1.23352 -1.92345 0
M  V30 6732 C 636.798 -3.36033 0.942472 0
M  V30 6733 C 638.146 -4.13083 0.982226 0
M  V30 6734 O 639.17 -3.4491 0.889686 0
M  V30 6735 O 638.029 -5.34896 1.12022 0
M  V30 6736 H 635.123 -0.815978 0.134567 0
M  V30 6737 H 637.669 -1.38367 0.982484 0
M  V30 6738 H 636.441 -3.37132 1.9864 0
M  V30 6739 H 636.064 -3.95828 0.374952 0
M  V30 6740 N 637.061 -0.65484 -1.43351 0
M  V30 6741 C 638.024 0.0263562 -2.29185 0
M  V30 6742 C 639.024 0.748951 -1.42293 0
M  V30 6743 O 640.214 0.589957 -1.63906 0
M  V30 6744 C 637.346 1.04806 -3.2439 0
M  V30 6745 H 638.539 -0.728883 -2.90908 0
M  V30 6746 H 636.092 -0.416149 -1.50658 0
M  V30 6747 H 636.827 1.83247 -2.67565 0
M  V30 6748 H 636.612 0.533554 -3.88453 0
M  V30 6749 H 638.102 1.52372 -3.88809 0
M  V30 6750 N 638.539 1.52521 -0.396863 0
M  V30 6751 C 639.769 2.05792 0.182485 0
M  V30 6752 C 640.177 1.26784 1.40436 0
M  V30 6753 O 639.52 0.309617 1.81072 0
M  V30 6754 C 639.582 3.54291 0.609781 0
M  V30 6755 C 639.246 4.5426 -0.499674 0
M  V30 6756 C 640.243 5.01812 -1.35944 0
M  V30 6757 C 637.928 4.97827 -0.668864 0
M  V30 6758 C 639.922 5.91562 -2.37346 0
M  V30 6759 C 637.609 5.87376 -1.68621 0
M  V30 6760 C 638.607 6.34137 -2.53692 0
M  V30 6761 O 638.295 7.21915 -3.53686 0
M  V30 6762 H 638.027 0.675362 0.0293583 0
M  V30 6763 H 640.581 1.97539 -0.56281 0
M  V30 6764 H 638.811 3.60188 1.40717 0
M  V30 6765 H 640.5 3.90267 1.11565 0
M  V30 6766 H 641.266 4.68879 -1.24008 0
M  V30 6767 H 637.145 4.60997 -0.0163971 0
M  V30 6768 H 640.689 6.27983 -3.03782 0
M  V30 6769 H 636.586 6.19723 -1.80593 0
M  V30 6770 H 637.354 7.39996 -3.49784 0
M  V30 6771 N 640.017 0.126909 1.57088 0
M  V30 6772 C 640.949 -0.850973 2.12817 0
M  V30 6773 C 641.962 -1.22457 1.07276 0
M  V30 6774 O 643.151 -1.17215 1.34622 0
M  V30 6775 C 640.251 -2.15039 2.61938 0
M  V30 6776 C 639.424 -1.94726 3.91664 0
M  V30 6777 C 638.483 -3.0847 4.26301 0
M  V30 6778 O 637.509 -2.81038 4.94981 0
M  V30 6779 N 638.711 -4.35116 3.84259 0
M  V30 6780 H 641.476 -0.3748 2.97347 0
M  V30 6781 H 639.037 -0.0572793 1.61799 0
M  V30 6782 H 641.029 -2.90141 2.82135 0
M  V30 6783 H 639.599 -2.5398 1.82244 0
M  V30 6784 H 638.819 -1.03772 3.80296 0
M  V30 6785 H 640.107 -1.78469 4.76473 0
M  V30 6786 H 639.505 -4.60276 3.2888 0
M  V30 6787 H 638.062 -5.07064 4.09548 0
M  V30 6788 N 641.495 -1.56914 -0.146875 0
M  V30 6789 C 642.772 -1.74273 -0.888165 0
M  V30 6790 C 643.152 -0.69496 -1.99333 0
M  V30 6791 O 642.5 0.286093 -2.26702 0
M  V30 6792 C 642.71 -3.18336 -1.43051 0
M  V30 6793 C 644.058 -3.80024 -1.89387 0
M  V30 6794 O 645.082 -3.21765 -1.52792 0
M  V30 6795 O 643.941 -4.82367 -2.56874 0
M  V30 6796 H 641.035 -0.712565 -0.419738 0
M  V30 6797 H 643.581 -1.6918 -0.132791 0
M  V30 6798 H 642.353 -3.86092 -0.636274 0
M  V30 6799 H 641.976 -3.27854 -2.24938 0
M  V30 6800 N 642.974 0.416227 -1.52004 0
M  V30 6801 C 643.904 1.51365 -1.77795 0
M  V30 6802 C 644.885 1.58059 -0.628601 0
M  V30 6803 O 646.07 1.73447 -0.873478 0
M  V30 6804 C 643.2 2.89256 -1.92219 0
M  V30 6805 C 642.154 2.97415 -3.0778 0
M  V30 6806 C 641.48 4.37492 -3.07417 0
M  V30 6807 C 642.78 2.69551 -4.47369 0
M  V30 6808 H 644.474 1.30033 -2.69688 0
M  V30 6809 H 642.02 0.624112 -1.29772 0
M  V30 6810 H 643.973 3.66008 -2.08845 0
M  V30 6811 H 642.697 3.11866 -0.969917 0
M  V30 6812 H 641.356 2.23107 -2.90893 0
M  V30 6813 H 641.004 4.571 -2.09925 0
M  V30 6814 H 640.704 4.43877 -3.85029 0
M  V30 6815 H 642.228 5.16188 -3.26162 0
M  V30 6816 H 643.642 3.36028 -4.64497 0
M  V30 6817 H 642.039 2.87321 -5.26846 0
M  V30 6818 H 643.109 1.65029 -4.55953 0
M  V30 6819 N 644.452 1.42507 0.673017 0
M  V30 6820 C 645.682 1.46261 1.45916 0
M  V30 6821 C 646.09 0.0729724 1.89059 0
M  V30 6822 O 645.433 -0.922987 1.58829 0
M  V30 6823 C 645.495 2.32853 2.73898 0
M  V30 6824 C 645.159 3.80699 2.52819 0
M  V30 6825 C 646.156 4.72307 2.17306 0
M  V30 6826 C 643.841 4.24983 2.67758 0
M  V30 6827 C 645.835 6.06192 1.97003 0
M  V30 6828 C 643.522 5.58927 2.4707 0
M  V30 6829 C 644.52 6.49348 2.11746 0
M  V30 6830 O 644.208 7.80817 1.91259 0
M  V30 6831 H 643.94 0.499561 0.455428 0
M  V30 6832 H 646.494 1.87697 0.834196 0
M  V30 6833 H 644.724 1.86268 3.38882 0
M  V30 6834 H 646.413 2.28041 3.35786 0
M  V30 6835 H 647.179 4.39378 2.05359 0
M  V30 6836 H 643.058 3.54893 2.94231 0
M  V30 6837 H 646.602 6.76731 1.69355 0
M  V30 6838 H 642.499 5.91429 2.58615 0
M  V30 6839 H 643.267 7.92194 2.05843 0
M  V30 6840 N 645.93 -0.909495 1.28709 0
M  V30 6841 C 646.862 -2.01729 1.08804 0
M  V30 6842 C 647.875 -1.62755 0.0384739 0
M  V30 6843 O 649.064 -1.76259 0.281977 0
M  V30 6844 C 646.164 -3.32952 0.63217 0
M  V30 6845 C 645.337 -4.00512 1.75809 0
M  V30 6846 C 644.396 -5.10019 1.29488 0
M  V30 6847 O 643.422 -5.32986 1.99787 0
M  V30 6848 N 644.624 -5.80278 0.1604 0
M  V30 6849 H 647.389 -2.19362 2.04207 0
M  V30 6850 H 644.95 -1.08106 1.20518 0
M  V30 6851 H 646.942 -4.03543 0.305802 0
M  V30 6852 H 645.512 -3.11759 -0.229134 0
M  V30 6853 H 644.732 -3.23413 2.25383 0
M  V30 6854 H 646.02 -4.42395 2.51325 0
M  V30 6855 H 645.418 -5.64094 -0.425937 0
M  V30 6856 H 643.975 -6.51713 -0.106663 0
M  V30 6857 N 647.408 -1.11026 -1.11852 0
M  V30 6858 C 648.819 -0.873203 -1.65021 0
M  V30 6859 C 649.17 0.595364 -1.86949 0
M  V30 6860 O 648.295 1.45645 -1.60051 0
M  V30 6861 C 648.89 -1.57859 -2.99777 0
M  V30 6862 C 647.449 -1.38807 -3.49871 0
M  V30 6863 C 646.596 -1.62403 -2.24768 0
M  V30 6864 H 649.547 -1.26712 -0.955503 0
M  V30 6865 H 649.568 -1.02111 -3.66543 0
M  V30 6866 H 649.08 -2.6474 -2.83786 0
M  V30 6867 H 647.181 -0.341163 -3.71035 0
M  V30 6868 H 647.294 -2.13421 -4.28938 0
M  V30 6869 H 645.658 -1.04714 -2.32179 0
M  V30 6870 H 646.441 -2.70549 -2.11324 0
M  V30 6871 N 648.886 1.2938 -0.899927 0
M  V30 6872 C 649.836 2.25311 -0.349165 0
M  V30 6873 C 650.82 1.51889 0.530892 0
M  V30 6874 O 652.012 1.73028 0.372872 0
M  V30 6875 C 649.141 3.40696 0.422055 0
M  V30 6876 C 648.227 4.21455 -0.472935 0
M  V30 6877 N 648.618 4.8048 -1.58026 0
M  V30 6878 C 646.916 4.45177 -0.270767 0
M  V30 6879 C 647.617 5.41117 -2.13465 0
M  V30 6880 N 646.593 5.24518 -1.42766 0
M  V30 6881 H 650.395 2.68507 -1.19505 0
M  V30 6882 H 647.909 1.43992 -0.751006 0
M  V30 6883 H 649.906 4.08486 0.833369 0
M  V30 6884 H 648.566 2.99037 1.2652 0
M  V30 6885 H 649.577 4.79257 -1.96299 0
M  V30 6886 H 646.254 4.14071 0.533988 0
M  V30 6887 H 647.644 5.979 -3.06537 0
M  V30 6888 N 650.364 0.662433 1.43002 0
M  V30 6889 C 651.78 0.330835 1.56133 0
M  V30 6890 C 651.98 -1.16454 1.64441 0
M  V30 6891 O 651.036 -1.94964 1.60453 0
M  V30 6892 C 652.349 1.05029 2.81761 0
M  V30 6893 C 653.897 1.03142 2.95518 0
M  V30 6894 C 654.372 1.73196 4.2399 0
M  V30 6895 N 655.863 1.70004 4.30875 0
M  V30 6896 C 656.598 2.21074 5.29069 0
M  V30 6897 N 656.094 2.80473 6.33488 0
M  V30 6898 N 657.887 2.1152 5.20784 0
M  V30 6899 H 650.038 1.63272 1.35853 0
M  V30 6900 H 652.301 0.687149 0.653092 0
M  V30 6901 H 652.007 2.10542 2.81718 0
M  V30 6902 H 651.881 0.607664 3.72273 0
M  V30 6903 H 654.268 -0.0153339 2.95096 0
M  V30 6904 H 654.349 1.51282 2.0627 0
M  V30 6905 H 653.993 2.77833 4.25172 0
M  V30 6906 H 653.923 1.22515 5.1215 0
M  V30 6907 H 656.414 1.26667 3.56039 0
M  V30 6908 H 656.727 3.17094 7.04749 0
M  V30 6909 H 655.072 2.84538 6.34085 0
M  V30 6910 H 658.263 1.64814 4.38126 0
M  V30 6911 H 658.436 2.51629 5.97149 0
M  V30 6912 N 651.842 -1.52309 0.404946 0
M  V30 6913 C 652.774 -2.24579 -0.45791 0
M  V30 6914 C 653.787 -1.2739 -1.01369 0
M  V30 6915 O 654.976 -1.53363 -0.91335 0
M  V30 6916 C 652.076 -2.9608 -1.64893 0
M  V30 6917 C 651.249 -4.20106 -1.21777 0
M  V30 6918 C 650.308 -4.74468 -2.27523 0
M  V30 6919 O 649.334 -5.37157 -1.88285 0
M  V30 6920 N 650.536 -4.55678 -3.59635 0
M  V30 6921 H 653.301 -2.99265 0.161341 0
M  V30 6922 H 650.862 -1.60228 0.232107 0
M  V30 6923 H 652.854 -3.29344 -2.35191 0
M  V30 6924 H 651.424 -2.24606 -2.17419 0
M  V30 6925 H 650.644 -3.92704 -0.343071 0
M  V30 6926 H 651.932 -5.00658 -0.906596 0
M  V30 6927 H 651.33 -4.05673 -3.94266 0
M  V30 6928 H 649.887 -4.9339 -4.25922 0
M  V30 6929 N 653.32 -0.135238 -1.57019 0
M  V30 6930 C 654.27 0.820408 -2.12728 0
M  V30 6931 C 655.254 1.21735 -1.05211 0
M  V30 6932 O 656.446 1.18574 -1.31413 0
M  V30 6933 C 653.575 2.06414 -2.74314 0
M  V30 6934 C 652.661 1.69083 -3.88937 0
M  V30 6935 N 653.052 1.0251 -4.95303 0
M  V30 6936 C 651.35 1.98434 -3.99425 0
M  V30 6937 C 652.051 0.846749 -5.75504 0
M  V30 6938 N 651.027 1.3769 -5.25873 0
M  V30 6939 H 654.829 0.302426 -2.9234 0
M  V30 6940 H 652.343 0.0667009 -1.62263 0
M  V30 6941 H 654.34 2.75863 -3.12579 0
M  V30 6942 H 653 2.58741 -1.96171 0
M  V30 6943 H 654.011 0.687207 -5.1332 0
M  V30 6944 H 650.688 2.52693 -3.32344 0
M  V30 6945 H 652.078 0.322949 -6.71123 0
M  V30 6946 N 654.798 1.5699 0.138552 0
M  V30 6947 C 656.026 1.87976 0.864437 0
M  V30 6948 C 656.441 0.724372 1.74351 0
M  V30 6949 O 655.798 -0.305575 1.79924 0
M  V30 6950 C 655.849 3.18276 1.71414 0
M  V30 6951 O 655.57 4.29365 0.870487 0
M  V30 6952 C 657.071 3.62834 2.54688 0
M  V30 6953 H 654.291 0.622878 0.249528 0
M  V30 6954 H 656.835 2.04094 0.128805 0
M  V30 6955 H 654.99 3.03886 2.40274 0
M  V30 6956 H 655.404 5.03924 1.45466 0
M  V30 6957 H 656.878 4.5682 3.0987 0
M  V30 6958 H 657.355 2.88533 3.31127 0
M  V30 6959 H 657.961 3.79946 1.91105 0
M  V30 6960 N 656.276 -0.40816 1.52223 0
M  V30 6961 C 657.501 -1.18127 1.70472 0
M  V30 6962 C 657.926 -1.83491 0.41384 0
M  V30 6963 O 657.284 -1.70047 -0.628778 0
M  V30 6964 C 657.332 -2.21935 2.84213 0
M  V30 6965 O 656.436 -3.28099 2.4985 0
M  V30 6966 H 655.777 -0.344781 0.56747 0
M  V30 6967 H 658.307 -0.478328 1.9893 0
M  V30 6968 H 658.317 -2.66248 3.09153 0
M  V30 6969 H 656.992 -1.73744 3.7787 0
M  V30 6970 H 655.569 -2.89058 2.35584 0
M  V30 6971 N 657.755 -1.42862 -0.66545 0
M  V30 6972 C 659.003 -1.43546 -1.42264 0
M  V30 6973 C 659.324 -0.0563116 -1.94919 0
M  V30 6974 O 658.594 0.906568 -1.73661 0
M  V30 6975 H 657.174 -0.528464 -0.527953 0
M  V30 6976 H 659.836 -1.78363 -0.785665 0
M  V30 6977 H 658.932 -2.14079 -2.27105 0
M  V30 6978 N 659.233 0.902656 -1.29189 0
M  V30 6979 C 660.163 2.02294 -1.16616 0
M  V30 6980 C 661.144 1.6999 -0.0611175 0
M  V30 6981 O 662.329 1.9271 -0.240072 0
M  V30 6982 C 659.459 3.37018 -0.83882 0
M  V30 6983 C 658.413 3.83522 -1.89986 0
M  V30 6984 C 657.739 5.15337 -1.42589 0
M  V30 6985 C 659.039 4.04169 -3.30824 0
M  V30 6986 H 660.733 2.13071 -2.10336 0
M  V30 6987 H 658.279 1.02378 -1.01266 0
M  V30 6988 H 660.232 4.14895 -0.737584 0
M  V30 6989 H 658.956 3.26325 0.134071 0
M  V30 6990 H 657.615 3.07859 -1.99043 0
M  V30 6991 H 657.263 5.01056 -0.441759 0
M  V30 6992 H 656.963 5.47423 -2.13547 0
M  V30 6993 H 658.487 5.95758 -1.3381 0
M  V30 6994 H 659.901 4.72537 -3.24626 0
M  V30 6995 H 658.298 4.47604 -3.99713 0
M  V30 6996 H 659.368 3.08604 -3.74021 0
M  V30 6997 N 660.711 1.11618 1.11262 0
M  V30 6998 C 662.122 0.881942 1.64556 0
M  V30 6999 C 662.473 -0.585442 1.87262 0
M  V30 7000 O 661.598 -1.44795 1.60821 0
M  V30 7001 C 662.193 1.59446 2.98935 0
M  V30 7002 C 660.752 1.40661 3.4913 0
M  V30 7003 C 659.899 1.63593 2.23903 0
M  V30 7004 H 662.85 1.27217 0.94877 0
M  V30 7005 H 662.871 1.04054 3.65996 0
M  V30 7006 H 662.383 2.66241 2.82378 0
M  V30 7007 H 660.484 0.360835 3.70849 0
M  V30 7008 H 660.597 2.15693 4.27801 0
M  V30 7009 H 658.961 1.05944 2.3162 0
M  V30 7010 H 659.744 2.71666 2.09886 0
M  V30 7011 N 662.189 -1.289 0.906776 0
M  V30 7012 C 663.414 -1.99939 0.551303 0
M  V30 7013 C 663.839 -1.67366 -0.858496 0
M  V30 7014 O 663.197 -0.902176 -1.57259 0
M  V30 7015 C 663.245 -3.52523 0.758937 0
M  V30 7016 O 662.349 -4.11983 -0.185308 0
M  V30 7017 H 661.69 -0.628376 0.214568 0
M  V30 7018 H 664.22 -1.64225 1.2203 0
M  V30 7019 H 664.23 -4.02522 0.666329 0
M  V30 7020 H 662.905 -3.75566 1.78671 0
M  V30 7021 H 661.482 -3.72873 -0.0445577 0
M  V30 7022 N 663.667 -0.670007 -1.42649 0
M  V30 7023 C 664.63 0.00204659 -2.292 0
M  V30 7024 C 665.63 0.733817 -1.4308 0
M  V30 7025 O 666.82 0.57254 -1.64522 0
M  V30 7026 C 663.952 1.01359 -3.25483 0
M  V30 7027 H 665.145 -0.759696 -2.90118 0
M  V30 7028 H 662.698 -0.432105 -1.50208 0
M  V30 7029 H 663.433 1.80399 -2.69493 0
M  V30 7030 H 663.218 0.492323 -3.88997 0
M  V30 7031 H 664.708 1.4824 -3.90403 0
M  V30 7032 N 665.145 1.52092 -0.413018 0
M  V30 7033 C 666.093 2.28681 0.425199 0
M  V30 7034 C 667.087 1.3353 1.04241 0
M  V30 7035 O 668.293 1.50973 0.980166 0
M  V30 7036 H 664.668 0.735661 0.155906 0
M  V30 7037 H 666.639 2.97418 -0.241926 0
M  V30 7038 C 665.388 3.1235 1.5275 0
M  V30 7039 H 664.711 3.85439 1.06191 0
M  V30 7040 H 666.151 3.69038 2.08774 0
M  V30 7041 C 664.61 2.26161 2.49706 0
M  V30 7042 O 665.14 1.90452 3.53682 0
M  V30 7043 N 663.346 1.89854 2.20008 0
M  V30 7044 H 662.893 2.19092 1.35486 0
M  V30 7045 H 662.851 1.3248 2.85125 0
M  V30 7046 N 666.623 0.143563 1.56945 0
M  V30 7047 C 667.871 -0.507402 1.95627 0
M  V30 7048 C 668.192 -1.65626 1.02922 0
M  V30 7049 O 667.462 -1.95693 0.0901136 0
M  V30 7050 H 666.042 -0.190436 0.722318 0
M  V30 7051 H 668.704 0.218257 1.93674 0
M  V30 7052 H 667.8 -0.885816 2.99265 0
M  V30 7053 N 668.101 -1.57061 -0.130224 0
M  V30 7054 C 669.051 -1.95941 -1.16582 0
M  V30 7055 C 670.035 -0.832858 -1.37667 0
M  V30 7056 O 671.227 -1.09647 -1.38948 0
M  V30 7057 C 668.356 -2.35777 -2.49528 0
M  V30 7058 C 667.442 -3.5504 -2.31964 0
M  V30 7059 N 667.833 -4.71071 -1.84189 0
M  V30 7060 C 666.131 -3.60453 -2.62659 0
M  V30 7061 C 666.832 -5.53128 -1.80068 0
M  V30 7062 N 665.808 -4.95303 -2.24001 0
M  V30 7063 H 669.61 -2.83117 -0.788806 0
M  V30 7064 H 667.124 -1.58842 -0.3381 0
M  V30 7065 H 669.121 -2.61843 -3.24413 0
M  V30 7066 H 667.781 -1.49961 -2.87996 0
M  V30 7067 H 668.792 -4.94504 -1.53903 0
M  V30 7068 H 665.469 -2.85217 -3.0489 0
M  V30 7069 H 666.859 -6.56182 -1.4448 0
M  V30 7070 N 669.579 0.400081 -1.52437 0
M  V30 7071 C 670.856 1.15973 -1.57511 0
M  V30 7072 C 671.236 2.0798 -0.361572 0
M  V30 7073 O 670.584 2.19032 0.650929 0
M  V30 7074 C 670.794 1.92912 -2.90837 0
M  V30 7075 C 672.142 2.48662 -3.44169 0
M  V30 7076 O 673.166 2.03081 -2.92637 0
M  V30 7077 O 672.025 3.31894 -4.34176 0
M  V30 7078 H 669.119 0.530023 -0.634827 0
M  V30 7079 H 671.665 0.40613 -1.64769 0
M  V30 7080 H 670.437 1.25564 -3.70607 0
M  V30 7081 H 670.06 2.75257 -2.86913 0
M  V30 7082 N 671.057 1.43213 0.657864 0
M  V30 7083 C 672.468 1.39669 1.23893 0
M  V30 7084 C 672.819 0.0984217 1.95953 0
M  V30 7085 O 671.944 -0.8023 2.00978 0
M  V30 7086 C 672.539 2.53004 2.25332 0
M  V30 7087 C 671.098 2.5274 2.78926 0
M  V30 7088 C 670.245 2.30941 1.53497 0
M  V30 7089 H 673.196 1.52181 0.450172 0
M  V30 7090 H 673.217 2.24226 3.07413 0
M  V30 7091 H 672.729 3.4748 1.72856 0
M  V30 7092 H 670.83 1.6213 3.35477 0
M  V30 7093 H 670.943 3.50352 3.26787 0
M  V30 7094 H 669.307 1.7952 1.80678 0
M  V30 7095 H 670.09 3.27496 1.02963 0
M  V30 7096 N 672.536 -0.895792 1.29666 0
M  V30 7097 C 673.468 -2.00563 1.10937 0
M  V30 7098 C 674.481 -1.62705 0.055734 0
M  V30 7099 O 675.67 -1.7595 0.300656 0
M  V30 7100 C 672.77 -3.32262 0.667448 0
M  V30 7101 C 671.943 -3.98625 1.80047 0
M  V30 7102 C 671.002 -5.08617 1.3489 0
M  V30 7103 O 670.028 -5.30837 2.05429 0
M  V30 7104 N 671.23 -5.80076 0.221937 0
M  V30 7105 H 673.995 -2.17184 2.06522 0
M  V30 7106 H 671.556 -1.06822 1.21658 0
M  V30 7107 H 673.548 -4.03196 0.348586 0
M  V30 7108 H 672.118 -3.11985 -0.196055 0
M  V30 7109 H 671.338 -3.21005 2.28801 0
M  V30 7110 H 672.626 -4.39704 2.56003 0
M  V30 7111 H 672.024 -5.64514 -0.366084 0
M  V30 7112 H 670.581 -6.51789 -0.0375346 0
M  V30 7113 N 674.014 -1.12206 -1.10668 0
M  V30 7114 C 675.291 -0.787382 -1.79052 0
M  V30 7115 C 675.671 0.723267 -1.98323 0
M  V30 7116 O 675.019 1.6561 -1.57434 0
M  V30 7117 C 675.229 -1.55968 -3.1221 0
M  V30 7118 C 676.577 -1.74413 -3.87125 0
M  V30 7119 O 677.601 -1.5246 -3.21923 0
M  V30 7120 O 676.46 -2.10952 -5.04144 0
M  V30 7121 H 673.554 -0.286137 -0.775922 0
M  V30 7122 H 676.1 -1.22595 -1.1734 0
M  V30 7123 H 674.872 -2.58692 -2.93588 0
M  V30 7124 H 674.495 -1.1152 -3.8164 0
M  V30 7125 N 675.492 1.28418 -0.913599 0
M  V30 7126 C 676.908 1.47411 -0.611728 0
M  V30 7127 C 677.108 1.83018 0.843008 0
M  V30 7128 O 676.164 1.93505 1.6221 0
M  V30 7129 C 677.477 2.57703 -1.5495 0
M  V30 7130 C 679.025 2.71572 -1.5562 0
M  V30 7131 C 679.5 3.85008 -2.48058 0
M  V30 7132 N 680.991 3.92361 -2.46184 0
M  V30 7133 C 681.726 4.79516 -3.14407 0
M  V30 7134 N 681.222 5.71262 -3.91958 0
M  V30 7135 N 683.015 4.73125 -3.03495 0
M  V30 7136 H 675.166 1.03585 -1.85429 0
M  V30 7137 H 677.429 0.515907 -0.795326 0
M  V30 7138 H 677.135 2.38298 -2.58663 0
M  V30 7139 H 677.009 3.54801 -1.28048 0
M  V30 7140 H 679.396 2.90366 -0.526441 0
M  V30 7141 H 679.477 1.75006 -1.86565 0
M  V30 7142 H 679.121 3.66969 -3.51136 0
M  V30 7143 H 679.051 4.80971 -2.14416 0
M  V30 7144 H 681.542 3.26749 -1.89851 0
M  V30 7145 H 681.855 6.34593 -4.41034 0
M  V30 7146 H 680.2 5.71103 -3.96063 0
M  V30 7147 H 683.391 4.00442 -2.42413 0
M  V30 7148 H 683.564 5.40834 -3.56935 0
M  V30 7149 N 676.97 0.677563 1.42291 0
M  V30 7150 C 677.9 0.014968 2.33495 0
M  V30 7151 C 678.881 -0.786376 1.50831 0
M  V30 7152 O 680.066 -0.742975 1.79426 0
M  V30 7153 C 677.196 -0.935023 3.34477 0
M  V30 7154 C 676.15 -0.242074 4.27315 0
M  V30 7155 C 675.476 -1.30519 5.18526 0
M  V30 7156 C 676.776 0.880604 5.14823 0
M  V30 7157 H 678.47 0.776671 2.89151 0
M  V30 7158 H 676.016 0.37494 1.39033 0
M  V30 7159 H 677.969 -1.40766 3.97194 0
M  V30 7160 H 676.693 -1.72818 2.77131 0
M  V30 7161 H 675.352 0.210351 3.65996 0
M  V30 7162 H 675 -2.09041 4.57505 0
M  V30 7163 H 674.7 -0.846652 5.81468 0
M  V30 7164 H 676.224 -1.7787 5.84119 0
M  V30 7165 H 677.638 0.489062 5.7121 0
M  V30 7166 H 676.035 1.26511 5.86613 0
M  V30 7167 H 677.105 1.72818 4.53059 0
M  V30 7168 N 678.448 -1.51871 0.421078 0
M  V30 7169 C 679.378 -2.30231 -0.389363 0
M  V30 7170 C 680.359 -1.34946 -1.03555 0
M  V30 7171 O 681.544 -1.63859 -1.04229 0
M  V30 7172 C 678.674 -3.13247 -1.49979 0
M  V30 7173 C 677.628 -4.16677 -0.977966 0
M  V30 7174 C 676.954 -4.88112 -2.1829 0
M  V30 7175 C 678.254 -5.22295 -0.0236775 0
M  V30 7176 H 679.948 -2.98229 0.264524 0
M  V30 7177 H 677.494 -1.43424 0.12866 0
M  V30 7178 H 679.447 -3.66838 -2.07383 0
M  V30 7179 H 678.171 -2.4304 -2.18173 0
M  V30 7180 H 676.83 -3.64114 -0.426245 0
M  V30 7181 H 676.478 -4.14423 -2.85066 0
M  V30 7182 H 676.178 -5.58041 -1.84021 0
M  V30 7183 H 677.702 -5.44521 -2.76278 0
M  V30 7184 H 679.116 -5.71055 -0.506899 0
M  V30 7185 H 677.513 -5.99656 0.230782 0
M  V30 7186 H 678.583 -4.76131 0.917999 0
M  V30 7187 N 679.926 -0.151884 -1.56866 0
M  V30 7188 C 680.889 0.771861 -2.15812 0
M  V30 7189 C 681.889 1.17181 -1.10115 0
M  V30 7190 O 683.079 1.09194 -1.35729 0
M  V30 7191 C 680.211 2.04806 -2.7252 0
M  V30 7192 H 681.404 0.259021 -2.98779 0
M  V30 7193 H 678.957 0.097588 -1.55995 0
M  V30 7194 H 679.692 2.60445 -1.93233 0
M  V30 7195 H 679.477 1.77044 -3.49854 0
M  V30 7196 H 680.967 2.70771 -3.1792 0
M  V30 7197 N 681.404 1.57128 0.121893 0
M  V30 7198 C 682.336 1.96773 1.17529 0
M  V30 7199 C 683.349 0.866668 1.37814 0
M  V30 7200 O 684.538 1.14497 1.3694 0
M  V30 7201 C 681.638 2.24832 2.53582 0
M  V30 7202 C 680.811 3.56138 2.53939 0
M  V30 7203 C 679.87 3.72443 3.71716 0
M  V30 7204 O 678.896 4.44584 3.55434 0
M  V30 7205 N 680.098 3.10993 4.90167 0
M  V30 7206 H 682.863 2.87743 0.838086 0
M  V30 7207 H 680.424 1.58881 0.311199 0
M  V30 7208 H 682.416 2.32958 3.30927 0
M  V30 7209 H 680.986 1.40002 2.79496 0
M  V30 7210 H 680.206 3.59226 1.62329 0
M  V30 7211 H 681.494 4.42448 2.51231 0
M  V30 7212 H 680.892 2.52345 5.06299 0
M  V30 7213 H 679.449 3.24644 5.65198 0
M  V30 7214 N 682.882 -0.391992 1.52647 0
M  V30 7215 C 684.159 -1.15136 1.58123 0
M  V30 7216 C 684.539 -2.07786 0.372597 0
M  V30 7217 O 683.887 -2.19374 -0.639304 0
M  V30 7218 C 684.097 -1.91367 2.91856 0
M  V30 7219 C 685.445 -2.46833 3.45483 0
M  V30 7220 O 686.469 -2.01527 2.9371 0
M  V30 7221 O 685.328 -3.29587 4.3593 0
M  V30 7222 H 682.422 -0.526649 0.637629 0
M  V30 7223 H 684.968 -0.397386 1.64982 0
M  V30 7224 H 683.74 -1.23597 3.71268 0
M  V30 7225 H 683.363 -2.73732 2.88369 0
M  V30 7226 N 684.36 -1.4356 -0.65026 0
M  V30 7227 C 685.585 -1.48995 -1.44275 0
M  V30 7228 C 686.01 -0.109954 -1.87778 0
M  V30 7229 O 685.368 0.896926 -1.57559 0
M  V30 7230 C 685.416 -2.44341 -2.65198 0
M  V30 7231 O 684.52 -1.93172 -3.6436 0
M  V30 7232 H 683.861 -0.503852 -0.432469 0
M  V30 7233 H 686.391 -1.88504 -0.795446 0
M  V30 7234 H 686.401 -2.61743 -3.12977 0
M  V30 7235 H 685.076 -3.44588 -2.32877 0
M  V30 7236 H 683.653 -1.85445 -3.23519 0
M  V30 7237 N 685.838 0.888903 -1.30139 0
M  V30 7238 C 686.748 2.02705 -1.18101 0
M  V30 7239 C 687.764 1.73702 -0.101809 0
M  V30 7240 O 688.94 1.98906 -0.315984 0
M  V30 7241 C 686.005 3.35616 -0.869651 0
M  V30 7242 C 685.066 3.78067 -2.03381 0
M  V30 7243 C 684.299 5.04635 -1.73721 0
M  V30 7244 O 684.522 5.66531 -0.663267 0
M  V30 7245 O 683.456 5.43399 -2.58845 0
M  V30 7246 H 687.282 2.15788 -2.13704 0
M  V30 7247 H 684.867 1.01426 -1.09695 0
M  V30 7248 H 686.749 4.15358 -0.711043 0
M  V30 7249 H 685.424 3.23651 0.0565002 0
M  V30 7250 H 684.331 2.99046 -2.24772 0
M  V30 7251 H 685.664 3.94631 -2.94155 0
M  V30 7252 N 687.317 1.12792 1.10072 0
M  V30 7253 C 688.267 0.768086 2.14673 0
M  V30 7254 C 689.251 -0.234716 1.59179 0
M  V30 7255 O 690.443 -0.039643 1.76956 0
M  V30 7256 C 687.572 0.228472 3.42539 0
M  V30 7257 C 686.658 1.25979 4.04957 0
M  V30 7258 N 687.049 2.4586 4.42025 0
M  V30 7259 C 685.347 1.10602 4.32069 0
M  V30 7260 C 686.048 3.11747 4.9111 0
M  V30 7261 N 685.024 2.39185 4.88151 0
M  V30 7262 H 688.826 1.68029 2.4113 0
M  V30 7263 H 686.34 1.00925 1.27232 0
M  V30 7264 H 688.337 -0.0475216 4.16873 0
M  V30 7265 H 686.997 -0.678136 3.1754 0
M  V30 7266 H 688.008 2.83215 4.33601 0
M  V30 7267 H 684.685 0.257021 4.16708 0
M  V30 7268 H 686.075 4.13862 5.29309 0
M  V30 7269 N 688.795 -1.27931 0.920396 0
M  V30 7270 C 689.743 -2.29061 0.404191 0
M  V30 7271 C 690.737 -1.61615 -0.507634 0
M  V30 7272 O 691.943 -1.75765 -0.388144 0
M  V30 7273 H 688.318 -0.743594 0.112123 0
M  V30 7274 H 690.289 -2.70021 1.27008 0
M  V30 7275 C 689.038 -3.46088 -0.334466 0
M  V30 7276 H 688.361 -3.98194 0.35797 0
M  V30 7277 H 689.801 -4.18829 -0.660196 0
M  V30 7278 C 688.26 -2.99396 -1.54479 0
M  V30 7279 O 688.79 -3.02439 -2.64374 0
M  V30 7280 N 686.996 -2.54978 -1.39408 0
M  V30 7281 H 686.543 -2.52701 -0.500009 0
M  V30 7282 H 686.501 -2.24098 -2.20516 0
M  V30 7283 N 690.273 -0.685099 -1.4193 0
M  V30 7284 C 691.223 0.00977295 -2.27998 0
M  V30 7285 C 692.207 0.763315 -1.41641 0
M  V30 7286 O 693.399 0.640532 -1.65004 0
M  V30 7287 C 690.528 0.952972 -3.29808 0
M  V30 7288 C 689.614 0.196231 -4.23646 0
M  V30 7289 N 690.005 -0.804401 -4.99363 0
M  V30 7290 C 688.303 0.433213 -4.43891 0
M  V30 7291 C 689.004 -1.25646 -5.67968 0
M  V30 7292 N 687.98 -0.5844 -5.4045 0
M  V30 7293 H 691.782 -0.757586 -2.83968 0
M  V30 7294 H 689.296 -0.515037 -1.54017 0
M  V30 7295 H 691.293 1.46585 -3.9028 0
M  V30 7296 H 689.953 1.72004 -2.75399 0
M  V30 7297 H 690.964 -1.18429 -5.04177 0
M  V30 7298 H 687.641 1.17899 -4.00507 0
M  V30 7299 H 689.031 -2.08622 -6.38691 0
M  V30 7300 N 691.751 1.51645 -0.429126 0
M  V30 7301 C 692.976 2.06917 0.141399 0
M  V30 7302 C 693.401 1.29527 1.36398 0
M  V30 7303 O 692.759 0.33094 1.78254 0
M  V30 7304 C 692.807 3.57776 0.4504 0
M  V30 7305 O 691.911 3.82639 1.53821 0
M  V30 7306 H 691.252 0.663978 0.0054647 0
M  V30 7307 H 693.782 1.95355 -0.608093 0
M  V30 7308 H 693.792 4.01894 0.703249 0
M  V30 7309 H 692.467 4.13532 -0.443213 0
M  V30 7310 H 691.044 3.5039 1.27597 0
M  V30 7311 N 693.229 0.160201 1.56784 0
M  V30 7312 C 694.506 -0.533355 1.88188 0
M  V30 7313 C 694.886 -1.82072 1.06831 0
M  V30 7314 O 694.234 -2.27946 0.158959 0
M  V30 7315 C 694.444 -0.786034 3.40033 0
M  V30 7316 C 695.792 -1.12097 4.09536 0
M  V30 7317 O 696.816 -0.874949 3.45287 0
M  V30 7318 O 695.675 -1.58457 5.23023 0
M  V30 7319 H 692.769 -0.273589 0.780434 0
M  V30 7320 H 695.315 0.197803 1.68543 0
M  V30 7321 H 694.087 0.124515 3.91102 0
M  V30 7322 H 693.71 -1.57091 3.65251 0
M  V30 7323 N 694.707 -1.5719 -0.113559 0
M  V30 7324 C 696.123 -1.52607 -0.467253 0
M  V30 7325 C 696.323 -0.874058 -1.81556 0
M  V30 7326 O 695.379 -0.458703 -2.48299 0
M  V30 7327 C 696.692 -2.97363 -0.446736 0
M  V30 7328 C 698.24 -3.08482 -0.529903 0
M  V30 7329 C 698.715 -4.54809 -0.539721 0
M  V30 7330 N 700.206 -4.59284 -0.601005 0
M  V30 7331 C 700.941 -5.69927 -0.630138 0
M  V30 7332 N 700.437 -6.90051 -0.616589 0
M  V30 7333 N 702.23 -5.5805 -0.673558 0
M  V30 7334 H 694.381 -1.97958 0.769819 0
M  V30 7335 H 696.644 -0.90428 0.284572 0
M  V30 7336 H 696.35 -3.48458 0.47643 0
M  V30 7337 H 696.224 -3.55086 -1.27254 0
M  V30 7338 H 698.611 -2.57386 -1.44349 0
M  V30 7339 H 698.692 -2.53744 0.323695 0
M  V30 7340 H 698.336 -5.06552 0.369843 0
M  V30 7341 H 698.266 -5.07364 -1.41028 0
M  V30 7342 H 700.757 -3.72822 -0.617419 0
M  V30 7343 H 701.07 -7.70132 -0.641592 0
M  V30 7344 H 699.415 -6.92543 -0.583927 0
M  V30 7345 H 702.606 -4.63112 -0.681544 0
M  V30 7346 H 702.779 -6.44286 -0.692794 0
M  V30 7347 N 696.185 0.383891 -1.52853 0
M  V30 7348 C 697.133 1.48965 -1.7864 0
M  V30 7349 C 698.127 1.56242 -0.654577 0
M  V30 7350 O 699.333 1.59347 -0.83716 0
M  V30 7351 H 695.708 0.495892 -0.565328 0
M  V30 7352 H 697.679 1.24411 -2.71228 0
M  V30 7353 C 696.428 2.86036 -1.97683 0
M  V30 7354 H 695.751 2.81188 -2.84206 0
M  V30 7355 H 697.191 3.62632 -2.19713 0
M  V30 7356 C 695.65 3.28428 -0.750776 0
M  V30 7357 O 696.18 4.0164 0.0693491 0
M  V30 7358 N 694.386 2.84765 -0.579427 0
M  V30 7359 H 693.933 2.25353 -1.24795 0
M  V30 7360 H 693.891 3.13486 0.239544 0
M  V30 7361 N 697.663 1.43903 0.642637 0
M  V30 7362 C 698.909 1.47291 1.40275 0
M  V30 7363 C 699.264 0.0996024 1.92142 0
M  V30 7364 O 698.557 -0.883423 1.70018 0
M  V30 7365 C 698.751 2.45907 2.59354 0
M  V30 7366 C 698.58 3.92691 2.19143 0
M  V30 7367 C 697.35 4.6097 2.06966 0
M  V30 7368 C 699.548 4.82231 1.78768 0
M  V30 7369 N 697.53 5.9263 1.60196 0
M  V30 7370 C 698.901 6.03246 1.43159 0
M  V30 7371 C 700.956 4.69397 1.66045 0
M  V30 7372 C 699.659 7.12851 0.961014 0
M  V30 7373 C 701.685 5.79016 1.20392 0
M  V30 7374 C 701.047 6.99164 0.857271 0
M  V30 7375 H 697.146 0.594055 0.50855 0
M  V30 7376 H 699.73 1.80153 0.738434 0
M  V30 7377 H 697.901 2.15054 3.23429 0
M  V30 7378 H 699.633 2.39665 3.26102 0
M  V30 7379 H 696.388 4.15622 2.27058 0
M  V30 7380 H 696.812 6.62547 1.39143 0
M  V30 7381 H 701.454 3.76954 1.91482 0
M  V30 7382 H 699.172 8.05113 0.694148 0
M  V30 7383 H 702.758 5.71109 1.11023 0
M  V30 7384 H 701.638 7.82544 0.509408 0
M  V30 7385 N 699.141 -0.881989 1.30609 0
M  V30 7386 C 700.073 -1.99375 1.13058 0
M  V30 7387 C 701.086 -1.62636 0.0729879 0
M  V30 7388 O 702.275 -1.75621 0.319301 0
M  V30 7389 C 699.375 -3.31536 0.702651 0
M  V30 7390 C 698.548 -3.96693 1.84265 0
M  V30 7391 C 697.607 -5.07158 1.40277 0
M  V30 7392 O 696.633 -5.28628 2.11048 0
M  V30 7393 N 697.835 -5.79808 0.283449 0
M  V30 7394 H 700.6 -2.14981 2.08814 0
M  V30 7395 H 698.161 -1.05526 1.22784 0
M  V30 7396 H 700.153 -4.02804 0.391331 0
M  V30 7397 H 698.723 -3.12175 -0.162954 0
M  V30 7398 H 697.943 -3.1856 2.32192 0
M  V30 7399 H 699.231 -4.36964 2.60653 0
M  V30 7400 H 698.629 -5.64871 -0.306189 0
M  V30 7401 H 697.186 -6.51792 0.0315985 0
M  V30 7402 N 700.619 -1.13374 -1.09472 0
M  V30 7403 C 702.035 -0.871846 -1.33682 0
M  V30 7404 C 702.235 0.492847 -1.9538 0
M  V30 7405 O 701.291 1.23946 -2.19985 0
M  V30 7406 C 702.604 -1.99608 -2.24893 0
M  V30 7407 C 704.152 -2.02812 -2.38404 0
M  V30 7408 C 704.627 -3.14497 -3.3295 0
M  V30 7409 N 706.118 -3.14004 -3.40523 0
M  V30 7410 C 706.853 -3.97061 -4.13679 0
M  V30 7411 N 706.349 -4.90131 -4.89636 0
M  V30 7412 N 708.142 -3.85162 -4.09398 0
M  V30 7413 H 700.293 -2.01288 -0.677995 0
M  V30 7414 H 702.556 -0.876492 -0.361201 0
M  V30 7415 H 702.262 -2.98 -1.86786 0
M  V30 7416 H 702.136 -1.90981 -3.25278 0
M  V30 7417 H 704.523 -1.05034 -2.75775 0
M  V30 7418 H 704.604 -2.15511 -1.37799 0
M  V30 7419 H 704.248 -4.12514 -2.96302 0
M  V30 7420 H 704.178 -2.99035 -4.33458 0
M  V30 7421 H 706.669 -2.46587 -2.86362 0
M  V30 7422 H 706.982 -5.49996 -5.42885 0
M  V30 7423 H 705.327 -4.94138 -4.88726 0
M  V30 7424 H 708.518 -3.11779 -3.49158 0
M  V30 7425 H 708.691 -4.5012 -4.6615 0
M  V30 7426 N 702.098 1.27442 -0.927168 0
M  V30 7427 C 703.046 2.28844 -0.416333 0
M  V30 7428 C 704.04 1.61882 0.499057 0
M  V30 7429 O 705.246 1.75969 0.378817 0
M  V30 7430 H 701.621 0.742989 -0.116065 0
M  V30 7431 H 703.592 2.69344 -1.28438 0
M  V30 7432 C 702.341 3.4626 0.316107 0
M  V30 7433 H 701.664 3.97999 -0.379082 0
M  V30 7434 H 703.104 4.19173 0.637975 0
M  V30 7435 C 701.563 3.00211 1.5289 0
M  V30 7436 O 702.093 3.03837 2.62766 0
M  V30 7437 N 700.299 2.55713 1.38054 0
M  V30 7438 H 699.846 2.52962 0.4866 0
M  V30 7439 H 699.804 2.25264 2.19325 0
M  V30 7440 N 703.576 0.692616 1.41565 0
M  V30 7441 C 704.992 0.363878 1.55397 0
M  V30 7442 C 705.192 -1.1294 1.66874 0
M  V30 7443 O 704.248 -1.91517 1.64552 0
M  V30 7444 C 705.561 1.10982 2.7947 0
M  V30 7445 C 707.109 1.09387 2.93263 0
M  V30 7446 C 707.584 1.8215 4.20221 0
M  V30 7447 N 709.075 1.79105 4.27172 0
M  V30 7448 C 709.81 2.32247 5.2426 0
M  V30 7449 N 709.306 2.93847 6.27396 0
M  V30 7450 N 711.099 2.22519 5.1618 0
M  V30 7451 H 703.25 1.66116 1.3236 0
M  V30 7452 H 705.513 0.700848 0.63837 0
M  V30 7453 H 705.219 2.1647 2.77188 0
M  V30 7454 H 705.093 0.686492 3.709 0
M  V30 7455 H 707.48 0.0472638 2.95062 0
M  V30 7456 H 707.561 1.55623 2.03015 0
M  V30 7457 H 707.205 2.86789 4.19183 0
M  V30 7458 H 707.135 1.33351 5.09436 0
M  V30 7459 H 709.626 1.34191 3.53272 0
M  V30 7460 H 709.939 3.31972 6.97864 0
M  V30 7461 H 708.284 2.97924 6.27906 0
M  V30 7462 H 711.475 1.7407 4.34531 0
M  V30 7463 H 711.648 2.64239 5.91677 0
M  V30 7464 N 705.054 -1.51416 0.437162 0
M  V30 7465 C 706.465 -1.86682 -0.0260005 0
M  V30 7466 C 706.816 -1.35432 -1.4196 0
M  V30 7467 O 705.941 -0.705055 -2.04592 0
M  V30 7468 C 706.536 -3.38757 -0.0539577 0
M  V30 7469 C 705.095 -3.7356 -0.461532 0
M  V30 7470 C 704.242 -2.75134 0.345924 0
M  V30 7471 H 707.193 -1.44642 0.653013 0
M  V30 7472 H 707.214 -3.70573 -0.863478 0
M  V30 7473 H 706.726 -3.76028 0.96045 0
M  V30 7474 H 704.827 -3.41878 -1.48155 0
M  V30 7475 H 704.94 -4.78737 -0.186451 0
M  V30 7476 H 703.304 -2.53947 -0.195739 0
M  V30 7477 H 704.087 -3.15247 1.35921 0
M  V30 7478 N 706.532 -0.168513 -1.56696 0
M  V30 7479 C 707.778 0.471368 -1.97863 0
M  V30 7480 C 708.133 1.61049 -1.05267 0
M  V30 7481 O 707.426 1.9138 -0.0917908 0
M  V30 7482 C 707.62 1.00441 -3.42996 0
M  V30 7483 C 707.449 -0.081524 -4.49626 0
M  V30 7484 C 706.219 -0.530242 -5.0251 0
M  V30 7485 C 708.417 -0.880897 -5.067 0
M  V30 7486 N 706.399 -1.59678 -5.9277 0
M  V30 7487 C 707.77 -1.79742 -5.93374 0
M  V30 7488 C 709.825 -0.92629 -4.89208 0
M  V30 7489 C 708.528 -2.7555 -6.64428 0
M  V30 7490 C 710.554 -1.8723 -5.6098 0
M  V30 7491 C 709.916 -2.77631 -6.4738 0
M  V30 7492 H 706.015 0.140671 -0.769244 0
M  V30 7493 H 708.599 -0.268084 -1.92846 0
M  V30 7494 H 706.77 1.71339 -3.48565 0
M  V30 7495 H 708.502 1.61269 -3.7118 0
M  V30 7496 H 705.257 -0.12847 -4.73426 0
M  V30 7497 H 705.681 -2.13045 -6.42605 0
M  V30 7498 H 710.323 -0.241412 -4.2211 0
M  V30 7499 H 708.041 -3.45027 -7.30741 0
M  V30 7500 H 711.627 -1.91349 -5.49433 0
M  V30 7501 H 710.507 -3.4964 -7.01941 0
M  V30 7502 N 708.01 1.57248 0.105221 0
M  V30 7503 C 709.421 1.74612 0.660865 0
M  V30 7504 C 709.772 0.789231 1.79626 0
M  V30 7505 O 708.897 -0.0346611 2.16372 0
M  V30 7506 C 709.492 3.16624 1.20559 0
M  V30 7507 C 708.051 3.35447 1.7074 0
M  V30 7508 C 707.198 2.70445 0.612764 0
M  V30 7509 H 710.149 1.5824 -0.12079 0
M  V30 7510 H 710.17 3.18937 2.07508 0
M  V30 7511 H 709.682 3.86245 0.379012 0
M  V30 7512 H 707.783 2.7089 2.5583 0
M  V30 7513 H 707.896 4.43702 1.80736 0
M  V30 7514 H 706.26 2.32061 1.04975 0
M  V30 7515 H 707.043 3.42699 -0.203066 0
M  V30 7516 N 709.488 -0.375779 1.53054 0
M  V30 7517 C 710.435 -1.45978 1.78771 0
M  V30 7518 C 711.405 -1.53625 0.631552 0
M  V30 7519 O 712.59 -1.69674 0.872667 0
M  V30 7520 C 709.73 -2.8305 1.97425 0
M  V30 7521 C 708.843 -2.84451 3.25134 0
M  V30 7522 C 707.978 -4.13034 3.34031 0
M  V30 7523 C 707.017 -4.08536 4.55812 0
M  V30 7524 N 706.154 -5.2875 4.61918 0
M  V30 7525 H 710.994 -1.23349 2.71273 0
M  V30 7526 H 708.531 -0.598147 1.3439 0
M  V30 7527 H 710.489 -3.62666 2.06225 0
M  V30 7528 H 709.119 -3.04101 1.0827 0
M  V30 7529 H 708.171 -1.97127 3.25338 0
M  V30 7530 H 709.483 -2.76998 4.14818 0
M  V30 7531 H 708.637 -5.0106 3.42087 0
M  V30 7532 H 707.376 -4.23226 2.42345 0
M  V30 7533 H 706.381 -3.18897 4.47867 0
M  V30 7534 H 707.606 -3.99955 5.48828 0
M  V30 7535 H 705.552 -5.39547 3.73129 0
M  V30 7536 H 705.469 -5.23426 5.45492 0
M  V30 7537 H 706.737 -6.18637 4.74245 0
M  V30 7538 N 710.966 -1.44241 -0.634997 0
M  V30 7539 C 712.243 -1.37296 -1.39317 0
M  V30 7540 C 712.623 -0.0297532 -2.11079 0
M  V30 7541 O 711.971 0.987524 -2.06059 0
M  V30 7542 C 712.181 -2.56853 -2.36279 0
M  V30 7543 C 713.529 -3.00747 -2.99728 0
M  V30 7544 O 714.553 -2.5703 -2.46605 0
M  V30 7545 O 713.412 -3.76533 -3.96087 0
M  V30 7546 H 710.506 -0.543503 -0.623325 0
M  V30 7547 H 713.052 -1.56324 -0.660376 0
M  V30 7548 H 711.824 -3.46228 -1.82324 0
M  V30 7549 H 711.447 -2.40019 -3.16981 0
M  V30 7550 N 712.444 0.87505 -1.31075 0
M  V30 7551 C 713.669 1.66583 -1.23551 0
M  V30 7552 C 714.094 1.87067 0.19686 0
M  V30 7553 O 713.452 1.40877 1.1412 0
M  V30 7554 C 713.5 3.01401 -1.97965 0
M  V30 7555 O 712.604 3.90923 -1.31351 0
M  V30 7556 H 711.945 0.508645 -0.426821 0
M  V30 7557 H 714.475 1.09139 -1.7306 0
M  V30 7558 H 714.485 3.51374 -2.07366 0
M  V30 7559 H 713.16 2.85812 -3.02133 0
M  V30 7560 H 711.737 3.49369 -1.30368 0
M  V30 7561 N 713.922 1.13953 1.08869 0
M  V30 7562 C 715.152 0.926825 1.84644 0
M  V30 7563 C 715.56 -0.527941 1.81685 0
M  V30 7564 O 714.903 -1.37742 1.21543 0
M  V30 7565 C 714.965 1.34416 3.33426 0
M  V30 7566 C 714.629 2.81351 3.60126 0
M  V30 7567 C 715.626 3.79486 3.55368 0
M  V30 7568 C 713.311 3.1865 3.88288 0
M  V30 7569 C 715.305 5.1293 3.78393 0
M  V30 7570 C 712.992 4.5227 4.10968 0
M  V30 7571 C 713.99 5.4922 4.06013 0
M  V30 7572 O 713.678 6.80429 4.28102 0
M  V30 7573 H 713.41 0.33013 0.589907 0
M  V30 7574 H 715.964 1.51738 1.38436 0
M  V30 7575 H 714.194 0.696901 3.80368 0
M  V30 7576 H 715.883 1.10302 3.90626 0
M  V30 7577 H 716.649 3.52017 3.3363 0
M  V30 7578 H 712.528 2.43785 3.91267 0
M  V30 7579 H 716.072 5.88591 3.74442 0
M  V30 7580 H 711.969 4.79462 4.32188 0
M  V30 7581 H 712.737 6.86617 4.45533 0
M  V30 7582 O 715.439 -1.21416 1.06491 0
M  V30 7583 H 716.13 -1.7871 0.747168 0
M  V30 END ATOM
M  V30 BEGIN BOND
M  V30 END BOND
M  V30 END CTAB
M  END
$$$$
