drugbank_target|P32884 Hemagglutinin-neuraminidase (DB03721; DB03740; DB03991; DB04508)
 OpenBabel12092120033D

  0  0  0     0  0            999 V3000
M  V30 BEGIN CTAB
M  V30 COUNTS 8810 8906 0 0 0
M  V30 BEGIN ATOM
M  V30 1 H -0.908 1.98254 -0.117106 0
M  V30 2 N 0 1.576 0 0
M  V30 3 C 0.933 2.03868 1.02534 0
M  V30 4 C 1.911 0.928543 1.3348 0
M  V30 5 O 3.095 1.19667 1.45644 0
M  V30 6 C 0.222 2.43627 2.35294 0
M  V30 7 C -0.732 3.65373 2.2001 0
M  V30 8 S 0.101 5.13292 1.52614 0
M  V30 9 C 1.257 5.56322 2.86805 0
M  V30 10 H 1.49 2.90518 0.631377 0
M  V30 11 H -0.977 1.52953 0.210867 0
M  V30 12 H 0.981 2.67203 3.11629 0
M  V30 13 H -0.358 1.57376 2.7183 0
M  V30 14 H -1.165 3.90944 3.18086 0
M  V30 15 H -1.563 3.418 1.51819 0
M  V30 16 H 0.729 5.58782 3.83104 0
M  V30 17 H 1.672 6.56266 2.65933 0
M  V30 18 H 2.08 4.83886 2.90714 0
M  V30 19 N 1.4781 -0.272755 1.55222 0
M  V30 20 C 2.7551 -1.02562 1.66555 0
M  V30 21 C 3.1351 -2.04282 0.532189 0
M  V30 22 O 2.4831 -2.23662 -0.467717 0
M  V30 23 C 2.6931 -1.6822 3.05782 0
M  V30 24 C 4.0411 -2.19373 3.63539 0
M  V30 25 O 5.0651 -1.78206 3.08417 0
M  V30 26 O 3.9241 -2.94883 4.60115 0
M  V30 27 H 1.0181 -0.475755 0.676451 0
M  V30 28 H 3.5641 -0.268593 1.67561 0
M  V30 29 H 2.3361 -0.945112 3.79715 0
M  V30 30 H 1.9591 -2.50609 3.08676 0
M  V30 31 N 2.9562 -1.48159 -0.537278 0
M  V30 32 C 4.3722 -1.34118 -0.865129 0
M  V30 33 C 4.5722 -0.346678 -1.98495 0
M  V30 34 O 3.6282 0.234715 -2.51407 0
M  V30 35 C 4.9412 -2.73963 -1.23954 0
M  V30 36 C 6.4892 -2.82397 -1.34984 0
M  V30 37 C 6.9642 -4.22928 -1.75772 0
M  V30 38 N 8.4552 -4.25566 -1.82887 0
M  V30 39 C 9.1902 -5.31235 -2.15817 0
M  V30 40 N 8.6862 -6.47189 -2.47222 0
M  V30 41 N 10.4792 -5.18624 -2.16761 0
M  V30 42 H 2.6302 -2.1144 0.201715 0
M  V30 43 H 4.8932 -0.947598 0.0275949 0
M  V30 44 H 4.5992 -3.48264 -0.490381 0
M  V30 45 H 4.4732 -3.0702 -2.19132 0
M  V30 46 H 6.8602 -2.08356 -2.08978 0
M  V30 47 H 6.9412 -2.5297 -0.379448 0
M  V30 48 H 6.5852 -4.97482 -1.02341 0
M  V30 49 H 6.5152 -4.49794 -2.73848 0
M  V30 50 H 9.0062 -3.41924 -1.60924 0
M  V30 51 H 9.3192 -7.23564 -2.71433 0
M  V30 52 H 7.6642 -6.50476 -2.44757 0
M  V30 53 H 10.8552 -4.27056 -1.91679 0
M  V30 54 H 11.0282 -6.01078 -2.42093 0
M  V30 55 N 4.4343 0.785586 -1.36625 0
M  V30 56 C 5.3973 1.87999 -1.31107 0
M  V30 57 C 6.3973 1.59316 -0.217959 0
M  V30 58 O 7.5873 1.67656 -0.472977 0
M  V30 59 C 4.7193 3.24861 -1.03334 0
M  V30 60 H 5.9123 1.94307 -2.2844 0
M  V30 61 H 3.4653 0.983813 -1.21453 0
M  V30 62 H 4.2003 3.24235 -0.0647432 0
M  V30 63 H 3.9853 3.4707 -1.82441 0
M  V30 64 H 5.4753 4.04929 -1.02088 0
M  V30 65 N 5.9124 1.20967 1.01018 0
M  V30 66 C 7.1584 1.02526 1.74975 0
M  V30 67 C 7.4914 -0.4408 1.89131 0
M  V30 68 O 6.7664 -1.32718 1.42184 0
M  V30 69 C 7.0494 1.71699 3.1653 0
M  V30 70 C 6.9024 3.25791 3.10129 0
M  V30 71 C 8.2214 1.45531 4.15342 0
M  V30 72 H 5.3404 0.373863 0.635134 0
M  V30 73 H 7.9824 1.49071 1.17805 0
M  V30 74 H 6.1324 1.32128 3.65341 0
M  V30 75 H 7.8044 3.74697 2.69072 0
M  V30 76 H 6.0474 3.56363 2.47362 0
M  V30 77 H 6.7184 3.69353 4.10222 0
M  V30 78 H 9.1944 1.79872 3.75213 0
M  V30 79 H 8.0704 1.96453 5.1254 0
M  V30 80 H 8.3314 0.384237 4.40427 0
M  V30 81 N 7.3905 -1.2043 1.01659 0
M  V30 82 C 8.6155 -1.94318 0.724942 0
M  V30 83 C 9.0405 -1.74266 -0.708034 0
M  V30 84 O 8.3985 -1.03694 -1.48719 0
M  V30 85 C 8.4465 -3.44486 1.06591 0
M  V30 86 O 7.5505 -4.12017 0.177599 0
M  V30 87 H 6.8915 -0.60708 0.26898 0
M  V30 88 H 9.4215 -1.52861 1.35995 0
M  V30 89 H 9.4315 -3.95106 1.01762 0
M  V30 90 H 8.1065 -3.58404 2.10997 0
M  V30 91 H 6.6835 -3.71821 0.283421 0
M  V30 92 N 8.8686 -0.792821 -1.36206 0
M  V30 93 C 9.8006 -0.151469 -2.28699 0
M  V30 94 C 10.8136 0.641262 -1.49638 0
M  V30 95 O 12.0026 0.475885 -1.72039 0
M  V30 96 C 9.1026 0.808424 -3.29117 0
M  V30 97 C 8.2756 0.0650202 -4.37352 0
M  V30 98 C 7.3346 0.941358 -5.17711 0
M  V30 99 O 6.3606 0.397352 -5.67811 0
M  V30 100 N 7.5626 2.2652 -5.3448 0
M  V30 101 H 10.3276 -0.945982 -2.84379 0
M  V30 102 H 7.8886 -0.647032 -1.48409 0
M  V30 103 H 9.8806 1.3986 -3.79765 0
M  V30 104 H 8.4506 1.5038 -2.74052 0
M  V30 105 H 7.6706 -0.706255 -3.87822 0
M  V30 106 H 8.9586 -0.447847 -5.06825 0
M  V30 107 H 8.3566 2.73128 -4.95396 0
M  V30 108 H 6.9136 2.80493 -5.88359 0
M  V30 109 N 10.3467 1.47872 -0.545128 0
M  V30 110 C 11.5927 2.02793 -0.0166104 0
M  V30 111 C 11.9257 1.41987 1.32489 0
M  V30 112 O 11.2007 0.571045 1.85928 0
M  V30 113 C 11.4837 3.59989 0.0893294 0
M  V30 114 C 11.3367 4.3125 -1.27841 0
M  V30 115 C 12.6557 4.32606 0.808724 0
M  V30 116 H 9.7747 0.736962 -0.00751035 0
M  V30 117 H 12.4167 1.76433 -0.705085 0
M  V30 118 H 10.5667 3.82579 0.675681 0
M  V30 119 H 12.2387 4.20035 -1.90704 0
M  V30 120 H 10.4817 3.92076 -1.85632 0
M  V30 121 H 11.1527 5.39736 -1.15713 0
M  V30 122 H 13.6287 4.14936 0.310992 0
M  V30 123 H 12.5047 5.42251 0.851782 0
M  V30 124 H 12.7657 4.00963 1.86229 0
M  V30 125 N 11.8248 0.280983 1.55075 0
M  V30 126 C 12.7878 -0.590896 2.21452 0
M  V30 127 C 13.7878 -1.07682 1.19421 0
M  V30 128 O 14.9778 -0.97605 1.44288 0
M  V30 129 C 12.1098 -1.81587 2.88511 0
M  V30 130 H 13.3028 -0.0112554 2.99898 0
M  V30 131 H 10.8558 0.0316438 1.56268 0
M  V30 132 H 11.5908 -2.43587 2.14093 0
M  V30 133 H 11.3758 -1.4753 3.63287 0
M  V30 134 H 12.8658 -2.43575 3.39206 0
M  V30 135 N 13.3029 -1.57598 0.00835791 0
M  V30 136 C 14.2329 -2.1198 -0.979113 0
M  V30 137 C 15.2139 -1.03091 -1.35301 0
M  V30 138 O 16.3989 -1.30818 -1.43528 0
M  V30 139 C 13.5289 -2.62995 -2.26828 0
M  V30 140 C 12.4829 -3.76485 -2.03576 0
M  V30 141 C 11.8089 -4.13846 -3.38579 0
M  V30 142 C 13.1089 -5.0342 -1.39161 0
M  V30 143 H 14.8029 -2.94738 -0.526281 0
M  V30 144 H 12.3489 -1.41783 -0.251704 0
M  V30 145 H 14.3019 -2.99669 -2.96271 0
M  V30 146 H 13.0259 -1.7737 -2.7424 0
M  V30 147 H 11.6849 -3.40217 -1.36557 0
M  V30 148 H 11.3329 -3.25232 -3.83709 0
M  V30 149 H 11.0329 -4.90312 -3.23834 0
M  V30 150 H 12.5569 -4.53086 -4.09323 0
M  V30 151 H 13.9709 -5.37812 -1.98573 0
M  V30 152 H 12.3679 -5.84746 -1.34878 0
M  V30 153 H 13.4379 -4.83548 -0.361868 0
M  V30 154 N 14.781 0.264519 -1.55364 0
M  V30 155 C 15.691 1.34902 -1.91934 0
M  V30 156 C 16.707 1.53595 -0.817593 0
M  V30 157 O 17.883 1.67558 -1.11742 0
M  V30 158 C 14.948 2.68676 -2.19121 0
M  V30 159 C 14.009 2.58657 -3.4263 0
M  V30 160 C 13.242 3.86051 -3.68511 0
M  V30 161 O 13.465 4.87126 -2.96757 0
M  V30 162 O 12.399 3.85744 -4.62045 0
M  V30 163 H 16.225 1.06883 -2.8427 0
M  V30 164 H 13.81 0.463775 -1.42019 0
M  V30 165 H 15.692 3.47759 -2.37995 0
M  V30 166 H 14.367 2.96463 -1.29966 0
M  V30 167 H 13.274 1.7792 -3.29082 0
M  V30 168 H 14.607 2.35818 -4.32031 0
M  V30 169 N 16.2591 1.48442 0.529413 0
M  V30 170 C 17.2071 1.63452 1.65487 0
M  V30 171 C 18.2011 0.500955 1.61823 0
M  V30 172 O 19.4071 0.679695 1.66674 0
M  V30 173 H 15.7821 0.514905 0.548066 0
M  V30 174 H 17.7531 2.57975 1.49971 0
M  V30 175 C 16.5021 1.69196 3.03756 0
M  V30 176 H 15.8251 2.55784 3.07269 0
M  V30 177 H 17.2651 1.83743 3.82119 0
M  V30 178 C 15.7241 0.430765 3.34135 0
M  V30 179 O 16.2541 -0.4561 3.99102 0
M  V30 180 N 14.4601 0.302293 2.89023 0
M  V30 181 H 14.0071 1.02496 2.36331 0
M  V30 182 H 13.9651 -0.540546 3.09718 0
M  V30 183 N 17.7372 -0.778329 1.37039 0
M  V30 184 C 19.0142 -1.52551 1.22424 0
M  V30 185 C 19.3942 -2.10288 -0.184964 0
M  V30 186 O 18.7422 -1.94953 -1.19187 0
M  V30 187 C 18.9522 -2.61164 2.31504 0
M  V30 188 C 20.3002 -3.28746 2.68721 0
M  V30 189 O 21.3242 -2.71455 2.30631 0
M  V30 190 O 20.1832 -4.3231 3.3432 0
M  V30 191 H 17.2772 -0.675343 0.477326 0
M  V30 192 H 19.8232 -0.815859 1.48801 0
M  V30 193 H 18.5952 -2.16574 3.25901 0
M  V30 194 H 18.2182 -3.39737 2.06554 0
M  V30 195 N 19.2153 -1.21501 -1.00376 0
M  V30 196 C 20.1253 -0.991447 -2.12621 0
M  V30 197 C 21.1413 0.0568446 -1.73907 0
M  V30 198 O 22.3173 -0.13348 -2.00957 0
M  V30 199 C 19.3823 -0.560312 -3.42142 0
M  V30 200 C 18.4433 -1.68096 -3.95022 0
M  V30 201 C 17.6763 -1.2703 -5.18362 0
M  V30 202 O 17.8993 -0.144438 -5.70217 0
M  V30 203 O 16.8333 -2.08269 -5.64719 0
M  V30 204 H 20.6593 -1.93158 -2.34358 0
M  V30 205 H 18.2443 -0.999999 -1.10997 0
M  V30 206 H 20.1263 -0.329724 -4.20108 0
M  V30 207 H 18.8013 0.351089 -3.2179 0
M  V30 208 H 17.7083 -1.96597 -3.18278 0
M  V30 209 H 19.0413 -2.56983 -4.19786 0
M  V30 210 N 20.6934 1.19889 -1.02296 0
M  V30 211 C 22.1094 1.41462 -0.738954 0
M  V30 212 C 22.3094 1.89721 0.678846 0
M  V30 213 O 21.3654 2.07016 1.4457 0
M  V30 214 C 22.6784 2.43083 -1.77005 0
M  V30 215 C 24.2264 2.5684 -1.78892 0
M  V30 216 C 24.7014 3.61709 -2.80945 0
M  V30 217 N 26.1924 3.69199 -2.79725 0
M  V30 218 C 26.9274 4.50019 -3.55345 0
M  V30 219 N 26.4234 5.34592 -4.40662 0
M  V30 220 N 28.2164 4.44612 -3.43914 0
M  V30 221 H 20.3674 0.868827 -1.93817 0
M  V30 222 H 22.6304 0.44399 -0.837602 0
M  V30 223 H 22.3364 2.14636 -2.78612 0
M  V30 224 H 22.2104 3.4217 -1.58744 0
M  V30 225 H 24.5974 2.84614 -0.779674 0
M  V30 226 H 24.6784 1.57927 -2.01228 0
M  V30 227 H 24.3224 3.34678 -3.82038 0
M  V30 228 H 24.2524 4.60259 -2.5587 0
M  V30 229 H 26.7434 3.08794 -2.17842 0
M  V30 230 H 27.0564 5.93363 -4.95116 0
M  V30 231 H 25.4014 5.34073 -4.44737 0
M  V30 232 H 28.5924 3.7758 -2.76679 0
M  V30 233 H 28.7654 5.0736 -4.031 0
M  V30 234 N 22.1715 0.800033 1.35784 0
M  V30 235 C 23.0815 0.207204 2.33683 0
M  V30 236 C 24.0975 -0.64631 1.61551 0
M  V30 237 O 25.2735 -0.559604 1.93469 0
M  V30 238 C 22.3385 -0.639659 3.40748 0
M  V30 239 C 21.3995 0.233585 4.28664 0
M  V30 240 C 20.6325 -0.572954 5.30616 0
M  V30 241 O 20.8555 -1.80816 5.40982 0
M  V30 242 O 19.7895 0.0327285 6.01891 0
M  V30 243 H 23.6155 1.01692 2.86169 0
M  V30 244 H 21.2005 0.561691 1.38439 0
M  V30 245 H 23.0825 -1.12223 4.06182 0
M  V30 246 H 21.7575 -1.42708 2.90544 0
M  V30 247 H 20.6645 0.763147 3.66233 0
M  V30 248 H 21.9975 0.984784 4.82248 0
M  V30 249 N 23.6496 -1.47581 0.552962 0
M  V30 250 C 24.6126 -2.28439 -0.186605 0
M  V30 251 C 25.6126 -1.36706 -0.84665 0
M  V30 252 O 26.8026 -1.59378 -0.703164 0
M  V30 253 C 23.9346 -3.16264 -1.2724 0
M  V30 254 H 25.1276 -2.95294 0.523609 0
M  V30 255 H 22.6806 -1.532 0.309745 0
M  V30 256 H 23.4156 -2.54091 -2.01514 0
M  V30 257 H 23.2006 -3.83769 -0.803968 0
M  V30 258 H 24.6906 -3.77198 -1.79196 0
M  V30 259 N 25.1277 -0.289203 -1.54924 0
M  V30 260 C 26.0747 0.592115 -2.23075 0
M  V30 261 C 27.0447 1.13881 -1.20915 0
M  V30 262 O 28.2297 1.18551 -1.495 0
M  V30 263 C 25.3697 1.76376 -2.96623 0
M  V30 264 C 24.4827 1.24959 -4.13533 0
M  V30 265 C 23.6177 2.38416 -4.74691 0
M  V30 266 C 22.6567 1.84072 -5.83767 0
M  V30 267 N 21.7937 2.91057 -6.38929 0
M  V30 268 H 26.6337 0.00432038 -2.98 0
M  V30 269 H 24.1707 -0.00963529 -1.47097 0
M  V30 270 H 26.1287 2.45268 -3.3749 0
M  V30 271 H 24.7587 2.32337 -2.24097 0
M  V30 272 H 23.8107 0.453307 -3.77689 0
M  V30 273 H 25.1227 0.811662 -4.92152 0
M  V30 274 H 24.2767 3.15276 -5.18349 0
M  V30 275 H 23.0157 2.8553 -3.95378 0
M  V30 276 H 22.0207 1.05697 -5.39545 0
M  V30 277 H 23.2457 1.37877 -6.64956 0
M  V30 278 H 21.1917 3.37526 -5.62505 0
M  V30 279 H 21.1087 2.51724 -7.12861 0
M  V30 280 H 22.3767 3.6785 -6.87246 0
M  V30 281 N 26.6058 1.57591 -0.0167156 0
M  V30 282 C 27.5538 2.10604 0.987353 0
M  V30 283 C 28.5478 1.02977 1.34507 0
M  V30 284 O 29.7538 1.21425 1.32875 0
M  V30 285 H 26.1288 0.672695 0.336134 0
M  V30 286 H 28.0998 2.93925 0.514817 0
M  V30 287 C 26.8488 2.6382 2.26483 0
M  V30 288 H 26.1718 3.46278 1.99829 0
M  V30 289 H 27.6118 3.04573 2.94977 0
M  V30 290 C 26.0708 1.55992 2.9861 0
M  V30 291 O 26.6008 0.952521 3.90243 0
M  V30 292 N 24.8068 1.28335 2.60727 0
M  V30 293 H 24.3538 1.77914 1.86291 0
M  V30 294 H 24.3118 0.564115 3.09298 0
M  V30 295 N 28.0839 -0.256276 1.55502 0
M  V30 296 C 29.3119 -1.00342 1.8094 0
M  V30 297 C 29.7269 -1.79307 0.59114 0
M  V30 298 O 29.0839 -1.77114 -0.440081 0
M  V30 299 C 29.1349 -1.94875 3.04476 0
M  V30 300 O 28.8559 -1.19107 4.21598 0
M  V30 301 C 30.3569 -2.81266 3.42644 0
M  V30 302 H 27.5769 -0.295685 0.602338 0
M  V30 303 H 30.1209 -0.281998 2.02546 0
M  V30 304 H 28.2759 -2.62457 2.84947 0
M  V30 305 H 28.6899 -1.82969 4.91551 0
M  V30 306 H 30.1639 -3.43362 4.32211 0
M  V30 307 H 30.6409 -3.51897 2.62802 0
M  V30 308 H 31.2469 -2.1915 3.64491 0
M  V30 309 N 29.562 -1.4872 -0.521534 0
M  V30 310 C 30.808 -1.58378 -1.27624 0
M  V30 311 C 31.163 -0.258028 -1.90662 0
M  V30 312 O 30.456 0.739917 -1.76736 0
M  V30 313 C 30.65 -2.66497 -2.38148 0
M  V30 314 C 30.479 -4.09456 -1.85945 0
M  V30 315 C 29.249 -4.76495 -1.68168 0
M  V30 316 C 31.447 -4.95353 -1.3831 0
M  V30 317 N 29.429 -6.0384 -1.1068 0
M  V30 318 C 30.8 -6.13012 -0.928238 0
M  V30 319 C 32.855 -4.81512 -1.26692 0
M  V30 320 C 31.558 -7.18354 -0.368701 0
M  V30 321 C 33.584 -5.86984 -0.721368 0
M  V30 322 C 32.946 -7.03857 -0.276623 0
M  V30 323 H 29.045 -0.634045 -0.457724 0
M  V30 324 H 31.629 -1.85639 -0.587049 0
M  V30 325 H 29.8 -2.41043 -3.04553 0
M  V30 326 H 31.532 -2.65791 -3.05184 0
M  V30 327 H 28.287 -4.32962 -1.91939 0
M  V30 328 H 28.711 -6.71778 -0.839217 0
M  V30 329 H 33.353 -3.91487 -1.5968 0
M  V30 330 H 31.071 -8.08096 -0.0265122 0
M  V30 331 H 34.657 -5.78329 -0.634531 0
M  V30 332 H 33.537 -7.84077 0.138947 0
M  V30 333 N 31.0401 0.771051 -1.3745 0
M  V30 334 C 32.4561 1.07171 -1.18265 0
M  V30 335 C 32.6561 2.01491 -0.019287 0
M  V30 336 O 31.7121 2.44244 0.640408 0
M  V30 337 C 33.0251 1.66854 -2.50161 0
M  V30 338 C 34.5731 1.79109 -2.56689 0
M  V30 339 C 35.0481 2.42205 -3.88717 0
M  V30 340 N 36.5391 2.49655 -3.90162 0
M  V30 341 C 37.2741 2.9933 -4.8907 0
M  V30 342 N 36.7701 3.49172 -5.98374 0
M  V30 343 N 38.5631 2.9821 -4.76474 0
M  V30 344 H 30.7141 0.144796 -2.11906 0
M  V30 345 H 32.9771 0.126863 -0.939473 0
M  V30 346 H 32.6831 1.05017 -3.35655 0
M  V30 347 H 32.5571 2.6614 -2.673 0
M  V30 348 H 34.9441 2.40077 -1.71601 0
M  V30 349 H 35.0251 0.785757 -2.43433 0
M  V30 350 H 34.6691 1.81875 -4.74219 0
M  V30 351 H 34.5991 3.43345 -3.99276 0
M  V30 352 H 37.0901 2.14383 -3.11205 0
M  V30 353 H 37.4031 3.8548 -6.69795 0
M  V30 354 H 35.7481 3.47275 -6.02018 0
M  V30 355 H 38.9391 2.58572 -3.90203 0
M  V30 356 H 39.1121 3.36613 -5.53711 0
M  V30 357 N 32.5182 1.22032 0.997298 0
M  V30 358 C 33.4482 1.01065 2.10495 0
M  V30 359 C 34.4292 -0.0669542 1.69968 0
M  V30 360 O 35.6142 0.0943987 1.9397 0
M  V30 361 C 32.7442 0.582874 3.42374 0
M  V30 362 C 31.6982 1.60592 3.96729 0
M  V30 363 C 31.0242 1.03412 5.24605 0
M  V30 364 C 32.3242 2.99478 4.27914 0
M  V30 365 H 34.0182 1.93708 2.28292 0
M  V30 366 H 31.5642 0.932761 1.09707 0
M  V30 367 H 33.5172 0.423332 4.19268 0
M  V30 368 H 32.2412 -0.379213 3.24391 0
M  V30 369 H 30.9002 1.75316 3.21963 0
M  V30 370 H 30.5482 0.063518 5.0296 0
M  V30 371 H 30.2482 1.71754 5.61938 0
M  V30 372 H 31.7722 0.886066 6.04137 0
M  V30 373 H 33.1862 2.88153 4.95622 0
M  V30 374 H 31.5832 3.64903 4.76409 0
M  V30 375 H 32.6532 3.49742 3.3587 0
M  V30 376 N 33.9963 -1.19345 1.0293 0
M  V30 377 C 35.2453 -1.88363 0.721256 0
M  V30 378 C 35.5583 -1.80514 -0.753254 0
M  V30 379 O 36.7643 -2.44788 -1.17436 0
M  V30 380 C 35.2203 -3.37872 1.23978 0
M  V30 381 C 34.8283 -3.54278 2.74211 0
M  V30 382 C 36.5723 -4.12365 1.00775 0
M  V30 383 C 34.4793 -4.97682 3.19479 0
M  V30 384 H 33.4093 -0.705484 0.266098 0
M  V30 385 H 36.0603 -1.34928 1.24365 0
M  V30 386 H 34.4423 -3.90707 0.6453 0
M  V30 387 H 35.6163 -3.11769 3.39318 0
M  V30 388 H 33.9313 -2.93174 2.95699 0
M  V30 389 H 36.5283 -5.18119 1.32123 0
M  V30 390 H 36.8713 -4.16263 -0.0554308 0
M  V30 391 H 37.4043 -3.65668 1.56625 0
M  V30 392 H 34.1433 -4.98945 4.25128 0
M  V30 393 H 33.6633 -5.4095 2.591 0
M  V30 394 H 35.3423 -5.66337 3.12845 0
M  V30 395 N 35.4744 -0.807222 -1.35358 0
M  V30 396 C 36.7214 -0.387888 -1.9875 0
M  V30 397 C 37.0494 1.04509 -1.64037 0
M  V30 398 O 36.3044 1.73986 -0.895946 0
M  V30 399 C 36.6034 -0.519036 -3.53611 0
M  V30 400 C 36.2694 -1.91542 -4.08194 0
M  V30 401 C 34.9314 -2.29745 -4.22813 0
M  V30 402 C 37.2834 -2.82896 -4.37744 0
M  V30 403 C 34.6114 -3.58668 -4.643 0
M  V30 404 C 36.9634 -4.11265 -4.8067 0
M  V30 405 C 35.6274 -4.49466 -4.93494 0
M  V30 406 H 34.8974 -0.141938 -0.727279 0
M  V30 407 H 37.5444 -1.02814 -1.6156 0
M  V30 408 H 35.8494 0.204658 -3.91265 0
M  V30 409 H 37.5464 -0.175345 -4.00616 0
M  V30 410 H 34.1364 -1.60862 -3.97268 0
M  V30 411 H 38.3204 -2.54629 -4.26002 0
M  V30 412 H 33.5764 -3.88113 -4.72418 0
M  V30 413 H 37.7504 -4.82153 -5.02496 0
M  V30 414 H 35.3774 -5.49418 -5.25399 0
M  V30 415 N 36.9525 1.47285 -0.560781 0
M  V30 416 C 38.3685 1.58065 -0.22081 0
M  V30 417 C 38.5685 1.55892 1.27671 0
M  V30 418 O 37.6245 1.46422 2.0571 0
M  V30 419 C 38.9375 2.88418 -0.850625 0
M  V30 420 C 40.4855 3.02009 -0.822184 0
M  V30 421 C 40.9605 4.35066 -1.43113 0
M  V30 422 N 42.4515 4.41711 -1.39448 0
M  V30 423 C 43.1865 5.43237 -1.83525 0
M  V30 424 N 42.6825 6.51555 -2.35474 0
M  V30 425 N 44.4755 5.34304 -1.74574 0
M  V30 426 H 36.6265 1.46941 -1.53369 0
M  V30 427 H 38.8895 0.699558 -0.639783 0
M  V30 428 H 38.5955 2.95755 -1.9032 0
M  V30 429 H 38.4695 3.75612 -0.345773 0
M  V30 430 H 40.8565 2.94266 0.221714 0
M  V30 431 H 40.9375 2.16347 -1.36483 0
M  V30 432 H 40.5815 4.43565 -2.47412 0
M  V30 433 H 40.5115 5.19465 -0.863899 0
M  V30 434 H 43.0025 3.64027 -1.01452 0
M  V30 435 H 43.3155 7.25203 -2.67021 0
M  V30 436 H 41.6605 6.52435 -2.39487 0
M  V30 437 H 44.8515 4.48581 -1.33763 0
M  V30 438 H 45.0245 6.13288 -2.09242 0
M  V30 439 N 38.4306 0.297415 1.54768 0
M  V30 440 C 39.6796 -0.313669 1.99246 0
M  V30 441 C 39.9926 -1.55281 1.18942 0
M  V30 442 O 41.1986 -2.23825 1.5367 0
M  V30 443 C 39.6546 -0.609407 3.54703 0
M  V30 444 C 39.2626 0.611192 4.43811 0
M  V30 445 C 41.0066 -1.18188 4.07715 0
M  V30 446 C 38.9136 0.288805 5.90694 0
M  V30 447 H 37.8436 -0.120979 0.744231 0
M  V30 448 H 40.4946 0.40556 1.78962 0
M  V30 449 H 38.8766 -1.38813 3.70873 0
M  V30 450 H 40.0506 1.3875 4.39414 0
M  V30 451 H 38.3656 1.10205 4.01552 0
M  V30 452 H 40.9626 -1.43727 5.15021 0
M  V30 453 H 41.3056 -2.12299 3.58099 0
M  V30 454 H 41.8386 -0.464944 3.95074 0
M  V30 455 H 38.5776 1.19838 6.44453 0
M  V30 456 H 38.0976 -0.450305 5.98107 0
M  V30 457 H 39.7766 -0.110933 6.46905 0
M  V30 458 N 39.9087 -1.5758 0.0250728 0
M  V30 459 C 40.8717 -2.08896 -0.943139 0
M  V30 460 C 41.8717 -1.00321 -1.25668 0
M  V30 461 O 43.0617 -1.26495 -1.19769 0
M  V30 462 C 40.1937 -2.55143 -2.26086 0
M  V30 463 H 41.3867 -2.95723 -0.498775 0
M  V30 464 H 38.9397 -1.54703 -0.222888 0
M  V30 465 H 39.6747 -1.71633 -2.75159 0
M  V30 466 H 39.4597 -3.34461 -2.04641 0
M  V30 467 H 40.9497 -2.95083 -2.95492 0
M  V30 468 N 41.3868 0.248026 -1.55636 0
M  V30 469 C 42.6358 0.974134 -1.76617 0
M  V30 470 C 42.9488 1.86528 -0.588796 0
M  V30 471 O 44.1548 2.62805 -0.681594 0
M  V30 472 C 42.6108 1.78213 -3.12679 0
M  V30 473 C 42.2188 0.93843 -4.38061 0
M  V30 474 C 43.9628 2.50104 -3.42999 0
M  V30 475 C 41.8698 1.74225 -5.65155 0
M  V30 476 H 40.7998 0.36745 -0.658405 0
M  V30 477 H 43.4508 0.22884 -1.82067 0
M  V30 478 H 41.8328 2.56933 -3.01333 0
M  V30 479 H 43.0068 0.193635 -4.60393 0
M  V30 480 H 41.3218 0.332905 -4.15067 0
M  V30 481 H 43.9188 3.10694 -4.3517 0
M  V30 482 H 44.2618 3.21662 -2.64271 0
M  V30 483 H 44.7948 1.78395 -3.55556 0
M  V30 484 H 41.5338 1.07043 -6.46701 0
M  V30 485 H 41.0538 2.46235 -5.46926 0
M  V30 486 H 42.7328 2.30967 -6.0437 0
M  V30 487 N 42.8649 1.48995 0.513639 0
M  V30 488 C 43.7949 1.67636 1.62544 0
M  V30 489 C 44.7759 0.525087 1.61793 0
M  V30 490 O 45.9609 0.759502 1.78732 0
M  V30 491 C 43.0909 1.73114 3.01079 0
M  V30 492 C 42.0449 2.87905 3.16693 0
M  V30 493 C 41.3709 2.78486 4.56453 0
M  V30 494 C 42.6709 4.29005 2.97913 0
M  V30 495 H 44.3649 2.60716 1.47198 0
M  V30 496 H 41.9109 1.25465 0.706714 0
M  V30 497 H 43.8639 1.84742 3.78746 0
M  V30 498 H 42.5879 0.766241 3.17484 0
M  V30 499 H 41.2469 2.75859 2.41448 0
M  V30 500 H 40.8949 1.7993 4.69717 0
M  V30 501 H 40.5949 3.55523 4.67843 0
M  V30 502 H 42.1189 2.92104 5.36197 0
M  V30 503 H 43.5329 4.41798 3.65359 0
M  V30 504 H 41.9299 5.07166 3.20785 0
M  V30 505 H 42.9999 4.44329 1.94165 0
M  V30 506 N 44.343 -0.763751 1.37857 0
M  V30 507 C 45.273 -1.89103 1.36975 0
M  V30 508 C 46.254 -1.68439 0.237152 0
M  V30 509 O 47.439 -1.8918 0.438713 0
M  V30 510 C 44.569 -3.26496 1.18395 0
M  V30 511 C 43.523 -3.61741 2.28751 0
M  V30 512 C 42.849 -4.97762 1.95286 0
M  V30 513 C 44.149 -3.67665 3.70972 0
M  V30 514 H 45.843 -1.90099 2.31307 0
M  V30 515 H 43.389 -0.91319 1.11341 0
M  V30 516 H 45.342 -4.05003 1.16406 0
M  V30 517 H 44.066 -3.25955 0.205215 0
M  V30 518 H 42.725 -2.85547 2.29909 0
M  V30 519 H 42.373 -4.93769 0.959221 0
M  V30 520 H 42.073 -5.22313 2.69189 0
M  V30 521 H 43.597 -5.7866 1.94898 0
M  V30 522 H 45.011 -4.36307 3.719 0
M  V30 523 H 43.408 -4.03718 4.43995 0
M  V30 524 H 44.478 -2.68134 4.0402 0
M  V30 525 N 45.8211 -1.22559 -0.990812 0
M  V30 526 C 46.7511 -1.0218 -2.09956 0
M  V30 527 C 47.7321 0.0579394 -1.70001 0
M  V30 528 O 48.9171 -0.104684 -1.93918 0
M  V30 529 C 46.0471 -0.601023 -3.4206 0
M  V30 530 C 45.0011 -1.62694 -3.95872 0
M  V30 531 C 44.3271 -1.06193 -5.24049 0
M  V30 532 C 45.6271 -3.01743 -4.2632 0
M  V30 533 H 47.3211 -1.94916 -2.27262 0
M  V30 534 H 44.8671 -0.938566 -1.09211 0
M  V30 535 H 46.8201 -0.445561 -4.19038 0
M  V30 536 H 45.5441 0.362005 -3.24588 0
M  V30 537 H 44.2031 -1.77021 -3.21028 0
M  V30 538 H 43.8511 -0.0901903 -5.02919 0
M  V30 539 H 43.5511 -1.74732 -5.61019 0
M  V30 540 H 45.0751 -0.918092 -6.03658 0
M  V30 541 H 46.4891 -2.90777 -4.94087 0
M  V30 542 H 44.8861 -3.67425 -4.74467 0
M  V30 543 H 45.9561 -3.51518 -3.34011 0
M  V30 544 N 47.2992 1.18797 -1.03562 0
M  V30 545 C 48.5272 1.92599 -0.755869 0
M  V30 546 C 48.9422 1.75886 0.686271 0
M  V30 547 O 48.2992 1.08517 1.46732 0
M  V30 548 C 48.3502 3.44159 -1.10619 0
M  V30 549 O 48.0712 3.60341 -2.4917 0
M  V30 550 C 49.5722 4.3507 -0.850214 0
M  V30 551 H 46.7922 0.611587 -0.276048 0
M  V30 552 H 49.3362 1.50742 -1.38192 0
M  V30 553 H 47.4912 3.83823 -0.525194 0
M  V30 554 H 47.9052 4.54128 -2.62427 0
M  V30 555 H 49.3792 5.39989 -1.14523 0
M  V30 556 H 49.8562 4.38673 0.215176 0
M  V30 557 H 50.4622 4.01097 -1.41426 0
M  V30 558 N 48.7773 0.814389 1.34928 0
M  V30 559 C 50.0233 0.399013 1.98836 0
M  V30 560 C 50.3563 -1.03314 1.64438 0
M  V30 561 O 49.6313 -1.71811 0.911659 0
M  V30 562 C 49.9143 0.591629 3.55207 0
M  V30 563 C 49.7673 2.06928 3.99376 0
M  V30 564 C 51.0863 0.022199 4.40094 0
M  V30 565 H 48.2053 0.146451 0.722303 0
M  V30 566 H 50.8473 1.02537 1.59957 0
M  V30 567 H 48.9973 0.0584441 3.88456 0
M  V30 568 H 50.6693 2.66544 3.76499 0
M  V30 569 H 48.9123 2.56287 3.49999 0
M  V30 570 H 49.5833 2.1549 5.08201 0
M  V30 571 H 52.0593 0.477643 4.13349 0
M  V30 572 H 50.9353 0.186832 5.48582 0
M  V30 573 H 51.1963 -1.07215 4.28902 0
M  V30 574 N 50.2554 -1.46986 0.568584 0
M  V30 575 C 51.5014 -2.02741 0.0488709 0
M  V30 576 C 51.8344 -1.44077 -1.30214 0
M  V30 577 O 51.1094 -0.600552 -1.84996 0
M  V30 578 C 51.3924 -3.60086 -0.032047 0
M  V30 579 C 51.2454 -4.29162 1.34686 0
M  V30 580 C 52.5644 -4.33838 -0.739798 0
M  V30 581 H 49.6834 -0.736749 0.0192338 0
M  V30 582 H 52.3254 -1.75289 0.733065 0
M  V30 583 H 50.4754 -3.83606 -0.61473 0
M  V30 584 H 52.1474 -4.16948 1.97362 0
M  V30 585 H 50.3904 -3.89073 1.91846 0
M  V30 586 H 51.0614 -5.37826 1.24285 0
M  V30 587 H 53.5374 -4.15378 -0.244939 0
M  V30 588 H 52.4134 -5.43537 -0.765406 0
M  V30 589 H 52.6744 -4.03875 -1.79827 0
M  V30 590 N 51.7335 -0.305618 -1.54608 0
M  V30 591 C 52.9615 0.304775 -2.04643 0
M  V30 592 C 53.3765 1.47167 -1.18268 0
M  V30 593 O 52.7335 1.81296 -0.209328 0
M  V30 594 C 52.7845 0.756564 -3.53495 0
M  V30 595 O 52.5055 -0.36389 -4.36586 0
M  V30 596 C 54.0065 1.43163 -4.19546 0
M  V30 597 H 51.2265 0.0655481 -0.667791 0
M  V30 598 H 53.7705 -0.446592 -1.99564 0
M  V30 599 H 51.9255 1.45794 -3.58919 0
M  V30 600 H 52.3395 -0.0113121 -5.24499 0
M  V30 601 H 53.8135 1.69886 -5.25207 0
M  V30 602 H 54.2905 2.37318 -3.69563 0
M  V30 603 H 54.8965 0.773307 -4.18211 0
M  V30 604 N 53.2116 1.57565 -0.0334293 0
M  V30 605 C 54.1416 2.13511 0.945265 0
M  V30 606 C 55.1226 1.05231 1.33643 0
M  V30 607 O 56.3076 1.33084 1.41429 0
M  V30 608 C 53.4376 2.6657 2.22616 0
M  V30 609 C 52.3916 3.79676 1.97561 0
M  V30 610 C 51.7176 4.1918 3.31952 0
M  V30 611 C 53.0176 5.0557 1.31135 0
M  V30 612 H 54.7116 2.95538 0.479325 0
M  V30 613 H 52.2576 1.42166 0.229115 0
M  V30 614 H 54.2106 3.04344 2.91466 0
M  V30 615 H 52.9346 1.8171 2.71384 0
M  V30 616 H 51.5936 3.42347 1.31127 0
M  V30 617 H 51.2416 3.31296 3.78487 0
M  V30 618 H 50.9416 4.95402 3.15992 0
M  V30 619 H 52.4656 4.59541 4.02063 0
M  V30 620 H 53.8796 5.40903 1.89992 0
M  V30 621 H 52.2766 5.86818 1.25559 0
M  V30 622 H 53.3466 4.84062 0.284894 0
M  V30 623 N 54.6897 -0.239769 1.55765 0
M  V30 624 C 55.6527 -1.28038 1.90103 0
M  V30 625 C 56.6527 -1.40723 0.778055 0
M  V30 626 O 57.8427 -1.39301 1.04599 0
M  V30 627 C 54.9747 -2.65702 2.13577 0
M  V30 628 H 56.1677 -0.988048 2.83157 0
M  V30 629 H 53.7207 -0.479382 1.48767 0
M  V30 630 H 54.4557 -3.00063 1.23015 0
M  V30 631 H 54.2407 -2.57875 2.95369 0
M  V30 632 H 55.7307 -3.40828 2.41301 0
M  V30 633 N 56.1678 -1.49265 -0.50573 0
M  V30 634 C 57.3958 -1.62215 -1.28429 0
M  V30 635 C 57.8108 -0.291697 -1.86533 0
M  V30 636 O 57.1678 0.722233 -1.67601 0
M  V30 637 C 57.2188 -2.68735 -2.41793 0
M  V30 638 O 56.9398 -3.96619 -1.86078 0
M  V30 639 C 58.4408 -2.92346 -3.3324 0
M  V30 640 H 55.6608 -0.546239 -0.389697 0
M  V30 641 H 58.2048 -1.95265 -0.607609 0
M  V30 642 H 56.3598 -2.38476 -3.053 0
M  V30 643 H 56.7738 -4.55256 -2.60465 0
M  V30 644 H 58.2478 -3.70623 -4.09075 0
M  V30 645 H 58.7248 -2.02081 -3.89948 0
M  V30 646 H 59.3308 -3.24003 -2.75503 0
M  V30 647 N 57.6459 0.756429 -1.3826 0
M  V30 648 C 58.8709 1.55077 -1.37717 0
M  V30 649 C 59.2959 1.88073 0.03164 0
M  V30 650 O 58.6539 1.50364 1.01293 0
M  V30 651 C 58.7019 2.8283 -2.23695 0
M  V30 652 O 57.8059 3.77862 -1.6521 0
M  V30 653 H 57.1469 0.469152 -0.469885 0
M  V30 654 H 59.6769 0.935019 -1.81985 0
M  V30 655 H 59.6869 3.31783 -2.37453 0
M  V30 656 H 58.3619 2.58144 -3.2609 0
M  V30 657 H 56.9389 3.36555 -1.60578 0
M  V30 658 N 59.124 1.23083 0.984299 0
M  V30 659 C 60.37 1.06214 1.72761 0
M  V30 660 C 60.703 -0.400584 1.90024 0
M  V30 661 O 59.978 -1.29672 1.44967 0
M  V30 662 C 60.261 1.78375 3.12817 0
M  V30 663 C 60.114 3.32296 3.03149 0
M  V30 664 C 61.433 1.54309 4.12161 0
M  V30 665 H 58.552 0.387251 0.627061 0
M  V30 666 H 61.194 1.51536 1.14616 0
M  V30 667 H 59.344 1.39848 3.62457 0
M  V30 668 H 61.016 3.8032 2.61064 0
M  V30 669 H 59.259 3.6153 2.39747 0
M  V30 670 H 59.93 3.77972 4.02295 0
M  V30 671 H 62.406 1.87791 3.71314 0
M  V30 672 H 61.282 2.07281 5.08258 0
M  V30 673 H 61.543 0.477572 4.39513 0
M  V30 674 N 60.6021 -1.18246 1.0419 0
M  V30 675 C 61.5651 -2.20128 0.638452 0
M  V30 676 C 62.5651 -1.57885 -0.304805 0
M  V30 677 O 63.7551 -1.73967 -0.0900369 0
M  V30 678 C 60.8871 -3.4084 -0.0637751 0
M  V30 679 H 62.0801 -2.57336 1.54007 0
M  V30 680 H 59.6331 -1.32152 0.834598 0
M  V30 681 H 60.3681 -3.09166 -0.979136 0
M  V30 682 H 60.1531 -3.8726 0.614198 0
M  V30 683 H 61.6431 -4.16274 -0.332512 0
M  V30 684 N 62.0802 -0.821533 -1.34494 0
M  V30 685 C 63.3052 -0.420873 -2.03085 0
M  V30 686 C 63.7302 0.964915 -1.61465 0
M  V30 687 O 63.0882 1.62763 -0.798607 0
M  V30 688 C 63.1362 -0.529414 -3.56693 0
M  V30 689 O 62.2402 0.451302 -4.09923 0
M  V30 690 H 61.5812 -0.173489 -0.640935 0
M  V30 691 H 64.1112 -1.11157 -1.71771 0
M  V30 692 H 64.1212 -0.404671 -4.05988 0
M  V30 693 H 62.7962 -1.54014 -3.86332 0
M  V30 694 H 61.3732 0.285558 -3.71805 0
M  V30 695 N 63.5583 1.46682 -0.576371 0
M  V30 696 C 64.4883 2.33028 0.148397 0
M  V30 697 C 65.4693 1.44961 0.889956 0
M  V30 698 O 66.6543 1.73789 0.866662 0
M  V30 699 C 63.7843 3.27117 1.1667 0
M  V30 700 C 62.7383 4.24575 0.540386 0
M  V30 701 C 62.0643 5.08126 1.6647 0
M  V30 702 C 63.3643 5.19722 -0.518331 0
M  V30 703 H 65.0583 2.93875 -0.572509 0
M  V30 704 H 62.6043 1.41315 -0.276768 0
M  V30 705 H 64.5573 3.86374 1.68204 0
M  V30 706 H 63.2813 2.64364 1.9178 0
M  V30 707 H 61.9403 3.66571 0.0461769 0
M  V30 708 H 61.5883 4.41762 2.40531 0
M  V30 709 H 61.2883 5.74122 1.25131 0
M  V30 710 H 62.8123 5.70246 2.18293 0
M  V30 711 H 64.2263 5.73232 -0.0883058 0
M  V30 712 H 62.6233 5.94026 -0.851679 0
M  V30 713 H 63.6933 4.64037 -1.40703 0
M  V30 714 N 65.0364 0.313813 1.54444 0
M  V30 715 C 66.2824 -0.292108 2.00685 0
M  V30 716 C 66.6154 -1.52548 1.20177 0
M  V30 717 O 65.8904 -1.92452 0.281531 0
M  V30 718 C 66.1734 -0.635968 3.5444 0
M  V30 719 C 66.0264 0.607437 4.4568 0
M  V30 720 C 67.3454 -1.45747 4.15266 0
M  V30 721 H 64.4644 -0.104697 0.729526 0
M  V30 722 H 67.1064 0.428457 1.85106 0
M  V30 723 H 65.2564 -1.24986 3.67846 0
M  V30 724 H 66.9284 1.24581 4.44159 0
M  V30 725 H 65.1714 1.23822 4.15753 0
M  V30 726 H 65.8424 0.322515 5.51057 0
M  V30 727 H 68.3184 -0.938645 4.05375 0
M  V30 728 H 67.1944 -1.66683 5.2298 0
M  V30 729 H 67.4554 -2.45063 3.67963 0
M  V30 730 N 66.5145 -1.57545 0.0417849 0
M  V30 731 C 67.7445 -1.96339 -0.642995 0
M  V30 732 C 68.1525 -0.917536 -1.65463 0
M  V30 733 O 67.4955 0.107747 -1.83384 0
M  V30 734 C 67.5575 -3.31333 -1.39494 0
M  V30 735 C 67.2215 -4.53796 -0.540204 0
M  V30 736 C 68.2185 -5.19553 0.189806 0
M  V30 737 C 65.9035 -5.0006 -0.473886 0
M  V30 738 C 67.8975 -6.29904 0.974674 0
M  V30 739 C 65.5845 -6.10289 0.314677 0
M  V30 740 C 66.5825 -6.75072 1.03765 0
M  V30 741 O 66.2705 -7.83183 1.81327 0
M  V30 742 H 66.0025 -0.651241 -0.181277 0
M  V30 743 H 68.5565 -2.05148 0.101665 0
M  V30 744 H 66.7865 -3.19052 -2.18502 0
M  V30 745 H 68.4755 -3.54942 -1.96904 0
M  V30 746 H 69.2415 -4.84774 0.147981 0
M  V30 747 H 65.1205 -4.49433 -1.0262 0
M  V30 748 H 68.6645 -6.80401 1.5395 0
M  V30 749 H 64.5615 -6.44506 0.358174 0
M  V30 750 H 65.3295 -7.99913 1.73438 0
M  V30 751 N 67.9926 0.231505 -1.5589 0
M  V30 752 C 69.2176 0.978689 -1.82856 0
M  V30 753 C 69.6426 1.77559 -0.620846 0
M  V30 754 O 69.0006 1.76119 0.430305 0
M  V30 755 C 69.0486 1.87997 -3.07716 0
M  V30 756 O 68.1526 2.97393 -2.85712 0
M  V30 757 H 67.4936 0.277663 -0.603158 0
M  V30 758 H 70.0236 0.24783 -2.03093 0
M  V30 759 H 70.0336 2.2917 -3.37558 0
M  V30 760 H 68.7086 1.29417 -3.95252 0
M  V30 761 H 67.2856 2.60238 -2.67078 0
M  V30 762 N 69.4707 1.49531 0.497807 0
M  V30 763 C 70.4037 1.61043 1.6168 0
M  V30 764 C 71.3817 0.459386 1.55976 0
M  V30 765 O 72.5657 0.675358 1.75986 0
M  V30 766 C 69.6927 1.56833 3.00202 0
M  V30 767 C 68.7387 2.77173 3.24156 0
M  V30 768 S 69.5717 4.38808 3.06933 0
M  V30 769 C 70.7277 4.37248 4.47845 0
M  V30 770 H 70.9607 2.55702 1.51671 0
M  V30 771 H 68.4937 1.38462 0.683201 0
M  V30 772 H 70.4517 1.55089 3.80076 0
M  V30 773 H 69.1127 0.634561 3.07623 0
M  V30 774 H 68.3057 2.70456 4.25288 0
M  V30 775 H 67.9077 2.76346 2.5201 0
M  V30 776 H 70.1997 4.09164 5.39992 0
M  V30 777 H 71.1427 5.38668 4.59612 0
M  V30 778 H 71.5507 3.67286 4.28674 0
M  V30 779 N 70.9488 -0.749086 1.3866 0
M  V30 780 C 72.1968 -1.50535 1.34847 0
M  V30 781 C 72.5178 -1.94909 -0.0595016 0
M  V30 782 O 71.7878 -1.67973 -1.00806 0
M  V30 783 H 70.3678 -0.558395 0.49619 0
M  V30 784 H 73.0298 -0.890165 1.73384 0
M  V30 785 H 72.1258 -2.39413 2.00219 0
M  V30 786 N 72.4269 -1.23603 -0.977757 0
M  V30 787 C 73.3899 -1.02069 -2.05218 0
M  V30 788 C 74.3899 0.0184305 -1.60789 0
M  V30 789 O 75.5799 -0.221569 -1.72785 0
M  V30 790 C 72.7119 -0.544926 -3.36517 0
M  V30 791 H 73.9049 -1.9742 -2.25755 0
M  V30 792 H 71.4579 -1.05684 -1.15155 0
M  V30 793 H 72.1929 0.412241 -3.21669 0
M  V30 794 H 71.9779 -1.2948 -3.70105 0
M  V30 795 H 73.4679 -0.414985 -4.15533 0
M  V30 796 N 73.905 1.17692 -1.04816 0
M  V30 797 C 75.13 1.92327 -0.776207 0
M  V30 798 C 75.555 1.76082 0.661581 0
M  V30 799 O 74.913 1.076 1.45917 0
M  V30 800 C 74.961 3.41539 -1.15687 0
M  V30 801 O 74.065 4.11402 -0.286775 0
M  V30 802 H 73.406 0.599735 -0.284981 0
M  V30 803 H 75.936 1.49201 -1.4 0
M  V30 804 H 75.946 3.92269 -1.12202 0
M  V30 805 H 74.621 3.52684 -2.20425 0
M  V30 806 H 73.198 3.70939 -0.381903 0
M  V30 807 N 75.3831 0.828654 1.34056 0
M  V30 808 C 76.6111 0.43262 2.02326 0
M  V30 809 C 77.0261 -0.963147 1.62385 0
M  V30 810 O 76.3831 -1.62425 0.832121 0
M  V30 811 C 76.4341 0.53182 3.57567 0
M  V30 812 O 76.1551 1.87258 3.96063 0
M  V30 813 C 77.6561 0.131422 4.43105 0
M  V30 814 H 74.8761 0.172923 0.648335 0
M  V30 815 H 77.4201 1.1184 1.71208 0
M  V30 816 H 75.5751 -0.105938 3.87255 0
M  V30 817 H 75.9891 1.85087 4.90758 0
M  V30 818 H 77.4631 0.251904 5.51425 0
M  V30 819 H 77.9401 -0.925645 4.29335 0
M  V30 820 H 78.5461 0.743207 4.18756 0
M  V30 821 N 76.8612 -1.46375 0.584142 0
M  V30 822 C 78.2722 -1.86031 0.157959 0
M  V30 823 C 78.6232 -1.48753 -1.27933 0
M  V30 824 O 77.7482 -0.903098 -1.96655 0
M  V30 825 C 78.3432 -3.37642 0.279892 0
M  V30 826 C 76.9022 -3.76289 -0.09143 0
M  V30 827 C 76.0492 -2.7039 0.615178 0
M  V30 828 H 79.0002 -1.37509 0.792274 0
M  V30 829 H 79.0212 -3.77275 -0.494364 0
M  V30 830 H 78.5332 -3.64742 1.32607 0
M  V30 831 H 76.6342 -3.54806 -1.13769 0
M  V30 832 H 76.7472 -4.78246 0.285886 0
M  V30 833 H 75.1112 -2.5464 0.0552833 0
M  V30 834 H 75.8942 -3.0033 1.66303 0
M  V30 835 N 78.3393 -0.321999 -1.54275 0
M  V30 836 C 79.5643 0.285791 -2.05422 0
M  V30 837 C 79.9893 1.45124 -1.19669 0
M  V30 838 O 79.3473 1.80132 -0.205441 0
M  V30 839 C 79.3953 0.69956 -3.53749 0
M  V30 840 O 78.4993 1.8021 -3.70942 0
M  V30 841 H 77.8403 0.0518962 -0.661969 0
M  V30 842 H 80.3703 -0.469954 -1.9913 0
M  V30 843 H 80.3803 0.982649 -3.9599 0
M  V30 844 H 79.0553 -0.152864 -4.15619 0
M  V30 845 H 77.6323 1.51794 -3.40607 0
M  V30 846 N 79.8174 1.5752 -0.0501392 0
M  V30 847 C 81.0944 1.83996 0.663685 0
M  V30 848 C 81.4744 0.938339 1.89099 0
M  V30 849 O 80.8224 -0.00087759 2.285 0
M  V30 850 C 81.0324 3.33702 1.02196 0
M  V30 851 C 82.3804 4.00691 1.40469 0
M  V30 852 O 83.4044 3.38321 1.11433 0
M  V30 853 O 82.2634 5.10658 1.94654 0
M  V30 854 H 79.3574 0.759385 0.32751 0
M  V30 855 H 81.9034 1.69514 -0.0794238 0
M  V30 856 H 80.6754 3.91015 0.149364 0
M  V30 857 H 80.2984 3.53368 1.82255 0
M  V30 858 N 81.2955 -0.223234 1.56011 0
M  V30 859 C 82.2255 -1.27988 1.95298 0
M  V30 860 C 83.2065 -1.48976 0.820979 0
M  V30 861 O 84.3915 -1.61188 1.08315 0
M  V30 862 C 81.5215 -2.63 2.26822 0
M  V30 863 C 80.4755 -2.56671 3.42497 0
M  V30 864 C 79.8015 -3.95697 3.59622 0
M  V30 865 C 81.1015 -2.11601 4.77517 0
M  V30 866 H 82.7955 -0.953525 2.8381 0
M  V30 867 H 80.3415 -0.457244 1.36548 0
M  V30 868 H 82.2945 -3.37077 2.52898 0
M  V30 869 H 81.0185 -2.9732 1.35161 0
M  V30 870 H 79.6775 -1.85051 3.16467 0
M  V30 871 H 79.3255 -4.27322 2.6534 0
M  V30 872 H 79.0255 -3.92345 4.37424 0
M  V30 873 H 80.5495 -4.71438 3.88044 0
M  V30 874 H 81.9635 -2.7542 5.02809 0
M  V30 875 H 80.3605 -2.19311 5.5859 0
M  V30 876 H 81.4305 -1.06824 4.72987 0
M  V30 877 N 82.7736 -1.49793 -0.48987 0
M  V30 878 C 84.0196 -1.60078 -1.24511 0
M  V30 879 C 84.3526 -0.291608 -1.91998 0
M  V30 880 O 83.6276 0.705647 -1.81248 0
M  V30 881 C 83.9106 -2.76791 -2.30345 0
M  V30 882 C 83.7636 -4.17535 -1.67286 0
M  V30 883 C 85.0826 -2.89111 -3.31817 0
M  V30 884 H 82.2016 -0.582645 -0.451324 0
M  V30 885 H 84.8436 -1.82117 -0.541612 0
M  V30 886 H 82.9936 -2.5813 -2.90346 0
M  V30 887 H 84.6656 -4.4774 -1.11026 0
M  V30 888 H 82.9086 -4.22665 -0.976577 0
M  V30 889 H 83.5796 -4.95094 -2.44103 0
M  V30 890 H 86.0556 -3.06133 -2.81819 0
M  V30 891 H 84.9316 -3.72433 -4.03219 0
M  V30 892 H 85.1926 -1.9893 -3.94815 0
M  V30 893 N 84.2517 0.741722 -1.39055 0
M  V30 894 C 85.4997 1.49818 -1.35643 0
M  V30 895 C 85.8207 1.94938 0.0491642 0
M  V30 896 O 85.0907 1.68505 0.999141 0
M  V30 897 H 83.6707 0.555755 -0.499144 0
M  V30 898 H 86.3327 0.880957 -1.73854 0
M  V30 899 H 85.4287 2.38348 -2.01486 0
M  V30 900 N 85.7298 1.2412 0.971189 0
M  V30 901 C 86.9788 1.07284 1.70801 0
M  V30 902 C 87.2918 -0.388902 1.91695 0
M  V30 903 O 88.4978 -0.677379 2.62914 0
M  V30 904 C 86.9538 1.87145 3.07416 0
M  V30 905 C 86.5618 3.37707 2.94377 0
M  V30 906 C 88.3058 1.78828 3.84995 0
M  V30 907 C 86.2128 4.09925 4.26281 0
M  V30 908 H 85.1428 0.397854 0.64049 0
M  V30 909 H 87.7938 1.4817 1.0825 0
M  V30 910 H 86.1758 1.39071 3.70777 0
M  V30 911 H 87.3498 3.93335 2.4005 0
M  V30 912 H 85.6648 3.46938 2.30267 0
M  V30 913 H 88.2618 2.30089 4.82662 0
M  V30 914 H 88.6048 0.75284 4.09436 0
M  V30 915 H 89.1378 2.24563 3.28354 0
M  V30 916 H 85.8768 5.13813 4.07033 0
M  V30 917 H 85.3968 3.59083 4.80437 0
M  V30 918 H 87.0758 4.1673 4.94919 0
M  V30 919 N 87.2079 -1.17134 1.05439 0
M  V30 920 C 88.6189 -1.69084 0.791676 0
M  V30 921 C 88.9699 -1.83822 -0.685839 0
M  V30 922 O 88.0949 -1.52757 -1.53278 0
M  V30 923 C 88.6899 -3.07119 1.4305 0
M  V30 924 C 87.2489 -3.56225 1.21577 0
M  V30 925 C 86.3959 -2.32421 1.51247 0
M  V30 926 H 89.3469 -1.01617 1.219 0
M  V30 927 H 89.3679 -3.71087 0.84112 0
M  V30 928 H 88.8799 -2.9636 2.50584 0
M  V30 929 H 86.9809 -3.72257 0.159787 0
M  V30 930 H 87.0939 -4.38837 1.92246 0
M  V30 931 H 85.4579 -2.3701 0.932653 0
M  V30 932 H 86.2409 -2.24268 2.5992 0
M  V30 933 N 88.686 -0.835752 -1.33615 0
M  V30 934 C 89.914 -0.443344 -2.02094 0
M  V30 935 C 90.329 0.954522 -1.62894 0
M  V30 936 O 89.686 1.61982 -0.840723 0
M  V30 937 C 89.737 -0.550775 -3.5728 0
M  V30 938 O 89.458 -1.89356 -3.95065 0
M  V30 939 C 90.959 -0.154919 -4.43029 0
M  V30 940 H 88.179 -0.176359 -0.647409 0
M  V30 941 H 90.723 -1.12746 -1.70612 0
M  V30 942 H 88.878 0.0853997 -3.87306 0
M  V30 943 H 89.292 -1.87687 -4.89769 0
M  V30 944 H 90.766 -0.281144 -5.51284 0
M  V30 945 H 91.243 0.902863 -4.2982 0
M  V30 946 H 91.849 -0.765404 -4.18356 0
M  V30 947 N 90.1641 1.46063 -0.591896 0
M  V30 948 C 91.5801 1.57561 -0.254288 0
M  V30 949 C 91.7801 1.58565 1.24336 0
M  V30 950 O 90.8361 1.50753 2.02558 0
M  V30 951 C 92.1491 2.86549 -0.911611 0
M  V30 952 C 93.6971 3.00197 -0.886059 0
M  V30 953 C 94.1721 4.31933 -1.5231 0
M  V30 954 N 95.6631 4.38654 -1.48786 0
M  V30 955 C 96.3981 5.39222 -1.95006 0
M  V30 956 N 95.8941 6.46414 -2.49241 0
M  V30 957 N 97.6871 5.3048 -1.85868 0
M  V30 958 H 89.8381 1.43655 -1.56451 0
M  V30 959 H 92.1011 0.68583 -0.654478 0
M  V30 960 H 91.8071 2.91651 -1.96551 0
M  V30 961 H 91.6811 3.74794 -0.425368 0
M  V30 962 H 94.0681 2.9467 0.159246 0
M  V30 963 H 94.1491 2.13403 -1.41041 0
M  V30 964 H 93.7931 4.38217 -2.56765 0
M  V30 965 H 93.7231 5.17516 -0.973891 0
M  V30 966 H 96.2141 3.61793 -1.09151 0
M  V30 967 H 96.5271 7.19376 -2.82344 0
M  V30 968 H 94.8721 6.47208 -2.53272 0
M  V30 969 H 98.0631 4.45643 -1.43248 0
M  V30 970 H 98.2361 6.08711 -2.22204 0
M  V30 971 N 91.6422 0.330177 1.54103 0
M  V30 972 C 92.8912 -0.271336 1.99867 0
M  V30 973 C 93.2042 -1.52723 1.22209 0
M  V30 974 O 94.4102 -2.20515 1.58383 0
M  V30 975 C 92.8662 -0.534032 3.55916 0
M  V30 976 C 92.4742 0.705193 4.42415 0
M  V30 977 C 94.2182 -1.09514 4.1013 0
M  V30 978 C 92.1252 0.414035 5.89949 0
M  V30 979 H 91.0552 -0.105166 0.74663 0
M  V30 980 H 93.7062 0.443429 1.78062 0
M  V30 981 H 92.0882 -1.30915 3.73734 0
M  V30 982 H 93.2622 1.4804 4.36372 0
M  V30 983 H 91.5772 1.18698 3.99124 0
M  V30 984 H 94.1742 -1.3277 5.17954 0
M  V30 985 H 94.5172 -2.04656 3.62521 0
M  V30 986 H 95.0502 -0.381038 3.95971 0
M  V30 987 H 91.7892 1.33481 6.41766 0
M  V30 988 H 91.3092 -0.323336 5.98928 0
M  V30 989 H 92.9882 0.0263105 6.46995 0
M  V30 990 N 93.1203 -1.57491 0.0584922 0
M  V30 991 C 94.3453 -1.97711 -0.62652 0
M  V30 992 C 94.7703 -0.936132 -1.63151 0
M  V30 993 O 94.1283 0.099811 -1.81025 0
M  V30 994 C 94.1763 -3.36989 -1.28338 0
M  V30 995 O 93.2803 -3.35433 -2.39913 0
M  V30 996 H 92.6213 -0.643868 -0.162266 0
M  V30 997 H 95.1513 -2.04193 0.129064 0
M  V30 998 H 95.1613 -3.73879 -1.63335 0
M  V30 999 H 93.8363 -4.12289 -0.546889 0
M  V30 1000 H 92.4133 -3.10298 -2.06809 0
M  V30 1001 N 94.5984 0.214957 -1.56127 0
M  V30 1002 C 96.0144 0.564948 -1.49267 0
M  V30 1003 C 96.2144 1.86827 -0.754838 0
M  V30 1004 O 95.2704 2.50745 -0.297198 0
M  V30 1005 C 96.5834 0.638071 -2.93852 0
M  V30 1006 C 98.1314 0.728253 -3.0441 0
M  V30 1007 C 98.6064 0.832663 -4.50367 0
M  V30 1008 N 100.097 0.896712 -4.54437 0
M  V30 1009 C 100.832 0.997324 -5.6466 0
M  V30 1010 N 100.328 1.06147 -6.8462 0
M  V30 1011 N 102.121 1.03297 -5.52527 0
M  V30 1012 H 94.2724 -0.640211 -2.02522 0
M  V30 1013 H 96.5354 -0.225507 -0.920788 0
M  V30 1014 H 96.2414 -0.250126 -3.50809 0
M  V30 1015 H 96.1154 1.49947 -3.46115 0
M  V30 1016 H 98.5024 1.60689 -2.47514 0
M  V30 1017 H 98.5834 -0.158952 -2.55306 0
M  V30 1018 H 98.2274 -0.0415417 -5.07883 0
M  V30 1019 H 98.1574 1.73538 -4.97184 0
M  V30 1020 H 100.648 0.857188 -3.6805 0
M  V30 1021 H 100.961 1.1382 -7.64372 0
M  V30 1022 H 99.3064 1.03049 -6.87318 0
M  V30 1023 H 102.497 0.979558 -4.57736 0
M  V30 1024 H 102.67 1.10793 -6.38458 0
M  V30 1025 N 96.0765 1.50051 0.48192 0
M  V30 1026 C 97.0395 1.67584 1.5636 0
M  V30 1027 C 98.0395 0.546894 1.51214 0
M  V30 1028 O 99.2295 0.813725 1.54026 0
M  V30 1029 C 96.3615 1.691 2.96003 0
M  V30 1030 H 97.5545 2.64078 1.42136 0
M  V30 1031 H 95.1075 1.39369 0.707533 0
M  V30 1032 H 95.8425 0.742589 3.15684 0
M  V30 1033 H 95.6275 2.51105 3.01146 0
M  V30 1034 H 97.1175 1.84656 3.74556 0
M  V30 1035 N 97.5546 -0.734337 1.39446 0
M  V30 1036 C 98.4646 -1.87879 1.40495 0
M  V30 1037 C 99.4806 -1.714 0.299672 0
M  V30 1038 O 100.657 -1.93991 0.541249 0
M  V30 1039 C 97.7216 -3.23477 1.24754 0
M  V30 1040 C 96.7826 -3.52344 2.45259 0
M  V30 1041 C 96.0156 -4.81473 2.30259 0
M  V30 1042 O 96.2386 -5.55237 1.30643 0
M  V30 1043 O 95.1726 -5.10254 3.19256 0
M  V30 1044 H 98.9986 -1.89949 2.36966 0
M  V30 1045 H 96.5836 -0.882243 1.20569 0
M  V30 1046 H 98.4656 -4.04509 1.18111 0
M  V30 1047 H 97.1406 -3.22176 0.313781 0
M  V30 1048 H 96.0476 -2.71396 2.57478 0
M  V30 1049 H 97.3806 -3.58426 3.37331 0
M  V30 1050 N 99.0327 -1.24633 -0.964593 0
M  V30 1051 C 99.9427 -1.05859 -2.09359 0
M  V30 1052 C 100.959 0.00148855 -1.74 0
M  V30 1053 O 102.135 -0.197346 -2.00431 0
M  V30 1054 C 99.1997 -0.668879 -3.40187 0
M  V30 1055 C 98.2607 -1.80578 -3.89474 0
M  V30 1056 C 97.4937 -1.43457 -5.14058 0
M  V30 1057 O 97.7167 -0.325775 -5.69469 0
M  V30 1058 O 96.6507 -2.2613 -5.57807 0
M  V30 1059 H 100.477 -2.00516 -2.28094 0
M  V30 1060 H 98.0617 -1.03481 -1.0776 0
M  V30 1061 H 99.9437 -0.463211 -4.18846 0
M  V30 1062 H 98.6187 0.248536 -3.22744 0
M  V30 1063 H 97.5257 -2.06623 -3.11862 0
M  V30 1064 H 98.8587 -2.70208 -4.11398 0
M  V30 1065 N 100.511 1.16574 -1.06058 0
M  V30 1066 C 101.458 2.20883 -0.669263 0
M  V30 1067 C 102.428 1.62729 0.332918 0
M  V30 1068 O 103.613 1.895 0.222346 0
M  V30 1069 C 100.753 3.45049 -0.0593572 0
M  V30 1070 C 99.8658 4.17458 -1.11143 0
M  V30 1071 C 99.0008 5.29135 -0.467916 0
M  V30 1072 C 98.0398 5.93343 -1.50369 0
M  V30 1073 N 97.1768 6.96516 -0.883706 0
M  V30 1074 H 102.017 2.53709 -1.5632 0
M  V30 1075 H 99.5538 1.24616 -0.781625 0
M  V30 1076 H 101.512 4.16033 0.311771 0
M  V30 1077 H 100.142 3.12781 0.797992 0
M  V30 1078 H 99.1938 3.45101 -1.60029 0
M  V30 1079 H 100.506 4.61307 -1.89731 0
M  V30 1080 H 99.6598 6.06684 -0.0436871 0
M  V30 1081 H 98.3988 4.86443 0.349864 0
M  V30 1082 H 97.4038 5.14517 -1.93784 0
M  V30 1083 H 98.6288 6.38114 -2.32352 0
M  V30 1084 H 96.5748 6.55943 -0.086595 0
M  V30 1085 H 96.4918 7.38723 -1.607 0
M  V30 1086 H 97.7598 7.77993 -0.484543 0
M  V30 1087 N 101.989 0.842826 1.3317 0
M  V30 1088 C 103.238 0.436738 1.96915 0
M  V30 1089 C 103.551 -1.01025 1.67491 0
M  V30 1090 O 104.757 -1.5212 2.24881 0
M  V30 1091 C 103.213 0.730021 3.52418 0
M  V30 1092 C 102.821 2.19195 3.90714 0
M  V30 1093 C 104.565 0.391076 4.22695 0
M  V30 1094 C 102.472 2.42907 5.39212 0
M  V30 1095 H 101.402 0.15958 0.736919 0
M  V30 1096 H 104.053 1.03196 1.51733 0
M  V30 1097 H 102.435 0.0643755 3.95948 0
M  V30 1098 H 103.609 2.8984 3.58231 0
M  V30 1099 H 101.924 2.49425 3.33431 0
M  V30 1100 H 104.521 0.545817 5.31907 0
M  V30 1101 H 104.864 -0.666294 4.10933 0
M  V30 1102 H 105.397 1.01212 3.84709 0
M  V30 1103 H 102.136 3.47224 5.55982 0
M  V30 1104 H 101.656 1.76827 5.73142 0
M  V30 1105 H 103.335 2.2626 6.06148 0
M  V30 1106 N 103.467 -1.45747 0.599634 0
M  V30 1107 C 104.695 -2.06668 0.0978551 0
M  V30 1108 C 105.11 -1.44562 -1.21439 0
M  V30 1109 O 104.467 -0.556923 -1.73795 0
M  V30 1110 C 104.518 -3.61456 -0.0567044 0
M  V30 1111 O 104.239 -4.21242 1.20361 0
M  V30 1112 C 105.74 -4.39345 -0.590869 0
M  V30 1113 H 102.96 -0.667825 0.0651943 0
M  V30 1114 H 105.504 -1.87115 0.82511 0
M  V30 1115 H 103.659 -3.80378 -0.734251 0
M  V30 1116 H 104.073 -5.14323 1.02821 0
M  V30 1117 H 105.547 -5.48182 -0.648131 0
M  V30 1118 H 106.024 -4.08568 -1.61147 0
M  V30 1119 H 106.63 -4.25268 0.0523679 0
M  V30 1120 N 104.945 -0.338344 -1.53925 0
M  V30 1121 C 106.17 0.263987 -2.05713 0
M  V30 1122 C 106.595 1.43847 -1.21201 0
M  V30 1123 O 105.953 1.79904 -0.224535 0
M  V30 1124 C 106.001 0.662 -3.54471 0
M  V30 1125 O 105.105 1.76265 -3.72833 0
M  V30 1126 H 104.446 0.0448722 -0.662482 0
M  V30 1127 H 106.976 -0.491048 -1.9862 0
M  V30 1128 H 106.986 0.940594 -3.9701 0
M  V30 1129 H 105.661 -0.196937 -4.15433 0
M  V30 1130 H 104.238 1.48173 -3.42198 0
M  V30 1131 N 106.423 1.57458 -0.0668435 0
M  V30 1132 C 107.386 2.11323 0.887422 0
M  V30 1133 C 108.386 1.03618 1.22964 0
M  V30 1134 O 109.576 1.29626 1.16373 0
M  V30 1135 C 106.708 2.61048 2.19242 0
M  V30 1136 H 107.901 2.96942 0.420194 0
M  V30 1137 H 105.454 1.55239 0.181793 0
M  V30 1138 H 106.189 1.78868 2.70512 0
M  V30 1139 H 105.974 3.39769 1.95702 0
M  V30 1140 H 107.464 3.02814 2.87565 0
M  V30 1141 N 107.901 -0.206675 1.56239 0
M  V30 1142 C 108.831 -1.25909 1.96645 0
M  V30 1143 C 109.812 -1.48097 0.836734 0
M  V30 1144 O 110.997 -1.6003 1.10019 0
M  V30 1145 C 108.127 -2.6058 2.29599 0
M  V30 1146 C 107.081 -2.53024 3.452 0
M  V30 1147 C 106.407 -3.91861 3.63798 0
M  V30 1148 C 107.707 -2.06524 4.79734 0
M  V30 1149 H 109.401 -0.923369 2.84806 0
M  V30 1150 H 106.947 -0.442735 1.37025 0
M  V30 1151 H 108.9 -3.34375 2.56459 0
M  V30 1152 H 107.624 -2.95869 1.38307 0
M  V30 1153 H 106.283 -1.81684 3.18412 0
M  V30 1154 H 105.931 -4.24483 2.69857 0
M  V30 1155 H 105.631 -3.87683 4.4156 0
M  V30 1156 H 107.155 -4.67296 3.93022 0
M  V30 1157 H 108.569 -2.70072 5.05702 0
M  V30 1158 H 106.966 -2.13374 5.60885 0
M  V30 1159 H 108.036 -1.01802 4.74093 0
M  V30 1160 N 109.379 -1.50304 -0.473955 0
M  V30 1161 C 110.627 -1.60832 -1.22382 0
M  V30 1162 C 110.948 -0.30939 -1.9253 0
M  V30 1163 O 110.218 0.67296 -1.83978 0
M  V30 1164 H 108.798 -0.592652 -0.454723 0
M  V30 1165 H 111.46 -1.87068 -0.546968 0
M  V30 1166 H 110.556 -2.41803 -1.97327 0
M  V30 1167 N 110.857 0.726932 -1.39834 0
M  V30 1168 C 112.082 1.52121 -1.40976 0
M  V30 1169 C 112.507 1.88098 -0.00826029 0
M  V30 1170 O 111.865 1.52479 0.980807 0
M  V30 1171 C 111.913 2.78021 -2.29644 0
M  V30 1172 O 111.017 3.74272 -1.73188 0
M  V30 1173 H 110.358 0.45908 -0.479731 0
M  V30 1174 H 112.888 0.896207 -1.83927 0
M  V30 1175 H 112.898 3.26671 -2.44438 0
M  V30 1176 H 111.573 2.51169 -3.31492 0
M  V30 1177 H 110.15 3.33073 -1.6768 0
M  V30 1178 N 112.336 1.25143 0.95797 0
M  V30 1179 C 113.284 1.05019 2.07542 0
M  V30 1180 C 114.278 -0.0178751 1.69391 0
M  V30 1181 O 115.484 0.137472 1.79474 0
M  V30 1182 H 111.859 0.32265 0.679265 0
M  V30 1183 H 113.83 1.99759 2.21673 0
M  V30 1184 C 112.579 0.682074 3.40944 0
M  V30 1185 H 111.902 1.49573 3.70767 0
M  V30 1186 H 113.342 0.580945 4.20001 0
M  V30 1187 C 111.801 -0.611608 3.31302 0
M  V30 1188 O 112.331 -1.65465 3.66038 0
M  V30 1189 N 110.537 -0.595982 2.84423 0
M  V30 1190 H 110.084 0.253192 2.56353 0
M  V30 1191 H 110.042 -1.46173 2.78354 0
M  V30 1192 N 113.814 -1.1601 1.06675 0
M  V30 1193 C 114.746 -2.20115 0.638921 0
M  V30 1194 C 115.759 -1.59916 -0.305057 0
M  V30 1195 O 116.948 -1.78245 -0.0954446 0
M  V30 1196 C 114.048 -3.38798 -0.0830083 0
M  V30 1197 C 113.221 -4.2855 0.875426 0
M  V30 1198 C 112.28 -5.25849 0.192042 0
M  V30 1199 O 111.306 -5.63102 0.830921 0
M  V30 1200 N 112.508 -5.70648 -1.06493 0
M  V30 1201 H 115.273 -2.57439 1.53444 0
M  V30 1202 H 112.834 -1.31057 0.950557 0
M  V30 1203 H 114.826 -4.00936 -0.550685 0
M  V30 1204 H 113.396 -2.99947 -0.880386 0
M  V30 1205 H 112.616 -3.63617 1.52238 0
M  V30 1206 H 113.904 -4.85393 1.52548 0
M  V30 1207 H 113.302 -5.42482 -1.60405 0
M  V30 1208 H 111.859 -6.34859 -1.47641 0
M  V30 1209 N 115.292 -0.849877 -1.32721 0
M  V30 1210 C 116.569 -0.372405 -1.92022 0
M  V30 1211 C 116.949 1.1435 -1.77447 0
M  V30 1212 O 116.297 1.96296 -1.16962 0
M  V30 1213 C 116.507 -0.831482 -3.3895 0
M  V30 1214 C 117.855 -0.845882 -4.16089 0
M  V30 1215 O 118.879 -0.775806 -3.47649 0
M  V30 1216 O 117.738 -0.943753 -5.38289 0
M  V30 1217 H 114.832 -0.107667 -0.819961 0
M  V30 1218 H 117.378 -0.93646 -1.41522 0
M  V30 1219 H 116.15 -1.87448 -3.4348 0
M  V30 1220 H 115.773 -0.24461 -3.96847 0
M  V30 1221 N 116.77 1.45427 -0.607355 0
M  V30 1222 C 118.016 2.0254 -0.102607 0
M  V30 1223 C 118.349 1.47478 1.26348 0
M  V30 1224 O 117.624 0.64939 1.83339 0
M  V30 1225 C 117.907 3.60044 -0.0634347 0
M  V30 1226 C 117.76 4.2544 -1.46017 0
M  V30 1227 C 119.079 4.35646 0.624514 0
M  V30 1228 H 116.198 0.73598 -0.0387607 0
M  V30 1229 H 118.84 1.73284 -0.779282 0
M  V30 1230 H 116.99 3.85101 0.512808 0
M  V30 1231 H 118.662 4.11569 -2.08347 0
M  V30 1232 H 116.905 3.83849 -2.02094 0
M  V30 1233 H 117.576 5.34342 -1.385 0
M  V30 1234 H 120.052 4.15882 0.134723 0
M  V30 1235 H 118.928 5.45376 0.621028 0
M  V30 1236 H 119.189 4.08501 1.69055 0
M  V30 1237 N 118.248 0.346503 1.53744 0
M  V30 1238 C 119.494 -0.249473 2.0126 0
M  V30 1239 C 119.827 -1.49965 1.23386 0
M  V30 1240 O 119.102 -1.91811 0.32229 0
M  V30 1241 C 119.385 -0.560643 3.55709 0
M  V30 1242 C 119.238 0.701836 4.44291 0
M  V30 1243 C 120.557 -1.36905 4.18264 0
M  V30 1244 H 117.676 -0.0891987 0.731582 0
M  V30 1245 H 120.318 0.467624 1.84156 0
M  V30 1246 H 118.468 -1.17156 3.70414 0
M  V30 1247 H 120.14 1.33974 4.41417 0
M  V30 1248 H 118.383 1.32612 4.13033 0
M  V30 1249 H 119.054 0.43933 5.50249 0
M  V30 1250 H 121.53 -0.852448 4.07275 0
M  V30 1251 H 120.406 -1.55553 5.26398 0
M  V30 1252 H 120.667 -2.37203 3.73078 0
M  V30 1253 N 119.726 -1.57421 0.075193 0
M  V30 1254 C 121.003 -1.85029 -0.634329 0
M  V30 1255 C 121.383 -0.968305 -1.87582 0
M  V30 1256 O 120.731 -0.0354749 -2.28472 0
M  V30 1257 C 120.941 -3.35286 -0.968742 0
M  V30 1258 C 122.289 -4.02875 -1.34077 0
M  V30 1259 O 123.313 -3.40051 -1.06037 0
M  V30 1260 O 122.172 -5.13691 -1.86506 0
M  V30 1261 H 119.266 -0.7645 -0.315387 0
M  V30 1262 H 121.812 -1.69366 0.106382 0
M  V30 1263 H 120.584 -3.91203 -0.0871376 0
M  V30 1264 H 120.207 -3.56223 -1.7661 0
M  V30 1265 N 121.204 0.198386 -1.56346 0
M  V30 1266 C 122.62 0.549085 -1.49857 0
M  V30 1267 C 122.82 1.86016 -0.774611 0
M  V30 1268 O 121.876 2.50416 -0.323776 0
M  V30 1269 C 123.189 0.606868 -2.94512 0
M  V30 1270 C 124.737 0.695925 -3.05165 0
M  V30 1271 C 125.212 0.784848 -4.51225 0
M  V30 1272 N 126.703 0.848463 -4.55363 0
M  V30 1273 C 127.438 0.937378 -5.65686 0
M  V30 1274 N 126.934 0.9888 -6.85707 0
M  V30 1275 N 128.727 0.974312 -5.53592 0
M  V30 1276 H 120.878 -0.661655 -2.01831 0
M  V30 1277 H 123.141 -0.235261 -0.918344 0
M  V30 1278 H 122.847 -0.28732 -3.50524 0
M  V30 1279 H 122.721 1.46268 -3.47686 0
M  V30 1280 H 125.108 1.58055 -2.49204 0
M  V30 1281 H 125.189 -0.186022 -2.55123 0
M  V30 1282 H 124.833 -0.0954072 -5.0781 0
M  V30 1283 H 124.763 1.68255 -4.98997 0
M  V30 1284 H 127.254 0.818103 -3.68938 0
M  V30 1285 H 127.567 1.05707 -7.65536 0
M  V30 1286 H 125.912 0.957534 -6.88372 0
M  V30 1287 H 129.103 0.930954 -4.58749 0
M  V30 1288 H 129.276 1.04015 -6.39597 0
M  V30 1289 N 122.682 1.50554 0.465978 0
M  V30 1290 C 123.931 1.61038 1.21448 0
M  V30 1291 C 124.244 0.31865 1.92987 0
M  V30 1292 O 125.45 0.302469 2.6981 0
M  V30 1293 C 123.906 2.84283 2.20706 0
M  V30 1294 C 123.514 4.20352 1.54946 0
M  V30 1295 C 125.258 3.04115 2.96166 0
M  V30 1296 C 123.165 5.34778 2.5252 0
M  V30 1297 H 122.095 0.599718 0.457005 0
M  V30 1298 H 124.746 1.7699 0.484424 0
M  V30 1299 H 123.128 2.61901 2.97025 0
M  V30 1300 H 124.302 4.53008 0.843811 0
M  V30 1301 H 122.617 4.06167 0.917475 0
M  V30 1302 H 125.214 3.86774 3.69202 0
M  V30 1303 H 125.557 2.16045 3.55852 0
M  V30 1304 H 126.09 3.26702 2.26959 0
M  V30 1305 H 122.829 6.25018 1.97566 0
M  V30 1306 H 122.349 5.06534 3.21222 0
M  V30 1307 H 124.028 5.65561 3.14245 0
M  V30 1308 N 124.16 -0.719506 1.40217 0
M  V30 1309 C 125.39 -1.50646 1.41384 0
M  V30 1310 C 125.798 -1.89197 0.0107743 0
M  V30 1311 O 125.141 -1.55709 -0.974708 0
M  V30 1312 C 125.203 -2.81405 2.23722 0
M  V30 1313 C 124.867 -2.65199 3.72181 0
M  V30 1314 C 125.864 -2.32717 4.64907 0
M  V30 1315 C 123.549 -2.81586 4.1595 0
M  V30 1316 C 125.543 -2.16827 5.99387 0
M  V30 1317 C 123.23 -2.65313 5.50502 0
M  V30 1318 C 124.228 -2.32981 6.42035 0
M  V30 1319 O 123.916 -2.16827 7.74107 0
M  V30 1320 H 123.648 -0.471606 0.484318 0
M  V30 1321 H 126.202 -0.895456 1.84853 0
M  V30 1322 H 124.432 -3.44823 1.75026 0
M  V30 1323 H 126.121 -3.43102 2.16878 0
M  V30 1324 H 126.887 -2.19694 4.32388 0
M  V30 1325 H 122.766 -3.0574 3.45027 0
M  V30 1326 H 126.31 -1.91513 6.70797 0
M  V30 1327 H 122.207 -2.7792 5.82607 0
M  V30 1328 H 122.975 -2.31778 7.84998 0
M  V30 1329 N 125.638 -1.25649 -0.95132 0
M  V30 1330 C 126.585 -1.06323 -2.04851 0
M  V30 1331 C 127.555 0.0286491 -1.66075 0
M  V30 1332 O 128.74 -0.12917 -1.90362 0
M  V30 1333 C 125.88 -0.691529 -3.381 0
M  V30 1334 C 124.993 -1.85861 -3.89974 0
M  V30 1335 C 124.128 -1.43096 -5.11563 0
M  V30 1336 C 123.167 -2.56696 -5.55674 0
M  V30 1337 N 122.304 -2.14684 -6.68472 0
M  V30 1338 H 127.144 -2.00222 -2.20715 0
M  V30 1339 H 124.681 -0.997027 -1.08156 0
M  V30 1340 H 126.639 -0.456963 -4.1469 0
M  V30 1341 H 125.269 0.210474 -3.22113 0
M  V30 1342 H 124.321 -2.20639 -3.09875 0
M  V30 1343 H 125.633 -2.71161 -4.18657 0
M  V30 1344 H 124.787 -1.15624 -5.9558 0
M  V30 1345 H 123.526 -0.548722 -4.84603 0
M  V30 1346 H 122.531 -2.84909 -4.7022 0
M  V30 1347 H 123.756 -3.45503 -5.8464 0
M  V30 1348 H 121.702 -1.28881 -6.43215 0
M  V30 1349 H 121.619 -2.9353 -6.96689 0
M  V30 1350 H 122.887 -1.90397 -7.5589 0
M  V30 1351 N 127.117 1.15442 -1.07289 0
M  V30 1352 C 128.049 2.19773 -0.650585 0
M  V30 1353 C 129.062 1.60076 0.296572 0
M  V30 1354 O 130.251 1.78293 0.0859905 0
M  V30 1355 C 127.351 3.38838 0.0650398 0
M  V30 1356 C 126.524 4.2808 -0.898141 0
M  V30 1357 C 125.583 5.2574 -0.219926 0
M  V30 1358 O 124.609 5.62654 -0.860773 0
M  V30 1359 N 125.811 5.71205 1.03466 0
M  V30 1360 H 128.576 2.56622 -1.54808 0
M  V30 1361 H 126.137 1.30551 -0.957494 0
M  V30 1362 H 128.129 4.01222 0.529415 0
M  V30 1363 H 126.699 3.00409 0.864466 0
M  V30 1364 H 125.919 3.62804 -1.54165 0
M  V30 1365 H 127.207 4.84577 -1.5512 0
M  V30 1366 H 126.605 5.43325 1.57526 0
M  V30 1367 H 125.162 6.35633 1.44272 0
M  V30 1368 N 128.595 0.856903 1.32268 0
M  V30 1369 C 129.841 0.462069 1.97466 0
M  V30 1370 C 130.174 -0.980298 1.67642 0
M  V30 1371 O 129.449 -1.68824 0.965858 0
M  V30 1372 C 129.732 0.704336 3.53145 0
M  V30 1373 C 129.585 2.19529 3.9259 0
M  V30 1374 C 130.904 0.1622 4.39801 0
M  V30 1375 H 128.023 0.169357 0.717278 0
M  V30 1376 H 130.665 1.07574 1.56614 0
M  V30 1377 H 128.815 0.181999 3.88073 0
M  V30 1378 H 130.487 2.78387 3.67829 0
M  V30 1379 H 128.73 2.67292 3.41668 0
M  V30 1380 H 129.401 2.31549 5.01088 0
M  V30 1381 H 131.877 0.608905 4.11621 0
M  V30 1382 H 130.753 0.361265 5.4771 0
M  V30 1383 H 131.014 -0.935158 4.32096 0
M  V30 1384 N 130.073 -1.45103 0.615059 0
M  V30 1385 C 131.036 -2.29025 -0.0895485 0
M  V30 1386 C 132.036 -1.40174 -0.787906 0
M  V30 1387 O 133.226 -1.62217 -0.634933 0
M  V30 1388 C 130.358 -3.21376 -1.13711 0
M  V30 1389 H 131.551 -2.92807 0.648382 0
M  V30 1390 H 129.104 -1.51749 0.374444 0
M  V30 1391 H 129.839 -2.6241 -1.90556 0
M  V30 1392 H 129.624 -3.86834 -0.640475 0
M  V30 1393 H 131.114 -3.84459 -1.63036 0
M  V30 1394 N 131.551 -0.354651 -1.53558 0
M  V30 1395 C 132.481 0.489091 -2.2832 0
M  V30 1396 C 133.462 1.09324 -1.30316 0
M  V30 1397 O 134.647 1.11255 -1.59173 0
M  V30 1398 C 131.777 1.63456 -3.0643 0
M  V30 1399 C 130.731 1.1582 -4.12031 0
M  V30 1400 C 130.057 2.39305 -4.7816 0
M  V30 1401 C 131.357 0.250731 -5.21698 0
M  V30 1402 H 133.051 -0.134614 -2.99097 0
M  V30 1403 H 130.597 -0.0661826 -1.43848 0
M  V30 1404 H 132.55 2.23136 -3.57475 0
M  V30 1405 H 131.274 2.28533 -2.33325 0
M  V30 1406 H 129.933 0.584146 -3.61916 0
M  V30 1407 H 129.581 3.02814 -4.01637 0
M  V30 1408 H 129.281 2.08109 -5.49513 0
M  V30 1409 H 130.805 2.99691 -5.31994 0
M  V30 1410 H 132.219 0.754695 -5.68311 0
M  V30 1411 H 130.616 0.0301468 -6.00092 0
M  V30 1412 H 131.686 -0.710125 -4.79672 0
M  V30 1413 N 133.029 1.57378 -0.0835403 0
M  V30 1414 C 133.939 2.16897 0.894021 0
M  V30 1415 C 134.955 1.13528 1.31861 0
M  V30 1416 O 136.131 1.45848 1.3889 0
M  V30 1417 C 133.196 2.72831 2.13925 0
M  V30 1418 C 132.257 3.91115 1.76997 0
M  V30 1419 C 131.49 4.44371 2.95584 0
M  V30 1420 O 131.713 3.96596 4.09961 0
M  V30 1421 O 130.647 5.35549 2.74719 0
M  V30 1422 H 134.473 3.00814 0.417679 0
M  V30 1423 H 132.058 1.48741 0.140181 0
M  V30 1424 H 133.94 3.0863 2.86924 0
M  V30 1425 H 132.615 1.91967 2.60635 0
M  V30 1426 H 131.522 3.60148 1.01214 0
M  V30 1427 H 132.855 4.73307 1.3506 0
M  V30 1428 N 134.507 -0.190092 1.56449 0
M  V30 1429 C 135.732 -0.929864 1.85387 0
M  V30 1430 C 136.157 -1.7585 0.667704 0
M  V30 1431 O 135.515 -1.77198 -0.383459 0
M  V30 1432 C 135.563 -1.79773 3.12593 0
M  V30 1433 O 134.667 -2.89713 2.93496 0
M  V30 1434 H 134.008 -0.261574 0.610307 0
M  V30 1435 H 136.538 -0.193896 2.03679 0
M  V30 1436 H 136.548 -2.20139 3.43515 0
M  V30 1437 H 135.223 -1.18892 3.98544 0
M  V30 1438 H 133.8 -2.53065 2.73884 0
M  V30 1439 N 135.985 -1.50799 -0.457987 0
M  V30 1440 C 137.396 -1.55152 -1.0385 0
M  V30 1441 C 137.747 -0.362719 -1.92818 0
M  V30 1442 O 136.872 0.522915 -2.09987 0
M  V30 1443 C 137.467 -2.81173 -1.89017 0
M  V30 1444 C 136.026 -2.88164 -2.42154 0
M  V30 1445 C 135.173 -2.49591 -1.20829 0
M  V30 1446 H 138.124 -1.56874 -0.240068 0
M  V30 1447 H 138.145 -2.63769 -2.74238 0
M  V30 1448 H 137.657 -3.67677 -1.24238 0
M  V30 1449 H 135.758 -2.06042 -3.10447 0
M  V30 1450 H 135.871 -3.91356 -2.76364 0
M  V30 1451 H 134.235 -2.02322 -1.54719 0
M  V30 1452 H 135.018 -3.38418 -0.576927 0
M  V30 1453 N 137.463 0.71206 -1.40597 0
M  V30 1454 C 138.393 1.83889 -1.43899 0
M  V30 1455 C 139.374 1.67442 -0.299504 0
M  V30 1456 O 140.559 1.87421 -0.508624 0
M  V30 1457 C 137.689 3.21877 -1.30431 0
M  V30 1458 C 136.643 3.53002 -2.42019 0
M  V30 1459 C 135.969 4.90172 -2.13626 0
M  V30 1460 C 137.269 3.53643 -3.84362 0
M  V30 1461 H 138.963 1.81383 -2.38203 0
M  V30 1462 H 136.509 0.871237 -1.14654 0
M  V30 1463 H 138.462 4.00404 -1.31357 0
M  V30 1464 H 137.186 3.24968 -0.326049 0
M  V30 1465 H 135.845 2.76818 -2.40349 0
M  V30 1466 H 135.493 4.89869 -1.14182 0
M  V30 1467 H 135.193 5.11962 -2.88389 0
M  V30 1468 H 136.717 5.71028 -2.1624 0
M  V30 1469 H 138.131 4.22203 -3.87837 0
M  V30 1470 H 136.528 3.86961 -4.58673 0
M  V30 1471 H 137.598 2.52954 -4.13693 0
M  V30 1472 N 138.941 1.26152 0.944643 0
M  V30 1473 C 139.904 1.07474 2.0244 0
M  V30 1474 C 140.904 0.0242064 1.60782 0
M  V30 1475 O 142.094 0.267302 1.72137 0
M  V30 1476 C 139.226 0.633956 3.34953 0
M  V30 1477 H 140.419 2.03336 2.20442 0
M  V30 1478 H 137.972 1.087 1.12312 0
M  V30 1479 H 138.707 -0.326811 3.22649 0
M  V30 1480 H 138.492 1.39247 3.66542 0
M  V30 1481 H 139.982 0.52501 4.14287 0
M  V30 1482 N 140.419 -1.14872 1.07899 0
M  V30 1483 C 141.349 -2.2193 0.725887 0
M  V30 1484 C 142.33 -1.67622 -0.28927 0
M  V30 1485 O 143.515 -1.93533 -0.160787 0
M  V30 1486 C 140.645 -3.47061 0.128856 0
M  V30 1487 C 139.599 -4.14363 1.07178 0
M  V30 1488 C 138.925 -5.33636 0.337229 0
M  V30 1489 C 140.225 -4.63492 2.40775 0
M  V30 1490 H 141.919 -2.51724 1.62097 0
M  V30 1491 H 139.465 -1.20991 0.780838 0
M  V30 1492 H 141.418 -4.21199 -0.130147 0
M  V30 1493 H 140.142 -3.16617 -0.80134 0
M  V30 1494 H 138.801 -3.42173 1.3158 0
M  V30 1495 H 138.449 -4.99449 -0.596606 0
M  V30 1496 H 138.149 -5.79609 0.965788 0
M  V30 1497 H 139.673 -6.10539 0.0861567 0
M  V30 1498 H 141.087 -5.2913 2.20669 0
M  V30 1499 H 139.484 -5.20148 2.99276 0
M  V30 1500 H 140.554 -3.78834 3.02676 0
M  V30 1501 N 141.898 -0.863906 -1.31812 0
M  V30 1502 C 142.828 -0.330843 -2.31144 0
M  V30 1503 C 143.809 0.575005 -1.60087 0
M  V30 1504 O 144.994 0.493304 -1.8783 0
M  V30 1505 C 142.124 0.47374 -3.44054 0
M  V30 1506 C 141.078 -0.338481 -4.26659 0
M  V30 1507 C 140.404 0.591412 -5.31419 0
M  V30 1508 C 141.704 -1.56926 -4.98168 0
M  V30 1509 H 143.398 -1.16086 -2.75979 0
M  V30 1510 H 140.944 -0.559657 -1.32679 0
M  V30 1511 H 142.897 0.857143 -4.12591 0
M  V30 1512 H 141.621 1.33721 -2.9797 0
M  V30 1513 H 140.28 -0.703754 -3.59782 0
M  V30 1514 H 139.928 1.45199 -4.81587 0
M  V30 1515 H 139.628 0.0519022 -5.87577 0
M  V30 1516 H 141.152 0.97179 -6.02817 0
M  V30 1517 H 142.566 -1.25764 -5.59336 0
M  V30 1518 H 140.963 -2.04739 -5.64094 0
M  V30 1519 H 142.033 -2.32544 -4.25501 0
M  V30 1520 N 143.376 1.44774 -0.622745 0
M  V30 1521 C 144.324 2.32387 0.0994683 0
M  V30 1522 C 145.318 1.46859 0.844326 0
M  V30 1523 O 146.524 1.63254 0.758174 0
M  V30 1524 H 142.899 0.750273 0.0509291 0
M  V30 1525 H 144.87 2.91062 -0.65767 0
M  V30 1526 C 143.619 3.30723 1.07319 0
M  V30 1527 H 142.942 3.96541 0.509462 0
M  V30 1528 H 144.382 3.94725 1.54817 0
M  V30 1529 C 142.841 2.59021 2.15429 0
M  V30 1530 O 143.371 2.38286 3.23393 0
M  V30 1531 N 141.577 2.189 1.91131 0
M  V30 1532 H 141.124 2.35964 1.03337 0
M  V30 1533 H 141.082 1.71251 2.63668 0
M  V30 1534 N 144.854 0.36279 1.53368 0
M  V30 1535 C 146.082 -0.228613 2.05633 0
M  V30 1536 C 146.497 -1.42676 1.23649 0
M  V30 1537 O 145.854 -1.80394 0.27647 0
M  V30 1538 C 145.905 -0.624845 3.56059 0
M  V30 1539 O 145.626 0.525675 4.34935 0
M  V30 1540 C 147.127 -1.27493 4.24571 0
M  V30 1541 H 144.347 -0.0407183 0.669763 0
M  V30 1542 H 146.891 0.520352 1.97769 0
M  V30 1543 H 145.046 -1.32373 3.64083 0
M  V30 1544 H 145.46 0.205969 5.24095 0
M  V30 1545 H 146.934 -1.50277 5.31151 0
M  V30 1546 H 147.411 -2.23439 3.78116 0
M  V30 1547 H 148.017 -0.617558 4.20792 0
M  V30 1548 N 146.332 -1.57332 0.0918853 0
M  V30 1549 C 147.242 -2.17368 -0.882505 0
M  V30 1550 C 148.258 -1.14226 -1.31257 0
M  V30 1551 O 149.434 -1.46582 -1.38115 0
M  V30 1552 C 146.499 -2.73962 -2.12476 0
M  V30 1553 C 145.56 -3.92048 -1.7492 0
M  V30 1554 C 144.793 -4.45933 -2.93223 0
M  V30 1555 O 145.016 -3.98764 -4.07852 0
M  V30 1556 O 143.95 -5.36999 -2.71875 0
M  V30 1557 H 147.776 -3.01031 -0.40172 0
M  V30 1558 H 145.361 -1.48813 -0.132291 0
M  V30 1559 H 147.243 -3.10147 -2.85283 0
M  V30 1560 H 145.918 -1.93347 -2.59613 0
M  V30 1561 H 144.825 -3.6068 -0.993025 0
M  V30 1562 H 146.158 -4.74017 -1.32548 0
M  V30 1563 N 147.81 0.181792 -1.56548 0
M  V30 1564 C 149.038 0.915947 -1.85521 0
M  V30 1565 C 149.453 1.76282 -0.676016 0
M  V30 1566 O 148.81 1.79012 0.355077 0
M  V30 1567 C 148.861 1.80126 -3.13427 0
M  V30 1568 O 148.582 0.988562 -4.26801 0
M  V30 1569 C 150.083 2.64597 -3.55673 0
M  V30 1570 H 147.303 0.26661 -0.61576 0
M  V30 1571 H 149.847 0.185039 -2.03661 0
M  V30 1572 H 148.002 2.48563 -2.97145 0
M  V30 1573 H 148.416 1.59308 -4.99721 0
M  V30 1574 H 149.89 3.2235 -4.48101 0
M  V30 1575 H 150.367 3.38958 -2.79292 0
M  V30 1576 H 150.973 2.0151 -3.74532 0
M  V30 1577 N 149.288 1.51039 0.449983 0
M  V30 1578 C 150.516 1.66869 1.2232 0
M  V30 1579 C 150.931 0.360727 1.85322 0
M  V30 1580 O 150.288 -0.659531 1.70166 0
M  V30 1581 C 150.339 2.77524 2.31652 0
M  V30 1582 O 150.06 4.03252 1.7123 0
M  V30 1583 C 151.561 3.04512 3.2216 0
M  V30 1584 H 148.781 0.560326 0.369155 0
M  V30 1585 H 151.325 1.97385 0.534719 0
M  V30 1586 H 149.48 2.49642 2.96239 0
M  V30 1587 H 149.894 4.64609 2.43389 0
M  V30 1588 H 151.368 3.85551 3.95038 0
M  V30 1589 H 151.845 2.16415 3.8218 0
M  V30 1590 H 152.451 3.34005 2.63288 0
M  V30 1591 N 150.766 -0.704594 1.40972 0
M  V30 1592 C 152.015 -1.46018 1.39146 0
M  V30 1593 C 152.328 -1.956 0.000589254 0
M  V30 1594 O 153.534 -2.71137 -0.1403 0
M  V30 1595 C 151.99 -2.63996 2.4461 0
M  V30 1596 C 151.598 -2.21238 3.89561 0
M  V30 1597 C 153.342 -3.41677 2.51907 0
M  V30 1598 C 151.249 -3.3612 4.86598 0
M  V30 1599 H 150.179 -0.548444 0.517422 0
M  V30 1600 H 152.83 -0.765784 1.66757 0
M  V30 1601 H 151.212 -3.3566 2.10115 0
M  V30 1602 H 152.386 -1.56923 4.33257 0
M  V30 1603 H 150.701 -1.56574 3.85841 0
M  V30 1604 H 153.298 -4.27182 3.2159 0
M  V30 1605 H 153.641 -3.86247 1.55303 0
M  V30 1606 H 154.174 -2.77064 2.85448 0
M  V30 1607 H 150.913 -2.96572 5.84573 0
M  V30 1608 H 150.433 -3.99315 4.47557 0
M  V30 1609 H 152.112 -4.02029 5.06934 0
M  V30 1610 N 152.244 -1.26651 -0.937939 0
M  V30 1611 C 153.177 -1.02811 -2.03728 0
M  V30 1612 C 154.155 0.0481915 -1.62529 0
M  V30 1613 O 155.339 -0.0948839 -1.88261 0
M  V30 1614 C 152.466 -0.557517 -3.3408 0
M  V30 1615 C 151.512 -1.62686 -3.94253 0
M  V30 1616 S 152.345 -3.21667 -4.28125 0
M  V30 1617 C 153.501 -2.76384 -5.61572 0
M  V30 1618 H 153.734 -1.95891 -2.23638 0
M  V30 1619 H 151.267 -1.10367 -1.07974 0
M  V30 1620 H 153.225 -0.292674 -4.09455 0
M  V30 1621 H 151.886 0.353062 -3.12109 0
M  V30 1622 H 151.079 -1.24866 -4.88287 0
M  V30 1623 H 150.681 -1.84324 -3.25424 0
M  V30 1624 H 152.973 -2.2105 -6.40424 0
M  V30 1625 H 153.916 -3.69123 -6.0428 0
M  V30 1626 H 154.324 -2.15847 -5.21604 0
M  V30 1627 N 153.722 1.14298 -1.08507 0
M  V30 1628 C 154.67 2.21483 -0.710483 0
M  V30 1629 C 155.664 1.66998 0.284234 0
M  V30 1630 O 156.87 1.79401 0.146692 0
M  V30 1631 H 153.245 0.721578 -0.211729 0
M  V30 1632 H 155.216 2.50348 -1.62384 0
M  V30 1633 C 153.965 3.4743 -0.137007 0
M  V30 1634 H 153.288 3.89686 -0.893592 0
M  V30 1635 H 154.728 4.2391 0.0872789 0
M  V30 1636 C 153.187 3.17548 1.12538 0
M  V30 1637 O 153.717 3.35437 2.21009 0
M  V30 1638 N 151.923 2.71499 1.03617 0
M  V30 1639 H 151.47 2.57143 0.153403 0
M  V30 1640 H 151.428 2.51881 1.88158 0
M  V30 1641 N 155.201 0.870884 1.31352 0
M  V30 1642 C 156.164 0.332243 2.26779 0
M  V30 1643 C 157.164 -0.517302 1.52252 0
M  V30 1644 O 158.354 -0.326477 1.71113 0
M  V30 1645 C 155.486 -0.528066 3.36785 0
M  V30 1646 H 156.679 1.17469 2.75937 0
M  V30 1647 H 154.232 0.64655 1.423 0
M  V30 1648 H 154.967 -1.39167 2.92922 0
M  V30 1649 H 154.752 0.0802582 3.92018 0
M  V30 1650 H 156.242 -0.897179 4.07849 0
M  V30 1651 N 156.679 -1.44442 0.630414 0
M  V30 1652 C 157.928 -2.01267 0.132073 0
M  V30 1653 C 158.241 -1.50172 -1.25331 0
M  V30 1654 O 159.447 -1.9912 -1.84562 0
M  V30 1655 C 157.903 -3.59422 0.185362 0
M  V30 1656 C 157.511 -4.19514 1.57201 0
M  V30 1657 C 159.255 -4.23724 -0.256553 0
M  V30 1658 C 157.162 -5.69891 1.58045 0
M  V30 1659 H 156.092 -0.752619 0.0456092 0
M  V30 1660 H 158.743 -1.65666 0.789106 0
M  V30 1661 H 157.125 -3.92318 -0.538759 0
M  V30 1662 H 158.299 -3.98156 2.31966 0
M  V30 1663 H 156.614 -3.67496 1.95795 0
M  V30 1664 H 159.211 -5.34019 -0.269767 0
M  V30 1665 H 159.554 -3.96013 -1.28372 0
M  V30 1666 H 160.087 -3.95629 0.41505 0
M  V30 1667 H 156.826 -6.02336 2.58597 0
M  V30 1668 H 156.346 -5.93373 0.875725 0
M  V30 1669 H 158.025 -6.33515 1.31408 0
M  V30 1670 N 158.157 -0.370918 -1.53173 0
M  V30 1671 C 159.385 0.217704 -2.05751 0
M  V30 1672 C 159.8 1.42018 -1.24404 0
M  V30 1673 O 159.157 1.80245 -0.286033 0
M  V30 1674 C 159.208 0.605954 -3.56385 0
M  V30 1675 O 158.929 -0.548734 -4.3465 0
M  V30 1676 C 160.43 1.2524 -4.25241 0
M  V30 1677 H 157.65 0.0371659 -0.66997 0
M  V30 1678 H 160.194 -0.530832 -1.9749 0
M  V30 1679 H 158.349 1.3044 -3.6478 0
M  V30 1680 H 158.763 -0.23376 -5.23979 0
M  V30 1681 H 160.237 1.47458 -5.3194 0
M  V30 1682 H 160.714 2.2143 -3.79296 0
M  V30 1683 H 161.32 0.595233 -4.21114 0
M  V30 1684 N 159.635 1.57281 -0.100228 0
M  V30 1685 C 160.86 1.99302 0.573881 0
M  V30 1686 C 161.285 0.979059 1.60611 0
M  V30 1687 O 160.643 -0.0517803 1.81226 0
M  V30 1688 C 160.691 3.40274 1.19358 0
M  V30 1689 O 159.795 3.41676 2.30935 0
M  V30 1690 H 159.136 0.647944 0.145138 0
M  V30 1691 H 161.666 2.03779 -0.183156 0
M  V30 1692 H 161.676 3.78078 1.53365 0
M  V30 1693 H 160.351 4.13594 0.437385 0
M  V30 1694 H 158.928 3.15672 1.98509 0
M  V30 1695 N 161.113 -0.173488 1.56642 0
M  V30 1696 C 162.043 -1.2171 1.99271 0
M  V30 1697 C 163.024 -1.46289 0.867959 0
M  V30 1698 O 164.209 -1.5766 1.13388 0
M  V30 1699 C 161.339 -2.55651 2.35074 0
M  V30 1700 C 160.293 -2.45645 3.50489 0
M  V30 1701 C 159.619 -3.84056 3.72028 0
M  V30 1702 C 160.919 -1.96302 4.84007 0
M  V30 1703 H 162.613 -0.86275 2.867 0
M  V30 1704 H 160.159 -0.413571 1.37933 0
M  V30 1705 H 162.112 -3.2886 2.63494 0
M  V30 1706 H 160.836 -2.92869 1.44552 0
M  V30 1707 H 159.495 -1.7489 3.22194 0
M  V30 1708 H 159.143 -4.18664 2.788 0
M  V30 1709 H 158.843 -3.7823 4.49684 0
M  V30 1710 H 160.367 -4.58854 4.02846 0
M  V30 1711 H 161.781 -2.59284 5.11317 0
M  V30 1712 H 160.178 -2.01429 5.65284 0
M  V30 1713 H 161.248 -0.917226 4.76146 0
M  V30 1714 N 162.591 -1.51276 -0.441967 0
M  V30 1715 C 163.816 -1.67799 -1.21895 0
M  V30 1716 C 164.241 -0.372864 -1.84367 0
M  V30 1717 O 163.599 0.666501 -1.68604 0
M  V30 1718 C 163.647 -2.79199 -2.28211 0
M  V30 1719 O 162.751 -2.42479 -3.33583 0
M  V30 1720 H 162.092 -0.559649 -0.357336 0
M  V30 1721 H 164.622 -1.97815 -0.522522 0
M  V30 1722 H 164.632 -3.03146 -2.73069 0
M  V30 1723 H 163.307 -3.73906 -1.82118 0
M  V30 1724 H 161.884 -2.29087 -2.94234 0
M  V30 1725 N 164.069 0.697108 -1.41344 0
M  V30 1726 C 165.299 1.48377 -1.43763 0
M  V30 1727 C 165.707 1.89156 -0.0408726 0
M  V30 1728 O 165.05 1.57239 0.949812 0
M  V30 1729 C 165.112 2.7781 -2.2817 0
M  V30 1730 C 164.776 2.59244 -3.76353 0
M  V30 1731 C 165.773 2.25292 -4.68551 0
M  V30 1732 C 163.458 2.74933 -4.20378 0
M  V30 1733 C 165.452 2.07264 -6.02761 0
M  V30 1734 C 163.139 2.56521 -5.54653 0
M  V30 1735 C 164.137 2.22737 -6.4566 0
M  V30 1736 O 163.825 2.04485 -7.77458 0
M  V30 1737 H 163.557 0.463842 -0.491759 0
M  V30 1738 H 166.111 0.865934 -1.86255 0
M  V30 1739 H 164.341 3.41995 -1.8049 0
M  V30 1740 H 166.03 3.39608 -2.22309 0
M  V30 1741 H 166.796 2.12787 -4.35829 0
M  V30 1742 H 162.675 3.00213 -3.49848 0
M  V30 1743 H 166.219 1.80817 -6.73759 0
M  V30 1744 H 162.116 2.68616 -5.86955 0
M  V30 1745 H 162.884 2.1926 -7.88586 0
M  V30 1746 N 165.547 1.27147 0.931209 0
M  V30 1747 C 166.479 1.05364 2.03546 0
M  V30 1748 C 167.492 0.0108438 1.62796 0
M  V30 1749 O 168.681 0.25202 1.76712 0
M  V30 1750 C 165.781 0.575566 3.33977 0
M  V30 1751 C 164.954 1.68985 4.03439 0
M  V30 1752 C 164.013 1.20813 5.12143 0
M  V30 1753 O 163.039 1.90712 5.363 0
M  V30 1754 N 164.241 0.0618851 5.80467 0
M  V30 1755 H 167.006 2.00454 2.22796 0
M  V30 1756 H 164.567 1.18666 1.10136 0
M  V30 1757 H 166.559 0.237264 4.04004 0
M  V30 1758 H 165.129 -0.282016 3.11325 0
M  V30 1759 H 164.349 2.19861 3.27192 0
M  V30 1760 H 165.637 2.4378 4.46597 0
M  V30 1761 H 165.035 -0.521621 5.6329 0
M  V30 1762 H 163.592 -0.217264 6.51438 0
M  V30 1763 N 167.025 -1.13721 1.09112 0
M  V30 1764 C 168.274 -1.84275 0.82009 0
M  V30 1765 C 168.587 -1.84253 -0.656509 0
M  V30 1766 O 169.793 -2.50668 -1.04296 0
M  V30 1767 C 168.249 -3.30825 1.41714 0
M  V30 1768 C 167.857 -3.39244 2.92605 0
M  V30 1769 C 169.601 -4.06443 1.22492 0
M  V30 1770 C 167.508 -4.80047 3.45411 0
M  V30 1771 H 166.438 -0.690387 0.30312 0
M  V30 1772 H 169.089 -1.28146 1.31343 0
M  V30 1773 H 167.471 -3.86737 0.851498 0
M  V30 1774 H 168.645 -2.93344 3.55367 0
M  V30 1775 H 166.96 -2.77088 3.10823 0
M  V30 1776 H 169.557 -5.10387 1.59402 0
M  V30 1777 H 169.9 -4.15972 0.165299 0
M  V30 1778 H 170.433 -3.56852 1.75788 0
M  V30 1779 H 167.172 -4.75709 4.50978 0
M  V30 1780 H 166.692 -5.26455 2.87411 0
M  V30 1781 H 168.371 -5.48957 3.42425 0
M  V30 1782 N 168.503 -0.877838 -1.30888 0
M  V30 1783 C 169.451 -0.328662 -2.30266 0
M  V30 1784 C 170.445 0.560496 -1.59859 0
M  V30 1785 O 171.651 0.445722 -1.74394 0
M  V30 1786 H 168.026 -0.0876142 -0.746879 0
M  V30 1787 H 169.997 -1.18061 -2.74051 0
M  V30 1788 C 168.746 0.448071 -3.44801 0
M  V30 1789 H 168.069 -0.226859 -3.99156 0
M  V30 1790 H 169.509 0.797541 -4.16432 0
M  V30 1791 C 167.968 1.64239 -2.94155 0
M  V30 1792 O 168.498 2.74175 -2.93583 0
M  V30 1793 N 166.704 1.47716 -2.50256 0
M  V30 1794 H 166.251 0.582821 -2.5092 0
M  V30 1795 H 166.209 2.27765 -2.16727 0
M  V30 1796 N 169.982 1.44106 -0.638065 0
M  V30 1797 C 171.23 2.01579 -0.145043 0
M  V30 1798 C 171.551 1.50496 1.24 0
M  V30 1799 O 170.821 0.711374 1.82527 0
M  V30 1800 H 169.401 0.745282 -0.05063 0
M  V30 1801 H 172.063 1.76516 -0.826327 0
M  V30 1802 H 171.159 3.11877 -0.118039 0
M  V30 1803 N 171.46 0.379036 1.52974 0
M  V30 1804 C 172.423 -0.448865 2.24762 0
M  V30 1805 C 173.423 -0.998689 1.26027 0
M  V30 1806 O 174.613 -0.882313 1.50203 0
M  V30 1807 C 171.745 -1.62872 2.99476 0
M  V30 1808 H 172.938 0.179491 2.99362 0
M  V30 1809 H 170.491 0.13096 1.5575 0
M  V30 1810 H 171.226 -2.29479 2.29151 0
M  V30 1811 H 171.011 -1.24128 3.71934 0
M  V30 1812 H 172.501 -2.2151 3.5401 0
M  V30 1813 N 172.938 -1.57226 0.108567 0
M  V30 1814 C 173.901 -2.13602 -0.831082 0
M  V30 1815 C 174.901 -1.06841 -1.20173 0
M  V30 1816 O 176.091 -1.32666 -1.12895 0
M  V30 1817 C 173.223 -2.66769 -2.12243 0
M  V30 1818 H 174.416 -2.97951 -0.341317 0
M  V30 1819 H 171.969 -1.55667 -0.14057 0
M  V30 1820 H 172.704 -1.85977 -2.65675 0
M  V30 1821 H 172.489 -3.44839 -1.86625 0
M  V30 1822 H 173.979 -3.10332 -2.79435 0
M  V30 1823 N 174.416 0.165178 -1.56732 0
M  V30 1824 C 175.364 1.22369 -1.97809 0
M  V30 1825 C 176.358 1.45488 -0.867741 0
M  V30 1826 O 177.564 1.45995 -1.05288 0
M  V30 1827 H 173.939 0.411486 -0.629431 0
M  V30 1828 H 175.91 0.850425 -2.86025 0
M  V30 1829 C 174.659 2.55403 -2.35934 0
M  V30 1830 H 173.982 2.38438 -3.20916 0
M  V30 1831 H 175.422 3.2814 -2.68514 0
M  V30 1832 C 173.881 3.14611 -1.20506 0
M  V30 1833 O 174.411 3.98626 -0.496016 0
M  V30 1834 N 172.617 2.7379 -0.97403 0
M  V30 1835 H 172.164 2.0557 -1.55238 0
M  V30 1836 H 172.122 3.1374 -0.203573 0
M  V30 1837 N 175.894 1.51508 0.433938 0
M  V30 1838 C 176.842 1.73646 1.54757 0
M  V30 1839 C 177.836 0.602854 1.5831 0
M  V30 1840 O 179.042 0.784318 1.62014 0
M  V30 1841 H 175.417 0.548718 0.51421 0
M  V30 1842 H 177.388 2.66991 1.33261 0
M  V30 1843 C 176.137 1.88172 2.92381 0
M  V30 1844 H 175.46 2.74808 2.90381 0
M  V30 1845 H 176.9 2.07672 3.6966 0
M  V30 1846 C 175.359 0.64239 3.30719 0
M  V30 1847 O 175.889 -0.201362 4.01195 0
M  V30 1848 N 174.095 0.485489 2.86516 0
M  V30 1849 H 173.642 1.17318 2.29334 0
M  V30 1850 H 173.6 -0.342482 3.12529 0
M  V30 1851 N 177.372 -0.689602 1.41712 0
M  V30 1852 C 178.597 -1.48329 1.44959 0
M  V30 1853 C 179.022 -1.8801 0.0581283 0
M  V30 1854 O 178.38 -1.55026 -0.940035 0
M  V30 1855 C 178.428 -2.71835 2.36935 0
M  V30 1856 O 177.532 -3.69549 1.8305 0
M  V30 1857 H 176.873 -0.446199 0.491734 0
M  V30 1858 H 179.403 -0.847127 1.86239 0
M  V30 1859 H 179.413 -3.20076 2.53013 0
M  V30 1860 H 178.088 -2.42291 3.38035 0
M  V30 1861 H 176.665 -3.2851 1.76452 0
M  V30 1862 N 178.85 -1.27639 -0.924453 0
M  V30 1863 C 180.098 -1.13941 -1.66918 0
M  V30 1864 C 180.419 0.314589 -1.92446 0
M  V30 1865 O 179.689 1.21964 -1.53303 0
M  V30 1866 H 178.269 -0.418678 -0.618642 0
M  V30 1867 H 180.931 -1.60213 -1.10985 0
M  V30 1868 H 180.027 -1.67094 -2.63602 0
M  V30 1869 N 180.328 1.1314 -1.09713 0
M  V30 1870 C 181.574 1.84967 -0.846104 0
M  V30 1871 C 181.929 1.82082 0.621601 0
M  V30 1872 O 181.222 1.2501 1.452 0
M  V30 1873 C 181.416 3.32167 -1.3191 0
M  V30 1874 C 181.245 3.49386 -2.83125 0
M  V30 1875 C 180.015 3.63456 -3.51038 0
M  V30 1876 C 182.213 3.45179 -3.81256 0
M  V30 1877 N 180.195 3.68966 -4.9065 0
M  V30 1878 C 181.566 3.57094 -5.06837 0
M  V30 1879 C 183.621 3.28598 -3.74069 0
M  V30 1880 C 182.324 3.5414 -6.26081 0
M  V30 1881 C 184.35 3.26953 -4.92804 0
M  V30 1882 C 183.712 3.39422 -6.17229 0
M  V30 1883 H 179.811 0.692899 -0.362512 0
M  V30 1884 H 182.395 1.35506 -1.39808 0
M  V30 1885 H 180.566 3.80186 -0.794535 0
M  V30 1886 H 182.298 3.91815 -1.01308 0
M  V30 1887 H 179.053 3.65256 -3.01471 0
M  V30 1888 H 179.477 3.75404 -5.63383 0
M  V30 1889 H 184.119 3.17858 -2.78794 0
M  V30 1890 H 181.837 3.63653 -7.21653 0
M  V30 1891 H 185.423 3.15316 -4.88945 0
M  V30 1892 H 184.303 3.38114 -7.07565 0
M  V30 1893 N 181.806 0.884767 1.30421 0
M  V30 1894 C 183.054 0.502112 1.95763 0
M  V30 1895 C 183.375 -0.951815 1.70192 0
M  V30 1896 O 182.645 -1.6692 1.0254 0
M  V30 1897 H 181.225 0.182694 0.724315 0
M  V30 1898 H 183.887 1.1278 1.58955 0
M  V30 1899 H 182.983 0.672188 3.04775 0
M  V30 1900 N 183.284 -1.43765 0.645699 0
M  V30 1901 C 184.247 -2.29163 -0.0409488 0
M  V30 1902 C 185.247 -1.41813 -0.757996 0
M  V30 1903 O 186.437 -1.63527 -0.600382 0
M  V30 1904 C 183.569 -3.23716 -1.06869 0
M  V30 1905 H 184.762 -2.91366 0.710345 0
M  V30 1906 H 182.315 -1.5092 0.406547 0
M  V30 1907 H 183.05 -2.66393 -1.84947 0
M  V30 1908 H 182.835 -3.88105 -0.558277 0
M  V30 1909 H 184.325 -3.87831 -1.54845 0
M  V30 1910 N 184.763 -0.387143 -1.52771 0
M  V30 1911 C 186.174 0.0873634 -1.86495 0
M  V30 1912 C 186.525 1.46336 -1.30691 0
M  V30 1913 O 185.65 2.068 -0.637409 0
M  V30 1914 C 186.245 0.165305 -3.38396 0
M  V30 1915 C 184.804 0.584101 -3.7184 0
M  V30 1916 C 183.951 -0.255279 -2.76122 0
M  V30 1917 H 186.902 -0.605104 -1.46711 0
M  V30 1918 H 186.923 0.984848 -3.67534 0
M  V30 1919 H 186.435 -0.836301 -3.78982 0
M  V30 1920 H 184.536 1.59315 -3.36823 0
M  V30 1921 H 184.649 0.343749 -4.77865 0
M  V30 1922 H 183.013 0.279126 -2.53166 0
M  V30 1923 H 183.796 -1.25482 -3.19545 0
M  V30 1924 N 186.241 1.57166 -0.116904 0
M  V30 1925 C 187.49 1.94298 0.541407 0
M  V30 1926 C 187.803 1.00236 1.67964 0
M  V30 1927 O 189.009 1.26826 2.40057 0
M  V30 1928 C 187.465 3.45306 1.01449 0
M  V30 1929 C 187.073 4.47899 -0.0951738 0
M  V30 1930 C 188.817 3.91361 1.6443 0
M  V30 1931 C 186.724 5.90083 0.394491 0
M  V30 1932 H 185.654 0.725308 0.206019 0
M  V30 1933 H 188.305 1.82446 -0.196419 0
M  V30 1934 H 186.687 3.52385 1.80667 0
M  V30 1935 H 187.861 4.52486 -0.871374 0
M  V30 1936 H 186.176 4.11583 -0.631505 0
M  V30 1937 H 188.773 4.95004 2.02176 0
M  V30 1938 H 189.116 3.3122 2.52189 0
M  V30 1939 H 189.649 3.87073 0.917559 0
M  V30 1940 H 186.388 6.53974 -0.447004 0
M  V30 1941 H 185.908 5.88921 1.13722 0
M  V30 1942 H 187.587 6.41307 0.856399 0
M  V30 1943 N 187.719 -0.156864 1.56817 0
M  V30 1944 C 188.669 -1.19891 1.93934 0
M  V30 1945 C 189.653 -1.39061 0.809372 0
M  V30 1946 O 190.845 -1.40789 1.07273 0
M  V30 1947 C 187.974 -2.53493 2.31508 0
M  V30 1948 C 187.06 -2.37957 3.51052 0
M  V30 1949 N 187.451 -1.92158 4.67877 0
M  V30 1950 C 185.749 -2.68739 3.55943 0
M  V30 1951 C 186.45 -1.8943 5.49992 0
M  V30 1952 N 185.426 -2.32375 4.91429 0
M  V30 1953 H 189.228 -0.836746 2.81737 0
M  V30 1954 H 186.742 -0.365012 1.58245 0
M  V30 1955 H 188.739 -3.28811 2.56299 0
M  V30 1956 H 187.399 -2.905 1.45051 0
M  V30 1957 H 188.41 -1.62274 4.91821 0
M  V30 1958 H 185.087 -3.09687 2.80001 0
M  V30 1959 H 186.477 -1.55596 6.53636 0
M  V30 1960 N 189.197 -1.51736 -0.425897 0
M  V30 1961 C 190.474 -1.55519 -1.1863 0
M  V30 1962 C 190.854 -0.326219 -2.08564 0
M  V30 1963 O 190.202 0.688012 -2.17896 0
M  V30 1964 C 190.412 -2.87521 -1.9782 0
M  V30 1965 C 191.76 -3.39899 -2.54468 0
M  V30 1966 O 192.784 -2.89148 -2.08019 0
M  V30 1967 O 191.643 -4.2848 -3.39215 0
M  V30 1968 H 188.737 -0.625739 -0.540721 0
M  V30 1969 H 191.283 -1.64055 -0.434038 0
M  V30 1970 H 190.055 -3.68422 -1.31836 0
M  V30 1971 H 189.678 -2.822 -2.80088 0
M  V30 1972 N 190.675 0.682077 -1.42076 0
M  V30 1973 C 192.086 1.26246 -1.37546 0
M  V30 1974 C 192.437 1.96092 -0.0651481 0
M  V30 1975 O 191.562 1.99587 0.836297 0
M  V30 1976 C 192.157 2.29594 -2.49143 0
M  V30 1977 C 190.716 2.83175 -2.47969 0
M  V30 1978 C 189.863 1.57395 -2.28303 0
M  V30 1979 H 192.814 0.475937 -1.51395 0
M  V30 1980 H 192.835 3.11175 -2.18976 0
M  V30 1981 H 192.347 1.78729 -3.44496 0
M  V30 1982 H 190.448 3.3818 -1.56413 0
M  V30 1983 H 190.561 3.32687 -3.44755 0
M  V30 1984 H 188.925 1.83699 -1.76428 0
M  V30 1985 H 189.708 1.08507 -3.25701 0
M  V30 1986 N 192.153 1.28127 0.917671 0
M  V30 1987 C 193.43 1.05761 1.64542 0
M  V30 1988 C 193.81 -0.404344 2.07191 0
M  V30 1989 O 193.158 -1.38963 1.81388 0
M  V30 1990 C 193.368 2.02857 2.83989 0
M  V30 1991 C 194.716 2.32786 3.551 0
M  V30 1992 O 195.74 2.0091 2.94132 0
M  V30 1993 O 194.599 2.87169 4.64969 0
M  V30 1994 H 191.693 0.403916 0.721652 0
M  V30 1995 H 194.239 1.39431 0.967322 0
M  V30 1996 H 193.011 3.01407 2.49538 0
M  V30 1997 H 192.634 1.69809 3.59514 0
M  V30 1998 N 193.631 -1.12557 1.10312 0
M  V30 1999 C 194.878 -1.84038 0.844759 0
M  V30 2000 C 195.206 -1.84026 -0.629668 0
M  V30 2001 O 194.461 -1.28026 -1.48013 0
M  V30 2002 C 194.76 -3.31462 1.33669 0
M  V30 2003 C 194.426 -3.51647 2.82232 0
M  V30 2004 C 193.088 -3.56864 3.22802 0
M  V30 2005 C 195.44 -3.58867 3.77974 0
M  V30 2006 C 192.768 -3.66844 4.57867 0
M  V30 2007 C 195.12 -3.70375 5.1284 0
M  V30 2008 C 193.784 -3.73848 5.52986 0
M  V30 2009 H 193.054 -0.673444 0.309119 0
M  V30 2010 H 195.701 -1.32824 1.37949 0
M  V30 2011 H 194.006 -3.85091 0.721949 0
M  V30 2012 H 195.703 -3.85236 1.11329 0
M  V30 2013 H 192.293 -3.48249 2.49842 0
M  V30 2014 H 196.477 -3.54107 3.47738 0
M  V30 2015 H 191.733 -3.67804 4.88396 0
M  V30 2016 H 195.907 -3.74904 5.86873 0
M  V30 2017 H 193.534 -3.81333 6.57639 0
M  V30 2018 N 195.109 -0.891671 -1.2995 0
M  V30 2019 C 196.358 -0.509521 -1.95158 0
M  V30 2020 C 196.671 0.947388 -1.71125 0
M  V30 2021 O 197.877 1.43669 -2.30372 0
M  V30 2022 C 196.333 -0.860315 -3.49466 0
M  V30 2023 C 195.941 -2.33545 -3.8231 0
M  V30 2024 C 197.685 -0.547687 -4.20952 0
M  V30 2025 C 195.592 -2.62752 -5.29826 0
M  V30 2026 H 194.522 -0.18682 -0.730489 0
M  V30 2027 H 197.173 -1.08756 -1.47798 0
M  V30 2028 H 195.555 -0.211285 -3.95436 0
M  V30 2029 H 196.729 -3.02936 -3.47227 0
M  V30 2030 H 195.044 -2.61629 -3.23944 0
M  V30 2031 H 197.641 -0.742854 -5.29515 0
M  V30 2032 H 197.984 0.51332 -4.13123 0
M  V30 2033 H 198.517 -1.1542 -3.80688 0
M  V30 2034 H 195.256 -3.6762 -5.42712 0
M  V30 2035 H 194.776 -1.97977 -5.66185 0
M  V30 2036 H 196.455 -2.48601 -5.97333 0
M  V30 2037 N 196.587 1.43421 -0.653314 0
M  V30 2038 C 197.835 2.01414 -0.166415 0
M  V30 2039 C 198.156 1.51803 1.22397 0
M  V30 2040 O 197.426 0.730693 1.81763 0
M  V30 2041 H 196.006 0.744703 -0.0585319 0
M  V30 2042 H 198.668 1.75629 -0.845003 0
M  V30 2043 H 197.764 3.11734 -0.151111 0
M  V30 2044 N 198.065 0.39524 1.52563 0
M  V30 2045 C 199.313 -0.184678 2.01254 0
M  V30 2046 C 199.634 -1.46822 1.28329 0
M  V30 2047 O 198.904 -1.91666 0.405094 0
M  V30 2048 H 197.484 -0.0712355 0.743596 0
M  V30 2049 H 200.146 0.528293 1.87603 0
M  V30 2050 H 199.242 -0.390681 3.09645 0
M  V30 2051 N 199.544 -1.57102 0.125237 0
M  V30 2052 C 200.793 -1.94582 -0.531095 0
M  V30 2053 C 201.106 -1.01126 -1.6743 0
M  V30 2054 O 202.312 -1.28097 -2.39381 0
M  V30 2055 C 200.768 -3.45839 -0.996164 0
M  V30 2056 C 200.376 -4.47842 0.118926 0
M  V30 2057 C 202.12 -3.92227 -1.62352 0
M  V30 2058 C 200.027 -5.90284 -0.363192 0
M  V30 2059 H 198.957 -0.726391 -0.20217 0
M  V30 2060 H 201.608 -1.82339 0.206092 0
M  V30 2061 H 199.99 -3.53338 -1.78796 0
M  V30 2062 H 201.164 -4.52018 0.895358 0
M  V30 2063 H 199.479 -4.11243 0.653324 0
M  V30 2064 H 202.076 -4.96069 -1.99548 0
M  V30 2065 H 202.419 -3.32552 -2.50429 0
M  V30 2066 H 202.952 -3.87554 -0.897019 0
M  V30 2067 H 199.691 -6.53728 0.481679 0
M  V30 2068 H 199.211 -5.89515 -1.10597 0
M  V30 2069 H 200.89 -6.41752 -0.822377 0
M  V30 2070 N 201.022 0.148545 -1.56898 0
M  V30 2071 C 202.27 0.859717 -1.82902 0
M  V30 2072 C 202.591 1.81775 -0.70588 0
M  V30 2073 O 201.861 1.93994 0.272586 0
M  V30 2074 H 200.441 0.320469 -0.674766 0
M  V30 2075 H 203.103 0.142918 -1.94375 0
M  V30 2076 H 202.199 1.4229 -2.77777 0
M  V30 2077 N 202.5 1.5196 0.417844 0
M  V30 2078 C 203.447 1.74678 1.50852 0
M  V30 2079 C 204.417 0.588947 1.55308 0
M  V30 2080 O 205.602 0.825544 1.72016 0
M  V30 2081 C 202.742 1.89544 2.88387 0
M  V30 2082 C 201.855 3.17166 2.93309 0
M  V30 2083 C 200.99 3.22513 4.22088 0
M  V30 2084 C 200.029 4.44372 4.20951 0
M  V30 2085 N 199.166 4.47161 5.41287 0
M  V30 2086 H 204.006 2.67768 1.30783 0
M  V30 2087 H 201.543 1.32689 0.63498 0
M  V30 2088 H 203.501 1.96146 3.68216 0
M  V30 2089 H 202.131 0.998424 3.06971 0
M  V30 2090 H 201.183 3.19778 2.06024 0
M  V30 2091 H 202.495 4.07021 2.88332 0
M  V30 2092 H 201.649 3.28139 5.10303 0
M  V30 2093 H 200.388 2.30581 4.29748 0
M  V30 2094 H 199.393 4.38902 3.31127 0
M  V30 2095 H 200.618 5.3759 4.14938 0
M  V30 2096 H 198.564 3.58108 5.49632 0
M  V30 2097 H 198.481 5.3085 5.3827 0
M  V30 2098 H 199.749 4.57005 6.3148 0
M  V30 2099 N 203.978 -0.674533 1.42435 0
M  V30 2100 C 204.888 -1.81751 1.48337 0
M  V30 2101 C 205.904 -1.69975 0.372099 0
M  V30 2102 O 207.08 -1.91521 0.62304 0
M  V30 2103 C 204.145 -3.17895 1.38361 0
M  V30 2104 C 203.206 -3.41625 2.59982 0
M  V30 2105 C 202.439 -4.71274 2.50473 0
M  V30 2106 O 202.662 -5.49197 1.54075 0
M  V30 2107 O 201.596 -4.96254 3.4061 0
M  V30 2108 H 205.422 -1.79728 2.44809 0
M  V30 2109 H 203.007 -0.830312 1.24202 0
M  V30 2110 H 204.889 -3.99136 1.35161 0
M  V30 2111 H 203.564 -3.20555 0.450144 0
M  V30 2112 H 202.471 -2.60231 2.68757 0
M  V30 2113 H 203.804 -3.43796 3.52229 0
M  V30 2114 N 205.456 -1.28612 -0.910864 0
M  V30 2115 C 206.386 -1.15326 -2.03032 0
M  V30 2116 C 207.367 -0.0502924 -1.70026 0
M  V30 2117 O 208.552 -0.227797 -1.92859 0
M  V30 2118 C 205.682 -0.817343 -3.37545 0
M  V30 2119 C 204.636 -1.8754 -3.84724 0
M  V30 2120 C 203.962 -1.39305 -5.16235 0
M  V30 2121 C 205.262 -3.28244 -4.06267 0
M  V30 2122 H 206.956 -2.08975 -2.14406 0
M  V30 2123 H 204.502 -1.00612 -1.03021 0
M  V30 2124 H 206.455 -0.711151 -4.15356 0
M  V30 2125 H 205.179 0.154846 -3.26233 0
M  V30 2126 H 203.838 -1.97079 -3.09121 0
M  V30 2127 H 203.486 -0.409846 -5.01328 0
M  V30 2128 H 203.186 -2.10057 -5.48771 0
M  V30 2129 H 204.71 -1.30014 -5.96598 0
M  V30 2130 H 206.124 -3.21611 -4.74594 0
M  V30 2131 H 204.521 -3.96855 -4.5014 0
M  V30 2132 H 205.591 -3.72048 -3.10979 0
M  V30 2133 N 206.934 1.1197 -1.10907 0
M  V30 2134 C 208.183 1.82947 -0.849302 0
M  V30 2135 C 208.496 1.85275 0.627112 0
M  V30 2136 O 209.702 2.52296 1.00295 0
M  V30 2137 C 208.158 3.28529 -1.46959 0
M  V30 2138 C 207.766 3.34546 -2.97965 0
M  V30 2139 C 209.51 4.04443 -1.28942 0
M  V30 2140 C 207.417 4.74491 -3.53004 0
M  V30 2141 H 206.347 0.685477 -0.314065 0
M  V30 2142 H 208.998 1.2604 -1.33365 0
M  V30 2143 H 207.38 3.85333 -0.912917 0
M  V30 2144 H 208.554 2.87654 -3.59989 0
M  V30 2145 H 206.869 2.72108 -3.15192 0
M  V30 2146 H 209.466 5.07787 -1.67502 0
M  V30 2147 H 209.809 4.15656 -0.231456 0
M  V30 2148 H 210.342 3.5401 -1.81443 0
M  V30 2149 H 207.081 4.68474 -4.58489 0
M  V30 2150 H 206.601 5.21816 -2.9575 0
M  V30 2151 H 208.28 5.4344 -3.51115 0
M  V30 2152 N 208.412 0.89855 1.29475 0
M  V30 2153 C 209.658 0.524658 1.95896 0
M  V30 2154 C 209.991 -0.926468 1.70676 0
M  V30 2155 O 209.266 -1.65665 1.01908 0
M  V30 2156 C 209.549 0.81633 3.50725 0
M  V30 2157 C 209.402 2.31907 3.85408 0
M  V30 2158 C 210.721 0.302038 4.39062 0
M  V30 2159 H 207.84 0.19209 0.711527 0
M  V30 2160 H 210.482 1.12502 1.53112 0
M  V30 2161 H 208.632 0.305369 3.87298 0
M  V30 2162 H 210.304 2.89949 3.58786 0
M  V30 2163 H 208.547 2.78027 3.32992 0
M  V30 2164 H 209.218 2.47373 4.93468 0
M  V30 2165 H 211.694 0.739551 4.09475 0
M  V30 2166 H 210.57 0.535331 5.46283 0
M  V30 2167 H 210.831 -0.797216 4.34853 0
M  V30 2168 N 209.89 -1.43072 0.660911 0
M  V30 2169 C 211.167 -1.95307 0.107017 0
M  V30 2170 C 211.547 -1.60192 -1.37484 0
M  V30 2171 O 210.895 -0.890949 -2.10415 0
M  V30 2172 C 211.105 -3.47124 0.361402 0
M  V30 2173 C 212.453 -4.23738 0.270455 0
M  V30 2174 O 213.477 -3.54981 0.294382 0
M  V30 2175 O 212.336 -5.46131 0.200737 0
M  V30 2176 H 209.43 -0.826984 -0.00517729 0
M  V30 2177 H 211.976 -1.52972 0.734681 0
M  V30 2178 H 210.748 -3.65837 1.38848 0
M  V30 2179 H 210.371 -3.96475 -0.298953 0
M  V30 2180 N 211.368 -0.403325 -1.52352 0
M  V30 2181 C 212.645 0.232611 -1.94212 0
M  V30 2182 C 213.025 1.63133 -1.33981 0
M  V30 2183 O 212.373 2.22659 -0.513344 0
M  V30 2184 C 212.583 0.244811 -3.4814 0
M  V30 2185 C 213.931 0.46698 -4.22024 0
M  V30 2186 O 214.955 0.324419 -3.5472 0
M  V30 2187 O 213.814 0.74747 -5.41364 0
M  V30 2188 H 210.908 0.148223 -0.813609 0
M  V30 2189 H 213.454 -0.458848 -1.63379 0
M  V30 2190 H 212.226 -0.734378 -3.84347 0
M  V30 2191 H 211.849 0.980611 -3.85318 0
M  V30 2192 N 212.846 1.57033 -0.133567 0
M  V30 2193 C 213.809 2.14897 0.796995 0
M  V30 2194 C 214.809 1.0874 1.18458 0
M  V30 2195 O 215.999 1.34446 1.1077 0
M  V30 2196 C 213.131 2.70112 2.07973 0
M  V30 2197 H 214.324 2.98457 0.293873 0
M  V30 2198 H 211.877 1.55871 0.115787 0
M  V30 2199 H 212.612 1.9018 2.62682 0
M  V30 2200 H 212.397 3.47764 1.81115 0
M  V30 2201 H 213.887 3.14738 2.74462 0
M  V30 2202 N 214.325 -0.140222 1.56975 0
M  V30 2203 C 215.55 -0.870414 1.88251 0
M  V30 2204 C 215.975 -1.73637 0.723312 0
M  V30 2205 O 215.333 -1.78329 -0.32689 0
M  V30 2206 C 215.381 -1.69737 3.18154 0
M  V30 2207 O 214.485 -2.80229 3.02565 0
M  V30 2208 H 213.826 -0.242025 0.61832 0
M  V30 2209 H 216.356 -0.128999 2.04193 0
M  V30 2210 H 216.366 -2.09099 3.50345 0
M  V30 2211 H 215.041 -1.06152 4.02125 0
M  V30 2212 H 213.618 -2.44224 2.81796 0
M  V30 2213 N 215.803 -1.52179 -0.40978 0
M  V30 2214 C 217.08 -1.56769 -1.16974 0
M  V30 2215 C 217.46 -0.348322 -2.08206 0
M  V30 2216 O 216.808 0.664862 -2.18613 0
M  V30 2217 C 217.018 -2.89603 -1.9476 0
M  V30 2218 C 218.366 -3.42579 -2.50849 0
M  V30 2219 O 219.39 -2.91338 -2.04941 0
M  V30 2220 O 218.249 -4.32054 -3.34652 0
M  V30 2221 H 215.343 -0.631439 -0.534054 0
M  V30 2222 H 217.889 -1.64507 -0.416613 0
M  V30 2223 H 216.661 -3.698 -1.27921 0
M  V30 2224 H 216.284 -2.85155 -2.77079 0
M  V30 2225 N 217.281 0.66697 -1.42791 0
M  V30 2226 C 218.527 1.4291 -1.43891 0
M  V30 2227 C 218.86 1.94114 -0.0578972 0
M  V30 2228 O 218.135 1.71414 0.91911 0
M  V30 2229 C 218.418 2.62049 -2.46987 0
M  V30 2230 C 218.271 2.16426 -3.94309 0
M  V30 2231 C 219.59 3.64266 -2.46978 0
M  V30 2232 H 216.709 0.518306 -0.523954 0
M  V30 2233 H 219.351 0.757321 -1.74255 0
M  V30 2234 H 217.501 3.19361 -2.21225 0
M  V30 2235 H 219.173 1.64221 -4.31079 0
M  V30 2236 H 217.416 1.47925 -4.078 0
M  V30 2237 H 218.087 3.02038 -4.62036 0
M  V30 2238 H 220.563 3.16686 -2.69906 0
M  V30 2239 H 219.439 4.45196 -3.21079 0
M  V30 2240 H 219.7 4.15927 -1.49857 0
M  V30 2241 N 218.759 1.29093 0.90403 0
M  V30 2242 C 219.987 1.19689 1.68766 0
M  V30 2243 C 220.402 -0.243113 1.87228 0
M  V30 2244 O 219.759 -1.16326 1.40621 0
M  V30 2245 C 219.81 1.90144 3.07453 0
M  V30 2246 O 219.531 3.2852 2.89838 0
M  V30 2247 C 221.032 1.87162 4.01852 0
M  V30 2248 H 218.252 0.415035 0.527244 0
M  V30 2249 H 220.796 1.7039 1.13082 0
M  V30 2250 H 218.951 1.43289 3.59926 0
M  V30 2251 H 219.365 3.63944 3.77684 0
M  V30 2252 H 220.839 2.41032 4.96596 0
M  V30 2253 H 221.316 0.84617 4.30972 0
M  V30 2254 H 221.922 2.33741 3.5531 0
M  V30 2255 N 220.237 -1.11381 1.11499 0
M  V30 2256 C 221.462 -1.87475 0.887019 0
M  V30 2257 C 221.887 -1.79639 -0.557796 0
M  V30 2258 O 221.245 -1.15924 -1.39396 0
M  V30 2259 C 221.293 -3.34213 1.35403 0
M  V30 2260 O 220.397 -4.0903 0.526146 0
M  V30 2261 H 219.738 -0.582099 0.319463 0
M  V30 2262 H 222.268 -1.40785 1.48461 0
M  V30 2263 H 222.278 -3.8506 1.34881 0
M  V30 2264 H 220.953 -3.39232 2.40612 0
M  V30 2265 H 219.53 -3.68082 0.597522 0
M  V30 2266 N 221.715 -0.905404 -1.28997 0
M  V30 2267 C 222.962 -0.534248 -1.95325 0
M  V30 2268 C 223.29 0.920535 -1.71337 0
M  V30 2269 O 222.545 1.66861 -1.02254 0
M  V30 2270 C 222.844 -0.779906 -3.48787 0
M  V30 2271 C 222.51 -2.21293 -3.92861 0
M  V30 2272 C 221.172 -2.60475 -4.04606 0
M  V30 2273 C 223.524 -3.14587 -4.15553 0
M  V30 2274 C 220.852 -3.9212 -4.36416 0
M  V30 2275 C 223.204 -4.45787 -4.48839 0
M  V30 2276 C 221.868 -4.84834 -4.58794 0
M  V30 2277 H 221.138 -0.195495 -0.714747 0
M  V30 2278 H 223.785 -1.14514 -1.53488 0
M  V30 2279 H 222.09 -0.0861365 -3.91705 0
M  V30 2280 H 223.787 -0.472029 -3.98212 0
M  V30 2281 H 220.377 -1.89887 -3.84241 0
M  V30 2282 H 224.561 -2.85528 -4.0594 0
M  V30 2283 H 219.817 -4.22086 -4.42327 0
M  V30 2284 H 223.991 -5.18098 -4.65346 0
M  V30 2285 H 221.618 -5.86877 -4.83197 0
M  V30 2286 N 223.193 1.4272 -0.668489 0
M  V30 2287 C 224.423 2.05668 -0.196063 0
M  V30 2288 C 224.831 1.5028 1.14946 0
M  V30 2289 O 224.174 0.6348 1.72383 0
M  V30 2290 C 224.236 3.59469 -0.0468879 0
M  V30 2291 C 223.9 4.37518 -1.32012 0
M  V30 2292 C 224.897 4.68584 -2.25222 0
M  V30 2293 C 222.582 4.77266 -1.56596 0
M  V30 2294 C 224.576 5.38326 -3.41297 0
M  V30 2295 C 222.263 5.4675 -2.72962 0
M  V30 2296 C 223.261 5.77204 -3.65137 0
M  V30 2297 O 222.949 6.45264 -4.79468 0
M  V30 2298 H 222.681 0.669382 -0.0943599 0
M  V30 2299 H 225.235 1.83954 -0.913788 0
M  V30 2300 H 223.465 3.79817 0.726357 0
M  V30 2301 H 225.154 4.04071 0.384852 0
M  V30 2302 H 225.92 4.38382 -2.07477 0
M  V30 2303 H 221.799 4.52959 -0.857249 0
M  V30 2304 H 225.343 5.62014 -4.13263 0
M  V30 2305 H 221.24 5.76369 -2.90635 0
M  V30 2306 H 222.008 6.63753 -4.78931 0
M  V30 2307 N 224.671 0.411399 1.52136 0
M  V30 2308 C 226.082 -0.0576826 1.86611 0
M  V30 2309 C 226.433 -1.44238 1.33003 0
M  V30 2310 O 225.558 -2.05759 0.670228 0
M  V30 2311 C 226.153 -0.111448 3.38617 0
M  V30 2312 C 224.712 -0.52487 3.72723 0
M  V30 2313 C 223.859 0.299176 2.75681 0
M  V30 2314 H 226.81 0.628368 1.4573 0
M  V30 2315 H 226.831 -0.926252 3.69054 0
M  V30 2316 H 226.343 0.896488 3.77604 0
M  V30 2317 H 224.444 -1.53936 3.39315 0
M  V30 2318 H 224.557 -0.267681 4.78352 0
M  V30 2319 H 222.921 -0.238814 2.53578 0
M  V30 2320 H 223.704 1.3055 3.17508 0
M  V30 2321 N 226.149 -1.5696 0.141893 0
M  V30 2322 C 227.374 -2.00754 -0.520838 0
M  V30 2323 C 227.799 -1.0213 -1.57959 0
M  V30 2324 O 227.157 0.00371324 -1.813 0
M  V30 2325 C 227.205 -3.43318 -1.10294 0
M  V30 2326 O 226.309 -3.47679 -2.21795 0
M  V30 2327 H 225.65 -0.651564 -0.127908 0
M  V30 2328 H 228.18 -2.03221 0.23712 0
M  V30 2329 H 228.19 -3.82012 -1.43287 0
M  V30 2330 H 226.865 -4.14608 -0.327574 0
M  V30 2331 H 225.442 -3.20824 -1.9007 0
M  V30 2332 N 227.627 0.131896 -1.57047 0
M  V30 2333 C 228.59 1.14638 -1.98471 0
M  V30 2334 C 229.59 1.35029 -0.873148 0
M  V30 2335 O 230.78 1.31764 -1.13946 0
M  V30 2336 C 227.912 2.50358 -2.31373 0
M  V30 2337 H 229.105 0.79064 -2.8929 0
M  V30 2338 H 226.658 0.375761 -1.51716 0
M  V30 2339 H 227.393 2.90876 -1.43393 0
M  V30 2340 H 227.178 2.36915 -3.12432 0
M  V30 2341 H 228.668 3.23395 -2.64207 0
M  V30 2342 N 229.106 1.52395 0.401703 0
M  V30 2343 C 230.353 1.66817 1.14796 0
M  V30 2344 C 230.681 0.401772 1.90305 0
M  V30 2345 O 229.936 -0.615487 1.85769 0
M  V30 2346 C 230.235 2.84578 2.16217 0
M  V30 2347 C 229.901 4.22513 1.5746 0
M  V30 2348 C 228.563 4.60029 1.41161 0
M  V30 2349 C 230.915 5.0844 1.14622 0
M  V30 2350 C 228.243 5.81144 0.80552 0
M  V30 2351 C 230.595 6.30167 0.55428 0
M  V30 2352 C 229.259 6.66426 0.378482 0
M  V30 2353 H 228.529 0.610428 0.420069 0
M  V30 2354 H 231.176 1.86512 0.434212 0
M  V30 2355 H 229.481 2.59248 2.93764 0
M  V30 2356 H 231.178 2.92933 2.73845 0
M  V30 2357 H 227.768 3.92953 1.71132 0
M  V30 2358 H 231.952 4.80034 1.26021 0
M  V30 2359 H 227.208 6.07855 0.657399 0
M  V30 2360 H 231.382 6.96071 0.213983 0
M  V30 2361 H 229.009 7.60143 -0.0932606 0
M  V30 2362 N 230.584 -0.659388 1.43143 0
M  V30 2363 C 231.516 -1.7849 1.43784 0
M  V30 2364 C 232.529 -1.5932 0.334787 0
M  V30 2365 O 233.718 -1.68155 0.598842 0
M  V30 2366 C 230.818 -3.15828 1.22906 0
M  V30 2367 C 229.991 -3.61711 2.45934 0
M  V30 2368 C 229.05 -4.77831 2.20371 0
M  V30 2369 O 228.076 -4.87586 2.93681 0
M  V30 2370 N 229.278 -5.67611 1.21647 0
M  V30 2371 H 232.043 -1.7842 2.40803 0
M  V30 2372 H 229.604 -0.84302 1.3822 0
M  V30 2373 H 231.596 -3.91189 1.03697 0
M  V30 2374 H 230.166 -3.10707 0.343542 0
M  V30 2375 H 229.386 -2.76861 2.80609 0
M  V30 2376 H 230.674 -3.89112 3.27825 0
M  V30 2377 H 230.072 -5.62397 0.610449 0
M  V30 2378 H 228.629 -6.42719 1.08423 0
M  V30 2379 N 232.062 -1.29571 -0.897171 0
M  V30 2380 C 232.972 -1.16808 -2.03453 0
M  V30 2381 C 233.988 -0.0907471 -1.73763 0
M  V30 2382 O 235.164 -0.303312 -1.99103 0
M  V30 2383 C 232.229 -0.848264 -3.36163 0
M  V30 2384 C 231.29 -2.0097 -3.79354 0
M  V30 2385 C 230.523 -1.70505 -5.05731 0
M  V30 2386 O 230.746 -0.62718 -5.66941 0
M  V30 2387 O 229.68 -2.5538 -5.45036 0
M  V30 2388 H 233.506 -2.12325 -2.17144 0
M  V30 2389 H 231.091 -1.09047 -1.02123 0
M  V30 2390 H 232.973 -0.684581 -4.15802 0
M  V30 2391 H 231.648 0.0771071 -3.23608 0
M  V30 2392 H 230.555 -2.22863 -3.00471 0
M  V30 2393 H 231.888 -2.91636 -3.96496 0
M  V30 2394 N 233.54 1.10788 -1.12088 0
M  V30 2395 C 234.49 2.15158 -0.754401 0
M  V30 2396 C 235.474 1.59026 0.244846 0
M  V30 2397 O 236.666 1.76927 0.0509097 0
M  V30 2398 C 233.795 3.42677 -0.206657 0
M  V30 2399 C 232.881 4.05751 -1.23398 0
M  V30 2400 N 233.272 4.43582 -2.43041 0
M  V30 2401 C 231.57 4.32764 -1.07848 0
M  V30 2402 C 232.271 4.93085 -3.08613 0
M  V30 2403 N 231.247 4.89664 -2.36072 0
M  V30 2404 H 235.049 2.42195 -1.6649 0
M  V30 2405 H 232.563 1.27872 -1.00112 0
M  V30 2406 H 234.56 4.16834 0.0740646 0
M  V30 2407 H 233.22 3.17101 0.698342 0
M  V30 2408 H 234.231 4.35395 -2.80449 0
M  V30 2409 H 230.908 4.16863 -0.230483 0
M  V30 2410 H 232.298 5.31933 -4.10483 0
M  V30 2411 N 235.018 0.912232 1.28515 0
M  V30 2412 C 235.948 0.416403 2.29757 0
M  V30 2413 C 236.929 -0.515194 1.6211 0
M  V30 2414 O 238.114 -0.423253 1.89532 0
M  V30 2415 C 235.244 -0.34572 3.45575 0
M  V30 2416 C 234.198 0.496599 4.25109 0
M  V30 2417 C 233.524 -0.393771 5.33248 0
M  V30 2418 C 234.824 1.75307 4.92001 0
M  V30 2419 H 236.518 1.26249 2.7148 0
M  V30 2420 H 234.064 0.608515 1.30511 0
M  V30 2421 H 236.017 -0.703422 4.15488 0
M  V30 2422 H 234.741 -1.2257 3.02728 0
M  V30 2423 H 233.4 0.8368 3.56922 0
M  V30 2424 H 233.048 -1.27225 4.86644 0
M  V30 2425 H 232.748 0.166209 5.87365 0
M  V30 2426 H 234.272 -0.747389 6.06009 0
M  V30 2427 H 235.686 1.46437 5.54283 0
M  V30 2428 H 234.083 2.25534 5.56106 0
M  V30 2429 H 235.153 2.48176 4.16577 0
M  V30 2430 N 236.496 -1.42363 0.676048 0
M  V30 2431 C 237.444 -2.32596 -0.0131507 0
M  V30 2432 C 238.438 -1.49891 -0.789238 0
M  V30 2433 O 239.644 -1.65955 -0.697061 0
M  V30 2434 H 236.019 -0.751647 -0.0230481 0
M  V30 2435 H 237.99 -2.88421 0.765243 0
M  V30 2436 C 236.739 -3.34479 -0.949702 0
M  V30 2437 H 236.062 -3.98158 -0.361938 0
M  V30 2438 H 237.502 -4.00199 -1.4006 0
M  V30 2439 C 235.961 -2.66838 -2.05667 0
M  V30 2440 O 236.491 -2.50124 -3.14326 0
M  V30 2441 N 234.697 -2.25843 -1.82875 0
M  V30 2442 H 234.244 -2.39637 -0.945085 0
M  V30 2443 H 234.202 -1.80918 -2.5713 0
M  V30 2444 N 237.974 -0.419461 -1.51915 0
M  V30 2445 C 239.221 0.152939 -2.01922 0
M  V30 2446 C 239.549 1.4426 -1.30458 0
M  V30 2447 O 238.804 1.91514 -0.402593 0
M  V30 2448 C 239.103 0.437067 -3.54717 0
M  V30 2449 C 238.769 -0.764632 -4.44369 0
M  V30 2450 C 237.431 -1.09423 -4.68594 0
M  V30 2451 C 239.783 -1.56713 -4.97082 0
M  V30 2452 C 237.111 -2.22732 -5.42777 0
M  V30 2453 C 239.463 -2.69107 -5.72507 0
M  V30 2454 C 238.127 -3.02541 -5.95 0
M  V30 2455 H 237.397 0.0559644 -0.738884 0
M  V30 2456 H 240.044 -0.562998 -1.83037 0
M  V30 2457 H 238.349 1.23469 -3.71837 0
M  V30 2458 H 240.046 0.893083 -3.90928 0
M  V30 2459 H 236.636 -0.497775 -4.257 0
M  V30 2460 H 240.82 -1.32571 -4.78266 0
M  V30 2461 H 236.076 -2.48971 -5.58411 0
M  V30 2462 H 240.25 -3.31671 -6.12346 0
M  V30 2463 H 237.877 -3.90457 -6.52264 0
M  V30 2464 N 239.452 1.56882 -0.150215 0
M  V30 2465 C 240.701 1.95403 0.500071 0
M  V30 2466 C 241.014 1.03777 1.658 0
M  V30 2467 O 242.22 1.31889 2.37313 0
M  V30 2468 C 240.676 3.4738 0.941018 0
M  V30 2469 C 240.284 4.47596 -0.190158 0
M  V30 2470 C 242.028 3.9476 1.56091 0
M  V30 2471 C 239.935 5.90787 0.269237 0
M  V30 2472 H 238.865 0.729515 0.190588 0
M  V30 2473 H 241.516 1.81988 -0.235074 0
M  V30 2474 H 239.898 3.56138 1.73152 0
M  V30 2475 H 241.072 4.50536 -0.967157 0
M  V30 2476 H 239.387 4.10151 -0.718666 0
M  V30 2477 H 241.984 4.99181 1.9163 0
M  V30 2478 H 242.327 3.36494 2.45107 0
M  V30 2479 H 242.86 3.88932 0.835249 0
M  V30 2480 H 239.599 6.52879 -0.585621 0
M  V30 2481 H 239.119 5.912 1.01204 0
M  V30 2482 H 240.798 6.42979 0.720176 0
M  V30 2483 N 240.93 -0.123565 1.57115 0
M  V30 2484 C 242.341 -0.681198 1.73829 0
M  V30 2485 C 242.692 -1.80535 0.768214 0
M  V30 2486 O 241.817 -2.16317 -0.0599103 0
M  V30 2487 C 242.412 -1.24246 3.15196 0
M  V30 2488 C 240.971 -1.74643 3.33432 0
M  V30 2489 C 240.118 -0.644284 2.69711 0
M  V30 2490 H 243.069 0.102315 1.5837 0
M  V30 2491 H 243.09 -2.11216 3.16493 0
M  V30 2492 H 242.602 -0.424062 3.85776 0
M  V30 2493 H 240.703 -2.58974 2.67886 0
M  V30 2494 H 240.816 -1.85902 4.41562 0
M  V30 2495 H 239.18 -1.07676 2.3082 0
M  V30 2496 H 239.963 0.163058 3.42913 0
M  V30 2497 N 242.408 -1.52605 -0.393616 0
M  V30 2498 C 243.371 -1.76415 -1.46323 0
M  V30 2499 C 244.371 -0.634126 -1.47768 0
M  V30 2500 O 245.561 -0.902142 -1.4902 0
M  V30 2501 C 242.693 -1.8607 -2.85641 0
M  V30 2502 H 243.886 -2.71916 -1.26498 0
M  V30 2503 H 241.439 -1.43257 -0.625073 0
M  V30 2504 H 242.174 -0.925378 -3.10817 0
M  V30 2505 H 241.959 -2.68235 -2.85993 0
M  V30 2506 H 243.449 -2.06179 -3.63153 0
M  V30 2507 N 243.887 0.651787 -1.4349 0
M  V30 2508 C 245.298 1.233 -1.40193 0
M  V30 2509 C 245.649 1.9591 -0.106727 0
M  V30 2510 O 244.774 2.01316 0.793773 0
M  V30 2511 C 245.369 2.24257 -2.53957 0
M  V30 2512 C 243.928 2.77852 -2.5392 0
M  V30 2513 C 243.075 1.52517 -2.3159 0
M  V30 2514 H 246.026 0.443717 -1.52371 0
M  V30 2515 H 246.047 3.0646 -2.25528 0
M  V30 2516 H 245.559 1.71382 -3.4821 0
M  V30 2517 H 243.66 3.34786 -1.63551 0
M  V30 2518 H 243.773 3.25299 -3.51735 0
M  V30 2519 H 242.137 1.79915 -1.80285 0
M  V30 2520 H 242.92 1.01574 -3.27929 0
M  V30 2521 N 245.365 1.30045 0.890287 0
M  V30 2522 C 246.593 1.21472 1.67487 0
M  V30 2523 C 247.008 -0.223241 1.87476 0
M  V30 2524 O 246.365 -1.14828 1.41847 0
M  V30 2525 C 246.416 1.93394 3.05419 0
M  V30 2526 O 246.137 3.31576 2.86337 0
M  V30 2527 C 247.638 1.91414 3.99844 0
M  V30 2528 H 244.858 0.420604 0.522813 0
M  V30 2529 H 247.402 1.7158 1.11268 0
M  V30 2530 H 245.557 1.47099 3.58386 0
M  V30 2531 H 245.971 3.67929 3.73802 0
M  V30 2532 H 247.445 2.46285 4.94012 0
M  V30 2533 H 247.922 0.891833 4.3005 0
M  V30 2534 H 248.528 2.37496 3.52811 0
M  V30 2535 N 246.843 -1.10192 1.12674 0
M  V30 2536 C 248.071 -1.85983 0.906527 0
M  V30 2537 C 248.486 -1.80783 -0.544333 0
M  V30 2538 O 247.843 -1.19834 -1.37645 0
M  V30 2539 C 247.894 -3.34281 1.37618 0
M  V30 2540 O 247.615 -3.39401 2.77017 0
M  V30 2541 C 249.116 -4.26938 1.19325 0
M  V30 2542 H 246.336 -0.587716 0.323775 0
M  V30 2543 H 248.88 -1.39284 1.49734 0
M  V30 2544 H 247.035 -3.78436 0.828539 0
M  V30 2545 H 247.449 -4.31838 2.97684 0
M  V30 2546 H 248.923 -5.29181 1.57071 0
M  V30 2547 H 249.4 -4.38995 0.134097 0
M  V30 2548 H 250.006 -3.8859 1.72852 0
M  V30 2549 N 248.321 -0.919034 -1.28029 0
M  V30 2550 C 249.569 -0.553838 -1.94363 0
M  V30 2551 C 249.89 0.906357 -1.72656 0
M  V30 2552 O 249.16 1.64143 -1.0693 0
M  V30 2553 H 247.74 -0.201834 -0.719216 0
M  V30 2554 H 250.402 -1.16954 -1.55909 0
M  V30 2555 H 249.498 -0.752758 -3.02886 0
M  V30 2556 N 249.799 1.42003 -0.683588 0
M  V30 2557 C 251.024 2.06265 -0.216647 0
M  V30 2558 C 251.449 1.51059 1.12083 0
M  V30 2559 O 250.807 0.632638 1.69904 0
M  V30 2560 C 250.855 3.60191 -0.171759 0
M  V30 2561 O 249.959 4.03396 0.857069 0
M  V30 2562 H 249.3 0.65502 -0.108834 0
M  V30 2563 H 251.83 1.81982 -0.935077 0
M  V30 2564 H 251.84 4.08 0.0014303 0
M  V30 2565 H 250.515 3.99743 -1.14796 0
M  V30 2566 H 249.092 3.67117 0.654208 0
M  V30 2567 N 251.277 0.427512 1.51691 0
M  V30 2568 C 252.525 -0.141948 2.01601 0
M  V30 2569 C 252.846 -1.44067 1.31414 0
M  V30 2570 O 252.116 -1.90763 0.445658 0
M  V30 2571 H 250.696 -0.0554468 0.744939 0
M  V30 2572 H 253.358 0.567968 1.86441 0
M  V30 2573 H 252.454 -0.324913 3.10404 0
M  V30 2574 N 252.755 -1.56801 0.158532 0
M  V30 2575 C 253.995 -1.98383 -0.49229 0
M  V30 2576 C 254.359 -1.04184 -1.61275 0
M  V30 2577 O 255.56 -1.34856 -2.32524 0
M  V30 2578 C 253.831 -3.4385 -0.974766 0
M  V30 2579 S 255.39 -4.07459 -1.62857 0
M  V30 2580 H 252.208 -0.693041 -0.158794 0
M  V30 2581 H 254.81 -1.93856 0.252974 0
M  V30 2582 H 253.514 -4.10131 -0.148688 0
M  V30 2583 H 253.045 -3.52115 -1.75438 0
M  V30 2584 H 255.06 -4.01458 -2.91627 0
M  V30 2585 N 254.233 0.115231 -1.57178 0
M  V30 2586 C 255.461 0.836437 -1.89239 0
M  V30 2587 C 255.876 1.73256 -0.750175 0
M  V30 2588 O 255.233 1.80357 0.278832 0
M  V30 2589 C 255.284 1.66671 -3.20785 0
M  V30 2590 O 255.005 0.806652 -4.3061 0
M  V30 2591 C 256.506 2.49274 -3.66575 0
M  V30 2592 H 253.726 0.240253 -0.626514 0
M  V30 2593 H 256.27 0.0984932 -2.04263 0
M  V30 2594 H 254.425 2.35737 -3.0742 0
M  V30 2595 H 254.839 1.37969 -5.06028 0
M  V30 2596 H 256.313 3.03055 -4.6137 0
M  V30 2597 H 256.79 3.26807 -2.93417 0
M  V30 2598 H 257.396 1.85443 -3.82741 0
M  V30 2599 N 255.711 1.52812 0.385517 0
M  V30 2600 C 257.127 1.4214 0.725829 0
M  V30 2601 C 257.327 0.544589 1.94001 0
M  V30 2602 O 256.383 0.0193693 2.52493 0
M  V30 2603 C 257.696 2.85042 0.957668 0
M  V30 2604 C 259.244 2.94543 1.05892 0
M  V30 2605 C 259.719 4.38464 1.32337 0
M  V30 2606 N 261.21 4.41804 1.39151 0
M  V30 2607 C 261.945 5.5025 1.61285 0
M  V30 2608 N 261.441 6.68775 1.80866 0
M  V30 2609 N 263.234 5.37798 1.63492 0
M  V30 2610 H 255.385 2.08338 -0.413383 0
M  V30 2611 H 257.648 0.940016 -0.122775 0
M  V30 2612 H 257.354 3.51431 0.137568 0
M  V30 2613 H 257.228 3.27505 1.87137 0
M  V30 2614 H 259.615 2.28321 1.86959 0
M  V30 2615 H 259.696 2.55504 0.123057 0
M  V30 2616 H 259.34 5.05254 0.517793 0
M  V30 2617 H 259.27 4.75059 2.27214 0
M  V30 2618 H 261.761 3.56377 1.25713 0
M  V30 2619 H 262.074 7.47197 1.97271 0
M  V30 2620 H 260.419 6.71797 1.78083 0
M  V30 2621 H 263.61 4.44171 1.47749 0
M  V30 2622 H 263.783 6.22382 1.80402 0
M  V30 2623 N 257.189 -0.644168 1.43834 0
M  V30 2624 C 258.438 -1.39985 1.45214 0
M  V30 2625 C 258.751 -1.95421 0.0835494 0
M  V30 2626 O 259.957 -2.71488 -0.0251748 0
M  V30 2627 C 258.413 -2.53384 2.55587 0
M  V30 2628 C 258.021 -2.04517 3.98594 0
M  V30 2629 C 259.765 -3.30685 2.66172 0
M  V30 2630 C 257.672 -3.1518 5.00416 0
M  V30 2631 H 256.602 -0.526005 0.540218 0
M  V30 2632 H 259.253 -0.694367 1.69855 0
M  V30 2633 H 257.635 -3.26446 2.24163 0
M  V30 2634 H 258.809 -1.38405 4.39523 0
M  V30 2635 H 257.124 -1.40068 3.92135 0
M  V30 2636 H 259.721 -4.13158 3.39418 0
M  V30 2637 H 260.064 -3.79312 1.71546 0
M  V30 2638 H 260.597 -2.64708 2.96942 0
M  V30 2639 H 257.336 -2.71511 5.96625 0
M  V30 2640 H 256.856 -3.79974 4.64091 0
M  V30 2641 H 258.535 -3.80166 5.23529 0
M  V30 2642 N 258.668 -1.30515 -0.883378 0
M  V30 2643 C 260.079 -1.17509 -1.45081 0
M  V30 2644 C 260.43 0.223605 -1.94922 0
M  V30 2645 O 259.555 1.12041 -1.85137 0
M  V30 2646 C 260.15 -2.12715 -2.63701 0
M  V30 2647 C 258.709 -2.03682 -3.16529 0
M  V30 2648 C 257.856 -2.02706 -1.89224 0
M  V30 2649 H 260.807 -1.42762 -0.693165 0
M  V30 2650 H 260.828 -1.70891 -3.39965 0
M  V30 2651 H 260.34 -3.14505 -2.27395 0
M  V30 2652 H 258.441 -1.05039 -3.57488 0
M  V30 2653 H 258.554 -2.92146 -3.7972 0
M  V30 2654 H 256.918 -1.4753 -2.07622 0
M  V30 2655 H 257.701 -3.06229 -1.55174 0
M  V30 2656 N 260.146 1.09593 -1.13257 0
M  V30 2657 C 261.371 1.8604 -0.916732 0
M  V30 2658 C 261.796 1.80504 0.529146 0
M  V30 2659 O 261.154 1.18127 1.37534 0
M  V30 2660 C 261.202 3.32017 -1.40703 0
M  V30 2661 O 260.306 4.08141 -0.591153 0
M  V30 2662 H 259.647 0.576943 -0.328683 0
M  V30 2663 H 262.177 1.38405 -1.50682 0
M  V30 2664 H 262.187 3.82865 -1.4099 0
M  V30 2665 H 260.862 3.35361 -2.45979 0
M  V30 2666 H 259.439 3.67084 -0.656005 0
M  V30 2667 N 261.624 0.925811 1.2754 0
M  V30 2668 C 262.871 0.565255 1.94451 0
M  V30 2669 C 263.199 -0.89316 1.7278 0
M  V30 2670 O 262.454 -1.65213 1.04895 0
M  V30 2671 C 262.753 0.835296 3.47502 0
M  V30 2672 C 262.419 2.27515 3.89291 0
M  V30 2673 C 261.081 2.66879 4.00411 0
M  V30 2674 C 263.433 3.21158 4.10496 0
M  V30 2675 C 260.761 3.99014 4.30122 0
M  V30 2676 C 263.113 4.52871 4.4169 0
M  V30 2677 C 261.777 4.92072 4.51023 0
M  V30 2678 H 261.047 0.206841 0.711546 0
M  V30 2679 H 263.694 1.16942 1.51647 0
M  V30 2680 H 261.999 0.148442 3.91519 0
M  V30 2681 H 263.696 0.535322 3.97411 0
M  V30 2682 H 260.286 1.95976 3.81171 0
M  V30 2683 H 264.47 2.9195 4.01346 0
M  V30 2684 H 259.726 4.2907 4.35556 0
M  V30 2685 H 263.9 5.25436 4.57045 0
M  V30 2686 H 261.527 5.9449 4.738 0
M  V30 2687 N 263.102 -1.41638 0.69111 0
M  V30 2688 C 264.379 -1.95036 0.148421 0
M  V30 2689 C 264.759 -1.63072 -1.34055 0
M  V30 2690 O 264.107 -0.93538 -2.08478 0
M  V30 2691 C 264.317 -3.46279 0.434951 0
M  V30 2692 C 265.665 -4.23069 0.360275 0
M  V30 2693 O 266.689 -3.54277 0.369613 0
M  V30 2694 O 265.548 -5.45583 0.316534 0
M  V30 2695 H 262.642 -0.826908 0.0123654 0
M  V30 2696 H 265.188 -1.5138 0.766963 0
M  V30 2697 H 263.96 -3.6281 1.46576 0
M  V30 2698 H 263.583 -3.97019 -0.214787 0
M  V30 2699 N 264.58 -0.43555 -1.51462 0
M  V30 2700 C 265.513 0.421989 -2.24264 0
M  V30 2701 C 266.491 1.02619 -1.26127 0
M  V30 2702 O 267.675 1.069 -1.55257 0
M  V30 2703 C 264.802 1.588 -2.99166 0
M  V30 2704 C 263.848 1.10465 -4.11946 0
M  V30 2705 S 264.681 0.048146 -5.35478 0
M  V30 2706 C 265.837 1.21887 -6.13917 0
M  V30 2707 H 266.07 -0.196102 -2.96653 0
M  V30 2708 H 263.603 -0.220054 -1.52824 0
M  V30 2709 H 265.561 2.25647 -3.42919 0
M  V30 2710 H 264.222 2.1775 -2.26371 0
M  V30 2711 H 263.415 1.97654 -4.63626 0
M  V30 2712 H 263.017 0.51445 -3.70445 0
M  V30 2713 H 265.309 2.13756 -6.42895 0
M  V30 2714 H 266.252 0.742076 -7.04201 0
M  V30 2715 H 266.66 1.45663 -5.45383 0
M  V30 2716 N 266.058 1.56714 -0.166846 0
M  V30 2717 C 267.283 2.01557 0.488833 0
M  V30 2718 C 267.708 1.0463 1.56314 0
M  V30 2719 O 267.066 0.0251304 1.81283 0
M  V30 2720 C 267.114 3.4503 1.04818 0
M  V30 2721 O 266.218 3.51163 2.16236 0
M  V30 2722 H 265.559 0.653516 0.117526 0
M  V30 2723 H 268.089 2.02818 -0.269421 0
M  V30 2724 H 268.099 3.84243 1.37191 0
M  V30 2725 H 266.774 4.15077 0.261572 0
M  V30 2726 H 265.351 3.23807 1.84942 0
M  V30 2727 N 267.536 -0.106894 1.57237 0
M  V30 2728 C 268.499 -1.11466 2.0027 0
M  V30 2729 C 269.499 -1.33623 0.894519 0
M  V30 2730 O 270.689 -1.29935 1.16028 0
M  V30 2731 C 267.821 -2.46646 2.35327 0
M  V30 2732 H 269.014 -0.744516 2.90512 0
M  V30 2733 H 266.567 -0.351576 1.52295 0
M  V30 2734 H 267.302 -2.88558 1.48003 0
M  V30 2735 H 267.087 -2.31915 3.16161 0
M  V30 2736 H 268.577 -3.19151 2.69318 0
M  V30 2737 N 269.014 -1.53014 -0.377408 0
M  V30 2738 C 270.242 -1.72515 -1.14219 0
M  V30 2739 C 270.657 -0.448735 -1.8339 0
M  V30 2740 O 270.014 0.577592 -1.73119 0
M  V30 2741 C 270.065 -2.8826 -2.18148 0
M  V30 2742 O 269.786 -4.10962 -1.51795 0
M  V30 2743 C 271.287 -3.19536 -3.07264 0
M  V30 2744 H 268.507 -0.577301 -0.342001 0
M  V30 2745 H 271.051 -1.99712 -0.439935 0
M  V30 2746 H 269.206 -2.63492 -2.83991 0
M  V30 2747 H 269.62 -4.75693 -2.20945 0
M  V30 2748 H 271.094 -4.03959 -3.76193 0
M  V30 2749 H 271.571 -2.34403 -3.71419 0
M  V30 2750 H 272.177 -3.46186 -2.47053 0
M  V30 2751 N 270.492 0.636531 -1.44174 0
M  V30 2752 C 271.442 1.74233 -1.47061 0
M  V30 2753 C 272.426 1.57331 -0.337034 0
M  V30 2754 O 273.618 1.67159 -0.581973 0
M  V30 2755 C 270.747 3.12897 -1.41246 0
M  V30 2756 C 269.833 3.35288 -2.59698 0
M  V30 2757 N 270.224 3.2807 -3.84972 0
M  V30 2758 C 268.522 3.66065 -2.54778 0
M  V30 2759 C 269.223 3.51001 -4.63867 0
M  V30 2760 N 268.199 3.73616 -3.94857 0
M  V30 2761 H 272.001 1.67103 -2.41773 0
M  V30 2762 H 269.515 0.838806 -1.3906 0
M  V30 2763 H 271.512 3.92189 -1.41398 0
M  V30 2764 H 270.172 3.21197 -0.47569 0
M  V30 2765 H 271.183 3.07109 -4.17019 0
M  V30 2766 H 267.86 3.81379 -1.6987 0
M  V30 2767 H 269.25 3.51059 -5.72894 0
M  V30 2768 N 271.97 1.30982 0.876444 0
M  V30 2769 C 273.2 1.23063 1.65949 0
M  V30 2770 C 273.608 -0.207537 1.88058 0
M  V30 2771 O 272.951 -1.14781 1.43426 0
M  V30 2772 C 273.013 1.89768 3.05333 0
M  V30 2773 C 272.677 3.39106 3.0636 0
M  V30 2774 C 273.674 4.3496 2.84791 0
M  V30 2775 C 271.359 3.80693 3.27686 0
M  V30 2776 C 273.353 5.70375 2.84519 0
M  V30 2777 C 271.04 5.16223 3.27043 0
M  V30 2778 C 272.038 6.10875 3.05485 0
M  V30 2779 O 271.726 7.43928 3.04674 0
M  V30 2780 H 271.458 0.426685 0.524324 0
M  V30 2781 H 274.012 1.7329 1.10271 0
M  V30 2782 H 272.242 1.34082 3.6271 0
M  V30 2783 H 273.931 1.75853 3.65829 0
M  V30 2784 H 274.697 4.0416 2.68103 0
M  V30 2785 H 270.576 3.07457 3.43499 0
M  V30 2786 H 274.12 6.44228 2.67611 0
M  V30 2787 H 270.017 5.4666 3.43269 0
M  V30 2788 H 270.785 7.53022 3.2078 0
M  V30 2789 N 273.449 -1.08991 1.13837 0
M  V30 2790 C 274.689 -1.82867 0.913183 0
M  V30 2791 C 275.053 -1.83936 -0.550604 0
M  V30 2792 O 276.254 -2.53515 -0.893515 0
M  V30 2793 C 274.525 -3.24843 1.49036 0
M  V30 2794 S 276.084 -4.15669 1.40588 0
M  V30 2795 H 272.902 -0.630278 0.329046 0
M  V30 2796 H 275.504 -1.31049 1.45073 0
M  V30 2797 H 274.208 -3.21644 2.54899 0
M  V30 2798 H 273.739 -3.81734 0.950947 0
M  V30 2799 H 275.754 -4.94686 0.387353 0
M  V30 2800 N 274.927 -0.932562 -1.27047 0
M  V30 2801 C 276.157 -0.591173 -1.97961 0
M  V30 2802 C 276.565 0.836219 -1.69717 0
M  V30 2803 O 275.908 1.56801 -0.957036 0
M  V30 2804 C 275.97 -0.743082 -3.51736 0
M  V30 2805 C 275.634 -2.1435 -4.03613 0
M  V30 2806 C 276.631 -3.11815 -4.16014 0
M  V30 2807 C 274.316 -2.46175 -4.37839 0
M  V30 2808 C 276.31 -4.39211 -4.61923 0
M  V30 2809 C 273.997 -3.73806 -4.83438 0
M  V30 2810 C 274.995 -4.70137 -4.95439 0
M  V30 2811 O 274.683 -5.95496 -5.40037 0
M  V30 2812 H 274.415 -0.222375 -0.638377 0
M  V30 2813 H 276.969 -1.25317 -1.62742 0
M  V30 2814 H 275.199 -0.0239739 -3.86693 0
M  V30 2815 H 276.888 -0.40603 -4.03864 0
M  V30 2816 H 277.654 -2.88549 -3.89826 0
M  V30 2817 H 273.533 -1.71936 -4.27737 0
M  V30 2818 H 277.077 -5.14404 -4.71205 0
M  V30 2819 H 272.974 -3.96888 -5.09068 0
M  V30 2820 H 273.742 -5.98554 -5.58279 0
M  V30 2821 N 276.405 1.4127 -0.698611 0
M  V30 2822 C 277.633 2.05503 -0.239992 0
M  V30 2823 C 278.048 1.52584 1.11191 0
M  V30 2824 O 277.405 0.675323 1.69545 0
M  V30 2825 C 277.456 3.60987 -0.192429 0
M  V30 2826 O 277.177 4.1195 -1.49094 0
M  V30 2827 C 278.678 4.42371 0.28681 0
M  V30 2828 H 275.898 0.661748 -0.111045 0
M  V30 2829 H 278.442 1.80987 -0.95205 0
M  V30 2830 H 276.597 3.84533 0.470472 0
M  V30 2831 H 277.011 5.06018 -1.38007 0
M  V30 2832 H 278.485 5.51344 0.26896 0
M  V30 2833 H 278.962 4.18699 1.32619 0
M  V30 2834 H 279.568 4.23897 -0.345201 0
M  V30 2835 N 277.883 0.443576 1.51229 0
M  V30 2836 C 278.833 -0.382787 2.24764 0
M  V30 2837 C 279.817 -0.984836 1.27239 0
M  V30 2838 O 281.009 -0.901943 1.52296 0
M  V30 2839 C 278.138 -1.47989 3.09765 0
M  V30 2840 C 277.224 -0.886931 4.14722 0
M  V30 2841 N 277.615 -0.0237103 5.05794 0
M  V30 2842 C 275.913 -1.15385 4.30816 0
M  V30 2843 C 276.614 0.309971 5.80874 0
M  V30 2844 N 275.59 -0.307989 5.42727 0
M  V30 2845 H 279.392 0.282624 2.92538 0
M  V30 2846 H 276.906 0.256027 1.60369 0
M  V30 2847 H 278.903 -2.08482 3.61027 0
M  V30 2848 H 277.563 -2.14758 2.43535 0
M  V30 2849 H 278.574 0.34318 5.16762 0
M  V30 2850 H 275.251 -1.81857 3.75812 0
M  V30 2851 H 276.641 1.01279 6.64223 0
M  V30 2852 N 279.361 -1.56624 0.175154 0
M  V30 2853 C 280.309 -2.19468 -0.770495 0
M  V30 2854 C 281.303 -1.15985 -1.23466 0
M  V30 2855 O 282.509 -1.34176 -1.19987 0
M  V30 2856 H 278.884 -0.703095 -0.266761 0
M  V30 2857 H 280.855 -2.97613 -0.216542 0
M  V30 2858 C 279.604 -2.85264 -1.98796 0
M  V30 2859 H 278.927 -3.64623 -1.63983 0
M  V30 2860 H 280.367 -3.327 -2.62843 0
M  V30 2861 C 278.826 -1.85239 -2.81404 0
M  V30 2862 O 279.356 -1.34024 -3.78682 0
M  V30 2863 N 277.562 -1.53911 -2.46495 0
M  V30 2864 H 277.109 -1.95751 -1.67449 0
M  V30 2865 H 277.067 -0.872382 -3.02054 0
M  V30 2866 N 280.839 0.0985539 -1.57292 0
M  V30 2867 C 282.085 0.803867 -1.86188 0
M  V30 2868 C 282.418 1.78549 -0.763794 0
M  V30 2869 O 281.693 1.93153 0.22855 0
M  V30 2870 C 281.976 1.53568 -3.25713 0
M  V30 2871 C 281.829 0.572277 -4.46145 0
M  V30 2872 C 283.148 2.48708 -3.63087 0
M  V30 2873 H 280.267 0.290781 -0.677211 0
M  V30 2874 H 282.909 0.0675783 -1.8988 0
M  V30 2875 H 281.059 2.16332 -3.22696 0
M  V30 2876 H 282.731 -0.0480894 -4.61275 0
M  V30 2877 H 280.974 -0.114618 -4.33649 0
M  V30 2878 H 281.645 1.12139 -5.40489 0
M  V30 2879 H 284.121 1.96039 -3.67026 0
M  V30 2880 H 282.997 2.96932 -4.61652 0
M  V30 2881 H 283.258 3.32309 -2.91588 0
M  V30 2882 N 282.317 1.53212 0.369288 0
M  V30 2883 C 283.566 1.68436 1.10961 0
M  V30 2884 C 283.879 0.440738 1.9057 0
M  V30 2885 O 285.085 0.473446 2.6734 0
M  V30 2886 C 283.541 2.97744 2.0218 0
M  V30 2887 C 283.149 4.29355 1.279 0
M  V30 2888 C 284.893 3.22334 2.76226 0
M  V30 2889 C 282.8 5.49755 2.17999 0
M  V30 2890 H 281.73 0.627568 0.41794 0
M  V30 2891 H 284.381 1.79713 0.370884 0
M  V30 2892 H 282.763 2.8026 2.79768 0
M  V30 2893 H 283.937 4.57458 0.554007 0
M  V30 2894 H 282.252 4.11179 0.657311 0
M  V30 2895 H 284.849 4.09471 3.43857 0
M  V30 2896 H 285.192 2.38238 3.41392 0
M  V30 2897 H 285.725 3.40475 2.05723 0
M  V30 2898 H 282.464 6.36318 1.57417 0
M  V30 2899 H 281.984 5.25937 2.88359 0
M  V30 2900 H 283.663 5.84401 2.77641 0
M  V30 2901 N 283.795 -0.628877 1.44509 0
M  V30 2902 C 284.725 -1.75187 1.54376 0
M  V30 2903 C 285.706 -1.65411 0.396618 0
M  V30 2904 O 286.891 -1.84137 0.617031 0
M  V30 2905 C 284.021 -3.13725 1.48976 0
M  V30 2906 C 282.975 -3.38291 2.62189 0
M  V30 2907 C 282.301 -4.76883 2.41841 0
M  V30 2908 C 283.601 -3.30632 4.04326 0
M  V30 2909 H 285.295 -1.67187 2.48373 0
M  V30 2910 H 282.841 -0.802909 1.19538 0
M  V30 2911 H 284.794 -3.92064 1.54478 0
M  V30 2912 H 283.518 -3.22515 0.514961 0
M  V30 2913 H 282.177 -2.62334 2.56079 0
M  V30 2914 H 281.825 -4.82378 1.42548 0
M  V30 2915 H 281.525 -4.94278 3.17747 0
M  V30 2916 H 283.049 -5.57449 2.49165 0
M  V30 2917 H 284.463 -3.98873 4.11793 0
M  V30 2918 H 282.86 -3.59561 4.80454 0
M  V30 2919 H 283.93 -2.28404 4.27738 0
M  V30 2920 N 285.273 -1.31445 -0.869486 0
M  V30 2921 C 286.498 -1.24256 -1.66058 0
M  V30 2922 C 286.923 0.188928 -1.87149 0
M  V30 2923 O 286.281 1.13522 -1.4136 0
M  V30 2924 C 286.329 -1.9924 -3.00559 0
M  V30 2925 O 285.433 -1.33007 -3.90362 0
M  V30 2926 H 284.774 -0.428973 -0.506831 0
M  V30 2927 H 287.304 -1.73521 -1.08404 0
M  V30 2928 H 287.314 -2.08854 -3.50491 0
M  V30 2929 H 285.989 -3.03342 -2.84528 0
M  V30 2930 H 284.566 -1.31848 -3.48813 0
M  V30 2931 N 286.751 1.08385 -1.14413 0
M  V30 2932 C 287.999 1.80419 -0.910679 0
M  V30 2933 C 288.32 1.86658 0.564243 0
M  V30 2934 O 287.59 1.35985 1.41014 0
M  V30 2935 H 286.17 0.668204 -0.333934 0
M  V30 2936 H 288.832 1.31037 -1.44275 0
M  V30 2937 H 287.928 2.83238 -1.31082 0
M  V30 2938 N 288.23 0.939286 1.26551 0
M  V30 2939 C 289.47 0.5933 1.956 0
M  V30 2940 C 289.834 -0.851515 1.72085 0
M  V30 2941 O 291.035 -1.30634 2.34921 0
M  V30 2942 C 289.306 0.923996 3.45249 0
M  V30 2943 S 290.865 0.688269 4.33369 0
M  V30 2944 H 287.683 0.218591 0.676564 0
M  V30 2945 H 290.285 1.2102 1.5354 0
M  V30 2946 H 288.989 1.97297 3.59864 0
M  V30 2947 H 288.52 0.296746 3.92279 0
M  V30 2948 H 290.535 -0.448434 4.9417 0
M  V30 2949 N 289.708 -1.40897 0.706093 0
M  V30 2950 C 291.124 -1.55042 0.37869 0
M  V30 2951 C 291.324 -1.67944 -1.11342 0
M  V30 2952 O 290.38 -1.66372 -1.89938 0
M  V30 2953 C 291.693 -2.78398 1.13643 0
M  V30 2954 C 293.241 -2.92206 1.12181 0
M  V30 2955 C 293.716 -4.18463 1.86152 0
M  V30 2956 N 295.207 -4.25443 1.83173 0
M  V30 2957 C 295.942 -5.2202 2.37239 0
M  V30 2958 N 295.438 -6.24563 2.99821 0
M  V30 2959 N 297.231 -5.14033 2.27435 0
M  V30 2960 H 289.382 -1.30769 1.67372 0
M  V30 2961 H 291.645 -0.631653 0.706907 0
M  V30 2962 H 291.351 -2.7511 2.19106 0
M  V30 2963 H 291.225 -3.70228 0.721853 0
M  V30 2964 H 293.612 -2.95004 0.0754171 0
M  V30 2965 H 293.693 -2.01521 1.57554 0
M  V30 2966 H 293.337 -4.16427 2.90776 0
M  V30 2967 H 293.267 -5.08141 1.38206 0
M  V30 2968 H 295.758 -3.51976 1.37556 0
M  V30 2969 H 296.071 -6.94665 3.38616 0
M  V30 2970 H 294.416 -6.25035 3.03902 0
M  V30 2971 H 297.607 -4.3285 1.78208 0
M  V30 2972 H 297.78 -5.89129 2.69873 0
M  V30 2973 N 291.186 -0.45159 -1.50991 0
M  V30 2974 C 292.463 0.170707 -1.94854 0
M  V30 2975 C 292.843 1.58788 -1.39103 0
M  V30 2976 O 292.191 2.20913 -0.583921 0
M  V30 2977 C 292.401 0.133929 -3.48743 0
M  V30 2978 C 293.749 0.33248 -4.23296 0
M  V30 2979 O 294.773 0.211403 -3.55572 0
M  V30 2980 O 293.632 0.57486 -5.43468 0
M  V30 2981 H 290.726 0.122264 -0.817912 0
M  V30 2982 H 293.272 -0.510594 -1.61836 0
M  V30 2983 H 292.044 -0.856283 -3.81816 0
M  V30 2984 H 291.667 0.857529 -3.88242 0
M  V30 2985 N 292.664 1.56529 -0.183458 0
M  V30 2986 C 293.614 2.1515 0.754605 0
M  V30 2987 C 294.598 1.08904 1.18443 0
M  V30 2988 O 295.79 1.34997 1.14476 0
M  V30 2989 C 292.919 2.80531 1.97881 0
M  V30 2990 C 292.005 3.93952 1.57043 0
M  V30 2991 N 292.396 4.98221 0.87231 0
M  V30 2992 C 290.694 4.05338 1.86057 0
M  V30 2993 C 291.395 5.77836 0.669377 0
M  V30 2994 N 290.371 5.29858 1.21454 0
M  V30 2995 H 294.173 2.93132 0.212387 0
M  V30 2996 H 291.687 1.62391 0.0167725 0
M  V30 2997 H 293.684 3.20914 2.6612 0
M  V30 2998 H 292.344 2.04035 2.52586 0
M  V30 2999 H 293.355 5.15191 0.529033 0
M  V30 3000 H 290.032 3.39957 2.42354 0
M  V30 3001 H 291.422 6.71799 0.116422 0
M  V30 3002 N 294.142 -0.090211 1.57342 0
M  V30 3003 C 295.367 -0.810082 1.90925 0
M  V30 3004 C 295.792 -1.71248 0.778187 0
M  V30 3005 O 295.15 -1.79278 -0.269991 0
M  V30 3006 C 295.198 -1.59529 3.23393 0
M  V30 3007 O 294.302 -2.70461 3.11327 0
M  V30 3008 H 293.643 -0.222231 0.625707 0
M  V30 3009 H 296.173 -0.0639716 2.045 0
M  V30 3010 H 296.183 -1.97847 3.5682 0
M  V30 3011 H 294.858 -0.933055 4.05299 0
M  V30 3012 H 293.435 -2.35135 2.89423 0
M  V30 3013 N 295.62 -1.53406 -0.361157 0
M  V30 3014 C 296.57 -1.76536 -1.44287 0
M  V30 3015 C 297.554 -0.620019 -1.48474 0
M  V30 3016 O 298.746 -0.878834 -1.53641 0
M  V30 3017 C 295.875 -1.96266 -2.81664 0
M  V30 3018 C 294.961 -3.16815 -2.81938 0
M  V30 3019 N 295.352 -4.38637 -2.51855 0
M  V30 3020 C 293.65 -3.17627 -3.13096 0
M  V30 3021 C 294.351 -5.20401 -2.59919 0
M  V30 3022 N 293.327 -4.56712 -2.94814 0
M  V30 3023 H 297.129 -2.68331 -1.19899 0
M  V30 3024 H 294.643 -1.52091 -0.56938 0
M  V30 3025 H 296.64 -2.10966 -3.59582 0
M  V30 3026 H 295.3 -1.05702 -3.07013 0
M  V30 3027 H 296.311 -4.66293 -2.25369 0
M  V30 3028 H 292.988 -2.36971 -3.43731 0
M  V30 3029 H 294.378 -6.27586 -2.39969 0
M  V30 3030 N 297.098 0.621204 -1.44841 0
M  V30 3031 C 298.323 1.41244 -1.51871 0
M  V30 3032 C 298.748 1.87519 -0.147764 0
M  V30 3033 O 298.106 1.59334 0.865 0
M  V30 3034 C 298.154 2.60221 -2.49634 0
M  V30 3035 O 297.258 3.60395 -2.00473 0
M  V30 3036 H 296.599 0.42223 -0.512463 0
M  V30 3037 H 299.129 0.757305 -1.90069 0
M  V30 3038 H 299.139 3.0764 -2.67996 0
M  V30 3039 H 297.814 2.25887 -3.4921 0
M  V30 3040 H 296.391 3.19717 -1.91925 0
M  V30 3041 N 298.576 1.31904 0.862503 0
M  V30 3042 C 299.526 1.16772 1.95827 0
M  V30 3043 C 300.51 0.0767098 1.60717 0
M  V30 3044 O 301.702 0.302407 1.74398 0
M  V30 3045 C 298.831 0.884858 3.317 0
M  V30 3046 C 297.917 2.0172 3.73055 0
M  V30 3047 N 298.308 3.265 3.86305 0
M  V30 3048 C 296.606 1.91861 4.02623 0
M  V30 3049 C 297.307 4.00616 4.2176 0
M  V30 3050 N 296.283 3.28847 4.32852 0
M  V30 3051 H 300.085 2.11382 2.04193 0
M  V30 3052 H 297.599 1.2357 1.05377 0
M  V30 3053 H 299.596 0.757419 4.09962 0
M  V30 3054 H 298.256 -0.0529448 3.24657 0
M  V30 3055 H 299.267 3.61529 3.70833 0
M  V30 3056 H 295.944 1.05593 4.03926 0
M  V30 3057 H 297.334 5.08182 4.39546 0
M  V30 3058 N 300.054 -1.07777 1.14986 0
M  V30 3059 C 300.986 -2.14769 0.800436 0
M  V30 3060 C 301.999 -1.61739 -0.185595 0
M  V30 3061 O 303.188 -1.78462 0.0370358 0
M  V30 3062 C 300.288 -3.38481 0.168533 0
M  V30 3063 C 299.461 -4.20876 1.1909 0
M  V30 3064 C 298.52 -5.22976 0.581575 0
M  V30 3065 O 297.546 -5.55388 1.24633 0
M  V30 3066 N 298.748 -5.76976 -0.638706 0
M  V30 3067 H 301.513 -2.45348 1.72118 0
M  V30 3068 H 299.074 -1.23645 1.04515 0
M  V30 3069 H 301.066 -4.03916 -0.251764 0
M  V30 3070 H 299.636 -3.05651 -0.655467 0
M  V30 3071 H 298.856 -3.51322 1.78791 0
M  V30 3072 H 300.144 -4.7274 1.88133 0
M  V30 3073 H 299.542 -5.52886 -1.19723 0
M  V30 3074 H 298.099 -6.44061 -1.00142 0
M  V30 3075 N 301.532 -0.945985 -1.26051 0
M  V30 3076 C 302.762 -0.612136 -1.97323 0
M  V30 3077 C 303.17 0.818171 -1.70595 0
M  V30 3078 O 302.513 1.55777 -0.973613 0
M  V30 3079 C 302.575 -0.780347 -3.50929 0
M  V30 3080 C 302.239 -2.18619 -4.01317 0
M  V30 3081 C 303.236 -3.16209 -4.12683 0
M  V30 3082 C 300.921 -2.50805 -4.35203 0
M  V30 3083 C 302.915 -4.44085 -4.57238 0
M  V30 3084 C 300.602 -3.78912 -4.79446 0
M  V30 3085 C 301.6 -4.75365 -4.90425 0
M  V30 3086 O 301.288 -6.01191 -5.3369 0
M  V30 3087 H 301.02 -0.229134 -0.635982 0
M  V30 3088 H 303.574 -1.27036 -1.61404 0
M  V30 3089 H 301.804 -0.0649864 -3.86645 0
M  V30 3090 H 303.493 -0.448842 -4.03411 0
M  V30 3091 H 304.259 -2.92668 -3.86744 0
M  V30 3092 H 300.138 -1.76463 -4.2589 0
M  V30 3093 H 303.682 -5.19373 -4.65723 0
M  V30 3094 H 299.579 -4.02265 -5.0483 0
M  V30 3095 H 300.347 -6.04442 -5.51899 0
M  V30 3096 N 303.011 1.40521 -0.713556 0
M  V30 3097 C 303.941 2.33381 -0.0743864 0
M  V30 3098 C 304.922 1.52784 0.747735 0
M  V30 3099 O 306.107 1.81258 0.697071 0
M  V30 3100 C 303.237 3.36748 0.849598 0
M  V30 3101 C 302.191 4.27793 0.133247 0
M  V30 3102 C 301.517 5.21679 1.17281 0
M  V30 3103 C 302.817 5.12415 -1.01134 0
M  V30 3104 H 304.511 2.87081 -0.850007 0
M  V30 3105 H 302.057 1.38034 -0.410201 0
M  V30 3106 H 304.01 4.00648 1.30612 0
M  V30 3107 H 302.734 2.81439 1.65709 0
M  V30 3108 H 301.393 3.65342 -0.303426 0
M  V30 3109 H 301.041 4.62677 1.9733 0
M  V30 3110 H 300.741 5.83435 0.698397 0
M  V30 3111 H 302.265 5.88456 1.62947 0
M  V30 3112 H 303.679 5.69781 -0.634274 0
M  V30 3113 H 302.076 5.83203 -1.41399 0
M  V30 3114 H 303.146 4.48514 -1.84292 0
M  V30 3115 N 304.489 0.459591 1.5075 0
M  V30 3116 C 305.452 -0.329093 2.26825 0
M  V30 3117 C 306.452 -0.930481 1.31144 0
M  V30 3118 O 307.642 -0.801453 1.54669 0
M  V30 3119 C 304.774 -1.46768 3.07688 0
M  V30 3120 H 305.967 0.337924 2.9799 0
M  V30 3121 H 303.52 0.213336 1.54837 0
M  V30 3122 H 304.255 -2.17009 2.40993 0
M  V30 3123 H 304.04 -1.04238 3.77991 0
M  V30 3124 H 305.53 -2.02433 3.65254 0
M  V30 3125 N 305.967 -1.56429 0.191757 0
M  V30 3126 C 306.897 -2.21937 -0.725696 0
M  V30 3127 C 307.878 -1.1814 -1.2238 0
M  V30 3128 O 309.063 -1.46636 -1.27325 0
M  V30 3129 C 306.193 -2.87611 -1.94672 0
M  V30 3130 C 305.147 -3.97623 -1.58366 0
M  V30 3131 C 304.473 -4.50446 -2.88102 0
M  V30 3132 C 305.773 -5.16197 -0.796133 0
M  V30 3133 H 307.467 -2.98861 -0.179606 0
M  V30 3134 H 305.013 -1.43749 -0.0849464 0
M  V30 3135 H 306.966 -3.3212 -2.59373 0
M  V30 3136 H 305.69 -2.08087 -2.51728 0
M  V30 3137 H 304.349 -3.53801 -0.960247 0
M  V30 3138 H 303.997 -3.67688 -3.43241 0
M  V30 3139 H 303.697 -5.24675 -2.64556 0
M  V30 3140 H 305.221 -4.97654 -3.53798 0
M  V30 3141 H 306.635 -5.57271 -1.34618 0
M  V30 3142 H 305.032 -5.96471 -0.658928 0
M  V30 3143 H 306.102 -4.84473 0.203478 0
M  V30 3144 N 307.445 0.0818655 -1.57387 0
M  V30 3145 C 308.693 0.781368 -1.86384 0
M  V30 3146 C 309.014 1.78618 -0.782342 0
M  V30 3147 O 308.284 1.94976 0.190061 0
M  V30 3148 H 306.864 0.291562 -0.687751 0
M  V30 3149 H 309.526 0.060348 -1.94807 0
M  V30 3150 H 308.622 1.3038 -2.83562 0
M  V30 3151 N 308.923 1.53595 0.353017 0
M  V30 3152 C 310.169 1.70638 1.09593 0
M  V30 3153 C 310.502 0.463286 1.88593 0
M  V30 3154 O 309.777 -0.539597 1.86865 0
M  V30 3155 C 310.06 2.96406 2.04489 0
M  V30 3156 C 309.913 4.30901 1.29014 0
M  V30 3157 C 311.232 3.17812 3.0444 0
M  V30 3158 H 308.351 0.620913 0.397034 0
M  V30 3159 H 310.993 1.86254 0.375446 0
M  V30 3160 H 309.143 2.83223 2.65927 0
M  V30 3161 H 310.815 4.55917 0.702638 0
M  V30 3162 H 309.058 4.29741 0.592071 0
M  V30 3163 H 309.729 5.1506 1.98537 0
M  V30 3164 H 312.205 3.30263 2.53112 0
M  V30 3165 H 311.081 4.07223 3.6805 0
M  V30 3166 H 311.342 2.33669 3.75301 0
M  V30 3167 N 310.401 -0.613514 1.45168 0
M  V30 3168 C 311.331 -1.7354 1.56225 0
M  V30 3169 C 312.312 -1.64981 0.41414 0
M  V30 3170 O 313.497 -1.83472 0.636526 0
M  V30 3171 C 310.627 -3.12128 1.52295 0
M  V30 3172 C 309.581 -3.35491 2.65762 0
M  V30 3173 C 308.907 -4.74291 2.46885 0
M  V30 3174 C 310.207 -3.26325 4.0781 0
M  V30 3175 H 311.901 -1.64543 2.50132 0
M  V30 3176 H 309.447 -0.790185 1.20383 0
M  V30 3177 H 311.4 -3.90404 1.58628 0
M  V30 3178 H 310.124 -3.2195 0.549139 0
M  V30 3179 H 308.783 -2.59603 2.58847 0
M  V30 3180 H 308.431 -4.80839 1.47657 0
M  V30 3181 H 308.131 -4.9088 3.22972 0
M  V30 3182 H 309.655 -5.54775 2.55063 0
M  V30 3183 H 311.069 -3.94483 4.16 0
M  V30 3184 H 309.466 -3.54445 4.8424 0
M  V30 3185 H 310.536 -2.23855 4.30136 0
M  V30 3186 N 311.879 -1.3236 -0.855495 0
M  V30 3187 C 313.295 -1.11332 -1.14356 0
M  V30 3188 C 313.495 0.106751 -2.01217 0
M  V30 3189 O 312.551 0.791891 -2.39761 0
M  V30 3190 C 313.864 -2.39237 -1.82171 0
M  V30 3191 C 315.412 -2.44986 -1.9481 0
M  V30 3192 C 315.887 -3.7281 -2.66039 0
M  V30 3193 N 317.378 -3.73787 -2.73565 0
M  V30 3194 C 318.113 -4.69394 -3.29327 0
M  V30 3195 N 317.609 -5.75367 -3.85907 0
M  V30 3196 N 319.402 -4.56893 -3.27423 0
M  V30 3197 H 311.553 -2.10586 -0.277027 0
M  V30 3198 H 313.816 -0.929701 -0.185364 0
M  V30 3199 H 313.522 -3.28431 -1.25802 0
M  V30 3200 H 313.396 -2.50134 -2.82335 0
M  V30 3201 H 315.783 -1.56252 -2.50338 0
M  V30 3202 H 315.864 -2.38043 -0.936448 0
M  V30 3203 H 315.508 -4.61918 -2.11174 0
M  V30 3204 H 315.438 -3.77024 -3.67642 0
M  V30 3205 H 317.929 -2.97189 -2.33424 0
M  V30 3206 H 318.242 -6.44378 -4.26611 0
M  V30 3207 H 316.587 -5.79123 -3.84242 0
M  V30 3208 H 319.778 -3.73269 -2.82467 0
M  V30 3209 H 319.951 -5.31577 -3.7058 0
M  V30 3210 N 313.357 1.07166 -1.15556 0
M  V30 3211 C 314.585 1.83514 -0.955519 0
M  V30 3212 C 315 1.82163 0.49621 0
M  V30 3213 O 314.357 1.23441 1.34419 0
M  V30 3214 C 314.408 3.30515 -1.46432 0
M  V30 3215 O 314.129 3.31937 -2.85918 0
M  V30 3216 C 315.63 4.23625 -1.30603 0
M  V30 3217 H 312.85 0.578926 -0.339244 0
M  V30 3218 H 315.394 1.35265 -1.53374 0
M  V30 3219 H 313.549 3.76106 -0.928584 0
M  V30 3220 H 313.963 4.23794 -3.09029 0
M  V30 3221 H 315.437 5.24831 -1.71047 0
M  V30 3222 H 315.914 4.38485 -0.250441 0
M  V30 3223 H 316.52 3.83871 -1.83094 0
M  V30 3224 N 314.835 0.952656 1.25548 0
M  V30 3225 C 316.063 0.623496 1.97282 0
M  V30 3226 C 316.478 -0.803987 1.70826 0
M  V30 3227 O 315.835 -1.53755 0.983147 0
M  V30 3228 C 315.886 0.870209 3.5087 0
M  V30 3229 O 315.607 2.24156 3.76412 0
M  V30 3230 C 317.108 0.553164 4.39835 0
M  V30 3231 H 314.328 0.233931 0.628902 0
M  V30 3232 H 316.872 1.27649 1.59768 0
M  V30 3233 H 315.027 0.263652 3.86502 0
M  V30 3234 H 315.441 2.31021 4.70882 0
M  V30 3235 H 316.915 0.776342 5.46513 0
M  V30 3236 H 317.392 -0.512215 4.36203 0
M  V30 3237 H 317.998 1.13896 4.09766 0
M  V30 3238 N 316.313 -1.40141 0.720998 0
M  V30 3239 C 317.276 -2.29058 0.0805834 0
M  V30 3240 C 318.276 -1.45632 -0.681758 0
M  V30 3241 O 319.466 -1.6648 -0.512856 0
M  V30 3242 C 316.598 -3.28925 -0.895593 0
M  V30 3243 H 317.791 -2.87191 0.863793 0
M  V30 3244 H 315.344 -1.48553 0.485975 0
M  V30 3245 H 316.079 -2.75822 -1.70566 0
M  V30 3246 H 315.864 -3.90519 -0.351766 0
M  V30 3247 H 317.354 -3.95494 -1.34069 0
M  V30 3248 N 317.792 -0.46758 -1.50504 0
M  V30 3249 C 319.02 0.0864133 -2.06719 0
M  V30 3250 C 319.435 1.33819 -1.33184 0
M  V30 3251 O 318.792 1.78061 -0.400083 0
M  V30 3252 C 318.843 0.378079 -3.59517 0
M  V30 3253 O 318.564 -0.824044 -4.3028 0
M  V30 3254 C 320.065 0.979426 -4.32345 0
M  V30 3255 H 317.285 -0.00551697 -0.670977 0
M  V30 3256 H 319.829 -0.655354 -1.93715 0
M  V30 3257 H 317.984 1.06977 -3.72337 0
M  V30 3258 H 318.398 -0.566518 -5.21432 0
M  V30 3259 H 319.872 1.1333 -5.40241 0
M  V30 3260 H 320.349 1.9686 -3.9261 0
M  V30 3261 H 320.955 0.326216 -4.24047 0
M  V30 3262 N 319.27 1.56325 -0.20005 0
M  V30 3263 C 320.518 1.97329 0.436547 0
M  V30 3264 C 320.839 1.08826 1.61808 0
M  V30 3265 O 320.109 0.160604 1.95241 0
M  V30 3266 H 318.689 0.728714 0.164272 0
M  V30 3267 H 321.351 1.92761 -0.287937 0
M  V30 3268 H 320.447 3.02264 0.777353 0
M  V30 3269 N 320.748 -0.0735177 1.57428 0
M  V30 3270 C 322.164 -0.428264 1.53747 0
M  V30 3271 C 322.364 -1.79272 0.91998 0
M  V30 3272 O 321.42 -2.47051 0.521745 0
M  V30 3273 C 322.733 -0.370914 2.98404 0
M  V30 3274 C 324.281 -0.451224 3.0973 0
M  V30 3275 C 324.756 -0.4238 4.56035 0
M  V30 3276 N 326.247 -0.483925 4.60665 0
M  V30 3277 C 326.982 -0.484891 5.71346 0
M  V30 3278 N 326.478 -0.440775 6.91396 0
M  V30 3279 N 328.271 -0.531319 5.59583 0
M  V30 3280 H 320.422 0.819949 1.95935 0
M  V30 3281 H 322.685 0.307493 0.896745 0
M  V30 3282 H 322.391 0.564956 3.47133 0
M  V30 3283 H 322.265 -1.18176 3.5821 0
M  V30 3284 H 324.652 -1.37752 2.60976 0
M  V30 3285 H 324.733 0.388167 2.52838 0
M  V30 3286 H 324.377 0.498638 5.05446 0
M  V30 3287 H 324.307 -1.2807 5.10789 0
M  V30 3288 H 326.798 -0.522338 3.74273 0
M  V30 3289 H 327.111 -0.44539 7.71515 0
M  V30 3290 H 325.456 -0.40749 6.93804 0
M  V30 3291 H 328.647 -0.563464 4.64696 0
M  V30 3292 H 328.82 -0.528603 6.4584 0
M  V30 3293 N 322.226 -1.5378 -0.344866 0
M  V30 3294 C 323.475 -1.7018 -1.08267 0
M  V30 3295 C 323.788 -0.471 -1.89845 0
M  V30 3296 O 324.994 -0.515917 -2.66553 0
M  V30 3297 C 323.45 -3.00923 -1.97417 0
M  V30 3298 C 323.058 -4.31335 -1.21053 0
M  V30 3299 C 324.802 -3.26688 -2.71063 0
M  V30 3300 C 322.709 -5.53153 -2.09225 0
M  V30 3301 H 321.639 -0.634138 -0.407903 0
M  V30 3302 H 324.29 -1.8028 -0.342246 0
M  V30 3303 H 322.672 -2.84676 -2.75274 0
M  V30 3304 H 323.846 -4.58281 -0.481159 0
M  V30 3305 H 322.161 -4.12173 -0.591813 0
M  V30 3306 H 324.758 -4.1489 -3.37299 0
M  V30 3307 H 325.101 -2.43639 -3.37558 0
M  V30 3308 H 325.634 -3.43705 -2.0028 0
M  V30 3309 H 322.373 -6.38741 -1.47274 0
M  V30 3310 H 321.893 -5.30458 -2.79955 0
M  V30 3311 H 323.572 -5.88744 -2.68308 0
M  V30 3312 N 323.704 0.605807 -1.45491 0
M  V30 3313 C 324.951 1.36476 -1.49601 0
M  V30 3314 C 325.279 1.94007 -0.138452 0
M  V30 3315 O 324.534 1.75638 0.863114 0
M  V30 3316 C 324.833 2.53012 -2.52428 0
M  V30 3317 C 324.499 2.13617 -3.97087 0
M  V30 3318 C 323.161 2.02587 -4.36477 0
M  V30 3319 C 325.513 1.82899 -4.88055 0
M  V30 3320 C 322.841 1.59064 -5.64726 0
M  V30 3321 C 325.193 1.40861 -6.16718 0
M  V30 3322 C 323.857 1.28391 -6.55036 0
M  V30 3323 H 323.127 0.499402 -0.547429 0
M  V30 3324 H 325.774 0.684546 -1.78847 0
M  V30 3325 H 324.079 3.26379 -2.16758 0
M  V30 3326 H 325.776 3.1124 -2.52845 0
M  V30 3327 H 322.366 2.23129 -3.65939 0
M  V30 3328 H 326.55 1.90317 -4.58359 0
M  V30 3329 H 321.806 1.48034 -5.93208 0
M  V30 3330 H 325.98 1.16138 -6.86648 0
M  V30 3331 H 323.607 0.944403 -7.54311 0
M  V30 3332 N 325.182 1.32811 0.848464 0
M  V30 3333 C 326.429 1.23724 1.60308 0
M  V30 3334 C 326.757 -0.1994 1.93475 0
M  V30 3335 O 326.012 -1.15406 1.5805 0
M  V30 3336 C 326.311 2.04831 2.92881 0
M  V30 3337 C 325.977 3.54125 2.79117 0
M  V30 3338 C 324.639 3.94829 2.7507 0
M  V30 3339 C 326.991 4.49036 2.64606 0
M  V30 3340 C 324.319 5.28675 2.544 0
M  V30 3341 C 326.671 5.83033 2.4547 0
M  V30 3342 C 325.335 6.22931 2.39819 0
M  V30 3343 H 324.605 0.452737 0.586609 0
M  V30 3344 H 327.252 1.64301 0.983743 0
M  V30 3345 H 325.557 1.57001 3.58968 0
M  V30 3346 H 327.254 1.95164 3.50303 0
M  V30 3347 H 323.844 3.21801 2.83094 0
M  V30 3348 H 328.028 4.18505 2.66772 0
M  V30 3349 H 323.284 5.58637 2.48465 0
M  V30 3350 H 327.458 6.56186 2.33222 0
M  V30 3351 H 325.085 7.26584 2.23562 0
M  V30 3352 N 326.66 -1.06551 1.16123 0
M  V30 3353 C 327.885 -1.83544 0.965735 0
M  V30 3354 C 328.31 -1.81843 -0.481102 0
M  V30 3355 O 327.668 -1.21732 -1.34354 0
M  V30 3356 C 327.716 -3.28169 1.49457 0
M  V30 3357 O 326.82 -4.0643 0.699157 0
M  V30 3358 H 326.161 -0.568026 0.343864 0
M  V30 3359 H 328.691 -1.34362 1.54299 0
M  V30 3360 H 328.701 -3.78992 1.51092 0
M  V30 3361 H 327.376 -3.28722 2.54784 0
M  V30 3362 H 325.953 -3.65216 0.7531 0
M  V30 3363 N 328.138 -0.959301 -1.25041 0
M  V30 3364 C 329.366 -0.633949 -1.96948 0
M  V30 3365 C 329.781 0.794916 -1.7125 0
M  V30 3366 O 329.138 1.53231 -0.991287 0
M  V30 3367 C 329.189 -0.888805 -3.50403 0
M  V30 3368 O 328.91 -2.26149 -3.75218 0
M  V30 3369 C 330.411 -0.576482 -4.39536 0
M  V30 3370 H 327.631 -0.237263 -0.627652 0
M  V30 3371 H 330.175 -1.28495 -1.59089 0
M  V30 3372 H 328.33 -0.284145 -3.86357 0
M  V30 3373 H 328.744 -2.33514 -4.6965 0
M  V30 3374 H 330.218 -0.805314 -5.46094 0
M  V30 3375 H 330.695 0.489075 -4.36468 0
M  V30 3376 H 331.301 -1.16067 -4.09156 0
M  V30 3377 N 329.616 1.39756 -0.72842 0
M  V30 3378 C 330.546 2.33289 -0.0991354 0
M  V30 3379 C 331.527 1.53568 0.731489 0
M  V30 3380 O 332.712 1.81987 0.677807 0
M  V30 3381 C 329.842 3.3763 0.813834 0
M  V30 3382 C 328.796 4.2791 0.0878663 0
M  V30 3383 C 328.122 5.22894 1.11741 0
M  V30 3384 C 329.422 5.11314 -1.06563 0
M  V30 3385 H 331.116 2.86163 -0.880408 0
M  V30 3386 H 328.662 1.37591 -0.424819 0
M  V30 3387 H 330.615 4.0201 1.26355 0
M  V30 3388 H 329.339 2.83181 1.62715 0
M  V30 3389 H 327.998 3.65 -0.342159 0
M  V30 3390 H 327.646 4.64744 1.92412 0
M  V30 3391 H 327.346 5.84143 0.636477 0
M  V30 3392 H 328.87 5.90151 1.56697 0
M  V30 3393 H 330.284 5.69076 -0.694671 0
M  V30 3394 H 328.681 5.81671 -1.47577 0
M  V30 3395 H 329.751 4.46534 -1.89038 0
M  V30 3396 N 331.094 0.475555 1.50254 0
M  V30 3397 C 332.51 0.12997 1.5907 0
M  V30 3398 C 332.71 -1.36385 1.48328 0
M  V30 3399 O 331.766 -2.13754 1.34407 0
M  V30 3400 C 333.079 0.684139 2.92814 0
M  V30 3401 C 334.627 0.647965 3.0622 0
M  V30 3402 C 335.102 1.17975 4.42545 0
M  V30 3403 N 336.593 1.13936 4.48969 0
M  V30 3404 C 337.328 1.52129 5.52851 0
M  V30 3405 N 336.824 1.97793 6.63965 0
M  V30 3406 N 338.617 1.43704 5.4342 0
M  V30 3407 H 330.768 1.44706 1.55479 0
M  V30 3408 H 333.031 0.598691 0.735033 0
M  V30 3409 H 332.737 1.73079 3.06164 0
M  V30 3410 H 332.611 0.130204 3.76975 0
M  V30 3411 H 334.998 -0.38979 2.92514 0
M  V30 3412 H 335.079 1.23876 2.23805 0
M  V30 3413 H 334.723 2.21616 4.57 0
M  V30 3414 H 334.653 0.565138 5.23559 0
M  V30 3415 H 337.144 0.804488 3.69238 0
M  V30 3416 H 337.457 2.25072 7.39299 0
M  V30 3417 H 335.802 2.01749 6.65073 0
M  V30 3418 H 338.993 1.07867 4.55502 0
M  V30 3419 H 339.166 1.73794 6.24259 0
M  V30 3420 N 332.573 -1.56217 0.208337 0
M  V30 3421 C 333.798 -2.02782 -0.435222 0
M  V30 3422 C 334.223 -1.08738 -1.53485 0
M  V30 3423 O 333.581 -0.0731855 -1.81152 0
M  V30 3424 C 333.629 -3.47687 -0.956335 0
M  V30 3425 O 332.733 -3.56773 -2.06849 0
M  V30 3426 H 332.074 -0.656403 -0.100158 0
M  V30 3427 H 334.604 -2.02033 0.3231 0
M  V30 3428 H 334.614 -3.87745 -1.26955 0
M  V30 3429 H 333.289 -4.15624 -0.15143 0
M  V30 3430 H 331.866 -3.28597 -1.76292 0
M  V30 3431 N 334.051 0.0651679 -1.57465 0
M  V30 3432 C 335.3 0.761916 -1.86756 0
M  V30 3433 C 335.613 1.78406 -0.801925 0
M  V30 3434 O 336.819 2.53084 -0.982885 0
M  V30 3435 C 335.275 1.40603 -3.31299 0
M  V30 3436 C 334.883 0.422115 -4.46007 0
M  V30 3437 C 336.627 2.08476 -3.69781 0
M  V30 3438 C 334.534 1.07252 -5.81593 0
M  V30 3439 H 333.464 0.288308 -0.696702 0
M  V30 3440 H 336.115 0.015344 -1.83494 0
M  V30 3441 H 334.497 2.20109 -3.29193 0
M  V30 3442 H 335.671 -0.343613 -4.59517 0
M  V30 3443 H 333.986 -0.152527 -4.16121 0
M  V30 3444 H 336.583 2.57925 -4.68379 0
M  V30 3445 H 336.926 2.88712 -2.99919 0
M  V30 3446 H 337.459 1.35792 -3.73905 0
M  V30 3447 H 334.198 0.310342 -6.54765 0
M  V30 3448 H 333.718 1.80895 -5.71872 0
M  V30 3449 H 335.397 1.59043 -6.27148 0
M  V30 3450 N 335.529 1.53961 0.336706 0
M  V30 3451 C 336.754 1.75797 1.10046 0
M  V30 3452 C 337.179 0.498985 1.81361 0
M  V30 3453 O 336.537 -0.548769 1.72795 0
M  V30 3454 C 336.585 2.94257 2.08436 0
M  V30 3455 O 335.689 2.64883 3.16087 0
M  V30 3456 H 335.03 0.582936 0.317934 0
M  V30 3457 H 337.56 2.00945 0.38501 0
M  V30 3458 H 337.57 3.21237 2.51537 0
M  V30 3459 H 336.245 3.85564 1.55927 0
M  V30 3460 H 334.822 2.48812 2.77753 0
M  V30 3461 N 337.007 -0.598083 1.45811 0
M  V30 3462 C 337.937 -1.71873 1.58057 0
M  V30 3463 C 338.918 -1.64533 0.431615 0
M  V30 3464 O 340.103 -1.82787 0.65595 0
M  V30 3465 C 337.233 -3.10495 1.55597 0
M  V30 3466 C 336.187 -3.32654 2.69305 0
M  V30 3467 C 335.513 -4.71646 2.51902 0
M  V30 3468 C 336.813 -3.21981 4.11248 0
M  V30 3469 H 338.507 -1.61881 2.51863 0
M  V30 3470 H 336.053 -0.777372 1.21214 0
M  V30 3471 H 338.006 -3.88699 1.6276 0
M  V30 3472 H 336.73 -3.2135 0.583255 0
M  V30 3473 H 335.389 -2.56843 2.61586 0
M  V30 3474 H 335.037 -4.79246 1.52748 0
M  V30 3475 H 334.737 -4.87426 3.2816 0
M  V30 3476 H 336.261 -5.52038 2.60933 0
M  V30 3477 H 337.675 -3.90049 4.20161 0
M  V30 3478 H 336.072 -3.49289 4.87972 0
M  V30 3479 H 337.142 -2.1928 4.32486 0
M  V30 3480 N 338.485 -1.33259 -0.841409 0
M  V30 3481 C 339.762 -1.15174 -1.58096 0
M  V30 3482 C 340.142 0.282858 -2.09196 0
M  V30 3483 O 339.49 1.28151 -1.89181 0
M  V30 3484 C 339.7 -2.1907 -2.71679 0
M  V30 3485 C 341.048 -2.53093 -3.40924 0
M  V30 3486 O 342.072 -2.17717 -2.81918 0
M  V30 3487 O 340.931 -3.1379 -4.47435 0
M  V30 3488 H 338.025 -0.445303 -0.696875 0
M  V30 3489 H 340.571 -1.44833 -0.884385 0
M  V30 3490 H 339.343 -3.15443 -2.31541 0
M  V30 3491 H 338.966 -1.90481 -3.49002 0
M  V30 3492 N 339.963 1.05934 -1.16686 0
M  V30 3493 C 341.24 1.75643 -0.860747 0
M  V30 3494 C 341.62 2.01144 0.640641 0
M  V30 3495 O 340.968 1.64147 1.58959 0
M  V30 3496 C 341.178 3.05493 -1.68745 0
M  V30 3497 C 342.526 3.79581 -1.90271 0
M  V30 3498 O 343.55 3.15344 -1.65641 0
M  V30 3499 O 342.409 4.9499 -2.31618 0
M  V30 3500 H 339.503 0.763426 -0.317977 0
M  V30 3501 H 342.049 1.1217 -1.27342 0
M  V30 3502 H 340.821 2.8264 -2.70611 0
M  V30 3503 H 340.444 3.76702 -1.27206 0
M  V30 3504 N 341.441 0.965919 1.2453 0
M  V30 3505 C 342.669 0.644385 1.96609 0
M  V30 3506 C 343.084 -0.785823 1.71669 0
M  V30 3507 O 342.441 -1.52703 0.999399 0
M  V30 3508 C 342.492 0.907375 3.49927 0
M  V30 3509 O 342.213 2.28136 3.74013 0
M  V30 3510 C 343.714 0.599784 4.39224 0
M  V30 3511 H 340.934 0.240588 0.626385 0
M  V30 3512 H 343.478 1.29337 1.58405 0
M  V30 3513 H 341.633 0.304631 3.862 0
M  V30 3514 H 342.047 2.36002 4.68405 0
M  V30 3515 H 343.521 0.834263 5.45659 0
M  V30 3516 H 343.998 -0.465921 4.36722 0
M  V30 3517 H 344.604 1.18235 4.08535 0
M  V30 3518 N 342.919 -1.39368 0.735821 0
M  V30 3519 C 343.851 -2.2913 0.0567723 0
M  V30 3520 C 344.864 -1.46859 -0.702589 0
M  V30 3521 O 346.053 -1.69925 -0.546616 0
M  V30 3522 C 343.153 -3.25492 -0.943823 0
M  V30 3523 C 342.326 -4.36709 -0.24581 0
M  V30 3524 C 341.385 -5.13376 -1.15463 0
M  V30 3525 O 340.411 -5.65683 -0.631803 0
M  V30 3526 N 341.613 -5.24656 -2.48427 0
M  V30 3527 H 344.378 -2.88047 0.827582 0
M  V30 3528 H 341.939 -1.50957 0.585112 0
M  V30 3529 H 343.931 -3.73657 -1.55443 0
M  V30 3530 H 342.501 -2.676 -1.61583 0
M  V30 3531 H 341.721 -3.9041 0.545286 0
M  V30 3532 H 343.009 -5.08244 0.237891 0
M  V30 3533 H 342.407 -4.83679 -2.93379 0
M  V30 3534 H 340.964 -5.76258 -3.04582 0
M  V30 3535 N 344.397 -0.483516 -1.5 0
M  V30 3536 C 345.345 0.318061 -2.30415 0
M  V30 3537 C 346.339 0.978988 -1.38247 0
M  V30 3538 O 347.545 0.908673 -1.55381 0
M  V30 3539 H 343.92 0.121419 -0.742133 0
M  V30 3540 H 345.891 -0.380403 -2.95965 0
M  V30 3541 C 344.64 1.38013 -3.19136 0
M  V30 3542 H 343.963 0.880952 -3.89973 0
M  V30 3543 H 345.403 1.91332 -3.78375 0
M  V30 3544 C 343.862 2.38884 -2.37563 0
M  V30 3545 O 344.392 3.44412 -2.06744 0
M  V30 3546 N 342.598 2.10912 -1.99911 0
M  V30 3547 H 342.145 1.25118 -2.25174 0
M  V30 3548 H 342.103 2.78635 -1.45636 0
M  V30 3549 N 345.875 1.56104 -0.216619 0
M  V30 3550 C 347.291 1.58995 0.13886 0
M  V30 3551 C 347.491 1.23333 1.59346 0
M  V30 3552 O 346.547 0.966234 2.33281 0
M  V30 3553 C 347.86 3.00143 -0.182968 0
M  V30 3554 C 349.408 3.12751 -0.124807 0
M  V30 3555 C 349.883 4.56068 -0.420241 0
M  V30 3556 N 351.374 4.61723 -0.369634 0
M  V30 3557 C 352.109 5.70542 -0.571789 0
M  V30 3558 N 351.605 6.87744 -0.835453 0
M  V30 3559 N 353.398 5.59831 -0.504563 0
M  V30 3560 H 345.549 1.77562 -1.16557 0
M  V30 3561 H 347.812 0.825091 -0.466828 0
M  V30 3562 H 347.518 3.30871 -1.19237 0
M  V30 3563 H 347.392 3.73813 0.504367 0
M  V30 3564 H 349.779 2.81822 0.875223 0
M  V30 3565 H 349.86 2.41421 -0.845544 0
M  V30 3566 H 349.504 4.87713 -1.41769 0
M  V30 3567 H 349.434 5.25617 0.321631 0
M  V30 3568 H 351.925 3.77502 -0.173338 0
M  V30 3569 H 352.238 7.66587 -0.977938 0
M  V30 3570 H 350.583 6.895 -0.872592 0
M  V30 3571 H 353.774 4.67145 -0.298842 0
M  V30 3572 H 353.947 6.44573 -0.665519 0
M  V30 3573 N 347.353 -0.0568162 1.57498 0
M  V30 3574 C 348.3 -1.06591 2.04712 0
M  V30 3575 C 349.27 -1.3758 0.930644 0
M  V30 3576 O 350.455 -1.48392 1.19935 0
M  V30 3577 C 347.595 -2.3701 2.50839 0
M  V30 3578 C 346.708 -2.12421 3.76167 0
M  V30 3579 C 345.843 -3.36511 4.11015 0
M  V30 3580 C 344.882 -3.07353 5.2934 0
M  V30 3581 N 344.019 -4.23816 5.59754 0
M  V30 3582 H 348.859 -0.65631 2.90683 0
M  V30 3583 H 346.396 -0.312481 1.43743 0
M  V30 3584 H 348.354 -3.13175 2.7564 0
M  V30 3585 H 346.984 -2.75744 1.67825 0
M  V30 3586 H 346.036 -1.2688 3.58616 0
M  V30 3587 H 347.348 -1.86894 4.62463 0
M  V30 3588 H 346.502 -4.21062 4.36797 0
M  V30 3589 H 345.241 -3.65128 3.23315 0
M  V30 3590 H 344.246 -2.212 5.03339 0
M  V30 3591 H 345.471 -2.80043 6.1867 0
M  V30 3592 H 343.417 -4.52436 4.75014 0
M  V30 3593 H 343.334 -4.01614 6.40501 0
M  V30 3594 H 344.602 -5.0932 5.90096 0
M  V30 3595 N 348.832 -1.54138 -0.328536 0
M  V30 3596 C 350.057 -1.76378 -1.09112 0
M  V30 3597 C 350.482 -0.508596 -1.81094 0
M  V30 3598 O 349.84 0.539598 -1.73084 0
M  V30 3599 C 349.888 -2.95358 -2.06872 0
M  V30 3600 O 348.992 -2.66556 -3.14677 0
M  V30 3601 H 348.333 -0.584614 -0.314838 0
M  V30 3602 H 350.863 -2.01146 -0.374348 0
M  V30 3603 H 350.873 -3.22566 -2.4983 0
M  V30 3604 H 349.548 -3.86385 -1.5388 0
M  V30 3605 H 348.125 -2.50282 -2.7643 0
M  V30 3606 N 350.31 0.590341 -1.46126 0
M  V30 3607 C 351.55 1.35995 -1.52593 0
M  V30 3608 C 351.914 1.91243 -0.170368 0
M  V30 3609 O 353.115 2.68576 -0.109775 0
M  V30 3610 C 351.386 2.46465 -2.58823 0
M  V30 3611 S 352.945 3.33953 -2.84641 0
M  V30 3612 H 349.763 0.463425 -0.53922 0
M  V30 3613 H 352.365 0.67944 -1.83314 0
M  V30 3614 H 351.069 2.04256 -3.5596 0
M  V30 3615 H 350.6 3.19297 -2.2981 0
M  V30 3616 H 352.615 4.45094 -2.19331 0
M  V30 3617 N 351.788 1.33704 0.83433 0
M  V30 3618 C 353.013 1.28615 1.62705 0
M  V30 3619 C 353.438 -0.139242 1.87584 0
M  V30 3620 O 352.796 -1.09734 1.4432 0
M  V30 3621 C 352.844 2.07139 2.95171 0
M  V30 3622 O 351.948 1.4331 3.86699 0
M  V30 3623 H 351.289 0.44226 0.49528 0
M  V30 3624 H 353.819 1.76335 1.03766 0
M  V30 3625 H 353.829 2.18073 3.44831 0
M  V30 3626 H 352.504 3.10779 2.76386 0
M  V30 3627 H 351.081 1.4105 3.45195 0
M  V30 3628 N 353.266 -1.05314 1.17247 0
M  V30 3629 C 354.512 -1.78557 0.961513 0
M  V30 3630 C 354.845 -1.87419 -0.508697 0
M  V30 3631 O 354.12 -1.37307 -1.37757 0
M  V30 3632 C 354.403 -3.22514 1.60176 0
M  V30 3633 C 354.256 -3.21673 3.14399 0
M  V30 3634 C 355.575 -4.20318 1.30463 0
M  V30 3635 H 352.694 -0.6482 0.350723 0
M  V30 3636 H 355.336 -1.23102 1.44727 0
M  V30 3637 H 353.486 -3.69867 1.18871 0
M  V30 3638 H 355.158 -2.82405 3.64753 0
M  V30 3639 H 353.401 -2.60048 3.47214 0
M  V30 3640 H 354.072 -4.23271 3.54324 0
M  V30 3641 H 356.548 -3.81454 1.66229 0
M  V30 3642 H 355.424 -5.19289 1.77848 0
M  V30 3643 H 355.685 -4.41526 0.22521 0
M  V30 3644 N 354.744 -0.972509 -1.24016 0
M  V30 3645 C 355.969 -0.654417 -1.96805 0
M  V30 3646 C 356.394 0.770398 -1.716 0
M  V30 3647 O 355.752 1.52361 -0.982647 0
M  V30 3648 C 355.8 -0.941031 -3.48105 0
M  V30 3649 O 354.904 -0.0289472 -4.1239 0
M  V30 3650 H 354.245 -0.24692 -0.616382 0
M  V30 3651 H 356.775 -1.30396 -1.57664 0
M  V30 3652 H 356.785 -0.87452 -3.98517 0
M  V30 3653 H 355.46 -1.97939 -3.65777 0
M  V30 3654 H 354.037 -0.149192 -3.72601 0
M  V30 3655 N 356.222 1.38976 -0.743202 0
M  V30 3656 C 357.185 2.28901 -0.117014 0
M  V30 3657 C 358.185 1.46698 0.658503 0
M  V30 3658 O 359.375 1.67274 0.486305 0
M  V30 3659 C 356.507 3.30309 0.84315 0
M  V30 3660 H 357.7 2.8578 -0.909373 0
M  V30 3661 H 355.253 1.47761 -0.509547 0
M  V30 3662 H 355.988 2.785 1.66157 0
M  V30 3663 H 355.773 3.91029 0.289594 0
M  V30 3664 H 357.263 3.97577 1.2776 0
M  V30 3665 N 357.7 0.491464 1.49741 0
M  V30 3666 C 358.928 -0.0535151 2.06831 0
M  V30 3667 C 359.343 -1.31683 1.35296 0
M  V30 3668 O 358.7 -1.77402 0.42836 0
M  V30 3669 C 358.751 -0.320835 3.60073 0
M  V30 3670 O 358.472 0.892394 4.28915 0
M  V30 3671 C 359.973 -0.910519 4.33848 0
M  V30 3672 H 357.193 0.0161909 0.670805 0
M  V30 3673 H 359.737 0.68609 1.92647 0
M  V30 3674 H 357.892 -1.0104 3.73991 0
M  V30 3675 H 358.306 0.649401 5.20464 0
M  V30 3676 H 359.78 -1.04721 5.41976 0
M  V30 3677 H 360.257 -1.90589 3.95692 0
M  V30 3678 H 360.863 -0.258712 4.24512 0
M  V30 3679 N 359.178 -1.55987 0.224894 0
M  V30 3680 C 360.589 -1.84553 -0.282345 0
M  V30 3681 C 360.94 -1.14634 -1.59227 0
M  V30 3682 O 360.065 -0.417155 -2.12341 0
M  V30 3683 C 360.66 -3.348 -0.519062 0
M  V30 3684 C 359.219 -3.63671 -0.970604 0
M  V30 3685 C 358.366 -2.77277 -0.0355261 0
M  V30 3686 H 361.317 -1.52245 0.448006 0
M  V30 3687 H 361.338 -3.55187 -1.36463 0
M  V30 3688 H 360.85 -3.8566 0.43449 0
M  V30 3689 H 358.951 -3.1827 -1.9374 0
M  V30 3690 H 359.064 -4.71631 -0.842698 0
M  V30 3691 H 357.428 -2.48846 -0.542927 0
M  V30 3692 H 358.211 -3.30937 0.913003 0
M  V30 3693 N 360.656 0.0484629 -1.57525 0
M  V30 3694 C 361.586 1.0549 -2.08313 0
M  V30 3695 C 362.567 1.38929 -0.981463 0
M  V30 3696 O 363.752 1.48151 -1.25558 0
M  V30 3697 C 360.882 2.36162 -2.54646 0
M  V30 3698 C 359.836 2.17016 -3.68901 0
M  V30 3699 C 359.162 3.53278 -4.01371 0
M  V30 3700 C 360.462 1.57219 -4.98076 0
M  V30 3701 H 362.156 0.632195 -2.92649 0
M  V30 3702 H 359.702 0.302654 -1.40784 0
M  V30 3703 H 361.655 3.06882 -2.88793 0
M  V30 3704 H 360.379 2.80456 -1.67368 0
M  V30 3705 H 359.038 1.48733 -3.35073 0
M  V30 3706 H 358.686 3.95185 -3.11188 0
M  V30 3707 H 358.386 3.41299 -4.78318 0
M  V30 3708 H 359.91 4.25391 -4.38035 0
M  V30 3709 H 361.324 2.17832 -5.30304 0
M  V30 3710 H 359.721 1.55871 -5.79503 0
M  V30 3711 H 360.791 0.535956 -4.81929 0
M  V30 3712 N 362.134 1.5431 0.320358 0
M  V30 3713 C 363.382 1.72327 1.05583 0
M  V30 3714 C 363.703 0.50149 1.88441 0
M  V30 3715 O 362.973 -0.48448 1.89815 0
M  V30 3716 H 361.553 0.635387 0.3928 0
M  V30 3717 H 364.215 1.91621 0.356019 0
M  V30 3718 H 363.311 2.60426 1.72003 0
M  V30 3719 N 363.613 -0.582584 1.46437 0
M  V30 3720 C 364.853 -1.35184 1.53312 0
M  V30 3721 C 365.217 -1.9115 0.180508 0
M  V30 3722 O 366.418 -2.68514 0.124017 0
M  V30 3723 C 364.689 -2.45089 2.60127 0
M  V30 3724 S 366.248 -3.32439 2.86408 0
M  V30 3725 H 363.066 -0.460559 0.54167 0
M  V30 3726 H 365.668 -0.669709 1.83671 0
M  V30 3727 H 364.372 -2.02366 3.57038 0
M  V30 3728 H 363.903 -3.18074 2.315 0
M  V30 3729 H 365.918 -4.43924 2.21688 0
M  V30 3730 N 365.091 -1.34144 -0.827227 0
M  V30 3731 C 366.368 -1.16844 -1.56865 0
M  V30 3732 C 366.748 0.260654 -2.09485 0
M  V30 3733 O 366.096 1.26138 -1.9053 0
M  V30 3734 C 366.306 -2.21939 -2.6934 0
M  V30 3735 C 367.654 -2.56695 -3.3822 0
M  V30 3736 O 368.678 -2.20695 -2.79593 0
M  V30 3737 O 367.537 -3.18518 -4.44082 0
M  V30 3738 H 364.631 -0.452669 -0.692112 0
M  V30 3739 H 367.177 -1.45763 -0.868973 0
M  V30 3740 H 365.949 -3.17882 -2.28182 0
M  V30 3741 H 365.572 -1.94172 -3.46962 0
M  V30 3742 N 366.569 1.04691 -1.17803 0
M  V30 3743 C 367.502 2.12068 -0.842765 0
M  V30 3744 C 368.48 1.61455 0.192608 0
M  V30 3745 O 369.664 1.88359 0.072995 0
M  V30 3746 C 366.791 3.37715 -0.258063 0
M  V30 3747 C 365.837 4.07164 -1.26962 0
M  V30 3748 S 366.67 4.55047 -2.82299 0
M  V30 3749 C 367.826 5.83935 -2.25323 0
M  V30 3750 H 368.059 2.4018 -1.75217 0
M  V30 3751 H 365.592 1.17366 -1.00323 0
M  V30 3752 H 367.55 4.10435 0.0727935 0
M  V30 3753 H 366.211 3.0773 0.629357 0
M  V30 3754 H 365.404 4.9746 -0.809263 0
M  V30 3755 H 365.006 3.40533 -1.54639 0
M  V30 3756 H 367.298 6.57552 -1.63192 0
M  V30 3757 H 368.241 6.34725 -3.13894 0
M  V30 3758 H 368.649 5.3874 -1.68582 0
M  V30 3759 N 368.047 0.979072 1.23499 0
M  V30 3760 C 368.977 0.537606 2.27227 0
M  V30 3761 C 369.958 -0.428539 1.64613 0
M  V30 3762 O 371.143 -0.322191 1.91509 0
M  V30 3763 C 368.273 -0.162052 3.46922 0
M  V30 3764 C 367.227 0.721242 4.21879 0
M  V30 3765 C 366.553 -0.110555 5.34586 0
M  V30 3766 C 367.853 2.01141 4.82016 0
M  V30 3767 H 369.547 1.40462 2.64406 0
M  V30 3768 H 367.093 0.67684 1.27102 0
M  V30 3769 H 369.046 -0.482192 4.18632 0
M  V30 3770 H 367.77 -1.06351 3.08799 0
M  V30 3771 H 366.429 1.02482 3.51984 0
M  V30 3772 H 366.077 -1.0125 4.92704 0
M  V30 3773 H 365.777 0.477325 5.85658 0
M  V30 3774 H 367.301 -0.425107 6.09118 0
M  V30 3775 H 368.715 1.75612 5.45741 0
M  V30 3776 H 367.112 2.54695 5.43369 0
M  V30 3777 H 368.182 2.69909 4.02836 0
M  V30 3778 N 369.525 -1.3858 0.750561 0
M  V30 3779 C 370.765 -2.02032 0.310258 0
M  V30 3780 C 371.129 -1.58288 -1.08668 0
M  V30 3781 O 372.33 -2.14049 -1.62593 0
M  V30 3782 C 370.601 -3.54856 0.425647 0
M  V30 3783 S 372.16 -4.38748 0.0674797 0
M  V30 3784 H 368.978 -0.700705 0.120554 0
M  V30 3785 H 371.58 -1.69134 0.980512 0
M  V30 3786 H 370.284 -3.84182 1.44335 0
M  V30 3787 H 369.815 -3.92527 -0.261894 0
M  V30 3788 H 371.83 -4.82835 -1.14388 0
M  V30 3789 N 371.003 -0.499398 -1.49478 0
M  V30 3790 C 372.228 0.044722 -2.07352 0
M  V30 3791 C 372.653 1.30207 -1.35749 0
M  V30 3792 O 372.011 1.76516 -0.413732 0
M  V30 3793 C 372.059 0.283013 -3.59488 0
M  V30 3794 O 371.163 1.35804 -3.89398 0
M  V30 3795 H 370.504 -0.0255147 -0.66351 0
M  V30 3796 H 373.034 -0.698561 -1.92305 0
M  V30 3797 H 373.044 0.515007 -4.04737 0
M  V30 3798 H 371.719 -0.635636 -4.11014 0
M  V30 3799 H 370.296 1.11113 -3.55961 0
M  V30 3800 N 372.481 1.55866 -0.233164 0
M  V30 3801 C 373.428 2.20796 0.67215 0
M  V30 3802 C 374.398 1.16731 1.18166 0
M  V30 3803 O 375.583 1.45129 1.23864 0
M  V30 3804 C 372.723 2.90072 1.86955 0
M  V30 3805 C 371.836 4.08759 1.39786 0
M  V30 3806 C 370.971 4.65787 2.55374 0
M  V30 3807 C 370.01 5.76752 2.04998 0
M  V30 3808 N 369.147 6.28021 3.13901 0
M  V30 3809 H 373.987 2.9779 0.111749 0
M  V30 3810 H 371.524 1.47036 0.0434007 0
M  V30 3811 H 373.482 3.28428 2.57276 0
M  V30 3812 H 372.112 2.15575 2.40265 0
M  V30 3813 H 371.164 3.7581 0.589173 0
M  V30 3814 H 372.476 4.88906 0.98856 0
M  V30 3815 H 371.63 5.06646 3.33758 0
M  V30 3816 H 370.369 3.84828 2.99598 0
M  V30 3817 H 369.374 5.35383 1.25079 0
M  V30 3818 H 370.599 6.59553 1.61759 0
M  V30 3819 H 368.545 5.49971 3.57586 0
M  V30 3820 H 368.462 7.03323 2.7726 0
M  V30 3821 H 369.73 6.73538 3.92386 0
M  V30 3822 N 373.959 -0.0401083 1.57549 0
M  V30 3823 C 375.205 -0.734211 1.89043 0
M  V30 3824 C 375.538 -1.75591 0.829535 0
M  V30 3825 O 374.813 -1.93868 -0.156706 0
M  V30 3826 C 375.096 -1.41374 3.31188 0
M  V30 3827 C 374.949 -0.406299 4.47961 0
M  V30 3828 C 376.268 -2.35061 3.72068 0
M  V30 3829 H 373.387 -0.265447 0.687537 0
M  V30 3830 H 376.029 0.00294087 1.9 0
M  V30 3831 H 374.179 -2.04206 3.30503 0
M  V30 3832 H 375.851 0.219255 4.60779 0
M  V30 3833 H 374.094 0.275485 4.32924 0
M  V30 3834 H 374.765 -0.920022 5.44279 0
M  V30 3835 H 377.241 -1.82282 3.74049 0
M  V30 3836 H 376.117 -2.79593 4.72355 0
M  V30 3837 H 376.378 -3.21258 3.0372 0
M  V30 3838 N 375.437 -1.54477 -0.31217 0
M  V30 3839 C 376.665 -1.77205 -1.068 0
M  V30 3840 C 377.08 -0.526114 -1.81321 0
M  V30 3841 O 376.437 0.503647 -1.75413 0
M  V30 3842 C 376.488 -2.97253 -2.05725 0
M  V30 3843 O 376.209 -4.1703 -1.34228 0
M  V30 3844 C 377.71 -3.32281 -2.93435 0
M  V30 3845 H 374.93 -0.591287 -0.317208 0
M  V30 3846 H 377.474 -2.01398 -0.354834 0
M  V30 3847 H 375.629 -2.753 -2.72559 0
M  V30 3848 H 376.043 -4.84636 -2.00571 0
M  V30 3849 H 377.517 -4.19551 -3.58721 0
M  V30 3850 H 377.994 -2.49945 -3.61143 0
M  V30 3851 H 378.6 -3.56353 -2.32147 0
M  V30 3852 N 376.915 0.57481 -1.46744 0
M  V30 3853 C 377.825 1.711 -1.60505 0
M  V30 3854 C 378.841 1.67008 -0.488307 0
M  V30 3855 O 380.017 1.86774 -0.753495 0
M  V30 3856 C 377.082 3.07608 -1.59932 0
M  V30 3857 C 376.143 3.22904 -2.82898 0
M  V30 3858 C 375.376 4.529 -2.82343 0
M  V30 3859 O 375.599 5.37278 -1.91542 0
M  V30 3860 O 374.533 4.71611 -3.73987 0
M  V30 3861 H 378.359 1.62436 -2.56609 0
M  V30 3862 H 375.944 0.742779 -1.29627 0
M  V30 3863 H 377.826 3.88877 -1.62336 0
M  V30 3864 H 376.501 3.16692 -0.669898 0
M  V30 3865 H 375.408 2.41099 -2.86046 0
M  V30 3866 H 376.741 3.18715 -3.75076 0
M  V30 3867 N 378.394 1.34581 0.820102 0
M  V30 3868 C 379.622 1.3018 1.60813 0
M  V30 3869 C 380.037 -0.123551 1.88395 0
M  V30 3870 O 379.394 -1.07148 1.47735 0
M  V30 3871 C 379.445 2.09312 2.94739 0
M  V30 3872 O 379.166 3.46288 2.68358 0
M  V30 3873 C 380.667 2.1234 3.89136 0
M  V30 3874 H 377.887 0.447726 0.499782 0
M  V30 3875 H 380.431 1.77237 1.02017 0
M  V30 3876 H 378.586 1.65889 3.50085 0
M  V30 3877 H 379 3.87227 3.53774 0
M  V30 3878 H 380.474 2.72126 4.80262 0
M  V30 3879 H 380.951 1.11854 4.24718 0
M  V30 3880 H 381.557 2.55864 3.39726 0
M  V30 3881 N 379.872 -1.04064 1.18357 0
M  V30 3882 C 380.782 -2.15569 0.925596 0
M  V30 3883 C 381.798 -1.7365 -0.110295 0
M  V30 3884 O 382.974 -2.01273 0.0716218 0
M  V30 3885 C 380.039 -3.43704 0.454836 0
M  V30 3886 C 379.1 -4.00004 1.55869 0
M  V30 3887 C 378.333 -5.22023 1.1103 0
M  V30 3888 O 378.556 -5.70392 -0.0309756 0
M  V30 3889 O 377.49 -5.70856 1.90805 0
M  V30 3890 H 381.316 -2.40187 1.8586 0
M  V30 3891 H 378.901 -1.1402 0.965394 0
M  V30 3892 H 380.783 -4.20923 0.200382 0
M  V30 3893 H 379.458 -3.20559 -0.449876 0
M  V30 3894 H 378.365 -3.24172 1.86716 0
M  V30 3895 H 379.698 -4.2749 2.43953 0
M  V30 3896 N 381.35 -0.985608 -1.22978 0
M  V30 3897 C 382.26 -0.538548 -2.28335 0
M  V30 3898 C 383.276 0.409163 -1.69121 0
M  V30 3899 O 384.452 0.277797 -1.99475 0
M  V30 3900 C 381.517 0.146867 -3.46389 0
M  V30 3901 C 380.578 -0.842896 -4.20944 0
M  V30 3902 C 379.811 -0.190095 -5.33361 0
M  V30 3903 O 380.034 1.01767 -5.61248 0
M  V30 3904 O 378.968 -0.891289 -5.95264 0
M  V30 3905 H 382.794 -1.41487 -2.68729 0
M  V30 3906 H 380.379 -0.753495 -1.29007 0
M  V30 3907 H 382.261 0.531125 -4.1804 0
M  V30 3908 H 380.936 0.997871 -3.07935 0
M  V30 3909 H 379.843 -1.27795 -3.51595 0
M  V30 3910 H 381.176 -1.66287 -4.6326 0
M  V30 3911 N 382.828 1.3818 -0.7579 0
M  V30 3912 C 383.738 2.3421 -0.135247 0
M  V30 3913 C 384.754 1.59487 0.695683 0
M  V30 3914 O 385.93 1.91657 0.618832 0
M  V30 3915 C 382.995 3.3862 0.744139 0
M  V30 3916 C 382.056 4.2918 -0.101658 0
M  V30 3917 C 381.289 5.28603 0.735851 0
M  V30 3918 O 381.512 5.35166 1.97366 0
M  V30 3919 O 380.446 6.01707 0.152372 0
M  V30 3920 H 384.272 2.8916 -0.928436 0
M  V30 3921 H 381.857 1.40101 -0.518855 0
M  V30 3922 H 383.739 4.02539 1.2466 0
M  V30 3923 H 382.414 2.86019 1.51575 0
M  V30 3924 H 381.321 3.68407 -0.650167 0
M  V30 3925 H 382.654 4.85048 -0.836024 0
M  V30 3926 N 384.306 0.507319 1.49211 0
M  V30 3927 C 385.583 -0.0982702 1.95353 0
M  V30 3928 C 385.963 -1.53516 1.449 0
M  V30 3929 O 385.311 -2.18594 0.66551 0
M  V30 3930 C 385.521 -0.00440283 3.49 0
M  V30 3931 C 386.869 -0.175147 4.24239 0
M  V30 3932 O 387.893 -0.0792891 3.56112 0
M  V30 3933 O 386.752 -0.37276 5.45227 0
M  V30 3934 H 383.846 -0.0918236 0.821887 0
M  V30 3935 H 386.392 0.570307 1.5983 0
M  V30 3936 H 385.164 0.997402 3.78375 0
M  V30 3937 H 384.787 -0.712845 3.91158 0
M  V30 3938 N 385.784 -1.5574 0.241426 0
M  V30 3939 C 387.014 -2.02913 -0.38857 0
M  V30 3940 C 387.422 -1.12014 -1.52478 0
M  V30 3941 O 386.765 -0.125903 -1.83268 0
M  V30 3942 C 386.827 -3.4636 -0.963075 0
M  V30 3943 C 386.491 -4.56982 0.0401916 0
M  V30 3944 C 387.488 -5.12941 0.847766 0
M  V30 3945 C 385.173 -5.0203 0.164699 0
M  V30 3946 C 387.167 -6.12437 1.76636 0
M  V30 3947 C 384.854 -6.01358 1.0868 0
M  V30 3948 C 385.852 -6.5644 1.88616 0
M  V30 3949 O 385.54 -7.53831 2.79273 0
M  V30 3950 H 385.272 -0.668983 -0.0971452 0
M  V30 3951 H 387.826 -2.02198 0.361248 0
M  V30 3952 H 386.056 -3.44206 -1.76235 0
M  V30 3953 H 387.745 -3.77065 -1.50257 0
M  V30 3954 H 388.511 -4.78974 0.762133 0
M  V30 3955 H 384.39 -4.58824 -0.447411 0
M  V30 3956 H 387.934 -6.55355 2.39071 0
M  V30 3957 H 383.831 -6.34746 1.17338 0
M  V30 3958 H 384.599 -7.71428 2.73572 0
M  V30 3959 N 387.262 0.0317525 -1.57568 0
M  V30 3960 C 388.21 1.05165 -2.07468 0
M  V30 3961 C 389.204 1.3761 -0.98792 0
M  V30 3962 O 390.41 1.36546 -1.17282 0
M  V30 3963 H 386.785 0.35666 -0.66204 0
M  V30 3964 H 388.756 0.604958 -2.92203 0
M  V30 3965 C 387.505 2.34488 -2.56731 0
M  V30 3966 H 386.828 2.10383 -3.39969 0
M  V30 3967 H 388.268 3.04203 -2.95358 0
M  V30 3968 C 386.727 3.03266 -1.46736 0
M  V30 3969 O 387.257 3.92988 -0.832069 0
M  V30 3970 N 385.463 2.6455 -1.20256 0
M  V30 3971 H 385.01 1.91674 -1.72102 0
M  V30 3972 H 384.968 3.10886 -0.468737 0
M  V30 3973 N 388.74 1.54641 0.303973 0
M  V30 3974 C 389.965 1.78092 1.06292 0
M  V30 3975 C 390.39 0.537342 1.80262 0
M  V30 3976 O 389.748 -0.511993 1.7392 0
M  V30 3977 C 389.796 2.98612 2.02147 0
M  V30 3978 O 388.9 2.71528 3.10397 0
M  V30 3979 H 388.241 0.589548 0.305497 0
M  V30 3980 H 390.771 2.01716 0.3423 0
M  V30 3981 H 390.781 3.265 2.44667 0
M  V30 3982 H 389.456 3.88785 1.47714 0
M  V30 3983 H 388.033 2.54648 2.72413 0
M  V30 3984 N 390.218 -0.567019 1.47046 0
M  V30 3985 C 391.181 -1.65696 1.58359 0
M  V30 3986 C 392.181 -1.54097 0.459441 0
M  V30 3987 O 393.371 -1.58432 0.724225 0
M  V30 3988 C 390.503 -3.05197 1.51879 0
M  V30 3989 H 391.696 -1.57019 2.5551 0
M  V30 3990 H 389.249 -0.786148 1.3509 0
M  V30 3991 H 389.984 -3.19417 0.560673 0
M  V30 3992 H 389.769 -3.15025 2.33455 0
M  V30 3993 H 391.259 -3.84511 1.62913 0
M  V30 3994 N 391.696 -1.35014 -0.812953 0
M  V30 3995 C 392.942 -1.2812 -1.57204 0
M  V30 3996 C 393.275 0.145869 -1.93651 0
M  V30 3997 O 392.55 1.0937 -1.60836 0
M  V30 3998 C 392.833 -2.18162 -2.86492 0
M  V30 3999 C 392.686 -3.69454 -2.56561 0
M  V30 4000 C 394.005 -2.07439 -3.88145 0
M  V30 4001 H 391.124 -0.466746 -0.570366 0
M  V30 4002 H 393.766 -1.65357 -0.935783 0
M  V30 4003 H 391.916 -1.86535 -3.40789 0
M  V30 4004 H 393.588 -4.11493 -2.08497 0
M  V30 4005 H 391.831 -3.9005 -1.89851 0
M  V30 4006 H 392.502 -4.27835 -3.48799 0
M  V30 4007 H 394.978 -2.35228 -3.4323 0
M  V30 4008 H 393.854 -2.7265 -4.76396 0
M  V30 4009 H 394.115 -1.05439 -4.29343 0
M  V30 4010 N 393.175 1.03435 -1.18907 0
M  V30 4011 C 394.586 1.58195 -0.991523 0
M  V30 4012 C 394.937 1.90801 0.457081 0
M  V30 4013 O 394.062 1.70272 1.33553 0
M  V30 4014 C 394.657 2.87432 -1.79355 0
M  V30 4015 C 393.216 3.38785 -1.64017 0
M  V30 4016 C 392.363 2.12292 -1.78402 0
M  V30 4017 H 395.314 0.860299 -1.33359 0
M  V30 4018 H 395.335 3.58096 -1.28638 0
M  V30 4019 H 394.847 2.63669 -2.84781 0
M  V30 4020 H 392.948 3.67547 -0.611536 0
M  V30 4021 H 393.061 4.12186 -2.44212 0
M  V30 4022 H 391.425 2.23901 -1.2141 0
M  V30 4023 H 392.208 1.90977 -2.85277 0
M  V30 4024 N 394.653 0.992116 1.22453 0
M  V30 4025 C 395.881 0.685944 1.95198 0
M  V30 4026 C 396.296 -0.749233 1.73297 0
M  V30 4027 O 395.653 -1.50549 1.03156 0
M  V30 4028 C 395.704 0.981395 3.47924 0
M  V30 4029 O 395.425 2.36018 3.6909 0
M  V30 4030 C 396.926 0.692815 4.37853 0
M  V30 4031 H 394.146 0.253821 0.621141 0
M  V30 4032 H 396.69 1.32668 1.55626 0
M  V30 4033 H 394.845 0.386481 3.85467 0
M  V30 4034 H 395.259 2.45884 4.63294 0
M  V30 4035 H 396.733 0.949818 5.43767 0
M  V30 4036 H 397.21 -0.373181 4.37612 0
M  V30 4037 H 397.816 1.26874 4.05935 0
M  V30 4038 N 396.131 -1.37776 0.765217 0
M  V30 4039 C 397.061 -2.32945 0.160953 0
M  V30 4040 C 398.042 -1.55454 -0.690516 0
M  V30 4041 O 399.227 -1.83721 -0.629318 0
M  V30 4042 C 396.357 -3.39669 -0.724031 0
M  V30 4043 C 395.311 -4.27992 0.0256173 0
M  V30 4044 C 394.637 -5.25673 -0.978383 0
M  V30 4045 C 395.937 -5.08309 1.20082 0
M  V30 4046 H 397.631 -2.83728 0.955969 0
M  V30 4047 H 395.177 -1.36416 0.461149 0
M  V30 4048 H 397.13 -4.05219 -1.15652 0
M  V30 4049 H 395.854 -2.87396 -1.5515 0
M  V30 4050 H 394.513 -3.63964 0.438812 0
M  V30 4051 H 394.161 -4.69682 -1.80022 0
M  V30 4052 H 393.861 -5.85625 -0.481378 0
M  V30 4053 H 395.385 -5.94098 -1.40995 0
M  V30 4054 H 396.799 -5.67034 0.845307 0
M  V30 4055 H 395.196 -5.77554 1.62947 0
M  V30 4056 H 396.266 -4.41365 2.00811 0
M  V30 4057 N 397.609 -0.515225 -1.4894 0
M  V30 4058 C 398.542 0.302518 -2.26186 0
M  V30 4059 C 399.52 0.957895 -1.31389 0
M  V30 4060 O 400.704 0.985198 -1.60705 0
M  V30 4061 C 397.831 1.42719 -3.07163 0
M  V30 4062 C 396.877 0.884736 -4.17223 0
M  V30 4063 S 397.71 -0.235767 -5.34981 0
M  V30 4064 C 398.866 0.891731 -6.19515 0
M  V30 4065 H 399.099 -0.353076 -2.95196 0
M  V30 4066 H 396.632 -0.300753 -1.51443 0
M  V30 4067 H 398.59 2.07152 -3.54398 0
M  V30 4068 H 397.251 2.05445 -2.37595 0
M  V30 4069 H 396.444 1.72801 -4.73451 0
M  V30 4070 H 396.046 0.317362 -3.72651 0
M  V30 4071 H 398.338 1.79377 -6.53322 0
M  V30 4072 H 399.281 0.367751 -7.07144 0
M  V30 4073 H 399.689 1.16548 -5.52338 0
M  V30 4074 N 399.087 1.5561 -0.249682 0
M  V30 4075 C 400.05 2.20217 0.635394 0
M  V30 4076 C 401.05 1.17227 1.10066 0
M  V30 4077 O 402.24 1.42292 1.00492 0
M  V30 4078 C 399.372 2.84794 1.87363 0
M  V30 4079 H 400.565 2.99814 0.0716752 0
M  V30 4080 H 398.118 1.563 -0.000153234 0
M  V30 4081 H 398.853 2.09142 2.47851 0
M  V30 4082 H 398.638 3.60241 1.5482 0
M  V30 4083 H 400.128 3.3423 2.5036 0
M  V30 4084 N 400.565 -0.0233959 1.57583 0
M  V30 4085 C 401.515 -1.03023 2.03397 0
M  V30 4086 C 402.499 -1.31701 0.924315 0
M  V30 4087 O 403.691 -1.31191 1.18819 0
M  V30 4088 C 400.82 -2.32961 2.52159 0
M  V30 4089 C 399.906 -2.07349 3.69956 0
M  V30 4090 N 400.297 -1.51814 4.82479 0
M  V30 4091 C 398.595 -2.37606 3.77438 0
M  V30 4092 C 399.296 -1.42136 5.64068 0
M  V30 4093 N 398.272 -1.89891 5.09355 0
M  V30 4094 H 402.074 -0.594962 2.87815 0
M  V30 4095 H 399.588 -0.229586 1.60769 0
M  V30 4096 H 401.585 -3.05906 2.83244 0
M  V30 4097 H 400.245 -2.77162 1.69149 0
M  V30 4098 H 401.256 -1.20008 5.03804 0
M  V30 4099 H 397.933 -2.84842 3.05239 0
M  V30 4100 H 399.323 -0.996405 6.64471 0
M  V30 4101 N 402.043 -1.548 -0.295768 0
M  V30 4102 C 403.291 -1.73985 -1.02828 0
M  V30 4103 C 403.612 -0.531406 -1.87619 0
M  V30 4104 O 402.882 0.454221 -1.90561 0
M  V30 4105 H 401.462 -0.641556 -0.382642 0
M  V30 4106 H 404.124 -1.92163 -0.325489 0
M  V30 4107 H 403.22 -2.63129 -1.67838 0
M  V30 4108 N 403.521 0.559213 -1.47345 0
M  V30 4109 C 404.937 0.884943 -1.32819 0
M  V30 4110 C 405.137 1.98988 -0.317173 0
M  V30 4111 O 404.193 2.51031 0.272011 0
M  V30 4112 C 405.506 1.28007 -2.72093 0
M  V30 4113 C 407.054 1.39161 -2.80363 0
M  V30 4114 C 407.529 1.82031 -4.20272 0
M  V30 4115 N 409.02 1.89185 -4.22804 0
M  V30 4116 C 409.755 2.2368 -5.27973 0
M  V30 4117 N 409.251 2.56802 -6.43447 0
M  V30 4118 N 411.044 2.24436 -5.15349 0
M  V30 4119 H 403.195 -0.170304 -2.11716 0
M  V30 4120 H 405.458 -0.0135247 -0.947904 0
M  V30 4121 H 405.164 0.542027 -3.47498 0
M  V30 4122 H 405.038 2.23665 -3.03733 0
M  V30 4123 H 407.425 2.12048 -2.05231 0
M  V30 4124 H 407.506 0.41696 -2.52379 0
M  V30 4125 H 407.15 1.09715 -4.95908 0
M  V30 4126 H 407.08 2.80495 -4.45679 0
M  V30 4127 H 409.571 1.65982 -3.39497 0
M  V30 4128 H 409.884 2.82144 -7.19454 0
M  V30 4129 H 408.229 2.54387 -6.46771 0
M  V30 4130 H 411.42 1.97998 -4.24163 0
M  V30 4131 H 411.593 2.50989 -5.97418 0
M  V30 4132 N 404.999 1.35443 0.805782 0
M  V30 4133 C 405.929 1.31095 1.93226 0
M  V30 4134 C 406.91 0.185244 1.69088 0
M  V30 4135 O 408.095 0.380332 1.90439 0
M  V30 4136 C 405.225 1.08299 3.29983 0
M  V30 4137 C 404.179 2.17519 3.68605 0
M  V30 4138 C 403.505 1.79887 5.03532 0
M  V30 4139 C 404.805 3.5949 3.78898 0
M  V30 4140 H 406.499 2.25352 1.97122 0
M  V30 4141 H 404.045 1.0848 0.946996 0
M  V30 4142 H 405.998 1.03897 4.08391 0
M  V30 4143 H 404.722 0.104885 3.26432 0
M  V30 4144 H 403.381 2.2102 2.92482 0
M  V30 4145 H 403.029 0.80693 4.96485 0
M  V30 4146 H 402.729 2.53001 5.30344 0
M  V30 4147 H 404.253 1.77011 5.84379 0
M  V30 4148 H 405.667 3.58307 4.47536 0
M  V30 4149 H 404.064 4.31371 4.1718 0
M  V30 4150 H 405.134 3.95584 2.80431 0
M  V30 4151 N 406.477 -1.02803 1.19454 0
M  V30 4152 C 407.725 -1.75869 0.995722 0
M  V30 4153 C 408.046 -1.89138 -0.474543 0
M  V30 4154 O 407.316 -1.42558 -1.34366 0
M  V30 4155 H 405.896 -0.651511 0.365435 0
M  V30 4156 H 408.558 -1.24004 1.50363 0
M  V30 4157 H 407.654 -2.76661 1.44447 0
M  V30 4158 N 407.956 -0.998596 -1.21925 0
M  V30 4159 C 409.203 -0.677663 -1.90824 0
M  V30 4160 C 409.531 0.790905 -1.77693 0
M  V30 4161 O 408.786 1.58817 -1.14349 0
M  V30 4162 C 409.085 -1.03648 -3.42041 0
M  V30 4163 C 408.751 -2.49825 -3.75364 0
M  V30 4164 C 407.413 -2.8977 -3.8417 0
M  V30 4165 C 409.765 -3.44545 -3.91073 0
M  V30 4166 C 407.093 -4.23412 -4.06127 0
M  V30 4167 C 409.445 -4.77853 -4.14535 0
M  V30 4168 C 408.109 -5.17531 -4.21566 0
M  V30 4169 H 407.379 -0.247975 -0.698276 0
M  V30 4170 H 410.026 -1.25584 -1.44571 0
M  V30 4171 H 408.331 -0.376457 -3.89987 0
M  V30 4172 H 410.028 -0.766113 -3.93614 0
M  V30 4173 H 406.618 -2.17866 -3.69097 0
M  V30 4174 H 410.802 -3.14853 -3.83642 0
M  V30 4175 H 406.058 -4.53734 -4.09799 0
M  V30 4176 H 410.232 -5.51189 -4.25633 0
M  V30 4177 H 407.859 -6.21102 -4.38333 0
M  V30 4178 N 409.434 1.37368 -0.772513 0
M  V30 4179 C 410.711 1.93839 -0.26188 0
M  V30 4180 C 411.091 1.7061 1.24319 0
M  V30 4181 O 410.439 1.05534 2.02669 0
M  V30 4182 C 410.649 3.43154 -0.636102 0
M  V30 4183 C 411.997 4.20249 -0.606324 0
M  V30 4184 O 413.021 3.5152 -0.575538 0
M  V30 4185 O 411.88 5.42809 -0.634086 0
M  V30 4186 H 408.974 0.82478 -0.0605555 0
M  V30 4187 H 411.52 1.4665 -0.853917 0
M  V30 4188 H 410.292 3.53647 -1.6748 0
M  V30 4189 H 409.915 3.97596 -0.0170516 0
M  V30 4190 N 410.912 0.523116 1.48665 0
M  V30 4191 C 412.16 -0.0134497 2.02096 0
M  V30 4192 C 412.481 -1.35418 1.40311 0
M  V30 4193 O 411.751 -1.87543 0.566074 0
M  V30 4194 H 410.331 -0.00795915 0.746958 0
M  V30 4195 H 412.993 0.685388 1.82451 0
M  V30 4196 H 412.089 -0.126849 3.11842 0
M  V30 4197 N 412.39 -1.55475 0.257931 0
M  V30 4198 C 413.322 -2.19192 -0.669881 0
M  V30 4199 C 414.335 -1.17148 -1.1305 0
M  V30 4200 O 415.524 -1.43959 -1.05537 0
M  V30 4201 C 412.624 -2.79016 -1.92363 0
M  V30 4202 C 411.797 -4.06586 -1.61265 0
M  V30 4203 C 410.856 -4.50622 -2.7171 0
M  V30 4204 O 409.882 -5.16765 -2.38627 0
M  V30 4205 N 411.084 -4.19325 -4.01431 0
M  V30 4206 H 413.849 -2.99441 -0.124635 0
M  V30 4207 H 411.41 -1.6171 0.0783311 0
M  V30 4208 H 413.402 -3.05427 -2.65511 0
M  V30 4209 H 411.972 -2.0286 -2.37837 0
M  V30 4210 H 411.192 -3.87646 -0.715811 0
M  V30 4211 H 412.48 -4.89737 -1.37967 0
M  V30 4212 H 411.878 -3.66247 -4.31138 0
M  V30 4213 H 410.435 -4.50547 -4.7101 0
M  V30 4214 N 413.868 0.0150385 -1.57593 0
M  V30 4215 C 415.098 0.713359 -1.93894 0
M  V30 4216 C 415.506 1.68663 -0.857289 0
M  V30 4217 O 414.849 1.82876 0.173788 0
M  V30 4218 C 414.911 1.51348 -3.26089 0
M  V30 4219 C 414.575 0.703451 -4.51554 0
M  V30 4220 C 415.572 -0.00237924 -5.199 0
M  V30 4221 C 413.257 0.653854 -4.98026 0
M  V30 4222 C 415.251 -0.746955 -6.33008 0
M  V30 4223 C 412.938 -0.0944578 -6.11027 0
M  V30 4224 C 413.936 -0.793609 -6.78374 0
M  V30 4225 O 413.624 -1.52974 -7.89211 0
M  V30 4226 H 413.356 0.204637 -0.644282 0
M  V30 4227 H 415.91 -0.0276411 -2.05381 0
M  V30 4228 H 414.14 2.29862 -3.10967 0
M  V30 4229 H 415.829 2.09572 -3.47612 0
M  V30 4230 H 416.595 0.0268803 -4.84993 0
M  V30 4231 H 412.474 1.18756 -4.45441 0
M  V30 4232 H 416.018 -1.2932 -6.85509 0
M  V30 4233 H 411.915 -0.125591 -6.45378 0
M  V30 4234 H 412.683 -1.44488 -8.05646 0
M  V30 4235 N 415.346 1.54954 0.287554 0
M  V30 4236 C 416.296 1.8322 1.357 0
M  V30 4237 C 417.28 0.690152 1.45347 0
M  V30 4238 O 418.472 0.951137 1.49273 0
M  V30 4239 C 415.601 2.09481 2.71979 0
M  V30 4240 C 414.687 3.29906 2.66502 0
M  V30 4241 N 415.078 4.50154 2.30641 0
M  V30 4242 C 413.376 3.32203 2.97585 0
M  V30 4243 C 414.077 5.32209 2.34794 0
M  V30 4244 N 413.053 4.70258 2.72688 0
M  V30 4245 H 416.855 2.73746 1.0696 0
M  V30 4246 H 414.369 1.54635 0.496167 0
M  V30 4247 H 416.366 2.27882 3.49107 0
M  V30 4248 H 415.026 1.2023 3.0162 0
M  V30 4249 H 416.037 4.76515 2.02865 0
M  V30 4250 H 412.714 2.53101 3.32034 0
M  V30 4251 H 414.104 6.38321 2.09753 0
M  V30 4252 N 416.824 -0.551391 1.4764 0
M  V30 4253 C 417.734 -1.68525 1.63207 0
M  V30 4254 C 418.75 -1.6621 0.514815 0
M  V30 4255 O 419.926 -1.85551 0.783113 0
M  V30 4256 C 416.991 -3.05025 1.64805 0
M  V30 4257 C 416.052 -3.18362 2.88 0
M  V30 4258 C 415.285 -4.4835 2.89513 0
M  V30 4259 O 415.508 -5.34163 2.00065 0
M  V30 4260 O 414.442 -4.65602 3.81443 0
M  V30 4261 H 418.268 -1.58333 2.59161 0
M  V30 4262 H 415.853 -0.722063 1.30792 0
M  V30 4263 H 417.735 -3.86245 1.68502 0
M  V30 4264 H 416.41 -3.15587 0.720197 0
M  V30 4265 H 415.317 -2.36518 2.89845 0
M  V30 4266 H 416.65 -3.12707 3.80099 0
M  V30 4267 N 418.302 -1.35869 -0.798587 0
M  V30 4268 C 419.249 -1.29446 -1.91082 0
M  V30 4269 C 420.219 -0.16487 -1.6528 0
M  V30 4270 O 421.404 -0.349888 -1.87564 0
M  V30 4271 C 418.544 -1.0804 -3.27752 0
M  V30 4272 C 417.657 -2.29993 -3.65687 0
M  V30 4273 C 416.792 -2.01673 -4.91428 0
M  V30 4274 C 415.831 -3.19636 -5.22015 0
M  V30 4275 N 414.968 -2.91039 -6.38937 0
M  V30 4276 H 419.808 -2.24553 -1.95907 0
M  V30 4277 H 417.345 -1.11615 -0.958148 0
M  V30 4278 H 419.303 -0.936586 -4.06551 0
M  V30 4279 H 417.933 -0.16592 -3.22373 0
M  V30 4280 H 416.985 -2.55211 -2.82085 0
M  V30 4281 H 418.297 -3.18052 -3.84245 0
M  V30 4282 H 417.451 -1.84168 -5.78072 0
M  V30 4283 H 416.19 -1.10911 -4.74921 0
M  V30 4284 H 415.195 -3.37709 -4.33858 0
M  V30 4285 H 416.42 -4.11211 -5.40447 0
M  V30 4286 H 414.366 -2.0288 -6.2384 0
M  V30 4287 H 414.283 -3.72635 -6.57784 0
M  V30 4288 H 415.551 -2.77093 -7.28587 0
M  V30 4289 N 419.78 1.02168 -1.19998 0
M  V30 4290 C 421.057 1.72816 -0.916191 0
M  V30 4291 C 421.437 2.03081 0.576325 0
M  V30 4292 O 420.785 1.69122 1.53656 0
M  V30 4293 C 420.995 2.9997 -1.78378 0
M  V30 4294 C 422.343 3.73336 -2.02251 0
M  V30 4295 O 423.367 3.09914 -1.75589 0
M  V30 4296 O 422.226 4.87371 -2.47249 0
M  V30 4297 H 419.32 0.752924 -0.342103 0
M  V30 4298 H 421.866 1.08062 -1.30846 0
M  V30 4299 H 420.638 2.73888 -2.79466 0
M  V30 4300 H 420.261 3.72464 -1.39126 0
M  V30 4301 N 421.258 1.00505 1.21394 0
M  V30 4302 C 422.188 0.585684 2.26035 0
M  V30 4303 C 423.169 -0.393525 1.65485 0
M  V30 4304 O 424.354 -0.281497 1.92149 0
M  V30 4305 C 421.484 -0.0884283 3.47187 0
M  V30 4306 C 420.438 0.810567 4.20254 0
M  V30 4307 C 419.764 0.00286382 5.347 0
M  V30 4308 C 421.064 2.1132 4.77641 0
M  V30 4309 H 422.758 1.46039 2.61368 0
M  V30 4310 H 420.304 0.703648 1.25638 0
M  V30 4311 H 422.257 -0.393286 4.19561 0
M  V30 4312 H 420.981 -0.997766 3.10986 0
M  V30 4313 H 419.64 1.09925 3.49731 0
M  V30 4314 H 419.288 -0.907765 4.94741 0
M  V30 4315 H 418.988 0.601444 5.84514 0
M  V30 4316 H 420.512 -0.295808 6.09883 0
M  V30 4317 H 421.926 1.87148 5.41893 0
M  V30 4318 H 420.323 2.66164 5.37845 0
M  V30 4319 H 421.393 2.78393 3.9702 0
M  V30 4320 N 422.737 -1.36956 0.779787 0
M  V30 4321 C 424.014 -1.93697 0.272156 0
M  V30 4322 C 424.394 -1.71267 -1.23413 0
M  V30 4323 O 423.742 -1.06607 -2.02107 0
M  V30 4324 C 423.952 -3.42812 0.654291 0
M  V30 4325 C 425.3 -4.19921 0.628602 0
M  V30 4326 O 426.324 -3.51209 0.594172 0
M  V30 4327 O 425.183 -5.42465 0.662864 0
M  V30 4328 H 422.277 -0.824447 0.0649286 0
M  V30 4329 H 424.823 -1.46196 0.861682 0
M  V30 4330 H 423.595 -3.52754 1.69353 0
M  V30 4331 H 423.218 -3.97582 0.0381369 0
M  V30 4332 N 424.215 -0.530993 -1.48385 0
M  V30 4333 C 425.461 0.00274135 -2.028 0
M  V30 4334 C 425.794 1.33838 -1.40716 0
M  V30 4335 O 425.069 1.86465 -0.553277 0
M  V30 4336 C 425.352 0.123676 -3.59888 0
M  V30 4337 C 425.205 -1.2372 -4.3245 0
M  V30 4338 C 426.524 0.849967 -4.31814 0
M  V30 4339 H 423.643 -0.000477758 -0.737 0
M  V30 4340 H 426.285 -0.688217 -1.77098 0
M  V30 4341 H 424.435 0.712157 -3.81917 0
M  V30 4342 H 426.107 -1.86687 -4.21836 0
M  V30 4343 H 424.35 -1.81882 -3.93829 0
M  V30 4344 H 425.021 -1.10557 -5.40815 0
M  V30 4345 H 427.497 0.350572 -4.14621 0
M  V30 4346 H 426.373 0.903486 -5.41413 0
M  V30 4347 H 426.634 1.90047 -3.99167 0
M  V30 4348 N 425.693 1.55336 -0.266172 0
M  V30 4349 C 426.921 2.03801 0.356756 0
M  V30 4350 C 427.336 1.14485 1.50129 0
M  V30 4351 O 426.693 0.163121 1.8177 0
M  V30 4352 C 426.744 3.51455 0.846281 0
M  V30 4353 O 426.465 4.37371 -0.252663 0
M  V30 4354 C 427.966 4.15767 1.53794 0
M  V30 4355 H 425.186 0.665906 0.0825218 0
M  V30 4356 H 427.73 2.00636 -0.39566 0
M  V30 4357 H 425.885 3.55092 1.54881 0
M  V30 4358 H 426.299 5.24358 0.122173 0
M  V30 4359 H 427.773 5.20714 1.83198 0
M  V30 4360 H 428.25 3.63404 2.46646 0
M  V30 4361 H 428.856 4.16107 0.879488 0
M  V30 4362 N 427.171 -0.0066808 1.57599 0
M  V30 4363 C 428.399 -0.704087 1.94551 0
M  V30 4364 C 428.814 -1.67677 0.867746 0
M  V30 4365 O 428.171 -1.8185 -0.153925 0
M  V30 4366 C 428.222 -1.44177 3.31505 0
M  V30 4367 O 427.943 -0.508097 4.35144 0
M  V30 4368 C 429.444 -2.23429 3.82876 0
M  V30 4369 H 426.664 -0.196523 0.641576 0
M  V30 4370 H 429.208 0.042453 2.04456 0
M  V30 4371 H 427.363 -2.13999 3.22929 0
M  V30 4372 H 427.777 -1.02782 5.14331 0
M  V30 4373 H 429.251 -2.70552 4.8115 0
M  V30 4374 H 429.728 -3.05818 3.15233 0
M  V30 4375 H 430.334 -1.58636 3.94607 0
M  V30 4376 N 428.649 -1.55105 -0.279332 0
M  V30 4377 C 429.579 -1.90557 -1.34945 0
M  V30 4378 C 430.56 -0.766738 -1.51839 0
M  V30 4379 O 431.745 -1.02434 -1.64988 0
M  V30 4380 C 428.875 -2.17193 -2.71006 0
M  V30 4381 C 427.829 -3.33021 -2.68851 0
M  V30 4382 C 427.155 -3.45123 -4.08405 0
M  V30 4383 C 428.455 -4.69578 -2.28678 0
M  V30 4384 H 430.149 -2.80188 -1.05522 0
M  V30 4385 H 427.695 -1.34811 -0.506173 0
M  V30 4386 H 429.648 -2.40581 -3.45975 0
M  V30 4387 H 428.372 -1.24355 -3.01999 0
M  V30 4388 H 427.031 -3.0959 -1.9634 0
M  V30 4389 H 426.679 -2.49762 -4.3661 0
M  V30 4390 H 426.379 -4.22995 -4.07859 0
M  V30 4391 H 427.903 -3.70796 -4.85121 0
M  V30 4392 H 429.317 -4.92553 -2.93368 0
M  V30 4393 H 427.714 -5.5032 -2.39306 0
M  V30 4394 H 428.784 -4.68828 -1.23807 0
M  V30 4395 N 430.127 0.543554 -1.4793 0
M  V30 4396 C 431.374 1.30008 -1.55255 0
M  V30 4397 C 431.702 1.93245 -0.220612 0
M  V30 4398 O 430.957 1.79141 0.787843 0
M  V30 4399 C 431.256 2.42078 -2.62932 0
M  V30 4400 C 430.922 1.96583 -4.0579 0
M  V30 4401 C 429.584 1.83893 -4.44676 0
M  V30 4402 C 431.936 1.62034 -4.95373 0
M  V30 4403 C 429.264 1.34969 -5.70964 0
M  V30 4404 C 431.616 1.14577 -6.22137 0
M  V30 4405 C 430.28 1.00493 -6.59892 0
M  V30 4406 H 429.55 0.475735 -0.568117 0
M  V30 4407 H 432.197 0.608075 -1.81589 0
M  V30 4408 H 430.502 3.16892 -2.30406 0
M  V30 4409 H 432.199 3.00236 -2.65818 0
M  V30 4410 H 428.789 2.07407 -3.75074 0
M  V30 4411 H 432.973 1.70705 -4.66019 0
M  V30 4412 H 428.229 1.2274 -5.98953 0
M  V30 4413 H 432.403 0.869109 -6.90955 0
M  V30 4414 H 430.03 0.623624 -7.57638 0
M  V30 4415 N 431.605 1.3629 0.791371 0
M  V30 4416 C 432.515 1.32606 1.93527 0
M  V30 4417 C 433.531 0.228541 1.72493 0
M  V30 4418 O 434.707 0.460571 1.96063 0
M  V30 4419 C 431.772 1.11271 3.28359 0
M  V30 4420 C 430.833 2.3048 3.62185 0
M  V30 4421 C 430.066 2.10154 4.90583 0
M  V30 4422 O 430.289 1.07572 5.60165 0
M  V30 4423 O 429.223 2.97884 5.23019 0
M  V30 4424 H 433.049 2.28909 1.99585 0
M  V30 4425 H 430.634 1.16818 0.931344 0
M  V30 4426 H 432.516 1.01283 4.09047 0
M  V30 4427 H 431.191 0.180292 3.23198 0
M  V30 4428 H 430.098 2.46036 2.81811 0
M  V30 4429 H 431.431 3.22221 3.72068 0
M  V30 4430 N 433.083 -1.0153 1.20538 0
M  V30 4431 C 434.36 -1.72327 0.925343 0
M  V30 4432 C 434.74 -2.03383 -0.565547 0
M  V30 4433 O 434.088 -1.69934 -1.52757 0
M  V30 4434 C 434.298 -2.9902 1.79967 0
M  V30 4435 C 435.646 -3.72258 2.04228 0
M  V30 4436 O 436.67 -3.08979 1.77231 0
M  V30 4437 O 435.529 -4.86053 2.4983 0
M  V30 4438 H 432.623 -0.751099 0.346092 0
M  V30 4439 H 435.169 -1.07366 1.31417 0
M  V30 4440 H 433.941 -2.72402 2.80915 0
M  V30 4441 H 433.564 -3.71721 1.41099 0
M  V30 4442 N 434.561 -1.01147 -1.20859 0
M  V30 4443 C 435.807 -0.708598 -1.90658 0
M  V30 4444 C 436.162 0.753069 -1.7705 0
M  V30 4445 O 435.455 1.53952 -1.14059 0
M  V30 4446 C 435.649 -1.0727 -3.40922 0
M  V30 4447 C 435.478 -2.56821 -3.69152 0
M  V30 4448 C 434.248 -3.23524 -3.8815 0
M  V30 4449 C 436.446 -3.54997 -3.72131 0
M  V30 4450 N 434.428 -4.62359 -4.03853 0
M  V30 4451 C 435.799 -4.79371 -3.93196 0
M  V30 4452 C 437.854 -3.49042 -3.55069 0
M  V30 4453 C 436.557 -5.98512 -3.98969 0
M  V30 4454 C 438.583 -4.67579 -3.6211 0
M  V30 4455 C 437.945 -5.9076 -3.83643 0
M  V30 4456 H 434.044 -0.31088 -0.71755 0
M  V30 4457 H 436.628 -1.29526 -1.45366 0
M  V30 4458 H 434.799 -0.51443 -3.84978 0
M  V30 4459 H 436.531 -0.723891 -3.98173 0
M  V30 4460 H 433.286 -2.73958 -3.86321 0
M  V30 4461 H 433.71 -5.34427 -4.15592 0
M  V30 4462 H 438.352 -2.54808 -3.37391 0
M  V30 4463 H 436.07 -6.93132 -4.15444 0
M  V30 4464 H 439.656 -4.64581 -3.50222 0
M  V30 4465 H 438.536 -6.8095 -3.88944 0
M  V30 4466 N 436.039 1.36541 -0.78704 0
M  V30 4467 C 437.285 1.99599 -0.358872 0
M  V30 4468 C 437.618 1.62323 1.06606 0
M  V30 4469 O 436.893 0.876858 1.73613 0
M  V30 4470 C 437.176 3.56327 -0.519944 0
M  V30 4471 C 437.029 4.03464 -1.98839 0
M  V30 4472 C 438.348 4.4005 0.0664737 0
M  V30 4473 H 435.467 0.725107 -0.131869 0
M  V30 4474 H 438.109 1.6199 -0.992936 0
M  V30 4475 H 436.259 3.88495 0.0198321 0
M  V30 4476 H 437.931 3.81793 -2.58905 0
M  V30 4477 H 436.174 3.55092 -2.49183 0
M  V30 4478 H 436.845 5.12439 -2.05207 0
M  V30 4479 H 439.321 4.14228 -0.394267 0
M  V30 4480 H 438.197 5.48847 -0.0762682 0
M  V30 4481 H 438.458 4.26655 1.15835 0
M  V30 4482 N 437.518 0.538854 1.48102 0
M  V30 4483 C 438.481 -0.208395 2.28251 0
M  V30 4484 C 439.481 -0.859656 1.35892 0
M  V30 4485 O 440.671 -0.71834 1.58699 0
M  V30 4486 C 437.803 -1.30252 3.15035 0
M  V30 4487 H 438.996 0.495407 2.9578 0
M  V30 4488 H 436.549 0.295112 1.53489 0
M  V30 4489 H 437.284 -2.0393 2.52157 0
M  V30 4490 H 437.069 -0.840551 3.82985 0
M  V30 4491 H 438.559 -1.82787 3.75471 0
M  V30 4492 N 438.996 -1.55193 0.274407 0
M  V30 4493 C 439.944 -2.23924 -0.629362 0
M  V30 4494 C 440.938 -1.23602 -1.1584 0
M  V30 4495 O 442.144 -1.41535 -1.11211 0
M  V30 4496 H 438.519 -0.718637 -0.221507 0
M  V30 4497 H 440.49 -2.98388 -0.0268322 0
M  V30 4498 C 439.239 -2.97329 -1.80252 0
M  V30 4499 H 438.562 -3.74313 -1.40462 0
M  V30 4500 H 440.002 -3.48743 -2.41152 0
M  V30 4501 C 438.461 -2.0276 -2.69054 0
M  V30 4502 O 438.991 -1.57836 -3.69392 0
M  V30 4503 N 437.197 -1.69275 -2.36208 0
M  V30 4504 H 436.744 -2.06004 -1.54661 0
M  V30 4505 H 436.702 -1.06271 -2.95895 0
M  V30 4506 N 440.474 -0.00167713 -1.576 0
M  V30 4507 C 441.704 0.692754 -1.94639 0
M  V30 4508 C 442.112 1.67744 -0.87513 0
M  V30 4509 O 441.455 1.8305 0.154382 0
M  V30 4510 C 441.517 1.47881 -3.27676 0
M  V30 4511 C 441.181 0.655518 -4.52274 0
M  V30 4512 C 442.178 -0.0575214 -5.19868 0
M  V30 4513 C 439.863 0.600994 -4.98692 0
M  V30 4514 C 441.857 -0.814052 -6.3218 0
M  V30 4515 C 439.544 -0.15926 -6.10892 0
M  V30 4516 C 440.542 -0.865515 -6.77494 0
M  V30 4517 O 440.23 -1.61336 -7.87544 0
M  V30 4518 H 439.962 0.197792 -0.646417 0
M  V30 4519 H 442.516 -0.049423 -2.05341 0
M  V30 4520 H 440.746 2.2655 -3.13388 0
M  V30 4521 H 442.435 2.05874 -3.49816 0
M  V30 4522 H 443.201 -0.0245611 -4.84994 0
M  V30 4523 H 439.08 1.14025 -4.46676 0
M  V30 4524 H 442.624 -1.36584 -6.84098 0
M  V30 4525 H 438.521 -0.194035 -6.45208 0
M  V30 4526 H 439.289 -1.53025 -8.04068 0
M  V30 4527 N 441.952 1.55251 0.271103 0
M  V30 4528 C 443.363 1.66635 0.842007 0
M  V30 4529 C 443.714 0.594631 1.86972 0
M  V30 4530 O 442.839 -0.263532 2.14789 0
M  V30 4531 C 443.434 3.02082 1.53401 0
M  V30 4532 C 441.993 3.15487 2.05293 0
M  V30 4533 C 441.14 2.62438 0.895631 0
M  V30 4534 H 444.091 1.58629 0.0474117 0
M  V30 4535 H 444.112 2.95176 2.40107 0
M  V30 4536 H 443.624 3.80062 0.785786 0
M  V30 4537 H 441.725 2.42284 2.83071 0
M  V30 4538 H 441.838 4.22075 2.26693 0
M  V30 4539 H 440.202 2.19644 1.28953 0
M  V30 4540 H 440.985 3.42923 0.160878 0
M  V30 4541 N 443.43 -0.535701 1.48216 0
M  V30 4542 C 444.678 -1.28928 1.55634 0
M  V30 4543 C 444.999 -1.93645 0.229514 0
M  V30 4544 O 444.269 -1.81038 -0.74846 0
M  V30 4545 H 442.849 -0.47884 0.573342 0
M  V30 4546 H 445.511 -0.623853 1.84646 0
M  V30 4547 H 444.607 -2.07157 2.33436 0
M  V30 4548 N 444.908 -1.36708 -0.784132 0
M  V30 4549 C 446.154 -1.31426 -1.54451 0
M  V30 4550 C 446.487 0.10476 -1.93917 0
M  V30 4551 O 445.762 1.05934 -1.6312 0
M  V30 4552 C 446.045 -2.24189 -2.818 0
M  V30 4553 C 445.898 -3.74813 -2.48667 0
M  V30 4554 C 447.217 -2.15626 -3.83658 0
M  V30 4555 H 444.336 -0.478739 -0.560337 0
M  V30 4556 H 446.978 -1.67305 -0.900498 0
M  V30 4557 H 445.128 -1.93722 -3.36755 0
M  V30 4558 H 446.8 -4.15823 -1.99722 0
M  V30 4559 H 445.043 -3.93989 -1.81535 0
M  V30 4560 H 445.714 -4.35138 -3.39646 0
M  V30 4561 H 448.19 -2.42456 -3.38163 0
M  V30 4562 H 447.066 -2.82694 -4.70506 0
M  V30 4563 H 447.327 -1.14522 -4.27009 0
M  V30 4564 N 446.386 1.0089 -1.21074 0
M  V30 4565 C 447.634 1.74262 -1.02358 0
M  V30 4566 C 447.955 1.89869 0.444393 0
M  V30 4567 O 447.225 1.44677 1.32081 0
M  V30 4568 H 445.805 0.645615 -0.375754 0
M  V30 4569 H 448.467 1.21596 -1.52317 0
M  V30 4570 H 447.563 2.74328 -1.4883 0
M  V30 4571 N 447.864 1.01787 1.20321 0
M  V30 4572 C 449.112 0.706538 1.89347 0
M  V30 4573 C 449.433 -0.766289 1.79313 0
M  V30 4574 O 448.703 -1.55126 1.19635 0
M  V30 4575 H 447.283 0.258348 0.700903 0
M  V30 4576 H 449.945 1.28974 1.46122 0
M  V30 4577 H 449.041 0.991066 2.95946 0
M  V30 4578 N 449.342 -1.36122 0.79427 0
M  V30 4579 C 450.59 -1.98718 0.368177 0
M  V30 4580 C 450.911 -1.63345 -1.06506 0
M  V30 4581 O 450.181 -0.909825 -1.73491 0
M  V30 4582 H 448.761 -0.735038 0.133146 0
M  V30 4583 H 451.423 -1.66239 1.01739 0
M  V30 4584 H 450.519 -3.08633 0.463923 0
M  V30 4585 N 450.82 -0.546701 -1.47814 0
M  V30 4586 C 452.045 -0.021268 -2.07389 0
M  V30 4587 C 452.47 1.25822 -1.39822 0
M  V30 4588 O 451.828 1.75111 -0.46968 0
M  V30 4589 C 451.876 0.168502 -3.60206 0
M  V30 4590 O 450.98 1.23347 -3.93522 0
M  V30 4591 H 450.321 -0.0466108 -0.662362 0
M  V30 4592 H 452.851 -0.759387 -1.89985 0
M  V30 4593 H 452.861 0.385982 -4.0617 0
M  V30 4594 H 451.536 -0.766075 -4.08784 0
M  V30 4595 H 450.113 0.997319 -3.59316 0
M  V30 4596 N 452.299 1.55045 -0.282633 0
M  V30 4597 C 453.546 1.9976 0.33199 0
M  V30 4598 C 453.874 1.17105 1.55295 0
M  V30 4599 O 453.129 0.230599 1.94337 0
M  V30 4600 C 453.428 3.49422 0.750938 0
M  V30 4601 C 453.094 4.4941 -0.366228 0
M  V30 4602 C 451.756 4.76471 -0.672964 0
M  V30 4603 C 454.108 5.09054 -1.11864 0
M  V30 4604 C 451.436 5.60442 -1.73556 0
M  V30 4605 C 453.788 5.9418 -2.17102 0
M  V30 4606 C 452.452 6.19558 -2.48402 0
M  V30 4607 H 451.722 0.730974 0.121484 0
M  V30 4608 H 454.369 1.8732 -0.39791 0
M  V30 4609 H 452.674 3.59377 1.56063 0
M  V30 4610 H 454.371 3.81432 1.23736 0
M  V30 4611 H 450.961 4.2844 -0.117041 0
M  V30 4612 H 455.145 4.88165 -0.894925 0
M  V30 4613 H 450.401 5.78349 -1.983 0
M  V30 4614 H 454.575 6.39427 -2.75873 0
M  V30 4615 H 452.202 6.84417 -3.30874 0
M  V30 4616 N 453.777 0.010035 1.57597 0
M  V30 4617 C 455.026 -0.671945 1.90178 0
M  V30 4618 C 455.339 -1.74376 0.886131 0
M  V30 4619 O 456.545 -2.48107 1.10252 0
M  V30 4620 C 455.001 -1.24636 3.3763 0
M  V30 4621 C 454.609 -0.208838 4.47513 0
M  V30 4622 C 456.353 -1.90595 3.79307 0
M  V30 4623 C 454.26 -0.793814 5.86048 0
M  V30 4624 H 453.19 -0.25474 0.709665 0
M  V30 4625 H 455.841 0.0722206 1.83358 0
M  V30 4626 H 454.223 -2.04152 3.3932 0
M  V30 4627 H 455.397 0.562463 4.57354 0
M  V30 4628 H 453.712 0.350889 4.14919 0
M  V30 4629 H 456.309 -2.35284 4.80151 0
M  V30 4630 H 456.652 -2.74074 3.13352 0
M  V30 4631 H 457.185 -1.17798 3.79958 0
M  V30 4632 H 453.924 0.00240855 6.555 0
M  V30 4633 H 453.444 -1.53404 5.79851 0
M  V30 4634 H 455.123 -1.2894 6.34022 0
M  V30 4635 N 455.255 -1.55392 -0.262866 0
M  V30 4636 C 456.532 -1.67204 -1.01499 0
M  V30 4637 C 456.912 -0.545186 -2.03939 0
M  V30 4638 O 456.26 0.453467 -2.23955 0
M  V30 4639 C 456.47 -3.06847 -1.6627 0
M  V30 4640 C 457.818 -3.64928 -2.17054 0
M  V30 4641 O 458.842 -3.09545 -1.76239 0
M  V30 4642 O 457.701 -4.61984 -2.91947 0
M  V30 4643 H 454.795 -0.679467 -0.471438 0
M  V30 4644 H 457.341 -1.67729 -0.257918 0
M  V30 4645 H 456.113 -3.80309 -0.920915 0
M  V30 4646 H 455.736 -3.10266 -2.48638 0
M  V30 4647 N 456.733 0.527833 -1.48498 0
M  V30 4648 C 457.981 1.28101 -1.56316 0
M  V30 4649 C 458.302 1.9352 -0.239781 0
M  V30 4650 O 457.572 1.81433 0.738849 0
M  V30 4651 H 456.152 0.475793 -0.575873 0
M  V30 4652 H 458.814 0.614052 -1.84974 0
M  V30 4653 H 457.91 2.05916 -2.34532 0
M  V30 4654 N 458.211 1.37122 0.776871 0
M  V30 4655 C 459.627 1.1781 1.07671 0
M  V30 4656 C 459.827 0.0107454 2.01497 0
M  V30 4657 O 458.883 -0.650756 2.4397 0
M  V30 4658 C 460.196 2.49451 1.67913 0
M  V30 4659 C 461.744 2.55927 1.80195 0
M  V30 4660 C 462.219 3.87686 2.43851 0
M  V30 4661 N 463.71 3.891 2.51307 0
M  V30 4662 C 464.445 4.87797 3.014 0
M  V30 4663 N 463.941 5.96888 3.51705 0
M  V30 4664 N 465.734 4.75205 3.00227 0
M  V30 4665 H 457.885 2.11843 0.153778 0
M  V30 4666 H 460.148 0.938927 0.130844 0
M  V30 4667 H 459.854 3.35207 1.06439 0
M  V30 4668 H 459.728 2.66169 2.67271 0
M  V30 4669 H 462.115 1.70582 2.40803 0
M  V30 4670 H 462.196 2.43097 0.796069 0
M  V30 4671 H 461.84 4.73444 1.83884 0
M  V30 4672 H 461.77 3.97817 3.45035 0
M  V30 4673 H 464.261 3.10293 2.157 0
M  V30 4674 H 464.574 6.68155 3.88316 0
M  V30 4675 H 462.919 6.0054 3.49824 0
M  V30 4676 H 466.11 3.89103 2.60224 0
M  V30 4677 H 466.283 5.52279 3.38957 0
M  V30 4678 N 459.689 -1.00246 1.21608 0
M  V30 4679 C 460.935 -1.74319 1.03638 0
M  V30 4680 C 461.268 -1.89408 -0.428749 0
M  V30 4681 O 460.543 -1.43026 -1.3181 0
M  V30 4682 C 460.826 -3.15431 1.73711 0
M  V30 4683 C 460.679 -3.08049 3.27759 0
M  V30 4684 C 461.998 -4.14407 1.48173 0
M  V30 4685 H 459.117 -0.632741 0.377899 0
M  V30 4686 H 461.759 -1.16853 1.49818 0
M  V30 4687 H 459.909 -3.64493 1.34452 0
M  V30 4688 H 461.581 -2.66681 3.76403 0
M  V30 4689 H 459.824 -2.45088 3.57931 0
M  V30 4690 H 460.495 -4.07862 3.71958 0
M  V30 4691 H 462.971 -3.74061 1.82258 0
M  V30 4692 H 461.847 -5.11279 1.99713 0
M  V30 4693 H 462.108 -4.40174 0.412273 0
M  V30 4694 N 461.167 -1.02423 -1.1978 0
M  V30 4695 C 462.413 -0.72878 -1.89896 0
M  V30 4696 C 462.768 0.734248 -1.77839 0
M  V30 4697 O 462.061 1.52733 -1.15685 0
M  V30 4698 C 462.255 -1.1088 -3.39765 0
M  V30 4699 C 462.084 -2.60722 -3.66407 0
M  V30 4700 C 460.854 -3.27623 -3.84696 0
M  V30 4701 C 463.052 -3.58924 -3.68345 0
M  V30 4702 N 461.034 -4.66617 -3.98926 0
M  V30 4703 C 462.405 -4.83514 -3.8809 0
M  V30 4704 C 464.46 -3.52788 -3.51347 0
M  V30 4705 C 463.163 -6.0271 -3.92598 0
M  V30 4706 C 465.189 -4.71394 -3.5713 0
M  V30 4707 C 464.551 -5.94796 -3.77356 0
M  V30 4708 H 460.65 -0.318473 -0.714212 0
M  V30 4709 H 463.234 -1.3106 -1.43984 0
M  V30 4710 H 461.405 -0.555233 -3.84411 0
M  V30 4711 H 463.137 -0.766082 -3.97383 0
M  V30 4712 H 459.892 -2.7804 -3.83393 0
M  V30 4713 H 460.316 -5.38805 -4.099 0
M  V30 4714 H 464.958 -2.58372 -3.3467 0
M  V30 4715 H 462.676 -6.97499 -4.08069 0
M  V30 4716 H 466.262 -4.6827 -3.45275 0
M  V30 4717 H 465.142 -6.85037 -3.81699 0
M  V30 4718 N 462.645 1.35699 -0.801477 0
M  V30 4719 C 463.892 1.98913 -0.379459 0
M  V30 4720 C 464.22 1.63592 1.05204 0
M  V30 4721 O 463.475 0.888563 1.74365 0
M  V30 4722 C 463.774 3.53828 -0.504041 0
M  V30 4723 C 463.44 4.09002 -1.8981 0
M  V30 4724 C 462.102 4.23783 -2.27951 0
M  V30 4725 C 464.454 4.38939 -2.81038 0
M  V30 4726 C 461.782 4.65816 -3.56696 0
M  V30 4727 C 464.134 4.82409 -4.09224 0
M  V30 4728 C 462.798 4.95395 -4.4737 0
M  V30 4729 H 462.068 0.727874 -0.138854 0
M  V30 4730 H 464.715 1.61994 -1.02128 0
M  V30 4731 H 463.02 3.91175 0.221242 0
M  V30 4732 H 464.717 4.00687 -0.158361 0
M  V30 4733 H 461.307 3.97946 -1.59176 0
M  V30 4734 H 465.491 4.27077 -2.52821 0
M  V30 4735 H 460.747 4.74059 -3.86106 0
M  V30 4736 H 464.921 5.04535 -4.80018 0
M  V30 4737 H 462.548 5.27724 -5.47185 0
M  V30 4738 N 464.123 0.554532 1.47522 0
M  V30 4739 C 465.348 0.0322661 2.07375 0
M  V30 4740 C 465.773 -1.25079 1.40488 0
M  V30 4741 O 465.131 -1.74859 0.47896 0
M  V30 4742 C 465.179 -0.149397 3.6029 0
M  V30 4743 O 464.283 -1.21259 3.9417 0
M  V30 4744 H 463.624 0.0501228 0.662106 0
M  V30 4745 H 466.154 0.769452 1.8958 0
M  V30 4746 H 466.164 -0.364437 4.06369 0
M  V30 4747 H 464.839 0.787743 4.08372 0
M  V30 4748 H 463.416 -0.97825 3.5984 0
M  V30 4749 N 465.601 -1.54893 0.290851 0
M  V30 4750 C 466.847 -2.0023 -0.321867 0
M  V30 4751 C 467.18 -1.179 -1.54316 0
M  V30 4752 O 466.455 -0.25293 -1.92848 0
M  V30 4753 C 466.738 -3.53456 -0.688515 0
M  V30 4754 C 466.591 -4.46532 0.541209 0
M  V30 4755 C 467.91 -4.13057 -1.51895 0
M  V30 4756 H 465.029 -0.727891 -0.115515 0
M  V30 4757 H 467.671 -1.85722 0.400931 0
M  V30 4758 H 465.821 -3.6595 -1.30433 0
M  V30 4759 H 467.493 -4.4596 1.17973 0
M  V30 4760 H 465.736 -4.17545 1.17636 0
M  V30 4761 H 466.407 -5.51475 0.240675 0
M  V30 4762 H 468.883 -4.03937 -0.99872 0
M  V30 4763 H 467.759 -5.20448 -1.74429 0
M  V30 4764 H 468.02 -3.64284 -2.50498 0
M  V30 4765 N 467.08 -0.0183926 -1.57589 0
M  V30 4766 C 468.31 0.67207 -1.95363 0
M  V30 4767 C 468.718 1.66807 -0.892872 0
M  V30 4768 O 468.061 1.83204 0.134958 0
M  V30 4769 C 468.123 1.44397 -3.29226 0
M  V30 4770 C 467.787 0.607511 -4.52944 0
M  V30 4771 C 468.784 -0.112657 -5.19778 0
M  V30 4772 C 466.469 0.548068 -4.99301 0
M  V30 4773 C 468.463 -0.881057 -6.31281 0
M  V30 4774 C 466.15 -0.224044 -6.10689 0
M  V30 4775 C 467.148 -0.937323 -6.76538 0
M  V30 4776 O 466.836 -1.6968 -7.85789 0
M  V30 4777 H 466.568 0.190925 -0.648478 0
M  V30 4778 H 469.122 -0.0711994 -2.05277 0
M  V30 4779 H 467.352 2.23214 -3.15773 0
M  V30 4780 H 469.041 2.02152 -3.51979 0
M  V30 4781 H 469.807 -0.0759998 -4.8494 0
M  V30 4782 H 465.686 1.09281 -4.4786 0
M  V30 4783 H 469.23 -1.43832 -6.82611 0
M  V30 4784 H 465.127 -0.262457 -6.44966 0
M  V30 4785 H 465.895 -1.61544 -8.024 0
M  V30 4786 N 468.558 1.5553 0.254621 0
M  V30 4787 C 469.806 1.7665 0.981793 0
M  V30 4788 C 470.127 0.580963 1.86145 0
M  V30 4789 O 469.397 -0.403537 1.91699 0
M  V30 4790 H 467.977 0.651475 0.365498 0
M  V30 4791 H 470.639 1.92958 0.274426 0
M  V30 4792 H 469.735 2.67486 1.60802 0
M  V30 4793 N 470.036 -0.519951 1.48776 0
M  V30 4794 C 471.284 -1.2727 1.56993 0
M  V30 4795 C 471.605 -1.9339 0.25004 0
M  V30 4796 O 470.875 -1.81822 -0.729216 0
M  V30 4797 H 469.455 -0.472732 0.578389 0
M  V30 4798 H 472.117 -0.604234 1.85297 0
M  V30 4799 H 471.213 -2.04669 2.3562 0
M  V30 4800 N 471.514 -1.37532 -0.769588 0
M  V30 4801 C 472.444 -1.36172 -1.89682 0
M  V30 4802 C 473.425 -0.23001 -1.68538 0
M  V30 4803 O 474.61 -0.43069 -1.89364 0
M  V30 4804 C 471.74 -1.1701 -3.26995 0
M  V30 4805 C 470.694 -2.27216 -3.62708 0
M  V30 4806 C 470.02 -1.93174 -4.98586 0
M  V30 4807 C 471.32 -3.6941 -3.69234 0
M  V30 4808 H 473.014 -2.30499 -1.91078 0
M  V30 4809 H 470.56 -1.10953 -0.917902 0
M  V30 4810 H 472.513 -1.14688 -4.05493 0
M  V30 4811 H 471.237 -0.191395 -3.26039 0
M  V30 4812 H 469.896 -2.28697 -2.86519 0
M  V30 4813 H 469.544 -0.938281 -4.94171 0
M  V30 4814 H 469.244 -2.66973 -5.23449 0
M  V30 4815 H 470.768 -1.92443 -5.79481 0
M  V30 4816 H 472.182 -3.70047 -4.37879 0
M  V30 4817 H 470.579 -4.4228 -4.05597 0
M  V30 4818 H 471.649 -4.0288 -2.69844 0
M  V30 4819 N 472.992 0.995999 -1.22138 0
M  V30 4820 C 473.939 2.08551 -0.988687 0
M  V30 4821 C 474.909 1.65864 0.0885021 0
M  V30 4822 O 476.094 1.90704 -0.0604589 0
M  V30 4823 C 473.234 3.40374 -0.569191 0
M  V30 4824 C 472.347 3.96421 -1.71681 0
M  V30 4825 C 471.482 5.1639 -1.2456 0
M  V30 4826 C 470.521 5.64567 -2.36497 0
M  V30 4827 N 469.658 6.75777 -1.90445 0
M  V30 4828 H 474.498 2.2779 -1.92135 0
M  V30 4829 H 472.035 1.1168 -0.957388 0
M  V30 4830 H 473.993 4.16068 -0.307166 0
M  V30 4831 H 472.623 3.21145 0.326462 0
M  V30 4832 H 471.675 3.17628 -2.09324 0
M  V30 4833 H 472.987 4.2816 -2.55891 0
M  V30 4834 H 472.141 5.99362 -0.940774 0
M  V30 4835 H 470.88 4.86266 -0.373662 0
M  V30 4836 H 469.885 4.80185 -2.67772 0
M  V30 4837 H 471.11 5.96716 -3.24202 0
M  V30 4838 H 469.056 6.47443 -1.05609 0
M  V30 4839 H 468.973 7.06818 -2.68223 0
M  V30 4840 H 470.241 7.62262 -1.63022 0
M  V30 4841 N 474.47 1.03057 1.19235 0
M  V30 4842 C 475.881 0.757449 1.70645 0
M  V30 4843 C 476.232 -0.722735 1.82403 0
M  V30 4844 O 475.357 -1.56325 1.49638 0
M  V30 4845 C 475.952 1.36833 3.09939 0
M  V30 4846 C 474.511 1.14375 3.58602 0
M  V30 4847 C 473.658 1.46533 2.35422 0
M  V30 4848 H 476.609 1.19828 1.04052 0
M  V30 4849 H 476.63 0.766184 3.72706 0
M  V30 4850 H 476.142 2.44562 3.01349 0
M  V30 4851 H 474.243 0.0847542 3.72504 0
M  V30 4852 H 474.356 1.83366 4.42622 0
M  V30 4853 H 472.72 0.884712 2.38841 0
M  V30 4854 H 473.503 2.55349 2.2946 0
M  V30 4855 N 475.948 -1.35272 0.808662 0
M  V30 4856 C 476.896 -2.31663 0.208606 0
M  V30 4857 C 477.89 -1.56731 -0.642778 0
M  V30 4858 O 479.096 -1.71843 -0.53571 0
M  V30 4859 H 475.471 -0.750421 0.0486993 0
M  V30 4860 H 477.442 -2.79814 1.03666 0
M  V30 4861 C 476.191 -3.42008 -0.626573 0
M  V30 4862 H 475.514 -3.99795 0.0192103 0
M  V30 4863 H 476.954 -4.11727 -1.01278 0
M  V30 4864 C 475.413 -2.85226 -1.79298 0
M  V30 4865 O 475.943 -2.78945 -2.89055 0
M  V30 4866 N 474.149 -2.42245 -1.60516 0
M  V30 4867 H 473.696 -2.47554 -0.712375 0
M  V30 4868 H 473.654 -2.04603 -2.38715 0
M  V30 4869 N 477.426 -0.562348 -1.47226 0
M  V30 4870 C 478.651 -0.0432632 -2.07355 0
M  V30 4871 C 479.076 1.24332 -1.41149 0
M  V30 4872 O 478.434 1.74603 -0.488226 0
M  V30 4873 C 478.482 0.130288 -3.60365 0
M  V30 4874 O 477.586 1.19166 -3.94808 0
M  V30 4875 H 476.927 -0.0536334 -0.66183 0
M  V30 4876 H 479.457 -0.779495 -1.89169 0
M  V30 4877 H 479.467 0.342881 -4.06557 0
M  V30 4878 H 478.142 -0.809389 -4.07948 0
M  V30 4879 H 476.719 0.959153 -3.60354 0
M  V30 4880 N 478.904 1.54736 -0.299062 0
M  V30 4881 C 480.315 1.8569 0.193971 0
M  V30 4882 C 480.666 1.22101 1.53577 0
M  V30 4883 O 479.791 0.51799 2.10109 0
M  V30 4884 C 480.386 3.36895 0.358733 0
M  V30 4885 C 478.945 3.67887 0.795986 0
M  V30 4886 C 478.092 2.77131 -0.096807 0
M  V30 4887 H 481.043 1.49934 -0.520134 0
M  V30 4888 H 481.064 3.61294 1.19361 0
M  V30 4889 H 480.576 3.83148 -0.617998 0
M  V30 4890 H 478.677 3.27151 1.78334 0
M  V30 4891 H 478.79 4.75114 0.616718 0
M  V30 4892 H 477.154 2.51153 0.423581 0
M  V30 4893 H 477.937 3.26204 -1.06986 0
M  V30 4894 N 480.382 0.0267497 1.57577 0
M  V30 4895 C 481.607 -0.666227 1.96408 0
M  V30 4896 C 482.032 -1.65004 0.903071 0
M  V30 4897 O 481.39 -1.80787 -0.136263 0
M  V30 4898 C 481.438 -1.35101 3.34335 0
M  V30 4899 O 480.542 -2.46623 3.30531 0
M  V30 4900 H 479.883 -0.175206 0.640468 0
M  V30 4901 H 482.413 0.0878977 2.04411 0
M  V30 4902 H 482.423 -1.70834 3.70513 0
M  V30 4903 H 481.098 -0.629844 4.11103 0
M  V30 4904 H 479.675 -2.13019 3.06068 0
M  V30 4905 N 481.861 -1.55662 -0.24637 0
M  V30 4906 C 483.138 -1.68272 -0.997198 0
M  V30 4907 C 483.518 -0.566785 -2.03349 0
M  V30 4908 O 482.866 0.429688 -2.24424 0
M  V30 4909 C 483.076 -3.08594 -1.63006 0
M  V30 4910 C 484.424 -3.6721 -2.13171 0
M  V30 4911 O 485.448 -3.11397 -1.72946 0
M  V30 4912 O 484.307 -4.65054 -2.87031 0
M  V30 4913 H 481.401 -0.684429 -0.464205 0
M  V30 4914 H 483.947 -1.67993 -0.240114 0
M  V30 4915 H 482.719 -3.81264 -0.880527 0
M  V30 4916 H 482.342 -3.12886 -2.45333 0
M  V30 4917 N 483.339 0.512053 -1.4905 0
M  V30 4918 C 484.567 1.29116 -1.61669 0
M  V30 4919 C 484.982 1.86655 -0.283787 0
M  V30 4920 O 484.339 1.67293 0.729331 0
M  V30 4921 C 484.39 2.4293 -2.67707 0
M  V30 4922 O 484.111 1.87758 -3.95826 0
M  V30 4923 C 485.612 3.34476 -2.90931 0
M  V30 4924 H 482.832 0.392009 -0.544583 0
M  V30 4925 H 485.376 0.615881 -1.95006 0
M  V30 4926 H 483.531 3.06308 -2.37179 0
M  V30 4927 H 483.945 2.62393 -4.54148 0
M  V30 4928 H 485.419 4.10642 -3.68886 0
M  V30 4929 H 485.896 3.90801 -2.00427 0
M  V30 4930 H 486.502 2.76874 -3.22832 0
M  V30 4931 N 484.817 1.37938 0.762283 0
M  V30 4932 C 486.063 1.33866 1.52341 0
M  V30 4933 C 486.396 -0.0738961 1.94059 0
M  V30 4934 O 485.671 -1.03326 1.64785 0
M  V30 4935 C 485.954 2.28644 2.78197 0
M  V30 4936 C 485.807 3.78722 2.42672 0
M  V30 4937 C 487.126 2.21702 3.80179 0
M  V30 4938 H 484.245 0.487593 0.55265 0
M  V30 4939 H 486.887 1.68717 0.873767 0
M  V30 4940 H 485.037 1.99055 3.33631 0
M  V30 4941 H 486.709 4.18948 1.93081 0
M  V30 4942 H 484.952 3.96827 1.75244 0
M  V30 4943 H 485.623 4.40486 3.3268 0
M  V30 4944 H 488.099 2.47805 3.34263 0
M  V30 4945 H 486.975 2.90143 4.65949 0
M  V30 4946 H 487.236 1.21301 4.25133 0
M  V30 4947 N 486.295 -0.989507 1.22664 0
M  V30 4948 C 487.227 -2.0824 0.957542 0
M  V30 4949 C 488.24 -1.6267 -0.0651098 0
M  V30 4950 O 489.429 -1.77695 0.169312 0
M  V30 4951 C 486.529 -3.36298 0.419145 0
M  V30 4952 C 485.702 -4.10882 1.49982 0
M  V30 4953 C 484.761 -5.17221 0.967904 0
M  V30 4954 O 483.787 -5.44613 1.65487 0
M  V30 4955 N 484.989 -5.80124 -0.20896 0
M  V30 4956 H 487.754 -2.31904 1.89843 0
M  V30 4957 H 485.315 -1.15552 1.13399 0
M  V30 4958 H 487.307 -4.04671 0.0485451 0
M  V30 4959 H 485.877 -3.09671 -0.426937 0
M  V30 4960 H 485.097 -3.37092 2.04359 0
M  V30 4961 H 486.385 -4.57482 2.22682 0
M  V30 4962 H 485.783 -5.60244 -0.783818 0
M  V30 4963 H 484.34 -6.49715 -0.520913 0
M  V30 4964 N 487.773 -1.03688 -1.18687 0
M  V30 4965 C 488.683 -0.634908 -2.25845 0
M  V30 4966 C 489.699 0.337065 -1.70704 0
M  V30 4967 O 490.875 0.192943 -2.00474 0
M  V30 4968 C 487.94 -0.000180054 -3.467 0
M  V30 4969 C 487.001 -1.02067 -4.1699 0
M  V30 4970 C 486.234 -0.41614 -5.32075 0
M  V30 4971 O 486.457 0.778712 -5.65059 0
M  V30 4972 O 485.391 -1.14296 -5.90948 0
M  V30 4973 H 489.217 -1.52757 -2.62486 0
M  V30 4974 H 486.802 -0.807533 -1.25695 0
M  V30 4975 H 488.684 0.353342 -4.19916 0
M  V30 4976 H 487.359 0.866367 -3.11891 0
M  V30 4977 H 486.266 -1.42592 -3.45859 0
M  V30 4978 H 487.599 -1.85786 -4.5579 0
M  V30 4979 N 489.251 1.34841 -0.815825 0
M  V30 4980 C 490.499 1.98107 -0.399744 0
M  V30 4981 C 490.82 1.65019 1.03894 0
M  V30 4982 O 490.09 0.937311 1.72021 0
M  V30 4983 H 488.67 0.732827 -0.144823 0
M  V30 4984 H 491.332 1.64599 -1.0437 0
M  V30 4985 H 490.428 3.07856 -0.512965 0
M  V30 4986 N 490.729 0.570148 1.46925 0
M  V30 4987 C 491.676 -0.170257 2.30171 0
M  V30 4988 C 492.646 -0.896099 1.39855 0
M  V30 4989 O 493.831 -0.889248 1.68811 0
M  V30 4990 C 490.971 -1.18605 3.24079 0
M  V30 4991 C 490.084 -0.464947 4.29491 0
M  V30 4992 C 489.219 -1.46716 5.10537 0
M  V30 4993 C 488.258 -0.731758 6.0771 0
M  V30 4994 N 487.395 -1.68142 6.81669 0
M  V30 4995 H 492.235 0.545713 2.92961 0
M  V30 4996 H 489.772 0.280938 1.44392 0
M  V30 4997 H 491.73 -1.78771 3.76957 0
M  V30 4998 H 490.36 -1.86989 2.63125 0
M  V30 4999 H 489.412 0.251506 3.79568 0
M  V30 5000 H 490.724 0.110548 4.98677 0
M  V30 5001 H 489.878 -2.14199 5.6763 0
M  V30 5002 H 488.617 -2.07658 4.41282 0
M  V30 5003 H 487.622 -0.0430787 5.49783 0
M  V30 5004 H 488.847 -0.127904 6.7898 0
M  V30 5005 H 486.793 -2.27918 6.15134 0
M  V30 5006 H 486.71 -1.15841 7.47072 0
M  V30 5007 H 487.978 -2.347 7.43328 0
M  V30 5008 N 492.207 -1.54576 0.307264 0
M  V30 5009 C 493.437 -2.04378 -0.302158 0
M  V30 5010 C 493.845 -1.18381 -1.47589 0
M  V30 5011 O 493.188 -0.20352 -1.82569 0
M  V30 5012 C 493.25 -3.50133 -0.815305 0
M  V30 5013 C 492.914 -4.56401 0.233977 0
M  V30 5014 C 493.911 -5.08884 1.06456 0
M  V30 5015 C 491.596 -5.0088 0.377478 0
M  V30 5016 C 493.59 -6.04394 2.02452 0
M  V30 5017 C 491.277 -5.96208 1.34088 0
M  V30 5018 C 492.275 -6.47849 2.16288 0
M  V30 5019 O 491.963 -7.41308 3.10994 0
M  V30 5020 H 491.695 -0.672502 -0.0686839 0
M  V30 5021 H 494.249 -2.00484 0.446682 0
M  V30 5022 H 492.479 -3.51371 -1.61478 0
M  V30 5023 H 494.168 -3.83098 -1.34129 0
M  V30 5024 H 494.934 -4.75311 0.964596 0
M  V30 5025 H 490.813 -4.60309 -0.252405 0
M  V30 5026 H 494.357 -6.44626 2.66652 0
M  V30 5027 H 490.254 -6.29198 1.44154 0
M  V30 5028 H 491.022 -7.5913 3.06045 0
M  V30 5029 N 493.685 -0.035106 -1.57561 0
M  V30 5030 C 494.931 0.64318 -1.92331 0
M  V30 5031 C 495.264 1.71434 -0.912368 0
M  V30 5032 O 494.539 1.94395 0.0640303 0
M  V30 5033 C 494.822 1.25411 -3.37556 0
M  V30 5034 C 494.675 0.192109 -4.4939 0
M  V30 5035 C 495.994 2.17041 -3.82859 0
M  V30 5036 H 493.113 0.232341 -0.699419 0
M  V30 5037 H 495.755 -0.0935889 -1.89769 0
M  V30 5038 H 493.905 1.88205 -3.39869 0
M  V30 5039 H 495.577 -0.438849 -4.59208 0
M  V30 5040 H 493.82 -0.481725 -4.31117 0
M  V30 5041 H 494.491 0.659292 -5.48049 0
M  V30 5042 H 496.967 1.64228 -3.8232 0
M  V30 5043 H 495.843 2.56738 -4.85157 0
M  V30 5044 H 496.104 3.06401 -3.18702 0
M  V30 5045 N 495.163 1.55791 0.238111 0
M  V30 5046 C 496.412 1.77234 0.962868 0
M  V30 5047 C 496.725 0.600661 1.86149 0
M  V30 5048 O 497.931 0.698315 2.62366 0
M  V30 5049 C 496.387 3.13808 1.76218 0
M  V30 5050 C 495.995 4.3865 0.910518 0
M  V30 5051 C 497.739 3.44585 2.47914 0
M  V30 5052 C 495.646 5.66252 1.70623 0
M  V30 5053 H 494.576 0.660731 0.36325 0
M  V30 5054 H 497.227 1.8221 0.217242 0
M  V30 5055 H 495.609 3.02963 2.55009 0
M  V30 5056 H 496.783 4.60507 0.164316 0
M  V30 5057 H 495.098 4.15271 0.30647 0
M  V30 5058 H 497.695 4.3714 3.07917 0
M  V30 5059 H 498.038 2.66314 3.19973 0
M  V30 5060 H 498.571 3.56685 1.76127 0
M  V30 5061 H 495.31 6.47369 1.02923 0
M  V30 5062 H 494.83 5.48483 2.42748 0
M  V30 5063 H 496.509 6.05829 2.27114 0
M  V30 5064 N 496.642 -0.504142 1.49319 0
M  V30 5065 C 497.872 -1.28071 1.62116 0
M  V30 5066 C 498.28 -1.86955 0.290566 0
M  V30 5067 O 497.623 -1.68415 -0.733616 0
M  V30 5068 C 497.685 -2.4521 2.62893 0
M  V30 5069 C 497.349 -2.07218 4.0732 0
M  V30 5070 C 498.346 -1.61375 4.94221 0
M  V30 5071 C 496.031 -2.16949 4.53033 0
M  V30 5072 C 498.025 -1.25763 6.2487 0
M  V30 5073 C 495.712 -1.80949 5.83696 0
M  V30 5074 C 496.71 -1.3543 6.69438 0
M  V30 5075 O 496.398 -0.99915 7.97667 0
M  V30 5076 H 496.13 -0.394763 0.54876 0
M  V30 5077 H 498.684 -0.612118 1.96067 0
M  V30 5078 H 496.914 -3.15134 2.24115 0
M  V30 5079 H 498.603 -3.0724 2.65252 0
M  V30 5080 H 499.369 -1.53306 4.60133 0
M  V30 5081 H 495.248 -2.5133 3.86463 0
M  V30 5082 H 498.792 -0.901631 6.91749 0
M  V30 5083 H 494.689 -1.88667 6.17313 0
M  V30 5084 H 495.457 -1.13089 8.1065 0
M  V30 5085 N 498.12 -1.38341 -0.754957 0
M  V30 5086 C 499.067 -1.3546 -1.86867 0
M  V30 5087 C 500.037 -0.217369 -1.64672 0
M  V30 5088 O 501.222 -0.409383 -1.86356 0
M  V30 5089 C 498.362 -1.18413 -3.24149 0
M  V30 5090 C 497.475 -2.41511 -3.58185 0
M  V30 5091 C 496.61 -2.17205 -4.84763 0
M  V30 5092 C 495.649 -3.36081 -5.11582 0
M  V30 5093 N 494.786 -3.11219 -6.29354 0
M  V30 5094 H 499.626 -2.30672 -1.88664 0
M  V30 5095 H 497.163 -1.14607 -0.922154 0
M  V30 5096 H 499.121 -1.06545 -4.03366 0
M  V30 5097 H 497.751 -0.268397 -3.21682 0
M  V30 5098 H 496.803 -2.64056 -2.73822 0
M  V30 5099 H 498.115 -3.30115 -3.73932 0
M  V30 5100 H 497.269 -2.02465 -5.7192 0
M  V30 5101 H 496.008 -1.25964 -4.71152 0
M  V30 5102 H 495.013 -3.51341 -4.22894 0
M  V30 5103 H 496.238 -4.28196 -5.27091 0
M  V30 5104 H 494.184 -2.22624 -6.17069 0
M  V30 5105 H 494.101 -3.93373 -6.45596 0
M  V30 5106 H 495.369 -3.00132 -7.19403 0
M  V30 5107 N 499.598 0.982988 -1.23187 0
M  V30 5108 C 501.014 1.2487 -0.993967 0
M  V30 5109 C 501.214 1.99155 0.306498 0
M  V30 5110 O 500.27 2.30688 1.0266 0
M  V30 5111 C 501.583 2.05078 -2.19917 0
M  V30 5112 C 503.131 2.18227 -2.2438 0
M  V30 5113 C 503.606 3.01825 -3.44479 0
M  V30 5114 N 505.097 3.09411 -3.44702 0
M  V30 5115 C 505.832 3.74412 -4.34285 0
M  V30 5116 N 505.328 4.41259 -5.341 0
M  V30 5117 N 507.121 3.71273 -4.22035 0
M  V30 5118 H 499.272 0.485253 -2.06783 0
M  V30 5119 H 501.535 0.276979 -0.906635 0
M  V30 5120 H 501.241 1.57867 -3.14279 0
M  V30 5121 H 501.115 3.05829 -2.2079 0
M  V30 5122 H 503.502 2.64648 -1.30559 0
M  V30 5123 H 503.583 1.16873 -2.2754 0
M  V30 5124 H 503.227 2.56102 -4.38605 0
M  V30 5125 H 503.157 4.03342 -3.38559 0
M  V30 5126 H 505.648 2.61845 -2.7248 0
M  V30 5127 H 505.961 4.88629 -5.98717 0
M  V30 5128 H 504.306 4.39975 -5.38002 0
M  V30 5129 H 507.497 3.18217 -3.43301 0
M  V30 5130 H 507.67 4.21649 -4.92053 0
M  V30 5131 N 501.076 1.04316 1.18135 0
M  V30 5132 C 502.306 0.767003 1.91835 0
M  V30 5133 C 502.714 -0.68002 1.76557 0
M  V30 5134 O 502.057 -1.47548 1.09432 0
M  V30 5135 C 502.119 1.05674 3.43618 0
M  V30 5136 C 501.783 2.49818 3.82675 0
M  V30 5137 C 502.78 3.48003 3.86251 0
M  V30 5138 C 500.465 2.84596 4.13897 0
M  V30 5139 C 502.459 4.79016 4.20503 0
M  V30 5140 C 500.146 4.15813 4.4782 0
M  V30 5141 C 501.144 5.12834 4.51099 0
M  V30 5142 O 500.832 6.41699 4.84229 0
M  V30 5143 H 500.564 0.278948 0.615763 0
M  V30 5144 H 503.118 1.3946 1.50798 0
M  V30 5145 H 501.348 0.372029 3.84906 0
M  V30 5146 H 503.037 0.767994 3.98568 0
M  V30 5147 H 503.803 3.22475 3.62264 0
M  V30 5148 H 499.682 2.09748 4.1052 0
M  V30 5149 H 503.226 5.54739 4.22978 0
M  V30 5150 H 499.123 4.41109 4.71268 0
M  V30 5151 H 499.891 6.46387 5.02121 0
M  V30 5152 N 502.554 -1.34406 0.822964 0
M  V30 5153 C 503.502 -2.31428 0.233165 0
M  V30 5154 C 504.496 -1.57404 -0.626118 0
M  V30 5155 O 505.702 -1.72402 -0.517453 0
M  V30 5156 H 502.077 -0.749863 0.0566557 0
M  V30 5157 H 504.048 -2.78699 1.06628 0
M  V30 5158 C 502.797 -3.42653 -0.590264 0
M  V30 5159 H 502.12 -3.99753 0.0616129 0
M  V30 5160 H 503.56 -4.12778 -0.969054 0
M  V30 5161 C 502.019 -2.87112 -1.76262 0
M  V30 5162 O 502.549 -2.81995 -2.8608 0
M  V30 5163 N 500.755 -2.43934 -1.57938 0
M  V30 5164 H 500.302 -2.48296 -0.686078 0
M  V30 5165 H 500.26 -2.07123 -2.36532 0
M  V30 5166 N 504.032 -0.577932 -1.46621 0
M  V30 5167 C 505.309 0.00495287 -1.95599 0
M  V30 5168 C 505.689 1.46428 -1.5206 0
M  V30 5169 O 505.037 2.1517 -0.769046 0
M  V30 5170 C 505.247 -0.162114 -3.48623 0
M  V30 5171 C 506.595 -0.0274623 -4.24591 0
M  V30 5172 O 507.619 -0.0907067 -3.56084 0
M  V30 5173 O 506.478 0.1122 -5.46385 0
M  V30 5174 H 503.572 0.0525057 -0.825332 0
M  V30 5175 H 506.118 -0.645914 -1.56927 0
M  V30 5176 H 504.89 -1.17679 -3.73185 0
M  V30 5177 H 504.513 0.525407 -3.94113 0
M  V30 5178 N 505.51 1.54411 -0.315457 0
M  V30 5179 C 506.738 2.04833 0.291738 0
M  V30 5180 C 507.153 1.19203 1.46411 0
M  V30 5181 O 506.51 0.220867 1.81159 0
M  V30 5182 C 506.561 3.53969 0.73404 0
M  V30 5183 O 506.282 4.36346 -0.391682 0
M  V30 5184 C 507.783 4.2045 1.40489 0
M  V30 5185 H 505.003 0.668195 0.0612947 0
M  V30 5186 H 507.547 1.99276 -0.45929 0
M  V30 5187 H 505.702 3.5984 1.43506 0
M  V30 5188 H 506.116 5.24481 -0.0447088 0
M  V30 5189 H 507.59 5.26278 1.66539 0
M  V30 5190 H 508.067 3.71067 2.3496 0
M  V30 5191 H 508.673 4.18694 0.746662 0
M  V30 5192 N 506.988 0.0434614 1.5754 0
M  V30 5193 C 508.228 -0.636023 1.94253 0
M  V30 5194 C 508.592 -1.68461 0.921132 0
M  V30 5195 O 509.793 -2.41762 1.17494 0
M  V30 5196 C 508.064 -1.22357 3.35803 0
M  V30 5197 S 509.623 -1.92213 3.94461 0
M  V30 5198 H 506.441 -0.209041 0.679575 0
M  V30 5199 H 509.043 0.110556 1.95187 0
M  V30 5200 H 507.747 -0.448162 4.07946 0
M  V30 5201 H 507.278 -2.00713 3.38346 0
M  V30 5202 H 509.293 -3.20199 3.79061 0
M  V30 5203 N 508.466 -1.55915 -0.229846 0
M  V30 5204 C 509.877 -1.68809 -0.797531 0
M  V30 5205 C 510.228 -0.643995 -1.8533 0
M  V30 5206 O 509.353 0.206492 -2.15413 0
M  V30 5207 C 509.948 -3.06043 -1.45338 0
M  V30 5208 C 508.507 -3.20819 -1.96856 0
M  V30 5209 C 507.654 -2.6472 -0.825736 0
M  V30 5210 H 510.605 -1.58699 -0.00533733 0
M  V30 5211 H 510.626 -3.01438 -2.32196 0
M  V30 5212 H 510.138 -3.82012 -0.684743 0
M  V30 5213 H 508.239 -2.49704 -2.76548 0
M  V30 5214 H 508.352 -4.27937 -2.15423 0
M  V30 5215 H 506.716 -2.22985 -1.23084 0
M  V30 5216 H 507.499 -3.43229 -0.0699019 0
M  V30 5217 N 509.944 0.496216 -1.49584 0
M  V30 5218 C 511.221 1.25755 -1.49816 0
M  V30 5219 C 511.601 2.09859 -0.228572 0
M  V30 5220 O 510.949 2.14449 0.788908 0
M  V30 5221 C 511.159 2.11017 -2.7798 0
M  V30 5222 C 512.507 2.70047 -3.27658 0
M  V30 5223 O 513.531 2.21281 -2.79129 0
M  V30 5224 O 512.39 3.58834 -4.1219 0
M  V30 5225 H 509.484 0.569322 -0.599834 0
M  V30 5226 H 512.03 0.510094 -1.61852 0
M  V30 5227 H 510.802 1.48879 -3.61871 0
M  V30 5228 H 510.425 2.92947 -2.68827 0
M  V30 5229 N 511.423 1.38739 0.74761 0
M  V30 5230 C 512.333 1.38696 1.89211 0
M  V30 5231 C 513.349 0.283303 1.71678 0
M  V30 5232 O 514.525 0.522713 1.94498 0
M  V30 5233 C 511.59 1.21662 3.24653 0
M  V30 5234 C 510.651 2.41886 3.54669 0
M  V30 5235 C 509.884 2.25655 4.83648 0
M  V30 5236 O 510.107 1.25339 5.56459 0
M  V30 5237 O 509.041 3.14372 5.13277 0
M  V30 5238 H 512.867 2.35143 1.92202 0
M  V30 5239 H 510.452 1.19721 0.893708 0
M  V30 5240 H 512.334 1.14246 4.05618 0
M  V30 5241 H 511.009 0.283024 3.2246 0
M  V30 5242 H 509.916 2.54877 2.73841 0
M  V30 5243 H 511.249 3.33895 3.61628 0
M  V30 5244 N 512.901 -0.976442 1.23707 0
M  V30 5245 C 513.833 -2.07212 0.979574 0
M  V30 5246 C 514.846 -1.6273 -0.0478528 0
M  V30 5247 O 516.035 -1.77506 0.18815 0
M  V30 5248 C 513.135 -3.35835 0.45479 0
M  V30 5249 C 512.308 -4.09268 1.54331 0
M  V30 5250 C 511.367 -5.16166 1.02271 0
M  V30 5251 O 510.393 -5.42827 1.71254 0
M  V30 5252 N 511.595 -5.80313 -0.147419 0
M  V30 5253 H 514.36 -2.29878 1.92292 0
M  V30 5254 H 511.921 -1.14343 1.14618 0
M  V30 5255 H 513.913 -4.04597 0.0914631 0
M  V30 5256 H 512.483 -3.10106 -0.394068 0
M  V30 5257 H 511.703 -3.34906 2.07923 0
M  V30 5258 H 512.991 -4.55095 2.27522 0
M  V30 5259 H 512.389 -5.61043 -0.724353 0
M  V30 5260 H 510.946 -6.50231 -0.451972 0
M  V30 5261 N 514.379 -1.04941 -1.1758 0
M  V30 5262 C 515.656 -0.671918 -1.83697 0
M  V30 5263 C 516.036 0.847929 -1.93322 0
M  V30 5264 O 515.384 1.75287 -1.46583 0
M  V30 5265 C 515.594 -1.35797 -3.21497 0
M  V30 5266 C 516.942 -1.4944 -3.97433 0
M  V30 5267 O 517.966 -1.31678 -3.30967 0
M  V30 5268 O 516.825 -1.78463 -5.1654 0
M  V30 5269 H 513.919 -0.236212 -0.792548 0
M  V30 5270 H 516.465 -1.14884 -1.24899 0
M  V30 5271 H 515.237 -2.39498 -3.09446 0
M  V30 5272 H 514.86 -0.870236 -3.8796 0
M  V30 5273 N 515.857 1.33968 -0.830081 0
M  V30 5274 C 517.087 2.01987 -0.434142 0
M  V30 5275 C 517.495 1.62639 0.96671 0
M  V30 5276 O 516.838 0.831151 1.63822 0
M  V30 5277 C 516.9 3.5648 -0.465018 0
M  V30 5278 C 516.564 4.19176 -1.82045 0
M  V30 5279 C 517.561 4.39181 -2.78237 0
M  V30 5280 C 515.246 4.55792 -2.11089 0
M  V30 5281 C 517.24 4.94937 -4.01642 0
M  V30 5282 C 514.927 5.11258 -3.34752 0
M  V30 5283 C 515.925 5.30775 -4.29845 0
M  V30 5284 O 515.613 5.85064 -5.51322 0
M  V30 5285 H 515.345 0.653847 -0.171639 0
M  V30 5286 H 517.899 1.72066 -1.12171 0
M  V30 5287 H 516.129 3.8569 0.279284 0
M  V30 5288 H 517.818 4.05804 -0.0881334 0
M  V30 5289 H 518.584 4.11249 -2.57097 0
M  V30 5290 H 514.463 4.39901 -1.3787 0
M  V30 5291 H 518.007 5.10086 -4.75876 0
M  V30 5292 H 513.904 5.38619 -3.55753 0
M  V30 5293 H 514.672 6.03489 -5.5294 0
M  V30 5294 N 517.335 0.585699 1.46312 0
M  V30 5295 C 518.267 -0.183687 2.28463 0
M  V30 5296 C 519.28 -0.85264 1.38686 0
M  V30 5297 O 520.469 -0.721701 1.6326 0
M  V30 5298 C 517.569 -1.27977 3.13808 0
M  V30 5299 C 516.742 -0.702164 4.31727 0
M  V30 5300 C 515.801 -1.68633 4.98447 0
M  V30 5301 O 514.827 -1.22121 5.55945 0
M  V30 5302 N 516.029 -3.02047 4.95729 0
M  V30 5303 H 518.794 0.521127 2.95134 0
M  V30 5304 H 516.355 0.423673 1.56258 0
M  V30 5305 H 518.347 -1.9375 3.55307 0
M  V30 5306 H 516.917 -1.8874 2.4919 0
M  V30 5307 H 516.137 0.1331 3.93975 0
M  V30 5308 H 517.425 -0.296101 5.07938 0
M  V30 5309 H 516.823 -3.42457 4.50266 0
M  V30 5310 H 515.38 -3.63301 5.41161 0
M  V30 5311 N 518.813 -1.54241 0.323641 0
M  V30 5312 C 520.062 -1.9975 -0.279806 0
M  V30 5313 C 520.375 -1.2156 -1.5324 0
M  V30 5314 O 521.581 -1.57447 -2.21185 0
M  V30 5315 C 520.037 -3.55686 -0.549115 0
M  V30 5316 C 519.645 -4.4271 0.686432 0
M  V30 5317 C 521.389 -4.09663 -1.11251 0
M  V30 5318 C 519.296 -5.90119 0.389022 0
M  V30 5319 H 518.226 -0.746177 -0.10833 0
M  V30 5320 H 520.877 -1.78248 0.435877 0
M  V30 5321 H 519.259 -3.73176 -1.32499 0
M  V30 5322 H 520.433 -4.36996 1.46188 0
M  V30 5323 H 518.748 -3.99623 1.17005 0
M  V30 5324 H 521.345 -5.17386 -1.34965 0
M  V30 5325 H 521.688 -3.61651 -2.06191 0
M  V30 5326 H 522.221 -3.95806 -0.39782 0
M  V30 5327 H 518.96 -6.42326 1.30759 0
M  V30 5328 H 518.48 -5.98785 -0.348722 0
M  V30 5329 H 520.159 -6.47 -0.0011164 0
M  V30 5330 N 520.291 -0.0518155 -1.57515 0
M  V30 5331 C 521.707 0.304735 -1.56664 0
M  V30 5332 C 521.907 1.71395 -1.05953 0
M  V30 5333 O 520.963 2.42123 -0.716414 0
M  V30 5334 C 522.276 0.132614 -3.00407 0
M  V30 5335 C 523.824 0.20367 -3.12337 0
M  V30 5336 C 524.299 0.0600706 -4.57961 0
M  V30 5337 N 525.79 0.116326 -4.63054 0
M  V30 5338 C 526.525 0.0293363 -5.73392 0
M  V30 5339 N 526.021 -0.110038 -6.92713 0
M  V30 5340 N 527.814 0.0849651 -5.62036 0
M  V30 5341 H 519.965 -0.973056 -1.888 0
M  V30 5342 H 522.228 -0.377781 -0.869474 0
M  V30 5343 H 521.934 -0.839019 -3.41546 0
M  V30 5344 H 521.808 0.893376 -3.66468 0
M  V30 5345 H 524.195 1.16578 -2.71097 0
M  V30 5346 H 524.276 -0.587857 -2.48954 0
M  V30 5347 H 523.92 -0.898715 -4.99886 0
M  V30 5348 H 523.85 0.87075 -5.19351 0
M  V30 5349 H 526.341 0.22327 -3.7724 0
M  V30 5350 H 526.654 -0.169104 -7.72615 0
M  V30 5351 H 524.999 -0.145132 -6.94848 0
M  V30 5352 H 528.19 0.192411 -4.67704 0
M  V30 5353 H 528.363 0.0137131 -6.47999 0
M  V30 5354 N 521.769 1.56035 0.221574 0
M  V30 5355 C 522.702 1.87427 1.30178 0
M  V30 5356 C 523.68 0.731658 1.45209 0
M  V30 5357 O 524.864 0.980016 1.61022 0
M  V30 5358 C 521.991 2.08127 2.67209 0
M  V30 5359 C 521.037 3.30813 2.69194 0
M  V30 5360 S 521.87 4.86738 2.23263 0
M  V30 5361 C 523.026 5.10474 3.62171 0
M  V30 5362 H 523.259 2.78756 1.03355 0
M  V30 5363 H 520.792 1.48469 0.423813 0
M  V30 5364 H 522.75 2.20736 3.46101 0
M  V30 5365 H 521.411 1.17595 2.91256 0
M  V30 5366 H 520.604 3.42341 3.6989 0
M  V30 5367 H 520.206 3.1706 1.98366 0
M  V30 5368 H 522.498 4.9937 4.5786 0
M  V30 5369 H 523.441 6.12359 3.55558 0
M  V30 5370 H 523.849 4.38208 3.55857 0
M  V30 5371 N 523.247 -0.488276 1.49845 0
M  V30 5372 C 524.21 -1.57069 1.66919 0
M  V30 5373 C 525.21 -1.51445 0.540479 0
M  V30 5374 O 526.4 -1.5437 0.807188 0
M  V30 5375 C 523.532 -2.96718 1.67844 0
M  V30 5376 H 524.725 -1.43254 2.63474 0
M  V30 5377 H 522.278 -0.713435 1.39068 0
M  V30 5378 H 523.013 -3.15996 0.7292 0
M  V30 5379 H 522.798 -3.02208 2.49826 0
M  V30 5380 H 524.288 -3.75335 1.83066 0
M  V30 5381 N 524.725 -1.39134 -0.740242 0
M  V30 5382 C 525.672 -1.37434 -1.8542 0
M  V30 5383 C 526.642 -0.234822 -1.64432 0
M  V30 5384 O 527.827 -0.429125 -1.85912 0
M  V30 5385 C 524.967 -1.21844 -3.22875 0
M  V30 5386 C 524.08 -2.45296 -3.55603 0
M  V30 5387 C 523.215 -2.22334 -4.82432 0
M  V30 5388 C 522.254 -3.41488 -5.07988 0
M  V30 5389 N 521.391 -3.17877 -6.26018 0
M  V30 5390 H 526.231 -2.3266 -1.86207 0
M  V30 5391 H 523.768 -1.15578 -0.909946 0
M  V30 5392 H 525.726 -1.10818 -4.02213 0
M  V30 5393 H 524.356 -0.3025 -3.21379 0
M  V30 5394 H 523.408 -2.66945 -2.71006 0
M  V30 5395 H 524.72 -3.34063 -3.7041 0
M  V30 5396 H 523.874 -2.0852 -5.69741 0
M  V30 5397 H 522.613 -1.30954 -4.6979 0
M  V30 5398 H 521.618 -3.55807 -4.19144 0
M  V30 5399 H 522.843 -4.33763 -5.22519 0
M  V30 5400 H 520.789 -2.29156 -6.14673 0
M  V30 5401 H 520.706 -4.00198 -6.41387 0
M  V30 5402 H 521.974 -3.07746 -7.16179 0
M  V30 5403 N 526.204 0.969867 -1.24223 0
M  V30 5404 C 527.429 1.75289 -1.10853 0
M  V30 5405 C 527.854 1.85091 0.335079 0
M  V30 5406 O 527.212 1.32024 1.24255 0
M  V30 5407 C 527.26 3.15255 -1.75062 0
M  V30 5408 O 526.364 3.99589 -1.01992 0
M  V30 5409 H 525.705 0.538904 -0.387915 0
M  V30 5410 H 528.235 1.21675 -1.64488 0
M  V30 5411 H 528.245 3.65787 -1.80731 0
M  V30 5412 H 526.92 3.07436 -2.801 0
M  V30 5413 H 525.497 3.58077 -1.04094 0
M  V30 5414 N 527.682 1.05563 1.17022 0
M  V30 5415 C 528.907 0.788437 1.91829 0
M  V30 5416 C 529.332 -0.650356 1.76499 0
M  V30 5417 O 528.69 -1.45229 1.08527 0
M  V30 5418 C 528.738 1.1786 3.40795 0
M  V30 5419 O 527.842 0.312965 4.11211 0
M  V30 5420 H 527.183 0.288794 0.597908 0
M  V30 5421 H 529.713 1.40948 1.48307 0
M  V30 5422 H 529.723 1.14697 3.91546 0
M  V30 5423 H 528.398 2.22666 3.51273 0
M  V30 5424 H 526.975 0.405515 3.70689 0
M  V30 5425 N 529.16 -1.33526 0.837174 0
M  V30 5426 C 530.39 -2.01754 0.444848 0
M  V30 5427 C 530.798 -1.63149 -0.958072 0
M  V30 5428 O 530.141 -0.839827 -1.63379 0
M  V30 5429 C 530.203 -3.56228 0.483917 0
M  V30 5430 C 529.867 -4.18205 1.84265 0
M  V30 5431 C 530.864 -4.37699 2.80563 0
M  V30 5432 C 528.549 -4.54667 2.13503 0
M  V30 5433 C 530.543 -4.928 4.04261 0
M  V30 5434 C 528.23 -5.09475 3.37458 0
M  V30 5435 C 529.228 -5.28488 4.32654 0
M  V30 5436 O 528.916 -5.82132 5.54417 0
M  V30 5437 H 528.648 -0.652928 0.175104 0
M  V30 5438 H 531.202 -1.71469 1.13082 0
M  V30 5439 H 529.432 -3.85833 -0.258826 0
M  V30 5440 H 531.121 -4.05752 0.109653 0
M  V30 5441 H 531.887 -4.0988 2.59274 0
M  V30 5442 H 527.766 -4.39164 1.40201 0
M  V30 5443 H 531.31 -5.07555 4.78574 0
M  V30 5444 H 527.207 -5.36725 3.58604 0
M  V30 5445 H 527.975 -6.00548 5.56133 0
M  V30 5446 N 530.638 -0.59345 -1.46 0
M  V30 5447 C 531.585 0.133618 -2.30413 0
M  V30 5448 C 532.555 0.873736 -1.41262 0
M  V30 5449 O 533.74 0.862279 -1.70204 0
M  V30 5450 C 530.88 1.13434 -3.25924 0
M  V30 5451 C 529.993 0.39656 -4.30176 0
M  V30 5452 C 529.128 1.38575 -5.12806 0
M  V30 5453 C 528.167 0.634984 -6.08797 0
M  V30 5454 N 527.304 1.57276 -6.84258 0
M  V30 5455 H 532.144 -0.592252 -2.92055 0
M  V30 5456 H 529.681 -0.303874 -1.43927 0
M  V30 5457 H 531.639 1.72752 -3.79753 0
M  V30 5458 H 530.269 1.82779 -2.66067 0
M  V30 5459 H 529.321 -0.311861 -3.79119 0
M  V30 5460 H 530.633 -0.189869 -4.98438 0
M  V30 5461 H 529.787 2.05141 -5.70966 0
M  V30 5462 H 528.526 2.00611 -4.44529 0
M  V30 5463 H 527.531 -0.0443925 -5.49782 0
M  V30 5464 H 528.756 0.0198678 -6.79097 0
M  V30 5465 H 526.702 2.18103 -6.18682 0
M  V30 5466 H 526.619 1.03941 -7.48821 0
M  V30 5467 H 527.887 2.22844 -7.46968 0
M  V30 5468 N 532.116 1.54067 -0.331816 0
M  V30 5469 C 533.527 1.86059 0.15454 0
M  V30 5470 C 533.878 1.25331 1.50952 0
M  V30 5471 O 533.003 0.562441 2.08963 0
M  V30 5472 C 533.598 3.37581 0.287192 0
M  V30 5473 C 532.157 3.69493 0.717773 0
M  V30 5474 C 531.304 2.76863 -0.155569 0
M  V30 5475 H 534.255 1.48797 -0.55182 0
M  V30 5476 H 534.276 3.63744 1.11671 0
M  V30 5477 H 533.788 3.81751 -0.699131 0
M  V30 5478 H 531.889 3.3086 1.71354 0
M  V30 5479 H 532.002 4.76315 0.5158 0
M  V30 5480 H 530.366 2.51995 0.370213 0
M  V30 5481 H 531.149 3.23861 -1.13881 0
M  V30 5482 N 533.594 0.0601682 1.57485 0
M  V30 5483 C 534.842 -0.610386 1.92662 0
M  V30 5484 C 535.163 -1.70849 0.939981 0
M  V30 5485 O 534.433 -1.95895 -0.0137455 0
M  V30 5486 H 533.013 -0.228457 0.711208 0
M  V30 5487 H 535.675 0.115288 1.94559 0
M  V30 5488 H 534.771 -1.0432 2.94149 0
M  V30 5489 N 535.072 -1.5615 -0.213296 0
M  V30 5490 C 536.488 -1.49327 -0.56336 0
M  V30 5491 C 536.688 -0.756826 -1.86747 0
M  V30 5492 O 535.744 -0.299866 -2.50713 0
M  V30 5493 C 537.057 -2.9392 -0.634944 0
M  V30 5494 C 538.605 -3.04487 -0.725013 0
M  V30 5495 C 539.08 -4.50456 -0.82787 0
M  V30 5496 N 540.571 -4.54533 -0.891876 0
M  V30 5497 C 541.306 -5.64766 -0.991315 0
M  V30 5498 N 540.802 -6.84733 -1.05419 0
M  V30 5499 N 542.595 -5.52637 -1.02709 0
M  V30 5500 H 534.746 -2.02453 0.642366 0
M  V30 5501 H 537.009 -0.920548 0.226487 0
M  V30 5502 H 536.715 -3.50783 0.253859 0
M  V30 5503 H 536.589 -3.46274 -1.49579 0
M  V30 5504 H 538.976 -2.47685 -1.60425 0
M  V30 5505 H 539.057 -2.55289 0.161669 0
M  V30 5506 H 538.701 -5.07878 0.0469464 0
M  V30 5507 H 538.631 -4.97369 -1.73009 0
M  V30 5508 H 541.122 -3.68141 -0.85327 0
M  V30 5509 H 541.435 -7.64493 -1.13007 0
M  V30 5510 H 539.78 -6.87427 -1.02318 0
M  V30 5511 H 542.971 -4.5784 -0.974687 0
M  V30 5512 H 543.144 -6.38576 -1.10113 0
M  V30 5513 N 536.55 0.480323 -1.50102 0
M  V30 5514 C 537.797 1.23307 -1.60629 0
M  V30 5515 C 538.125 1.92135 -0.302375 0
M  V30 5516 O 537.38 1.82321 0.711154 0
M  V30 5517 C 537.679 2.30708 -2.72963 0
M  V30 5518 C 537.345 1.79195 -4.13763 0
M  V30 5519 C 536.007 1.64867 -4.52076 0
M  V30 5520 C 538.359 1.40878 -5.018 0
M  V30 5521 C 535.687 1.10631 -5.76175 0
M  V30 5522 C 538.039 0.880872 -6.26437 0
M  V30 5523 C 536.703 0.724146 -6.6356 0
M  V30 5524 H 535.973 0.451211 -0.587784 0
M  V30 5525 H 538.62 0.53051 -1.84005 0
M  V30 5526 H 536.925 3.06834 -2.43639 0
M  V30 5527 H 538.622 2.88692 -2.78313 0
M  V30 5528 H 535.212 1.91313 -3.83533 0
M  V30 5529 H 539.396 1.50786 -4.7284 0
M  V30 5530 H 534.652 0.972263 -6.0362 0
M  V30 5531 H 538.826 0.575269 -6.9402 0
M  V30 5532 H 536.453 0.301722 -7.59601 0
M  V30 5533 N 538.028 1.39524 0.732853 0
M  V30 5534 C 539.276 1.36594 1.48951 0
M  V30 5535 C 539.597 -0.0367507 1.94965 0
M  V30 5536 O 538.867 -0.988391 1.69138 0
M  V30 5537 H 537.447 0.502673 0.552566 0
M  V30 5538 H 540.109 1.74411 0.869869 0
M  V30 5539 H 539.205 2.03 2.3706 0
M  V30 5540 N 539.506 -0.963266 1.24736 0
M  V30 5541 C 540.754 -1.70343 1.08755 0
M  V30 5542 C 541.075 -1.91387 -0.373619 0
M  V30 5543 O 540.345 -1.4948 -1.2662 0
M  V30 5544 H 538.925 -0.631224 0.399456 0
M  V30 5545 H 541.587 -1.15859 1.56725 0
M  V30 5546 H 540.683 -2.68616 1.58909 0
M  V30 5547 N 540.985 -1.06182 -1.16461 0
M  V30 5548 C 541.932 -0.671613 -2.20812 0
M  V30 5549 C 542.902 0.331186 -1.62765 0
M  V30 5550 O 544.087 0.22033 -1.89524 0
M  V30 5551 C 541.227 -0.063029 -3.45042 0
M  V30 5552 C 540.34 -1.11587 -4.1734 0
M  V30 5553 C 539.475 -0.473546 -5.29085 0
M  V30 5554 C 538.514 -1.51 -5.93182 0
M  V30 5555 N 537.651 -0.891118 -6.96422 0
M  V30 5556 H 542.491 -1.56589 -2.53542 0
M  V30 5557 H 540.028 -0.782951 -1.24532 0
M  V30 5558 H 541.986 0.307344 -4.16066 0
M  V30 5559 H 540.616 0.794663 -3.12866 0
M  V30 5560 H 539.668 -1.60396 -3.44931 0
M  V30 5561 H 540.98 -1.90221 -4.61104 0
M  V30 5562 H 540.134 -0.0501432 -6.06679 0
M  V30 5563 H 538.873 0.344687 -4.8648 0
M  V30 5564 H 537.878 -1.94331 -5.14311 0
M  V30 5565 H 539.103 -2.33031 -6.37866 0
M  V30 5566 H 537.049 -0.0935753 -6.55933 0
M  V30 5567 H 536.966 -1.61486 -7.38551 0
M  V30 5568 H 538.234 -0.492822 -7.77941 0
M  V30 5569 N 542.463 1.3308 -0.844243 0
M  V30 5570 C 543.879 1.50447 -0.532729 0
M  V30 5571 C 544.079 1.78292 0.938837 0
M  V30 5572 O 543.135 1.84635 1.72239 0
M  V30 5573 C 544.448 2.65555 -1.41072 0
M  V30 5574 C 545.996 2.7944 -1.41005 0
M  V30 5575 C 546.471 3.97616 -2.27301 0
M  V30 5576 N 547.962 4.0486 -2.2504 0
M  V30 5577 C 548.697 4.95508 -2.88547 0
M  V30 5578 N 548.193 5.91236 -3.61126 0
M  V30 5579 N 549.986 4.88548 -2.77989 0
M  V30 5580 H 542.137 1.13269 -1.79677 0
M  V30 5581 H 544.4 0.55734 -0.766861 0
M  V30 5582 H 544.106 2.51675 -2.45668 0
M  V30 5583 H 543.98 3.61089 -1.09061 0
M  V30 5584 H 546.367 2.92749 -0.371784 0
M  V30 5585 H 546.448 1.8465 -1.77026 0
M  V30 5586 H 546.092 3.85066 -3.3119 0
M  V30 5587 H 546.022 4.91661 -1.88619 0
M  V30 5588 H 548.513 3.36353 -1.72264 0
M  V30 5589 H 548.826 6.57079 -4.06776 0
M  V30 5590 H 547.171 5.91295 -3.65234 0
M  V30 5591 H 550.362 4.12729 -2.20846 0
M  V30 5592 H 550.535 5.58994 -3.27765 0
M  V30 5593 N 543.941 0.601185 1.45683 0
M  V30 5594 C 545.19 0.0914953 2.01492 0
M  V30 5595 C 545.503 -1.28331 1.47616 0
M  V30 5596 O 546.709 -1.88537 1.95362 0
M  V30 5597 C 545.165 0.11291 3.59723 0
M  V30 5598 C 544.773 1.48717 4.22596 0
M  V30 5599 C 546.517 -0.341871 4.23121 0
M  V30 5600 C 544.424 1.46531 5.7296 0
M  V30 5601 H 543.354 0.0304365 0.753385 0
M  V30 5602 H 546.005 0.755568 1.67223 0
M  V30 5603 H 544.387 -0.617692 3.91153 0
M  V30 5604 H 545.561 2.23897 4.02749 0
M  V30 5605 H 543.876 1.88351 3.71366 0
M  V30 5606 H 546.473 -0.377304 5.33367 0
M  V30 5607 H 546.816 -1.36325 3.93346 0
M  V30 5608 H 547.349 0.335256 3.96385 0
M  V30 5609 H 544.088 2.46408 6.07423 0
M  V30 5610 H 543.608 0.755997 5.95017 0
M  V30 5611 H 545.287 1.18618 6.36034 0
M  V30 5612 N 545.419 -1.53889 0.339982 0
M  V30 5613 C 546.351 -2.22435 -0.55275 0
M  V30 5614 C 547.364 -1.22975 -1.06681 0
M  V30 5615 O 548.553 -1.49351 -0.977575 0
M  V30 5616 C 545.653 -2.8882 -1.77302 0
M  V30 5617 C 544.826 -4.14563 -1.39486 0
M  V30 5618 C 543.885 -4.64391 -2.47442 0
M  V30 5619 O 542.911 -5.28687 -2.10899 0
M  V30 5620 N 544.113 -4.40015 -3.78639 0
M  V30 5621 H 546.878 -2.9968 0.0342669 0
M  V30 5622 H 544.439 -1.61068 0.16394 0
M  V30 5623 H 546.431 -3.19072 -2.48948 0
M  V30 5624 H 545.001 -2.15182 -2.26749 0
M  V30 5625 H 544.221 -3.90896 -0.509321 0
M  V30 5626 H 545.509 -4.96362 -1.11813 0
M  V30 5627 H 544.907 -3.88586 -4.11118 0
M  V30 5628 H 543.464 -4.74881 -4.46465 0
M  V30 5629 N 546.897 -0.0685191 -1.57451 0
M  V30 5630 C 547.829 0.929372 -2.09512 0
M  V30 5631 C 548.842 1.26354 -1.02657 0
M  V30 5632 O 550.031 1.2213 -1.30179 0
M  V30 5633 C 547.131 2.24612 -2.53777 0
M  V30 5634 C 546.304 2.09128 -3.84167 0
M  V30 5635 C 545.363 3.24079 -4.14559 0
M  V30 5636 O 544.389 2.99215 -4.8421 0
M  V30 5637 N 545.591 4.49077 -3.67845 0
M  V30 5638 H 548.356 0.484901 -2.95751 0
M  V30 5639 H 545.917 0.11729 -1.61475 0
M  V30 5640 H 547.909 3.00412 -2.71172 0
M  V30 5641 H 546.479 2.60569 -1.72692 0
M  V30 5642 H 545.699 1.17815 -3.76182 0
M  V30 5643 H 546.987 1.9603 -4.69521 0
M  V30 5644 H 546.385 4.72165 -3.11571 0
M  V30 5645 H 544.942 5.21915 -3.90446 0
M  V30 5646 N 548.375 1.56261 0.205012 0
M  V30 5647 C 549.338 1.92908 1.23771 0
M  V30 5648 C 550.338 0.809208 1.38955 0
M  V30 5649 O 551.528 1.07676 1.36936 0
M  V30 5650 C 548.66 2.19442 2.60879 0
M  V30 5651 H 549.853 2.85287 0.924728 0
M  V30 5652 H 547.406 1.49798 0.446125 0
M  V30 5653 H 548.141 1.29668 2.97248 0
M  V30 5654 H 547.926 3.0104 2.51232 0
M  V30 5655 H 549.416 2.48833 3.35368 0
M  V30 5656 N 549.853 -0.472356 1.50355 0
M  V30 5657 C 551.102 -1.2213 1.60522 0
M  V30 5658 C 551.415 -1.9312 0.310466 0
M  V30 5659 O 552.621 -2.69936 0.291029 0
M  V30 5660 C 551.077 -2.21909 2.83345 0
M  V30 5661 C 550.685 -1.56727 4.19691 0
M  V30 5662 C 552.429 -2.97453 3.02856 0
M  V30 5663 C 550.336 -2.54785 5.33703 0
M  V30 5664 H 549.266 -0.459543 0.597776 0
M  V30 5665 H 551.917 -0.491922 1.76783 0
M  V30 5666 H 550.299 -2.98133 2.60639 0
M  V30 5667 H 551.473 -0.863007 4.52646 0
M  V30 5668 H 549.788 -0.934685 4.05774 0
M  V30 5669 H 552.385 -3.70838 3.85205 0
M  V30 5670 H 552.728 -3.56764 2.14534 0
M  V30 5671 H 553.261 -2.28342 3.25737 0
M  V30 5672 H 550 -2.00214 6.24175 0
M  V30 5673 H 549.52 -3.23367 5.05167 0
M  V30 5674 H 551.199 -3.16639 5.64224 0
M  V30 5675 N 551.331 -1.39911 -0.725443 0
M  V30 5676 C 552.261 -1.42138 -1.85254 0
M  V30 5677 C 553.242 -0.283513 -1.67721 0
M  V30 5678 O 554.427 -0.490717 -1.87898 0
M  V30 5679 C 551.557 -1.27354 -3.23107 0
M  V30 5680 C 550.511 -2.3864 -3.55296 0
M  V30 5681 C 549.837 -2.08939 -4.92188 0
M  V30 5682 C 551.137 -3.8097 -3.57295 0
M  V30 5683 H 552.831 -2.36461 -1.83648 0
M  V30 5684 H 550.377 -1.13817 -0.882138 0
M  V30 5685 H 552.33 -1.2753 -4.01639 0
M  V30 5686 H 551.054 -0.295025 -3.25265 0
M  V30 5687 H 549.713 -2.37696 -2.79099 0
M  V30 5688 H 549.361 -1.09502 -4.90936 0
M  V30 5689 H 549.061 -2.83491 -5.14691 0
M  V30 5690 H 550.585 -2.10781 -5.73065 0
M  V30 5691 H 551.999 -3.8379 -4.25885 0
M  V30 5692 H 550.396 -4.5496 -3.9132 0
M  V30 5693 H 551.466 -4.11261 -2.5689 0
M  V30 5694 N 552.809 0.956637 -1.25245 0
M  V30 5695 C 554.034 1.74104 -1.12706 0
M  V30 5696 C 554.459 1.85436 0.315429 0
M  V30 5697 O 553.817 1.33334 1.22848 0
M  V30 5698 C 553.865 3.1338 -1.78396 0
M  V30 5699 O 552.969 3.98485 -1.06224 0
M  V30 5700 H 552.31 0.53476 -0.393609 0
M  V30 5701 H 554.84 1.19924 -1.65769 0
M  V30 5702 H 554.85 3.6385 -1.846 0
M  V30 5703 H 553.525 3.04448 -2.83345 0
M  V30 5704 H 552.102 3.56952 -1.07886 0
M  V30 5705 N 554.287 1.06798 1.15896 0
M  V30 5706 C 555.536 0.782796 1.8589 0
M  V30 5707 C 555.849 -0.693498 1.82893 0
M  V30 5708 O 557.055 -1.09325 2.48516 0
M  V30 5709 C 555.511 1.3502 3.33613 0
M  V30 5710 C 555.119 2.8571 3.45071 0
M  V30 5711 C 556.863 1.14278 4.08829 0
M  V30 5712 C 554.77 3.35669 4.86909 0
M  V30 5713 H 553.7 0.289149 0.696354 0
M  V30 5714 H 556.351 1.28734 1.30766 0
M  V30 5715 H 554.733 0.773407 3.88374 0
M  V30 5716 H 555.907 3.49385 3.00445 0
M  V30 5717 H 554.222 3.05178 2.83294 0
M  V30 5718 H 556.819 1.49087 5.13495 0
M  V30 5719 H 557.162 0.0814575 4.1622 0
M  V30 5720 H 557.695 1.68563 3.60321 0
M  V30 5721 H 554.434 4.41302 4.84698 0
M  V30 5722 H 553.954 2.76745 5.32139 0
M  V30 5723 H 555.633 3.31296 5.55745 0
M  V30 5724 N 555.766 -1.3263 0.851289 0
M  V30 5725 C 556.713 -2.28952 0.291469 0
M  V30 5726 C 557.683 -1.54897 -0.599676 0
M  V30 5727 O 558.868 -1.83137 -0.535305 0
M  V30 5728 C 556.008 -3.41206 -0.516992 0
M  V30 5729 C 555.121 -4.30148 0.399566 0
M  V30 5730 C 554.256 -5.29527 -0.4212 0
M  V30 5731 C 553.295 -6.10112 0.492969 0
M  V30 5732 N 552.432 -7.01499 -0.290414 0
M  V30 5733 H 557.272 -2.76228 1.11813 0
M  V30 5734 H 554.809 -1.35907 0.562826 0
M  V30 5735 H 556.767 -4.05005 -1.00132 0
M  V30 5736 H 555.397 -2.9509 -1.30851 0
M  V30 5737 H 554.449 -3.66959 1.00227 0
M  V30 5738 H 555.761 -4.8649 1.1013 0
M  V30 5739 H 554.915 -5.98914 -0.968832 0
M  V30 5740 H 553.654 -4.73794 -1.15632 0
M  V30 5741 H 552.659 -5.39632 1.05251 0
M  V30 5742 H 553.884 -6.6793 1.22664 0
M  V30 5743 H 551.83 -6.48199 -1.00868 0
M  V30 5744 H 551.747 -7.55178 0.352354 0
M  V30 5745 H 553.015 -7.75176 -0.819882 0
M  V30 5746 N 557.244 -0.608902 -1.45362 0
M  V30 5747 C 558.49 -0.104762 -2.02529 0
M  V30 5748 C 558.823 1.26191 -1.47613 0
M  V30 5749 O 558.098 1.8327 -0.65134 0
M  V30 5750 C 558.381 -0.0672661 -3.60037 0
M  V30 5751 C 558.234 -1.4647 -4.25284 0
M  V30 5752 C 559.553 0.619877 -4.35713 0
M  V30 5753 H 556.672 -0.0395438 -0.735938 0
M  V30 5754 H 559.314 -0.781126 -1.73201 0
M  V30 5755 H 557.464 0.50871 -3.85155 0
M  V30 5756 H 559.136 -2.08785 -4.11347 0
M  V30 5757 H 557.379 -2.02502 -3.83634 0
M  V30 5758 H 558.05 -1.39069 -5.34195 0
M  V30 5759 H 560.526 0.130297 -4.15896 0
M  V30 5760 H 559.402 0.615224 -5.45441 0
M  V30 5761 H 559.663 1.68621 -4.0868 0
M  V30 5762 N 558.722 1.53707 -0.348139 0
M  V30 5763 C 559.947 2.05877 0.250883 0
M  V30 5764 C 560.372 1.22115 1.43072 0
M  V30 5765 O 559.73 0.235986 1.79758 0
M  V30 5766 C 559.778 3.54886 0.639416 0
M  V30 5767 O 558.882 3.73948 1.73888 0
M  V30 5768 H 558.223 0.662754 0.040653 0
M  V30 5769 H 560.753 1.98303 -0.503685 0
M  V30 5770 H 560.763 3.97601 0.915295 0
M  V30 5771 H 559.438 4.153 -0.223386 0
M  V30 5772 H 558.015 3.43134 1.45991 0
M  V30 5773 N 560.2 0.0768682 1.57412 0
M  V30 5774 C 561.428 -0.59997 1.9801 0
M  V30 5775 C 561.843 -1.62842 0.955408 0
M  V30 5776 O 561.2 -1.8241 -0.057314 0
M  V30 5777 C 561.251 -1.26401 3.38681 0
M  V30 5778 O 560.972 -0.276723 4.37225 0
M  V30 5779 C 562.473 -2.0282 3.94182 0
M  V30 5780 H 559.693 -0.162239 0.651091 0
M  V30 5781 H 562.237 0.150771 2.03943 0
M  V30 5782 H 560.392 -1.96581 3.33819 0
M  V30 5783 H 560.806 -0.753744 5.19056 0
M  V30 5784 H 562.28 -2.44667 4.94815 0
M  V30 5785 H 562.757 -2.88678 3.31001 0
M  V30 5786 H 563.363 -1.37496 4.02461 0
M  V30 5787 N 561.678 -1.56367 -0.196722 0
M  V30 5788 C 562.903 -1.84991 -0.937714 0
M  V30 5789 C 563.328 -0.660244 -1.76132 0
M  V30 5790 O 562.686 0.390967 -1.77034 0
M  V30 5791 C 562.734 -3.11828 -1.81096 0
M  V30 5792 O 561.838 -2.92266 -2.90955 0
M  V30 5793 H 561.179 -0.609193 -0.264159 0
M  V30 5794 H 563.709 -2.03595 -0.202529 0
M  V30 5795 H 563.719 -3.42579 -2.21594 0
M  V30 5796 H 562.394 -3.98037 -1.2058 0
M  V30 5797 H 560.971 -2.72809 -2.54224 0
M  V30 5798 N 563.156 0.464375 -1.50603 0
M  V30 5799 C 564.086 1.56944 -1.72889 0
M  V30 5800 C 565.067 1.59979 -0.577997 0
M  V30 5801 O 566.252 1.76138 -0.817855 0
M  V30 5802 C 563.382 2.95225 -1.8292 0
M  V30 5803 C 562.336 3.07056 -2.98162 0
M  V30 5804 C 561.662 4.47051 -2.93343 0
M  V30 5805 C 562.962 2.83648 -4.38567 0
M  V30 5806 H 564.656 1.38547 -2.65415 0
M  V30 5807 H 562.202 0.665082 -1.27721 0
M  V30 5808 H 564.155 3.72467 -1.97095 0
M  V30 5809 H 562.879 3.14793 -0.870209 0
M  V30 5810 H 561.538 2.32248 -2.83648 0
M  V30 5811 H 561.186 4.63547 -1.95276 0
M  V30 5812 H 560.886 4.55902 -3.70712 0
M  V30 5813 H 562.41 5.26304 -3.09575 0
M  V30 5814 H 563.824 3.50636 -4.53572 0
M  V30 5815 H 562.221 3.03937 -5.17438 0
M  V30 5816 H 563.291 1.79451 -4.50472 0
M  V30 5817 N 564.634 1.40294 0.718013 0
M  V30 5818 C 565.882 1.38167 1.47494 0
M  V30 5819 C 566.203 -0.01607 1.94993 0
M  V30 5820 O 565.473 -0.970396 1.70177 0
M  V30 5821 H 564.053 0.508505 0.547203 0
M  V30 5822 H 566.715 1.75324 0.851322 0
M  V30 5823 H 565.811 2.05503 2.34894 0
M  V30 5824 N 566.112 -0.949982 1.2575 0
M  V30 5825 C 567.022 -2.08109 1.08295 0
M  V30 5826 C 568.038 -1.7399 0.0188181 0
M  V30 5827 O 569.214 -2.00187 0.220724 0
M  V30 5828 C 566.279 -3.39383 0.708534 0
M  V30 5829 C 565.34 -3.8734 1.85111 0
M  V30 5830 C 564.573 -5.12349 1.49447 0
M  V30 5831 O 564.796 -5.6905 0.392212 0
M  V30 5832 O 563.73 -5.5513 2.32624 0
M  V30 5833 H 567.556 -2.25738 2.03165 0
M  V30 5834 H 565.141 -1.06545 1.04731 0
M  V30 5835 H 567.023 -4.18277 0.512061 0
M  V30 5836 H 565.698 -3.23013 -0.210854 0
M  V30 5837 H 564.605 -3.09429 2.10248 0
M  V30 5838 H 565.938 -4.08216 2.74991 0
M  V30 5839 N 567.59 -1.07411 -1.15328 0
M  V30 5840 C 568.867 -0.710732 -1.82231 0
M  V30 5841 C 569.247 0.806732 -1.95077 0
M  V30 5842 O 568.595 1.72139 -1.50268 0
M  V30 5843 C 568.805 -1.42586 -3.18544 0
M  V30 5844 C 570.153 -1.57836 -3.94174 0
M  V30 5845 O 571.177 -1.38669 -3.281 0
M  V30 5846 O 570.036 -1.8938 -5.12638 0
M  V30 5847 H 567.13 -0.25297 -0.78736 0
M  V30 5848 H 569.676 -1.17508 -1.22434 0
M  V30 5849 H 568.448 -2.46008 -3.04296 0
M  V30 5850 H 568.071 -0.952332 -3.86026 0
M  V30 5851 N 569.068 1.32177 -0.85831 0
M  V30 5852 C 570.479 1.79381 -0.517621 0
M  V30 5853 C 570.83 1.70841 0.964769 0
M  V30 5854 O 569.955 1.26917 1.75274 0
M  V30 5855 C 570.55 3.25706 -0.932801 0
M  V30 5856 C 569.109 3.70851 -0.643953 0
M  V30 5857 C 568.256 2.53208 -1.13054 0
M  V30 5858 H 571.207 1.19424 -1.04516 0
M  V30 5859 H 571.228 3.79673 -0.250674 0
M  V30 5860 H 570.74 3.31889 -2.01174 0
M  V30 5861 H 568.841 3.70178 0.424112 0
M  V30 5862 H 568.954 4.63495 -1.21281 0
M  V30 5863 H 567.318 2.48676 -0.550679 0
M  V30 5864 H 568.101 2.62143 -2.21666 0
M  V30 5865 N 570.547 0.616602 1.45037 0
M  V30 5866 C 571.793 0.115501 2.02471 0
M  V30 5867 C 572.126 -1.25406 1.4828 0
M  V30 5868 O 571.401 -1.82922 0.661051 0
M  V30 5869 C 571.684 0.0863588 3.59996 0
M  V30 5870 C 571.537 1.48723 4.24501 0
M  V30 5871 C 572.856 -0.596762 4.36035 0
M  V30 5872 H 569.975 0.0434461 0.735718 0
M  V30 5873 H 572.617 0.7903 1.72784 0
M  V30 5874 H 570.767 -0.488277 3.85419 0
M  V30 5875 H 572.439 2.10964 4.10234 0
M  V30 5876 H 570.682 2.04534 3.82555 0
M  V30 5877 H 571.353 1.419 5.3345 0
M  V30 5878 H 573.829 -0.10824 4.15959 0
M  V30 5879 H 572.705 -0.586289 5.4576 0
M  V30 5880 H 572.966 -1.66451 4.09569 0
M  V30 5881 N 572.025 -1.5352 0.356285 0
M  V30 5882 C 572.955 -2.28372 -0.486661 0
M  V30 5883 C 573.936 -1.30432 -1.09185 0
M  V30 5884 O 575.121 -1.59291 -1.11085 0
M  V30 5885 C 572.251 -3.06604 -1.63129 0
M  V30 5886 C 571.205 -4.12154 -1.15381 0
M  V30 5887 C 570.531 -4.78415 -2.38796 0
M  V30 5888 C 571.831 -5.21724 -0.245179 0
M  V30 5889 H 573.525 -2.99083 0.137797 0
M  V30 5890 H 571.071 -1.43841 0.0677134 0
M  V30 5891 H 573.024 -3.57712 -2.22755 0
M  V30 5892 H 571.748 -2.33568 -2.28284 0
M  V30 5893 H 570.407 -3.61978 -0.580294 0
M  V30 5894 H 570.055 -4.01959 -3.02387 0
M  V30 5895 H 569.755 -5.49734 -2.07524 0
M  V30 5896 H 571.279 -5.32313 -2.99125 0
M  V30 5897 H 572.693 -5.68391 -0.748646 0
M  V30 5898 H 571.09 -6.00095 -0.0237608 0
M  V30 5899 H 572.16 -4.79596 0.715229 0
M  V30 5900 N 573.503 -0.0852151 -1.57369 0
M  V30 5901 C 574.731 0.58946 -1.98325 0
M  V30 5902 C 575.146 1.62333 -0.96403 0
M  V30 5903 O 574.503 1.82438 0.0476395 0
M  V30 5904 C 574.554 1.24604 -3.39347 0
M  V30 5905 O 574.275 0.253532 -4.37366 0
M  V30 5906 C 575.776 2.00726 -3.95252 0
M  V30 5907 H 572.996 0.158783 -0.651942 0
M  V30 5908 H 575.54 -0.161584 -2.03861 0
M  V30 5909 H 573.695 1.94808 -3.34856 0
M  V30 5910 H 574.109 0.726207 -5.19448 0
M  V30 5911 H 575.583 2.42039 -4.96106 0
M  V30 5912 H 576.06 2.86919 -3.32527 0
M  V30 5913 H 576.666 1.3536 -4.03185 0
M  V30 5914 N 574.981 1.5647 0.188427 0
M  V30 5915 C 576.227 1.81281 0.909124 0
M  V30 5916 C 576.56 0.66034 1.82628 0
M  V30 5917 O 575.835 -0.338737 1.91528 0
M  V30 5918 C 576.118 3.16388 1.7196 0
M  V30 5919 C 575.971 4.42137 0.826714 0
M  V30 5920 C 577.29 3.48256 2.69083 0
M  V30 5921 H 574.409 0.659457 0.329068 0
M  V30 5922 H 577.051 1.89182 0.176156 0
M  V30 5923 H 575.201 3.09784 2.34448 0
M  V30 5924 H 576.873 4.60794 0.216025 0
M  V30 5925 H 575.116 4.33594 0.133792 0
M  V30 5926 H 575.787 5.33184 1.42893 0
M  V30 5927 H 578.263 3.55203 2.16726 0
M  V30 5928 H 577.139 4.43899 3.2287 0
M  V30 5929 H 577.4 2.72088 3.48455 0
M  V30 5930 N 576.459 -0.456382 1.50847 0
M  V30 5931 C 577.87 -1.03685 1.55262 0
M  V30 5932 C 578.221 -1.92779 0.364771 0
M  V30 5933 O 577.346 -2.10043 -0.52068 0
M  V30 5934 C 577.941 -1.88718 2.81374 0
M  V30 5935 C 576.5 -2.41847 2.88422 0
M  V30 5936 C 575.647 -1.20564 2.49719 0
M  V30 5937 H 578.598 -0.238399 1.56899 0
M  V30 5938 H 578.619 -2.73957 2.6406 0
M  V30 5939 H 578.131 -1.23847 3.67809 0
M  V30 5940 H 576.232 -3.10228 2.06372 0
M  V30 5941 H 576.345 -2.75947 3.9165 0
M  V30 5942 H 574.709 -1.54504 2.02486 0
M  V30 5943 H 575.492 -0.573326 3.38479 0
M  V30 5944 N 577.937 -1.40673 -0.710563 0
M  V30 5945 C 579.348 -1.34975 -1.28991 0
M  V30 5946 C 579.699 -0.0256272 -1.96183 0
M  V30 5947 O 578.824 0.876339 -1.97862 0
M  V30 5948 C 579.419 -2.44467 -2.34567 0
M  V30 5949 C 577.978 -2.42213 -2.88114 0
M  V30 5950 C 577.125 -2.25085 -1.61963 0
M  V30 5951 H 580.076 -1.50406 -0.506343 0
M  V30 5952 H 580.097 -2.12663 -3.15523 0
M  V30 5953 H 579.609 -3.40825 -1.85634 0
M  V30 5954 H 577.71 -1.49568 -3.41263 0
M  V30 5955 H 577.823 -3.37983 -3.39565 0
M  V30 5956 H 576.187 -1.72691 -1.87216 0
M  V30 5957 H 576.97 -3.23449 -1.15047 0
M  V30 5958 N 579.415 0.9433 -1.26252 0
M  V30 5959 C 580.363 2.06302 -1.07434 0
M  V30 5960 C 581.357 1.694 -0.00189471 0
M  V30 5961 O 582.563 1.79302 -0.158408 0
M  V30 5962 H 578.938 0.675453 -0.330556 0
M  V30 5963 H 580.909 2.19326 -2.02333 0
M  V30 5964 C 579.658 3.40125 -0.721817 0
M  V30 5965 H 578.981 3.68996 -1.5389 0
M  V30 5966 H 580.421 4.19295 -0.629922 0
M  V30 5967 C 578.88 3.31993 0.572902 0
M  V30 5968 O 579.41 3.67945 1.61182 0
M  V30 5969 N 577.616 2.85099 0.562748 0
M  V30 5970 H 577.163 2.5604 -0.283092 0
M  V30 5971 H 577.121 2.80041 1.42915 0
M  V30 5972 N 580.893 1.08022 1.14757 0
M  V30 5973 C 582.121 0.828847 1.89572 0
M  V30 5974 C 582.536 -0.618621 1.78377 0
M  V30 5975 O 581.893 -1.42482 1.1404 0
M  V30 5976 C 581.944 1.23677 3.39685 0
M  V30 5977 O 581.665 2.62746 3.50566 0
M  V30 5978 C 583.166 1.01569 4.31507 0
M  V30 5979 H 580.386 0.299196 0.600602 0
M  V30 5980 H 582.93 1.43846 1.45357 0
M  V30 5981 H 581.085 0.671347 3.81539 0
M  V30 5982 H 581.499 2.79573 4.43778 0
M  V30 5983 H 582.973 1.35055 5.35223 0
M  V30 5984 H 583.45 -0.0475433 4.39174 0
M  V30 5985 H 584.056 1.56636 3.95405 0
M  V30 5986 N 582.371 -1.3172 0.865308 0
M  V30 5987 C 583.617 -1.97168 0.474633 0
M  V30 5988 C 583.95 -1.68263 -0.969604 0
M  V30 5989 O 583.225 -0.976588 -1.68205 0
M  V30 5990 C 583.508 -3.52689 0.726808 0
M  V30 5991 C 583.361 -3.91185 2.22024 0
M  V30 5992 C 584.68 -4.39689 0.190201 0
M  V30 5993 H 581.799 -0.716185 0.17392 0
M  V30 5994 H 584.441 -1.55925 1.08569 0
M  V30 5995 H 582.591 -3.8795 0.206705 0
M  V30 5996 H 584.263 -3.66049 2.80724 0
M  V30 5997 H 582.506 -3.3996 2.69462 0
M  V30 5998 H 583.177 -4.99604 2.34735 0
M  V30 5999 H 585.653 -4.11225 0.635103 0
M  V30 6000 H 584.529 -5.47469 0.396132 0
M  V30 6001 H 584.79 -4.32683 -0.907625 0
M  V30 6002 N 583.85 -0.624285 -1.44708 0
M  V30 6003 C 585.077 -0.132919 -2.06473 0
M  V30 6004 C 585.493 1.18967 -1.46602 0
M  V30 6005 O 584.85 1.72824 -0.586341 0
M  V30 6006 C 584.901 -0.00465418 -3.615 0
M  V30 6007 O 584.622 -1.27494 -4.19138 0
M  V30 6008 C 586.123 0.516213 -4.40284 0
M  V30 6009 H 583.343 -0.0765201 -0.666623 0
M  V30 6010 H 585.887 -0.856751 -1.85688 0
M  V30 6011 H 584.042 0.669583 -3.8157 0
M  V30 6012 H 584.456 -1.11536 -5.12504 0
M  V30 6013 H 585.93 0.554994 -5.49203 0
M  V30 6014 H 586.407 1.5419 -4.11245 0
M  V30 6015 H 587.013 -0.124542 -4.25118 0
M  V30 6016 N 585.328 1.53329 -0.364422 0
M  V30 6017 C 586.258 2.28627 0.474543 0
M  V30 6018 C 587.239 1.31009 1.08492 0
M  V30 6019 O 588.424 1.59878 1.10239 0
M  V30 6020 C 585.554 3.07465 1.61501 0
M  V30 6021 C 584.508 4.1276 1.13194 0
M  V30 6022 C 583.834 4.79674 2.36255 0
M  V30 6023 C 585.134 5.21847 0.217507 0
M  V30 6024 H 586.828 2.99005 -0.153656 0
M  V30 6025 H 584.374 1.43803 -0.0753406 0
M  V30 6026 H 586.327 3.58889 2.20855 0
M  V30 6027 H 585.051 2.34775 2.27042 0
M  V30 6028 H 583.71 3.62281 0.56109 0
M  V30 6029 H 583.358 4.03557 3.00251 0
M  V30 6030 H 583.058 5.50827 2.04606 0
M  V30 6031 H 584.582 5.33892 2.96297 0
M  V30 6032 H 585.996 5.6878 0.718493 0
M  V30 6033 H 584.393 6.00099 -0.00806408 0
M  V30 6034 H 585.463 4.7921 -0.740653 0
M  V30 6035 N 586.806 0.0935595 1.57322 0
M  V30 6036 C 587.739 -0.902505 2.09595 0
M  V30 6037 C 588.717 -1.27732 1.00615 0
M  V30 6038 O 589.901 -1.38283 1.28102 0
M  V30 6039 C 587.028 -2.20416 2.57166 0
M  V30 6040 C 586.074 -1.97932 3.7779 0
M  V30 6041 S 586.907 -1.21873 5.21447 0
M  V30 6042 C 588.063 -2.53273 5.72367 0
M  V30 6043 H 588.296 -0.457797 2.93754 0
M  V30 6044 H 585.829 -0.119694 1.53935 0
M  V30 6045 H 587.787 -2.95217 2.85232 0
M  V30 6046 H 586.448 -2.62008 1.73235 0
M  V30 6047 H 585.641 -2.94316 4.09138 0
M  V30 6048 H 585.243 -1.3126 3.5021 0
M  V30 6049 H 587.535 -3.49256 5.8054 0
M  V30 6050 H 588.478 -2.26505 6.70896 0
M  V30 6051 H 588.886 -2.61475 5.00291 0
M  V30 6052 N 588.284 -1.56567 -0.180126 0
M  V30 6053 C 589.532 -1.81133 -0.896392 0
M  V30 6054 C 589.853 -0.669114 -1.83161 0
M  V30 6055 O 589.123 0.311616 -1.93406 0
M  V30 6056 H 587.703 -0.668172 -0.333999 0
M  V30 6057 H 590.365 -1.94048 -0.182051 0
M  V30 6058 H 589.461 -2.74854 -1.47857 0
M  V30 6059 N 589.762 0.448376 -1.51087 0
M  V30 6060 C 590.725 1.52588 -1.71025 0
M  V30 6061 C 591.725 1.49958 -0.580442 0
M  V30 6062 O 592.915 1.52176 -0.847833 0
M  V30 6063 C 590.047 2.92163 -1.75652 0
M  V30 6064 H 591.24 1.36218 -2.67179 0
M  V30 6065 H 588.793 0.676313 -1.4091 0
M  V30 6066 H 589.528 3.13951 -0.812724 0
M  V30 6067 H 589.313 2.95478 -2.57751 0
M  V30 6068 H 590.803 3.70349 -1.92953 0
M  V30 6069 N 591.24 1.41047 0.703093 0
M  V30 6070 C 592.15 1.44645 1.84703 0
M  V30 6071 C 593.166 0.337778 1.7069 0
M  V30 6072 O 594.342 0.584327 1.92737 0
M  V30 6073 C 591.407 1.31928 3.20618 0
M  V30 6074 C 590.468 2.53047 3.46794 0
M  V30 6075 C 589.701 2.40927 4.76224 0
M  V30 6076 O 589.924 1.42978 5.5219 0
M  V30 6077 O 588.858 3.30543 5.03016 0
M  V30 6078 H 592.684 2.41139 1.84624 0
M  V30 6079 H 590.269 1.22504 0.855167 0
M  V30 6080 H 592.151 1.27092 4.01778 0
M  V30 6081 H 590.826 0.385469 3.21397 0
M  V30 6082 H 589.733 2.6346 2.65593 0
M  V30 6083 H 591.066 3.45231 3.50822 0
M  V30 6084 N 592.718 -0.936591 1.26751 0
M  V30 6085 C 593.966 -1.67998 1.12343 0
M  V30 6086 C 594.287 -1.92137 -0.332938 0
M  V30 6087 O 593.557 -1.52132 -1.23421 0
M  V30 6088 H 592.137 -0.622609 0.412756 0
M  V30 6089 H 594.799 -1.12509 1.59147 0
M  V30 6090 H 593.895 -2.65185 1.64571 0
M  V30 6091 N 594.196 -1.08629 -1.14182 0
M  V30 6092 C 595.612 -0.814363 -1.3726 0
M  V30 6093 C 595.812 0.575271 -1.93114 0
M  V30 6094 O 594.868 1.33165 -2.1453 0
M  V30 6095 C 596.181 -1.8989 -2.33157 0
M  V30 6096 C 597.729 -1.92518 -2.46791 0
M  V30 6097 C 598.204 -3.00092 -3.45989 0
M  V30 6098 N 599.695 -2.99279 -3.53534 0
M  V30 6099 C 600.43 -3.79158 -4.30147 0
M  V30 6100 N 599.926 -4.68923 -5.09983 0
M  V30 6101 N 601.719 -3.67451 -4.25366 0
M  V30 6102 H 593.87 -1.98232 -0.762758 0
M  V30 6103 H 596.133 -0.860383 -0.398051 0
M  V30 6104 H 595.839 -2.89809 -1.99257 0
M  V30 6105 H 595.713 -1.77013 -3.33086 0
M  V30 6106 H 598.1 -0.932425 -2.79982 0
M  V30 6107 H 598.181 -2.09473 -1.46816 0
M  V30 6108 H 597.825 -3.99575 -3.13532 0
M  V30 6109 H 597.755 -2.80382 -4.45751 0
M  V30 6110 H 600.246 -2.3422 -2.96563 0
M  V30 6111 H 600.559 -5.26475 -5.65724 0
M  V30 6112 H 598.904 -4.72964 -5.09244 0
M  V30 6113 H 602.095 -2.9669 -3.62067 0
M  V30 6114 H 602.268 -4.29944 -4.84822 0
M  V30 6115 N 595.674 1.31259 -0.872281 0
M  V30 6116 C 596.923 1.95893 -0.480493 0
M  V30 6117 C 597.236 1.697 0.972688 0
M  V30 6118 O 598.442 2.28214 1.47073 0
M  V30 6119 C 596.898 3.50705 -0.808342 0
M  V30 6120 C 596.506 3.85735 -2.27844 0
M  V30 6121 C 598.25 4.21719 -0.485136 0
M  V30 6122 C 596.157 5.33668 -2.54858 0
M  V30 6123 H 595.087 0.733182 -0.175955 0
M  V30 6124 H 597.738 1.49396 -1.0655 0
M  V30 6125 H 596.12 3.95706 -0.152558 0
M  V30 6126 H 597.294 3.51686 -2.97748 0
M  V30 6127 H 595.609 3.27792 -2.56791 0
M  V30 6128 H 598.206 5.30559 -0.664166 0
M  V30 6129 H 598.549 4.12316 0.574592 0
M  V30 6130 H 599.082 3.82359 -1.09756 0
M  V30 6131 H 595.821 5.48109 -3.59523 0
M  V30 6132 H 595.341 5.69061 -1.8955 0
M  V30 6133 H 597.02 6.00958 -2.39706 0
M  V30 6134 N 597.152 0.631951 1.44375 0
M  V30 6135 C 598.082 -0.0593243 2.33425 0
M  V30 6136 C 599.063 -0.833964 1.48253 0
M  V30 6137 O 600.248 -0.799682 1.76971 0
M  V30 6138 C 597.378 -1.04096 3.31333 0
M  V30 6139 C 596.332 -0.377899 4.26328 0
M  V30 6140 C 595.658 -1.4695 5.14111 0
M  V30 6141 C 596.958 0.716371 5.17364 0
M  V30 6142 H 598.652 0.684287 2.91475 0
M  V30 6143 H 596.198 0.330518 1.40156 0
M  V30 6144 H 598.151 -1.53331 3.92514 0
M  V30 6145 H 596.875 -1.81547 2.71493 0
M  V30 6146 H 595.534 0.0938054 3.6648 0
M  V30 6147 H 595.182 -2.2349 4.50623 0
M  V30 6148 H 594.882 -1.03121 5.78481 0
M  V30 6149 H 596.406 -1.96363 5.78164 0
M  V30 6150 H 597.82 0.307089 5.72477 0
M  V30 6151 H 596.217 1.07784 5.90341 0
M  V30 6152 H 597.287 1.58316 4.58327 0
M  V30 6153 N 598.631 -1.53133 0.372548 0
M  V30 6154 C 599.859 -2.05774 -0.215515 0
M  V30 6155 C 600.274 -1.24555 -1.41886 0
M  V30 6156 O 599.631 -0.287951 -1.80214 0
M  V30 6157 C 599.682 -3.5645 -0.602161 0
M  V30 6158 O 599.403 -4.34591 0.553359 0
M  V30 6159 C 600.904 -4.25374 -1.24787 0
M  V30 6160 H 598.124 -0.670009 -0.0364529 0
M  V30 6161 H 600.668 -1.97434 0.532934 0
M  V30 6162 H 598.823 -3.64918 -1.30052 0
M  V30 6163 H 599.237 -5.23954 0.239336 0
M  V30 6164 H 600.711 -5.32097 -1.46891 0
M  V30 6165 H 601.188 -3.79531 -2.21026 0
M  V30 6166 H 601.794 -4.21177 -0.590752 0
M  V30 6167 N 600.109 -0.101901 -1.5727 0
M  V30 6168 C 601.355 0.561027 -1.94885 0
M  V30 6169 C 601.688 1.6741 -0.984258 0
M  V30 6170 O 600.963 1.94491 -0.0184767 0
M  V30 6171 C 601.246 1.10982 -3.42571 0
M  V30 6172 C 601.099 0.00133418 -4.498 0
M  V30 6173 C 602.418 2.00608 -3.9172 0
M  V30 6174 H 599.537 0.202467 -0.708644 0
M  V30 6175 H 602.179 -0.173992 -1.89202 0
M  V30 6176 H 600.329 1.73621 -3.47546 0
M  V30 6177 H 602.001 -0.63322 -4.56933 0
M  V30 6178 H 600.244 -0.664143 -4.28686 0
M  V30 6179 H 600.915 0.426253 -5.50352 0
M  V30 6180 H 603.391 1.47864 -3.88941 0
M  V30 6181 H 602.267 2.3593 -4.95609 0
M  V30 6182 H 602.528 2.92608 -3.3141 0
M  V30 6183 N 601.587 1.56661 0.17182 0
M  V30 6184 C 602.835 1.81606 0.886774 0
M  V30 6185 C 603.156 0.678818 1.82803 0
M  V30 6186 O 602.426 -0.301354 1.93568 0
M  V30 6187 H 601.006 0.669934 0.330451 0
M  V30 6188 H 603.668 1.94142 0.171757 0
M  V30 6189 H 602.764 2.75634 1.46398 0
M  V30 6190 N 603.065 -0.440357 1.51323 0
M  V30 6191 C 604.293 -1.21255 1.67645 0
M  V30 6192 C 604.708 -1.85088 0.37252 0
M  V30 6193 O 604.065 -1.70582 -0.648683 0
M  V30 6194 C 604.116 -2.29881 2.78993 0
M  V30 6195 O 603.837 -1.68659 4.04334 0
M  V30 6196 C 605.338 -3.20214 3.06558 0
M  V30 6197 H 602.558 -0.36558 0.562666 0
M  V30 6198 H 605.102 -0.52214 1.97722 0
M  V30 6199 H 603.257 -2.94643 2.51524 0
M  V30 6200 H 603.671 -2.40426 4.6615 0
M  V30 6201 H 605.145 -3.92575 3.88058 0
M  V30 6202 H 605.622 -3.80794 2.18844 0
M  V30 6203 H 606.228 -2.61156 3.35675 0
M  V30 6204 N 604.543 -1.41418 -0.695603 0
M  V30 6205 C 605.768 -1.44329 -1.48942 0
M  V30 6206 C 606.193 -0.0501579 -1.88033 0
M  V30 6207 O 605.551 0.946598 -1.54626 0
M  V30 6208 C 605.599 -2.3578 -2.72837 0
M  V30 6209 O 604.703 -1.81482 -3.70322 0
M  V30 6210 H 604.044 -0.489838 -0.44828 0
M  V30 6211 H 606.574 -1.85878 -0.855014 0
M  V30 6212 H 606.584 -2.51654 -3.21145 0
M  V30 6213 H 605.259 -3.37005 -2.43722 0
M  V30 6214 H 603.836 -1.75058 -3.29255 0
M  V30 6215 N 606.021 0.929856 -1.27246 0
M  V30 6216 C 606.971 2.01629 -1.06442 0
M  V30 6217 C 607.955 1.60899 0.00687842 0
M  V30 6218 O 609.147 1.75733 -0.211407 0
M  V30 6219 C 606.276 3.35849 -0.711361 0
M  V30 6220 C 605.362 3.8303 -1.82069 0
M  V30 6221 N 605.753 4.02743 -3.05993 0
M  V30 6222 C 604.051 4.12046 -1.70687 0
M  V30 6223 C 604.752 4.42001 -3.78167 0
M  V30 6224 N 603.728 4.4935 -3.05918 0
M  V30 6225 H 607.53 2.14898 -2.00489 0
M  V30 6226 H 605.044 1.11654 -1.17929 0
M  V30 6227 H 607.041 4.13343 -0.543442 0
M  V30 6228 H 605.701 3.23944 0.221517 0
M  V30 6229 H 606.712 3.89112 -3.41778 0
M  V30 6230 H 603.389 4.08866 -0.844681 0
M  V30 6231 H 604.779 4.6535 -4.84664 0
M  V30 6232 N 607.499 1.09233 1.13605 0
M  V30 6233 C 608.746 0.827159 1.84836 0
M  V30 6234 C 609.074 -0.647199 1.83416 0
M  V30 6235 O 608.329 -1.49228 1.26608 0
M  V30 6236 C 608.628 1.305 3.32723 0
M  V30 6237 C 608.294 2.78864 3.54325 0
M  V30 6238 C 606.956 3.19382 3.59928 0
M  V30 6239 C 609.308 3.74532 3.62457 0
M  V30 6240 C 606.636 4.54346 3.71196 0
M  V30 6241 C 608.988 5.09283 3.75252 0
M  V30 6242 C 607.652 5.49394 3.79108 0
M  V30 6243 H 606.922 0.302679 0.676363 0
M  V30 6244 H 609.569 1.36676 1.34134 0
M  V30 6245 H 607.874 0.68517 3.85762 0
M  V30 6246 H 609.571 1.07648 3.86281 0
M  V30 6247 H 606.161 2.46507 3.50617 0
M  V30 6248 H 610.345 3.44343 3.57409 0
M  V30 6249 H 605.601 4.84864 3.72447 0
M  V30 6250 H 609.775 5.83269 3.80487 0
M  V30 6251 H 607.402 6.5397 3.87591 0
M  V30 6252 N 608.977 -1.30795 0.87923 0
M  V30 6253 C 609.907 -2.30742 0.357796 0
M  V30 6254 C 610.888 -1.60747 -0.556283 0
M  V30 6255 O 612.073 -1.88393 -0.47135 0
M  V30 6256 C 609.203 -3.44583 -0.433555 0
M  V30 6257 C 608.157 -4.26235 0.388251 0
M  V30 6258 C 607.483 -5.32073 -0.529352 0
M  V30 6259 C 608.783 -4.96303 1.62729 0
M  V30 6260 H 610.477 -2.74605 1.19299 0
M  V30 6261 H 608.023 -1.32017 0.575104 0
M  V30 6262 H 609.976 -4.13563 -0.808934 0
M  V30 6263 H 608.7 -2.99511 -1.30234 0
M  V30 6264 H 607.359 -3.58936 0.745695 0
M  V30 6265 H 607.007 -4.83249 -1.39569 0
M  V30 6266 H 606.707 -5.87598 0.0166741 0
M  V30 6267 H 608.231 -6.0391 -0.901373 0
M  V30 6268 H 609.645 -5.5783 1.32283 0
M  V30 6269 H 608.042 -5.61666 2.11309 0
M  V30 6270 H 609.112 -4.22758 2.37494 0
M  V30 6271 N 610.455 -0.639598 -1.44038 0
M  V30 6272 C 611.685 -0.154586 -2.06021 0
M  V30 6273 C 612.093 1.17951 -1.47933 0
M  V30 6274 O 611.436 1.73627 -0.59994 0
M  V30 6275 C 611.498 0.0255459 -3.59491 0
M  V30 6276 C 611.162 -1.2317 -4.40089 0
M  V30 6277 C 612.159 -2.15735 -4.73027 0
M  V30 6278 C 609.844 -1.46949 -4.80324 0
M  V30 6279 C 611.838 -3.30382 -5.45093 0
M  V30 6280 C 609.525 -2.61891 -5.52138 0
M  V30 6281 C 610.523 -3.53433 -5.84443 0
M  V30 6282 O 610.211 -4.6637 -6.54793 0
M  V30 6283 H 609.943 -0.0808543 -0.671147 0
M  V30 6284 H 612.497 -0.876541 -1.85758 0
M  V30 6285 H 610.727 0.802733 -3.78276 0
M  V30 6286 H 612.416 0.466184 -4.03214 0
M  V30 6287 H 613.182 -1.98602 -4.42473 0
M  V30 6288 H 609.061 -0.765815 -4.54595 0
M  V30 6289 H 612.605 -4.01856 -5.70226 0
M  V30 6290 H 608.502 -2.78964 -5.82108 0
M  V30 6291 H 609.27 -4.6546 -6.73267 0
M  V30 6292 N 611.933 1.52934 -0.380664 0
M  V30 6293 C 612.865 2.23822 0.493581 0
M  V30 6294 C 613.878 1.25761 1.03383 0
M  V30 6295 O 615.067 1.5189 0.937633 0
M  V30 6296 C 612.167 2.9342 1.69582 0
M  V30 6297 C 611.34 4.18115 1.28445 0
M  V30 6298 C 610.399 4.70788 2.35042 0
M  V30 6299 O 609.425 5.34093 1.96807 0
M  V30 6300 N 610.627 4.49899 3.66839 0
M  V30 6301 H 613.392 2.99484 -0.11371 0
M  V30 6302 H 610.953 1.60577 -0.206587 0
M  V30 6303 H 612.945 3.2556 2.40401 0
M  V30 6304 H 611.515 2.21119 2.20965 0
M  V30 6305 H 610.735 3.92109 0.405503 0
M  V30 6306 H 612.023 4.99152 0.986132 0
M  V30 6307 H 611.421 3.99349 4.0067 0
M  V30 6308 H 609.978 4.86551 4.33718 0
M  V30 6309 N 613.412 0.11024 1.57214 0
M  V30 6310 C 614.828 -0.24638 1.57687 0
M  V30 6311 C 615.028 -1.67344 1.12241 0
M  V30 6312 O 614.084 -2.39298 0.805783 0
M  V30 6313 C 615.397 -0.0210288 3.00693 0
M  V30 6314 C 616.945 -0.0876077 3.12877 0
M  V30 6315 C 617.42 0.10994 4.57868 0
M  V30 6316 N 618.911 0.0556135 4.63167 0
M  V30 6317 C 619.646 0.183495 5.73106 0
M  V30 6318 N 619.142 0.367058 6.91827 0
M  V30 6319 N 620.935 0.123689 5.61964 0
M  V30 6320 H 613.086 1.04246 1.85058 0
M  V30 6321 H 615.349 0.40979 0.854854 0
M  V30 6322 H 615.055 0.965203 3.38196 0
M  V30 6323 H 614.929 -0.756748 3.69531 0
M  V30 6324 H 617.316 -1.06436 2.75237 0
M  V30 6325 H 617.397 0.67985 2.466 0
M  V30 6326 H 617.041 1.08362 4.96206 0
M  V30 6327 H 616.971 -0.677397 5.22225 0
M  V30 6328 H 619.462 -0.0831062 3.77809 0
M  V30 6329 H 619.775 0.455739 7.71455 0
M  V30 6330 H 618.12 0.40292 6.93831 0
M  V30 6331 H 621.311 -0.0186928 4.68096 0
M  V30 6332 H 621.484 0.226797 6.47603 0
M  V30 6333 N 614.89 -1.56749 -0.16351 0
M  V30 6334 C 616.138 -1.82074 -0.87713 0
M  V30 6335 C 616.459 -0.688503 -1.82441 0
M  V30 6336 O 615.729 0.291085 -1.93725 0
M  V30 6337 H 614.309 -0.671677 -0.326893 0
M  V30 6338 H 616.971 -1.9423 -0.161459 0
M  V30 6339 H 616.067 -2.76407 -1.44934 0
M  V30 6340 N 616.368 0.432326 -1.51554 0
M  V30 6341 C 617.593 1.20824 -1.68571 0
M  V30 6342 C 618.018 1.84126 -0.384596 0
M  V30 6343 O 617.376 1.69025 0.655751 0
M  V30 6344 C 617.424 2.26429 -2.80646 0
M  V30 6345 O 616.528 3.32032 -2.44598 0
M  V30 6346 H 615.869 0.353765 -0.561913 0
M  V30 6347 H 618.399 0.509916 -1.98144 0
M  V30 6348 H 618.409 2.71133 -3.04878 0
M  V30 6349 H 617.084 1.79733 -3.75058 0
M  V30 6350 H 615.661 2.92769 -2.30956 0
M  V30 6351 N 617.846 1.41785 0.688094 0
M  V30 6352 C 619.071 1.45117 1.48175 0
M  V30 6353 C 619.496 0.060129 1.88004 0
M  V30 6354 O 618.854 -0.938385 1.55126 0
M  V30 6355 C 618.902 2.37224 2.71583 0
M  V30 6356 O 618.006 1.83443 3.69354 0
M  V30 6357 H 617.347 0.492208 0.445676 0
M  V30 6358 H 619.877 1.86329 0.845145 0
M  V30 6359 H 619.887 2.53353 3.19806 0
M  V30 6360 H 618.562 3.38293 2.41931 0
M  V30 6361 H 617.139 1.76802 3.28322 0
M  V30 6362 N 619.324 -0.923095 1.27737 0
M  V30 6363 C 620.554 -1.70277 1.17001 0
M  V30 6364 C 620.962 -1.87188 -0.275199 0
M  V30 6365 O 620.305 -1.39195 -1.19877 0
M  V30 6366 C 620.367 -3.11976 1.78637 0
M  V30 6367 C 620.031 -3.18386 3.27841 0
M  V30 6368 C 621.028 -3.00287 4.2441 0
M  V30 6369 C 618.713 -3.41198 3.68632 0
M  V30 6370 C 620.707 -3.04896 5.59747 0
M  V30 6371 C 618.394 -3.4544 5.04097 0
M  V30 6372 C 619.392 -3.27309 5.99465 0
M  V30 6373 O 619.08 -3.31295 7.32461 0
M  V30 6374 H 618.812 -0.539366 0.407505 0
M  V30 6375 H 621.366 -1.16446 1.69202 0
M  V30 6376 H 619.596 -3.67308 1.20919 0
M  V30 6377 H 621.285 -3.7193 1.6255 0
M  V30 6378 H 622.051 -2.825 3.94232 0
M  V30 6379 H 617.93 -3.54359 2.94873 0
M  V30 6380 H 621.474 -2.90662 6.34162 0
M  V30 6381 H 617.371 -3.62753 5.33929 0
M  V30 6382 H 618.139 -3.47719 7.40968 0
M  V30 6383 N 620.802 -1.09834 -1.13024 0
M  V30 6384 C 622.049 -0.83695 -1.84395 0
M  V30 6385 C 622.377 0.637463 -1.83757 0
M  V30 6386 O 621.632 1.48554 -1.27398 0
M  V30 6387 C 621.931 -1.32263 -3.32026 0
M  V30 6388 C 621.597 -2.80739 -3.52841 0
M  V30 6389 C 620.259 -3.21286 -3.5823 0
M  V30 6390 C 622.611 -3.76449 -3.60466 0
M  V30 6391 C 619.939 -4.56308 -3.68781 0
M  V30 6392 C 622.291 -5.11266 -3.72546 0
M  V30 6393 C 620.955 -5.51397 -3.76189 0
M  V30 6394 H 620.225 -0.306262 -0.674748 0
M  V30 6395 H 622.872 -1.37385 -1.33408 0
M  V30 6396 H 621.177 -0.705618 -3.85394 0
M  V30 6397 H 622.874 -1.09695 -3.85705 0
M  V30 6398 H 619.464 -2.48363 -3.49305 0
M  V30 6399 H 623.648 -3.46234 -3.55578 0
M  V30 6400 H 618.904 -4.86832 -3.69871 0
M  V30 6401 H 623.078 -5.85279 -3.77388 0
M  V30 6402 H 620.705 -6.56017 -3.84117 0
M  V30 6403 N 622.28 1.30327 -0.886154 0
M  V30 6404 C 623.505 2.0079 -0.519425 0
M  V30 6405 C 623.93 1.65979 0.885013 0
M  V30 6406 O 623.288 0.877043 1.58675 0
M  V30 6407 C 623.336 3.53686 -0.702758 0
M  V30 6408 O 622.44 4.11637 0.250828 0
M  V30 6409 H 621.781 0.63171 -0.204544 0
M  V30 6410 H 624.311 1.66145 -1.19402 0
M  V30 6411 H 624.321 4.03531 -0.602207 0
M  V30 6412 H 622.996 3.78361 -1.72673 0
M  V30 6413 H 621.573 3.72755 0.103873 0
M  V30 6414 N 623.758 0.647228 1.43697 0
M  V30 6415 C 625.169 0.238689 1.85168 0
M  V30 6416 C 625.52 -1.21345 1.54175 0
M  V30 6417 O 624.645 -1.92542 0.987743 0
M  V30 6418 C 625.24 0.426422 3.36106 0
M  V30 6419 C 623.799 0.0722541 3.76331 0
M  V30 6420 C 622.946 0.732153 2.6746 0
M  V30 6421 H 625.897 0.851309 1.33934 0
M  V30 6422 H 625.918 -0.32987 3.79067 0
M  V30 6423 H 625.43 1.48339 3.58632 0
M  V30 6424 H 623.531 -0.982355 3.59417 0
M  V30 6425 H 623.644 0.493541 4.76551 0
M  V30 6426 H 622.008 0.16594 2.54159 0
M  V30 6427 H 622.791 1.79204 2.92816 0
M  V30 6428 N 625.236 -1.5273 0.388769 0
M  V30 6429 C 626.199 -2.25043 -0.434544 0
M  V30 6430 C 627.199 -1.26661 -0.990644 0
M  V30 6431 O 628.389 -1.50762 -0.872731 0
M  V30 6432 C 625.521 -3.00507 -1.60961 0
M  V30 6433 H 626.714 -2.99242 0.198549 0
M  V30 6434 H 624.267 -1.55664 0.140875 0
M  V30 6435 H 625.002 -2.30607 -2.28015 0
M  V30 6436 H 624.787 -3.72716 -1.21757 0
M  V30 6437 H 626.277 -3.55413 -2.19251 0
M  V30 6438 N 626.714 -0.118576 -1.57153 0
M  V30 6439 C 627.644 0.828436 -2.1831 0
M  V30 6440 C 628.625 1.27758 -1.12303 0
M  V30 6441 O 629.81 1.34026 -1.40537 0
M  V30 6442 C 626.94 2.07876 -2.78217 0
M  V30 6443 C 625.894 1.76742 -3.89803 0
M  V30 6444 C 625.22 3.08801 -4.36516 0
M  V30 6445 C 626.52 1.03606 -5.11921 0
M  V30 6446 H 628.214 0.318824 -2.97698 0
M  V30 6447 H 625.76 0.151911 -1.43196 0
M  V30 6448 H 627.713 2.74584 -3.19659 0
M  V30 6449 H 626.437 2.61161 -1.96118 0
M  V30 6450 H 625.096 1.12424 -3.48936 0
M  V30 6451 H 624.744 3.6002 -3.51276 0
M  V30 6452 H 624.444 2.88743 -5.11763 0
M  V30 6453 H 625.968 3.76627 -4.80608 0
M  V30 6454 H 627.382 1.60467 -5.50385 0
M  V30 6455 H 625.779 0.936454 -5.92748 0
M  V30 6456 H 626.849 0.0227421 -4.84895 0
M  V30 6457 N 628.193 1.56834 0.155195 0
M  V30 6458 C 629.123 2.00678 1.19376 0
M  V30 6459 C 630.104 0.884973 1.45266 0
M  V30 6460 O 631.289 1.1522 1.56326 0
M  V30 6461 C 628.419 2.38042 2.5289 0
M  V30 6462 C 627.373 3.53332 2.41538 0
M  V30 6463 C 626.699 3.76485 3.79688 0
M  V30 6464 C 627.999 4.86265 1.9064 0
M  V30 6465 H 629.693 2.87688 0.829232 0
M  V30 6466 H 627.239 1.38407 0.397445 0
M  V30 6467 H 629.192 2.67314 3.25763 0
M  V30 6468 H 627.916 1.4796 2.91162 0
M  V30 6469 H 626.575 3.24213 1.71117 0
M  V30 6470 H 626.223 2.83667 4.15382 0
M  V30 6471 H 625.923 4.54068 3.72956 0
M  V30 6472 H 627.447 4.08174 4.54122 0
M  V30 6473 H 628.861 5.14308 2.53299 0
M  V30 6474 H 627.258 5.67597 1.94818 0
M  V30 6475 H 628.328 4.77184 0.861596 0
M  V30 6476 N 629.671 -0.424282 1.51781 0
M  V30 6477 C 630.901 -1.19297 1.68677 0
M  V30 6478 C 631.309 -1.85152 0.389258 0
M  V30 6479 O 630.652 -1.72067 -0.643311 0
M  V30 6480 C 630.714 -2.30929 2.75521 0
M  V30 6481 C 630.378 -1.85335 4.17732 0
M  V30 6482 C 631.375 -1.34951 5.0208 0
M  V30 6483 C 629.06 -1.92629 4.63896 0
M  V30 6484 C 631.054 -0.924636 6.30658 0
M  V30 6485 C 628.741 -1.49754 5.92467 0
M  V30 6486 C 629.739 -0.997543 6.75676 0
M  V30 6487 O 629.427 -0.57492 8.01842 0
M  V30 6488 H 629.159 -0.36512 0.568914 0
M  V30 6489 H 631.713 -0.507327 1.99036 0
M  V30 6490 H 629.943 -3.02811 2.40505 0
M  V30 6491 H 631.632 -2.92748 2.81165 0
M  V30 6492 H 632.398 -1.287 4.67612 0
M  V30 6493 H 628.277 -2.30491 3.99243 0
M  V30 6494 H 631.821 -0.533682 6.95556 0
M  V30 6495 H 627.718 -1.55679 6.26446 0
M  V30 6496 H 628.486 -0.699597 8.15505 0
M  V30 6497 N 631.149 -1.42148 -0.680565 0
M  V30 6498 C 632.56 -1.3768 -1.26099 0
M  V30 6499 C 632.911 -0.0672348 -1.96085 0
M  V30 6500 O 632.036 0.834172 -1.99676 0
M  V30 6501 C 632.631 -2.49387 -2.29328 0
M  V30 6502 C 631.19 -2.4827 -2.82911 0
M  V30 6503 C 630.337 -2.2847 -1.57152 0
M  V30 6504 H 633.288 -1.51446 -0.474326 0
M  V30 6505 H 633.309 -2.19307 -3.10941 0
M  V30 6506 H 632.821 -3.44686 -1.78363 0
M  V30 6507 H 630.922 -1.56773 -3.38013 0
M  V30 6508 H 631.035 -3.45109 -3.3232 0
M  V30 6509 H 629.399 -1.76623 -1.83511 0
M  V30 6510 H 630.182 -3.25816 -1.0816 0
M  V30 6511 N 632.627 0.916307 -1.28225 0
M  V30 6512 C 633.56 2.01954 -1.06254 0
M  V30 6513 C 634.538 1.62587 0.0205983 0
M  V30 6514 O 635.722 1.88073 -0.126824 0
M  V30 6515 C 632.849 3.33086 -0.614141 0
M  V30 6516 C 631.895 3.91435 -1.69354 0
M  V30 6517 S 632.728 4.22603 -3.28887 0
M  V30 6518 C 633.884 5.568 -2.85876 0
M  V30 6519 H 634.117 2.20281 -1.99659 0
M  V30 6520 H 631.65 1.06085 -1.12184 0
M  V30 6521 H 633.608 4.089 -0.36213 0
M  V30 6522 H 632.269 3.12664 0.300036 0
M  V30 6523 H 631.462 4.86098 -1.33136 0
M  V30 6524 H 631.064 3.22248 -1.89821 0
M  V30 6525 H 633.356 6.3658 -2.31888 0
M  V30 6526 H 634.299 5.97927 -3.79326 0
M  V30 6527 H 634.707 5.17865 -2.24669 0
M  V30 6528 N 634.105 1.10431 1.1244 0
M  V30 6529 C 635.333 0.868872 1.87772 0
M  V30 6530 C 635.748 -0.580645 1.7965 0
M  V30 6531 O 635.105 -1.40031 1.17036 0
M  V30 6532 C 635.156 1.30855 3.36986 0
M  V30 6533 O 634.877 2.70123 3.44914 0
M  V30 6534 C 636.378 1.107 4.29256 0
M  V30 6535 H 633.598 0.311868 0.59412 0
M  V30 6536 H 636.142 1.46897 1.42273 0
M  V30 6537 H 634.297 0.752126 3.80029 0
M  V30 6538 H 634.711 2.88923 4.37748 0
M  V30 6539 H 636.185 1.46378 5.32238 0
M  V30 6540 H 636.662 0.0456228 4.39176 0
M  V30 6541 H 637.268 1.64988 3.91994 0
M  V30 6542 N 635.583 -1.29855 0.893053 0
M  V30 6543 C 636.829 -1.96116 0.516349 0
M  V30 6544 C 637.162 -1.70281 -0.933695 0
M  V30 6545 O 636.437 -1.01205 -1.66096 0
M  V30 6546 C 636.72 -3.51068 0.801455 0
M  V30 6547 C 636.573 -3.86387 2.30272 0
M  V30 6548 C 637.892 -4.39186 0.283423 0
M  V30 6549 H 635.011 -0.712335 0.189072 0
M  V30 6550 H 637.653 -1.53587 1.11852 0
M  V30 6551 H 635.803 -3.87424 0.288949 0
M  V30 6552 H 637.475 -3.60012 2.88425 0
M  V30 6553 H 635.718 -3.34167 2.76613 0
M  V30 6554 H 636.389 -4.94512 2.45279 0
M  V30 6555 H 638.865 -4.09785 0.722187 0
M  V30 6556 H 637.741 -5.46505 0.512169 0
M  V30 6557 H 638.002 -4.34511 -0.815643 0
M  V30 6558 N 637.061 -0.65484 -1.43351 0
M  V30 6559 C 638.286 -0.175046 -2.0666 0
M  V30 6560 C 638.711 1.15104 -1.4877 0
M  V30 6561 O 638.069 1.71144 -0.598279 0
M  V30 6562 C 638.117 -0.0991544 -3.60464 0
M  V30 6563 O 637.221 0.938169 -4.01587 0
M  V30 6564 H 636.562 -0.0956148 -0.65708 0
M  V30 6565 H 639.092 -0.898222 -1.83829 0
M  V30 6566 H 639.102 0.083632 -4.07914 0
M  V30 6567 H 637.777 -1.06719 -4.01975 0
M  V30 6568 H 636.354 0.72804 -3.65724 0
M  V30 6569 N 638.539 1.52521 -0.396863 0
M  V30 6570 C 639.487 2.28217 0.44943 0
M  V30 6571 C 640.481 1.32416 1.05652 0
M  V30 6572 O 641.687 1.49925 0.996124 0
M  V30 6573 H 638.062 0.733966 0.1637 0
M  V30 6574 H 640.033 2.97658 -0.210367 0
M  V30 6575 C 638.782 3.10713 1.56054 0
M  V30 6576 H 638.105 3.84291 1.10273 0
M  V30 6577 H 639.545 3.66803 2.12677 0
M  V30 6578 C 638.004 2.23499 2.52091 0
M  V30 6579 O 638.534 1.8669 3.55682 0
M  V30 6580 N 636.74 1.8751 2.2201 0
M  V30 6581 H 636.287 2.17643 1.37802 0
M  V30 6582 H 636.245 1.29448 2.86514 0
M  V30 6583 N 640.017 0.126909 1.57088 0
M  V30 6584 C 640.964 -0.82036 2.15728 0
M  V30 6585 C 641.934 -1.25811 1.08447 0
M  V30 6586 O 643.119 -1.33422 1.36393 0
M  V30 6587 C 640.259 -2.06199 2.76724 0
M  V30 6588 C 639.372 -1.67188 3.98337 0
M  V30 6589 C 638.507 -2.86378 4.47393 0
M  V30 6590 C 637.546 -2.43644 5.61519 0
M  V30 6591 N 636.683 -3.55775 6.05284 0
M  V30 6592 H 641.523 -0.313472 2.96347 0
M  V30 6593 H 639.06 -0.14303 1.46403 0
M  V30 6594 H 641.018 -2.78959 3.10222 0
M  V30 6595 H 639.648 -2.54333 1.98782 0
M  V30 6596 H 638.7 -0.842714 3.70948 0
M  V30 6597 H 640.012 -1.31789 4.81075 0
M  V30 6598 H 639.166 -3.67353 4.82842 0
M  V30 6599 H 637.905 -3.25009 3.63621 0
M  V30 6600 H 636.91 -1.61104 5.25667 0
M  V30 6601 H 638.135 -2.06122 6.47063 0
M  V30 6602 H 636.081 -3.94065 5.24451 0
M  V30 6603 H 635.998 -3.24325 6.82898 0
M  V30 6604 H 637.266 -4.37166 6.45373 0
M  V30 6605 N 641.495 -1.56914 -0.146875 0
M  V30 6606 C 642.723 -1.87515 -0.874394 0
M  V30 6607 C 643.138 -0.715116 -1.74733 0
M  V30 6608 O 642.495 0.315113 -1.79759 0
M  V30 6609 C 642.546 -3.17362 -1.731 0
M  V30 6610 O 642.267 -4.28897 -0.893245 0
M  V30 6611 C 643.768 -3.61479 -2.56609 0
M  V30 6612 H 640.988 -0.621546 -0.252827 0
M  V30 6613 H 643.532 -2.04023 -0.139627 0
M  V30 6614 H 641.687 -3.02608 -2.41883 0
M  V30 6615 H 642.101 -5.03146 -1.48137 0
M  V30 6616 H 643.575 -4.5517 -3.12289 0
M  V30 6617 H 644.052 -2.86773 -3.32653 0
M  V30 6618 H 644.658 -3.78927 -1.93117 0
M  V30 6619 N 642.974 0.416227 -1.52004 0
M  V30 6620 C 643.937 1.48926 -1.74223 0
M  V30 6621 C 644.937 1.48693 -0.612119 0
M  V30 6622 O 646.127 1.50343 -0.879921 0
M  V30 6623 C 643.259 2.88372 -1.81809 0
M  V30 6624 H 644.452 1.3052 -2.70008 0
M  V30 6625 H 642.005 0.646271 -1.42313 0
M  V30 6626 H 642.74 3.12157 -0.879135 0
M  V30 6627 H 642.525 2.89944 -2.6396 0
M  V30 6628 H 644.015 3.66173 -2.00766 0
M  V30 6629 N 644.452 1.42507 0.673017 0
M  V30 6630 C 645.68 1.46473 1.46128 0
M  V30 6631 C 646.095 0.0765912 1.88645 0
M  V30 6632 O 645.452 -0.909057 1.58248 0
M  V30 6633 C 645.503 2.39339 2.70923 0
M  V30 6634 O 645.224 3.72752 2.3019 0
M  V30 6635 C 646.725 2.52343 3.64469 0
M  V30 6636 H 643.945 0.49812 0.449575 0
M  V30 6637 H 646.489 1.87041 0.826802 0
M  V30 6638 H 644.644 2.02019 3.30556 0
M  V30 6639 H 645.058 4.22503 3.10791 0
M  V30 6640 H 646.532 3.2144 4.48754 0
M  V30 6641 H 647.009 1.56189 4.1049 0
M  V30 6642 H 647.615 2.90392 3.10729 0
M  V30 6643 N 645.93 -0.909495 1.28709 0
M  V30 6644 C 646.86 -2.0291 1.15542 0
M  V30 6645 C 647.841 -1.7002 0.0521017 0
M  V30 6646 O 649.026 -1.92835 0.229849 0
M  V30 6647 C 646.156 -3.37458 0.820935 0
M  V30 6648 C 645.11 -3.84524 1.87949 0
M  V30 6649 C 644.436 -5.16086 1.39854 0
M  V30 6650 C 645.736 -4.05918 3.28676 0
M  V30 6651 H 647.43 -2.14183 2.09203 0
M  V30 6652 H 644.976 -1.02913 1.00722 0
M  V30 6653 H 646.929 -4.1528 0.715571 0
M  V30 6654 H 645.653 -3.26249 -0.151374 0
M  V30 6655 H 644.312 -3.08911 1.97408 0
M  V30 6656 H 643.96 -5.01284 0.41518 0
M  V30 6657 H 643.66 -5.48547 2.1064 0
M  V30 6658 H 645.184 -5.96459 1.30649 0
M  V30 6659 H 646.598 -4.74252 3.22115 0
M  V30 6660 H 644.995 -4.49717 3.97334 0
M  V30 6661 H 646.065 -3.10583 3.72379 0
M  V30 6662 N 647.408 -1.11026 -1.11852 0
M  V30 6663 C 648.358 -0.733836 -2.15868 0
M  V30 6664 C 649.342 0.26001 -1.58785 0
M  V30 6665 O 650.534 0.0677901 -1.7687 0
M  V30 6666 C 647.663 -0.173948 -3.42859 0
M  V30 6667 C 646.749 -1.1952 -4.0691 0
M  V30 6668 N 647.14 -2.38797 -4.45881 0
M  V30 6669 C 645.438 -1.03714 -4.33773 0
M  V30 6670 C 646.139 -3.03894 -4.96007 0
M  V30 6671 N 645.115 -2.31389 -4.91894 0
M  V30 6672 H 648.917 -1.64171 -2.43773 0
M  V30 6673 H 646.431 -0.988877 -1.28822 0
M  V30 6674 H 648.428 0.113836 -4.16745 0
M  V30 6675 H 647.088 0.728568 -3.16421 0
M  V30 6676 H 648.099 -2.76281 -4.38051 0
M  V30 6677 H 644.776 -0.190694 -4.17064 0
M  V30 6678 H 646.166 -4.05389 -5.35826 0
M  V30 6679 N 648.886 1.2938 -0.899927 0
M  V30 6680 C 650.111 2.00228 -0.540692 0
M  V30 6681 C 650.536 1.66909 0.867359 0
M  V30 6682 O 649.894 0.893824 1.57735 0
M  V30 6683 C 649.942 3.52921 -0.740232 0
M  V30 6684 O 649.046 4.11879 0.207154 0
M  V30 6685 H 648.387 0.629505 -0.211233 0
M  V30 6686 H 650.917 1.6487 -1.21158 0
M  V30 6687 H 650.927 4.0287 -0.644973 0
M  V30 6688 H 649.602 3.76508 -1.76677 0
M  V30 6689 H 648.179 3.72845 0.0643315 0
M  V30 6690 N 650.364 0.662433 1.43002 0
M  V30 6691 C 651.775 0.258315 1.84904 0
M  V30 6692 C 652.126 -1.19703 1.55453 0
M  V30 6693 O 651.251 -1.91484 1.00811 0
M  V30 6694 C 651.846 0.462047 3.35635 0
M  V30 6695 C 650.405 0.112165 3.76233 0
M  V30 6696 C 649.552 0.760479 2.66668 0
M  V30 6697 H 652.503 0.865467 1.33024 0
M  V30 6698 H 652.524 -0.289646 3.79396 0
M  V30 6699 H 652.036 1.52135 3.57039 0
M  V30 6700 H 650.137 -0.944179 3.60439 0
M  V30 6701 H 650.25 0.544058 4.76001 0
M  V30 6702 H 648.614 0.192887 2.53969 0
M  V30 6703 H 649.397 1.82299 2.90898 0
M  V30 6704 N 651.842 -1.52309 0.404946 0
M  V30 6705 C 653.072 -2.05886 -0.171569 0
M  V30 6706 C 653.48 -1.27527 -1.39762 0
M  V30 6707 O 652.823 -0.319215 -1.80905 0
M  V30 6708 C 652.885 -3.54609 -0.590983 0
M  V30 6709 C 652.549 -4.53989 0.523757 0
M  V30 6710 C 653.546 -5.01084 1.38604 0
M  V30 6711 C 651.231 -4.97465 0.695255 0
M  V30 6712 C 653.225 -5.90295 2.4048 0
M  V30 6713 C 650.912 -5.86473 1.71733 0
M  V30 6714 C 651.91 -6.32782 2.57051 0
M  V30 6715 O 651.598 -7.20029 3.57509 0
M  V30 6716 H 651.33 -0.675508 -0.0257763 0
M  V30 6717 H 653.884 -1.97238 0.573278 0
M  V30 6718 H 652.114 -3.60929 -1.38805 0
M  V30 6719 H 653.803 -3.90853 -1.09494 0
M  V30 6720 H 654.569 -4.68214 1.26492 0
M  V30 6721 H 650.448 -4.60982 0.0408447 0
M  V30 6722 H 653.992 -6.26363 3.07108 0
M  V30 6723 H 649.889 -6.18756 1.83877 0
M  V30 6724 H 650.657 -7.3813 3.53703 0
M  V30 6725 N 653.32 -0.135238 -1.57019 0
M  V30 6726 C 654.548 0.526066 -2.001 0
M  V30 6727 C 654.963 1.59184 -1.01519 0
M  V30 6728 O 654.32 1.82497 -0.0104258 0
M  V30 6729 C 654.371 1.13744 -3.43139 0
M  V30 6730 O 654.092 0.114259 -4.37951 0
M  V30 6731 C 655.593 1.8805 -4.01438 0
M  V30 6732 H 652.813 0.137962 -0.656664 0
M  V30 6733 H 655.357 -0.226359 -2.03243 0
M  V30 6734 H 653.512 1.84056 -3.40885 0
M  V30 6735 H 653.926 0.56058 -5.21496 0
M  V30 6736 H 655.4 2.26133 -5.03555 0
M  V30 6737 H 655.877 2.76194 -3.41487 0
M  V30 6738 H 656.483 1.22464 -4.07287 0
M  V30 6739 N 654.798 1.5699 0.138552 0
M  V30 6740 C 656.045 1.83809 0.849732 0
M  V30 6741 C 656.373 0.717409 1.80786 0
M  V30 6742 O 655.628 -0.292897 1.93496 0
M  V30 6743 C 655.927 3.17007 1.65049 0
M  V30 6744 C 655.593 4.43037 0.838398 0
M  V30 6745 C 654.255 4.77262 0.614385 0
M  V30 6746 C 656.607 5.20495 0.271044 0
M  V30 6747 C 653.935 5.864 -0.187552 0
M  V30 6748 C 656.287 6.30476 -0.517979 0
M  V30 6749 C 654.951 6.63245 -0.75249 0
M  V30 6750 H 654.221 0.672605 0.310939 0
M  V30 6751 H 656.868 1.91166 0.112971 0
M  V30 6752 H 655.173 3.05138 2.4576 0
M  V30 6753 H 656.87 3.34975 2.20437 0
M  V30 6754 H 653.46 4.16211 1.02307 0
M  V30 6755 H 657.644 4.94422 0.431371 0
M  V30 6756 H 652.9 6.10226 -0.378659 0
M  V30 6757 H 657.074 6.89686 -0.964694 0
M  V30 6758 H 654.701 7.47648 -1.37573 0
M  V30 6759 N 656.276 -0.40816 1.52223 0
M  V30 6760 C 657.224 -1.51788 1.76248 0
M  V30 6761 C 658.218 -1.57264 0.629638 0
M  V30 6762 O 659.424 -1.60659 0.811704 0
M  V30 6763 H 655.799 -0.504823 0.557367 0
M  V30 6764 H 657.77 -1.2871 2.69214 0
M  V30 6765 C 656.519 -2.89145 1.93107 0
M  V30 6766 H 655.842 -2.85674 2.79697 0
M  V30 6767 H 657.282 -3.66082 2.13916 0
M  V30 6768 C 655.741 -3.29581 0.698431 0
M  V30 6769 O 656.271 -4.01479 -0.133238 0
M  V30 6770 N 654.477 -2.85651 0.53405 0
M  V30 6771 H 654.024 -2.2731 1.21194 0
M  V30 6772 H 653.982 -3.13065 -0.289387 0
M  V30 6773 N 657.755 -1.42862 -0.66545 0
M  V30 6774 C 658.718 -1.46756 -1.76055 0
M  V30 6775 C 659.718 -0.353866 -1.56858 0
M  V30 6776 O 660.908 -0.615099 -1.62979 0
M  V30 6777 C 658.04 -1.30829 -3.14796 0
M  V30 6778 H 659.233 -2.44271 -1.73987 0
M  V30 6779 H 656.786 -1.29447 -0.875965 0
M  V30 6780 H 657.521 -0.342733 -3.22484 0
M  V30 6781 H 657.306 -2.11551 -3.30134 0
M  V30 6782 H 658.796 -1.36458 -3.94676 0
M  V30 6783 N 659.233 0.902656 -1.29189 0
M  V30 6784 C 660.48 1.65287 -1.16989 0
M  V30 6785 C 660.808 1.92485 0.279232 0
M  V30 6786 O 660.063 1.53143 1.21843 0
M  V30 6787 C 660.362 3.011 -1.92545 0
M  V30 6788 C 660.028 2.93521 -3.42281 0
M  V30 6789 C 658.69 2.91161 -3.83117 0
M  V30 6790 C 661.042 2.82947 -4.3771 0
M  V30 6791 C 658.37 2.76043 -5.17704 0
M  V30 6792 C 660.722 2.69368 -5.72384 0
M  V30 6793 C 659.386 2.65373 -6.12482 0
M  V30 6794 H 658.656 0.604828 -0.428094 0
M  V30 6795 H 661.303 1.05084 -1.60092 0
M  V30 6796 H 659.608 3.65153 -1.42024 0
M  V30 6797 H 661.305 3.58073 -1.80512 0
M  V30 6798 H 657.895 2.96158 -3.09819 0
M  V30 6799 H 662.079 2.83849 -4.07116 0
M  V30 6800 H 657.335 2.71352 -5.47885 0
M  V30 6801 H 661.509 2.60156 -6.45981 0
M  V30 6802 H 659.136 2.53415 -7.16718 0
M  V30 6803 N 660.711 1.11618 1.11262 0
M  V30 6804 C 661.939 0.888739 1.8684 0
M  V30 6805 C 662.354 -0.561558 1.80255 0
M  V30 6806 O 661.711 -1.38782 1.18515 0
M  V30 6807 C 661.762 1.34422 3.35579 0
M  V30 6808 O 661.483 2.73766 3.42029 0
M  V30 6809 C 662.984 1.15246 4.28058 0
M  V30 6810 H 660.204 0.318152 0.590779 0
M  V30 6811 H 662.748 1.48398 1.40707 0
M  V30 6812 H 660.903 0.79239 3.7921 0
M  V30 6813 H 661.317 2.9355 4.34659 0
M  V30 6814 H 662.791 1.52015 5.30656 0
M  V30 6815 H 663.268 0.0922007 4.39103 0
M  V30 6816 H 663.874 1.69136 3.90222 0
M  V30 6817 N 662.189 -1.289 0.906776 0
M  V30 6818 C 663.605 -1.47733 0.603902 0
M  V30 6819 C 663.805 -1.82568 -0.852702 0
M  V30 6820 O 662.861 -1.92642 -1.63234 0
M  V30 6821 C 664.174 -2.58522 1.53581 0
M  V30 6822 C 665.722 -2.72394 1.54177 0
M  V30 6823 C 666.197 -3.86318 2.46013 0
M  V30 6824 N 667.688 -3.93661 2.441 0
M  V30 6825 C 668.423 -4.81177 3.11859 0
M  V30 6826 N 667.919 -5.73333 3.88923 0
M  V30 6827 N 669.712 -4.74728 3.00981 0
M  V30 6828 H 661.863 -1.04567 1.84877 0
M  V30 6829 H 664.126 -0.520118 0.792579 0
M  V30 6830 H 663.832 -2.39667 2.57396 0
M  V30 6831 H 663.706 -3.55475 1.26165 0
M  V30 6832 H 666.093 -2.90641 0.511034 0
M  V30 6833 H 666.174 -1.75993 1.85634 0
M  V30 6834 H 665.818 -3.68826 3.49185 0
M  V30 6835 H 665.748 -4.82102 2.11862 0
M  V30 6836 H 668.239 -3.27751 1.88115 0
M  V30 6837 H 668.552 -6.36923 4.37663 0
M  V30 6838 H 666.897 -5.73196 3.93029 0
M  V30 6839 H 670.088 -4.01722 2.40286 0
M  V30 6840 H 670.261 -5.42719 3.54062 0
M  V30 6841 N 663.667 -0.670007 -1.42649 0
M  V30 6842 C 665.078 -0.268118 -1.84765 0
M  V30 6843 C 665.429 1.18877 -1.56086 0
M  V30 6844 O 664.554 1.90947 -1.01825 0
M  V30 6845 C 665.149 -0.47984 -3.35385 0
M  V30 6846 C 663.708 -0.132116 -3.76168 0
M  V30 6847 C 662.855 -0.774611 -2.66261 0
M  V30 6848 H 665.806 -0.872509 -1.32563 0
M  V30 6849 H 665.827 0.269522 -3.79544 0
M  V30 6850 H 665.339 -1.54026 -3.56227 0
M  V30 6851 H 663.44 0.92505 -3.60934 0
M  V30 6852 H 663.553 -0.569294 -4.75706 0
M  V30 6853 H 661.917 -0.206353 -2.53863 0
M  V30 6854 H 662.7 -1.83839 -2.89928 0
M  V30 6855 N 665.145 1.52092 -0.413018 0
M  V30 6856 C 666.393 2.01456 0.161178 0
M  V30 6857 C 666.714 1.30034 1.45314 0
M  V30 6858 O 665.984 0.427435 1.9118 0
M  V30 6859 H 664.564 0.744376 0.0625526 0
M  V30 6860 H 667.226 1.86974 -0.550151 0
M  V30 6861 H 666.322 3.1008 0.354517 0
M  V30 6862 N 666.623 0.143563 1.56945 0
M  V30 6863 C 667.848 -0.518701 2.00809 0
M  V30 6864 C 668.273 -1.5785 1.02298 0
M  V30 6865 O 667.631 -1.813 -0.0017839 0
M  V30 6866 C 667.679 -1.09929 3.43436 0
M  V30 6867 O 666.783 -2.21425 3.47915 0
M  V30 6868 H 666.124 -0.127215 0.6517 0
M  V30 6869 H 668.654 0.239283 2.03196 0
M  V30 6870 H 668.664 -1.4288 3.82164 0
M  V30 6871 H 667.339 -0.323162 4.14643 0
M  V30 6872 H 665.916 -1.89728 3.21026 0
M  V30 6873 N 668.101 -1.57061 -0.130224 0
M  V30 6874 C 669.35 -1.83446 -0.838488 0
M  V30 6875 C 669.663 -0.727468 -1.81569 0
M  V30 6876 O 670.869 -0.877394 -2.56932 0
M  V30 6877 C 669.325 -3.25201 -1.54182 0
M  V30 6878 C 668.933 -4.4388 -0.606178 0
M  V30 6879 C 670.677 -3.60844 -2.23588 0
M  V30 6880 C 668.584 -5.76661 -1.31209 0
M  V30 6881 H 667.514 -0.684185 -0.316871 0
M  V30 6882 H 670.165 -1.83273 -0.0912059 0
M  V30 6883 H 668.547 -3.1981 -2.33533 0
M  V30 6884 H 669.721 -4.60545 0.153308 0
M  V30 6885 H 668.036 -4.16395 -0.0196705 0
M  V30 6886 H 670.633 -4.57313 -2.77072 0
M  V30 6887 H 670.976 -2.87724 -3.00867 0
M  V30 6888 H 671.509 -3.67971 -1.51137 0
M  V30 6889 H 668.248 -6.52922 -0.580823 0
M  V30 6890 H 667.768 -5.63902 -2.04387 0
M  V30 6891 H 669.447 -6.20035 -1.8484 0
M  V30 6892 N 669.579 0.400081 -1.52437 0
M  V30 6893 C 670.99 0.97851 -1.59003 0
M  V30 6894 C 671.341 1.91293 -0.436068 0
M  V30 6895 O 670.466 2.1183 0.442365 0
M  V30 6896 C 671.061 1.78145 -2.88184 0
M  V30 6897 C 669.62 2.30976 -2.97199 0
M  V30 6898 C 668.767 1.11212 -2.54022 0
M  V30 6899 H 671.718 0.180002 -1.57676 0
M  V30 6900 H 671.739 2.63968 -2.74046 0
M  V30 6901 H 671.251 1.1011 -3.72152 0
M  V30 6902 H 669.352 3.02355 -2.17744 0
M  V30 6903 H 669.465 2.61221 -4.01622 0
M  V30 6904 H 667.829 1.46882 -2.08081 0
M  V30 6905 H 668.612 0.447307 -3.40373 0
M  V30 6906 N 671.057 1.43213 0.657864 0
M  V30 6907 C 672.297 1.46083 1.42965 0
M  V30 6908 C 672.661 0.0809712 1.91829 0
M  V30 6909 O 673.862 -0.0156305 2.68795 0
M  V30 6910 C 672.133 2.47044 2.58271 0
M  V30 6911 S 673.692 2.68753 3.46868 0
M  V30 6912 H 670.51 0.517015 0.488074 0
M  V30 6913 H 673.112 1.79945 0.764213 0
M  V30 6914 H 671.816 3.46044 2.20639 0
M  V30 6915 H 671.347 2.14665 3.2967 0
M  V30 6916 H 673.362 1.98329 4.54841 0
M  V30 6917 N 672.536 -0.895792 1.29666 0
M  V30 6918 C 673.468 -2.00563 1.10937 0
M  V30 6919 C 674.481 -1.62705 0.055734 0
M  V30 6920 O 675.67 -1.7595 0.300656 0
M  V30 6921 C 672.77 -3.32262 0.667448 0
M  V30 6922 C 671.943 -3.98625 1.80047 0
M  V30 6923 C 671.002 -5.08617 1.3489 0
M  V30 6924 O 670.028 -5.30837 2.05429 0
M  V30 6925 N 671.23 -5.80076 0.221937 0
M  V30 6926 H 673.995 -2.17184 2.06522 0
M  V30 6927 H 671.556 -1.06822 1.21658 0
M  V30 6928 H 673.548 -4.03196 0.348586 0
M  V30 6929 H 672.118 -3.11985 -0.196055 0
M  V30 6930 H 671.338 -3.21005 2.28801 0
M  V30 6931 H 672.626 -4.39704 2.56003 0
M  V30 6932 H 672.024 -5.64514 -0.366084 0
M  V30 6933 H 670.581 -6.51789 -0.0375346 0
M  V30 6934 N 674.014 -1.12206 -1.10668 0
M  V30 6935 C 674.977 -0.790867 -2.15123 0
M  V30 6936 C 675.977 0.193618 -1.5963 0
M  V30 6937 O 677.167 -0.0318728 -1.74171 0
M  V30 6938 C 674.299 -0.174797 -3.40452 0
M  V30 6939 H 675.492 -1.7163 -2.45933 0
M  V30 6940 H 673.045 -0.924993 -1.2599 0
M  V30 6941 H 673.78 0.760478 -3.15257 0
M  V30 6942 H 673.565 -0.88358 -3.82015 0
M  V30 6943 H 675.055 0.0405162 -4.1758 0
M  V30 6944 N 675.492 1.28418 -0.913599 0
M  V30 6945 C 676.717 1.99643 -0.561899 0
M  V30 6946 C 677.142 1.67819 0.849608 0
M  V30 6947 O 676.5 0.910503 1.56779 0
M  V30 6948 C 676.548 3.52116 -0.777622 0
M  V30 6949 O 675.652 4.12076 0.163457 0
M  V30 6950 H 674.993 0.627229 -0.217898 0
M  V30 6951 H 677.523 1.63575 -1.229 0
M  V30 6952 H 677.533 4.02163 -0.687666 0
M  V30 6953 H 676.208 3.74613 -1.8066 0
M  V30 6954 H 674.785 3.72892 0.0247827 0
M  V30 6955 N 676.97 0.677563 1.42291 0
M  V30 6956 C 677.933 0.0101085 2.29198 0
M  V30 6957 C 678.933 -0.726219 1.43467 0
M  V30 6958 O 680.123 -0.563807 1.64824 0
M  V30 6959 C 677.255 -0.996316 3.26016 0
M  V30 6960 H 678.448 0.775071 2.89711 0
M  V30 6961 H 676.001 0.440065 1.49977 0
M  V30 6962 H 676.736 -1.78967 2.70446 0
M  V30 6963 H 676.521 -0.471687 3.89253 0
M  V30 6964 H 678.011 -1.46167 3.91184 0
M  V30 6965 N 678.448 -1.51871 0.421078 0
M  V30 6966 C 679.864 -1.59435 0.0725398 0
M  V30 6967 C 680.064 -1.43315 -1.41644 0
M  V30 6968 O 679.12 -1.26614 -2.18461 0
M  V30 6969 C 680.433 -2.9509 0.578132 0
M  V30 6970 C 681.981 -3.08356 0.537149 0
M  V30 6971 C 682.456 -4.4651 1.01945 0
M  V30 6972 N 683.947 -4.52784 0.976758 0
M  V30 6973 C 684.682 -5.57976 1.32099 0
M  V30 6974 N 684.178 -6.70664 1.73727 0
M  V30 6975 N 685.971 -5.48248 1.2402 0
M  V30 6976 H 678.122 -1.60595 1.39007 0
M  V30 6977 H 680.385 -0.756138 0.571803 0
M  V30 6978 H 680.091 -3.12205 1.61929 0
M  V30 6979 H 679.965 -3.772 -0.00578374 0
M  V30 6980 H 682.352 -2.90919 -0.494991 0
M  V30 6981 H 682.433 -2.28125 1.15727 0
M  V30 6982 H 682.077 -4.64692 2.04997 0
M  V30 6983 H 682.007 -5.25256 0.376023 0
M  V30 6984 H 684.498 -3.71898 0.670851 0
M  V30 6985 H 684.811 -7.46932 1.98274 0
M  V30 6986 H 683.156 -6.71914 1.77641 0
M  V30 6987 H 686.347 -4.59095 0.913756 0
M  V30 6988 H 686.52 -6.30119 1.51176 0
M  V30 6989 N 679.926 -0.151884 -1.56866 0
M  V30 6990 C 681.166 0.500695 -1.98173 0
M  V30 6991 C 681.53 1.61715 -1.03499 0
M  V30 6992 O 682.731 2.33093 -1.33869 0
M  V30 6993 C 681.002 0.989333 -3.43434 0
M  V30 6994 S 682.561 1.64583 -4.06765 0
M  V30 6995 H 679.379 0.16173 -0.692361 0
M  V30 6996 H 681.981 -0.244754 -1.93962 0
M  V30 6997 H 680.685 0.166072 -4.10064 0
M  V30 6998 H 680.216 1.76929 -3.51368 0
M  V30 6999 H 682.231 2.93326 -4.00218 0
M  V30 7000 N 681.404 1.57128 0.121893 0
M  V30 7001 C 682.815 1.73902 0.679348 0
M  V30 7002 C 683.166 0.770135 1.80453 0
M  V30 7003 O 682.291 -0.0576083 2.16323 0
M  V30 7004 C 682.886 3.15328 1.2391 0
M  V30 7005 C 681.445 3.33618 1.74288 0
M  V30 7006 C 680.592 2.6978 0.641414 0
M  V30 7007 H 683.543 1.58359 -0.104 0
M  V30 7008 H 683.564 3.16718 2.10879 0
M  V30 7009 H 683.076 3.85821 0.419957 0
M  V30 7010 H 681.177 2.68162 2.58689 0
M  V30 7011 H 681.29 4.4176 1.85432 0
M  V30 7012 H 679.654 2.30935 1.0743 0
M  V30 7013 H 680.437 3.42895 -0.166707 0
M  V30 7014 N 682.882 -0.391992 1.52647 0
M  V30 7015 C 683.83 -1.4991 1.77848 0
M  V30 7016 C 684.824 -1.56587 0.646282 0
M  V30 7017 O 686.03 -1.59789 0.828698 0
M  V30 7018 H 682.405 -0.498883 0.56269 0
M  V30 7019 H 684.376 -1.25847 2.70564 0
M  V30 7020 C 683.125 -2.87081 1.96163 0
M  V30 7021 H 682.448 -2.82692 2.82711 0
M  V30 7022 H 683.888 -3.63792 2.17787 0
M  V30 7023 C 682.347 -3.28822 0.733348 0
M  V30 7024 O 682.877 -4.01598 -0.0906481 0
M  V30 7025 N 681.083 -2.85068 0.564317 0
M  V30 7026 H 680.63 -2.26012 1.23598 0
M  V30 7027 H 680.588 -3.13355 -0.256166 0
M  V30 7028 N 684.36 -1.4356 -0.65026 0
M  V30 7029 C 685.585 -1.48995 -1.44275 0
M  V30 7030 C 686.01 -0.109954 -1.87778 0
M  V30 7031 O 685.368 0.896926 -1.57559 0
M  V30 7032 C 685.416 -2.44341 -2.65198 0
M  V30 7033 O 684.52 -1.93172 -3.6436 0
M  V30 7034 H 683.861 -0.503852 -0.432469 0
M  V30 7035 H 686.391 -1.88504 -0.795446 0
M  V30 7036 H 686.401 -2.61743 -3.12977 0
M  V30 7037 H 685.076 -3.44588 -2.32877 0
M  V30 7038 H 683.653 -1.85445 -3.23519 0
M  V30 7039 N 685.838 0.888903 -1.30139 0
M  V30 7040 C 687.078 1.65456 -1.20015 0
M  V30 7041 C 687.442 1.90467 0.242148 0
M  V30 7042 O 688.643 2.6472 0.466561 0
M  V30 7043 C 686.914 2.96071 -2.00191 0
M  V30 7044 S 688.473 3.87055 -2.06721 0
M  V30 7045 H 685.291 0.567927 -0.427761 0
M  V30 7046 H 687.893 1.05539 -1.64565 0
M  V30 7047 H 686.597 2.7559 -3.04103 0
M  V30 7048 H 686.128 3.61023 -1.56288 0
M  V30 7049 H 688.143 4.81676 -1.19174 0
M  V30 7050 N 687.317 1.12792 1.10072 0
M  V30 7051 C 688.563 0.886857 1.82381 0
M  V30 7052 C 688.896 -0.58576 1.85155 0
M  V30 7053 O 688.171 -1.43317 1.31493 0
M  V30 7054 C 688.454 1.46703 3.28862 0
M  V30 7055 C 688.307 3.00829 3.34398 0
M  V30 7056 C 689.626 1.12971 4.25353 0
M  V30 7057 H 686.745 0.32362 0.662148 0
M  V30 7058 H 689.387 1.39513 1.28982 0
M  V30 7059 H 687.537 1.03476 3.74466 0
M  V30 7060 H 689.209 3.52764 2.97247 0
M  V30 7061 H 687.452 3.36164 2.74183 0
M  V30 7062 H 688.123 3.36519 4.3756 0
M  V30 7063 H 690.599 1.50313 3.88001 0
M  V30 7064 H 689.475 1.56223 5.26199 0
M  V30 7065 H 689.736 0.0424452 4.4208 0
M  V30 7066 N 688.795 -1.27931 0.920396 0
M  V30 7067 C 690.023 -1.98805 0.573087 0
M  V30 7068 C 690.438 -1.68724 -0.847201 0
M  V30 7069 O 689.795 -0.943699 -1.56207 0
M  V30 7070 C 689.846 -3.52971 0.780633 0
M  V30 7071 O 689.567 -3.81994 2.14504 0
M  V30 7072 C 691.068 -4.411 0.44105 0
M  V30 7073 H 688.288 -0.634651 0.21785 0
M  V30 7074 H 690.832 -1.62965 1.23542 0
M  V30 7075 H 688.987 -3.87048 0.165204 0
M  V30 7076 H 689.401 -4.76609 2.18962 0
M  V30 7077 H 690.875 -5.48312 0.637006 0
M  V30 7078 H 691.352 -4.34758 -0.62306 0
M  V30 7079 H 691.958 -4.12532 1.0343 0
M  V30 7080 N 690.273 -0.685099 -1.4193 0
M  V30 7081 C 691.521 -0.21124 -2.00993 0
M  V30 7082 C 691.842 1.18985 -1.54491 0
M  V30 7083 O 691.112 1.8009 -0.771 0
M  V30 7084 H 689.692 -0.0751059 -0.743215 0
M  V30 7085 H 692.354 -0.883915 -1.73704 0
M  V30 7086 H 691.45 -0.220513 -3.1132 0
M  V30 7087 N 691.751 1.51645 -0.429126 0
M  V30 7088 C 692.997 2.02314 0.140286 0
M  V30 7089 C 693.33 1.31314 1.43074 0
M  V30 7090 O 692.605 0.425531 1.89788 0
M  V30 7091 C 692.888 3.5822 0.36749 0
M  V30 7092 C 692.741 4.39846 -0.941039 0
M  V30 7093 C 694.06 4.25055 1.14089 0
M  V30 7094 H 691.179 0.735335 0.0495112 0
M  V30 7095 H 693.821 1.81358 -0.566514 0
M  V30 7096 H 691.971 3.76207 0.969556 0
M  V30 7097 H 693.643 4.33527 -1.57646 0
M  V30 7098 H 691.886 4.05259 -1.54751 0
M  V30 7099 H 692.557 5.47069 -0.73621 0
M  V30 7100 H 695.033 4.11288 0.630986 0
M  V30 7101 H 693.909 5.34038 1.26863 0
M  V30 7102 H 694.17 3.85358 2.16683 0
M  V30 7103 N 693.229 0.160201 1.56784 0
M  V30 7104 C 694.459 -0.493449 2.00621 0
M  V30 7105 C 694.867 -1.5809 1.03943 0
M  V30 7106 O 694.21 -1.83675 0.0305343 0
M  V30 7107 C 694.272 -1.14169 3.4089 0
M  V30 7108 C 693.936 -0.197243 4.56574 0
M  V30 7109 C 694.933 0.580174 5.16653 0
M  V30 7110 C 692.618 -0.0963038 5.02208 0
M  V30 7111 C 694.612 1.44584 6.20785 0
M  V30 7112 C 692.299 0.772959 6.06192 0
M  V30 7113 C 693.297 1.54263 6.65351 0
M  V30 7114 O 692.985 2.39738 7.67321 0
M  V30 7115 H 692.717 -0.131764 0.663034 0
M  V30 7116 H 695.271 0.255728 2.03802 0
M  V30 7117 H 693.501 -1.93877 3.34587 0
M  V30 7118 H 695.19 -1.69641 3.6875 0
M  V30 7119 H 695.956 0.5123 4.82287 0
M  V30 7120 H 691.835 -0.685143 4.5588 0
M  V30 7121 H 695.379 2.04706 6.66889 0
M  V30 7122 H 691.276 0.842077 6.39984 0
M  V30 7123 H 692.044 2.33131 7.84597 0
M  V30 7124 N 694.707 -1.5719 -0.113559 0
M  V30 7125 C 695.935 -1.89328 -0.834422 0
M  V30 7126 C 696.35 -0.752018 -1.73177 0
M  V30 7127 O 695.707 0.276912 -1.80387 0
M  V30 7128 C 695.758 -3.20962 -1.66329 0
M  V30 7129 O 695.479 -4.30695 -0.802069 0
M  V30 7130 C 696.98 -3.6684 -2.48884 0
M  V30 7131 H 694.2 -0.626769 -0.239587 0
M  V30 7132 H 696.744 -2.04273 -0.0963195 0
M  V30 7133 H 694.899 -3.0767 -2.35409 0
M  V30 7134 H 695.313 -5.06175 -1.37431 0
M  V30 7135 H 696.787 -4.61692 -3.02563 0
M  V30 7136 H 697.264 -2.93765 -3.26495 0
M  V30 7137 H 697.87 -3.82938 -1.85036 0
M  V30 7138 N 696.185 0.383891 -1.52853 0
M  V30 7139 C 697.462 1.14296 -1.58732 0
M  V30 7140 C 697.842 2.07585 -0.383611 0
M  V30 7141 O 697.19 2.1971 0.627661 0
M  V30 7142 C 697.4 1.89816 -2.92867 0
M  V30 7143 C 698.748 2.44998 -3.46787 0
M  V30 7144 O 699.772 1.99966 -2.94774 0
M  V30 7145 O 698.631 3.2727 -4.37672 0
M  V30 7146 H 695.725 0.52326 -0.640413 0
M  V30 7147 H 698.271 0.388631 -1.6519 0
M  V30 7148 H 697.043 1.21626 -3.71918 0
M  V30 7149 H 696.666 2.72199 -2.89816 0
M  V30 7150 N 697.663 1.43903 0.642637 0
M  V30 7151 C 699.074 1.40975 1.22404 0
M  V30 7152 C 699.425 0.1192 1.95838 0
M  V30 7153 O 698.55 -0.780939 2.01818 0
M  V30 7154 C 699.145 2.5538 2.22636 0
M  V30 7155 C 697.704 2.55684 2.76229 0
M  V30 7156 C 696.851 2.32556 1.51039 0
M  V30 7157 H 699.802 1.5265 0.434006 0
M  V30 7158 H 699.823 2.27474 3.05017 0
M  V30 7159 H 699.335 3.49294 1.69161 0
M  V30 7160 H 697.436 1.65679 3.33738 0
M  V30 7161 H 697.549 3.53799 3.23053 0
M  V30 7162 H 695.913 1.81427 1.78764 0
M  V30 7163 H 696.696 3.28569 0.99484 0
M  V30 7164 N 699.141 -0.881989 1.30609 0
M  V30 7165 C 700.371 -1.66469 1.22359 0
M  V30 7166 C 700.779 -1.87969 -0.215507 0
M  V30 7167 O 700.122 -1.42938 -1.15388 0
M  V30 7168 C 700.184 -3.06135 1.88472 0
M  V30 7169 C 699.848 -3.07795 3.37804 0
M  V30 7170 C 700.845 -2.86633 4.33749 0
M  V30 7171 C 698.53 -3.29297 3.793 0
M  V30 7172 C 700.524 -2.86934 5.69164 0
M  V30 7173 C 698.211 -3.29228 5.14832 0
M  V30 7174 C 699.209 -3.08071 6.09574 0
M  V30 7175 O 698.897 -3.07824 7.4263 0
M  V30 7176 H 698.629 -0.526129 0.424458 0
M  V30 7177 H 701.183 -1.11004 1.72821 0
M  V30 7178 H 699.413 -3.63276 1.32543 0
M  V30 7179 H 701.102 -3.66571 1.74301 0
M  V30 7180 H 701.868 -2.69814 4.0302 0
M  V30 7181 H 697.747 -3.44799 3.05998 0
M  V30 7182 H 701.291 -2.70339 6.43088 0
M  V30 7183 H 697.188 -3.45583 5.452 0
M  V30 7184 H 697.956 -3.2397 7.51656 0
M  V30 7185 N 700.619 -1.13374 -1.09472 0
M  V30 7186 C 702.03 -0.90801 -1.63132 0
M  V30 7187 C 702.381 0.555576 -1.8817 0
M  V30 7188 O 701.506 1.42218 -1.63104 0
M  V30 7189 C 702.101 -1.64182 -2.96361 0
M  V30 7190 C 700.66 -1.46197 -3.46848 0
M  V30 7191 C 699.807 -1.67134 -2.21273 0
M  V30 7192 H 702.758 -1.2871 -0.928411 0
M  V30 7193 H 702.779 -1.09863 -3.64294 0
M  V30 7194 H 702.291 -2.707 -2.78106 0
M  V30 7195 H 700.392 -0.419788 -3.70228 0
M  V30 7196 H 700.505 -2.22472 -4.24315 0
M  V30 7197 H 698.869 -1.09616 -2.29905 0
M  V30 7198 H 699.652 -2.74971 -2.05538 0
M  V30 7199 N 702.098 1.27442 -0.927168 0
M  V30 7200 C 703.028 2.29256 -0.443188 0
M  V30 7201 C 704.009 1.62701 0.49624 0
M  V30 7202 O 705.194 1.90013 0.401105 0
M  V30 7203 C 702.324 3.45955 0.305366 0
M  V30 7204 C 701.278 4.24501 -0.546178 0
M  V30 7205 C 700.604 5.33671 0.331512 0
M  V30 7206 C 701.904 4.89921 -1.81037 0
M  V30 7207 H 703.598 2.69988 -1.29409 0
M  V30 7208 H 701.144 1.29792 -0.623705 0
M  V30 7209 H 703.097 4.1628 0.654885 0
M  V30 7210 H 701.821 3.04138 1.19029 0
M  V30 7211 H 700.48 3.55921 -0.878398 0
M  V30 7212 H 700.128 4.88096 1.21537 0
M  V30 7213 H 699.828 5.87131 -0.234746 0
M  V30 7214 H 701.352 6.0684 0.676614 0
M  V30 7215 H 702.766 5.52536 -1.52895 0
M  V30 7216 H 701.163 5.53436 -2.32009 0
M  V30 7217 H 702.233 4.13652 -2.53021 0
M  V30 7218 N 703.576 0.692616 1.41565 0
M  V30 7219 C 704.825 0.219452 2.00503 0
M  V30 7220 C 705.138 -1.18683 1.55479 0
M  V30 7221 O 706.344 -1.75731 2.06956 0
M  V30 7222 C 704.8 0.341451 3.58277 0
M  V30 7223 C 704.408 1.75291 4.12283 0
M  V30 7224 C 706.152 -0.0720899 4.24439 0
M  V30 7225 C 704.059 1.82673 5.62481 0
M  V30 7226 H 702.989 0.0782874 0.749925 0
M  V30 7227 H 705.64 0.860386 1.62079 0
M  V30 7228 H 704.022 -0.367683 3.94289 0
M  V30 7229 H 705.196 2.49057 3.87695 0
M  V30 7230 H 703.511 2.11587 3.58636 0
M  V30 7231 H 706.108 -0.0373385 5.34687 0
M  V30 7232 H 706.451 -1.11034 4.0122 0
M  V30 7233 H 706.984 0.586663 3.9345 0
M  V30 7234 H 703.723 2.84539 5.90523 0
M  V30 7235 H 703.243 1.13288 5.89004 0
M  V30 7236 H 704.922 1.58827 6.27203 0
M  V30 7237 N 705.054 -1.51416 0.437162 0
M  V30 7238 C 706.301 -2.02086 -0.129364 0
M  V30 7239 C 706.629 -1.32133 -1.42728 0
M  V30 7240 O 705.884 -0.424916 -1.91031 0
M  V30 7241 C 706.183 -3.55203 -0.39564 0
M  V30 7242 C 705.849 -4.43447 0.81644 0
M  V30 7243 C 704.511 -4.67285 1.14884 0
M  V30 7244 C 706.863 -4.95219 1.62503 0
M  V30 7245 C 704.191 -5.40141 2.29052 0
M  V30 7246 C 706.543 -5.69327 2.7577 0
M  V30 7247 C 705.207 -5.91429 3.09464 0
M  V30 7248 H 704.477 -0.739486 -0.0473375 0
M  V30 7249 H 707.124 -1.82368 0.584321 0
M  V30 7250 H 705.429 -3.73252 -1.19121 0
M  V30 7251 H 707.126 -3.91944 -0.847399 0
M  V30 7252 H 703.716 -4.2509 0.547422 0
M  V30 7253 H 707.9 -4.76686 1.38144 0
M  V30 7254 H 703.156 -5.55468 2.55471 0
M  V30 7255 H 707.33 -6.08433 3.38795 0
M  V30 7256 H 704.957 -6.47662 3.98042 0
M  V30 7257 N 706.532 -0.168513 -1.56696 0
M  V30 7258 C 707.762 0.482802 -2.0088 0
M  V30 7259 C 708.17 1.57537 -1.0478 0
M  V30 7260 O 707.513 1.83656 -0.0402746 0
M  V30 7261 C 707.575 1.1236 -3.4149 0
M  V30 7262 C 707.239 0.173027 -4.56672 0
M  V30 7263 C 708.236 -0.607565 -5.16338 0
M  V30 7264 C 705.921 0.0696691 -5.02252 0
M  V30 7265 C 707.915 -1.47874 -6.2001 0
M  V30 7266 C 705.602 -0.805096 -6.05773 0
M  V30 7267 C 706.6 -1.57789 -6.64524 0
M  V30 7268 O 706.288 -2.43804 -7.66038 0
M  V30 7269 H 706.02 0.128246 -0.663723 0
M  V30 7270 H 708.574 -0.266532 -2.03663 0
M  V30 7271 H 706.804 1.921 -3.35611 0
M  V30 7272 H 708.493 1.67683 -3.69645 0
M  V30 7273 H 709.259 -0.53787 -4.82008 0
M  V30 7274 H 705.138 0.660957 -4.56237 0
M  V30 7275 H 708.682 -2.0824 -6.65794 0
M  V30 7276 H 704.579 -0.876005 -6.39528 0
M  V30 7277 H 705.347 -2.37289 -7.83349 0
M  V30 7278 N 708.01 1.57248 0.105221 0
M  V30 7279 C 709.426 1.52853 0.459153 0
M  V30 7280 C 709.626 0.883674 1.8109 0
M  V30 7281 O 708.682 0.471864 2.48052 0
M  V30 7282 C 709.995 2.97596 0.43096 0
M  V30 7283 C 711.543 3.08758 0.513536 0
M  V30 7284 C 712.018 4.55089 0.515593 0
M  V30 7285 N 713.509 4.59597 0.576639 0
M  V30 7286 C 714.244 5.70253 0.599904 0
M  V30 7287 N 713.74 6.90368 0.579985 0
M  V30 7288 N 715.533 5.58399 0.643953 0
M  V30 7289 H 707.684 1.97547 -0.780306 0
M  V30 7290 H 709.947 0.902758 -0.289363 0
M  V30 7291 H 709.653 3.48201 -0.494903 0
M  V30 7292 H 709.527 3.55756 1.2537 0
M  V30 7293 H 711.914 2.58148 1.42982 0
M  V30 7294 H 711.995 2.53568 -0.337148 0
M  V30 7295 H 711.639 5.06348 -0.396701 0
M  V30 7296 H 711.569 5.08105 1.38335 0
M  V30 7297 H 714.06 3.73144 0.597639 0
M  V30 7298 H 714.373 7.70462 0.600741 0
M  V30 7299 H 712.718 6.92843 0.547191 0
M  V30 7300 H 715.909 4.63467 0.656975 0
M  V30 7301 H 716.082 6.44644 0.658616 0
M  V30 7302 N 709.488 -0.375779 1.53054 0
M  V30 7303 C 710.436 -1.48015 1.79428 0
M  V30 7304 C 711.43 -1.55893 0.662854 0
M  V30 7305 O 712.636 -1.58901 0.845599 0
M  V30 7306 H 709.011 -0.492887 0.56795 0
M  V30 7307 H 710.982 -1.22971 2.71884 0
M  V30 7308 C 709.731 -2.84984 1.99197 0
M  V30 7309 H 709.054 -2.79677 2.85693 0
M  V30 7310 H 710.494 -3.61462 2.21633 0
M  V30 7311 C 708.953 -3.28025 0.768183 0
M  V30 7312 O 709.483 -4.01671 -0.0480482 0
M  V30 7313 N 707.689 -2.84454 0.594521 0
M  V30 7314 H 707.236 -2.24688 1.25988 0
M  V30 7315 H 707.194 -3.13609 -0.222916 0
M  V30 7316 N 710.966 -1.44241 -0.634997 0
M  V30 7317 C 711.916 -1.47247 -1.74076 0
M  V30 7318 C 712.9 -0.338708 -1.57295 0
M  V30 7319 O 714.092 -0.583751 -1.67097 0
M  V30 7320 C 711.221 -1.41579 -3.12746 0
M  V30 7321 C 710.307 -2.60055 -3.35011 0
M  V30 7322 N 710.698 -3.85321 -3.27661 0
M  V30 7323 C 708.996 -2.55168 -3.65794 0
M  V30 7324 C 709.697 -4.64241 -3.50508 0
M  V30 7325 N 708.673 -3.95254 -3.73196 0
M  V30 7326 H 712.475 -2.4195 -1.66845 0
M  V30 7327 H 709.989 -1.3915 -0.837326 0
M  V30 7328 H 711.986 -1.41816 -3.92038 0
M  V30 7329 H 710.646 -0.479108 -3.21146 0
M  V30 7330 H 711.657 -4.17345 -3.06665 0
M  V30 7331 H 708.334 -1.70276 -3.81198 0
M  V30 7332 H 709.724 -5.73267 -3.50449 0
M  V30 7333 N 712.444 0.87505 -1.31075 0
M  V30 7334 C 713.672 1.66058 -1.23419 0
M  V30 7335 C 714.087 1.87723 0.201347 0
M  V30 7336 O 713.444 1.43178 1.13165 0
M  V30 7337 C 713.495 3.03142 -1.96945 0
M  V30 7338 O 713.216 2.82448 -3.34895 0
M  V30 7339 C 714.717 3.97583 -1.96067 0
M  V30 7340 H 711.937 0.517868 -0.426677 0
M  V30 7341 H 714.481 1.09258 -1.72867 0
M  V30 7342 H 712.636 3.56645 -1.51271 0
M  V30 7343 H 713.05 3.69483 -3.72267 0
M  V30 7344 H 714.524 4.91104 -2.52034 0
M  V30 7345 H 715.001 4.2898 -0.941961 0
M  V30 7346 H 715.607 3.50015 -2.41597 0
M  V30 7347 N 713.922 1.13953 1.08869 0
M  V30 7348 C 714.852 0.844824 2.17681 0
M  V30 7349 C 715.833 -0.198213 1.68941 0
M  V30 7350 O 717.018 -0.0559073 1.9412 0
M  V30 7351 C 714.148 0.316325 3.45856 0
M  V30 7352 C 713.102 1.29426 4.07962 0
M  V30 7353 C 712.428 0.625275 5.31031 0
M  V30 7354 C 713.728 2.65484 4.49795 0
M  V30 7355 H 715.422 1.75471 2.42591 0
M  V30 7356 H 712.968 0.845116 1.16592 0
M  V30 7357 H 714.921 0.0977876 4.21287 0
M  V30 7358 H 713.645 -0.628972 3.20486 0
M  V30 7359 H 712.304 1.49889 3.34558 0
M  V30 7360 H 711.952 -0.325678 5.01945 0
M  V30 7361 H 711.652 1.27777 5.73539 0
M  V30 7362 H 713.176 0.416152 6.0918 0
M  V30 7363 H 714.59 2.48957 5.16424 0
M  V30 7364 H 712.987 3.26963 5.03205 0
M  V30 7365 H 714.057 3.22717 3.61914 0
M  V30 7366 N 715.4 -1.26948 0.933913 0
M  V30 7367 C 716.816 -1.46419 0.635103 0
M  V30 7368 C 717.016 -1.84336 -0.813785 0
M  V30 7369 O 716.072 -1.96061 -1.59111 0
M  V30 7370 C 717.385 -2.55206 1.5903 0
M  V30 7371 C 718.933 -2.69062 1.5992 0
M  V30 7372 C 719.408 -3.81013 2.54152 0
M  V30 7373 N 720.899 -3.88395 2.52395 0
M  V30 7374 C 721.634 -4.74454 3.21996 0
M  V30 7375 N 721.13 -5.64954 4.00997 0
M  V30 7376 N 722.923 -4.68237 3.10983 0
M  V30 7377 H 715.074 -1.00622 1.87053 0
M  V30 7378 H 717.337 -0.503189 0.803433 0
M  V30 7379 H 717.043 -2.34153 2.62422 0
M  V30 7380 H 716.917 -3.52719 1.33677 0
M  V30 7381 H 719.304 -2.89492 0.572569 0
M  V30 7382 H 719.385 -1.72016 1.89325 0
M  V30 7383 H 719.029 -3.61336 3.5693 0
M  V30 7384 H 718.959 -4.77499 2.22041 0
M  V30 7385 H 721.45 -3.23687 1.95025 0
M  V30 7386 H 721.763 -6.27496 4.51074 0
M  V30 7387 H 720.108 -5.6473 4.05099 0
M  V30 7388 H 723.299 -3.96535 2.48753 0
M  V30 7389 H 723.472 -5.35087 3.65494 0
M  V30 7390 N 716.879 -0.700114 -1.41195 0
M  V30 7391 C 718.127 -0.232546 -2.00758 0
M  V30 7392 C 718.448 1.1734 -1.55745 0
M  V30 7393 O 717.718 1.79262 -0.790058 0
M  V30 7394 H 716.298 -0.0829845 -0.742376 0
M  V30 7395 H 718.96 -0.902289 -1.72756 0
M  V30 7396 H 718.056 -0.253521 -3.11069 0
M  V30 7397 N 718.357 1.51182 -0.445186 0
M  V30 7398 C 719.603 2.02452 0.11882 0
M  V30 7399 C 719.936 1.32824 1.41673 0
M  V30 7400 O 719.211 0.445637 1.89326 0
M  V30 7401 C 719.494 3.5859 0.329475 0
M  V30 7402 C 719.347 4.38823 -0.987638 0
M  V30 7403 C 720.666 4.26241 1.09575 0
M  V30 7404 H 717.785 0.735819 0.0417092 0
M  V30 7405 H 720.427 1.80747 -0.585718 0
M  V30 7406 H 718.577 3.77214 0.9296 0
M  V30 7407 H 720.249 4.3183 -1.62235 0
M  V30 7408 H 718.492 4.03594 -1.59041 0
M  V30 7409 H 719.163 5.46257 -0.794192 0
M  V30 7410 H 721.639 4.11934 0.587328 0
M  V30 7411 H 720.515 5.35354 1.21191 0
M  V30 7412 H 720.776 3.87635 2.12584 0
M  V30 7413 N 719.835 0.176821 1.56605 0
M  V30 7414 C 721.082 -0.466715 1.97048 0
M  V30 7415 C 721.41 -1.6288 1.06302 0
M  V30 7416 O 720.665 -1.95453 0.0982571 0
M  V30 7417 C 720.964 -0.986208 3.43524 0
M  V30 7418 C 720.63 0.0605667 4.50859 0
M  V30 7419 C 719.292 0.348242 4.79938 0
M  V30 7420 C 721.644 0.770794 5.15469 0
M  V30 7421 C 718.972 1.35144 5.70923 0
M  V30 7422 C 721.324 1.76301 6.07537 0
M  V30 7423 C 719.988 2.05808 6.3498 0
M  V30 7424 H 719.258 -0.170783 0.721051 0
M  V30 7425 H 721.905 0.269942 1.89588 0
M  V30 7426 H 720.21 -1.80079 3.47964 0
M  V30 7427 H 721.907 -1.49323 3.72161 0
M  V30 7428 H 718.497 -0.173823 4.28247 0
M  V30 7429 H 722.681 0.56176 4.9311 0
M  V30 7430 H 717.937 1.58616 5.90467 0
M  V30 7431 H 722.111 2.31868 6.56666 0
M  V30 7432 H 719.738 2.8369 7.05283 0
M  V30 7433 N 721.313 -1.57302 -0.09688 0
M  V30 7434 C 722.561 -1.8563 -0.799117 0
M  V30 7435 C 722.882 -0.765263 -1.79356 0
M  V30 7436 O 722.152 0.208657 -1.94786 0
M  V30 7437 H 720.732 -0.684937 -0.298111 0
M  V30 7438 H 723.394 -1.9474 -0.0789341 0
M  V30 7439 H 722.49 -2.82305 -1.3308 0
M  V30 7440 N 722.791 0.367657 -1.53252 0
M  V30 7441 C 724.019 1.13119 -1.73239 0
M  V30 7442 C 724.434 1.831 -0.460404 0
M  V30 7443 O 723.791 1.73483 0.566557 0
M  V30 7444 C 723.842 2.16308 -2.89643 0
M  V30 7445 O 723.563 1.49175 -4.1192 0
M  V30 7446 C 725.064 3.05224 -3.21486 0
M  V30 7447 H 722.284 0.338318 -0.579467 0
M  V30 7448 H 724.828 0.42721 -1.99988 0
M  V30 7449 H 722.983 2.82307 -2.65295 0
M  V30 7450 H 723.397 2.17912 -4.7709 0
M  V30 7451 H 724.871 3.73613 -4.06346 0
M  V30 7452 H 725.348 3.69919 -2.36763 0
M  V30 7453 H 725.954 2.44843 -3.47753 0
M  V30 7454 N 724.269 1.44576 0.627338 0
M  V30 7455 C 725.202 1.46206 1.75212 0
M  V30 7456 C 726.18 0.320483 1.5941 0
M  V30 7457 O 727.364 0.518028 1.81242 0
M  V30 7458 C 724.491 1.29834 3.12827 0
M  V30 7459 C 723.537 2.47603 3.47268 0
M  V30 7460 S 724.37 4.10125 3.44322 0
M  V30 7461 C 725.526 3.96183 4.84551 0
M  V30 7462 H 725.759 2.41378 1.73563 0
M  V30 7463 H 723.292 1.3192 0.802283 0
M  V30 7464 H 725.25 1.21075 3.92239 0
M  V30 7465 H 723.911 0.361662 3.12011 0
M  V30 7466 H 723.104 2.3202 4.47418 0
M  V30 7467 H 722.706 2.53121 2.75329 0
M  V30 7468 H 724.998 3.60107 5.73872 0
M  V30 7469 H 725.941 4.96176 5.05188 0
M  V30 7470 H 726.349 3.28177 4.59304 0
M  V30 7471 N 725.747 -0.868086 1.31537 0
M  V30 7472 C 726.677 -1.99131 1.21939 0
M  V30 7473 C 727.658 -1.69768 0.106166 0
M  V30 7474 O 728.843 -1.92006 0.291081 0
M  V30 7475 C 725.973 -3.34676 0.927879 0
M  V30 7476 C 724.927 -3.7835 2.00088 0
M  V30 7477 C 724.253 -5.11375 1.56203 0
M  V30 7478 C 725.553 -3.95256 3.41424 0
M  V30 7479 H 727.247 -2.07419 2.15911 0
M  V30 7480 H 724.793 -0.996569 1.03945 0
M  V30 7481 H 726.746 -4.12793 0.847327 0
M  V30 7482 H 725.47 -3.26565 -0.0475042 0
M  V30 7483 H 724.129 -3.02474 2.07135 0
M  V30 7484 H 723.777 -4.99709 0.57445 0
M  V30 7485 H 723.477 -5.41568 2.27985 0
M  V30 7486 H 725.001 -5.92001 1.49558 0
M  V30 7487 H 726.415 -4.63764 3.3704 0
M  V30 7488 H 724.812 -4.36849 4.1144 0
M  V30 7489 H 725.882 -2.98579 3.82072 0
M  V30 7490 N 727.225 -1.14528 -1.08264 0
M  V30 7491 C 728.502 -0.825185 -1.77342 0
M  V30 7492 C 728.882 0.681037 -1.99813 0
M  V30 7493 O 728.23 1.62234 -1.60912 0
M  V30 7494 C 728.44 -1.62556 -3.08831 0
M  V30 7495 C 729.788 -1.82585 -3.83338 0
M  V30 7496 O 730.812 -1.59254 -3.18617 0
M  V30 7497 O 729.671 -2.21598 -4.99556 0
M  V30 7498 H 726.765 -0.302531 -0.769678 0
M  V30 7499 H 729.311 -1.25056 -1.14713 0
M  V30 7500 H 728.083 -2.64862 -2.88035 0
M  V30 7501 H 727.706 -1.1959 -3.79189 0
M  V30 7502 N 728.703 1.26451 -0.940633 0
M  V30 7503 C 729.928 1.98407 -0.60412 0
M  V30 7504 C 730.353 1.69584 0.81382 0
M  V30 7505 O 729.711 0.943553 1.54812 0
M  V30 7506 C 729.759 3.50387 -0.852136 0
M  V30 7507 O 728.863 4.1233 0.076013 0
M  V30 7508 H 728.204 0.622466 -0.231153 0
M  V30 7509 H 730.734 1.60932 -1.26342 0
M  V30 7510 H 730.744 4.00614 -0.772816 0
M  V30 7511 H 729.419 3.70696 -1.88566 0
M  V30 7512 H 727.996 3.7286 -0.0543187 0
M  V30 7513 N 730.181 0.707592 1.40822 0
M  V30 7514 C 731.091 0.0507246 2.34545 0
M  V30 7515 C 732.107 -0.752727 1.56876 0
M  V30 7516 O 733.283 -0.687524 1.89302 0
M  V30 7517 C 730.348 -0.865731 3.35717 0
M  V30 7518 C 729.409 -0.0531313 4.29267 0
M  V30 7519 C 728.642 -0.925939 5.25606 0
M  V30 7520 O 728.865 -2.16531 5.27703 0
M  V30 7521 O 727.799 -0.369194 6.00767 0
M  V30 7522 H 731.625 0.823587 2.9232 0
M  V30 7523 H 729.21 0.46801 1.4188 0
M  V30 7524 H 731.092 -1.39091 3.97783 0
M  V30 7525 H 729.767 -1.61788 2.80368 0
M  V30 7526 H 728.674 0.516931 3.70511 0
M  V30 7527 H 730.007 0.660617 4.87747 0
M  V30 7528 N 731.66 -1.50943 0.453197 0
M  V30 7529 C 732.592 -2.25922 -0.38623 0
M  V30 7530 C 733.605 -1.3055 -0.972652 0
M  V30 7531 O 734.794 -1.56191 -0.864097 0
M  V30 7532 C 731.894 -3.01176 -1.5539 0
M  V30 7533 C 731.067 -4.23768 -1.0835 0
M  V30 7534 C 730.126 -4.81466 -2.12313 0
M  V30 7535 O 729.152 -5.42875 -1.71101 0
M  V30 7536 N 730.354 -4.66889 -3.44956 0
M  V30 7537 H 733.119 -2.98601 0.256468 0
M  V30 7538 H 730.68 -1.59408 0.282965 0
M  V30 7539 H 732.672 -3.36659 -2.24594 0
M  V30 7540 H 731.242 -2.31409 -2.10163 0
M  V30 7541 H 730.462 -3.93597 -0.217961 0
M  V30 7542 H 731.75 -5.03289 -0.746857 0
M  V30 7543 H 731.148 -4.18011 -3.81161 0
M  V30 7544 H 729.705 -5.06691 -4.1001 0
M  V30 7545 N 733.138 -0.185124 -1.56509 0
M  V30 7546 C 734.101 0.72591 -2.17401 0
M  V30 7547 C 735.101 1.14819 -1.12575 0
M  V30 7548 O 736.291 1.0629 -1.38015 0
M  V30 7549 C 733.423 1.98979 -2.76803 0
M  V30 7550 H 734.616 0.195588 -2.99262 0
M  V30 7551 H 732.169 0.0644772 -1.56167 0
M  V30 7552 H 732.904 2.56287 -1.98714 0
M  V30 7553 H 732.689 1.69583 -3.53531 0
M  V30 7554 H 734.179 2.63966 -3.23592 0
M  V30 7555 N 734.616 1.57351 0.0885366 0
M  V30 7556 C 736.032 1.53331 0.442916 0
M  V30 7557 C 736.232 0.902831 1.80142 0
M  V30 7558 O 735.288 0.498147 2.47537 0
M  V30 7559 C 736.601 2.98036 0.399372 0
M  V30 7560 C 738.149 3.09286 0.480759 0
M  V30 7561 C 738.624 4.5561 0.467296 0
M  V30 7562 N 740.115 4.60182 0.52786 0
M  V30 7563 C 740.85 5.70857 0.539388 0
M  V30 7564 N 740.346 6.90944 0.506729 0
M  V30 7565 N 742.139 5.59051 0.584691 0
M  V30 7566 H 734.29 1.96709 -0.801215 0
M  V30 7567 H 736.553 0.899639 -0.298922 0
M  V30 7568 H 736.259 3.47656 -0.531806 0
M  V30 7569 H 736.133 3.57066 1.21589 0
M  V30 7570 H 738.52 2.5965 1.40236 0
M  V30 7571 H 738.601 2.53197 -0.364023 0
M  V30 7572 H 738.245 5.05899 -0.450384 0
M  V30 7573 H 738.175 5.09544 1.32938 0
M  V30 7574 H 740.666 3.73757 0.558028 0
M  V30 7575 H 740.979 7.71055 0.518989 0
M  V30 7576 H 739.324 6.93384 0.473675 0
M  V30 7577 H 742.515 4.64138 0.607781 0
M  V30 7578 H 742.688 6.45307 0.590206 0
M  V30 7579 N 736.094 -0.359525 1.53444 0
M  V30 7580 C 737.024 -1.44662 1.8329 0
M  V30 7581 C 738.005 -1.55617 0.68683 0
M  V30 7582 O 739.19 -1.70086 0.93725 0
M  V30 7583 C 736.32 -2.81923 2.02822 0
M  V30 7584 C 735.274 -2.85787 3.18606 0
M  V30 7585 C 734.6 -4.25781 3.23442 0
M  V30 7586 C 735.9 -2.52762 4.57065 0
M  V30 7587 H 737.594 -1.19934 2.74329 0
M  V30 7588 H 735.14 -0.575517 1.31999 0
M  V30 7589 H 737.093 -3.58005 2.22285 0
M  V30 7590 H 735.817 -3.08051 1.085 0
M  V30 7591 H 734.476 -2.12157 2.98973 0
M  V30 7592 H 734.124 -4.48994 2.26745 0
M  V30 7593 H 733.824 -4.29281 4.01238 0
M  V30 7594 H 735.348 -5.03727 3.45096 0
M  V30 7595 H 736.762 -3.18557 4.76649 0
M  V30 7596 H 735.159 -2.67569 5.37147 0
M  V30 7597 H 736.229 -1.47993 4.61764 0
M  V30 7598 N 737.572 -1.44907 -0.619662 0
M  V30 7599 C 738.52 -1.52971 -1.75222 0
M  V30 7600 C 739.514 -0.400531 -1.64597 0
M  V30 7601 O 740.72 -0.575952 -1.70537 0
M  V30 7602 H 737.095 -0.480241 -0.578682 0
M  V30 7603 H 739.066 -2.48269 -1.65545 0
M  V30 7604 C 737.815 -1.50204 -3.13583 0
M  V30 7605 H 737.138 -2.36412 -3.22412 0
M  V30 7606 H 738.578 -1.59905 -3.92691 0
M  V30 7607 C 737.037 -0.22455 -3.36151 0
M  V30 7608 O 737.567 0.700574 -3.95544 0
M  V30 7609 N 735.773 -0.124052 -2.90335 0
M  V30 7610 H 735.32 -0.87774 -2.42185 0
M  V30 7611 H 735.278 0.729914 -3.0581 0
M  V30 7612 N 739.05 0.861098 -1.31996 0
M  V30 7613 C 740.461 1.43065 -1.19955 0
M  V30 7614 C 740.812 1.95273 0.190489 0
M  V30 7615 O 739.937 1.87012 1.08882 0
M  V30 7616 C 740.532 2.60052 -2.1716 0
M  V30 7617 C 739.091 3.13026 -2.09026 0
M  V30 7618 C 738.238 1.85756 -2.05888 0
M  V30 7619 H 741.189 0.668834 -1.43918 0
M  V30 7620 H 741.21 3.37016 -1.76637 0
M  V30 7621 H 740.722 2.22024 -3.18319 0
M  V30 7622 H 738.823 3.55653 -1.11092 0
M  V30 7623 H 738.936 3.74707 -2.98549 0
M  V30 7624 H 737.3 2.05088 -1.51033 0
M  V30 7625 H 738.083 1.49954 -3.08818 0
M  V30 7626 N 740.528 1.15101 1.07655 0
M  V30 7627 C 741.756 0.947731 1.83918 0
M  V30 7628 C 742.171 -0.503927 1.81951 0
M  V30 7629 O 741.528 -1.34941 1.2287 0
M  V30 7630 C 741.579 1.4503 3.31132 0
M  V30 7631 O 741.3 2.84508 3.33146 0
M  V30 7632 C 742.801 1.28806 4.24174 0
M  V30 7633 H 740.021 0.336786 0.580358 0
M  V30 7634 H 742.565 1.52799 1.35914 0
M  V30 7635 H 740.72 0.912632 3.76497 0
M  V30 7636 H 741.134 3.0723 4.251 0
M  V30 7637 H 742.608 1.6882 5.25551 0
M  V30 7638 H 743.085 0.231851 4.38588 0
M  V30 7639 H 743.691 1.81465 3.84643 0
M  V30 7640 N 742.006 -1.2595 0.947325 0
M  V30 7641 C 743.231 -1.98083 0.614633 0
M  V30 7642 C 743.656 -1.70013 -0.804815 0
M  V30 7643 O 743.014 -0.95175 -1.54309 0
M  V30 7644 C 743.062 -3.4993 0.870706 0
M  V30 7645 O 742.166 -4.12364 -0.0541451 0
M  V30 7646 H 741.507 -0.621232 0.234451 0
M  V30 7647 H 744.037 -1.60259 1.27193 0
M  V30 7648 H 744.047 -4.00198 0.794051 0
M  V30 7649 H 742.722 -3.69691 1.90529 0
M  V30 7650 H 741.299 -3.72826 0.0740917 0
M  V30 7651 N 743.484 -0.715051 -1.40445 0
M  V30 7652 C 744.447 -0.0708726 -2.2909 0
M  V30 7653 C 745.447 0.687926 -1.45342 0
M  V30 7654 O 746.637 0.519908 -1.66261 0
M  V30 7655 C 743.769 0.909528 -3.28543 0
M  V30 7656 H 744.962 -0.851611 -2.87555 0
M  V30 7657 H 742.515 -0.479674 -1.48758 0
M  V30 7658 H 743.25 1.71734 -2.75096 0
M  V30 7659 H 743.035 0.368318 -3.90366 0
M  V30 7660 H 744.525 1.35744 -3.94922 0
M  V30 7661 N 744.962 1.50701 -0.461195 0
M  V30 7662 C 746.208 2.02566 0.0973411 0
M  V30 7663 C 746.541 1.3432 1.40257 0
M  V30 7664 O 745.816 0.465692 1.88843 0
M  V30 7665 C 746.099 3.58919 0.291423 0
M  V30 7666 C 745.952 4.37751 -1.03413 0
M  V30 7667 C 747.271 4.27379 1.05048 0
M  V30 7668 H 744.39 0.73622 0.0339026 0
M  V30 7669 H 747.032 1.80115 -0.604855 0
M  V30 7670 H 745.182 3.78179 0.889539 0
M  V30 7671 H 746.854 4.30085 -1.66806 0
M  V30 7672 H 745.097 4.01885 -1.63313 0
M  V30 7673 H 745.768 5.45384 -0.852085 0
M  V30 7674 H 748.244 4.12534 0.543603 0
M  V30 7675 H 747.12 5.36609 1.15506 0
M  V30 7676 H 747.381 3.89868 2.0846 0
M  V30 7677 N 746.441 0.193421 1.56409 0
M  V30 7678 C 747.688 -0.445789 1.97532 0
M  V30 7679 C 748.016 -1.61744 1.08024 0
M  V30 7680 O 747.271 -1.95338 0.118982 0
M  V30 7681 C 747.57 -0.949718 3.44551 0
M  V30 7682 C 747.236 0.108383 4.5077 0
M  V30 7683 C 745.898 0.399126 4.79542 0
M  V30 7684 C 748.25 0.825423 5.14622 0
M  V30 7685 C 745.578 1.41192 5.69457 0
M  V30 7686 C 747.93 1.82735 6.05632 0
M  V30 7687 C 746.594 2.12531 6.32761 0
M  V30 7688 H 745.864 -0.163126 0.722822 0
M  V30 7689 H 748.511 0.290035 1.89291 0
M  V30 7690 H 746.816 -1.76378 3.49854 0
M  V30 7691 H 748.513 -1.45367 3.73724 0
M  V30 7692 H 745.103 -0.128392 4.28408 0
M  V30 7693 H 749.287 0.61403 4.92487 0
M  V30 7694 H 744.543 1.6487 5.88751 0
M  V30 7695 H 748.717 2.3882 6.5417 0
M  V30 7696 H 746.344 2.91155 7.02234 0
M  V30 7697 N 747.919 -1.57396 -0.0801906 0
M  V30 7698 C 749.196 -1.77883 -0.813451 0
M  V30 7699 C 749.576 -0.778879 -1.96206 0
M  V30 7700 O 748.924 0.189683 -2.27711 0
M  V30 7701 C 749.134 -3.24116 -1.2942 0
M  V30 7702 C 750.482 -3.87714 -1.73098 0
M  V30 7703 O 751.506 -3.27956 -1.39007 0
M  V30 7704 O 750.365 -4.92828 -2.36184 0
M  V30 7705 H 747.459 -0.729727 -0.389138 0
M  V30 7706 H 750.005 -1.69591 -0.0609166 0
M  V30 7707 H 748.777 -3.88443 -0.471947 0
M  V30 7708 H 748.4 -3.371 -2.1083 0
M  V30 7709 N 749.397 0.351382 -1.53633 0
M  V30 7710 C 750.622 1.11718 -1.74739 0
M  V30 7711 C 751.047 1.81829 -0.481657 0
M  V30 7712 O 750.405 1.72264 0.565233 0
M  V30 7713 C 750.453 2.11234 -2.92254 0
M  V30 7714 O 749.557 3.186 -2.61855 0
M  V30 7715 H 748.898 0.323482 -0.579875 0
M  V30 7716 H 751.428 0.404167 -2.00568 0
M  V30 7717 H 751.438 2.54591 -3.18822 0
M  V30 7718 H 750.113 1.59599 -3.84058 0
M  V30 7719 H 748.69 2.80115 -2.4615 0
M  V30 7720 N 750.875 1.45233 0.611969 0
M  V30 7721 C 752.103 1.52539 1.39784 0
M  V30 7722 C 752.518 0.156533 1.8815 0
M  V30 7723 O 751.875 -0.84112 1.61961 0
M  V30 7724 C 751.926 2.50614 2.60528 0
M  V30 7725 O 751.647 3.8218 2.14173 0
M  V30 7726 C 753.148 2.67574 3.53439 0
M  V30 7727 H 750.368 0.51674 0.428043 0
M  V30 7728 H 752.912 1.90379 0.746727 0
M  V30 7729 H 751.067 2.15858 3.2169 0
M  V30 7730 H 751.481 4.35305 2.92592 0
M  V30 7731 H 752.955 3.40184 4.34717 0
M  V30 7732 H 753.432 1.73458 4.03496 0
M  V30 7733 H 754.038 3.0331 2.98133 0
M  V30 7734 N 752.353 -0.854086 1.3245 0
M  V30 7735 C 753.578 -1.64597 1.26185 0
M  V30 7736 C 754.003 -1.87357 -0.167074 0
M  V30 7737 O 753.361 -1.42675 -1.11864 0
M  V30 7738 C 753.409 -2.98213 2.02734 0
M  V30 7739 O 752.513 -3.88784 1.37554 0
M  V30 7740 H 751.854 -0.50179 0.434859 0
M  V30 7741 H 754.384 -1.06372 1.74775 0
M  V30 7742 H 754.394 -3.4803 2.1293 0
M  V30 7743 H 753.069 -2.80969 3.06642 0
M  V30 7744 H 751.646 -3.4725 1.3591 0
M  V30 7745 N 753.831 -1.1567 -1.07043 0
M  V30 7746 C 755.247 -0.900006 -1.31803 0
M  V30 7747 C 755.447 0.451293 -1.96381 0
M  V30 7748 O 754.503 1.19252 -2.22565 0
M  V30 7749 C 755.816 -2.04334 -2.20609 0
M  V30 7750 C 757.364 -2.07823 -2.34048 0
M  V30 7751 C 757.839 -3.21488 -3.26204 0
M  V30 7752 N 759.33 -3.21156 -3.33786 0
M  V30 7753 C 760.065 -4.05746 -4.05163 0
M  V30 7754 N 759.561 -5.00407 -4.79129 0
M  V30 7755 N 761.354 -3.93759 -4.01136 0
M  V30 7756 H 753.505 -2.02681 -0.635146 0
M  V30 7757 H 755.768 -0.883956 -0.342528 0
M  V30 7758 H 755.474 -3.01895 -1.80423 0
M  V30 7759 H 755.348 -1.97838 -3.21154 0
M  V30 7760 H 757.735 -1.1086 -2.73485 0
M  V30 7761 H 757.816 -2.18386 -1.33197 0
M  V30 7762 H 757.46 -4.18706 -2.87485 0
M  V30 7763 H 757.39 -3.08162 -4.27017 0
M  V30 7764 H 759.881 -2.52606 -2.81067 0
M  V30 7765 H 760.194 -5.61387 -5.31097 0
M  V30 7766 H 758.539 -5.04393 -4.78135 0
M  V30 7767 H 761.73 -3.19115 -3.42466 0
M  V30 7768 H 761.903 -4.59906 -4.56498 0
M  V30 7769 N 755.309 1.25446 -0.953992 0
M  V30 7770 C 756.534 1.97755 -0.625129 0
M  V30 7771 C 756.959 1.70437 0.795787 0
M  V30 7772 O 756.317 0.95992 1.53803 0
M  V30 7773 C 756.365 3.49463 -0.889251 0
M  V30 7774 O 755.469 4.12387 0.0322757 0
M  V30 7775 H 754.81 0.61998 -0.237742 0
M  V30 7776 H 757.34 1.59582 -1.28041 0
M  V30 7777 H 757.35 3.99772 -0.815263 0
M  V30 7778 H 756.025 3.68676 -1.92487 0
M  V30 7779 H 754.602 3.72782 -0.0938625 0
M  V30 7780 N 756.787 0.722489 1.40064 0
M  V30 7781 C 758.203 0.396758 1.5459 0
M  V30 7782 C 758.403 -1.09375 1.69232 0
M  V30 7783 O 757.459 -1.87984 1.68578 0
M  V30 7784 C 758.772 1.16885 2.77053 0
M  V30 7785 C 760.32 1.15583 2.90877 0
M  V30 7786 C 760.795 1.91023 4.16262 0
M  V30 7787 N 762.286 1.88126 4.23276 0
M  V30 7788 C 763.021 2.43315 5.19216 0
M  V30 7789 N 762.517 3.07089 6.21022 0
M  V30 7790 N 764.31 2.33418 5.11344 0
M  V30 7791 H 756.461 1.68887 1.28806 0
M  V30 7792 H 758.724 0.714231 0.62336 0
M  V30 7793 H 758.43 2.22301 2.72534 0
M  V30 7794 H 758.304 0.765011 3.69361 0
M  V30 7795 H 760.691 0.10984 2.94896 0
M  V30 7796 H 760.772 1.59895 1.99668 0
M  V30 7797 H 760.416 2.95616 4.13006 0
M  V30 7798 H 760.346 1.44126 5.06493 0
M  V30 7799 H 762.837 1.41654 3.50346 0
M  V30 7800 H 763.15 3.467 6.90666 0
M  V30 7801 H 761.495 3.11175 6.21446 0
M  V30 7802 H 764.686 1.83248 4.30741 0
M  V30 7803 H 764.859 2.7673 5.85939 0
M  V30 7804 N 758.265 -1.50454 0.469181 0
M  V30 7805 C 759.514 -2.01507 -0.0881425 0
M  V30 7806 C 759.827 -1.35613 -1.40956 0
M  V30 7807 O 761.033 -1.77812 -2.05171 0
M  V30 7808 C 759.489 -3.59301 -0.207596 0
M  V30 7809 C 759.097 -4.34152 1.10527 0
M  V30 7810 C 760.841 -4.18401 -0.716981 0
M  V30 7811 C 758.748 -5.83725 0.949717 0
M  V30 7812 H 757.678 -0.753106 -0.0367156 0
M  V30 7813 H 760.329 -1.73282 0.603788 0
M  V30 7814 H 758.711 -3.84106 -0.963265 0
M  V30 7815 H 759.885 -4.21073 1.87175 0
M  V30 7816 H 758.2 -3.86652 1.54562 0
M  V30 7817 H 760.797 -5.27895 -0.850363 0
M  V30 7818 H 761.14 -3.79657 -1.70782 0
M  V30 7819 H 761.673 -3.97796 -0.0187511 0
M  V30 7820 H 758.412 -6.26938 1.91387 0
M  V30 7821 H 757.932 -5.99383 0.223591 0
M  V30 7822 H 759.611 -6.44065 0.61557 0
M  V30 7823 N 759.743 -0.201713 -1.56304 0
M  V30 7824 C 760.971 0.440723 -2.02152 0
M  V30 7825 C 761.386 1.54735 -1.08179 0
M  V30 7826 O 760.743 1.82289 -0.0878196 0
M  V30 7827 C 760.794 0.990884 -3.47655 0
M  V30 7828 O 760.515 -0.0715937 -4.38041 0
M  V30 7829 C 762.016 1.70854 -4.09052 0
M  V30 7830 H 759.236 0.109987 -0.661924 0
M  V30 7831 H 761.78 -0.312358 -2.021 0
M  V30 7832 H 759.935 1.69432 -3.48384 0
M  V30 7833 H 760.349 0.338892 -5.23404 0
M  V30 7834 H 761.823 2.04572 -5.12693 0
M  V30 7835 H 762.3 2.61462 -3.52894 0
M  V30 7836 H 762.906 1.0508 -4.12114 0
M  V30 7837 N 761.222 1.57436 0.0718424 0
M  V30 7838 C 762.638 1.53792 0.426628 0
M  V30 7839 C 762.838 0.921887 1.79174 0
M  V30 7840 O 761.894 0.524374 2.46995 0
M  V30 7841 C 763.207 2.98443 0.367739 0
M  V30 7842 C 764.755 3.09778 0.447928 0
M  V30 7843 C 765.23 4.5608 0.418946 0
M  V30 7844 N 766.721 4.60716 0.479022 0
M  V30 7845 C 767.456 5.71397 0.47881 0
M  V30 7846 N 766.952 6.91443 0.433417 0
M  V30 7847 N 768.745 5.59639 0.525364 0
M  V30 7848 H 760.896 1.95848 -0.822033 0
M  V30 7849 H 763.159 0.896418 -0.308447 0
M  V30 7850 H 762.865 3.47072 -0.56865 0
M  V30 7851 H 762.739 3.58335 1.17795 0
M  V30 7852 H 765.126 2.61122 1.37474 0
M  V30 7853 H 765.207 2.52796 -0.390857 0
M  V30 7854 H 764.851 5.05393 -0.504016 0
M  V30 7855 H 764.781 5.10925 1.27526 0
M  V30 7856 H 767.272 3.74328 0.518355 0
M  V30 7857 H 767.585 7.71562 0.43718 0
M  V30 7858 H 765.93 6.93847 0.400106 0
M  V30 7859 H 769.121 4.64756 0.558519 0
M  V30 7860 H 769.294 6.45896 0.52173 0
M  V30 7861 N 762.7 -0.34323 1.53817 0
M  V30 7862 C 763.946 -1.08504 1.71332 0
M  V30 7863 C 764.279 -1.88294 0.475285 0
M  V30 7864 O 763.554 -1.87205 -0.527688 0
M  V30 7865 C 763.837 -2.02597 2.97702 0
M  V30 7866 C 763.69 -1.26268 4.31713 0
M  V30 7867 C 765.009 -3.0241 3.19744 0
M  V30 7868 H 762.128 -0.393072 0.623429 0
M  V30 7869 H 764.77 -0.363579 1.86489 0
M  V30 7870 H 762.92 -2.64118 2.8491 0
M  V30 7871 H 764.592 -0.673594 4.56356 0
M  V30 7872 H 762.835 -0.564696 4.30109 0
M  V30 7873 H 763.506 -1.95253 5.16314 0
M  V30 7874 H 765.982 -2.51004 3.31868 0
M  V30 7875 H 764.858 -3.65449 4.09558 0
M  V30 7876 H 765.119 -3.73806 2.36054 0
M  V30 7877 N 764.178 -1.45556 -0.604258 0
M  V30 7878 C 765.403 -1.53509 -1.39462 0
M  V30 7879 C 765.828 -0.169638 -1.87333 0
M  V30 7880 O 765.186 0.846346 -1.60333 0
M  V30 7881 C 765.234 -2.52654 -2.5729 0
M  V30 7882 O 764.338 -2.04666 -3.5803 0
M  V30 7883 H 763.679 -0.517355 -0.416221 0
M  V30 7884 H 766.209 -1.90939 -0.735072 0
M  V30 7885 H 766.219 -2.71568 -3.04491 0
M  V30 7886 H 764.894 -3.51823 -2.21797 0
M  V30 7887 H 763.471 -1.95643 -3.17456 0
M  V30 7888 N 765.656 0.84705 -1.32902 0
M  V30 7889 C 766.881 1.63925 -1.27056 0
M  V30 7890 C 767.306 1.87443 0.157136 0
M  V30 7891 O 766.664 1.43266 1.11106 0
M  V30 7892 C 766.712 2.97134 -2.04313 0
M  V30 7893 O 765.816 3.88049 -1.39614 0
M  V30 7894 H 765.157 0.499477 -0.437514 0
M  V30 7895 H 767.687 1.05443 -1.75336 0
M  V30 7896 H 767.697 3.46896 -2.14772 0
M  V30 7897 H 766.372 2.79339 -3.08128 0
M  V30 7898 H 764.949 3.46525 -1.3775 0
M  V30 7899 N 767.134 1.16236 1.06428 0
M  V30 7900 C 768.359 0.967688 1.83441 0
M  V30 7901 C 768.784 -0.479167 1.81894 0
M  V30 7902 O 768.142 -1.34224 1.21875 0
M  V30 7903 C 768.19 1.49806 3.2801 0
M  V30 7904 O 767.294 0.703481 4.06356 0
M  V30 7905 H 766.635 0.344468 0.56766 0
M  V30 7906 H 769.165 1.54442 1.34197 0
M  V30 7907 H 769.175 1.51495 3.78831 0
M  V30 7908 H 767.85 2.55133 3.2845 0
M  V30 7909 H 766.427 0.756986 3.65136 0
M  V30 7910 N 768.612 -1.24939 0.960631 0
M  V30 7911 C 769.837 -1.9742 0.635608 0
M  V30 7912 C 770.262 -1.70857 -0.786737 0
M  V30 7913 O 769.62 -0.968063 -1.53291 0
M  V30 7914 C 769.668 -3.48987 0.907771 0
M  V30 7915 O 768.772 -4.12399 -0.0104053 0
M  V30 7916 H 768.113 -0.61871 0.241027 0
M  V30 7917 H 770.643 -1.58901 1.28886 0
M  V30 7918 H 770.653 -3.99334 0.836453 0
M  V30 7919 H 769.328 -3.6765 1.94439 0
M  V30 7920 H 767.905 -3.72727 0.113631 0
M  V30 7921 N 770.09 -0.729906 -1.39679 0
M  V30 7922 C 771.318 -0.285709 -2.04918 0
M  V30 7923 C 771.733 1.07765 -1.55023 0
M  V30 7924 O 771.09 1.67999 -0.712923 0
M  V30 7925 C 771.141 -0.272793 -3.60469 0
M  V30 7926 O 770.862 -1.58233 -4.08527 0
M  V30 7927 C 772.363 0.188199 -4.429 0
M  V30 7928 H 769.583 -0.125758 -0.65911 0
M  V30 7929 H 772.127 -0.992129 -1.78821 0
M  V30 7930 H 770.282 0.384699 -3.85485 0
M  V30 7931 H 770.696 -1.49245 -5.02818 0
M  V30 7932 H 772.17 0.14608 -5.51807 0
M  V30 7933 H 772.647 1.2326 -4.21549 0
M  V30 7934 H 773.253 -0.439541 -4.23023 0
M  V30 7935 N 771.568 1.50203 -0.477153 0
M  V30 7936 C 772.515 2.28656 0.31386 0
M  V30 7937 C 773.485 1.33977 0.981802 0
M  V30 7938 O 774.67 1.62919 0.993072 0
M  V30 7939 C 771.81 3.16027 1.38639 0
M  V30 7940 C 770.923 4.25743 0.732615 0
M  V30 7941 C 770.058 5.00363 1.78355 0
M  V30 7942 C 769.097 6.01945 1.11035 0
M  V30 7943 N 768.234 6.6982 2.10441 0
M  V30 7944 H 773.074 2.958 -0.361445 0
M  V30 7945 H 770.611 1.45867 -0.190093 0
M  V30 7946 H 772.569 3.6504 2.01994 0
M  V30 7947 H 771.199 2.50917 2.03077 0
M  V30 7948 H 770.251 3.80398 -0.0136546 0
M  V30 7949 H 771.563 4.98393 0.201513 0
M  V30 7950 H 770.717 5.53124 2.49276 0
M  V30 7951 H 769.456 4.27432 2.34847 0
M  V30 7952 H 768.461 5.48438 0.386797 0
M  V30 7953 H 769.686 6.76851 0.552248 0
M  V30 7954 H 767.632 5.99677 2.65939 0
M  V30 7955 H 767.549 7.38366 1.62332 0
M  V30 7956 H 768.817 7.27196 2.80724 0
M  V30 7957 N 773.046 0.209999 1.56195 0
M  V30 7958 C 774.009 -0.691232 2.18528 0
M  V30 7959 C 775.009 -1.13013 1.14388 0
M  V30 7960 O 776.199 -1.04081 1.39688 0
M  V30 7961 C 773.331 -1.94551 2.79934 0
M  V30 7962 H 774.524 -0.147953 2.99535 0
M  V30 7963 H 772.077 -0.0396243 1.5625 0
M  V30 7964 H 772.812 -2.53094 2.02766 0
M  V30 7965 H 772.597 -1.63938 3.56184 0
M  V30 7966 H 774.087 -2.58785 3.2775 0
M  V30 7967 N 774.524 -1.57472 -0.0634922 0
M  V30 7968 C 775.487 -2.03268 -1.059 0
M  V30 7969 C 776.487 -0.931028 -1.31105 0
M  V30 7970 O 777.677 -1.19567 -1.26686 0
M  V30 7971 C 774.809 -2.42039 -2.40062 0
M  V30 7972 H 776.002 -2.92454 -0.664119 0
M  V30 7973 H 773.555 -1.53206 -0.309444 0
M  V30 7974 H 774.29 -1.55904 -2.84367 0
M  V30 7975 H 774.075 -3.22437 -2.23108 0
M  V30 7976 H 775.565 -2.78017 -3.11603 0
M  V30 7977 N 776.003 0.335068 -1.53997 0
M  V30 7978 C 777.233 1.0926 -1.75345 0
M  V30 7979 C 777.641 1.82568 -0.496545 0
M  V30 7980 O 776.984 1.75525 0.541897 0
M  V30 7981 C 777.046 2.14473 -2.88516 0
M  V30 7982 C 776.71 1.60665 -4.27827 0
M  V30 7983 C 777.707 1.05448 -5.09094 0
M  V30 7984 C 775.392 1.65255 -4.74337 0
M  V30 7985 C 777.386 0.555372 -6.34976 0
M  V30 7986 C 775.073 1.14956 -6.0019 0
M  V30 7987 C 776.071 0.601907 -6.80343 0
M  V30 7988 O 775.759 0.106445 -8.0383 0
M  V30 7989 H 775.491 0.331329 -0.589234 0
M  V30 7990 H 778.045 0.39042 -2.01655 0
M  V30 7991 H 776.275 2.88274 -2.5775 0
M  V30 7992 H 777.964 2.75857 -2.97755 0
M  V30 7993 H 778.73 1.01218 -4.74321 0
M  V30 7994 H 774.609 2.06822 -4.12002 0
M  V30 7995 H 778.153 0.127245 -6.97484 0
M  V30 7996 H 774.05 1.18891 -6.34457 0
M  V30 7997 H 774.818 0.222944 -8.18196 0
M  V30 7998 N 777.481 1.45874 0.596531 0
M  V30 7999 C 778.709 1.54013 1.38158 0
M  V30 8000 C 779.124 0.17648 1.87973 0
M  V30 8001 O 778.481 -0.823895 1.62844 0
M  V30 8002 C 778.532 2.53363 2.57855 0
M  V30 8003 O 778.253 3.8443 2.10108 0
M  V30 8004 C 779.754 2.71308 3.50581 0
M  V30 8005 H 776.974 0.521251 0.422538 0
M  V30 8006 H 779.518 1.9116 0.726493 0
M  V30 8007 H 777.673 2.19257 3.19382 0
M  V30 8008 H 778.087 4.38384 2.87958 0
M  V30 8009 H 779.561 3.44776 4.31084 0
M  V30 8010 H 780.038 1.77728 4.01633 0
M  V30 8011 H 780.644 3.06455 2.94899 0
M  V30 8012 N 778.959 -0.83999 1.33349 0
M  V30 8013 C 780.187 -1.62728 1.27778 0
M  V30 8014 C 780.602 -1.88191 -0.151505 0
M  V30 8015 O 779.959 -1.46128 -1.09329 0
M  V30 8016 C 780.01 -2.97813 2.04913 0
M  V30 8017 O 779.731 -2.73469 3.42266 0
M  V30 8018 C 781.232 -3.92245 2.0654 0
M  V30 8019 H 778.452 -0.506374 0.440257 0
M  V30 8020 H 780.996 -1.04637 1.75703 0
M  V30 8021 H 779.151 -3.52509 1.60674 0
M  V30 8022 H 779.565 -3.59483 3.81932 0
M  V30 8023 H 781.039 -4.84249 2.64966 0
M  V30 8024 H 781.516 -4.26332 1.05537 0
M  V30 8025 H 782.122 -3.43487 2.50793 0
M  V30 8026 N 780.437 -1.16799 -1.0581 0
M  V30 8027 C 781.662 -0.977402 -1.82925 0
M  V30 8028 C 782.087 0.469514 -1.82146 0
M  V30 8029 O 781.445 1.33576 -1.22585 0
M  V30 8030 C 781.493 -1.51543 -3.27211 0
M  V30 8031 O 780.597 -0.725021 -4.05977 0
M  V30 8032 H 779.938 -0.347474 -0.565825 0
M  V30 8033 H 782.468 -1.55151 -1.33376 0
M  V30 8034 H 782.478 -1.53502 -3.78023 0
M  V30 8035 H 781.153 -2.56872 -3.27093 0
M  V30 8036 H 779.73 -0.77634 -3.64729 0
M  V30 8037 N 781.915 1.24427 -0.967243 0
M  V30 8038 C 783.143 1.96541 -0.646477 0
M  V30 8039 C 783.558 1.71753 0.783996 0
M  V30 8040 O 782.915 1.00102 1.52597 0
M  V30 8041 C 782.966 3.4983 -0.911098 0
M  V30 8042 O 782.687 3.7377 -2.28534 0
M  V30 8043 C 784.188 4.3916 -0.604458 0
M  V30 8044 H 781.408 0.626129 -0.241255 0
M  V30 8045 H 783.952 1.58268 -1.29505 0
M  V30 8046 H 782.107 3.86168 -0.308741 0
M  V30 8047 H 782.521 4.68154 -2.365 0
M  V30 8048 H 783.995 5.4557 -0.840069 0
M  V30 8049 H 784.472 4.36771 0.461273 0
M  V30 8050 H 785.078 4.08409 -1.1867 0
M  V30 8051 N 783.393 0.737304 1.3929 0
M  V30 8052 C 784.633 0.290966 2.02318 0
M  V30 8053 C 784.997 -1.10174 1.57244 0
M  V30 8054 O 786.198 -1.64628 2.12488 0
M  V30 8055 C 784.469 0.391767 3.55246 0
M  V30 8056 S 786.028 0.0256103 4.38793 0
M  V30 8057 H 782.846 0.113862 0.701824 0
M  V30 8058 H 785.448 0.964329 1.70062 0
M  V30 8059 H 784.152 1.40662 3.85542 0
M  V30 8060 H 783.683 -0.299338 3.9226 0
M  V30 8061 H 785.698 -1.18991 4.81722 0
M  V30 8062 N 784.871 -1.49948 0.485112 0
M  V30 8063 C 786.118 -2.02396 -0.0650059 0
M  V30 8064 C 786.446 -1.36606 -1.38452 0
M  V30 8065 O 785.701 -0.485476 -1.89583 0
M  V30 8066 C 786 -3.56282 -0.282434 0
M  V30 8067 C 785.666 -4.40625 0.957106 0
M  V30 8068 C 784.328 -4.63393 1.29692 0
M  V30 8069 C 786.68 -4.89799 1.78176 0
M  V30 8070 C 784.008 -5.3258 2.4612 0
M  V30 8071 C 786.36 -5.60266 2.93743 0
M  V30 8072 C 785.024 -5.81284 3.28124 0
M  V30 8073 H 784.294 -0.740618 -0.0237873 0
M  V30 8074 H 786.941 -1.80416 0.642044 0
M  V30 8075 H 785.246 -3.76853 -1.07186 0
M  V30 8076 H 786.943 -3.94442 -0.722276 0
M  V30 8077 H 783.533 -4.23133 0.682384 0
M  V30 8078 H 787.717 -4.7205 1.53239 0
M  V30 8079 H 782.973 -5.47059 2.73014 0
M  V30 8080 H 787.147 -5.97347 3.5798 0
M  V30 8081 H 784.774 -6.34671 4.18446 0
M  V30 8082 N 786.349 -0.21828 -1.56081 0
M  V30 8083 C 787.296 0.693189 -2.20144 0
M  V30 8084 C 788.266 1.19274 -1.15598 0
M  V30 8085 O 789.451 1.25243 -1.4394 0
M  V30 8086 C 786.591 1.89715 -2.88275 0
M  V30 8087 C 785.704 1.4368 -4.07407 0
M  V30 8088 C 784.839 2.59807 -4.63329 0
M  V30 8089 C 783.878 2.10492 -5.74769 0
M  V30 8090 N 783.015 3.1988 -6.24997 0
M  V30 8091 H 787.855 0.14016 -2.9767 0
M  V30 8092 H 785.392 0.0574292 -1.46988 0
M  V30 8093 H 787.35 2.60398 -3.25958 0
M  V30 8094 H 785.98 2.42311 -2.13273 0
M  V30 8095 H 785.032 0.625007 -3.7523 0
M  V30 8096 H 786.344 1.03517 -4.8794 0
M  V30 8097 H 785.498 3.38577 -5.03438 0
M  V30 8098 H 784.237 3.03256 -3.81951 0
M  V30 8099 H 783.242 1.30182 -5.34165 0
M  V30 8100 H 784.467 1.68045 -6.5798 0
M  V30 8101 H 782.413 3.62817 -5.46534 0
M  V30 8102 H 782.33 2.83958 -7.00645 0
M  V30 8103 H 783.598 3.98796 -6.69763 0
M  V30 8104 N 787.827 1.57504 0.0551401 0
M  V30 8105 C 789.073 1.88334 0.752216 0
M  V30 8106 C 789.406 0.812742 1.76375 0
M  V30 8107 O 788.681 -0.175198 1.93709 0
M  V30 8108 C 788.964 3.29824 1.44528 0
M  V30 8109 C 788.817 4.47553 0.449026 0
M  V30 8110 C 790.136 3.69808 2.38601 0
M  V30 8111 H 787.255 0.684973 0.271995 0
M  V30 8112 H 789.897 1.89994 0.0151895 0
M  V30 8113 H 788.047 3.28539 2.07351 0
M  V30 8114 H 789.719 4.60967 -0.175277 0
M  V30 8115 H 787.962 4.33168 -0.234162 0
M  V30 8116 H 788.633 5.43376 0.971917 0
M  V30 8117 H 791.109 3.72293 1.85842 0
M  V30 8118 H 789.985 4.69665 2.84088 0
M  V30 8119 H 790.246 3.00641 3.24141 0
M  V30 8120 N 789.305 -0.326896 1.54172 0
M  V30 8121 C 790.551 -1.06681 1.72473 0
M  V30 8122 C 790.884 -1.87779 0.49523 0
M  V30 8123 O 790.159 -1.87754 -0.507803 0
M  V30 8124 C 790.442 -1.99429 2.99834 0
M  V30 8125 C 790.295 -1.21682 4.33028 0
M  V30 8126 C 791.614 -2.99002 3.22933 0
M  V30 8127 H 788.733 -0.386438 0.627563 0
M  V30 8128 H 791.375 -0.343779 1.86864 0
M  V30 8129 H 789.525 -2.61081 2.87696 0
M  V30 8130 H 791.197 -0.625153 4.57044 0
M  V30 8131 H 789.44 -0.519045 4.30684 0
M  V30 8132 H 790.111 -1.89766 5.18356 0
M  V30 8133 H 792.587 -2.4747 3.34511 0
M  V30 8134 H 791.463 -3.61085 4.13412 0
M  V30 8135 H 791.724 -3.71281 2.40006 0
M  V30 8136 N 790.784 -1.46188 -0.588786 0
M  V30 8137 C 791.731 -1.56292 -1.69828 0
M  V30 8138 C 792.701 -0.407581 -1.61022 0
M  V30 8139 O 793.886 -0.623532 -1.80324 0
M  V30 8140 C 791.026 -1.55341 -3.08161 0
M  V30 8141 C 790.139 -2.81564 -3.27636 0
M  V30 8142 C 789.274 -2.72158 -4.56183 0
M  V30 8143 C 788.313 -3.93348 -4.68981 0
M  V30 8144 N 787.45 -3.82365 -5.88848 0
M  V30 8145 H 792.29 -2.51066 -1.6053 0
M  V30 8146 H 789.827 -1.24562 -0.782474 0
M  V30 8147 H 791.785 -1.52776 -3.88221 0
M  V30 8148 H 790.415 -0.641034 -3.16371 0
M  V30 8149 H 789.467 -2.94136 -2.41223 0
M  V30 8150 H 790.779 -3.714 -3.32962 0
M  V30 8151 H 789.933 -2.67665 -5.44464 0
M  V30 8152 H 788.672 -1.79953 -4.53286 0
M  V30 8153 H 787.677 -3.98181 -3.7912 0
M  V30 8154 H 788.902 -4.86643 -4.73662 0
M  V30 8155 H 786.848 -2.92942 -5.86959 0
M  V30 8156 H 786.765 -4.65851 -5.95415 0
M  V30 8157 H 788.033 -3.81836 -6.79575 0
M  V30 8158 N 792.262 0.832906 -1.33792 0
M  V30 8159 C 793.49 1.62048 -1.28639 0
M  V30 8160 C 793.905 1.88269 0.141522 0
M  V30 8161 O 793.262 1.46706 1.08553 0
M  V30 8162 C 793.313 2.96722 -2.0649 0
M  V30 8163 O 793.034 2.7165 -3.43712 0
M  V30 8164 C 794.535 3.91144 -2.08617 0
M  V30 8165 H 791.755 0.504032 -0.442937 0
M  V30 8166 H 794.299 1.03704 -1.76255 0
M  V30 8167 H 792.454 3.51652 -1.62541 0
M  V30 8168 H 792.868 3.57453 -3.83833 0
M  V30 8169 H 794.342 4.82837 -2.67531 0
M  V30 8170 H 794.819 4.25766 -1.07796 0
M  V30 8171 H 795.425 3.42152 -2.52611 0
M  V30 8172 N 793.74 1.17359 1.05189 0
M  V30 8173 C 794.688 0.886527 2.15043 0
M  V30 8174 C 795.682 -0.148834 1.68745 0
M  V30 8175 O 796.888 -0.00175123 1.8 0
M  V30 8176 H 793.263 0.269147 0.702185 0
M  V30 8177 H 795.234 1.82016 2.36459 0
M  V30 8178 C 793.983 0.416333 3.45198 0
M  V30 8179 H 793.306 1.20449 3.81225 0
M  V30 8180 H 794.746 0.254362 4.23236 0
M  V30 8181 C 793.205 -0.866016 3.25579 0
M  V30 8182 O 793.735 -1.9328 3.52144 0
M  V30 8183 N 791.941 -0.814179 2.78961 0
M  V30 8184 H 791.488 0.0541618 2.57543 0
M  V30 8185 H 791.446 -1.67264 2.66214 0
M  V30 8186 N 795.218 -1.23913 0.973828 0
M  V30 8187 C 796.165 -2.25132 0.508366 0
M  V30 8188 C 797.135 -1.59908 -0.449307 0
M  V30 8189 O 798.32 -1.87405 -0.358313 0
M  V30 8190 C 795.46 -3.4458 -0.189422 0
M  V30 8191 C 794.573 -4.24381 0.807738 0
M  V30 8192 C 793.708 -5.31131 0.0854315 0
M  V30 8193 C 792.747 -6.02635 1.07225 0
M  V30 8194 N 791.884 -7.01073 0.379535 0
M  V30 8195 H 796.724 -2.64313 1.37632 0
M  V30 8196 H 794.261 -1.29924 0.689802 0
M  V30 8197 H 796.219 -4.12706 -0.610733 0
M  V30 8198 H 794.849 -3.06218 -1.02129 0
M  V30 8199 H 793.901 -3.55735 1.34747 0
M  V30 8200 H 795.213 -4.73778 1.55998 0
M  V30 8201 H 794.367 -6.05422 -0.393572 0
M  V30 8202 H 793.106 -4.82658 -0.699461 0
M  V30 8203 H 792.111 -5.27143 1.56207 0
M  V30 8204 H 793.336 -6.53197 1.85769 0
M  V30 8205 H 791.282 -6.54862 -0.386269 0
M  V30 8206 H 791.199 -7.48382 1.07054 0
M  V30 8207 H 792.467 -7.79462 -0.0772984 0
M  V30 8208 N 796.696 -0.74468 -1.38897 0
M  V30 8209 C 797.924 -0.307428 -2.04603 0
M  V30 8210 C 798.339 1.06115 -1.56157 0
M  V30 8211 O 797.696 1.67233 -0.730701 0
M  V30 8212 C 797.747 -0.31101 -3.6016 0
M  V30 8213 O 797.468 -1.62557 -4.06825 0
M  V30 8214 C 798.969 0.141213 -4.43075 0
M  V30 8215 H 796.189 -0.132741 -0.657739 0
M  V30 8216 H 798.733 -1.01104 -1.77759 0
M  V30 8217 H 796.888 0.343792 -3.85872 0
M  V30 8218 H 797.302 -1.54569 -5.01207 0
M  V30 8219 H 798.776 0.0875449 -5.51931 0
M  V30 8220 H 799.253 1.18782 -4.22833 0
M  V30 8221 H 799.859 -0.484383 -4.22533 0
M  V30 8222 N 798.174 1.49689 -0.493057 0
M  V30 8223 C 799.404 2.06536 0.0512397 0
M  V30 8224 C 799.812 1.35459 1.32089 0
M  V30 8225 O 799.155 0.424145 1.78736 0
M  V30 8226 C 799.217 3.57452 0.383231 0
M  V30 8227 C 798.881 4.50163 -0.787555 0
M  V30 8228 C 799.878 4.92151 -1.67582 0
M  V30 8229 C 797.563 4.92565 -0.984109 0
M  V30 8230 C 799.557 5.7527 -2.74487 0
M  V30 8231 C 797.244 5.75463 -2.05634 0
M  V30 8232 C 798.242 6.16719 -2.93507 0
M  V30 8233 O 797.93 6.97961 -3.98881 0
M  V30 8234 H 797.662 0.675862 -0.0136516 0
M  V30 8235 H 800.216 1.9356 -0.687298 0
M  V30 8236 H 798.446 3.68408 1.17526 0
M  V30 8237 H 800.135 3.96572 0.8652 0
M  V30 8238 H 800.901 4.60043 -1.53575 0
M  V30 8239 H 796.78 4.5996 -0.309541 0
M  V30 8240 H 800.324 6.07392 -3.43104 0
M  V30 8241 H 796.221 6.06983 -2.19639 0
M  V30 8242 H 796.989 7.16253 -3.96137 0
M  V30 8243 N 799.652 0.226554 1.55963 0
M  V30 8244 C 800.892 -0.405574 2.00336 0
M  V30 8245 C 801.256 -1.56593 1.11097 0
M  V30 8246 O 802.457 -2.26441 1.44838 0
M  V30 8247 C 800.728 -0.82435 3.47763 0
M  V30 8248 S 802.287 -1.44988 4.14154 0
M  V30 8249 H 799.105 -0.128512 0.699289 0
M  V30 8250 H 801.707 0.337017 1.92573 0
M  V30 8251 H 800.411 0.0297636 4.10389 0
M  V30 8252 H 799.942 -1.59963 3.5941 0
M  V30 8253 H 801.957 -2.73897 4.13757 0
M  V30 8254 N 801.13 -1.57531 -0.0467866 0
M  V30 8255 C 802.06 -2.08425 -1.05268 0
M  V30 8256 C 803.041 -0.982941 -1.38825 0
M  V30 8257 O 804.226 -1.25716 -1.48018 0
M  V30 8258 C 801.356 -2.54897 -2.35891 0
M  V30 8259 C 800.31 -3.69132 -2.16623 0
M  V30 8260 C 799.636 -4.01747 -3.52851 0
M  V30 8261 C 800.936 -4.98243 -1.56689 0
M  V30 8262 H 802.63 -2.92716 -0.62908 0
M  V30 8263 H 800.176 -1.40816 -0.301156 0
M  V30 8264 H 802.129 -2.8912 -3.06574 0
M  V30 8265 H 800.853 -1.67666 -2.80278 0
M  V30 8266 H 799.512 -3.35231 -1.48377 0
M  V30 8267 H 799.16 -3.11608 -3.94853 0
M  V30 8268 H 798.86 -4.78681 -3.4079 0
M  V30 8269 H 800.384 -4.38487 -4.24925 0
M  V30 8270 H 801.798 -5.30535 -2.17268 0
M  V30 8271 H 800.195 -5.79669 -1.55255 0
M  V30 8272 H 801.265 -4.81986 -0.530827 0
M  V30 8273 N 802.608 0.318715 -1.54344 0
M  V30 8274 C 803.833 1.07987 -1.77069 0
M  V30 8275 C 804.258 1.80766 -0.520117 0
M  V30 8276 O 803.616 1.73424 0.528566 0
M  V30 8277 C 803.664 2.04987 -2.96669 0
M  V30 8278 O 802.768 3.12974 -2.68554 0
M  V30 8279 H 802.109 0.311109 -0.586606 0
M  V30 8280 H 804.639 0.361533 -2.0138 0
M  V30 8281 H 804.649 2.47771 -3.2415 0
M  V30 8282 H 803.324 1.51417 -3.87357 0
M  V30 8283 H 801.901 2.74831 -2.52037 0
M  V30 8284 N 804.086 1.46499 0.581025 0
M  V30 8285 C 805.335 1.51162 1.3354 0
M  V30 8286 C 805.648 0.168433 1.94873 0
M  V30 8287 O 806.854 0.092883 2.71341 0
M  V30 8288 C 805.31 2.66362 2.42032 0
M  V30 8289 C 804.918 4.07109 1.86994 0
M  V30 8290 C 806.662 2.80297 3.188 0
M  V30 8291 C 804.569 5.13645 2.93125 0
M  V30 8292 H 803.499 0.562576 0.502021 0
M  V30 8293 H 806.15 1.72713 0.619863 0
M  V30 8294 H 804.532 2.38143 3.16392 0
M  V30 8295 H 805.706 4.45125 1.19166 0
M  V30 8296 H 804.021 3.97854 1.22887 0
M  V30 8297 H 806.618 3.5706 3.9801 0
M  V30 8298 H 806.961 1.87875 3.71495 0
M  V30 8299 H 807.494 3.0817 2.51547 0
M  V30 8300 H 804.233 6.07866 2.45315 0
M  V30 8301 H 803.753 4.80172 3.59437 0
M  V30 8302 H 805.432 5.39562 3.57046 0
M  V30 8303 N 805.565 -0.825799 1.34232 0
M  V30 8304 C 806.528 -1.91808 1.25468 0
M  V30 8305 C 807.528 -1.59893 0.170567 0
M  V30 8306 O 808.718 -1.68986 0.422996 0
M  V30 8307 C 805.85 -3.27786 0.93644 0
M  V30 8308 H 807.043 -2.01003 2.22571 0
M  V30 8309 H 804.596 -1.01944 1.18479 0
M  V30 8310 H 805.331 -3.24285 -0.0315408 0
M  V30 8311 H 805.116 -3.52333 1.72057 0
M  V30 8312 H 806.606 -4.07782 0.900214 0
M  V30 8313 N 807.043 -1.17915 -1.04565 0
M  V30 8314 C 807.953 -0.916449 -2.15959 0
M  V30 8315 C 808.969 0.117655 -1.73602 0
M  V30 8316 O 810.145 -0.063089 -2.01301 0
M  V30 8317 C 807.21 -0.440262 -3.43893 0
M  V30 8318 C 806.271 -1.54172 -4.00661 0
M  V30 8319 C 805.504 -1.08816 -5.22489 0
M  V30 8320 O 805.727 0.0551547 -5.70373 0
M  V30 8321 O 804.661 -1.88383 -5.7166 0
M  V30 8322 H 808.487 -1.8484 -2.40972 0
M  V30 8323 H 806.072 -0.960552 -1.14428 0
M  V30 8324 H 807.954 -0.182537 -4.21004 0
M  V30 8325 H 806.629 0.46346 -3.20365 0
M  V30 8326 H 805.536 -1.85341 -3.24961 0
M  V30 8327 H 806.869 -2.42139 -4.2852 0
M  V30 8328 N 808.521 1.23394 -0.980386 0
M  V30 8329 C 809.77 1.91116 -0.644785 0
M  V30 8330 C 810.083 1.77333 0.825367 0
M  V30 8331 O 811.289 2.39858 1.27203 0
M  V30 8332 C 809.745 3.42592 -1.10266 0
M  V30 8333 C 809.353 3.65037 -2.59715 0
M  V30 8334 C 811.097 4.1609 -0.8408 0
M  V30 8335 C 809.004 5.10148 -2.9917 0
M  V30 8336 H 807.934 0.715632 -0.23746 0
M  V30 8337 H 810.585 1.39829 -1.18828 0
M  V30 8338 H 808.967 3.92989 -0.487372 0
M  V30 8339 H 810.141 3.25186 -3.26482 0
M  V30 8340 H 808.456 3.04849 -2.83647 0
M  V30 8341 H 811.053 5.23021 -1.11143 0
M  V30 8342 H 811.396 4.15702 0.223085 0
M  V30 8343 H 811.929 3.71681 -1.41767 0
M  V30 8344 H 808.668 5.15668 -4.04682 0
M  V30 8345 H 808.188 5.50949 -2.37097 0
M  V30 8346 H 809.867 5.7848 -2.89775 0
M  V30 8347 N 809.999 0.752036 1.385 0
M  V30 8348 C 811.224 0.316993 2.04963 0
M  V30 8349 C 811.649 -1.04582 1.56346 0
M  V30 8350 O 811.007 -1.66616 0.714755 0
M  V30 8351 C 811.055 0.347235 3.58924 0
M  V30 8352 O 810.159 -0.659296 4.07096 0
M  V30 8353 H 809.5 0.140652 0.648932 0
M  V30 8354 H 812.03 1.02272 1.77205 0
M  V30 8355 H 812.04 0.19757 4.07521 0
M  V30 8356 H 810.715 1.34157 3.93668 0
M  V30 8357 H 809.292 -0.474371 3.6987 0
M  V30 8358 N 811.477 -1.49425 0.500989 0
M  V30 8359 C 812.425 -2.30771 -0.291149 0
M  V30 8360 C 813.419 -1.3938 -0.962787 0
M  V30 8361 O 814.625 -1.56431 -0.890477 0
M  V30 8362 H 811 -0.743499 -0.11275 0
M  V30 8363 H 812.971 -2.95501 0.414917 0
M  V30 8364 C 811.72 -3.20725 -1.34279 0
M  V30 8365 H 811.043 -3.90975 -0.83538 0
M  V30 8366 H 812.483 -3.80583 -1.86903 0
M  V30 8367 C 810.942 -2.40334 -2.36095 0
M  V30 8368 O 811.472 -2.10749 -3.41976 0
M  V30 8369 N 809.678 -2.02359 -2.08565 0
M  V30 8370 H 809.225 -2.26619 -1.22482 0
M  V30 8371 H 809.183 -1.48878 -2.76916 0
M  V30 8372 N 812.955 -0.234822 -1.55841 0
M  V30 8373 C 814.183 0.397745 -2.03041 0
M  V30 8374 C 814.598 1.52405 -1.11437 0
M  V30 8375 O 813.955 1.82061 -0.126466 0
M  V30 8376 C 814.006 0.916919 -3.49678 0
M  V30 8377 O 813.727 -0.164493 -4.37791 0
M  V30 8378 C 815.228 1.62139 -4.12584 0
M  V30 8379 H 812.448 0.0959214 -0.664108 0
M  V30 8380 H 814.992 -0.355156 -2.01392 0
M  V30 8381 H 813.147 1.62004 -3.519 0
M  V30 8382 H 813.561 0.227794 -5.24005 0
M  V30 8383 H 815.035 1.93651 -5.16917 0
M  V30 8384 H 815.512 2.53918 -3.58361 0
M  V30 8385 H 816.118 0.963145 -4.14251 0
M  V30 8386 N 814.433 1.57553 0.0384317 0
M  V30 8387 C 815.363 2.0898 1.04161 0
M  V30 8388 C 816.344 0.99029 1.38301 0
M  V30 8389 O 817.529 1.26499 1.47349 0
M  V30 8390 C 814.659 2.56145 2.34536 0
M  V30 8391 C 813.613 3.70275 2.14663 0
M  V30 8392 C 812.939 4.03612 3.50715 0
M  V30 8393 C 814.239 4.99067 1.54045 0
M  V30 8394 H 815.933 2.93046 0.613548 0
M  V30 8395 H 813.479 1.40973 0.293684 0
M  V30 8396 H 815.432 2.90741 3.05037 0
M  V30 8397 H 814.156 1.6915 2.79385 0
M  V30 8398 H 812.815 3.36013 1.46597 0
M  V30 8399 H 812.463 3.13698 3.93195 0
M  V30 8400 H 812.163 4.80482 3.38247 0
M  V30 8401 H 813.687 4.40735 4.22593 0
M  V30 8402 H 815.101 5.3168 2.14451 0
M  V30 8403 H 813.498 5.80484 1.52178 0
M  V30 8404 H 814.568 4.8226 0.505259 0
M  V30 8405 N 815.911 -0.310526 1.54511 0
M  V30 8406 C 817.158 -1.04691 1.73338 0
M  V30 8407 C 817.486 -1.87584 0.514038 0
M  V30 8408 O 816.741 -1.89096 -0.504119 0
M  V30 8409 C 817.04 -1.98942 2.96912 0
M  V30 8410 C 816.706 -1.321 4.31115 0
M  V30 8411 C 815.368 -1.13603 4.67598 0
M  V30 8412 C 817.72 -0.842362 5.14348 0
M  V30 8413 C 815.048 -0.459102 5.84901 0
M  V30 8414 C 817.4 -0.179202 6.32346 0
M  V30 8415 C 816.064 0.0178111 6.67498 0
M  V30 8416 H 815.334 -0.38309 0.634289 0
M  V30 8417 H 817.981 -0.322723 1.88761 0
M  V30 8418 H 816.286 -2.77856 2.76231 0
M  V30 8419 H 817.983 -2.55972 3.08674 0
M  V30 8420 H 814.573 -1.47502 4.02419 0
M  V30 8421 H 818.757 -0.973013 4.86668 0
M  V30 8422 H 814.013 -0.295385 6.10686 0
M  V30 8423 H 818.187 0.199619 6.96114 0
M  V30 8424 H 815.814 0.544356 7.58249 0
M  V30 8425 N 817.389 -1.46805 -0.573248 0
M  V30 8426 C 818.637 -1.52302 -1.32847 0
M  V30 8427 C 818.958 -0.180159 -1.94166 0
M  V30 8428 O 818.228 0.794291 -1.79075 0
M  V30 8429 H 816.808 -0.56097 -0.493276 0
M  V30 8430 H 819.47 -1.82998 -0.670642 0
M  V30 8431 H 818.566 -2.28089 -2.13031 0
M  V30 8432 N 818.867 0.818669 -1.34668 0
M  V30 8433 C 819.777 1.9616 -1.2868 0
M  V30 8434 C 820.793 1.72918 -0.193742 0
M  V30 8435 O 821.969 1.96951 -0.420975 0
M  V30 8436 C 819.034 3.30534 -1.04633 0
M  V30 8437 C 818.095 3.66755 -2.23136 0
M  V30 8438 C 817.328 4.94717 -2.00227 0
M  V30 8439 O 817.551 5.62218 -0.96264 0
M  V30 8440 O 816.485 5.28915 -2.87286 0
M  V30 8441 H 820.311 2.04157 -2.24842 0
M  V30 8442 H 817.896 0.954691 -1.14917 0
M  V30 8443 H 819.778 4.11005 -0.930216 0
M  V30 8444 H 818.453 3.23495 -0.115139 0
M  V30 8445 H 817.36 2.8671 -2.40308 0
M  V30 8446 H 818.693 3.78484 -3.1466 0
M  V30 8447 N 820.346 1.18468 1.03938 0
M  V30 8448 C 821.593 0.980833 1.77161 0
M  V30 8449 C 821.921 -0.489425 1.88242 0
M  V30 8450 O 821.176 -1.37961 1.388 0
M  V30 8451 C 821.475 1.58229 3.20466 0
M  V30 8452 C 821.141 3.07889 3.29416 0
M  V30 8453 C 819.803 3.48737 3.31566 0
M  V30 8454 C 822.155 4.03903 3.29411 0
M  V30 8455 C 819.483 4.84171 3.31355 0
M  V30 8456 C 821.835 5.39253 3.3074 0
M  V30 8457 C 820.499 5.79547 3.31182 0
M  V30 8458 H 819.769 0.358912 0.648277 0
M  V30 8459 H 822.416 1.47552 1.22069 0
M  V30 8460 H 820.721 1.00964 3.78568 0
M  V30 8461 H 822.418 1.39998 3.75768 0
M  V30 8462 H 819.008 2.75335 3.28464 0
M  V30 8463 H 823.192 3.73395 3.2694 0
M  V30 8464 H 818.448 5.14685 3.30015 0
M  V30 8465 H 822.622 6.13417 3.29686 0
M  V30 8466 H 820.249 6.84466 3.30772 0
M  V30 8467 N 821.824 -1.22873 0.986916 0
M  V30 8468 C 823.24 -1.43594 0.696633 0
M  V30 8469 C 823.44 -1.87622 -0.734869 0
M  V30 8470 O 822.496 -2.02633 -1.50652 0
M  V30 8471 C 823.809 -2.48231 1.69711 0
M  V30 8472 C 825.357 -2.62037 1.71188 0
M  V30 8473 C 825.832 -3.6989 2.70084 0
M  V30 8474 N 827.323 -3.77341 2.68641 0
M  V30 8475 C 828.058 -4.6037 3.41829 0
M  V30 8476 N 827.554 -5.47438 4.24598 0
M  V30 8477 N 829.347 -4.54626 3.30563 0
M  V30 8478 H 821.498 -0.925982 1.91153 0
M  V30 8479 H 823.761 -0.46866 0.824052 0
M  V30 8480 H 823.467 -2.22812 2.72117 0
M  V30 8481 H 823.341 -3.46731 1.48516 0
M  V30 8482 H 825.728 -2.86803 0.694837 0
M  V30 8483 H 825.809 -1.63831 1.96451 0
M  V30 8484 H 825.453 -3.45872 3.71934 0
M  V30 8485 H 825.383 -4.67652 2.42093 0
M  V30 8486 H 827.874 -3.15124 2.08578 0
M  V30 8487 H 828.187 -6.078 4.77283 0
M  V30 8488 H 826.532 -5.4704 4.28687 0
M  V30 8489 H 829.723 -3.85627 2.65347 0
M  V30 8490 H 829.896 -5.19103 3.8786 0
M  V30 8491 N 823.302 -0.75937 -1.38099 0
M  V30 8492 C 824.551 -0.314864 -1.99227 0
M  V30 8493 C 824.864 1.1113 -1.60964 0
M  V30 8494 O 826.07 1.65657 -2.15105 0
M  V30 8495 C 824.526 -0.512001 -3.56239 0
M  V30 8496 C 824.134 -1.94762 -4.0345 0
M  V30 8497 C 825.878 -0.130497 -4.24299 0
M  V30 8498 C 823.785 -2.09301 -5.53125 0
M  V30 8499 H 822.715 -0.113978 -0.745335 0
M  V30 8500 H 825.366 -0.936736 -1.57789 0
M  V30 8501 H 823.748 0.179144 -3.95595 0
M  V30 8502 H 824.922 -2.67271 -3.75371 0
M  V30 8503 H 823.237 -2.28457 -3.48133 0
M  V30 8504 H 825.834 -0.21781 -5.34256 0
M  V30 8505 H 826.177 0.917644 -4.0606 0
M  V30 8506 H 826.71 -0.773716 -3.90203 0
M  V30 8507 H 823.449 -3.1239 -5.76275 0
M  V30 8508 H 822.969 -1.41261 -5.82928 0
M  V30 8509 H 824.648 -1.88571 -6.1891 0
M  V30 8510 N 824.78 1.49157 -0.508906 0
M  V30 8511 C 826.026 2.02773 0.0328469 0
M  V30 8512 C 826.359 1.38714 1.35912 0
M  V30 8513 O 825.634 0.525536 1.87266 0
M  V30 8514 C 825.917 3.59664 0.177088 0
M  V30 8515 C 825.77 4.34239 -1.17287 0
M  V30 8516 C 827.089 4.30505 0.913977 0
M  V30 8517 H 824.208 0.736926 0.0104631 0
M  V30 8518 H 826.85 1.781 -0.661851 0
M  V30 8519 H 825 3.80818 0.768774 0
M  V30 8520 H 826.672 4.24561 -1.80404 0
M  V30 8521 H 824.915 3.96486 -1.76016 0
M  V30 8522 H 825.586 5.42397 -1.02516 0
M  V30 8523 H 828.062 4.14054 0.412084 0
M  V30 8524 H 826.938 5.40012 0.983759 0
M  V30 8525 H 827.199 3.96302 1.95951 0
M  V30 8526 N 826.258 0.243083 1.55714 0
M  V30 8527 C 827.669 -0.260788 1.8487 0
M  V30 8528 C 828.02 -1.57879 1.16485 0
M  V30 8529 O 827.145 -2.1184 0.441908 0
M  V30 8530 C 827.74 -0.479954 3.35383 0
M  V30 8531 C 826.299 -0.928096 3.64778 0
M  V30 8532 C 825.446 -0.00316416 2.773 0
M  V30 8533 H 828.397 0.465743 1.51712 0
M  V30 8534 H 828.418 -1.32308 3.56756 0
M  V30 8535 H 827.93 0.479468 3.85127 0
M  V30 8536 H 826.031 -1.90012 3.20509 0
M  V30 8537 H 826.144 -0.7876 4.72582 0
M  V30 8538 H 824.508 -0.513849 2.49463 0
M  V30 8539 H 825.291 0.951562 3.29849 0
M  V30 8540 N 827.736 -1.57571 -0.0300757 0
M  V30 8541 C 828.666 -2.0953 -1.03051 0
M  V30 8542 C 829.647 -0.99761 -1.37774 0
M  V30 8543 O 830.832 -1.27279 -1.46676 0
M  V30 8544 C 827.962 -2.57385 -2.33174 0
M  V30 8545 C 826.916 -3.71409 -2.12696 0
M  V30 8546 C 826.242 -4.05467 -3.4857 0
M  V30 8547 C 827.542 -4.99877 -1.51396 0
M  V30 8548 H 829.236 -2.93367 -0.597999 0
M  V30 8549 H 826.782 -1.41127 -0.286203 0
M  V30 8550 H 828.735 -2.92355 -3.03491 0
M  V30 8551 H 827.459 -1.70629 -2.78484 0
M  V30 8552 H 826.118 -3.36786 -1.44813 0
M  V30 8553 H 825.766 -3.15779 -3.91526 0
M  V30 8554 H 825.466 -4.82269 -3.35694 0
M  V30 8555 H 826.99 -4.4297 -4.2025 0
M  V30 8556 H 828.404 -5.3281 -2.11629 0
M  V30 8557 H 826.801 -5.81283 -1.49098 0
M  V30 8558 H 827.871 -4.82522 -0.479676 0
M  V30 8559 N 829.214 0.302327 -1.54673 0
M  V30 8560 C 830.144 1.37759 -1.88533 0
M  V30 8561 C 831.125 1.52961 -0.744113 0
M  V30 8562 O 832.31 1.6649 -0.999731 0
M  V30 8563 C 829.44 2.74201 -2.13146 0
M  V30 8564 C 828.394 2.73765 -3.28993 0
M  V30 8565 C 827.72 4.13483 -3.39022 0
M  V30 8566 C 829.02 2.35624 -4.66132 0
M  V30 8567 H 830.714 1.0967 -2.78591 0
M  V30 8568 H 828.26 0.52613 -1.34044 0
M  V30 8569 H 830.213 3.49508 -2.35419 0
M  V30 8570 H 828.937 3.03812 -1.19858 0
M  V30 8571 H 827.596 2.00914 -3.06642 0
M  V30 8572 H 827.244 4.40269 -2.43253 0
M  V30 8573 H 826.944 4.14093 -4.16894 0
M  V30 8574 H 828.468 4.90572 -3.63553 0
M  V30 8575 H 829.882 3.00647 -4.88143 0
M  V30 8576 H 828.279 2.47449 -5.46707 0
M  V30 8577 H 829.349 1.30753 -4.66939 0
M  V30 8578 N 830.692 1.47107 0.565454 0
M  V30 8579 C 831.938 1.53535 1.32495 0
M  V30 8580 C 832.271 0.193537 1.93233 0
M  V30 8581 O 831.546 -0.796956 1.77423 0
M  V30 8582 C 831.829 2.64712 2.4413 0
M  V30 8583 C 831.682 4.08482 1.88314 0
M  V30 8584 C 833.001 2.71853 3.46098 0
M  V30 8585 H 830.12 0.558926 0.480386 0
M  V30 8586 H 832.762 1.79125 0.633575 0
M  V30 8587 H 830.912 2.43023 3.03104 0
M  V30 8588 H 832.584 4.4151 1.33665 0
M  V30 8589 H 830.827 4.17148 1.19037 0
M  V30 8590 H 831.498 4.82032 2.68978 0
M  V30 8591 H 833.974 2.91397 2.97031 0
M  V30 8592 H 832.85 3.51433 4.21646 0
M  V30 8593 H 833.111 1.78584 4.04426 0
M  V30 8594 N 832.17 -0.811516 1.35101 0
M  V30 8595 C 833.08 -1.95475 1.29718 0
M  V30 8596 C 834.096 -1.72813 0.202909 0
M  V30 8597 O 835.272 -1.96725 0.431414 0
M  V30 8598 C 832.337 -3.29975 1.06385 0
M  V30 8599 C 831.398 -3.65566 2.25077 0
M  V30 8600 C 830.631 -4.93648 2.02848 0
M  V30 8601 O 830.854 -5.617 0.992442 0
M  V30 8602 O 829.788 -5.27384 2.90087 0
M  V30 8603 H 833.614 -2.02961 2.25921 0
M  V30 8604 H 831.199 -0.948583 1.15422 0
M  V30 8605 H 833.081 -4.10506 0.951999 0
M  V30 8606 H 831.756 -3.2343 0.132294 0
M  V30 8607 H 830.663 -2.85432 2.41825 0
M  V30 8608 H 831.996 -3.7681 3.16662 0
M  V30 8609 N 833.648 -1.19017 -1.03309 0
M  V30 8610 C 834.897 -0.984542 -1.76039 0
M  V30 8611 C 835.21 0.485937 -1.89468 0
M  V30 8612 O 836.416 0.810278 -2.59127 0
M  V30 8613 C 834.872 -1.71261 -3.1654 0
M  V30 8614 C 834.48 -3.22291 -3.11179 0
M  V30 8615 C 836.224 -1.59007 -3.93595 0
M  V30 8616 C 834.131 -3.87704 -4.46587 0
M  V30 8617 H 833.061 -0.364749 -0.659905 0
M  V30 8618 H 835.712 -1.4247 -1.15649 0
M  V30 8619 H 834.094 -1.20025 -3.77373 0
M  V30 8620 H 835.268 -3.80611 -2.59753 0
M  V30 8621 H 833.583 -3.34772 -2.47622 0
M  V30 8622 H 836.18 -2.05232 -4.93745 0
M  V30 8623 H 836.523 -0.543534 -4.12736 0
M  V30 8624 H 837.056 -2.07564 -3.39355 0
M  V30 8625 H 833.795 -4.92437 -4.3265 0
M  V30 8626 H 833.315 -3.34172 -4.98085 0
M  V30 8627 H 834.994 -3.91008 -5.15482 0
M  V30 8628 N 835.127 1.22348 -0.993418 0
M  V30 8629 C 836.057 2.26584 -0.564088 0
M  V30 8630 C 837.038 1.65102 0.409298 0
M  V30 8631 O 838.223 1.91872 0.299819 0
M  V30 8632 C 835.353 3.47087 0.121554 0
M  V30 8633 C 834.307 4.21009 -0.770429 0
M  V30 8634 C 833.633 5.34678 0.0481586 0
M  V30 8635 C 834.933 4.79636 -2.06752 0
M  V30 8636 H 836.627 2.62749 -1.43538 0
M  V30 8637 H 834.173 1.26303 -0.691628 0
M  V30 8638 H 836.126 4.19166 0.433303 0
M  V30 8639 H 834.85 3.1002 1.0274 0
M  V30 8640 H 833.509 3.50764 -1.06583 0
M  V30 8641 H 833.157 4.93852 0.954933 0
M  V30 8642 H 832.857 5.85061 -0.545641 0
M  V30 8643 H 834.381 6.09573 0.353991 0
M  V30 8644 H 835.795 5.43654 -1.81969 0
M  V30 8645 H 834.192 5.4036 -2.61019 0
M  V30 8646 H 835.262 3.99659 -2.74592 0
M  V30 8647 N 836.605 0.766683 1.37694 0
M  V30 8648 C 837.552 0.147725 2.30327 0
M  V30 8649 C 838.522 -0.695366 1.50844 0
M  V30 8650 O 839.707 -0.64878 1.79431 0
M  V30 8651 C 836.847 -0.72935 3.37305 0
M  V30 8652 C 835.96 0.129795 4.31805 0
M  V30 8653 C 835.095 -0.751511 5.25857 0
M  V30 8654 C 834.134 0.110475 6.12 0
M  V30 8655 N 833.271 -0.728522 6.9831 0
M  V30 8656 H 838.111 0.943204 2.82679 0
M  V30 8657 H 835.648 0.476736 1.3916 0
M  V30 8658 H 837.606 -1.25263 3.97951 0
M  V30 8659 H 836.236 -1.49048 2.86329 0
M  V30 8660 H 835.288 0.770829 3.72508 0
M  V30 8661 H 836.6 0.794923 4.92425 0
M  V30 8662 H 835.754 -1.34146 5.91684 0
M  V30 8663 H 834.493 -1.45034 4.65636 0
M  V30 8664 H 833.498 0.712999 5.45157 0
M  V30 8665 H 834.723 0.806557 6.74293 0
M  V30 8666 H 832.669 -1.41206 6.40622 0
M  V30 8667 H 832.586 -0.12058 7.55904 0
M  V30 8668 H 833.854 -1.30303 7.68532 0
M  V30 8669 N 838.083 -1.48885 0.516809 0
M  V30 8670 C 839.031 -2.31066 -0.266656 0
M  V30 8671 C 840.025 -1.40393 -0.94795 0
M  V30 8672 O 841.231 -1.57366 -0.873836 0
M  V30 8673 H 837.606 -0.744654 -0.104858 0
M  V30 8674 H 839.577 -2.95045 0.446236 0
M  V30 8675 C 838.326 -3.22131 -1.3087 0
M  V30 8676 H 837.649 -3.91839 -0.793865 0
M  V30 8677 H 839.089 -3.82544 -1.82856 0
M  V30 8678 C 837.548 -2.42825 -2.33533 0
M  V30 8679 O 838.078 -2.14364 -3.39722 0
M  V30 8680 N 836.284 -2.04559 -2.06407 0
M  V30 8681 H 835.831 -2.27905 -1.20071 0
M  V30 8682 H 835.789 -1.51807 -2.75322 0
M  V30 8683 N 839.561 -0.251338 -1.55583 0
M  V30 8684 C 840.838 0.422729 -1.90977 0
M  V30 8685 C 841.218 1.75534 -1.17265 0
M  V30 8686 O 840.566 2.26632 -0.291588 0
M  V30 8687 C 840.776 0.586448 -3.44037 0
M  V30 8688 C 842.124 0.880294 -4.15375 0
M  V30 8689 O 843.148 0.672148 -3.49801 0
M  V30 8690 O 842.007 1.27694 -5.31372 0
M  V30 8691 H 839.101 0.227622 -0.795058 0
M  V30 8692 H 841.647 -0.295733 -1.67103 0
M  V30 8693 H 840.419 -0.352327 -3.89711 0
M  V30 8694 H 840.042 1.35528 -3.73789 0
M  V30 8695 N 841.039 1.57585 0.0217189 0
M  V30 8696 C 842.287 1.89231 0.709641 0
M  V30 8697 C 842.608 0.849964 1.75501 0
M  V30 8698 O 841.878 -0.115485 1.95559 0
M  V30 8699 H 840.458 0.69838 0.265092 0
M  V30 8700 H 843.12 1.94895 -0.0140688 0
M  V30 8701 H 842.216 2.88333 1.19459 0
M  V30 8702 N 842.517 -0.29412 1.54831 0
M  V30 8703 C 843.763 -1.02999 1.74697 0
M  V30 8704 C 844.096 -1.86687 0.534949 0
M  V30 8705 O 843.371 -1.88789 -0.467863 0
M  V30 8706 C 843.654 -1.93024 3.03996 0
M  V30 8707 C 843.507 -1.1247 4.35512 0
M  V30 8708 C 844.826 -2.92085 3.29203 0
M  V30 8709 H 841.945 -0.373039 0.635618 0
M  V30 8710 H 844.587 -0.304065 1.87551 0
M  V30 8711 H 842.737 -2.5492 2.93169 0
M  V30 8712 H 844.409 -0.528067 4.58268 0
M  V30 8713 H 842.652 -0.427574 4.31688 0
M  V30 8714 H 843.323 -1.78728 5.22265 0
M  V30 8715 H 845.799 -2.40319 3.39685 0
M  V30 8716 H 844.675 -3.52234 4.20978 0
M  V30 8717 H 844.936 -3.66107 2.47827 0
M  V30 8718 N 843.995 -1.47404 -0.557645 0
M  V30 8719 C 845.411 -1.32913 -0.88353 0
M  V30 8720 C 845.611 -0.31929 -1.98954 0
M  V30 8721 O 844.667 0.26934 -2.51059 0
M  V30 8722 C 845.98 -2.72229 -1.27718 0
M  V30 8723 C 847.528 -2.8051 -1.38863 0
M  V30 8724 C 848.003 -4.20466 -1.81583 0
M  V30 8725 N 849.494 -4.23005 -1.88735 0
M  V30 8726 C 850.229 -5.2821 -2.23118 0
M  V30 8727 N 849.725 -6.4372 -2.56117 0
M  V30 8728 N 851.518 -5.15588 -2.23888 0
M  V30 8729 H 843.669 -2.11698 0.172557 0
M  V30 8730 H 845.932 -0.947889 0.0145334 0
M  V30 8731 H 845.638 -3.47556 -0.538329 0
M  V30 8732 H 845.512 -3.03971 -2.23342 0
M  V30 8733 H 847.899 -2.05457 -2.11829 0
M  V30 8734 H 847.98 -2.52423 -0.414274 0
M  V30 8735 H 847.624 -4.96025 -1.09187 0
M  V30 8736 H 847.554 -4.45977 -2.80021 0
M  V30 8737 H 850.045 -3.39674 -1.65621 0
M  V30 8738 H 850.358 -7.19754 -2.81378 0
M  V30 8739 H 848.703 -6.47041 -2.53698 0
M  V30 8740 H 851.894 -4.24374 -1.97546 0
M  V30 8741 H 852.067 -5.97685 -2.50353 0
M  V30 8742 N 845.473 0.80434 -1.35529 0
M  V30 8743 C 846.383 1.94784 -1.30753 0
M  V30 8744 C 847.399 1.72703 -0.212071 0
M  V30 8745 O 848.575 1.96494 -0.441841 0
M  V30 8746 C 845.64 3.29406 -1.08133 0
M  V30 8747 C 844.701 3.64367 -2.27013 0
M  V30 8748 C 843.934 4.92566 -2.05463 0
M  V30 8749 O 844.157 5.61166 -1.02222 0
M  V30 8750 O 843.091 5.25838 -2.92879 0
M  V30 8751 H 846.917 2.01761 -2.26994 0
M  V30 8752 H 844.502 0.942448 -1.15924 0
M  V30 8753 H 846.384 4.09995 -0.973756 0
M  V30 8754 H 845.059 3.23355 -0.149444 0
M  V30 8755 H 843.966 2.84146 -2.43335 0
M  V30 8756 H 845.299 3.75125 -3.18656 0
M  V30 8757 N 846.951 1.19563 1.02676 0
M  V30 8758 C 847.914 0.937182 2.09164 0
M  V30 8759 C 848.914 -0.0831927 1.60585 0
M  V30 8760 O 850.104 0.15178 1.73538 0
M  V30 8761 C 847.236 0.408912 3.38439 0
M  V30 8762 H 848.429 1.88164 2.33526 0
M  V30 8763 H 845.982 1.00959 1.19319 0
M  V30 8764 H 846.717 -0.541497 3.19747 0
M  V30 8765 H 846.502 1.14464 3.7502 0
M  V30 8766 H 847.992 0.247242 4.16867 0
M  V30 8767 N 848.429 -1.21819 0.999893 0
M  V30 8768 C 849.845 -1.42847 0.711824 0
M  V30 8769 C 850.045 -1.88391 -0.714928 0
M  V30 8770 O 849.101 -2.0422 -1.48494 0
M  V30 8771 C 850.414 -2.46417 1.72334 0
M  V30 8772 C 851.962 -2.60207 1.73958 0
M  V30 8773 C 852.437 -3.67005 2.73992 0
M  V30 8774 N 853.928 -3.7447 2.72628 0
M  V30 8775 C 854.663 -4.56718 3.46693 0
M  V30 8776 N 854.159 -5.42904 4.3038 0
M  V30 8777 N 855.952 -4.51094 3.35366 0
M  V30 8778 H 848.103 -0.905656 1.92124 0
M  V30 8779 H 850.366 -0.459893 0.828977 0
M  V30 8780 H 850.072 -2.19914 2.74465 0
M  V30 8781 H 849.946 -3.45137 1.52186 0
M  V30 8782 H 852.333 -2.8605 0.725217 0
M  V30 8783 H 852.414 -1.61739 1.98177 0
M  V30 8784 H 852.058 -3.41908 3.75582 0
M  V30 8785 H 851.988 -4.65058 2.4704 0
M  V30 8786 H 854.479 -3.12895 2.11909 0
M  V30 8787 H 854.792 -6.02704 4.83702 0
M  V30 8788 H 853.137 -5.42463 4.34464 0
M  V30 8789 H 856.328 -3.82791 2.69423 0
M  V30 8790 H 856.501 -5.1496 3.93344 0
M  V30 8791 N 849.908 -0.773975 -1.37286 0
M  V30 8792 C 851.133 -0.349561 -2.04433 0
M  V30 8793 C 851.558 1.02082 -1.5799 0
M  V30 8794 O 850.916 1.65458 -0.741172 0
M  V30 8795 C 850.964 -0.404292 -3.58326 0
M  V30 8796 O 850.068 0.594447 -4.08093 0
M  V30 8797 H 849.409 -0.150959 -0.646612 0
M  V30 8798 H 851.939 -1.05079 -1.75555 0
M  V30 8799 H 851.949 -0.262378 -4.07155 0
M  V30 8800 H 850.624 -1.40403 -3.91484 0
M  V30 8801 H 849.201 0.415468 -3.70578 0
M  V30 8802 N 851.386 1.48609 -0.524698 0
M  V30 8803 C 852.634 2.02097 0.0112991 0
M  V30 8804 C 852.955 1.40455 1.35268 0
M  V30 8805 O 852.225 0.56807 1.87483 0
M  V30 8806 H 850.805 0.746966 0.00716426 0
M  V30 8807 H 853.467 1.82378 -0.687329 0
M  V30 8808 H 852.563 3.11855 0.123531 0
M  V30 8809 O 852.903 0.401443 1.56431 0
M  V30 8810 H 853.594 -0.140878 1.93187 0
M  V30 END ATOM
M  V30 BEGIN BOND
M  V30 END BOND
M  V30 END CTAB
M  END
$$$$
